# generated using pymatgen
data_Fe11Si4(H4O9)3
_symmetry_space_group_name_H-M   'P 1'
_cell_length_a   5.53178605
_cell_length_b   9.10914356
_cell_length_c   12.09111970
_cell_angle_alpha   87.48772961
_cell_angle_beta   89.56971539
_cell_angle_gamma   72.18700632
_symmetry_Int_Tables_number   1
_chemical_formula_structural   Fe11Si4(H4O9)3
_chemical_formula_sum   'Fe11 Si4 H12 O27'
_cell_volume   579.49248286
_cell_formula_units_Z   1
loop_
 _symmetry_equiv_pos_site_id
 _symmetry_equiv_pos_as_xyz
  1  'x, y, z'
loop_
 _atom_site_type_symbol
 _atom_site_label
 _atom_site_symmetry_multiplicity
 _atom_site_fract_x
 _atom_site_fract_y
 _atom_site_fract_z
 _atom_site_occupancy
  Fe  Fe0  1  0.58539600  0.82837200  0.08041600  1
  Fe  Fe1  1  0.80400000  0.38495600  0.52561400  1
  Fe  Fe2  1  0.94091900  0.44991200  0.05740900  1
  Fe  Fe3  1  0.61226000  0.11611200  0.38967700  1
  Fe  Fe4  1  0.27740400  0.77813100  0.72297100  1
  Fe  Fe5  1  0.83000800  0.66876700  0.83434100  1
  Fe  Fe6  1  0.49739200  0.33693000  0.16841700  1
  Fe  Fe7  1  0.16216300  0.00625000  0.50217000  1
  Fe  Fe8  1  0.39142900  0.55772000  0.94611200  1
  Fe  Fe9  1  0.05010800  0.22594900  0.28192600  1
  Fe  Fe10  1  0.71938300  0.89163800  0.61125600  1
  Si  Si0  1  0.25973400  0.48897700  0.40749800  1
  Si  Si1  1  0.92121000  0.15018900  0.74506100  1
  Si  Si2  1  0.15220100  0.70783700  0.19160200  1
  Si  Si3  1  0.47254500  0.04302600  0.85169700  1
  H  H0  1  0.08252400  0.85225100  0.93522900  1
  H  H1  1  0.73279700  0.52198800  0.26310400  1
  H  H2  1  0.40721600  0.19952500  0.58833400  1
  H  H3  1  0.46705200  0.70810000  0.52381500  1
  H  H4  1  0.15700200  0.36951300  0.85934500  1
  H  H5  1  0.81165400  0.02631700  0.19911500  1
  H  H6  1  0.92629400  0.82206700  0.40456900  1
  H  H7  1  0.60748200  0.47502700  0.74979800  1
  H  H8  1  0.27415400  0.16236400  0.07478700  1
  H  H9  1  0.03005400  0.60608700  0.62654900  1
  H  H10  1  0.67871800  0.26837000  0.95645300  1
  H  H11  1  0.36740900  0.93555200  0.29562900  1
  O  O0  1  0.99607800  0.00147900  0.66659000  1
  O  O1  1  0.65895000  0.65418100  0.99249900  1
  O  O2  1  0.34518000  0.32634100  0.34013600  1
  O  O3  1  0.55016400  0.88984800  0.77807400  1
  O  O4  1  0.23177700  0.56572500  0.10441200  1
  O  O5  1  0.87210000  0.21323500  0.44078300  1
  O  O6  1  0.12626300  0.76160100  0.89073800  1
  O  O7  1  0.77889200  0.43281500  0.21675900  1
  O  O8  1  0.45252100  0.10823600  0.54460100  1
  O  O9  1  0.18497100  0.15889900  0.81003900  1
  O  O10  1  0.88171800  0.83485900  0.15449200  1
  O  O11  1  0.50646700  0.52338600  0.46132200  1
  O  O12  1  0.44989200  0.00739500  0.98444100  1
  O  O13  1  0.12055200  0.63426700  0.31746400  1
  O  O14  1  0.80065000  0.31453200  0.67694600  1
  O  O15  1  0.69797200  0.13207000  0.83613500  1
  O  O16  1  0.36666800  0.79808000  0.19528300  1
  O  O17  1  0.06130100  0.47952200  0.50662000  1
  O  O18  1  0.42941800  0.80278100  0.56626200  1
  O  O19  1  0.11837000  0.46430200  0.90081100  1
  O  O20  1  0.76091100  0.12562300  0.23726400  1
  O  O21  1  0.87102700  0.91496400  0.44813100  1
  O  O22  1  0.53701700  0.56917400  0.79270100  1
  O  O23  1  0.20947500  0.24936700  0.12413200  1
  O  O24  1  0.98545200  0.68997000  0.67923200  1
  O  O25  1  0.64385100  0.35685300  0.00450000  1
  O  O26  1  0.33595400  0.02437100  0.34463900  1
loop_
_geom_bond_atom_site_label_1
_geom_bond_atom_site_label_2
_geom_bond_distance
_geom_bond_site_symmetry_2
Fe0 O1 1.886701 1_554
Fe0 O10 1.891718 1_555
Fe0 O16 1.901191 1_555
Fe0 O12 1.914974 1_564
Fe1 O5 1.848005 1_555
Fe1 O17 1.883760 1_655
Fe1 O11 1.888597 1_555
Fe1 O14 1.914105 1_555
Fe2 O23 2.103190 1_655
Fe2 O7 2.138461 1_555
Fe2 O19 2.143583 1_654
Fe2 O1 2.150775 1_554
Fe2 O25 2.178056 1_555
Fe2 O4 2.264836 1_655
Fe3 O5 2.017399 1_555
Fe3 O20 2.021533 1_555
Fe3 O26 2.040834 1_555
Fe3 O21 2.050074 1_545
Fe3 O8 2.072923 1_555
Fe3 O2 2.095367 1_555
Fe4 O24 2.092000 1_455
Fe4 O18 2.098108 1_555
Fe4 O22 2.145076 1_555
Fe4 O3 2.184057 1_555
Fe4 O6 2.204824 1_555
Fe4 O0 2.232270 1_465
Fe5 O24 2.083175 1_555
Fe5 O1 2.144165 1_555
Fe5 O22 2.157612 1_555
Fe5 O19 2.174783 1_655
Fe5 O6 2.186562 1_655
Fe5 O3 2.214324 1_555
Fe6 O23 2.070528 1_555
Fe6 O7 2.102371 1_555
Fe6 O25 2.156785 1_555
Fe6 O20 2.164242 1_555
Fe6 O2 2.243896 1_555
Fe6 O4 2.259100 1_555
Fe7 O18 2.106236 1_545
Fe7 O21 2.143566 1_445
Fe7 O26 2.149766 1_555
Fe7 O8 2.161766 1_555
Fe7 O5 2.173644 1_455
Fe7 O0 2.188067 1_455
Fe8 O22 2.027854 1_555
Fe8 O1 2.031724 1_555
Fe8 O25 2.033342 1_556
Fe8 O19 2.036045 1_555
Fe8 O6 2.070759 1_555
Fe8 O4 2.096718 1_556
Fe9 O23 2.125304 1_555
Fe9 O26 2.136929 1_555
Fe9 O7 2.140215 1_455
Fe9 O20 2.153326 1_455
Fe9 O5 2.166617 1_455
Fe9 O2 2.232245 1_555
Fe10 O18 2.090468 1_555
Fe10 O24 2.109039 1_555
Fe10 O21 2.164837 1_555
Fe10 O0 2.191481 1_565
Fe10 O8 2.195004 1_565
Fe10 O3 2.218777 1_555
H0 O6 0.971870 1_555
H1 O7 0.974615 1_555
H2 O8 0.971066 1_555
H3 O18 0.988907 1_555
H4 O19 0.982868 1_555
H5 O20 0.994548 1_555
H6 O21 0.982518 1_555
H7 O22 0.993958 1_555
H8 O23 0.988353 1_555
H9 O24 0.987652 1_455
H10 O25 0.984170 1_556
H11 O26 0.995174 1_565
O0 Si1 1.634097 1_555
O2 Si0 1.659258 1_555
O3 Si3 1.631045 1_565
O4 Si2 1.656795 1_555
O9 Si3 1.684207 1_555
O9 Si1 1.686993 1_455
O10 Si2 1.638367 1_655
O11 Si0 1.636343 1_555
O12 Si3 1.635036 1_555
O13 Si2 1.665549 1_555
O13 Si0 1.671012 1_555
O14 Si1 1.628950 1_555
O15 Si3 1.688281 1_555
O15 Si1 1.689138 1_555
O16 Si2 1.638877 1_555
O17 Si0 1.636388 1_555
