# generated using pymatgen
data_DyHfF7
_symmetry_space_group_name_H-M   'P 1'
_cell_length_a   5.65961355
_cell_length_b   5.99234002
_cell_length_c   8.15155280
_cell_angle_alpha   102.50250542
_cell_angle_beta   90.00000000
_cell_angle_gamma   90.00000000
_symmetry_Int_Tables_number   1
_chemical_formula_structural   DyHfF7
_chemical_formula_sum   'Dy2 Hf2 F14'
_cell_volume   269.89875117
_cell_formula_units_Z   2
loop_
 _symmetry_equiv_pos_site_id
 _symmetry_equiv_pos_as_xyz
  1  'x, y, z'
loop_
 _atom_site_type_symbol
 _atom_site_label
 _atom_site_symmetry_multiplicity
 _atom_site_fract_x
 _atom_site_fract_y
 _atom_site_fract_z
 _atom_site_occupancy
  Dy  Dy0  1  0.69879600  0.65584518  0.68673789  1
  Dy  Dy1  1  0.19879600  0.34415482  0.31326211  1
  Hf  Hf0  1  0.70837073  0.81172569  0.22516756  1
  Hf  Hf1  1  0.20837073  0.18827431  0.77483244  1
  F  F0  1  0.89106971  0.45479145  0.47607433  1
  F  F1  1  0.39106971  0.54520855  0.52392567  1
  F  F2  1  0.43033914  0.92978706  0.77032369  1
  F  F3  1  0.93033914  0.07021294  0.22967631  1
  F  F4  1  0.95140027  0.95571217  0.75965531  1
  F  F5  1  0.45140027  0.04428783  0.24034469  1
  F  F6  1  0.99289084  0.45399386  0.78869098  1
  F  F7  1  0.49289084  0.54600614  0.21130902  1
  F  F8  1  0.69906523  0.75632273  0.97674168  1
  F  F9  1  0.19906523  0.24367727  0.02325832  1
  F  F10  1  0.70603399  0.86527904  0.47465244  1
  F  F11  1  0.20603399  0.13472096  0.52534756  1
  F  F12  1  0.49839709  0.38118068  0.78434783  1
  F  F13  1  0.99839709  0.61881932  0.21565217  1
loop_
_geom_bond_atom_site_label_1
_geom_bond_atom_site_label_2
_geom_bond_distance
_geom_bond_site_symmetry_2
Dy0 F0 2.165365 1_555
Dy0 F1 2.202992 1_555
Dy0 F2 2.232294 1_555
Dy0 F4 2.272358 1_555
Dy0 F12 2.279341 1_555
Dy0 F8 2.309691 1_555
Dy0 F6 2.315037 1_555
Dy0 F10 2.346259 1_555
Dy1 F1 2.165365 1_555
Dy1 F0 2.202992 1_455
Dy1 F3 2.232294 1_455
Dy1 F5 2.272358 1_555
Dy1 F13 2.279341 1_455
Dy1 F9 2.309691 1_555
Dy1 F7 2.315037 1_555
Dy1 F11 2.346259 1_555
F2 Hf1 1.988493 1_565
F3 Hf0 1.988493 1_545
F4 Hf1 1.999475 1_665
F5 Hf0 1.999475 1_545
F6 Hf1 1.989347 1_655
F7 Hf0 1.989347 1_555
F8 Hf0 1.980597 1_556
F9 Hf1 1.980597 1_554
F10 Hf0 1.989091 1_555
F11 Hf1 1.989091 1_555
F12 Hf1 1.999439 1_555
F13 Hf0 1.999439 1_555
