# generated using pymatgen
data_CaCuW2O7
_symmetry_space_group_name_H-M   'P 1'
_cell_length_a   9.15157500
_cell_length_b   10.59922400
_cell_length_c   11.15090114
_cell_angle_alpha   84.70552813
_cell_angle_beta   90.00000000
_cell_angle_gamma   90.00000000
_symmetry_Int_Tables_number   1
_chemical_formula_structural   CaCuW2O7
_chemical_formula_sum   'Ca6 Cu6 W12 O42'
_cell_volume   1077.01820414
_cell_formula_units_Z   6
loop_
 _symmetry_equiv_pos_site_id
 _symmetry_equiv_pos_as_xyz
  1  'x, y, z'
loop_
 _atom_site_type_symbol
 _atom_site_label
 _atom_site_symmetry_multiplicity
 _atom_site_fract_x
 _atom_site_fract_y
 _atom_site_fract_z
 _atom_site_occupancy
  Ca  Ca0  1  0.43934000  0.84551000  0.57216700  1
  Ca  Ca1  1  0.93681700  0.50000000  0.75000000  1
  Ca  Ca2  1  0.43934000  0.15449000  0.92783300  1
  Ca  Ca3  1  0.06318300  0.50000000  0.25000000  1
  Ca  Ca4  1  0.56066000  0.15449000  0.42783300  1
  Ca  Ca5  1  0.56066000  0.84551000  0.07216700  1
  Cu  Cu0  1  0.93348800  0.19146400  0.41064300  1
  Cu  Cu1  1  0.06651200  0.80853600  0.58935700  1
  Cu  Cu2  1  0.44436700  0.50000000  0.25000000  1
  Cu  Cu3  1  0.93348800  0.80853600  0.08935700  1
  Cu  Cu4  1  0.55563300  0.50000000  0.75000000  1
  Cu  Cu5  1  0.06651200  0.19146400  0.91064300  1
  W  W0  1  0.20788500  0.82650100  0.29086000  1
  W  W1  1  0.76084100  0.84512400  0.37376600  1
  W  W2  1  0.23915900  0.84512400  0.87376600  1
  W  W3  1  0.79211500  0.82650100  0.79086000  1
  W  W4  1  0.29506400  0.51899800  0.96320900  1
  W  W5  1  0.76084100  0.15487600  0.12623400  1
  W  W6  1  0.70493600  0.51899800  0.46320900  1
  W  W7  1  0.23915900  0.15487600  0.62623400  1
  W  W8  1  0.29506400  0.48100200  0.53679100  1
  W  W9  1  0.70493600  0.48100200  0.03679100  1
  W  W10  1  0.79211500  0.17349900  0.70914000  1
  W  W11  1  0.20788500  0.17349900  0.20914000  1
  O  O0  1  0.76740000  0.79806300  0.95499800  1
  O  O1  1  0.76795900  0.15623500  0.29204200  1
  O  O2  1  0.84765000  0.00000000  0.75000000  1
  O  O3  1  0.87839500  0.49221600  0.10747400  1
  O  O4  1  0.39414400  0.06042900  0.56413800  1
  O  O5  1  0.92661600  0.72289100  0.71922900  1
  O  O6  1  0.35228900  0.68867100  0.93902400  1
  O  O7  1  0.12160500  0.49221600  0.60747400  1
  O  O8  1  0.72531000  0.52467000  0.87527800  1
  O  O9  1  0.39414400  0.93957100  0.93586200  1
  O  O10  1  0.72531000  0.47533000  0.62472200  1
  O  O11  1  0.42756400  0.42193600  0.89071500  1
  O  O12  1  0.92806000  0.13514000  0.04234900  1
  O  O13  1  0.07338400  0.72289100  0.21922900  1
  O  O14  1  0.64771100  0.31132900  0.06097600  1
  O  O15  1  0.35228900  0.31132900  0.56097600  1
  O  O16  1  0.92661600  0.27710900  0.78077100  1
  O  O17  1  0.60585600  0.93957100  0.43586200  1
  O  O18  1  0.23260000  0.79806300  0.45499800  1
  O  O19  1  0.57243600  0.57806400  0.10928500  1
  O  O20  1  0.38010900  0.19559200  0.28426000  1
  O  O21  1  0.27469000  0.47533000  0.12472200  1
  O  O22  1  0.07194000  0.13514000  0.54234900  1
  O  O23  1  0.27469000  0.52467000  0.37527800  1
  O  O24  1  0.87839500  0.50778400  0.39252600  1
  O  O25  1  0.57243600  0.42193600  0.39071500  1
  O  O26  1  0.12160500  0.50778400  0.89252600  1
  O  O27  1  0.61989100  0.19559200  0.78426000  1
  O  O28  1  0.61989100  0.80440800  0.71574000  1
  O  O29  1  0.07194000  0.86486000  0.95765100  1
  O  O30  1  0.07338400  0.27710900  0.28077100  1
  O  O31  1  0.76740000  0.20193700  0.54500200  1
  O  O32  1  0.15235000  0.00000000  0.25000000  1
  O  O33  1  0.23204100  0.15623500  0.79204200  1
  O  O34  1  0.60585600  0.06042900  0.06413800  1
  O  O35  1  0.92806000  0.86486000  0.45765100  1
  O  O36  1  0.23260000  0.20193700  0.04500200  1
  O  O37  1  0.76795900  0.84376500  0.20795800  1
  O  O38  1  0.42756400  0.57806400  0.60928500  1
  O  O39  1  0.64771100  0.68867100  0.43902400  1
  O  O40  1  0.23204100  0.84376500  0.70795800  1
  O  O41  1  0.38010900  0.80440800  0.21574000  1
loop_
_geom_bond_atom_site_label_1
_geom_bond_atom_site_label_2
_geom_bond_distance
_geom_bond_site_symmetry_2
Ca0 O4 2.308814 1_565
Ca0 O17 2.312292 1_555
Ca0 O28 2.313948 1_555
Ca0 O18 2.379258 1_555
Ca0 O40 2.426311 1_555
Ca0 O38 2.828787 1_555
Ca0 O39 3.009907 1_555
Ca1 O26 2.327377 1_655
Ca1 O7 2.327377 1_655
Ca1 O5 2.357567 1_555
Ca1 O16 2.357567 1_555
Ca1 O8 2.415352 1_555
Ca1 O10 2.415352 1_555
Ca2 O9 2.308814 1_545
Ca2 O34 2.312292 1_556
Ca2 O27 2.313948 1_555
Ca2 O36 2.379258 1_556
Ca2 O33 2.426311 1_555
Ca2 O11 2.828787 1_555
Ca2 O14 3.009907 1_556
Ca3 O24 2.327377 1_455
Ca3 O3 2.327377 1_455
Ca3 O30 2.357567 1_555
Ca3 O13 2.357567 1_555
Ca3 O23 2.415352 1_555
Ca3 O21 2.415352 1_555
Ca4 O17 2.308814 1_545
Ca4 O4 2.312292 1_555
Ca4 O20 2.313948 1_555
Ca4 O31 2.379258 1_555
Ca4 O1 2.426311 1_555
Ca4 O25 2.828787 1_555
Ca4 O15 3.009907 1_555
Ca5 O34 2.308814 1_565
Ca5 O9 2.312292 1_554
Ca5 O41 2.313948 1_555
Ca5 O0 2.379258 1_554
Ca5 O37 2.426311 1_555
Ca5 O19 2.828787 1_555
Ca5 O6 3.009907 1_554
Cu0 O22 1.989201 1_655
Cu0 O1 2.067453 1_555
Cu0 O30 2.077926 1_655
Cu0 O31 2.144292 1_555
Cu1 O35 1.989201 1_455
Cu1 O40 2.067453 1_555
Cu1 O5 2.077926 1_455
Cu1 O18 2.144292 1_555
Cu2 O25 2.068998 1_555
Cu2 O19 2.068998 1_555
Cu2 O21 2.120970 1_555
Cu2 O23 2.120970 1_555
Cu3 O29 1.989201 1_654
Cu3 O37 2.067453 1_555
Cu3 O13 2.077926 1_655
Cu3 O0 2.144292 1_554
Cu4 O11 2.068998 1_555
Cu4 O38 2.068998 1_555
Cu4 O8 2.120970 1_555
Cu4 O10 2.120970 1_555
Cu5 O12 1.989201 1_456
Cu5 O33 2.067453 1_555
Cu5 O16 2.077926 1_455
Cu5 O36 2.144292 1_556
O0 W3 1.841236 1_555
O1 W5 1.851440 1_555
O2 W10 1.921723 1_555
O2 W3 1.921723 1_545
O3 W9 1.781167 1_555
O4 W7 1.902957 1_555
O5 W3 1.876433 1_555
O6 W4 1.868618 1_555
O6 W2 2.031897 1_555
O7 W8 1.781167 1_555
O8 W9 1.827241 1_556
O9 W2 1.902957 1_555
O10 W6 1.827241 1_555
O11 W4 1.826389 1_555
O12 W5 1.815682 1_555
O13 W0 1.876433 1_555
O14 W9 1.868618 1_555
O14 W5 2.031897 1_555
O15 W8 1.868618 1_555
O15 W7 2.031897 1_555
O16 W10 1.876433 1_555
O17 W1 1.902957 1_555
O18 W0 1.841236 1_555
O19 W9 1.826389 1_555
O20 W11 1.810210 1_555
O21 W4 1.827241 1_554
O22 W7 1.815682 1_555
O23 W8 1.827241 1_555
O24 W6 1.781167 1_555
O25 W6 1.826389 1_555
O26 W4 1.781167 1_555
O27 W10 1.810210 1_555
O28 W3 1.810210 1_555
O29 W2 1.815682 1_555
O30 W11 1.876433 1_555
O31 W10 1.841236 1_555
O32 W11 1.921723 1_555
O32 W0 1.921723 1_545
O33 W7 1.851440 1_555
O34 W5 1.902957 1_555
O35 W1 1.815682 1_555
O36 W11 1.841236 1_555
O37 W1 1.851440 1_555
O38 W8 1.826389 1_555
O39 W6 1.868618 1_555
O39 W1 2.031897 1_555
O40 W2 1.851440 1_555
O41 W0 1.810210 1_555
