# generated using pymatgen
data_Sb2Pt3
_symmetry_space_group_name_H-M   'P 1'
_cell_length_a   5.34933934
_cell_length_b   6.54087588
_cell_length_c   6.94585597
_cell_angle_alpha   118.09182981
_cell_angle_beta   112.67539311
_cell_angle_gamma   89.99638829
_symmetry_Int_Tables_number   1
_chemical_formula_structural   Sb2Pt3
_chemical_formula_sum   'Sb4 Pt6'
_cell_volume   192.84962671
_cell_formula_units_Z   2
loop_
 _symmetry_equiv_pos_site_id
 _symmetry_equiv_pos_as_xyz
  1  'x, y, z'
loop_
 _atom_site_type_symbol
 _atom_site_label
 _atom_site_symmetry_multiplicity
 _atom_site_fract_x
 _atom_site_fract_y
 _atom_site_fract_z
 _atom_site_occupancy
  Sb  Sb0  1  0.34564768  0.60639961  0.69110656  1
  Sb  Sb1  1  0.65435207  0.39359979  0.30889283  1
  Sb  Sb2  1  0.15449178  0.91526202  0.30898769  1
  Sb  Sb3  1  0.84550785  0.08473783  0.69101171  1
  Pt  Pt0  1  0.88938623  0.51728028  0.77873095  1
  Pt  Pt1  1  0.11061327  0.48271924  0.22126815  1
  Pt  Pt2  1  0.38941585  0.26151509  0.77886134  1
  Pt  Pt3  1  0.61058583  0.73848674  0.22114184  1
  Pt  Pt4  1  0.75003820  0.00005796  -0.00002061  1
  Pt  Pt5  1  0.24996126  -0.00005856  0.00001955  1
loop_
_geom_bond_atom_site_label_1
_geom_bond_atom_site_label_2
_geom_bond_distance
_geom_bond_site_symmetry_2
Pt0 Sb3 2.587881 1_555
Pt0 Sb1 2.689878 1_555
Pt0 Sb0 2.852965 1_555
Pt0 Sb0 2.854269 1_655
Pt0 Pt1 2.957962 1_656
Pt0 Pt5 3.032281 1_666
Pt0 Pt4 3.033421 1_566
Pt0 Sb2 3.049034 1_656
Pt0 Pt2 3.154741 1_655
Pt0 Pt2 3.155243 1_555
Pt1 Sb2 2.587883 1_555
Pt1 Sb0 2.689880 1_555
Pt1 Sb1 2.852966 1_555
Pt1 Sb1 2.854270 1_455
Pt1 Pt4 3.032281 1_455
Pt1 Pt5 3.033422 1_555
Pt1 Sb3 3.049032 1_454
Pt1 Pt3 3.154741 1_455
Pt1 Pt3 3.155245 1_555
Pt2 Sb0 2.588443 1_555
Pt2 Sb2 2.690179 1_545
Pt2 Sb3 2.853399 1_455
Pt2 Sb3 2.853930 1_555
Pt2 Pt3 2.956752 1_556
Pt2 Pt4 3.032112 1_556
Pt2 Pt5 3.033534 1_556
Pt2 Sb1 3.048019 1_556
Pt3 Sb1 2.588443 1_555
Pt3 Sb3 2.690158 1_565
Pt3 Sb2 2.853395 1_655
Pt3 Sb2 2.853927 1_555
Pt3 Pt5 3.032120 1_565
Pt3 Pt4 3.033541 1_565
Pt3 Sb0 3.048038 1_554
Pt4 Sb0 2.670613 1_544
Pt4 Sb2 2.671314 1_645
Pt4 Sb1 2.671511 1_555
Pt4 Sb3 2.671630 1_554
Pt4 Pt5 2.674151 1_655
Pt4 Pt5 2.675189 1_555
Pt5 Sb1 2.670614 1_555
Pt5 Sb3 2.671313 1_454
Pt5 Sb0 2.671510 1_544
Pt5 Sb2 2.671631 1_545
