# generated using pymatgen
data_Li5Fe3(SbO5)2
_symmetry_space_group_name_H-M   'P 1'
_cell_length_a   5.39057370
_cell_length_b   5.27287836
_cell_length_c   8.28498040
_cell_angle_alpha   109.09265775
_cell_angle_beta   101.90905736
_cell_angle_gamma   99.80590056
_symmetry_Int_Tables_number   1
_chemical_formula_structural   Li5Fe3(SbO5)2
_chemical_formula_sum   'Li5 Fe3 Sb2 O10'
_cell_volume   210.42221741
_cell_formula_units_Z   1
loop_
 _symmetry_equiv_pos_site_id
 _symmetry_equiv_pos_as_xyz
  1  'x, y, z'
loop_
 _atom_site_type_symbol
 _atom_site_label
 _atom_site_symmetry_multiplicity
 _atom_site_fract_x
 _atom_site_fract_y
 _atom_site_fract_z
 _atom_site_occupancy
  Li  Li0  1  0.24185600  0.89370700  0.40952600  1
  Li  Li1  1  0.40087800  0.30304000  0.79416700  1
  Li  Li2  1  0.50054700  0.49605100  0.50044500  1
  Li  Li3  1  0.58609600  0.69388600  0.20208100  1
  Li  Li4  1  0.76761500  0.09915800  0.58780800  1
  Fe  Fe0  1  0.99832000  0.50091300  0.99957400  1
  Fe  Fe1  1  0.69351300  0.89725100  0.89198800  1
  Fe  Fe2  1  0.30633500  0.10133400  0.10903500  1
  Sb  Sb0  1  0.10217000  0.70810100  0.70056400  1
  Sb  Sb1  1  0.90015100  0.28862300  0.29780900  1
  O  O0  1  0.06096900  0.08255800  0.85239300  1
  O  O1  1  0.32470300  0.68945000  0.92518400  1
  O  O2  1  0.15181000  0.33220200  0.55935600  1
  O  O3  1  0.23333500  0.49607300  0.24640800  1
  O  O4  1  0.43274200  0.90014200  0.66423900  1
  O  O5  1  0.54849000  0.09758600  0.33873000  1
  O  O6  1  0.78205600  0.51181300  0.74680800  1
  O  O7  1  0.87342100  0.70386200  0.47139700  1
  O  O8  1  0.66622200  0.31141500  0.06851900  1
  O  O9  1  0.92877200  0.89283400  0.13396800  1
loop_
_geom_bond_atom_site_label_1
_geom_bond_atom_site_label_2
_geom_bond_distance
_geom_bond_site_symmetry_2
Li0 O3 2.076640 1_555
Li0 O5 2.106960 1_565
Li0 O4 2.135031 1_555
Li0 O7 2.299560 1_455
Li0 O2 2.424009 1_565
Li0 O9 2.541788 1_455
Li1 O4 2.099053 1_545
Li1 O1 2.126109 1_555
Li1 O2 2.190638 1_555
Li1 O0 2.224350 1_555
Li1 O6 2.330815 1_555
Li1 O8 2.405284 1_556
Li2 O2 2.149408 1_555
Li2 O5 2.182342 1_555
Li2 O7 2.218260 1_555
Li2 O6 2.245787 1_555
Li2 O4 2.256883 1_555
Li2 O3 2.292063 1_555
Li3 O8 2.124207 1_555
Li3 O5 2.125833 1_565
Li3 O3 2.168421 1_555
Li3 O9 2.233512 1_555
Li3 O7 2.418563 1_555
Li3 O1 2.422475 1_554
Li4 O6 2.121481 1_555
Li4 O5 2.152499 1_555
Li4 O7 2.217399 1_545
Li4 O4 2.240988 1_545
Li4 O2 2.319234 1_655
Li4 O0 2.460802 1_655
Fe0 O9 2.140524 1_556
Fe0 O8 2.171547 1_556
Fe0 O1 2.171680 1_655
Fe0 O3 2.182565 1_656
Fe0 O6 2.200420 1_555
Fe0 O0 2.265197 1_655
Fe1 O4 2.113772 1_555
Fe1 O9 2.149265 1_556
Fe1 O6 2.184774 1_555
Fe1 O0 2.191921 1_665
Fe1 O1 2.215752 1_555
Fe1 O8 2.244684 1_566
Fe2 O5 2.081820 1_555
Fe2 O3 2.167157 1_555
Fe2 O8 2.209832 1_555
Fe2 O0 2.221994 1_554
Fe2 O9 2.225675 1_445
Fe2 O1 2.240105 1_544
O0 Sb0 2.042063 1_545
O1 Sb0 2.037265 1_555
O2 Sb0 2.040043 1_555
O2 Sb1 2.223395 1_455
O3 Sb1 2.134222 1_455
O4 Sb0 2.024214 1_555
O5 Sb1 2.135735 1_555
O6 Sb0 2.029688 1_655
O7 Sb0 2.030382 1_655
O7 Sb1 2.239652 1_555
O8 Sb1 2.103716 1_555
O9 Sb1 2.136494 1_565
