# generated using pymatgen
data_PuTh
_symmetry_space_group_name_H-M   'P 1'
_cell_length_a   11.91894315
_cell_length_b   11.91894315
_cell_length_c   11.91894332
_cell_angle_alpha   34.03766741
_cell_angle_beta   34.03766741
_cell_angle_gamma   34.03766515
_symmetry_Int_Tables_number   1
_chemical_formula_structural   PuTh
_chemical_formula_sum   'Pu8 Th8'
_cell_volume   472.90157438
_cell_formula_units_Z   8
loop_
 _symmetry_equiv_pos_site_id
 _symmetry_equiv_pos_as_xyz
  1  'x, y, z'
loop_
 _atom_site_type_symbol
 _atom_site_label
 _atom_site_symmetry_multiplicity
 _atom_site_fract_x
 _atom_site_fract_y
 _atom_site_fract_z
 _atom_site_occupancy
  Pu  Pu0_0  1  0.00000000  0.00000000  0.00000000  1
  Pu  Pu0_1  1  0.00000000  0.00000000  0.50000000  1
  Pu  Pu0_2  1  0.00000000  0.50000000  0.00000000  1
  Pu  Pu0_3  1  0.00000000  0.50000000  0.50000000  1
  Pu  Pu0_4  1  0.50000000  0.00000000  0.00000000  1
  Pu  Pu0_5  1  0.50000000  1.00000000  0.50000000  1
  Pu  Pu0_6  1  0.50000000  0.50000000  0.00000000  1
  Pu  Pu0_7  1  0.50000000  0.50000000  0.50000000  1
  Th  Th0_0  1  0.25000000  0.25000000  0.25000000  1
  Th  Th0_1  1  0.25000000  0.25000000  0.75000000  1
  Th  Th0_2  1  0.25000000  0.75000000  0.25000000  1
  Th  Th0_3  1  0.25000000  0.75000000  0.75000000  1
  Th  Th0_4  1  0.75000000  0.25000000  0.25000000  1
  Th  Th0_5  1  0.75000000  0.25000000  0.75000000  1
  Th  Th0_6  1  0.75000000  0.75000000  0.25000000  1
  Th  Th0_7  1  0.75000000  0.75000000  0.75000000  1
loop_
_geom_bond_atom_site_label_1
_geom_bond_atom_site_label_2
_geom_bond_distance
_geom_bond_site_symmetry_2
Pu0_0 Th0_5 3.452716 1_454
Pu0_0 Th0_3 3.452716 1_544
Pu0_0 Th0_4 3.452716 1_455
Pu0_0 Th0_2 3.452716 1_545
Pu0_0 Th0_6 3.452716 1_445
Pu0_0 Th0_1 3.452716 1_554
Pu0_0 Pu0_6 3.488508 1_455
Pu0_0 Pu0_6 3.488508 1_545
Pu0_0 Pu0_5 3.488508 1_445
Pu0_0 Pu0_3 3.488508 1_545
Pu0_0 Pu0_3 3.488508 1_554
Pu0_0 Pu0_5 3.488508 1_544
Pu0_1 Th0_2 3.452716 1_545
Pu0_1 Th0_4 3.452716 1_455
Pu0_1 Th0_5 3.452716 1_455
Pu0_1 Th0_3 3.452716 1_545
Pu0_1 Th0_7 3.452716 1_445
Pu0_1 Th0_0 3.452716 1_555
Pu0_1 Pu0_7 3.488508 1_455
Pu0_1 Pu0_7 3.488508 1_545
Pu0_1 Pu0_4 3.488508 1_555
Pu0_1 Pu0_2 3.488508 1_546
Pu0_1 Pu0_2 3.488508 1_555
Pu0_1 Pu0_4 3.488508 1_456
Pu0_2 Th0_7 3.452716 1_454
Pu0_2 Th0_1 3.452716 1_554
Pu0_2 Th0_0 3.452716 1_555
Pu0_2 Th0_6 3.452716 1_455
Pu0_2 Th0_4 3.452716 1_455
Pu0_2 Th0_3 3.452716 1_554
Pu0_2 Pu0_4 3.488508 1_555
Pu0_2 Pu0_4 3.488508 1_465
Pu0_2 Pu0_7 3.488508 1_455
Pu0_2 Pu0_7 3.488508 1_554
Pu0_3 Th0_6 3.452716 1_455
Pu0_3 Th0_0 3.452716 1_555
Pu0_3 Th0_1 3.452716 1_555
Pu0_3 Th0_7 3.452716 1_455
Pu0_3 Th0_5 3.452716 1_455
Pu0_3 Th0_2 3.452716 1_555
Pu0_3 Pu0_5 3.488508 1_545
Pu0_3 Pu0_5 3.488508 1_455
Pu0_3 Pu0_6 3.488508 1_555
Pu0_3 Pu0_6 3.488508 1_456
Pu0_4 Th0_7 3.452716 1_544
Pu0_4 Th0_1 3.452716 1_554
Pu0_4 Th0_0 3.452716 1_555
Pu0_4 Th0_6 3.452716 1_545
Pu0_4 Th0_2 3.452716 1_545
Pu0_4 Th0_5 3.452716 1_554
Pu0_4 Pu0_7 3.488508 1_554
Pu0_4 Pu0_7 3.488508 1_545
Pu0_5 Th0_6 3.452716 1_555
Pu0_5 Th0_0 3.452716 1_565
Pu0_5 Th0_1 3.452716 1_565
Pu0_5 Th0_7 3.452716 1_555
Pu0_5 Th0_3 3.452716 1_555
Pu0_5 Th0_4 3.452716 1_565
Pu0_5 Pu0_6 3.488508 1_556
Pu0_5 Pu0_6 3.488508 1_565
Pu0_6 Th0_3 3.452716 1_554
Pu0_6 Th0_5 3.452716 1_554
Pu0_6 Th0_4 3.452716 1_555
Pu0_6 Th0_2 3.452716 1_555
Pu0_6 Th0_0 3.452716 1_555
Pu0_6 Th0_7 3.452716 1_554
Pu0_7 Th0_4 3.452716 1_555
Pu0_7 Th0_2 3.452716 1_555
Pu0_7 Th0_5 3.452716 1_555
Pu0_7 Th0_3 3.452716 1_555
Pu0_7 Th0_1 3.452716 1_555
Pu0_7 Th0_6 3.452716 1_555
Th0_0 Th0_6 3.488508 1_455
Th0_0 Th0_6 3.488508 1_545
Th0_0 Th0_5 3.488508 1_455
Th0_0 Th0_3 3.488508 1_545
Th0_0 Th0_3 3.488508 1_554
Th0_0 Th0_5 3.488508 1_554
Th0_1 Th0_7 3.488508 1_545
Th0_1 Th0_7 3.488508 1_455
Th0_1 Th0_4 3.488508 1_555
Th0_1 Th0_2 3.488508 1_546
Th0_1 Th0_2 3.488508 1_555
Th0_1 Th0_4 3.488508 1_456
Th0_2 Th0_4 3.488508 1_555
Th0_2 Th0_4 3.488508 1_465
Th0_2 Th0_7 3.488508 1_455
Th0_2 Th0_7 3.488508 1_554
Th0_3 Th0_5 3.488508 1_465
Th0_3 Th0_5 3.488508 1_555
Th0_3 Th0_6 3.488508 1_555
Th0_3 Th0_6 3.488508 1_456
Th0_4 Th0_7 3.488508 1_545
Th0_4 Th0_7 3.488508 1_554
Th0_5 Th0_6 3.488508 1_546
Th0_5 Th0_6 3.488508 1_555
