# generated using pymatgen
data_CdH7C3NO6
_symmetry_space_group_name_H-M   'P 1'
_cell_length_a   7.12442800
_cell_length_b   9.73125400
_cell_length_c   11.13210400
_cell_angle_alpha   90.00000000
_cell_angle_beta   90.00000000
_cell_angle_gamma   90.00000000
_symmetry_Int_Tables_number   1
_chemical_formula_structural   CdH7C3NO6
_chemical_formula_sum   'Cd4 H28 C12 N4 O24'
_cell_volume   771.78452312
_cell_formula_units_Z   4
loop_
 _symmetry_equiv_pos_site_id
 _symmetry_equiv_pos_as_xyz
  1  'x, y, z'
loop_
 _atom_site_type_symbol
 _atom_site_label
 _atom_site_symmetry_multiplicity
 _atom_site_fract_x
 _atom_site_fract_y
 _atom_site_fract_z
 _atom_site_occupancy
  Cd  Cd0  1  0.60113600  0.00461200  0.96805500  1
  Cd  Cd1  1  0.39886400  0.99538800  0.46805500  1
  Cd  Cd2  1  0.89886400  0.50461200  0.46805500  1
  Cd  Cd3  1  0.10113600  0.49538800  0.96805500  1
  H  H0  1  0.54193700  0.25993500  0.81454800  1
  H  H1  1  0.45806300  0.74006500  0.31454800  1
  H  H2  1  0.95806300  0.75993500  0.31454800  1
  H  H3  1  0.04193700  0.24006500  0.81454800  1
  H  H4  1  0.62700700  0.72755300  0.09075700  1
  H  H5  1  0.37299300  0.27244700  0.59075700  1
  H  H6  1  0.87299300  0.22755300  0.59075700  1
  H  H7  1  0.12700700  0.77244700  0.09075700  1
  H  H8  1  0.26335000  0.53993800  0.66762800  1
  H  H9  1  0.73665000  0.46006200  0.16762800  1
  H  H10  1  0.23665000  0.03993800  0.16762800  1
  H  H11  1  0.76335000  0.96006200  0.66762800  1
  H  H12  1  0.31113100  0.69659200  0.61614500  1
  H  H13  1  0.68886900  0.30340800  0.11614500  1
  H  H14  1  0.18886900  0.19659200  0.11614500  1
  H  H15  1  0.81113100  0.80340800  0.61614500  1
  H  H16  1  0.77992600  0.01661100  0.32834500  1
  H  H17  1  0.22007400  0.98338900  0.82834500  1
  H  H18  1  0.72007400  0.51661100  0.82834500  1
  H  H19  1  0.27992600  0.48338900  0.32834500  1
  H  H20  1  0.49141900  0.59267300  0.66261400  1
  H  H21  1  0.50858100  0.40732700  0.16261400  1
  H  H22  1  0.00858100  0.09267300  0.16261400  1
  H  H23  1  0.99141900  0.90732700  0.66261400  1
  H  H24  1  0.33921600  0.66287500  0.76353300  1
  H  H25  1  0.66078400  0.33712500  0.26353300  1
  H  H26  1  0.16078400  0.16287500  0.26353300  1
  H  H27  1  0.83921600  0.83712500  0.76353300  1
  C  C0  1  0.68460800  0.03106600  0.25077000  1
  C  C1  1  0.31539200  0.96893400  0.75077000  1
  C  C2  1  0.81539200  0.53106600  0.75077000  1
  C  C3  1  0.18460800  0.46893400  0.25077000  1
  C  C4  1  0.74348600  0.70702300  0.02674300  1
  C  C5  1  0.25651400  0.29297700  0.52674300  1
  C  C6  1  0.75651400  0.20702300  0.52674300  1
  C  C7  1  0.24348600  0.79297700  0.02674300  1
  C  C8  1  0.43918700  0.29057900  0.88474700  1
  C  C9  1  0.56081300  0.70942100  0.38474700  1
  C  C10  1  0.06081300  0.79057900  0.38474700  1
  C  C11  1  0.93918700  0.20942100  0.88474700  1
  N  N0  1  0.35224300  0.62363800  0.67780400  1
  N  N1  1  0.64775700  0.37636200  0.17780400  1
  N  N2  1  0.14775700  0.12363800  0.17780400  1
  N  N3  1  0.85224300  0.87636200  0.67780400  1
  O  O0  1  0.42361800  0.21226900  0.97591500  1
  O  O1  1  0.57638200  0.78773100  0.47591500  1
  O  O2  1  0.07638200  0.71226900  0.47591500  1
  O  O3  1  0.92361800  0.28773100  0.97591500  1
  O  O4  1  0.77292100  0.79459300  0.94455500  1
  O  O5  1  0.22707900  0.20540700  0.44455500  1
  O  O6  1  0.72707900  0.29459300  0.44455500  1
  O  O7  1  0.27292100  0.70540700  0.94455500  1
  O  O8  1  0.76455400  0.04460400  0.14827600  1
  O  O9  1  0.23544600  0.95539600  0.64827600  1
  O  O10  1  0.73544600  0.54460400  0.64827600  1
  O  O11  1  0.26455400  0.45539600  0.14827600  1
  O  O12  1  0.34880000  0.40003100  0.86433500  1
  O  O13  1  0.65120000  0.59996900  0.36433500  1
  O  O14  1  0.15120000  0.90003100  0.36433500  1
  O  O15  1  0.84880000  0.09996900  0.86433500  1
  O  O16  1  0.48984500  0.96675900  0.76930700  1
  O  O17  1  0.51015500  0.03324100  0.26930700  1
  O  O18  1  0.01015500  0.46675900  0.26930700  1
  O  O19  1  0.98984500  0.53324100  0.76930700  1
  O  O20  1  0.33275300  0.90388200  0.04582200  1
  O  O21  1  0.66724700  0.09611800  0.54582200  1
  O  O22  1  0.16724700  0.40388200  0.54582200  1
  O  O23  1  0.83275300  0.59611800  0.04582200  1
loop_
_geom_bond_atom_site_label_1
_geom_bond_atom_site_label_2
_geom_bond_distance
_geom_bond_site_symmetry_2
Cd0 O15 2.303815 1_555
Cd0 O20 2.316535 1_546
Cd0 O8 2.352010 1_556
Cd0 O16 2.378957 1_545
Cd0 O0 2.385506 1_555
Cd0 O4 2.396498 1_545
Cd1 O14 2.303815 1_555
Cd1 O21 2.316535 1_565
Cd1 O9 2.352010 1_555
Cd1 O17 2.378957 1_565
Cd1 O1 2.385506 1_555
Cd1 O5 2.396498 1_565
Cd2 O13 2.303815 1_555
Cd2 O22 2.316535 1_655
Cd2 O10 2.352010 1_555
Cd2 O18 2.378957 1_655
Cd2 O2 2.385506 1_655
Cd2 O6 2.396498 1_555
Cd3 O12 2.303815 1_555
Cd3 O23 2.316535 1_456
Cd3 O11 2.352010 1_556
Cd3 O19 2.378957 1_455
Cd3 O3 2.385506 1_455
Cd3 O7 2.396498 1_555
H8 N0 1.037948 1_555
H9 N1 1.037948 1_555
H10 N2 1.037948 1_555
H11 N3 1.037948 1_555
H12 N0 1.030016 1_555
H13 N1 1.030016 1_555
H14 N2 1.030016 1_555
H15 N3 1.030016 1_555
H20 N0 1.050030 1_555
H21 N1 1.050030 1_555
H22 N2 1.050030 1_555
H23 N3 1.050030 1_555
H24 N0 1.032074 1_555
H25 N1 1.032074 1_555
H26 N2 1.032074 1_555
H27 N3 1.032074 1_555
C0 H16 1.107566 1_555
C0 O17 1.260070 1_555
C0 O8 1.282024 1_555
C1 H17 1.107566 1_555
C1 O16 1.260070 1_555
C1 O9 1.282024 1_555
C2 H18 1.107566 1_555
C2 O19 1.260070 1_555
C2 O10 1.282024 1_555
C3 H19 1.107566 1_555
C3 O18 1.260070 1_555
C3 O11 1.282024 1_555
C4 H4 1.111922 1_555
C4 O4 1.267775 1_554
C4 O23 1.270568 1_555
C5 H5 1.111922 1_555
C5 O5 1.267775 1_555
C5 O22 1.270568 1_555
C6 H6 1.111922 1_555
C6 O6 1.267775 1_555
C6 O21 1.270568 1_555
C7 H7 1.111922 1_555
C7 O7 1.267775 1_554
C7 O20 1.270568 1_555
C8 H0 1.111524 1_555
C8 O12 1.265212 1_555
C8 O0 1.273984 1_555
C9 H1 1.111524 1_555
C9 O13 1.265212 1_555
C9 O1 1.273984 1_555
C10 H2 1.111524 1_455
C10 O14 1.265212 1_555
C10 O2 1.273984 1_555
C11 H3 1.111524 1_655
C11 O15 1.265212 1_555
C11 O3 1.273984 1_555
