# generated using pymatgen
data_HfMg14VO16
_symmetry_space_group_name_H-M   'P 1'
_cell_length_a   8.64426890
_cell_length_b   8.64426890
_cell_length_c   4.32997147
_cell_angle_alpha   90.00000000
_cell_angle_beta   90.00000000
_cell_angle_gamma   90.00000000
_symmetry_Int_Tables_number   1
_chemical_formula_structural   HfMg14VO16
_chemical_formula_sum   'Hf1 Mg14 V1 O16'
_cell_volume   323.55012439
_cell_formula_units_Z   1
loop_
 _symmetry_equiv_pos_site_id
 _symmetry_equiv_pos_as_xyz
  1  'x, y, z'
loop_
 _atom_site_type_symbol
 _atom_site_label
 _atom_site_symmetry_multiplicity
 _atom_site_fract_x
 _atom_site_fract_y
 _atom_site_fract_z
 _atom_site_occupancy
  Hf  Hf0  1  0.50000000  0.50000000  0.00000000  1
  Mg  Mg0  1  0.00000000  0.50000000  0.00000000  1
  Mg  Mg1  1  0.50000000  0.00000000  0.00000000  1
  Mg  Mg2  1  0.00000000  0.24988863  0.50000000  1
  Mg  Mg3  1  0.00000000  0.75011137  0.50000000  1
  Mg  Mg4  1  0.50000000  0.24445967  0.50000000  1
  Mg  Mg5  1  0.50000000  0.75554033  0.50000000  1
  Mg  Mg6  1  0.24988863  0.00000000  0.50000000  1
  Mg  Mg7  1  0.24445967  0.50000000  0.50000000  1
  Mg  Mg8  1  0.75011137  0.00000000  0.50000000  1
  Mg  Mg9  1  0.75554033  0.50000000  0.50000000  1
  Mg  Mg10  1  0.24496438  0.24496438  0.00000000  1
  Mg  Mg11  1  0.24496438  0.75503562  0.00000000  1
  Mg  Mg12  1  0.75503562  0.24496438  0.00000000  1
  Mg  Mg13  1  0.75503562  0.75503562  0.00000000  1
  V  V0  1  0.00000000  0.00000000  0.00000000  1
  O  O0  1  0.25424883  0.00000000  0.00000000  1
  O  O1  1  0.24482606  0.50000000  0.00000000  1
  O  O2  1  0.74575117  0.00000000  0.00000000  1
  O  O3  1  0.75517394  0.50000000  0.00000000  1
  O  O4  1  0.24965332  0.24965332  0.50000000  1
  O  O5  1  0.24965332  0.75034668  0.50000000  1
  O  O6  1  0.75034668  0.24965332  0.50000000  1
  O  O7  1  0.75034668  0.75034668  0.50000000  1
  O  O8  1  0.00000000  0.00000000  0.50000000  1
  O  O9  1  0.00000000  0.50000000  0.50000000  1
  O  O10  1  0.50000000  0.00000000  0.50000000  1
  O  O11  1  0.50000000  0.50000000  0.50000000  1
  O  O12  1  0.00000000  0.25424883  0.00000000  1
  O  O13  1  0.00000000  0.74575117  0.00000000  1
  O  O14  1  0.50000000  0.24482606  0.00000000  1
  O  O15  1  0.50000000  0.75517394  0.00000000  1
loop_
_geom_bond_atom_site_label_1
_geom_bond_atom_site_label_2
_geom_bond_distance
_geom_bond_site_symmetry_2
Hf0 O11 2.164986 1_554
Hf0 O11 2.164986 1_555
Hf0 O1 2.205792 1_555
Hf0 O14 2.205792 1_555
Hf0 O15 2.205792 1_555
Hf0 O3 2.205792 1_555
Mg0 O3 2.116342 1_455
Mg0 O1 2.116342 1_555
Mg0 O12 2.124339 1_555
Mg0 O13 2.124339 1_555
Mg0 O9 2.164986 1_554
Mg0 O9 2.164986 1_555
Mg1 O15 2.116342 1_545
Mg1 O14 2.116342 1_555
Mg1 O0 2.124339 1_555
Mg1 O2 2.124339 1_555
Mg1 O10 2.164986 1_555
Mg1 O10 2.164986 1_554
Mg2 O6 2.158071 1_455
Mg2 O4 2.158071 1_555
Mg2 O8 2.160105 1_555
Mg2 O9 2.162030 1_555
Mg2 O12 2.165314 1_556
Mg2 O12 2.165314 1_555
Mg3 O7 2.158071 1_455
Mg3 O5 2.158071 1_555
Mg3 O8 2.160105 1_565
Mg3 O9 2.162030 1_555
Mg3 O13 2.165314 1_555
Mg3 O13 2.165314 1_556
Mg4 O10 2.113175 1_555
Mg4 O4 2.164530 1_555
Mg4 O6 2.164530 1_555
Mg4 O14 2.164988 1_556
Mg4 O14 2.164988 1_555
Mg4 O11 2.208959 1_555
Mg5 O10 2.113175 1_565
Mg5 O5 2.164530 1_555
Mg5 O7 2.164530 1_555
Mg5 O15 2.164988 1_556
Mg5 O15 2.164988 1_555
Mg5 O11 2.208959 1_555
Mg6 O5 2.158071 1_545
Mg6 O4 2.158071 1_555
Mg6 O8 2.160105 1_555
Mg6 O10 2.162030 1_555
Mg6 O0 2.165314 1_555
Mg6 O0 2.165314 1_556
Mg7 O9 2.113175 1_555
Mg7 O4 2.164530 1_555
Mg7 O5 2.164530 1_555
Mg7 O1 2.164988 1_555
Mg7 O1 2.164988 1_556
Mg7 O11 2.208959 1_555
Mg8 O7 2.158071 1_545
Mg8 O6 2.158071 1_555
Mg8 O8 2.160105 1_655
Mg8 O10 2.162030 1_555
Mg8 O2 2.165314 1_556
Mg8 O2 2.165314 1_555
Mg9 O9 2.113175 1_655
Mg9 O6 2.164530 1_555
Mg9 O7 2.164530 1_555
Mg9 O3 2.164988 1_556
Mg9 O3 2.164988 1_555
Mg9 O11 2.208959 1_555
Mg10 O0 2.119058 1_555
Mg10 O12 2.119058 1_555
Mg10 O4 2.165744 1_554
Mg10 O4 2.165744 1_555
Mg10 O14 2.204597 1_555
Mg10 O1 2.204597 1_555
Mg11 O0 2.119058 1_565
Mg11 O13 2.119058 1_555
Mg11 O5 2.165744 1_554
Mg11 O5 2.165744 1_555
Mg11 O15 2.204597 1_555
Mg11 O1 2.204597 1_555
Mg12 O12 2.119058 1_655
Mg12 O2 2.119058 1_555
Mg12 O6 2.165744 1_555
Mg12 O6 2.165744 1_554
Mg12 O14 2.204597 1_555
Mg12 O3 2.204597 1_555
Mg13 O13 2.119058 1_655
Mg13 O2 2.119058 1_565
Mg13 O7 2.165744 1_554
Mg13 O7 2.165744 1_555
Mg13 O15 2.204597 1_555
Mg13 O3 2.204597 1_555
O0 V0 2.197795 1_555
O2 V0 2.197795 1_655
O8 V0 2.164986 1_555
O8 V0 2.164986 1_556
O12 V0 2.197795 1_555
O13 V0 2.197795 1_565
