# generated using pymatgen
data_Yb2Te5O13
_symmetry_space_group_name_H-M   'P 1'
_cell_length_a   7.18670700
_cell_length_b   9.01022300
_cell_length_c   10.44781036
_cell_angle_alpha   85.27765574
_cell_angle_beta   88.08474612
_cell_angle_gamma   78.53843027
_symmetry_Int_Tables_number   1
_chemical_formula_structural   Yb2Te5O13
_chemical_formula_sum   'Yb4 Te10 O26'
_cell_volume   660.69280145
_cell_formula_units_Z   2
loop_
 _symmetry_equiv_pos_site_id
 _symmetry_equiv_pos_as_xyz
  1  'x, y, z'
loop_
 _atom_site_type_symbol
 _atom_site_label
 _atom_site_symmetry_multiplicity
 _atom_site_fract_x
 _atom_site_fract_y
 _atom_site_fract_z
 _atom_site_occupancy
  Yb  Yb0  1  0.96657000  0.25292000  0.25789700  1
  Yb  Yb1  1  0.44226100  0.45310800  0.17545800  1
  Yb  Yb2  1  0.55773900  0.54689200  0.82454200  1
  Yb  Yb3  1  0.03343000  0.74708000  0.74210300  1
  Te  Te0  1  0.25701700  0.38583800  0.51460500  1
  Te  Te1  1  0.70736900  0.15486300  0.99342300  1
  Te  Te2  1  0.89551100  0.18606600  0.65005300  1
  Te  Te3  1  0.10448900  0.81393400  0.34994700  1
  Te  Te4  1  0.50374700  0.89688200  0.69124200  1
  Te  Te5  1  0.29263100  0.84513700  0.00657700  1
  Te  Te6  1  0.49625300  0.10311800  0.30875800  1
  Te  Te7  1  0.87345600  0.62746100  0.08767200  1
  Te  Te8  1  0.74298300  0.61416200  0.48539500  1
  Te  Te9  1  0.12654400  0.37253900  0.91232800  1
  O  O0  1  0.76318400  0.48985600  0.19276700  1
  O  O1  1  0.02585900  0.32809400  0.46540700  1
  O  O2  1  0.71122500  0.77616500  0.77571000  1
  O  O3  1  0.31561300  0.50703000  0.37127900  1
  O  O4  1  0.12492100  0.49722000  0.08850100  1
  O  O5  1  0.87507900  0.50278000  0.91149900  1
  O  O6  1  0.63039700  0.00238500  0.09750000  1
  O  O7  1  0.46627700  0.66251700  0.01568900  1
  O  O8  1  0.27251100  0.87204300  0.18482300  1
  O  O9  1  0.05968900  0.82017300  0.95370400  1
  O  O10  1  0.57743900  0.81032200  0.51807000  1
  O  O11  1  0.06255100  0.27358400  0.74366400  1
  O  O12  1  0.28877500  0.22383500  0.22429000  1
  O  O13  1  0.68438700  0.49297000  0.62872100  1
  O  O14  1  0.53372300  0.33748300  0.98431100  1
  O  O15  1  0.34843800  0.75685500  0.73592100  1
  O  O16  1  0.96606900  0.00861900  0.35141400  1
  O  O17  1  0.94031100  0.17982700  0.04629600  1
  O  O18  1  0.97414100  0.67190600  0.53459300  1
  O  O19  1  0.36960300  0.99761500  0.90250000  1
  O  O20  1  0.72748900  0.12795700  0.81517700  1
  O  O21  1  0.23681600  0.51014400  0.80723300  1
  O  O22  1  0.42256100  0.18967800  0.48193000  1
  O  O23  1  0.93744900  0.72641600  0.25633600  1
  O  O24  1  0.03393100  0.99138100  0.64858600  1
  O  O25  1  0.65156200  0.24314500  0.26407900  1
loop_
_geom_bond_atom_site_label_1
_geom_bond_atom_site_label_2
_geom_bond_distance
_geom_bond_site_symmetry_2
O0 Te7 1.865230 1_555
O0 Yb0 2.396717 1_555
O0 Yb1 2.408932 1_555
O1 Te0 1.933733 1_555
O1 Yb0 2.399772 1_455
O1 Te2 2.487154 1_455
O2 Te4 1.862946 1_555
O2 Yb3 2.296425 1_655
O2 Yb2 2.537521 1_555
O3 Te0 1.866394 1_555
O3 Yb1 2.261336 1_555
O4 Te7 1.949284 1_455
O4 Te9 2.232462 1_554
O4 Yb1 2.429698 1_555
O5 Te9 1.949284 1_655
O5 Te7 2.232462 1_556
O5 Yb2 2.429698 1_555
O6 Te1 1.841666 1_554
O6 Te6 2.542582 1_555
O7 Te5 1.854722 1_555
O7 Yb2 2.342729 1_554
O7 Yb1 2.442911 1_555
O8 Te5 1.894776 1_555
O8 Te3 2.161434 1_555
O9 Te5 1.841259 1_556
O9 Yb3 2.381985 1_555
O9 Te7 2.676494 1_456
O10 Te8 1.972904 1_555
O10 Te4 2.041165 1_555
O11 Te2 1.897674 1_455
O11 Te9 2.141855 1_555
O12 Te6 1.862946 1_555
O12 Yb0 2.296425 1_455
O12 Yb1 2.537521 1_555
O13 Te8 1.866394 1_555
O13 Yb2 2.261336 1_555
O14 Te1 1.854722 1_555
O14 Yb1 2.342729 1_556
O14 Yb2 2.442911 1_555
O15 Te4 1.866386 1_555
O15 Yb3 2.281572 1_555
O15 Yb2 2.317882 1_555
O16 Te3 1.837606 1_645
O16 Yb0 2.334254 1_555
O17 Te1 1.841259 1_554
O17 Yb0 2.381985 1_555
O17 Te9 2.676494 1_654
O18 Te8 1.933733 1_555
O18 Yb3 2.399772 1_655
O18 Te3 2.487154 1_655
O19 Te5 1.841666 1_556
O19 Te4 2.542582 1_555
O20 Te1 1.894776 1_555
O20 Te2 2.161434 1_555
O21 Te9 1.865230 1_555
O21 Yb3 2.396717 1_555
O21 Yb2 2.408932 1_555
O22 Te0 1.972904 1_555
O22 Te6 2.041165 1_555
O23 Te3 1.897674 1_655
O23 Te7 2.141855 1_555
O24 Te2 1.837606 1_465
O24 Yb3 2.334254 1_555
O25 Te6 1.866386 1_555
O25 Yb0 2.281572 1_555
O25 Yb1 2.317882 1_555
