# generated using pymatgen
data_Yb3Ge13Os4
_symmetry_space_group_name_H-M   'P 1'
_cell_length_a   9.10797800
_cell_length_b   9.10797800
_cell_length_c   9.10797800
_cell_angle_alpha   90.00000000
_cell_angle_beta   90.00000000
_cell_angle_gamma   90.00000000
_symmetry_Int_Tables_number   1
_chemical_formula_structural   Yb3Ge13Os4
_chemical_formula_sum   'Yb6 Ge26 Os8'
_cell_volume   755.55471265
_cell_formula_units_Z   2
loop_
 _symmetry_equiv_pos_site_id
 _symmetry_equiv_pos_as_xyz
  1  'x, y, z'
loop_
 _atom_site_type_symbol
 _atom_site_label
 _atom_site_symmetry_multiplicity
 _atom_site_fract_x
 _atom_site_fract_y
 _atom_site_fract_z
 _atom_site_occupancy
  Yb  Yb0  1  0.50000000  0.00000000  0.75000000  1
  Yb  Yb1  1  0.00000000  0.25000000  0.50000000  1
  Yb  Yb2  1  0.75000000  0.50000000  0.00000000  1
  Yb  Yb3  1  0.50000000  0.00000000  0.25000000  1
  Yb  Yb4  1  0.00000000  0.75000000  0.50000000  1
  Yb  Yb5  1  0.25000000  0.50000000  0.00000000  1
  Ge  Ge0  1  0.50000000  0.50000000  0.50000000  1
  Ge  Ge1  1  0.00000000  0.00000000  0.00000000  1
  Ge  Ge2  1  0.64473600  0.20606300  0.50000000  1
  Ge  Ge3  1  0.79393700  0.50000000  0.64473600  1
  Ge  Ge4  1  0.50000000  0.35526400  0.79393700  1
  Ge  Ge5  1  0.35526400  0.79393700  0.50000000  1
  Ge  Ge6  1  0.20606300  0.50000000  0.35526400  1
  Ge  Ge7  1  0.50000000  0.64473600  0.20606300  1
  Ge  Ge8  1  0.64473600  0.79393700  0.50000000  1
  Ge  Ge9  1  0.79393700  0.50000000  0.35526400  1
  Ge  Ge10  1  0.35526400  0.20606300  0.50000000  1
  Ge  Ge11  1  0.20606300  0.50000000  0.64473600  1
  Ge  Ge12  1  0.50000000  0.64473600  0.79393700  1
  Ge  Ge13  1  0.50000000  0.35526400  0.20606300  1
  Ge  Ge14  1  0.14473600  0.00000000  0.70606300  1
  Ge  Ge15  1  0.29393700  0.14473600  0.00000000  1
  Ge  Ge16  1  0.00000000  0.29393700  0.85526400  1
  Ge  Ge17  1  0.85526400  0.00000000  0.29393700  1
  Ge  Ge18  1  0.70606300  0.85526400  0.00000000  1
  Ge  Ge19  1  0.00000000  0.70606300  0.14473600  1
  Ge  Ge20  1  0.14473600  0.00000000  0.29393700  1
  Ge  Ge21  1  0.29393700  0.85526400  0.00000000  1
  Ge  Ge22  1  0.85526400  0.00000000  0.70606300  1
  Ge  Ge23  1  0.70606300  0.14473600  0.00000000  1
  Ge  Ge24  1  0.00000000  0.29393700  0.14473600  1
  Ge  Ge25  1  0.00000000  0.70606300  0.85526400  1
  Os  Os0  1  0.75000000  0.25000000  0.75000000  1
  Os  Os1  1  0.25000000  0.75000000  0.25000000  1
  Os  Os2  1  0.75000000  0.75000000  0.25000000  1
  Os  Os3  1  0.25000000  0.25000000  0.75000000  1
  Os  Os4  1  0.25000000  0.75000000  0.75000000  1
  Os  Os5  1  0.75000000  0.25000000  0.25000000  1
  Os  Os6  1  0.25000000  0.25000000  0.25000000  1
  Os  Os7  1  0.75000000  0.75000000  0.75000000  1
loop_
_geom_bond_atom_site_label_1
_geom_bond_atom_site_label_2
_geom_bond_distance
_geom_bond_site_symmetry_2
Ge0 Ge9 2.984131 1_555
Ge0 Ge13 2.984131 1_555
Ge0 Ge10 2.984131 1_555
Ge0 Ge11 2.984131 1_555
Ge0 Ge12 2.984131 1_555
Ge0 Ge3 2.984131 1_555
Ge0 Ge4 2.984131 1_555
Ge0 Ge8 2.984131 1_555
Ge0 Ge5 2.984131 1_555
Ge0 Ge7 2.984131 1_555
Ge0 Ge6 2.984131 1_555
Ge0 Ge2 2.984131 1_555
Ge1 Ge25 2.984131 1_544
Ge1 Ge14 2.984131 1_554
Ge1 Ge19 2.984131 1_545
Ge1 Ge24 2.984131 1_555
Ge1 Ge15 2.984131 1_555
Ge1 Ge21 2.984131 1_545
Ge1 Ge17 2.984131 1_455
Ge1 Ge16 2.984131 1_554
Ge1 Ge23 2.984131 1_455
Ge1 Ge18 2.984131 1_445
Ge1 Ge20 2.984131 1_555
Ge1 Ge22 2.984131 1_454
Ge2 Os0 2.502805 1_555
Ge2 Os5 2.502805 1_555
Ge2 Yb3 3.231863 1_555
Ge2 Yb0 3.231863 1_555
Ge2 Yb1 3.260389 1_655
Ge3 Os0 2.502805 1_555
Ge3 Os7 2.502805 1_555
Ge3 Ge9 2.636505 1_555
Ge3 Yb1 3.231863 1_655
Ge3 Yb4 3.231863 1_655
Ge3 Yb2 3.260389 1_556
Ge4 Os0 2.502805 1_555
Ge4 Os3 2.502805 1_555
Ge4 Yb5 3.231863 1_556
Ge4 Yb2 3.231863 1_556
Ge4 Yb0 3.260389 1_555
Ge5 Os4 2.502805 1_555
Ge5 Os1 2.502805 1_555
Ge5 Ge8 2.636505 1_555
Ge5 Yb3 3.231863 1_565
Ge5 Yb0 3.231863 1_565
Ge5 Yb4 3.260389 1_555
Ge6 Os6 2.502805 1_555
Ge6 Os1 2.502805 1_555
Ge6 Yb4 3.231863 1_555
Ge6 Yb1 3.231863 1_555
Ge6 Yb5 3.260389 1_555
Ge7 Os1 2.502805 1_555
Ge7 Os2 2.502805 1_555
Ge7 Yb5 3.231863 1_555
Ge7 Yb2 3.231863 1_555
Ge7 Yb3 3.260389 1_565
Ge8 Os7 2.502805 1_555
Ge8 Os2 2.502805 1_555
Ge8 Yb3 3.231863 1_565
Ge8 Yb0 3.231863 1_565
Ge8 Yb4 3.260389 1_655
Ge9 Os5 2.502805 1_555
Ge9 Os2 2.502805 1_555
Ge9 Yb1 3.231863 1_655
Ge9 Yb4 3.231863 1_655
Ge9 Yb2 3.260389 1_555
Ge10 Os6 2.502805 1_555
Ge10 Os3 2.502805 1_555
Ge10 Ge2 2.636505 1_555
Ge10 Yb3 3.231863 1_555
Ge10 Yb0 3.231863 1_555
Ge10 Yb1 3.260389 1_555
Ge11 Os3 2.502805 1_555
Ge11 Os4 2.502805 1_555
Ge11 Ge6 2.636505 1_555
Ge11 Yb4 3.231863 1_555
Ge11 Yb1 3.231863 1_555
Ge11 Yb5 3.260389 1_556
Ge12 Os7 2.502805 1_555
Ge12 Os4 2.502805 1_555
Ge12 Ge4 2.636505 1_555
Ge12 Yb5 3.231863 1_556
Ge12 Yb2 3.231863 1_556
Ge12 Yb0 3.260389 1_565
Ge13 Os6 2.502805 1_555
Ge13 Os5 2.502805 1_555
Ge13 Ge7 2.636505 1_555
Ge13 Yb5 3.231863 1_555
Ge13 Yb2 3.231863 1_555
Ge13 Yb3 3.260389 1_555
Ge14 Os4 2.502805 1_545
Ge14 Os3 2.502805 1_555
Ge14 Ge22 2.636505 1_455
Ge14 Yb4 3.231863 1_545
Ge14 Yb1 3.231863 1_555
Ge14 Yb0 3.260389 1_555
Ge15 Os3 2.502805 1_554
Ge15 Os6 2.502805 1_555
Ge15 Ge21 2.636505 1_545
Ge15 Yb3 3.231863 1_555
Ge15 Yb0 3.231863 1_554
Ge15 Yb5 3.260389 1_555
Ge16 Os3 2.502805 1_555
Ge16 Os0 2.502805 1_455
Ge16 Ge24 2.636505 1_556
Ge16 Yb2 3.231863 1_456
Ge16 Yb5 3.231863 1_556
Ge16 Yb1 3.260389 1_555
Ge17 Os5 2.502805 1_555
Ge17 Os2 2.502805 1_545
Ge17 Ge20 2.636505 1_655
Ge17 Yb1 3.231863 1_655
Ge17 Yb4 3.231863 1_645
Ge17 Yb3 3.260389 1_555
Ge18 Os2 2.502805 1_555
Ge18 Os7 2.502805 1_554
Ge18 Ge23 2.636505 1_565
Ge18 Yb0 3.231863 1_564
Ge18 Yb3 3.231863 1_565
Ge18 Yb2 3.260389 1_555
Ge19 Os2 2.502805 1_455
Ge19 Os1 2.502805 1_555
Ge19 Ge25 2.636505 1_554
Ge19 Yb2 3.231863 1_455
Ge19 Yb5 3.231863 1_555
Ge19 Yb4 3.260389 1_555
Ge20 Os1 2.502805 1_545
Ge20 Os6 2.502805 1_555
Ge20 Yb4 3.231863 1_545
Ge20 Yb1 3.231863 1_555
Ge20 Yb3 3.260389 1_555
Ge21 Os1 2.502805 1_555
Ge21 Os4 2.502805 1_554
Ge21 Yb0 3.231863 1_564
Ge21 Yb3 3.231863 1_565
Ge21 Yb5 3.260389 1_555
Ge22 Os0 2.502805 1_555
Ge22 Os7 2.502805 1_545
Ge22 Yb1 3.231863 1_655
Ge22 Yb4 3.231863 1_645
Ge22 Yb0 3.260389 1_555
Ge23 Os5 2.502805 1_555
Ge23 Os0 2.502805 1_554
Ge23 Yb3 3.231863 1_555
Ge23 Yb0 3.231863 1_554
Ge23 Yb2 3.260389 1_555
Ge24 Os6 2.502805 1_555
Ge24 Os5 2.502805 1_455
Ge24 Yb2 3.231863 1_455
Ge24 Yb5 3.231863 1_555
Ge24 Yb1 3.260389 1_555
Ge25 Os4 2.502805 1_555
Ge25 Os7 2.502805 1_455
Ge25 Yb2 3.231863 1_456
Ge25 Yb5 3.231863 1_556
Ge25 Yb4 3.260389 1_555
Os0 Yb2 3.220157 1_556
Os0 Yb0 3.220157 1_555
Os0 Yb1 3.220157 1_655
Os1 Yb5 3.220157 1_555
Os1 Yb3 3.220157 1_565
Os1 Yb4 3.220157 1_555
Os2 Yb4 3.220157 1_655
Os2 Yb2 3.220157 1_555
Os2 Yb3 3.220157 1_565
Os3 Yb1 3.220157 1_555
Os3 Yb5 3.220157 1_556
Os3 Yb0 3.220157 1_555
Os4 Yb0 3.220157 1_565
Os4 Yb5 3.220157 1_556
Os4 Yb4 3.220157 1_555
Os5 Yb2 3.220157 1_555
Os5 Yb3 3.220157 1_555
Os5 Yb1 3.220157 1_655
Os6 Yb1 3.220157 1_555
Os6 Yb5 3.220157 1_555
Os6 Yb3 3.220157 1_555
Os7 Yb0 3.220157 1_565
Os7 Yb2 3.220157 1_556
Os7 Yb4 3.220157 1_655
