# generated using pymatgen
data_Be2Ni(NF7)2
_symmetry_space_group_name_H-M   'P 1'
_cell_length_a   6.54155612
_cell_length_b   8.61755659
_cell_length_c   11.26393900
_cell_angle_alpha   90.00000000
_cell_angle_beta   90.00000000
_cell_angle_gamma   103.59507988
_symmetry_Int_Tables_number   1
_chemical_formula_structural   Be2Ni(NF7)2
_chemical_formula_sum   'Be4 Ni2 N4 F28'
_cell_volume   617.18216212
_cell_formula_units_Z   2
loop_
 _symmetry_equiv_pos_site_id
 _symmetry_equiv_pos_as_xyz
  1  'x, y, z'
loop_
 _atom_site_type_symbol
 _atom_site_label
 _atom_site_symmetry_multiplicity
 _atom_site_fract_x
 _atom_site_fract_y
 _atom_site_fract_z
 _atom_site_occupancy
  Be  Be0  1  0.89887400  0.56227200  0.86365900  1
  Be  Be1  1  0.10112600  0.43772800  0.13634100  1
  Be  Be2  1  0.10112600  0.93772800  0.36365900  1
  Be  Be3  1  0.89887400  0.06227200  0.63634100  1
  Ni  Ni0  1  0.50000000  0.00000000  0.00000000  1
  Ni  Ni1  1  0.50000000  0.50000000  0.50000000  1
  N  N0  1  0.72044000  0.73219600  0.14901100  1
  N  N1  1  0.27956000  0.26780400  0.85098900  1
  N  N2  1  0.27956000  0.76780400  0.64901100  1
  N  N3  1  0.72044000  0.23219600  0.35098900  1
  F  F0  1  0.38912300  0.42642900  0.85637900  1
  F  F1  1  0.61087700  0.57357100  0.14362100  1
  F  F2  1  0.61087700  0.07357100  0.35637900  1
  F  F3  1  0.38912300  0.92642900  0.64362100  1
  F  F4  1  0.83932000  0.92163700  0.57165500  1
  F  F5  1  0.16068000  0.07836300  0.42834500  1
  F  F6  1  0.16068000  0.57836300  0.07165500  1
  F  F7  1  0.83932000  0.42163700  0.92834500  1
  F  F8  1  0.39702300  0.84492500  0.89913500  1
  F  F9  1  0.60297700  0.15507500  0.10086500  1
  F  F10  1  0.60297700  0.65507500  0.39913500  1
  F  F11  1  0.39702300  0.34492500  0.60086500  1
  F  F12  1  0.81659600  0.75496900  0.03876000  1
  F  F13  1  0.18340400  0.24503100  0.96124000  1
  F  F14  1  0.18340400  0.74503100  0.53876000  1
  F  F15  1  0.81659600  0.25496900  0.46124000  1
  F  F16  1  0.45534400  0.68527800  0.63385600  1
  F  F17  1  0.54465600  0.31472200  0.36614400  1
  F  F18  1  0.54465600  0.81472200  0.13385600  1
  F  F19  1  0.45534400  0.18527800  0.86614400  1
  F  F20  1  0.74981800  0.02129000  0.93527700  1
  F  F21  1  0.25018200  0.97871000  0.06472300  1
  F  F22  1  0.25018200  0.47871000  0.43527700  1
  F  F23  1  0.74981800  0.52129000  0.56472300  1
  F  F24  1  0.93420100  0.69869300  0.79377500  1
  F  F25  1  0.06579900  0.30130700  0.20622500  1
  F  F26  1  0.06579900  0.80130700  0.29377500  1
  F  F27  1  0.93420100  0.19869300  0.70622500  1
loop_
_geom_bond_atom_site_label_1
_geom_bond_atom_site_label_2
_geom_bond_distance
_geom_bond_site_symmetry_2
Be0 F24 1.388305 1_555
Be0 F7 1.389053 1_555
Be1 F25 1.388305 1_555
Be1 F6 1.389053 1_555
Be2 F26 1.388305 1_555
Be2 F5 1.389053 1_565
Be3 F27 1.388305 1_555
Be3 F4 1.389053 1_545
F0 N1 1.387574 1_555
F1 N0 1.387574 1_555
F2 N3 1.387574 1_555
F3 N2 1.387574 1_555
F8 Ni0 1.762741 1_566
F9 Ni0 1.762741 1_555
F10 Ni1 1.762741 1_555
F11 Ni1 1.762741 1_555
F12 N0 1.385046 1_555
F13 N1 1.385046 1_555
F14 N2 1.385046 1_555
F15 N3 1.385046 1_555
F16 N2 1.497207 1_555
F16 Ni1 2.264326 1_555
F17 N3 1.497207 1_555
F17 Ni1 2.264326 1_555
F18 N0 1.497207 1_555
F18 Ni0 2.264326 1_565
F19 N1 1.497207 1_555
F19 Ni0 2.264326 1_556
F20 Ni0 1.759206 1_556
F21 Ni0 1.759206 1_565
F22 Ni1 1.759206 1_555
F23 Ni1 1.759206 1_555
