# generated using pymatgen
data_BaSrTbCeO6
_symmetry_space_group_name_H-M   'P 1'
_cell_length_a   6.15360180
_cell_length_b   6.24285242
_cell_length_c   8.74514823
_cell_angle_alpha   89.93550187
_cell_angle_beta   90.01742196
_cell_angle_gamma   89.91739719
_symmetry_Int_Tables_number   1
_chemical_formula_structural   BaSrTbCeO6
_chemical_formula_sum   'Ba2 Sr2 Tb2 Ce2 O12'
_cell_volume   335.95328095
_cell_formula_units_Z   2
loop_
 _symmetry_equiv_pos_site_id
 _symmetry_equiv_pos_as_xyz
  1  'x, y, z'
loop_
 _atom_site_type_symbol
 _atom_site_label
 _atom_site_symmetry_multiplicity
 _atom_site_fract_x
 _atom_site_fract_y
 _atom_site_fract_z
 _atom_site_occupancy
  Ba  Ba0  1  0.50886320  0.53499276  0.24993550  1
  Ba  Ba1  1  0.49113680  0.46500724  0.75006450  1
  Sr  Sr0  1  0.98900687  0.04032459  0.25041142  1
  Sr  Sr1  1  0.01099313  0.95967541  0.74958858  1
  Tb  Tb0  1  0.50000000  0.00000000  0.00000000  1
  Tb  Tb1  1  0.00000000  0.50000000  0.50000000  1
  Ce  Ce0  1  0.00000000  0.50000000  0.00000000  1
  Ce  Ce1  1  0.50000000  0.00000000  0.50000000  1
  O  O0  1  0.20411477  0.20886062  0.94718700  1
  O  O1  1  0.29095940  0.71507756  0.54357206  1
  O  O2  1  0.79588523  0.79113938  0.05281300  1
  O  O3  1  0.70904060  0.28492244  0.45642794  1
  O  O4  1  0.28681788  0.70964783  0.95811221  1
  O  O5  1  0.20806876  0.20445752  0.55191624  1
  O  O6  1  0.71318212  0.29035217  0.04188779  1
  O  O7  1  0.79193124  0.79554248  0.44808376  1
  O  O8  1  0.40075640  0.98289963  0.25198664  1
  O  O9  1  0.07725659  0.45485462  0.24818737  1
  O  O10  1  0.59924360  0.01710037  0.74801336  1
  O  O11  1  0.92274341  0.54514538  0.75181263  1
loop_
_geom_bond_atom_site_label_1
_geom_bond_atom_site_label_2
_geom_bond_distance
_geom_bond_site_symmetry_2
Ba0 O3 2.683701 1_555
Ba0 O6 2.688059 1_555
Ba0 O9 2.703394 1_555
Ba0 O8 2.873405 1_555
Ba0 O2 2.941446 1_555
Ba0 O7 2.948782 1_555
Ba0 O4 3.091288 1_554
Ba0 O1 3.108094 1_555
Ba1 O1 2.683701 1_555
Ba1 O4 2.688059 1_555
Ba1 O11 2.703394 1_555
Ba1 O10 2.873405 1_555
Ba1 O0 2.941446 1_555
Ba1 O5 2.948782 1_555
Ba1 O6 3.091288 1_556
Ba1 O3 3.108094 1_555
Ce0 O6 2.228949 1_455
Ce0 O4 2.228949 1_554
Ce0 O9 2.239161 1_555
Ce0 O11 2.239161 1_454
Ce0 O2 2.256117 1_455
Ce0 O0 2.256117 1_554
Ce1 O3 2.229157 1_555
Ce1 O1 2.229157 1_545
Ce1 O5 2.248926 1_555
Ce1 O7 2.248926 1_545
Ce1 O10 2.255759 1_555
Ce1 O8 2.255759 1_545
O0 Tb0 2.284707 1_556
O0 Sr1 2.613133 1_545
O0 Sr0 3.144959 1_456
O1 Tb1 2.271873 1_555
O1 Sr1 2.923381 1_555
O2 Tb0 2.284707 1_565
O2 Sr0 2.613133 1_565
O2 Sr1 3.144959 1_654
O3 Tb1 2.271873 1_655
O3 Sr0 2.923381 1_555
O4 Tb0 2.269092 1_566
O4 Sr1 2.937128 1_555
O5 Tb1 2.289227 1_555
O5 Sr1 2.606702 1_545
O5 Sr0 3.134836 1_455
O6 Tb0 2.269092 1_555
O6 Sr0 2.937128 1_555
O7 Tb1 2.289227 1_655
O7 Sr0 2.606702 1_565
O7 Sr1 3.134836 1_655
O8 Tb0 2.289313 1_565
O8 Sr0 2.558497 1_465
O9 Tb1 2.270794 1_555
O9 Sr0 2.645033 1_455
O10 Tb0 2.289313 1_556
O10 Sr1 2.558497 1_645
O11 Tb1 2.270794 1_655
O11 Sr1 2.645033 1_655
