# generated using pymatgen
data_Ba8Si43Ni3
_symmetry_space_group_name_H-M   'P 1'
_cell_length_a   10.32438628
_cell_length_b   10.32439259
_cell_length_c   10.32436970
_cell_angle_alpha   90.05044153
_cell_angle_beta   90.05046067
_cell_angle_gamma   90.05030548
_symmetry_Int_Tables_number   1
_chemical_formula_structural   Ba8Si43Ni3
_chemical_formula_sum   'Ba8 Si43 Ni3'
_cell_volume   1100.50443942
_cell_formula_units_Z   1
loop_
 _symmetry_equiv_pos_site_id
 _symmetry_equiv_pos_as_xyz
  1  'x, y, z'
loop_
 _atom_site_type_symbol
 _atom_site_label
 _atom_site_symmetry_multiplicity
 _atom_site_fract_x
 _atom_site_fract_y
 _atom_site_fract_z
 _atom_site_occupancy
  Ba  Ba0  1  0.25353421  0.25353448  0.25353440  1
  Ba  Ba1  1  0.74646576  0.74646542  0.74646574  1
  Ba  Ba2  1  0.49999987  0.73834704  0.26165494  1
  Ba  Ba3  1  0.73834924  0.26165143  0.49999943  1
  Ba  Ba4  1  0.26165228  0.50000073  0.73834515  1
  Ba  Ba5  1  0.00000074  0.73802561  0.26197688  1
  Ba  Ba6  1  0.73802699  0.26197398  0.00000085  1
  Ba  Ba7  1  0.26197345  0.99999849  0.73802317  1
  Si  Si0  1  0.43423581  0.43423907  0.43423760  1
  Si  Si1  1  0.06508131  0.06508080  0.06508129  1
  Si  Si2  1  0.06384393  0.43300152  0.06498757  1
  Si  Si3  1  0.43386105  0.06368391  0.43334563  1
  Si  Si4  1  0.43300097  0.06498712  0.06384388  1
  Si  Si5  1  0.06368361  0.43334541  0.43386160  1
  Si  Si6  1  0.06498785  0.06384420  0.43300039  1
  Si  Si7  1  0.43334543  0.43386100  0.06368366  1
  Si  Si8  1  0.56665456  0.93631596  0.56613802  1
  Si  Si9  1  0.93501267  0.56699908  0.93615660  1
  Si  Si10  1  0.93491911  0.93491845  0.93491911  1
  Si  Si11  1  0.56576104  0.56576445  0.56576189  1
  Si  Si12  1  0.93631588  0.56613892  0.56665401  1
  Si  Si13  1  0.56699863  0.93615574  0.93501292  1
  Si  Si14  1  0.56613920  0.56665477  0.93631692  1
  Si  Si15  1  0.93615572  0.93501200  0.56699939  1
  Si  Si16  1  0.24942421  0.56725098  0.38213579  1
  Si  Si17  1  0.56725043  0.38213776  0.24942680  1
  Si  Si18  1  0.38213737  0.24942650  0.56725165  1
  Si  Si19  1  0.24933874  0.94277714  0.13584106  1
  Si  Si20  1  0.94277740  0.13584067  0.24933872  1
  Si  Si21  1  0.13584117  0.24933868  0.94277726  1
  Si  Si22  1  0.24896269  0.55593104  0.13304076  1
  Si  Si23  1  0.93030591  0.37909163  0.24966189  1
  Si  Si24  1  0.24966124  0.93030636  0.37909039  1
  Si  Si25  1  0.55593080  0.13304084  0.24896297  1
  Si  Si26  1  0.37909123  0.24966133  0.93030447  1
  Si  Si27  1  0.13304103  0.24896209  0.55593083  1
  Si  Si28  1  0.62090924  0.06969375  0.75033820  1
  Si  Si29  1  0.75103796  0.86695869  0.44406892  1
  Si  Si30  1  0.43274770  0.75057547  0.61786322  1
  Si  Si31  1  0.86695936  0.44406946  0.75103705  1
  Si  Si32  1  0.75033882  0.62090914  0.06969521  1
  Si  Si33  1  0.05722272  0.75066115  0.86415922  1
  Si  Si34  1  0.86415955  0.05722233  0.75066132  1
  Si  Si35  1  0.75066139  0.86415853  0.05722321  1
  Si  Si36  1  0.61786333  0.43275056  0.75057329  1
  Si  Si37  1  0.75057363  0.61786271  0.43274825  1
  Si  Si38  1  0.06969297  0.75033849  0.62090945  1
  Si  Si39  1  0.44406888  0.75103715  0.86695942  1
  Si  Si40  1  0.00000037  0.24905557  0.75094390  1
  Si  Si41  1  0.24905556  0.75094427  0.00000014  1
  Si  Si42  1  0.75094450  0.99999949  0.24905609  1
  Ni  Ni0  1  0.50000197  0.25038075  0.74962049  1
  Ni  Ni1  1  0.25037865  0.74962076  0.49999915  1
  Ni  Ni2  1  0.74961986  0.49999913  0.25037984  1
loop_
_geom_bond_atom_site_label_1
_geom_bond_atom_site_label_2
_geom_bond_distance
_geom_bond_site_symmetry_2
Ba0 Si0 3.228554 1_555
Ba0 Si3 3.280429 1_555
Ba0 Si5 3.280430 1_555
Ba0 Si7 3.280433 1_555
Ba0 Si6 3.326261 1_555
Ba0 Si2 3.326264 1_555
Ba0 Si4 3.326268 1_555
Ba0 Si27 3.362145 1_555
Ba0 Si25 3.362150 1_555
Ba0 Si22 3.362153 1_555
Ba0 Si1 3.367022 1_555
Ba0 Si21 3.429987 1_554
Ba0 Si20 3.429994 1_455
Ba0 Si19 3.429996 1_545
Ba0 Si16 3.499731 1_555
Ba0 Si17 3.499737 1_555
Ba0 Si18 3.499738 1_555
Ba0 Si24 3.581326 1_545
Ba0 Si23 3.581328 1_455
Ba0 Si26 3.581341 1_554
Ba1 Si11 3.228555 1_555
Ba1 Si12 3.280428 1_555
Ba1 Si14 3.280433 1_555
Ba1 Si8 3.280434 1_555
Ba1 Si15 3.326263 1_555
Ba1 Si9 3.326264 1_555
Ba1 Si13 3.326267 1_555
Ba1 Si31 3.362145 1_555
Ba1 Si29 3.362149 1_555
Ba1 Si39 3.362155 1_555
Ba1 Si10 3.367022 1_555
Ba1 Si33 3.429991 1_655
Ba1 Si35 3.429991 1_556
Ba1 Si34 3.429997 1_565
Ba1 Si36 3.499722 1_555
Ba1 Si37 3.499739 1_555
Ba1 Si30 3.499748 1_555
Ba1 Si38 3.581317 1_655
Ba1 Si28 3.581328 1_565
Ba1 Si32 3.581334 1_556
Ba2 Si37 3.370724 1_555
Ba2 Si16 3.370747 1_555
Ba2 Si29 3.465323 1_555
Ba2 Si22 3.465339 1_555
Ba2 Si24 3.476811 1_555
Ba2 Si32 3.476824 1_555
Ba2 Ni1 3.566782 1_555
Ba2 Ni2 3.566799 1_555
Ba2 Si19 3.584384 1_555
Ba2 Si35 3.584393 1_555
Ba2 Si11 3.674483 1_555
Ba2 Si0 3.674505 1_555
Ba2 Si42 3.743784 1_555
Ba2 Si41 3.743789 1_555
Ba2 Si30 3.745238 1_555
Ba2 Si17 3.745252 1_555
Ba2 Si8 3.809953 1_555
Ba2 Si7 3.809995 1_555
Ba2 Si3 3.858277 1_565
Ba2 Si14 3.858292 1_554
Ba3 Si17 3.370751 1_555
Ba3 Si36 3.370762 1_555
Ba3 Si25 3.465329 1_555
Ba3 Si31 3.465334 1_555
Ba3 Si23 3.476806 1_555
Ba3 Si28 3.476821 1_555
Ba3 Ni2 3.566795 1_555
Ba3 Ni0 3.566802 1_555
Ba3 Si20 3.584358 1_555
Ba3 Si34 3.584370 1_555
Ba3 Si0 3.674568 1_555
Ba3 Si11 3.674570 1_555
Ba3 Si42 3.743762 1_545
Ba3 Si40 3.743762 1_655
Ba3 Si37 3.745273 1_555
Ba3 Si18 3.745280 1_555
Ba3 Si12 3.809986 1_555
Ba3 Si3 3.809994 1_555
Ba3 Si5 3.858273 1_655
Ba3 Si8 3.858289 1_545
Ba4 Si18 3.370733 1_555
Ba4 Si30 3.370741 1_555
Ba4 Si27 3.465329 1_555
Ba4 Si39 3.465338 1_555
Ba4 Si38 3.476805 1_555
Ba4 Si26 3.476829 1_555
Ba4 Ni1 3.566787 1_555
Ba4 Ni0 3.566812 1_555
Ba4 Si33 3.584377 1_555
Ba4 Si21 3.584399 1_555
Ba4 Si0 3.674495 1_555
Ba4 Si11 3.674513 1_555
Ba4 Si40 3.743784 1_555
Ba4 Si41 3.743786 1_556
Ba4 Si16 3.745245 1_555
Ba4 Si36 3.745267 1_555
Ba4 Si5 3.809956 1_555
Ba4 Si14 3.810002 1_555
Ba4 Si12 3.858271 1_455
Ba4 Si7 3.858300 1_556
Ba5 Si16 3.359352 1_555
Ba5 Si37 3.359383 1_455
Ba5 Si29 3.453017 1_455
Ba5 Si22 3.453037 1_555
Ba5 Si24 3.468170 1_555
Ba5 Si32 3.468194 1_455
Ba5 Si19 3.576682 1_555
Ba5 Si35 3.576686 1_455
Ba5 Si42 3.735962 1_455
Ba5 Si41 3.735973 1_555
Ba6 Si17 3.359400 1_555
Ba6 Si36 3.359412 1_554
Ba6 Si25 3.453038 1_555
Ba6 Si31 3.453045 1_554
Ba6 Si23 3.468173 1_555
Ba6 Si28 3.468194 1_554
Ba6 Si20 3.576656 1_555
Ba6 Si34 3.576675 1_554
Ba6 Si42 3.735959 1_545
Ba6 Si40 3.735963 1_654
Ba7 Si30 3.359351 1_555
Ba7 Si18 3.359396 1_565
Ba7 Si27 3.453023 1_565
Ba7 Si39 3.453038 1_555
Ba7 Si38 3.468166 1_555
Ba7 Si26 3.468204 1_565
Ba7 Si33 3.576674 1_555
Ba7 Si21 3.576694 1_565
Ba7 Si40 3.735962 1_565
Ba7 Si41 3.735971 1_556
Si0 Si11 2.349906 1_555
Si0 Si16 2.412474 1_555
Si0 Si17 2.412482 1_555
Si0 Si18 2.412490 1_555
Si1 Si10 2.325559 1_444
Si1 Si19 2.398010 1_545
Si1 Si20 2.398012 1_455
Si1 Si21 2.398020 1_554
Si2 Si9 2.335724 1_454
Si2 Si21 2.395840 1_554
Si2 Si22 2.397726 1_555
Si2 Si23 2.418894 1_455
Si3 Si8 2.343406 1_545
Si10 Si33 2.398010 1_655
Si10 Si34 2.398013 1_565
Si10 Si35 2.398019 1_556
Si11 Si30 2.412477 1_555
Si11 Si36 2.412485 1_555
Si11 Si37 2.412487 1_555
Si12 Si5 2.343406 1_655
Si12 Si31 2.393735 1_555
Si12 Si38 2.412222 1_655
Si12 Si37 2.423296 1_555
Si13 Si4 2.335726 1_566
Si13 Si35 2.395838 1_556
Si13 Si39 2.397727 1_555
Si13 Si28 2.418899 1_565
Si14 Si7 2.343414 1_556
Si14 Si39 2.393736 1_555
Si14 Si32 2.412224 1_556
Si14 Si36 2.423299 1_555
Si15 Si6 2.335750 1_665
Si15 Si34 2.395828 1_565
Si15 Si29 2.397721 1_555
Si15 Si38 2.418882 1_655
Si16 Si5 2.423292 1_555
Si16 Si22 2.574301 1_555
Si17 Si7 2.423297 1_555
Si17 Si25 2.574326 1_555
Si18 Si3 2.423302 1_555
Si18 Si27 2.574319 1_555
Si19 Si4 2.395837 1_565
Si19 Si41 2.425827 1_555
Si19 Si24 2.514807 1_555
Si20 Si6 2.395827 1_655
Si20 Si42 2.425832 1_545
Si20 Si23 2.514829 1_555
Si21 Si40 2.425828 1_555
Si21 Si26 2.514820 1_555
Si22 Si7 2.393736 1_555
Si22 Si41 2.438296 1_555
Si23 Si5 2.412218 1_655
Si24 Si3 2.412226 1_565
Si24 Si6 2.418885 1_565
Si25 Si3 2.393734 1_555
Si25 Si4 2.397728 1_555
Si25 Si42 2.438303 1_545
Si26 Si7 2.412230 1_556
Si26 Si4 2.418901 1_556
Si27 Si5 2.393738 1_555
Si27 Si6 2.397722 1_555
Si27 Si40 2.438293 1_555
Si28 Si8 2.412225 1_545
Si28 Si34 2.514821 1_555
Si29 Si8 2.393737 1_555
Si29 Si42 2.438292 1_555
Si29 Si37 2.574316 1_555
Si30 Si8 2.423297 1_555
Si30 Si39 2.574313 1_555
Si31 Si9 2.397730 1_555
Si31 Si40 2.438303 1_655
Si31 Si36 2.574315 1_555
Si32 Si9 2.418893 1_554
Si32 Si35 2.514814 1_555
Si33 Si9 2.395838 1_455
Si33 Si41 2.425825 1_556
Si33 Si38 2.514811 1_555
Si34 Si40 2.425834 1_655
Si35 Si42 2.425826 1_555
Si39 Si41 2.438297 1_556
Ni0 Si36 2.240957 1_555
Ni0 Si18 2.240960 1_555
Ni0 Si26 2.245526 1_555
Ni0 Si28 2.245533 1_555
Ni1 Si30 2.240961 1_555
Ni1 Si16 2.240964 1_555
Ni1 Si24 2.245531 1_555
Ni1 Si38 2.245540 1_555
Ni2 Si37 2.240952 1_555
Ni2 Si17 2.240953 1_555
Ni2 Si23 2.245525 1_555
Ni2 Si32 2.245528 1_555
