# generated using pymatgen
data_Lu3Ga5O12
_symmetry_space_group_name_H-M   'P 1'
_cell_length_a   10.62386099
_cell_length_b   10.62386099
_cell_length_c   10.62386099
_cell_angle_alpha   109.47122063
_cell_angle_beta   109.47122063
_cell_angle_gamma   109.47122063
_symmetry_Int_Tables_number   1
_chemical_formula_structural   Lu3Ga5O12
_chemical_formula_sum   'Lu12 Ga20 O48'
_cell_volume   923.05004347
_cell_formula_units_Z   4
loop_
 _symmetry_equiv_pos_site_id
 _symmetry_equiv_pos_as_xyz
  1  'x, y, z'
loop_
 _atom_site_type_symbol
 _atom_site_label
 _atom_site_symmetry_multiplicity
 _atom_site_fract_x
 _atom_site_fract_y
 _atom_site_fract_z
 _atom_site_occupancy
  Lu  Lu0  1  0.37500000  0.12500000  0.25000000  1
  Lu  Lu1  1  0.75000000  0.12500000  0.37500000  1
  Lu  Lu2  1  0.25000000  0.37500000  0.12500000  1
  Lu  Lu3  1  0.12500000  0.25000000  0.37500000  1
  Lu  Lu4  1  0.37500000  0.75000000  0.12500000  1
  Lu  Lu5  1  0.12500000  0.37500000  0.75000000  1
  Lu  Lu6  1  0.62500000  0.87500000  0.75000000  1
  Lu  Lu7  1  0.25000000  0.87500000  0.62500000  1
  Lu  Lu8  1  0.75000000  0.62500000  0.87500000  1
  Lu  Lu9  1  0.87500000  0.75000000  0.62500000  1
  Lu  Lu10  1  0.62500000  0.25000000  0.87500000  1
  Lu  Lu11  1  0.87500000  0.62500000  0.25000000  1
  Ga  Ga0  1  0.00000000  0.00000000  0.00000000  1
  Ga  Ga1  1  0.50000000  0.00000000  0.00000000  1
  Ga  Ga2  1  0.00000000  0.50000000  0.00000000  1
  Ga  Ga3  1  0.00000000  0.00000000  0.50000000  1
  Ga  Ga4  1  0.50000000  0.50000000  0.00000000  1
  Ga  Ga5  1  0.00000000  0.50000000  0.50000000  1
  Ga  Ga6  1  0.50000000  0.00000000  0.50000000  1
  Ga  Ga7  1  0.50000000  0.50000000  0.50000000  1
  Ga  Ga8  1  0.62500000  0.37500000  0.25000000  1
  Ga  Ga9  1  0.75000000  0.37500000  0.62500000  1
  Ga  Ga10  1  0.25000000  0.12500000  0.87500000  1
  Ga  Ga11  1  0.87500000  0.25000000  0.12500000  1
  Ga  Ga12  1  0.12500000  0.87500000  0.25000000  1
  Ga  Ga13  1  0.87500000  0.12500000  0.75000000  1
  Ga  Ga14  1  0.25000000  0.62500000  0.37500000  1
  Ga  Ga15  1  0.37500000  0.25000000  0.62500000  1
  Ga  Ga16  1  0.75000000  0.87500000  0.12500000  1
  Ga  Ga17  1  0.12500000  0.75000000  0.87500000  1
  Ga  Ga18  1  0.37500000  0.62500000  0.75000000  1
  Ga  Ga19  1  0.62500000  0.75000000  0.37500000  1
  O  O0  1  0.41678700  0.82317800  0.79093100  1
  O  O1  1  0.87414500  0.40639100  0.08321400  1
  O  O2  1  0.09360900  0.96775400  0.67682200  1
  O  O3  1  0.53224600  0.62585500  0.70906900  1
  O  O4  1  0.67682200  0.08321300  0.70906900  1
  O  O5  1  0.62585500  0.70906900  0.53224600  1
  O  O6  1  0.62585500  0.41678600  0.09360900  1
  O  O7  1  0.70906900  0.53224600  0.62585500  1
  O  O8  1  0.82317800  0.53224600  0.40639100  1
  O  O9  1  0.96775400  0.79093100  0.87414500  1
  O  O10  1  0.79093100  0.87414500  0.96775400  1
  O  O11  1  0.70906900  0.67682200  0.08321300  1
  O  O12  1  0.41678600  0.09360900  0.62585500  1
  O  O13  1  0.40639100  0.82317800  0.53224600  1
  O  O14  1  0.08321400  0.70906900  0.67682200  1
  O  O15  1  0.09360900  0.62585500  0.41678600  1
  O  O16  1  0.53224600  0.40639100  0.82317800  1
  O  O17  1  0.08321400  0.87414500  0.40639100  1
  O  O18  1  0.96775400  0.67682200  0.09360900  1
  O  O19  1  0.17682200  0.46775400  0.59360900  1
  O  O20  1  0.67682200  0.09360900  0.96775400  1
  O  O21  1  0.79093100  0.41678600  0.82317800  1
  O  O22  1  0.40639100  0.08321300  0.87414500  1
  O  O23  1  0.87414500  0.96775400  0.79093100  1
  O  O24  1  0.58321400  0.17682200  0.20906900  1
  O  O25  1  0.12585500  0.59360900  0.91678700  1
  O  O26  1  0.90639100  0.03224600  0.32317800  1
  O  O27  1  0.46775400  0.37414500  0.29093100  1
  O  O28  1  0.32317800  0.91678600  0.29093100  1
  O  O29  1  0.37414500  0.29093100  0.46775400  1
  O  O30  1  0.37414500  0.58321300  0.90639100  1
  O  O31  1  0.29093100  0.46775400  0.37414500  1
  O  O32  1  0.12585500  0.03224600  0.20906900  1
  O  O33  1  0.59360900  0.91678600  0.12585500  1
  O  O34  1  0.20906900  0.58321400  0.17682200  1
  O  O35  1  0.17682200  0.20906900  0.58321400  1
  O  O36  1  0.32317800  0.90639100  0.03224600  1
  O  O37  1  0.03224600  0.32317800  0.90639100  1
  O  O38  1  0.91678600  0.12585500  0.59360900  1
  O  O39  1  0.46775400  0.59360900  0.17682200  1
  O  O40  1  0.90639100  0.37414500  0.58321400  1
  O  O41  1  0.91678600  0.29093100  0.32317800  1
  O  O42  1  0.59360900  0.17682200  0.46775400  1
  O  O43  1  0.58321400  0.90639100  0.37414500  1
  O  O44  1  0.29093100  0.32317800  0.91678600  1
  O  O45  1  0.20906900  0.12585500  0.03224600  1
  O  O46  1  0.03224600  0.20906900  0.12585500  1
  O  O47  1  0.82317800  0.79093100  0.41678700  1
loop_
_geom_bond_atom_site_label_1
_geom_bond_atom_site_label_2
_geom_bond_distance
_geom_bond_site_symmetry_2
Lu0 O32 2.318248 1_555
Lu0 O27 2.318248 1_555
Lu0 O28 2.318248 1_545
Lu0 O24 2.318248 1_555
Lu0 O29 2.401116 1_555
Lu0 O45 2.401116 1_555
Lu0 O36 2.401120 1_545
Lu0 O42 2.401120 1_555
Lu1 O26 2.318245 1_555
Lu1 O42 2.318245 1_555
Lu1 O33 2.318248 1_545
Lu1 O40 2.318248 1_555
Lu1 O24 2.401108 1_555
Lu1 O41 2.401108 1_555
Lu1 O38 2.401116 1_555
Lu1 O43 2.401116 1_545
Lu2 O45 2.318248 1_555
Lu2 O31 2.318248 1_555
Lu2 O44 2.318248 1_554
Lu2 O34 2.318248 1_555
Lu2 O27 2.401116 1_555
Lu2 O46 2.401116 1_555
Lu2 O37 2.401120 1_554
Lu2 O39 2.401120 1_555
Lu3 O46 2.318248 1_555
Lu3 O29 2.318248 1_555
Lu3 O41 2.318248 1_455
Lu3 O35 2.318248 1_555
Lu3 O31 2.401116 1_555
Lu3 O32 2.401116 1_555
Lu3 O26 2.401120 1_455
Lu3 O19 2.401120 1_555
Lu4 O36 2.318245 1_555
Lu4 O25 2.318245 1_554
Lu4 O39 2.318245 1_555
Lu4 O43 2.318248 1_555
Lu4 O34 2.401108 1_555
Lu4 O28 2.401108 1_555
Lu4 O33 2.401116 1_555
Lu4 O30 2.401120 1_554
Lu5 O30 2.318245 1_555
Lu5 O37 2.318245 1_555
Lu5 O19 2.318245 1_555
Lu5 O38 2.318248 1_455
Lu5 O35 2.401108 1_555
Lu5 O44 2.401108 1_555
Lu5 O40 2.401116 1_455
Lu5 O25 2.401120 1_555
Lu6 O4 2.318238 1_565
Lu6 O0 2.318238 1_555
Lu6 O23 2.318248 1_555
Lu6 O3 2.318248 1_555
Lu6 O5 2.401116 1_555
Lu6 O10 2.401116 1_555
Lu6 O13 2.401120 1_555
Lu6 O20 2.401120 1_565
Lu7 O2 2.318245 1_555
Lu7 O22 2.318245 1_565
Lu7 O13 2.318245 1_555
Lu7 O15 2.318248 1_555
Lu7 O14 2.401108 1_555
Lu7 O0 2.401114 1_555
Lu7 O17 2.401116 1_555
Lu7 O12 2.401116 1_565
Lu8 O11 2.318238 1_556
Lu8 O10 2.318248 1_555
Lu8 O7 2.318248 1_555
Lu8 O21 2.318248 1_555
Lu8 O3 2.401116 1_555
Lu8 O9 2.401116 1_555
Lu8 O16 2.401120 1_555
Lu8 O18 2.401120 1_556
Lu9 O47 2.318238 1_555
Lu9 O9 2.318248 1_555
Lu9 O5 2.318248 1_555
Lu9 O14 2.318248 1_655
Lu9 O7 2.401116 1_555
Lu9 O23 2.401116 1_555
Lu9 O8 2.401120 1_555
Lu9 O2 2.401120 1_655
Lu10 O20 2.318245 1_555
Lu10 O16 2.318245 1_555
Lu10 O1 2.318248 1_556
Lu10 O12 2.318248 1_555
Lu10 O21 2.401108 1_555
Lu10 O4 2.401114 1_555
Lu10 O6 2.401116 1_556
Lu10 O22 2.401120 1_555
Lu11 O18 2.318245 1_555
Lu11 O8 2.318245 1_555
Lu11 O17 2.318248 1_655
Lu11 O6 2.318248 1_555
Lu11 O47 2.401114 1_555
Lu11 O11 2.401114 1_555
Lu11 O1 2.401116 1_555
Lu11 O15 2.401116 1_655
Ga0 O32 2.011464 1_555
Ga0 O45 2.011464 1_555
Ga0 O46 2.011464 1_555
Ga0 O10 2.011464 1_444
Ga0 O9 2.011464 1_444
Ga0 O23 2.011464 1_444
Ga1 O20 2.011455 1_554
Ga1 O22 2.011455 1_554
Ga1 O36 2.011455 1_545
Ga1 O24 2.011460 1_555
Ga1 O0 2.011462 1_544
Ga1 O33 2.011464 1_545
Ga2 O18 2.011455 1_455
Ga2 O25 2.011455 1_554
Ga2 O37 2.011455 1_554
Ga2 O34 2.011460 1_555
Ga2 O21 2.011460 1_454
Ga2 O1 2.011464 1_455
Ga3 O2 2.011455 1_545
Ga3 O26 2.011455 1_455
Ga3 O35 2.011460 1_555
Ga3 O47 2.011462 1_445
Ga3 O38 2.011464 1_455
Ga3 O17 2.011464 1_545
Ga4 O39 2.011455 1_555
Ga4 O30 2.011455 1_554
Ga4 O16 2.011455 1_554
Ga4 O44 2.011460 1_554
Ga4 O11 2.011462 1_555
Ga4 O6 2.011464 1_555
Ga5 O19 2.011455 1_555
Ga5 O8 2.011455 1_455
Ga5 O14 2.011460 1_555
Ga5 O41 2.011460 1_455
Ga5 O15 2.011464 1_555
Ga5 O40 2.011464 1_455
Ga6 O42 2.011455 1_555
Ga6 O13 2.011455 1_545
Ga6 O28 2.011460 1_545
Ga6 O4 2.011462 1_555
Ga6 O12 2.011464 1_555
Ga6 O43 2.011464 1_545
Ga7 O7 2.011464 1_555
Ga7 O5 2.011464 1_555
Ga7 O3 2.011464 1_555
Ga7 O27 2.011464 1_555
Ga7 O31 2.011464 1_555
Ga7 O29 2.011464 1_555
Ga8 O6 1.859234 1_555
Ga8 O27 1.859234 1_555
Ga8 O8 1.859239 1_555
Ga8 O24 1.859244 1_555
Ga9 O40 1.859234 1_555
Ga9 O7 1.859234 1_555
Ga9 O42 1.859239 1_555
Ga9 O21 1.859244 1_555
Ga10 O45 1.859234 1_556
Ga10 O22 1.859239 1_555
Ga10 O2 1.859239 1_545
Ga10 O44 1.859244 1_555
Ga11 O1 1.859234 1_555
Ga11 O46 1.859234 1_655
Ga11 O20 1.859239 1_554
Ga11 O41 1.859244 1_555
Ga12 O17 1.859234 1_555
Ga12 O32 1.859234 1_565
Ga12 O18 1.859239 1_455
Ga12 O28 1.859244 1_555
Ga13 O23 1.859234 1_545
Ga13 O38 1.859234 1_555
Ga13 O37 1.859239 1_655
Ga13 O4 1.859242 1_555
Ga14 O15 1.859234 1_555
Ga14 O31 1.859234 1_555
Ga14 O13 1.859239 1_555
Ga14 O34 1.859244 1_555
Ga15 O12 1.859234 1_555
Ga15 O29 1.859234 1_555
Ga15 O16 1.859239 1_555
Ga15 O35 1.859244 1_555
Ga16 O10 1.859234 1_554
Ga16 O33 1.859234 1_555
Ga16 O26 1.859239 1_565
Ga16 O11 1.859242 1_555
Ga17 O9 1.859234 1_455
Ga17 O36 1.859239 1_556
Ga17 O25 1.859239 1_555
Ga17 O14 1.859244 1_555
Ga18 O3 1.859234 1_555
Ga18 O30 1.859239 1_555
Ga18 O19 1.859239 1_555
Ga18 O0 1.859242 1_555
Ga19 O43 1.859234 1_555
Ga19 O5 1.859234 1_555
Ga19 O39 1.859239 1_555
Ga19 O47 1.859242 1_555
