# generated using pymatgen
data_KOsN(Cl2O)2
_symmetry_space_group_name_H-M   'P 1'
_cell_length_a   7.93540132
_cell_length_b   7.93540132
_cell_length_c   7.40971900
_cell_angle_alpha   90.00000000
_cell_angle_beta   90.00000000
_cell_angle_gamma   106.92094728
_symmetry_Int_Tables_number   1
_chemical_formula_structural   KOsN(Cl2O)2
_chemical_formula_sum   'K2 Os2 N2 Cl8 O4'
_cell_volume   446.39424728
_cell_formula_units_Z   2
loop_
 _symmetry_equiv_pos_site_id
 _symmetry_equiv_pos_as_xyz
  1  'x, y, z'
loop_
 _atom_site_type_symbol
 _atom_site_label
 _atom_site_symmetry_multiplicity
 _atom_site_fract_x
 _atom_site_fract_y
 _atom_site_fract_z
 _atom_site_occupancy
  K  K0  1  0.65035100  0.34964900  0.00043900  1
  K  K1  1  0.34964900  0.65035100  0.50043900  1
  Os  Os0  1  0.16081600  0.83918400  0.99573300  1
  Os  Os1  1  0.83918400  0.16081600  0.49573300  1
  N  N0  1  0.16769100  0.83230900  0.76750400  1
  N  N1  1  0.83230900  0.16769100  0.26750400  1
  Cl  Cl0  1  0.21359400  0.13889000  0.03706600  1
  Cl  Cl1  1  0.86111000  0.78640600  0.03706600  1
  Cl  Cl2  1  0.78640600  0.86111000  0.53706600  1
  Cl  Cl3  1  0.13889000  0.21359400  0.53706600  1
  Cl  Cl4  1  0.46870500  0.86887300  0.00969200  1
  Cl  Cl5  1  0.13112700  0.53129500  0.00969200  1
  Cl  Cl6  1  0.53129500  0.13112700  0.50969200  1
  Cl  Cl7  1  0.86887300  0.46870500  0.50969200  1
  O  O0  1  0.18313300  0.81686700  0.26479200  1
  O  O1  1  0.81686700  0.18313300  0.76479200  1
  O  O2  1  0.57922900  0.42077100  0.37201500  1
  O  O3  1  0.42077100  0.57922900  0.87201500  1
loop_
_geom_bond_atom_site_label_1
_geom_bond_atom_site_label_2
_geom_bond_distance
_geom_bond_site_symmetry_2
K0 O1 2.749036 1_554
K0 O2 2.898790 1_555
K0 N1 3.049478 1_555
K0 O3 3.078229 1_554
K1 O0 2.749036 1_555
K1 O3 2.898790 1_555
K1 N0 3.049478 1_555
K1 O2 3.078229 1_555
N0 Os0 1.693383 1_555
N1 Os1 1.693383 1_555
Cl0 Os0 2.312065 1_544
Cl0 K0 3.392445 1_555
Cl1 Os0 2.312065 1_654
Cl1 K0 3.392445 1_555
Cl2 Os1 2.312065 1_565
Cl2 K1 3.392445 1_555
Cl3 Os1 2.312065 1_455
Cl3 K1 3.392445 1_555
Cl4 Os0 2.387567 1_554
Cl4 K0 3.665603 1_565
Cl5 Os0 2.387567 1_554
Cl5 K0 3.665603 1_455
Cl6 Os1 2.387567 1_555
Cl6 K1 3.665603 1_545
Cl7 Os1 2.387567 1_555
Cl7 K1 3.665603 1_655
O0 Os0 2.013859 1_554
O1 Os1 2.013859 1_555
