# generated using pymatgen
data_ZnP2WO7
_symmetry_space_group_name_H-M   'P 1'
_cell_length_a   6.73214900
_cell_length_b   6.73305744
_cell_length_c   6.96684507
_cell_angle_alpha   85.59478641
_cell_angle_beta   67.91646576
_cell_angle_gamma   82.37564246
_symmetry_Int_Tables_number   1
_chemical_formula_structural   ZnP2WO7
_chemical_formula_sum   'Zn2 P4 W2 O14'
_cell_volume   289.91345560
_cell_formula_units_Z   2
loop_
 _symmetry_equiv_pos_site_id
 _symmetry_equiv_pos_as_xyz
  1  'x, y, z'
loop_
 _atom_site_type_symbol
 _atom_site_label
 _atom_site_symmetry_multiplicity
 _atom_site_fract_x
 _atom_site_fract_y
 _atom_site_fract_z
 _atom_site_occupancy
  Zn  Zn0  1  0.68871900  0.12908000  0.84503800  1
  Zn  Zn1  1  0.31128100  0.87092000  0.15496200  1
  P  P0  1  0.77241000  0.86189300  0.24434400  1
  P  P1  1  0.22759000  0.13810700  0.75565600  1
  P  P2  1  0.34817000  0.38203600  0.34905800  1
  P  P3  1  0.65183000  0.61796400  0.65094200  1
  W  W0  1  0.89855500  0.34790500  0.21884800  1
  W  W1  1  0.10144500  0.65209500  0.78115200  1
  O  O0  1  0.36250700  0.21331000  0.52727000  1
  O  O1  1  0.63749300  0.78669000  0.47273000  1
  O  O2  1  0.90610600  0.02348000  0.25988500  1
  O  O3  1  0.09389400  0.97652000  0.74011500  1
  O  O4  1  0.74827500  0.41983300  0.53795200  1
  O  O5  1  0.25172500  0.58016700  0.46204800  1
  O  O6  1  0.41866300  0.61408600  0.79936400  1
  O  O7  1  0.58133700  0.38591400  0.20063600  1
  O  O8  1  0.38959400  0.05980100  0.85945900  1
  O  O9  1  0.61040600  0.94019900  0.14054100  1
  O  O10  1  0.07383600  0.32641400  0.86953300  1
  O  O11  1  0.92616400  0.67358600  0.13046700  1
  O  O12  1  0.79141300  0.69073300  0.75292300  1
  O  O13  1  0.20858700  0.30926700  0.24707700  1
loop_
_geom_bond_atom_site_label_1
_geom_bond_atom_site_label_2
_geom_bond_distance
_geom_bond_site_symmetry_2
O0 P1 1.588919 1_555
O0 P2 1.638825 1_555
O1 P0 1.588919 1_555
O1 P3 1.638825 1_555
O2 P0 1.535168 1_545
O2 W0 2.177459 1_555
O3 P1 1.535168 1_565
O3 W1 2.177459 1_555
O4 P3 1.538839 1_555
O4 W0 2.131824 1_555
O5 P2 1.538839 1_555
O5 W1 2.131824 1_555
O6 P3 1.523213 1_555
O6 W1 2.167010 1_555
O7 P2 1.523213 1_555
O7 W0 2.167010 1_555
O8 P1 1.540243 1_555
O8 Zn0 2.091128 1_555
O8 Zn1 2.256819 1_546
O9 P0 1.540243 1_555
O9 Zn1 2.091128 1_555
O9 Zn0 2.256819 1_564
O10 P1 1.580244 1_555
O10 W1 2.244295 1_555
O10 W0 2.277147 1_456
O11 P0 1.580244 1_555
O11 W0 2.244295 1_555
O11 W1 2.277147 1_654
O12 P3 1.518397 1_555
O12 W1 2.149276 1_655
O13 P2 1.518397 1_555
O13 W0 2.149276 1_455
