# generated using pymatgen
data_Pr4Ho2Mn23
_symmetry_space_group_name_H-M   'P 1'
_cell_length_a   8.58810896
_cell_length_b   8.58810896
_cell_length_c   8.58810896
_cell_angle_alpha   120.02018985
_cell_angle_beta   119.61738463
_cell_angle_gamma   90.31450937
_symmetry_Int_Tables_number   1
_chemical_formula_structural   Pr4Ho2Mn23
_chemical_formula_sum   'Pr4 Ho2 Mn23'
_cell_volume   449.10905389
_cell_formula_units_Z   1
loop_
 _symmetry_equiv_pos_site_id
 _symmetry_equiv_pos_as_xyz
  1  'x, y, z'
loop_
 _atom_site_type_symbol
 _atom_site_label
 _atom_site_symmetry_multiplicity
 _atom_site_fract_x
 _atom_site_fract_y
 _atom_site_fract_z
 _atom_site_occupancy
  Pr  Pr0  1  0.70164000  0.70048600  0.99884600  1
  Pr  Pr1  1  0.70241200  0.70435400  0.40676500  1
  Pr  Pr2  1  0.29758800  0.70435400  0.00194200  1
  Pr  Pr3  1  0.29836000  0.29720600  0.99884600  1
  Ho  Ho0  1  0.29422500  0.28782700  0.58205100  1
  Ho  Ho1  1  0.70577500  0.28782700  0.99360200  1
  Mn  Mn0  1  0.67508000  0.31475800  0.63967800  1
  Mn  Mn1  1  0.67769500  0.03986200  0.36216700  1
  Mn  Mn2  1  0.68027200  0.32027600  0.35744500  1
  Mn  Mn3  1  0.96283200  0.32027600  0.64000400  1
  Mn  Mn4  1  0.32230500  0.68447100  0.36216700  1
  Mn  Mn5  1  0.32492000  0.96459800  0.63967800  1
  Mn  Mn6  1  0.31972800  0.67717200  0.64000400  1
  Mn  Mn7  1  0.03716800  0.67717200  0.35744500  1
  Mn  Mn8  1  0.00000000  0.00263900  0.00263900  1
  Mn  Mn9  1  0.87913000  0.12607700  0.24694700  1
  Mn  Mn10  1  0.87685000  0.63111600  0.75426600  1
  Mn  Mn11  1  0.87488600  0.12376500  0.75567300  1
  Mn  Mn12  1  0.36809200  0.12376500  0.24887900  1
  Mn  Mn13  1  0.12315000  0.87741600  0.75426600  1
  Mn  Mn14  1  0.12087000  0.36781700  0.24694700  1
  Mn  Mn15  1  0.12511400  0.88078700  0.24887900  1
  Mn  Mn16  1  0.63190800  0.88078700  0.75567300  1
  Mn  Mn17  1  0.50207200  0.00332200  0.99957000  1
  Mn  Mn18  1  0.00375200  0.00332200  0.50125000  1
  Mn  Mn19  1  0.00000000  0.49463200  0.49463300  1
  Mn  Mn20  1  0.99624800  0.49749800  0.99957000  1
  Mn  Mn21  1  0.49792800  0.49749800  0.50125000  1
  Mn  Mn22  1  0.50000000  0.00892000  0.50892000  1
loop_
_geom_bond_atom_site_label_1
_geom_bond_atom_site_label_2
_geom_bond_distance
_geom_bond_site_symmetry_2
Ho0 Mn12 2.888725 1_555
Ho0 Mn15 2.888731 1_545
Ho0 Mn14 2.953858 1_555
Ho0 Mn9 2.953864 1_455
Ho0 Mn22 2.982135 1_555
Ho0 Mn21 3.033164 1_555
Ho0 Mn18 3.033176 1_555
Ho0 Mn0 3.045305 1_555
Ho0 Mn5 3.045313 1_545
Ho0 Mn19 3.100219 1_555
Ho0 Mn6 3.113721 1_555
Ho0 Mn3 3.113730 1_455
Ho1 Mn16 2.888732 1_545
Ho1 Mn11 2.888732 1_555
Ho1 Mn9 2.953866 1_556
Ho1 Mn14 2.953866 1_656
Ho1 Mn22 2.982136 1_555
Ho1 Mn17 3.033171 1_555
Ho1 Mn20 3.033171 1_555
Ho1 Mn5 3.045309 1_545
Ho1 Mn0 3.045309 1_555
Ho1 Mn19 3.100227 1_656
Ho1 Mn7 3.113725 1_656
Ho1 Mn2 3.113733 1_556
Mn0 Mn1 2.382778 1_555
Mn0 Mn22 2.399400 1_555
Mn0 Mn2 2.470022 1_555
Mn0 Mn3 2.470031 1_555
Mn0 Mn20 2.509251 1_555
Mn0 Mn21 2.509251 1_555
Mn0 Mn11 2.569760 1_555
Mn0 Mn12 2.569760 1_555
Mn0 Mn10 2.634433 1_555
Mn0 Pr0 3.100367 1_555
Mn1 Mn2 2.428932 1_555
Mn1 Mn3 2.428936 1_555
Mn1 Mn22 2.493921 1_555
Mn1 Mn17 2.538726 1_554
Mn1 Mn18 2.538726 1_655
Mn1 Mn12 2.588660 1_555
Mn1 Mn11 2.588660 1_555
Mn1 Mn9 2.632703 1_555
Mn1 Pr1 3.086217 1_545
Mn1 Pr2 3.086222 1_545
Mn1 Pr0 3.132742 1_544
Mn2 Mn3 2.440672 1_555
Mn2 Mn21 2.520120 1_555
Mn2 Mn9 2.578416 1_555
Mn2 Pr1 3.100196 1_555
Mn2 Pr3 3.111237 1_554
Mn3 Mn9 2.578413 1_555
Mn3 Pr2 3.100188 1_656
Mn3 Pr3 3.111233 1_655
Mn4 Mn5 2.382782 1_555
Mn4 Mn6 2.428932 1_555
Mn4 Mn7 2.428940 1_555
Mn4 Pr1 3.086225 1_555
Mn4 Pr2 3.086227 1_555
Mn4 Pr3 3.132737 1_554
Mn5 Mn6 2.470031 1_555
Mn5 Mn7 2.470031 1_555
Mn5 Pr3 3.100367 1_565
Mn6 Mn7 2.440672 1_555
Mn6 Pr2 3.100188 1_556
Mn6 Pr0 3.111233 1_555
Mn7 Pr1 3.100179 1_455
Mn7 Pr0 3.111238 1_454
Mn8 Mn9 2.557883 1_455
Mn9 Pr0 3.026332 1_544
Mn10 Mn2 2.598312 1_555
Mn10 Mn3 2.598316 1_555
Mn10 Mn8 2.602308 1_666
Mn10 Mn21 2.665173 1_555
Mn10 Mn20 2.665173 1_555
Mn10 Mn19 2.682097 1_655
Mn10 Mn13 2.983195 1_655
Mn10 Pr0 2.985439 1_555
Mn10 Pr2 3.002646 1_656
Mn10 Pr1 3.002653 1_555
Mn10 Mn16 3.011901 1_555
Mn10 Mn15 3.011901 1_656
Mn11 Mn8 2.588927 1_656
Mn11 Mn3 2.609704 1_555
Mn11 Mn20 2.618009 1_555
Mn11 Mn22 2.638037 1_555
Mn11 Mn18 2.685192 1_655
Mn11 Mn16 2.942959 1_545
Mn11 Pr1 2.983551 1_545
Mn11 Mn14 2.991645 1_656
Mn11 Mn13 3.011901 1_645
Mn11 Pr3 3.021169 1_655
Mn12 Mn8 2.588927 1_555
Mn12 Mn2 2.609700 1_555
Mn12 Mn21 2.618009 1_555
Mn12 Mn22 2.638037 1_555
Mn12 Mn17 2.685192 1_554
Mn12 Mn15 2.942959 1_545
Mn12 Pr2 2.983550 1_545
Mn12 Mn14 2.991645 1_555
Mn12 Mn13 3.011901 1_544
Mn12 Pr3 3.021169 1_554
Mn13 Mn7 2.598309 1_555
Mn13 Mn6 2.598316 1_555
Mn13 Mn8 2.602308 1_566
Mn13 Mn5 2.634433 1_555
Mn13 Mn18 2.665173 1_565
Mn13 Mn17 2.665173 1_565
Mn13 Mn19 2.682104 1_555
Mn13 Pr3 2.985439 1_565
Mn13 Pr2 3.002646 1_556
Mn13 Pr1 3.002647 1_455
Mn14 Mn8 2.557883 1_555
Mn14 Mn7 2.578412 1_555
Mn14 Mn6 2.578413 1_555
Mn14 Mn19 2.581718 1_555
Mn14 Mn4 2.632696 1_555
Mn14 Mn20 2.651890 1_454
Mn14 Mn21 2.651890 1_555
Mn14 Mn9 2.927965 1_455
Mn14 Pr3 3.026332 1_554
Mn15 Mn5 2.569760 1_555
Mn15 Mn4 2.588667 1_555
Mn15 Mn8 2.588927 1_565
Mn15 Mn7 2.609711 1_555
Mn15 Mn18 2.618009 1_565
Mn15 Mn22 2.638037 1_565
Mn15 Mn20 2.685192 1_454
Mn15 Pr2 2.983550 1_555
Mn15 Mn9 2.991645 1_465
Mn15 Pr0 3.021169 1_454
Mn16 Mn5 2.569760 1_555
Mn16 Mn4 2.588660 1_555
Mn16 Mn8 2.588927 1_666
Mn16 Mn6 2.609704 1_555
Mn16 Mn17 2.618009 1_565
Mn16 Mn22 2.638037 1_565
Mn16 Mn21 2.685192 1_555
Mn16 Pr1 2.983557 1_555
Mn16 Mn9 2.991645 1_566
Mn16 Pr0 3.021169 1_555
Mn17 Mn2 2.476238 1_556
Mn17 Mn5 2.509251 1_545
Mn17 Mn6 2.520124 1_545
Mn17 Mn9 2.651890 1_556
Mn17 Pr3 3.079664 1_555
Mn17 Pr2 3.116893 1_546
Mn17 Pr0 3.121686 1_545
Mn18 Mn3 2.476235 1_455
Mn18 Mn5 2.509251 1_545
Mn18 Mn7 2.520124 1_545
Mn18 Mn9 2.651890 1_455
Mn18 Pr3 3.079664 1_555
Mn18 Pr1 3.116888 1_445
Mn18 Pr0 3.121686 1_444
Mn19 Mn3 2.482325 1_455
Mn19 Mn2 2.482333 1_455
Mn19 Mn7 2.482333 1_555
Mn19 Mn6 2.482336 1_555
Mn19 Mn9 2.581711 1_455
Mn19 Pr2 3.138374 1_556
Mn19 Pr1 3.138382 1_455
Mn20 Mn7 2.476242 1_656
Mn20 Mn3 2.520124 1_555
Mn20 Mn4 2.538726 1_656
Mn20 Pr0 3.079664 1_555
Mn20 Pr2 3.116893 1_656
Mn20 Pr3 3.121686 1_655
Mn21 Mn6 2.476235 1_555
Mn21 Mn4 2.538719 1_555
Mn21 Pr0 3.079664 1_555
Mn21 Pr1 3.116900 1_555
Mn21 Pr3 3.121686 1_554
Mn22 Mn5 2.399400 1_545
Mn22 Mn4 2.493928 1_545
Mn22 Pr2 3.145514 1_545
Mn22 Pr1 3.145516 1_545
