# generated using pymatgen
data_Al5Se8
_symmetry_space_group_name_H-M   'P 1'
_cell_length_a   7.44710013
_cell_length_b   7.44710013
_cell_length_c   7.44710013
_cell_angle_alpha   60.00000000
_cell_angle_beta   60.00000000
_cell_angle_gamma   60.00000000
_symmetry_Int_Tables_number   1
_chemical_formula_structural   Al5Se8
_chemical_formula_sum   'Al5 Se8'
_cell_volume   292.04285216
_cell_formula_units_Z   1
loop_
 _symmetry_equiv_pos_site_id
 _symmetry_equiv_pos_as_xyz
  1  'x, y, z'
loop_
 _atom_site_type_symbol
 _atom_site_label
 _atom_site_symmetry_multiplicity
 _atom_site_fract_x
 _atom_site_fract_y
 _atom_site_fract_z
 _atom_site_occupancy
  Al  Al0  1  0.88497200  0.88497200  0.34508500  1
  Al  Al1  1  0.88497200  0.34508500  0.88497200  1
  Al  Al2  1  0.34508500  0.88497200  0.88497200  1
  Al  Al3  1  0.88497200  0.88497200  0.88497200  1
  Al  Al4  1  0.50000000  0.50000000  0.50000000  1
  Se  Se0  1  0.12314100  0.12314100  0.63057800  1
  Se  Se1  1  0.12314100  0.63057800  0.12314100  1
  Se  Se2  1  0.63057800  0.12314100  0.12314100  1
  Se  Se3  1  0.12314100  0.12314100  0.12314100  1
  Se  Se4  1  0.63415100  0.63415100  0.09754600  1
  Se  Se5  1  0.63415100  0.09754600  0.63415100  1
  Se  Se6  1  0.09754600  0.63415100  0.63415100  1
  Se  Se7  1  0.63415100  0.63415100  0.63415100  1
loop_
_geom_bond_atom_site_label_1
_geom_bond_atom_site_label_2
_geom_bond_distance
_geom_bond_site_symmetry_2
Al0 Se1 2.511254 1_655
Al0 Se2 2.511254 1_565
Al0 Se3 2.511254 1_665
Al0 Se5 2.656894 1_565
Al0 Se6 2.656894 1_655
Al0 Se7 2.656904 1_555
Al1 Se3 2.511254 1_656
Al1 Se2 2.511254 1_556
Al1 Se0 2.511254 1_655
Al1 Se4 2.656894 1_556
Al1 Se6 2.656894 1_655
Al1 Se7 2.656904 1_555
Al2 Se3 2.511254 1_566
Al2 Se0 2.511254 1_565
Al2 Se1 2.511254 1_556
Al2 Se5 2.656894 1_565
Al2 Se4 2.656894 1_556
Al2 Se7 2.656904 1_555
Al3 Se2 2.511254 1_566
Al3 Se0 2.511254 1_665
Al3 Se1 2.511254 1_656
Al3 Se5 2.656906 1_565
Al3 Se4 2.656906 1_556
Al3 Se6 2.656906 1_655
Al4 Se7 2.447128 1_555
Al4 Se6 2.447134 1_555
Al4 Se5 2.447134 1_555
Al4 Se4 2.447134 1_555
