# generated using pymatgen
data_CsRbMg14
_symmetry_space_group_name_H-M   'P 1'
_cell_length_a   6.74197801
_cell_length_b   6.69746201
_cell_length_c   11.29322919
_cell_angle_alpha   90.00000000
_cell_angle_beta   90.00000000
_cell_angle_gamma   119.78182611
_symmetry_Int_Tables_number   1
_chemical_formula_structural   CsRbMg14
_chemical_formula_sum   'Cs1 Rb1 Mg14'
_cell_volume   442.58526782
_cell_formula_units_Z   1
loop_
 _symmetry_equiv_pos_site_id
 _symmetry_equiv_pos_as_xyz
  1  'x, y, z'
loop_
 _atom_site_type_symbol
 _atom_site_label
 _atom_site_symmetry_multiplicity
 _atom_site_fract_x
 _atom_site_fract_y
 _atom_site_fract_z
 _atom_site_occupancy
  Cs  Cs0  1  0.28773934  0.89386917  0.12500000  1
  Rb  Rb0  1  0.28159111  0.39079506  0.12500000  1
  Mg  Mg0  1  0.10139153  0.30069527  0.62500000  1
  Mg  Mg1  1  0.10176215  0.80088058  0.62500000  1
  Mg  Mg2  1  0.78405169  0.39458978  0.12500000  1
  Mg  Mg3  1  0.64529984  0.32278626  0.62500000  1
  Mg  Mg4  1  0.78405169  0.88946090  0.12500000  1
  Mg  Mg5  1  0.64529984  0.82251258  0.62500000  1
  Mg  Mg6  1  0.29692373  0.15125419  0.42289026  1
  Mg  Mg7  1  0.29692373  0.15125419  0.82710974  1
  Mg  Mg8  1  0.29692373  0.64567054  0.42289026  1
  Mg  Mg9  1  0.29692373  0.64567054  0.82710974  1
  Mg  Mg10  1  0.79749713  0.14874906  0.37904179  1
  Mg  Mg11  1  0.79749713  0.14874906  0.87095821  1
  Mg  Mg12  1  0.79306180  0.64653140  0.38034225  1
  Mg  Mg13  1  0.79306180  0.64653140  0.86965775  1
loop_
_geom_bond_atom_site_label_1
_geom_bond_atom_site_label_2
_geom_bond_distance
_geom_bond_site_symmetry_2
Cs0 Rb0 3.348924 1_555
Cs0 Rb0 3.348924 1_565
Cs0 Mg2 3.360889 1_565
Cs0 Mg4 3.360889 1_555
Cs0 Mg2 3.381283 1_455
Cs0 Mg4 3.381284 1_455
Cs0 Mg9 3.766535 1_554
Cs0 Mg8 3.766535 1_555
Cs0 Mg7 3.766541 1_564
Cs0 Mg6 3.766541 1_565
Cs0 Mg12 4.085849 1_455
Cs0 Mg13 4.085849 1_454
Cs0 Mg11 4.138638 1_564
Cs0 Mg10 4.138638 1_565
Mg0 Mg6 3.043023 1_555
Mg0 Mg7 3.043023 1_555
Mg0 Mg8 3.043031 1_555
Mg0 Mg9 3.043031 1_555
Mg0 Mg5 3.151066 1_445
Mg0 Mg3 3.151066 1_455
Mg0 Mg10 3.298114 1_455
Mg0 Mg11 3.298114 1_455
Mg0 Mg1 3.348732 1_555
Mg0 Mg1 3.348732 1_545
Mg1 Mg8 3.062722 1_555
Mg1 Mg9 3.062722 1_555
Mg1 Mg7 3.062729 1_565
Mg1 Mg6 3.062729 1_565
Mg1 Mg3 3.151929 1_455
Mg1 Mg5 3.151930 1_455
Mg1 Mg12 3.301059 1_455
Mg1 Mg13 3.301059 1_455
Mg2 Mg4 3.314381 1_555
Mg2 Rb0 3.367096 1_655
Mg2 Rb0 3.375027 1_555
Mg2 Mg4 3.383081 1_545
Mg3 Mg6 3.060326 1_555
Mg3 Mg7 3.060326 1_555
Mg3 Mg5 3.346898 1_555
Mg3 Mg5 3.350564 1_545
Mg4 Rb0 3.367095 1_665
Mg4 Rb0 3.375026 1_555
Mg5 Mg8 3.060326 1_555
Mg5 Mg9 3.060326 1_555
Mg6 Mg8 3.311335 1_555
Mg6 Mg8 3.386127 1_545
Mg6 Rb0 3.750563 1_555
Mg7 Mg9 3.311335 1_555
Mg7 Mg9 3.386127 1_545
Mg7 Rb0 3.750563 1_556
Mg8 Rb0 3.750568 1_555
Mg9 Rb0 3.750568 1_556
Mg10 Mg2 3.331421 1_555
Mg10 Mg4 3.331427 1_545
Mg10 Mg12 3.348864 1_545
Mg10 Mg12 3.348864 1_555
Mg10 Mg3 3.363792 1_555
Mg10 Mg5 3.363799 1_545
Mg10 Mg8 3.395128 1_655
Mg10 Mg6 3.395128 1_655
Mg10 Mg8 3.419267 1_545
Mg10 Mg6 3.419268 1_555
Mg10 Rb0 4.031748 1_655
Mg11 Mg2 3.331421 1_556
Mg11 Mg4 3.331427 1_546
Mg11 Mg13 3.348864 1_545
Mg11 Mg13 3.348864 1_555
Mg11 Mg3 3.363792 1_555
Mg11 Mg5 3.363799 1_545
Mg11 Mg9 3.395128 1_655
Mg11 Mg7 3.395128 1_655
Mg11 Mg9 3.419267 1_545
Mg11 Mg7 3.419268 1_555
Mg11 Rb0 4.031748 1_656
Mg12 Mg4 3.326321 1_555
Mg12 Mg2 3.326327 1_555
Mg12 Mg5 3.343955 1_555
Mg12 Mg3 3.343961 1_555
Mg12 Mg6 3.376457 1_555
Mg12 Mg8 3.376457 1_555
Mg12 Mg6 3.433680 1_665
Mg12 Mg8 3.433680 1_655
Mg12 Rb0 4.156044 1_555
Mg13 Mg4 3.326321 1_556
Mg13 Mg2 3.326327 1_556
Mg13 Mg5 3.343955 1_555
Mg13 Mg3 3.343961 1_555
Mg13 Mg7 3.376457 1_555
Mg13 Mg9 3.376457 1_555
Mg13 Mg7 3.433680 1_665
Mg13 Mg9 3.433680 1_655
Mg13 Rb0 4.156044 1_556
