# generated using pymatgen
data_Ca3Ge2Au9
_symmetry_space_group_name_H-M   'P 1'
_cell_length_a   4.47896049
_cell_length_b   9.40312879
_cell_length_c   13.60952009
_cell_angle_alpha   90.00000000
_cell_angle_beta   90.00000000
_cell_angle_gamma   90.00000000
_symmetry_Int_Tables_number   1
_chemical_formula_structural   Ca3Ge2Au9
_chemical_formula_sum   'Ca6 Ge4 Au18'
_cell_volume   573.18184614
_cell_formula_units_Z   2
loop_
 _symmetry_equiv_pos_site_id
 _symmetry_equiv_pos_as_xyz
  1  'x, y, z'
loop_
 _atom_site_type_symbol
 _atom_site_label
 _atom_site_symmetry_multiplicity
 _atom_site_fract_x
 _atom_site_fract_y
 _atom_site_fract_z
 _atom_site_occupancy
  Ca  Ca0  1  -0.00000000  0.99303969  0.18672808  1
  Ca  Ca1  1  -0.00000000  0.00696031  0.81327192  1
  Ca  Ca2  1  0.50000000  0.50696031  0.68672808  1
  Ca  Ca3  1  0.50000000  0.49303969  0.31327192  1
  Ca  Ca4  1  0.00000000  -0.00000000  0.50000000  1
  Ca  Ca5  1  0.50000000  0.50000000  0.00000000  1
  Ge  Ge0  1  0.00000000  0.33963025  0.18363136  1
  Ge  Ge1  1  -0.00000000  0.66036975  0.81636864  1
  Ge  Ge2  1  0.50000000  0.16036975  0.68363136  1
  Ge  Ge3  1  0.50000000  0.83963025  0.31636864  1
  Au  Au0  1  -0.00000000  0.20893634  0.00184261  1
  Au  Au1  1  0.00000000  0.79106366  0.99815739  1
  Au  Au2  1  0.50000000  0.29106366  0.50184261  1
  Au  Au3  1  0.50000000  0.70893634  0.49815739  1
  Au  Au4  1  0.00000000  0.27681588  0.36594183  1
  Au  Au5  1  -0.00000000  0.72318412  0.63405817  1
  Au  Au6  1  0.50000000  0.22318412  0.86594183  1
  Au  Au7  1  0.50000000  0.77681588  0.13405817  1
  Au  Au8  1  0.00000000  0.26315584  0.63349847  1
  Au  Au9  1  -0.00000000  0.73684416  0.36650153  1
  Au  Au10  1  0.50000000  0.23684416  0.13349847  1
  Au  Au11  1  0.50000000  0.76315584  0.86650153  1
  Au  Au12  1  0.00000000  0.60030854  0.15856722  1
  Au  Au13  1  0.00000000  0.39969146  0.84143278  1
  Au  Au14  1  0.50000000  0.89969146  0.65856722  1
  Au  Au15  1  0.50000000  0.10030854  0.34143278  1
  Au  Au16  1  0.50000000  -0.00000000  0.00000000  1
  Au  Au17  1  -0.00000000  0.50000000  0.50000000  1
loop_
_geom_bond_atom_site_label_1
_geom_bond_atom_site_label_2
_geom_bond_distance
_geom_bond_site_symmetry_2
Ca0 Ge3 3.195165 1_555
Ca0 Ge3 3.195165 1_455
Ca0 Ge0 3.259308 1_565
Ca1 Ge2 3.195165 1_455
Ca1 Ge2 3.195165 1_555
Ca1 Ge1 3.259308 1_545
Ca2 Ge1 3.195165 1_655
Ca2 Ge1 3.195165 1_555
Ca2 Ge2 3.259308 1_555
Ca3 Ge0 3.195165 1_555
Ca3 Ge0 3.195165 1_655
Ca3 Ge3 3.259308 1_555
Au0 Ge0 2.762469 1_555
Au0 Au13 2.825468 1_554
Au0 Au10 2.880032 1_555
Au0 Au10 2.880032 1_455
Au0 Au6 2.907582 1_454
Au0 Au6 2.907582 1_554
Au0 Au16 2.979223 1_555
Au0 Au16 2.979223 1_455
Au0 Ca1 3.192675 1_554
Au0 Ca0 3.233048 1_545
Au0 Ca5 3.536463 1_455
Au0 Ca5 3.536463 1_555
Au1 Ge1 2.762469 1_555
Au1 Au12 2.825468 1_556
Au1 Au11 2.880032 1_455
Au1 Au11 2.880032 1_555
Au1 Au7 2.907582 1_556
Au1 Au7 2.907582 1_456
Au1 Au16 2.979223 1_466
Au1 Au16 2.979223 1_566
Au1 Ca0 3.192675 1_556
Au1 Ca1 3.233048 1_565
Au1 Ca5 3.536463 1_456
Au1 Ca5 3.536463 1_556
Au2 Ge2 2.762469 1_555
Au2 Au8 2.880032 1_555
Au2 Au8 2.880032 1_655
Au2 Au4 2.907582 1_655
Au2 Au4 2.907582 1_555
Au2 Ca3 3.192675 1_555
Au2 Ca2 3.233048 1_555
Au2 Ca4 3.536463 1_655
Au2 Ca4 3.536463 1_555
Au3 Ge3 2.762469 1_555
Au3 Au9 2.880032 1_555
Au3 Au9 2.880032 1_655
Au3 Au5 2.907582 1_655
Au3 Au5 2.907582 1_555
Au3 Ca2 3.192675 1_555
Au3 Ca3 3.233048 1_555
Au3 Ca4 3.536463 1_665
Au3 Ca4 3.536463 1_565
Au4 Ge0 2.550493 1_555
Au4 Ca3 3.108523 1_555
Au4 Ca3 3.108523 1_455
Au4 Ca4 3.178672 1_555
Au4 Ca0 3.615115 1_545
Au5 Ge1 2.550493 1_555
Au5 Ca2 3.108523 1_455
Au5 Ca2 3.108523 1_555
Au5 Ca4 3.178672 1_565
Au5 Ca1 3.615115 1_565
Au6 Ge2 2.550493 1_555
Au6 Ca1 3.108523 1_555
Au6 Ca1 3.108523 1_655
Au6 Ca5 3.178672 1_556
Au6 Ca2 3.615115 1_555
Au7 Ge3 2.550493 1_555
Au7 Ca0 3.108523 1_555
Au7 Ca0 3.108523 1_655
Au7 Ca5 3.178672 1_555
Au7 Ca3 3.615115 1_555
Au8 Ge2 2.532771 1_455
Au8 Ge2 2.532771 1_555
Au8 Ca4 3.069859 1_555
Au8 Ca2 3.285687 1_455
Au8 Ca2 3.285687 1_555
Au8 Ca1 3.433580 1_555
Au9 Ge3 2.532771 1_455
Au9 Ge3 2.532771 1_555
Au9 Ca4 3.069859 1_565
Au9 Ca3 3.285687 1_555
Au9 Ca3 3.285687 1_455
Au9 Ca0 3.433580 1_555
Au10 Ge0 2.532771 1_655
Au10 Ge0 2.532771 1_555
Au10 Au16 2.874163 1_555
Au10 Ca5 3.069859 1_555
Au10 Au15 3.107500 1_555
Au10 Ca0 3.285687 1_545
Au10 Ca0 3.285687 1_645
Au10 Ca3 3.433580 1_555
Au11 Ge1 2.532771 1_655
Au11 Ge1 2.532771 1_555
Au11 Au16 2.874163 1_566
Au11 Ca5 3.069859 1_556
Au11 Au14 3.107500 1_555
Au11 Ca1 3.285687 1_565
Au11 Ca1 3.285687 1_665
Au11 Ca2 3.433580 1_555
Au12 Ge0 2.474812 1_555
Au12 Au9 3.107500 1_555
Au12 Ca3 3.235061 1_455
Au12 Ca3 3.235061 1_555
Au12 Ca5 3.249922 1_455
Au12 Ca5 3.249922 1_555
Au12 Ca0 3.712736 1_555
Au13 Ge1 2.474812 1_555
Au13 Au8 3.107500 1_555
Au13 Ca2 3.235061 1_455
Au13 Ca2 3.235061 1_555
Au13 Ca5 3.249922 1_456
Au13 Ca5 3.249922 1_556
Au13 Ca1 3.712736 1_555
Au14 Ge2 2.474812 1_565
Au14 Au3 2.825468 1_555
Au14 Ca1 3.235061 1_565
Au14 Ca1 3.235061 1_665
Au14 Ca4 3.249922 1_665
Au14 Ca4 3.249922 1_565
Au14 Ca2 3.712736 1_555
Au15 Ge3 2.474812 1_545
Au15 Au2 2.825468 1_555
Au15 Ca0 3.235061 1_645
Au15 Ca0 3.235061 1_545
Au15 Ca4 3.249922 1_555
Au15 Ca4 3.249922 1_655
Au15 Ca3 3.712736 1_555
Au16 Au7 2.780814 1_545
Au16 Au6 2.780814 1_554
Au16 Ca1 3.387869 1_654
Au16 Ca1 3.387869 1_554
Au16 Ca0 3.387869 1_645
Au16 Ca0 3.387869 1_545
Au17 Au4 2.780814 1_555
Au17 Au5 2.780814 1_555
Au17 Au9 2.874163 1_555
Au17 Au8 2.874163 1_555
Au17 Au2 2.979223 1_455
Au17 Au2 2.979223 1_555
Au17 Au3 2.979223 1_455
Au17 Au3 2.979223 1_555
Au17 Ca2 3.387869 1_455
Au17 Ca2 3.387869 1_555
Au17 Ca3 3.387869 1_455
Au17 Ca3 3.387869 1_555
