# generated using pymatgen
data_K3AlI6
_symmetry_space_group_name_H-M   'P 1'
_cell_length_a   8.64400280
_cell_length_b   8.64400280
_cell_length_c   8.64400280
_cell_angle_alpha   60.00000000
_cell_angle_beta   60.00000000
_cell_angle_gamma   60.00000000
_symmetry_Int_Tables_number   1
_chemical_formula_structural   K3AlI6
_chemical_formula_sum   'K3 Al1 I6'
_cell_volume   456.69862030
_cell_formula_units_Z   1
loop_
 _symmetry_equiv_pos_site_id
 _symmetry_equiv_pos_as_xyz
  1  'x, y, z'
loop_
 _atom_site_type_symbol
 _atom_site_label
 _atom_site_symmetry_multiplicity
 _atom_site_fract_x
 _atom_site_fract_y
 _atom_site_fract_z
 _atom_site_occupancy
  K  K0  1  0.75000000  0.75000000  0.75000000  1
  K  K1  1  0.25000000  0.25000000  0.25000000  1
  K  K2  1  0.50000000  0.50000000  0.50000000  1
  Al  Al0  1  0.00000000  0.00000000  0.00000000  1
  I  I0  1  0.77342300  0.22657700  0.22657700  1
  I  I1  1  0.22657700  0.22657700  0.77342300  1
  I  I2  1  0.22657700  0.77342300  0.77342300  1
  I  I3  1  0.22657700  0.77342300  0.22657700  1
  I  I4  1  0.77342300  0.22657700  0.77342300  1
  I  I5  1  0.77342300  0.77342300  0.22657700  1
loop_
_geom_bond_atom_site_label_1
_geom_bond_atom_site_label_2
_geom_bond_distance
_geom_bond_site_symmetry_2
Al0 I0 2.769783 1_455
Al0 I1 2.769783 1_554
Al0 I3 2.769783 1_545
Al0 I4 2.769783 1_454
Al0 I5 2.769783 1_445
Al0 I2 2.769783 1_544
I0 K2 3.342450 1_555
I1 K2 3.342450 1_555
I2 K2 3.342450 1_555
I3 K2 3.342450 1_555
I4 K2 3.342450 1_555
I5 K2 3.342450 1_555
