# generated using pymatgen
data_Li9Mn2Co5O16
_symmetry_space_group_name_H-M   'P 1'
_cell_length_a   10.67632942
_cell_length_b   10.67632942
_cell_length_c   10.26549384
_cell_angle_alpha   66.77021522
_cell_angle_beta   66.77021522
_cell_angle_gamma   15.60785258
_symmetry_Int_Tables_number   1
_chemical_formula_structural   Li9Mn2Co5O16
_chemical_formula_sum   'Li9 Mn2 Co5 O16'
_cell_volume   288.79497147
_cell_formula_units_Z   1
loop_
 _symmetry_equiv_pos_site_id
 _symmetry_equiv_pos_as_xyz
  1  'x, y, z'
loop_
 _atom_site_type_symbol
 _atom_site_label
 _atom_site_symmetry_multiplicity
 _atom_site_fract_x
 _atom_site_fract_y
 _atom_site_fract_z
 _atom_site_occupancy
  Li  Li0  1  0.88253800  0.88253800  0.67567900  1
  Li  Li1  1  0.11746200  0.11746200  0.32432100  1
  Li  Li2  1  0.38102000  0.38102000  0.92902000  1
  Li  Li3  1  0.37876800  0.37876800  0.43166200  1
  Li  Li4  1  0.61898000  0.61898000  0.07098000  1
  Li  Li5  1  0.87637400  0.87637400  0.18893600  1
  Li  Li6  1  0.12362600  0.12362600  0.81106400  1
  Li  Li7  1  0.62123200  0.62123200  0.56833800  1
  Li  Li8  1  0.50000000  0.50000000  0.50000000  1
  Mn  Mn0  1  0.25038700  0.25038700  0.87032500  1
  Mn  Mn1  1  0.74961300  0.74961300  0.12967500  1
  Co  Co0  1  0.00218900  0.00218900  0.73490900  1
  Co  Co1  1  0.24813300  0.24813300  0.38051500  1
  Co  Co2  1  0.50000000  0.50000000  0.00000000  1
  Co  Co3  1  0.75186700  0.75186700  0.61948500  1
  Co  Co4  1  0.99781100  0.99781100  0.26509100  1
  O  O0  1  0.80610500  0.80610500  0.90221500  1
  O  O1  1  0.05979800  0.05979800  0.55163900  1
  O  O2  1  0.30707800  0.30707800  0.15200800  1
  O  O3  1  0.30636000  0.30636000  0.65055500  1
  O  O4  1  0.55890900  0.55890900  0.27863500  1
  O  O5  1  0.80453400  0.80453400  0.40147300  1
  O  O6  1  0.05537000  0.05537000  0.04063400  1
  O  O7  1  0.55687600  0.55687600  0.79135900  1
  O  O8  1  0.94020200  0.94020200  0.44836100  1
  O  O9  1  0.19389500  0.19389500  0.09778500  1
  O  O10  1  0.44109100  0.44109100  0.72136500  1
  O  O11  1  0.44312400  0.44312400  0.20864100  1
  O  O12  1  0.69292200  0.69292200  0.84799200  1
  O  O13  1  0.94463000  0.94463000  0.95936600  1
  O  O14  1  0.19546600  0.19546600  0.59852700  1
  O  O15  1  0.69364000  0.69364000  0.34944500  1
loop_
_geom_bond_atom_site_label_1
_geom_bond_atom_site_label_2
_geom_bond_distance
_geom_bond_site_symmetry_2
Li0 O10 2.078069 1_565
Li0 O10 2.078069 1_655
Li0 O8 2.160313 1_555
Li0 O0 2.242439 1_555
Li0 O3 2.257442 1_565
Li0 O3 2.257442 1_655
Li1 O4 2.078069 1_455
Li1 O4 2.078069 1_545
Li1 O1 2.160313 1_555
Li1 O9 2.242439 1_555
Li1 O15 2.257442 1_455
Li1 O15 2.257442 1_545
Li2 O10 2.000525 1_555
Li2 O13 2.084026 1_545
Li2 O13 2.084026 1_455
Li2 O2 2.199035 1_556
Li2 O0 2.244132 1_545
Li2 O0 2.244132 1_455
Li3 O8 1.999338 1_455
Li3 O8 1.999338 1_545
Li3 O11 2.147847 1_555
Li3 O3 2.157549 1_555
Li3 O5 2.247505 1_455
Li3 O5 2.247505 1_545
Li4 O4 2.000525 1_555
Li4 O6 2.084026 1_655
Li4 O6 2.084026 1_565
Li4 O12 2.199035 1_554
Li4 O9 2.244132 1_565
Li4 O9 2.244132 1_655
Li5 O11 2.088992 1_565
Li5 O11 2.088992 1_655
Li5 O5 2.104716 1_555
Li5 O2 2.199256 1_655
Li5 O2 2.199256 1_565
Li5 O13 2.220217 1_554
Li6 O7 2.088992 1_455
Li6 O7 2.088992 1_545
Li6 O14 2.104716 1_555
Li6 O12 2.199256 1_545
Li6 O12 2.199256 1_455
Li6 O6 2.220217 1_556
Li7 O1 1.999338 1_655
Li7 O1 1.999338 1_565
Li7 O7 2.147847 1_555
Li7 O15 2.157549 1_555
Li7 O14 2.247505 1_565
Li7 O14 2.247505 1_655
Li8 O4 2.112376 1_555
Li8 O10 2.112376 1_555
Li8 O8 2.125266 1_545
Li8 O8 2.125266 1_455
Li8 O1 2.125266 1_655
Li8 O1 2.125266 1_565
Mn0 O12 1.963123 1_455
Mn0 O12 1.963123 1_545
Mn0 O0 1.976183 1_545
Mn0 O0 1.976183 1_455
Mn0 O3 2.089223 1_555
Mn0 O9 2.158370 1_556
Mn1 O2 1.963123 1_655
Mn1 O2 1.963123 1_565
Mn1 O9 1.976183 1_655
Mn1 O9 1.976183 1_565
Mn1 O15 2.089223 1_555
Mn1 O0 2.158370 1_554
Co0 O1 1.788625 1_555
Co0 O10 1.983575 1_455
Co0 O10 1.983575 1_545
Co0 O7 2.075945 1_455
Co0 O7 2.075945 1_545
Co0 O13 2.134931 1_445
Co1 O5 1.943152 1_545
Co1 O5 1.943152 1_455
Co1 O15 1.955750 1_455
Co1 O15 1.955750 1_545
Co1 O14 2.065103 1_555
Co1 O2 2.174499 1_555
Co2 O11 1.995785 1_555
Co2 O7 1.995785 1_554
Co2 O6 2.009134 1_565
Co2 O6 2.009134 1_655
Co2 O13 2.009134 1_454
Co2 O13 2.009134 1_544
Co3 O14 1.943152 1_655
Co3 O14 1.943152 1_565
Co3 O3 1.955750 1_655
Co3 O3 1.955750 1_565
Co3 O5 2.065103 1_555
Co3 O12 2.174499 1_555
Co4 O8 1.788625 1_555
Co4 O4 1.983575 1_655
Co4 O4 1.983575 1_565
Co4 O11 2.075945 1_565
Co4 O11 2.075945 1_655
Co4 O6 2.134931 1_665
