# generated using pymatgen
data_MgCd2
_symmetry_space_group_name_H-M   'P 1'
_cell_length_a   6.66344200
_cell_length_b   6.66344200
_cell_length_c   4.44498000
_cell_angle_alpha   90.00000000
_cell_angle_beta   90.00000000
_cell_angle_gamma   90.00000000
_symmetry_Int_Tables_number   1
_chemical_formula_structural   MgCd2
_chemical_formula_sum   'Mg2 Cd4'
_cell_volume   197.36359850
_cell_formula_units_Z   2
loop_
 _symmetry_equiv_pos_site_id
 _symmetry_equiv_pos_as_xyz
  1  'x, y, z'
loop_
 _atom_site_type_symbol
 _atom_site_label
 _atom_site_symmetry_multiplicity
 _atom_site_fract_x
 _atom_site_fract_y
 _atom_site_fract_z
 _atom_site_occupancy
  Mg  Mg0  1  0.00000000  0.00000000  0.00000000  1
  Mg  Mg1  1  0.50000000  0.50000000  0.50000000  1
  Cd  Cd0  1  0.30079000  0.30079000  0.00000000  1
  Cd  Cd1  1  0.69921000  0.69921000  0.00000000  1
  Cd  Cd2  1  0.19921000  0.80079000  0.50000000  1
  Cd  Cd3  1  0.80079000  0.19921000  0.50000000  1
loop_
_geom_bond_atom_site_label_1
_geom_bond_atom_site_label_2
_geom_bond_distance
_geom_bond_site_symmetry_2
Cd0 Mg0 2.834504 1_555
Cd0 Mg1 2.909222 1_554
Cd0 Mg1 2.909222 1_555
Cd1 Mg0 2.834504 1_665
Cd1 Mg1 2.909222 1_555
Cd1 Mg1 2.909222 1_554
Cd2 Mg1 2.834504 1_555
Cd2 Mg0 2.909222 1_565
Cd2 Mg0 2.909222 1_566
Cd3 Mg1 2.834504 1_555
Cd3 Mg0 2.909222 1_655
Cd3 Mg0 2.909222 1_656
