# generated using pymatgen
data_KP2WO8
_symmetry_space_group_name_H-M   'P 1'
_cell_length_a   5.16968712
_cell_length_b   11.79568042
_cell_length_c   12.03318500
_cell_angle_alpha   90.00000000
_cell_angle_beta   90.00000000
_cell_angle_gamma   91.25410570
_symmetry_Int_Tables_number   1
_chemical_formula_structural   KP2WO8
_chemical_formula_sum   'K4 P8 W4 O32'
_cell_volume   733.60757660
_cell_formula_units_Z   4
loop_
 _symmetry_equiv_pos_site_id
 _symmetry_equiv_pos_as_xyz
  1  'x, y, z'
loop_
 _atom_site_type_symbol
 _atom_site_label
 _atom_site_symmetry_multiplicity
 _atom_site_fract_x
 _atom_site_fract_y
 _atom_site_fract_z
 _atom_site_occupancy
  K  K0  1  0.73526500  0.05025000  0.62714100  1
  K  K1  1  0.23526400  0.55025000  0.87285800  1
  K  K2  1  0.26473600  0.94975000  0.37285900  1
  K  K3  1  0.76473500  0.44975000  0.12714200  1
  P  P0  1  0.74261600  0.13256900  0.93449200  1
  P  P1  1  0.24261700  0.63256900  0.56550800  1
  P  P2  1  0.25738300  0.86743100  0.06550800  1
  P  P3  1  0.75738400  0.36743100  0.43449200  1
  P  P4  1  0.73606300  0.34751400  0.80640000  1
  P  P5  1  0.76393700  0.15248600  0.30640000  1
  P  P6  1  0.26393800  0.65248600  0.19360000  1
  P  P7  1  0.23606400  0.84751400  0.69360000  1
  W  W0  1  0.24221300  0.33446800  0.61845300  1
  W  W1  1  0.25778600  0.16553200  0.11845200  1
  W  W2  1  0.75778600  0.66553200  0.38154700  1
  W  W3  1  0.74221500  0.83446800  0.88154800  1
  O  O0  1  0.77560500  0.41299400  0.91124400  1
  O  O1  1  0.72439500  0.08700600  0.41124400  1
  O  O2  1  0.22439400  0.58700700  0.08875700  1
  O  O3  1  0.27560600  0.91299300  0.58875600  1
  O  O4  1  0.77651100  0.21121900  0.82554000  1
  O  O5  1  0.72349000  0.28878200  0.32554100  1
  O  O6  1  0.22348800  0.78878100  0.17446000  1
  O  O7  1  0.27651100  0.71121800  0.67445900  1
  O  O8  1  0.30226900  0.51520800  0.60897100  1
  O  O9  1  0.19773000  0.98479200  0.10897000  1
  O  O10  1  0.69773000  0.48479200  0.39102900  1
  O  O11  1  0.80227100  0.01520800  0.89103000  1
  O  O12  1  0.03915700  0.35619700  0.47249500  1
  O  O13  1  0.46084300  0.14380300  0.97249500  1
  O  O14  1  0.96084400  0.64380300  0.52750500  1
  O  O15  1  0.53915600  0.85619700  0.02750600  1
  O  O16  1  0.69320800  0.68702400  0.87186100  1
  O  O17  1  0.80679200  0.81297600  0.37186100  1
  O  O18  1  0.30679100  0.31297600  0.12813900  1
  O  O19  1  0.19320900  0.18702400  0.62813900  1
  O  O20  1  0.95590400  0.85566800  0.73841500  1
  O  O21  1  0.54409600  0.64433200  0.23841500  1
  O  O22  1  0.04409700  0.14433200  0.26158500  1
  O  O23  1  0.45590500  0.35566800  0.76158500  1
  O  O24  1  0.57148600  0.32345300  0.52382600  1
  O  O25  1  0.07036900  0.62220800  0.28675600  1
  O  O26  1  0.57037000  0.12220800  0.21324400  1
  O  O27  1  0.92963000  0.37779300  0.71324400  1
  O  O28  1  0.07148700  0.82345300  0.97617400  1
  O  O29  1  0.42851300  0.67654700  0.47617400  1
  O  O30  1  0.92851400  0.17654700  0.02382600  1
  O  O31  1  0.42963100  0.87779200  0.78675600  1
loop_
_geom_bond_atom_site_label_1
_geom_bond_atom_site_label_2
_geom_bond_distance
_geom_bond_site_symmetry_2
K0 O1 2.634660 1_555
K0 O19 2.835585 1_655
K0 O3 2.883227 1_545
K0 O20 2.911457 1_545
K0 O4 3.054914 1_555
K0 O31 3.191084 1_545
K0 O11 3.221869 1_555
K0 O19 3.263982 1_555
K0 O3 3.291755 1_645
K1 O2 2.634686 1_556
K1 O16 2.835584 1_555
K1 O0 2.883222 1_455
K1 O23 2.911456 1_555
K1 O7 3.054907 1_555
K1 O27 3.191069 1_455
K1 O8 3.221845 1_555
K1 O16 3.263982 1_455
K1 O0 3.291751 1_555
K2 O3 2.634662 1_555
K2 O17 2.835585 1_455
K2 O1 2.883220 1_565
K2 O22 2.911457 1_565
K2 O6 3.054914 1_555
K2 O26 3.191084 1_565
K2 O9 3.221869 1_555
K2 O17 3.263982 1_555
K2 O1 3.291749 1_465
K3 O0 2.634672 1_554
K3 O18 2.835584 1_555
K3 O2 2.883227 1_655
K3 O21 2.911452 1_555
K3 O5 3.054906 1_555
K3 O25 3.191077 1_655
K3 O10 3.221845 1_555
K3 O18 3.263982 1_655
K3 O2 3.291755 1_555
O0 P4 1.491007 1_555
O1 P5 1.491007 1_555
O2 P6 1.490992 1_555
O3 P7 1.491001 1_555
O4 P0 1.613412 1_555
O4 P4 1.641999 1_555
O5 P3 1.613394 1_555
O5 P5 1.642011 1_555
O6 P2 1.613412 1_555
O6 P6 1.642000 1_555
O7 P1 1.613394 1_555
O7 P7 1.642011 1_555
O8 P1 1.517810 1_555
O8 W0 2.150733 1_555
O9 P2 1.517807 1_555
O9 W1 2.150733 1_565
O10 P3 1.517812 1_555
O10 W2 2.150733 1_555
O11 P0 1.517809 1_555
O11 W3 2.150733 1_545
O12 P3 1.535266 1_455
O12 W0 2.064981 1_555
O13 P0 1.535266 1_555
O13 W1 2.064973 1_556
O14 P1 1.535266 1_655
O14 W2 2.064986 1_555
O15 P2 1.535262 1_555
O15 W3 2.064989 1_554
O16 W3 1.755936 1_555
O17 W2 1.755935 1_555
O18 W1 1.755935 1_555
O19 W0 1.755933 1_555
O20 P7 1.550434 1_655
O20 W3 2.058468 1_555
O21 P6 1.550424 1_555
O21 W2 2.058461 1_555
O22 P5 1.550434 1_455
O22 W1 2.058468 1_555
O23 P4 1.550424 1_555
O23 W0 2.058466 1_555
O24 P3 1.525265 1_555
O24 W0 2.054443 1_555
O25 P6 1.539433 1_555
O25 W2 2.051749 1_455
O26 P5 1.539426 1_555
O26 W1 2.051760 1_555
O27 P4 1.539429 1_555
O27 W0 2.051752 1_655
O28 P2 1.525258 1_556
O28 W3 2.054432 1_455
O29 P1 1.525258 1_555
O29 W2 2.054443 1_555
O30 P0 1.525265 1_554
O30 W1 2.054432 1_655
O31 P7 1.539426 1_555
O31 W3 2.051760 1_555
