# generated using pymatgen
data_Sr2VMoO6
_symmetry_space_group_name_H-M   'P 1'
_cell_length_a   4.03279793
_cell_length_b   7.91393315
_cell_length_c   8.05112595
_cell_angle_alpha   90.02568402
_cell_angle_beta   90.11080330
_cell_angle_gamma   89.99543092
_symmetry_Int_Tables_number   1
_chemical_formula_structural   Sr2VMoO6
_chemical_formula_sum   'Sr4 V2 Mo2 O12'
_cell_volume   256.95353840
_cell_formula_units_Z   2
loop_
 _symmetry_equiv_pos_site_id
 _symmetry_equiv_pos_as_xyz
  1  'x, y, z'
loop_
 _atom_site_type_symbol
 _atom_site_label
 _atom_site_symmetry_multiplicity
 _atom_site_fract_x
 _atom_site_fract_y
 _atom_site_fract_z
 _atom_site_occupancy
  Sr  Sr0  1  0.49990500  0.24622700  0.75339400  1
  Sr  Sr1  1  0.50009100  0.75375700  0.24658000  1
  Sr  Sr2  1  0.50003800  0.24631100  0.24669000  1
  Sr  Sr3  1  0.49995800  0.75364700  0.75332800  1
  V  V0  1  0.99999900  0.50005100  0.50002900  1
  V  V1  1  0.00002900  0.99996900  0.99997700  1
  Mo  Mo0  1  0.99999500  0.50008700  0.99997200  1
  Mo  Mo1  1  0.99999700  0.99992600  0.49997600  1
  O  O0  1  0.50000000  0.00003100  0.99999600  1
  O  O1  1  0.50000600  0.49993900  0.49998900  1
  O  O2  1  0.49999600  0.49994500  0.00000800  1
  O  O3  1  0.49999600  0.00001600  0.49999800  1
  O  O4  1  0.99954400  0.23616000  0.00026200  1
  O  O5  1  0.99989100  0.75250200  0.50006900  1
  O  O6  1  0.00044600  0.76393400  0.99975300  1
  O  O7  1  0.00011200  0.24756700  0.49993200  1
  O  O8  1  0.00280200  0.50014400  0.24922800  1
  O  O9  1  0.00024800  0.00013600  0.75087000  1
  O  O10  1  0.99720800  0.49974200  0.75083200  1
  O  O11  1  0.99973700  0.99990600  0.24911900  1
loop_
_geom_bond_atom_site_label_1
_geom_bond_atom_site_label_2
_geom_bond_distance
_geom_bond_site_symmetry_2
Mo0 O10 2.005868 1_555
Mo0 O8 2.006801 1_656
Mo0 O2 2.016396 1_556
Mo0 O2 2.016403 1_656
Mo0 O6 2.088070 1_655
Mo0 O4 2.088704 1_556
Mo1 O5 1.958098 1_555
Mo1 O7 1.959815 1_665
Mo1 O3 2.016395 1_665
Mo1 O3 2.016403 1_565
Mo1 O11 2.019679 1_555
Mo1 O9 2.019977 1_665
O0 V1 2.016282 1_545
O0 V1 2.016516 1_645
O0 Sr2 2.782112 1_556
O0 Sr0 2.782365 1_555
O0 Sr3 2.782539 1_545
O0 Sr1 2.782694 1_546
O1 V0 2.016370 1_555
O1 V0 2.016428 1_455
O1 Sr2 2.860783 1_555
O1 Sr3 2.861457 1_555
O1 Sr0 2.863141 1_555
O1 Sr1 2.863752 1_555
O2 Sr0 2.823191 1_554
O2 Sr1 2.823482 1_555
O2 Sr2 2.824369 1_555
O2 Sr3 2.824740 1_554
O3 Sr0 2.820493 1_555
O3 Sr1 2.820884 1_545
O3 Sr2 2.821703 1_555
O3 Sr3 2.822236 1_545
O4 V1 1.869201 1_644
O4 Sr2 2.828621 1_655
O4 Sr0 2.828672 1_554
O4 Sr2 2.831241 1_555
O4 Sr0 2.836227 1_654
O5 V0 1.997880 1_555
O5 Sr3 2.865087 1_655
O5 Sr1 2.865654 1_555
O5 Sr3 2.870251 1_555
O5 Sr1 2.872337 1_655
O6 V1 1.867966 1_555
O6 Sr1 2.828483 1_556
O6 Sr3 2.828618 1_455
O6 Sr3 2.831271 1_555
O6 Sr1 2.836002 1_456
O7 V0 1.998141 1_455
O7 Sr2 2.865012 1_455
O7 Sr0 2.865482 1_555
O7 Sr2 2.870136 1_555
O7 Sr0 2.872205 1_455
O8 V0 2.019284 1_455
O8 Sr1 2.837525 1_555
O8 Sr2 2.838359 1_555
O8 Sr1 2.852737 1_455
O8 Sr2 2.854323 1_455
O9 V1 2.005595 1_545
O9 Sr0 2.802512 1_555
O9 Sr0 2.804335 1_455
O9 Sr3 2.804642 1_545
O9 Sr3 2.806601 1_445
O10 V0 2.019302 1_555
O10 Sr0 2.837010 1_555
O10 Sr3 2.838799 1_555
O10 Sr0 2.852147 1_655
O10 Sr3 2.854682 1_655
O11 V1 2.005877 1_654
O11 Sr1 2.802800 1_555
O11 Sr2 2.804146 1_565
O11 Sr1 2.804687 1_655
O11 Sr2 2.806169 1_665
