# generated using pymatgen
data_Rb2WSO4
_symmetry_space_group_name_H-M   'P 1'
_cell_length_a   12.36074054
_cell_length_b   12.36074054
_cell_length_c   12.36074099
_cell_angle_alpha   29.29407904
_cell_angle_beta   29.29407904
_cell_angle_gamma   29.29407622
_symmetry_Int_Tables_number   1
_chemical_formula_structural   Rb2WSO4
_chemical_formula_sum   'Rb4 W2 S2 O8'
_cell_volume   400.08074455
_cell_formula_units_Z   2
loop_
 _symmetry_equiv_pos_site_id
 _symmetry_equiv_pos_as_xyz
  1  'x, y, z'
loop_
 _atom_site_type_symbol
 _atom_site_label
 _atom_site_symmetry_multiplicity
 _atom_site_fract_x
 _atom_site_fract_y
 _atom_site_fract_z
 _atom_site_occupancy
  Rb  Rb0  1  0.77342500  0.77342500  0.77342500  1
  Rb  Rb1  1  0.22657500  0.22657500  0.22657500  1
  Rb  Rb2  1  0.64708900  0.64708900  0.64708900  1
  Rb  Rb3  1  0.35291100  0.35291100  0.35291100  1
  W  W0  1  0.93866500  0.93866500  0.93866500  1
  W  W1  1  0.06133500  0.06133500  0.06133500  1
  S  S0  1  0.87369500  0.87369500  0.87369500  1
  S  S1  1  0.12630500  0.12630500  0.12630500  1
  O  O0  1  0.11263400  0.64233700  0.11263400  1
  O  O1  1  0.11263400  0.11263400  0.64233700  1
  O  O2  1  0.64233700  0.11263400  0.11263400  1
  O  O3  1  0.88736600  0.35766300  0.88736600  1
  O  O4  1  0.88736600  0.88736600  0.35766300  1
  O  O5  1  0.35766300  0.88736600  0.88736600  1
  O  O6  1  0.55975100  0.55975100  0.55975100  1
  O  O7  1  0.44024900  0.44024900  0.44024900  1
loop_
_geom_bond_atom_site_label_1
_geom_bond_atom_site_label_2
_geom_bond_distance
_geom_bond_site_symmetry_2
Rb0 S0 3.556208 1_555
Rb0 S1 3.675090 1_566
Rb0 S1 3.675090 1_656
Rb0 S1 3.675090 1_665
Rb1 S1 3.556208 1_555
Rb1 S0 3.675090 1_544
Rb1 S0 3.675090 1_454
Rb1 S0 3.675090 1_445
S0 W0 2.304247 1_555
S1 W1 2.304247 1_555
O0 W0 1.803686 1_454
O0 Rb1 2.930575 1_555
O0 Rb3 2.959784 1_555
O0 Rb2 3.246402 1_554
O0 Rb2 3.246402 1_455
O1 W0 1.803686 1_445
O1 Rb1 2.930575 1_555
O1 Rb3 2.959784 1_555
O1 Rb2 3.246402 1_545
O1 Rb2 3.246402 1_455
O2 W0 1.803686 1_544
O2 Rb1 2.930575 1_555
O2 Rb3 2.959784 1_555
O2 Rb2 3.246402 1_554
O2 Rb2 3.246402 1_545
O3 W1 1.803686 1_656
O3 Rb0 2.930575 1_555
O3 Rb2 2.959784 1_555
O3 Rb3 3.246402 1_556
O3 Rb3 3.246402 1_655
O4 W1 1.803686 1_665
O4 Rb0 2.930575 1_555
O4 Rb2 2.959784 1_555
O4 Rb3 3.246402 1_565
O4 Rb3 3.246402 1_655
O5 W1 1.803686 1_566
O5 Rb0 2.930575 1_555
O5 Rb2 2.959784 1_555
O5 Rb3 3.246402 1_556
O5 Rb3 3.246402 1_565
O6 Rb2 3.097558 1_555
O6 Rb1 3.609117 1_565
O6 Rb1 3.609117 1_655
O6 Rb1 3.609117 1_556
O7 Rb3 3.097558 1_555
O7 Rb0 3.609117 1_455
O7 Rb0 3.609117 1_545
O7 Rb0 3.609117 1_554
