# generated using pymatgen
data_Gd2NbGaO7
_symmetry_space_group_name_H-M   'P 1'
_cell_length_a   7.34907040
_cell_length_b   7.34907040
_cell_length_c   7.34907040
_cell_angle_alpha   120.98941917
_cell_angle_beta   119.17985554
_cell_angle_gamma   89.86062824
_symmetry_Int_Tables_number   1
_chemical_formula_structural   Gd2NbGaO7
_chemical_formula_sum   'Gd4 Nb2 Ga2 O14'
_cell_volume   280.21351427
_cell_formula_units_Z   2
loop_
 _symmetry_equiv_pos_site_id
 _symmetry_equiv_pos_as_xyz
  1  'x, y, z'
loop_
 _atom_site_type_symbol
 _atom_site_label
 _atom_site_symmetry_multiplicity
 _atom_site_fract_x
 _atom_site_fract_y
 _atom_site_fract_z
 _atom_site_occupancy
  Gd  Gd0  1  0.50000000  0.50000000  0.50000000  1
  Gd  Gd1  1  0.50000000  0.00000000  0.00000000  1
  Gd  Gd2  1  0.50000000  0.50000000  0.00000000  1
  Gd  Gd3  1  0.00000000  0.50000000  0.50000000  1
  Nb  Nb0  1  0.00000000  0.00000000  0.00000000  1
  Nb  Nb1  1  0.50000000  0.00000000  0.50000000  1
  Ga  Ga0  1  0.00000000  0.00000000  0.50000000  1
  Ga  Ga1  1  0.00000000  0.50000000  0.00000000  1
  O  O0  1  0.37552000  0.62552000  0.75000000  1
  O  O1  1  0.62448000  0.37448000  0.25000000  1
  O  O2  1  0.33019800  0.08019800  0.25000000  1
  O  O3  1  0.91728200  0.66728200  0.25000000  1
  O  O4  1  0.33205700  0.67035300  0.25287400  1
  O  O5  1  0.91747900  0.07918300  0.24712600  1
  O  O6  1  0.33205700  0.07918300  0.66170400  1
  O  O7  1  0.91747900  0.67035300  0.83829600  1
  O  O8  1  0.66980200  0.91980200  0.75000000  1
  O  O9  1  0.08271800  0.33271800  0.75000000  1
  O  O10  1  0.66794300  0.32964700  0.74712600  1
  O  O11  1  0.08252100  0.92081700  0.75287400  1
  O  O12  1  0.66794300  0.92081700  0.33829600  1
  O  O13  1  0.08252100  0.32964700  0.16170400  1
loop_
_geom_bond_atom_site_label_1
_geom_bond_atom_site_label_2
_geom_bond_distance
_geom_bond_site_symmetry_2
Gd0 O0 2.225518 1_555
Gd0 O1 2.225518 1_555
Gd0 O8 2.529252 1_555
Gd0 O2 2.529252 1_555
Gd0 O7 2.556787 1_555
Gd0 O13 2.556787 1_555
Gd0 O4 2.556787 1_555
Gd0 O10 2.556787 1_555
Gd1 O0 2.225518 1_544
Gd1 O1 2.225518 1_555
Gd1 O8 2.529252 1_544
Gd1 O2 2.529252 1_555
Gd1 O6 2.556787 1_554
Gd1 O5 2.556787 1_555
Gd1 O12 2.556787 1_545
Gd1 O11 2.556787 1_544
Gd2 O1 2.272790 1_555
Gd2 O0 2.272790 1_554
Gd2 O4 2.525370 1_555
Gd2 O12 2.525370 1_555
Gd2 O10 2.525370 1_554
Gd2 O6 2.525370 1_554
Gd2 O3 2.547474 1_555
Gd2 O9 2.547474 1_554
Gd3 O0 2.272790 1_555
Gd3 O1 2.272790 1_455
Gd3 O7 2.525370 1_455
Gd3 O11 2.525370 1_555
Gd3 O13 2.525370 1_555
Gd3 O5 2.525370 1_455
Gd3 O3 2.547474 1_455
Gd3 O9 2.547474 1_555
Nb0 O13 1.997190 1_555
Nb0 O7 1.997190 1_444
Nb0 O5 1.997190 1_455
Nb0 O11 1.997190 1_544
Nb0 O8 2.038631 1_444
Nb0 O2 2.038631 1_555
Nb1 O10 1.997190 1_555
Nb1 O6 1.997190 1_555
Nb1 O12 1.997190 1_545
Nb1 O4 1.997190 1_545
Nb1 O2 2.038631 1_555
Nb1 O8 2.038631 1_545
Ga0 O9 2.003991 1_555
Ga0 O3 2.003991 1_445
Ga0 O11 2.042783 1_545
Ga0 O6 2.042783 1_555
Ga0 O5 2.042783 1_455
Ga0 O12 2.042783 1_445
Ga1 O9 2.003991 1_554
Ga1 O3 2.003991 1_455
Ga1 O4 2.042783 1_555
Ga1 O10 2.042783 1_454
Ga1 O7 2.042783 1_454
Ga1 O13 2.042783 1_555
