# generated using pymatgen
data_NaMg2Al6VSi6B3H3O31
_symmetry_space_group_name_H-M   'P 1'
_cell_length_a   9.61452010
_cell_length_b   9.61452010
_cell_length_c   7.22996037
_cell_angle_alpha   75.42735740
_cell_angle_beta   75.42735740
_cell_angle_gamma   113.85546801
_symmetry_Int_Tables_number   1
_chemical_formula_structural   NaMg2Al6VSi6B3H3O31
_chemical_formula_sum   'Na1 Mg2 Al6 V1 Si6 B3 H3 O31'
_cell_volume   542.38502426
_cell_formula_units_Z   1
loop_
 _symmetry_equiv_pos_site_id
 _symmetry_equiv_pos_as_xyz
  1  'x, y, z'
loop_
 _atom_site_type_symbol
 _atom_site_label
 _atom_site_symmetry_multiplicity
 _atom_site_fract_x
 _atom_site_fract_y
 _atom_site_fract_z
 _atom_site_occupancy
  Na  Na0  1  0.99546700  0.99546700  0.77979000  1
  Mg  Mg0  1  0.99859700  0.81595200  0.42623000  1
  Mg  Mg1  1  0.81595200  0.99859700  0.42623000  1
  Al  Al0  1  0.56011500  0.33217300  0.09332100  1
  Al  Al1  1  0.77541500  0.44328800  0.65199900  1
  Al  Al2  1  0.66859500  0.22482400  0.42730500  1
  Al  Al3  1  0.44328800  0.77541500  0.65199900  1
  Al  Al4  1  0.33217300  0.56011500  0.09332100  1
  Al  Al5  1  0.22482400  0.66859500  0.42730500  1
  V  V0  1  0.17845800  0.17845800  0.24354600  1
  Si  Si0  1  0.38238700  0.19289700  0.80795900  1
  Si  Si1  1  0.81080300  0.61716100  0.19304200  1
  Si  Si2  1  0.80645100  0.18879500  0.00435800  1
  Si  Si3  1  0.61716100  0.81080300  0.19304200  1
  Si  Si4  1  0.19289700  0.38238700  0.80795900  1
  Si  Si5  1  0.18879500  0.80645100  0.00435800  1
  B  B0  1  0.33309400  0.00095100  0.44027800  1
  B  B1  1  0.66870200  0.66870200  0.77261400  1
  B  B2  1  0.00095100  0.33309400  0.44027800  1
  H  H0  1  0.38365500  0.38365500  0.36796500  1
  H  H1  1  0.99978000  0.61529000  0.75331400  1
  H  H2  1  0.61529000  0.99978000  0.75331400  1
  O  O0  1  0.57127900  0.28380200  0.63555700  1
  O  O1  1  0.71329100  0.42885900  0.20659500  1
  O  O2  1  0.71503300  0.28600400  0.92006400  1
  O  O3  1  0.42885900  0.71329100  0.20659500  1
  O  O4  1  0.28380200  0.57127900  0.63555700  1
  O  O5  1  0.28600400  0.71503300  0.92006400  1
  O  O6  1  0.48407700  0.14923900  0.35041000  1
  O  O7  1  0.66501200  0.51614000  0.83538400  1
  O  O8  1  0.85160600  0.33360800  0.50185500  1
  O  O9  1  0.51614000  0.66501200  0.83538400  1
  O  O10  1  0.14923900  0.48407700  0.35041000  1
  O  O11  1  0.33360800  0.85160600  0.50185500  1
  O  O12  1  0.18794500  0.00158000  0.46210900  1
  O  O13  1  0.81271600  0.81271600  0.64998900  1
  O  O14  1  0.00158000  0.18794500  0.46210900  1
  O  O15  1  0.28172400  0.28172400  0.72167900  1
  O  O16  1  0.00007400  0.71960400  0.00465100  1
  O  O17  1  0.71960400  0.00007400  0.00465100  1
  O  O18  1  0.28012800  0.99973600  0.83619500  1
  O  O19  1  0.71996300  0.71996300  0.11761200  1
  O  O20  1  0.99973600  0.28012800  0.83619500  1
  O  O21  1  0.00961100  0.00961100  0.21516000  1
  O  O22  1  0.38650900  0.20498300  0.02690200  1
  O  O23  1  0.81844700  0.61247000  0.41447500  1
  O  O24  1  0.79492300  0.18193400  0.23304400  1
  O  O25  1  0.61247000  0.81844700  0.41447500  1
  O  O26  1  0.20498300  0.38650900  0.02690200  1
  O  O27  1  0.18193400  0.79492300  0.23304400  1
  O  O28  1  0.39535200  0.39535200  0.22563500  1
  O  O29  1  0.00002100  0.60155000  0.62390900  1
  O  O30  1  0.60155000  0.00002100  0.62390900  1
loop_
_geom_bond_atom_site_label_1
_geom_bond_atom_site_label_2
_geom_bond_distance
_geom_bond_site_symmetry_2
Na0 O13 2.493510 1_555
Na0 O14 2.531541 1_665
Na0 O12 2.531541 1_665
Na0 O16 2.764247 1_656
Na0 O17 2.764247 1_566
Na0 O19 2.794947 1_556
Na0 O15 2.834664 1_665
Na0 O18 2.852666 1_655
Na0 O20 2.852666 1_565
Mg0 O21 2.033758 1_665
Mg0 O23 2.061925 1_555
Mg0 O13 2.070476 1_555
Mg0 O27 2.071300 1_655
Mg0 O12 2.099827 1_665
Mg0 O29 2.200505 1_655
Mg1 O21 2.033758 1_665
Mg1 O25 2.061925 1_555
Mg1 O13 2.070476 1_555
Mg1 O24 2.071300 1_565
Mg1 O14 2.099827 1_665
Mg1 O30 2.200505 1_565
Al0 O22 1.886764 1_555
Al0 O7 1.890557 1_554
Al0 O1 1.893782 1_555
Al0 O6 1.927144 1_555
Al0 O2 1.964781 1_554
Al0 O28 2.025266 1_555
Al1 O23 1.859721 1_555
Al1 O8 1.904659 1_555
Al1 O2 1.904971 1_555
Al1 O7 1.932811 1_555
Al1 O29 1.996464 1_655
Al1 O0 1.998076 1_555
Al2 O24 1.859037 1_555
Al2 O0 1.901009 1_555
Al2 O6 1.908209 1_555
Al2 O8 1.937225 1_555
Al2 O30 1.993369 1_555
Al2 O1 1.994266 1_555
Al3 O25 1.859721 1_555
Al3 O11 1.904659 1_555
Al3 O5 1.904971 1_555
Al3 O9 1.932811 1_555
Al3 O30 1.996464 1_565
Al3 O4 1.998076 1_555
Al4 O26 1.886764 1_555
Al4 O9 1.890557 1_554
Al4 O3 1.893782 1_555
Al4 O10 1.927144 1_555
Al4 O5 1.964781 1_554
Al4 O28 2.025266 1_555
Al5 O27 1.859037 1_555
Al5 O4 1.901009 1_555
Al5 O10 1.908209 1_555
Al5 O11 1.937225 1_555
Al5 O29 1.993369 1_555
Al5 O3 1.994266 1_555
B0 O12 1.367092 1_555
B0 O11 1.394685 1_545
B0 O6 1.395441 1_555
B1 O13 1.354320 1_555
B1 O9 1.404840 1_555
B1 O7 1.404840 1_555
B2 O14 1.367092 1_555
B2 O8 1.394685 1_455
B2 O10 1.395441 1_555
H0 O28 0.978528 1_555
H1 O29 0.976802 1_655
H2 O30 0.976802 1_565
O0 Si0 1.626209 1_555
O1 Si1 1.630284 1_555
O2 Si2 1.632437 1_556
O3 Si3 1.630284 1_555
O4 Si4 1.626209 1_555
O5 Si5 1.632437 1_556
O12 V0 2.059880 1_555
O14 V0 2.059880 1_555
O15 Si4 1.661165 1_555
O15 Si0 1.661165 1_555
O16 Si5 1.661682 1_555
O16 Si1 1.662735 1_455
O17 Si2 1.661682 1_555
O17 Si3 1.662735 1_545
O18 Si0 1.639703 1_565
O18 Si5 1.645777 1_556
O19 Si3 1.644328 1_555
O19 Si1 1.644328 1_555
O20 Si4 1.639703 1_655
O20 Si2 1.645777 1_556
O21 V0 1.875239 1_555
O22 Si0 1.625179 1_554
O22 V0 2.080717 1_555
O23 Si1 1.611222 1_555
O24 Si2 1.611621 1_555
O25 Si3 1.611222 1_555
O26 Si4 1.625179 1_554
O26 V0 2.080717 1_555
O27 Si5 1.611621 1_555
O28 V0 2.219186 1_555
