# generated using pymatgen
data_ZnGaFeO4
_symmetry_space_group_name_H-M   'P 1'
_cell_length_a   6.00236713
_cell_length_b   6.01056108
_cell_length_c   8.51024000
_cell_angle_alpha   90.00001905
_cell_angle_beta   90.00001907
_cell_angle_gamma   90.00001349
_symmetry_Int_Tables_number   1
_chemical_formula_structural   ZnGaFeO4
_chemical_formula_sum   'Zn4 Ga4 Fe4 O16'
_cell_volume   307.02898583
_cell_formula_units_Z   4
loop_
 _symmetry_equiv_pos_site_id
 _symmetry_equiv_pos_as_xyz
  1  'x, y, z'
loop_
 _atom_site_type_symbol
 _atom_site_label
 _atom_site_symmetry_multiplicity
 _atom_site_fract_x
 _atom_site_fract_y
 _atom_site_fract_z
 _atom_site_occupancy
  Zn  Zn0  1  0.00000000  0.24999900  0.12417500  1
  Zn  Zn1  1  0.50000000  0.75000000  0.62417500  1
  Zn  Zn2  1  0.50000000  0.25000000  0.37582500  1
  Zn  Zn3  1  0.00000000  0.75000000  0.87582500  1
  Ga  Ga0  1  0.75000000  0.75000100  0.25000000  1
  Ga  Ga1  1  0.25000000  0.24999900  0.75000000  1
  Ga  Ga2  1  0.25000000  0.75000100  0.25000000  1
  Ga  Ga3  1  0.75000000  0.24999900  0.75000000  1
  Fe  Fe0  1  0.00000200  0.50000000  0.50000100  1
  Fe  Fe1  1  0.50000000  0.50000100  0.00000000  1
  Fe  Fe2  1  0.50000000  0.00000100  0.00000000  1
  Fe  Fe3  1  0.99999800  0.00000100  0.49999900  1
  O  O0  1  0.22967800  0.75000200  0.48753700  1
  O  O1  1  0.72967800  0.24999800  0.98753700  1
  O  O2  1  0.77032200  0.75000200  0.48753700  1
  O  O3  1  0.27032200  0.24999800  0.98753700  1
  O  O4  1  0.27032200  0.75000200  0.01246300  1
  O  O5  1  0.77032200  0.24999800  0.51246300  1
  O  O6  1  0.72967800  0.75000200  0.01246300  1
  O  O7  1  0.22967800  0.24999800  0.51246300  1
  O  O8  1  0.00000000  0.97554200  0.25976900  1
  O  O9  1  0.50000000  0.47554200  0.75976900  1
  O  O10  1  0.00000000  0.52445800  0.25976900  1
  O  O11  1  0.50000000  0.02445700  0.75976900  1
  O  O12  1  0.50000000  0.52445800  0.24023200  1
  O  O13  1  0.00000000  0.02445800  0.74023000  1
  O  O14  1  0.50000000  0.97554200  0.24023100  1
  O  O15  1  0.00000000  0.47554200  0.74023100  1
loop_
_geom_bond_atom_site_label_1
_geom_bond_atom_site_label_2
_geom_bond_distance
_geom_bond_site_symmetry_2
Ga0 O8 2.023960 1_655
Ga0 O14 2.023960 1_555
Ga0 O12 2.023968 1_555
Ga0 O10 2.023968 1_655
Ga0 O2 2.025174 1_555
Ga0 O6 2.025174 1_555
Ga1 O13 2.023960 1_555
Ga1 O11 2.023964 1_555
Ga1 O9 2.023968 1_555
Ga1 O15 2.023968 1_555
Ga1 O7 2.025174 1_555
Ga1 O3 2.025174 1_555
Ga2 O14 2.023960 1_555
Ga2 O8 2.023960 1_555
Ga2 O10 2.023968 1_555
Ga2 O12 2.023968 1_555
Ga2 O0 2.025174 1_555
Ga2 O4 2.025174 1_555
Ga3 O13 2.023961 1_655
Ga3 O11 2.023964 1_555
Ga3 O15 2.023968 1_655
Ga3 O9 2.023968 1_555
Ga3 O5 2.025174 1_555
Ga3 O1 2.025174 1_555
Fe0 O7 2.041996 1_555
Fe0 O0 2.041997 1_555
Fe0 O5 2.042012 1_455
Fe0 O2 2.042014 1_455
Fe0 O15 2.049694 1_555
Fe0 O10 2.049711 1_555
Fe1 O6 2.042000 1_555
Fe1 O4 2.042001 1_555
Fe1 O3 2.042009 1_554
Fe1 O1 2.042009 1_554
Fe1 O9 2.049702 1_554
Fe1 O12 2.049710 1_555
Fe2 O1 2.041982 1_554
Fe2 O3 2.041983 1_554
Fe2 O4 2.041991 1_545
Fe2 O6 2.041992 1_545
Fe2 O11 2.049701 1_554
Fe2 O14 2.049702 1_545
Fe3 O5 2.041975 1_555
Fe3 O2 2.041983 1_545
Fe3 O7 2.041991 1_655
Fe3 O0 2.041999 1_645
Fe3 O8 2.049694 1_645
Fe3 O13 2.049701 1_655
O0 Zn1 1.996220 1_555
O1 Zn0 1.996220 1_656
O2 Zn1 1.996220 1_555
O3 Zn0 1.996220 1_556
O4 Zn3 1.996220 1_554
O5 Zn2 1.996220 1_555
O6 Zn3 1.996220 1_654
O7 Zn2 1.996220 1_555
O8 Zn0 2.013178 1_565
O9 Zn1 2.013183 1_555
O10 Zn0 2.013188 1_555
O11 Zn1 2.013178 1_545
O12 Zn2 2.013178 1_555
O13 Zn3 2.013188 1_545
O14 Zn2 2.013183 1_565
O15 Zn3 2.013183 1_555
