# generated using pymatgen
data_Mn2CdTeO6
_symmetry_space_group_name_H-M   'P 1'
_cell_length_a   6.40553900
_cell_length_b   6.42174993
_cell_length_c   6.42172786
_cell_angle_alpha   90.54412831
_cell_angle_beta   90.64109841
_cell_angle_gamma   90.76736304
_symmetry_Int_Tables_number   1
_chemical_formula_structural   Mn2CdTeO6
_chemical_formula_sum   'Mn4 Cd2 Te2 O12'
_cell_volume   264.10377832
_cell_formula_units_Z   2
loop_
 _symmetry_equiv_pos_site_id
 _symmetry_equiv_pos_as_xyz
  1  'x, y, z'
loop_
 _atom_site_type_symbol
 _atom_site_label
 _atom_site_symmetry_multiplicity
 _atom_site_fract_x
 _atom_site_fract_y
 _atom_site_fract_z
 _atom_site_occupancy
  Mn  Mn0  1  0.43892600  0.25220800  0.94754500  1
  Mn  Mn1  1  0.05212500  0.56361700  0.75045500  1
  Mn  Mn2  1  0.74806100  0.05115500  0.56508500  1
  Mn  Mn3  1  0.56223600  0.74903600  0.05000600  1
  Cd  Cd0  1  0.94628000  0.43889500  0.24925900  1
  Cd  Cd1  1  0.25234600  0.94763400  0.43715200  1
  Te  Te0  1  0.50505700  0.50147800  0.50529900  1
  Te  Te1  1  0.99712800  0.00098100  0.99592400  1
  O  O0  1  0.21094200  0.56673000  0.45137700  1
  O  O1  1  0.44856300  0.20929900  0.57501700  1
  O  O2  1  0.55675700  0.44126500  0.20885100  1
  O  O3  1  0.79528300  0.43338700  0.57246500  1
  O  O4  1  0.57585600  0.79071700  0.43374400  1
  O  O5  1  0.43689200  0.56254400  0.79855700  1
  O  O6  1  0.94582600  0.07493000  0.28747900  1
  O  O7  1  0.29271400  0.95569800  0.06911100  1
  O  O8  1  0.08691000  0.28970500  0.94492800  1
  O  O9  1  0.03108100  0.91476400  0.70537600  1
  O  O10  1  0.70392800  0.04687000  0.91860000  1
  O  O11  1  0.91309000  0.70908800  0.03377000  1
loop_
_geom_bond_atom_site_label_1
_geom_bond_atom_site_label_2
_geom_bond_distance
_geom_bond_site_symmetry_2
Mn0 O10 2.171896 1_555
Mn0 O2 2.183549 1_556
Mn0 O5 2.218973 1_555
Mn0 O7 2.260325 1_546
Mn0 O8 2.270770 1_555
Mn0 O1 2.407063 1_555
Mn1 O3 2.148369 1_455
Mn1 O8 2.179297 1_555
Mn1 O0 2.183556 1_555
Mn1 O11 2.236565 1_456
Mn1 O9 2.281790 1_555
Mn1 O5 2.480600 1_555
Mn2 O4 2.151339 1_545
Mn2 O1 2.183933 1_555
Mn2 O6 2.203781 1_555
Mn2 O9 2.210508 1_645
Mn2 O10 2.291226 1_555
Mn2 O3 2.469084 1_555
Mn3 O5 2.143543 1_554
Mn3 O7 2.195432 1_555
Mn3 O2 2.232769 1_555
Mn3 O11 2.268856 1_555
Mn3 O10 2.279308 1_564
Mn3 O4 2.476666 1_555
Cd0 O11 2.240457 1_555
Cd0 O0 2.264040 1_655
Cd0 O3 2.300007 1_555
Cd0 O6 2.352427 1_555
Cd0 O8 2.361292 1_654
Cd0 O2 2.505936 1_555
Cd1 O9 2.252499 1_555
Cd1 O1 2.253306 1_565
Cd1 O4 2.316608 1_555
Cd1 O6 2.337263 1_465
Cd1 O7 2.381413 1_555
Cd1 O0 2.459543 1_555
O0 Te0 1.963191 1_555
O1 Te0 1.962981 1_555
O2 Te0 1.971509 1_555
O3 Te0 1.959778 1_555
O4 Te0 1.965995 1_555
O5 Te0 1.974822 1_555
O6 Te1 1.959597 1_554
O7 Te1 1.971750 1_464
O8 Te1 1.965429 1_455
O9 Te1 1.956480 1_465
O10 Te1 1.964030 1_555
O11 Te1 1.961380 1_564
