# generated using pymatgen
data_K4Na4Mo5(WO8)3
_symmetry_space_group_name_H-M   'P 1'
_cell_length_a   7.99280200
_cell_length_b   7.99556100
_cell_length_c   8.04733700
_cell_angle_alpha   90.00000000
_cell_angle_beta   90.00000000
_cell_angle_gamma   90.00000000
_symmetry_Int_Tables_number   1
_chemical_formula_structural   K4Na4Mo5(WO8)3
_chemical_formula_sum   'K4 Na4 Mo5 W3 O24'
_cell_volume   514.28065024
_cell_formula_units_Z   1
loop_
 _symmetry_equiv_pos_site_id
 _symmetry_equiv_pos_as_xyz
  1  'x, y, z'
loop_
 _atom_site_type_symbol
 _atom_site_label
 _atom_site_symmetry_multiplicity
 _atom_site_fract_x
 _atom_site_fract_y
 _atom_site_fract_z
 _atom_site_occupancy
  K  K0  1  0.25215300  0.25213100  0.25313400  1
  K  K1  1  0.25215300  0.25213100  0.74686600  1
  K  K2  1  0.25215300  0.74786900  0.25313400  1
  K  K3  1  0.25215300  0.74786900  0.74686600  1
  Na  Na0  1  0.74750500  0.25249200  0.25313100  1
  Na  Na1  1  0.74750500  0.25249200  0.74686900  1
  Na  Na2  1  0.74750500  0.74750800  0.25313100  1
  Na  Na3  1  0.74750500  0.74750800  0.74686900  1
  Mo  Mo0  1  0.99822600  0.00000000  0.50000000  1
  Mo  Mo1  1  0.50189600  0.00000000  0.50000000  1
  Mo  Mo2  1  0.50119100  0.50000000  0.00000000  1
  Mo  Mo3  1  0.99791600  0.50000000  0.50000000  1
  Mo  Mo4  1  0.50272300  0.50000000  0.50000000  1
  W  W0  1  0.99810000  0.00000000  0.00000000  1
  W  W1  1  0.50224400  0.00000000  0.00000000  1
  W  W2  1  0.99745200  0.50000000  0.00000000  1
  O  O0  1  0.99583900  0.25647100  0.00000000  1
  O  O1  1  0.50404000  0.24520600  0.00000000  1
  O  O2  1  0.99551300  0.26204200  0.50000000  1
  O  O3  1  0.50437000  0.25567500  0.50000000  1
  O  O4  1  0.99583900  0.74352900  0.00000000  1
  O  O5  1  0.50404000  0.75479400  0.00000000  1
  O  O6  1  0.99551300  0.73795800  0.50000000  1
  O  O7  1  0.50437000  0.74432500  0.50000000  1
  O  O8  1  0.99527000  0.00000000  0.23755900  1
  O  O9  1  0.50440500  0.00000000  0.24168900  1
  O  O10  1  0.99527000  0.00000000  0.76244100  1
  O  O11  1  0.50440500  0.00000000  0.75831100  1
  O  O12  1  0.99538600  0.50000000  0.24171400  1
  O  O13  1  0.50468100  0.50000000  0.26056700  1
  O  O14  1  0.99538600  0.50000000  0.75828600  1
  O  O15  1  0.50468100  0.50000000  0.73943300  1
  O  O16  1  0.25725900  0.00000000  0.00000000  1
  O  O17  1  0.74420900  0.00000000  0.00000000  1
  O  O18  1  0.26315100  0.00000000  0.50000000  1
  O  O19  1  0.73899600  0.00000000  0.50000000  1
  O  O20  1  0.24374600  0.50000000  0.00000000  1
  O  O21  1  0.75349000  0.50000000  0.00000000  1
  O  O22  1  0.25661900  0.50000000  0.50000000  1
  O  O23  1  0.74514400  0.50000000  0.50000000  1
loop_
_geom_bond_atom_site_label_1
_geom_bond_atom_site_label_2
_geom_bond_distance
_geom_bond_site_symmetry_2
K0 O22 2.806358 1_555
K0 O13 2.829360 1_555
K0 O3 2.830437 1_555
K0 O18 2.831666 1_555
K0 O20 2.842858 1_555
K0 O9 2.852633 1_555
K0 O12 2.854482 1_455
K0 O2 2.856682 1_455
K0 O1 2.864606 1_555
K0 O16 2.866222 1_555
K0 O8 2.880168 1_455
K0 O0 2.889262 1_455
K1 O22 2.806358 1_555
K1 O15 2.829360 1_555
K1 O3 2.830437 1_555
K1 O18 2.831666 1_555
K1 O20 2.842858 1_556
K1 O11 2.852633 1_555
K1 O14 2.854482 1_455
K1 O2 2.856682 1_455
K1 O1 2.864606 1_556
K1 O16 2.866222 1_556
K1 O10 2.880168 1_455
K1 O0 2.889262 1_456
K2 O22 2.806358 1_555
K2 O13 2.829360 1_555
K2 O7 2.830437 1_555
K2 O18 2.831666 1_565
K2 O20 2.842858 1_555
K2 O9 2.852633 1_565
K2 O12 2.854482 1_455
K2 O6 2.856682 1_455
K2 O5 2.864606 1_555
K2 O16 2.866222 1_565
K2 O8 2.880168 1_465
K2 O4 2.889262 1_455
K3 O22 2.806358 1_555
K3 O15 2.829360 1_555
K3 O7 2.830437 1_555
K3 O18 2.831666 1_565
K3 O20 2.842858 1_556
K3 O11 2.852633 1_565
K3 O14 2.854482 1_455
K3 O6 2.856682 1_455
K3 O5 2.864606 1_556
K3 O16 2.866222 1_566
K3 O10 2.880168 1_465
K3 O4 2.889262 1_456
Na0 O13 2.772501 1_555
Na0 O3 2.779192 1_555
Na0 O12 2.801812 1_555
Na0 O9 2.803487 1_555
Na0 O23 2.804174 1_555
Na0 O2 2.807488 1_555
Na0 O1 2.817743 1_555
Na0 O8 2.830733 1_555
Na0 O19 2.833191 1_555
Na0 O21 2.840437 1_555
Na0 O0 2.844340 1_555
Na0 O17 2.868066 1_555
Na1 O15 2.772501 1_555
Na1 O3 2.779192 1_555
Na1 O14 2.801812 1_555
Na1 O11 2.803487 1_555
Na1 O23 2.804174 1_555
Na1 O2 2.807488 1_555
Na1 O1 2.817743 1_556
Na1 O10 2.830733 1_555
Na1 O19 2.833191 1_555
Na1 O21 2.840437 1_556
Na1 O0 2.844340 1_556
Na1 O17 2.868066 1_556
Na2 O13 2.772501 1_555
Na2 O7 2.779192 1_555
Na2 O12 2.801812 1_555
Na2 O9 2.803487 1_565
Na2 O23 2.804174 1_555
Na2 O6 2.807488 1_555
Na2 O5 2.817743 1_555
Na2 O8 2.830733 1_565
Na2 O19 2.833191 1_565
Na2 O21 2.840437 1_555
Na2 O4 2.844340 1_555
Na2 O17 2.868066 1_565
Na3 O15 2.772501 1_555
Na3 O7 2.779192 1_555
Na3 O14 2.801812 1_555
Na3 O11 2.803487 1_565
Na3 O23 2.804174 1_555
Na3 O6 2.807488 1_555
Na3 O5 2.817743 1_556
Na3 O10 2.830733 1_565
Na3 O19 2.833191 1_565
Na3 O21 2.840437 1_556
Na3 O4 2.844340 1_556
Na3 O17 2.868066 1_566
Mo0 O19 2.071974 1_555
Mo0 O2 2.095285 1_555
Mo0 O6 2.095285 1_545
Mo0 O10 2.112083 1_555
Mo0 O8 2.112083 1_555
Mo0 O18 2.117493 1_655
Mo1 O19 1.895093 1_555
Mo1 O18 1.908242 1_555
Mo1 O3 2.044361 1_555
Mo1 O7 2.044361 1_545
Mo1 O11 2.078812 1_555
Mo1 O9 2.078812 1_555
Mo2 O21 2.016576 1_555
Mo2 O5 2.037348 1_555
Mo2 O1 2.037348 1_555
Mo2 O20 2.057707 1_555
Mo2 O13 2.097056 1_555
Mo2 O15 2.097056 1_554
Mo3 O6 1.902705 1_555
Mo3 O2 1.902705 1_555
Mo3 O23 2.020357 1_555
Mo3 O22 2.067762 1_655
Mo3 O14 2.078613 1_555
Mo3 O12 2.078613 1_555
Mo4 O15 1.926862 1_555
Mo4 O13 1.926862 1_555
Mo4 O23 1.937623 1_555
Mo4 O7 1.953560 1_555
Mo4 O3 1.953560 1_555
Mo4 O22 1.967061 1_555
O0 W2 1.947194 1_555
O0 W0 2.050709 1_555
O1 W1 1.960612 1_555
O4 W2 1.947194 1_555
O4 W0 2.050709 1_565
O5 W1 1.960612 1_565
O8 W0 1.911851 1_555
O9 W1 1.945030 1_555
O10 W0 1.911851 1_556
O11 W1 1.945030 1_556
O12 W2 1.945224 1_555
O14 W2 1.945224 1_556
O16 W1 1.958117 1_555
O16 W0 2.071407 1_455
O17 W1 1.933978 1_555
O17 W0 2.029300 1_555
O20 W2 1.968579 1_455
O21 W2 1.949940 1_555
