# generated using pymatgen
data_Li4Mn3CoO8
_symmetry_space_group_name_H-M   'P 1'
_cell_length_a   5.42738604
_cell_length_b   9.82208679
_cell_length_c   5.72540683
_cell_angle_alpha   90.45331202
_cell_angle_beta   89.70944162
_cell_angle_gamma   95.38162088
_symmetry_Int_Tables_number   1
_chemical_formula_structural   Li4Mn3CoO8
_chemical_formula_sum   'Li8 Mn6 Co2 O16'
_cell_volume   303.85373271
_cell_formula_units_Z   2
loop_
 _symmetry_equiv_pos_site_id
 _symmetry_equiv_pos_as_xyz
  1  'x, y, z'
loop_
 _atom_site_type_symbol
 _atom_site_label
 _atom_site_symmetry_multiplicity
 _atom_site_fract_x
 _atom_site_fract_y
 _atom_site_fract_z
 _atom_site_occupancy
  Li  Li0  1  0.75575200  0.24894100  0.50030200  1
  Li  Li1  1  0.24428000  0.75105500  0.49975300  1
  Li  Li2  1  0.75837900  0.25334700  0.99754100  1
  Li  Li3  1  0.24162900  0.74664800  0.00248500  1
  Li  Li4  1  0.25021900  0.25103100  0.24779300  1
  Li  Li5  1  0.75595300  0.75043500  0.24930500  1
  Li  Li6  1  0.24406200  0.24956700  0.75072000  1
  Li  Li7  1  0.74974900  0.74895300  0.75223300  1
  Mn  Mn0  1  0.99989700  0.00003900  0.50001200  1
  Mn  Mn1  1  0.99982400  0.50001200  0.25011200  1
  Mn  Mn2  1  0.99990200  0.49999100  0.74996100  1
  Mn  Mn3  1  0.50013400  0.49994800  0.49978900  1
  Mn  Mn4  1  0.49477200  0.99777600  0.25058900  1
  Mn  Mn5  1  0.50526200  0.00222300  0.74947600  1
  Co  Co0  1  0.00003600  0.99997600  0.00002700  1
  Co  Co1  1  0.49999000  0.50001100  0.99991800  1
  O  O0  1  0.38712000  0.11524500  0.50110100  1
  O  O1  1  0.89278400  0.61636100  0.50231200  1
  O  O2  1  0.10720600  0.38364200  0.49765500  1
  O  O3  1  0.61293700  0.88477500  0.49897200  1
  O  O4  1  0.36980800  0.10965700  0.00168800  1
  O  O5  1  0.88544700  0.61416000  0.00189400  1
  O  O6  1  0.11455000  0.38584500  0.99811300  1
  O  O7  1  0.63024400  0.89036100  0.99838200  1
  O  O8  1  0.89412300  0.11631700  0.24567100  1
  O  O9  1  0.39319200  0.61475400  0.24739400  1
  O  O10  1  0.88428900  0.12016300  0.74074400  1
  O  O11  1  0.39271900  0.61540400  0.75536300  1
  O  O12  1  0.60736600  0.38450100  0.24444900  1
  O  O13  1  0.11568300  0.87989200  0.25936800  1
  O  O14  1  0.60681900  0.38524200  0.75253300  1
  O  O15  1  0.10587100  0.88372700  0.75434300  1
loop_
_geom_bond_atom_site_label_1
_geom_bond_atom_site_label_2
_geom_bond_distance
_geom_bond_site_symmetry_2
Li0 O10 2.045601 1_555
Li0 O8 2.128050 1_555
Li0 O14 2.166035 1_555
Li0 O12 2.193450 1_555
Li0 O2 2.217156 1_655
Li0 O0 2.287895 1_555
Li1 O13 2.045890 1_555
Li1 O15 2.128276 1_555
Li1 O9 2.166470 1_555
Li1 O11 2.193213 1_555
Li1 O1 2.217301 1_455
Li1 O3 2.288122 1_555
Li2 O10 2.113521 1_555
Li2 O12 2.118281 1_556
Li2 O14 2.136123 1_555
Li2 O8 2.144618 1_556
Li2 O6 2.226783 1_655
Li2 O4 2.425224 1_556
Li3 O13 2.114314 1_555
Li3 O11 2.119839 1_554
Li3 O9 2.135748 1_555
Li3 O15 2.145014 1_554
Li3 O5 2.226782 1_455
Li3 O7 2.425529 1_554
Li4 O4 2.112746 1_555
Li4 O2 2.120004 1_555
Li4 O6 2.136027 1_554
Li4 O0 2.159073 1_555
Li4 O12 2.235984 1_555
Li4 O8 2.237509 1_455
Li5 O5 2.104390 1_555
Li5 O3 2.130235 1_555
Li5 O1 2.146762 1_555
Li5 O7 2.152991 1_554
Li5 O13 2.228515 1_655
Li5 O9 2.271628 1_555
Li6 O6 2.104379 1_555
Li6 O0 2.130033 1_555
Li6 O2 2.147050 1_555
Li6 O4 2.153136 1_556
Li6 O10 2.228440 1_455
Li6 O14 2.271578 1_555
Li7 O7 2.112973 1_555
Li7 O1 2.120160 1_555
Li7 O5 2.135881 1_556
Li7 O3 2.158926 1_555
Li7 O11 2.235850 1_555
Li7 O15 2.237924 1_655
Mn0 O10 1.946747 1_555
Mn0 O13 1.946899 1_645
Mn0 O8 1.977942 1_555
Mn0 O15 1.978481 1_645
Mn0 O3 2.290533 1_545
Mn0 O0 2.291544 1_655
Mn1 O2 1.952885 1_655
Mn1 O1 1.954064 1_555
Mn1 O6 1.955269 1_654
Mn1 O5 1.956209 1_555
Mn1 O12 2.317774 1_555
Mn1 O9 2.318846 1_655
Mn2 O1 1.952818 1_555
Mn2 O5 1.954462 1_556
Mn2 O2 1.955009 1_655
Mn2 O6 1.956472 1_655
Mn2 O14 2.317515 1_555
Mn2 O11 2.319066 1_655
Mn3 O12 1.962311 1_555
Mn3 O9 1.963087 1_555
Mn3 O14 1.963482 1_555
Mn3 O11 1.963699 1_555
Mn3 O1 2.322073 1_555
Mn3 O2 2.322948 1_555
Mn4 O0 1.954875 1_565
Mn4 O3 1.957878 1_555
Mn4 O7 1.962001 1_554
Mn4 O4 1.967934 1_565
Mn4 O13 2.264806 1_555
Mn4 O8 2.362356 1_565
Mn5 O3 1.954759 1_545
Mn5 O0 1.957921 1_555
Mn5 O4 1.962087 1_556
Mn5 O7 1.967883 1_545
Mn5 O10 2.264745 1_555
Mn5 O15 2.362362 1_545
Co0 O15 1.923986 1_554
Co0 O8 1.924525 1_465
Co0 O13 2.041049 1_555
Co0 O10 2.041623 1_464
Co0 O7 2.186785 1_454
Co0 O4 2.186955 1_565
Co1 O14 1.924071 1_555
Co1 O9 1.924237 1_556
Co1 O11 1.934219 1_555
Co1 O12 1.935037 1_556
Co1 O6 2.278975 1_555
Co1 O5 2.278993 1_556
