# generated using pymatgen
data_KEu(SnO3)2
_symmetry_space_group_name_H-M   'P 1'
_cell_length_a   5.79790046
_cell_length_b   5.79790046
_cell_length_c   5.79790046
_cell_angle_alpha   60.00000000
_cell_angle_beta   60.00000000
_cell_angle_gamma   60.00000000
_symmetry_Int_Tables_number   1
_chemical_formula_structural   KEu(SnO3)2
_chemical_formula_sum   'K1 Eu1 Sn2 O6'
_cell_volume   137.81524660
_cell_formula_units_Z   1
loop_
 _symmetry_equiv_pos_site_id
 _symmetry_equiv_pos_as_xyz
  1  'x, y, z'
loop_
 _atom_site_type_symbol
 _atom_site_label
 _atom_site_symmetry_multiplicity
 _atom_site_fract_x
 _atom_site_fract_y
 _atom_site_fract_z
 _atom_site_occupancy
  K  K0  1  0.50000000  0.50000000  0.50000000  1
  Eu  Eu0  1  0.00000000  0.00000000  0.00000000  1
  Sn  Sn0  1  0.25000000  0.25000000  0.25000000  1
  Sn  Sn1  1  0.75000000  0.75000000  0.75000000  1
  O  O0  1  0.00000000  0.00000000  0.50000000  1
  O  O1  1  0.50000000  0.50000000  0.00000000  1
  O  O2  1  0.00000000  0.50000000  0.50000000  1
  O  O3  1  0.50000000  0.00000000  0.00000000  1
  O  O4  1  0.00000000  0.50000000  0.00000000  1
  O  O5  1  0.50000000  0.00000000  0.50000000  1
loop_
_geom_bond_atom_site_label_1
_geom_bond_atom_site_label_2
_geom_bond_distance
_geom_bond_site_symmetry_2
K0 O4 2.898950 1_655
K0 O0 2.898950 1_565
K0 O5 2.898950 1_555
K0 O2 2.898950 1_655
K0 O5 2.898950 1_565
K0 O2 2.898950 1_555
K0 O3 2.898950 1_556
K0 O3 2.898950 1_565
K0 O0 2.898950 1_655
K0 O1 2.898950 1_555
K0 O4 2.898950 1_556
K0 O1 2.898950 1_556
Eu0 O5 2.898950 1_455
Eu0 O2 2.898950 1_554
Eu0 O5 2.898950 1_554
Eu0 O1 2.898950 1_545
Eu0 O3 2.898950 1_455
Eu0 O4 2.898950 1_545
Eu0 O3 2.898950 1_555
Eu0 O0 2.898950 1_555
Eu0 O0 2.898950 1_554
Eu0 O2 2.898950 1_545
Eu0 O4 2.898950 1_555
Eu0 O1 2.898950 1_455
O0 Sn1 2.049867 1_445
O0 Sn0 2.049867 1_555
O1 Sn1 2.049867 1_554
O1 Sn0 2.049867 1_555
O2 Sn1 2.049867 1_455
O2 Sn0 2.049867 1_555
O3 Sn1 2.049867 1_544
O3 Sn0 2.049867 1_555
O4 Sn1 2.049867 1_454
O4 Sn0 2.049867 1_555
O5 Sn1 2.049867 1_545
O5 Sn0 2.049867 1_555
