# generated using pymatgen
data_MgCd
_symmetry_space_group_name_H-M   'P 1'
_cell_length_a   11.61523539
_cell_length_b   11.61523539
_cell_length_c   15.05493044
_cell_angle_alpha   74.76862210
_cell_angle_beta   74.76862210
_cell_angle_gamma   31.44557832
_symmetry_Int_Tables_number   1
_chemical_formula_structural   MgCd
_chemical_formula_sum   'Mg24 Cd24'
_cell_volume   1019.38079092
_cell_formula_units_Z   24
loop_
 _symmetry_equiv_pos_site_id
 _symmetry_equiv_pos_as_xyz
  1  'x, y, z'
loop_
 _atom_site_type_symbol
 _atom_site_label
 _atom_site_symmetry_multiplicity
 _atom_site_fract_x
 _atom_site_fract_y
 _atom_site_fract_z
 _atom_site_occupancy
  Mg  Mg0_0  1  0.00539418  0.00539418  0.49730092  1
  Mg  Mg0_1  1  0.00539418  0.00539418  0.99730092  1
  Mg  Mg0_2  1  0.00539418  0.50539418  0.49730092  1
  Mg  Mg0_3  1  0.00539418  0.50539418  0.99730092  1
  Mg  Mg0_4  1  0.50539418  0.00539418  0.49730092  1
  Mg  Mg0_5  1  0.50539418  0.00539418  0.99730092  1
  Mg  Mg0_6  1  0.50539418  0.50539418  0.49730092  1
  Mg  Mg0_7  1  0.50539418  0.50539418  0.99730091  1
  Mg  Mg1_0  1  0.19125392  0.19125393  0.36277424  1
  Mg  Mg1_1  1  0.19125392  0.19125393  0.86277424  1
  Mg  Mg1_2  1  0.19125392  0.69125392  0.36277424  1
  Mg  Mg1_3  1  0.19125392  0.69125393  0.86277424  1
  Mg  Mg1_4  1  0.69125392  0.19125393  0.36277424  1
  Mg  Mg1_5  1  0.69125392  0.19125393  0.86277424  1
  Mg  Mg1_6  1  0.69125392  0.69125393  0.36277424  1
  Mg  Mg1_7  1  0.69125392  0.69125393  0.86277424  1
  Mg  Mg2_0  1  0.16505372  0.16505372  0.16856231  1
  Mg  Mg2_1  1  0.16505372  0.16505372  0.66856231  1
  Mg  Mg2_2  1  0.16505372  0.66505372  0.16856231  1
  Mg  Mg2_3  1  0.16505372  0.66505372  0.66856232  1
  Mg  Mg2_4  1  0.66505372  0.16505372  0.16856231  1
  Mg  Mg2_5  1  0.66505372  0.16505372  0.66856232  1
  Mg  Mg2_6  1  0.66505372  0.66505372  0.16856232  1
  Mg  Mg2_7  1  0.66505372  0.66505372  0.66856232  1
  Cd  Cd0_0  1  0.33094304  0.33094305  0.33249853  1
  Cd  Cd0_1  1  0.33094304  0.33094304  0.83249853  1
  Cd  Cd0_2  1  0.33094304  0.83094304  0.33249853  1
  Cd  Cd0_3  1  0.33094304  0.83094304  0.83249853  1
  Cd  Cd0_4  1  0.83094304  0.33094305  0.33249853  1
  Cd  Cd0_5  1  0.83094304  0.33094304  0.83249853  1
  Cd  Cd0_6  1  0.83094304  0.83094305  0.33249853  1
  Cd  Cd0_7  1  0.83094304  0.83094304  0.83249853  1
  Cd  Cd1_0  1  0.02510569  0.02510570  0.19241474  1
  Cd  Cd1_1  1  0.02510569  0.02510570  0.69241474  1
  Cd  Cd1_2  1  0.02510569  0.52510569  0.19241474  1
  Cd  Cd1_3  1  0.02510569  0.52510570  0.69241474  1
  Cd  Cd1_4  1  0.52510569  0.02510570  0.19241474  1
  Cd  Cd1_5  1  0.52510570  0.02510570  0.69241474  1
  Cd  Cd1_6  1  0.52510569  0.52510570  0.19241474  1
  Cd  Cd1_7  1  0.52510569  0.52510570  0.69241473  1
  Cd  Cd2_0  1  0.36558293  0.36558294  0.02978276  1
  Cd  Cd2_1  1  0.36558293  0.36558294  0.52978277  1
  Cd  Cd2_2  1  0.36558293  0.86558293  0.02978276  1
  Cd  Cd2_3  1  0.36558293  0.86558294  0.52978277  1
  Cd  Cd2_4  1  0.86558293  0.36558294  0.02978276  1
  Cd  Cd2_5  1  0.86558293  0.36558294  0.52978277  1
  Cd  Cd2_6  1  0.86558293  0.86558293  0.02978277  1
  Cd  Cd2_7  1  0.86558293  0.86558294  0.52978276  1
loop_
_geom_bond_atom_site_label_1
_geom_bond_atom_site_label_2
_geom_bond_distance
_geom_bond_site_symmetry_2
Mg0_0 Mg0_6 3.147535 1_545
Mg0_0 Mg0_6 3.147535 1_455
Mg0_0 Mg1_4 3.197068 1_455
Mg0_0 Mg1_2 3.197068 1_545
Mg0_0 Mg2_3 3.219053 1_545
Mg0_0 Mg2_5 3.219053 1_455
Mg0_1 Mg0_7 3.147535 1_545
Mg0_1 Mg0_7 3.147535 1_455
Mg0_1 Mg1_5 3.197068 1_455
Mg0_1 Mg1_3 3.197068 1_545
Mg0_1 Mg2_2 3.219053 1_546
Mg0_1 Mg2_4 3.219053 1_456
Mg0_2 Mg0_4 3.147535 1_555
Mg0_2 Mg0_4 3.147535 1_465
Mg0_2 Mg1_0 3.197068 1_555
Mg0_2 Mg1_6 3.197068 1_455
Mg0_2 Mg2_1 3.219053 1_555
Mg0_2 Mg2_7 3.219053 1_455
Mg0_3 Mg0_5 3.147535 1_555
Mg0_3 Mg0_5 3.147535 1_465
Mg0_3 Mg1_7 3.197068 1_455
Mg0_3 Mg1_1 3.197068 1_555
Mg0_3 Mg2_0 3.219053 1_556
Mg0_3 Mg2_6 3.219053 1_456
Mg0_4 Mg1_0 3.197068 1_555
Mg0_4 Mg1_6 3.197068 1_545
Mg0_4 Mg2_1 3.219053 1_555
Mg0_4 Mg2_7 3.219053 1_545
Mg0_5 Mg1_7 3.197068 1_545
Mg0_5 Mg1_1 3.197068 1_555
Mg0_5 Mg2_0 3.219053 1_556
Mg0_5 Mg2_6 3.219053 1_546
Mg0_6 Mg1_4 3.197068 1_555
Mg0_6 Mg1_2 3.197068 1_555
Mg0_6 Mg2_3 3.219053 1_555
Mg0_6 Mg2_5 3.219053 1_555
Mg0_7 Mg1_5 3.197068 1_555
Mg0_7 Mg1_3 3.197068 1_555
Mg0_7 Mg2_4 3.219053 1_556
Mg0_7 Mg2_2 3.219053 1_556
Mg1_0 Mg2_0 3.134833 1_555
Mg1_0 Mg1_6 3.147535 1_455
Mg1_0 Mg1_6 3.147535 1_545
Mg1_1 Mg2_1 3.134833 1_555
Mg1_1 Mg1_7 3.147535 1_545
Mg1_1 Mg1_7 3.147535 1_455
Mg1_2 Mg2_2 3.134833 1_555
Mg1_2 Mg1_4 3.147535 1_555
Mg1_2 Mg1_4 3.147535 1_465
Mg1_3 Mg2_3 3.134833 1_555
Mg1_3 Mg1_5 3.147535 1_555
Mg1_3 Mg1_5 3.147535 1_465
Mg1_4 Mg2_4 3.134833 1_555
Mg1_5 Mg2_5 3.134833 1_555
Mg1_6 Mg2_6 3.134833 1_555
Mg1_7 Mg2_7 3.134833 1_555
Cd0_0 Mg1_0 3.031112 1_555
Cd0_0 Mg0_4 3.032913 1_555
Cd0_0 Mg0_2 3.032913 1_555
Cd0_0 Mg1_2 3.063133 1_555
Cd0_0 Mg1_4 3.063133 1_555
Cd0_0 Mg2_2 3.093807 1_555
Cd0_0 Mg2_4 3.093807 1_555
Cd0_0 Cd1_4 3.149727 1_555
Cd0_0 Cd1_2 3.149727 1_555
Cd0_1 Mg1_1 3.031112 1_555
Cd0_1 Mg0_5 3.032913 1_555
Cd0_1 Mg0_3 3.032913 1_555
Cd0_1 Mg1_3 3.063133 1_555
Cd0_1 Mg1_5 3.063133 1_555
Cd0_1 Mg2_3 3.093807 1_555
Cd0_1 Mg2_5 3.093807 1_555
Cd0_1 Cd1_3 3.149727 1_555
Cd0_1 Cd1_5 3.149727 1_555
Cd0_2 Mg1_2 3.031112 1_555
Cd0_2 Mg0_6 3.032913 1_555
Cd0_2 Mg0_0 3.032913 1_565
Cd0_2 Mg1_0 3.063133 1_565
Cd0_2 Mg1_6 3.063133 1_555
Cd0_2 Mg2_6 3.093807 1_555
Cd0_2 Mg2_0 3.093807 1_565
Cd0_2 Cd1_6 3.149727 1_555
Cd0_2 Cd1_0 3.149727 1_565
Cd0_3 Mg1_3 3.031112 1_555
Cd0_3 Mg0_7 3.032913 1_555
Cd0_3 Mg0_1 3.032913 1_565
Cd0_3 Mg1_1 3.063133 1_565
Cd0_3 Mg1_7 3.063133 1_555
Cd0_3 Mg2_7 3.093807 1_555
Cd0_3 Mg2_1 3.093807 1_565
Cd0_3 Cd1_1 3.149727 1_565
Cd0_3 Cd1_7 3.149727 1_555
Cd0_4 Mg1_4 3.031112 1_555
Cd0_4 Mg0_6 3.032913 1_555
Cd0_4 Mg0_0 3.032913 1_655
Cd0_4 Mg1_0 3.063133 1_655
Cd0_4 Mg1_6 3.063133 1_555
Cd0_4 Mg2_6 3.093807 1_555
Cd0_4 Mg2_0 3.093807 1_655
Cd0_4 Cd1_6 3.149727 1_555
Cd0_4 Cd1_0 3.149727 1_655
Cd0_5 Mg1_5 3.031112 1_555
Cd0_5 Mg0_7 3.032913 1_555
Cd0_5 Mg0_1 3.032913 1_655
Cd0_5 Mg1_1 3.063133 1_655
Cd0_5 Mg1_7 3.063133 1_555
Cd0_5 Mg2_7 3.093807 1_555
Cd0_5 Mg2_1 3.093807 1_655
Cd0_5 Cd1_1 3.149727 1_655
Cd0_5 Cd1_7 3.149727 1_555
Cd0_6 Mg1_6 3.031112 1_555
Cd0_6 Mg0_4 3.032913 1_565
Cd0_6 Mg0_2 3.032913 1_655
Cd0_6 Mg1_4 3.063133 1_565
Cd0_6 Mg1_2 3.063133 1_655
Cd0_6 Mg2_2 3.093807 1_655
Cd0_6 Mg2_4 3.093807 1_565
Cd0_6 Cd1_4 3.149727 1_565
Cd0_6 Cd1_2 3.149727 1_655
Cd0_7 Mg1_7 3.031112 1_555
Cd0_7 Mg0_5 3.032913 1_565
Cd0_7 Mg0_3 3.032913 1_655
Cd0_7 Mg1_5 3.063133 1_565
Cd0_7 Mg1_3 3.063133 1_655
Cd0_7 Mg2_3 3.093807 1_655
Cd0_7 Mg2_5 3.093807 1_565
Cd0_7 Cd1_5 3.149727 1_565
Cd0_7 Cd1_3 3.149727 1_655
Cd1_0 Mg2_4 3.023924 1_455
Cd1_0 Mg2_2 3.023924 1_545
Cd1_0 Mg2_0 3.051030 1_555
Cd1_0 Mg0_1 3.086988 1_554
Cd1_0 Cd2_2 3.140189 1_545
Cd1_0 Cd2_4 3.140189 1_455
Cd1_0 Cd1_6 3.147535 1_545
Cd1_0 Cd1_6 3.147535 1_455
Cd1_0 Mg1_2 3.153634 1_545
Cd1_0 Mg1_4 3.153634 1_455
Cd1_1 Mg2_5 3.023924 1_455
Cd1_1 Mg2_3 3.023924 1_545
Cd1_1 Mg2_1 3.051030 1_555
Cd1_1 Mg0_0 3.086988 1_555
Cd1_1 Cd2_3 3.140189 1_545
Cd1_1 Cd2_5 3.140189 1_455
Cd1_1 Cd1_7 3.147535 1_545
Cd1_1 Cd1_7 3.147535 1_455
Cd1_1 Mg1_3 3.153634 1_545
Cd1_1 Mg1_5 3.153634 1_455
Cd1_2 Mg2_0 3.023924 1_555
Cd1_2 Mg2_6 3.023924 1_455
Cd1_2 Mg2_2 3.051030 1_555
Cd1_2 Mg0_3 3.086988 1_554
Cd1_2 Cd2_6 3.140189 1_455
Cd1_2 Cd2_0 3.140189 1_555
Cd1_2 Cd1_4 3.147535 1_555
Cd1_2 Cd1_4 3.147535 1_465
Cd1_2 Mg1_0 3.153634 1_555
Cd1_2 Mg1_6 3.153634 1_455
Cd1_3 Mg2_7 3.023924 1_455
Cd1_3 Mg2_1 3.023924 1_555
Cd1_3 Mg2_3 3.051030 1_555
Cd1_3 Mg0_2 3.086988 1_555
Cd1_3 Cd2_1 3.140189 1_555
Cd1_3 Cd2_7 3.140189 1_455
Cd1_3 Cd1_5 3.147535 1_465
Cd1_3 Cd1_5 3.147535 1_555
Cd1_3 Mg1_1 3.153634 1_555
Cd1_3 Mg1_7 3.153634 1_455
Cd1_4 Mg2_0 3.023924 1_555
Cd1_4 Mg2_6 3.023924 1_545
Cd1_4 Mg2_4 3.051030 1_555
Cd1_4 Mg0_5 3.086988 1_554
Cd1_4 Cd2_6 3.140189 1_545
Cd1_4 Cd2_0 3.140189 1_555
Cd1_4 Mg1_0 3.153634 1_555
Cd1_4 Mg1_6 3.153634 1_545
Cd1_5 Mg2_7 3.023924 1_545
Cd1_5 Mg2_1 3.023924 1_555
Cd1_5 Mg2_5 3.051030 1_555
Cd1_5 Mg0_4 3.086988 1_555
Cd1_5 Cd2_7 3.140189 1_545
Cd1_5 Cd2_1 3.140189 1_555
Cd1_5 Mg1_1 3.153634 1_555
Cd1_5 Mg1_7 3.153634 1_545
Cd1_6 Mg2_4 3.023924 1_555
Cd1_6 Mg2_2 3.023924 1_555
Cd1_6 Mg2_6 3.051030 1_555
Cd1_6 Mg0_7 3.086988 1_554
Cd1_6 Cd2_2 3.140189 1_555
Cd1_6 Cd2_4 3.140189 1_555
Cd1_6 Mg1_4 3.153634 1_555
Cd1_6 Mg1_2 3.153634 1_555
Cd1_7 Mg2_3 3.023924 1_555
Cd1_7 Mg2_5 3.023924 1_555
Cd1_7 Mg2_7 3.051030 1_555
Cd1_7 Mg0_6 3.086988 1_555
Cd1_7 Cd2_3 3.140189 1_555
Cd1_7 Cd2_5 3.140189 1_555
Cd1_7 Mg1_5 3.153634 1_555
Cd1_7 Mg1_3 3.153634 1_555
Cd2_0 Mg0_7 3.029641 1_554
Cd2_0 Mg2_2 3.054072 1_555
Cd2_0 Mg2_4 3.054072 1_555
Cd2_0 Mg1_3 3.056032 1_554
Cd2_0 Mg1_5 3.056032 1_554
Cd2_0 Mg0_5 3.073222 1_554
Cd2_0 Mg0_3 3.073222 1_554
Cd2_1 Mg0_6 3.029641 1_555
Cd2_1 Mg2_3 3.054072 1_555
Cd2_1 Mg2_5 3.054072 1_555
Cd2_1 Mg1_4 3.056032 1_555
Cd2_1 Mg1_2 3.056032 1_555
Cd2_1 Mg0_4 3.073222 1_555
Cd2_1 Mg0_2 3.073222 1_555
Cd2_2 Mg0_5 3.029641 1_564
Cd2_2 Mg2_0 3.054072 1_565
Cd2_2 Mg2_6 3.054072 1_555
Cd2_2 Mg1_7 3.056032 1_554
Cd2_2 Mg1_1 3.056032 1_564
Cd2_2 Mg0_1 3.073222 1_564
Cd2_2 Mg0_7 3.073222 1_554
Cd2_3 Mg0_4 3.029641 1_565
Cd2_3 Mg2_1 3.054072 1_565
Cd2_3 Mg2_7 3.054072 1_555
Cd2_3 Mg1_6 3.056032 1_555
Cd2_3 Mg1_0 3.056032 1_565
Cd2_3 Mg0_6 3.073222 1_555
Cd2_3 Mg0_0 3.073222 1_565
Cd2_4 Mg0_3 3.029641 1_654
Cd2_4 Mg2_6 3.054072 1_555
Cd2_4 Mg2_0 3.054072 1_655
Cd2_4 Mg1_7 3.056032 1_554
Cd2_4 Mg1_1 3.056032 1_654
Cd2_4 Mg0_1 3.073222 1_654
Cd2_4 Mg0_7 3.073222 1_554
Cd2_5 Mg0_2 3.029641 1_655
Cd2_5 Mg2_1 3.054072 1_655
Cd2_5 Mg2_7 3.054072 1_555
Cd2_5 Mg1_0 3.056032 1_655
Cd2_5 Mg1_6 3.056032 1_555
Cd2_5 Mg0_6 3.073222 1_555
Cd2_5 Mg0_0 3.073222 1_655
Cd2_6 Mg0_1 3.029641 1_664
Cd2_6 Mg2_2 3.054072 1_655
Cd2_6 Mg2_4 3.054072 1_565
Cd2_6 Mg1_5 3.056032 1_564
Cd2_6 Mg1_3 3.056032 1_654
Cd2_6 Mg0_5 3.073222 1_564
Cd2_6 Mg0_3 3.073222 1_654
Cd2_7 Mg0_0 3.029641 1_665
Cd2_7 Mg2_3 3.054072 1_655
Cd2_7 Mg2_5 3.054072 1_565
Cd2_7 Mg1_2 3.056032 1_655
Cd2_7 Mg1_4 3.056032 1_565
Cd2_7 Mg0_4 3.073222 1_565
Cd2_7 Mg0_2 3.073222 1_655
