# generated using pymatgen
data_Ca2AlWO5
_symmetry_space_group_name_H-M   'P 1'
_cell_length_a   8.26908255
_cell_length_b   8.26908255
_cell_length_c   8.26908255
_cell_angle_alpha   140.86366996
_cell_angle_beta   136.92060151
_cell_angle_gamma   59.59863827
_symmetry_Int_Tables_number   1
_chemical_formula_structural   Ca2AlWO5
_chemical_formula_sum   'Ca4 Al2 W2 O10'
_cell_volume   241.33895583
_cell_formula_units_Z   2
loop_
 _symmetry_equiv_pos_site_id
 _symmetry_equiv_pos_as_xyz
  1  'x, y, z'
loop_
 _atom_site_type_symbol
 _atom_site_label
 _atom_site_symmetry_multiplicity
 _atom_site_fract_x
 _atom_site_fract_y
 _atom_site_fract_z
 _atom_site_occupancy
  Ca  Ca0  1  0.93466500  0.89874100  0.05586700  1
  Ca  Ca1  1  0.65712600  0.62120200  0.05586700  1
  Ca  Ca2  1  0.06533500  0.12120200  0.96407600  1
  Ca  Ca3  1  0.34287400  0.39874100  0.96407600  1
  Al  Al0  1  0.33628900  0.79191800  0.62820600  1
  Al  Al1  1  0.66371100  0.29191800  0.45562900  1
  W  W0  1  0.00000000  0.49650300  0.49650300  1
  W  W1  1  0.50000000  0.99650300  0.49650300  1
  O  O0  1  0.40550200  0.11855100  0.02405300  1
  O  O1  1  0.59449800  0.61855100  0.71304900  1
  O  O2  1  0.92245500  0.32375500  0.54781200  1
  O  O3  1  0.07754500  0.62535700  0.40130000  1
  O  O4  1  0.27594300  0.82375500  0.40130000  1
  O  O5  1  0.72405700  0.12535700  0.54781200  1
  O  O6  1  0.26609500  0.26326400  0.49992700  1
  O  O7  1  0.73390500  0.23383200  0.99716900  1
  O  O8  1  0.73666300  0.73383200  0.49992700  1
  O  O9  1  0.26333700  0.76326400  0.99716900  1
loop_
_geom_bond_atom_site_label_1
_geom_bond_atom_site_label_2
_geom_bond_distance
_geom_bond_site_symmetry_2
Ca0 O4 2.389257 1_655
Ca0 O1 2.464796 1_554
Ca0 O6 2.563225 1_665
Ca0 O9 2.622805 1_654
Ca0 O7 2.631162 1_564
Ca0 O2 2.640525 1_565
Ca0 O8 2.685765 1_554
Ca0 O2 3.024166 1_554
Ca1 O3 2.389257 1_655
Ca1 O1 2.464796 1_554
Ca1 O8 2.563225 1_555
Ca1 O7 2.622805 1_554
Ca1 O9 2.631162 1_554
Ca1 O5 2.640525 1_565
Ca1 O6 2.685765 1_554
Ca1 O5 3.024166 1_554
Ca2 O5 2.389257 1_455
Ca2 O0 2.464796 1_556
Ca2 O7 2.563225 1_455
Ca2 O8 2.622805 1_445
Ca2 O6 2.631162 1_556
Ca2 O3 2.640525 1_556
Ca2 O9 2.685765 1_545
Ca2 O3 3.024166 1_545
Ca3 O2 2.389257 1_455
Ca3 O0 2.464796 1_556
Ca3 O9 2.563225 1_555
Ca3 O6 2.622805 1_555
Ca3 O8 2.631162 1_556
Ca3 O4 2.640525 1_556
Ca3 O7 2.685765 1_555
Ca3 O4 3.024166 1_545
Al0 O4 1.761933 1_555
Al0 O3 1.761944 1_555
Al0 O1 1.838544 1_555
Al0 O0 1.857423 1_566
Al1 O2 1.761941 1_555
Al1 O5 1.761941 1_555
Al1 O0 1.838543 1_555
Al1 O1 1.857419 1_555
O2 W0 2.212776 1_655
O3 W0 2.212776 1_555
O4 W1 2.212776 1_555
O5 W1 2.212776 1_545
O6 W0 2.064149 1_555
O6 W1 2.067030 1_545
O7 W0 2.064149 1_656
O7 W1 2.067030 1_545
O8 W1 2.064149 1_555
O8 W0 2.067030 1_655
O9 W1 2.064149 1_556
O9 W0 2.067030 1_555
