# generated using pymatgen
data_Ce3AlVS7
_symmetry_space_group_name_H-M   'P 1'
_cell_length_a   10.01783423
_cell_length_b   10.01783423
_cell_length_c   5.99872400
_cell_angle_alpha   90.00000000
_cell_angle_beta   90.00000000
_cell_angle_gamma   120.00000152
_symmetry_Int_Tables_number   1
_chemical_formula_structural   Ce3AlVS7
_chemical_formula_sum   'Ce6 Al2 V2 S14'
_cell_volume   521.35937515
_cell_formula_units_Z   2
loop_
 _symmetry_equiv_pos_site_id
 _symmetry_equiv_pos_as_xyz
  1  'x, y, z'
loop_
 _atom_site_type_symbol
 _atom_site_label
 _atom_site_symmetry_multiplicity
 _atom_site_fract_x
 _atom_site_fract_y
 _atom_site_fract_z
 _atom_site_occupancy
  Ce  Ce0  1  0.76740100  0.14048400  0.23701800  1
  Ce  Ce1  1  0.37308300  0.23259900  0.23701800  1
  Ce  Ce2  1  0.85951600  0.62691700  0.23701800  1
  Ce  Ce3  1  0.23259900  0.85951600  0.73701800  1
  Ce  Ce4  1  0.62691700  0.76740100  0.73701800  1
  Ce  Ce5  1  0.14048400  0.37308300  0.73701800  1
  Al  Al0  1  0.66666700  0.33333300  0.66113800  1
  Al  Al1  1  0.33333300  0.66666700  0.16113800  1
  V  V0  1  0.00000000  0.00000000  0.03981500  1
  V  V1  1  0.00000000  0.00000000  0.53981500  1
  S  S0  1  0.86044600  0.08626100  0.79239100  1
  S  S1  1  0.22581500  0.13955400  0.79239100  1
  S  S2  1  0.91373900  0.77418500  0.79239100  1
  S  S3  1  0.13955400  0.91373900  0.29239100  1
  S  S4  1  0.77418500  0.86044600  0.29239100  1
  S  S5  1  0.08626100  0.22581500  0.29239100  1
  S  S6  1  0.90222500  0.41823700  0.51524000  1
  S  S7  1  0.51601200  0.09777500  0.51524000  1
  S  S8  1  0.58176300  0.48398800  0.51524000  1
  S  S9  1  0.09777500  0.58176300  0.01524000  1
  S  S10  1  0.48398800  0.90222500  0.01524000  1
  S  S11  1  0.41823700  0.51601200  0.01524000  1
  S  S12  1  0.66666700  0.33333300  0.02989800  1
  S  S13  1  0.33333300  0.66666700  0.52989800  1
loop_
_geom_bond_atom_site_label_1
_geom_bond_atom_site_label_2
_geom_bond_distance
_geom_bond_site_symmetry_2
Ce0 S4 2.859324 1_545
Ce0 S7 2.869365 1_555
Ce0 S12 2.871234 1_555
Ce0 S5 2.883394 1_655
Ce0 S6 2.931517 1_555
Ce0 S10 2.958246 1_545
Ce0 S0 2.963805 1_554
Ce1 S5 2.859324 1_555
Ce1 S8 2.869365 1_555
Ce1 S12 2.871242 1_555
Ce1 S3 2.883394 1_545
Ce1 S7 2.931517 1_555
Ce1 S11 2.958246 1_555
Ce1 S1 2.963805 1_554
Ce2 S3 2.859324 1_655
Ce2 S6 2.869365 1_555
Ce2 S12 2.871241 1_555
Ce2 S4 2.883394 1_555
Ce2 S8 2.931517 1_555
Ce2 S9 2.958246 1_655
Ce2 S2 2.963805 1_554
Ce3 S1 2.859324 1_565
Ce3 S10 2.869365 1_556
Ce3 S13 2.871234 1_555
Ce3 S2 2.883394 1_455
Ce3 S9 2.931517 1_556
Ce3 S7 2.958246 1_565
Ce3 S3 2.963805 1_555
Ce4 S2 2.859324 1_555
Ce4 S11 2.869365 1_556
Ce4 S13 2.871242 1_555
Ce4 S0 2.883394 1_565
Ce4 S10 2.931517 1_556
Ce4 S8 2.958246 1_555
Ce4 S4 2.963805 1_555
Ce5 S0 2.859324 1_455
Ce5 S9 2.869365 1_556
Ce5 S13 2.871241 1_555
Ce5 S1 2.883394 1_555
Ce5 S11 2.931517 1_556
Ce5 S6 2.958246 1_455
Ce5 S5 2.963805 1_555
Al0 S12 2.212089 1_556
Al0 S6 2.247413 1_555
Al0 S7 2.247414 1_555
Al0 S8 2.247422 1_555
Al1 S13 2.212089 1_555
Al1 S9 2.247413 1_555
Al1 S10 2.247414 1_555
Al1 S11 2.247422 1_555
S0 V0 2.472302 1_656
S0 V1 2.490978 1_655
S1 V0 2.472302 1_556
S1 V1 2.490978 1_555
S2 V0 2.472302 1_666
S2 V1 2.490978 1_665
S3 V1 2.472302 1_565
S3 V0 2.490978 1_565
S4 V1 2.472302 1_665
S4 V0 2.490978 1_665
S5 V1 2.472302 1_555
S5 V0 2.490978 1_555
