# generated using pymatgen
data_V2Cd(PO5)2
_symmetry_space_group_name_H-M   'P 1'
_cell_length_a   5.17076400
_cell_length_b   7.95844000
_cell_length_c   17.20972482
_cell_angle_alpha   90.00000000
_cell_angle_beta   92.75674520
_cell_angle_gamma   90.00000000
_symmetry_Int_Tables_number   1
_chemical_formula_structural   V2Cd(PO5)2
_chemical_formula_sum   'V8 Cd4 P8 O40'
_cell_volume   707.38150839
_cell_formula_units_Z   4
loop_
 _symmetry_equiv_pos_site_id
 _symmetry_equiv_pos_as_xyz
  1  'x, y, z'
loop_
 _atom_site_type_symbol
 _atom_site_label
 _atom_site_symmetry_multiplicity
 _atom_site_fract_x
 _atom_site_fract_y
 _atom_site_fract_z
 _atom_site_occupancy
  V  V0  1  0.46003851  0.46579707  0.85197862  1
  V  V1  1  0.53996049  0.96579707  0.64802038  1
  V  V2  1  0.15721554  0.87493193  0.06857554  1
  V  V3  1  0.46004051  0.03420193  0.35197962  1
  V  V4  1  0.15721454  0.62506707  0.56857454  1
  V  V5  1  0.84278546  0.12506807  0.93142446  1
  V  V6  1  0.84278546  0.37493193  0.43142446  1
  V  V7  1  0.53996049  0.53420193  0.14802038  1
  Cd  Cd0  1  0.09272254  0.27749380  0.68361327  1
  Cd  Cd1  1  0.90727746  0.77749280  0.81638573  1
  Cd  Cd2  1  0.90727746  0.72250720  0.31638673  1
  Cd  Cd3  1  0.09272254  0.22250620  0.18361327  1
  P  P0  1  0.33652773  0.06302584  0.81537869  1
  P  P1  1  0.66347227  0.56302584  0.68462131  1
  P  P2  1  0.66347127  0.93697516  0.18462131  1
  P  P3  1  0.33652773  0.43697516  0.31537869  1
  P  P4  1  0.35970812  0.23242316  0.51571876  1
  P  P5  1  0.64029188  0.73242316  0.98428124  1
  P  P6  1  0.64029088  0.76757684  0.48428224  1
  P  P7  1  0.35971012  0.26757684  0.01571776  1
  O  O0  1  0.32608285  0.39286523  0.94974178  1
  O  O1  1  0.67391715  0.89286523  0.55025822  1
  O  O2  1  0.67391915  0.60713477  0.05025822  1
  O  O3  1  0.32608185  0.10713477  0.44974178  1
  O  O4  1  0.67332169  0.64372967  0.90498614  1
  O  O5  1  0.32667831  0.14372967  0.59501386  1
  O  O6  1  0.32667731  0.35627033  0.09501386  1
  O  O7  1  0.67332169  0.85627033  0.40498614  1
  O  O8  1  0.69920114  0.47910251  0.76412459  1
  O  O9  1  0.30079886  0.97910251  0.73587541  1
  O  O10  1  0.30079786  0.52089849  0.23587641  1
  O  O11  1  0.69920114  0.02089749  0.26412459  1
  O  O12  1  0.32543294  0.25450514  0.80031208  1
  O  O13  1  0.67456706  0.75450514  0.69968792  1
  O  O14  1  0.41198432  0.50764975  0.64212703  1
  O  O15  1  0.32543194  0.24549486  0.30031108  1
  O  O16  1  0.23261982  0.59299048  0.81667438  1
  O  O17  1  0.76738018  0.09299048  0.68332462  1
  O  O18  1  0.76738018  0.40701052  0.18332462  1
  O  O19  1  0.23261982  0.90701052  0.31667538  1
  O  O20  1  0.20605221  0.69356759  0.11041747  1
  O  O21  1  0.79394679  0.19356759  0.38958253  1
  O  O22  1  0.79394679  0.30643241  0.88958353  1
  O  O23  1  0.20605321  0.80643241  0.61041747  1
  O  O24  1  0.86359981  0.86362989  0.98857246  1
  O  O25  1  0.13639919  0.36362989  0.51142754  1
  O  O26  1  0.13639919  0.13636911  0.01142754  1
  O  O27  1  0.86359981  0.63636911  0.48857246  1
  O  O28  1  0.90261337  0.98760686  0.13966475  1
  O  O29  1  0.09738763  0.48760686  0.36033525  1
  O  O30  1  0.09738663  0.01239214  0.86033525  1
  O  O31  1  0.90261337  0.51239214  0.63966375  1
  O  O32  1  0.38227580  0.82264786  0.98441168  1
  O  O33  1  0.61772520  0.32264686  0.51558832  1
  O  O34  1  0.61772520  0.17735314  0.01558832  1
  O  O35  1  0.38227580  0.67735314  0.48441268  1
  O  O36  1  0.41198332  0.99234925  0.14212703  1
  O  O37  1  0.58801568  0.49234925  0.35787297  1
  O  O38  1  0.58801568  0.00765075  0.85787297  1
  O  O39  1  0.67456906  0.74549486  0.19968892  1
loop_
_geom_bond_atom_site_label_1
_geom_bond_atom_site_label_2
_geom_bond_distance
_geom_bond_site_symmetry_2
Cd0 O31 2.227468 1_455
Cd0 O17 2.232784 1_455
Cd0 O5 2.258114 1_555
Cd0 O12 2.298349 1_555
Cd0 O14 2.589095 1_555
Cd0 O9 2.740948 1_545
Cd1 O30 2.227475 1_665
Cd1 O16 2.232779 1_655
Cd1 O4 2.258123 1_555
Cd1 O13 2.298334 1_555
Cd1 O38 2.589112 1_565
Cd1 O8 2.740936 1_555
Cd2 O29 2.227478 1_655
Cd2 O19 2.232784 1_655
Cd2 O7 2.258111 1_555
Cd2 O39 2.298329 1_555
Cd2 O37 2.589107 1_555
Cd2 O11 2.740941 1_565
Cd3 O28 2.227470 1_445
Cd3 O18 2.232789 1_455
Cd3 O6 2.258111 1_555
Cd3 O15 2.298332 1_555
Cd3 O36 2.589098 1_545
Cd3 O10 2.740958 1_555
O0 P7 1.514810 1_556
O0 V0 1.938940 1_555
O1 P6 1.514810 1_555
O1 V1 1.938927 1_555
O2 P5 1.514823 1_554
O2 V7 1.938933 1_555
O3 P4 1.514822 1_555
O3 V3 1.938933 1_555
O4 P5 1.553090 1_555
O4 V0 1.989198 1_555
O5 P4 1.553090 1_555
O5 V1 1.989188 1_545
O6 P7 1.553108 1_555
O6 V7 1.989185 1_555
O7 P6 1.553106 1_555
O7 V3 1.989179 1_565
O8 P1 1.525764 1_555
O8 V0 2.001587 1_555
O9 P0 1.525764 1_565
O9 V1 2.001598 1_555
O10 P3 1.525750 1_555
O10 V7 2.001614 1_555
O11 P2 1.525761 1_545
O11 V3 2.001594 1_555
O12 P0 1.546380 1_555
O12 V0 2.010758 1_555
O13 P1 1.546380 1_555
O13 V1 2.010767 1_555
O14 P1 1.525965 1_555
O14 V4 2.012593 1_555
O15 P3 1.546391 1_555
O15 V3 2.010784 1_555
O16 V0 1.645571 1_555
O17 V1 1.645574 1_545
O18 V7 1.645565 1_555
O19 V3 1.645568 1_565
O20 V2 1.627311 1_555
O20 V7 2.213800 1_555
O21 V6 1.627312 1_555
O21 V3 2.213792 1_555
O22 V5 1.627305 1_555
O22 V0 2.213804 1_555
O23 V4 1.627327 1_555
O23 V1 2.213792 1_555
O24 P5 1.555916 1_555
O24 V2 2.001916 1_656
O24 V5 2.301682 1_565
O25 P4 1.555920 1_555
O25 V6 2.001908 1_455
O25 V4 2.301668 1_555
O26 P7 1.555933 1_555
O26 V5 2.001908 1_454
O26 V2 2.301675 1_545
O27 P6 1.555925 1_555
O27 V4 2.001901 1_655
O27 V6 2.301675 1_555
O28 P2 1.543386 1_555
O28 V2 2.046690 1_655
O29 P3 1.543378 1_555
O29 V6 2.046690 1_455
O30 P0 1.543386 1_555
O30 V5 2.046690 1_455
O31 P1 1.543395 1_555
O31 V4 2.046686 1_655
O32 P5 1.515195 1_555
O32 V2 1.946156 1_556
O33 P4 1.515196 1_555
O33 V6 1.946158 1_555
O34 P7 1.515186 1_555
O34 V5 1.946158 1_554
O35 P6 1.515187 1_555
O35 V4 1.946136 1_555
O36 P2 1.525960 1_555
O36 V2 2.012576 1_555
O37 P3 1.525960 1_555
O37 V6 2.012582 1_555
O38 P0 1.525962 1_555
O38 V5 2.012582 1_555
O39 P2 1.546392 1_555
O39 V7 2.010784 1_555
