# generated using pymatgen
data_TmCoSi
_symmetry_space_group_name_H-M   'P 1'
_cell_length_a   4.11131498
_cell_length_b   6.74657078
_cell_length_c   6.85079029
_cell_angle_alpha   90.00000000
_cell_angle_beta   90.00000000
_cell_angle_gamma   90.00000000
_symmetry_Int_Tables_number   1
_chemical_formula_structural   TmCoSi
_chemical_formula_sum   'Tm4 Co4 Si4'
_cell_volume   190.02227145
_cell_formula_units_Z   4
loop_
 _symmetry_equiv_pos_site_id
 _symmetry_equiv_pos_as_xyz
  1  'x, y, z'
loop_
 _atom_site_type_symbol
 _atom_site_label
 _atom_site_symmetry_multiplicity
 _atom_site_fract_x
 _atom_site_fract_y
 _atom_site_fract_z
 _atom_site_occupancy
  Tm  Tm0  1  0.75000000  0.51636736  0.80898604  1
  Tm  Tm1  1  0.75000000  0.01636736  0.69101396  1
  Tm  Tm2  1  0.25000000  0.48363264  0.19101396  1
  Tm  Tm3  1  0.25000000  0.98363264  0.30898604  1
  Co  Co0  1  0.75000000  0.35343740  0.43690128  1
  Co  Co1  1  0.75000000  0.85343740  0.06309872  1
  Co  Co2  1  0.25000000  0.64656260  0.56309872  1
  Co  Co3  1  0.25000000  0.14656260  0.93690128  1
  Si  Si0  1  0.75000000  0.19726671  0.10564279  1
  Si  Si1  1  0.75000000  0.69726671  0.39435721  1
  Si  Si2  1  0.25000000  0.80273329  0.89435721  1
  Si  Si3  1  0.25000000  0.30273329  0.60564279  1
loop_
_geom_bond_atom_site_label_1
_geom_bond_atom_site_label_2
_geom_bond_distance
_geom_bond_site_symmetry_2
Co0 Si1 2.337908 1_555
Co0 Si3 2.383089 1_655
Co0 Si3 2.383089 1_555
Co0 Si0 2.502040 1_555
Co0 Tm0 2.775980 1_555
Co0 Tm2 2.799086 1_655
Co0 Tm2 2.799086 1_555
Co0 Tm1 2.863917 1_555
Co1 Si0 2.337908 1_565
Co1 Si2 2.383089 1_554
Co1 Si2 2.383089 1_654
Co1 Si1 2.502040 1_555
Co1 Tm1 2.775980 1_564
Co1 Tm3 2.799086 1_555
Co1 Tm3 2.799086 1_655
Co1 Tm0 2.863917 1_554
Co2 Si3 2.337908 1_555
Co2 Si1 2.383089 1_555
Co2 Si1 2.383089 1_455
Co2 Si2 2.502040 1_555
Co2 Tm2 2.775980 1_555
Co2 Tm0 2.799086 1_555
Co2 Tm0 2.799086 1_455
Co2 Tm3 2.863917 1_555
Co3 Si2 2.337908 1_545
Co3 Si0 2.383089 1_556
Co3 Si0 2.383089 1_456
Co3 Si3 2.502040 1_555
Co3 Tm3 2.775980 1_546
Co3 Tm1 2.799086 1_455
Co3 Tm1 2.799086 1_555
Co3 Tm2 2.863917 1_556
Si0 Tm3 2.871182 1_545
Si0 Tm3 2.871182 1_645
Si0 Tm2 2.881036 1_655
Si0 Tm2 2.881036 1_555
Si0 Tm0 2.960587 1_554
Si0 Tm1 3.091624 1_554
Si1 Tm2 2.871182 1_655
Si1 Tm2 2.871182 1_555
Si1 Tm3 2.881036 1_655
Si1 Tm3 2.881036 1_555
Si1 Tm1 2.960587 1_565
Si1 Tm0 3.091624 1_555
Si2 Tm1 2.871182 1_465
Si2 Tm1 2.871182 1_565
Si2 Tm0 2.881036 1_455
Si2 Tm0 2.881036 1_555
Si2 Tm2 2.960587 1_556
Si2 Tm3 3.091624 1_556
Si3 Tm0 2.871182 1_455
Si3 Tm0 2.871182 1_555
Si3 Tm1 2.881036 1_555
Si3 Tm1 2.881036 1_455
Si3 Tm3 2.960587 1_545
Si3 Tm2 3.091624 1_555
