# generated using pymatgen
data_La2TiCrO6
_symmetry_space_group_name_H-M   'P 1'
_cell_length_a   5.65192603
_cell_length_b   11.10779479
_cell_length_c   8.06011177
_cell_angle_alpha   91.91373220
_cell_angle_beta   89.55555008
_cell_angle_gamma   90.12489451
_symmetry_Int_Tables_number   1
_chemical_formula_structural   La2TiCrO6
_chemical_formula_sum   'La8 Ti4 Cr4 O24'
_cell_volume   505.71893347
_cell_formula_units_Z   4
loop_
 _symmetry_equiv_pos_site_id
 _symmetry_equiv_pos_as_xyz
  1  'x, y, z'
loop_
 _atom_site_type_symbol
 _atom_site_label
 _atom_site_symmetry_multiplicity
 _atom_site_fract_x
 _atom_site_fract_y
 _atom_site_fract_z
 _atom_site_occupancy
  La  La0  1  0.00199100  0.24963800  0.25108200  1
  La  La1  1  0.50814000  0.48898100  0.74721200  1
  La  La2  1  0.00698500  0.75394000  0.25241700  1
  La  La3  1  0.50123000  0.00029600  0.75115000  1
  La  La4  1  0.99189100  0.76103600  0.75278100  1
  La  La5  1  0.49806600  0.00057300  0.24888600  1
  La  La6  1  0.99864000  0.24965000  0.74900200  1
  La  La7  1  0.49304700  0.49618500  0.24762200  1
  Ti  Ti0  1  0.00031200  0.00170900  0.00040800  1
  Ti  Ti1  1  0.49960100  0.24825200  0.49955100  1
  Ti  Ti2  1  0.00111100  0.50144100  0.00043200  1
  Ti  Ti3  1  0.49889900  0.74856100  0.49954800  1
  Cr  Cr0  1  0.99831000  0.00119500  0.49885100  1
  Cr  Cr1  1  0.50177800  0.24875700  0.00126900  1
  Cr  Cr2  1  0.00074500  0.50173400  0.50184100  1
  Cr  Cr3  1  0.49948700  0.74840700  0.99808500  1
  O  O0  1  0.70819500  0.61321200  0.54906300  1
  O  O1  1  0.21029800  0.86179600  0.04155300  1
  O  O2  1  0.71587500  0.10846300  0.53790300  1
  O  O3  1  0.22376200  0.35792600  0.05159500  1
  O  O4  1  0.22486300  0.64324800  0.45415200  1
  O  O5  1  0.71944800  0.89480900  0.95805300  1
  O  O6  1  0.21332700  0.14251300  0.46448500  1
  O  O7  1  0.72164700  0.38743900  0.95677000  1
  O  O8  1  0.09436800  0.47842000  0.77022100  1
  O  O9  1  0.59161200  0.75218800  0.26728600  1
  O  O10  1  0.07394900  0.00154800  0.74715600  1
  O  O11  1  0.57679000  0.24786000  0.24880800  1
  O  O12  1  0.78053800  0.35511700  0.54194600  1
  O  O13  1  0.27508000  0.60683400  0.04595600  1
  O  O14  1  0.77844500  0.86250100  0.54305300  1
  O  O15  1  0.28661600  0.10754800  0.03551000  1
  O  O16  1  0.90843300  0.49755200  0.23272400  1
  O  O17  1  0.40562700  0.77162000  0.72982900  1
  O  O18  1  0.92312100  0.00209300  0.25112600  1
  O  O19  1  0.42589800  0.24835900  0.75276800  1
  O  O20  1  0.28974800  0.38829900  0.45846000  1
  O  O21  1  0.79181500  0.63681800  0.95098500  1
  O  O22  1  0.27636100  0.89207300  0.44839500  1
  O  O23  1  0.78394800  0.14140700  0.96206900  1
loop_
_geom_bond_atom_site_label_1
_geom_bond_atom_site_label_2
_geom_bond_distance
_geom_bond_site_symmetry_2
La0 O3 2.386327 1_555
La0 O11 2.403450 1_455
La0 O6 2.444584 1_555
La0 O20 2.769580 1_555
La0 O18 2.784630 1_455
La0 O15 2.807574 1_555
La0 O16 2.814174 1_455
La0 O12 2.865822 1_455
La0 O23 2.870805 1_454
La1 O8 2.347504 1_555
La1 O7 2.397099 1_555
La1 O0 2.417810 1_555
La1 O12 2.669209 1_555
La1 O19 2.713683 1_555
La2 O9 2.349857 1_455
La2 O1 2.396675 1_555
La2 O4 2.417290 1_555
La2 O22 2.651910 1_555
La2 O13 2.743230 1_555
La2 O18 2.798283 1_465
La2 O14 2.895057 1_455
La2 O16 2.900049 1_455
La2 O21 2.983647 1_454
La3 O10 2.415501 1_555
La3 O5 2.417420 1_545
La3 O2 2.443118 1_555
La3 O17 2.596120 1_545
La3 O14 2.721965 1_545
La3 O23 2.784509 1_555
La3 O19 2.788636 1_555
La3 O15 2.815057 1_556
La3 O22 2.976690 1_545
La4 O17 2.347281 1_655
La4 O14 2.397493 1_555
La4 O21 2.418079 1_555
La4 O5 2.668840 1_555
La4 O10 2.712330 1_665
La5 O22 2.387493 1_545
La5 O18 2.402606 1_555
La5 O15 2.443894 1_555
La5 O1 2.770092 1_545
La5 O11 2.781679 1_555
La5 O6 2.807167 1_555
La5 O9 2.819321 1_545
La5 O5 2.866662 1_544
La5 O2 2.868778 1_555
La6 O19 2.415337 1_655
La6 O12 2.417844 1_555
La6 O23 2.442644 1_555
La6 O8 2.597256 1_655
La6 O7 2.719639 1_555
La6 O2 2.785984 1_555
La6 O10 2.788990 1_655
La6 O6 2.815734 1_655
La6 O3 2.976473 1_656
La7 O16 2.349911 1_555
La7 O20 2.396660 1_555
La7 O13 2.416909 1_555
La7 O3 2.652623 1_555
La7 O4 2.743555 1_555
La7 O11 2.800017 1_555
La7 O9 2.895867 1_555
La7 O7 2.897388 1_554
La7 O0 2.983223 1_555
Cr0 O6 2.008268 1_655
Cr0 O2 2.010572 1_555
Cr0 O14 2.016428 1_545
Cr0 O22 2.017360 1_645
Cr0 O18 2.044989 1_555
Cr0 O10 2.049631 1_655
Cr1 O15 2.007652 1_555
Cr1 O23 2.010077 1_554
Cr1 O7 2.016813 1_554
Cr1 O3 2.017333 1_555
Cr1 O11 2.043307 1_555
Cr1 O19 2.051455 1_554
Cr2 O4 2.060895 1_555
Cr2 O12 2.079879 1_455
Cr2 O20 2.085342 1_555
Cr2 O0 2.092807 1_455
Cr2 O16 2.233863 1_455
Cr2 O8 2.254363 1_555
Cr3 O13 2.062701 1_556
Cr3 O5 2.077068 1_555
Cr3 O1 2.085958 1_556
Cr3 O21 2.092388 1_555
Cr3 O9 2.234325 1_556
Cr3 O17 2.253558 1_555
O0 Ti3 1.968258 1_555
O1 Ti0 1.995598 1_565
O2 Ti1 2.011704 1_555
O3 Ti2 2.087011 1_555
O4 Ti3 1.968117 1_555
O5 Ti0 2.004880 1_666
O6 Ti1 2.013444 1_555
O7 Ti2 2.047531 1_656
O8 Ti2 1.933884 1_556
O9 Ti3 1.941786 1_555
O10 Ti0 2.080013 1_556
O11 Ti1 2.064121 1_555
O12 Ti1 2.005030 1_555
O13 Ti2 1.968518 1_555
O14 Ti3 2.047269 1_555
O15 Ti0 2.014258 1_555
O16 Ti2 1.942121 1_655
O17 Ti3 1.934487 1_555
O18 Ti0 2.063929 1_655
O19 Ti1 2.079828 1_555
O20 Ti1 1.996233 1_555
O21 Ti2 1.968371 1_656
O22 Ti3 2.086580 1_555
O23 Ti0 2.011208 1_656
