# generated using pymatgen
data_Mg16Al12Cu
_symmetry_space_group_name_H-M   'P 1'
_cell_length_a   9.27036195
_cell_length_b   9.04090154
_cell_length_c   9.04090226
_cell_angle_alpha   108.95138442
_cell_angle_beta   109.98618293
_cell_angle_gamma   109.98617527
_symmetry_Int_Tables_number   1
_chemical_formula_structural   Mg16Al12Cu
_chemical_formula_sum   'Mg16 Al12 Cu1'
_cell_volume   579.56043170
_cell_formula_units_Z   1
loop_
 _symmetry_equiv_pos_site_id
 _symmetry_equiv_pos_as_xyz
  1  'x, y, z'
loop_
 _atom_site_type_symbol
 _atom_site_label
 _atom_site_symmetry_multiplicity
 _atom_site_fract_x
 _atom_site_fract_y
 _atom_site_fract_z
 _atom_site_occupancy
  Mg  Mg0  1  0.31755300  0.59761200  0.00000000  1
  Mg  Mg1  1  0.58231200  0.28276900  0.00000000  1
  Mg  Mg2  1  0.99604600  0.00000000  0.00000000  1
  Mg  Mg3  1  0.00250100  0.34835700  0.00000000  1
  Mg  Mg4  1  0.68336800  0.67871700  0.27894600  1
  Mg  Mg5  1  0.58231300  0.00000000  0.28276900  1
  Mg  Mg6  1  0.00465300  0.60022900  0.32128300  1
  Mg  Mg7  1  0.00250100  0.00000000  0.34835700  1
  Mg  Mg8  1  0.40442400  0.72105300  0.39977100  1
  Mg  Mg9  1  0.71994100  0.40238900  0.40238900  1
  Mg  Mg10  1  0.31755300  0.00000000  0.59761200  1
  Mg  Mg11  1  0.00465300  0.32128300  0.60022900  1
  Mg  Mg12  1  0.65414200  0.65164300  0.65164300  1
  Mg  Mg13  1  0.68336800  0.27894600  0.67871600  1
  Mg  Mg14  1  0.29954400  0.71723100  0.71723100  1
  Mg  Mg15  1  0.40442300  0.39977100  0.72105400  1
  Al  Al0  1  0.81510500  0.62097200  0.00000000  1
  Al  Al1  1  0.64513700  0.81132300  0.00000000  1
  Al  Al2  1  0.36687200  0.36306100  0.18189800  1
  Al  Al3  1  0.18497300  0.81810100  0.18116300  1
  Al  Al4  1  0.83381300  0.18867800  0.18867700  1
  Al  Al5  1  0.36687200  0.18189800  0.36306100  1
  Al  Al6  1  0.19413400  0.37903000  0.37903000  1
  Al  Al7  1  0.81510600  0.00000000  0.62097100  1
  Al  Al8  1  0.00381100  0.81883700  0.63694000  1
  Al  Al9  1  0.64513700  0.00000000  0.81132300  1
  Al  Al10  1  0.00381100  0.63694100  0.81883700  1
  Al  Al11  1  0.18497300  0.18116300  0.81810100  1
  Cu  Cu0  1  0.28096500  0.00000000  0.00000000  1
loop_
_geom_bond_atom_site_label_1
_geom_bond_atom_site_label_2
_geom_bond_distance
_geom_bond_site_symmetry_2
Mg0 Mg3 3.018156 1_555
Mg0 Mg14 3.059496 1_554
Mg0 Mg5 3.059496 1_565
Mg0 Mg4 3.106596 1_555
Mg0 Mg15 3.106603 1_554
Mg0 Mg11 3.119791 1_554
Mg0 Mg8 3.119792 1_555
Mg1 Mg10 3.059495 1_554
Mg1 Mg9 3.059502 1_555
Mg1 Mg15 3.206371 1_554
Mg1 Mg4 3.206375 1_555
Mg1 Mg13 3.336645 1_554
Mg1 Mg6 3.336647 1_655
Mg2 Mg3 3.129514 1_655
Mg2 Mg7 3.129514 1_655
Mg3 Mg6 3.042382 1_555
Mg4 Mg7 3.042392 1_665
Mg4 Mg9 3.119792 1_555
Mg4 Mg5 3.336631 1_565
Mg5 Mg9 3.059503 1_555
Mg5 Mg8 3.206378 1_545
Mg6 Mg9 3.106613 1_455
Mg10 Mg7 3.018155 1_555
Mg10 Mg14 3.059496 1_545
Mg10 Mg13 3.106600 1_555
Mg10 Mg8 3.106616 1_545
Mg10 Mg6 3.119791 1_545
Mg10 Mg15 3.119793 1_555
Mg11 Mg7 3.042382 1_555
Mg11 Mg9 3.106613 1_455
Mg11 Mg14 3.206371 1_555
Mg11 Mg5 3.336642 1_455
Mg12 Mg9 3.018159 1_555
Mg12 Mg8 3.042364 1_555
Mg12 Mg15 3.042376 1_555
Mg12 Mg2 3.129520 1_566
Mg13 Mg3 3.042397 1_656
Mg13 Mg9 3.119783 1_555
Mg13 Mg5 3.206371 1_555
Mg14 Mg6 3.206371 1_555
Mg14 Mg15 3.336636 1_555
Mg14 Mg8 3.336640 1_555
Al0 Al1 2.701482 1_555
Al0 Al3 2.775489 1_655
Al0 Al10 2.775498 1_654
Al0 Mg13 2.941101 1_554
Al0 Mg6 2.941102 1_655
Al0 Mg1 3.081528 1_555
Al0 Mg15 3.132107 1_554
Al0 Mg4 3.132114 1_555
Al0 Mg7 3.140084 1_665
Al0 Mg12 3.140087 1_554
Al0 Mg2 3.259912 1_565
Al1 Al9 2.776612 1_564
Al1 Al4 2.776620 1_565
Al1 Mg14 2.940916 1_554
Al1 Mg5 2.940916 1_565
Al1 Mg0 2.990730 1_555
Al1 Mg12 3.052716 1_554
Al1 Mg7 3.052725 1_665
Al1 Mg15 3.092947 1_554
Al1 Mg4 3.092947 1_555
Al1 Mg2 3.114299 1_565
Al2 Al5 2.666035 1_555
Al2 Al6 2.775505 1_555
Al2 Cu0 2.815040 1_555
Al2 Mg4 2.900461 1_555
Al2 Mg8 3.016066 1_555
Al2 Mg9 3.016148 1_555
Al2 Mg1 3.111448 1_555
Al2 Mg0 3.134345 1_555
Al2 Mg3 3.144161 1_555
Al2 Mg2 3.195636 1_455
Al3 Al5 2.676859 1_565
Al3 Cu0 2.815049 1_565
Al3 Mg8 2.900477 1_555
Al3 Mg6 3.016063 1_555
Al3 Mg0 3.016152 1_555
Al3 Mg5 3.111465 1_565
Al3 Mg10 3.134344 1_565
Al3 Mg7 3.144159 1_565
Al3 Mg2 3.195638 1_465
Al4 Al6 2.701497 1_655
Al4 Al9 2.776613 1_554
Al4 Mg1 2.940909 1_555
Al4 Mg5 2.940913 1_555
Al4 Mg9 2.990728 1_555
Al4 Mg3 3.052726 1_655
Al4 Mg7 3.052738 1_655
Al4 Mg6 3.092938 1_655
Al4 Mg11 3.092948 1_655
Al4 Mg2 3.114312 1_555
Al5 Al6 2.775505 1_555
Al5 Cu0 2.815041 1_555
Al5 Mg13 2.900456 1_555
Al5 Mg15 3.016078 1_555
Al5 Mg9 3.016148 1_555
Al5 Mg5 3.111456 1_555
Al5 Mg10 3.134345 1_555
Al5 Mg7 3.144162 1_555
Al5 Mg2 3.195636 1_455
Al6 Mg8 2.941086 1_555
Al6 Mg15 2.941091 1_555
Al6 Mg14 3.081508 1_555
Al6 Mg6 3.132094 1_555
Al6 Mg11 3.132094 1_555
Al6 Mg7 3.140093 1_555
Al6 Mg3 3.140093 1_555
Al6 Mg2 3.259929 1_455
Al7 Al9 2.701497 1_555
Al7 Al8 2.775490 1_645
Al7 Mg4 2.941089 1_545
Al7 Mg11 2.941094 1_655
Al7 Mg5 3.081521 1_555
Al7 Mg8 3.132109 1_545
Al7 Mg13 3.132120 1_555
Al7 Mg3 3.140091 1_656
Al7 Mg12 3.140094 1_545
Al7 Mg2 3.259918 1_556
Al8 Cu0 2.815034 1_566
Al8 Mg6 2.900479 1_555
Al8 Mg4 3.016087 1_455
Al8 Mg10 3.016155 1_565
Al8 Mg14 3.111456 1_555
Al8 Mg9 3.134339 1_455
Al8 Mg12 3.144173 1_455
Al8 Mg2 3.195628 1_466
Al9 Mg14 2.940916 1_545
Al9 Mg1 2.940923 1_556
Al9 Mg10 2.990729 1_555
Al9 Mg12 3.052716 1_545
Al9 Mg3 3.052726 1_656
Al9 Mg8 3.092948 1_545
Al9 Mg13 3.092953 1_555
Al9 Mg2 3.114299 1_556
Al10 Al3 2.666035 1_556
Al10 Al8 2.676829 1_555
Al10 Cu0 2.815028 1_566
Al10 Mg11 2.900486 1_555
Al10 Mg13 3.016090 1_455
Al10 Mg0 3.016161 1_556
Al10 Mg14 3.111456 1_555
Al10 Mg9 3.134339 1_455
Al10 Mg12 3.144168 1_455
Al10 Mg2 3.195620 1_466
Al11 Al8 2.666035 1_545
Al11 Al2 2.676859 1_556
Al11 Al7 2.775482 1_455
Al11 Cu0 2.815049 1_556
Al11 Mg15 2.900465 1_555
Al11 Mg11 3.016063 1_555
Al11 Mg10 3.016152 1_555
Al11 Mg1 3.111456 1_556
Al11 Mg0 3.134343 1_556
Al11 Mg3 3.144159 1_556
Al11 Mg2 3.195639 1_456
Cu0 Mg2 2.641302 1_455
Cu0 Mg1 3.075348 1_555
Cu0 Mg5 3.075354 1_555
Cu0 Mg14 3.075355 1_544
