# generated using pymatgen
data_Mg6CdGa
_symmetry_space_group_name_H-M   'P 1'
_cell_length_a   5.08351000
_cell_length_b   6.24082700
_cell_length_c   10.93183000
_cell_angle_alpha   90.00000000
_cell_angle_beta   90.00000000
_cell_angle_gamma   90.00000000
_symmetry_Int_Tables_number   1
_chemical_formula_structural   Mg6CdGa
_chemical_formula_sum   'Mg12 Cd2 Ga2'
_cell_volume   346.81565695
_cell_formula_units_Z   2
loop_
 _symmetry_equiv_pos_site_id
 _symmetry_equiv_pos_as_xyz
  1  'x, y, z'
loop_
 _atom_site_type_symbol
 _atom_site_label
 _atom_site_symmetry_multiplicity
 _atom_site_fract_x
 _atom_site_fract_y
 _atom_site_fract_z
 _atom_site_occupancy
  Mg  Mg0  1  0.00000000  0.74636400  0.08620100  1
  Mg  Mg1  1  0.00000000  0.25363600  0.08620100  1
  Mg  Mg2  1  0.00000000  0.00000000  0.33304100  1
  Mg  Mg3  1  0.50000000  0.25077900  0.41513400  1
  Mg  Mg4  1  0.50000000  0.74922100  0.41513400  1
  Mg  Mg5  1  0.50000000  0.00000000  0.16702900  1
  Mg  Mg6  1  0.00000000  0.24636400  0.58620100  1
  Mg  Mg7  1  0.00000000  0.75363600  0.58620100  1
  Mg  Mg8  1  0.00000000  0.50000000  0.83304100  1
  Mg  Mg9  1  0.50000000  0.75077900  0.91513400  1
  Mg  Mg10  1  0.50000000  0.24922100  0.91513400  1
  Mg  Mg11  1  0.50000000  0.50000000  0.66702900  1
  Cd  Cd0  1  0.00000000  0.50000000  0.33686100  1
  Cd  Cd1  1  0.00000000  0.00000000  0.83686100  1
  Ga  Ga0  1  0.50000000  0.50000000  0.16039900  1
  Ga  Ga1  1  0.50000000  0.00000000  0.66039900  1
loop_
_geom_bond_atom_site_label_1
_geom_bond_atom_site_label_2
_geom_bond_distance
_geom_bond_site_symmetry_2
Mg0 Mg1 3.075030 1_555
Mg0 Mg5 3.121992 1_465
Mg0 Mg5 3.121992 1_565
Mg0 Mg2 3.128418 1_565
Mg0 Mg9 3.155703 1_554
Mg0 Mg9 3.155703 1_454
Mg0 Mg1 3.165797 1_565
Mg0 Mg8 3.165915 1_554
Mg1 Mg5 3.121992 1_455
Mg1 Mg5 3.121992 1_555
Mg1 Mg2 3.128418 1_555
Mg1 Mg10 3.155703 1_554
Mg1 Mg10 3.155703 1_454
Mg1 Mg8 3.165915 1_554
Mg2 Mg4 3.116943 1_445
Mg2 Mg3 3.116943 1_455
Mg2 Mg4 3.116943 1_545
Mg2 Mg3 3.116943 1_555
Mg2 Mg5 3.123151 1_455
Mg2 Mg5 3.123151 1_555
Mg2 Mg7 3.165915 1_545
Mg2 Mg6 3.165915 1_555
Mg3 Mg4 3.110690 1_555
Mg3 Mg4 3.130137 1_545
Mg3 Mg5 3.131404 1_555
Mg3 Mg6 3.155703 1_655
Mg3 Mg6 3.155703 1_555
Mg4 Mg5 3.131404 1_565
Mg4 Mg7 3.155703 1_655
Mg4 Mg7 3.155703 1_555
Mg5 Mg9 3.162565 1_544
Mg6 Mg7 3.075030 1_545
Mg6 Mg8 3.128418 1_555
Mg6 Mg7 3.165797 1_555
Mg7 Mg8 3.128418 1_555
Mg8 Mg9 3.116943 1_455
Mg8 Mg9 3.116943 1_555
Mg10 Mg9 3.110690 1_545
Mg10 Mg8 3.116943 1_655
Mg10 Mg8 3.116943 1_555
Mg10 Mg9 3.130137 1_555
Mg10 Mg11 3.131404 1_555
Mg10 Mg5 3.162565 1_556
Mg11 Mg7 3.121992 1_655
Mg11 Mg6 3.121992 1_555
Mg11 Mg7 3.121992 1_555
Mg11 Mg6 3.121992 1_655
Mg11 Mg8 3.123151 1_655
Mg11 Mg8 3.123151 1_555
Mg11 Mg9 3.131404 1_555
Mg11 Mg3 3.162565 1_555
Mg11 Mg4 3.162565 1_555
Cd0 Mg3 3.100288 1_455
Cd0 Mg4 3.100288 1_455
Cd0 Mg3 3.100288 1_555
Cd0 Mg4 3.100288 1_555
Cd0 Mg2 3.120693 1_555
Cd0 Mg2 3.120693 1_565
Cd0 Mg1 3.142053 1_555
Cd0 Mg0 3.142053 1_555
Cd0 Mg6 3.152021 1_555
Cd0 Mg7 3.152021 1_555
Cd0 Ga0 3.190887 1_555
Cd0 Ga0 3.190887 1_455
Cd1 Mg9 3.100288 1_545
Cd1 Mg9 3.100288 1_445
Cd1 Mg10 3.100288 1_455
Cd1 Mg10 3.100288 1_555
Cd1 Mg8 3.120693 1_555
Cd1 Mg8 3.120693 1_545
Cd1 Mg6 3.142053 1_555
Cd1 Mg7 3.142053 1_545
Cd1 Mg1 3.152021 1_556
Cd1 Mg0 3.152021 1_546
Cd1 Ga1 3.190887 1_555
Cd1 Ga1 3.190887 1_455
Ga0 Mg0 3.079348 1_655
Ga0 Mg1 3.079348 1_655
Ga0 Mg1 3.079348 1_555
Ga0 Mg0 3.079348 1_555
Ga0 Mg10 3.104553 1_554
Ga0 Mg9 3.104553 1_554
Ga0 Mg5 3.121255 1_565
Ga0 Mg5 3.121255 1_555
Ga0 Mg4 3.189634 1_555
Ga0 Mg3 3.189634 1_555
Ga1 Mg7 3.079348 1_545
Ga1 Mg6 3.079348 1_655
Ga1 Mg6 3.079348 1_555
Ga1 Mg7 3.079348 1_645
Ga1 Mg3 3.104553 1_555
Ga1 Mg4 3.104553 1_545
Ga1 Mg11 3.121255 1_555
Ga1 Mg11 3.121255 1_545
Ga1 Mg10 3.189634 1_555
Ga1 Mg9 3.189634 1_545
