# generated using pymatgen
data_Dy18Mn(FeBi3)2
_symmetry_space_group_name_H-M   'P 1'
_cell_length_a   4.21028100
_cell_length_b   8.32662048
_cell_length_c   22.14531697
_cell_angle_alpha   79.16393795
_cell_angle_beta   90.00000000
_cell_angle_gamma   90.00000000
_symmetry_Int_Tables_number   1
_chemical_formula_structural   Dy18Mn(FeBi3)2
_chemical_formula_sum   'Dy18 Mn1 Fe2 Bi6'
_cell_volume   762.51436193
_cell_formula_units_Z   1
loop_
 _symmetry_equiv_pos_site_id
 _symmetry_equiv_pos_as_xyz
  1  'x, y, z'
loop_
 _atom_site_type_symbol
 _atom_site_label
 _atom_site_symmetry_multiplicity
 _atom_site_fract_x
 _atom_site_fract_y
 _atom_site_fract_z
 _atom_site_occupancy
  Dy  Dy0  1  0.00000000  0.23412000  0.00000000  1
  Dy  Dy1  1  0.00000000  0.56517000  0.33343900  1
  Dy  Dy2  1  0.00000000  0.89860900  0.66656100  1
  Dy  Dy3  1  0.00000000  0.25620000  0.25598000  1
  Dy  Dy4  1  0.00000000  0.58985700  0.58934500  1
  Dy  Dy5  1  0.00000000  0.92153900  0.92176900  1
  Dy  Dy6  1  0.00000000  0.84330700  0.07823100  1
  Dy  Dy7  1  0.00000000  0.17920300  0.41065500  1
  Dy  Dy8  1  0.00000000  0.51218000  0.74402000  1
  Dy  Dy9  1  0.50000000  0.60258700  0.00000000  1
  Dy  Dy10  1  0.50000000  0.93574200  0.33335300  1
  Dy  Dy11  1  0.50000000  0.26909600  0.66664700  1
  Dy  Dy12  1  0.50000000  0.13240400  0.13256500  1
  Dy  Dy13  1  0.50000000  0.46589100  0.46620700  1
  Dy  Dy14  1  0.50000000  0.79943900  0.79959000  1
  Dy  Dy15  1  0.50000000  0.59902900  0.20041000  1
  Dy  Dy16  1  0.50000000  0.93209700  0.53379300  1
  Dy  Dy17  1  0.50000000  0.26497000  0.86743500  1
  Mn  Mn0  1  0.50000000  0.99990200  0.00000000  1
  Fe  Fe0  1  0.50000000  0.33261700  0.33324000  1
  Fe  Fe1  1  0.50000000  0.66585800  0.66676000  1
  Bi  Bi0  1  0.00000000  0.88922500  0.22235500  1
  Bi  Bi1  1  0.00000000  0.22227500  0.55538300  1
  Bi  Bi2  1  0.00000000  0.55537400  0.88839900  1
  Bi  Bi3  1  0.00000000  0.44377300  0.11160100  1
  Bi  Bi4  1  0.00000000  0.77765700  0.44461700  1
  Bi  Bi5  1  0.00000000  0.11158200  0.77764500  1
loop_
_geom_bond_atom_site_label_1
_geom_bond_atom_site_label_2
_geom_bond_distance
_geom_bond_site_symmetry_2
Dy0 Mn0 2.869681 1_445
Dy0 Mn0 2.869681 1_545
Dy1 Fe0 2.860842 1_555
Dy1 Fe0 2.860842 1_455
Dy2 Fe1 2.860836 1_455
Dy2 Fe1 2.860836 1_555
Dy3 Fe0 2.858875 1_555
Dy3 Fe0 2.858875 1_455
Dy4 Fe1 2.859915 1_455
Dy4 Fe1 2.859915 1_555
Dy5 Mn0 2.878158 1_456
Dy5 Mn0 2.878158 1_556
Dy6 Mn0 2.878161 1_555
Dy6 Mn0 2.878161 1_455
Dy7 Fe0 2.859910 1_555
Dy7 Fe0 2.859910 1_455
Dy8 Fe1 2.858878 1_455
Dy8 Fe1 2.858878 1_555
Dy9 Mn0 3.308291 1_555
Dy10 Fe0 3.304158 1_565
Dy11 Fe1 3.304158 1_555
Dy12 Mn0 3.324664 1_545
Dy13 Fe0 3.336282 1_555
Dy14 Fe1 3.334690 1_555
Dy15 Fe0 3.334695 1_555
Dy16 Fe1 3.336274 1_555
Dy17 Mn0 3.324668 1_546
Bi0 Dy3 3.278274 1_565
Bi0 Dy6 3.285086 1_555
Bi0 Dy1 3.291883 1_555
Bi0 Dy15 3.308789 1_555
Bi0 Dy15 3.308789 1_455
Bi0 Dy12 3.312346 1_565
Bi0 Dy12 3.312346 1_465
Bi0 Dy10 3.313882 1_455
Bi0 Dy10 3.313882 1_555
Bi1 Dy4 3.286209 1_555
Bi1 Dy2 3.290921 1_545
Bi1 Dy7 3.291376 1_555
Bi1 Dy16 3.306450 1_445
Bi1 Dy16 3.306450 1_545
Bi1 Dy13 3.307589 1_555
Bi1 Dy13 3.307589 1_455
Bi1 Dy11 3.319032 1_455
Bi1 Dy11 3.319032 1_555
Bi2 Dy5 3.269430 1_555
Bi2 Dy0 3.282940 1_556
Bi2 Dy8 3.283989 1_555
Bi2 Dy17 3.303994 1_455
Bi2 Dy17 3.303994 1_555
Bi2 Dy14 3.305560 1_555
Bi2 Dy14 3.305560 1_455
Bi2 Dy9 3.325581 1_456
Bi2 Dy9 3.325581 1_556
Bi3 Dy6 3.269422 1_555
Bi3 Dy0 3.282940 1_555
Bi3 Dy3 3.283989 1_555
Bi3 Dy12 3.304000 1_555
Bi3 Dy12 3.304000 1_455
Bi3 Dy15 3.305560 1_555
Bi3 Dy15 3.305560 1_455
Bi3 Dy9 3.325581 1_455
Bi3 Dy9 3.325581 1_555
Bi4 Dy7 3.286225 1_565
Bi4 Dy1 3.290915 1_555
Bi4 Dy4 3.291376 1_555
Bi4 Dy13 3.306437 1_555
Bi4 Dy13 3.306437 1_455
Bi4 Dy16 3.307589 1_455
Bi4 Dy16 3.307589 1_555
Bi4 Dy10 3.319032 1_555
Bi4 Dy10 3.319032 1_455
Bi5 Dy8 3.278258 1_555
Bi5 Dy5 3.285088 1_545
Bi5 Dy2 3.291895 1_545
Bi5 Dy14 3.308801 1_445
Bi5 Dy14 3.308801 1_545
Bi5 Dy17 3.312342 1_555
Bi5 Dy17 3.312342 1_455
Bi5 Dy11 3.313880 1_455
Bi5 Dy11 3.313880 1_555
