# generated using pymatgen
data_MgTi2
_symmetry_space_group_name_H-M   'P 1'
_cell_length_a   11.22857245
_cell_length_b   11.22857245
_cell_length_c   14.87180980
_cell_angle_alpha   74.91431116
_cell_angle_beta   74.91431116
_cell_angle_gamma   29.93882671
_symmetry_Int_Tables_number   1
_chemical_formula_structural   MgTi2
_chemical_formula_sum   'Mg16 Ti32'
_cell_volume   901.19159079
_cell_formula_units_Z   16
loop_
 _symmetry_equiv_pos_site_id
 _symmetry_equiv_pos_as_xyz
  1  'x, y, z'
loop_
 _atom_site_type_symbol
 _atom_site_label
 _atom_site_symmetry_multiplicity
 _atom_site_fract_x
 _atom_site_fract_y
 _atom_site_fract_z
 _atom_site_occupancy
  Mg  Mg0_0  1  0.31730100  0.31730100  0.23902650  1
  Mg  Mg0_1  1  0.31730100  0.31730100  0.73902650  1
  Mg  Mg0_2  1  0.31730100  0.81730100  0.23902650  1
  Mg  Mg0_3  1  0.31730100  0.81730100  0.73902650  1
  Mg  Mg0_4  1  0.81730100  0.31730100  0.23902650  1
  Mg  Mg0_5  1  0.81730100  0.31730100  0.73902650  1
  Mg  Mg0_6  1  0.81730100  0.81730100  0.23902650  1
  Mg  Mg0_7  1  0.81730100  0.81730100  0.73902650  1
  Mg  Mg1_0  1  0.18269900  0.18269900  0.26097350  1
  Mg  Mg1_1  1  0.18269900  0.18269900  0.76097350  1
  Mg  Mg1_2  1  0.18269900  0.68269900  0.26097350  1
  Mg  Mg1_3  1  0.18269900  0.68269900  0.76097350  1
  Mg  Mg1_4  1  0.68269900  0.18269900  0.26097350  1
  Mg  Mg1_5  1  0.68269900  0.18269900  0.76097350  1
  Mg  Mg1_6  1  0.68269900  0.68269900  0.26097350  1
  Mg  Mg1_7  1  0.68269900  0.68269900  0.76097350  1
  Ti  Ti0_0  1  0.15351000  0.15351000  0.06426800  1
  Ti  Ti0_1  1  0.15351000  0.15351000  0.56426800  1
  Ti  Ti0_2  1  0.15351000  0.65351000  0.06426800  1
  Ti  Ti0_3  1  0.15351000  0.65351000  0.56426800  1
  Ti  Ti0_4  1  0.65351000  0.15351000  0.06426800  1
  Ti  Ti0_5  1  0.65351000  0.15351000  0.56426800  1
  Ti  Ti0_6  1  0.65351000  0.65351000  0.06426800  1
  Ti  Ti0_7  1  0.65351000  0.65351000  0.56426800  1
  Ti  Ti1_0  1  0.01863700  0.01863700  0.08175650  1
  Ti  Ti1_1  1  0.01863700  0.01863700  0.58175650  1
  Ti  Ti1_2  1  0.01863700  0.51863700  0.08175650  1
  Ti  Ti1_3  1  0.01863700  0.51863700  0.58175650  1
  Ti  Ti1_4  1  0.51863700  0.01863700  0.08175650  1
  Ti  Ti1_5  1  0.51863700  0.01863700  0.58175650  1
  Ti  Ti1_6  1  0.51863700  0.51863700  0.08175650  1
  Ti  Ti1_7  1  0.51863700  0.51863700  0.58175650  1
  Ti  Ti2_0  1  0.48136300  0.48136300  0.41824350  1
  Ti  Ti2_1  1  0.48136300  0.48136300  0.91824350  1
  Ti  Ti2_2  1  0.48136300  0.98136300  0.41824350  1
  Ti  Ti2_3  1  0.48136300  0.98136300  0.91824350  1
  Ti  Ti2_4  1  0.98136300  0.48136300  0.41824350  1
  Ti  Ti2_5  1  0.98136300  0.48136300  0.91824350  1
  Ti  Ti2_6  1  0.98136300  0.98136300  0.41824350  1
  Ti  Ti2_7  1  0.98136300  0.98136300  0.91824350  1
  Ti  Ti3_0  1  0.34649000  0.34649000  0.43573200  1
  Ti  Ti3_1  1  0.34649000  0.34649000  0.93573200  1
  Ti  Ti3_2  1  0.34649000  0.84649000  0.43573200  1
  Ti  Ti3_3  1  0.34649000  0.84649000  0.93573200  1
  Ti  Ti3_4  1  0.84649000  0.34649000  0.43573200  1
  Ti  Ti3_5  1  0.84649000  0.34649000  0.93573200  1
  Ti  Ti3_6  1  0.84649000  0.84649000  0.43573200  1
  Ti  Ti3_7  1  0.84649000  0.84649000  0.93573200  1
loop_
_geom_bond_atom_site_label_1
_geom_bond_atom_site_label_2
_geom_bond_distance
_geom_bond_site_symmetry_2
Mg0_0 Mg1_0 2.849652 1_555
Mg0_0 Mg0_6 2.900378 1_545
Mg0_0 Mg0_6 2.900378 1_455
Mg0_0 Mg1_2 2.986251 1_555
Mg0_0 Mg1_4 2.986251 1_555
Mg0_0 Ti0_4 3.120364 1_555
Mg0_0 Ti0_2 3.120364 1_555
Mg0_0 Ti3_0 3.155462 1_555
Mg0_0 Ti2_2 3.163129 1_545
Mg0_0 Ti2_4 3.163129 1_455
Mg0_0 Ti1_2 3.165217 1_555
Mg0_0 Ti1_4 3.165217 1_555
Mg0_1 Mg1_1 2.849652 1_555
Mg0_1 Mg0_7 2.900378 1_545
Mg0_1 Mg0_7 2.900378 1_455
Mg0_1 Mg1_3 2.986251 1_555
Mg0_1 Mg1_5 2.986251 1_555
Mg0_1 Ti0_5 3.120364 1_555
Mg0_1 Ti0_3 3.120364 1_555
Mg0_1 Ti3_1 3.155462 1_555
Mg0_1 Ti2_3 3.163129 1_545
Mg0_1 Ti2_5 3.163129 1_455
Mg0_1 Ti1_5 3.165217 1_555
Mg0_1 Ti1_3 3.165217 1_555
Mg0_2 Mg1_2 2.849652 1_555
Mg0_2 Mg0_4 2.900378 1_555
Mg0_2 Mg0_4 2.900378 1_465
Mg0_2 Mg1_0 2.986251 1_565
Mg0_2 Mg1_6 2.986251 1_555
Mg0_2 Ti0_0 3.120364 1_565
Mg0_2 Ti0_6 3.120364 1_555
Mg0_2 Ti3_2 3.155462 1_555
Mg0_2 Ti2_6 3.163129 1_455
Mg0_2 Ti2_0 3.163129 1_555
Mg0_2 Ti1_6 3.165217 1_555
Mg0_2 Ti1_0 3.165217 1_565
Mg0_3 Mg1_3 2.849652 1_555
Mg0_3 Mg0_5 2.900378 1_555
Mg0_3 Mg0_5 2.900378 1_465
Mg0_3 Mg1_1 2.986251 1_565
Mg0_3 Mg1_7 2.986251 1_555
Mg0_3 Ti0_1 3.120364 1_565
Mg0_3 Ti0_7 3.120364 1_555
Mg0_3 Ti3_3 3.155462 1_555
Mg0_3 Ti2_1 3.163129 1_555
Mg0_3 Ti2_7 3.163129 1_455
Mg0_3 Ti1_7 3.165217 1_555
Mg0_3 Ti1_1 3.165217 1_565
Mg0_4 Mg1_4 2.849652 1_555
Mg0_4 Mg1_0 2.986251 1_655
Mg0_4 Mg1_6 2.986251 1_555
Mg0_4 Ti0_6 3.120364 1_555
Mg0_4 Ti0_0 3.120364 1_655
Mg0_4 Ti3_4 3.155462 1_555
Mg0_4 Ti2_6 3.163129 1_545
Mg0_4 Ti2_0 3.163129 1_555
Mg0_4 Ti1_0 3.165217 1_655
Mg0_4 Ti1_6 3.165217 1_555
Mg0_5 Mg1_5 2.849652 1_555
Mg0_5 Mg1_1 2.986251 1_655
Mg0_5 Mg1_7 2.986251 1_555
Mg0_5 Ti0_1 3.120364 1_655
Mg0_5 Ti0_7 3.120364 1_555
Mg0_5 Ti3_5 3.155462 1_555
Mg0_5 Ti2_1 3.163129 1_555
Mg0_5 Ti2_7 3.163129 1_545
Mg0_5 Ti1_7 3.165217 1_555
Mg0_5 Ti1_1 3.165217 1_655
Mg0_6 Mg1_6 2.849652 1_555
Mg0_6 Mg1_4 2.986251 1_565
Mg0_6 Mg1_2 2.986251 1_655
Mg0_6 Ti0_2 3.120364 1_655
Mg0_6 Ti0_4 3.120364 1_565
Mg0_6 Ti3_6 3.155462 1_555
Mg0_6 Ti2_2 3.163129 1_555
Mg0_6 Ti2_4 3.163129 1_555
Mg0_6 Ti1_2 3.165217 1_655
Mg0_6 Ti1_4 3.165217 1_565
Mg0_7 Mg1_7 2.849652 1_555
Mg0_7 Mg1_3 2.986251 1_655
Mg0_7 Mg1_5 2.986251 1_565
Mg0_7 Ti0_3 3.120364 1_655
Mg0_7 Ti0_5 3.120364 1_565
Mg0_7 Ti3_7 3.155462 1_555
Mg0_7 Ti2_3 3.163129 1_555
Mg0_7 Ti2_5 3.163129 1_555
Mg0_7 Ti1_3 3.165217 1_655
Mg0_7 Ti1_5 3.165217 1_565
Mg1_0 Mg1_6 2.900378 1_545
Mg1_0 Mg1_6 2.900378 1_455
Mg1_0 Ti3_4 3.120364 1_455
Mg1_0 Ti3_2 3.120364 1_545
Mg1_0 Ti0_0 3.155462 1_555
Mg1_0 Ti1_4 3.163129 1_555
Mg1_0 Ti1_2 3.163129 1_555
Mg1_0 Ti2_4 3.165217 1_455
Mg1_0 Ti2_2 3.165217 1_545
Mg1_1 Mg1_7 2.900378 1_455
Mg1_1 Mg1_7 2.900378 1_545
Mg1_1 Ti3_3 3.120364 1_545
Mg1_1 Ti3_5 3.120364 1_455
Mg1_1 Ti0_1 3.155462 1_555
Mg1_1 Ti1_5 3.163129 1_555
Mg1_1 Ti1_3 3.163129 1_555
Mg1_1 Ti2_3 3.165217 1_545
Mg1_1 Ti2_5 3.165217 1_455
Mg1_2 Mg1_4 2.900378 1_465
Mg1_2 Mg1_4 2.900378 1_555
Mg1_2 Ti3_6 3.120364 1_455
Mg1_2 Ti3_0 3.120364 1_555
Mg1_2 Ti0_2 3.155462 1_555
Mg1_2 Ti1_6 3.163129 1_555
Mg1_2 Ti1_0 3.163129 1_565
Mg1_2 Ti2_0 3.165217 1_555
Mg1_2 Ti2_6 3.165217 1_455
Mg1_3 Mg1_5 2.900378 1_465
Mg1_3 Mg1_5 2.900378 1_555
Mg1_3 Ti3_7 3.120364 1_455
Mg1_3 Ti3_1 3.120364 1_555
Mg1_3 Ti0_3 3.155462 1_555
Mg1_3 Ti1_1 3.163129 1_565
Mg1_3 Ti1_7 3.163129 1_555
Mg1_3 Ti2_7 3.165217 1_455
Mg1_3 Ti2_1 3.165217 1_555
Mg1_4 Ti3_0 3.120364 1_555
Mg1_4 Ti3_6 3.120364 1_545
Mg1_4 Ti0_4 3.155462 1_555
Mg1_4 Ti1_6 3.163129 1_555
Mg1_4 Ti1_0 3.163129 1_655
Mg1_4 Ti2_0 3.165217 1_555
Mg1_4 Ti2_6 3.165217 1_545
Mg1_5 Ti3_7 3.120364 1_545
Mg1_5 Ti3_1 3.120364 1_555
Mg1_5 Ti0_5 3.155462 1_555
Mg1_5 Ti1_1 3.163129 1_655
Mg1_5 Ti1_7 3.163129 1_555
Mg1_5 Ti2_7 3.165217 1_545
Mg1_5 Ti2_1 3.165217 1_555
Mg1_6 Ti3_4 3.120364 1_555
Mg1_6 Ti3_2 3.120364 1_555
Mg1_6 Ti0_6 3.155462 1_555
Mg1_6 Ti1_2 3.163129 1_655
Mg1_6 Ti1_4 3.163129 1_565
Mg1_6 Ti2_4 3.165217 1_555
Mg1_6 Ti2_2 3.165217 1_555
Mg1_7 Ti3_3 3.120364 1_555
Mg1_7 Ti3_5 3.120364 1_555
Mg1_7 Ti0_7 3.155462 1_555
Mg1_7 Ti1_5 3.163129 1_565
Mg1_7 Ti1_3 3.163129 1_655
Mg1_7 Ti2_5 3.165217 1_555
Mg1_7 Ti2_3 3.165217 1_555
Ti0_0 Ti2_5 2.774088 1_454
Ti0_0 Ti2_3 2.774088 1_544
Ti0_0 Ti1_0 2.866968 1_555
Ti0_0 Ti0_6 2.900378 1_455
Ti0_0 Ti0_6 2.900378 1_545
Ti0_0 Ti3_5 2.926012 1_454
Ti0_0 Ti3_3 2.926012 1_544
Ti0_0 Ti1_4 2.959584 1_555
Ti0_0 Ti1_2 2.959584 1_555
Ti0_1 Ti2_4 2.774088 1_455
Ti0_1 Ti2_2 2.774088 1_545
Ti0_1 Ti1_1 2.866968 1_555
Ti0_1 Ti0_7 2.900378 1_545
Ti0_1 Ti0_7 2.900378 1_455
Ti0_1 Ti3_2 2.926012 1_545
Ti0_1 Ti3_4 2.926012 1_455
Ti0_1 Ti1_3 2.959584 1_555
Ti0_1 Ti1_5 2.959584 1_555
Ti0_2 Ti2_7 2.774088 1_454
Ti0_2 Ti2_1 2.774088 1_554
Ti0_2 Ti1_2 2.866968 1_555
Ti0_2 Ti0_4 2.900378 1_555
Ti0_2 Ti0_4 2.900378 1_465
Ti0_2 Ti3_7 2.926012 1_454
Ti0_2 Ti3_1 2.926012 1_554
Ti0_2 Ti1_6 2.959584 1_555
Ti0_2 Ti1_0 2.959584 1_565
Ti0_3 Ti2_0 2.774088 1_555
Ti0_3 Ti2_6 2.774088 1_455
Ti0_3 Ti1_3 2.866968 1_555
Ti0_3 Ti0_5 2.900378 1_555
Ti0_3 Ti0_5 2.900378 1_465
Ti0_3 Ti3_6 2.926012 1_455
Ti0_3 Ti3_0 2.926012 1_555
Ti0_3 Ti1_1 2.959584 1_565
Ti0_3 Ti1_7 2.959584 1_555
Ti0_4 Ti2_7 2.774088 1_544
Ti0_4 Ti2_1 2.774088 1_554
Ti0_4 Ti1_4 2.866968 1_555
Ti0_4 Ti3_7 2.926012 1_544
Ti0_4 Ti3_1 2.926012 1_554
Ti0_4 Ti1_6 2.959584 1_555
Ti0_4 Ti1_0 2.959584 1_655
Ti0_5 Ti2_0 2.774088 1_555
Ti0_5 Ti2_6 2.774088 1_545
Ti0_5 Ti1_5 2.866968 1_555
Ti0_5 Ti3_0 2.926012 1_555
Ti0_5 Ti3_6 2.926012 1_545
Ti0_5 Ti1_1 2.959584 1_655
Ti0_5 Ti1_7 2.959584 1_555
Ti0_6 Ti2_3 2.774088 1_554
Ti0_6 Ti2_5 2.774088 1_554
Ti0_6 Ti1_6 2.866968 1_555
Ti0_6 Ti3_5 2.926012 1_554
Ti0_6 Ti3_3 2.926012 1_554
Ti0_6 Ti1_4 2.959584 1_565
Ti0_6 Ti1_2 2.959584 1_655
Ti0_7 Ti2_4 2.774088 1_555
Ti0_7 Ti2_2 2.774088 1_555
Ti0_7 Ti1_7 2.866968 1_555
Ti0_7 Ti3_4 2.926012 1_555
Ti0_7 Ti3_2 2.926012 1_555
Ti0_7 Ti1_3 2.959584 1_655
Ti0_7 Ti1_5 2.959584 1_565
Ti1_0 Ti2_7 2.761668 1_444
Ti1_0 Ti3_3 2.774088 1_544
Ti1_0 Ti3_5 2.774088 1_454
Ti1_0 Ti1_6 2.900378 1_545
Ti1_0 Ti1_6 2.900378 1_455
Ti1_1 Ti2_6 2.761668 1_445
Ti1_1 Ti3_4 2.774088 1_455
Ti1_1 Ti3_2 2.774088 1_545
Ti1_1 Ti1_7 2.900378 1_455
Ti1_1 Ti1_7 2.900378 1_545
Ti1_2 Ti2_5 2.761668 1_454
Ti1_2 Ti3_1 2.774088 1_554
Ti1_2 Ti3_7 2.774088 1_454
Ti1_2 Ti1_4 2.900378 1_555
Ti1_2 Ti1_4 2.900378 1_465
Ti1_3 Ti2_4 2.761668 1_455
Ti1_3 Ti3_6 2.774088 1_455
Ti1_3 Ti3_0 2.774088 1_555
Ti1_3 Ti1_5 2.900378 1_465
Ti1_3 Ti1_5 2.900378 1_555
Ti1_4 Ti2_3 2.761668 1_544
Ti1_4 Ti3_1 2.774088 1_554
Ti1_4 Ti3_7 2.774088 1_544
Ti1_5 Ti2_2 2.761668 1_545
Ti1_5 Ti3_0 2.774088 1_555
Ti1_5 Ti3_6 2.774088 1_545
Ti1_6 Ti2_1 2.761668 1_554
Ti1_6 Ti3_5 2.774088 1_554
Ti1_6 Ti3_3 2.774088 1_554
Ti1_7 Ti2_0 2.761668 1_555
Ti1_7 Ti3_2 2.774088 1_555
Ti1_7 Ti3_4 2.774088 1_555
Ti2_0 Ti3_0 2.866968 1_555
Ti2_0 Ti2_6 2.900378 1_455
Ti2_0 Ti2_6 2.900378 1_545
Ti2_0 Ti3_4 2.959584 1_555
Ti2_0 Ti3_2 2.959584 1_555
Ti2_1 Ti3_1 2.866968 1_555
Ti2_1 Ti2_7 2.900378 1_545
Ti2_1 Ti2_7 2.900378 1_455
Ti2_1 Ti3_3 2.959584 1_555
Ti2_1 Ti3_5 2.959584 1_555
Ti2_2 Ti3_2 2.866968 1_555
Ti2_2 Ti2_4 2.900378 1_465
Ti2_2 Ti2_4 2.900378 1_555
Ti2_2 Ti3_6 2.959584 1_555
Ti2_2 Ti3_0 2.959584 1_565
Ti2_3 Ti3_3 2.866968 1_555
Ti2_3 Ti2_5 2.900378 1_465
Ti2_3 Ti2_5 2.900378 1_555
Ti2_3 Ti3_1 2.959584 1_565
Ti2_3 Ti3_7 2.959584 1_555
Ti2_4 Ti3_4 2.866968 1_555
Ti2_4 Ti3_6 2.959584 1_555
Ti2_4 Ti3_0 2.959584 1_655
Ti2_5 Ti3_5 2.866968 1_555
Ti2_5 Ti3_1 2.959584 1_655
Ti2_5 Ti3_7 2.959584 1_555
Ti2_6 Ti3_6 2.866968 1_555
Ti2_6 Ti3_2 2.959584 1_655
Ti2_6 Ti3_4 2.959584 1_565
Ti2_7 Ti3_7 2.866968 1_555
Ti2_7 Ti3_3 2.959584 1_655
Ti2_7 Ti3_5 2.959584 1_565
Ti3_0 Ti3_6 2.900378 1_545
Ti3_0 Ti3_6 2.900378 1_455
Ti3_1 Ti3_7 2.900378 1_545
Ti3_1 Ti3_7 2.900378 1_455
Ti3_2 Ti3_4 2.900378 1_555
Ti3_2 Ti3_4 2.900378 1_465
Ti3_3 Ti3_5 2.900378 1_555
Ti3_3 Ti3_5 2.900378 1_465
