# generated using pymatgen
data_NaPr2Se3
_symmetry_space_group_name_H-M   'P 1'
_cell_length_a   7.39437082
_cell_length_b   7.39437082
_cell_length_c   7.39437082
_cell_angle_alpha   146.70770523
_cell_angle_beta   132.13731556
_cell_angle_gamma   59.54969154
_symmetry_Int_Tables_number   1
_chemical_formula_structural   NaPr2Se3
_chemical_formula_sum   'Na1 Pr2 Se3'
_cell_volume   163.11048829
_cell_formula_units_Z   1
loop_
 _symmetry_equiv_pos_site_id
 _symmetry_equiv_pos_as_xyz
  1  'x, y, z'
loop_
 _atom_site_type_symbol
 _atom_site_label
 _atom_site_symmetry_multiplicity
 _atom_site_fract_x
 _atom_site_fract_y
 _atom_site_fract_z
 _atom_site_occupancy
  Na  Na0  1  -0.00000000  -0.00000000  0.00000000  1
  Pr  Pr0  1  0.66414426  0.66414426  0.00000000  1
  Pr  Pr1  1  0.33585574  0.33585574  -0.00000000  1
  Se  Se0  1  0.50000000  -0.00000000  0.50000000  1
  Se  Se1  1  0.16675615  0.66675615  0.50000000  1
  Se  Se2  1  0.83324385  0.33324385  0.50000000  1
loop_
_geom_bond_atom_site_label_1
_geom_bond_atom_site_label_2
_geom_bond_distance
_geom_bond_site_symmetry_2
Na0 Se0 2.999465 1_454
Na0 Se0 2.999465 1_555
Na0 Se1 3.011424 1_555
Na0 Se2 3.011424 1_444
Na0 Se2 3.011424 1_455
Na0 Se1 3.011424 1_544
Pr0 Se0 2.987686 1_554
Pr0 Se0 2.987686 1_565
Pr0 Se1 2.999652 1_655
Pr0 Se1 2.999652 1_554
Pr0 Se2 3.032880 1_554
Pr0 Se2 3.032880 1_565
Pr1 Se0 2.987686 1_554
Pr1 Se0 2.987686 1_565
Pr1 Se2 2.999652 1_555
Pr1 Se2 2.999652 1_454
Pr1 Se1 3.032880 1_555
Pr1 Se1 3.032880 1_544
