# generated using pymatgen
data_Rb2YbTi(PO4)3
_symmetry_space_group_name_H-M   'P 1'
_cell_length_a   10.37016800
_cell_length_b   10.37016800
_cell_length_c   10.37016800
_cell_angle_alpha   90.00000000
_cell_angle_beta   90.00000000
_cell_angle_gamma   90.00000000
_symmetry_Int_Tables_number   1
_chemical_formula_structural   Rb2YbTi(PO4)3
_chemical_formula_sum   'Rb8 Yb4 Ti4 P12 O48'
_cell_volume   1115.21185248
_cell_formula_units_Z   4
loop_
 _symmetry_equiv_pos_site_id
 _symmetry_equiv_pos_as_xyz
  1  'x, y, z'
loop_
 _atom_site_type_symbol
 _atom_site_label
 _atom_site_symmetry_multiplicity
 _atom_site_fract_x
 _atom_site_fract_y
 _atom_site_fract_z
 _atom_site_occupancy
  Rb  Rb0  1  0.42321200  0.57678800  0.07678800  1
  Rb  Rb1  1  0.92321200  0.92321200  0.92321200  1
  Rb  Rb2  1  0.07678800  0.42321200  0.57678800  1
  Rb  Rb3  1  0.57678800  0.07678800  0.42321200  1
  Rb  Rb4  1  0.21011100  0.78988900  0.28988900  1
  Rb  Rb5  1  0.71011100  0.71011100  0.71011100  1
  Rb  Rb6  1  0.28988900  0.21011100  0.78988900  1
  Rb  Rb7  1  0.78988900  0.28988900  0.21011100  1
  Yb  Yb0  1  0.58370800  0.91629200  0.08370800  1
  Yb  Yb1  1  0.91629200  0.08370800  0.58370800  1
  Yb  Yb2  1  0.41629200  0.41629200  0.41629200  1
  Yb  Yb3  1  0.08370800  0.58370800  0.91629200  1
  Ti  Ti0  1  0.85647700  0.64352300  0.35647700  1
  Ti  Ti1  1  0.64352300  0.35647700  0.85647700  1
  Ti  Ti2  1  0.14352300  0.14352300  0.14352300  1
  Ti  Ti3  1  0.35647700  0.85647700  0.64352300  1
  P  P0  1  0.54739800  0.74186700  0.38727900  1
  P  P1  1  0.61272100  0.04739800  0.75813300  1
  P  P2  1  0.24186700  0.11272100  0.45260200  1
  P  P3  1  0.04739800  0.75813300  0.61272100  1
  P  P4  1  0.11272100  0.45260200  0.24186700  1
  P  P5  1  0.74186700  0.38727900  0.54739800  1
  P  P6  1  0.45260200  0.24186700  0.11272100  1
  P  P7  1  0.38727900  0.54739800  0.74186700  1
  P  P8  1  0.75813300  0.61272100  0.04739800  1
  P  P9  1  0.95260200  0.25813300  0.88727900  1
  P  P10  1  0.88727900  0.95260200  0.25813300  1
  P  P11  1  0.25813300  0.88727900  0.95260200  1
  O  O0  1  0.48186500  0.79592200  0.51350000  1
  O  O1  1  0.48650000  0.98186500  0.70407800  1
  O  O2  1  0.29592200  0.98650000  0.51813500  1
  O  O3  1  0.98186500  0.70407800  0.48650000  1
  O  O4  1  0.98650000  0.51813500  0.29592200  1
  O  O5  1  0.79592200  0.51350000  0.48186500  1
  O  O6  1  0.51813500  0.29592200  0.98650000  1
  O  O7  1  0.51350000  0.48186500  0.79592200  1
  O  O8  1  0.70407800  0.48650000  0.98186500  1
  O  O9  1  0.01813500  0.20407800  0.01350000  1
  O  O10  1  0.01350000  0.01813500  0.20407800  1
  O  O11  1  0.20407800  0.01350000  0.01813500  1
  O  O12  1  0.52059200  0.83873300  0.27988800  1
  O  O13  1  0.72011200  0.02059200  0.66126700  1
  O  O14  1  0.33873300  0.22011200  0.47940800  1
  O  O15  1  0.02059200  0.66126700  0.72011200  1
  O  O16  1  0.22011200  0.47940800  0.33873300  1
  O  O17  1  0.83873300  0.27988800  0.52059200  1
  O  O18  1  0.47940800  0.33873300  0.22011200  1
  O  O19  1  0.27988800  0.52059200  0.83873300  1
  O  O20  1  0.66126700  0.72011200  0.02059200  1
  O  O21  1  0.97940800  0.16126700  0.77988800  1
  O  O22  1  0.77988800  0.97940800  0.16126700  1
  O  O23  1  0.16126700  0.77988800  0.97940800  1
  O  O24  1  0.49224700  0.61009000  0.35530300  1
  O  O25  1  0.64469700  0.99224700  0.88991000  1
  O  O26  1  0.11008900  0.14469700  0.50775300  1
  O  O27  1  0.99224700  0.88991000  0.64469700  1
  O  O28  1  0.14469700  0.50775300  0.11008900  1
  O  O29  1  0.61009000  0.35530300  0.49224700  1
  O  O30  1  0.50775300  0.11008900  0.14469700  1
  O  O31  1  0.35530300  0.49224700  0.61009000  1
  O  O32  1  0.88991000  0.64469700  0.99224700  1
  O  O33  1  0.00775300  0.38991000  0.85530300  1
  O  O34  1  0.85530300  0.00775300  0.38991000  1
  O  O35  1  0.38991000  0.85530300  0.00775300  1
  O  O36  1  0.69688100  0.73477300  0.41433900  1
  O  O37  1  0.58566100  0.19688100  0.76522700  1
  O  O38  1  0.23477300  0.08566100  0.30311900  1
  O  O39  1  0.19688100  0.76522700  0.58566100  1
  O  O40  1  0.08566100  0.30311900  0.23477300  1
  O  O41  1  0.73477300  0.41433900  0.69688100  1
  O  O42  1  0.30311900  0.23477300  0.08566100  1
  O  O43  1  0.41433900  0.69688100  0.73477300  1
  O  O44  1  0.76522700  0.58566100  0.19688100  1
  O  O45  1  0.80311900  0.26522700  0.91433900  1
  O  O46  1  0.91433900  0.80311900  0.26522700  1
  O  O47  1  0.26522700  0.91433900  0.80311900  1
loop_
_geom_bond_atom_site_label_1
_geom_bond_atom_site_label_2
_geom_bond_distance
_geom_bond_site_symmetry_2
O0 P0 1.577775 1_555
O0 Ti3 1.975647 1_555
O0 Rb3 3.213882 1_565
O0 Rb5 3.248291 1_555
O1 P1 1.577775 1_565
O1 Ti3 1.975647 1_555
O1 Rb3 3.213882 1_565
O1 Rb6 3.248291 1_565
O2 P2 1.577775 1_565
O2 Ti3 1.975647 1_555
O2 Rb3 3.213882 1_565
O2 Rb4 3.248291 1_555
O3 P3 1.577775 1_655
O3 Ti0 1.975647 1_555
O3 Rb2 3.213882 1_655
O3 Rb4 3.248291 1_655
O4 P4 1.577775 1_655
O4 Ti0 1.975647 1_555
O4 Rb2 3.213882 1_655
O4 Rb7 3.248291 1_555
O5 P5 1.577775 1_555
O5 Ti0 1.975647 1_555
O5 Rb2 3.213882 1_655
O5 Rb5 3.248291 1_555
O6 P6 1.577775 1_556
O6 Ti1 1.975647 1_555
O6 Rb0 3.213882 1_556
O6 Rb6 3.248291 1_555
O7 P7 1.577775 1_555
O7 Ti1 1.975647 1_555
O7 Rb0 3.213882 1_556
O7 Rb5 3.248291 1_555
O8 P8 1.577775 1_556
O8 Ti1 1.975647 1_555
O8 Rb0 3.213882 1_556
O8 Rb7 3.248291 1_556
O9 P9 1.577775 1_454
O9 Ti2 1.975647 1_555
O9 Rb1 3.213882 1_444
O9 Rb7 3.248291 1_455
O10 P10 1.577775 1_445
O10 Ti2 1.975647 1_555
O10 Rb1 3.213882 1_444
O10 Rb4 3.248291 1_545
O11 P11 1.577775 1_544
O11 Ti2 1.975647 1_555
O11 Rb1 3.213882 1_444
O11 Rb6 3.248291 1_554
O12 P0 1.525311 1_555
O12 Yb0 2.283454 1_555
O12 Rb3 2.939900 1_565
O12 Rb4 3.260988 1_555
O13 P1 1.525311 1_555
O13 Yb1 2.283454 1_555
O13 Rb3 2.939900 1_555
O13 Rb5 3.260988 1_545
O14 P2 1.525311 1_555
O14 Yb2 2.283454 1_555
O14 Rb3 2.939900 1_555
O14 Rb6 3.260988 1_555
O15 P3 1.525311 1_555
O15 Yb3 2.283454 1_555
O15 Rb2 2.939900 1_555
O15 Rb5 3.260988 1_455
O16 P4 1.525311 1_555
O16 Yb2 2.283454 1_555
O16 Rb2 2.939900 1_555
O16 Rb4 3.260988 1_555
O17 P5 1.525311 1_555
O17 Yb1 2.283454 1_555
O17 Rb2 2.939900 1_655
O17 Rb7 3.260988 1_555
O18 P6 1.525311 1_555
O18 Yb2 2.283454 1_555
O18 Rb0 2.939900 1_555
O18 Rb7 3.260988 1_555
O19 P7 1.525311 1_555
O19 Yb3 2.283454 1_555
O19 Rb0 2.939900 1_556
O19 Rb6 3.260988 1_555
O20 P8 1.525311 1_555
O20 Yb0 2.283454 1_555
O20 Rb0 2.939900 1_555
O20 Rb5 3.260988 1_554
O21 P9 1.525311 1_555
O21 Yb1 2.283454 1_555
O21 Rb1 2.939900 1_545
O21 Rb6 3.260988 1_655
O22 P10 1.525311 1_555
O22 Yb0 2.283454 1_555
O22 Rb1 2.939900 1_554
O22 Rb7 3.260988 1_565
O23 P11 1.525311 1_555
O23 Yb3 2.283454 1_555
O23 Rb1 2.939900 1_455
O23 Rb4 3.260988 1_556
O24 P0 1.518062 1_555
O24 Yb2 2.249310 1_555
O24 Rb0 2.995623 1_555
O25 P1 1.518062 1_565
O25 Yb0 2.249310 1_556
O25 Rb1 2.995623 1_555
O26 P2 1.518071 1_555
O26 Yb1 2.249301 1_455
O26 Rb2 2.995622 1_555
O27 P3 1.518062 1_655
O27 Yb1 2.249310 1_565
O27 Rb1 2.995623 1_555
O28 P4 1.518071 1_555
O28 Yb3 2.249301 1_554
O28 Rb0 2.995622 1_555
O29 P5 1.518062 1_555
O29 Yb2 2.249310 1_555
O29 Rb3 2.995623 1_555
O30 P6 1.518071 1_555
O30 Yb0 2.249301 1_545
O30 Rb3 2.995622 1_555
O31 P7 1.518062 1_555
O31 Yb2 2.249310 1_555
O31 Rb2 2.995623 1_555
O32 P8 1.518062 1_556
O32 Yb3 2.249310 1_655
O32 Rb1 2.995623 1_555
O33 P9 1.518062 1_455
O33 Yb3 2.249310 1_555
O33 Rb2 2.995623 1_555
O34 P10 1.518062 1_545
O34 Yb1 2.249310 1_555
O34 Rb3 2.995623 1_555
O35 P11 1.518062 1_554
O35 Yb0 2.249310 1_555
O35 Rb0 2.995623 1_555
O36 P0 1.577075 1_555
O36 Ti0 1.998659 1_555
O36 Rb5 3.080906 1_555
O37 P1 1.577075 1_555
O37 Ti1 1.998659 1_555
O37 Rb6 3.080906 1_555
O38 P2 1.577075 1_555
O38 Ti2 1.998659 1_555
O38 Rb4 3.080906 1_545
O39 P3 1.577075 1_555
O39 Ti3 1.998659 1_555
O39 Rb4 3.080906 1_555
O40 P4 1.577075 1_555
O40 Ti2 1.998659 1_555
O40 Rb7 3.080906 1_455
O41 P5 1.577075 1_555
O41 Ti1 1.998659 1_555
O41 Rb5 3.080906 1_555
O42 P6 1.577075 1_555
O42 Ti2 1.998659 1_555
O42 Rb6 3.080906 1_554
O43 P7 1.577075 1_555
O43 Ti3 1.998659 1_555
O43 Rb5 3.080906 1_555
O44 P8 1.577075 1_555
O44 Ti0 1.998659 1_555
O44 Rb7 3.080906 1_555
O45 P9 1.577075 1_555
O45 Ti1 1.998659 1_555
O45 Rb7 3.080906 1_556
O46 P10 1.577075 1_555
O46 Ti0 1.998659 1_555
O46 Rb4 3.080906 1_655
O47 P11 1.577075 1_555
O47 Ti3 1.998659 1_555
O47 Rb6 3.080906 1_565
