# generated using pymatgen
data_Sr2Gd(FeO3)3
_symmetry_space_group_name_H-M   'P 1'
_cell_length_a   5.52533376
_cell_length_b   5.52533376
_cell_length_c   13.44443467
_cell_angle_alpha   89.94713349
_cell_angle_beta   89.94713349
_cell_angle_gamma   60.45212439
_symmetry_Int_Tables_number   1
_chemical_formula_structural   Sr2Gd(FeO3)3
_chemical_formula_sum   'Sr4 Gd2 Fe6 O18'
_cell_volume   357.06772214
_cell_formula_units_Z   2
loop_
 _symmetry_equiv_pos_site_id
 _symmetry_equiv_pos_as_xyz
  1  'x, y, z'
loop_
 _atom_site_type_symbol
 _atom_site_label
 _atom_site_symmetry_multiplicity
 _atom_site_fract_x
 _atom_site_fract_y
 _atom_site_fract_z
 _atom_site_occupancy
  Sr  Sr0  1  0.16961300  0.16358900  0.41564400  1
  Sr  Sr1  1  0.83641100  0.83038700  0.08435600  1
  Sr  Sr2  1  0.16358900  0.16961300  0.91564400  1
  Sr  Sr3  1  0.83038700  0.83641100  0.58435600  1
  Gd  Gd0  1  0.51064200  0.48935800  0.75000000  1
  Gd  Gd1  1  0.48935800  0.51064200  0.25000000  1
  Fe  Fe0  1  0.16788100  0.16493900  0.66604500  1
  Fe  Fe1  1  0.83211900  0.83506100  0.33395500  1
  Fe  Fe2  1  0.50000000  0.50000000  0.00000000  1
  Fe  Fe3  1  0.50000000  0.50000000  0.50000000  1
  Fe  Fe4  1  0.16493900  0.16788100  0.16604500  1
  Fe  Fe5  1  0.83506100  0.83211900  0.83395500  1
  O  O0  1  0.38830600  0.28646300  0.08770600  1
  O  O1  1  0.08685000  0.91315000  0.75000000  1
  O  O2  1  0.71353700  0.61169400  0.41229400  1
  O  O3  1  0.28646300  0.38830600  0.58770600  1
  O  O4  1  0.91315000  0.08685000  0.25000000  1
  O  O5  1  0.61169400  0.71353700  0.91229400  1
  O  O6  1  0.64941300  0.15109100  0.42408000  1
  O  O7  1  0.32207100  0.80211500  0.09919100  1
  O  O8  1  0.94823700  0.48314000  0.75780200  1
  O  O9  1  0.19788500  0.67792900  0.40080900  1
  O  O10  1  0.84890900  0.35058700  0.07592000  1
  O  O11  1  0.51686000  0.05176300  0.74219800  1
  O  O12  1  0.05176300  0.51686000  0.24219800  1
  O  O13  1  0.67792900  0.19788500  0.90080900  1
  O  O14  1  0.35058700  0.84890900  0.57592000  1
  O  O15  1  0.48314000  0.94823700  0.25780200  1
  O  O16  1  0.15109100  0.64941300  0.92408000  1
  O  O17  1  0.80211500  0.32207100  0.59919100  1
loop_
_geom_bond_atom_site_label_1
_geom_bond_atom_site_label_2
_geom_bond_distance
_geom_bond_site_symmetry_2
Gd0 O1 2.357576 1_555
Gd0 O8 2.403488 1_555
Gd0 O11 2.403488 1_555
Gd0 O13 2.467423 1_555
Gd0 O17 2.467423 1_555
Gd1 O4 2.357576 1_555
Gd1 O15 2.403488 1_555
Gd1 O12 2.403488 1_555
Gd1 O9 2.467423 1_555
Gd1 O7 2.467423 1_555
Fe0 O14 1.949208 1_545
Fe0 O3 1.963583 1_555
Fe0 O17 1.979224 1_455
Fe0 O11 1.992618 1_555
Fe0 O8 1.995635 1_455
Fe0 O1 2.005115 1_545
Fe1 O6 1.949208 1_565
Fe1 O2 1.963583 1_555
Fe1 O9 1.979224 1_655
Fe1 O15 1.992618 1_555
Fe1 O12 1.995635 1_655
Fe1 O4 2.005115 1_565
Fe2 O10 1.967810 1_555
Fe2 O16 1.967810 1_554
Fe2 O5 1.969168 1_554
Fe2 O0 1.969168 1_555
Fe2 O7 1.978510 1_555
Fe2 O13 1.978510 1_554
Fe3 O14 1.967810 1_555
Fe3 O6 1.967810 1_555
Fe3 O2 1.969168 1_555
Fe3 O3 1.969168 1_555
Fe3 O9 1.978510 1_555
Fe3 O17 1.978510 1_555
Fe4 O10 1.949208 1_455
Fe4 O0 1.963583 1_555
Fe4 O7 1.979224 1_545
Fe4 O12 1.992618 1_555
Fe4 O15 1.995635 1_545
Fe4 O4 2.005115 1_455
Fe5 O16 1.949208 1_655
Fe5 O5 1.963583 1_555
Fe5 O13 1.979224 1_565
Fe5 O8 1.992618 1_555
Fe5 O11 1.995635 1_565
Fe5 O1 2.005115 1_655
O0 Sr1 2.515694 1_545
O0 Sr2 2.847538 1_554
O0 Sr1 3.048619 1_455
O1 Sr2 2.783425 1_565
O1 Sr3 2.783425 1_455
O2 Sr0 2.515694 1_655
O2 Sr3 2.847538 1_555
O2 Sr0 3.048619 1_565
O3 Sr3 2.515694 1_455
O3 Sr0 2.847538 1_555
O3 Sr3 3.048619 1_545
O4 Sr1 2.783425 1_545
O4 Sr0 2.783425 1_655
O5 Sr2 2.515694 1_565
O5 Sr1 2.847538 1_556
O5 Sr2 3.048619 1_655
O6 Sr0 2.620249 1_555
O6 Sr3 2.636005 1_545
O6 Sr0 2.911058 1_655
O7 Sr1 2.617725 1_455
O7 Sr1 2.928708 1_555
O7 Sr2 3.036513 1_564
O8 Sr2 2.623920 1_655
O8 Sr3 2.900439 1_555
O9 Sr0 2.617725 1_565
O9 Sr0 2.928708 1_555
O9 Sr3 3.036513 1_455
O10 Sr1 2.620249 1_555
O10 Sr2 2.636005 1_654
O10 Sr1 2.911058 1_545
O11 Sr3 2.623920 1_545
O11 Sr2 2.900439 1_555
O12 Sr1 2.623920 1_455
O12 Sr0 2.900439 1_555
O13 Sr2 2.617725 1_655
O13 Sr2 2.928708 1_555
O13 Sr1 3.036513 1_546
O14 Sr3 2.620249 1_555
O14 Sr0 2.636005 1_565
O14 Sr3 2.911058 1_455
O15 Sr0 2.623920 1_565
O15 Sr1 2.900439 1_555
O16 Sr2 2.620249 1_555
O16 Sr1 2.636005 1_456
O16 Sr2 2.911058 1_565
O17 Sr3 2.617725 1_545
O17 Sr3 2.928708 1_555
O17 Sr0 3.036513 1_655
