# generated using pymatgen
data_TeH6S(NO5)2
_symmetry_space_group_name_H-M   'P 1'
_cell_length_a   6.75470000
_cell_length_b   11.72468500
_cell_length_c   14.22593651
_cell_angle_alpha   73.44498724
_cell_angle_beta   90.00000000
_cell_angle_gamma   90.00000000
_symmetry_Int_Tables_number   1
_chemical_formula_structural   TeH6S(NO5)2
_chemical_formula_sum   'Te4 H24 S4 N8 O40'
_cell_volume   1079.94426801
_cell_formula_units_Z   4
loop_
 _symmetry_equiv_pos_site_id
 _symmetry_equiv_pos_as_xyz
  1  'x, y, z'
loop_
 _atom_site_type_symbol
 _atom_site_label
 _atom_site_symmetry_multiplicity
 _atom_site_fract_x
 _atom_site_fract_y
 _atom_site_fract_z
 _atom_site_occupancy
  Te  Te0  1  0.00000000  0.50000000  0.50000000  1
  Te  Te1  1  0.50000000  0.00000000  0.50000000  1
  Te  Te2  1  0.00000000  0.00000000  0.00000000  1
  Te  Te3  1  0.50000000  0.50000000  0.00000000  1
  H  H0  1  0.00716400  0.66324100  0.58237300  1
  H  H1  1  0.99283600  0.33675900  0.41762700  1
  H  H2  1  0.50716400  0.83675900  0.41762700  1
  H  H3  1  0.49283600  0.16324100  0.58237300  1
  H  H4  1  0.76300800  0.90871700  0.13622300  1
  H  H5  1  0.23699200  0.09128300  0.86377700  1
  H  H6  1  0.26300800  0.59128300  0.86377700  1
  H  H7  1  0.73699200  0.40871700  0.13622300  1
  H  H8  1  0.31570100  0.90995800  0.07004600  1
  H  H9  1  0.68429900  0.09004200  0.92995400  1
  H  H10  1  0.81570100  0.59004200  0.92995400  1
  H  H11  1  0.18429900  0.40995800  0.07004600  1
  H  H12  1  0.79289900  0.62877200  0.36826200  1
  H  H13  1  0.20710100  0.37122800  0.63173800  1
  H  H14  1  0.29289900  0.87122800  0.63173800  1
  H  H15  1  0.70710100  0.12877200  0.36826200  1
  H  H16  1  0.44114900  0.64042900  0.10019400  1
  H  H17  1  0.55885100  0.35957100  0.89980600  1
  H  H18  1  0.94114900  0.85957100  0.89980600  1
  H  H19  1  0.05885100  0.14042900  0.10019400  1
  H  H20  1  0.74897200  0.86568400  0.60361500  1
  H  H21  1  0.25102800  0.13431600  0.39638500  1
  H  H22  1  0.24897200  0.63431600  0.39638500  1
  H  H23  1  0.75102800  0.36568400  0.60361500  1
  S  S0  1  0.49293900  0.76581800  0.24872600  1
  S  S1  1  0.50706100  0.23418200  0.75127400  1
  S  S2  1  0.99293900  0.73418200  0.75127400  1
  S  S3  1  0.00706100  0.26581800  0.24872600  1
  N  N0  1  0.97239500  0.65818800  0.14627500  1
  N  N1  1  0.02760500  0.34181200  0.85372500  1
  N  N2  1  0.47239500  0.84181200  0.85372500  1
  N  N3  1  0.52760500  0.15818800  0.14627500  1
  N  N4  1  0.49875100  0.40576500  0.35161800  1
  N  N5  1  0.50124900  0.59423500  0.64838200  1
  N  N6  1  0.99875100  0.09423500  0.64838200  1
  N  N7  1  0.00124900  0.90576500  0.35161800  1
  O  O0  1  0.41709000  0.85710200  0.46642900  1
  O  O1  1  0.58291000  0.14289800  0.53357100  1
  O  O2  1  0.91709000  0.64289800  0.53357100  1
  O  O3  1  0.08291000  0.35710200  0.46642900  1
  O  O4  1  0.73191200  0.60032100  0.98401500  1
  O  O5  1  0.26808800  0.39967900  0.01598500  1
  O  O6  1  0.23191200  0.89967900  0.01598500  1
  O  O7  1  0.76808800  0.10032100  0.98401500  1
  O  O8  1  0.78139600  0.75827300  0.72074800  1
  O  O9  1  0.21860400  0.24172700  0.27925200  1
  O  O10  1  0.28139600  0.74172700  0.27925200  1
  O  O11  1  0.71860400  0.25827300  0.72074800  1
  O  O12  1  0.89544600  0.56760300  0.36931300  1
  O  O13  1  0.10455400  0.43239700  0.63068700  1
  O  O14  1  0.39544600  0.93239700  0.63068700  1
  O  O15  1  0.60455400  0.06760300  0.36931300  1
  O  O16  1  0.61818800  0.76429300  0.33401400  1
  O  O17  1  0.38181200  0.23570700  0.66598600  1
  O  O18  1  0.11818800  0.73570700  0.66598600  1
  O  O19  1  0.88181200  0.26429300  0.33401400  1
  O  O20  1  0.91111700  0.90897100  0.13165900  1
  O  O21  1  0.08888300  0.09102900  0.86834100  1
  O  O22  1  0.41111700  0.59102900  0.86834100  1
  O  O23  1  0.58888300  0.40897100  0.13165900  1
  O  O24  1  0.76109000  0.93213100  0.54123300  1
  O  O25  1  0.23891000  0.06786900  0.45876700  1
  O  O26  1  0.26109000  0.56786900  0.45876700  1
  O  O27  1  0.73891000  0.43213100  0.54123300  1
  O  O28  1  0.51026100  0.87907600  0.17013900  1
  O  O29  1  0.48973900  0.12092400  0.82986100  1
  O  O30  1  0.01026100  0.62092400  0.82986100  1
  O  O31  1  0.98973900  0.37907600  0.17013900  1
  O  O32  1  0.54897900  0.66466100  0.20895200  1
  O  O33  1  0.45102100  0.33533900  0.79104800  1
  O  O34  1  0.04897900  0.83533900  0.79104800  1
  O  O35  1  0.95102100  0.16466100  0.20895200  1
  O  O36  1  0.35527700  0.60661300  0.05771500  1
  O  O37  1  0.64472300  0.39338700  0.94228500  1
  O  O38  1  0.85527700  0.89338700  0.94228500  1
  O  O39  1  0.14472300  0.10661300  0.05771500  1
loop_
_geom_bond_atom_site_label_1
_geom_bond_atom_site_label_2
_geom_bond_distance
_geom_bond_site_symmetry_2
H0 O2 1.001709 1_455
H1 O3 1.001709 1_655
H2 O0 1.001709 1_555
H3 O1 1.001709 1_555
H4 O20 1.002486 1_555
H5 O21 1.002486 1_555
H6 O22 1.002486 1_555
H7 O23 1.002486 1_555
H8 O6 0.989511 1_555
H9 O7 0.989511 1_555
H10 O4 0.989511 1_555
H11 O5 0.989511 1_555
H12 O12 0.994117 1_555
H13 O13 0.994117 1_555
H14 O14 0.994117 1_555
H15 O15 0.994117 1_555
H16 O36 0.997680 1_555
H17 O37 0.997680 1_555
H18 O38 0.997680 1_555
H19 O39 0.997680 1_555
H20 O24 1.003597 1_555
H21 O25 1.003597 1_555
H22 O26 1.003597 1_555
H23 O27 1.003597 1_555
O0 Te1 1.950585 1_565
O1 Te1 1.950585 1_555
O2 Te0 1.950585 1_655
O3 Te0 1.950585 1_555
O4 Te3 1.933059 1_556
O5 Te3 1.933059 1_555
O6 Te2 1.933059 1_565
O7 Te2 1.933059 1_656
O8 S2 1.496746 1_555
O9 S3 1.496746 1_555
O10 S0 1.496746 1_555
O11 S1 1.496746 1_555
O12 Te0 1.934857 1_655
O13 Te0 1.934857 1_555
O14 Te1 1.934857 1_565
O15 Te1 1.934857 1_555
O16 S0 1.475062 1_555
O17 S1 1.475062 1_555
O18 S2 1.475062 1_455
O19 S3 1.475062 1_655
O20 Te2 1.966827 1_665
O21 Te2 1.966827 1_556
O22 Te3 1.966827 1_556
O23 Te3 1.966827 1_555
O24 Te1 1.954869 1_565
O25 Te1 1.954869 1_555
O26 Te0 1.954869 1_555
O27 Te0 1.954869 1_655
O28 S0 1.476786 1_555
O29 S1 1.476786 1_555
O30 S2 1.476786 1_455
O31 S3 1.476786 1_655
O32 S0 1.500850 1_555
O33 S1 1.500850 1_555
O34 S2 1.500850 1_455
O35 S3 1.500850 1_655
O36 Te3 1.943483 1_555
O37 Te3 1.943483 1_556
O38 Te2 1.943483 1_666
O39 Te2 1.943483 1_555
