# generated using pymatgen
data_SmCo5P3
_symmetry_space_group_name_H-M   'P 1'
_cell_length_a   3.67441494
_cell_length_b   10.26544820
_cell_length_c   11.71261155
_cell_angle_alpha   90.00000000
_cell_angle_beta   90.00000000
_cell_angle_gamma   90.00000000
_symmetry_Int_Tables_number   1
_chemical_formula_structural   SmCo5P3
_chemical_formula_sum   'Sm4 Co20 P12'
_cell_volume   441.79404148
_cell_formula_units_Z   4
loop_
 _symmetry_equiv_pos_site_id
 _symmetry_equiv_pos_as_xyz
  1  'x, y, z'
loop_
 _atom_site_type_symbol
 _atom_site_label
 _atom_site_symmetry_multiplicity
 _atom_site_fract_x
 _atom_site_fract_y
 _atom_site_fract_z
 _atom_site_occupancy
  Sm  Sm0  1  0.25000000  0.58261552  0.70080466  1
  Sm  Sm1  1  0.25000000  0.91738448  0.20080466  1
  Sm  Sm2  1  0.75000000  0.41738448  0.29919534  1
  Sm  Sm3  1  0.75000000  0.08261552  0.79919534  1
  Co  Co0  1  0.25000000  0.70952791  0.98824932  1
  Co  Co1  1  0.25000000  0.79047209  0.48824932  1
  Co  Co2  1  0.75000000  0.29047209  0.01175068  1
  Co  Co3  1  0.75000000  0.20952791  0.51175068  1
  Co  Co4  1  0.25000000  0.40437562  0.48869141  1
  Co  Co5  1  0.25000000  0.09562438  0.98869141  1
  Co  Co6  1  0.75000000  0.59562438  0.51130859  1
  Co  Co7  1  0.75000000  0.90437562  0.01130859  1
  Co  Co8  1  0.25000000  0.22099537  0.17476902  1
  Co  Co9  1  0.25000000  0.27900463  0.67476902  1
  Co  Co10  1  0.75000000  0.77900463  0.82523098  1
  Co  Co11  1  0.75000000  0.72099537  0.32523098  1
  Co  Co12  1  0.25000000  0.88280386  0.69737951  1
  Co  Co13  1  0.25000000  0.61719614  0.19737951  1
  Co  Co14  1  0.75000000  0.11719614  0.30262049  1
  Co  Co15  1  0.75000000  0.38280386  0.80262049  1
  Co  Co16  1  0.25000000  0.46768346  0.93376901  1
  Co  Co17  1  0.25000000  0.03231654  0.43376901  1
  Co  Co18  1  0.75000000  0.53231654  0.06623099  1
  Co  Co19  1  0.75000000  0.96768346  0.56623099  1
  P  P0  1  0.25000000  0.41939853  0.11218858  1
  P  P1  1  0.25000000  0.08060147  0.61218858  1
  P  P2  1  0.75000000  0.58060147  0.88781142  1
  P  P3  1  0.75000000  0.91939853  0.38781142  1
  P  P4  1  0.25000000  0.27435682  0.86664698  1
  P  P5  1  0.25000000  0.22564318  0.36664698  1
  P  P6  1  0.75000000  0.72564318  0.13335302  1
  P  P7  1  0.75000000  0.77435682  0.63335302  1
  P  P8  1  0.25000000  0.60406474  0.39361383  1
  P  P9  1  0.25000000  0.89593526  0.89361383  1
  P  P10  1  0.75000000  0.39593526  0.60638617  1
  P  P11  1  0.75000000  0.10406474  0.10638617  1
loop_
_geom_bond_atom_site_label_1
_geom_bond_atom_site_label_2
_geom_bond_distance
_geom_bond_site_symmetry_2
Co0 P9 2.211404 1_555
Co0 P6 2.508216 1_456
Co0 P6 2.508216 1_556
Co0 P2 2.551636 1_455
Co0 P2 2.551636 1_555
Co0 Sm1 3.278849 1_556
Co1 P8 2.211404 1_555
Co1 P7 2.508216 1_455
Co1 P7 2.508216 1_555
Co1 P3 2.551636 1_555
Co1 P3 2.551636 1_455
Co1 Sm0 3.278849 1_555
Co2 P11 2.211404 1_555
Co2 P4 2.508216 1_654
Co2 P4 2.508216 1_554
Co2 P0 2.551636 1_555
Co2 P0 2.551636 1_655
Co2 Sm3 3.278849 1_554
Co3 P10 2.211404 1_555
Co3 P5 2.508216 1_555
Co3 P5 2.508216 1_655
Co3 P1 2.551636 1_655
Co3 P1 2.551636 1_555
Co3 Sm2 3.278849 1_555
Co4 P10 2.298507 1_555
Co4 P10 2.298507 1_455
Co4 P5 2.325882 1_555
Co4 P8 2.332853 1_555
Co4 Sm2 2.884323 1_455
Co4 Sm2 2.884323 1_555
Co4 Sm0 3.085465 1_555
Co5 P11 2.298507 1_456
Co5 P11 2.298507 1_556
Co5 P4 2.325882 1_555
Co5 P9 2.332853 1_545
Co5 Sm3 2.884323 1_455
Co5 Sm3 2.884323 1_555
Co5 Sm1 3.085465 1_546
Co6 P8 2.298507 1_555
Co6 P8 2.298507 1_655
Co6 P7 2.325882 1_555
Co6 P10 2.332853 1_555
Co6 Sm0 2.884323 1_555
Co6 Sm0 2.884323 1_655
Co6 Sm2 3.085465 1_555
Co7 P9 2.298507 1_554
Co7 P9 2.298507 1_654
Co7 P6 2.325882 1_555
Co7 P11 2.332853 1_565
Co7 Sm1 2.884323 1_555
Co7 Sm1 2.884323 1_655
Co7 Sm3 3.085465 1_564
Co8 P0 2.164578 1_555
Co8 P5 2.247898 1_555
Co8 P11 2.336165 1_455
Co8 P11 2.336165 1_555
Co8 Sm2 3.092502 1_455
Co8 Sm2 3.092502 1_555
Co8 Sm1 3.131585 1_545
Co9 P1 2.164578 1_555
Co9 P4 2.247898 1_555
Co9 P10 2.336165 1_455
Co9 P10 2.336165 1_555
Co9 Sm3 3.092502 1_455
Co9 Sm3 3.092502 1_555
Co9 Sm0 3.131585 1_555
Co10 P2 2.164578 1_555
Co10 P7 2.247898 1_555
Co10 P9 2.336165 1_655
Co10 P9 2.336165 1_555
Co10 Sm0 3.092502 1_655
Co10 Sm0 3.092502 1_555
Co10 Sm3 3.131585 1_565
Co11 P3 2.164578 1_555
Co11 P6 2.247898 1_555
Co11 P8 2.336165 1_555
Co11 P8 2.336165 1_655
Co11 Sm1 3.092502 1_655
Co11 Sm1 3.092502 1_555
Co11 Sm2 3.131585 1_555
Co12 P1 2.262405 1_565
Co12 P7 2.275313 1_455
Co12 P7 2.275313 1_555
Co12 P9 2.302366 1_555
Co12 Sm3 3.000783 1_565
Co12 Sm3 3.000783 1_465
Co12 Sm0 3.081829 1_555
Co13 P0 2.262405 1_555
Co13 P6 2.275313 1_455
Co13 P6 2.275313 1_555
Co13 P8 2.302366 1_555
Co13 Sm2 3.000783 1_455
Co13 Sm2 3.000783 1_555
Co13 Sm1 3.081829 1_555
Co14 P3 2.262405 1_545
Co14 P5 2.275313 1_555
Co14 P5 2.275313 1_655
Co14 P11 2.302366 1_555
Co14 Sm1 3.000783 1_645
Co14 Sm1 3.000783 1_545
Co14 Sm2 3.081829 1_555
Co15 P2 2.262405 1_555
Co15 P4 2.275313 1_555
Co15 P4 2.275313 1_655
Co15 P10 2.302366 1_555
Co15 Sm0 3.000783 1_655
Co15 Sm0 3.000783 1_555
Co15 Sm3 3.081829 1_555
Co16 P4 2.134630 1_555
Co16 P0 2.147738 1_556
Co16 P2 2.238017 1_555
Co16 P2 2.238017 1_455
Co16 Sm0 2.972771 1_555
Co17 P5 2.134630 1_555
Co17 P1 2.147738 1_555
Co17 P3 2.238017 1_545
Co17 P3 2.238017 1_445
Co17 Sm1 2.972771 1_545
Co18 P6 2.134630 1_555
Co18 P2 2.147738 1_554
Co18 P0 2.238017 1_555
Co18 P0 2.238017 1_655
Co18 Sm2 2.972771 1_555
Co19 P7 2.134630 1_555
Co19 P3 2.147738 1_555
Co19 P1 2.238017 1_665
Co19 P1 2.238017 1_565
Co19 Sm3 2.972771 1_565
P0 Sm2 2.858905 1_455
P0 Sm2 2.858905 1_555
P1 Sm3 2.858905 1_555
P1 Sm3 2.858905 1_455
P2 Sm0 2.858905 1_555
P2 Sm0 2.858905 1_655
P3 Sm1 2.858905 1_655
P3 Sm1 2.858905 1_555
P4 Sm3 2.806017 1_455
P4 Sm3 2.806017 1_555
P5 Sm2 2.806017 1_455
P5 Sm2 2.806017 1_555
P6 Sm1 2.806017 1_555
P6 Sm1 2.806017 1_655
P7 Sm0 2.806017 1_655
P7 Sm0 2.806017 1_555
P8 Sm2 2.875889 1_555
P8 Sm2 2.875889 1_455
P9 Sm3 2.875889 1_565
P9 Sm3 2.875889 1_465
P10 Sm0 2.875889 1_655
P10 Sm0 2.875889 1_555
P11 Sm1 2.875889 1_545
P11 Sm1 2.875889 1_645
