# generated using pymatgen
data_MgSi2
_symmetry_space_group_name_H-M   'P 1'
_cell_length_a   4.53985600
_cell_length_b   5.12619648
_cell_length_c   9.62521228
_cell_angle_alpha   87.82152733
_cell_angle_beta   89.01459290
_cell_angle_gamma   65.27488437
_symmetry_Int_Tables_number   1
_chemical_formula_structural   MgSi2
_chemical_formula_sum   'Mg4 Si8'
_cell_volume   203.31734733
_cell_formula_units_Z   4
loop_
 _symmetry_equiv_pos_site_id
 _symmetry_equiv_pos_as_xyz
  1  'x, y, z'
loop_
 _atom_site_type_symbol
 _atom_site_label
 _atom_site_symmetry_multiplicity
 _atom_site_fract_x
 _atom_site_fract_y
 _atom_site_fract_z
 _atom_site_occupancy
  Mg  Mg0  1  0.09687900  0.29789800  0.88870400  1
  Mg  Mg1  1  0.90312100  0.70210200  0.11129600  1
  Mg  Mg2  1  0.74987500  0.99683400  0.39097200  1
  Mg  Mg3  1  0.25012500  0.00316600  0.60902800  1
  Si  Si0  1  0.60695300  0.29586200  0.09097300  1
  Si  Si1  1  0.39304700  0.70413800  0.90902700  1
  Si  Si2  1  0.53358700  0.41771800  0.69842100  1
  Si  Si3  1  0.06357200  0.37657400  0.37659200  1
  Si  Si4  1  0.78232900  0.93749600  0.82566100  1
  Si  Si5  1  0.21767100  0.06250400  0.17433900  1
  Si  Si6  1  0.46641300  0.58228200  0.30157900  1
  Si  Si7  1  0.93642800  0.62342600  0.62340800  1
loop_
_geom_bond_atom_site_label_1
_geom_bond_atom_site_label_2
_geom_bond_distance
_geom_bond_site_symmetry_2
Mg0 Si1 2.765990 1_545
Mg0 Si4 2.853533 1_445
Mg0 Mg1 2.899196 1_456
Mg0 Si2 2.910437 1_555
Mg0 Si7 2.925567 1_455
Mg0 Si5 2.926008 1_556
Mg0 Si1 2.926615 1_555
Mg0 Si0 2.933672 1_456
Mg0 Si4 2.945503 1_545
Mg0 Si1 3.004657 1_455
Mg0 Si2 3.005483 1_455
Mg0 Si4 3.019805 1_455
Mg0 Si0 3.047303 1_556
Mg0 Mg3 3.062472 1_555
Mg1 Si0 2.765990 1_565
Mg1 Si5 2.853533 1_665
Mg1 Si6 2.910437 1_555
Mg1 Si3 2.925567 1_655
Mg1 Si4 2.926008 1_554
Mg1 Si0 2.926615 1_555
Mg1 Si1 2.933672 1_654
Mg1 Si5 2.945503 1_565
Mg1 Si0 3.004657 1_655
Mg1 Si6 3.005483 1_655
Mg1 Si5 3.019805 1_655
Mg1 Si1 3.047303 1_554
Mg1 Mg2 3.062472 1_555
Mg2 Si7 2.787477 1_555
Mg2 Si6 2.830926 1_565
Mg2 Si3 2.851050 1_665
Mg2 Si3 2.897544 1_655
Mg2 Si3 2.904630 1_565
Mg2 Mg3 3.055057 1_565
Mg2 Si5 3.060020 1_665
Mg2 Si6 3.062204 1_555
Mg2 Si5 3.120630 1_565
Mg2 Mg3 3.129646 1_665
Mg2 Si0 3.163005 1_565
Mg2 Si6 3.177751 1_655
Mg3 Si3 2.787477 1_555
Mg3 Si2 2.830926 1_545
Mg3 Si7 2.851050 1_445
Mg3 Si7 2.897544 1_455
Mg3 Si7 2.904630 1_545
Mg3 Si4 3.060020 1_445
Mg3 Si2 3.062204 1_555
Mg3 Si4 3.120630 1_545
Mg3 Si1 3.163005 1_545
Mg3 Si2 3.177751 1_455
Si0 Si6 2.463780 1_555
Si0 Si1 2.543597 1_554
Si0 Si5 2.616277 1_555
Si0 Si5 2.644064 1_655
Si1 Si2 2.463780 1_555
Si1 Si4 2.616277 1_555
Si1 Si4 2.644064 1_455
Si2 Si4 2.515562 1_545
Si2 Si7 2.547134 1_555
Si2 Si7 2.569218 1_455
Si3 Si5 2.473955 1_555
Si3 Si6 2.547134 1_555
Si3 Si6 2.569218 1_455
Si3 Si7 2.673678 1_455
Si4 Si7 2.473955 1_555
Si5 Si6 2.515562 1_545
