# generated using pymatgen
data_Ca2Mn3O8
_symmetry_space_group_name_H-M   'P 1'
_cell_length_a   4.93986074
_cell_length_b   5.83092211
_cell_length_c   6.24089209
_cell_angle_alpha   117.85103714
_cell_angle_beta   107.27986571
_cell_angle_gamma   89.99659755
_symmetry_Int_Tables_number   1
_chemical_formula_structural   Ca2Mn3O8
_chemical_formula_sum   'Ca2 Mn3 O8'
_cell_volume   149.70349077
_cell_formula_units_Z   1
loop_
 _symmetry_equiv_pos_site_id
 _symmetry_equiv_pos_as_xyz
  1  'x, y, z'
loop_
 _atom_site_type_symbol
 _atom_site_label
 _atom_site_symmetry_multiplicity
 _atom_site_fract_x
 _atom_site_fract_y
 _atom_site_fract_z
 _atom_site_occupancy
  Ca  Ca0  1  0.66673165  0.72504506  0.45011147  1
  Ca  Ca1  1  0.33326735  0.27495594  0.54988853  1
  Mn  Mn0  1  0.50000000  0.99999900  0.00000000  1
  Mn  Mn1  1  -0.00001028  0.74098758  0.00003807  1
  Mn  Mn2  1  0.00000828  0.25901242  0.99996193  1
  O  O0  1  0.04166981  0.39738600  0.79474790  1
  O  O1  1  0.95833019  0.60261300  0.20525210  1
  O  O2  1  0.09824390  0.90364149  0.80731408  1
  O  O3  1  0.90175610  0.09635751  0.19268492  1
  O  O4  1  0.39106926  0.32237803  0.19985000  1
  O  O5  1  0.39109765  0.87751162  0.19987132  1
  O  O6  1  0.60890335  0.12248738  0.80012868  1
  O  O7  1  0.60893174  0.67762197  0.80015000  1
loop_
_geom_bond_atom_site_label_1
_geom_bond_atom_site_label_2
_geom_bond_distance
_geom_bond_site_symmetry_2
Ca0 O4 2.262068 1_555
Ca0 O5 2.262103 1_555
Ca0 O1 2.282113 1_555
Ca0 O2 2.367699 1_655
Ca0 O6 2.421688 1_565
Ca0 O7 2.421824 1_555
Ca1 O7 2.262068 1_555
Ca1 O6 2.262116 1_555
Ca1 O0 2.282109 1_555
Ca1 O3 2.367699 1_455
Ca1 O5 2.421698 1_545
Ca1 O4 2.421825 1_555
Mn0 O5 1.893820 1_555
Mn0 O6 1.893826 1_564
Mn0 O7 1.893848 1_554
Mn0 O4 1.893853 1_565
Mn0 O3 1.910891 1_565
Mn0 O2 1.910892 1_554
Mn1 O1 1.858953 1_455
Mn1 O0 1.859089 1_554
Mn1 O7 1.887393 1_454
Mn1 O5 1.887564 1_555
Mn1 O3 1.998362 1_465
Mn1 O2 1.998611 1_554
Mn2 O0 1.858951 1_555
Mn2 O1 1.859081 1_456
Mn2 O4 1.887405 1_556
Mn2 O6 1.887552 1_455
Mn2 O2 1.998371 1_545
Mn2 O3 1.998605 1_456
