# generated using pymatgen
data_Li7Mn2(CoO4)3
_symmetry_space_group_name_H-M   'P 1'
_cell_length_a   6.46642720
_cell_length_b   6.46642720
_cell_length_c   11.93363619
_cell_angle_alpha   76.87635099
_cell_angle_beta   76.87635099
_cell_angle_gamma   26.27025069
_symmetry_Int_Tables_number   1
_chemical_formula_structural   Li7Mn2(CoO4)3
_chemical_formula_sum   'Li7 Mn2 Co3 O12'
_cell_volume   214.77382168
_cell_formula_units_Z   1
loop_
 _symmetry_equiv_pos_site_id
 _symmetry_equiv_pos_as_xyz
  1  'x, y, z'
loop_
 _atom_site_type_symbol
 _atom_site_label
 _atom_site_symmetry_multiplicity
 _atom_site_fract_x
 _atom_site_fract_y
 _atom_site_fract_z
 _atom_site_occupancy
  Li  Li0  1  0.66746500  0.66746500  0.59513600  1
  Li  Li1  1  0.33652700  0.33652700  0.42536600  1
  Li  Li2  1  0.99827200  0.99827200  0.25469700  1
  Li  Li3  1  0.66979800  0.66979800  0.07007000  1
  Li  Li4  1  0.32587900  0.32587900  0.90945200  1
  Li  Li5  1  0.99975200  0.99975200  0.74513200  1
  Li  Li6  1  0.66897400  0.66897400  0.83369300  1
  Mn  Mn0  1  0.00591600  0.00591600  0.99495100  1
  Mn  Mn1  1  0.66661900  0.66661900  0.33332900  1
  Co  Co0  1  0.32591600  0.32591600  0.67281100  1
  Co  Co1  1  0.99802700  0.99802700  0.50438700  1
  Co  Co2  1  0.33516400  0.33516400  0.16335700  1
  O  O0  1  0.51226900  0.51226900  0.37065400  1
  O  O1  1  0.17103700  0.17103700  0.22058200  1
  O  O2  1  0.83849700  0.83849700  0.04938300  1
  O  O3  1  0.49782200  0.49782200  0.89264700  1
  O  O4  1  0.18098900  0.18098900  0.70342800  1
  O  O5  1  0.83244900  0.83244900  0.54960700  1
  O  O6  1  0.83426600  0.83426600  0.78203800  1
  O  O7  1  0.48723800  0.48723800  0.62745500  1
  O  O8  1  0.16988000  0.16988000  0.43946200  1
  O  O9  1  0.82766000  0.82766000  0.28379800  1
  O  O10  1  0.49551600  0.49551600  0.11337200  1
  O  O11  1  0.15406800  0.15406800  0.96519300  1
loop_
_geom_bond_atom_site_label_1
_geom_bond_atom_site_label_2
_geom_bond_distance
_geom_bond_site_symmetry_2
Li0 O4 1.990257 1_655
Li0 O4 1.990257 1_565
Li0 O5 2.021480 1_555
Li0 O7 2.211972 1_555
Li0 O8 2.363308 1_655
Li0 O8 2.363308 1_565
Li1 O8 2.066100 1_555
Li1 O5 2.079605 1_545
Li1 O5 2.079605 1_455
Li1 O0 2.156727 1_555
Li1 O9 2.261410 1_455
Li1 O9 2.261410 1_545
Li2 O0 2.054041 1_655
Li2 O0 2.054041 1_565
Li2 O9 2.095197 1_555
Li2 O1 2.118291 1_665
Li2 O10 2.243266 1_565
Li2 O10 2.243266 1_655
Li3 O11 1.969941 1_654
Li3 O11 1.969941 1_564
Li3 O2 2.081013 1_555
Li3 O10 2.134505 1_555
Li3 O1 2.323548 1_655
Li3 O1 2.323548 1_565
Li4 O6 2.099430 1_455
Li4 O6 2.099430 1_545
Li4 O11 2.110361 1_555
Li4 O3 2.127733 1_555
Li4 O2 2.257632 1_456
Li4 O2 2.257632 1_546
Li5 O6 2.027282 1_555
Li5 O7 2.063864 1_655
Li5 O7 2.063864 1_565
Li5 O4 2.219948 1_665
Li5 O3 2.288886 1_655
Li5 O3 2.288886 1_565
Li6 O6 2.028633 1_555
Li6 O3 2.105775 1_555
Li6 O4 2.118767 1_655
Li6 O4 2.118767 1_565
Li6 O11 2.125999 1_655
Li6 O11 2.125999 1_565
Mn0 O11 1.816234 1_555
Mn0 O3 1.928291 1_545
Mn0 O3 1.928291 1_455
Mn0 O10 2.021718 1_456
Mn0 O10 2.021718 1_546
Mn0 O2 2.056520 1_446
Mn1 O0 1.890400 1_555
Mn1 O8 1.946660 1_565
Mn1 O8 1.946660 1_655
Mn1 O9 1.975870 1_555
Mn1 O1 1.984412 1_565
Mn1 O1 1.984412 1_655
Co0 O4 1.775997 1_555
Co0 O7 1.976927 1_555
Co0 O6 1.983284 1_545
Co0 O6 1.983284 1_455
Co0 O5 2.066747 1_455
Co0 O5 2.066747 1_545
Co1 O5 2.028601 1_555
Co1 O7 2.059544 1_565
Co1 O7 2.059544 1_655
Co1 O8 2.122017 1_665
Co1 O0 2.145935 1_565
Co1 O0 2.145935 1_655
Co2 O10 1.967907 1_555
Co2 O2 1.996112 1_545
Co2 O2 1.996112 1_455
Co2 O1 2.020146 1_555
Co2 O9 2.042255 1_545
Co2 O9 2.042255 1_455
