# generated using pymatgen
data_MgFe10O9F11
_symmetry_space_group_name_H-M   'P 1'
_cell_length_a   4.80865916
_cell_length_b   4.84757889
_cell_length_c   15.91041176
_cell_angle_alpha   90.00000000
_cell_angle_beta   90.00000000
_cell_angle_gamma   95.97510277
_symmetry_Int_Tables_number   1
_chemical_formula_structural   MgFe10O9F11
_chemical_formula_sum   'Mg1 Fe10 O9 F11'
_cell_volume   368.86244650
_cell_formula_units_Z   1
loop_
 _symmetry_equiv_pos_site_id
 _symmetry_equiv_pos_as_xyz
  1  'x, y, z'
loop_
 _atom_site_type_symbol
 _atom_site_label
 _atom_site_symmetry_multiplicity
 _atom_site_fract_x
 _atom_site_fract_y
 _atom_site_fract_z
 _atom_site_occupancy
  Mg  Mg0  1  0.24444703  0.73327349  0.20000000  1
  Fe  Fe0  1  0.00541823  0.98224535  0.98494561  1
  Fe  Fe1  1  0.88975705  0.10145206  0.20000000  1
  Fe  Fe2  1  0.00541823  0.98224535  0.41505439  1
  Fe  Fe3  1  0.03448276  0.01185697  0.61452602  1
  Fe  Fe4  1  0.03448276  0.01185697  0.78547398  1
  Fe  Fe5  1  0.51846775  0.47810328  0.08549014  1
  Fe  Fe6  1  0.49776732  0.47769197  0.50021091  1
  Fe  Fe7  1  0.51846775  0.47810328  0.31450986  1
  Fe  Fe8  1  0.45943293  0.51496989  0.70000000  1
  Fe  Fe9  1  0.49776732  0.47769197  0.89978909  1
  O  O0  1  0.21116937  0.80091434  0.70000000  1
  O  O1  1  0.30002326  0.28162008  0.99222188  1
  O  O2  1  0.27649825  0.31229518  0.20000000  1
  O  O3  1  0.30002326  0.28162008  0.40777812  1
  O  O4  1  0.32036283  0.31957135  0.59984347  1
  O  O5  1  0.32036283  0.31957135  0.80015653  1
  O  O6  1  0.70949769  0.68704672  0.98914248  1
  O  O7  1  0.68231981  0.71267756  0.20000000  1
  O  O8  1  0.70949769  0.68704672  0.41085752  1
  F  F0  1  0.20208206  0.78915301  0.08290325  1
  F  F1  1  0.20208206  0.78915301  0.31709675  1
  F  F2  1  0.20614269  0.79847341  0.50750074  1
  F  F3  1  0.20614269  0.79847341  0.89249926  1
  F  F4  1  0.70861029  0.71100997  0.60225405  1
  F  F5  1  0.70861029  0.71100997  0.79774595  1
  F  F6  1  0.80060358  0.18433584  0.08130280  1
  F  F7  1  0.81246063  0.18530970  0.50673057  1
  F  F8  1  0.80060358  0.18433584  0.31869720  1
  F  F9  1  0.81246063  0.18530970  0.89326943  1
  F  F10  1  0.79620640  0.21991219  0.70000000  1
loop_
_geom_bond_atom_site_label_1
_geom_bond_atom_site_label_2
_geom_bond_distance
_geom_bond_site_symmetry_2
Mg0 O2 2.062473 1_555
Mg0 O7 2.118303 1_555
Mg0 O7 2.694515 1_455
Fe0 O6 1.911322 1_455
Fe0 O1 1.923121 1_565
Fe1 O2 2.026679 1_655
Fe1 O7 2.038477 1_545
Fe2 O8 1.911322 1_455
Fe2 O3 1.923121 1_565
Fe3 O4 1.934562 1_555
Fe3 O0 1.948787 1_545
Fe4 O5 1.934562 1_555
Fe4 O0 1.948787 1_545
Fe5 O1 2.001090 1_554
Fe5 O6 2.006464 1_554
Fe5 O7 2.246469 1_555
Fe5 O2 2.263735 1_555
Fe6 O4 1.921452 1_555
Fe6 O3 1.944791 1_555
Fe6 O8 1.967873 1_555
Fe7 O3 2.001090 1_555
Fe7 O8 2.006464 1_555
Fe7 O7 2.246469 1_555
Fe7 O2 2.263735 1_555
Fe8 O0 1.921221 1_555
Fe8 O4 1.936979 1_555
Fe8 O5 1.936979 1_555
Fe9 O5 1.921452 1_555
Fe9 O1 1.944791 1_555
Fe9 O6 1.967873 1_555
F0 Mg0 1.896668 1_555
F0 Fe0 2.093762 1_554
F0 Fe5 2.251110 1_555
F1 Mg0 1.896668 1_555
F1 Fe2 2.093762 1_555
F1 Fe7 2.251110 1_555
F2 Fe2 2.016853 1_555
F2 Fe3 2.197429 1_565
F2 Fe6 2.202730 1_555
F3 Fe0 2.016853 1_555
F3 Fe4 2.197429 1_565
F3 Fe9 2.202730 1_555
F4 Fe3 2.035862 1_665
F4 Fe8 2.126106 1_555
F4 Fe6 2.168947 1_555
F5 Fe4 2.035862 1_665
F5 Fe8 2.126106 1_555
F5 Fe9 2.168947 1_555
F6 Fe1 1.986856 1_555
F6 Fe5 2.067666 1_555
F6 Fe0 2.116819 1_644
F7 Fe2 2.036568 1_645
F7 Fe6 2.180848 1_555
F7 Fe3 2.230510 1_655
F8 Fe1 1.986856 1_555
F8 Fe7 2.067666 1_555
F8 Fe2 2.116819 1_645
F9 Fe0 2.036568 1_645
F9 Fe9 2.180848 1_555
F9 Fe4 2.230510 1_655
F10 Fe3 2.102385 1_655
F10 Fe4 2.102385 1_655
F10 Fe8 2.269491 1_555
