# generated using pymatgen
data_K3(MoO3)10
_symmetry_space_group_name_H-M   'P 1'
_cell_length_a   9.55653500
_cell_length_b   9.68994477
_cell_length_c   9.74778966
_cell_angle_alpha   111.93597077
_cell_angle_beta   100.82853432
_cell_angle_gamma   110.15705287
_symmetry_Int_Tables_number   1
_chemical_formula_structural   K3(MoO3)10
_chemical_formula_sum   'K3 Mo10 O30'
_cell_volume   732.23838366
_cell_formula_units_Z   1
loop_
 _symmetry_equiv_pos_site_id
 _symmetry_equiv_pos_as_xyz
  1  'x, y, z'
loop_
 _atom_site_type_symbol
 _atom_site_label
 _atom_site_symmetry_multiplicity
 _atom_site_fract_x
 _atom_site_fract_y
 _atom_site_fract_z
 _atom_site_occupancy
  K  K0  1  0.93308300  0.52874700  0.72333900  1
  K  K1  1  0.50000000  0.00000000  0.50000000  1
  K  K2  1  0.06691700  0.47125300  0.27666100  1
  Mo  Mo0  1  0.22088700  0.92010900  0.29871000  1
  Mo  Mo1  1  0.84065400  0.69224200  0.39726300  1
  Mo  Mo2  1  0.50641300  0.76071700  0.31476000  1
  Mo  Mo3  1  0.54042700  0.62244500  0.80018900  1
  Mo  Mo4  1  0.95098400  0.17460500  0.03688100  1
  Mo  Mo5  1  0.04901600  0.82539500  0.96311900  1
  Mo  Mo6  1  0.45957300  0.37755500  0.19981100  1
  Mo  Mo7  1  0.49358700  0.23928300  0.68524000  1
  Mo  Mo8  1  0.15934600  0.30775800  0.60273700  1
  Mo  Mo9  1  0.77911300  0.07989100  0.70129000  1
  O  O0  1  0.00787700  0.07544400  0.64511100  1
  O  O1  1  0.04356900  0.68169600  0.40817300  1
  O  O2  1  0.29075800  0.99558700  0.82662000  1
  O  O3  1  0.64312700  0.45731800  0.20976400  1
  O  O4  1  0.65548400  0.73768400  0.38052200  1
  O  O5  1  0.09051500  0.10410500  0.04803300  1
  O  O6  1  0.96994500  0.71884400  0.17791900  1
  O  O7  1  0.66973400  0.03613000  0.89505300  1
  O  O8  1  0.49583300  0.29981300  0.82538600  1
  O  O9  1  0.73071100  0.64970700  0.63536200  1
  O  O10  1  0.30931000  0.54174900  0.49949900  1
  O  O11  1  0.64631700  0.15221200  0.61331100  1
  O  O12  1  0.40370700  0.16833000  0.23782000  1
  O  O13  1  0.97084600  0.31801900  0.11099400  1
  O  O14  1  0.02915400  0.68198100  0.88900600  1
  O  O15  1  0.59629300  0.83167000  0.76218000  1
  O  O16  1  0.35368300  0.84778800  0.38668900  1
  O  O17  1  0.69069000  0.45825100  0.50050100  1
  O  O18  1  0.26928900  0.35029300  0.36463800  1
  O  O19  1  0.50416700  0.70018700  0.17461400  1
  O  O20  1  0.50000000  0.50000000  0.00000000  1
  O  O21  1  0.33026600  0.96387000  0.10494700  1
  O  O22  1  0.03005500  0.28115600  0.82208100  1
  O  O23  1  0.90948500  0.89589500  0.95196700  1
  O  O24  1  0.34451600  0.26231600  0.61947800  1
  O  O25  1  0.35687300  0.54268200  0.79023600  1
  O  O26  1  0.70924200  0.00441300  0.17338000  1
  O  O27  1  0.95643100  0.31830400  0.59182700  1
  O  O28  1  0.00000000  0.00000000  0.50000000  1
  O  O29  1  0.99212300  0.92455600  0.35488900  1
loop_
_geom_bond_atom_site_label_1
_geom_bond_atom_site_label_2
_geom_bond_distance
_geom_bond_site_symmetry_2
K0 O14 1.538625 1_655
K0 O27 2.078310 1_555
K0 O17 2.541865 1_555
K0 O9 2.745831 1_555
K1 O11 1.460052 1_555
K1 O16 1.460052 1_545
K1 Mo7 2.377345 1_555
K1 Mo2 2.377345 1_545
K2 O13 1.538625 1_455
K2 O1 2.078310 1_555
K2 O10 2.541865 1_555
K2 O18 2.745831 1_555
Mo0 O16 1.868190 1_555
Mo0 O6 2.222825 1_455
Mo0 O29 2.361845 1_455
Mo0 O21 2.423755 1_555
Mo1 O4 1.958098 1_555
Mo1 O1 1.961967 1_655
Mo1 O3 2.172419 1_555
Mo1 O29 2.450928 1_555
Mo1 O28 2.506189 1_665
Mo1 O9 2.827203 1_555
Mo2 O19 1.261900 1_555
Mo2 O4 1.572616 1_555
Mo2 O16 2.031022 1_555
Mo3 O25 1.621554 1_555
Mo3 O15 2.102889 1_555
Mo3 O9 2.653657 1_555
Mo3 O20 2.654057 1_556
Mo4 O13 1.227081 1_555
Mo4 O5 1.698635 1_655
Mo4 O7 2.380792 1_554
Mo5 O14 1.227081 1_555
Mo5 O23 1.698635 1_455
Mo5 O21 2.380792 1_556
Mo6 O3 1.621554 1_555
Mo6 O12 2.102889 1_555
Mo6 O18 2.653657 1_555
Mo6 O20 2.654057 1_555
Mo7 O8 1.261900 1_555
Mo7 O24 1.572616 1_555
Mo7 O11 2.031022 1_555
Mo8 O24 1.958098 1_555
Mo8 O27 1.961967 1_455
Mo8 O25 2.172419 1_555
Mo8 O0 2.450928 1_555
Mo8 O28 2.506189 1_555
Mo8 O18 2.827203 1_555
Mo9 O11 1.868190 1_555
Mo9 O22 2.222825 1_655
Mo9 O0 2.361845 1_655
Mo9 O7 2.423755 1_555
O0 O28 1.300156 1_555
O0 O22 1.999119 1_555
O10 O18 1.678130 1_555
O12 O21 1.696538 1_545
O15 O7 1.696538 1_565
O17 O9 1.678130 1_555
O19 O20 2.028791 1_555
O20 O8 2.028791 1_554
O28 O29 1.300156 1_445
O29 O6 1.999119 1_555
