# generated using pymatgen
data_V4CrFe3O16
_symmetry_space_group_name_H-M   'P 1'
_cell_length_a   6.77319015
_cell_length_b   6.77319015
_cell_length_c   6.95018730
_cell_angle_alpha   77.16013620
_cell_angle_beta   77.16013620
_cell_angle_gamma   84.26840178
_symmetry_Int_Tables_number   1
_chemical_formula_structural   V4CrFe3O16
_chemical_formula_sum   'V4 Cr1 Fe3 O16'
_cell_volume   302.67358241
_cell_formula_units_Z   1
loop_
 _symmetry_equiv_pos_site_id
 _symmetry_equiv_pos_as_xyz
  1  'x, y, z'
loop_
 _atom_site_type_symbol
 _atom_site_label
 _atom_site_symmetry_multiplicity
 _atom_site_fract_x
 _atom_site_fract_y
 _atom_site_fract_z
 _atom_site_occupancy
  V  V0  1  0.74967700  0.25032300  0.00000000  1
  V  V1  1  0.24970500  0.75029500  0.00000000  1
  V  V2  1  0.27273400  0.27109200  0.59779400  1
  V  V3  1  0.72890800  0.72726600  0.40220600  1
  Cr  Cr0  1  0.81923700  0.18076300  0.50000000  1
  Fe  Fe0  1  0.18653200  0.81346800  0.50000000  1
  Fe  Fe1  1  0.79394900  0.79457600  0.86443500  1
  Fe  Fe2  1  0.20542400  0.20605100  0.13556500  1
  O  O0  1  0.10864500  0.80007800  0.79959600  1
  O  O1  1  0.79880000  0.10891300  0.79984000  1
  O  O2  1  0.89108700  0.20120000  0.20016000  1
  O  O3  1  0.19992200  0.89135600  0.20040400  1
  O  O4  1  0.78880300  0.49764500  0.89051600  1
  O  O5  1  0.49699200  0.78918900  0.89074600  1
  O  O6  1  0.21081100  0.50300800  0.10925400  1
  O  O7  1  0.50235500  0.21119700  0.10948400  1
  O  O8  1  0.20186800  0.20233000  0.85743100  1
  O  O9  1  0.79767000  0.79813200  0.14256900  1
  O  O10  1  0.85905900  0.86281700  0.54149700  1
  O  O11  1  0.13718300  0.14094100  0.45850300  1
  O  O12  1  0.20640000  0.52168500  0.52622400  1
  O  O13  1  0.52290100  0.20697600  0.52603400  1
  O  O14  1  0.79302400  0.47709900  0.47396600  1
  O  O15  1  0.47831500  0.79360000  0.47377600  1
loop_
_geom_bond_atom_site_label_1
_geom_bond_atom_site_label_2
_geom_bond_distance
_geom_bond_site_symmetry_2
Cr0 O13 1.968390 1_555
Cr0 O14 1.968390 1_555
Cr0 O2 2.008311 1_555
Cr0 O1 2.008311 1_555
Cr0 O10 2.106191 1_545
Cr0 O11 2.106191 1_655
Fe0 O12 1.937726 1_555
Fe0 O15 1.937726 1_555
Fe0 O0 2.014866 1_555
Fe0 O3 2.014867 1_555
Fe0 O11 2.173715 1_565
Fe0 O10 2.173715 1_455
Fe1 O9 1.944349 1_556
Fe1 O4 1.981929 1_555
Fe1 O5 1.982046 1_555
Fe1 O1 2.078013 1_565
Fe1 O0 2.080679 1_655
Fe1 O10 2.141380 1_555
Fe2 O8 1.944349 1_554
Fe2 O7 1.981929 1_555
Fe2 O6 1.982046 1_555
Fe2 O2 2.078013 1_455
Fe2 O3 2.080673 1_545
Fe2 O11 2.141380 1_555
O0 V1 1.812437 1_556
O1 V0 1.812790 1_556
O2 V0 1.812790 1_555
O3 V1 1.812442 1_555
O4 V0 1.699386 1_556
O5 V1 1.698619 1_556
O6 V1 1.698619 1_555
O7 V0 1.699386 1_555
O8 V2 1.729094 1_555
O9 V3 1.729094 1_555
O10 V3 1.869025 1_555
O11 V2 1.869025 1_555
O12 V2 1.703507 1_555
O13 V2 1.697679 1_555
O14 V3 1.697679 1_555
O15 V3 1.703507 1_555
