# generated using pymatgen
data_Zr3S4
_symmetry_space_group_name_H-M   'P 1'
_cell_length_a   6.28629055
_cell_length_b   6.28629055
_cell_length_c   3.67311865
_cell_angle_alpha   90.00000000
_cell_angle_beta   90.00000000
_cell_angle_gamma   108.50316158
_symmetry_Int_Tables_number   1
_chemical_formula_structural   Zr3S4
_chemical_formula_sum   'Zr3 S4'
_cell_volume   137.64879746
_cell_formula_units_Z   1
loop_
 _symmetry_equiv_pos_site_id
 _symmetry_equiv_pos_as_xyz
  1  'x, y, z'
loop_
 _atom_site_type_symbol
 _atom_site_label
 _atom_site_symmetry_multiplicity
 _atom_site_fract_x
 _atom_site_fract_y
 _atom_site_fract_z
 _atom_site_occupancy
  Zr  Zr0  1  0.50000000  0.00000000  0.50000000  1
  Zr  Zr1  1  0.00000000  0.50000000  0.50000000  1
  Zr  Zr2  1  0.00000000  0.00000000  0.00000000  1
  S  S0  1  0.25312262  0.25312262  0.50000000  1
  S  S1  1  0.74687738  0.74687738  0.50000000  1
  S  S2  1  0.73991981  0.26008019  0.00000000  1
  S  S3  1  0.26008019  0.73991981  0.00000000  1
loop_
_geom_bond_atom_site_label_1
_geom_bond_atom_site_label_2
_geom_bond_distance
_geom_bond_site_symmetry_2
S0 Zr1 2.551049 1_555
S0 Zr0 2.551049 1_555
S0 Zr2 2.613379 1_555
S0 Zr2 2.613379 1_556
S1 Zr0 2.551049 1_565
S1 Zr1 2.551049 1_655
S1 Zr2 2.613379 1_666
S1 Zr2 2.613379 1_665
S2 Zr1 2.599148 1_655
S2 Zr1 2.599148 1_654
S2 Zr0 2.599148 1_555
S2 Zr0 2.599148 1_554
S2 Zr2 2.653802 1_655
S3 Zr0 2.599148 1_564
S3 Zr0 2.599148 1_565
S3 Zr1 2.599148 1_555
S3 Zr1 2.599148 1_554
S3 Zr2 2.653802 1_565
