# generated using pymatgen
data_Dy6Al43V4
_symmetry_space_group_name_H-M   'P 1'
_cell_length_a   11.00101076
_cell_length_b   11.00101076
_cell_length_c   17.68081200
_cell_angle_alpha   90.00000000
_cell_angle_beta   90.00000000
_cell_angle_gamma   120.00000455
_symmetry_Int_Tables_number   1
_chemical_formula_structural   Dy6Al43V4
_chemical_formula_sum   'Dy12 Al86 V8'
_cell_volume   1853.09633326
_cell_formula_units_Z   2
loop_
 _symmetry_equiv_pos_site_id
 _symmetry_equiv_pos_as_xyz
  1  'x, y, z'
loop_
 _atom_site_type_symbol
 _atom_site_label
 _atom_site_symmetry_multiplicity
 _atom_site_fract_x
 _atom_site_fract_y
 _atom_site_fract_z
 _atom_site_occupancy
  Dy  Dy0  1  0.52995400  0.00000000  0.59573500  1
  Dy  Dy1  1  0.47004600  0.00000000  0.40426500  1
  Dy  Dy2  1  0.00000000  0.52995400  0.59573500  1
  Dy  Dy3  1  0.47004600  0.00000000  0.09573500  1
  Dy  Dy4  1  0.00000000  0.52995400  0.90426500  1
  Dy  Dy5  1  0.00000000  0.47004600  0.40426500  1
  Dy  Dy6  1  0.52995400  0.00000000  0.90426500  1
  Dy  Dy7  1  0.00000000  0.47004600  0.09573500  1
  Dy  Dy8  1  0.47004600  0.47004600  0.59573500  1
  Dy  Dy9  1  0.52995400  0.52995400  0.40426500  1
  Dy  Dy10  1  0.52995400  0.52995400  0.09573500  1
  Dy  Dy11  1  0.47004600  0.47004600  0.90426500  1
  Al  Al0  1  0.14621000  0.59757000  0.75000000  1
  Al  Al1  1  0.85379000  0.40243000  0.25000000  1
  Al  Al2  1  0.40243000  0.54864000  0.75000000  1
  Al  Al3  1  0.59757000  0.14621000  0.75000000  1
  Al  Al4  1  0.59757000  0.45136000  0.25000000  1
  Al  Al5  1  0.40243000  0.85379000  0.25000000  1
  Al  Al6  1  0.45136000  0.85379000  0.75000000  1
  Al  Al7  1  0.54864000  0.40243000  0.75000000  1
  Al  Al8  1  0.54864000  0.14621000  0.25000000  1
  Al  Al9  1  0.45136000  0.59757000  0.25000000  1
  Al  Al10  1  0.85379000  0.45136000  0.75000000  1
  Al  Al11  1  0.14621000  0.54864000  0.25000000  1
  Al  Al12  1  0.15558500  0.00000000  0.11571200  1
  Al  Al13  1  0.84441500  0.00000000  0.88428800  1
  Al  Al14  1  0.00000000  0.15558500  0.11571200  1
  Al  Al15  1  0.84441500  0.00000000  0.61571200  1
  Al  Al16  1  0.00000000  0.15558500  0.38428800  1
  Al  Al17  1  0.00000000  0.84441500  0.88428800  1
  Al  Al18  1  0.15558500  0.00000000  0.38428800  1
  Al  Al19  1  0.00000000  0.84441500  0.61571200  1
  Al  Al20  1  0.84441500  0.84441500  0.11571200  1
  Al  Al21  1  0.15558500  0.15558500  0.88428800  1
  Al  Al22  1  0.15558500  0.15558500  0.61571200  1
  Al  Al23  1  0.84441500  0.84441500  0.38428800  1
  Al  Al24  1  0.24681800  0.49363500  0.50000000  1
  Al  Al25  1  0.75318200  0.50636500  0.50000000  1
  Al  Al26  1  0.50636500  0.75318200  0.50000000  1
  Al  Al27  1  0.75318200  0.50636500  0.00000000  1
  Al  Al28  1  0.49363500  0.24681800  0.00000000  1
  Al  Al29  1  0.49363500  0.24681800  0.50000000  1
  Al  Al30  1  0.24681800  0.49363500  0.00000000  1
  Al  Al31  1  0.50636500  0.75318200  0.00000000  1
  Al  Al32  1  0.24681800  0.75318200  0.50000000  1
  Al  Al33  1  0.75318200  0.24681800  0.50000000  1
  Al  Al34  1  0.75318200  0.24681800  0.00000000  1
  Al  Al35  1  0.24681800  0.75318200  0.00000000  1
  Al  Al36  1  0.14483000  0.00000000  0.75000000  1
  Al  Al37  1  0.85517000  0.00000000  0.25000000  1
  Al  Al38  1  0.00000000  0.14483000  0.75000000  1
  Al  Al39  1  0.00000000  0.85517000  0.25000000  1
  Al  Al40  1  0.85517000  0.85517000  0.75000000  1
  Al  Al41  1  0.14483000  0.14483000  0.25000000  1
  Al  Al42  1  0.33333300  0.66666700  0.62772000  1
  Al  Al43  1  0.66666700  0.33333300  0.37228000  1
  Al  Al44  1  0.66666700  0.33333300  0.12772000  1
  Al  Al45  1  0.66666700  0.33333300  0.87228000  1
  Al  Al46  1  0.33333300  0.66666700  0.87228000  1
  Al  Al47  1  0.33333300  0.66666700  0.12772000  1
  Al  Al48  1  0.33333300  0.66666700  0.37228000  1
  Al  Al49  1  0.66666700  0.33333300  0.62772000  1
  Al  Al50  1  0.25292500  0.00000000  0.52992700  1
  Al  Al51  1  0.74707500  0.00000000  0.47007300  1
  Al  Al52  1  0.00000000  0.25292500  0.52992700  1
  Al  Al53  1  0.74707500  0.00000000  0.02992700  1
  Al  Al54  1  0.00000000  0.25292500  0.97007300  1
  Al  Al55  1  0.00000000  0.74707500  0.47007300  1
  Al  Al56  1  0.25292500  0.00000000  0.97007300  1
  Al  Al57  1  0.00000000  0.74707500  0.02992700  1
  Al  Al58  1  0.74707500  0.74707500  0.52992700  1
  Al  Al59  1  0.25292500  0.25292500  0.47007300  1
  Al  Al60  1  0.25292500  0.25292500  0.02992700  1
  Al  Al61  1  0.74707500  0.74707500  0.97007300  1
  Al  Al62  1  0.15757200  0.39188000  0.66569200  1
  Al  Al63  1  0.84242800  0.60812000  0.33430800  1
  Al  Al64  1  0.60812000  0.76569100  0.66569200  1
  Al  Al65  1  0.84242800  0.60812000  0.16569200  1
  Al  Al66  1  0.39188000  0.15757200  0.83430800  1
  Al  Al67  1  0.39188000  0.23430900  0.33430800  1
  Al  Al68  1  0.15757200  0.39188000  0.83430800  1
  Al  Al69  1  0.60812000  0.84242800  0.16569200  1
  Al  Al70  1  0.23430900  0.84242800  0.66569200  1
  Al  Al71  1  0.39188000  0.23430900  0.16569200  1
  Al  Al72  1  0.76569100  0.60812000  0.83430800  1
  Al  Al73  1  0.76569100  0.15757200  0.33430800  1
  Al  Al74  1  0.60812000  0.76569100  0.83430800  1
  Al  Al75  1  0.23430900  0.39188000  0.16569200  1
  Al  Al76  1  0.60812000  0.84242800  0.33430800  1
  Al  Al77  1  0.39188000  0.15757200  0.66569200  1
  Al  Al78  1  0.76569100  0.15757200  0.16569200  1
  Al  Al79  1  0.23430900  0.39188000  0.33430800  1
  Al  Al80  1  0.23430900  0.84242800  0.83430800  1
  Al  Al81  1  0.76569100  0.60812000  0.66569200  1
  Al  Al82  1  0.84242800  0.23430900  0.83430800  1
  Al  Al83  1  0.15757200  0.76569100  0.16569200  1
  Al  Al84  1  0.15757200  0.76569100  0.33430800  1
  Al  Al85  1  0.84242800  0.23430900  0.66569200  1
  V  V0  1  0.00000000  0.00000000  0.50000000  1
  V  V1  1  0.00000000  0.00000000  0.00000000  1
  V  V2  1  0.73028800  0.00000000  0.75000000  1
  V  V3  1  0.26971200  0.00000000  0.25000000  1
  V  V4  1  0.00000000  0.73028800  0.75000000  1
  V  V5  1  0.00000000  0.26971200  0.25000000  1
  V  V6  1  0.26971200  0.26971200  0.75000000  1
  V  V7  1  0.73028800  0.73028800  0.25000000  1
loop_
_geom_bond_atom_site_label_1
_geom_bond_atom_site_label_2
_geom_bond_distance
_geom_bond_site_symmetry_2
Dy0 Dy1 3.448899 1_555
Dy0 V2 3.506636 1_555
Dy1 V3 3.506636 1_555
Dy2 Dy5 3.448899 1_555
Dy2 V4 3.506636 1_555
Dy3 Dy6 3.448899 1_554
Dy3 V3 3.506636 1_555
Dy4 Dy7 3.448899 1_556
Dy4 V4 3.506636 1_555
Dy5 V5 3.506636 1_555
Dy6 V2 3.506636 1_555
Dy7 V5 3.506636 1_555
Dy8 Dy9 3.448899 1_555
Dy8 V6 3.506636 1_555
Dy9 V7 3.506636 1_555
Dy10 Dy11 3.448899 1_554
Dy10 V7 3.506636 1_555
Dy11 V6 3.506636 1_555
Al0 V4 2.658426 1_555
Al0 Al68 2.764182 1_555
Al0 Al62 2.764182 1_555
Al0 Al10 2.785930 1_455
Al0 Al70 2.794025 1_555
Al0 Al80 2.794025 1_555
Al0 Al42 2.815123 1_555
Al0 Al46 2.815123 1_555
Al0 Dy2 3.063237 1_555
Al0 Dy4 3.063237 1_555
Al1 V5 2.658426 1_655
Al1 Al65 2.764182 1_555
Al1 Al63 2.764182 1_555
Al1 Al11 2.785930 1_655
Al1 Al78 2.794025 1_555
Al1 Al73 2.794025 1_555
Al1 Al44 2.815123 1_555
Al1 Al43 2.815123 1_555
Al1 Dy5 3.063237 1_655
Al1 Dy7 3.063237 1_655
Al2 V6 2.658426 1_555
Al2 Al64 2.764177 1_555
Al2 Al74 2.764177 1_555
Al2 Al7 2.785931 1_555
Al2 Al68 2.794026 1_555
Al2 Al62 2.794026 1_555
Al2 Al46 2.815129 1_555
Al2 Al42 2.815129 1_555
Al2 Dy11 3.063237 1_555
Al2 Dy8 3.063237 1_555
Al3 V2 2.658426 1_555
Al3 Al66 2.764182 1_555
Al3 Al77 2.764182 1_555
Al3 Al6 2.785930 1_545
Al3 Al85 2.794025 1_555
Al3 Al82 2.794025 1_555
Al3 Al45 2.815123 1_555
Al3 Al49 2.815123 1_555
Al3 Dy0 3.063237 1_555
Al3 Dy6 3.063237 1_555
Al4 V7 2.658426 1_555
Al4 Al67 2.764177 1_555
Al4 Al71 2.764177 1_555
Al4 Al9 2.785931 1_555
Al4 Al63 2.794026 1_555
Al4 Al65 2.794026 1_555
Al4 Al44 2.815129 1_555
Al4 Al43 2.815129 1_555
Al4 Dy9 3.063237 1_555
Al4 Dy10 3.063237 1_555
Al5 V3 2.658426 1_565
Al5 Al69 2.764182 1_555
Al5 Al76 2.764182 1_555
Al5 Al8 2.785930 1_565
Al5 Al83 2.794025 1_555
Al5 Al84 2.794025 1_555
Al5 Dy1 3.063237 1_565
Al5 Dy3 3.063237 1_565
Al6 V2 2.658426 1_565
Al6 Al80 2.764173 1_555
Al6 Al70 2.764173 1_555
Al6 Al64 2.794034 1_555
Al6 Al74 2.794034 1_555
Al6 Dy0 3.063237 1_565
Al6 Dy6 3.063237 1_565
Al7 V6 2.658426 1_555
Al7 Al72 2.764177 1_555
Al7 Al81 2.764177 1_555
Al7 Al77 2.794026 1_555
Al7 Dy11 3.063237 1_555
Al7 Dy8 3.063237 1_555
Al8 V3 2.658426 1_555
Al8 Dy1 3.063237 1_555
Al8 Dy3 3.063237 1_555
Al9 V7 2.658426 1_555
Al9 Dy9 3.063237 1_555
Al9 Dy10 3.063237 1_555
Al10 V4 2.658426 1_655
Al10 Al85 2.764173 1_555
Al10 Al82 2.764173 1_555
Al10 Al81 2.794034 1_555
Al10 Al72 2.794034 1_555
Al10 Al45 2.815124 1_555
Al10 Al49 2.815124 1_555
Al10 Dy2 3.063237 1_655
Al10 Dy4 3.063237 1_655
Al11 V5 2.658426 1_555
Al11 Al83 2.764173 1_555
Al11 Al84 2.764173 1_555
Al11 Al79 2.794034 1_555
Al11 Al75 2.794034 1_555
Al11 Al47 2.815124 1_555
Al11 Al48 2.815124 1_555
Al11 Dy7 3.063237 1_555
Al11 Dy5 3.063237 1_555
Al12 V1 2.667430 1_555
Al12 V3 2.685835 1_555
Al12 Al71 2.735307 1_555
Al12 Al83 2.735312 1_545
Al12 Al56 2.788799 1_554
Al12 Al57 2.865241 1_545
Al12 Al60 2.865241 1_555
Al12 Al39 2.894553 1_545
Al12 Al41 2.894553 1_555
Al12 Al20 2.964565 1_445
Al12 Al14 2.964565 1_555
Al12 Dy3 3.477374 1_555
Al13 V1 2.667430 1_656
Al13 V2 2.685835 1_555
Al13 Al74 2.735307 1_545
Al13 Al82 2.735312 1_555
Al13 Al53 2.788799 1_556
Al13 Al54 2.865241 1_655
Al13 Al61 2.865241 1_545
Al13 Al38 2.894553 1_655
Al13 Al40 2.894553 1_545
Al13 Al21 2.964565 1_655
Al13 Al17 2.964565 1_645
Al13 Dy6 3.477374 1_555
Al14 V1 2.667430 1_555
Al14 V5 2.685835 1_555
Al14 Al75 2.735307 1_555
Al14 Al78 2.735312 1_455
Al14 Al54 2.788799 1_554
Al14 Al53 2.865241 1_455
Al14 Al60 2.865241 1_555
Al14 Al37 2.894553 1_455
Al14 Al41 2.894553 1_555
Al14 Al20 2.964565 1_445
Al14 Dy7 3.477374 1_555
Al15 V0 2.667430 1_655
Al15 V2 2.685835 1_555
Al15 Al64 2.735307 1_545
Al15 Al85 2.735312 1_555
Al15 Al51 2.788799 1_555
Al15 Al52 2.865241 1_655
Al15 Al58 2.865241 1_545
Al15 Al38 2.894553 1_655
Al15 Al40 2.894553 1_545
Al15 Al22 2.964565 1_655
Al15 Al19 2.964565 1_645
Al15 Dy0 3.477374 1_555
Al16 V0 2.667430 1_555
Al16 V5 2.685835 1_555
Al16 Al79 2.735307 1_555
Al16 Al73 2.735312 1_455
Al16 Al52 2.788799 1_555
Al16 Al51 2.865241 1_455
Al16 Al59 2.865241 1_555
Al16 Al37 2.894553 1_455
Al16 Al41 2.894553 1_555
Al16 Al23 2.964565 1_445
Al16 Al18 2.964565 1_555
Al16 Dy5 3.477374 1_555
Al17 V1 2.667430 1_566
Al17 V4 2.685835 1_555
Al17 Al72 2.735307 1_455
Al17 Al80 2.735312 1_555
Al17 Al57 2.788799 1_556
Al17 Al56 2.865241 1_565
Al17 Al61 2.865241 1_455
Al17 Al36 2.894553 1_565
Al17 Al40 2.894553 1_455
Al17 Al21 2.964565 1_565
Al17 Dy4 3.477374 1_555
Al18 V0 2.667430 1_555
Al18 V3 2.685835 1_555
Al18 Al67 2.735307 1_555
Al18 Al84 2.735312 1_545
Al18 Al50 2.788799 1_555
Al18 Al55 2.865241 1_545
Al18 Al59 2.865241 1_555
Al18 Al39 2.894553 1_545
Al18 Al41 2.894553 1_555
Al18 Al23 2.964565 1_445
Al18 Dy1 3.477374 1_555
Al19 V0 2.667430 1_565
Al19 V4 2.685835 1_555
Al19 Al81 2.735307 1_455
Al19 Al70 2.735312 1_555
Al19 Al55 2.788799 1_555
Al19 Al50 2.865241 1_565
Al19 Al58 2.865241 1_455
Al19 Al36 2.894553 1_565
Al19 Al40 2.894553 1_455
Al19 Al22 2.964565 1_565
Al19 Dy2 3.477374 1_555
Al20 V1 2.667430 1_665
Al20 V7 2.685835 1_555
Al20 Al69 2.735302 1_555
Al20 Al65 2.735302 1_555
Al20 Al61 2.788799 1_554
Al20 Al57 2.865241 1_655
Al20 Al53 2.865241 1_565
Al20 Al37 2.894553 1_565
Al20 Al39 2.894553 1_655
Al20 Dy10 3.477374 1_555
Al21 V1 2.667430 1_556
Al21 V6 2.685835 1_555
Al21 Al68 2.735302 1_555
Al21 Al66 2.735302 1_555
Al21 Al60 2.788799 1_556
Al21 Al56 2.865241 1_555
Al21 Al54 2.865241 1_555
Al21 Al38 2.894553 1_555
Al21 Al36 2.894553 1_555
Al21 Dy11 3.477374 1_555
Al22 V0 2.667430 1_555
Al22 V6 2.685835 1_555
Al22 Al62 2.735302 1_555
Al22 Al77 2.735302 1_555
Al22 Al59 2.788799 1_555
Al22 Al52 2.865241 1_555
Al22 Al50 2.865241 1_555
Al22 Al38 2.894553 1_555
Al22 Al36 2.894553 1_555
Al22 Dy8 3.477374 1_555
Al23 V0 2.667430 1_665
Al23 V7 2.685835 1_555
Al23 Al76 2.735302 1_555
Al23 Al63 2.735302 1_555
Al23 Al58 2.788799 1_555
Al23 Al51 2.865241 1_565
Al23 Al55 2.865241 1_655
Al23 Al37 2.894553 1_565
Al23 Al39 2.894553 1_655
Al23 Dy9 3.477374 1_555
Al24 Al59 2.733969 1_555
Al24 Al52 2.733974 1_555
Al24 Al42 2.795889 1_555
Al24 Al48 2.795889 1_555
Al24 Al26 2.855279 1_555
Al24 Al32 2.855279 1_555
Al24 Dy8 3.098448 1_555
Al24 Dy5 3.098457 1_555
Al24 Al62 3.114537 1_555
Al24 Al79 3.114537 1_555
Al24 Dy9 3.388532 1_555
Al24 Dy2 3.388541 1_555
Al25 Al58 2.733969 1_555
Al25 Al55 2.733974 1_655
Al25 Al49 2.795889 1_555
Al25 Al43 2.795889 1_555
Al25 Al29 2.855279 1_555
Al25 Al33 2.855279 1_555
Al25 Dy9 3.098448 1_555
Al25 Dy2 3.098457 1_655
Al25 Al63 3.114537 1_555
Al25 Al81 3.114537 1_555
Al25 Dy8 3.388532 1_555
Al25 Dy5 3.388541 1_655
Al26 Al58 2.733969 1_555
Al26 Al51 2.733974 1_565
Al26 Al42 2.795889 1_555
Al26 Al48 2.795889 1_555
Al26 Al32 2.855279 1_555
Al26 Dy9 3.098448 1_555
Al26 Dy0 3.098457 1_565
Al26 Al76 3.114537 1_555
Al26 Al64 3.114537 1_555
Al26 Dy8 3.388532 1_555
Al26 Dy1 3.388541 1_565
Al27 Al61 2.733969 1_554
Al27 Al57 2.733974 1_655
Al27 Al45 2.795889 1_554
Al27 Al44 2.795889 1_555
Al27 Al28 2.855279 1_555
Al27 Al34 2.855279 1_555
Al27 Dy10 3.098448 1_555
Al27 Dy4 3.098457 1_654
Al27 Al65 3.114537 1_555
Al27 Al72 3.114537 1_554
Al27 Dy11 3.388532 1_554
Al27 Dy7 3.388541 1_655
Al28 Al60 2.733969 1_555
Al28 Al56 2.733974 1_554
Al28 Al45 2.795889 1_554
Al28 Al44 2.795889 1_555
Al28 Al34 2.855279 1_555
Al28 Dy11 3.098448 1_554
Al28 Dy3 3.098457 1_555
Al28 Al66 3.114537 1_554
Al28 Al71 3.114537 1_555
Al28 Dy10 3.388532 1_555
Al28 Dy6 3.388541 1_554
Al29 Al59 2.733969 1_555
Al29 Al50 2.733974 1_555
Al29 Al49 2.795889 1_555
Al29 Al43 2.795889 1_555
Al29 Al33 2.855279 1_555
Al29 Dy8 3.098448 1_555
Al29 Dy1 3.098457 1_555
Al29 Al77 3.114537 1_555
Al29 Al67 3.114537 1_555
Al29 Dy9 3.388532 1_555
Al29 Dy0 3.388541 1_555
Al30 Al60 2.733969 1_555
Al30 Al54 2.733974 1_554
Al30 Al46 2.795889 1_554
Al30 Al47 2.795889 1_555
Al30 Al31 2.855279 1_555
Al30 Al35 2.855279 1_555
Al30 Dy11 3.098448 1_554
Al30 Dy7 3.098457 1_555
Al30 Al68 3.114537 1_554
Al30 Al75 3.114537 1_555
Al30 Dy10 3.388532 1_555
Al30 Dy4 3.388541 1_554
Al31 Al61 2.733969 1_554
Al31 Al53 2.733974 1_565
Al31 Al46 2.795889 1_554
Al31 Al47 2.795889 1_555
Al31 Al35 2.855279 1_555
Al31 Dy10 3.098448 1_555
Al31 Dy6 3.098457 1_564
Al31 Al69 3.114537 1_555
Al31 Al74 3.114537 1_554
Al31 Dy11 3.388532 1_554
Al31 Dy3 3.388541 1_565
Al32 Al50 2.733980 1_565
Al32 Al55 2.733980 1_555
Al32 Al42 2.795878 1_555
Al32 Al48 2.795878 1_555
Al32 Dy1 3.098453 1_565
Al32 Dy2 3.098453 1_555
Al32 Al70 3.114537 1_555
Al32 Al84 3.114537 1_555
Al32 Dy5 3.388535 1_555
Al32 Dy0 3.388535 1_565
Al33 Al52 2.733980 1_655
Al33 Al51 2.733980 1_555
Al33 Al49 2.795878 1_555
Al33 Al43 2.795878 1_555
Al33 Dy0 3.098453 1_555
Al33 Dy5 3.098453 1_655
Al33 Al85 3.114537 1_555
Al33 Al73 3.114537 1_555
Al33 Dy1 3.388535 1_555
Al33 Dy2 3.388535 1_655
Al34 Al54 2.733980 1_654
Al34 Al53 2.733980 1_555
Al34 Al45 2.795878 1_554
Al34 Al44 2.795878 1_555
Al34 Dy6 3.098453 1_554
Al34 Dy7 3.098453 1_655
Al34 Al82 3.114537 1_554
Al34 Al78 3.114537 1_555
Al34 Dy3 3.388535 1_555
Al34 Dy4 3.388535 1_654
Al35 Al56 2.733980 1_564
Al35 Al57 2.733980 1_555
Al35 Al46 2.795878 1_554
Al35 Al47 2.795878 1_555
Al35 Dy3 3.098453 1_565
Al35 Dy4 3.098453 1_554
Al35 Al80 3.114537 1_554
Al35 Al83 3.114537 1_555
Al35 Dy7 3.388535 1_555
Al35 Dy6 3.388535 1_564
Al36 V4 2.571929 1_545
Al36 V6 2.571929 1_555
Al36 Al40 2.759636 1_445
Al36 Al38 2.759636 1_555
Al36 Al77 2.811068 1_555
Al36 Al66 2.811068 1_555
Al36 Al80 2.811076 1_545
Al36 Al70 2.811076 1_545
Al37 V5 2.571929 1_655
Al37 V7 2.571929 1_545
Al37 Al41 2.759636 1_655
Al37 Al39 2.759636 1_645
Al37 Al69 2.811068 1_545
Al37 Al76 2.811068 1_545
Al37 Al78 2.811076 1_555
Al37 Al73 2.811076 1_555
Al38 V2 2.571929 1_455
Al38 V6 2.571929 1_555
Al38 Al40 2.759636 1_445
Al38 Al62 2.811068 1_555
Al38 Al68 2.811068 1_555
Al38 Al85 2.811076 1_455
Al38 Al82 2.811076 1_455
Al39 V3 2.571929 1_565
Al39 V7 2.571929 1_455
Al39 Al41 2.759636 1_565
Al39 Al65 2.811068 1_455
Al39 Al63 2.811068 1_455
Al39 Al83 2.811076 1_555
Al39 Al84 2.811076 1_555
Al40 V2 2.571930 1_565
Al40 V4 2.571930 1_655
Al40 Al72 2.811067 1_555
Al40 Al81 2.811067 1_555
Al40 Al64 2.811067 1_555
Al40 Al74 2.811067 1_555
Al41 V5 2.571930 1_555
Al41 V3 2.571930 1_555
Al41 Al75 2.811067 1_555
Al41 Al79 2.811067 1_555
Al41 Al67 2.811067 1_555
Al41 Al71 2.811067 1_555
Al42 Al70 2.735399 1_555
Al42 Al62 2.735416 1_555
Al42 Al64 2.735419 1_555
Al42 Al6 2.815124 1_555
Al42 Dy2 3.242462 1_555
Al42 Dy0 3.242463 1_565
Al42 Dy8 3.242472 1_555
Al43 Al73 2.735399 1_555
Al43 Al63 2.735416 1_555
Al43 Al67 2.735419 1_555
Al43 Al8 2.815124 1_555
Al43 Dy5 3.242462 1_655
Al43 Dy1 3.242463 1_555
Al43 Dy9 3.242472 1_555
Al44 Al78 2.735399 1_555
Al44 Al65 2.735416 1_555
Al44 Al71 2.735419 1_555
Al44 Al8 2.815124 1_555
Al44 Dy7 3.242462 1_655
Al44 Dy3 3.242463 1_555
Al44 Dy10 3.242472 1_555
Al45 Al82 2.735399 1_555
Al45 Al66 2.735416 1_555
Al45 Al72 2.735419 1_555
Al45 Al7 2.815129 1_555
Al45 Dy6 3.242462 1_555
Al45 Dy4 3.242463 1_655
Al45 Dy11 3.242472 1_555
Al46 Al80 2.735399 1_555
Al46 Al68 2.735416 1_555
Al46 Al74 2.735419 1_555
Al46 Al6 2.815124 1_555
Al46 Dy4 3.242462 1_555
Al46 Dy6 3.242463 1_565
Al46 Dy11 3.242472 1_555
Al47 Al83 2.735399 1_555
Al47 Al69 2.735416 1_555
Al47 Al75 2.735419 1_555
Al47 Al5 2.815123 1_555
Al47 Al9 2.815129 1_555
Al47 Dy3 3.242462 1_565
Al47 Dy7 3.242463 1_555
Al47 Dy10 3.242472 1_555
Al48 Al84 2.735399 1_555
Al48 Al76 2.735416 1_555
Al48 Al79 2.735419 1_555
Al48 Al5 2.815123 1_555
Al48 Al9 2.815129 1_555
Al48 Dy1 3.242462 1_565
Al48 Dy5 3.242463 1_555
Al48 Dy9 3.242472 1_555
Al49 Al85 2.735399 1_555
Al49 Al77 2.735416 1_555
Al49 Al81 2.735419 1_555
Al49 Al7 2.815129 1_555
Al49 Dy0 3.242462 1_555
Al49 Dy2 3.242463 1_655
Al49 Dy8 3.242472 1_555
Al50 V0 2.832296 1_555
Al50 Al77 2.907554 1_555
Al50 Al70 2.907556 1_545
Al50 Al55 2.976886 1_545
Al50 Al59 2.976886 1_555
Al50 Dy1 3.262146 1_555
Al50 Dy0 3.262159 1_555
Al51 V0 2.832296 1_655
Al51 Al76 2.907554 1_545
Al51 Al73 2.907556 1_555
Al51 Al52 2.976886 1_655
Al51 Al58 2.976886 1_545
Al51 Dy0 3.262146 1_555
Al51 Dy1 3.262159 1_555
Al52 V0 2.832296 1_555
Al52 Al62 2.907554 1_555
Al52 Al85 2.907556 1_455
Al52 Al59 2.976886 1_555
Al52 Dy5 3.262146 1_555
Al52 Dy2 3.262159 1_555
Al53 V1 2.832296 1_655
Al53 Al69 2.907554 1_545
Al53 Al78 2.907556 1_555
Al53 Al54 2.976886 1_654
Al53 Al61 2.976886 1_544
Al53 Dy6 3.262146 1_554
Al53 Dy3 3.262159 1_555
Al54 V1 2.832296 1_556
Al54 Al68 2.907554 1_555
Al54 Al82 2.907556 1_455
Al54 Al60 2.976886 1_556
Al54 Dy7 3.262146 1_556
Al54 Dy4 3.262159 1_555
Al55 V0 2.832296 1_565
Al55 Al63 2.907554 1_455
Al55 Al84 2.907556 1_555
Al55 Al58 2.976886 1_455
Al55 Dy2 3.262146 1_555
Al55 Dy5 3.262159 1_555
Al56 V1 2.832296 1_556
Al56 Al66 2.907554 1_555
Al56 Al80 2.907556 1_545
Al56 Al57 2.976886 1_546
Al56 Al60 2.976886 1_556
Al56 Dy3 3.262146 1_556
Al56 Dy6 3.262159 1_555
Al57 V1 2.832296 1_565
Al57 Al65 2.907554 1_455
Al57 Al83 2.907556 1_555
Al57 Al61 2.976886 1_454
Al57 Dy4 3.262146 1_554
Al57 Dy7 3.262159 1_555
Al58 V0 2.832296 1_665
Al58 Al64 2.907550 1_555
Al58 Al81 2.907550 1_555
Al58 Dy9 3.262146 1_555
Al58 Dy8 3.262159 1_555
Al59 V0 2.832296 1_555
Al59 Al67 2.907550 1_555
Al59 Al79 2.907550 1_555
Al59 Dy8 3.262146 1_555
Al59 Dy9 3.262159 1_555
Al60 V1 2.832296 1_555
Al60 Al71 2.907550 1_555
Al60 Al75 2.907550 1_555
Al60 Dy11 3.262146 1_554
Al60 Dy10 3.262159 1_555
Al61 V1 2.832296 1_666
Al61 Al74 2.907550 1_555
Al61 Al72 2.907550 1_555
Al61 Dy10 3.262146 1_556
Al61 Dy11 3.262159 1_555
Al62 V6 2.684799 1_555
Al62 Al68 2.981268 1_555
Al62 Al85 3.002426 1_455
Al62 Dy2 3.078152 1_555
Al62 Dy8 3.336167 1_555
Al63 V7 2.684799 1_555
Al63 Al65 2.981268 1_555
Al63 Al84 3.002426 1_655
Al63 Dy5 3.078152 1_655
Al63 Dy9 3.336167 1_555
Al64 V2 2.684806 1_565
Al64 Al74 2.981268 1_555
Al64 Al81 3.002407 1_555
Al64 Dy8 3.078143 1_555
Al64 Dy0 3.336177 1_565
Al65 V7 2.684799 1_555
Al65 Al83 3.002426 1_655
Al65 Dy7 3.078152 1_655
Al65 Dy10 3.336167 1_555
Al66 V6 2.684799 1_555
Al66 Al7 2.794026 1_555
Al66 Al77 2.981268 1_555
Al66 Al80 3.002426 1_545
Al66 Dy6 3.078152 1_555
Al66 Dy11 3.336167 1_555
Al67 V3 2.684806 1_555
Al67 Al8 2.794034 1_555
Al67 Al71 2.981268 1_555
Al67 Al79 3.002407 1_555
Al67 Dy9 3.078143 1_555
Al67 Dy1 3.336177 1_555
Al68 V6 2.684799 1_555
Al68 Al82 3.002426 1_455
Al68 Dy4 3.078152 1_555
Al68 Dy11 3.336167 1_555
Al69 V7 2.684799 1_555
Al69 Al9 2.794026 1_555
Al69 Al76 2.981268 1_555
Al69 Al78 3.002426 1_565
Al69 Dy3 3.078152 1_565
Al69 Dy10 3.336167 1_555
Al70 V4 2.684807 1_555
Al70 Al80 2.981268 1_555
Al70 Al77 3.002426 1_565
Al70 Dy0 3.078143 1_565
Al70 Dy2 3.336170 1_555
Al71 V3 2.684806 1_555
Al71 Al8 2.794034 1_555
Al71 Al75 3.002407 1_555
Al71 Dy10 3.078143 1_555
Al71 Dy3 3.336177 1_555
Al72 V4 2.684806 1_655
Al72 Al81 2.981268 1_555
Al72 Al74 3.002407 1_555
Al72 Dy11 3.078143 1_555
Al72 Dy4 3.336177 1_655
Al73 V5 2.684807 1_655
Al73 Al8 2.764173 1_555
Al73 Al78 2.981268 1_555
Al73 Al76 3.002426 1_545
Al73 Dy1 3.078143 1_555
Al73 Dy5 3.336170 1_655
Al74 V2 2.684806 1_565
Al74 Dy11 3.078143 1_555
Al74 Dy6 3.336177 1_565
Al75 V5 2.684806 1_555
Al75 Al9 2.764177 1_555
Al75 Al79 2.981268 1_555
Al75 Dy10 3.078143 1_555
Al75 Dy7 3.336177 1_555
Al76 V7 2.684799 1_555
Al76 Al9 2.794026 1_555
Al76 Dy1 3.078152 1_565
Al76 Dy9 3.336167 1_555
Al77 V6 2.684799 1_555
Al77 Dy0 3.078152 1_555
Al77 Dy8 3.336167 1_555
Al78 V5 2.684807 1_655
Al78 Al8 2.764173 1_555
Al78 Dy3 3.078143 1_555
Al78 Dy7 3.336170 1_655
Al79 V5 2.684806 1_555
Al79 Al9 2.764177 1_555
Al79 Dy9 3.078143 1_555
Al79 Dy5 3.336177 1_555
Al80 V4 2.684807 1_555
Al80 Dy6 3.078143 1_565
Al80 Dy4 3.336170 1_555
Al81 V4 2.684806 1_655
Al81 Dy8 3.078143 1_555
Al81 Dy2 3.336177 1_655
Al82 V2 2.684807 1_555
Al82 Al85 2.981268 1_555
Al82 Dy4 3.078143 1_655
Al82 Dy6 3.336170 1_555
Al83 V3 2.684807 1_565
Al83 Al84 2.981268 1_555
Al83 Dy7 3.078143 1_555
Al83 Dy3 3.336170 1_565
Al84 V3 2.684807 1_565
Al84 Dy5 3.078143 1_555
Al84 Dy1 3.336170 1_565
Al85 V2 2.684807 1_555
Al85 Dy2 3.078143 1_655
Al85 Dy0 3.336170 1_555
