# generated using pymatgen
data_Ag6HgGeSe6
_symmetry_space_group_name_H-M   'P 1'
_cell_length_a   7.79324700
_cell_length_b   8.24836400
_cell_length_c   11.11167800
_cell_angle_alpha   90.00000000
_cell_angle_beta   90.00000000
_cell_angle_gamma   90.00000000
_symmetry_Int_Tables_number   1
_chemical_formula_structural   Ag6HgGeSe6
_chemical_formula_sum   'Ag12 Hg2 Ge2 Se12'
_cell_volume   714.27575158
_cell_formula_units_Z   2
loop_
 _symmetry_equiv_pos_site_id
 _symmetry_equiv_pos_as_xyz
  1  'x, y, z'
loop_
 _atom_site_type_symbol
 _atom_site_label
 _atom_site_symmetry_multiplicity
 _atom_site_fract_x
 _atom_site_fract_y
 _atom_site_fract_z
 _atom_site_occupancy
  Ag  Ag0  1  0.40345500  0.00000000  0.02543800  1
  Ag  Ag1  1  0.59654500  0.50000000  0.52543800  1
  Ag  Ag2  1  0.91268400  0.21527200  0.83657000  1
  Ag  Ag3  1  0.91268400  0.78472800  0.83657000  1
  Ag  Ag4  1  0.08731600  0.28472800  0.33657000  1
  Ag  Ag5  1  0.08731600  0.71527200  0.33657000  1
  Ag  Ag6  1  0.46980700  0.24433000  0.28428600  1
  Ag  Ag7  1  0.46980700  0.75567000  0.28428600  1
  Ag  Ag8  1  0.53019300  0.25567000  0.78428600  1
  Ag  Ag9  1  0.53019300  0.74433000  0.78428600  1
  Ag  Ag10  1  0.24264000  0.00000000  0.49117600  1
  Ag  Ag11  1  0.75736000  0.50000000  0.99117600  1
  Hg  Hg0  1  0.94901700  0.00000000  0.14941000  1
  Hg  Hg1  1  0.05098300  0.50000000  0.64941000  1
  Ge  Ge0  1  0.75312400  0.00000000  0.52857200  1
  Ge  Ge1  1  0.24687600  0.50000000  0.02857200  1
  Se  Se0  1  0.73743000  0.00000000  0.97859500  1
  Se  Se1  1  0.26257000  0.50000000  0.47859500  1
  Se  Se2  1  0.49829400  0.00000000  0.64620900  1
  Se  Se3  1  0.50170600  0.50000000  0.14620900  1
  Se  Se4  1  0.24360900  0.25901600  0.90848100  1
  Se  Se5  1  0.24360900  0.74098400  0.90848100  1
  Se  Se6  1  0.75639100  0.24098400  0.40848100  1
  Se  Se7  1  0.75639100  0.75901600  0.40848100  1
  Se  Se8  1  0.99578500  0.00000000  0.65632700  1
  Se  Se9  1  0.00421500  0.50000000  0.15632700  1
  Se  Se10  1  0.24916900  0.00000000  0.25389800  1
  Se  Se11  1  0.75083100  0.50000000  0.75389800  1
loop_
_geom_bond_atom_site_label_1
_geom_bond_atom_site_label_2
_geom_bond_distance
_geom_bond_site_symmetry_2
Ag0 Se0 2.654285 1_554
Ag0 Se4 2.793779 1_554
Ag0 Se5 2.793779 1_544
Ag0 Se10 2.808932 1_555
Ag1 Se1 2.654285 1_555
Ag1 Se6 2.793779 1_555
Ag1 Se7 2.793779 1_555
Ag1 Se11 2.808932 1_555
Ag2 Se4 2.723933 1_655
Ag2 Se0 2.740223 1_555
Ag2 Se8 2.753823 1_555
Ag2 Se11 2.819671 1_555
Ag3 Se5 2.723933 1_655
Ag3 Se0 2.740223 1_565
Ag3 Se8 2.753823 1_565
Ag3 Se11 2.819671 1_555
Ag4 Se6 2.723933 1_455
Ag4 Se1 2.740223 1_555
Ag4 Se9 2.753823 1_555
Ag4 Se10 2.819671 1_555
Ag5 Se7 2.723933 1_455
Ag5 Se1 2.740223 1_555
Ag5 Se9 2.753823 1_555
Ag5 Se10 2.819671 1_565
Ag6 Se3 2.619745 1_555
Ag6 Se6 2.625522 1_555
Ag6 Se10 2.670613 1_555
Ag7 Se3 2.619745 1_555
Ag7 Se7 2.625522 1_555
Ag7 Se10 2.670613 1_565
Ag8 Se2 2.619745 1_555
Ag8 Se4 2.625522 1_555
Ag8 Se11 2.670613 1_555
Ag9 Se2 2.619745 1_565
Ag9 Se5 2.625522 1_555
Ag9 Se11 2.670613 1_555
Ag10 Se2 2.633851 1_555
Ag10 Se10 2.637048 1_555
Ag10 Se8 2.658688 1_455
Ag11 Se3 2.633851 1_556
Ag11 Se11 2.637048 1_555
Ag11 Se9 2.658688 1_656
Hg0 Se0 2.514278 1_554
Hg0 Se10 2.611450 1_655
Hg1 Se1 2.514278 1_555
Hg1 Se11 2.611450 1_455
Ge0 Se8 2.364637 1_555
Ge0 Se2 2.377527 1_555
Ge0 Se6 2.394233 1_555
Ge0 Se7 2.394233 1_545
Ge1 Se9 2.364637 1_555
Ge1 Se3 2.377527 1_555
Ge1 Se4 2.394233 1_554
Ge1 Se5 2.394233 1_554
