# generated using pymatgen
data_KRbMn2Ga4P6(H2O7)4
_symmetry_space_group_name_H-M   'P 1'
_cell_length_a   8.61145907
_cell_length_b   8.61145907
_cell_length_c   8.98099417
_cell_angle_alpha   75.44384060
_cell_angle_beta   75.44384060
_cell_angle_gamma   73.92383310
_symmetry_Int_Tables_number   1
_chemical_formula_structural   KRbMn2Ga4P6(H2O7)4
_chemical_formula_sum   'K1 Rb1 Mn2 Ga4 P6 H8 O28'
_cell_volume   607.47930098
_cell_formula_units_Z   1
loop_
 _symmetry_equiv_pos_site_id
 _symmetry_equiv_pos_as_xyz
  1  'x, y, z'
loop_
 _atom_site_type_symbol
 _atom_site_label
 _atom_site_symmetry_multiplicity
 _atom_site_fract_x
 _atom_site_fract_y
 _atom_site_fract_z
 _atom_site_occupancy
  K  K0  1  0.36037600  0.63962400  0.25000000  1
  Rb  Rb0  1  0.63936300  0.36063700  0.75000000  1
  Mn  Mn0  1  0.71744800  0.28255200  0.25000000  1
  Mn  Mn1  1  0.28245100  0.71754900  0.75000000  1
  Ga  Ga0  1  0.75491100  0.90403400  0.07153100  1
  Ga  Ga1  1  0.09596600  0.24508900  0.42846900  1
  Ga  Ga2  1  0.24518100  0.09579900  0.92870500  1
  Ga  Ga3  1  0.90420100  0.75481900  0.57129500  1
  P  P0  1  0.00040000  0.99960000  0.75000000  1
  P  P1  1  0.00055600  0.99944400  0.25000000  1
  P  P2  1  0.83649300  0.58324900  0.32458800  1
  P  P3  1  0.41675100  0.16350700  0.17541200  1
  P  P4  1  0.16258800  0.41704500  0.67519400  1
  P  P5  1  0.58295500  0.83741200  0.82480600  1
  H  H0  1  0.46653500  0.21953500  0.50354900  1
  H  H1  1  0.78046500  0.53346500  0.99645100  1
  H  H2  1  0.53320500  0.78015500  0.49589400  1
  H  H3  1  0.21984500  0.46679500  0.00410600  1
  H  H4  1  0.62058900  0.07797900  0.54857500  1
  H  H5  1  0.92202100  0.37941100  0.95142500  1
  H  H6  1  0.37922400  0.92155700  0.45110800  1
  H  H7  1  0.07844300  0.62077600  0.04889200  1
  O  O0  1  0.77426900  0.68020600  0.46096100  1
  O  O1  1  0.31979400  0.22573100  0.03903900  1
  O  O2  1  0.22544400  0.32038500  0.53860900  1
  O  O3  1  0.67961500  0.77455600  0.96139100  1
  O  O4  1  0.70003500  0.50213900  0.32315000  1
  O  O5  1  0.49786100  0.29996500  0.17685000  1
  O  O6  1  0.29806200  0.49937600  0.67627300  1
  O  O7  1  0.50062400  0.70193800  0.82372700  1
  O  O8  1  0.58744700  0.19266700  0.49201400  1
  O  O9  1  0.80733300  0.41255300  0.00798600  1
  O  O10  1  0.41238700  0.80636400  0.50654900  1
  O  O11  1  0.19363600  0.58761300  0.99345100  1
  O  O12  1  0.00548600  0.46159100  0.33886000  1
  O  O13  1  0.53840900  0.99451400  0.16114000  1
  O  O14  1  0.99316400  0.53800100  0.66136100  1
  O  O15  1  0.46199900  0.00683600  0.83863900  1
  O  O16  1  0.84977800  0.03150400  0.88406900  1
  O  O17  1  0.96849600  0.15022200  0.61593100  1
  O  O18  1  0.15164300  0.96702600  0.11623000  1
  O  O19  1  0.03297400  0.84835700  0.38377000  1
  O  O20  1  0.88107600  0.70288000  0.16398200  1
  O  O21  1  0.29712000  0.11892400  0.33601800  1
  O  O22  1  0.11896200  0.29697000  0.83580900  1
  O  O23  1  0.70303000  0.88103800  0.66419100  1
  O  O24  1  0.02480100  0.83417300  0.69684700  1
  O  O25  1  0.16582700  0.97519900  0.80315300  1
  O  O26  1  0.97573700  0.16497800  0.30319100  1
  O  O27  1  0.83502200  0.02426300  0.19680900  1
loop_
_geom_bond_atom_site_label_1
_geom_bond_atom_site_label_2
_geom_bond_distance
_geom_bond_site_symmetry_2
K0 O4 3.007612 1_555
K0 O5 3.007612 1_555
K0 O18 3.033072 1_555
K0 O19 3.033072 1_555
K0 O10 3.179454 1_555
K0 O11 3.179454 1_554
Mn0 O5 2.108961 1_555
Mn0 O4 2.108961 1_555
Mn0 O8 2.233334 1_555
Mn0 O9 2.233334 1_555
Mn0 O27 2.290051 1_555
Mn0 O26 2.290051 1_555
Mn1 O7 2.104053 1_555
Mn1 O6 2.104053 1_555
Mn1 O10 2.240787 1_555
Mn1 O11 2.240787 1_555
Mn1 O25 2.283995 1_555
Mn1 O24 2.283995 1_555
Ga0 O13 1.867406 1_555
Ga0 O20 1.886425 1_555
Ga0 O16 1.892929 1_564
Ga0 O3 1.979719 1_554
Ga0 O27 2.045737 1_565
Ga1 O12 1.867406 1_555
Ga1 O21 1.886425 1_555
Ga1 O17 1.892929 1_455
Ga1 O2 1.979719 1_555
Ga1 O26 2.045737 1_455
Ga2 O15 1.867478 1_555
Ga2 O22 1.888140 1_555
Ga2 O18 1.894458 1_546
Ga2 O1 1.980454 1_556
Ga2 O25 2.045967 1_545
Ga3 O14 1.867478 1_555
Ga3 O23 1.888140 1_555
Ga3 O19 1.894458 1_655
Ga3 O0 1.980454 1_555
Ga3 O24 2.045967 1_655
H0 O8 0.986320 1_555
H1 O9 0.986320 1_556
H2 O10 0.986575 1_555
H3 O11 0.986575 1_554
H4 O8 0.989693 1_555
H5 O9 0.989693 1_556
H6 O10 0.989852 1_555
H7 O11 0.989852 1_554
O0 P2 1.555846 1_555
O1 P3 1.555846 1_555
O2 P4 1.555804 1_555
O3 P5 1.555804 1_555
O4 P2 1.528279 1_555
O5 P3 1.528279 1_555
O6 P4 1.526764 1_555
O6 Rb0 3.023238 1_555
O7 P5 1.526764 1_555
O7 Rb0 3.023238 1_555
O8 Rb0 3.197490 1_555
O9 Rb0 3.197490 1_554
O12 P2 1.553614 1_455
O13 P3 1.553614 1_565
O14 P4 1.553525 1_655
O15 P5 1.553525 1_545
O16 P0 1.546467 1_645
O16 Rb0 3.050137 1_555
O17 P0 1.546467 1_645
O17 Rb0 3.050137 1_555
O18 P1 1.547835 1_555
O19 P1 1.547835 1_555
O20 P2 1.575751 1_555
O21 P3 1.575751 1_555
O22 P4 1.576101 1_555
O23 P5 1.576101 1_555
O24 P0 1.557899 1_555
O25 P0 1.557899 1_555
O26 P1 1.558250 1_645
O27 P1 1.558250 1_645
