# generated using pymatgen
data_Ba7(Al3Te8)2
_symmetry_space_group_name_H-M   'P 1'
_cell_length_a   8.35445242
_cell_length_b   7.27149401
_cell_length_c   59.07725611
_cell_angle_alpha   69.14464942
_cell_angle_beta   51.32434805
_cell_angle_gamma   53.18657467
_symmetry_Int_Tables_number   1
_chemical_formula_structural   Ba7(Al3Te8)2
_chemical_formula_sum   'Ba14 Al12 Te32'
_cell_volume   2242.15408995
_cell_formula_units_Z   2
loop_
 _symmetry_equiv_pos_site_id
 _symmetry_equiv_pos_as_xyz
  1  'x, y, z'
loop_
 _atom_site_type_symbol
 _atom_site_label
 _atom_site_symmetry_multiplicity
 _atom_site_fract_x
 _atom_site_fract_y
 _atom_site_fract_z
 _atom_site_occupancy
  Ba  Ba0  1  0.75554885  0.93176666  0.99224521  1
  Ba  Ba1  1  0.31841267  0.95753931  0.24362720  1
  Ba  Ba2  1  0.77910503  0.02930395  0.13318728  1
  Ba  Ba3  1  0.24838434  0.06850375  0.36017341  1
  Ba  Ba4  1  0.77582946  0.98321061  0.24985787  1
  Ba  Ba5  1  0.25013372  0.08795563  0.48607846  1
  Ba  Ba6  1  0.80198529  0.92338492  0.36502545  1
  Ba  Ba7  1  0.23700902  0.09333884  0.61206673  1
  Ba  Ba8  1  0.81700771  0.91627055  0.49041038  1
  Ba  Ba9  1  0.20354818  0.10538817  0.73789428  1
  Ba  Ba10  1  0.80115534  0.93258843  0.61576486  1
  Ba  Ba11  1  0.23160295  0.96347453  0.88682133  1
  Ba  Ba12  1  0.77795525  0.93090563  0.74033258  1
  Ba  Ba13  1  0.67191950  0.09205861  0.88542013  1
  Al  Al0  1  0.67141576  0.60320471  0.08297098  1
  Al  Al1  1  0.78561383  0.41144364  0.18524297  1
  Al  Al2  1  0.33868845  0.50023557  0.42141411  1
  Al  Al3  1  0.75775553  0.47207379  0.30897903  1
  Al  Al4  1  0.33423115  0.50487825  0.54852307  1
  Al  Al5  1  0.75534534  0.47373435  0.43685822  1
  Al  Al6  1  0.31082660  0.51578400  0.67390987  1
  Al  Al7  1  0.74443635  0.48602245  0.56236524  1
  Al  Al8  1  0.24429121  0.51517582  0.84262873  1
  Al  Al9  1  0.73713226  0.49965742  0.68699158  1
  Al  Al10  1  0.77424389  0.50967568  0.81401149  1
  Al  Al11  1  0.63283309  0.53543275  0.94634657  1
  Te  Te0  1  0.14553831  0.42850883  0.05437845  1
  Te  Te1  1  0.18417344  0.44140434  0.15109354  1
  Te  Te2  1  0.35350624  0.90653861  0.06733540  1
  Te  Te3  1  0.51663208  0.36694944  0.08620149  1
  Te  Te4  1  0.16072466  0.46148151  0.26542523  1
  Te  Te5  1  0.42642295  0.77990647  0.18268659  1
  Te  Te6  1  0.81906090  0.03674158  0.18640725  1
  Te  Te7  1  0.75011111  0.59868779  0.11998723  1
  Te  Te8  1  0.14873430  0.47373718  0.39181081  1
  Te  Te9  1  0.38240669  0.82021966  0.30678173  1
  Te  Te10  1  0.75728773  0.11609700  0.30611228  1
  Te  Te11  1  0.88069818  0.44177781  0.21914751  1
  Te  Te12  1  0.14457809  0.48335271  0.51891843  1
  Te  Te13  1  0.39298545  0.83680152  0.43291596  1
  Te  Te14  1  0.77822486  0.10851794  0.43133875  1
  Te  Te15  1  0.71806884  0.49101015  0.35859205  1
  Te  Te16  1  0.13680057  0.49639538  0.64263873  1
  Te  Te17  1  0.38428504  0.85131391  0.55795538  1
  Te  Te18  1  0.76809182  0.12052326  0.55660434  1
  Te  Te19  1  0.71426413  0.49533535  0.48584397  1
  Te  Te20  1  0.13637777  0.50728488  0.76529720  1
  Te  Te21  1  0.36627653  0.86049934  0.68332418  1
  Te  Te22  1  0.74211725  0.13988619  0.68222832  1
  Te  Te23  1  0.69972400  0.50630618  0.61161405  1
  Te  Te24  1  0.07149200  0.52467839  0.89881338  1
  Te  Te25  1  0.33720861  0.85532984  0.82145181  1
  Te  Te26  1  0.69933259  0.16898503  0.81967403  1
  Te  Te27  1  0.68599051  0.51591537  0.73590515  1
  Te  Te28  1  0.29452608  0.91311085  0.94154999  1
  Te  Te29  1  0.63536767  0.19051650  0.94103615  1
  Te  Te30  1  0.85880814  0.51739320  0.85354069  1
  Te  Te31  1  0.65377568  0.50178576  0.98924391  1
loop_
_geom_bond_atom_site_label_1
_geom_bond_atom_site_label_2
_geom_bond_distance
_geom_bond_site_symmetry_2
Ba0 Te29 3.343663 1_565
Ba0 Te28 3.459221 1_655
Ba0 Te2 3.539917 1_556
Ba0 Te31 3.657338 1_565
Ba0 Te31 3.781414 1_555
Ba0 Te0 4.061100 1_566
Ba1 Te10 3.443420 1_465
Ba1 Te4 3.503722 1_565
Ba1 Te11 3.532933 1_555
Ba1 Te6 3.617000 1_565
Ba1 Te5 3.646648 1_555
Ba1 Te9 3.795244 1_555
Ba1 Te11 3.926221 1_465
Ba1 Te4 4.083143 1_555
Ba2 Te6 3.384388 1_555
Ba2 Te5 3.518620 1_545
Ba2 Te1 3.555148 1_555
Ba2 Te2 3.600860 1_645
Ba2 Te7 3.654452 1_545
Ba2 Te7 3.813654 1_555
Ba2 Te1 3.842286 1_645
Ba2 Te3 3.852832 1_555
Ba3 Te9 3.417661 1_545
Ba3 Te8 3.450499 1_555
Ba3 Te14 3.471426 1_455
Ba3 Te10 3.521585 1_555
Ba3 Te15 3.616249 1_455
Ba3 Te15 3.621295 1_545
Ba4 Te9 3.396026 1_555
Ba4 Te6 3.430834 1_565
Ba4 Te4 3.488622 1_655
Ba4 Te11 3.519211 1_565
Ba4 Te10 3.669619 1_565
Ba4 Te4 3.781691 1_565
Ba4 Te5 3.881467 1_655
Ba5 Te13 3.377989 1_545
Ba5 Te12 3.406289 1_555
Ba5 Te18 3.496066 1_455
Ba5 Te14 3.543956 1_555
Ba5 Te19 3.601794 1_455
Ba5 Te19 3.681807 1_545
Ba6 Te10 3.426531 1_565
Ba6 Te13 3.436595 1_555
Ba6 Te8 3.504373 1_655
Ba6 Te9 3.541351 1_655
Ba6 Te15 3.663371 1_565
Ba6 Te15 3.787632 1_555
Ba6 Te8 3.980607 1_565
Ba7 Te17 3.365276 1_545
Ba7 Te16 3.389887 1_555
Ba7 Te22 3.506093 1_455
Ba7 Te18 3.589056 1_555
Ba7 Te23 3.620199 1_455
Ba7 Te23 3.652690 1_545
Ba8 Te14 3.410958 1_565
Ba8 Te17 3.448218 1_555
Ba8 Te12 3.449158 1_655
Ba8 Te13 3.558589 1_655
Ba8 Te19 3.699790 1_565
Ba8 Te19 3.768847 1_555
Ba8 Te12 4.093615 1_565
Ba9 Te21 3.334801 1_545
Ba9 Te20 3.426932 1_555
Ba9 Te27 3.540868 1_455
Ba9 Te22 3.659871 1_555
Ba9 Te27 3.700571 1_545
Ba9 Te26 3.888510 1_455
Ba10 Te18 3.393021 1_565
Ba10 Te16 3.429826 1_655
Ba10 Te21 3.474748 1_555
Ba10 Te17 3.597064 1_655
Ba10 Te23 3.671061 1_565
Ba10 Te23 3.786191 1_555
Ba10 Te16 4.060256 1_565
Ba11 Te29 3.430180 1_465
Ba11 Te28 3.451761 1_555
Ba11 Te30 3.624870 1_555
Ba11 Te24 3.643678 1_565
Ba11 Te25 3.658293 1_555
Ba11 Te24 3.846134 1_555
Ba11 Te26 4.079520 1_565
Ba12 Te22 3.347691 1_565
Ba12 Te20 3.443989 1_655
Ba12 Te21 3.645013 1_655
Ba12 Te27 3.654625 1_555
Ba12 Te27 3.781063 1_565
Ba12 Te25 3.914334 1_555
Ba12 Te20 4.008703 1_565
Ba13 Te28 3.377478 1_545
Ba13 Te29 3.400022 1_555
Ba13 Te26 3.598105 1_555
Ba13 Te24 3.641805 1_645
Ba13 Te30 3.676262 1_555
Ba13 Te24 3.685819 1_555
Ba13 Te25 3.879576 1_645
Al0 Te3 2.603902 1_555
Al0 Te7 2.633515 1_555
Al0 Te0 2.700385 1_655
Al0 Te2 2.714286 1_555
Al1 Te6 2.546499 1_555
Al1 Te5 2.617112 1_555
Al1 Te11 2.684183 1_555
Al1 Te1 2.713925 1_655
Al2 Te15 3.007498 1_555
Al2 Te13 3.091391 1_555
Al2 Te8 3.112768 1_555
Al2 Te14 3.302745 1_555
Al2 Ba5 3.885846 1_555
Al2 Ba8 3.941748 1_455
Al3 Te4 2.638999 1_655
Al3 Te9 2.649549 1_555
Al3 Te10 2.655943 1_555
Al3 Te15 2.781677 1_555
Al4 Te19 3.003667 1_555
Al4 Te17 3.063402 1_555
Al4 Te12 3.090209 1_555
Al4 Te18 3.201493 1_555
Al4 Ba7 3.848451 1_555
Al4 Ba10 3.920899 1_455
Al5 Te8 2.636736 1_655
Al5 Te13 2.655943 1_555
Al5 Te14 2.669414 1_555
Al5 Te19 2.745006 1_555
Al6 Te23 3.012151 1_555
Al6 Te16 3.055267 1_555
Al6 Te21 3.084346 1_555
Al6 Te22 3.185808 1_555
Al6 Ba12 3.850282 1_455
Al6 Ba9 3.864778 1_555
Al7 Te12 2.645280 1_655
Al7 Te17 2.661877 1_555
Al7 Te18 2.673744 1_555
Al7 Te23 2.739994 1_555
Al8 Te26 2.673350 1_555
Al8 Te24 2.676018 1_555
Al8 Te25 2.677606 1_555
Al8 Te30 2.852697 1_455
Al9 Te16 2.651386 1_655
Al9 Te27 2.680744 1_555
Al9 Te21 2.687500 1_555
Al9 Te22 2.702538 1_555
Al10 Te20 2.554679 1_655
Al10 Te25 2.761265 1_555
Al10 Te26 2.765333 1_555
Al10 Te30 2.856331 1_555
Al11 Te31 2.564045 1_555
Al11 Te28 2.599126 1_555
Al11 Te29 2.622502 1_555
Al11 Te24 2.876281 1_655
Te0 Te7 3.159211 1_455
Te1 Te3 3.011996 1_555
Te1 Te11 3.138752 1_455
Te5 Te7 3.074959 1_555
