# generated using pymatgen
data_Rb2CoPb(NO2)6
_symmetry_space_group_name_H-M   'P 1'
_cell_length_a   7.56989181
_cell_length_b   7.69682865
_cell_length_c   7.54721124
_cell_angle_alpha   59.53920797
_cell_angle_beta   61.21998038
_cell_angle_gamma   59.24843880
_symmetry_Int_Tables_number   1
_chemical_formula_structural   Rb2CoPb(NO2)6
_chemical_formula_sum   'Rb2 Co1 Pb1 N6 O12'
_cell_volume   310.73828382
_cell_formula_units_Z   1
loop_
 _symmetry_equiv_pos_site_id
 _symmetry_equiv_pos_as_xyz
  1  'x, y, z'
loop_
 _atom_site_type_symbol
 _atom_site_label
 _atom_site_symmetry_multiplicity
 _atom_site_fract_x
 _atom_site_fract_y
 _atom_site_fract_z
 _atom_site_occupancy
  Rb  Rb0  1  0.74999200  0.75000500  0.74998600  1
  Rb  Rb1  1  0.24995900  0.25008500  0.24998800  1
  Co  Co0  1  0.00000800  0.99994500  0.00006600  1
  Pb  Pb0  1  0.50042000  0.49973800  0.49965800  1
  N  N0  1  0.19461700  0.80535700  0.80533000  1
  N  N1  1  0.80431200  0.80441900  0.19572100  1
  N  N2  1  0.81318500  0.18684100  0.81317500  1
  N  N3  1  0.18689600  0.81318000  0.18690100  1
  N  N4  1  0.19555100  0.19559000  0.80445200  1
  N  N5  1  0.80529200  0.19466600  0.19463500  1
  O  O0  1  0.15343100  0.35845300  0.64151400  1
  O  O1  1  0.84644600  0.64149900  0.35862600  1
  O  O2  1  0.34810100  0.65194200  0.14979500  1
  O  O3  1  0.64144200  0.84654000  0.15353000  1
  O  O4  1  0.35853600  0.15334600  0.84654000  1
  O  O5  1  0.35348300  0.84349100  0.64630800  1
  O  O6  1  0.14975000  0.85026700  0.34813700  1
  O  O7  1  0.65200500  0.34806400  0.85028000  1
  O  O8  1  0.15670000  0.64632900  0.84334900  1
  O  O9  1  0.64624600  0.15678400  0.35353400  1
  O  O10  1  0.85034500  0.14979500  0.65188900  1
  O  O11  1  0.84328700  0.35366700  0.15658100  1
loop_
_geom_bond_atom_site_label_1
_geom_bond_atom_site_label_2
_geom_bond_distance
_geom_bond_site_symmetry_2
Co0 N2 1.960101 1_464
Co0 N3 1.960149 1_555
Co0 N5 2.112657 1_465
Co0 N0 2.112841 1_554
Co0 N4 2.135283 1_564
Co0 N1 2.135469 1_455
N0 O8 1.259682 1_555
N0 O5 1.259698 1_555
N1 O3 1.261413 1_555
N1 O1 1.261434 1_555
N2 O7 1.257761 1_555
N2 O10 1.257907 1_555
N3 O6 1.257767 1_555
N3 O2 1.257901 1_555
N4 O0 1.261396 1_555
N4 O4 1.261444 1_555
N5 O9 1.259727 1_555
N5 O11 1.259744 1_555
O0 Pb0 2.874183 1_555
O0 Rb1 3.123753 1_555
O0 Rb0 3.124329 1_455
O1 Pb0 2.871446 1_555
O1 Rb0 3.123406 1_555
O1 Rb1 3.124246 1_655
O2 Pb0 2.843951 1_555
O2 Rb1 3.182470 1_555
O2 Rb0 3.182742 1_554
O3 Pb0 2.871877 1_555
O3 Rb1 3.124391 1_565
O3 Rb0 3.124646 1_554
O4 Pb0 2.873953 1_555
O4 Rb0 3.123542 1_545
O4 Rb1 3.124815 1_556
O5 Pb0 2.869954 1_555
O5 Rb1 3.100469 1_565
O5 Rb0 3.101810 1_555
O6 Pb0 2.846785 1_555
O6 Rb0 3.182608 1_455
O6 Rb1 3.182615 1_565
O7 Pb0 2.846718 1_555
O7 Rb0 3.182095 1_555
O7 Rb1 3.183032 1_556
O8 Pb0 2.870165 1_555
O8 Rb1 3.100477 1_556
O8 Rb0 3.101339 1_455
O9 Pb0 2.863927 1_555
O9 Rb1 3.100137 1_555
O9 Rb0 3.101937 1_545
O10 Pb0 2.843954 1_555
O10 Rb1 3.182135 1_655
O10 Rb0 3.183228 1_545
O11 Pb0 2.863779 1_555
O11 Rb0 3.100597 1_554
O11 Rb1 3.101530 1_655
