# generated using pymatgen
data_Sr2CuSi2O7
_symmetry_space_group_name_H-M   'P 1'
_cell_length_a   8.20647500
_cell_length_b   8.20647500
_cell_length_c   5.11143600
_cell_angle_alpha   90.00000000
_cell_angle_beta   90.00000000
_cell_angle_gamma   90.00000000
_symmetry_Int_Tables_number   1
_chemical_formula_structural   Sr2CuSi2O7
_chemical_formula_sum   'Sr4 Cu2 Si4 O14'
_cell_volume   344.23595433
_cell_formula_units_Z   2
loop_
 _symmetry_equiv_pos_site_id
 _symmetry_equiv_pos_as_xyz
  1  'x, y, z'
loop_
 _atom_site_type_symbol
 _atom_site_label
 _atom_site_symmetry_multiplicity
 _atom_site_fract_x
 _atom_site_fract_y
 _atom_site_fract_z
 _atom_site_occupancy
  Sr  Sr0  1  0.66653400  0.16653400  0.99115400  1
  Sr  Sr1  1  0.83346600  0.66653400  0.00884600  1
  Sr  Sr2  1  0.16653400  0.33346600  0.00884600  1
  Sr  Sr3  1  0.33346600  0.83346600  0.99115400  1
  Cu  Cu0  1  0.50000000  0.50000000  0.50000000  1
  Cu  Cu1  1  0.00000000  0.00000000  0.50000000  1
  Si  Si0  1  0.86377700  0.36377700  0.53652900  1
  Si  Si1  1  0.63622300  0.86377700  0.46347100  1
  Si  Si2  1  0.36377700  0.13622300  0.46347100  1
  Si  Si3  1  0.13622300  0.63622300  0.53652900  1
  O  O0  1  0.69326000  0.41852200  0.67960500  1
  O  O1  1  0.30674000  0.58147800  0.67960500  1
  O  O2  1  0.41852200  0.30674000  0.32039500  1
  O  O3  1  0.58147800  0.69326000  0.32039500  1
  O  O4  1  0.91852200  0.19326000  0.67960500  1
  O  O5  1  0.80674000  0.91852200  0.32039500  1
  O  O6  1  0.19326000  0.08147800  0.32039500  1
  O  O7  1  0.08147800  0.80674000  0.67960500  1
  O  O8  1  0.86499900  0.36499900  0.22050300  1
  O  O9  1  0.63500100  0.86499900  0.77949700  1
  O  O10  1  0.00000000  0.50000000  0.65254200  1
  O  O11  1  0.50000000  0.00000000  0.34745800  1
  O  O12  1  0.13500100  0.63500100  0.22050300  1
  O  O13  1  0.36499900  0.13500100  0.77949700  1
loop_
_geom_bond_atom_site_label_1
_geom_bond_atom_site_label_2
_geom_bond_distance
_geom_bond_site_symmetry_2
Cu0 O2 1.950700 1_555
Cu0 O0 1.950700 1_555
Cu0 O1 1.950700 1_555
Cu0 O3 1.950700 1_555
Cu1 O7 1.950700 1_545
Cu1 O6 1.950700 1_555
Cu1 O4 1.950700 1_455
Cu1 O5 1.950700 1_445
O0 Si0 1.641595 1_555
O0 Sr0 2.619235 1_555
O0 Sr1 2.880707 1_556
O1 Si3 1.641595 1_555
O1 Sr3 2.619235 1_555
O1 Sr2 2.880707 1_556
O2 Si2 1.641595 1_555
O2 Sr2 2.619235 1_555
O2 Sr0 2.880707 1_554
O3 Si1 1.641595 1_555
O3 Sr1 2.619235 1_555
O3 Sr3 2.880707 1_554
O4 Si0 1.641595 1_555
O4 Sr0 2.619235 1_555
O4 Sr2 2.880707 1_656
O5 Si1 1.641595 1_555
O5 Sr1 2.619235 1_555
O5 Sr0 2.880707 1_564
O6 Si2 1.641595 1_555
O6 Sr2 2.619235 1_555
O6 Sr3 2.880707 1_544
O7 Si3 1.641595 1_555
O7 Sr3 2.619235 1_555
O7 Sr1 2.880707 1_456
O8 Si0 1.615409 1_555
O8 Sr0 2.584494 1_554
O8 Sr1 2.713071 1_555
O8 Sr2 2.713071 1_655
O9 Si1 1.615409 1_555
O9 Sr1 2.584494 1_556
O9 Sr0 2.713071 1_565
O9 Sr3 2.713071 1_555
O10 Si0 1.688517 1_455
O10 Si3 1.688517 1_555
O10 Sr1 2.655629 1_456
O10 Sr2 2.655629 1_556
O11 Si1 1.688517 1_545
O11 Si2 1.688517 1_555
O11 Sr0 2.655629 1_554
O11 Sr3 2.655629 1_544
O12 Si3 1.615409 1_555
O12 Sr3 2.584494 1_554
O12 Sr1 2.713071 1_455
O12 Sr2 2.713071 1_555
O13 Si2 1.615409 1_555
O13 Sr2 2.584494 1_556
O13 Sr0 2.713071 1_555
O13 Sr3 2.713071 1_545
