# generated using pymatgen
data_Tb6PbSe10
_symmetry_space_group_name_H-M   'P 1'
_cell_length_a   7.62691100
_cell_length_b   7.63384137
_cell_length_c   31.52433241
_cell_angle_alpha   94.68461168
_cell_angle_beta   94.51583840
_cell_angle_gamma   109.56858810
_symmetry_Int_Tables_number   1
_chemical_formula_structural   Tb6PbSe10
_chemical_formula_sum   'Tb24 Pb4 Se40'
_cell_volume   1712.60597403
_cell_formula_units_Z   4
loop_
 _symmetry_equiv_pos_site_id
 _symmetry_equiv_pos_as_xyz
  1  'x, y, z'
loop_
 _atom_site_type_symbol
 _atom_site_label
 _atom_site_symmetry_multiplicity
 _atom_site_fract_x
 _atom_site_fract_y
 _atom_site_fract_z
 _atom_site_occupancy
  Tb  Tb0  1  0.17589100  0.80125100  0.02212900  1
  Tb  Tb1  1  0.57225500  0.20699200  0.22497100  1
  Tb  Tb2  1  0.99731300  0.36911900  0.12586900  1
  Tb  Tb3  1  0.53118200  0.40357900  0.07422700  1
  Tb  Tb4  1  0.97139700  0.61165600  0.43063600  1
  Tb  Tb5  1  0.39595600  0.76707900  0.32705700  1
  Tb  Tb6  1  0.93032800  0.80239000  0.27537800  1
  Tb  Tb7  1  0.17503000  0.92317900  0.14993400  1
  Tb  Tb8  1  0.37059000  0.99130200  0.62569800  1
  Tb  Tb9  1  0.80818800  0.16735500  0.52790900  1
  Tb  Tb10  1  0.32140100  0.19816800  0.47621500  1
  Tb  Tb11  1  0.99493200  0.12037500  0.37623800  1
  Tb  Tb12  1  0.57414000  0.32300500  0.35115700  1
  Tb  Tb13  1  0.77491600  0.40287400  0.82590300  1
  Tb  Tb14  1  0.19490400  0.56792900  0.72470100  1
  Tb  Tb15  1  0.73363100  0.60037900  0.67085200  1
  Tb  Tb16  1  0.39749400  0.54151500  0.57268100  1
  Tb  Tb17  1  0.59721100  0.97802100  0.92164200  1
  Tb  Tb18  1  0.36937500  0.12465100  0.75284200  1
  Tb  Tb19  1  0.81042600  0.92442900  0.77900400  1
  Tb  Tb20  1  0.92155900  0.17763000  0.64906800  1
  Tb  Tb21  1  0.19983300  0.32295100  0.96955900  1
  Tb  Tb22  1  0.78068300  0.53826700  0.94659400  1
  Tb  Tb23  1  0.32375600  0.57049600  0.85120000  1
  Pb  Pb0  1  0.59929500  0.72509000  0.17293300  1
  Pb  Pb1  1  0.72865900  0.97092100  0.04813400  1
  Pb  Pb2  1  0.12987000  0.37714200  0.24948900  1
  Pb  Pb3  1  0.52620200  0.76997500  0.45383700  1
  Se  Se0  1  0.32617200  0.69213600  0.09827600  1
  Se  Se1  1  0.24525700  0.09313600  0.30286600  1
  Se  Se2  1  0.92031900  0.41982000  0.02568800  1
  Se  Se3  1  0.33594200  0.32837400  0.16797100  1
  Se  Se4  1  0.90060700  0.04284900  0.20026400  1
  Se  Se5  1  0.63887400  0.48208200  0.50267800  1
  Se  Se6  1  0.15424900  0.14716500  0.07225900  1
  Se  Se7  1  0.14260300  0.48684300  0.49997100  1
  Se  Se8  1  0.74676900  0.74150900  0.36895700  1
  Se  Se9  1  0.61084800  0.12606000  0.13030100  1
  Se  Se10  1  0.29671000  0.43247500  0.39809000  1
  Se  Se11  1  0.85953700  0.69040800  0.09888100  1
  Se  Se12  1  0.55321700  0.54312000  0.27433400  1
  Se  Se13  1  0.31078300  0.82965000  0.23016600  1
  Se  Se14  1  0.72152800  0.23291000  0.42702200  1
  Se  Se15  1  0.90090800  0.54576500  0.19914200  1
  Se  Se16  1  0.00994600  0.51848600  0.33069900  1
  Se  Se17  1  0.15165900  0.15860600  0.57423000  1
  Se  Se18  1  0.69651500  0.84814600  0.60161200  1
  Se  Se19  1  0.94727600  0.95039900  0.46911600  1
  Se  Se20  1  0.29617100  0.94579900  0.39897200  1
  Se  Se21  1  0.72911700  0.09374100  0.30056700  1
  Se  Se22  1  0.42012400  0.92774600  0.53115600  1
  Se  Se23  1  0.54656400  0.54446000  0.77219400  1
  Se  Se24  1  0.10111500  0.25418700  0.79859000  1
  Se  Se25  1  0.34883000  0.33976000  0.67393900  1
  Se  Se26  1  0.11137500  0.60537400  0.63227200  1
  Se  Se27  1  0.52650100  0.01807800  0.82662700  1
  Se  Se28  1  0.68949000  0.32890600  0.60235700  1
  Se  Se29  1  0.80818700  0.31525900  0.72722000  1
  Se  Se30  1  0.94406500  0.93937300  0.96987100  1
  Se  Se31  1  0.49452400  0.63019200  0.99878200  1
  Se  Se32  1  0.03481900  0.90329300  0.70027500  1
  Se  Se33  1  0.73610200  0.74443000  0.86931800  1
  Se  Se34  1  0.10181800  0.73565300  0.79794900  1
  Se  Se35  1  0.53329600  0.89897200  0.70223200  1
  Se  Se36  1  0.21678900  0.70723500  0.92884200  1
  Se  Se37  1  0.45195300  0.30016100  0.89870900  1
  Se  Se38  1  0.49547500  0.14684900  0.99685900  1
  Se  Se39  1  0.93754800  0.30787500  0.89989100  1
loop_
_geom_bond_atom_site_label_1
_geom_bond_atom_site_label_2
_geom_bond_distance
_geom_bond_site_symmetry_2
Pb0 Se4 2.742312 1_565
Pb0 Se0 2.953270 1_555
Pb0 Se3 3.004802 1_555
Pb0 Se15 3.137402 1_555
Pb0 Se13 3.209496 1_555
Pb0 Se11 3.231099 1_555
Pb1 Se31 2.857442 1_554
Pb1 Se38 3.013521 1_564
Pb1 Se6 3.073007 1_665
Pb1 Se9 3.081826 1_565
Pb1 Se30 3.106500 1_554
Pb1 Se11 3.143433 1_555
Pb2 Se4 2.813305 1_455
Pb2 Se15 2.937444 1_455
Pb2 Se16 3.022169 1_555
Pb2 Se12 3.056694 1_555
Pb2 Se1 3.153911 1_555
Pb2 Se3 3.175592 1_555
Pb2 Tb5 3.597456 1_555
Pb3 Se22 2.920607 1_555
Pb3 Se10 2.923218 1_555
Pb3 Se19 3.021218 1_555
Pb3 Se20 3.057741 1_555
Pb3 Se5 3.090077 1_555
Pb3 Tb9 3.600297 1_565
Se0 Tb7 2.877496 1_555
Se0 Tb0 2.881453 1_555
Se0 Tb2 3.111102 1_455
Se0 Tb3 3.176949 1_555
Se1 Tb6 2.689488 1_445
Se1 Tb12 2.775336 1_555
Se1 Tb11 3.149770 1_455
Se1 Tb5 3.191629 1_545
Se1 Tb1 3.586955 1_555
Se2 Tb0 2.928541 1_655
Se2 Tb22 2.960395 1_554
Se2 Tb21 3.107843 1_654
Se2 Tb2 3.244743 1_555
Se2 Tb3 3.415391 1_555
Se3 Tb1 2.866452 1_555
Se3 Tb7 2.908131 1_545
Se3 Tb2 2.931618 1_455
Se3 Tb3 3.417261 1_555
Se4 Tb7 3.049518 1_645
Se4 Tb6 3.151529 1_545
Se4 Tb1 3.270798 1_555
Se4 Tb2 3.499100 1_555
Se5 Tb10 2.669723 1_555
Se5 Tb16 3.082328 1_555
Se5 Tb9 3.209563 1_555
Se5 Tb4 3.487349 1_555
Se6 Tb3 2.877945 1_555
Se6 Tb2 2.892925 1_455
Se6 Tb0 3.024749 1_545
Se6 Tb7 3.122340 1_545
Se6 Tb21 3.602460 1_554
Se7 Tb16 2.793901 1_555
Se7 Tb4 2.848594 1_455
Se7 Tb10 3.030023 1_555
Se7 Tb9 3.125210 1_455
Se8 Tb11 2.855890 1_565
Se8 Tb4 2.937055 1_555
Se8 Tb5 2.962632 1_555
Se8 Tb12 3.004698 1_555
Se8 Tb6 3.364075 1_555
Se9 Tb2 2.931533 1_555
Se9 Tb3 3.047454 1_555
Se9 Tb1 3.055161 1_555
Se9 Tb7 3.295811 1_545
Se10 Tb11 2.693947 1_455
Se10 Tb12 2.973222 1_555
Se10 Tb10 3.189436 1_555
Se10 Tb4 3.394803 1_455
Se10 Tb5 3.466673 1_555
Se11 Tb3 2.722574 1_555
Se11 Tb7 2.756185 1_655
Se11 Tb2 3.125717 1_555
Se11 Tb0 3.503990 1_655
Se12 Tb5 2.889187 1_555
Se12 Tb6 2.889988 1_555
Se12 Tb1 2.942732 1_555
Se12 Tb12 3.081802 1_555
Se13 Tb7 2.890802 1_555
Se13 Tb1 2.929478 1_565
Se13 Tb5 3.180152 1_555
Se13 Tb6 3.284778 1_455
Se14 Tb12 2.796357 1_555
Se14 Tb4 2.867985 1_555
Se14 Tb11 3.024927 1_555
Se14 Tb9 3.309491 1_555
Se14 Tb10 3.472544 1_555
Se15 Tb2 2.849112 1_555
Se15 Tb6 2.918142 1_555
Se15 Tb1 3.155494 1_555
Se15 Tb7 3.504852 1_655
Se16 Tb5 2.937393 1_555
Se16 Tb6 3.072364 1_455
Se16 Tb4 3.230721 1_455
Se16 Tb12 3.295898 1_455
Se16 Tb11 3.437391 1_455
Se17 Tb8 2.896928 1_545
Se17 Tb16 2.903205 1_555
Se17 Tb9 2.920608 1_455
Se17 Tb20 3.071415 1_455
Se17 Tb10 3.440182 1_555
Se18 Tb16 2.694423 1_555
Se18 Tb20 2.756731 1_565
Se18 Tb15 3.059031 1_555
Se18 Tb8 3.151418 1_555
Se18 Tb9 3.450777 1_565
Se19 Tb10 2.825698 1_665
Se19 Tb4 2.834382 1_555
Se19 Tb9 2.878991 1_565
Se19 Tb11 3.295559 1_565
Se20 Tb5 2.835877 1_555
Se20 Tb10 2.930803 1_565
Se20 Tb11 3.084812 1_465
Se20 Tb4 3.195516 1_455
Se20 Tb12 3.490151 1_565
Se21 Tb12 2.868851 1_555
Se21 Tb1 2.904891 1_555
Se21 Tb11 2.953825 1_555
Se21 Tb5 3.130839 1_545
Se21 Tb6 3.181531 1_545
Se22 Tb9 2.927114 1_565
Se22 Tb10 3.041076 1_565
Se22 Tb8 3.053628 1_555
Se22 Tb16 3.280509 1_555
Se23 Tb13 2.857226 1_555
Se23 Tb19 2.903385 1_555
Se23 Tb18 3.019702 1_555
Se23 Tb14 3.033246 1_555
Se23 Tb23 3.153135 1_555
Se23 Tb15 3.599543 1_555
Se24 Tb19 2.724971 1_445
Se24 Tb23 2.760497 1_555
Se24 Tb18 2.971663 1_555
Se24 Tb13 3.207590 1_455
Se24 Tb14 3.420469 1_555
Se25 Tb14 2.860630 1_555
Se25 Tb15 2.957405 1_555
Se25 Tb8 3.015121 1_545
Se25 Tb20 3.082766 1_455
Se25 Tb18 3.112269 1_555
Se25 Tb16 3.647738 1_555
Se26 Tb8 2.982229 1_555
Se26 Tb14 2.990536 1_555
Se26 Tb16 3.120453 1_555
Se26 Tb15 3.204160 1_455
Se26 Tb20 3.205474 1_455
Se27 Tb18 2.834017 1_555
Se27 Tb13 2.916942 1_555
Se27 Tb19 2.971169 1_545
Se27 Tb17 3.059704 1_545
Se27 Tb23 3.427426 1_545
Se28 Tb15 2.785274 1_555
Se28 Tb20 2.805584 1_555
Se28 Tb9 2.908302 1_555
Se28 Tb8 3.080866 1_545
Se28 Tb16 3.287893 1_555
Se29 Tb20 2.905595 1_555
Se29 Tb14 2.945678 1_655
Se29 Tb15 3.085461 1_555
Se29 Tb13 3.176109 1_555
Se29 Tb18 3.365426 1_555
Se29 Tb19 3.520224 1_545
Se30 Tb0 2.832987 1_656
Se30 Tb22 2.898281 1_555
Se30 Tb21 2.925919 1_665
Se30 Tb17 3.059352 1_555
Se31 Tb21 2.681624 1_555
Se31 Tb22 3.060266 1_555
Se31 Tb3 3.101405 1_556
Se31 Tb0 3.225392 1_556
Se32 Tb15 2.690763 1_455
Se32 Tb18 2.846193 1_565
Se32 Tb20 3.046698 1_465
Se32 Tb19 3.146929 1_455
Se32 Tb14 3.302373 1_555
Se32 Tb8 3.548275 1_555
Se33 Tb17 2.843021 1_555
Se33 Tb13 2.959255 1_555
Se33 Tb23 2.962403 1_555
Se33 Tb22 3.062880 1_555
Se33 Tb19 3.269057 1_555
Se34 Tb14 2.803476 1_555
Se34 Tb23 2.932694 1_555
Se34 Tb19 3.074009 1_455
Se34 Tb13 3.148846 1_455
Se34 Tb18 3.477327 1_565
Se35 Tb8 2.872278 1_555
Se35 Tb18 2.895591 1_565
Se35 Tb19 3.033985 1_555
Se35 Tb14 3.124144 1_555
Se35 Tb15 3.272860 1_555
Se36 Tb23 2.865932 1_555
Se36 Tb17 2.984230 1_555
Se36 Tb0 3.034867 1_556
Se36 Tb22 3.252267 1_455
Se36 Tb21 3.264529 1_555
Se37 Tb22 2.787782 1_555
Se37 Tb23 3.013935 1_555
Se37 Tb21 3.090832 1_555
Se37 Tb17 3.128389 1_545
Se37 Tb13 3.440987 1_555
Se38 Tb17 2.888937 1_545
Se38 Tb3 2.936124 1_556
Se38 Tb21 3.089680 1_555
Se38 Tb0 3.142840 1_546
Se38 Tb22 3.623958 1_555
Se39 Tb13 2.815661 1_555
Se39 Tb21 2.819764 1_655
Se39 Tb22 2.820676 1_555
Se39 Tb17 3.119685 1_545
Se39 Tb23 3.508641 1_655
