# generated using pymatgen
data_Li5Fe2P2(CO7)2
_symmetry_space_group_name_H-M   'P 1'
_cell_length_a   9.38372085
_cell_length_b   10.16137946
_cell_length_c   6.46824441
_cell_angle_alpha   90.00000000
_cell_angle_beta   90.00000000
_cell_angle_gamma   63.43990537
_symmetry_Int_Tables_number   1
_chemical_formula_structural   Li5Fe2P2(CO7)2
_chemical_formula_sum   'Li10 Fe4 P4 C4 O28'
_cell_volume   551.66819628
_cell_formula_units_Z   2
loop_
 _symmetry_equiv_pos_site_id
 _symmetry_equiv_pos_as_xyz
  1  'x, y, z'
loop_
 _atom_site_type_symbol
 _atom_site_label
 _atom_site_symmetry_multiplicity
 _atom_site_fract_x
 _atom_site_fract_y
 _atom_site_fract_z
 _atom_site_occupancy
  Li  Li0  1  0.89620130  0.44360961  0.75570771  1
  Li  Li1  1  0.89620130  0.94360961  0.74429229  1
  Li  Li2  1  0.71004498  0.26119852  0.93270277  1
  Li  Li3  1  0.71004498  0.76119852  0.56729723  1
  Li  Li4  1  0.26072238  0.23778567  0.50691296  1
  Li  Li5  1  0.26063307  0.23991913  0.99211196  1
  Li  Li6  1  0.26063307  0.73991913  0.50788804  1
  Li  Li7  1  0.26072238  0.73778567  0.99308704  1
  Li  Li8  1  0.10005541  0.06809175  0.25895715  1
  Li  Li9  1  0.10005541  0.56809175  0.24104285  1
  Fe  Fe0  1  0.67356424  0.06144506  0.24968920  1
  Fe  Fe1  1  0.67356424  0.56144506  0.25031080  1
  Fe  Fe2  1  0.33247605  0.43984964  0.75138403  1
  Fe  Fe3  1  0.33247605  0.93984964  0.74861597  1
  P  P0  1  0.58684362  0.06563109  0.74396870  1
  P  P1  1  0.58684362  0.56563109  0.75603130  1
  P  P2  1  0.41952980  0.42042915  0.24485157  1
  P  P3  1  0.41952980  0.92042915  0.25514843  1
  C  C0  1  0.96309841  0.36992150  0.24858718  1
  C  C1  1  0.96309841  0.86992150  0.25141282  1
  C  C2  1  0.03674918  0.14185889  0.76650128  1
  C  C3  1  0.03674918  0.64185889  0.73349872  1
  O  O0  1  0.93083610  0.00876068  0.24300332  1
  O  O1  1  0.93083610  0.50876068  0.25699668  1
  O  O2  1  0.89921789  0.24695800  0.79448515  1
  O  O3  1  0.84071865  0.34239557  0.24388716  1
  O  O4  1  0.89921789  0.74695800  0.70551485  1
  O  O5  1  0.84071865  0.84239557  0.25611284  1
  O  O6  1  0.69611587  0.06008748  0.93128920  1
  O  O7  1  0.68932927  0.06786217  0.55550828  1
  O  O8  1  0.68932927  0.56786217  0.94449172  1
  O  O9  1  0.69611587  0.56008748  0.56871080  1
  O  O10  1  0.57656982  0.27939270  0.21412456  1
  O  O11  1  0.55980230  0.42701284  0.76731249  1
  O  O12  1  0.57656982  0.77939270  0.28587544  1
  O  O13  1  0.55980230  0.92701284  0.73268751  1
  O  O14  1  0.45936364  0.05501697  0.24902260  1
  O  O15  1  0.42430935  0.20344315  0.75679377  1
  O  O16  1  0.45936364  0.55501697  0.25097740  1
  O  O17  1  0.42430935  0.70344315  0.74320623  1
  O  O18  1  0.32125794  0.42108791  0.43751153  1
  O  O19  1  0.29933275  0.44087184  0.06685314  1
  O  O20  1  0.32125794  0.92108791  0.06248847  1
  O  O21  1  0.29933275  0.94087184  0.43314686  1
  O  O22  1  0.16105288  0.17044860  0.74845012  1
  O  O23  1  0.10737894  0.26503659  0.24605428  1
  O  O24  1  0.16105288  0.67044860  0.75154988  1
  O  O25  1  0.10737894  0.76503659  0.25394572  1
  O  O26  1  0.06590816  0.50371350  0.74304696  1
  O  O27  1  0.06590816  0.00371350  0.75695304  1
loop_
_geom_bond_atom_site_label_1
_geom_bond_atom_site_label_2
_geom_bond_distance
_geom_bond_site_symmetry_2
Li0 O26 1.945628 1_655
Li0 O2 2.001534 1_555
Li0 O9 2.098036 1_555
Li0 O8 2.159107 1_555
Li1 O27 1.945628 1_665
Li1 O4 2.001534 1_555
Li1 O6 2.098036 1_565
Li1 O7 2.159107 1_565
Li2 O2 1.934335 1_555
Li2 O11 1.961297 1_555
Li2 O6 2.105278 1_555
Li2 O10 2.170105 1_556
Li3 O4 1.934335 1_555
Li3 O13 1.961297 1_555
Li3 O9 2.105278 1_555
Li3 O12 2.170105 1_555
Li4 O22 2.087115 1_555
Li4 O15 2.147444 1_555
Li4 O23 2.153568 1_555
Li4 O18 2.222537 1_555
Li4 O14 2.571066 1_555
Li5 O15 2.074617 1_555
Li5 O22 2.108400 1_555
Li5 O23 2.122034 1_556
Li5 O19 2.279981 1_556
Li5 O14 2.576014 1_556
Li6 O17 2.074617 1_555
Li6 O24 2.108400 1_555
Li6 O25 2.122034 1_555
Li6 O21 2.279981 1_555
Li6 O16 2.576014 1_555
Li7 O24 2.087115 1_555
Li7 O17 2.147444 1_555
Li7 O25 2.153568 1_556
Li7 O20 2.222537 1_556
Li7 O16 2.571066 1_556
Li8 O0 1.936925 1_455
Li8 O23 2.034601 1_555
Li8 O21 2.067751 1_545
Li8 O20 2.319921 1_545
Li9 O1 1.936925 1_455
Li9 O25 2.034601 1_555
Li9 O19 2.067751 1_555
Li9 O18 2.319921 1_555
Fe0 O7 1.986880 1_555
Fe0 O10 1.995847 1_555
Fe0 O14 2.040046 1_555
Fe0 O6 2.069748 1_554
Fe0 O5 2.072250 1_545
Fe0 O0 2.227307 1_555
Fe1 O8 1.986880 1_554
Fe1 O12 1.995847 1_555
Fe1 O16 2.040046 1_555
Fe1 O9 2.069748 1_555
Fe1 O3 2.072250 1_555
Fe1 O1 2.227307 1_555
Fe2 O18 2.046241 1_555
Fe2 O19 2.063423 1_556
Fe2 O11 2.080672 1_555
Fe2 O15 2.159454 1_555
Fe2 O24 2.169660 1_555
Fe2 O26 2.286785 1_555
Fe3 O20 2.046241 1_556
Fe3 O21 2.063423 1_555
Fe3 O13 2.080672 1_555
Fe3 O17 2.159454 1_555
Fe3 O22 2.169660 1_565
Fe3 O27 2.286785 1_565
C0 O23 1.295676 1_655
C0 O3 1.298141 1_555
C0 O1 1.304995 1_555
C1 O25 1.295676 1_655
C1 O5 1.298141 1_555
C1 O0 1.304995 1_565
C2 O2 1.267393 1_455
C2 O27 1.306027 1_555
C2 O22 1.327262 1_555
C3 O4 1.267393 1_455
C3 O26 1.306027 1_555
C3 O24 1.327262 1_555
O6 P0 1.571936 1_555
O7 P0 1.559119 1_555
O8 P1 1.559119 1_555
O9 P1 1.571936 1_555
O10 P2 1.541527 1_555
O11 P1 1.540572 1_555
O12 P3 1.541527 1_555
O13 P0 1.540572 1_565
O14 P3 1.571229 1_545
O15 P0 1.544043 1_555
O16 P2 1.571229 1_555
O17 P1 1.544043 1_555
O18 P2 1.548496 1_555
O19 P2 1.559280 1_555
O20 P3 1.548496 1_555
O21 P3 1.559280 1_555
