# generated using pymatgen
data_Na2FeO3
_symmetry_space_group_name_H-M   'P 1'
_cell_length_a   5.39118514
_cell_length_b   10.95762860
_cell_length_c   5.39117953
_cell_angle_alpha   94.87793645
_cell_angle_beta   60.00086546
_cell_angle_gamma   85.12197188
_symmetry_Int_Tables_number   1
_chemical_formula_structural   Na2FeO3
_chemical_formula_sum   'Na8 Fe4 O12'
_cell_volume   271.79784274
_cell_formula_units_Z   4
loop_
 _symmetry_equiv_pos_site_id
 _symmetry_equiv_pos_as_xyz
  1  'x, y, z'
loop_
 _atom_site_type_symbol
 _atom_site_label
 _atom_site_symmetry_multiplicity
 _atom_site_fract_x
 _atom_site_fract_y
 _atom_site_fract_z
 _atom_site_occupancy
  Na  Na0  1  0.50451400  0.99993700  0.99161600  1
  Na  Na1  1  0.99161700  0.50006400  0.50451400  1
  Na  Na2  1  0.08685600  0.24999900  0.08685600  1
  Na  Na3  1  0.91339500  0.75000000  0.91339500  1
  Na  Na4  1  0.68409400  0.49968500  0.15807500  1
  Na  Na5  1  0.15807400  0.00031500  0.68409600  1
  Na  Na6  1  0.83951900  0.99988300  0.32037500  1
  Na  Na7  1  0.32037000  0.50011700  0.83951800  1
  Fe  Fe0  1  0.75325100  0.25000200  0.75325700  1
  Fe  Fe1  1  0.57964300  0.74999900  0.57963800  1
  Fe  Fe2  1  0.24704000  0.75000000  0.24703900  1
  Fe  Fe3  1  0.41989800  0.25000000  0.41989600  1
  O  O0  1  0.75220000  0.14812900  0.03761000  1
  O  O1  1  0.93445400  0.64764000  0.26111000  1
  O  O2  1  0.03761000  0.35187000  0.75220000  1
  O  O3  1  0.26111000  0.85236000  0.93445400  1
  O  O4  1  0.50903800  0.85125300  0.33427000  1
  O  O5  1  0.33427100  0.64874700  0.50903600  1
  O  O6  1  0.68347300  0.34984100  0.50691500  1
  O  O7  1  0.50691500  0.15015800  0.68347200  1
  O  O8  1  0.43803100  0.35106600  0.10469700  1
  O  O9  1  0.86221500  0.84928600  0.57771700  1
  O  O10  1  0.10469700  0.14893400  0.43803000  1
  O  O11  1  0.57771600  0.65071400  0.86221600  1
loop_
_geom_bond_atom_site_label_1
_geom_bond_atom_site_label_2
_geom_bond_distance
_geom_bond_site_symmetry_2
Na0 O3 2.261072 1_555
Na0 O0 2.261148 1_566
Na0 O7 2.432418 1_565
Na0 O9 2.439720 1_555
Na0 O4 2.572481 1_556
Na0 O10 2.578694 1_566
Na1 O1 2.261063 1_555
Na1 O2 2.261161 1_655
Na1 O6 2.432437 1_555
Na1 O11 2.439720 1_555
Na1 O5 2.572474 1_655
Na1 O8 2.578699 1_655
Na2 O7 2.303045 1_554
Na2 O6 2.303046 1_455
Na2 O10 2.310968 1_555
Na2 O8 2.310988 1_555
Na2 O0 2.311432 1_455
Na2 O2 2.311435 1_554
Na3 O9 2.306049 1_555
Na3 O11 2.306054 1_555
Na3 O1 2.309497 1_556
Na3 O3 2.309500 1_655
Na3 O4 2.312125 1_556
Na3 O5 2.312133 1_655
Na4 O8 2.272466 1_555
Na4 O5 2.277487 1_555
Na4 O1 2.393216 1_555
Na4 O2 2.397041 1_654
Na4 O6 2.598582 1_555
Na4 O11 2.610367 1_554
Na5 O10 2.272472 1_555
Na5 O4 2.277499 1_545
Na5 O3 2.393208 1_545
Na5 O0 2.397030 1_456
Na5 O7 2.598577 1_555
Na5 O9 2.610373 1_445
Na6 O9 2.277645 1_555
Na6 O7 2.279987 1_565
Na6 O3 2.486409 1_654
Na6 O0 2.488569 1_565
Na6 O4 2.492635 1_555
Na6 O10 2.498270 1_665
Na7 O11 2.277666 1_555
Na7 O6 2.280005 1_555
Na7 O1 2.486402 1_456
Na7 O2 2.488556 1_555
Na7 O5 2.492628 1_555
Na7 O8 2.498287 1_556
Fe0 O6 1.943919 1_555
Fe0 O7 1.943946 1_555
Fe0 O8 1.951289 1_556
Fe0 O10 1.951335 1_655
Fe0 O2 1.969661 1_655
Fe0 O0 1.969677 1_556
Fe1 O11 1.942290 1_555
Fe1 O9 1.942291 1_555
Fe1 O5 1.951163 1_555
Fe1 O4 1.951164 1_555
Fe1 O1 1.971991 1_555
Fe1 O3 1.972022 1_555
Fe2 O11 2.062466 1_554
Fe2 O9 2.062476 1_455
Fe2 O5 2.071046 1_555
Fe2 O4 2.071053 1_555
Fe2 O3 2.076486 1_554
Fe2 O1 2.076492 1_455
Fe3 O0 2.068728 1_555
Fe3 O2 2.068733 1_555
Fe3 O6 2.068786 1_555
Fe3 O7 2.068788 1_555
Fe3 O8 2.072662 1_555
Fe3 O10 2.072673 1_555
