# generated using pymatgen
data_Mg2GaW3S8
_symmetry_space_group_name_H-M   'P 1'
_cell_length_a   7.52499574
_cell_length_b   7.57909030
_cell_length_c   7.52615563
_cell_angle_alpha   55.45903313
_cell_angle_beta   55.17332120
_cell_angle_gamma   55.38655244
_symmetry_Int_Tables_number   1
_chemical_formula_structural   Mg2GaW3S8
_chemical_formula_sum   'Mg2 Ga1 W3 S8'
_cell_volume   270.64722433
_cell_formula_units_Z   1
loop_
 _symmetry_equiv_pos_site_id
 _symmetry_equiv_pos_as_xyz
  1  'x, y, z'
loop_
 _atom_site_type_symbol
 _atom_site_label
 _atom_site_symmetry_multiplicity
 _atom_site_fract_x
 _atom_site_fract_y
 _atom_site_fract_z
 _atom_site_occupancy
  Mg  Mg0  1  0.88590500  0.88337400  0.88550900  1
  Mg  Mg1  1  0.13966800  0.13683100  0.13928800  1
  Ga  Ga0  1  0.48422500  0.48217800  0.48417000  1
  W  W0  1  0.53439500  0.52923400  0.93983200  1
  W  W1  1  0.93885400  0.52988000  0.53431000  1
  W  W2  1  0.52916000  0.94812800  0.52841800  1
  S  S0  1  0.75544000  0.75817900  0.75609500  1
  S  S1  1  0.24383400  0.24684600  0.72317100  1
  S  S2  1  0.24401000  0.72367200  0.24512600  1
  S  S3  1  0.72317700  0.24596600  0.24416100  1
  S  S4  1  0.72936800  0.28572200  0.72888900  1
  S  S5  1  0.29248000  0.72901500  0.72886000  1
  S  S6  1  0.27054700  0.27246500  0.27063400  1
  S  S7  1  0.72894000  0.72850600  0.29154000  1
loop_
_geom_bond_atom_site_label_1
_geom_bond_atom_site_label_2
_geom_bond_distance
_geom_bond_site_symmetry_2
Mg0 S7 2.344357 1_556
Mg0 S5 2.344539 1_655
Mg0 S4 2.346269 1_565
Mg0 S0 2.451801 1_555
Mg1 S1 2.468812 1_554
Mg1 S3 2.469711 1_455
Mg1 S2 2.479736 1_545
Mg1 S6 2.533464 1_555
Ga0 S1 2.449456 1_555
Ga0 S3 2.449759 1_555
Ga0 S2 2.464931 1_555
Ga0 S4 2.581190 1_555
Ga0 S7 2.601053 1_555
Ga0 S5 2.603534 1_555
S0 W1 2.369758 1_555
S0 W0 2.370801 1_555
S0 W2 2.378741 1_555
S1 W2 2.555420 1_545
S1 W1 2.562074 1_455
S2 W1 2.581746 1_455
S2 W0 2.583136 1_554
S3 W2 2.550337 1_545
S3 W0 2.559032 1_554
S4 W1 2.378679 1_555
S4 W0 2.380165 1_555
S5 W0 2.360375 1_555
S5 W2 2.378248 1_555
S6 W2 2.657711 1_545
S6 W1 2.678623 1_455
S6 W0 2.678998 1_554
S7 W1 2.361283 1_555
S7 W2 2.381186 1_555
