# generated using pymatgen
data_NaPrTe2
_symmetry_space_group_name_H-M   'P 1'
_cell_length_a   9.15461911
_cell_length_b   9.15461911
_cell_length_c   9.15461911
_cell_angle_alpha   60.00000000
_cell_angle_beta   60.00000000
_cell_angle_gamma   60.00000000
_symmetry_Int_Tables_number   1
_chemical_formula_structural   NaPrTe2
_chemical_formula_sum   'Na4 Pr4 Te8'
_cell_volume   542.50761755
_cell_formula_units_Z   4
loop_
 _symmetry_equiv_pos_site_id
 _symmetry_equiv_pos_as_xyz
  1  'x, y, z'
loop_
 _atom_site_type_symbol
 _atom_site_label
 _atom_site_symmetry_multiplicity
 _atom_site_fract_x
 _atom_site_fract_y
 _atom_site_fract_z
 _atom_site_occupancy
  Na  Na0  1  0.12500000  0.62500000  0.12500000  1
  Na  Na1  1  0.12500000  0.12500000  0.62500000  1
  Na  Na2  1  0.62500000  0.12500000  0.12500000  1
  Na  Na3  1  0.12500000  0.12500000  0.12500000  1
  Pr  Pr0  1  0.62500000  0.12500000  0.62500000  1
  Pr  Pr1  1  0.62500000  0.62500000  0.62500000  1
  Pr  Pr2  1  0.12500000  0.62500000  0.62500000  1
  Pr  Pr3  1  0.62500000  0.62500000  0.12500000  1
  Te  Te0  1  0.37726841  0.86819477  0.37726841  1
  Te  Te1  1  0.87273159  0.38180523  0.87273159  1
  Te  Te2  1  0.87273159  0.87273159  0.38180523  1
  Te  Te3  1  0.87273159  0.87273159  0.87273159  1
  Te  Te4  1  0.86819477  0.37726841  0.37726841  1
  Te  Te5  1  0.37726841  0.37726841  0.86819477  1
  Te  Te6  1  0.37726841  0.37726841  0.37726841  1
  Te  Te7  1  0.38180523  0.87273159  0.87273159  1
loop_
_geom_bond_atom_site_label_1
_geom_bond_atom_site_label_2
_geom_bond_distance
_geom_bond_site_symmetry_2
Na0 Te5 3.266279 1_554
Na0 Te2 3.266279 1_455
Na0 Te7 3.266279 1_554
Na0 Te4 3.266279 1_455
Na0 Te3 3.266279 1_454
Na0 Te6 3.266279 1_555
Na1 Te1 3.266279 1_455
Na1 Te0 3.266279 1_545
Na1 Te4 3.266279 1_455
Na1 Te3 3.266279 1_445
Na1 Te6 3.266279 1_555
Na1 Te7 3.266279 1_545
Na2 Te6 3.266279 1_555
Na2 Te3 3.266279 1_544
Na2 Te2 3.266279 1_545
Na2 Te1 3.266279 1_554
Na2 Te0 3.266279 1_545
Na2 Te5 3.266279 1_554
Na3 Te7 3.266279 1_544
Na3 Te4 3.266279 1_455
Na3 Te0 3.266279 1_545
Na3 Te1 3.266279 1_454
Na3 Te5 3.266279 1_554
Na3 Te2 3.266279 1_445
Pr0 Te5 3.207547 1_555
Pr0 Te2 3.207547 1_545
Pr0 Te6 3.207547 1_555
Pr0 Te3 3.207547 1_545
Pr0 Te7 3.207547 1_545
Pr0 Te4 3.207547 1_555
Pr1 Te5 3.207547 1_555
Pr1 Te2 3.207547 1_555
Pr1 Te0 3.207547 1_555
Pr1 Te1 3.207547 1_555
Pr1 Te7 3.207547 1_555
Pr1 Te4 3.207547 1_555
Pr2 Te5 3.207547 1_555
Pr2 Te6 3.207547 1_555
Pr2 Te3 3.207547 1_455
Pr2 Te0 3.207547 1_555
Pr2 Te2 3.207547 1_455
Pr2 Te1 3.207547 1_455
Pr3 Te3 3.207547 1_554
Pr3 Te7 3.207547 1_554
Pr3 Te6 3.207547 1_555
Pr3 Te0 3.207547 1_555
Pr3 Te1 3.207547 1_554
Pr3 Te4 3.207547 1_555
