# generated using pymatgen
data_Dy2(Ni2B)5
_symmetry_space_group_name_H-M   'P 1'
_cell_length_a   9.01087100
_cell_length_b   9.47251800
_cell_length_c   17.55450900
_cell_angle_alpha   90.00000000
_cell_angle_beta   90.00000000
_cell_angle_gamma   90.00000000
_symmetry_Int_Tables_number   1
_chemical_formula_structural   Dy2(Ni2B)5
_chemical_formula_sum   'Dy16 Ni80 B40'
_cell_volume   1498.37631096
_cell_formula_units_Z   8
loop_
 _symmetry_equiv_pos_site_id
 _symmetry_equiv_pos_as_xyz
  1  'x, y, z'
loop_
 _atom_site_type_symbol
 _atom_site_label
 _atom_site_symmetry_multiplicity
 _atom_site_fract_x
 _atom_site_fract_y
 _atom_site_fract_z
 _atom_site_occupancy
  Dy  Dy0  1  0.12472000  0.85833900  0.27810300  1
  Dy  Dy1  1  0.37528000  0.14166100  0.77810300  1
  Dy  Dy2  1  0.62472000  0.64166100  0.72189700  1
  Dy  Dy3  1  0.87528000  0.35833900  0.22189700  1
  Dy  Dy4  1  0.87528000  0.14166100  0.72189700  1
  Dy  Dy5  1  0.62472000  0.85833900  0.22189700  1
  Dy  Dy6  1  0.37528000  0.35833900  0.27810300  1
  Dy  Dy7  1  0.12472000  0.64166100  0.77810300  1
  Dy  Dy8  1  0.21901200  0.88707400  0.48001400  1
  Dy  Dy9  1  0.28098800  0.11292600  0.98001400  1
  Dy  Dy10  1  0.71901200  0.61292600  0.51998600  1
  Dy  Dy11  1  0.78098800  0.38707400  0.01998600  1
  Dy  Dy12  1  0.78098800  0.11292600  0.51998600  1
  Dy  Dy13  1  0.71901200  0.88707400  0.01998600  1
  Dy  Dy14  1  0.28098800  0.38707400  0.48001400  1
  Dy  Dy15  1  0.21901200  0.61292600  0.98001400  1
  Ni  Ni0  1  0.12152200  0.96146800  0.72698000  1
  Ni  Ni1  1  0.37847800  0.03853200  0.22698000  1
  Ni  Ni2  1  0.62152200  0.53853200  0.27302000  1
  Ni  Ni3  1  0.87847800  0.46146800  0.77302000  1
  Ni  Ni4  1  0.87847800  0.03853200  0.27302000  1
  Ni  Ni5  1  0.62152200  0.96146800  0.77302000  1
  Ni  Ni6  1  0.37847800  0.46146800  0.72698000  1
  Ni  Ni7  1  0.12152200  0.53853200  0.22698000  1
  Ni  Ni8  1  0.12642100  0.17643700  0.23709000  1
  Ni  Ni9  1  0.37357900  0.82356300  0.73709000  1
  Ni  Ni10  1  0.62642100  0.32356300  0.76291000  1
  Ni  Ni11  1  0.87357900  0.67643700  0.26291000  1
  Ni  Ni12  1  0.87357900  0.82356300  0.76291000  1
  Ni  Ni13  1  0.62642100  0.17643700  0.26291000  1
  Ni  Ni14  1  0.37357900  0.67643700  0.23709000  1
  Ni  Ni15  1  0.12642100  0.32356300  0.73709000  1
  Ni  Ni16  1  0.07891500  0.88622900  0.01542300  1
  Ni  Ni17  1  0.42108500  0.11377100  0.51542300  1
  Ni  Ni18  1  0.57891500  0.61377100  0.98457700  1
  Ni  Ni19  1  0.92108500  0.38622900  0.48457700  1
  Ni  Ni20  1  0.92108500  0.11377100  0.98457700  1
  Ni  Ni21  1  0.57891500  0.88622900  0.48457700  1
  Ni  Ni22  1  0.42108500  0.38622900  0.01542300  1
  Ni  Ni23  1  0.07891500  0.61377100  0.51542300  1
  Ni  Ni24  1  0.16165600  0.78166400  0.62765700  1
  Ni  Ni25  1  0.33834400  0.21833600  0.12765700  1
  Ni  Ni26  1  0.66165600  0.71833600  0.37234300  1
  Ni  Ni27  1  0.83834400  0.28166400  0.87234300  1
  Ni  Ni28  1  0.83834400  0.21833600  0.37234300  1
  Ni  Ni29  1  0.66165600  0.78166400  0.87234300  1
  Ni  Ni30  1  0.33834400  0.28166400  0.62765700  1
  Ni  Ni31  1  0.16165600  0.71833600  0.12765700  1
  Ni  Ni32  1  0.17704400  0.99433200  0.13130600  1
  Ni  Ni33  1  0.32295600  0.00566800  0.63130600  1
  Ni  Ni34  1  0.67704400  0.50566800  0.86869400  1
  Ni  Ni35  1  0.82295600  0.49433200  0.36869400  1
  Ni  Ni36  1  0.82295600  0.00566800  0.86869400  1
  Ni  Ni37  1  0.67704400  0.99433200  0.36869400  1
  Ni  Ni38  1  0.32295600  0.49433200  0.13130600  1
  Ni  Ni39  1  0.17704400  0.50566800  0.63130600  1
  Ni  Ni40  1  0.23059300  0.89318900  0.86517800  1
  Ni  Ni41  1  0.26940700  0.10681100  0.36517800  1
  Ni  Ni42  1  0.73059300  0.60681100  0.13482200  1
  Ni  Ni43  1  0.76940700  0.39318900  0.63482200  1
  Ni  Ni44  1  0.76940700  0.10681100  0.13482200  1
  Ni  Ni45  1  0.73059300  0.89318900  0.63482200  1
  Ni  Ni46  1  0.26940700  0.39318900  0.86517800  1
  Ni  Ni47  1  0.23059300  0.60681100  0.36517800  1
  Ni  Ni48  1  0.08988300  0.14720600  0.84985100  1
  Ni  Ni49  1  0.41011700  0.85279400  0.34985100  1
  Ni  Ni50  1  0.58988300  0.35279400  0.15014900  1
  Ni  Ni51  1  0.91011700  0.64720600  0.65014900  1
  Ni  Ni52  1  0.91011700  0.85279400  0.15014900  1
  Ni  Ni53  1  0.58988300  0.14720600  0.65014900  1
  Ni  Ni54  1  0.41011700  0.64720600  0.84985100  1
  Ni  Ni55  1  0.08988300  0.35279400  0.34985100  1
  Ni  Ni56  1  0.04265100  0.02138500  0.59625300  1
  Ni  Ni57  1  0.45734800  0.97861500  0.09625300  1
  Ni  Ni58  1  0.54265100  0.47861500  0.40374700  1
  Ni  Ni59  1  0.95734900  0.52138500  0.90374700  1
  Ni  Ni60  1  0.95734900  0.97861500  0.40374700  1
  Ni  Ni61  1  0.54265100  0.02138500  0.90374700  1
  Ni  Ni62  1  0.45734800  0.52138500  0.59625300  1
  Ni  Ni63  1  0.04265100  0.47861500  0.09625300  1
  Ni  Ni64  1  0.04400100  0.21800200  0.09871700  1
  Ni  Ni65  1  0.45599900  0.78199800  0.59871700  1
  Ni  Ni66  1  0.54400100  0.28199800  0.90128300  1
  Ni  Ni67  1  0.95599900  0.71800200  0.40128300  1
  Ni  Ni68  1  0.95599900  0.78199800  0.90128300  1
  Ni  Ni69  1  0.54400100  0.21800200  0.40128300  1
  Ni  Ni70  1  0.45599900  0.71800200  0.09871700  1
  Ni  Ni71  1  0.04400100  0.28199800  0.59871700  1
  Ni  Ni72  1  0.08155900  0.16669100  0.46882400  1
  Ni  Ni73  1  0.41844100  0.83330900  0.96882400  1
  Ni  Ni74  1  0.58155900  0.33330900  0.53117600  1
  Ni  Ni75  1  0.91844100  0.66669100  0.03117600  1
  Ni  Ni76  1  0.91844100  0.83330900  0.53117600  1
  Ni  Ni77  1  0.58155900  0.16669100  0.03117600  1
  Ni  Ni78  1  0.41844100  0.66669100  0.46882400  1
  Ni  Ni79  1  0.08155900  0.33330900  0.96882400  1
  B  B0  1  0.97623900  0.06440400  0.17670000  1
  B  B1  1  0.52376100  0.93559600  0.67670000  1
  B  B2  1  0.47623900  0.43559600  0.82330000  1
  B  B3  1  0.02376100  0.56440400  0.32330000  1
  B  B4  1  0.02376100  0.93559600  0.82330000  1
  B  B5  1  0.47623900  0.06440400  0.32330000  1
  B  B6  1  0.52376100  0.56440400  0.17670000  1
  B  B7  1  0.97623900  0.43559600  0.67670000  1
  B  B8  1  0.16686000  0.14999900  0.66646800  1
  B  B9  1  0.33314000  0.85000100  0.16646800  1
  B  B10  1  0.66686000  0.35000100  0.33353200  1
  B  B11  1  0.83314000  0.64999900  0.83353200  1
  B  B12  1  0.83314000  0.85000100  0.33353200  1
  B  B13  1  0.66686000  0.14999900  0.83353200  1
  B  B14  1  0.33314000  0.64999900  0.66646800  1
  B  B15  1  0.16686000  0.35000100  0.16646800  1
  B  B16  1  0.04641900  0.14146000  0.34451600  1
  B  B17  1  0.45358100  0.85854000  0.84451600  1
  B  B18  1  0.54641900  0.35854000  0.65548400  1
  B  B19  1  0.95358100  0.64146000  0.15548400  1
  B  B20  1  0.95358100  0.85854000  0.65548400  1
  B  B21  1  0.54641900  0.14146000  0.15548400  1
  B  B22  1  0.45358100  0.64146000  0.34451600  1
  B  B23  1  0.04641900  0.35854000  0.84451600  1
  B  B24  1  0.21316700  0.14860400  0.56083500  1
  B  B25  1  0.28683300  0.85139600  0.06083500  1
  B  B26  1  0.71316700  0.35139600  0.43916500  1
  B  B27  1  0.78683300  0.64860400  0.93916500  1
  B  B28  1  0.78683300  0.85139600  0.43916500  1
  B  B29  1  0.71316700  0.14860400  0.93916500  1
  B  B30  1  0.28683300  0.64860400  0.56083500  1
  B  B31  1  0.21316700  0.35139600  0.06083500  1
  B  B32  1  0.03898100  0.98111800  0.91833700  1
  B  B33  1  0.46101900  0.01888200  0.41833700  1
  B  B34  1  0.53898100  0.51888200  0.08166300  1
  B  B35  1  0.96101900  0.48111800  0.58166300  1
  B  B36  1  0.96101900  0.01888200  0.08166300  1
  B  B37  1  0.53898100  0.98111800  0.58166300  1
  B  B38  1  0.46101900  0.48111800  0.91833700  1
  B  B39  1  0.03898100  0.51888200  0.41833700  1
loop_
_geom_bond_atom_site_label_1
_geom_bond_atom_site_label_2
_geom_bond_distance
_geom_bond_site_symmetry_2
Dy0 Ni4 2.800843 1_465
Dy0 Ni11 2.856793 1_455
Dy0 Ni49 2.864021 1_555
Dy0 Ni60 2.904710 1_455
Dy0 Ni14 2.918191 1_555
Dy0 Ni32 2.919318 1_555
Dy0 Ni67 2.958777 1_455
Dy0 Ni52 2.964366 1_455
Dy0 Ni31 2.973960 1_555
Dy0 Ni47 2.987210 1_555
Dy0 Ni1 2.991202 1_565
Dy0 Ni41 3.094506 1_565
Dy0 Ni8 3.098046 1_565
Dy0 Ni7 3.159645 1_555
Dy1 Ni5 2.800843 1_545
Dy1 Ni10 2.856793 1_555
Dy1 Ni48 2.864021 1_555
Dy1 Ni61 2.904710 1_555
Dy1 Ni15 2.918191 1_555
Dy1 Ni33 2.919318 1_555
Dy1 Ni66 2.958777 1_555
Dy1 Ni53 2.964366 1_555
Dy1 Ni30 2.973960 1_555
Dy1 Ni46 2.987210 1_555
Dy1 Ni0 2.991202 1_545
Dy1 Ni40 3.094506 1_545
Dy1 Ni9 3.098046 1_545
Dy1 Ni6 3.159645 1_555
Dy2 Ni6 2.800843 1_555
Dy2 Ni9 2.856793 1_555
Dy2 Ni51 2.864021 1_555
Dy2 Ni62 2.904714 1_555
Dy2 Ni12 2.918191 1_555
Dy2 Ni34 2.919318 1_555
Dy2 Ni65 2.958777 1_555
Dy2 Ni54 2.964366 1_555
Dy2 Ni29 2.973960 1_555
Dy2 Ni45 2.987210 1_555
Dy2 Ni3 2.991202 1_555
Dy2 Ni43 3.094506 1_555
Dy2 Ni10 3.098046 1_555
Dy2 Ni5 3.159645 1_555
Dy3 Ni7 2.800843 1_655
Dy3 Ni8 2.856793 1_655
Dy3 Ni50 2.864021 1_555
Dy3 Ni63 2.904710 1_655
Dy3 Ni13 2.918191 1_555
Dy3 Ni35 2.919318 1_555
Dy3 Ni64 2.958777 1_655
Dy3 Ni55 2.964366 1_655
Dy3 Ni28 2.973960 1_555
Dy3 Ni44 2.987210 1_555
Dy3 Ni2 2.991202 1_555
Dy3 Ni42 3.094506 1_555
Dy3 Ni11 3.098046 1_555
Dy3 Ni4 3.159645 1_555
Dy4 Ni0 2.800843 1_645
Dy4 Ni15 2.856793 1_655
Dy4 Ni53 2.864021 1_555
Dy4 Ni56 2.904710 1_655
Dy4 Ni10 2.918191 1_555
Dy4 Ni36 2.919318 1_555
Dy4 Ni71 2.958777 1_655
Dy4 Ni48 2.964366 1_655
Dy4 Ni27 2.973960 1_555
Dy4 Ni43 2.987210 1_555
Dy4 Ni5 2.991202 1_545
Dy4 Ni45 3.094506 1_545
Dy4 Ni12 3.098046 1_545
Dy4 Ni3 3.159645 1_555
Dy5 Ni1 2.800843 1_565
Dy5 Ni14 2.856793 1_555
Dy5 Ni52 2.864021 1_555
Dy5 Ni57 2.904714 1_555
Dy5 Ni11 2.918191 1_555
Dy5 Ni37 2.919318 1_555
Dy5 Ni70 2.958777 1_555
Dy5 Ni49 2.964366 1_555
Dy5 Ni26 2.973960 1_555
Dy5 Ni42 2.987210 1_555
Dy5 Ni4 2.991202 1_565
Dy5 Ni44 3.094506 1_565
Dy5 Ni13 3.098046 1_565
Dy5 Ni2 3.159645 1_555
Dy6 Ni2 2.800843 1_555
Dy6 Ni13 2.856793 1_555
Dy6 Ni55 2.864021 1_555
Dy6 Ni58 2.904710 1_555
Dy6 Ni8 2.918191 1_555
Dy6 Ni38 2.919318 1_555
Dy6 Ni69 2.958777 1_555
Dy6 Ni50 2.964366 1_555
Dy6 Ni25 2.973960 1_555
Dy6 Ni41 2.987210 1_555
Dy6 Ni7 2.991202 1_555
Dy6 Ni47 3.094506 1_555
Dy6 Ni14 3.098046 1_555
Dy6 Ni1 3.159645 1_555
Dy7 Ni3 2.800843 1_455
Dy7 Ni12 2.856793 1_455
Dy7 Ni54 2.864021 1_555
Dy7 Ni59 2.904710 1_455
Dy7 Ni9 2.918191 1_555
Dy7 Ni39 2.919318 1_555
Dy7 Ni68 2.958777 1_455
Dy7 Ni51 2.964366 1_455
Dy7 Ni24 2.973960 1_555
Dy7 Ni40 2.987210 1_555
Dy7 Ni6 2.991202 1_555
Dy7 Ni46 3.094506 1_555
Dy7 Ni15 3.098046 1_555
Dy7 Ni0 3.159645 1_555
Dy8 Ni78 2.761503 1_555
Dy8 Ni24 2.825162 1_555
Dy8 Ni60 2.846690 1_455
Dy8 Ni49 2.879547 1_555
Dy8 Ni56 2.882329 1_565
Dy8 Ni17 2.883257 1_565
Dy8 Ni76 2.898529 1_455
Dy8 Ni72 2.930552 1_565
Dy8 Ni41 2.933003 1_565
Dy8 Ni23 2.946566 1_555
Dy8 Ni33 3.031969 1_565
Dy8 Ni65 3.145312 1_555
Dy8 Ni67 3.176770 1_455
Dy8 Ni21 3.244038 1_555
Dy8 Ni47 3.335063 1_555
Dy9 Ni79 2.761503 1_555
Dy9 Ni25 2.825162 1_556
Dy9 Ni61 2.846690 1_555
Dy9 Ni48 2.879547 1_555
Dy9 Ni57 2.882324 1_546
Dy9 Ni16 2.883257 1_546
Dy9 Ni77 2.898529 1_556
Dy9 Ni73 2.930552 1_545
Dy9 Ni40 2.933003 1_545
Dy9 Ni22 2.946566 1_556
Dy9 Ni32 3.031969 1_546
Dy9 Ni64 3.145312 1_556
Dy9 Ni66 3.176770 1_555
Dy9 Ni20 3.244038 1_455
Dy9 Ni46 3.335063 1_555
Dy10 Ni76 2.761503 1_555
Dy10 Ni26 2.825162 1_555
Dy10 Ni62 2.846697 1_555
Dy10 Ni51 2.879547 1_555
Dy10 Ni58 2.882329 1_555
Dy10 Ni19 2.883257 1_555
Dy10 Ni78 2.898529 1_555
Dy10 Ni74 2.930552 1_555
Dy10 Ni43 2.933003 1_555
Dy10 Ni21 2.946566 1_555
Dy10 Ni35 3.031969 1_555
Dy10 Ni67 3.145312 1_555
Dy10 Ni65 3.176770 1_555
Dy10 Ni23 3.244038 1_655
Dy10 Ni45 3.335063 1_555
Dy11 Ni77 2.761503 1_555
Dy11 Ni27 2.825162 1_554
Dy11 Ni63 2.846690 1_655
Dy11 Ni50 2.879547 1_555
Dy11 Ni59 2.882329 1_554
Dy11 Ni18 2.883257 1_554
Dy11 Ni79 2.898529 1_654
Dy11 Ni75 2.930552 1_555
Dy11 Ni42 2.933003 1_555
Dy11 Ni20 2.946566 1_554
Dy11 Ni34 3.031969 1_554
Dy11 Ni66 3.145312 1_554
Dy11 Ni64 3.176770 1_655
Dy11 Ni22 3.244038 1_555
Dy11 Ni44 3.335063 1_555
Dy12 Ni74 2.761503 1_555
Dy12 Ni28 2.825162 1_555
Dy12 Ni56 2.846690 1_655
Dy12 Ni53 2.879547 1_555
Dy12 Ni60 2.882329 1_545
Dy12 Ni21 2.883257 1_545
Dy12 Ni72 2.898529 1_655
Dy12 Ni76 2.930552 1_545
Dy12 Ni45 2.933003 1_545
Dy12 Ni19 2.946566 1_555
Dy12 Ni37 3.031969 1_545
Dy12 Ni69 3.145312 1_555
Dy12 Ni71 3.176770 1_655
Dy12 Ni17 3.244038 1_555
Dy12 Ni43 3.335063 1_555
Dy13 Ni75 2.761503 1_555
Dy13 Ni29 2.825162 1_554
Dy13 Ni57 2.846697 1_555
Dy13 Ni52 2.879547 1_555
Dy13 Ni61 2.882329 1_564
Dy13 Ni20 2.883257 1_564
Dy13 Ni73 2.898529 1_554
Dy13 Ni77 2.930552 1_565
Dy13 Ni44 2.933003 1_565
Dy13 Ni18 2.946566 1_554
Dy13 Ni36 3.031969 1_564
Dy13 Ni68 3.145312 1_554
Dy13 Ni70 3.176770 1_555
Dy13 Ni16 3.244038 1_655
Dy13 Ni42 3.335063 1_555
Dy14 Ni72 2.761503 1_555
Dy14 Ni30 2.825162 1_555
Dy14 Ni58 2.846690 1_555
Dy14 Ni55 2.879547 1_555
Dy14 Ni62 2.882324 1_555
Dy14 Ni23 2.883257 1_555
Dy14 Ni74 2.898529 1_555
Dy14 Ni78 2.930552 1_555
Dy14 Ni47 2.933003 1_555
Dy14 Ni17 2.946566 1_555
Dy14 Ni39 3.031969 1_555
Dy14 Ni71 3.145312 1_555
Dy14 Ni69 3.176770 1_555
Dy14 Ni19 3.244038 1_455
Dy14 Ni41 3.335063 1_555
Dy15 Ni73 2.761503 1_555
Dy15 Ni31 2.825162 1_556
Dy15 Ni59 2.846690 1_455
Dy15 Ni54 2.879547 1_555
Dy15 Ni63 2.882329 1_556
Dy15 Ni22 2.883257 1_556
Dy15 Ni75 2.898529 1_456
Dy15 Ni79 2.930552 1_555
Dy15 Ni46 2.933003 1_555
Dy15 Ni16 2.946566 1_556
Dy15 Ni38 3.031969 1_556
Dy15 Ni70 3.145312 1_556
Dy15 Ni68 3.176770 1_455
Dy15 Ni18 3.244038 1_555
Dy15 Ni40 3.335063 1_555
B0 B36 1.728603 1_555
B0 Ni4 1.922249 1_555
B0 Ni8 2.020249 1_655
B0 Ni44 2.043360 1_555
B0 Ni32 2.085571 1_645
B0 Ni64 2.088963 1_655
B0 Ni52 2.142469 1_545
B0 Dy0 2.961233 1_645
B0 Dy3 3.034709 1_555
B1 B37 1.728603 1_555
B1 Ni5 1.922249 1_555
B1 Ni9 2.020249 1_555
B1 Ni45 2.043360 1_555
B1 Ni33 2.085571 1_565
B1 Ni65 2.088963 1_555
B1 Ni53 2.142469 1_565
B1 Dy1 2.961233 1_565
B1 Dy2 3.034709 1_555
B2 B38 1.728603 1_555
B2 Ni6 1.922249 1_555
B2 Ni10 2.020249 1_555
B2 Ni46 2.043360 1_555
B2 Ni34 2.085571 1_555
B2 Ni66 2.088963 1_555
B2 Ni54 2.142469 1_555
B2 Dy2 2.961233 1_555
B2 Dy1 3.034709 1_555
B3 B39 1.728603 1_555
B3 Ni7 1.922249 1_555
B3 Ni11 2.020249 1_455
B3 Ni47 2.043360 1_555
B3 Ni35 2.085571 1_455
B3 Ni67 2.088963 1_455
B3 Ni55 2.142469 1_555
B3 Dy3 2.961233 1_455
B3 Dy0 3.034709 1_555
B4 Ni0 1.922249 1_555
B4 Ni12 2.020249 1_455
B4 Ni40 2.043360 1_555
B4 Ni36 2.085571 1_465
B4 Ni68 2.088963 1_455
B4 Ni48 2.142469 1_565
B4 Dy4 2.961233 1_465
B4 Dy7 3.034709 1_555
B5 Ni1 1.922249 1_555
B5 Ni13 2.020249 1_555
B5 Ni41 2.043360 1_555
B5 Ni37 2.085571 1_545
B5 Ni69 2.088963 1_555
B5 Ni49 2.142469 1_545
B5 Dy5 2.961233 1_545
B5 Dy6 3.034709 1_555
B6 Ni2 1.922249 1_555
B6 Ni14 2.020249 1_555
B6 Ni42 2.043360 1_555
B6 Ni38 2.085571 1_555
B6 Ni70 2.088963 1_555
B6 Ni50 2.142469 1_555
B6 Dy6 2.961233 1_555
B6 Dy5 3.034709 1_555
B7 Ni3 1.922249 1_555
B7 Ni15 2.020249 1_655
B7 Ni43 2.043360 1_555
B7 Ni39 2.085571 1_655
B7 Ni71 2.088963 1_655
B7 Ni51 2.142469 1_555
B7 Dy7 2.961233 1_655
B7 Dy4 3.034709 1_555
B8 Ni71 2.050249 1_555
B8 Ni33 2.056353 1_555
B8 Ni56 2.063058 1_555
B8 Ni15 2.091112 1_555
B8 Ni30 2.099379 1_555
B8 Ni0 2.117688 1_545
B8 Dy1 2.715457 1_555
B8 Dy4 2.802891 1_455
B9 Ni70 2.050249 1_555
B9 Ni32 2.056353 1_555
B9 Ni57 2.063053 1_555
B9 Ni14 2.091112 1_555
B9 Ni31 2.099379 1_555
B9 Ni1 2.117688 1_565
B9 Dy0 2.715457 1_555
B9 Dy5 2.802891 1_555
B10 B26 1.900749 1_555
B10 Ni69 2.050249 1_555
B10 Ni35 2.056353 1_555
B10 Ni58 2.063058 1_555
B10 Ni13 2.091112 1_555
B10 Ni28 2.099379 1_555
B10 Ni2 2.117688 1_555
B10 Dy3 2.715457 1_555
B10 Dy6 2.802891 1_555
B11 B27 1.900749 1_555
B11 Ni68 2.050249 1_555
B11 Ni34 2.056353 1_555
B11 Ni59 2.063058 1_555
B11 Ni12 2.091112 1_555
B11 Ni29 2.099379 1_555
B11 Ni3 2.117688 1_555
B11 Dy2 2.715457 1_555
B11 Dy7 2.802891 1_655
B12 B28 1.900749 1_555
B12 Ni67 2.050249 1_555
B12 Ni37 2.056353 1_555
B12 Ni60 2.063058 1_555
B12 Ni11 2.091112 1_555
B12 Ni26 2.099379 1_555
B12 Ni4 2.117688 1_565
B12 Dy5 2.715457 1_555
B12 Dy0 2.802891 1_655
B13 B29 1.900749 1_555
B13 Ni66 2.050249 1_555
B13 Ni36 2.056353 1_555
B13 Ni61 2.063058 1_555
B13 Ni10 2.091112 1_555
B13 Ni27 2.099379 1_555
B13 Ni5 2.117688 1_545
B13 Dy4 2.715457 1_555
B13 Dy1 2.802891 1_555
B14 B30 1.900749 1_555
B14 Ni65 2.050249 1_555
B14 Ni39 2.056353 1_555
B14 Ni62 2.063053 1_555
B14 Ni9 2.091112 1_555
B14 Ni24 2.099379 1_555
B14 Ni6 2.117688 1_555
B14 Dy7 2.715457 1_555
B14 Dy2 2.802891 1_555
B15 B31 1.900749 1_555
B15 Ni64 2.050249 1_555
B15 Ni38 2.056353 1_555
B15 Ni63 2.063058 1_555
B15 Ni8 2.091112 1_555
B15 Ni25 2.099379 1_555
B15 Ni7 2.117688 1_555
B15 Dy6 2.715457 1_555
B15 Dy3 2.802891 1_455
B16 Ni60 2.026020 1_445
B16 Ni55 2.041966 1_555
B16 Ni8 2.045907 1_555
B16 Ni41 2.068003 1_555
B16 Ni28 2.069855 1_455
B16 Ni4 2.194511 1_455
B16 Ni72 2.217934 1_555
B16 Dy0 3.008228 1_545
B17 Ni61 2.026020 1_565
B17 Ni54 2.041966 1_555
B17 Ni9 2.045907 1_555
B17 Ni40 2.068003 1_555
B17 Ni29 2.069855 1_555
B17 Ni5 2.194511 1_555
B17 Ni73 2.217934 1_555
B17 Dy1 3.008228 1_565
B18 Ni62 2.026023 1_555
B18 Ni53 2.041966 1_555
B18 Ni10 2.045907 1_555
B18 Ni43 2.068003 1_555
B18 Ni30 2.069855 1_555
B18 Ni6 2.194511 1_555
B18 Ni74 2.217934 1_555
B18 Dy2 3.008228 1_555
B19 Ni63 2.026020 1_655
B19 Ni52 2.041966 1_555
B19 Ni11 2.045907 1_555
B19 Ni42 2.068003 1_555
B19 Ni31 2.069855 1_655
B19 Ni7 2.194511 1_655
B19 Ni75 2.217934 1_555
B19 Dy3 3.008228 1_555
B20 Ni56 2.026020 1_665
B20 Ni51 2.041966 1_555
B20 Ni12 2.045907 1_555
B20 Ni45 2.068003 1_555
B20 Ni24 2.069855 1_655
B20 Ni0 2.194511 1_655
B20 Ni76 2.217934 1_555
B20 Dy4 3.008228 1_565
B21 Ni57 2.026023 1_545
B21 Ni50 2.041966 1_555
B21 Ni13 2.045907 1_555
B21 Ni44 2.068003 1_555
B21 Ni25 2.069855 1_555
B21 Ni1 2.194511 1_555
B21 Ni77 2.217934 1_555
B21 Dy5 3.008228 1_545
B22 Ni58 2.026020 1_555
B22 Ni49 2.041966 1_555
B22 Ni14 2.045907 1_555
B22 Ni47 2.068003 1_555
B22 Ni26 2.069855 1_555
B22 Ni2 2.194511 1_555
B22 Ni78 2.217934 1_555
B22 Dy6 3.008228 1_555
B23 Ni59 2.026020 1_455
B23 Ni48 2.041966 1_555
B23 Ni15 2.045907 1_555
B23 Ni46 2.068003 1_555
B23 Ni27 2.069855 1_455
B23 Ni3 2.194511 1_455
B23 Ni79 2.217934 1_555
B23 Dy7 3.008228 1_555
B24 B8 1.900749 1_555
B24 Ni72 2.011123 1_555
B24 Ni56 2.049298 1_555
B24 Ni30 2.058377 1_555
B24 Ni17 2.062635 1_555
B24 Ni33 2.083818 1_555
B24 Ni71 2.088646 1_555
B24 Dy14 2.736617 1_555
B24 Dy8 2.855336 1_545
B25 B9 1.900749 1_555
B25 Ni73 2.011123 1_554
B25 Ni57 2.049291 1_555
B25 Ni31 2.058377 1_555
B25 Ni16 2.062635 1_555
B25 Ni32 2.083818 1_555
B25 Ni70 2.088646 1_555
B25 Dy15 2.736617 1_554
B25 Dy9 2.855336 1_564
B26 Ni74 2.011123 1_555
B26 Ni58 2.049298 1_555
B26 Ni28 2.058377 1_555
B26 Ni19 2.062635 1_555
B26 Ni35 2.083818 1_555
B26 Ni69 2.088646 1_555
B26 Dy12 2.736617 1_555
B26 Dy10 2.855336 1_555
B27 Ni75 2.011123 1_556
B27 Ni59 2.049298 1_555
B27 Ni29 2.058377 1_555
B27 Ni18 2.062635 1_555
B27 Ni34 2.083818 1_555
B27 Ni68 2.088646 1_555
B27 Dy13 2.736617 1_556
B27 Dy11 2.855336 1_556
B28 Ni76 2.011123 1_555
B28 Ni60 2.049298 1_555
B28 Ni26 2.058377 1_555
B28 Ni21 2.062635 1_555
B28 Ni37 2.083818 1_555
B28 Ni67 2.088646 1_555
B28 Dy10 2.736617 1_555
B28 Dy12 2.855336 1_565
B29 Ni77 2.011123 1_556
B29 Ni61 2.049298 1_555
B29 Ni27 2.058377 1_555
B29 Ni20 2.062635 1_555
B29 Ni36 2.083818 1_555
B29 Ni66 2.088646 1_555
B29 Dy11 2.736617 1_556
B29 Dy13 2.855336 1_546
B30 Ni78 2.011123 1_555
B30 Ni62 2.049291 1_555
B30 Ni24 2.058377 1_555
B30 Ni23 2.062635 1_555
B30 Ni39 2.083818 1_555
B30 Ni65 2.088646 1_555
B30 Dy8 2.736617 1_555
B30 Dy14 2.855336 1_555
B31 Ni79 2.011123 1_554
B31 Ni63 2.049298 1_555
B31 Ni25 2.058377 1_555
B31 Ni22 2.062635 1_555
B31 Ni38 2.083818 1_555
B31 Ni64 2.088646 1_555
B31 Dy9 2.736617 1_554
B31 Dy15 2.855336 1_554
B32 B4 1.728603 1_555
B32 Ni16 1.960108 1_556
B32 Ni20 2.014856 1_465
B32 Ni48 2.032471 1_565
B32 Ni68 2.050944 1_455
B32 Ni40 2.132060 1_555
B32 Ni36 2.145383 1_465
B32 Dy9 2.736160 1_565
B33 B5 1.728603 1_555
B33 Ni17 1.960108 1_555
B33 Ni21 2.014856 1_545
B33 Ni49 2.032471 1_545
B33 Ni69 2.050944 1_555
B33 Ni41 2.132060 1_555
B33 Ni37 2.145383 1_545
B33 Dy8 2.736160 1_545
B34 B6 1.728603 1_555
B34 Ni18 1.960108 1_554
B34 Ni22 2.014856 1_555
B34 Ni50 2.032471 1_555
B34 Ni70 2.050944 1_555
B34 Ni42 2.132060 1_555
B34 Ni38 2.145383 1_555
B34 Dy11 2.736160 1_555
B35 B7 1.728603 1_555
B35 Ni19 1.960108 1_555
B35 Ni23 2.014856 1_655
B35 Ni51 2.032471 1_555
B35 Ni71 2.050944 1_655
B35 Ni43 2.132060 1_555
B35 Ni39 2.145383 1_655
B35 Dy10 2.736160 1_555
B36 Ni20 1.960108 1_554
B36 Ni16 2.014856 1_645
B36 Ni52 2.032471 1_545
B36 Ni64 2.050944 1_655
B36 Ni44 2.132060 1_555
B36 Ni32 2.145383 1_645
B36 Dy13 2.736160 1_545
B37 Ni21 1.960108 1_555
B37 Ni17 2.014856 1_565
B37 Ni53 2.032471 1_565
B37 Ni65 2.050944 1_555
B37 Ni45 2.132060 1_555
B37 Ni33 2.145383 1_565
B37 Dy12 2.736160 1_565
B38 Ni22 1.960108 1_556
B38 Ni18 2.014856 1_555
B38 Ni54 2.032471 1_555
B38 Ni66 2.050944 1_555
B38 Ni46 2.132060 1_555
B38 Ni34 2.145383 1_555
B38 Dy15 2.736160 1_555
B39 Ni23 1.960108 1_555
B39 Ni19 2.014856 1_455
B39 Ni55 2.032471 1_555
B39 Ni67 2.050944 1_455
B39 Ni47 2.132060 1_555
B39 Ni35 2.145383 1_455
B39 Dy14 2.736160 1_555
