# generated using pymatgen
data_LiTiNiO4
_symmetry_space_group_name_H-M   'P 1'
_cell_length_a   5.79234077
_cell_length_b   5.92848230
_cell_length_c   5.79234487
_cell_angle_alpha   118.13317130
_cell_angle_beta   88.36727773
_cell_angle_gamma   61.46665581
_symmetry_Int_Tables_number   1
_chemical_formula_structural   LiTiNiO4
_chemical_formula_sum   'Li2 Ti2 Ni2 O8'
_cell_volume   145.60426638
_cell_formula_units_Z   2
loop_
 _symmetry_equiv_pos_site_id
 _symmetry_equiv_pos_as_xyz
  1  'x, y, z'
loop_
 _atom_site_type_symbol
 _atom_site_label
 _atom_site_symmetry_multiplicity
 _atom_site_fract_x
 _atom_site_fract_y
 _atom_site_fract_z
 _atom_site_occupancy
  Li  Li0  1  0.13099800  0.25001400  0.11901200  1
  Li  Li1  1  0.86900300  0.74998600  0.88098800  1
  Ti  Ti0  1  0.99999900  0.99999900  0.50000200  1
  Ti  Ti1  1  0.50000000  0.50000000  0.50000100  1
  Ni  Ni0  1  0.49999600  0.00000400  0.49999800  1
  Ni  Ni1  1  0.50000400  0.49999600  0.00000000  1
  O  O0  1  0.25385600  0.53574100  0.26854900  1
  O  O1  1  0.26718200  0.96426000  0.71041000  1
  O  O2  1  0.73281800  0.03574000  0.28958900  1
  O  O3  1  0.74614500  0.46425800  0.73145200  1
  O  O4  1  0.26068200  0.99155400  0.27511200  1
  O  O5  1  0.71643500  0.50846800  0.24778100  1
  O  O6  1  0.73931600  0.00844600  0.72488600  1
  O  O7  1  0.28356600  0.49153200  0.75222100  1
loop_
_geom_bond_atom_site_label_1
_geom_bond_atom_site_label_2
_geom_bond_distance
_geom_bond_site_symmetry_2
Li0 O0 1.982209 1_555
Li0 O1 1.982311 1_544
Li0 O4 1.993824 1_545
Li0 O5 1.993845 1_455
Li1 O3 1.982213 1_555
Li1 O2 1.982306 1_566
Li1 O6 1.993834 1_565
Li1 O7 1.993845 1_655
Ni0 O4 1.930942 1_545
Ni0 O6 1.930974 1_555
Ni0 O2 1.942096 1_555
Ni0 O1 1.942108 1_545
Ni0 O7 2.142048 1_555
Ni0 O5 2.142078 1_545
Ni1 O5 1.930994 1_555
Ni1 O7 1.931014 1_554
Ni1 O3 1.942033 1_554
Ni1 O0 1.942038 1_555
Ni1 O6 2.142147 1_554
Ni1 O4 2.142178 1_555
O0 Ti1 1.990780 1_555
O0 Ti0 2.019013 1_455
O1 Ti0 1.990757 1_455
O1 Ti1 2.019019 1_555
O2 Ti0 1.990768 1_545
O2 Ti1 2.019018 1_555
O3 Ti1 1.990780 1_555
O3 Ti0 2.019017 1_545
O4 Ti0 1.932242 1_455
O5 Ti1 1.932221 1_555
O6 Ti0 1.932212 1_545
O7 Ti1 1.932218 1_555
