# generated using pymatgen
data_Er2(Al3Rh)3
_symmetry_space_group_name_H-M   'P 1'
_cell_length_a   7.47911936
_cell_length_b   7.47911936
_cell_length_c   9.38423057
_cell_angle_alpha   90.00000000
_cell_angle_beta   90.00000000
_cell_angle_gamma   119.33443673
_symmetry_Int_Tables_number   1
_chemical_formula_structural   Er2(Al3Rh)3
_chemical_formula_sum   'Er4 Al18 Rh6'
_cell_volume   457.61894856
_cell_formula_units_Z   2
loop_
 _symmetry_equiv_pos_site_id
 _symmetry_equiv_pos_as_xyz
  1  'x, y, z'
loop_
 _atom_site_type_symbol
 _atom_site_label
 _atom_site_symmetry_multiplicity
 _atom_site_fract_x
 _atom_site_fract_y
 _atom_site_fract_z
 _atom_site_occupancy
  Er  Er0  1  0.99443202  0.67267842  0.75000000  1
  Er  Er1  1  0.00556798  0.32732158  0.25000000  1
  Er  Er2  1  0.67267842  0.99443202  0.75000000  1
  Er  Er3  1  0.32732158  0.00556798  0.25000000  1
  Al  Al0  1  0.12952137  0.12952137  0.75000000  1
  Al  Al1  1  0.87047863  0.87047863  0.25000000  1
  Al  Al2  1  0.00117705  0.33585732  0.57465141  1
  Al  Al3  1  -0.00117705  0.66414268  0.42534859  1
  Al  Al4  1  -0.00117705  0.66414268  0.07465141  1
  Al  Al5  1  0.33585732  0.00117705  0.92534859  1
  Al  Al6  1  0.00117705  0.33585732  0.92534859  1
  Al  Al7  1  0.66414268  -0.00117705  0.07465141  1
  Al  Al8  1  0.66414268  -0.00117705  0.42534859  1
  Al  Al9  1  0.33585732  0.00117705  0.57465141  1
  Al  Al10  1  0.33314392  0.33314392  0.04864833  1
  Al  Al11  1  0.66685608  0.66685608  0.95135167  1
  Al  Al12  1  0.66685608  0.66685608  0.54864833  1
  Al  Al13  1  0.33314392  0.33314392  0.45135167  1
  Al  Al14  1  0.34006833  0.55044365  0.75000000  1
  Al  Al15  1  0.65993167  0.44955635  0.25000000  1
  Al  Al16  1  0.55044365  0.34006833  0.75000000  1
  Al  Al17  1  0.44955635  0.65993167  0.25000000  1
  Rh  Rh0  1  0.67250085  0.32749915  0.50000000  1
  Rh  Rh1  1  0.32749915  0.67250085  0.50000000  1
  Rh  Rh2  1  0.32749915  0.67250085  -0.00000000  1
  Rh  Rh3  1  0.67250085  0.32749915  -0.00000000  1
  Rh  Rh4  1  -0.00000000  0.00000000  0.50000000  1
  Rh  Rh5  1  -0.00000000  0.00000000  -0.00000000  1
loop_
_geom_bond_atom_site_label_1
_geom_bond_atom_site_label_2
_geom_bond_distance
_geom_bond_site_symmetry_2
Er0 Rh4 3.376228 1_665
Er0 Rh5 3.376228 1_666
Er0 Rh1 3.422361 1_655
Er0 Rh2 3.422361 1_656
Er0 Rh0 3.446109 1_555
Er0 Rh3 3.446109 1_556
Er1 Rh4 3.376228 1_555
Er1 Rh5 3.376228 1_555
Er1 Rh3 3.422361 1_455
Er1 Rh0 3.422361 1_455
Er1 Rh2 3.446109 1_555
Er1 Rh1 3.446109 1_555
Er2 Rh4 3.376228 1_665
Er2 Rh5 3.376228 1_666
Er2 Rh0 3.422361 1_565
Er2 Rh3 3.422361 1_566
Er2 Rh1 3.446109 1_555
Er2 Rh2 3.446109 1_556
Er3 Rh4 3.376228 1_555
Er3 Rh5 3.376228 1_555
Er3 Rh1 3.422361 1_545
Er3 Rh2 3.422361 1_545
Er3 Rh3 3.446109 1_555
Er3 Rh0 3.446109 1_555
Al0 Rh5 2.541913 1_556
Al0 Rh4 2.541913 1_555
Al0 Er0 3.051681 1_445
Al0 Er2 3.051681 1_445
Al1 Rh4 2.541913 1_665
Al1 Rh5 2.541913 1_665
Al1 Er3 3.051681 1_665
Al1 Er1 3.051681 1_665
Al2 Rh0 2.527231 1_455
Al2 Rh1 2.601098 1_555
Al2 Rh4 2.603633 1_555
Al2 Er2 3.019519 1_445
Al2 Er0 3.029977 1_455
Al2 Er1 3.047786 1_555
Al3 Rh1 2.527231 1_555
Al3 Rh0 2.601098 1_455
Al3 Rh4 2.603633 1_565
Al3 Er3 3.019519 1_565
Al3 Er1 3.029977 1_555
Al3 Er0 3.047786 1_455
Al4 Rh2 2.527231 1_555
Al4 Rh3 2.601098 1_455
Al4 Rh5 2.603633 1_565
Al4 Er3 3.019519 1_565
Al4 Er1 3.029977 1_555
Al4 Er0 3.047786 1_454
Al5 Rh2 2.527231 1_546
Al5 Rh3 2.601098 1_556
Al5 Rh5 2.603633 1_556
Al5 Er0 3.019519 1_445
Al5 Er2 3.029977 1_545
Al5 Er3 3.047786 1_556
Al6 Rh3 2.527231 1_456
Al6 Rh2 2.601098 1_556
Al6 Rh5 2.603633 1_556
Al6 Er2 3.019519 1_445
Al6 Er0 3.029977 1_455
Al6 Er1 3.047786 1_556
Al7 Rh3 2.527231 1_555
Al7 Rh2 2.601098 1_545
Al7 Rh5 2.603633 1_655
Al7 Er1 3.019519 1_655
Al7 Er3 3.029977 1_555
Al7 Er2 3.047786 1_544
Al8 Rh0 2.527231 1_555
Al8 Rh1 2.601098 1_545
Al8 Rh4 2.603633 1_655
Al8 Er1 3.019519 1_655
Al8 Er3 3.029977 1_555
Al8 Er2 3.047786 1_545
Al9 Rh1 2.527231 1_545
Al9 Rh0 2.601098 1_555
Al9 Rh4 2.603633 1_555
Al9 Er0 3.019519 1_445
Al9 Er2 3.029977 1_545
Al9 Er3 3.047786 1_555
Al10 Rh5 2.557719 1_555
Al10 Rh2 2.599441 1_555
Al10 Rh3 2.599441 1_555
Al10 Er1 3.077351 1_555
Al10 Er3 3.077351 1_555
Al11 Rh5 2.557719 1_666
Al11 Rh3 2.599441 1_556
Al11 Rh2 2.599441 1_556
Al11 Er0 3.077351 1_555
Al11 Er2 3.077351 1_555
Al12 Rh4 2.557719 1_665
Al12 Rh1 2.599441 1_555
Al12 Rh0 2.599441 1_555
Al12 Er0 3.077351 1_555
Al12 Er2 3.077351 1_555
Al13 Rh4 2.557719 1_555
Al13 Rh0 2.599441 1_555
Al13 Rh1 2.599441 1_555
Al13 Er1 3.077351 1_555
Al13 Er3 3.077351 1_555
Al14 Rh2 2.535795 1_556
Al14 Rh1 2.535795 1_555
Al14 Er2 3.020131 1_555
Al14 Er0 3.135898 1_455
Al15 Rh0 2.535795 1_555
Al15 Rh3 2.535795 1_555
Al15 Er3 3.020131 1_555
Al15 Er1 3.135898 1_655
Al16 Rh3 2.535795 1_556
Al16 Rh0 2.535795 1_555
Al16 Er0 3.020131 1_555
Al16 Er2 3.135898 1_545
Al17 Rh2 2.535795 1_555
Al17 Rh1 2.535795 1_555
Al17 Er1 3.020131 1_555
Al17 Er3 3.135898 1_565
