# generated using pymatgen
data_Ca(NiO2)4
_symmetry_space_group_name_H-M   'P 1'
_cell_length_a   5.66686620
_cell_length_b   9.80837317
_cell_length_c   6.44793063
_cell_angle_alpha   104.73265815
_cell_angle_beta   63.93201364
_cell_angle_gamma   90.01209205
_symmetry_Int_Tables_number   1
_chemical_formula_structural   Ca(NiO2)4
_chemical_formula_sum   'Ca2 Ni8 O16'
_cell_volume   308.77411742
_cell_formula_units_Z   2
loop_
 _symmetry_equiv_pos_site_id
 _symmetry_equiv_pos_as_xyz
  1  'x, y, z'
loop_
 _atom_site_type_symbol
 _atom_site_label
 _atom_site_symmetry_multiplicity
 _atom_site_fract_x
 _atom_site_fract_y
 _atom_site_fract_z
 _atom_site_occupancy
  Ca  Ca0  1  0.75000157  0.74999216  0.49999854  1
  Ca  Ca1  1  0.25000045  0.25000811  0.49999898  1
  Ni  Ni0  1  0.49999092  0.50000436  0.00002522  1
  Ni  Ni1  1  -0.00000747  -0.00000252  0.00001315  1
  Ni  Ni2  1  0.75000459  0.75000126  -0.00000205  1
  Ni  Ni3  1  0.75000383  0.24999757  0.00000046  1
  Ni  Ni4  1  -0.00000020  0.50000608  0.00000478  1
  Ni  Ni5  1  0.24999687  0.24999683  -0.00000074  1
  Ni  Ni6  1  0.24999731  0.75000113  -0.00000376  1
  Ni  Ni7  1  0.50000264  0.99999351  -0.00000730  1
  O  O0  1  0.08572599  0.63803803  0.82849585  1
  O  O1  1  0.58571699  0.13803923  0.82851366  1
  O  O2  1  0.41427967  0.86196032  0.17149179  1
  O  O3  1  0.91427836  0.36196360  0.17149713  1
  O  O4  1  0.35308544  0.88225952  0.82228363  1
  O  O5  1  0.85307887  0.38226052  0.82228223  1
  O  O6  1  0.91118862  0.85350722  0.17771364  1
  O  O7  1  0.41119255  0.35351128  0.17771460  1
  O  O8  1  0.14692450  0.61773948  0.17772166  1
  O  O9  1  0.64692354  0.11773786  0.17770478  1
  O  O10  1  0.67539223  0.61774348  0.17773883  1
  O  O11  1  0.17540225  0.11774267  0.17772350  1
  O  O12  1  0.82459342  0.88225534  0.82226620  1
  O  O13  1  0.32460781  0.38225642  0.82226373  1
  O  O14  1  0.58881683  0.64648914  0.82227540  1
  O  O15  1  0.08880742  0.14649742  0.82229009  1
loop_
_geom_bond_atom_site_label_1
_geom_bond_atom_site_label_2
_geom_bond_distance
_geom_bond_site_symmetry_2
Ca0 O10 2.362211 1_555
Ca0 O12 2.362243 1_555
Ca0 O8 2.362731 1_655
Ca0 O4 2.362773 1_555
Ca0 O14 2.363792 1_555
Ca0 O6 2.363912 1_555
Ca1 O13 2.362230 1_555
Ca1 O11 2.362312 1_555
Ca1 O5 2.362739 1_455
Ca1 O9 2.362824 1_555
Ca1 O7 2.363833 1_555
Ca1 O15 2.363917 1_555
Ni0 O7 1.990170 1_555
Ni0 O14 1.990352 1_554
Ni0 O10 1.990516 1_555
Ni0 O8 1.990653 1_555
Ni0 O13 1.990676 1_554
Ni0 O5 1.990777 1_554
Ni1 O6 1.990193 1_445
Ni1 O15 1.990369 1_554
Ni1 O11 1.990564 1_555
Ni1 O12 1.990658 1_444
Ni1 O9 1.990686 1_455
Ni1 O4 1.990775 1_544
Ni2 O12 1.872126 1_554
Ni2 O10 1.872191 1_555
Ni2 O6 1.872401 1_555
Ni2 O14 1.872471 1_554
Ni2 O2 1.892755 1_555
Ni2 O0 1.892757 1_654
Ni3 O9 1.872018 1_555
Ni3 O5 1.872102 1_554
Ni3 O15 1.872282 1_654
Ni3 O7 1.872367 1_555
Ni3 O1 1.892619 1_554
Ni3 O3 1.892641 1_555
Ni4 O8 1.872140 1_555
Ni4 O5 1.872204 1_454
Ni4 O10 1.872364 1_455
Ni4 O13 1.872422 1_554
Ni4 O0 1.892353 1_554
Ni4 O3 1.892372 1_455
Ni5 O11 1.872092 1_555
Ni5 O13 1.872183 1_554
Ni5 O15 1.872370 1_554
Ni5 O7 1.872481 1_555
Ni5 O1 1.892728 1_554
Ni5 O3 1.892760 1_455
Ni6 O4 1.872044 1_554
Ni6 O8 1.872121 1_555
Ni6 O6 1.872328 1_455
Ni6 O14 1.872397 1_554
Ni6 O0 1.892630 1_554
Ni6 O2 1.892640 1_555
Ni7 O4 1.872080 1_554
Ni7 O9 1.872154 1_565
Ni7 O12 1.872298 1_554
Ni7 O11 1.872388 1_565
Ni7 O2 1.892322 1_555
Ni7 O1 1.892343 1_564
