# generated using pymatgen
data_SrSmScO4
_symmetry_space_group_name_H-M   'P 1'
_cell_length_a   6.77474888
_cell_length_b   6.77474888
_cell_length_c   5.88180900
_cell_angle_alpha   90.00000000
_cell_angle_beta   90.00000000
_cell_angle_gamma   130.23566919
_symmetry_Int_Tables_number   1
_chemical_formula_structural   SrSmScO4
_chemical_formula_sum   'Sr2 Sm2 Sc2 O8'
_cell_volume   206.08486328
_cell_formula_units_Z   2
loop_
 _symmetry_equiv_pos_site_id
 _symmetry_equiv_pos_as_xyz
  1  'x, y, z'
loop_
 _atom_site_type_symbol
 _atom_site_label
 _atom_site_symmetry_multiplicity
 _atom_site_fract_x
 _atom_site_fract_y
 _atom_site_fract_z
 _atom_site_occupancy
  Sr  Sr0  1  0.60436500  0.39563500  0.51152500  1
  Sr  Sr1  1  0.39563500  0.60436500  0.01152500  1
  Sm  Sm0  1  0.89400200  0.10599800  0.49053500  1
  Sm  Sm1  1  0.10599800  0.89400200  0.99053500  1
  Sc  Sc0  1  0.25398600  0.74601400  0.49449100  1
  Sc  Sc1  1  0.74601400  0.25398600  0.99449100  1
  O  O0  1  0.58368400  0.41631600  0.92831100  1
  O  O1  1  0.93256900  0.06743100  0.10510700  1
  O  O2  1  0.41631600  0.58368400  0.42831100  1
  O  O3  1  0.06743100  0.93256900  0.60510700  1
  O  O4  1  0.01871700  0.46216200  0.73501500  1
  O  O5  1  0.98128300  0.53783800  0.23501500  1
  O  O6  1  0.46216200  0.01871700  0.23501500  1
  O  O7  1  0.53783800  0.98128300  0.73501500  1
loop_
_geom_bond_atom_site_label_1
_geom_bond_atom_site_label_2
_geom_bond_distance
_geom_bond_site_symmetry_2
O0 Sc1 2.032937 1_555
O0 Sr1 2.362706 1_556
O0 Sr0 2.464600 1_555
O0 Sm1 2.886957 1_655
O0 Sm1 2.886957 1_545
O1 Sm1 2.235728 1_644
O1 Sm0 2.316049 1_555
O1 Sc1 2.383605 1_554
O1 Sr1 2.938439 1_545
O1 Sr1 2.938439 1_655
O2 Sc0 2.032937 1_555
O2 Sr0 2.362706 1_555
O2 Sr1 2.464600 1_555
O2 Sm0 2.886957 1_455
O2 Sm0 2.886957 1_565
O3 Sm0 2.235728 1_465
O3 Sm1 2.316049 1_555
O3 Sc0 2.383605 1_555
O3 Sr0 2.938439 1_455
O3 Sr0 2.938439 1_565
O4 Sc0 2.068876 1_555
O4 Sc1 2.089369 1_455
O4 Sm0 2.443385 1_455
O4 Sr1 2.629767 1_556
O4 Sr0 2.859483 1_455
O4 Sm1 2.988771 1_555
O5 Sc1 2.068876 1_554
O5 Sc0 2.089369 1_655
O5 Sm1 2.443385 1_654
O5 Sr0 2.629767 1_555
O5 Sr1 2.859483 1_655
O5 Sm0 2.988771 1_555
O6 Sc1 2.068876 1_554
O6 Sc0 2.089369 1_545
O6 Sm1 2.443385 1_544
O6 Sr0 2.629767 1_555
O6 Sr1 2.859483 1_545
O6 Sm0 2.988771 1_555
O7 Sc0 2.068876 1_555
O7 Sc1 2.089369 1_565
O7 Sm0 2.443385 1_565
O7 Sr1 2.629767 1_556
O7 Sr0 2.859483 1_565
O7 Sm1 2.988771 1_555
