# generated using pymatgen
data_Th3Se3O16
_symmetry_space_group_name_H-M   'P 1'
_cell_length_a   9.71678529
_cell_length_b   9.71678529
_cell_length_c   9.71678529
_cell_angle_alpha   107.67124983
_cell_angle_beta   107.67124983
_cell_angle_gamma   113.13444467
_symmetry_Int_Tables_number   1
_chemical_formula_structural   Th3Se3O16
_chemical_formula_sum   'Th6 Se6 O32'
_cell_volume   704.04972546
_cell_formula_units_Z   2
loop_
 _symmetry_equiv_pos_site_id
 _symmetry_equiv_pos_as_xyz
  1  'x, y, z'
loop_
 _atom_site_type_symbol
 _atom_site_label
 _atom_site_symmetry_multiplicity
 _atom_site_fract_x
 _atom_site_fract_y
 _atom_site_fract_z
 _atom_site_occupancy
  Th  Th0  1  0.03773600  0.25240900  0.29014500  1
  Th  Th1  1  0.96226400  0.74759100  0.70985500  1
  Th  Th2  1  0.74759100  0.03773600  0.78532700  1
  Th  Th3  1  0.25240900  0.96226400  0.21467300  1
  Th  Th4  1  0.75191900  0.75191900  0.00000000  1
  Th  Th5  1  0.24808100  0.24808100  0.00000000  1
  Se  Se0  1  0.72080800  0.37689000  0.09769800  1
  Se  Se1  1  0.27919200  0.62311000  0.90230200  1
  Se  Se2  1  0.62311000  0.72080800  0.34391800  1
  Se  Se3  1  0.37689000  0.27919200  0.65608200  1
  Se  Se4  1  0.75000000  0.25000000  0.50000000  1
  Se  Se5  1  0.25000000  0.75000000  0.50000000  1
  O  O0  1  0.67804800  0.23827500  0.91632300  1
  O  O1  1  0.32195200  0.76172500  0.08367700  1
  O  O2  1  0.76172500  0.67804800  0.43977300  1
  O  O3  1  0.23827500  0.32195200  0.56022700  1
  O  O4  1  0.77754500  0.44278500  0.55324000  1
  O  O5  1  0.88954500  0.22430500  0.44676000  1
  O  O6  1  0.22430500  0.77754500  0.33476000  1
  O  O7  1  0.44278500  0.88954500  0.66524000  1
  O  O8  1  0.22245500  0.55721500  0.44676000  1
  O  O9  1  0.11045500  0.77569500  0.55324000  1
  O  O10  1  0.77569500  0.22245500  0.66524000  1
  O  O11  1  0.55721500  0.11045500  0.33476000  1
  O  O12  1  0.86573000  0.38490100  0.25063100  1
  O  O13  1  0.13427000  0.61509900  0.74936900  1
  O  O14  1  0.61509900  0.86573000  0.48082900  1
  O  O15  1  0.38490100  0.13427000  0.51917100  1
  O  O16  1  0.02028400  0.98478800  0.23117100  1
  O  O17  1  0.75361800  0.78911300  0.76882900  1
  O  O18  1  0.78911300  0.02028400  0.03549600  1
  O  O19  1  0.98478800  0.75361800  0.96450400  1
  O  O20  1  0.97971600  0.01521200  0.76882900  1
  O  O21  1  0.24638200  0.21088700  0.23117100  1
  O  O22  1  0.21088700  0.97971600  0.96450400  1
  O  O23  1  0.01521200  0.24638200  0.03549600  1
  O  O24  1  0.54308600  0.31740300  0.11518400  1
  O  O25  1  0.20221900  0.42790200  0.88481600  1
  O  O26  1  0.42790200  0.54308600  0.22568300  1
  O  O27  1  0.31740300  0.20221900  0.77431700  1
  O  O28  1  0.45691400  0.68259700  0.88481600  1
  O  O29  1  0.79778100  0.57209800  0.11518400  1
  O  O30  1  0.57209800  0.45691400  0.77431700  1
  O  O31  1  0.68259700  0.79778100  0.22568300  1
loop_
_geom_bond_atom_site_label_1
_geom_bond_atom_site_label_2
_geom_bond_distance
_geom_bond_site_symmetry_2
O0 Se0 1.663528 1_556
O0 Th2 2.434101 1_555
O1 Se1 1.663528 1_554
O1 Th3 2.434101 1_555
O2 Se2 1.663528 1_555
O2 Th1 2.434101 1_555
O3 Se3 1.663528 1_555
O3 Th0 2.434101 1_555
O4 Se4 1.667921 1_555
O4 Th1 2.395314 1_555
O5 Se4 1.667921 1_555
O5 Th0 2.395314 1_655
O6 Se5 1.667921 1_555
O6 Th3 2.395314 1_555
O7 Se5 1.667921 1_555
O7 Th2 2.395314 1_565
O8 Se5 1.667921 1_555
O8 Th0 2.395314 1_555
O9 Se5 1.667921 1_555
O9 Th1 2.395314 1_455
O10 Se4 1.667921 1_555
O10 Th2 2.395314 1_555
O11 Se4 1.667921 1_555
O11 Th3 2.395314 1_545
O12 Se0 1.664477 1_555
O12 Th0 2.489870 1_655
O13 Se1 1.664477 1_555
O13 Th1 2.489870 1_455
O14 Se2 1.664477 1_555
O14 Th2 2.489870 1_565
O15 Se3 1.664477 1_555
O15 Th3 2.489870 1_545
O16 Th4 2.384774 1_455
O16 Th3 2.397296 1_555
O16 Th0 2.410210 1_565
O17 Th4 2.384776 1_556
O17 Th2 2.397300 1_565
O17 Th1 2.410200 1_555
O18 Th4 2.384774 1_545
O18 Th0 2.397296 1_655
O18 Th2 2.410210 1_554
O19 Th4 2.384771 1_556
O19 Th1 2.397293 1_555
O19 Th3 2.410209 1_656
O20 Th5 2.384774 1_656
O20 Th2 2.397296 1_555
O20 Th1 2.410210 1_545
O21 Th5 2.384776 1_555
O21 Th3 2.397300 1_545
O21 Th0 2.410200 1_555
O22 Th5 2.384774 1_566
O22 Th1 2.397296 1_455
O22 Th3 2.410210 1_556
O23 Th5 2.384771 1_555
O23 Th0 2.397293 1_555
O23 Th2 2.410209 1_454
O24 Se0 1.672879 1_555
O24 Th5 2.449598 1_555
O25 Se1 1.672879 1_555
O25 Th5 2.449598 1_556
O26 Se2 1.672879 1_555
O26 Th5 2.449598 1_555
O27 Se3 1.672879 1_555
O27 Th5 2.449598 1_556
O28 Se1 1.672879 1_555
O28 Th4 2.449598 1_556
O29 Se0 1.672879 1_555
O29 Th4 2.449598 1_555
O30 Se3 1.672879 1_555
O30 Th4 2.449598 1_556
O31 Se2 1.672879 1_555
O31 Th4 2.449598 1_555
