# generated using pymatgen
data_Nb3Ge
_symmetry_space_group_name_H-M   'P 1'
_cell_length_a   10.34911704
_cell_length_b   10.34925840
_cell_length_c   5.27949736
_cell_angle_alpha   90.00047520
_cell_angle_beta   89.99966167
_cell_angle_gamma   89.99947533
_symmetry_Int_Tables_number   1
_chemical_formula_structural   Nb3Ge
_chemical_formula_sum   'Nb24 Ge8'
_cell_volume   565.46418887
_cell_formula_units_Z   8
loop_
 _symmetry_equiv_pos_site_id
 _symmetry_equiv_pos_as_xyz
  1  'x, y, z'
loop_
 _atom_site_type_symbol
 _atom_site_label
 _atom_site_symmetry_multiplicity
 _atom_site_fract_x
 _atom_site_fract_y
 _atom_site_fract_z
 _atom_site_occupancy
  Nb  Nb0  1  0.91561626  0.59645301  0.53609573  1
  Nb  Nb1  1  0.08437939  0.40354900  0.53610085  1
  Nb  Nb2  1  0.90354186  0.41560840  0.03610357  1
  Nb  Nb3  1  0.09645622  0.58439010  0.03609289  1
  Nb  Nb4  1  0.58440658  0.90352275  0.96390133  1
  Nb  Nb5  1  0.41559479  0.09647401  0.96390742  1
  Nb  Nb6  1  0.59648033  0.08440920  0.46390043  1
  Nb  Nb7  1  0.40352205  0.91558794  0.46390242  1
  Nb  Nb8  1  0.85165366  0.98350835  0.72134847  1
  Nb  Nb9  1  0.14834407  0.01648933  0.72135348  1
  Nb  Nb10  1  0.51650919  0.35165760  0.22136012  1
  Nb  Nb11  1  0.48349690  0.64834386  0.22135303  1
  Nb  Nb12  1  0.64836293  0.51648638  0.77864595  1
  Nb  Nb13  1  0.35163646  0.48351733  0.77864502  1
  Nb  Nb14  1  0.98350083  0.14836622  0.27863373  1
  Nb  Nb15  1  0.01649428  0.85163226  0.27864287  1
  Nb  Nb16  1  0.80999121  0.71285454  0.01551945  1
  Nb  Nb17  1  0.19000687  0.28714898  0.01552006  1
  Nb  Nb18  1  0.78714166  0.30999063  0.51551991  1
  Nb  Nb19  1  0.21285909  0.69000772  0.51551679  1
  Nb  Nb20  1  0.69003774  0.78711301  0.48448352  1
  Nb  Nb21  1  0.30996163  0.21289040  0.48448961  1
  Nb  Nb22  1  0.71288722  0.19004060  0.98448324  1
  Nb  Nb23  1  0.28711580  0.80995875  0.98448288  1
  Ge  Ge0  1  0.79538250  0.97259187  0.21694198  1
  Ge  Ge1  1  0.20461485  0.02740756  0.21694809  1
  Ge  Ge2  1  0.52740469  0.29538826  0.71695162  1
  Ge  Ge3  1  0.47259250  0.70461277  0.71694001  1
  Ge  Ge4  1  0.70463088  0.52740773  0.28305959  1
  Ge  Ge5  1  0.29537157  0.47259172  0.28305979  1
  Ge  Ge6  1  0.97260142  0.20463179  0.78304197  1
  Ge  Ge7  1  0.02740157  0.79536692  0.78305618  1
loop_
_geom_bond_atom_site_label_1
_geom_bond_atom_site_label_2
_geom_bond_distance
_geom_bond_site_symmetry_2
Ge0 Nb20 2.620785 1_555
Ge0 Nb15 2.628603 1_655
Ge0 Nb4 2.657632 1_554
Ge0 Nb8 2.682887 1_554
Ge0 Nb14 2.684334 1_565
Ge0 Nb6 2.697457 1_565
Ge0 Nb22 2.701767 1_564
Ge0 Nb8 2.728288 1_555
Ge0 Nb16 2.894730 1_555
Ge1 Nb21 2.620813 1_555
Ge1 Nb14 2.628603 1_455
Ge1 Nb5 2.657652 1_554
Ge1 Nb9 2.682898 1_554
Ge1 Nb15 2.684361 1_545
Ge1 Nb7 2.697518 1_545
Ge1 Nb23 2.701781 1_544
Ge1 Nb9 2.728277 1_555
Ge1 Nb17 2.894797 1_555
Ge2 Nb22 2.620775 1_555
Ge2 Nb12 2.628504 1_555
Ge2 Nb6 2.657701 1_555
Ge2 Nb10 2.682873 1_555
Ge2 Nb13 2.684349 1_555
Ge2 Nb5 2.697559 1_555
Ge2 Nb21 2.701718 1_555
Ge2 Nb10 2.728279 1_556
Ge2 Nb18 2.894713 1_555
Ge3 Nb23 2.620734 1_555
Ge3 Nb13 2.628479 1_555
Ge3 Nb7 2.657640 1_555
Ge3 Nb11 2.682841 1_555
Ge3 Nb12 2.684359 1_555
Ge3 Nb4 2.697548 1_555
Ge3 Nb20 2.701726 1_555
Ge3 Nb11 2.728315 1_556
Ge3 Nb19 2.894674 1_555
Ge4 Nb16 2.620605 1_555
Ge4 Nb11 2.628691 1_555
Ge4 Nb0 2.657634 1_555
Ge4 Nb12 2.682845 1_555
Ge4 Nb10 2.684195 1_555
Ge4 Nb2 2.697441 1_555
Ge4 Nb18 2.701549 1_555
Ge4 Nb12 2.728320 1_554
Ge4 Nb20 2.894416 1_555
Ge5 Nb17 2.620582 1_555
Ge5 Nb10 2.628704 1_555
Ge5 Nb1 2.657691 1_555
Ge5 Nb13 2.682839 1_555
Ge5 Nb11 2.684242 1_555
Ge5 Nb3 2.697520 1_555
Ge5 Nb19 2.701516 1_555
Ge5 Nb13 2.728316 1_554
Ge5 Nb21 2.894405 1_555
Ge6 Nb18 2.620624 1_555
Ge6 Nb8 2.628680 1_545
Ge6 Nb2 2.657663 1_556
Ge6 Nb14 2.682867 1_556
Ge6 Nb9 2.684267 1_655
Ge6 Nb1 2.697403 1_655
Ge6 Nb17 2.701496 1_656
Ge6 Nb14 2.728271 1_555
Ge6 Nb22 2.894506 1_555
Ge7 Nb19 2.620635 1_555
Ge7 Nb9 2.628653 1_565
Ge7 Nb3 2.657608 1_556
Ge7 Nb15 2.682833 1_556
Ge7 Nb8 2.684315 1_455
Ge7 Nb0 2.697449 1_455
Ge7 Nb16 2.701481 1_456
Ge7 Nb15 2.728310 1_555
Ge7 Nb23 2.894490 1_555
