# generated using pymatgen
data_TmSnPt
_symmetry_space_group_name_H-M   'P 1'
_cell_length_a   7.42471250
_cell_length_b   7.42471250
_cell_length_c   3.96164208
_cell_angle_alpha   90.00000000
_cell_angle_beta   90.00000000
_cell_angle_gamma   119.99999626
_symmetry_Int_Tables_number   1
_chemical_formula_structural   TmSnPt
_chemical_formula_sum   'Tm3 Sn3 Pt3'
_cell_volume   189.13206626
_cell_formula_units_Z   3
loop_
 _symmetry_equiv_pos_site_id
 _symmetry_equiv_pos_as_xyz
  1  'x, y, z'
loop_
 _atom_site_type_symbol
 _atom_site_label
 _atom_site_symmetry_multiplicity
 _atom_site_fract_x
 _atom_site_fract_y
 _atom_site_fract_z
 _atom_site_occupancy
  Tm  Tm0  1  -0.00000000  0.40457809  -0.00000000  1
  Tm  Tm1  1  0.59542191  0.59542191  0.00000000  1
  Tm  Tm2  1  0.40457809  -0.00000000  0.00000000  1
  Sn  Sn0  1  -0.00000000  0.73939955  0.50000000  1
  Sn  Sn1  1  0.26060045  0.26060045  0.50000000  1
  Sn  Sn2  1  0.73939955  -0.00000000  0.50000000  1
  Pt  Pt0  1  0.33333300  0.66666700  0.50000000  1
  Pt  Pt1  1  0.66666700  0.33333300  0.50000000  1
  Pt  Pt2  1  0.00000000  0.00000000  -0.00000000  1
loop_
_geom_bond_atom_site_label_1
_geom_bond_atom_site_label_2
_geom_bond_distance
_geom_bond_site_symmetry_2
Sn0 Tm0 3.178618 1_555
Sn0 Tm0 3.178618 1_556
Sn0 Tm1 3.298264 1_455
Sn0 Tm1 3.298264 1_456
Sn0 Tm2 3.298264 1_566
Sn0 Tm2 3.298264 1_565
Sn0 Sn2 3.351316 1_465
Sn0 Sn1 3.351317 1_565
Sn1 Tm1 3.178618 1_556
Sn1 Tm1 3.178618 1_555
Sn1 Tm0 3.298264 1_555
Sn1 Tm0 3.298264 1_556
Sn1 Tm2 3.298264 1_555
Sn1 Tm2 3.298264 1_556
Sn1 Sn2 3.351317 1_455
Sn2 Tm2 3.178618 1_555
Sn2 Tm2 3.178618 1_556
Sn2 Tm1 3.298264 1_545
Sn2 Tm1 3.298264 1_546
Sn2 Tm0 3.298264 1_655
Sn2 Tm0 3.298264 1_656
Pt0 Sn0 2.784466 1_555
Pt0 Sn2 2.784471 1_565
Pt0 Sn1 2.784473 1_555
Pt0 Tm2 3.003239 1_566
Pt0 Tm2 3.003239 1_565
Pt0 Tm0 3.003241 1_555
Pt0 Tm0 3.003241 1_556
Pt0 Tm1 3.003244 1_555
Pt0 Tm1 3.003244 1_556
Pt1 Sn2 2.784466 1_555
Pt1 Sn0 2.784471 1_655
Pt1 Sn1 2.784473 1_555
Pt1 Tm0 3.003239 1_656
Pt1 Tm0 3.003239 1_655
Pt1 Tm2 3.003241 1_556
Pt1 Tm2 3.003241 1_555
Pt1 Tm1 3.003244 1_555
Pt1 Tm1 3.003244 1_556
Pt2 Sn0 2.769012 1_544
Pt2 Sn2 2.769012 1_455
Pt2 Sn0 2.769012 1_545
Pt2 Sn2 2.769012 1_454
Pt2 Sn1 2.769012 1_554
Pt2 Sn1 2.769012 1_555
Pt2 Tm2 3.003876 1_555
Pt2 Tm0 3.003876 1_555
Pt2 Tm1 3.003876 1_445
