# generated using pymatgen
data_AlAgO2
_symmetry_space_group_name_H-M   'P 1'
_cell_length_a   9.23525000
_cell_length_b   9.84224700
_cell_length_c   20.83699500
_cell_angle_alpha   90.00000000
_cell_angle_beta   90.00000000
_cell_angle_gamma   90.00000000
_symmetry_Int_Tables_number   1
_chemical_formula_structural   AlAgO2
_chemical_formula_sum   'Al32 Ag32 O64'
_cell_volume   1893.99140457
_cell_formula_units_Z   32
loop_
 _symmetry_equiv_pos_site_id
 _symmetry_equiv_pos_as_xyz
  1  'x, y, z'
loop_
 _atom_site_type_symbol
 _atom_site_label
 _atom_site_symmetry_multiplicity
 _atom_site_fract_x
 _atom_site_fract_y
 _atom_site_fract_z
 _atom_site_occupancy
  Al  Al0  1  0.92974800  0.27339800  0.86608300  1
  Al  Al1  1  0.33313700  0.12726500  0.00595000  1
  Al  Al2  1  0.39563600  0.52280700  0.82254000  1
  Al  Al3  1  0.27876400  0.49855300  0.13486600  1
  Al  Al4  1  0.66686300  0.87273500  0.99405000  1
  Al  Al5  1  0.66686300  0.12726500  0.49405000  1
  Al  Al6  1  0.33313700  0.87273500  0.50595000  1
  Al  Al7  1  0.72123600  0.50144700  0.86513400  1
  Al  Al8  1  0.92974800  0.72660200  0.36608300  1
  Al  Al9  1  0.16686300  0.62726500  0.00595000  1
  Al  Al10  1  0.57025200  0.22660200  0.36608300  1
  Al  Al11  1  0.10436400  0.97719300  0.32254000  1
  Al  Al12  1  0.42974800  0.77339800  0.63391700  1
  Al  Al13  1  0.89563600  0.02280700  0.67746000  1
  Al  Al14  1  0.39563600  0.47719300  0.32254000  1
  Al  Al15  1  0.77876400  0.99855300  0.36513400  1
  Al  Al16  1  0.83313700  0.37273500  0.99405000  1
  Al  Al17  1  0.57025200  0.77339800  0.86608300  1
  Al  Al18  1  0.42974800  0.22660200  0.13391700  1
  Al  Al19  1  0.60436400  0.47719300  0.17746000  1
  Al  Al20  1  0.22123600  0.99855300  0.13486600  1
  Al  Al21  1  0.10436400  0.02280700  0.82254000  1
  Al  Al22  1  0.16686300  0.37273500  0.50595000  1
  Al  Al23  1  0.07025200  0.72660200  0.13391700  1
  Al  Al24  1  0.22123600  0.00144700  0.63486600  1
  Al  Al25  1  0.77876400  0.00144700  0.86513400  1
  Al  Al26  1  0.60436400  0.52280700  0.67746000  1
  Al  Al27  1  0.07025200  0.27339800  0.63391700  1
  Al  Al28  1  0.72123600  0.49855300  0.36513400  1
  Al  Al29  1  0.83313700  0.62726500  0.49405000  1
  Al  Al30  1  0.27876400  0.50144700  0.63486600  1
  Al  Al31  1  0.89563600  0.97719300  0.17746000  1
  Ag  Ag0  1  0.69367600  0.23788300  0.74483800  1
  Ag  Ag1  1  0.28404000  0.13728500  0.40593600  1
  Ag  Ag2  1  0.69367600  0.76211700  0.24483800  1
  Ag  Ag3  1  0.49434900  0.77807900  0.37006400  1
  Ag  Ag4  1  0.19367600  0.26211700  0.25516200  1
  Ag  Ag5  1  0.50565100  0.77807900  0.12993600  1
  Ag  Ag6  1  0.00000000  0.50191300  0.75000000  1
  Ag  Ag7  1  0.30632400  0.23788300  0.75516200  1
  Ag  Ag8  1  0.71596000  0.86271500  0.59406400  1
  Ag  Ag9  1  0.00000000  0.00000000  0.00000000  1
  Ag  Ag10  1  0.21596000  0.63728500  0.40593600  1
  Ag  Ag11  1  0.99434900  0.27807900  0.12993600  1
  Ag  Ag12  1  0.00565100  0.72192100  0.87006400  1
  Ag  Ag13  1  0.21596000  0.36271500  0.90593600  1
  Ag  Ag14  1  0.28404000  0.86271500  0.90593600  1
  Ag  Ag15  1  0.19367600  0.73788300  0.75516200  1
  Ag  Ag16  1  0.49434900  0.22192100  0.87006400  1
  Ag  Ag17  1  0.71596000  0.13728500  0.09406400  1
  Ag  Ag18  1  0.50565100  0.22192100  0.62993600  1
  Ag  Ag19  1  0.50000000  0.50000000  0.50000000  1
  Ag  Ag20  1  0.00000000  0.00000000  0.50000000  1
  Ag  Ag21  1  0.78404000  0.63728500  0.09406400  1
  Ag  Ag22  1  0.78404000  0.36271500  0.59406400  1
  Ag  Ag23  1  0.00000000  0.49808700  0.25000000  1
  Ag  Ag24  1  0.50000000  0.00191300  0.75000000  1
  Ag  Ag25  1  0.99434900  0.72192100  0.62993600  1
  Ag  Ag26  1  0.50000000  0.99808700  0.25000000  1
  Ag  Ag27  1  0.00565100  0.27807900  0.37006400  1
  Ag  Ag28  1  0.50000000  0.50000000  0.00000000  1
  Ag  Ag29  1  0.30632400  0.76211700  0.25516200  1
  Ag  Ag30  1  0.80632400  0.73788300  0.74483800  1
  Ag  Ag31  1  0.80632400  0.26211700  0.24483800  1
  O  O0  1  0.67665800  0.11461500  0.57566900  1
  O  O1  1  0.67665800  0.88538500  0.07566900  1
  O  O2  1  0.23004800  0.82208500  0.14802800  1
  O  O3  1  0.73004800  0.67791500  0.85197200  1
  O  O4  1  0.29529900  0.53880200  0.05042400  1
  O  O5  1  0.79529900  0.96119800  0.94957600  1
  O  O6  1  0.74149100  0.05562700  0.20237500  1
  O  O7  1  0.96295700  0.28589100  0.95100800  1
  O  O8  1  0.55880200  0.56628900  0.33109200  1
  O  O9  1  0.70470100  0.46119800  0.94957600  1
  O  O10  1  0.38998300  0.06055300  0.15929800  1
  O  O11  1  0.74149100  0.94437300  0.70237500  1
  O  O12  1  0.42236300  0.30537500  0.32887700  1
  O  O13  1  0.88998300  0.56055300  0.34070200  1
  O  O14  1  0.25850900  0.05562700  0.29762500  1
  O  O15  1  0.20470100  0.03880200  0.05042400  1
  O  O16  1  0.11001700  0.43944700  0.65929800  1
  O  O17  1  0.79529900  0.03880200  0.44957600  1
  O  O18  1  0.44119800  0.43371100  0.66890800  1
  O  O19  1  0.24149100  0.44437300  0.79762500  1
  O  O20  1  0.05880200  0.06628900  0.16890800  1
  O  O21  1  0.46295700  0.78589100  0.54899200  1
  O  O22  1  0.38998300  0.93944700  0.65929800  1
  O  O23  1  0.53704300  0.21410900  0.45100800  1
  O  O24  1  0.82334200  0.61461500  0.57566900  1
  O  O25  1  0.29529900  0.46119800  0.55042400  1
  O  O26  1  0.57763700  0.30537500  0.17112300  1
  O  O27  1  0.25850900  0.94437300  0.79762500  1
  O  O28  1  0.03704300  0.71410900  0.04899200  1
  O  O29  1  0.94119800  0.93371100  0.83109200  1
  O  O30  1  0.07763700  0.80537500  0.32887700  1
  O  O31  1  0.23004800  0.17791500  0.64802800  1
  O  O32  1  0.61001700  0.06055300  0.34070200  1
  O  O33  1  0.76995200  0.82208500  0.35197200  1
  O  O34  1  0.57763700  0.69462500  0.67112300  1
  O  O35  1  0.24149100  0.55562700  0.29762500  1
  O  O36  1  0.44119800  0.56628900  0.16890800  1
  O  O37  1  0.55880200  0.43371100  0.83109200  1
  O  O38  1  0.32334200  0.11461500  0.92433100  1
  O  O39  1  0.94119800  0.06628900  0.33109200  1
  O  O40  1  0.07763700  0.19462500  0.82887700  1
  O  O41  1  0.17665800  0.61461500  0.92433100  1
  O  O42  1  0.26995200  0.67791500  0.64802800  1
  O  O43  1  0.75850900  0.55562700  0.20237500  1
  O  O44  1  0.20470100  0.96119800  0.55042400  1
  O  O45  1  0.17665800  0.38538500  0.42433100  1
  O  O46  1  0.53704300  0.78589100  0.95100800  1
  O  O47  1  0.05880200  0.93371100  0.66890800  1
  O  O48  1  0.70470100  0.53880200  0.44957600  1
  O  O49  1  0.61001700  0.93944700  0.84070200  1
  O  O50  1  0.82334200  0.38538500  0.07566900  1
  O  O51  1  0.76995200  0.17791500  0.85197200  1
  O  O52  1  0.73004800  0.32208500  0.35197200  1
  O  O53  1  0.75850900  0.44437300  0.70237500  1
  O  O54  1  0.88998300  0.43944700  0.84070200  1
  O  O55  1  0.26995200  0.32208500  0.14802800  1
  O  O56  1  0.46295700  0.21410900  0.04899200  1
  O  O57  1  0.92236300  0.19462500  0.67112300  1
  O  O58  1  0.42236300  0.69462500  0.82887700  1
  O  O59  1  0.11001700  0.56055300  0.15929800  1
  O  O60  1  0.03704300  0.28589100  0.54899200  1
  O  O61  1  0.32334200  0.88538500  0.42433100  1
  O  O62  1  0.92236300  0.80537500  0.17112300  1
  O  O63  1  0.96295700  0.71410900  0.45100800  1
loop_
_geom_bond_atom_site_label_1
_geom_bond_atom_site_label_2
_geom_bond_distance
_geom_bond_site_symmetry_2
Al0 O40 1.751432 1_655
Al0 O54 1.756554 1_555
Al0 O51 1.774112 1_555
Al0 O7 1.800167 1_555
Al1 O38 1.707644 1_554
Al1 O56 1.724053 1_555
Al1 O15 1.738902 1_555
Al2 O19 1.700588 1_555
Al2 O58 1.714088 1_555
Al2 O37 1.752541 1_555
Al3 O59 1.749347 1_555
Al3 O55 1.760244 1_555
Al3 O36 1.788285 1_555
Al3 O4 1.810013 1_555
Al4 O1 1.707644 1_556
Al4 O46 1.724053 1_555
Al4 O5 1.738902 1_555
Al5 O0 1.707644 1_555
Al5 O23 1.724053 1_555
Al5 O17 1.738902 1_555
Al6 O61 1.707644 1_555
Al6 O21 1.724053 1_555
Al6 O44 1.738902 1_555
Al7 O54 1.749347 1_555
Al7 O3 1.760244 1_555
Al7 O37 1.788285 1_555
Al7 O9 1.810013 1_555
Al8 O30 1.751432 1_655
Al8 O13 1.756554 1_555
Al8 O33 1.774112 1_555
Al8 O63 1.800167 1_555
Al9 O41 1.707644 1_554
Al9 O28 1.724053 1_555
Al9 O4 1.738902 1_555
Al10 O12 1.751432 1_555
Al10 O32 1.756554 1_555
Al10 O52 1.774112 1_555
Al10 O23 1.800167 1_555
Al11 O14 1.700588 1_565
Al11 O30 1.714088 1_555
Al11 O39 1.752541 1_465
Al12 O34 1.751432 1_555
Al12 O22 1.756554 1_555
Al12 O42 1.774112 1_555
Al12 O21 1.800167 1_555
Al13 O11 1.700588 1_545
Al13 O57 1.714088 1_555
Al13 O47 1.752541 1_645
Al14 O35 1.700588 1_555
Al14 O12 1.714088 1_555
Al14 O8 1.752541 1_555
Al15 O32 1.749347 1_565
Al15 O33 1.760244 1_555
Al15 O39 1.788285 1_565
Al15 O17 1.810013 1_565
Al16 O50 1.707644 1_556
Al16 O7 1.724053 1_555
Al16 O9 1.738902 1_555
Al17 O58 1.751432 1_555
Al17 O49 1.756554 1_555
Al17 O3 1.774112 1_555
Al17 O46 1.800167 1_555
Al18 O26 1.751432 1_555
Al18 O10 1.756554 1_555
Al18 O55 1.774112 1_555
Al18 O56 1.800167 1_555
Al19 O43 1.700588 1_555
Al19 O26 1.714088 1_555
Al19 O36 1.752541 1_555
Al20 O10 1.749347 1_565
Al20 O2 1.760244 1_555
Al20 O20 1.788285 1_565
Al20 O15 1.810013 1_565
Al21 O27 1.700588 1_545
Al21 O40 1.714088 1_555
Al21 O29 1.752541 1_445
Al22 O45 1.707644 1_555
Al22 O60 1.724053 1_555
Al22 O25 1.738902 1_555
Al23 O62 1.751432 1_455
Al23 O59 1.756554 1_555
Al23 O2 1.774112 1_555
Al23 O28 1.800167 1_555
Al24 O22 1.749347 1_545
Al24 O31 1.760244 1_555
Al24 O47 1.788285 1_545
Al24 O44 1.810013 1_545
Al25 O49 1.749347 1_545
Al25 O51 1.760244 1_555
Al25 O29 1.788285 1_545
Al25 O5 1.810013 1_545
Al26 O53 1.700588 1_555
Al26 O34 1.714088 1_555
Al26 O18 1.752541 1_555
Al27 O57 1.751432 1_455
Al27 O16 1.756554 1_555
Al27 O31 1.774112 1_555
Al27 O60 1.800167 1_555
Al28 O13 1.749347 1_555
Al28 O52 1.760244 1_555
Al28 O8 1.788285 1_555
Al28 O48 1.810013 1_555
Al29 O24 1.707644 1_555
Al29 O63 1.724053 1_555
Al29 O48 1.738902 1_555
Al30 O16 1.749347 1_555
Al30 O42 1.760244 1_555
Al30 O18 1.788285 1_555
Al30 O25 1.810013 1_555
Al31 O6 1.700588 1_565
Al31 O62 1.714088 1_555
Al31 O20 1.752541 1_665
Ag0 O53 2.296023 1_555
Ag0 O51 2.414118 1_555
Ag0 O57 2.645946 1_555
Ag1 O14 2.407283 1_555
Ag1 O61 2.534837 1_545
Ag1 O23 2.629296 1_555
Ag1 O12 2.635727 1_555
Ag1 O45 2.663282 1_555
Ag2 O43 2.296023 1_555
Ag2 O33 2.414118 1_555
Ag2 O62 2.645946 1_555
Ag3 O61 2.210928 1_555
Ag3 O8 2.314918 1_555
Ag3 O33 2.609228 1_555
Ag4 O14 2.296023 1_555
Ag4 O55 2.414118 1_555
Ag4 O12 2.645946 1_555
Ag5 O1 2.210928 1_555
Ag5 O36 2.314918 1_555
Ag5 O2 2.609228 1_555
Ag6 O54 2.232095 1_455
Ag6 O16 2.232095 1_555
Ag6 O19 2.505879 1_555
Ag6 O53 2.505879 1_455
Ag7 O19 2.296023 1_555
Ag7 O31 2.414118 1_555
Ag7 O40 2.645946 1_555
Ag8 O11 2.407283 1_555
Ag8 O0 2.534837 1_565
Ag8 O21 2.629296 1_555
Ag8 O34 2.635727 1_555
Ag8 O24 2.663282 1_555
Ag9 O15 2.196279 1_555
Ag9 O5 2.196279 1_444
Ag10 O35 2.407283 1_555
Ag10 O45 2.534837 1_555
Ag10 O63 2.629296 1_455
Ag10 O30 2.635727 1_555
Ag10 O61 2.663282 1_555
Ag11 O50 2.210928 1_555
Ag11 O20 2.314918 1_655
Ag11 O55 2.609228 1_655
Ag12 O41 2.210928 1_555
Ag12 O29 2.314918 1_455
Ag12 O3 2.609228 1_455
Ag13 O19 2.407283 1_555
Ag13 O41 2.534837 1_555
Ag13 O7 2.629296 1_455
Ag13 O40 2.635727 1_555
Ag13 O38 2.663282 1_555
Ag14 O27 2.407283 1_555
Ag14 O38 2.534837 1_565
Ag14 O46 2.629296 1_555
Ag14 O58 2.635727 1_555
Ag14 O41 2.663282 1_555
Ag15 O27 2.296023 1_555
Ag15 O42 2.414118 1_555
Ag15 O58 2.645946 1_555
Ag16 O38 2.210928 1_555
Ag16 O37 2.314918 1_555
Ag16 O51 2.609228 1_555
Ag17 O6 2.407283 1_555
Ag17 O1 2.534837 1_545
Ag17 O56 2.629296 1_555
Ag17 O26 2.635727 1_555
Ag17 O50 2.663282 1_555
Ag18 O0 2.210928 1_555
Ag18 O18 2.314918 1_555
Ag18 O31 2.609228 1_555
Ag19 O48 2.196279 1_555
Ag19 O25 2.196279 1_555
Ag20 O17 2.196279 1_455
Ag20 O44 2.196279 1_545
Ag21 O43 2.407283 1_555
Ag21 O50 2.534837 1_555
Ag21 O28 2.629296 1_655
Ag21 O62 2.635727 1_555
Ag21 O1 2.663282 1_555
Ag22 O53 2.407283 1_555
Ag22 O24 2.534837 1_555
Ag22 O60 2.629296 1_655
Ag22 O57 2.635727 1_555
Ag22 O0 2.663282 1_555
Ag23 O59 2.232095 1_555
Ag23 O13 2.232095 1_455
Ag23 O35 2.505879 1_555
Ag23 O43 2.505879 1_455
Ag24 O49 2.232095 1_545
Ag24 O22 2.232095 1_545
Ag24 O27 2.505879 1_545
Ag24 O11 2.505879 1_545
Ag25 O24 2.210928 1_555
Ag25 O47 2.314918 1_655
Ag25 O42 2.609228 1_655
Ag26 O32 2.232095 1_565
Ag26 O10 2.232095 1_565
Ag26 O14 2.505879 1_565
Ag26 O6 2.505879 1_565
Ag27 O45 2.210928 1_555
Ag27 O39 2.314918 1_455
Ag27 O52 2.609228 1_455
Ag28 O4 2.196279 1_555
Ag28 O9 2.196279 1_554
Ag29 O35 2.296023 1_555
Ag29 O2 2.414118 1_555
Ag29 O30 2.645946 1_555
Ag30 O11 2.296023 1_555
Ag30 O3 2.414118 1_555
Ag30 O34 2.645946 1_555
Ag31 O6 2.296023 1_555
Ag31 O52 2.414118 1_555
Ag31 O26 2.645946 1_555
