# generated using pymatgen
data_RbFe(MoO4)2
_symmetry_space_group_name_H-M   'P 1'
_cell_length_a   5.78839688
_cell_length_b   5.78839688
_cell_length_c   7.87729800
_cell_angle_alpha   90.00000000
_cell_angle_beta   90.00000000
_cell_angle_gamma   120.00001007
_symmetry_Int_Tables_number   1
_chemical_formula_structural   RbFe(MoO4)2
_chemical_formula_sum   'Rb1 Fe1 Mo2 O8'
_cell_volume   228.57275584
_cell_formula_units_Z   1
loop_
 _symmetry_equiv_pos_site_id
 _symmetry_equiv_pos_as_xyz
  1  'x, y, z'
loop_
 _atom_site_type_symbol
 _atom_site_label
 _atom_site_symmetry_multiplicity
 _atom_site_fract_x
 _atom_site_fract_y
 _atom_site_fract_z
 _atom_site_occupancy
  Rb  Rb0  1  0.00000000  0.00000000  0.50000000  1
  Fe  Fe0  1  0.00000000  0.00000000  0.00000000  1
  Mo  Mo0  1  0.33333300  0.66666700  0.22085100  1
  Mo  Mo1  1  0.66666700  0.33333300  0.77914900  1
  O  O0  1  0.83856400  0.16143600  0.84863700  1
  O  O1  1  0.83856400  0.67712700  0.84863700  1
  O  O2  1  0.32287300  0.16143600  0.84863700  1
  O  O3  1  0.67712700  0.83856400  0.15136300  1
  O  O4  1  0.33333300  0.66666700  0.44322400  1
  O  O5  1  0.66666700  0.33333300  0.55677600  1
  O  O6  1  0.16143600  0.32287300  0.15136300  1
  O  O7  1  0.16143600  0.83856400  0.15136300  1
loop_
_geom_bond_atom_site_label_1
_geom_bond_atom_site_label_2
_geom_bond_distance
_geom_bond_site_symmetry_2
Fe0 O7 2.010293 1_545
Fe0 O0 2.010293 1_454
Fe0 O6 2.010297 1_555
Fe0 O3 2.010297 1_445
Fe0 O1 2.010297 1_444
Fe0 O2 2.010297 1_554
Mo0 O4 1.751698 1_555
Mo0 O6 1.808244 1_555
Mo0 O3 1.808244 1_555
Mo0 O7 1.808244 1_555
Mo1 O5 1.751698 1_555
Mo1 O2 1.808244 1_555
Mo1 O1 1.808244 1_555
Mo1 O0 1.808244 1_555
O0 Rb0 3.187771 1_655
O1 Rb0 3.187773 1_665
O2 Rb0 3.187773 1_555
O3 Rb0 3.187773 1_665
O4 Rb0 3.371723 1_565
O4 Rb0 3.371728 1_665
O4 Rb0 3.371728 1_555
O5 Rb0 3.371723 1_655
O5 Rb0 3.371728 1_665
O5 Rb0 3.371728 1_555
O6 Rb0 3.187773 1_555
O7 Rb0 3.187771 1_565
