# generated using pymatgen
data_Li3Cu2Ni5O12
_symmetry_space_group_name_H-M   'P 1'
_cell_length_a   5.02385069
_cell_length_b   5.03365925
_cell_length_c   28.70152256
_cell_angle_alpha   85.60012511
_cell_angle_beta   93.89759895
_cell_angle_gamma   63.27841216
_symmetry_Int_Tables_number   1
_chemical_formula_structural   Li3Cu2Ni5O12
_chemical_formula_sum   'Li9 Cu6 Ni15 O36'
_cell_volume   642.09513040
_cell_formula_units_Z   3
loop_
 _symmetry_equiv_pos_site_id
 _symmetry_equiv_pos_as_xyz
  1  'x, y, z'
loop_
 _atom_site_type_symbol
 _atom_site_label
 _atom_site_symmetry_multiplicity
 _atom_site_fract_x
 _atom_site_fract_y
 _atom_site_fract_z
 _atom_site_occupancy
  Li  Li0  1  0.65145200  0.15335200  0.99790600  1
  Li  Li1  1  0.15405500  0.65134600  0.16843900  1
  Li  Li2  1  0.64854700  0.15635500  0.66540100  1
  Li  Li3  1  0.65216600  0.15435400  0.33108500  1
  Li  Li4  1  0.83446200  0.35197700  0.83307300  1
  Li  Li5  1  0.83636000  0.35029400  0.50020000  1
  Li  Li6  1  0.93517600  0.90928900  0.91533200  1
  Li  Li7  1  0.93424100  0.90795000  0.58258900  1
  Li  Li8  1  0.92283500  0.92540100  0.24964900  1
  Cu  Cu0  1  0.26349400  0.25733300  0.91654300  1
  Cu  Cu1  1  0.26126600  0.25603100  0.58343500  1
  Cu  Cu2  1  0.25079500  0.25105800  0.25004100  1
  Cu  Cu3  1  0.74028600  0.74200000  0.74990600  1
  Cu  Cu4  1  0.74374300  0.74265600  0.41633300  1
  Cu  Cu5  1  0.73664500  0.74105200  0.08331700  1
  Ni  Ni0  1  0.08331400  0.07095200  0.75029300  1
  Ni  Ni1  1  0.08524300  0.07273600  0.41655100  1
  Ni  Ni2  1  0.07990200  0.08456100  0.08326500  1
  Ni  Ni3  1  0.40456300  0.41766600  0.75017200  1
  Ni  Ni4  1  0.40537500  0.42062500  0.41671900  1
  Ni  Ni5  1  0.58924800  0.59380600  0.91673700  1
  Ni  Ni6  1  0.40790100  0.41339300  0.08290300  1
  Ni  Ni7  1  0.58776100  0.59117500  0.58380100  1
  Ni  Ni8  1  0.50349700  0.99499700  0.83431900  1
  Ni  Ni9  1  0.59000000  0.59159700  0.25000000  1
  Ni  Ni10  1  0.50513300  0.99881300  0.50065100  1
  Ni  Ni11  1  0.99712300  0.51477800  0.99853200  1
  Ni  Ni12  1  0.50867500  0.99939900  0.16780400  1
  Ni  Ni13  1  0.99548500  0.51358000  0.66594600  1
  Ni  Ni14  1  0.99709000  0.50982100  0.33209100  1
  O  O0  1  0.17539300  0.31044200  0.79466700  1
  O  O1  1  0.00851700  0.78143700  0.71232000  1
  O  O2  1  0.32387700  0.19395200  0.70645800  1
  O  O3  1  0.16535500  0.31899200  0.46081900  1
  O  O4  1  0.31556200  0.51674200  0.95334500  1
  O  O5  1  0.01362000  0.77879500  0.37872900  1
  O  O6  1  0.32827800  0.19355600  0.37294000  1
  O  O7  1  0.18806500  0.32984000  0.12866900  1
  O  O8  1  0.31622700  0.51460300  0.62045500  1
  O  O9  1  0.54754900  0.29164500  0.88187600  1
  O  O10  1  0.25845300  0.95903600  0.88188200  1
  O  O11  1  0.01314500  0.77355800  0.04611400  1
  O  O12  1  0.32577300  0.19324300  0.03777600  1
  O  O13  1  0.31001900  0.51030800  0.28635500  1
  O  O14  1  0.54777000  0.28467100  0.54817700  1
  O  O15  1  0.25503800  0.95771900  0.54902800  1
  O  O16  1  0.75409800  0.02951600  0.78691100  1
  O  O17  1  0.46767200  0.70017400  0.78587100  1
  O  O18  1  0.51103300  0.31322500  0.21370800  1
  O  O19  1  0.26451600  0.94050300  0.21517600  1
  O  O20  1  0.75894600  0.03029400  0.45347700  1
  O  O21  1  0.46849000  0.70699700  0.45259800  1
  O  O22  1  0.72382700  0.44811800  0.71551400  1
  O  O23  1  0.67496600  0.82410600  0.95870400  1
  O  O24  1  0.94683600  0.27217700  0.95121000  1
  O  O25  1  0.76725800  0.01767100  0.12010100  1
  O  O26  1  0.44302500  0.72841700  0.11811800  1
  O  O27  1  0.81594400  0.66270800  0.87326700  1
  O  O28  1  0.72513100  0.44989100  0.38165600  1
  O  O29  1  0.67073700  0.82340700  0.62568500  1
  O  O30  1  0.94616200  0.27025500  0.61851900  1
  O  O31  1  0.81902400  0.65451200  0.54114100  1
  O  O32  1  0.72470400  0.44921400  0.04858700  1
  O  O33  1  0.67143100  0.82186900  0.29249800  1
  O  O34  1  0.93791500  0.26390900  0.28484700  1
  O  O35  1  0.82025800  0.67571000  0.20732000  1
loop_
_geom_bond_atom_site_label_1
_geom_bond_atom_site_label_2
_geom_bond_distance
_geom_bond_site_symmetry_2
Li0 O12 2.005286 1_556
Li0 O23 2.038316 1_545
Li0 O4 2.097846 1_555
Li0 O11 2.235929 1_646
Li0 O32 2.285118 1_556
Li0 O24 2.302558 1_555
Li1 O7 2.003113 1_555
Li1 O35 2.040337 1_455
Li1 O18 2.097646 1_555
Li1 O26 2.247131 1_555
Li1 O25 2.262655 1_465
Li1 O19 2.269510 1_555
Li2 O2 2.025542 1_555
Li2 O29 2.064703 1_545
Li2 O8 2.084733 1_555
Li2 O1 2.203449 1_645
Li2 O22 2.262377 1_555
Li2 O30 2.302371 1_555
Li3 O6 2.035457 1_555
Li3 O33 2.047004 1_545
Li3 O13 2.095351 1_555
Li3 O5 2.218050 1_645
Li3 O34 2.232665 1_555
Li3 O28 2.281129 1_555
Li4 O27 1.986594 1_555
Li4 O0 2.040203 1_655
Li4 O17 2.166723 1_555
Li4 O9 2.175955 1_555
Li4 O16 2.323715 1_555
Li4 O10 2.406694 1_645
Li5 O31 1.975704 1_555
Li5 O3 2.020225 1_655
Li5 O14 2.177064 1_555
Li5 O21 2.191395 1_555
Li5 O20 2.316912 1_555
Li5 O15 2.393647 1_645
Li6 O23 2.021343 1_555
Li6 O27 2.038940 1_555
Li6 O10 2.040329 1_655
Li6 O9 2.123724 1_565
Li6 O4 2.176372 1_655
Li6 O24 2.185664 1_565
Li7 O29 2.027809 1_555
Li7 O15 2.031034 1_655
Li7 O31 2.044756 1_555
Li7 O14 2.117068 1_565
Li7 O8 2.180230 1_655
Li7 O30 2.184353 1_565
Li8 O35 2.013186 1_555
Li8 O33 2.020904 1_555
Li8 O19 2.065916 1_655
Li8 O34 2.073526 1_565
Li8 O18 2.219007 1_565
Li8 O13 2.233357 1_655
Cu0 O4 1.835873 1_555
Cu0 O9 1.855974 1_555
Cu0 O10 1.872127 1_545
Cu0 O24 1.909470 1_455
Cu0 O23 2.386223 1_545
Cu0 O27 2.422266 1_455
Cu1 O8 1.842493 1_555
Cu1 O14 1.865160 1_555
Cu1 O15 1.869915 1_545
Cu1 O30 1.910744 1_455
Cu1 O29 2.381500 1_545
Cu1 O31 2.384346 1_455
Cu2 O13 1.842151 1_555
Cu2 O18 1.843332 1_555
Cu2 O19 1.897966 1_545
Cu2 O34 1.898645 1_455
Cu2 O33 2.399625 1_545
Cu2 O35 2.414616 1_455
Cu3 O17 1.844927 1_555
Cu3 O1 1.850514 1_655
Cu3 O22 1.868823 1_555
Cu3 O16 1.882436 1_565
Cu3 O2 2.457032 1_565
Cu3 O0 2.463189 1_655
Cu4 O21 1.848798 1_555
Cu4 O5 1.851170 1_655
Cu4 O28 1.872799 1_555
Cu4 O20 1.887837 1_565
Cu4 O3 2.411823 1_655
Cu4 O6 2.451866 1_565
Cu5 O32 1.857691 1_555
Cu5 O26 1.858113 1_555
Cu5 O25 1.863634 1_565
Cu5 O11 1.864338 1_655
Cu5 O7 2.466929 1_655
Cu5 O12 2.470148 1_565
Ni0 O0 1.986529 1_555
Ni0 O1 2.033059 1_545
Ni0 O2 2.046202 1_555
Ni0 O22 2.059882 1_455
Ni0 O16 2.096781 1_455
Ni0 O17 2.110256 1_545
Ni1 O3 1.983336 1_555
Ni1 O5 2.041869 1_545
Ni1 O6 2.046008 1_555
Ni1 O28 2.062386 1_455
Ni1 O20 2.091047 1_455
Ni1 O21 2.101428 1_545
Ni2 O32 2.019093 1_455
Ni2 O26 2.019433 1_545
Ni2 O12 2.060828 1_555
Ni2 O7 2.066840 1_555
Ni2 O25 2.084443 1_455
Ni2 O11 2.092811 1_545
Ni3 O2 1.888050 1_555
Ni3 O17 1.938413 1_555
Ni3 O0 1.975022 1_555
Ni3 O22 2.000054 1_555
Ni3 O16 2.087957 1_555
Ni3 O1 2.148598 1_555
Ni4 O6 1.894102 1_555
Ni4 O21 1.957889 1_555
Ni4 O3 1.995177 1_555
Ni4 O28 2.006204 1_555
Ni4 O20 2.101717 1_555
Ni4 O5 2.128015 1_555
Ni5 O27 1.859033 1_555
Ni5 O23 1.890198 1_555
Ni5 O24 1.929852 1_555
Ni5 O4 1.938683 1_555
Ni5 O9 1.962124 1_555
Ni5 O10 1.971455 1_555
Ni6 O12 1.906462 1_555
Ni6 O7 1.911084 1_555
Ni6 O32 1.994899 1_555
Ni6 O26 2.010106 1_555
Ni6 O11 2.126725 1_555
Ni6 O25 2.131798 1_555
Ni7 O31 1.848589 1_555
Ni7 O29 1.889743 1_555
Ni7 O8 1.929236 1_555
Ni7 O30 1.933340 1_555
Ni7 O15 1.977749 1_555
Ni7 O14 1.989727 1_555
Ni8 O27 1.903853 1_555
Ni8 O0 1.909823 1_565
Ni8 O10 1.950083 1_555
Ni8 O16 1.964694 1_565
Ni8 O17 2.165905 1_555
Ni8 O9 2.170406 1_565
Ni9 O35 1.889844 1_555
Ni9 O33 1.890567 1_555
Ni9 O19 1.919149 1_555
Ni9 O34 1.921609 1_555
Ni9 O18 1.968127 1_555
Ni9 O13 1.971368 1_555
Ni10 O3 1.948383 1_565
Ni10 O31 1.955741 1_555
Ni10 O20 1.966663 1_565
Ni10 O15 1.994034 1_555
Ni10 O14 2.125006 1_565
Ni10 O21 2.147847 1_555
Ni11 O23 1.886709 1_555
Ni11 O12 1.917960 1_656
Ni11 O24 1.971069 1_555
Ni11 O11 1.980061 1_656
Ni11 O4 2.129739 1_655
Ni11 O32 2.155617 1_556
Ni12 O35 1.890193 1_555
Ni12 O7 1.918511 1_565
Ni12 O25 1.974987 1_565
Ni12 O19 1.983189 1_555
Ni12 O18 2.136694 1_565
Ni12 O26 2.154557 1_555
Ni13 O29 1.899543 1_555
Ni13 O2 1.930663 1_655
Ni13 O30 1.974186 1_555
Ni13 O1 1.984103 1_655
Ni13 O22 2.142812 1_555
Ni13 O8 2.143293 1_655
Ni14 O33 1.896731 1_555
Ni14 O6 1.934855 1_655
Ni14 O34 1.998239 1_555
Ni14 O5 1.998970 1_655
Ni14 O13 2.116180 1_655
Ni14 O28 2.133200 1_555
