# generated using pymatgen
data_Li5V3P8O29
_symmetry_space_group_name_H-M   'P 1'
_cell_length_a   9.77151400
_cell_length_b   9.78473914
_cell_length_c   14.01479209
_cell_angle_alpha   90.39837646
_cell_angle_beta   90.21293627
_cell_angle_gamma   119.52996975
_symmetry_Int_Tables_number   1
_chemical_formula_structural   Li5V3P8O29
_chemical_formula_sum   'Li10 V6 P16 O58'
_cell_volume   1165.84498120
_cell_formula_units_Z   2
loop_
 _symmetry_equiv_pos_site_id
 _symmetry_equiv_pos_as_xyz
  1  'x, y, z'
loop_
 _atom_site_type_symbol
 _atom_site_label
 _atom_site_symmetry_multiplicity
 _atom_site_fract_x
 _atom_site_fract_y
 _atom_site_fract_z
 _atom_site_occupancy
  Li  Li0  1  0.32428200  0.09454300  0.94207100  1
  Li  Li1  1  0.66151200  0.32257600  0.60957900  1
  Li  Li2  1  0.91570800  0.22650100  0.94182800  1
  Li  Li3  1  0.76845900  0.67374400  0.93917000  1
  Li  Li4  1  0.09318700  0.32613300  0.55890000  1
  Li  Li5  1  0.90539900  0.67219200  0.43851000  1
  Li  Li6  1  0.09338800  0.77223000  0.06111100  1
  Li  Li7  1  0.34248100  0.67530400  0.38748100  1
  Li  Li8  1  0.67501900  0.90710200  0.06345800  1
  Li  Li9  1  0.00256900  0.99982500  0.49420800  1
  V  V0  1  0.99981700  0.42959000  0.75250500  1
  V  V1  1  0.99986900  0.56839200  0.24783100  1
  V  V2  1  0.43031100  0.42544800  0.24860000  1
  V  V3  1  0.56239000  0.56978900  0.74707400  1
  V  V4  1  0.43056300  0.99884500  0.74503800  1
  V  V5  1  0.57059900  0.00322300  0.25693200  1
  P  P0  1  0.31707500  0.08323600  0.15988900  1
  P  P1  1  0.31051600  0.22542800  0.65777700  1
  P  P2  1  0.77791900  0.08542300  0.65580900  1
  P  P3  1  0.66509100  0.33441500  0.87106100  1
  P  P4  1  0.67055200  0.34079100  0.37288700  1
  P  P5  1  0.91093500  0.22890700  0.15955000  1
  P  P6  1  0.09332600  0.31824300  0.34202600  1
  P  P7  1  0.76485300  0.68086600  0.15551300  1
  P  P8  1  0.23333000  0.31542400  0.84493300  1
  P  P9  1  0.90535400  0.67946700  0.65716300  1
  P  P10  1  0.08817400  0.77001900  0.83935600  1
  P  P11  1  0.32678900  0.66166000  0.62625500  1
  P  P12  1  0.33781300  0.66845000  0.12916600  1
  P  P13  1  0.22076000  0.91304200  0.34482700  1
  P  P14  1  0.68845400  0.77465000  0.34125900  1
  P  P15  1  0.68217900  0.91544900  0.84130600  1
  O  O0  1  0.19946100  0.99490100  0.42769800  1
  O  O1  1  0.34440200  0.08628100  0.66140700  1
  O  O2  1  0.24578700  0.23627000  0.93143800  1
  O  O3  1  0.34028500  0.25192100  0.16464800  1
  O  O4  1  0.47589100  0.09137800  0.17994700  1
  O  O5  1  0.51411300  0.18605900  0.83108200  1
  O  O6  1  0.62874400  0.10257100  0.66673600  1
  O  O7  1  0.75676900  0.99752000  0.93355400  1
  O  O8  1  0.74557500  0.08161700  0.16440400  1
  O  O9  1  0.52208900  0.34100000  0.32569100  1
  O  O10  1  0.47521600  0.37716700  0.66999000  1
  O  O11  1  0.67207600  0.19487100  0.33231000  1
  O  O12  1  0.66823700  0.34551000  0.97705200  1
  O  O13  1  0.66376800  0.34712300  0.47943300  1
  O  O14  1  0.81456500  0.32806000  0.83308900  1
  O  O15  1  0.61811600  0.52229500  0.17661700  1
  O  O16  1  0.66681800  0.48460700  0.82588200  1
  O  O17  1  0.92089700  0.25820600  0.66357300  1
  O  O18  1  0.00234200  0.21097600  0.25050900  1
  O  O19  1  0.01832400  0.23499700  0.43178500  1
  O  O20  1  0.99121700  0.23869900  0.06838100  1
  O  O21  1  0.90109400  0.38060700  0.18144100  1
  O  O22  1  0.81691300  0.49309900  0.33673300  1
  O  O23  1  0.08557700  0.33567700  0.84258500  1
  O  O24  1  0.88919700  0.51554800  0.67070700  1
  O  O25  1  0.73646100  0.65744700  0.66831100  1
  O  O26  1  0.21114000  0.20737800  0.75211700  1
  O  O27  1  0.21494100  0.22040500  0.57382000  1
  O  O28  1  0.79366700  0.78599500  0.42158800  1
  O  O29  1  0.26264900  0.34144300  0.33269900  1
  O  O30  1  0.10950100  0.48272400  0.32992200  1
  O  O31  1  0.91556400  0.66600200  0.15713400  1
  O  O32  1  0.18255300  0.50876300  0.66294100  1
  O  O33  1  0.09896400  0.61945600  0.81985900  1
  O  O34  1  0.99944900  0.75687400  0.92926600  1
  O  O35  1  0.97979900  0.76181900  0.56729300  1
  O  O36  1  0.99751200  0.78857800  0.74852400  1
  O  O37  1  0.07909600  0.74014100  0.33675500  1
  O  O38  1  0.33977600  0.52314600  0.17883500  1
  O  O39  1  0.38203500  0.47506900  0.82180200  1
  O  O40  1  0.18612700  0.67148900  0.16610100  1
  O  O41  1  0.33953800  0.66255700  0.02326900  1
  O  O42  1  0.33567700  0.65606600  0.52019700  1
  O  O43  1  0.32758800  0.80745300  0.66857500  1
  O  O44  1  0.52636700  0.62349500  0.33237400  1
  O  O45  1  0.47706900  0.66077800  0.67356800  1
  O  O46  1  0.25218000  0.91795300  0.83859200  1
  O  O47  1  0.20313600  0.99091700  0.24608000  1
  O  O48  1  0.24301500  0.00010200  0.06772700  1
  O  O49  1  0.37108800  0.89846700  0.33574900  1
  O  O50  1  0.48812900  0.81661000  0.17006400  1
  O  O51  1  0.52330800  0.90732600  0.82065800  1
  O  O52  1  0.66100500  0.74665500  0.83847200  1
  O  O53  1  0.75207100  0.75375200  0.06425300  1
  O  O54  1  0.78345300  0.79549600  0.24260900  1
  O  O55  1  0.65562200  0.91483600  0.34013400  1
  O  O56  1  0.79589700  0.00277500  0.57258400  1
  O  O57  1  0.79503600  0.00658000  0.75447200  1
loop_
_geom_bond_atom_site_label_1
_geom_bond_atom_site_label_2
_geom_bond_distance
_geom_bond_site_symmetry_2
Li0 O2 1.893190 1_555
Li0 O48 1.973691 1_556
Li0 O46 2.083912 1_545
Li0 O5 2.250696 1_555
Li1 O13 1.840166 1_555
Li1 O6 2.173638 1_555
Li1 O24 2.251956 1_555
Li1 O10 2.297753 1_555
Li2 O20 1.898651 1_556
Li2 O7 2.002580 1_545
Li2 O23 2.029972 1_655
Li2 O14 2.294495 1_555
Li3 O53 1.954007 1_556
Li3 O34 1.992382 1_555
Li3 O52 2.084344 1_555
Li3 O16 2.251159 1_555
Li4 O27 1.934894 1_555
Li4 O19 1.956840 1_555
Li4 O17 2.087329 1_455
Li4 O32 2.120854 1_555
Li5 O28 1.920516 1_555
Li5 O35 1.973554 1_555
Li5 O37 2.067677 1_655
Li5 O22 2.077373 1_555
Li6 O48 1.974915 1_565
Li6 O34 2.031510 1_454
Li6 O31 2.041360 1_455
Li6 O40 2.201978 1_555
Li7 O42 1.868919 1_555
Li7 O49 2.189448 1_555
Li7 O44 2.232686 1_555
Li7 O30 2.262900 1_555
Li8 O53 1.983001 1_555
Li8 O7 2.017891 1_554
Li8 O8 2.047266 1_565
Li8 O50 2.189963 1_555
Li9 O0 2.162585 1_555
Li9 O28 2.307624 1_455
Li9 O56 2.315005 1_465
Li9 O27 2.396628 1_565
Li9 O19 2.400810 1_565
Li9 O35 2.458893 1_455
O0 P13 1.478834 1_555
O1 P1 1.552802 1_555
O1 V4 1.879143 1_545
O2 P8 1.479646 1_555
O3 P0 1.552261 1_555
O3 V2 1.879694 1_555
O4 P0 1.538912 1_555
O4 V5 1.885994 1_555
O5 P3 1.571336 1_555
O5 V4 1.990996 1_545
O6 P2 1.555247 1_555
O6 V4 2.019485 1_545
O7 P15 1.499710 1_555
O8 P5 1.548927 1_555
O8 V5 1.982626 1_555
O9 P4 1.593071 1_555
O9 V2 1.841204 1_555
O10 P1 1.569317 1_555
O10 V3 1.956329 1_555
O11 P4 1.540107 1_555
O11 V5 1.935823 1_555
O12 P3 1.487749 1_555
O13 P4 1.497143 1_555
O14 P3 1.585948 1_555
O14 V0 1.948662 1_555
O15 P7 1.538595 1_555
O15 V2 1.896381 1_555
O16 P3 1.596703 1_555
O16 V3 1.949009 1_555
O17 P2 1.577960 1_555
O17 V0 1.910308 1_555
O18 P6 1.609359 1_555
O18 P5 1.613297 1_455
O19 P6 1.488517 1_555
O20 P5 1.480608 1_555
O21 P5 1.562448 1_555
O21 V1 1.842497 1_555
O22 P4 1.561398 1_555
O22 V1 2.005544 1_555
O23 P8 1.551323 1_555
O23 V0 1.976815 1_455
O24 P9 1.545415 1_555
O24 V0 2.022471 1_555
O25 P9 1.564073 1_555
O25 V3 1.853732 1_555
O26 P1 1.601863 1_555
O26 P8 1.615418 1_555
O27 P1 1.484881 1_555
O28 P14 1.487906 1_555
O29 P6 1.561380 1_555
O29 V2 1.857210 1_555
O30 P6 1.548284 1_555
O30 V1 2.015770 1_455
O31 P7 1.549636 1_555
O31 V1 1.997798 1_555
O32 P11 1.557729 1_555
O32 V0 2.007663 1_455
O33 P10 1.550448 1_555
O33 V0 1.864303 1_455
O34 P10 1.502139 1_655
O35 P9 1.485914 1_555
O36 P10 1.609885 1_655
O36 P9 1.617063 1_555
O37 P13 1.574419 1_555
O37 V1 1.912552 1_455
O38 P12 1.595894 1_555
O38 V2 1.868868 1_555
O39 P8 1.558739 1_555
O39 V3 1.865149 1_555
O40 P12 1.585777 1_555
O40 V1 1.965664 1_455
O41 P12 1.485324 1_555
O42 P11 1.491436 1_555
O43 P11 1.537560 1_555
O43 V4 1.942798 1_555
O44 P14 1.548658 1_555
O44 V2 2.044960 1_555
O45 P11 1.612908 1_555
O45 V3 1.813018 1_555
O46 P10 1.541845 1_555
O46 V4 2.013774 1_555
O47 P0 1.596391 1_565
O47 P13 1.633328 1_555
O48 P0 1.500622 1_555
O49 P13 1.549815 1_555
O49 V5 2.033069 1_565
O50 P12 1.571866 1_555
O50 V5 1.994236 1_565
O51 P15 1.541021 1_555
O51 V4 1.884788 1_555
O52 P15 1.560243 1_555
O52 V3 1.969869 1_555
O53 P7 1.503107 1_555
O54 P7 1.599806 1_555
O54 P14 1.625300 1_555
O55 P14 1.555232 1_555
O55 V5 1.874296 1_565
O56 P2 1.474358 1_555
O57 P15 1.596235 1_545
O57 P2 1.635667 1_555
