# generated using pymatgen
data_KH8W(NF3)2
_symmetry_space_group_name_H-M   'P 1'
_cell_length_a   6.44720900
_cell_length_b   6.48684900
_cell_length_c   11.46297191
_cell_angle_alpha   56.11185358
_cell_angle_beta   90.00000000
_cell_angle_gamma   90.00000000
_symmetry_Int_Tables_number   1
_chemical_formula_structural   KH8W(NF3)2
_chemical_formula_sum   'K2 H16 W2 N4 F12'
_cell_volume   397.96753810
_cell_formula_units_Z   2
loop_
 _symmetry_equiv_pos_site_id
 _symmetry_equiv_pos_as_xyz
  1  'x, y, z'
loop_
 _atom_site_type_symbol
 _atom_site_label
 _atom_site_symmetry_multiplicity
 _atom_site_fract_x
 _atom_site_fract_y
 _atom_site_fract_z
 _atom_site_occupancy
  K  K0  1  0.50000000  0.50000000  0.00000000  1
  K  K1  1  0.00000000  0.50000000  0.50000000  1
  H  H0  1  0.02910600  0.57770000  0.76901900  1
  H  H1  1  0.97089400  0.42230000  0.23098100  1
  H  H2  1  0.52910600  0.42230000  0.73098100  1
  H  H3  1  0.47089400  0.57770000  0.26901900  1
  H  H4  1  0.03903500  0.73617000  0.84703900  1
  H  H5  1  0.96096500  0.26383000  0.15296100  1
  H  H6  1  0.53903500  0.26383000  0.65296100  1
  H  H7  1  0.46096500  0.73617000  0.34703900  1
  H  H8  1  0.07095700  0.89080300  0.66903800  1
  H  H9  1  0.92904300  0.10919700  0.33096200  1
  H  H10  1  0.57095700  0.10919700  0.83096200  1
  H  H11  1  0.42904300  0.89080300  0.16903900  1
  H  H12  1  0.83333200  0.76632900  0.74313700  1
  H  H13  1  0.16666800  0.23367100  0.25686300  1
  H  H14  1  0.33333200  0.23367100  0.75686300  1
  H  H15  1  0.66666800  0.76632900  0.24313700  1
  W  W0  1  0.50000000  0.00000000  0.50000000  1
  W  W1  1  0.00000000  0.00000000  0.00000000  1
  N  N0  1  0.99235200  0.74396700  0.75704400  1
  N  N1  1  0.00764800  0.25603300  0.24295600  1
  N  N2  1  0.49235200  0.25603300  0.74295600  1
  N  N3  1  0.50764800  0.74396700  0.25704400  1
  F  F0  1  0.55827300  0.72678600  0.71734300  1
  F  F1  1  0.44172700  0.27321400  0.28265700  1
  F  F2  1  0.05827300  0.27321400  0.78265700  1
  F  F3  1  0.94172700  0.72678600  0.21734300  1
  F  F4  1  0.34783900  0.73246500  0.47934500  1
  F  F5  1  0.65216100  0.26753500  0.52065500  1
  F  F6  1  0.84783900  0.26753500  0.02065500  1
  F  F7  1  0.15216100  0.73246500  0.97934500  1
  F  F8  1  0.78361200  0.88777100  0.45736400  1
  F  F9  1  0.21638800  0.11222900  0.54263600  1
  F  F10  1  0.28361200  0.11222900  0.04263600  1
  F  F11  1  0.71638800  0.88777100  0.95736400  1
loop_
_geom_bond_atom_site_label_1
_geom_bond_atom_site_label_2
_geom_bond_distance
_geom_bond_site_symmetry_2
H0 N0 1.035935 1_455
H1 N1 1.035935 1_655
H2 N2 1.035935 1_555
H3 N3 1.035935 1_555
H4 N0 1.048417 1_455
H5 N1 1.048417 1_655
H6 N2 1.048417 1_555
H7 N3 1.048417 1_555
H8 N0 1.053684 1_455
H9 N1 1.053684 1_655
H10 N2 1.053684 1_555
H11 N3 1.053679 1_555
H12 N0 1.035266 1_555
H13 N1 1.035266 1_555
H14 N2 1.035266 1_555
H15 N3 1.035266 1_555
F0 W0 2.136661 1_565
F0 K0 2.736440 1_556
F1 W0 2.136661 1_555
F1 K0 2.736440 1_555
F2 W1 2.136661 1_556
F2 K1 2.736440 1_555
F3 W1 2.136661 1_665
F3 K1 2.736440 1_655
F4 H7 1.670932 1_555
F4 W0 2.118603 1_565
F4 K1 2.638386 1_555
F5 H6 1.670932 1_555
F5 W0 2.118603 1_555
F5 K1 2.638386 1_655
F6 H5 1.670932 1_555
F6 W1 2.118603 1_655
F6 K0 2.638386 1_555
F7 H4 1.670932 1_555
F7 W1 2.118603 1_566
F7 K0 2.638386 1_556
F8 H9 1.649501 1_565
F8 W0 2.123458 1_565
F8 K1 2.672364 1_655
F9 H8 1.649501 1_545
F9 W0 2.123458 1_555
F9 K1 2.672364 1_555
F10 H11 1.649505 1_545
F10 W1 2.123458 1_555
F10 K0 2.672364 1_555
F11 H10 1.649501 1_565
F11 W1 2.123458 1_666
F11 K0 2.672364 1_556
