# generated using pymatgen
data_Cd
_symmetry_space_group_name_H-M   'P 1'
_cell_length_a   6.14709169
_cell_length_b   6.14709188
_cell_length_c   6.14709278
_cell_angle_alpha   63.09209471
_cell_angle_beta   116.90789823
_cell_angle_gamma   116.90790956
_symmetry_Int_Tables_number   1
_chemical_formula_structural   Cd
_chemical_formula_sum   Cd8
_cell_volume   175.51253536
_cell_formula_units_Z   8
loop_
 _symmetry_equiv_pos_site_id
 _symmetry_equiv_pos_as_xyz
  1  'x, y, z'
loop_
 _atom_site_type_symbol
 _atom_site_label
 _atom_site_symmetry_multiplicity
 _atom_site_fract_x
 _atom_site_fract_y
 _atom_site_fract_z
 _atom_site_occupancy
  Cd  Cd0_0  1  0.00000000  0.00000000  0.00000000  1
  Cd  Cd0_1  1  0.00000000  0.00000000  0.50000000  1
  Cd  Cd0_2  1  0.00000000  0.50000000  0.00000000  1
  Cd  Cd0_3  1  0.00000000  0.50000000  0.50000000  1
  Cd  Cd0_4  1  0.50000000  0.00000000  0.00000000  1
  Cd  Cd0_5  1  0.50000000  0.00000000  0.50000000  1
  Cd  Cd0_6  1  0.50000000  0.50000000  0.00000000  1
  Cd  Cd0_7  1  0.50000000  0.50000000  0.50000000  1
loop_
_geom_bond_atom_site_label_1
_geom_bond_atom_site_label_2
_geom_bond_distance
_geom_bond_site_symmetry_2
Cd0_0 Cd0_4 3.073546 1_455
Cd0_0 Cd0_4 3.073546 1_555
Cd0_0 Cd0_2 3.073546 1_545
Cd0_0 Cd0_2 3.073546 1_555
Cd0_0 Cd0_1 3.073546 1_554
Cd0_0 Cd0_1 3.073546 1_555
Cd0_0 Cd0_6 3.216058 1_445
Cd0_0 Cd0_6 3.216058 1_555
Cd0_0 Cd0_3 3.216058 1_554
Cd0_0 Cd0_3 3.216058 1_545
Cd0_0 Cd0_5 3.216058 1_454
Cd0_0 Cd0_5 3.216058 1_555
Cd0_1 Cd0_5 3.073546 1_455
Cd0_1 Cd0_5 3.073546 1_555
Cd0_1 Cd0_3 3.073546 1_555
Cd0_1 Cd0_3 3.073546 1_545
Cd0_1 Cd0_7 3.216058 1_445
Cd0_1 Cd0_7 3.216058 1_555
Cd0_1 Cd0_2 3.216058 1_555
Cd0_1 Cd0_2 3.216058 1_546
Cd0_1 Cd0_4 3.216058 1_455
Cd0_1 Cd0_4 3.216058 1_556
Cd0_2 Cd0_6 3.073546 1_455
Cd0_2 Cd0_6 3.073546 1_555
Cd0_2 Cd0_3 3.073546 1_555
Cd0_2 Cd0_3 3.073546 1_554
Cd0_2 Cd0_4 3.216058 1_455
Cd0_2 Cd0_4 3.216058 1_565
Cd0_2 Cd0_7 3.216058 1_454
Cd0_2 Cd0_7 3.216058 1_555
Cd0_3 Cd0_7 3.073546 1_455
Cd0_3 Cd0_7 3.073546 1_555
Cd0_3 Cd0_5 3.216058 1_455
Cd0_3 Cd0_5 3.216058 1_565
Cd0_3 Cd0_6 3.216058 1_455
Cd0_3 Cd0_6 3.216058 1_556
Cd0_4 Cd0_6 3.073546 1_545
Cd0_4 Cd0_6 3.073546 1_555
Cd0_4 Cd0_5 3.073546 1_555
Cd0_4 Cd0_5 3.073546 1_554
Cd0_4 Cd0_7 3.216058 1_554
Cd0_4 Cd0_7 3.216058 1_545
Cd0_5 Cd0_7 3.073546 1_545
Cd0_5 Cd0_7 3.073546 1_555
Cd0_5 Cd0_6 3.216058 1_546
Cd0_5 Cd0_6 3.216058 1_555
Cd0_6 Cd0_7 3.073546 1_554
Cd0_6 Cd0_7 3.073546 1_555
