# generated using pymatgen
data_CsBaI3
_symmetry_space_group_name_H-M   'P 1'
_cell_length_a   5.27736676
_cell_length_b   10.58078051
_cell_length_c   18.51071733
_cell_angle_alpha   90.00000000
_cell_angle_beta   90.00000000
_cell_angle_gamma   90.00000000
_symmetry_Int_Tables_number   1
_chemical_formula_structural   CsBaI3
_chemical_formula_sum   'Cs4 Ba4 I12'
_cell_volume   1033.61363947
_cell_formula_units_Z   4
loop_
 _symmetry_equiv_pos_site_id
 _symmetry_equiv_pos_as_xyz
  1  'x, y, z'
loop_
 _atom_site_type_symbol
 _atom_site_label
 _atom_site_symmetry_multiplicity
 _atom_site_fract_x
 _atom_site_fract_y
 _atom_site_fract_z
 _atom_site_occupancy
  Cs  Cs0  1  0.75000000  0.58365692  0.17629450  1
  Cs  Cs1  1  0.25000000  0.41634308  0.82370550  1
  Cs  Cs2  1  0.75000000  0.08365692  0.32370550  1
  Cs  Cs3  1  0.25000000  0.91634308  0.67629450  1
  Ba  Ba0  1  0.25000000  0.67427936  0.43851051  1
  Ba  Ba1  1  0.75000000  0.32572064  0.56148949  1
  Ba  Ba2  1  0.25000000  0.17427936  0.06148949  1
  Ba  Ba3  1  0.75000000  0.82572064  0.93851051  1
  I  I0  1  0.75000000  0.84381503  0.51147566  1
  I  I1  1  0.25000000  0.15618497  0.48852434  1
  I  I2  1  0.75000000  0.34381503  0.98852434  1
  I  I3  1  0.25000000  0.65618497  0.01147566  1
  I  I4  1  0.25000000  0.52720063  0.60893041  1
  I  I5  1  0.75000000  0.47279937  0.39106959  1
  I  I6  1  0.25000000  0.02720063  0.89106959  1
  I  I7  1  0.75000000  0.97279937  0.10893041  1
  I  I8  1  0.25000000  0.81145304  0.27452228  1
  I  I9  1  0.75000000  0.18854696  0.72547772  1
  I  I10  1  0.25000000  0.31145304  0.22547772  1
  I  I11  1  0.75000000  0.68854696  0.77452228  1
loop_
_geom_bond_atom_site_label_1
_geom_bond_atom_site_label_2
_geom_bond_distance
_geom_bond_site_symmetry_2
Cs0 I8 4.009751 1_655
Cs0 I8 4.009751 1_555
Cs0 I10 4.010817 1_655
Cs0 I10 4.010817 1_555
Cs0 I3 4.106049 1_555
Cs0 I3 4.106049 1_655
Cs0 I5 4.145064 1_555
Cs0 I7 4.302109 1_555
Cs0 I2 4.303592 1_554
Cs1 I9 4.009751 1_455
Cs1 I9 4.009751 1_555
Cs1 I11 4.010817 1_455
Cs1 I11 4.010817 1_555
Cs1 I2 4.106049 1_455
Cs1 I2 4.106049 1_555
Cs1 I4 4.145064 1_555
Cs1 I6 4.302109 1_555
Cs1 I3 4.303592 1_556
Cs2 I10 4.009751 1_655
Cs2 I10 4.009751 1_555
Cs2 I8 4.010817 1_645
Cs2 I8 4.010817 1_545
Cs2 I1 4.106049 1_555
Cs2 I1 4.106049 1_655
Cs2 I7 4.145064 1_545
Cs2 I5 4.302109 1_555
Cs2 I0 4.303592 1_545
Cs3 I11 4.009751 1_555
Cs3 I11 4.009751 1_455
Cs3 I9 4.010817 1_565
Cs3 I9 4.010817 1_465
Cs3 I0 4.106049 1_455
Cs3 I0 4.106049 1_555
Cs3 I6 4.145064 1_565
Cs3 I4 4.302109 1_555
Cs3 I1 4.303592 1_565
Ba0 I8 3.364681 1_555
Ba0 I0 3.464774 1_455
Ba0 I0 3.464774 1_555
Ba0 I5 3.504064 1_455
Ba0 I5 3.504064 1_555
Ba0 I4 3.517563 1_555
Ba1 I9 3.364681 1_555
Ba1 I1 3.464774 1_555
Ba1 I1 3.464774 1_655
Ba1 I4 3.504064 1_655
Ba1 I4 3.504064 1_555
Ba1 I5 3.517563 1_555
Ba2 I10 3.364681 1_555
Ba2 I2 3.464774 1_454
Ba2 I2 3.464774 1_554
Ba2 I7 3.504064 1_445
Ba2 I7 3.504064 1_545
Ba2 I6 3.517563 1_554
Ba3 I11 3.364681 1_555
Ba3 I3 3.464774 1_556
Ba3 I3 3.464774 1_656
Ba3 I6 3.504064 1_565
Ba3 I6 3.504064 1_665
Ba3 I7 3.517563 1_556
