# generated using pymatgen
data_La5B3O13
_symmetry_space_group_name_H-M   'P 1'
_cell_length_a   9.37087045
_cell_length_b   9.37087045
_cell_length_c   7.16069600
_cell_angle_alpha   90.00000000
_cell_angle_beta   90.00000000
_cell_angle_gamma   120.00000321
_symmetry_Int_Tables_number   1
_chemical_formula_structural   La5B3O13
_chemical_formula_sum   'La10 B6 O26'
_cell_volume   544.55998101
_cell_formula_units_Z   2
loop_
 _symmetry_equiv_pos_site_id
 _symmetry_equiv_pos_as_xyz
  1  'x, y, z'
loop_
 _atom_site_type_symbol
 _atom_site_label
 _atom_site_symmetry_multiplicity
 _atom_site_fract_x
 _atom_site_fract_y
 _atom_site_fract_z
 _atom_site_occupancy
  La  La0  1  0.25259200  0.23656000  0.25000000  1
  La  La1  1  0.74740800  0.76344000  0.75000000  1
  La  La2  1  0.76344000  0.01603200  0.25000000  1
  La  La3  1  0.23656000  0.98396800  0.75000000  1
  La  La4  1  0.98396800  0.74740800  0.25000000  1
  La  La5  1  0.01603200  0.25259200  0.75000000  1
  La  La6  1  0.33333300  0.66666700  0.00209100  1
  La  La7  1  0.66666700  0.33333300  0.99790900  1
  La  La8  1  0.66666700  0.33333300  0.50209100  1
  La  La9  1  0.33333300  0.66666700  0.49790900  1
  B  B0  1  0.03227700  0.40193100  0.25000000  1
  B  B1  1  0.96772300  0.59806900  0.75000000  1
  B  B2  1  0.59806900  0.63034700  0.25000000  1
  B  B3  1  0.40193100  0.36965300  0.75000000  1
  B  B4  1  0.36965300  0.96772300  0.25000000  1
  B  B5  1  0.63034700  0.03227700  0.75000000  1
  O  O0  1  0.08603700  0.34807900  0.08021500  1
  O  O1  1  0.91396300  0.65192100  0.91978500  1
  O  O2  1  0.65192100  0.73795800  0.08021500  1
  O  O3  1  0.91396300  0.65192100  0.58021500  1
  O  O4  1  0.34807900  0.26204200  0.91978500  1
  O  O5  1  0.08603700  0.34807900  0.41978500  1
  O  O6  1  0.26204200  0.91396300  0.08021500  1
  O  O7  1  0.34807900  0.26204200  0.58021500  1
  O  O8  1  0.73795800  0.08603700  0.91978500  1
  O  O9  1  0.65192100  0.73795800  0.41978500  1
  O  O10  1  0.73795800  0.08603700  0.58021500  1
  O  O11  1  0.26204200  0.91396300  0.41978500  1
  O  O12  1  0.48082800  0.14872600  0.25000000  1
  O  O13  1  0.51917200  0.85127400  0.75000000  1
  O  O14  1  0.85127400  0.33210200  0.25000000  1
  O  O15  1  0.14872600  0.66789800  0.75000000  1
  O  O16  1  0.66789800  0.51917200  0.25000000  1
  O  O17  1  0.33210200  0.48082800  0.75000000  1
  O  O18  1  0.00000000  0.00000000  0.25000000  1
  O  O19  1  0.00000000  0.00000000  0.75000000  1
  O  O20  1  0.12259800  0.58545500  0.25000000  1
  O  O21  1  0.87740200  0.41454500  0.75000000  1
  O  O22  1  0.41454500  0.53714300  0.25000000  1
  O  O23  1  0.58545500  0.46285700  0.75000000  1
  O  O24  1  0.46285700  0.87740200  0.25000000  1
  O  O25  1  0.53714300  0.12259800  0.75000000  1
loop_
_geom_bond_atom_site_label_1
_geom_bond_atom_site_label_2
_geom_bond_distance
_geom_bond_site_symmetry_2
La0 O18 2.295580 1_555
La0 O22 2.441801 1_555
La0 O7 2.497038 1_555
La0 O4 2.497038 1_554
La0 O5 2.576284 1_555
La0 O0 2.576284 1_555
La0 O12 2.648052 1_555
La1 O19 2.295580 1_665
La1 O23 2.441801 1_555
La1 O2 2.497038 1_556
La1 O9 2.497038 1_555
La1 O1 2.576284 1_555
La1 O3 2.576284 1_555
La1 O13 2.648052 1_555
La2 O18 2.295580 1_655
La2 O24 2.441801 1_545
La2 O10 2.497038 1_555
La2 O8 2.497038 1_554
La2 O9 2.576284 1_545
La2 O2 2.576284 1_545
La2 O14 2.648052 1_555
La3 O19 2.295580 1_565
La3 O25 2.441801 1_565
La3 O6 2.497038 1_556
La3 O11 2.497038 1_555
La3 O4 2.576284 1_565
La3 O7 2.576284 1_565
La3 O15 2.648052 1_555
La4 O18 2.295580 1_665
La4 O20 2.441801 1_655
La4 O3 2.497038 1_555
La4 O1 2.497038 1_554
La4 O11 2.576284 1_655
La4 O6 2.576284 1_655
La4 O16 2.648052 1_555
La5 O19 2.295580 1_555
La5 O21 2.441801 1_455
La5 O0 2.497038 1_556
La5 O5 2.497038 1_555
La5 O8 2.576284 1_455
La5 O10 2.576284 1_455
La5 O17 2.648052 1_555
La6 O20 2.475351 1_555
La6 O24 2.475352 1_555
La6 O22 2.475358 1_555
La6 O15 2.504256 1_554
La6 O13 2.504259 1_554
La6 O17 2.504262 1_554
La6 O6 2.770856 1_555
La6 O0 2.770862 1_555
La6 O2 2.770865 1_555
La7 O21 2.475351 1_555
La7 O25 2.475352 1_555
La7 O23 2.475358 1_555
La7 O14 2.504256 1_556
La7 O12 2.504259 1_556
La7 O16 2.504262 1_556
La7 O8 2.770856 1_555
La7 O1 2.770862 1_555
La7 O4 2.770865 1_555
La8 O21 2.475351 1_555
La8 O25 2.475352 1_555
La8 O23 2.475358 1_555
La8 O14 2.504256 1_555
La8 O12 2.504259 1_555
La8 O16 2.504262 1_555
La8 O10 2.770856 1_555
La8 O3 2.770862 1_555
La8 O7 2.770865 1_555
La9 O20 2.475351 1_555
La9 O24 2.475352 1_555
La9 O22 2.475358 1_555
La9 O15 2.504256 1_555
La9 O13 2.504259 1_555
La9 O17 2.504262 1_555
La9 O11 2.770856 1_555
La9 O5 2.770862 1_555
La9 O9 2.770865 1_555
B0 O14 1.481633 1_455
B0 O20 1.489434 1_555
B0 O5 1.496930 1_555
B0 O0 1.496930 1_555
B1 O15 1.481633 1_655
B1 O21 1.489434 1_555
B1 O1 1.496930 1_555
B1 O3 1.496930 1_555
B2 O16 1.481641 1_555
B2 O22 1.489434 1_555
B2 O9 1.496925 1_555
B2 O2 1.496925 1_555
B3 O17 1.481641 1_555
B3 O23 1.489434 1_555
B3 O4 1.496925 1_555
B3 O7 1.496925 1_555
B4 O12 1.481634 1_565
B4 O24 1.489442 1_555
B4 O11 1.496925 1_555
B4 O6 1.496925 1_555
B5 O13 1.481634 1_545
B5 O25 1.489442 1_555
B5 O8 1.496925 1_555
B5 O10 1.496925 1_555
