# generated using pymatgen
data_HfTiC2
_symmetry_space_group_name_H-M   'P 1'
_cell_length_a   5.47955176
_cell_length_b   5.47955176
_cell_length_c   5.47955164
_cell_angle_alpha   33.88654397
_cell_angle_beta   33.88654397
_cell_angle_gamma   33.88654596
_symmetry_Int_Tables_number   1
_chemical_formula_structural   HfTiC2
_chemical_formula_sum   'Hf1 Ti1 C2'
_cell_volume   45.58081882
_cell_formula_units_Z   1
loop_
 _symmetry_equiv_pos_site_id
 _symmetry_equiv_pos_as_xyz
  1  'x, y, z'
loop_
 _atom_site_type_symbol
 _atom_site_label
 _atom_site_symmetry_multiplicity
 _atom_site_fract_x
 _atom_site_fract_y
 _atom_site_fract_z
 _atom_site_occupancy
  Hf  Hf0  1  0.00000000  0.00000000  0.00000000  1
  Ti  Ti0  1  0.50000000  0.50000000  0.50000000  1
  C  C0  1  0.75408700  0.75408700  0.75408700  1
  C  C1  1  0.24591300  0.24591300  0.24591300  1
loop_
_geom_bond_atom_site_label_1
_geom_bond_atom_site_label_2
_geom_bond_distance
_geom_bond_site_symmetry_2
C0 Ti0 2.214698 1_556
C0 Ti0 2.214698 1_565
C0 Ti0 2.214698 1_655
C0 Hf0 2.287213 1_665
C0 Hf0 2.287213 1_566
C0 Hf0 2.287213 1_656
C1 Ti0 2.214698 1_554
C1 Ti0 2.214698 1_545
C1 Ti0 2.214698 1_455
C1 Hf0 2.287213 1_556
C1 Hf0 2.287213 1_655
C1 Hf0 2.287213 1_565
