# generated using pymatgen
data_Li5Mn6O12
_symmetry_space_group_name_H-M   'P 1'
_cell_length_a   6.12991230
_cell_length_b   6.54583283
_cell_length_c   6.56432449
_cell_angle_alpha   98.09377719
_cell_angle_beta   76.36707695
_cell_angle_gamma   68.44497847
_symmetry_Int_Tables_number   1
_chemical_formula_structural   Li5Mn6O12
_chemical_formula_sum   'Li5 Mn6 O12'
_cell_volume   230.41650518
_cell_formula_units_Z   1
loop_
 _symmetry_equiv_pos_site_id
 _symmetry_equiv_pos_as_xyz
  1  'x, y, z'
loop_
 _atom_site_type_symbol
 _atom_site_label
 _atom_site_symmetry_multiplicity
 _atom_site_fract_x
 _atom_site_fract_y
 _atom_site_fract_z
 _atom_site_occupancy
  Li  Li0  1  0.20921400  0.85110300  0.33469900  1
  Li  Li1  1  0.24122700  0.50792800  0.00336700  1
  Li  Li2  1  0.25199300  0.16319400  0.66480800  1
  Li  Li3  1  0.75582800  0.51163800  0.01380600  1
  Li  Li4  1  0.74481600  0.15817100  0.65870100  1
  Mn  Mn0  1  0.50620800  0.66373000  0.66755400  1
  Mn  Mn1  1  0.49956600  0.99743800  0.00577000  1
  Mn  Mn2  1  0.00019800  0.33744500  0.33149900  1
  Mn  Mn3  1  0.99995500  0.99936800  0.99737700  1
  Mn  Mn4  1  0.99837900  0.67089300  0.65902500  1
  Mn  Mn5  1  0.50427900  0.32611200  0.33583300  1
  O  O0  1  0.10107000  0.25228500  0.01791900  1
  O  O1  1  0.40004500  0.41597500  0.65139700  1
  O  O2  1  0.61236300  0.23960900  0.01960200  1
  O  O3  1  0.89779900  0.41829600  0.64398000  1
  O  O4  1  0.33245700  0.12017700  0.32287400  1
  O  O5  1  0.12851600  0.56814800  0.34393900  1
  O  O6  1  0.89692200  0.09500600  0.31688800  1
  O  O7  1  0.66073300  0.54100600  0.34750800  1
  O  O8  1  0.11734100  0.91063500  0.67512700  1
  O  O9  1  0.39168400  0.75144500  0.98971800  1
  O  O10  1  0.60304500  0.91417100  0.69298400  1
  O  O11  1  0.89636300  0.75289400  0.97229400  1
loop_
_geom_bond_atom_site_label_1
_geom_bond_atom_site_label_2
_geom_bond_distance
_geom_bond_site_symmetry_2
Li0 O6 2.034599 1_465
Li0 O5 2.090372 1_555
Li0 O8 2.112600 1_555
Li0 O9 2.158411 1_554
Li0 O4 2.160454 1_565
Li1 O5 2.110535 1_555
Li1 O9 2.116851 1_554
Li1 O0 2.147149 1_555
Li1 O1 2.183056 1_554
Li1 O11 2.210511 1_454
Li1 O2 2.345825 1_555
Li2 O8 2.104003 1_545
Li2 O4 2.135119 1_555
Li2 O1 2.162422 1_555
Li2 O0 2.186516 1_556
Li2 O10 2.239893 1_545
Li2 O3 2.249740 1_455
Li3 O11 2.078576 1_554
Li3 O7 2.091008 1_555
Li3 O0 2.182081 1_655
Li3 O2 2.258214 1_555
Li3 O9 2.265678 1_554
Li3 O3 2.284707 1_554
Li4 O10 2.094230 1_545
Li4 O6 2.131692 1_555
Li4 O1 2.183246 1_555
Li4 O3 2.228221 1_555
Li4 O2 2.230583 1_556
Li4 O8 2.301771 1_645
Mn0 O10 1.937104 1_555
Mn0 O1 1.955622 1_555
Mn0 O9 1.989193 1_555
Mn0 O7 1.995956 1_555
Mn0 O3 2.299617 1_555
Mn0 O8 2.321074 1_555
Mn1 O10 1.931855 1_554
Mn1 O2 1.947734 1_565
Mn1 O9 1.951611 1_554
Mn1 O4 1.986692 1_565
Mn1 O11 2.305420 1_554
Mn1 O0 2.373328 1_565
Mn2 O6 1.911130 1_455
Mn2 O3 1.929997 1_455
Mn2 O0 1.937492 1_555
Mn2 O5 1.942750 1_555
Mn2 O7 1.984125 1_455
Mn2 O4 1.992145 1_555
Mn3 O11 1.939232 1_555
Mn3 O0 1.968188 1_666
Mn3 O6 1.976128 1_566
Mn3 O8 1.989785 1_655
Mn3 O2 2.272843 1_566
Mn3 O9 2.336446 1_655
Mn4 O11 1.935017 1_555
Mn4 O5 1.950115 1_655
Mn4 O8 1.958619 1_655
Mn4 O3 1.963567 1_555
Mn4 O10 2.295225 1_555
Mn4 O1 2.397641 1_655
Mn5 O1 1.949878 1_555
Mn5 O2 1.952878 1_555
Mn5 O7 1.974818 1_555
Mn5 O4 1.996730 1_555
Mn5 O5 2.248454 1_555
Mn5 O6 2.286371 1_555
