# generated using pymatgen
data_Th2Se3
_symmetry_space_group_name_H-M   'P 1'
_cell_length_a   11.32628259
_cell_length_b   4.05383144
_cell_length_c   11.54014448
_cell_angle_alpha   90.00000000
_cell_angle_beta   90.00000000
_cell_angle_gamma   90.00000000
_symmetry_Int_Tables_number   1
_chemical_formula_structural   Th2Se3
_chemical_formula_sum   'Th8 Se12'
_cell_volume   529.86389270
_cell_formula_units_Z   4
loop_
 _symmetry_equiv_pos_site_id
 _symmetry_equiv_pos_as_xyz
  1  'x, y, z'
loop_
 _atom_site_type_symbol
 _atom_site_label
 _atom_site_symmetry_multiplicity
 _atom_site_fract_x
 _atom_site_fract_y
 _atom_site_fract_z
 _atom_site_occupancy
  Th  Th0  1  0.47644768  0.25000000  0.18444726  1
  Th  Th1  1  0.97644768  0.25000000  0.31555274  1
  Th  Th2  1  0.52355232  0.75000000  0.81555274  1
  Th  Th3  1  0.02355232  0.75000000  0.68444726  1
  Th  Th4  1  0.69730948  0.75000000  0.48349442  1
  Th  Th5  1  0.19730948  0.75000000  0.01650558  1
  Th  Th6  1  0.30269052  0.25000000  0.51650558  1
  Th  Th7  1  0.80269052  0.25000000  0.98349442  1
  Se  Se0  1  0.55444438  0.25000000  0.62233446  1
  Se  Se1  1  0.05444438  0.25000000  0.87766554  1
  Se  Se2  1  0.44555562  0.75000000  0.37766554  1
  Se  Se3  1  0.94555562  0.75000000  0.12233446  1
  Se  Se4  1  0.62243518  0.75000000  0.05503817  1
  Se  Se5  1  0.12243518  0.75000000  0.44496183  1
  Se  Se6  1  0.37756482  0.25000000  0.94496183  1
  Se  Se7  1  0.87756482  0.25000000  0.55503817  1
  Se  Se8  1  0.71517975  0.25000000  0.29666740  1
  Se  Se9  1  0.21517975  0.25000000  0.20333260  1
  Se  Se10  1  0.28482025  0.75000000  0.70333260  1
  Se  Se11  1  0.78482025  0.75000000  0.79666740  1
loop_
_geom_bond_atom_site_label_1
_geom_bond_atom_site_label_2
_geom_bond_distance
_geom_bond_site_symmetry_2
Se0 Th2 3.033591 1_555
Se0 Th2 3.033591 1_545
Se0 Th4 3.048588 1_555
Se0 Th4 3.048588 1_545
Se0 Th6 3.101969 1_555
Se1 Th3 3.033591 1_545
Se1 Th3 3.033591 1_555
Se1 Th5 3.048588 1_556
Se1 Th5 3.048588 1_546
Se1 Th7 3.101969 1_455
Se2 Th0 3.033591 1_565
Se2 Th0 3.033591 1_555
Se2 Th6 3.048588 1_555
Se2 Th6 3.048588 1_565
Se2 Th4 3.101969 1_555
Se3 Th1 3.033591 1_565
Se3 Th1 3.033591 1_555
Se3 Th7 3.048588 1_554
Se3 Th7 3.048588 1_564
Se3 Th5 3.101969 1_655
Se4 Th2 2.982006 1_554
Se4 Th7 2.993037 1_554
Se4 Th7 2.993037 1_564
Se4 Th0 3.012089 1_565
Se4 Th0 3.012089 1_555
Se5 Th3 2.982006 1_555
Se5 Th6 2.993037 1_565
Se5 Th6 2.993037 1_555
Se5 Th1 3.012089 1_465
Se5 Th1 3.012089 1_455
Se6 Th0 2.982006 1_556
Se6 Th5 2.993037 1_556
Se6 Th5 2.993037 1_546
Se6 Th2 3.012089 1_555
Se6 Th2 3.012089 1_545
Se7 Th1 2.982006 1_555
Se7 Th4 2.993037 1_545
Se7 Th4 2.993037 1_555
Se7 Th3 3.012089 1_645
Se7 Th3 3.012089 1_655
Se8 Th4 2.966098 1_545
Se8 Th4 2.966098 1_555
Se8 Th1 2.967209 1_555
Se8 Th0 2.998074 1_555
Se9 Th5 2.966098 1_555
Se9 Th5 2.966098 1_545
Se9 Th0 2.967209 1_555
Se9 Th1 2.998074 1_455
Se10 Th6 2.966098 1_565
Se10 Th6 2.966098 1_555
Se10 Th3 2.967209 1_555
Se10 Th2 2.998074 1_555
Se11 Th7 2.966098 1_565
Se11 Th7 2.966098 1_555
Se11 Th2 2.967209 1_555
Se11 Th3 2.998074 1_655
