# generated using pymatgen
data_Y5Ir3
_symmetry_space_group_name_H-M   'P 1'
_cell_length_a   6.38971987
_cell_length_b   10.88038570
_cell_length_c   10.88052498
_cell_angle_alpha   90.00020584
_cell_angle_beta   90.00095575
_cell_angle_gamma   90.00064680
_symmetry_Int_Tables_number   1
_chemical_formula_structural   Y5Ir3
_chemical_formula_sum   'Y20 Ir12'
_cell_volume   756.44256761
_cell_formula_units_Z   4
loop_
 _symmetry_equiv_pos_site_id
 _symmetry_equiv_pos_as_xyz
  1  'x, y, z'
loop_
 _atom_site_type_symbol
 _atom_site_label
 _atom_site_symmetry_multiplicity
 _atom_site_fract_x
 _atom_site_fract_y
 _atom_site_fract_z
 _atom_site_occupancy
  Y  Y0  1  0.38383741  0.83810456  0.54187891  1
  Y  Y1  1  0.88383815  0.66189207  0.54188088  1
  Y  Y2  1  0.88384280  0.83810775  0.95811434  1
  Y  Y3  1  0.38384455  0.66188741  0.95811117  1
  Y  Y4  1  0.88383520  0.54184007  0.83807826  1
  Y  Y5  1  0.38384517  0.95815628  0.83808062  1
  Y  Y6  1  0.38383501  0.54184325  0.66190579  1
  Y  Y7  1  0.88384486  0.95815135  0.66190152  1
  Y  Y8  1  0.61616280  0.16189061  0.45822404  1
  Y  Y9  1  0.11616131  0.33811478  0.45822299  1
  Y  Y10  1  0.11615515  0.16188806  0.04178222  1
  Y  Y11  1  0.61615438  0.33811962  0.04178488  1
  Y  Y12  1  0.11616044  0.45818645  0.16187566  1
  Y  Y13  1  0.61615117  0.04182021  0.16187313  1
  Y  Y14  1  0.61616034  0.45818314  0.33814126  1
  Y  Y15  1  0.11615124  0.04182564  0.33814479  1
  Y  Y16  1  0.50000639  0.74999777  0.24999779  1
  Y  Y17  1  0.00000391  0.75000695  0.25000625  1
  Y  Y18  1  0.00000709  0.24999478  0.74999313  1
  Y  Y19  1  0.50000387  0.25000443  0.75000199  1
  Ir  Ir0  1  0.24999817  0.90344487  0.09652891  1
  Ir  Ir1  1  0.74999855  0.59654892  0.09652965  1
  Ir  Ir2  1  0.74999680  0.90344567  0.40348092  1
  Ir  Ir3  1  0.24999970  0.59654868  0.40348156  1
  Ir  Ir4  1  0.75000462  0.09655222  0.90341365  1
  Ir  Ir5  1  0.24999593  0.40345092  0.90341628  1
  Ir  Ir6  1  0.25000007  0.09654199  0.59657885  1
  Ir  Ir7  1  0.74999895  0.40345518  0.59657189  1
  Ir  Ir8  1  0.13037255  0.74999363  0.74999093  1
  Ir  Ir9  1  0.63037211  0.74999509  0.74998949  1
  Ir  Ir10  1  0.86963208  0.25000760  0.25000949  1
  Ir  Ir11  1  0.36963222  0.25000606  0.25001075  1
loop_
_geom_bond_atom_site_label_1
_geom_bond_atom_site_label_2
_geom_bond_distance
_geom_bond_site_symmetry_2
Y0 Y16 3.399394 1_555
Y1 Y17 3.399350 1_655
Y10 Y18 3.398412 1_554
Y11 Y19 3.398367 1_554
Y12 Y17 3.398796 1_555
Y13 Y16 3.398772 1_545
Y14 Y16 3.398772 1_555
Y15 Y17 3.398767 1_545
Y16 Y17 3.194844 1_655
Y16 Y17 3.194876 1_555
Y16 Y3 3.399423 1_554
Y17 Y2 3.399457 1_454
Y18 Y19 3.194839 1_555
Y18 Y19 3.194881 1_455
Y18 Y9 3.398287 1_555
Y18 Y7 3.398895 1_445
Y18 Y4 3.398930 1_455
Y19 Y8 3.398353 1_555
Y19 Y6 3.398893 1_555
Y19 Y5 3.398911 1_545
Ir0 Y17 2.850866 1_555
Ir0 Y16 2.850910 1_555
Ir0 Y13 2.871569 1_565
Ir0 Y2 2.871791 1_454
Ir0 Y10 2.998900 1_565
Ir0 Y5 2.998921 1_554
Ir0 Y3 3.147594 1_554
Ir0 Y15 3.147954 1_565
Ir1 Y16 2.850883 1_555
Ir1 Y17 2.850991 1_655
Ir1 Y12 2.871577 1_655
Ir1 Y3 2.871825 1_554
Ir1 Y11 2.998735 1_555
Ir1 Y4 2.998928 1_554
Ir1 Y2 3.147583 1_554
Ir1 Y14 3.147822 1_555
Ir2 Y17 2.850914 1_655
Ir2 Y16 2.850914 1_555
Ir2 Y15 2.871603 1_665
Ir2 Y0 2.871771 1_555
Ir2 Y7 2.998597 1_555
Ir2 Y8 2.998896 1_565
Ir2 Y1 3.147453 1_555
Ir2 Y13 3.147831 1_565
Ir3 Y17 2.850978 1_555
Ir3 Y16 2.851023 1_555
Ir3 Y14 2.871590 1_555
Ir3 Y1 2.871807 1_455
Ir3 Y6 2.998618 1_555
Ir3 Y9 2.998773 1_555
Ir3 Y0 3.147429 1_555
Ir3 Y12 3.147720 1_555
Ir4 Y19 2.850552 1_555
Ir4 Y18 2.850563 1_655
Ir4 Y10 2.871500 1_656
Ir4 Y5 2.871690 1_545
Ir4 Y2 2.998805 1_545
Ir4 Y13 2.999091 1_556
Ir4 Y7 3.147104 1_545
Ir4 Y11 3.147449 1_556
Ir5 Y18 2.850579 1_555
Ir5 Y19 2.850582 1_555
Ir5 Y11 2.871545 1_556
Ir5 Y4 2.871702 1_455
Ir5 Y3 2.998708 1_555
Ir5 Y12 2.999065 1_556
Ir5 Y6 3.147043 1_555
Ir5 Y10 3.147357 1_556
Ir6 Y18 2.850568 1_555
Ir6 Y19 2.850673 1_555
Ir6 Y8 2.871563 1_555
Ir6 Y7 2.871632 1_445
Ir6 Y0 2.998732 1_545
Ir6 Y15 2.998759 1_555
Ir6 Y5 3.146925 1_545
Ir6 Y9 3.147393 1_555
Ir7 Y19 2.850650 1_555
Ir7 Y18 2.850691 1_655
Ir7 Y9 2.871515 1_655
Ir7 Y6 2.871718 1_555
Ir7 Y1 2.998696 1_555
Ir7 Y14 2.998738 1_555
Ir7 Y4 3.146929 1_555
Ir7 Y8 3.147247 1_555
Ir8 Y1 2.920188 1_455
Ir8 Y2 2.920382 1_455
Ir8 Y4 2.920522 1_455
Ir8 Y7 2.920542 1_455
Ir8 Y0 2.944408 1_555
Ir8 Y3 2.944456 1_555
Ir8 Y6 2.944614 1_555
Ir8 Y5 2.944723 1_555
Ir8 Ir9 3.194857 1_555
Ir8 Ir9 3.194863 1_455
Ir9 Y0 2.920238 1_555
Ir9 Y3 2.920330 1_555
Ir9 Y6 2.920471 1_555
Ir9 Y5 2.920586 1_555
Ir9 Y1 2.944362 1_555
Ir9 Y2 2.944495 1_555
Ir9 Y4 2.944655 1_555
Ir9 Y7 2.944686 1_555
Ir10 Y12 2.920870 1_655
Ir10 Y15 2.920881 1_655
Ir10 Y9 2.921063 1_655
Ir10 Y10 2.921254 1_655
Ir10 Y14 2.945022 1_555
Ir10 Y13 2.945124 1_555
Ir10 Y8 2.945303 1_555
Ir10 Y11 2.945370 1_555
Ir10 Ir11 3.194859 1_555
Ir10 Ir11 3.194861 1_655
Ir11 Y14 2.920820 1_555
Ir11 Y13 2.920933 1_555
Ir11 Y8 2.921112 1_555
Ir11 Y11 2.921212 1_555
Ir11 Y12 2.945062 1_555
Ir11 Y15 2.945081 1_555
Ir11 Y9 2.945267 1_555
Ir11 Y10 2.945404 1_555
