# generated using pymatgen
data_Na2BrClO6
_symmetry_space_group_name_H-M   'P 1'
_cell_length_a   6.74405700
_cell_length_b   6.74877700
_cell_length_c   6.74904309
_cell_angle_alpha   88.94269571
_cell_angle_beta   90.00000000
_cell_angle_gamma   90.00000000
_symmetry_Int_Tables_number   1
_chemical_formula_structural   Na2BrClO6
_chemical_formula_sum   'Na4 Br2 Cl2 O12'
_cell_volume   307.12457041
_cell_formula_units_Z   2
loop_
 _symmetry_equiv_pos_site_id
 _symmetry_equiv_pos_as_xyz
  1  'x, y, z'
loop_
 _atom_site_type_symbol
 _atom_site_label
 _atom_site_symmetry_multiplicity
 _atom_site_fract_x
 _atom_site_fract_y
 _atom_site_fract_z
 _atom_site_occupancy
  Na  Na0  1  0.57368800  0.42707800  0.82010500  1
  Na  Na1  1  0.07368800  0.57292200  0.17989500  1
  Na  Na2  1  0.42606300  0.07492700  0.32715900  1
  Na  Na3  1  0.92606300  0.92507300  0.67284100  1
  Br  Br0  1  0.90899100  0.09202800  0.15765500  1
  Br  Br1  1  0.40899100  0.90797200  0.84234500  1
  Cl  Cl0  1  0.08355600  0.41763200  0.66788900  1
  Cl  Cl1  1  0.58355600  0.58236800  0.33211100  1
  O  O0  1  0.00982600  0.89703400  0.03970100  1
  O  O1  1  0.10416800  0.21240700  0.25465900  1
  O  O2  1  0.78772900  0.99178700  0.35354500  1
  O  O3  1  0.50982600  0.10296600  0.96029900  1
  O  O4  1  0.60416800  0.78759300  0.74534100  1
  O  O5  1  0.28772900  0.00821300  0.64645500  1
  O  O6  1  0.99874200  0.59043200  0.55157300  1
  O  O7  1  0.91046700  0.30367800  0.75557600  1
  O  O8  1  0.19677000  0.50235700  0.84015700  1
  O  O9  1  0.49874200  0.40956800  0.44842700  1
  O  O10  1  0.41046700  0.69632200  0.24442400  1
  O  O11  1  0.69677000  0.49764300  0.15984300  1
loop_
_geom_bond_atom_site_label_1
_geom_bond_atom_site_label_2
_geom_bond_distance
_geom_bond_site_symmetry_2
Na0 O3 2.406014 1_555
Na0 O7 2.460735 1_555
Na0 O4 2.484193 1_555
Na0 O11 2.492695 1_556
Na0 O9 2.563747 1_555
Na0 O8 2.596247 1_555
Na1 O0 2.406014 1_555
Na1 O10 2.460735 1_555
Na1 O1 2.484193 1_555
Na1 O8 2.492695 1_554
Na1 O6 2.563747 1_455
Na1 O11 2.596247 1_455
Na2 O5 2.383495 1_555
Na2 O1 2.407536 1_555
Na2 O9 2.465514 1_555
Na2 O2 2.508394 1_545
Na2 O3 2.543222 1_554
Na2 O10 2.627575 1_545
Na3 O2 2.383495 1_555
Na3 O4 2.407536 1_555
Na3 O6 2.465514 1_555
Na3 O5 2.508394 1_665
Na3 O0 2.543222 1_656
Na3 O7 2.627575 1_565
Br0 O1 1.685484 1_655
Br0 O2 1.685620 1_545
Br0 O0 1.693113 1_645
Br1 O4 1.685484 1_555
Br1 O5 1.685620 1_565
Br1 O3 1.693113 1_565
Cl0 O6 1.506533 1_455
Cl0 O8 1.512013 1_555
Cl0 O7 1.512453 1_455
Cl1 O9 1.506533 1_555
Cl1 O11 1.512013 1_555
Cl1 O10 1.512453 1_555
