# generated using pymatgen
data_SmAgS2
_symmetry_space_group_name_H-M   'P 1'
_cell_length_a   7.76333000
_cell_length_b   7.76679100
_cell_length_c   13.12343242
_cell_angle_alpha   89.87664100
_cell_angle_beta   90.00000000
_cell_angle_gamma   90.00000000
_symmetry_Int_Tables_number   1
_chemical_formula_structural   SmAgS2
_chemical_formula_sum   'Sm8 Ag8 S16'
_cell_volume   791.29076739
_cell_formula_units_Z   8
loop_
 _symmetry_equiv_pos_site_id
 _symmetry_equiv_pos_as_xyz
  1  'x, y, z'
loop_
 _atom_site_type_symbol
 _atom_site_label
 _atom_site_symmetry_multiplicity
 _atom_site_fract_x
 _atom_site_fract_y
 _atom_site_fract_z
 _atom_site_occupancy
  Sm  Sm0  1  0.50494300  0.74570200  0.00386100  1
  Sm  Sm1  1  0.00494300  0.25429800  0.99613900  1
  Sm  Sm2  1  0.25701000  0.00300100  0.75316600  1
  Sm  Sm3  1  0.75701000  0.99699900  0.24683400  1
  Sm  Sm4  1  0.74827800  0.50336000  0.74689000  1
  Sm  Sm5  1  0.24827800  0.49664000  0.25311000  1
  Sm  Sm6  1  0.00287200  0.75301000  0.50336000  1
  Sm  Sm7  1  0.50287200  0.24699000  0.49664000  1
  Ag  Ag0  1  0.25059600  0.49840000  0.79851900  1
  Ag  Ag1  1  0.75059600  0.50160000  0.20148100  1
  Ag  Ag2  1  0.75317500  0.99708900  0.68920300  1
  Ag  Ag3  1  0.25317500  0.00291100  0.31079700  1
  Ag  Ag4  1  0.00177800  0.75518100  0.04377100  1
  Ag  Ag5  1  0.50177800  0.24481900  0.95622900  1
  Ag  Ag6  1  0.50078600  0.74141000  0.54149500  1
  Ag  Ag7  1  0.00078600  0.25859000  0.45850500  1
  S  S0  1  0.78358400  0.02993400  0.46266700  1
  S  S1  1  0.28358400  0.97006600  0.53733300  1
  S  S2  1  0.22784700  0.47541300  0.46919800  1
  S  S3  1  0.72784700  0.52458700  0.53080200  1
  S  S4  1  0.52792400  0.72197300  0.21960200  1
  S  S5  1  0.02792400  0.27802700  0.78039800  1
  S  S6  1  0.47255900  0.72192000  0.78876300  1
  S  S7  1  0.97255900  0.27808000  0.21123700  1
  S  S8  1  0.97683400  0.77939800  0.71842600  1
  S  S9  1  0.47683400  0.22060200  0.28157400  1
  S  S10  1  0.53287400  0.22186000  0.71115600  1
  S  S11  1  0.03287400  0.77814000  0.28884400  1
  S  S12  1  0.27894800  0.02343400  0.96851100  1
  S  S13  1  0.77894800  0.97656600  0.03148900  1
  S  S14  1  0.72299300  0.46908300  0.96165500  1
  S  S15  1  0.22299300  0.53091700  0.03834500  1
loop_
_geom_bond_atom_site_label_1
_geom_bond_atom_site_label_2
_geom_bond_distance
_geom_bond_site_symmetry_2
Ag0 S5 2.444621 1_555
Ag0 S6 2.449197 1_555
Ag1 S4 2.444621 1_555
Ag1 S7 2.449197 1_555
Ag2 S8 2.453126 1_555
Ag2 S10 2.461266 1_565
Ag2 S0 2.992633 1_565
Ag3 S9 2.453126 1_555
Ag3 S11 2.461266 1_545
Ag3 S1 2.992633 1_545
Ag4 S13 2.444148 1_455
Ag4 S15 2.447214 1_555
Ag4 S12 3.152386 1_564
Ag5 S12 2.444148 1_555
Ag5 S14 2.447214 1_555
Ag5 S13 3.152386 1_546
Ag6 S3 2.442113 1_555
Ag6 S1 2.449444 1_555
Ag6 S2 3.109109 1_555
Ag7 S2 2.442113 1_555
Ag7 S0 2.449444 1_455
Ag7 S3 3.109109 1_455
S0 Sm7 2.791631 1_555
S0 Sm6 2.793638 1_645
S0 Sm3 2.852017 1_545
S1 Sm6 2.791631 1_555
S1 Sm7 2.793638 1_565
S1 Sm2 2.852017 1_565
S2 Sm7 2.798771 1_555
S2 Sm6 2.811425 1_555
S2 Sm5 2.844676 1_555
S3 Sm6 2.798771 1_655
S3 Sm7 2.811425 1_555
S3 Sm4 2.844676 1_555
S4 Sm3 2.802990 1_555
S4 Sm5 2.822433 1_555
S4 Sm0 2.842463 1_555
S5 Sm2 2.802990 1_555
S5 Sm4 2.822433 1_455
S5 Sm1 2.842463 1_555
S6 Sm4 2.787338 1_555
S6 Sm2 2.789256 1_565
S6 Sm0 2.840406 1_556
S7 Sm5 2.787338 1_655
S7 Sm3 2.789256 1_545
S7 Sm1 2.840406 1_654
S8 Sm4 2.807287 1_555
S8 Sm2 2.821058 1_665
S8 Sm6 2.837485 1_655
S9 Sm5 2.807287 1_555
S9 Sm3 2.821058 1_545
S9 Sm7 2.837485 1_555
S10 Sm2 2.788529 1_555
S10 Sm4 2.793008 1_555
S10 Sm7 2.831122 1_555
S11 Sm3 2.788529 1_455
S11 Sm5 2.793008 1_555
S11 Sm6 2.831122 1_555
S12 Sm1 2.806120 1_555
S12 Sm0 2.818174 1_546
S12 Sm2 2.835978 1_555
S13 Sm0 2.806120 1_555
S13 Sm1 2.818174 1_664
S13 Sm3 2.835978 1_555
S14 Sm1 2.788470 1_655
S14 Sm0 2.791643 1_556
S14 Sm4 2.837227 1_555
S15 Sm0 2.788470 1_555
S15 Sm1 2.791643 1_554
S15 Sm5 2.837227 1_555
