# generated using pymatgen
data_EuV4SnO12
_symmetry_space_group_name_H-M   'P 1'
_cell_length_a   5.44603994
_cell_length_b   5.44603994
_cell_length_c   7.77256048
_cell_angle_alpha   90.00000000
_cell_angle_beta   90.00000000
_cell_angle_gamma   89.39593946
_symmetry_Int_Tables_number   1
_chemical_formula_structural   EuV4SnO12
_chemical_formula_sum   'Eu1 V4 Sn1 O12'
_cell_volume   230.51628763
_cell_formula_units_Z   1
loop_
 _symmetry_equiv_pos_site_id
 _symmetry_equiv_pos_as_xyz
  1  'x, y, z'
loop_
 _atom_site_type_symbol
 _atom_site_label
 _atom_site_symmetry_multiplicity
 _atom_site_fract_x
 _atom_site_fract_y
 _atom_site_fract_z
 _atom_site_occupancy
  Eu  Eu0  1  0.50000000  0.50000000  0.50000000  1
  V  V0  1  -0.00000000  0.50000000  0.25434231  1
  V  V1  1  0.00000000  0.50000000  0.74565769  1
  V  V2  1  0.50000000  -0.00000000  0.25434231  1
  V  V3  1  0.50000000  -0.00000000  0.74565769  1
  Sn  Sn0  1  0.00000000  -0.00000000  0.00000000  1
  O  O0  1  0.26951358  0.26951358  0.25893254  1
  O  O1  1  0.26951358  0.26951358  0.74106746  1
  O  O2  1  0.73048642  0.73048642  0.25893254  1
  O  O3  1  0.73048642  0.73048642  0.74106746  1
  O  O4  1  0.75375045  0.24624955  0.25653123  1
  O  O5  1  0.75375045  0.24624955  0.74346877  1
  O  O6  1  0.24624955  0.75375045  0.25653123  1
  O  O7  1  0.24624955  0.75375045  0.74346877  1
  O  O8  1  -0.00000000  0.50000000  -0.00000000  1
  O  O9  1  -0.00000000  0.50000000  0.50000000  1
  O  O10  1  0.50000000  0.00000000  0.00000000  1
  O  O11  1  0.50000000  -0.00000000  0.50000000  1
loop_
_geom_bond_atom_site_label_1
_geom_bond_atom_site_label_2
_geom_bond_distance
_geom_bond_site_symmetry_2
Eu0 O1 2.587521 1_555
Eu0 O0 2.587521 1_555
Eu0 O2 2.587521 1_555
Eu0 O3 2.587521 1_555
Eu0 O6 2.712989 1_555
Eu0 O7 2.712989 1_555
Eu0 O4 2.712989 1_555
Eu0 O5 2.712989 1_555
Eu0 O9 2.723020 1_655
Eu0 O11 2.723020 1_565
Eu0 O11 2.723020 1_555
Eu0 O9 2.723020 1_555
O0 V2 1.921570 1_555
O0 V0 1.921570 1_555
O1 V1 1.921570 1_555
O1 V3 1.921570 1_555
O2 V2 1.921570 1_565
O2 V0 1.921570 1_655
O3 V1 1.921570 1_655
O3 V3 1.921570 1_565
O4 V0 1.935877 1_655
O4 V2 1.935877 1_555
O4 Sn0 2.744950 1_655
O5 V3 1.935877 1_555
O5 V1 1.935877 1_655
O5 Sn0 2.744950 1_656
O6 V0 1.935877 1_555
O6 V2 1.935877 1_565
O6 Sn0 2.744950 1_565
O7 V1 1.935877 1_555
O7 V3 1.935877 1_565
O7 Sn0 2.744950 1_566
O8 V1 1.976891 1_554
O8 V0 1.976891 1_555
O8 Sn0 2.723020 1_555
O8 Sn0 2.723020 1_565
O9 V0 1.909389 1_555
O9 V1 1.909389 1_555
O10 V3 1.976891 1_554
O10 V2 1.976891 1_555
O10 Sn0 2.723020 1_555
O10 Sn0 2.723020 1_655
O11 V2 1.909389 1_555
O11 V3 1.909389 1_555
