# generated using pymatgen
data_Li3MnCoO5
_symmetry_space_group_name_H-M   'P 1'
_cell_length_a   2.89646474
_cell_length_b   5.91067607
_cell_length_c   10.58369280
_cell_angle_alpha   97.69991213
_cell_angle_beta   97.88829950
_cell_angle_gamma   90.00613737
_symmetry_Int_Tables_number   1
_chemical_formula_structural   Li3MnCoO5
_chemical_formula_sum   'Li6 Mn2 Co2 O10'
_cell_volume   177.82910051
_cell_formula_units_Z   2
loop_
 _symmetry_equiv_pos_site_id
 _symmetry_equiv_pos_as_xyz
  1  'x, y, z'
loop_
 _atom_site_type_symbol
 _atom_site_label
 _atom_site_symmetry_multiplicity
 _atom_site_fract_x
 _atom_site_fract_y
 _atom_site_fract_z
 _atom_site_occupancy
  Li  Li0  1  0.60069100  0.30033000  0.19998600  1
  Li  Li1  1  0.60090900  0.79986300  0.19994700  1
  Li  Li2  1  0.01057200  0.51159500  0.01930300  1
  Li  Li3  1  0.18732100  0.08781800  0.38074100  1
  Li  Li4  1  0.40101900  0.70082700  0.80310600  1
  Li  Li5  1  0.79665100  0.89924000  0.59729100  1
  Mn  Mn0  1  0.19561500  0.60123000  0.38933500  1
  Mn  Mn1  1  0.01370700  0.99887900  0.01089000  1
  Co  Co0  1  0.79176600  0.39731800  0.59888600  1
  Co  Co1  1  0.39825500  0.20250700  0.80084400  1
  O  O0  1  0.50747500  0.22387800  0.99888700  1
  O  O1  1  0.70335400  0.37626900  0.40139700  1
  O  O2  1  0.09613700  0.04718200  0.18476100  1
  O  O3  1  0.10724200  0.55324400  0.21538800  1
  O  O4  1  0.86907700  0.43544500  0.79884900  1
  O  O5  1  0.26684400  0.16452300  0.60119600  1
  O  O6  1  0.31447300  0.63008300  0.58938600  1
  O  O7  1  0.93012800  0.96977400  0.80991500  1
  O  O8  1  0.70121300  0.82155600  0.39995400  1
  O  O9  1  0.50755000  0.77843700  0.99994100  1
loop_
_geom_bond_atom_site_label_1
_geom_bond_atom_site_label_2
_geom_bond_distance
_geom_bond_site_symmetry_2
Li0 O2 2.066603 1_555
Li0 O3 2.069434 1_655
Li0 O3 2.074407 1_555
Li0 O2 2.079297 1_655
Li0 O0 2.095607 1_554
Li0 O1 2.098453 1_555
Li1 O2 2.073470 1_565
Li1 O3 2.073862 1_655
Li1 O3 2.079342 1_555
Li1 O8 2.083314 1_555
Li1 O9 2.083519 1_554
Li1 O2 2.084726 1_665
Li2 O3 2.037025 1_555
Li2 O9 2.158138 1_454
Li2 O9 2.183757 1_554
Li2 O0 2.208337 1_454
Li2 O0 2.235538 1_554
Li2 O4 2.295764 1_454
Li3 O2 2.036133 1_555
Li3 O8 2.159740 1_445
Li3 O8 2.176438 1_545
Li3 O1 2.214586 1_455
Li3 O1 2.235742 1_555
Li3 O5 2.295987 1_555
Li4 O9 2.052555 1_555
Li4 O4 2.073340 1_555
Li4 O7 2.095049 1_455
Li4 O4 2.190411 1_455
Li4 O7 2.195306 1_555
Li4 O6 2.223730 1_555
Li5 O8 2.057626 1_555
Li5 O5 2.069258 1_665
Li5 O6 2.102444 1_555
Li5 O6 2.187878 1_655
Li5 O5 2.194492 1_565
Li5 O7 2.212939 1_555
Mn0 O3 1.807198 1_555
Mn0 O8 1.940254 1_455
Mn0 O8 1.941224 1_555
Mn0 O1 1.977958 1_455
Mn0 O1 1.985322 1_555
Mn0 O6 2.081736 1_555
Mn1 O2 1.806501 1_565
Mn1 O9 1.939746 1_554
Mn1 O9 1.942417 1_454
Mn1 O0 1.981140 1_564
Mn1 O0 1.982249 1_464
Mn1 O7 2.091213 1_454
Co0 O5 1.946175 1_655
Co0 O6 1.952807 1_555
Co0 O5 2.055322 1_555
Co0 O1 2.057481 1_555
Co0 O6 2.067254 1_655
Co0 O4 2.078932 1_555
Co1 O4 1.941933 1_555
Co1 O7 1.952112 1_445
Co1 O4 2.060279 1_455
Co1 O0 2.063104 1_555
Co1 O7 2.066413 1_545
Co1 O5 2.076585 1_555
