# generated using pymatgen
data_MgAl2
_symmetry_space_group_name_H-M   'P 1'
_cell_length_a   5.86802964
_cell_length_b   5.86802964
_cell_length_c   14.40507548
_cell_angle_alpha   90.00000000
_cell_angle_beta   90.00000000
_cell_angle_gamma   120.00001804
_symmetry_Int_Tables_number   1
_chemical_formula_structural   MgAl2
_chemical_formula_sum   'Mg8 Al16'
_cell_volume   429.56678028
_cell_formula_units_Z   8
loop_
 _symmetry_equiv_pos_site_id
 _symmetry_equiv_pos_as_xyz
  1  'x, y, z'
loop_
 _atom_site_type_symbol
 _atom_site_label
 _atom_site_symmetry_multiplicity
 _atom_site_fract_x
 _atom_site_fract_y
 _atom_site_fract_z
 _atom_site_occupancy
  Mg  Mg0_0  1  0.00000000  0.00000000  0.00000000  1
  Mg  Mg0_1  1  0.00000000  0.00000000  0.50000000  1
  Mg  Mg0_2  1  0.00000000  0.50000000  0.00000000  1
  Mg  Mg0_3  1  0.00000000  0.50000000  0.50000000  1
  Mg  Mg0_4  1  0.50000000  0.00000000  0.00000000  1
  Mg  Mg0_5  1  0.50000000  0.00000000  0.50000000  1
  Mg  Mg0_6  1  0.50000000  0.50000000  0.00000000  1
  Mg  Mg0_7  1  0.50000000  0.50000000  0.50000000  1
  Al  Al0_0  1  0.16666650  0.33333350  0.32818525  1
  Al  Al0_1  1  0.16666650  0.33333350  0.82818525  1
  Al  Al0_2  1  0.16666650  0.83333350  0.32818525  1
  Al  Al0_3  1  0.16666650  0.83333350  0.82818525  1
  Al  Al0_4  1  0.66666650  0.33333350  0.32818525  1
  Al  Al0_5  1  0.66666650  0.33333350  0.82818525  1
  Al  Al0_6  1  0.66666650  0.83333350  0.32818525  1
  Al  Al0_7  1  0.66666650  0.83333350  0.82818525  1
  Al  Al1_0  1  0.33333350  0.16666650  0.17181475  1
  Al  Al1_1  1  0.33333350  0.16666650  0.67181475  1
  Al  Al1_2  1  0.33333350  0.66666650  0.17181475  1
  Al  Al1_3  1  0.33333350  0.66666650  0.67181475  1
  Al  Al1_4  1  0.83333350  0.16666650  0.17181475  1
  Al  Al1_5  1  0.83333350  0.16666650  0.67181475  1
  Al  Al1_6  1  0.83333350  0.66666650  0.17181475  1
  Al  Al1_7  1  0.83333350  0.66666650  0.67181475  1
loop_
_geom_bond_atom_site_label_1
_geom_bond_atom_site_label_2
_geom_bond_distance
_geom_bond_site_symmetry_2
Mg0_0 Mg0_6 2.934014 1_445
Mg0_0 Mg0_6 2.934014 1_555
Mg0_0 Mg0_2 2.934015 1_555
Mg0_0 Mg0_2 2.934015 1_545
Mg0_0 Mg0_4 2.934015 1_455
Mg0_0 Mg0_4 2.934015 1_555
Mg0_1 Mg0_7 2.934014 1_555
Mg0_1 Mg0_7 2.934014 1_445
Mg0_1 Mg0_3 2.934015 1_545
Mg0_1 Mg0_5 2.934015 1_555
Mg0_1 Mg0_3 2.934015 1_555
Mg0_1 Mg0_5 2.934015 1_455
Mg0_2 Mg0_4 2.934014 1_565
Mg0_2 Mg0_4 2.934014 1_455
Mg0_2 Mg0_6 2.934015 1_555
Mg0_2 Mg0_6 2.934015 1_455
Mg0_3 Mg0_5 2.934014 1_565
Mg0_3 Mg0_5 2.934014 1_455
Mg0_3 Mg0_7 2.934015 1_555
Mg0_3 Mg0_7 2.934015 1_455
Mg0_4 Mg0_6 2.934015 1_545
Mg0_4 Mg0_6 2.934015 1_555
Mg0_5 Mg0_7 2.934015 1_545
Mg0_5 Mg0_7 2.934015 1_555
Al0_0 Al1_2 2.818397 1_555
Al0_0 Al1_4 2.818397 1_455
Al0_0 Al1_0 2.818400 1_555
Al0_0 Al0_6 2.934014 1_445
Al0_0 Al0_6 2.934014 1_555
Al0_0 Al0_4 2.934015 1_555
Al0_0 Al0_4 2.934015 1_455
Al0_0 Al0_2 2.934015 1_545
Al0_0 Al0_2 2.934015 1_555
Al0_0 Mg0_3 2.999187 1_555
Al0_0 Mg0_7 2.999188 1_555
Al0_0 Mg0_1 2.999188 1_555
Al0_1 Al1_5 2.818397 1_455
Al0_1 Al1_3 2.818397 1_555
Al0_1 Al1_1 2.818400 1_555
Al0_1 Al0_7 2.934014 1_445
Al0_1 Al0_7 2.934014 1_555
Al0_1 Al0_5 2.934015 1_555
Al0_1 Al0_5 2.934015 1_455
Al0_1 Al0_3 2.934015 1_555
Al0_1 Al0_3 2.934015 1_545
Al0_1 Mg0_2 2.999187 1_556
Al0_1 Mg0_6 2.999188 1_556
Al0_1 Mg0_0 2.999188 1_556
Al0_2 Al1_0 2.818397 1_565
Al0_2 Al1_6 2.818397 1_455
Al0_2 Al1_2 2.818400 1_555
Al0_2 Al0_4 2.934014 1_565
Al0_2 Al0_4 2.934014 1_455
Al0_2 Al0_6 2.934015 1_555
Al0_2 Al0_6 2.934015 1_455
Al0_2 Mg0_1 2.999187 1_565
Al0_2 Mg0_5 2.999188 1_565
Al0_2 Mg0_3 2.999188 1_555
Al0_3 Al1_7 2.818397 1_455
Al0_3 Al1_1 2.818397 1_565
Al0_3 Al1_3 2.818400 1_555
Al0_3 Al0_5 2.934014 1_565
Al0_3 Al0_5 2.934014 1_455
Al0_3 Al0_7 2.934015 1_555
Al0_3 Al0_7 2.934015 1_455
Al0_3 Mg0_0 2.999187 1_566
Al0_3 Mg0_2 2.999188 1_556
Al0_3 Mg0_4 2.999188 1_566
Al0_4 Al1_0 2.818397 1_555
Al0_4 Al1_6 2.818397 1_555
Al0_4 Al1_4 2.818400 1_555
Al0_4 Al0_6 2.934015 1_545
Al0_4 Al0_6 2.934015 1_555
Al0_4 Mg0_7 2.999187 1_555
Al0_4 Mg0_5 2.999188 1_555
Al0_4 Mg0_3 2.999188 1_655
Al0_5 Al1_1 2.818397 1_555
Al0_5 Al1_7 2.818397 1_555
Al0_5 Al1_5 2.818400 1_555
Al0_5 Al0_7 2.934015 1_545
Al0_5 Al0_7 2.934015 1_555
Al0_5 Mg0_6 2.999187 1_556
Al0_5 Mg0_4 2.999188 1_556
Al0_5 Mg0_2 2.999188 1_656
Al0_6 Al1_4 2.818397 1_565
Al0_6 Al1_2 2.818397 1_555
Al0_6 Al1_6 2.818400 1_555
Al0_6 Mg0_5 2.999187 1_565
Al0_6 Mg0_1 2.999188 1_665
Al0_6 Mg0_7 2.999188 1_555
Al0_7 Al1_5 2.818397 1_565
Al0_7 Al1_3 2.818397 1_555
Al0_7 Al1_7 2.818400 1_555
Al0_7 Mg0_4 2.999187 1_566
Al0_7 Mg0_0 2.999188 1_666
Al0_7 Mg0_6 2.999188 1_556
Al1_0 Al1_6 2.934014 1_445
Al1_0 Al1_6 2.934014 1_555
Al1_0 Al1_2 2.934015 1_545
Al1_0 Al1_4 2.934015 1_455
Al1_0 Al1_4 2.934015 1_555
Al1_0 Al1_2 2.934015 1_555
Al1_0 Mg0_4 2.999187 1_555
Al1_0 Mg0_0 2.999188 1_555
Al1_0 Mg0_6 2.999188 1_555
Al1_1 Al1_7 2.934014 1_445
Al1_1 Al1_7 2.934014 1_555
Al1_1 Al1_5 2.934015 1_455
Al1_1 Al1_3 2.934015 1_545
Al1_1 Al1_5 2.934015 1_555
Al1_1 Al1_3 2.934015 1_555
Al1_1 Mg0_5 2.999187 1_555
Al1_1 Mg0_1 2.999188 1_555
Al1_1 Mg0_7 2.999188 1_555
Al1_2 Al1_4 2.934014 1_455
Al1_2 Al1_4 2.934014 1_565
Al1_2 Al1_6 2.934015 1_555
Al1_2 Al1_6 2.934015 1_455
Al1_2 Mg0_6 2.999187 1_555
Al1_2 Mg0_2 2.999188 1_555
Al1_2 Mg0_4 2.999188 1_565
Al1_3 Al1_5 2.934014 1_565
Al1_3 Al1_5 2.934014 1_455
Al1_3 Al1_7 2.934015 1_555
Al1_3 Al1_7 2.934015 1_455
Al1_3 Mg0_7 2.999187 1_555
Al1_3 Mg0_5 2.999188 1_565
Al1_3 Mg0_3 2.999188 1_555
Al1_4 Al1_6 2.934015 1_545
Al1_4 Al1_6 2.934015 1_555
Al1_4 Mg0_0 2.999187 1_655
Al1_4 Mg0_2 2.999188 1_655
Al1_4 Mg0_4 2.999188 1_555
Al1_5 Al1_7 2.934015 1_545
Al1_5 Al1_7 2.934015 1_555
Al1_5 Mg0_1 2.999187 1_655
Al1_5 Mg0_5 2.999188 1_555
Al1_5 Mg0_3 2.999188 1_655
Al1_6 Mg0_2 2.999187 1_655
Al1_6 Mg0_0 2.999188 1_665
Al1_6 Mg0_6 2.999188 1_555
Al1_7 Mg0_3 2.999187 1_655
Al1_7 Mg0_1 2.999188 1_665
Al1_7 Mg0_7 2.999188 1_555
