# generated using pymatgen
data_Li6Ni3Sb(PO4)6
_symmetry_space_group_name_H-M   'P 1'
_cell_length_a   8.65289300
_cell_length_b   8.71491797
_cell_length_c   8.72341629
_cell_angle_alpha   60.74342362
_cell_angle_beta   60.64363970
_cell_angle_gamma   60.86465228
_symmetry_Int_Tables_number   1
_chemical_formula_structural   Li6Ni3Sb(PO4)6
_chemical_formula_sum   'Li6 Ni3 Sb1 P6 O24'
_cell_volume   473.02729226
_cell_formula_units_Z   1
loop_
 _symmetry_equiv_pos_site_id
 _symmetry_equiv_pos_as_xyz
  1  'x, y, z'
loop_
 _atom_site_type_symbol
 _atom_site_label
 _atom_site_symmetry_multiplicity
 _atom_site_fract_x
 _atom_site_fract_y
 _atom_site_fract_z
 _atom_site_occupancy
  Li  Li0  1  0.02904700  0.02079300  0.00776800  1
  Li  Li1  1  0.74163000  0.15918400  0.35044300  1
  Li  Li2  1  0.47423000  0.49671300  0.48319900  1
  Li  Li3  1  0.30683600  0.84837200  0.63850000  1
  Li  Li4  1  0.64448000  0.31196400  0.83937000  1
  Li  Li5  1  0.84122900  0.64199000  0.31151400  1
  Ni  Ni0  1  0.14199700  0.14771900  0.14271700  1
  Ni  Ni1  1  0.35564800  0.35647000  0.35198300  1
  Ni  Ni2  1  0.64540500  0.64961200  0.64887200  1
  Sb  Sb0  1  0.85452200  0.85152700  0.85384100  1
  P  P0  1  0.04973900  0.74743200  0.44606900  1
  P  P1  1  0.44775700  0.04826600  0.74638400  1
  P  P2  1  0.74675400  0.44906000  0.04518800  1
  P  P3  1  0.24606700  0.54096100  0.95625400  1
  P  P4  1  0.54588600  0.96199100  0.24812300  1
  P  P5  1  0.95336000  0.24390100  0.53541200  1
  O  O0  1  0.13848200  0.24926900  0.50481600  1
  O  O1  1  0.26618000  0.52384500  0.12705000  1
  O  O2  1  0.05511700  0.91670900  0.26624500  1
  O  O3  1  0.55436600  0.11971600  0.27209600  1
  O  O4  1  0.23379900  0.58755100  0.44058000  1
  O  O5  1  0.00626300  0.80996600  0.61120700  1
  O  O6  1  0.26030000  0.08186100  0.90083200  1
  O  O7  1  0.47076600  0.22165300  0.57309200  1
  O  O8  1  0.58981200  0.44298700  0.23471600  1
  O  O9  1  0.17958500  0.39444400  0.98550400  1
  O  O10  1  0.10060500  0.75146500  0.89597200  1
  O  O11  1  0.38769700  0.01218800  0.18707000  1
  O  O12  1  0.61006200  0.99555600  0.81866400  1
  O  O13  1  0.90227500  0.25869400  0.07268600  1
  O  O14  1  0.81582300  0.60912100  0.00023300  1
  O  O15  1  0.42058000  0.54809600  0.77556700  1
  O  O16  1  0.54833600  0.78012300  0.42072700  1
  O  O17  1  0.75263100  0.89406300  0.09879600  1
  O  O18  1  0.95525500  0.18790600  0.39387300  1
  O  O19  1  0.78011600  0.42271100  0.55017900  1
  O  O20  1  0.47388400  0.88719700  0.70003500  1
  O  O21  1  0.89589100  0.09896200  0.74694000  1
  O  O22  1  0.69077300  0.48265800  0.88841200  1
  O  O23  1  0.88681200  0.69630400  0.48007100  1
loop_
_geom_bond_atom_site_label_1
_geom_bond_atom_site_label_2
_geom_bond_distance
_geom_bond_site_symmetry_2
Li0 O6 1.969517 1_554
Li0 O13 2.036292 1_455
Li0 O2 2.063523 1_545
Li1 O13 2.091128 1_555
Li1 O8 2.134969 1_555
Li1 O18 2.202935 1_555
Li1 O7 2.211265 1_555
Li1 O3 2.251524 1_555
Li1 O2 2.518915 1_645
Li2 O4 1.989988 1_555
Li2 O8 2.080511 1_555
Li2 O7 2.138129 1_555
Li2 O15 2.583377 1_555
Li2 O16 2.586980 1_555
Li3 O20 1.976484 1_555
Li3 O16 2.081179 1_555
Li3 O10 2.150808 1_555
Li3 O15 2.198615 1_555
Li4 O22 1.981590 1_555
Li4 O15 2.086521 1_555
Li4 O19 2.119730 1_555
Li4 O21 2.153923 1_555
Li5 O23 1.993091 1_555
Li5 O19 2.069254 1_555
Li5 O16 2.136041 1_555
Li5 O17 2.151138 1_555
Ni0 O9 1.992796 1_554
Ni0 O11 1.994835 1_555
Ni0 O18 2.064384 1_455
Ni0 O13 2.079120 1_455
Ni0 O6 2.079298 1_554
Ni0 O2 2.082887 1_545
Ni1 O1 2.041905 1_555
Ni1 O0 2.053535 1_555
Ni1 O4 2.102233 1_555
Ni1 O8 2.102825 1_555
Ni1 O3 2.115500 1_555
Ni1 O7 2.149912 1_555
Ni2 O22 1.978357 1_555
Ni2 O23 1.980762 1_555
Ni2 O20 1.987585 1_555
Ni2 O15 2.097810 1_555
Ni2 O19 2.108499 1_555
Ni2 O16 2.110976 1_555
O0 P5 1.510263 1_455
O1 P3 1.511338 1_554
O2 P0 1.540307 1_555
O3 P4 1.527339 1_545
O4 P0 1.519812 1_555
O5 P0 1.596915 1_555
O5 Sb0 1.973969 1_455
O6 P1 1.520656 1_555
O7 P1 1.540543 1_555
O8 P2 1.537378 1_555
O9 P3 1.509750 1_555
O10 P3 1.638242 1_555
O10 Sb0 2.018788 1_455
O11 P4 1.500862 1_545
O12 P1 1.593069 1_565
O12 Sb0 1.954141 1_555
O13 P2 1.540907 1_555
O14 P2 1.582422 1_555
O14 Sb0 1.959189 1_554
O15 P3 1.558999 1_555
O16 P4 1.563848 1_555
O17 P4 1.638688 1_555
O17 Sb0 2.022291 1_554
O18 P5 1.524529 1_555
O19 P5 1.557020 1_555
O20 P1 1.530059 1_565
O21 P5 1.637515 1_555
O21 Sb0 2.026454 1_545
O22 P2 1.520127 1_556
O23 P0 1.531836 1_655
