# generated using pymatgen
data_NdTiNbBi2O9
_symmetry_space_group_name_H-M   'P 1'
_cell_length_a   5.51266300
_cell_length_b   5.47848700
_cell_length_c   12.96928732
_cell_angle_alpha   78.18561184
_cell_angle_beta   90.00000000
_cell_angle_gamma   90.00000000
_symmetry_Int_Tables_number   1
_chemical_formula_structural   NdTiNbBi2O9
_chemical_formula_sum   'Nd2 Ti2 Nb2 Bi4 O18'
_cell_volume   383.38865124
_cell_formula_units_Z   2
loop_
 _symmetry_equiv_pos_site_id
 _symmetry_equiv_pos_as_xyz
  1  'x, y, z'
loop_
 _atom_site_type_symbol
 _atom_site_label
 _atom_site_symmetry_multiplicity
 _atom_site_fract_x
 _atom_site_fract_y
 _atom_site_fract_z
 _atom_site_occupancy
  Nd  Nd0  1  0.49824000  0.24480200  0.00019800  1
  Nd  Nd1  1  0.99824000  0.75519800  0.99980200  1
  Ti  Ti0  1  0.52787200  0.66787200  0.17117100  1
  Ti  Ti1  1  0.02787200  0.33212800  0.82882900  1
  Nb  Nb0  1  0.53199300  0.82584900  0.82901300  1
  Nb  Nb1  1  0.03199300  0.17415100  0.17098700  1
  Bi  Bi0  1  0.47411800  0.01828700  0.39881700  1
  Bi  Bi1  1  0.46768400  0.42314100  0.60137600  1
  Bi  Bi2  1  0.97411800  0.98171300  0.60118300  1
  Bi  Bi3  1  0.96768400  0.57685900  0.39862400  1
  O  O0  1  0.56524900  0.67415900  0.99888700  1
  O  O1  1  0.06524900  0.32584100  0.00111300  1
  O  O2  1  0.84139400  0.46654400  0.17205500  1
  O  O3  1  0.84691600  0.63044700  0.82814700  1
  O  O4  1  0.34139400  0.53345600  0.82794500  1
  O  O5  1  0.34691600  0.36955300  0.17185300  1
  O  O6  1  0.54847000  0.67740200  0.30904300  1
  O  O7  1  0.54235200  0.98293300  0.68552400  1
  O  O8  1  0.04847000  0.32259800  0.69095700  1
  O  O9  1  0.04235200  0.01706700  0.31447600  1
  O  O10  1  0.76776100  0.97178900  0.12362700  1
  O  O11  1  0.76971600  0.09583400  0.87572400  1
  O  O12  1  0.26776100  0.02821100  0.87637300  1
  O  O13  1  0.26971600  0.90416600  0.12427600  1
  O  O14  1  0.74002000  0.25883600  0.49768300  1
  O  O15  1  0.73891500  0.75507400  0.50245700  1
  O  O16  1  0.24002000  0.74116400  0.50231700  1
  O  O17  1  0.23891500  0.24492600  0.49754300  1
loop_
_geom_bond_atom_site_label_1
_geom_bond_atom_site_label_2
_geom_bond_distance
_geom_bond_site_symmetry_2
Nd0 O0 2.377675 1_554
Nd0 O1 2.428345 1_555
Nd0 O10 2.454943 1_545
Nd0 O11 2.459942 1_554
Nd0 O12 2.526181 1_554
Nd0 O13 2.535638 1_545
Nd0 O5 2.596571 1_555
Nd0 O4 2.606244 1_554
Nd1 O1 2.377675 1_656
Nd1 O0 2.428345 1_555
Nd1 O12 2.454943 1_665
Nd1 O13 2.459942 1_656
Nd1 O10 2.526181 1_556
Nd1 O11 2.535638 1_565
Nd1 O3 2.596571 1_555
Nd1 O2 2.606244 1_556
Nb0 O7 1.884465 1_555
Nb0 O4 1.918139 1_555
Nb0 O12 2.001734 1_565
Nb0 O3 2.040822 1_555
Nb0 O11 2.153849 1_565
Nb0 O0 2.197351 1_555
Nb1 O9 1.884465 1_555
Nb1 O2 1.918139 1_455
Nb1 O10 2.001734 1_445
Nb1 O5 2.040822 1_555
Nb1 O13 2.153849 1_545
Nb1 O1 2.197351 1_555
Bi0 O16 2.222094 1_545
Bi0 O15 2.285441 1_545
Bi0 O17 2.348034 1_555
Bi0 O6 2.429334 1_545
Bi0 O14 2.494272 1_555
Bi0 O9 2.620074 1_555
Bi1 O17 2.212582 1_555
Bi1 O16 2.311843 1_555
Bi1 O14 2.316980 1_555
Bi1 O7 2.469591 1_545
Bi1 O15 2.496616 1_555
Bi1 O8 2.594570 1_555
Bi2 O14 2.222094 1_565
Bi2 O17 2.285441 1_665
Bi2 O15 2.348034 1_555
Bi2 O8 2.429334 1_665
Bi2 O16 2.494272 1_655
Bi2 O7 2.620074 1_555
Bi3 O15 2.212582 1_555
Bi3 O14 2.311843 1_555
Bi3 O16 2.316980 1_655
Bi3 O9 2.469591 1_665
Bi3 O17 2.496616 1_655
Bi3 O6 2.594570 1_555
O0 Ti0 2.237113 1_556
O1 Ti1 2.237113 1_554
O2 Ti0 2.049065 1_555
O3 Ti1 1.913196 1_655
O4 Ti1 2.049065 1_555
O5 Ti0 1.913196 1_555
O6 Ti0 1.803096 1_555
O8 Ti1 1.803096 1_555
O10 Ti0 2.116805 1_555
O11 Ti1 1.936133 1_655
O12 Ti1 2.116805 1_555
O13 Ti0 1.936133 1_555
