# generated using pymatgen
data_K2MgFe4P6(O4F3)4
_symmetry_space_group_name_H-M   'P 1'
_cell_length_a   7.66650680
_cell_length_b   7.75972812
_cell_length_c   10.90360944
_cell_angle_alpha   101.57448341
_cell_angle_beta   109.86874420
_cell_angle_gamma   89.93581658
_symmetry_Int_Tables_number   1
_chemical_formula_structural   K2MgFe4P6(O4F3)4
_chemical_formula_sum   'K2 Mg1 Fe4 P6 O16 F12'
_cell_volume   596.05264137
_cell_formula_units_Z   1
loop_
 _symmetry_equiv_pos_site_id
 _symmetry_equiv_pos_as_xyz
  1  'x, y, z'
loop_
 _atom_site_type_symbol
 _atom_site_label
 _atom_site_symmetry_multiplicity
 _atom_site_fract_x
 _atom_site_fract_y
 _atom_site_fract_z
 _atom_site_occupancy
  K  K0  1  0.82747365  0.07837474  0.81261678  1
  K  K1  1  0.23344481  0.92933713  0.17902143  1
  Mg  Mg0  1  0.38338174  0.92228960  0.55857843  1
  Fe  Fe0  1  0.65395614  0.31423285  0.32425905  1
  Fe  Fe1  1  0.32988541  0.65209087  0.67905344  1
  Fe  Fe2  1  0.49918136  0.50907640  0.00817814  1
  Fe  Fe3  1  0.98283663  0.00644917  0.49441602  1
  P  P0  1  0.66441600  0.72959396  0.50942889  1
  P  P1  1  0.35692386  0.25552733  0.48405909  1
  P  P2  1  0.30586556  0.10877879  0.81104408  1
  P  P3  1  0.69354387  0.91326560  0.17786750  1
  P  P4  1  0.06628144  0.59048861  0.85429463  1
  P  P5  1  0.92584188  0.41276944  0.16246291  1
  O  O0  1  0.70150446  0.55765980  0.43618322  1
  O  O1  1  0.29728332  0.41368654  0.55688706  1
  O  O2  1  0.81549672  0.87718805  0.56254407  1
  O  O3  1  0.22872696  0.08559383  0.44798902  1
  O  O4  1  0.58743433  0.07489527  0.20767072  1
  O  O5  1  0.41304977  0.96384634  0.75463527  1
  O  O6  1  0.43781327  0.26893511  0.89329470  1
  O  O7  1  0.55394798  0.75188565  0.11963628  1
  O  O8  1  0.87242488  0.89353736  0.28662637  1
  O  O9  1  0.12380836  0.13991310  0.70936885  1
  O  O10  1  0.88444827  0.35000012  0.27061767  1
  O  O11  1  0.09872196  0.63854733  0.73875109  1
  O  O12  1  0.77840737  0.47159457  0.05164814  1
  O  O13  1  0.21927670  0.54559562  0.96979724  1
  O  O14  1  0.42365863  0.27255834  0.37130812  1
  O  O15  1  0.56229793  0.72941403  0.60815441  1
  F  F0  1  0.82263760  0.22311565  0.46847679  1
  F  F1  1  0.16455153  0.77614759  0.52033630  1
  F  F2  1  0.50508346  0.41404262  0.16670580  1
  F  F3  1  0.50099177  0.60552374  0.85635995  1
  F  F4  1  0.75705774  0.94522323  0.05728494  1
  F  F5  1  0.24677052  0.02900296  0.91877063  1
  F  F6  1  0.90139767  0.44492818  0.80563535  1
  F  F7  1  0.09383289  0.55445060  0.22377683  1
  F  F8  1  0.53836556  0.18775491  0.59634122  1
  F  F9  1  0.49344834  0.81290148  0.39671082  1
  F  F10  1  0.02373572  0.26076528  0.09406316  1
  F  F11  1  0.96829396  0.74735123  0.91764558  1
loop_
_geom_bond_atom_site_label_1
_geom_bond_atom_site_label_2
_geom_bond_distance
_geom_bond_site_symmetry_2
K0 O2 2.828862 1_545
K0 O9 2.934850 1_655
K0 O5 3.114404 1_545
K0 O15 3.308268 1_545
K1 O4 2.833270 1_565
K1 O3 2.952521 1_565
K1 O7 3.011474 1_555
K1 O14 3.050455 1_565
K1 O13 3.345046 1_554
K1 O8 3.384394 1_455
Mg0 O3 2.025729 1_565
Mg0 O5 2.029441 1_555
Mg0 O15 2.056626 1_555
Fe0 O4 1.984776 1_555
Fe0 O0 1.991071 1_555
Fe0 O14 2.041698 1_555
Fe0 O10 2.076155 1_555
Fe1 O1 2.011227 1_555
Fe1 O11 2.094631 1_555
Fe1 O15 2.292861 1_555
Fe1 O5 2.405032 1_555
Fe2 O6 1.981800 1_554
Fe2 O7 1.984760 1_555
Fe2 O12 2.063016 1_555
Fe2 O13 2.072701 1_554
Fe3 O2 2.037992 1_545
Fe3 O8 2.125761 1_545
Fe3 O3 2.227806 1_655
Fe3 O9 2.245105 1_655
O0 P0 1.491509 1_555
O1 P1 1.483342 1_555
O2 P0 1.506488 1_555
O3 P1 1.546440 1_555
O4 P3 1.534354 1_545
O5 P2 1.543452 1_565
O6 P2 1.520188 1_555
O7 P3 1.529286 1_555
O8 P3 1.509094 1_555
O9 P2 1.513424 1_555
O10 P5 1.487906 1_555
O11 P4 1.479813 1_555
O12 P5 1.495907 1_555
O13 P4 1.501417 1_555
O14 P1 1.511132 1_555
O15 P0 1.531387 1_555
F0 Fe0 1.925318 1_555
F0 Fe3 2.089292 1_555
F1 Mg0 1.900904 1_555
F1 Fe1 2.168641 1_555
F1 Fe3 2.267988 1_465
F2 Fe2 1.997979 1_555
F2 Fe0 2.013168 1_555
F3 Fe2 1.952774 1_556
F3 Fe1 2.035771 1_555
F4 P3 1.610445 1_555
F4 K0 3.249958 1_564
F5 P2 1.619354 1_555
F5 K0 3.076665 1_455
F5 K1 3.120710 1_546
F6 P4 1.569087 1_655
F6 K0 2.921843 1_555
F7 P5 1.561188 1_455
F7 K1 3.282958 1_555
F8 P1 1.676160 1_555
F8 Mg0 2.270956 1_545
F8 K0 2.905205 1_555
F9 P0 1.693616 1_555
F9 Mg0 2.226457 1_555
F9 K1 2.839740 1_555
F10 P5 1.592547 1_455
F10 K0 2.967782 1_454
F10 K1 3.160927 1_545
F11 P4 1.592593 1_655
F11 K1 2.949931 1_656
F11 K0 3.067376 1_565
