# generated using pymatgen
data_Mg3Si4
_symmetry_space_group_name_H-M   'P 1'
_cell_length_a   5.97266500
_cell_length_b   6.74247858
_cell_length_c   7.40464020
_cell_angle_alpha   114.51965235
_cell_angle_beta   89.54388159
_cell_angle_gamma   104.46084074
_symmetry_Int_Tables_number   1
_chemical_formula_structural   Mg3Si4
_chemical_formula_sum   'Mg6 Si8'
_cell_volume   261.14926391
_cell_formula_units_Z   2
loop_
 _symmetry_equiv_pos_site_id
 _symmetry_equiv_pos_as_xyz
  1  'x, y, z'
loop_
 _atom_site_type_symbol
 _atom_site_label
 _atom_site_symmetry_multiplicity
 _atom_site_fract_x
 _atom_site_fract_y
 _atom_site_fract_z
 _atom_site_occupancy
  Mg  Mg0  1  0.02415500  0.92006300  0.45932300  1
  Mg  Mg1  1  0.39999500  0.81256400  0.68284600  1
  Mg  Mg2  1  0.62284400  0.59518500  0.93624100  1
  Mg  Mg3  1  0.24587000  0.24890500  0.01087400  1
  Mg  Mg4  1  0.85039800  0.46213500  0.51570400  1
  Mg  Mg5  1  0.18788700  0.79869300  0.05403400  1
  Si  Si0  1  0.20774500  0.40159000  0.70854200  1
  Si  Si1  1  0.81240600  0.21709400  0.75596800  1
  Si  Si2  1  0.88185300  0.47635800  0.15628100  1
  Si  Si3  1  0.54155800  0.59646500  0.30808300  1
  Si  Si4  1  0.88714300  0.89208800  0.81187400  1
  Si  Si5  1  0.34718400  0.24918100  0.38455100  1
  Si  Si6  1  0.58826000  0.99883700  0.38012200  1
  Si  Si7  1  0.65605300  0.07729200  0.08222700  1
loop_
_geom_bond_atom_site_label_1
_geom_bond_atom_site_label_2
_geom_bond_distance
_geom_bond_site_symmetry_2
Mg0 Si4 2.795999 1_455
Mg0 Si5 2.796010 1_565
Mg0 Si2 2.810012 1_455
Mg0 Si1 2.829258 1_465
Mg0 Si6 2.894385 1_455
Mg0 Si0 2.903454 1_565
Mg0 Si3 3.034005 1_455
Mg1 Si3 2.785743 1_555
Mg1 Si0 2.806788 1_555
Mg1 Si4 2.916472 1_555
Mg1 Si7 2.932195 1_566
Mg1 Si1 3.039730 1_565
Mg1 Si6 3.075324 1_555
Mg2 Si4 2.697424 1_555
Mg2 Si0 2.704958 1_555
Mg2 Si2 2.726231 1_556
Mg2 Si3 2.788877 1_556
Mg2 Si1 2.855778 1_555
Mg2 Si7 2.922178 1_566
Mg3 Si4 2.661441 1_444
Mg3 Si3 2.677328 1_555
Mg3 Si5 2.836189 1_555
Mg3 Si0 2.856806 1_554
Mg3 Si2 2.914718 1_455
Mg3 Si7 3.092535 1_555
Mg3 Si1 3.126603 1_454
Mg4 Si2 2.705995 1_555
Mg4 Si4 2.770305 1_555
Mg4 Si0 2.779984 1_655
Mg4 Si1 2.862221 1_555
Mg4 Si6 2.862968 1_545
Mg4 Si3 2.936257 1_555
Mg4 Si5 2.961715 1_555
Mg5 Si2 2.827945 1_455
Mg5 Si0 2.862866 1_554
Mg5 Si4 2.896838 1_454
Mg5 Si7 2.907127 1_565
Mg5 Si5 2.923080 1_565
Mg5 Si6 3.024110 1_555
Si0 Si5 2.419580 1_555
Si0 Si1 2.475592 1_455
Si1 Si4 2.533185 1_545
Si1 Si2 2.714923 1_556
Si1 Si6 2.716443 1_545
Si2 Si3 2.465832 1_555
Si2 Si7 2.516772 1_555
Si3 Si6 2.479090 1_555
Si3 Si5 2.623656 1_555
Si4 Si7 2.492743 1_566
Si5 Si6 2.467907 1_545
Si6 Si7 2.481257 1_565
