# generated using pymatgen
data_KMnSn3O8
_symmetry_space_group_name_H-M   'P 1'
_cell_length_a   7.55467700
_cell_length_b   7.55467700
_cell_length_c   10.45240758
_cell_angle_alpha   47.09960005
_cell_angle_beta   47.09960005
_cell_angle_gamma   24.81945962
_symmetry_Int_Tables_number   1
_chemical_formula_structural   KMnSn3O8
_chemical_formula_sum   'K1 Mn1 Sn3 O8'
_cell_volume   179.55821475
_cell_formula_units_Z   1
loop_
 _symmetry_equiv_pos_site_id
 _symmetry_equiv_pos_as_xyz
  1  'x, y, z'
loop_
 _atom_site_type_symbol
 _atom_site_label
 _atom_site_symmetry_multiplicity
 _atom_site_fract_x
 _atom_site_fract_y
 _atom_site_fract_z
 _atom_site_occupancy
  K  K0  1  0.49577900  0.49577900  0.00336200  1
  Mn  Mn0  1  0.16576300  0.16576300  0.18245000  1
  Sn  Sn0  1  0.82977200  0.82977200  0.82902500  1
  Sn  Sn1  1  0.65179200  0.65179200  0.50628100  1
  Sn  Sn2  1  0.35692900  0.35692900  0.47881100  1
  O  O0  1  0.16356500  0.16356500  0.37261600  1
  O  O1  1  0.82993500  0.82993500  0.63083700  1
  O  O2  1  0.45728800  0.45728800  0.70768200  1
  O  O3  1  0.54647700  0.54647700  0.28925100  1
  O  O4  1  0.19838700  0.19838700  0.95835000  1
  O  O5  1  0.79841600  0.79841600  0.05362200  1
  O  O6  1  0.84865000  0.84865000  0.35010900  1
  O  O7  1  0.15724700  0.15724700  0.63760600  1
loop_
_geom_bond_atom_site_label_1
_geom_bond_atom_site_label_2
_geom_bond_distance
_geom_bond_site_symmetry_2
K0 O5 3.043149 1_455
K0 O5 3.043149 1_545
K0 O6 3.084805 1_545
K0 O6 3.084805 1_455
K0 O4 3.136061 1_564
K0 O4 3.136061 1_654
K0 O7 3.198481 1_564
K0 O7 3.198481 1_654
Mn0 O0 1.965223 1_555
Mn0 O4 2.036309 1_554
Mn0 O3 2.059399 1_455
Mn0 O3 2.059399 1_545
Mn0 O5 2.146221 1_455
Mn0 O5 2.146221 1_545
O0 Sn1 2.068709 1_455
O0 Sn1 2.068709 1_545
O1 Sn0 2.069866 1_555
O1 Sn2 2.106448 1_565
O1 Sn2 2.106448 1_655
O2 Sn1 2.060738 1_555
O2 Sn0 2.111440 1_455
O2 Sn0 2.111440 1_545
O3 Sn2 2.005894 1_555
O4 Sn0 2.137396 1_545
O4 Sn0 2.137396 1_455
O5 Sn0 2.052072 1_554
O6 Sn1 2.119625 1_555
O6 Sn2 2.165524 1_655
O6 Sn2 2.165524 1_565
O7 Sn2 2.149295 1_555
O7 Sn1 2.163445 1_455
O7 Sn1 2.163445 1_545
