# generated using pymatgen
data_Ca2Zn3Ag
_symmetry_space_group_name_H-M   'P 1'
_cell_length_a   5.72365042
_cell_length_b   5.72365042
_cell_length_c   7.37614747
_cell_angle_alpha   50.48318241
_cell_angle_beta   50.48318241
_cell_angle_gamma   47.20799480
_symmetry_Int_Tables_number   1
_chemical_formula_structural   Ca2Zn3Ag
_chemical_formula_sum   'Ca2 Zn3 Ag1'
_cell_volume   127.60027153
_cell_formula_units_Z   1
loop_
 _symmetry_equiv_pos_site_id
 _symmetry_equiv_pos_as_xyz
  1  'x, y, z'
loop_
 _atom_site_type_symbol
 _atom_site_label
 _atom_site_symmetry_multiplicity
 _atom_site_fract_x
 _atom_site_fract_y
 _atom_site_fract_z
 _atom_site_occupancy
  Ca  Ca0  1  0.55196800  0.55196800  0.69557317  1
  Ca  Ca1  1  0.44874866  0.44874866  0.30070088  1
  Zn  Zn0  1  0.82845369  0.82845369  0.74030367  1
  Zn  Zn1  1  0.84308458  0.84308458  0.09330255  1
  Zn  Zn2  1  0.16652520  0.16652520  0.89214590  1
  Ag  Ag0  1  0.16122187  0.16122187  0.27797583  1
loop_
_geom_bond_atom_site_label_1
_geom_bond_atom_site_label_2
_geom_bond_distance
_geom_bond_site_symmetry_2
Ca0 Zn1 3.119732 1_546
Ca0 Zn1 3.119732 1_456
Ca0 Zn0 3.127936 1_455
Ca0 Zn0 3.127936 1_545
Ca0 Zn0 3.138317 1_555
Ca0 Zn1 3.196873 1_555
Ca0 Zn2 3.210544 1_555
Ca0 Zn2 3.349410 1_565
Ca0 Zn2 3.349410 1_655
Ca0 Ca1 3.746392 1_555
Ca0 Ca1 3.771307 1_565
Ca0 Ca1 3.771307 1_655
Ca0 Ca1 3.792555 1_556
Ca1 Zn2 3.140019 1_555
Ca1 Zn2 3.160967 1_564
Ca1 Zn2 3.160967 1_654
Ca1 Zn0 3.175733 1_554
Ca1 Zn1 3.265270 1_555
Ca1 Zn1 3.343062 1_455
Ca1 Zn1 3.343062 1_545
Ca1 Zn0 3.417095 1_455
Ca1 Zn0 3.417095 1_545
Zn0 Zn2 2.598060 1_565
Zn0 Zn2 2.598060 1_655
Zn0 Zn1 2.712592 1_556
Zn1 Zn2 2.592493 1_664
Ag0 Zn1 2.671749 1_455
Ag0 Zn1 2.671749 1_545
Ag0 Zn0 2.698500 1_445
Ag0 Zn2 2.807595 1_554
Ag0 Ca1 3.119141 1_455
Ag0 Ca1 3.119141 1_545
Ag0 Ca1 3.134749 1_555
Ag0 Ca0 3.286438 1_554
Ag0 Ca0 3.339353 1_455
Ag0 Ca0 3.339353 1_545
