# generated using pymatgen
data_Li2Cr2FeSbO8
_symmetry_space_group_name_H-M   'P 1'
_cell_length_a   5.99244860
_cell_length_b   5.99244860
_cell_length_c   9.65077221
_cell_angle_alpha   89.84632762
_cell_angle_beta   89.84632762
_cell_angle_gamma   59.85031889
_symmetry_Int_Tables_number   1
_chemical_formula_structural   Li2Cr2FeSbO8
_chemical_formula_sum   'Li4 Cr4 Fe2 Sb2 O16'
_cell_volume   299.66928654
_cell_formula_units_Z   2
loop_
 _symmetry_equiv_pos_site_id
 _symmetry_equiv_pos_as_xyz
  1  'x, y, z'
loop_
 _atom_site_type_symbol
 _atom_site_label
 _atom_site_symmetry_multiplicity
 _atom_site_fract_x
 _atom_site_fract_y
 _atom_site_fract_z
 _atom_site_occupancy
  Li  Li0  1  0.33388500  0.33388500  0.40912400  1
  Li  Li1  1  0.66674500  0.66674500  0.90611100  1
  Li  Li2  1  0.99986000  0.99986000  0.99876700  1
  Li  Li3  1  0.99972700  0.99972700  0.49790300  1
  Cr  Cr0  1  0.17007500  0.17007500  0.72102200  1
  Cr  Cr1  1  0.17003300  0.66003700  0.72083800  1
  Cr  Cr2  1  0.66003700  0.17003300  0.72083800  1
  Cr  Cr3  1  0.82817600  0.82817600  0.22038500  1
  Fe  Fe0  1  0.82916700  0.33966500  0.22068600  1
  Fe  Fe1  1  0.33966500  0.82916700  0.22068600  1
  Sb  Sb0  1  0.33312600  0.33312600  0.99333900  1
  Sb  Sb1  1  0.66728600  0.66728600  0.49608000  1
  O  O0  1  0.99992500  0.99992500  0.81281800  1
  O  O1  1  0.99975000  0.99975000  0.31018600  1
  O  O2  1  0.16789100  0.16789100  0.10214400  1
  O  O3  1  0.16565000  0.66549800  0.10250900  1
  O  O4  1  0.66549800  0.16565000  0.10250900  1
  O  O5  1  0.83462600  0.83462600  0.60337200  1
  O  O6  1  0.83551200  0.33128300  0.60303500  1
  O  O7  1  0.33128300  0.83551200  0.60303500  1
  O  O8  1  0.48108200  0.48108200  0.85027100  1
  O  O9  1  0.48145700  0.03773700  0.84989500  1
  O  O10  1  0.03773700  0.48145700  0.84989500  1
  O  O11  1  0.51931700  0.51931700  0.35625600  1
  O  O12  1  0.52212700  0.96217600  0.35246000  1
  O  O13  1  0.96217600  0.52212700  0.35246000  1
  O  O14  1  0.33336800  0.33336800  0.61595400  1
  O  O15  1  0.66482000  0.66482000  0.11302000  1
loop_
_geom_bond_atom_site_label_1
_geom_bond_atom_site_label_2
_geom_bond_distance
_geom_bond_site_symmetry_2
Li0 O11 1.990995 1_555
Li0 O14 1.996060 1_555
Li0 O13 2.003062 1_455
Li0 O12 2.003062 1_545
Li1 O9 1.996682 1_565
Li1 O10 1.996682 1_655
Li1 O15 1.996870 1_556
Li1 O8 2.003975 1_555
Li2 O0 1.794549 1_555
Li2 O4 1.999744 1_566
Li2 O3 1.999744 1_656
Li2 O2 2.013045 1_666
Li3 O1 1.811613 1_555
Li3 O5 1.991520 1_555
Li3 O6 1.996686 1_565
Li3 O7 1.996686 1_655
Cr0 O14 1.973420 1_555
Cr0 O0 1.974507 1_445
Cr0 O9 2.044065 1_555
Cr0 O10 2.044065 1_555
Cr0 O6 2.076065 1_455
Cr0 O7 2.076065 1_545
Cr1 O0 1.973507 1_455
Cr1 O14 1.973630 1_555
Cr1 O10 2.040762 1_555
Cr1 O8 2.044999 1_555
Cr1 O5 2.076774 1_455
Cr1 O7 2.083335 1_555
Cr2 O0 1.973507 1_545
Cr2 O14 1.973630 1_555
Cr2 O9 2.040762 1_555
Cr2 O8 2.044999 1_555
Cr2 O5 2.076774 1_545
Cr2 O6 2.083335 1_555
Cr3 O1 1.984109 1_555
Cr3 O15 1.990875 1_555
Cr3 O12 2.036315 1_555
Cr3 O13 2.036315 1_555
Cr3 O4 2.085040 1_565
Cr3 O3 2.085040 1_655
Fe0 O1 1.960547 1_545
Fe0 O15 1.978162 1_555
Fe0 O11 2.074826 1_555
Fe0 O13 2.082402 1_555
Fe0 O2 2.093665 1_655
Fe0 O4 2.095181 1_555
Fe1 O1 1.960547 1_455
Fe1 O15 1.978162 1_555
Fe1 O11 2.074826 1_555
Fe1 O12 2.082402 1_555
Fe1 O2 2.093665 1_565
Fe1 O3 2.095181 1_555
O2 Sb0 2.009267 1_554
O3 Sb0 2.020357 1_554
O4 Sb0 2.020357 1_554
O5 Sb1 2.025963 1_555
O6 Sb1 2.022689 1_555
O7 Sb1 2.022689 1_555
O8 Sb0 2.062784 1_555
O9 Sb0 2.065383 1_555
O10 Sb0 2.065383 1_555
O11 Sb1 2.048412 1_555
O12 Sb1 2.061480 1_555
O13 Sb1 2.061480 1_555
