# generated using pymatgen
data_CoTc
_symmetry_space_group_name_H-M   'P 1'
_cell_length_a   5.31658777
_cell_length_b   5.31658777
_cell_length_c   8.26529800
_cell_angle_alpha   90.00000000
_cell_angle_beta   90.00000000
_cell_angle_gamma   119.99999710
_symmetry_Int_Tables_number   1
_chemical_formula_structural   CoTc
_chemical_formula_sum   'Co8 Tc8'
_cell_volume   202.32760284
_cell_formula_units_Z   8
loop_
 _symmetry_equiv_pos_site_id
 _symmetry_equiv_pos_as_xyz
  1  'x, y, z'
loop_
 _atom_site_type_symbol
 _atom_site_label
 _atom_site_symmetry_multiplicity
 _atom_site_fract_x
 _atom_site_fract_y
 _atom_site_fract_z
 _atom_site_occupancy
  Co  Co0_0  1  0.16666650  0.33333350  0.00000000  1
  Co  Co0_1  1  0.16666650  0.33333350  0.50000000  1
  Co  Co0_2  1  0.16666650  0.83333350  0.00000000  1
  Co  Co0_3  1  0.16666650  0.83333350  0.50000000  1
  Co  Co0_4  1  0.66666650  0.33333350  0.00000000  1
  Co  Co0_5  1  0.66666650  0.33333350  0.50000000  1
  Co  Co0_6  1  0.66666650  0.83333350  0.00000000  1
  Co  Co0_7  1  0.66666650  0.83333350  0.50000000  1
  Tc  Tc0_0  1  0.33333350  0.16666650  0.25000000  1
  Tc  Tc0_1  1  0.33333350  0.16666650  0.75000000  1
  Tc  Tc0_2  1  0.33333350  0.66666650  0.25000000  1
  Tc  Tc0_3  1  0.33333350  0.66666650  0.75000000  1
  Tc  Tc0_4  1  0.83333350  0.16666650  0.25000000  1
  Tc  Tc0_5  1  0.83333350  0.16666650  0.75000000  1
  Tc  Tc0_6  1  0.83333350  0.66666650  0.25000000  1
  Tc  Tc0_7  1  0.83333350  0.66666650  0.75000000  1
loop_
_geom_bond_atom_site_label_1
_geom_bond_atom_site_label_2
_geom_bond_distance
_geom_bond_site_symmetry_2
Co0_0 Tc0_3 2.573947 1_554
Co0_0 Tc0_5 2.573947 1_454
Co0_0 Tc0_2 2.573947 1_555
Co0_0 Tc0_4 2.573947 1_455
Co0_0 Tc0_1 2.573949 1_554
Co0_0 Tc0_0 2.573949 1_555
Co0_0 Co0_2 2.658294 1_545
Co0_0 Co0_4 2.658294 1_555
Co0_0 Co0_2 2.658294 1_555
Co0_0 Co0_4 2.658294 1_455
Co0_0 Co0_6 2.658294 1_555
Co0_0 Co0_6 2.658294 1_445
Co0_1 Tc0_5 2.573947 1_455
Co0_1 Tc0_2 2.573947 1_555
Co0_1 Tc0_4 2.573947 1_455
Co0_1 Tc0_3 2.573947 1_555
Co0_1 Tc0_0 2.573949 1_555
Co0_1 Tc0_1 2.573949 1_555
Co0_1 Co0_5 2.658294 1_555
Co0_1 Co0_3 2.658294 1_545
Co0_1 Co0_3 2.658294 1_555
Co0_1 Co0_5 2.658294 1_455
Co0_1 Co0_7 2.658294 1_555
Co0_1 Co0_7 2.658294 1_445
Co0_2 Tc0_7 2.573947 1_454
Co0_2 Tc0_0 2.573947 1_565
Co0_2 Tc0_1 2.573947 1_564
Co0_2 Tc0_6 2.573947 1_455
Co0_2 Tc0_2 2.573949 1_555
Co0_2 Tc0_3 2.573949 1_554
Co0_2 Co0_6 2.658294 1_555
Co0_2 Co0_6 2.658294 1_455
Co0_2 Co0_4 2.658294 1_565
Co0_2 Co0_4 2.658294 1_455
Co0_3 Tc0_7 2.573947 1_455
Co0_3 Tc0_0 2.573947 1_565
Co0_3 Tc0_1 2.573947 1_565
Co0_3 Tc0_6 2.573947 1_455
Co0_3 Tc0_2 2.573949 1_555
Co0_3 Tc0_3 2.573949 1_555
Co0_3 Co0_7 2.658294 1_555
Co0_3 Co0_7 2.658294 1_455
Co0_3 Co0_5 2.658294 1_565
Co0_3 Co0_5 2.658294 1_455
Co0_4 Tc0_0 2.573947 1_555
Co0_4 Tc0_1 2.573947 1_554
Co0_4 Tc0_7 2.573947 1_554
Co0_4 Tc0_6 2.573947 1_555
Co0_4 Tc0_5 2.573949 1_554
Co0_4 Tc0_4 2.573949 1_555
Co0_4 Co0_6 2.658294 1_545
Co0_4 Co0_6 2.658294 1_555
Co0_5 Tc0_0 2.573947 1_555
Co0_5 Tc0_7 2.573947 1_555
Co0_5 Tc0_1 2.573947 1_555
Co0_5 Tc0_6 2.573947 1_555
Co0_5 Tc0_5 2.573949 1_555
Co0_5 Tc0_4 2.573949 1_555
Co0_5 Co0_7 2.658294 1_545
Co0_5 Co0_7 2.658294 1_555
Co0_6 Tc0_3 2.573947 1_554
Co0_6 Tc0_2 2.573947 1_555
Co0_6 Tc0_4 2.573947 1_565
Co0_6 Tc0_5 2.573947 1_564
Co0_6 Tc0_6 2.573949 1_555
Co0_6 Tc0_7 2.573949 1_554
Co0_7 Tc0_2 2.573947 1_555
Co0_7 Tc0_4 2.573947 1_565
Co0_7 Tc0_5 2.573947 1_565
Co0_7 Tc0_3 2.573947 1_555
Co0_7 Tc0_6 2.573949 1_555
Co0_7 Tc0_7 2.573949 1_555
Tc0_0 Tc0_4 2.658294 1_455
Tc0_0 Tc0_2 2.658294 1_555
Tc0_0 Tc0_4 2.658294 1_555
Tc0_0 Tc0_2 2.658294 1_545
Tc0_0 Tc0_6 2.658294 1_445
Tc0_0 Tc0_6 2.658294 1_555
Tc0_1 Tc0_3 2.658294 1_555
Tc0_1 Tc0_5 2.658294 1_455
Tc0_1 Tc0_3 2.658294 1_545
Tc0_1 Tc0_5 2.658294 1_555
Tc0_1 Tc0_7 2.658294 1_445
Tc0_1 Tc0_7 2.658294 1_555
Tc0_2 Tc0_6 2.658294 1_455
Tc0_2 Tc0_6 2.658294 1_555
Tc0_2 Tc0_4 2.658294 1_455
Tc0_2 Tc0_4 2.658294 1_565
Tc0_3 Tc0_7 2.658294 1_455
Tc0_3 Tc0_7 2.658294 1_555
Tc0_3 Tc0_5 2.658294 1_455
Tc0_3 Tc0_5 2.658294 1_565
Tc0_4 Tc0_6 2.658294 1_555
Tc0_4 Tc0_6 2.658294 1_545
Tc0_5 Tc0_7 2.658294 1_555
Tc0_5 Tc0_7 2.658294 1_545
