# generated using pymatgen
data_CaSn4S9
_symmetry_space_group_name_H-M   'P 1'
_cell_length_a   6.35697800
_cell_length_b   14.38189626
_cell_length_c   14.38184241
_cell_angle_alpha   119.99987733
_cell_angle_beta   90.00000283
_cell_angle_gamma   90.00063343
_symmetry_Int_Tables_number   1
_chemical_formula_structural   CaSn4S9
_chemical_formula_sum   'Ca3 Sn12 S27'
_cell_volume   1138.70847852
_cell_formula_units_Z   3
loop_
 _symmetry_equiv_pos_site_id
 _symmetry_equiv_pos_as_xyz
  1  'x, y, z'
loop_
 _atom_site_type_symbol
 _atom_site_label
 _atom_site_symmetry_multiplicity
 _atom_site_fract_x
 _atom_site_fract_y
 _atom_site_fract_z
 _atom_site_occupancy
  Ca  Ca0  1  0.99997700  0.67175600  0.67175600  1
  Ca  Ca1  1  0.00002300  0.32824400  0.00000100  1
  Ca  Ca2  1  0.00000000  0.00000000  0.32824200  1
  Sn  Sn0  1  0.00000000  0.00000000  0.00000200  1
  Sn  Sn1  1  0.12391100  0.33332600  0.66666400  1
  Sn  Sn2  1  0.87608900  0.66667400  0.33333700  1
  Sn  Sn3  1  0.50000700  0.18183800  0.18183600  1
  Sn  Sn4  1  0.49999300  0.81816200  0.99999800  1
  Sn  Sn5  1  0.50000000  0.00000000  0.81816300  1
  Sn  Sn6  1  0.38987500  0.85087400  0.50485400  1
  Sn  Sn7  1  0.38982700  0.49515500  0.34601100  1
  Sn  Sn8  1  0.38989400  0.65396600  0.14912100  1
  Sn  Sn9  1  0.61012500  0.14912600  0.65397900  1
  Sn  Sn10  1  0.61010600  0.34603400  0.49515500  1
  Sn  Sn11  1  0.61017300  0.50484500  0.85085600  1
  S  S0  1  0.49998700  0.51795200  0.51794100  1
  S  S1  1  0.50001300  0.48204800  0.99998900  1
  S  S2  1  0.50000000  0.00000000  0.48204100  1
  S  S3  1  0.11362100  0.82732000  0.37586100  1
  S  S4  1  0.11359700  0.62415300  0.45146900  1
  S  S5  1  0.11362400  0.54854000  0.17268700  1
  S  S6  1  0.88637900  0.17268000  0.54854100  1
  S  S7  1  0.88637600  0.45146000  0.62414700  1
  S  S8  1  0.88640300  0.37584700  0.82731700  1
  S  S9  1  0.75960900  0.88159700  0.83644600  1
  S  S10  1  0.75962000  0.16355900  0.04515600  1
  S  S11  1  0.75961300  0.95484600  0.11840400  1
  S  S12  1  0.24039100  0.11840300  0.95485000  1
  S  S13  1  0.24038700  0.04515400  0.16355900  1
  S  S14  1  0.24038000  0.83644100  0.88159700  1
  S  S15  1  0.23252900  0.90141800  0.67823600  1
  S  S16  1  0.23253100  0.32176600  0.22318100  1
  S  S17  1  0.23253300  0.77681500  0.09859000  1
  S  S18  1  0.76747100  0.09858200  0.77681800  1
  S  S19  1  0.76746700  0.22318500  0.32177500  1
  S  S20  1  0.76746900  0.67823400  0.90141600  1
  S  S21  1  0.66847800  0.73789800  0.50544000  1
  S  S22  1  0.66846000  0.49459000  0.23246800  1
  S  S23  1  0.66846900  0.76755400  0.26211500  1
  S  S24  1  0.33152200  0.26210200  0.76754200  1
  S  S25  1  0.33153100  0.23244600  0.49456200  1
  S  S26  1  0.33154000  0.50541000  0.73787800  1
loop_
_geom_bond_atom_site_label_1
_geom_bond_atom_site_label_2
_geom_bond_distance
_geom_bond_site_symmetry_2
Ca0 S4 2.976325 1_655
Ca0 S7 2.976394 1_555
Ca0 S9 3.147172 1_555
Ca0 S14 3.147227 1_655
Ca1 S8 2.976325 1_454
Ca1 S5 2.976389 1_555
Ca1 S12 3.147172 1_554
Ca1 S10 3.147219 1_455
Ca2 S6 2.976432 1_455
Ca2 S3 2.976432 1_545
Ca2 S13 3.147140 1_555
Ca2 S11 3.147152 1_445
S0 Sn10 2.429095 1_555
S0 Sn7 2.429257 1_555
S1 Sn8 2.429095 1_556
S1 Sn11 2.429257 1_555
S2 Sn9 2.429223 1_555
S2 Sn6 2.429231 1_545
S3 Sn6 2.451926 1_555
S3 Sn2 2.564947 1_455
S4 Sn7 2.451937 1_555
S4 Sn2 2.564957 1_455
S5 Sn8 2.451942 1_555
S5 Sn2 2.565050 1_455
S6 Sn9 2.451916 1_555
S6 Sn1 2.564950 1_655
S7 Sn10 2.451942 1_555
S7 Sn1 2.565058 1_655
S8 Sn11 2.451941 1_555
S8 Sn1 2.564957 1_655
S9 Sn5 2.477957 1_565
S9 Sn0 2.600471 1_666
S10 Sn3 2.477912 1_555
S10 Sn0 2.600491 1_655
S11 Sn4 2.477978 1_554
S11 Sn0 2.600457 1_665
S12 Sn5 2.477964 1_555
S12 Sn0 2.600463 1_556
S13 Sn3 2.477982 1_555
S13 Sn0 2.600468 1_555
S14 Sn4 2.477912 1_555
S14 Sn0 2.600491 1_566
S15 Sn6 2.436005 1_555
S15 Sn5 2.469362 1_565
S16 Sn7 2.435910 1_555
S16 Sn3 2.469423 1_555
S17 Sn8 2.436067 1_555
S17 Sn4 2.469433 1_554
S18 Sn9 2.436017 1_555
S18 Sn5 2.469362 1_555
S19 Sn10 2.436067 1_555
S19 Sn3 2.469433 1_555
S20 Sn11 2.435907 1_555
S20 Sn4 2.469421 1_555
S21 Sn6 2.406353 1_555
S21 Sn2 2.526289 1_555
S22 Sn7 2.406392 1_555
S22 Sn2 2.526134 1_555
S23 Sn8 2.406410 1_555
S23 Sn2 2.526314 1_555
S24 Sn9 2.406358 1_555
S24 Sn1 2.526277 1_555
S25 Sn10 2.406414 1_555
S25 Sn1 2.526314 1_555
S26 Sn11 2.406392 1_555
S26 Sn1 2.526135 1_555
