# generated using pymatgen
data_CaZn2Si2HO7
_symmetry_space_group_name_H-M   'P 1'
_cell_length_a   5.35681615
_cell_length_b   5.35681615
_cell_length_c   12.65620100
_cell_angle_alpha   90.00000000
_cell_angle_beta   90.00000000
_cell_angle_gamma   108.48321003
_symmetry_Int_Tables_number   1
_chemical_formula_structural   CaZn2Si2HO7
_chemical_formula_sum   'Ca2 Zn4 Si4 H2 O14'
_cell_volume   344.44191227
_cell_formula_units_Z   2
loop_
 _symmetry_equiv_pos_site_id
 _symmetry_equiv_pos_as_xyz
  1  'x, y, z'
loop_
 _atom_site_type_symbol
 _atom_site_label
 _atom_site_symmetry_multiplicity
 _atom_site_fract_x
 _atom_site_fract_y
 _atom_site_fract_z
 _atom_site_occupancy
  Ca  Ca0  1  0.14694800  0.34258600  0.75000000  1
  Ca  Ca1  1  0.65741400  0.85305200  0.25000000  1
  Zn  Zn0  1  0.50055800  0.49944200  0.00000000  1
  Zn  Zn1  1  0.50055800  0.49944200  0.50000000  1
  Zn  Zn2  1  0.00315700  0.99684300  0.00000000  1
  Zn  Zn3  1  0.00315700  0.99684300  0.50000000  1
  Si  Si0  1  0.51171200  0.98135300  0.86794900  1
  Si  Si1  1  0.01864700  0.48828800  0.13205100  1
  Si  Si2  1  0.01864700  0.48828800  0.36794900  1
  Si  Si3  1  0.51171200  0.98135300  0.63205100  1
  H  H0  1  0.88418300  0.66583500  0.75000000  1
  H  H1  1  0.33416500  0.11581700  0.25000000  1
  O  O0  1  0.42298200  0.07472100  0.75000000  1
  O  O1  1  0.92527900  0.57701800  0.25000000  1
  O  O2  1  0.37564700  0.12649700  0.95533500  1
  O  O3  1  0.87350300  0.62435300  0.04466500  1
  O  O4  1  0.87350300  0.62435300  0.45533500  1
  O  O5  1  0.37564700  0.12649700  0.54466500  1
  O  O6  1  0.83240600  0.09012200  0.87376600  1
  O  O7  1  0.90987800  0.16759400  0.12623400  1
  O  O8  1  0.90987800  0.16759400  0.37376600  1
  O  O9  1  0.83240600  0.09012200  0.62623400  1
  O  O10  1  0.38989100  0.66098600  0.87456100  1
  O  O11  1  0.33901400  0.61010900  0.12543900  1
  O  O12  1  0.33901400  0.61010900  0.37456100  1
  O  O13  1  0.38989100  0.66098600  0.62543900  1
loop_
_geom_bond_atom_site_label_1
_geom_bond_atom_site_label_2
_geom_bond_distance
_geom_bond_site_symmetry_2
Ca0 O0 2.364464 1_555
Ca0 O6 2.382610 1_455
Ca0 O9 2.382610 1_455
Ca0 O10 2.383403 1_555
Ca0 O13 2.383403 1_555
Ca0 H0 2.554426 1_455
Ca1 O1 2.364464 1_555
Ca1 O8 2.382610 1_565
Ca1 O7 2.382610 1_565
Ca1 O11 2.383403 1_555
Ca1 O12 2.383403 1_555
Ca1 H1 2.554426 1_565
O0 Si0 1.689739 1_545
O0 Si3 1.689739 1_545
O1 Si2 1.689739 1_655
O1 Si1 1.689739 1_655
O2 Si0 1.648722 1_545
O2 Zn2 1.976029 1_546
O2 Zn0 1.977597 1_556
O3 Si1 1.648722 1_655
O3 Zn2 1.976029 1_655
O3 Zn0 1.977597 1_555
O4 Si2 1.648722 1_655
O4 Zn3 1.976029 1_655
O4 Zn1 1.977597 1_555
O5 Si3 1.648722 1_545
O5 Zn3 1.976029 1_545
O5 Zn1 1.977597 1_555
O6 Si0 1.631390 1_545
O6 Zn2 1.982064 1_646
O7 Si1 1.631390 1_655
O7 Zn2 1.982064 1_645
O8 Si2 1.631390 1_655
O8 Zn3 1.982064 1_645
O9 Si3 1.631390 1_545
O9 Zn3 1.982064 1_645
O10 Si0 1.633380 1_555
O10 Zn0 1.986448 1_556
O11 Si1 1.633380 1_555
O11 Zn0 1.986448 1_555
O12 Si2 1.633380 1_555
O12 Zn1 1.986448 1_555
O13 Si3 1.633380 1_555
O13 Zn1 1.986448 1_555
