# generated using pymatgen
data_Hf(TeSe3)2
_symmetry_space_group_name_H-M   'P 1'
_cell_length_a   6.15823582
_cell_length_b   8.50430886
_cell_length_c   11.98451100
_cell_angle_alpha   90.00000000
_cell_angle_beta   90.00000000
_cell_angle_gamma   108.60794229
_symmetry_Int_Tables_number   1
_chemical_formula_structural   Hf(TeSe3)2
_chemical_formula_sum   'Hf2 Te4 Se12'
_cell_volume   594.83651830
_cell_formula_units_Z   2
loop_
 _symmetry_equiv_pos_site_id
 _symmetry_equiv_pos_as_xyz
  1  'x, y, z'
loop_
 _atom_site_type_symbol
 _atom_site_label
 _atom_site_symmetry_multiplicity
 _atom_site_fract_x
 _atom_site_fract_y
 _atom_site_fract_z
 _atom_site_occupancy
  Hf  Hf0  1  0.50000000  0.00000000  0.00000000  1
  Hf  Hf1  1  0.00000000  0.50000000  0.50000000  1
  Te  Te0  1  0.83202700  0.72255300  0.18649300  1
  Te  Te1  1  0.66797300  0.77744700  0.68649300  1
  Te  Te2  1  0.33202700  0.22255300  0.31350700  1
  Te  Te3  1  0.16797300  0.27744700  0.81350700  1
  Se  Se0  1  0.79387100  0.00851100  0.16851900  1
  Se  Se1  1  0.54749900  0.73581000  0.89866600  1
  Se  Se2  1  0.31231200  0.77791800  0.57558500  1
  Se  Se3  1  0.68768800  0.22208200  0.42441500  1
  Se  Se4  1  0.45250100  0.26419000  0.10133400  1
  Se  Se5  1  0.04749900  0.23581000  0.60133400  1
  Se  Se6  1  0.81231200  0.27791800  0.92441500  1
  Se  Se7  1  0.18768800  0.72208200  0.07558500  1
  Se  Se8  1  0.95250100  0.76419000  0.39866600  1
  Se  Se9  1  0.20612900  0.99148900  0.83148100  1
  Se  Se10  1  0.29387100  0.50851100  0.33148100  1
  Se  Se11  1  0.70612900  0.49148900  0.66851900  1
loop_
_geom_bond_atom_site_label_1
_geom_bond_atom_site_label_2
_geom_bond_distance
_geom_bond_site_symmetry_2
Hf0 Se1 2.650988 1_544
Hf0 Se4 2.650988 1_555
Hf0 Se6 2.684169 1_554
Hf0 Se7 2.684169 1_545
Hf0 Se0 2.697334 1_555
Hf0 Se9 2.697334 1_544
Hf1 Se5 2.650988 1_555
Hf1 Se8 2.650988 1_455
Hf1 Se2 2.684169 1_555
Hf1 Se3 2.684169 1_455
Hf1 Se11 2.697334 1_455
Hf1 Se10 2.697334 1_555
Se0 Te0 2.525926 1_545
Se1 Te1 2.640821 1_555
Se2 Te1 2.563104 1_555
Se3 Te2 2.563104 1_555
Se4 Te2 2.640821 1_555
Se5 Te3 2.640821 1_555
Se6 Te3 2.563104 1_655
Se7 Te0 2.563104 1_455
Se8 Te0 2.640821 1_555
Se9 Te3 2.525926 1_565
Se10 Te2 2.525926 1_555
Se11 Te1 2.525926 1_555
