# generated using pymatgen
data_YbSn2BiO7
_symmetry_space_group_name_H-M   'P 1'
_cell_length_a   7.47523800
_cell_length_b   7.47523800
_cell_length_c   7.47523800
_cell_angle_alpha   120.17595819
_cell_angle_beta   119.66463691
_cell_angle_gamma   90.13867324
_symmetry_Int_Tables_number   1
_chemical_formula_structural   YbSn2BiO7
_chemical_formula_sum   'Yb2 Sn4 Bi2 O14'
_cell_volume   295.71326181
_cell_formula_units_Z   2
loop_
 _symmetry_equiv_pos_site_id
 _symmetry_equiv_pos_as_xyz
  1  'x, y, z'
loop_
 _atom_site_type_symbol
 _atom_site_label
 _atom_site_symmetry_multiplicity
 _atom_site_fract_x
 _atom_site_fract_y
 _atom_site_fract_z
 _atom_site_occupancy
  Yb  Yb0  1  0.50000000  0.00000000  0.00000000  1
  Yb  Yb1  1  0.50000000  0.50000000  0.50000000  1
  Sn  Sn0  1  0.50000000  0.50000000  0.00000000  1
  Sn  Sn1  1  0.00000000  0.50000000  0.50000000  1
  Sn  Sn2  1  0.00000000  0.50000000  0.00000000  1
  Sn  Sn3  1  0.00000000  0.00000000  0.50000000  1
  Bi  Bi0  1  0.00000000  0.00000000  0.00000000  1
  Bi  Bi1  1  0.50000000  0.00000000  0.50000000  1
  O  O0  1  0.63855000  0.88855000  0.75000000  1
  O  O1  1  0.36145000  0.11145000  0.25000000  1
  O  O2  1  0.08692800  0.83692800  0.25000000  1
  O  O3  1  0.66440400  0.41440400  0.25000000  1
  O  O4  1  0.08374700  0.83936100  0.67532600  1
  O  O5  1  0.66403500  0.40842100  0.82467400  1
  O  O6  1  0.66403500  0.83936100  0.25561300  1
  O  O7  1  0.08374700  0.40842100  0.24438700  1
  O  O8  1  0.91307200  0.16307200  0.75000000  1
  O  O9  1  0.33559600  0.58559600  0.75000000  1
  O  O10  1  0.91625300  0.16063900  0.32467400  1
  O  O11  1  0.33596500  0.59157900  0.17532600  1
  O  O12  1  0.33596500  0.16063900  0.74438700  1
  O  O13  1  0.91625300  0.59157900  0.75561300  1
loop_
_geom_bond_atom_site_label_1
_geom_bond_atom_site_label_2
_geom_bond_distance
_geom_bond_site_symmetry_2
Bi0 O1 2.216465 1_555
Bi0 O0 2.216465 1_444
Bi0 O13 2.510374 1_444
Bi0 O7 2.510374 1_555
Bi0 O4 2.510374 1_544
Bi0 O10 2.510374 1_455
Bi0 O8 2.548069 1_454
Bi0 O2 2.548069 1_545
Bi1 O1 2.216465 1_555
Bi1 O0 2.216465 1_545
Bi1 O5 2.510374 1_555
Bi1 O11 2.510374 1_545
Bi1 O6 2.510380 1_545
Bi1 O12 2.510380 1_555
Bi1 O8 2.548069 1_555
Bi1 O2 2.548069 1_545
O0 Yb0 2.369393 1_566
O0 Yb1 2.369393 1_555
O1 Yb0 2.369393 1_555
O1 Yb1 2.369393 1_555
O2 Sn3 2.077581 1_565
O2 Sn2 2.077581 1_555
O3 Sn1 2.084407 1_655
O3 Sn0 2.084407 1_555
O3 Yb0 2.547010 1_555
O3 Yb1 2.547010 1_555
O4 Sn3 2.079712 1_565
O4 Sn1 2.093496 1_555
O4 Yb0 2.567332 1_566
O5 Sn2 2.079712 1_656
O5 Sn0 2.093496 1_556
O5 Yb1 2.567332 1_555
O6 Sn3 2.079712 1_665
O6 Sn0 2.093496 1_555
O6 Yb0 2.567327 1_565
O7 Sn2 2.079719 1_555
O7 Sn1 2.093489 1_555
O7 Yb1 2.567332 1_555
O8 Sn3 2.077581 1_655
O8 Sn2 2.077581 1_656
O9 Sn1 2.084407 1_555
O9 Sn0 2.084407 1_556
O9 Yb0 2.547010 1_566
O9 Yb1 2.547010 1_555
O10 Sn3 2.079712 1_655
O10 Sn1 2.093496 1_655
O10 Yb0 2.567332 1_555
O11 Sn2 2.079712 1_555
O11 Sn0 2.093496 1_555
O11 Yb1 2.567332 1_555
O12 Sn3 2.079712 1_555
O12 Sn0 2.093496 1_556
O12 Yb0 2.567327 1_556
O13 Sn2 2.079719 1_656
O13 Sn1 2.093489 1_655
O13 Yb1 2.567332 1_555
