# generated using pymatgen
data_Rb
_symmetry_space_group_name_H-M   'P 1'
_cell_length_a   30.27711242
_cell_length_b   26.55197965
_cell_length_c   16.09766981
_cell_angle_alpha   86.81879286
_cell_angle_beta   61.11772603
_cell_angle_gamma   32.06348110
_symmetry_Int_Tables_number   1
_chemical_formula_structural   Rb
_chemical_formula_sum   Rb32
_cell_volume   3900.90979974
_cell_formula_units_Z   32
loop_
 _symmetry_equiv_pos_site_id
 _symmetry_equiv_pos_as_xyz
  1  'x, y, z'
loop_
 _atom_site_type_symbol
 _atom_site_label
 _atom_site_symmetry_multiplicity
 _atom_site_fract_x
 _atom_site_fract_y
 _atom_site_fract_z
 _atom_site_occupancy
  Rb  Rb0_0  1  0.45849850  0.45849850  0.29150150  1
  Rb  Rb0_1  1  0.45849850  0.45849850  0.79150150  1
  Rb  Rb0_2  1  0.45849850  0.95849850  0.29150150  1
  Rb  Rb0_3  1  0.45849850  0.95849850  0.79150150  1
  Rb  Rb0_4  1  0.95849850  0.45849850  0.29150150  1
  Rb  Rb0_5  1  0.95849850  0.45849850  0.79150150  1
  Rb  Rb0_6  1  0.95849850  0.95849850  0.29150150  1
  Rb  Rb0_7  1  0.95849850  0.95849850  0.79150150  1
  Rb  Rb1_0  1  0.16650150  0.16650150  0.33349850  1
  Rb  Rb1_1  1  0.16650150  0.16650150  0.83349850  1
  Rb  Rb1_2  1  0.16650150  0.66650150  0.33349850  1
  Rb  Rb1_3  1  0.16650150  0.66650150  0.83349850  1
  Rb  Rb1_4  1  0.66650150  0.16650150  0.33349850  1
  Rb  Rb1_5  1  0.66650150  0.16650150  0.83349850  1
  Rb  Rb1_6  1  0.66650150  0.66650150  0.33349850  1
  Rb  Rb1_7  1  0.66650150  0.66650150  0.83349850  1
  Rb  Rb2_0  1  0.29150150  0.29150150  0.45849850  1
  Rb  Rb2_1  1  0.29150150  0.29150150  0.95849850  1
  Rb  Rb2_2  1  0.29150150  0.79150150  0.45849850  1
  Rb  Rb2_3  1  0.29150150  0.79150150  0.95849850  1
  Rb  Rb2_4  1  0.79150150  0.29150150  0.45849850  1
  Rb  Rb2_5  1  0.79150150  0.29150150  0.95849850  1
  Rb  Rb2_6  1  0.79150150  0.79150150  0.45849850  1
  Rb  Rb2_7  1  0.79150150  0.79150150  0.95849850  1
  Rb  Rb3_0  1  0.33349850  0.33349850  0.16650150  1
  Rb  Rb3_1  1  0.33349850  0.33349850  0.66650150  1
  Rb  Rb3_2  1  0.33349850  0.83349850  0.16650150  1
  Rb  Rb3_3  1  0.33349850  0.83349850  0.66650150  1
  Rb  Rb3_4  1  0.83349850  0.33349850  0.16650150  1
  Rb  Rb3_5  1  0.83349850  0.33349850  0.66650150  1
  Rb  Rb3_6  1  0.83349850  0.83349850  0.16650150  1
  Rb  Rb3_7  1  0.83349850  0.83349850  0.66650150  1
loop_
_geom_bond_atom_site_label_1
_geom_bond_atom_site_label_2
_geom_bond_distance
_geom_bond_site_symmetry_2
Rb0_0 Rb1_2 4.582840 1_555
Rb0_0 Rb1_4 4.582840 1_555
Rb0_0 Rb0_7 4.870270 1_544
Rb0_0 Rb0_7 4.870270 1_455
Rb0_0 Rb2_2 4.970394 1_555
Rb0_0 Rb2_5 4.970394 1_554
Rb0_1 Rb1_5 4.582840 1_555
Rb0_1 Rb1_3 4.582840 1_555
Rb0_1 Rb0_6 4.870270 1_456
Rb0_1 Rb0_6 4.870270 1_545
Rb0_1 Rb2_4 4.970394 1_555
Rb0_1 Rb2_3 4.970394 1_555
Rb0_2 Rb1_6 4.582840 1_555
Rb0_2 Rb1_0 4.582840 1_565
Rb0_2 Rb0_5 4.870270 1_465
Rb0_2 Rb0_5 4.870270 1_554
Rb0_2 Rb2_7 4.970394 1_554
Rb0_2 Rb2_0 4.970394 1_565
Rb0_3 Rb1_1 4.582840 1_565
Rb0_3 Rb1_7 4.582840 1_555
Rb0_3 Rb0_4 4.870270 1_555
Rb0_3 Rb0_4 4.870270 1_466
Rb0_3 Rb2_6 4.970394 1_555
Rb0_3 Rb2_1 4.970394 1_565
Rb0_4 Rb1_6 4.582840 1_555
Rb0_4 Rb1_0 4.582840 1_655
Rb0_4 Rb2_6 4.970394 1_555
Rb0_4 Rb2_1 4.970394 1_654
Rb0_5 Rb1_7 4.582840 1_555
Rb0_5 Rb1_1 4.582840 1_655
Rb0_5 Rb2_0 4.970394 1_655
Rb0_5 Rb2_7 4.970394 1_555
Rb0_6 Rb1_4 4.582840 1_565
Rb0_6 Rb1_2 4.582840 1_655
Rb0_6 Rb2_4 4.970394 1_565
Rb0_6 Rb2_3 4.970394 1_654
Rb0_7 Rb1_3 4.582840 1_655
Rb0_7 Rb1_5 4.582840 1_565
Rb0_7 Rb2_2 4.970394 1_655
Rb0_7 Rb2_5 4.970394 1_565
Rb1_0 Rb1_7 4.870270 1_455
Rb1_0 Rb1_7 4.870270 1_544
Rb1_0 Rb3_5 4.970394 1_455
Rb1_0 Rb3_2 4.970394 1_545
Rb1_1 Rb1_6 4.870270 1_456
Rb1_1 Rb1_6 4.870270 1_545
Rb1_1 Rb3_4 4.970394 1_456
Rb1_1 Rb3_3 4.970394 1_545
Rb1_2 Rb1_5 4.870270 1_465
Rb1_2 Rb1_5 4.870270 1_554
Rb1_2 Rb3_7 4.970394 1_455
Rb1_2 Rb3_0 4.970394 1_555
Rb1_3 Rb1_4 4.870270 1_555
Rb1_3 Rb1_4 4.870270 1_466
Rb1_3 Rb3_1 4.970394 1_555
Rb1_3 Rb3_6 4.970394 1_456
Rb1_4 Rb3_6 4.970394 1_545
Rb1_4 Rb3_1 4.970394 1_555
Rb1_5 Rb3_7 4.970394 1_545
Rb1_5 Rb3_0 4.970394 1_556
Rb1_6 Rb3_3 4.970394 1_555
Rb1_6 Rb3_4 4.970394 1_555
Rb1_7 Rb3_5 4.970394 1_555
Rb1_7 Rb3_2 4.970394 1_556
Rb2_0 Rb3_1 4.582840 1_555
Rb2_0 Rb3_0 4.582840 1_555
Rb2_0 Rb2_7 4.870270 1_544
Rb2_0 Rb2_7 4.870270 1_455
Rb2_1 Rb3_0 4.582840 1_556
Rb2_1 Rb3_1 4.582840 1_555
Rb2_1 Rb2_6 4.870270 1_545
Rb2_1 Rb2_6 4.870270 1_456
Rb2_2 Rb3_2 4.582840 1_555
Rb2_2 Rb3_3 4.582840 1_555
Rb2_2 Rb2_5 4.870270 1_554
Rb2_2 Rb2_5 4.870270 1_465
Rb2_3 Rb3_2 4.582840 1_556
Rb2_3 Rb3_3 4.582840 1_555
Rb2_3 Rb2_4 4.870270 1_466
Rb2_3 Rb2_4 4.870270 1_555
Rb2_4 Rb3_4 4.582840 1_555
Rb2_4 Rb3_5 4.582840 1_555
Rb2_5 Rb3_4 4.582840 1_556
Rb2_5 Rb3_5 4.582840 1_555
Rb2_6 Rb3_6 4.582840 1_555
Rb2_6 Rb3_7 4.582840 1_555
Rb2_7 Rb3_6 4.582840 1_556
Rb2_7 Rb3_7 4.582840 1_555
Rb3_0 Rb3_7 4.870270 1_455
Rb3_0 Rb3_7 4.870270 1_544
Rb3_1 Rb3_6 4.870270 1_545
Rb3_1 Rb3_6 4.870270 1_456
Rb3_2 Rb3_5 4.870270 1_554
Rb3_2 Rb3_5 4.870270 1_465
Rb3_3 Rb3_4 4.870270 1_466
Rb3_3 Rb3_4 4.870270 1_555
