# generated using pymatgen
data_NaLiV2O6
_symmetry_space_group_name_H-M   'P 1'
_cell_length_a   7.31949949
_cell_length_b   7.31949949
_cell_length_c   5.93827937
_cell_angle_alpha   73.23159244
_cell_angle_beta   73.23159244
_cell_angle_gamma   85.55163236
_symmetry_Int_Tables_number   1
_chemical_formula_structural   NaLiV2O6
_chemical_formula_sum   'Na2 Li2 V4 O12'
_cell_volume   291.65762820
_cell_formula_units_Z   2
loop_
 _symmetry_equiv_pos_site_id
 _symmetry_equiv_pos_as_xyz
  1  'x, y, z'
loop_
 _atom_site_type_symbol
 _atom_site_label
 _atom_site_symmetry_multiplicity
 _atom_site_fract_x
 _atom_site_fract_y
 _atom_site_fract_z
 _atom_site_occupancy
  Na  Na0  1  0.90165500  0.09834500  0.75000000  1
  Na  Na1  1  0.09834500  0.90165500  0.25000000  1
  Li  Li0  1  0.77387700  0.22612300  0.25000000  1
  Li  Li1  1  0.22612300  0.77387700  0.75000000  1
  V  V0  1  0.79173900  0.61198600  0.79726100  1
  V  V1  1  0.38801400  0.20826100  0.70273900  1
  V  V2  1  0.20826100  0.38801400  0.20273900  1
  V  V3  1  0.61198600  0.79173900  0.29726100  1
  O  O0  1  0.97789200  0.76729900  0.67811300  1
  O  O1  1  0.23270100  0.02210800  0.82188700  1
  O  O2  1  0.02210800  0.23270100  0.32188700  1
  O  O3  1  0.76729900  0.97789200  0.17811300  1
  O  O4  1  0.86450500  0.38611300  0.88254000  1
  O  O5  1  0.61388700  0.13549500  0.61746000  1
  O  O6  1  0.13549500  0.61388700  0.11746000  1
  O  O7  1  0.38611300  0.86450500  0.38254000  1
  O  O8  1  0.66601400  0.63666800  0.56749300  1
  O  O9  1  0.36333200  0.33398600  0.93250700  1
  O  O10  1  0.33398600  0.36333200  0.43250700  1
  O  O11  1  0.63666800  0.66601400  0.06749300  1
loop_
_geom_bond_atom_site_label_1
_geom_bond_atom_site_label_2
_geom_bond_distance
_geom_bond_site_symmetry_2
Na0 O2 2.367721 1_655
Na0 O3 2.367721 1_546
Na0 O5 2.423676 1_555
Na0 O4 2.423676 1_555
Na0 O1 2.571894 1_655
Na0 O0 2.571894 1_545
Na1 O0 2.367721 1_455
Na1 O1 2.367721 1_564
Na1 O7 2.423676 1_555
Na1 O6 2.423676 1_555
Na1 O2 2.571894 1_565
Na1 O3 2.571894 1_455
Li0 O3 1.989658 1_545
Li0 O2 1.989658 1_655
Li0 O5 2.093731 1_555
Li0 O4 2.093731 1_554
Li1 O0 1.989658 1_455
Li1 O1 1.989658 1_565
Li1 O6 2.093731 1_556
Li1 O7 2.093731 1_555
O0 V0 1.693927 1_555
O1 V1 1.693927 1_555
O2 V2 1.693927 1_555
O3 V3 1.693927 1_555
O4 V0 1.676126 1_555
O5 V1 1.676126 1_555
O6 V2 1.676126 1_555
O7 V3 1.676126 1_555
O8 V3 1.807036 1_555
O8 V0 1.815935 1_555
O9 V2 1.807036 1_556
O9 V1 1.815935 1_555
O10 V1 1.807036 1_555
O10 V2 1.815935 1_555
O11 V0 1.807036 1_554
O11 V3 1.815935 1_555
