# generated using pymatgen
data_TlNi
_symmetry_space_group_name_H-M   'P 1'
_cell_length_a   4.16926353
_cell_length_b   4.16926353
_cell_length_c   5.05584700
_cell_angle_alpha   90.00000000
_cell_angle_beta   90.00000000
_cell_angle_gamma   119.99999259
_symmetry_Int_Tables_number   1
_chemical_formula_structural   TlNi
_chemical_formula_sum   'Tl2 Ni2'
_cell_volume   76.11027326
_cell_formula_units_Z   2
loop_
 _symmetry_equiv_pos_site_id
 _symmetry_equiv_pos_as_xyz
  1  'x, y, z'
loop_
 _atom_site_type_symbol
 _atom_site_label
 _atom_site_symmetry_multiplicity
 _atom_site_fract_x
 _atom_site_fract_y
 _atom_site_fract_z
 _atom_site_occupancy
  Tl  Tl0  1  0.33333300  0.66666700  0.75000000  1
  Tl  Tl1  1  0.66666700  0.33333300  0.25000000  1
  Ni  Ni0  1  0.00000000  0.00000000  0.00000000  1
  Ni  Ni1  1  0.00000000  0.00000000  0.50000000  1
loop_
_geom_bond_atom_site_label_1
_geom_bond_atom_site_label_2
_geom_bond_distance
_geom_bond_site_symmetry_2
Ni0 Ni1 2.527923 1_555
Ni0 Ni1 2.527923 1_554
Ni0 Tl1 2.718794 1_455
Ni0 Tl0 2.718794 1_544
Ni0 Tl0 2.718797 1_554
Ni0 Tl0 2.718797 1_444
Ni0 Tl1 2.718797 1_445
Ni0 Tl1 2.718797 1_555
Ni1 Tl0 2.718794 1_545
Ni1 Tl1 2.718794 1_455
Ni1 Tl1 2.718797 1_445
Ni1 Tl0 2.718797 1_445
Ni1 Tl0 2.718797 1_555
Ni1 Tl1 2.718797 1_555
