# generated using pymatgen
data_Sc4FeCl5
_symmetry_space_group_name_H-M   'P 1'
_cell_length_a   10.73115400
_cell_length_b   10.73115400
_cell_length_c   15.51487100
_cell_angle_alpha   90.00000000
_cell_angle_beta   90.00000000
_cell_angle_gamma   90.00000000
_symmetry_Int_Tables_number   1
_chemical_formula_structural   Sc4FeCl5
_chemical_formula_sum   'Sc32 Fe8 Cl40'
_cell_volume   1786.65633532
_cell_formula_units_Z   8
loop_
 _symmetry_equiv_pos_site_id
 _symmetry_equiv_pos_as_xyz
  1  'x, y, z'
loop_
 _atom_site_type_symbol
 _atom_site_label
 _atom_site_symmetry_multiplicity
 _atom_site_fract_x
 _atom_site_fract_y
 _atom_site_fract_z
 _atom_site_occupancy
  Sc  Sc0  1  0.36636300  0.63363700  0.09513700  1
  Sc  Sc1  1  0.86636300  0.86636300  0.59513700  1
  Sc  Sc2  1  0.13363700  0.13363700  0.59513700  1
  Sc  Sc3  1  0.63363700  0.36636300  0.09513700  1
  Sc  Sc4  1  0.13363700  0.86636300  0.40486300  1
  Sc  Sc5  1  0.63363700  0.63363700  0.90486300  1
  Sc  Sc6  1  0.36636300  0.36636300  0.90486300  1
  Sc  Sc7  1  0.86636300  0.13363700  0.40486300  1
  Sc  Sc8  1  0.38374800  0.17347600  0.07690900  1
  Sc  Sc9  1  0.88374800  0.32652400  0.57690900  1
  Sc  Sc10  1  0.11625200  0.67347600  0.57690900  1
  Sc  Sc11  1  0.61625200  0.82652400  0.07690900  1
  Sc  Sc12  1  0.11625200  0.32652400  0.42309100  1
  Sc  Sc13  1  0.61625200  0.17347600  0.92309100  1
  Sc  Sc14  1  0.38374800  0.82652400  0.92309100  1
  Sc  Sc15  1  0.88374800  0.67347600  0.42309100  1
  Sc  Sc16  1  0.17347600  0.38374800  0.07690900  1
  Sc  Sc17  1  0.32652400  0.88374800  0.57690900  1
  Sc  Sc18  1  0.67347600  0.11625200  0.57690900  1
  Sc  Sc19  1  0.82652400  0.61625200  0.07690900  1
  Sc  Sc20  1  0.32652400  0.11625200  0.42309100  1
  Sc  Sc21  1  0.17347600  0.61625200  0.92309100  1
  Sc  Sc22  1  0.82652400  0.38374800  0.92309100  1
  Sc  Sc23  1  0.67347600  0.88374800  0.42309100  1
  Sc  Sc24  1  0.38693700  0.38693700  0.22728200  1
  Sc  Sc25  1  0.88693700  0.11306300  0.72728200  1
  Sc  Sc26  1  0.11306300  0.88693700  0.72728200  1
  Sc  Sc27  1  0.61306300  0.61306300  0.22728200  1
  Sc  Sc28  1  0.11306300  0.11306300  0.27271800  1
  Sc  Sc29  1  0.61306300  0.38693700  0.77271800  1
  Sc  Sc30  1  0.38693700  0.61306300  0.77271800  1
  Sc  Sc31  1  0.88693700  0.88693700  0.27271800  1
  Fe  Fe0  1  0.39972600  0.39972600  0.06868800  1
  Fe  Fe1  1  0.89972600  0.10027400  0.56868800  1
  Fe  Fe2  1  0.10027400  0.89972600  0.56868800  1
  Fe  Fe3  1  0.60027400  0.60027400  0.06868800  1
  Fe  Fe4  1  0.10027400  0.10027400  0.43131200  1
  Fe  Fe5  1  0.60027400  0.39972600  0.93131200  1
  Fe  Fe6  1  0.39972600  0.60027400  0.93131200  1
  Fe  Fe7  1  0.89972600  0.89972600  0.43131200  1
  Cl  Cl0  1  0.36515900  0.13484100  0.25000000  1
  Cl  Cl1  1  0.86515900  0.36515900  0.75000000  1
  Cl  Cl2  1  0.13484100  0.63484100  0.75000000  1
  Cl  Cl3  1  0.63484100  0.86515900  0.25000000  1
  Cl  Cl4  1  0.13484100  0.36515900  0.25000000  1
  Cl  Cl5  1  0.63484100  0.13484100  0.75000000  1
  Cl  Cl6  1  0.36515900  0.86515900  0.75000000  1
  Cl  Cl7  1  0.86515900  0.63484100  0.25000000  1
  Cl  Cl8  1  0.14512000  0.14512000  0.08890700  1
  Cl  Cl9  1  0.64512000  0.35488000  0.58890700  1
  Cl  Cl10  1  0.35488000  0.64512000  0.58890700  1
  Cl  Cl11  1  0.85488000  0.85488000  0.08890700  1
  Cl  Cl12  1  0.35488000  0.35488000  0.41109300  1
  Cl  Cl13  1  0.85488000  0.14512000  0.91109300  1
  Cl  Cl14  1  0.14512000  0.85488000  0.91109300  1
  Cl  Cl15  1  0.64512000  0.64512000  0.41109300  1
  Cl  Cl16  1  0.12212400  0.87787600  0.23171800  1
  Cl  Cl17  1  0.62212400  0.62212400  0.73171800  1
  Cl  Cl18  1  0.37787600  0.37787600  0.73171800  1
  Cl  Cl19  1  0.87787600  0.12212400  0.23171800  1
  Cl  Cl20  1  0.37787600  0.62212400  0.26828200  1
  Cl  Cl21  1  0.87787600  0.87787600  0.76828200  1
  Cl  Cl22  1  0.12212400  0.12212400  0.76828200  1
  Cl  Cl23  1  0.62212400  0.37787600  0.26828200  1
  Cl  Cl24  1  0.38025500  0.89524900  0.08562300  1
  Cl  Cl25  1  0.88025500  0.60475100  0.58562300  1
  Cl  Cl26  1  0.11974500  0.39524900  0.58562300  1
  Cl  Cl27  1  0.61974500  0.10475100  0.08562300  1
  Cl  Cl28  1  0.11974500  0.60475100  0.41437700  1
  Cl  Cl29  1  0.61974500  0.89524900  0.91437700  1
  Cl  Cl30  1  0.38025500  0.10475100  0.91437700  1
  Cl  Cl31  1  0.88025500  0.39524900  0.41437700  1
  Cl  Cl32  1  0.89524900  0.38025500  0.08562300  1
  Cl  Cl33  1  0.60475100  0.88025500  0.58562300  1
  Cl  Cl34  1  0.39524900  0.11974500  0.58562300  1
  Cl  Cl35  1  0.10475100  0.61974500  0.08562300  1
  Cl  Cl36  1  0.60475100  0.11974500  0.41437700  1
  Cl  Cl37  1  0.89524900  0.61974500  0.91437700  1
  Cl  Cl38  1  0.10475100  0.38025500  0.91437700  1
  Cl  Cl39  1  0.39524900  0.88025500  0.41437700  1
loop_
_geom_bond_atom_site_label_1
_geom_bond_atom_site_label_2
_geom_bond_distance
_geom_bond_site_symmetry_2
Fe0 Sc16 2.437310 1_555
Fe0 Sc8 2.437310 1_555
Fe0 Sc24 2.468208 1_555
Fe0 Sc0 2.568530 1_555
Fe0 Sc3 2.568530 1_555
Fe0 Sc6 2.591664 1_554
Fe1 Sc18 2.437310 1_555
Fe1 Sc9 2.437310 1_555
Fe1 Sc25 2.468208 1_555
Fe1 Sc1 2.568530 1_545
Fe1 Sc2 2.568530 1_655
Fe1 Sc7 2.591664 1_555
Fe2 Sc10 2.437310 1_555
Fe2 Sc17 2.437310 1_555
Fe2 Sc26 2.468208 1_555
Fe2 Sc1 2.568530 1_455
Fe2 Sc2 2.568530 1_565
Fe2 Sc4 2.591664 1_555
Fe3 Sc19 2.437310 1_555
Fe3 Sc11 2.437310 1_555
Fe3 Sc27 2.468208 1_555
Fe3 Sc3 2.568530 1_555
Fe3 Sc0 2.568530 1_555
Fe3 Sc5 2.591664 1_554
Fe4 Sc12 2.437310 1_555
Fe4 Sc20 2.437310 1_555
Fe4 Sc28 2.468208 1_555
Fe4 Sc4 2.568530 1_545
Fe4 Sc7 2.568530 1_455
Fe4 Sc2 2.591664 1_555
Fe5 Sc22 2.437310 1_555
Fe5 Sc13 2.437310 1_555
Fe5 Sc29 2.468208 1_555
Fe5 Sc6 2.568530 1_555
Fe5 Sc5 2.568530 1_555
Fe5 Sc3 2.591664 1_556
Fe6 Sc14 2.437310 1_555
Fe6 Sc21 2.437310 1_555
Fe6 Sc30 2.468208 1_555
Fe6 Sc6 2.568530 1_555
Fe6 Sc5 2.568530 1_555
Fe6 Sc0 2.591664 1_556
Fe7 Sc15 2.437310 1_555
Fe7 Sc23 2.437310 1_555
Fe7 Sc31 2.468208 1_555
Fe7 Sc4 2.568530 1_655
Fe7 Sc7 2.568530 1_565
Fe7 Sc1 2.591664 1_555
Cl0 Sc20 2.724612 1_555
Cl0 Sc8 2.724612 1_555
Cl0 Sc28 2.738137 1_555
Cl0 Sc24 2.738137 1_555
Cl1 Sc9 2.724612 1_555
Cl1 Sc22 2.724612 1_555
Cl1 Sc25 2.738137 1_555
Cl1 Sc29 2.738137 1_555
Cl2 Sc21 2.724612 1_555
Cl2 Sc10 2.724612 1_555
Cl2 Sc30 2.738137 1_555
Cl2 Sc26 2.738137 1_555
Cl3 Sc23 2.724612 1_555
Cl3 Sc11 2.724612 1_555
Cl3 Sc31 2.738137 1_555
Cl3 Sc27 2.738137 1_555
Cl4 Sc12 2.724612 1_555
Cl4 Sc16 2.724612 1_555
Cl4 Sc28 2.738137 1_555
Cl4 Sc24 2.738137 1_555
Cl5 Sc13 2.724612 1_555
Cl5 Sc18 2.724612 1_555
Cl5 Sc25 2.738137 1_555
Cl5 Sc29 2.738137 1_555
Cl6 Sc17 2.724612 1_555
Cl6 Sc14 2.724612 1_555
Cl6 Sc26 2.738137 1_555
Cl6 Sc30 2.738137 1_555
Cl7 Sc15 2.724612 1_555
Cl7 Sc19 2.724612 1_555
Cl7 Sc31 2.738137 1_555
Cl7 Sc27 2.738137 1_555
Cl8 Sc8 2.585480 1_555
Cl8 Sc16 2.585480 1_555
Cl8 Sc28 2.893004 1_555
Cl9 Sc9 2.585480 1_555
Cl9 Sc18 2.585480 1_555
Cl9 Sc29 2.893004 1_555
Cl10 Sc17 2.585480 1_555
Cl10 Sc10 2.585480 1_555
Cl10 Sc30 2.893004 1_555
Cl11 Sc11 2.585480 1_555
Cl11 Sc19 2.585480 1_555
Cl11 Sc31 2.893004 1_555
Cl12 Sc12 2.585480 1_555
Cl12 Sc20 2.585480 1_555
Cl12 Sc24 2.893004 1_555
Cl13 Sc22 2.585480 1_555
Cl13 Sc13 2.585480 1_555
Cl13 Sc25 2.893004 1_555
Cl14 Sc21 2.585480 1_555
Cl14 Sc14 2.585480 1_555
Cl14 Sc26 2.893004 1_555
Cl15 Sc15 2.585480 1_555
Cl15 Sc23 2.585480 1_555
Cl15 Sc27 2.893004 1_555
Cl16 Sc28 2.604572 1_565
Cl16 Sc31 2.604572 1_455
Cl16 Sc4 2.691998 1_555
Cl17 Sc30 2.604572 1_555
Cl17 Sc29 2.604572 1_555
Cl17 Sc5 2.691998 1_555
Cl18 Sc30 2.604572 1_555
Cl18 Sc29 2.604572 1_555
Cl18 Sc6 2.691998 1_555
Cl19 Sc28 2.604572 1_655
Cl19 Sc31 2.604572 1_545
Cl19 Sc7 2.691998 1_555
Cl20 Sc27 2.604572 1_555
Cl20 Sc24 2.604572 1_555
Cl20 Sc0 2.691998 1_555
Cl21 Sc25 2.604572 1_565
Cl21 Sc26 2.604572 1_655
Cl21 Sc1 2.691998 1_555
Cl22 Sc25 2.604572 1_455
Cl22 Sc26 2.604572 1_545
Cl22 Sc2 2.691998 1_555
Cl23 Sc27 2.604572 1_555
Cl23 Sc24 2.604572 1_555
Cl23 Sc3 2.691998 1_555
Cl24 Sc14 2.627564 1_554
Cl24 Sc11 2.641182 1_555
Cl24 Sc0 2.815226 1_555
Cl24 Sc8 2.988991 1_565
Cl25 Sc15 2.627564 1_555
Cl25 Sc10 2.641182 1_655
Cl25 Sc1 2.815226 1_555
Cl25 Sc9 2.988991 1_555
Cl26 Sc12 2.627564 1_555
Cl26 Sc9 2.641182 1_455
Cl26 Sc2 2.815226 1_555
Cl26 Sc10 2.988991 1_555
Cl27 Sc13 2.627564 1_554
Cl27 Sc8 2.641182 1_555
Cl27 Sc3 2.815226 1_555
Cl27 Sc11 2.988991 1_545
Cl28 Sc10 2.627564 1_555
Cl28 Sc15 2.641182 1_455
Cl28 Sc4 2.815226 1_555
Cl28 Sc12 2.988991 1_555
Cl29 Sc11 2.627564 1_556
Cl29 Sc14 2.641182 1_555
Cl29 Sc5 2.815226 1_555
Cl29 Sc13 2.988991 1_565
Cl30 Sc8 2.627564 1_556
Cl30 Sc13 2.641182 1_555
Cl30 Sc6 2.815226 1_555
Cl30 Sc14 2.988991 1_545
Cl31 Sc9 2.627564 1_555
Cl31 Sc12 2.641182 1_655
Cl31 Sc7 2.815226 1_555
Cl31 Sc15 2.988991 1_555
Cl32 Sc22 2.627564 1_554
Cl32 Sc19 2.641182 1_555
Cl32 Sc3 2.815226 1_555
Cl32 Sc16 2.988991 1_655
Cl33 Sc23 2.627564 1_555
Cl33 Sc18 2.641182 1_565
Cl33 Sc1 2.815226 1_555
Cl33 Sc17 2.988991 1_555
Cl34 Sc20 2.627564 1_555
Cl34 Sc17 2.641182 1_545
Cl34 Sc2 2.815226 1_555
Cl34 Sc18 2.988991 1_555
Cl35 Sc21 2.627564 1_554
Cl35 Sc16 2.641182 1_555
Cl35 Sc0 2.815226 1_555
Cl35 Sc19 2.988991 1_455
Cl36 Sc18 2.627564 1_555
Cl36 Sc23 2.641182 1_545
Cl36 Sc7 2.815226 1_555
Cl36 Sc20 2.988991 1_555
Cl37 Sc19 2.627564 1_556
Cl37 Sc22 2.641182 1_555
Cl37 Sc5 2.815226 1_555
Cl37 Sc21 2.988991 1_655
Cl38 Sc16 2.627564 1_556
Cl38 Sc21 2.641182 1_555
Cl38 Sc6 2.815226 1_555
Cl38 Sc22 2.988991 1_455
Cl39 Sc17 2.627564 1_555
Cl39 Sc20 2.641182 1_565
Cl39 Sc4 2.815226 1_555
Cl39 Sc23 2.988991 1_555
