# generated using pymatgen
data_CuH12C6(Br3N2)2
_symmetry_space_group_name_H-M   'P 1'
_cell_length_a   8.02797100
_cell_length_b   8.44735939
_cell_length_c   14.65980188
_cell_angle_alpha   96.50942897
_cell_angle_beta   102.71592665
_cell_angle_gamma   104.37087175
_symmetry_Int_Tables_number   1
_chemical_formula_structural   CuH12C6(Br3N2)2
_chemical_formula_sum   'Cu2 H24 C12 Br12 N8'
_cell_volume   924.46279518
_cell_formula_units_Z   2
loop_
 _symmetry_equiv_pos_site_id
 _symmetry_equiv_pos_as_xyz
  1  'x, y, z'
loop_
 _atom_site_type_symbol
 _atom_site_label
 _atom_site_symmetry_multiplicity
 _atom_site_fract_x
 _atom_site_fract_y
 _atom_site_fract_z
 _atom_site_occupancy
  Cu  Cu0  1  0.78792300  0.79448000  0.74630500  1
  Cu  Cu1  1  0.21207700  0.20552000  0.25369500  1
  H  H0  1  0.36773500  0.52707400  0.11814100  1
  H  H1  1  0.63226500  0.47292600  0.88185900  1
  H  H2  1  0.11848200  0.68861700  0.88652400  1
  H  H3  1  0.88151800  0.31138300  0.11347600  1
  H  H4  1  0.99080700  0.13115200  0.63327600  1
  H  H5  1  0.00919300  0.86884800  0.36672400  1
  H  H6  1  0.15551600  0.39840600  0.43758100  1
  H  H7  1  0.84448400  0.60159400  0.56241900  1
  H  H8  1  0.27036500  0.78542000  0.17262500  1
  H  H9  1  0.72963500  0.21458000  0.82737500  1
  H  H10  1  0.48037200  0.85928800  0.14699400  1
  H  H11  1  0.51962800  0.14071200  0.85300600  1
  H  H12  1  0.34436400  0.93763700  0.00244900  1
  H  H13  1  0.65563600  0.06236300  0.99755100  1
  H  H14  1  0.14354200  0.89867400  0.03944200  1
  H  H15  1  0.85645800  0.10132600  0.96055800  1
  H  H16  1  0.40923500  0.30685300  0.53431800  1
  H  H17  1  0.59076500  0.69314700  0.46568200  1
  H  H18  1  0.41077800  0.50044300  0.60051700  1
  H  H19  1  0.58922200  0.49955700  0.39948300  1
  H  H20  1  0.27963500  0.36785700  0.71211200  1
  H  H21  1  0.72036500  0.63214300  0.28788800  1
  H  H22  1  0.33935300  0.18839600  0.66790400  1
  H  H23  1  0.66064700  0.81160400  0.33209600  1
  C  C0  1  0.34156000  0.78531100  0.11666600  1
  C  C1  1  0.65844000  0.21468900  0.88333400  1
  C  C2  1  0.25051100  0.84593200  0.02778600  1
  C  C3  1  0.74948900  0.15406800  0.97221400  1
  C  C4  1  0.33278800  0.37137600  0.57109700  1
  C  C5  1  0.66721200  0.62862400  0.42890300  1
  C  C6  1  0.26853500  0.28001100  0.64822400  1
  C  C7  1  0.73146400  0.71998900  0.35177600  1
  C  C8  1  0.23558300  0.57049100  0.98936400  1
  C  C9  1  0.76441700  0.42950900  0.01063600  1
  C  C10  1  0.03005400  0.25753100  0.52295400  1
  C  C11  1  0.96994600  0.74246900  0.47704600  1
  Br  Br0  1  0.65895500  0.95650700  0.64286100  1
  Br  Br1  1  0.34104500  0.04349300  0.35713900  1
  Br  Br2  1  0.08736200  0.97810500  0.80440300  1
  Br  Br3  1  0.91263800  0.02189500  0.19559700  1
  Br  Br4  1  0.85764900  0.53329000  0.71506700  1
  Br  Br5  1  0.14235100  0.46671000  0.28493300  1
  Br  Br6  1  0.55192200  0.69466700  0.82038600  1
  Br  Br7  1  0.44807800  0.30533300  0.17961400  1
  Br  Br8  1  0.18097000  0.35724700  0.91810200  1
  Br  Br9  1  0.81903000  0.64275300  0.08189800  1
  Br  Br10  1  0.79688600  0.19868100  0.44786100  1
  Br  Br11  1  0.20311400  0.80131900  0.55213900  1
  N  N0  1  0.33189600  0.61296200  0.07823400  1
  N  N1  1  0.66810400  0.38703800  0.92176600  1
  N  N2  1  0.17835100  0.69232500  0.95610900  1
  N  N3  1  0.82164900  0.30767500  0.04389100  1
  N  N4  1  0.07892500  0.19795800  0.60126600  1
  N  N5  1  0.92107500  0.80204200  0.39873400  1
  N  N6  1  0.16379300  0.36324400  0.50326100  1
  N  N7  1  0.83620700  0.63675600  0.49673900  1
loop_
_geom_bond_atom_site_label_1
_geom_bond_atom_site_label_2
_geom_bond_distance
_geom_bond_site_symmetry_2
H0 N0 1.037875 1_555
H1 N1 1.037875 1_555
H2 N2 1.020800 1_555
H3 N3 1.020800 1_555
H4 N4 1.023289 1_655
H5 N5 1.023289 1_455
H6 N6 1.032573 1_555
H7 N7 1.032573 1_555
C0 H10 1.096918 1_555
C0 H8 1.098247 1_555
C0 N0 1.477085 1_555
C1 H11 1.096918 1_555
C1 H9 1.098247 1_555
C1 N1 1.477085 1_555
C2 H14 1.096537 1_555
C2 H12 1.097482 1_555
C2 N2 1.474163 1_554
C3 H15 1.096537 1_555
C3 H13 1.097482 1_555
C3 N3 1.474163 1_556
C4 H18 1.096527 1_555
C4 H16 1.099781 1_555
C4 N6 1.475998 1_555
C5 H19 1.096527 1_555
C5 H17 1.099781 1_555
C5 N7 1.475998 1_555
C6 H22 1.096451 1_555
C6 H20 1.099385 1_555
C6 N4 1.475851 1_555
C7 H23 1.096446 1_555
C7 H21 1.099387 1_555
C7 N5 1.475858 1_555
C8 N0 1.317854 1_556
C8 N2 1.325839 1_555
C9 N1 1.317854 1_554
C9 N3 1.325839 1_555
C10 N6 1.323819 1_555
C10 N4 1.325094 1_555
C11 N7 1.323819 1_555
C11 N5 1.325094 1_555
Br0 Cu0 2.393284 1_555
Br1 Cu1 2.393284 1_555
Br2 Cu0 2.420393 1_455
Br3 Cu1 2.420393 1_655
Br4 Cu0 2.426502 1_555
Br5 Cu1 2.426502 1_555
Br6 Cu0 2.408390 1_555
Br7 Cu1 2.408390 1_555
Br8 C8 1.872992 1_555
Br9 C9 1.872992 1_555
Br10 C10 1.862717 1_655
Br11 C11 1.862717 1_455
