# generated using pymatgen
data_LiNiBP2H6O11
_symmetry_space_group_name_H-M   'P 1'
_cell_length_a   9.48823924
_cell_length_b   9.48823924
_cell_length_c   15.87896100
_cell_angle_alpha   90.00000000
_cell_angle_beta   90.00000000
_cell_angle_gamma   119.99999470
_symmetry_Int_Tables_number   1
_chemical_formula_structural   LiNiBP2H6O11
_chemical_formula_sum   'Li6 Ni6 B6 P12 H36 O66'
_cell_volume   1238.00953676
_cell_formula_units_Z   6
loop_
 _symmetry_equiv_pos_site_id
 _symmetry_equiv_pos_as_xyz
  1  'x, y, z'
loop_
 _atom_site_type_symbol
 _atom_site_label
 _atom_site_symmetry_multiplicity
 _atom_site_fract_x
 _atom_site_fract_y
 _atom_site_fract_z
 _atom_site_occupancy
  Li  Li0  1  0.22869000  0.45738000  0.25000000  1
  Li  Li1  1  0.54262000  0.77131000  0.58333300  1
  Li  Li2  1  0.77131000  0.54262000  0.75000000  1
  Li  Li3  1  0.45738000  0.22869000  0.08333300  1
  Li  Li4  1  0.22869000  0.77131000  0.91666700  1
  Li  Li5  1  0.77131000  0.22869000  0.41666700  1
  Ni  Ni0  1  0.54980700  0.09961400  0.25000000  1
  Ni  Ni1  1  0.90038600  0.45019300  0.58333300  1
  Ni  Ni2  1  0.45019300  0.90038600  0.75000000  1
  Ni  Ni3  1  0.09961400  0.54980700  0.08333300  1
  Ni  Ni4  1  0.54980700  0.45019300  0.91666700  1
  Ni  Ni5  1  0.45019300  0.54980700  0.41666700  1
  B  B0  1  0.84680800  0.69361700  0.25000000  1
  B  B1  1  0.30638300  0.15319200  0.58333300  1
  B  B2  1  0.15319200  0.30638300  0.75000000  1
  B  B3  1  0.69361700  0.84680800  0.08333300  1
  B  B4  1  0.84680800  0.15319200  0.91666700  1
  B  B5  1  0.15319200  0.84680800  0.41666700  1
  P  P0  1  0.39179100  0.16803900  0.41372400  1
  P  P1  1  0.83196100  0.22375300  0.74705700  1
  P  P2  1  0.60820900  0.83196100  0.91372400  1
  P  P3  1  0.16803900  0.39179100  0.91960900  1
  P  P4  1  0.77624700  0.60820900  0.08039100  1
  P  P5  1  0.16803900  0.77624700  0.24705700  1
  P  P6  1  0.22375300  0.83196100  0.58627600  1
  P  P7  1  0.83196100  0.60820900  0.41960900  1
  P  P8  1  0.22375300  0.39179100  0.58039100  1
  P  P9  1  0.77624700  0.16803900  0.08627600  1
  P  P10  1  0.60820900  0.77624700  0.25294300  1
  P  P11  1  0.39179100  0.22375300  0.75294300  1
  H  H0  1  0.30346900  0.43857400  0.06879100  1
  H  H1  1  0.56142600  0.86489500  0.40212400  1
  H  H2  1  0.69653100  0.56142600  0.56879100  1
  H  H3  1  0.43857400  0.30346900  0.26454200  1
  H  H4  1  0.13510500  0.69653100  0.73545800  1
  H  H5  1  0.43857400  0.13510500  0.90212400  1
  H  H6  1  0.86489500  0.56142600  0.93120900  1
  H  H7  1  0.56142600  0.69653100  0.76454200  1
  H  H8  1  0.86489500  0.30346900  0.23545800  1
  H  H9  1  0.13510500  0.43857400  0.43120900  1
  H  H10  1  0.69653100  0.13510500  0.59787600  1
  H  H11  1  0.30346900  0.86489500  0.09787600  1
  H  H12  1  0.14955100  0.11778000  0.04113900  1
  H  H13  1  0.88222000  0.03177100  0.37447200  1
  H  H14  1  0.85044900  0.88222000  0.54113900  1
  H  H15  1  0.11778000  0.14955100  0.29219500  1
  H  H16  1  0.96822900  0.85044900  0.70780500  1
  H  H17  1  0.11778000  0.96822900  0.87447200  1
  H  H18  1  0.03177100  0.88222000  0.95886100  1
  H  H19  1  0.88222000  0.85044900  0.79219500  1
  H  H20  1  0.03177100  0.14955100  0.20780500  1
  H  H21  1  0.96822900  0.11778000  0.45886100  1
  H  H22  1  0.85044900  0.96822900  0.62552800  1
  H  H23  1  0.14955100  0.03177100  0.12552800  1
  H  H24  1  0.39097300  0.59476600  0.12484100  1
  H  H25  1  0.40523400  0.79620700  0.45817500  1
  H  H26  1  0.60902700  0.40523400  0.62484100  1
  H  H27  1  0.59476600  0.39097300  0.20849200  1
  H  H28  1  0.20379300  0.60902700  0.79150800  1
  H  H29  1  0.59476600  0.20379300  0.95817500  1
  H  H30  1  0.79620700  0.40523400  0.87515900  1
  H  H31  1  0.40523400  0.60902700  0.70849200  1
  H  H32  1  0.79620700  0.39097300  0.29150800  1
  H  H33  1  0.20379300  0.59476600  0.37515900  1
  H  H34  1  0.60902700  0.20379300  0.54182500  1
  H  H35  1  0.39097300  0.79620700  0.04182500  1
  O  O0  1  0.42006000  0.18210700  0.51258500  1
  O  O1  1  0.81789300  0.23795300  0.84591800  1
  O  O2  1  0.57994000  0.81789300  0.01258500  1
  O  O3  1  0.18210700  0.42006000  0.82074900  1
  O  O4  1  0.76204700  0.57994000  0.17925100  1
  O  O5  1  0.18210700  0.76204700  0.34591800  1
  O  O6  1  0.23795300  0.81789300  0.48741500  1
  O  O7  1  0.81789300  0.57994000  0.32074900  1
  O  O8  1  0.23795300  0.42006000  0.67925100  1
  O  O9  1  0.76204700  0.18210700  0.98741500  1
  O  O10  1  0.57994000  0.76204700  0.15408200  1
  O  O11  1  0.42006000  0.23795300  0.65408200  1
  O  O12  1  0.28440800  0.49438500  0.11670600  1
  O  O13  1  0.50561500  0.79002300  0.45003900  1
  O  O14  1  0.71559200  0.50561500  0.61670600  1
  O  O15  1  0.49438500  0.28440800  0.21662700  1
  O  O16  1  0.20997700  0.71559200  0.78337300  1
  O  O17  1  0.49438500  0.20997700  0.95003900  1
  O  O18  1  0.79002300  0.50561500  0.88329400  1
  O  O19  1  0.50561500  0.71559200  0.71662700  1
  O  O20  1  0.79002300  0.28440800  0.28337300  1
  O  O21  1  0.20997700  0.49438500  0.38329400  1
  O  O22  1  0.71559200  0.20997700  0.54996100  1
  O  O23  1  0.28440800  0.79002300  0.04996100  1
  O  O24  1  0.21585000  0.01971800  0.39788300  1
  O  O25  1  0.98028200  0.19613200  0.73121700  1
  O  O26  1  0.78415000  0.98028200  0.89788300  1
  O  O27  1  0.01971800  0.21585000  0.93545000  1
  O  O28  1  0.80386800  0.78415000  0.06455000  1
  O  O29  1  0.01971800  0.80386800  0.23121700  1
  O  O30  1  0.19613200  0.98028200  0.60211700  1
  O  O31  1  0.98028200  0.78415000  0.43545000  1
  O  O32  1  0.19613200  0.21585000  0.56455000  1
  O  O33  1  0.80386800  0.01971800  0.10211700  1
  O  O34  1  0.78415000  0.80386800  0.26878300  1
  O  O35  1  0.21585000  0.19613200  0.76878300  1
  O  O36  1  0.61219100  0.13426200  0.12156400  1
  O  O37  1  0.86573800  0.47792900  0.45489700  1
  O  O38  1  0.38780900  0.86573800  0.62156400  1
  O  O39  1  0.13426200  0.61219100  0.21177000  1
  O  O40  1  0.52207100  0.38780900  0.78823000  1
  O  O41  1  0.13426200  0.52207100  0.95489700  1
  O  O42  1  0.47792900  0.86573800  0.87843600  1
  O  O43  1  0.86573800  0.38780900  0.71177000  1
  O  O44  1  0.47792900  0.61219100  0.28823000  1
  O  O45  1  0.52207100  0.13426200  0.37843600  1
  O  O46  1  0.38780900  0.52207100  0.54510300  1
  O  O47  1  0.61219100  0.47792900  0.04510300  1
  O  O48  1  0.39146100  0.31653400  0.37768700  1
  O  O49  1  0.68346600  0.07492700  0.71102000  1
  O  O50  1  0.60853900  0.68346600  0.87768700  1
  O  O51  1  0.31653400  0.39146100  0.95564700  1
  O  O52  1  0.92507300  0.60853900  0.04435300  1
  O  O53  1  0.31653400  0.92507300  0.21102000  1
  O  O54  1  0.07492700  0.68346600  0.62231300  1
  O  O55  1  0.68346600  0.60853900  0.45564700  1
  O  O56  1  0.07492700  0.39146100  0.54435300  1
  O  O57  1  0.92507300  0.31653400  0.12231300  1
  O  O58  1  0.60853900  0.92507300  0.28898000  1
  O  O59  1  0.39146100  0.07492700  0.78898000  1
  O  O60  1  0.10970900  0.21941800  0.25000000  1
  O  O61  1  0.78058200  0.89029100  0.58333300  1
  O  O62  1  0.89029100  0.78058200  0.75000000  1
  O  O63  1  0.21941800  0.10970900  0.08333300  1
  O  O64  1  0.10970900  0.89029100  0.91666700  1
  O  O65  1  0.89029100  0.10970900  0.41666700  1
loop_
_geom_bond_atom_site_label_1
_geom_bond_atom_site_label_2
_geom_bond_distance
_geom_bond_site_symmetry_2
Li0 O60 1.955347 1_555
Li0 O39 2.155208 1_555
Li0 O44 2.155209 1_555
Li0 O21 2.167260 1_555
Li0 O12 2.167260 1_555
Li1 O61 1.955347 1_555
Li1 O46 2.155209 1_555
Li1 O38 2.155213 1_555
Li1 O13 2.167260 1_555
Li1 O19 2.167260 1_555
Li2 O62 1.955347 1_555
Li2 O43 2.155208 1_555
Li2 O40 2.155209 1_555
Li2 O18 2.167260 1_555
Li2 O14 2.167260 1_555
Li3 O63 1.955347 1_555
Li3 O47 2.155209 1_555
Li3 O36 2.155213 1_555
Li3 O17 2.167260 1_554
Li3 O15 2.167260 1_555
Li4 O64 1.955347 1_555
Li4 O41 2.155208 1_555
Li4 O42 2.155213 1_555
Li4 O23 2.167260 1_556
Li4 O16 2.167260 1_555
Li5 O65 1.955347 1_555
Li5 O37 2.155208 1_555
Li5 O45 2.155213 1_555
Li5 O22 2.167260 1_555
Li5 O20 2.167260 1_555
Ni0 O58 2.087859 1_545
Ni0 O53 2.087859 1_545
Ni0 O45 2.103122 1_555
Ni0 O36 2.103122 1_555
Ni0 O15 2.133935 1_555
Ni0 O20 2.133935 1_555
Ni1 O56 2.087859 1_655
Ni1 O54 2.087859 1_655
Ni1 O37 2.103122 1_555
Ni1 O43 2.103138 1_555
Ni1 O22 2.133931 1_555
Ni1 O14 2.133935 1_555
Ni2 O59 2.087859 1_565
Ni2 O49 2.087859 1_565
Ni2 O42 2.103122 1_555
Ni2 O38 2.103122 1_555
Ni2 O19 2.133935 1_555
Ni2 O16 2.133935 1_555
Ni3 O52 2.087859 1_455
Ni3 O57 2.087859 1_455
Ni3 O41 2.103122 1_554
Ni3 O39 2.103138 1_555
Ni3 O23 2.133931 1_555
Ni3 O12 2.133935 1_555
Ni4 O51 2.087859 1_555
Ni4 O50 2.087859 1_555
Ni4 O47 2.103122 1_556
Ni4 O40 2.103138 1_555
Ni4 O17 2.133931 1_555
Ni4 O18 2.133935 1_555
Ni5 O55 2.087859 1_555
Ni5 O48 2.087859 1_555
Ni5 O46 2.103122 1_555
Ni5 O44 2.103138 1_555
Ni5 O13 2.133931 1_555
Ni5 O21 2.133935 1_555
B0 O34 1.469223 1_555
B0 O29 1.469230 1_655
B0 O4 1.484853 1_555
B0 O7 1.484855 1_555
B1 O32 1.469223 1_555
B1 O30 1.469234 1_545
B1 O0 1.484843 1_555
B1 O11 1.484853 1_555
B2 O35 1.469223 1_555
B2 O25 1.469230 1_455
B2 O8 1.484853 1_555
B2 O3 1.484855 1_555
B3 O28 1.469223 1_555
B3 O33 1.469234 1_565
B3 O2 1.484843 1_555
B3 O10 1.484853 1_555
B4 O27 1.469232 1_655
B4 O26 1.469235 1_545
B4 O9 1.484837 1_555
B4 O1 1.484849 1_555
B5 O31 1.469232 1_455
B5 O24 1.469235 1_565
B5 O6 1.484837 1_555
B5 O5 1.484849 1_555
H0 O12 0.993871 1_555
H1 O13 0.993871 1_555
H2 O14 0.993871 1_555
H3 O15 0.993871 1_555
H4 O16 0.993871 1_555
H5 O17 0.993871 1_555
H6 O18 0.993871 1_555
H7 O19 0.993871 1_555
H8 O20 0.993871 1_555
H9 O21 0.993871 1_555
H10 O22 0.993871 1_555
H11 O23 0.993871 1_555
H12 O63 0.972102 1_555
H13 O65 0.972113 1_555
H14 O61 0.972102 1_555
H15 O60 0.972113 1_555
H16 O62 0.972113 1_555
H17 O64 0.972113 1_555
H18 O64 0.972102 1_555
H19 O62 0.972113 1_555
H20 O60 0.972113 1_555
H21 O65 0.972102 1_555
H22 O61 0.972113 1_555
H23 O63 0.972113 1_555
H24 O12 0.991541 1_555
H25 O13 0.991543 1_555
H26 O14 0.991541 1_555
H27 O15 0.991541 1_555
H28 O16 0.991541 1_555
H29 O17 0.991543 1_555
H30 O18 0.991541 1_555
H31 O19 0.991541 1_555
H32 O20 0.991541 1_555
H33 O21 0.991541 1_555
H34 O22 0.991543 1_555
H35 O23 0.991543 1_555
O0 P0 1.586903 1_555
O1 P1 1.586902 1_555
O2 P2 1.586903 1_554
O3 P3 1.586887 1_555
O4 P4 1.586887 1_555
O5 P5 1.586902 1_555
O6 P6 1.586902 1_555
O7 P7 1.586887 1_555
O8 P8 1.586887 1_555
O9 P9 1.586902 1_556
O10 P10 1.586903 1_555
O11 P11 1.586903 1_555
O24 P0 1.575203 1_555
O25 P1 1.575206 1_555
O26 P2 1.575203 1_555
O27 P3 1.575203 1_555
O28 P4 1.575199 1_555
O29 P5 1.575206 1_555
O30 P6 1.575208 1_555
O31 P7 1.575203 1_555
O32 P8 1.575199 1_555
O33 P9 1.575208 1_555
O34 P10 1.575197 1_555
O35 P11 1.575197 1_555
O36 P9 1.529978 1_555
O37 P7 1.529987 1_555
O38 P6 1.529978 1_555
O39 P5 1.529972 1_555
O40 P11 1.529975 1_555
O41 P3 1.529987 1_555
O42 P2 1.529987 1_555
O43 P1 1.529972 1_555
O44 P10 1.529975 1_555
O45 P0 1.529987 1_555
O46 P8 1.529981 1_555
O47 P4 1.529981 1_555
O48 P0 1.522178 1_555
O49 P1 1.522183 1_555
O50 P2 1.522178 1_555
O51 P3 1.522184 1_555
O52 P4 1.522193 1_555
O53 P5 1.522183 1_555
O54 P6 1.522183 1_555
O55 P7 1.522184 1_555
O56 P8 1.522193 1_555
O57 P9 1.522183 1_555
O58 P10 1.522187 1_555
O59 P11 1.522187 1_555
