# generated using pymatgen
data_Al3Os2
_symmetry_space_group_name_H-M   'P 1'
_cell_length_a   3.10847501
_cell_length_b   3.10847530
_cell_length_c   7.40424248
_cell_angle_alpha   102.11568380
_cell_angle_beta   102.11568687
_cell_angle_gamma   90.01715873
_symmetry_Int_Tables_number   1
_chemical_formula_structural   Al3Os2
_chemical_formula_sum   'Al3 Os2'
_cell_volume   68.31902740
_cell_formula_units_Z   1
loop_
 _symmetry_equiv_pos_site_id
 _symmetry_equiv_pos_as_xyz
  1  'x, y, z'
loop_
 _atom_site_type_symbol
 _atom_site_label
 _atom_site_symmetry_multiplicity
 _atom_site_fract_x
 _atom_site_fract_y
 _atom_site_fract_z
 _atom_site_occupancy
  Al  Al0  1  0.00000000  0.00000000  0.00000000  1
  Al  Al1  1  0.19569984  0.19569984  0.39165419  1
  Al  Al2  1  0.80430016  0.80430016  0.60834681  1
  Os  Os0  1  0.39275914  0.39275914  0.78540204  1
  Os  Os1  1  0.60724086  0.60724086  0.21459696  1
loop_
_geom_bond_atom_site_label_1
_geom_bond_atom_site_label_2
_geom_bond_distance
_geom_bond_site_symmetry_2
Al0 Os1 2.670312 1_555
Al0 Os0 2.670315 1_444
Al0 Os1 2.670867 1_445
Al0 Os0 2.670873 1_554
Al0 Os1 2.671132 1_545
Al0 Os1 2.671132 1_455
Al0 Os0 2.671136 1_454
Al0 Os0 2.671136 1_544
Al1 Os1 2.528913 1_445
Al1 Os1 2.529565 1_555
Al1 Os1 2.529811 1_455
Al1 Os1 2.529811 1_545
Al1 Os0 2.783974 1_555
Al2 Os0 2.528910 1_665
Al2 Os0 2.529554 1_555
Al2 Os0 2.529804 1_655
Al2 Os0 2.529804 1_565
Al2 Os1 2.783988 1_555
