# generated using pymatgen
data_Na2MnPCO7
_symmetry_space_group_name_H-M   'P 1'
_cell_length_a   8.51862400
_cell_length_b   8.53347757
_cell_length_c   10.24600757
_cell_angle_alpha   107.05462317
_cell_angle_beta   107.82898989
_cell_angle_gamma   104.91640504
_symmetry_Int_Tables_number   1
_chemical_formula_structural   Na2MnPCO7
_chemical_formula_sum   'Na8 Mn4 P4 C4 O28'
_cell_volume   626.60045335
_cell_formula_units_Z   4
loop_
 _symmetry_equiv_pos_site_id
 _symmetry_equiv_pos_as_xyz
  1  'x, y, z'
loop_
 _atom_site_type_symbol
 _atom_site_label
 _atom_site_symmetry_multiplicity
 _atom_site_fract_x
 _atom_site_fract_y
 _atom_site_fract_z
 _atom_site_occupancy
  Na  Na0  1  0.24293200  0.23870100  0.24038100  1
  Na  Na1  1  0.76069800  0.74195400  0.25492800  1
  Na  Na2  1  0.49059200  0.01114700  0.25615800  1
  Na  Na3  1  0.98625500  0.49305700  0.23860400  1
  Na  Na4  1  0.51397200  0.00662500  0.75384900  1
  Na  Na5  1  0.22828600  0.24781300  0.74534800  1
  Na  Na6  1  0.76681000  0.76508300  0.75975100  1
  Na  Na7  1  0.43151300  0.69608700  0.91259000  1
  Mn  Mn0  1  0.93799800  0.18933200  0.35743100  1
  Mn  Mn1  1  0.44526800  0.69353900  0.35076300  1
  Mn  Mn2  1  0.56535500  0.31088200  0.65041400  1
  Mn  Mn3  1  0.06009600  0.80083300  0.65041800  1
  P  P0  1  0.18791200  0.94349200  0.42363800  1
  P  P1  1  0.69348700  0.43957000  0.42113400  1
  P  P2  1  0.31891400  0.56615800  0.57854000  1
  P  P3  1  0.80789100  0.05604100  0.58049500  1
  C  C0  1  0.76644000  0.01731400  0.07244400  1
  C  C1  1  0.28041600  0.52737500  0.07522800  1
  C  C2  1  0.72366100  0.47674500  0.92604200  1
  C  C3  1  0.22534500  0.97633900  0.92597300  1
  O  O0  1  0.30332000  0.05364100  0.06601600  1
  O  O1  1  0.79292300  0.55095200  0.06649800  1
  O  O2  1  0.42419800  0.67906700  0.14879800  1
  O  O3  1  0.91257500  0.16378900  0.14888400  1
  O  O4  1  0.70081500  0.95425200  0.15388900  1
  O  O5  1  0.22468300  0.47582700  0.16737400  1
  O  O6  1  0.27171900  0.84578600  0.33104600  1
  O  O7  1  0.07790200  0.02592100  0.33255300  1
  O  O8  1  0.77780200  0.33079000  0.33380100  1
  O  O9  1  0.58962900  0.51500800  0.32134200  1
  O  O10  1  0.16969100  0.42354300  0.42753700  1
  O  O11  1  0.55679500  0.30770600  0.45383500  1
  O  O12  1  0.05549500  0.80538600  0.45441600  1
  O  O13  1  0.66559900  0.91004700  0.42294700  1
  O  O14  1  0.33180400  0.09006200  0.57671300  1
  O  O15  1  0.45833900  0.69299700  0.54396800  1
  O  O16  1  0.94169500  0.18737900  0.54568000  1
  O  O17  1  0.83574500  0.58768200  0.57277100  1
  O  O18  1  0.25447600  0.68599200  0.67647300  1
  O  O19  1  0.41852600  0.48523600  0.67676500  1
  O  O20  1  0.71594600  0.15065600  0.66459400  1
  O  O21  1  0.91433600  0.97625300  0.67283300  1
  O  O22  1  0.77618000  0.53450900  0.83684700  1
  O  O23  1  0.27823700  0.02718000  0.83229000  1
  O  O24  1  0.58018000  0.32554600  0.85158200  1
  O  O25  1  0.08146900  0.82874400  0.85610200  1
  O  O26  1  0.69565200  0.94390800  0.93053600  1
  O  O27  1  0.21631300  0.45204300  0.93650800  1
loop_
_geom_bond_atom_site_label_1
_geom_bond_atom_site_label_2
_geom_bond_distance
_geom_bond_site_symmetry_2
Na0 O0 2.297036 1_555
Na0 O5 2.378423 1_555
Na0 O10 2.453479 1_555
Na0 O3 2.512757 1_455
Na0 O7 2.582612 1_555
Na0 O11 2.670551 1_555
Na1 O1 2.273429 1_555
Na1 O13 2.383541 1_555
Na1 O4 2.422084 1_555
Na1 O9 2.502913 1_555
Na1 O12 2.507043 1_655
Na1 O2 2.577668 1_555
Na1 O7 2.826422 1_665
Na2 O0 2.298038 1_555
Na2 O4 2.416402 1_545
Na2 O13 2.419530 1_545
Na2 O6 2.492586 1_545
Na2 O11 2.526638 1_555
Na2 O2 2.554557 1_545
Na2 O8 2.856339 1_555
Na3 O1 2.284191 1_555
Na3 O5 2.382866 1_655
Na3 O10 2.416498 1_655
Na3 O3 2.521441 1_555
Na3 O8 2.570795 1_555
Na3 O12 2.697417 1_655
Na4 O26 2.288681 1_545
Na4 O23 2.407548 1_555
Na4 O14 2.410653 1_555
Na4 O20 2.416891 1_555
Na4 O24 2.448029 1_555
Na4 O15 2.712723 1_545
Na4 O18 2.746281 1_545
Na5 O27 2.257333 1_555
Na5 O23 2.384014 1_555
Na5 O14 2.398964 1_555
Na5 O16 2.466991 1_455
Na5 O19 2.658388 1_555
Na5 O24 2.676841 1_555
Na5 O21 2.767189 1_445
Na6 O26 2.305988 1_555
Na6 O22 2.335747 1_555
Na6 O17 2.398386 1_555
Na6 O25 2.402071 1_655
Na6 O21 2.465865 1_555
Na6 O15 2.642739 1_555
Na7 O18 2.389836 1_555
Na7 O2 2.485189 1_556
Na7 O19 2.504340 1_555
Na7 O27 2.523235 1_555
Na7 O26 2.576403 1_555
Na7 O4 2.637968 1_556
Mn0 O16 1.924440 1_555
Mn0 O3 2.019739 1_555
Mn0 O8 2.048224 1_555
Mn0 O7 2.064698 1_655
Mn0 O10 2.159852 1_655
Mn0 O4 2.309752 1_545
Mn1 O15 1.949825 1_555
Mn1 O2 1.985160 1_555
Mn1 O13 2.011593 1_555
Mn1 O5 2.122778 1_555
Mn1 O9 2.201441 1_555
Mn1 O6 2.207777 1_555
Mn2 O11 1.984913 1_555
Mn2 O24 1.990277 1_555
Mn2 O14 2.096330 1_555
Mn2 O20 2.107511 1_555
Mn2 O22 2.124286 1_555
Mn2 O19 2.186381 1_555
Mn3 O25 1.994861 1_555
Mn3 O17 2.006098 1_455
Mn3 O12 2.008586 1_555
Mn3 O18 2.119356 1_555
Mn3 O23 2.139366 1_565
Mn3 O21 2.182935 1_455
C0 O26 1.266688 1_544
C0 O4 1.301030 1_545
C0 O3 1.324060 1_555
C1 O27 1.240836 1_554
C1 O5 1.311813 1_555
C1 O2 1.337938 1_555
C2 O1 1.254321 1_556
C2 O22 1.295921 1_555
C2 O24 1.334329 1_555
C3 O0 1.253327 1_566
C3 O23 1.311896 1_565
C3 O25 1.319131 1_555
O6 P0 1.536913 1_555
O7 P0 1.559753 1_545
O8 P1 1.558154 1_555
O9 P1 1.538816 1_555
O10 P2 1.544509 1_555
O11 P1 1.587407 1_555
O12 P0 1.584993 1_555
O13 P3 1.572226 1_565
O14 P0 1.552284 1_545
O15 P2 1.590083 1_555
O16 P3 1.583789 1_555
O17 P1 1.544868 1_555
O18 P2 1.542166 1_555
O19 P2 1.547947 1_555
O20 P3 1.529252 1_555
O21 P3 1.533383 1_565
