# generated using pymatgen
data_BaSrMg6O8
_symmetry_space_group_name_H-M   'P 1'
_cell_length_a   9.09424656
_cell_length_b   4.80935653
_cell_length_c   4.80935653
_cell_angle_alpha   90.00000000
_cell_angle_beta   90.00000000
_cell_angle_gamma   90.00000000
_symmetry_Int_Tables_number   1
_chemical_formula_structural   BaSrMg6O8
_chemical_formula_sum   'Ba1 Sr1 Mg6 O8'
_cell_volume   210.34910657
_cell_formula_units_Z   1
loop_
 _symmetry_equiv_pos_site_id
 _symmetry_equiv_pos_as_xyz
  1  'x, y, z'
loop_
 _atom_site_type_symbol
 _atom_site_label
 _atom_site_symmetry_multiplicity
 _atom_site_fract_x
 _atom_site_fract_y
 _atom_site_fract_z
 _atom_site_occupancy
  Ba  Ba0  1  0.00000000  0.50000000  0.50000000  1
  Sr  Sr0  1  0.00000000  0.00000000  0.00000000  1
  Mg  Mg0  1  0.50000000  0.00000000  0.00000000  1
  Mg  Mg1  1  0.50000000  0.50000000  0.50000000  1
  Mg  Mg2  1  0.27834740  -0.00000000  0.50000000  1
  Mg  Mg3  1  0.72165260  0.00000000  0.50000000  1
  Mg  Mg4  1  0.27834740  0.50000000  0.00000000  1
  Mg  Mg5  1  0.72165260  0.50000000  -0.00000000  1
  O  O0  1  0.27689217  -0.00000000  0.00000000  1
  O  O1  1  0.72310783  0.00000000  -0.00000000  1
  O  O2  1  0.28460588  0.50000000  0.50000000  1
  O  O3  1  0.71539412  0.50000000  0.50000000  1
  O  O4  1  0.00000000  0.00000000  0.50000000  1
  O  O5  1  0.50000000  0.00000000  0.50000000  1
  O  O6  1  0.00000000  0.50000000  0.00000000  1
  O  O7  1  0.50000000  0.50000000  0.00000000  1
loop_
_geom_bond_atom_site_label_1
_geom_bond_atom_site_label_2
_geom_bond_distance
_geom_bond_site_symmetry_2
Ba0 O6 2.404678 1_556
Ba0 O6 2.404678 1_555
Ba0 O4 2.404678 1_555
Ba0 O4 2.404678 1_565
Ba0 O3 2.588276 1_455
Ba0 O2 2.588276 1_555
Mg0 O0 2.028998 1_555
Mg0 O1 2.028998 1_555
Mg0 O5 2.404678 1_554
Mg0 O5 2.404678 1_555
Mg0 O7 2.404678 1_545
Mg0 O7 2.404678 1_555
Mg1 O2 1.958847 1_555
Mg1 O3 1.958847 1_555
Mg1 O5 2.404678 1_555
Mg1 O5 2.404678 1_565
Mg1 O7 2.404678 1_555
Mg1 O7 2.404678 1_556
Mg2 O5 2.015763 1_555
Mg2 O0 2.404715 1_555
Mg2 O0 2.404715 1_556
Mg2 O2 2.405352 1_545
Mg2 O2 2.405352 1_555
Mg2 O4 2.531360 1_555
Mg3 O5 2.015763 1_555
Mg3 O1 2.404715 1_556
Mg3 O1 2.404715 1_555
Mg3 O3 2.405352 1_545
Mg3 O3 2.405352 1_555
Mg3 O4 2.531360 1_655
Mg4 O7 2.015763 1_555
Mg4 O0 2.404715 1_565
Mg4 O0 2.404715 1_555
Mg4 O2 2.405352 1_554
Mg4 O2 2.405352 1_555
Mg4 O6 2.531360 1_555
Mg5 O7 2.015763 1_555
Mg5 O1 2.404715 1_565
Mg5 O1 2.404715 1_555
Mg5 O3 2.405352 1_555
Mg5 O3 2.405352 1_554
Mg5 O6 2.531360 1_655
O0 Sr0 2.518126 1_555
O1 Sr0 2.518126 1_655
O4 Sr0 2.404678 1_555
O4 Sr0 2.404678 1_556
O6 Sr0 2.404678 1_555
O6 Sr0 2.404678 1_565
