# generated using pymatgen
data_KIn(PSe3)2
_symmetry_space_group_name_H-M   'P 1'
_cell_length_a   6.61888400
_cell_length_b   7.74793600
_cell_length_c   23.39561612
_cell_angle_alpha   79.15200364
_cell_angle_beta   90.00000000
_cell_angle_gamma   90.00000000
_symmetry_Int_Tables_number   1
_chemical_formula_structural   KIn(PSe3)2
_chemical_formula_sum   'K4 In4 P8 Se24'
_cell_volume   1178.34979572
_cell_formula_units_Z   4
loop_
 _symmetry_equiv_pos_site_id
 _symmetry_equiv_pos_as_xyz
  1  'x, y, z'
loop_
 _atom_site_type_symbol
 _atom_site_label
 _atom_site_symmetry_multiplicity
 _atom_site_fract_x
 _atom_site_fract_y
 _atom_site_fract_z
 _atom_site_occupancy
  K  K0  1  0.51274400  0.67357600  0.28138400  1
  K  K1  1  0.48725600  0.32642400  0.71861600  1
  K  K2  1  0.01274400  0.32642400  0.21861600  1
  K  K3  1  0.98725600  0.67357600  0.78138400  1
  In  In0  1  0.25128200  0.90867600  0.04611500  1
  In  In1  1  0.74871800  0.09132400  0.95388500  1
  In  In2  1  0.75128200  0.09132400  0.45388500  1
  In  In3  1  0.24871800  0.90867600  0.54611500  1
  P  P0  1  0.75609300  0.90454300  0.13245000  1
  P  P1  1  0.24390700  0.09545700  0.86755000  1
  P  P2  1  0.25609300  0.09545700  0.36755000  1
  P  P3  1  0.74390700  0.90454300  0.63245000  1
  P  P4  1  0.74805500  0.65894200  0.09166400  1
  P  P5  1  0.25194500  0.34105800  0.90833600  1
  P  P6  1  0.24805500  0.34105800  0.40833600  1
  P  P7  1  0.75194500  0.65894200  0.59166400  1
  Se  Se0  1  0.56826400  0.41300100  0.42007400  1
  Se  Se1  1  0.43173600  0.58699900  0.57992600  1
  Se  Se2  1  0.06826400  0.58699900  0.07992600  1
  Se  Se3  1  0.93173600  0.41300100  0.92007400  1
  Se  Se4  1  0.41545900  0.88795700  0.43307700  1
  Se  Se5  1  0.58454100  0.11204300  0.56692300  1
  Se  Se6  1  0.91545900  0.11204300  0.06692300  1
  Se  Se7  1  0.08454100  0.88795700  0.93307700  1
  Se  Se8  1  0.58833300  0.74817600  0.00510300  1
  Se  Se9  1  0.41166700  0.25182400  0.99489700  1
  Se  Se10  1  0.08833300  0.25182400  0.49489700  1
  Se  Se11  1  0.91166700  0.74817600  0.50510300  1
  Se  Se12  1  0.92723300  0.85685500  0.21262600  1
  Se  Se13  1  0.07276700  0.14314500  0.78737400  1
  Se  Se14  1  0.42723300  0.14314500  0.28737400  1
  Se  Se15  1  0.57276700  0.85685500  0.71262600  1
  Se  Se16  1  0.43361900  0.96512600  0.14682200  1
  Se  Se17  1  0.56638100  0.03487400  0.85317800  1
  Se  Se18  1  0.93361900  0.03487400  0.35317800  1
  Se  Se19  1  0.06638100  0.96512600  0.64682200  1
  Se  Se20  1  0.58230400  0.45376300  0.14687600  1
  Se  Se21  1  0.41769600  0.54623700  0.85312400  1
  Se  Se22  1  0.08230400  0.54623700  0.35312400  1
  Se  Se23  1  0.91769600  0.45376300  0.64687600  1
loop_
_geom_bond_atom_site_label_1
_geom_bond_atom_site_label_2
_geom_bond_distance
_geom_bond_site_symmetry_2
K0 Se12 3.357218 1_555
K0 Se22 3.359184 1_555
K0 Se0 3.503370 1_555
K0 Se16 3.551208 1_555
K0 Se14 3.710569 1_565
K0 Se20 3.877219 1_555
K1 Se13 3.357218 1_555
K1 Se23 3.359184 1_555
K1 Se1 3.503370 1_555
K1 Se17 3.551208 1_555
K1 Se15 3.710569 1_545
K1 Se21 3.877219 1_555
K2 Se14 3.357218 1_555
K2 Se20 3.359184 1_455
K2 Se2 3.503370 1_555
K2 Se18 3.551208 1_455
K2 Se12 3.710569 1_445
K2 Se22 3.877219 1_555
K3 Se15 3.357218 1_555
K3 Se21 3.359184 1_655
K3 Se3 3.503370 1_555
K3 Se19 3.551208 1_655
K3 Se13 3.710569 1_665
K3 Se23 3.877219 1_555
In0 Se2 2.750052 1_555
In0 Se16 2.754437 1_555
In0 Se8 2.809464 1_555
In0 Se6 2.819431 1_465
In0 Se7 2.897838 1_554
In0 Se9 2.903833 1_564
In1 Se3 2.750052 1_555
In1 Se17 2.754437 1_555
In1 Se9 2.809464 1_555
In1 Se7 2.819431 1_645
In1 Se6 2.897838 1_556
In1 Se8 2.903833 1_546
In2 Se0 2.750052 1_555
In2 Se18 2.754437 1_555
In2 Se10 2.809464 1_655
In2 Se4 2.819431 1_545
In2 Se5 2.897838 1_555
In2 Se11 2.903833 1_545
In3 Se1 2.750052 1_555
In3 Se19 2.754437 1_555
In3 Se11 2.809464 1_455
In3 Se5 2.819431 1_565
In3 Se4 2.897838 1_555
In3 Se10 2.903833 1_565
P0 Se12 2.162702 1_555
P0 Se16 2.224531 1_555
P0 Se6 2.262708 1_565
P0 P4 2.284263 1_555
P1 Se13 2.162702 1_555
P1 Se17 2.224531 1_555
P1 Se7 2.262708 1_545
P1 P5 2.284263 1_555
P2 Se14 2.162702 1_555
P2 Se18 2.224531 1_455
P2 Se4 2.262708 1_545
P2 P6 2.284263 1_555
P3 Se15 2.162702 1_555
P3 Se19 2.224531 1_655
P3 Se5 2.262708 1_565
P3 P7 2.284263 1_555
P4 Se20 2.150904 1_555
P4 Se2 2.221645 1_655
P4 Se8 2.273727 1_555
P5 Se21 2.150904 1_555
P5 Se3 2.221645 1_455
P5 Se9 2.273727 1_555
P6 Se22 2.150904 1_555
P6 Se0 2.221645 1_555
P6 Se10 2.273727 1_555
P7 Se23 2.150904 1_555
P7 Se1 2.221645 1_555
P7 Se11 2.273727 1_555
