# generated using pymatgen
data_Li7Ni(O2F)2
_symmetry_space_group_name_H-M   'P 1'
_cell_length_a   5.30445560
_cell_length_b   5.96389767
_cell_length_c   10.27395346
_cell_angle_alpha   82.12422818
_cell_angle_beta   79.99761696
_cell_angle_gamma   119.22966657
_symmetry_Int_Tables_number   1
_chemical_formula_structural   Li7Ni(O2F)2
_chemical_formula_sum   'Li14 Ni2 O8 F4'
_cell_volume   269.85657507
_cell_formula_units_Z   2
loop_
 _symmetry_equiv_pos_site_id
 _symmetry_equiv_pos_as_xyz
  1  'x, y, z'
loop_
 _atom_site_type_symbol
 _atom_site_label
 _atom_site_symmetry_multiplicity
 _atom_site_fract_x
 _atom_site_fract_y
 _atom_site_fract_z
 _atom_site_occupancy
  Li  Li0  1  0.11636700  0.06646800  0.21665600  1
  Li  Li1  1  0.10272300  0.62729800  0.74431600  1
  Li  Li2  1  0.51059500  0.96553500  0.38459300  1
  Li  Li3  1  0.58325800  0.66859100  0.14539900  1
  Li  Li4  1  0.26566600  0.21249600  0.43461500  1
  Li  Li5  1  0.21623700  0.71385200  0.97048400  1
  Li  Li6  1  0.31729700  0.34429300  0.66641700  1
  Li  Li7  1  0.71102900  0.22175600  0.07567100  1
  Li  Li8  1  0.76121900  0.76878100  0.51892400  1
  Li  Li9  1  0.47938400  0.48583000  0.91732700  1
  Li  Li10  1  0.53194500  0.03450100  0.61309200  1
  Li  Li11  1  0.95941200  0.54297800  0.28321500  1
  Li  Li12  1  0.86481900  0.89156500  0.74453900  1
  Li  Li13  1  0.62409700  0.14690200  0.85499300  1
  Ni  Ni0  1  0.05175400  0.05722000  0.93282200  1
  Ni  Ni1  1  0.01714700  0.49400600  0.50443100  1
  O  O0  1  0.09942100  0.82536600  0.38955300  1
  O  O1  1  0.24460800  0.97448200  0.78667600  1
  O  O2  1  0.34005900  0.13117100  0.02616900  1
  O  O3  1  0.35500700  0.68250600  0.56383500  1
  O  O4  1  0.06308600  0.37547000  0.89190400  1
  O  O5  1  0.65889500  0.31471200  0.45893000  1
  O  O6  1  0.64582600  0.82451700  0.94609000  1
  O  O7  1  0.95495200  0.16163600  0.59595600  1
  F  F0  1  0.23378900  0.39312500  0.27262200  1
  F  F1  1  0.86361100  0.55310300  0.12154300  1
  F  F2  1  0.72223200  0.97743600  0.21250100  1
  F  F3  1  0.70556200  0.54440300  0.72673200  1
loop_
_geom_bond_atom_site_label_1
_geom_bond_atom_site_label_2
_geom_bond_distance
_geom_bond_site_symmetry_2
Li0 O2 1.981439 1_555
Li0 O0 2.085508 1_545
Li1 O4 1.885683 1_555
Li1 O3 1.969238 1_555
Li1 O1 1.970257 1_555
Li2 O0 1.904597 1_555
Li2 O3 2.044799 1_555
Li2 O5 2.140894 1_565
Li3 O6 2.026970 1_554
Li4 O5 1.940560 1_555
Li4 O7 1.995259 1_455
Li4 O0 2.183782 1_545
Li5 O6 1.994624 1_555
Li5 O4 2.111297 1_555
Li5 O1 2.207554 1_555
Li5 O2 2.424321 1_566
Li6 O7 2.014846 1_455
Li6 O3 2.041926 1_555
Li6 O1 2.190142 1_545
Li6 O4 2.549014 1_555
Li7 O2 1.951268 1_555
Li7 O4 2.126351 1_654
Li8 O0 1.885840 1_655
Li8 O3 1.904553 1_555
Li8 O7 2.368768 1_565
Li9 O6 1.859933 1_555
Li9 O2 1.951557 1_556
Li9 O4 2.050795 1_555
Li10 O5 1.886764 1_555
Li10 O7 1.950713 1_555
Li10 O1 1.994919 1_545
Li10 O3 2.018863 1_545
Li11 O5 1.964909 1_555
Li11 O0 2.036178 1_655
Li12 O7 1.863797 1_565
Li12 O1 1.969557 1_655
Li12 O6 2.069069 1_555
Li13 O2 2.065913 1_556
Li13 O1 2.066200 1_545
Li13 O6 2.084864 1_545
Li13 O4 2.184663 1_655
Ni0 O2 1.849252 1_556
Ni0 O4 1.855779 1_555
Ni0 O6 1.873171 1_445
Ni0 O1 1.925338 1_545
Ni1 O5 1.853175 1_455
Ni1 O3 1.857011 1_555
Ni1 O7 1.914420 1_455
Ni1 O0 1.956628 1_555
F0 Li3 1.854556 1_555
F0 Li4 1.934761 1_555
F0 Li0 1.939121 1_555
F0 Li11 2.042242 1_455
F1 Li11 1.821136 1_555
F1 Li7 1.899461 1_555
F1 Li5 1.912842 1_654
F1 Li3 1.914669 1_555
F2 Li2 1.894640 1_555
F2 Li0 1.899403 1_665
F2 Li3 1.899956 1_555
F2 Li7 1.911839 1_565
F3 Li12 1.866322 1_555
F3 Li1 1.963376 1_655
F3 Li9 1.995739 1_555
F3 Li6 2.072562 1_555
F3 Li8 2.246856 1_555
F3 Li13 2.342818 1_555
