# generated using pymatgen
data_Li9Mn2Co5O16
_symmetry_space_group_name_H-M   'P 1'
_cell_length_a   4.96431500
_cell_length_b   6.60286577
_cell_length_c   9.02328826
_cell_angle_alpha   98.56029894
_cell_angle_beta   96.77339769
_cell_angle_gamma   97.74262991
_symmetry_Int_Tables_number   1
_chemical_formula_structural   Li9Mn2Co5O16
_chemical_formula_sum   'Li9 Mn2 Co5 O16'
_cell_volume   286.92177866
_cell_formula_units_Z   1
loop_
 _symmetry_equiv_pos_site_id
 _symmetry_equiv_pos_as_xyz
  1  'x, y, z'
loop_
 _atom_site_type_symbol
 _atom_site_label
 _atom_site_symmetry_multiplicity
 _atom_site_fract_x
 _atom_site_fract_y
 _atom_site_fract_z
 _atom_site_occupancy
  Li  Li0  1  0.74767200  0.31235700  0.19777200  1
  Li  Li1  1  0.75884300  0.80691700  0.68388400  1
  Li  Li2  1  0.25083400  0.19301900  0.31777100  1
  Li  Li3  1  0.26079100  0.68378100  0.79964900  1
  Li  Li4  1  0.74599400  0.06983700  0.43364800  1
  Li  Li5  1  0.73949800  0.55814600  0.93666100  1
  Li  Li6  1  0.24871700  0.44218900  0.06456900  1
  Li  Li7  1  0.24943900  0.93227900  0.56218300  1
  Li  Li8  1  0.00168400  0.49974000  0.49702200  1
  Mn  Mn0  1  0.99720300  0.99816700  0.00279300  1
  Mn  Mn1  1  0.99746900  0.75162400  0.25236000  1
  Co  Co0  1  0.49780100  0.87491800  0.12879000  1
  Co  Co1  1  0.50413600  0.37906000  0.61658000  1
  Co  Co2  1  0.00526600  0.25201700  0.74693500  1
  Co  Co3  1  0.50283100  0.61785600  0.37983300  1
  Co  Co4  1  0.49501200  0.12291200  0.87454400  1
  O  O0  1  0.86161600  0.26085000  0.96500700  1
  O  O1  1  0.87241200  0.77658100  0.44667300  1
  O  O2  1  0.36877200  0.13333800  0.08719700  1
  O  O3  1  0.39768300  0.64359000  0.58839200  1
  O  O4  1  0.86162300  0.01053100  0.22172800  1
  O  O5  1  0.84017300  0.51320500  0.71444300  1
  O  O6  1  0.35284800  0.39631700  0.84248100  1
  O  O7  1  0.36326400  0.89460600  0.32494500  1
  O  O8  1  0.61678800  0.35121000  0.40906300  1
  O  O9  1  0.62523100  0.85490100  0.92852400  1
  O  O10  1  0.16255600  0.23386300  0.54401500  1
  O  O11  1  0.12439300  0.73728700  0.04859200  1
  O  O12  1  0.64016200  0.11038900  0.66344900  1
  O  O13  1  0.63336900  0.61769500  0.16185800  1
  O  O14  1  0.13427800  0.49632800  0.27827100  1
  O  O15  1  0.14164200  0.97449200  0.78036400  1
loop_
_geom_bond_atom_site_label_1
_geom_bond_atom_site_label_2
_geom_bond_distance
_geom_bond_site_symmetry_2
Li0 O8 2.077113 1_555
Li0 O14 2.113518 1_655
Li0 O2 2.130239 1_555
Li0 O4 2.177525 1_555
Li0 O13 2.225097 1_555
Li0 O0 2.228529 1_554
Li1 O3 1.989461 1_555
Li1 O5 2.084228 1_555
Li1 O15 2.085637 1_655
Li1 O12 2.190604 1_565
Li1 O1 2.264254 1_555
Li1 O9 2.367911 1_555
Li2 O8 1.987351 1_555
Li2 O10 2.123992 1_555
Li2 O7 2.126942 1_545
Li2 O4 2.145467 1_455
Li2 O2 2.220840 1_555
Li2 O14 2.224583 1_555
Li3 O3 2.090344 1_555
Li3 O6 2.090790 1_555
Li3 O15 2.108509 1_555
Li3 O9 2.112789 1_555
Li3 O5 2.224761 1_455
Li3 O11 2.411658 1_556
Li4 O4 2.058148 1_555
Li4 O8 2.079069 1_555
Li4 O1 2.129513 1_545
Li4 O7 2.130956 1_545
Li4 O12 2.185628 1_555
Li4 O10 2.242942 1_655
Li5 O6 2.083389 1_555
Li5 O5 2.111310 1_555
Li5 O9 2.121096 1_555
Li5 O13 2.152156 1_556
Li5 O11 2.156449 1_656
Li5 O0 2.172528 1_555
Li6 O14 2.068038 1_555
Li6 O13 2.113141 1_555
Li6 O6 2.116764 1_554
Li6 O11 2.141259 1_555
Li6 O0 2.141540 1_454
Li6 O2 2.231230 1_555
Li7 O1 2.085378 1_455
Li7 O15 2.089312 1_555
Li7 O10 2.119006 1_565
Li7 O12 2.151209 1_565
Li7 O3 2.168445 1_555
Li7 O7 2.264577 1_555
Li8 O8 2.036743 1_455
Li8 O3 2.080373 1_555
Li8 O10 2.102154 1_555
Li8 O1 2.110487 1_455
Li8 O14 2.151074 1_555
Li8 O5 2.199538 1_455
Mn0 O2 1.949815 1_665
Mn0 O9 1.950008 1_554
Mn0 O11 1.995017 1_655
Mn0 O0 2.003534 1_564
Mn0 O4 2.154708 1_565
Mn0 O15 2.200697 1_654
Mn1 O1 1.919662 1_555
Mn1 O7 1.921270 1_655
Mn1 O13 1.929280 1_555
Mn1 O14 1.935410 1_655
Mn1 O4 1.964946 1_565
Mn1 O11 2.006034 1_655
Co0 O4 1.936637 1_565
Co0 O11 1.954396 1_555
Co0 O7 1.956906 1_555
Co0 O13 1.959092 1_555
Co0 O2 1.972583 1_565
Co0 O9 1.975903 1_554
Co1 O10 1.826602 1_555
Co1 O5 1.835407 1_555
Co1 O3 1.934952 1_555
Co1 O8 2.006236 1_555
Co1 O12 2.064143 1_555
Co1 O6 2.246560 1_555
Co2 O6 1.894739 1_555
Co2 O12 1.933553 1_455
Co2 O5 2.050989 1_455
Co2 O10 2.067314 1_555
Co2 O15 2.087559 1_545
Co2 O0 2.166088 1_455
Co3 O14 1.954789 1_555
Co3 O8 1.964900 1_555
Co3 O1 1.964948 1_555
Co3 O3 2.000816 1_555
Co3 O13 2.142118 1_555
Co3 O7 2.143396 1_555
Co4 O15 1.922793 1_545
Co4 O0 1.946697 1_555
Co4 O9 2.068173 1_545
Co4 O6 2.071556 1_555
Co4 O2 2.082150 1_556
Co4 O12 2.108823 1_555
