# generated using pymatgen
data_Pr(ErS2)3
_symmetry_space_group_name_H-M   'P 1'
_cell_length_a   3.96169549
_cell_length_b   11.00860368
_cell_length_c   11.27061425
_cell_angle_alpha   71.13481126
_cell_angle_beta   90.00000000
_cell_angle_gamma   90.00000000
_symmetry_Int_Tables_number   1
_chemical_formula_structural   Pr(ErS2)3
_chemical_formula_sum   'Pr2 Er6 S12'
_cell_volume   465.13764199
_cell_formula_units_Z   2
loop_
 _symmetry_equiv_pos_site_id
 _symmetry_equiv_pos_as_xyz
  1  'x, y, z'
loop_
 _atom_site_type_symbol
 _atom_site_label
 _atom_site_symmetry_multiplicity
 _atom_site_fract_x
 _atom_site_fract_y
 _atom_site_fract_z
 _atom_site_occupancy
  Pr  Pr0  1  0.75000000  0.54984854  0.80436495  1
  Pr  Pr1  1  0.25000000  0.45015146  0.19563505  1
  Er  Er0  1  0.75000000  0.17922172  0.99822907  1
  Er  Er1  1  0.25000000  0.82077828  0.00177093  1
  Er  Er2  1  0.75000000  0.94229206  0.66695526  1
  Er  Er3  1  0.25000000  0.05770794  0.33304474  1
  Er  Er4  1  0.75000000  0.66172756  0.41242300  1
  Er  Er5  1  0.25000000  0.33827244  0.58757700  1
  S  S0  1  0.75000000  0.97745289  0.88851447  1
  S  S1  1  0.25000000  0.02254711  0.11148553  1
  S  S2  1  0.75000000  0.30145002  0.74863192  1
  S  S3  1  0.25000000  0.69854998  0.25136808  1
  S  S4  1  0.75000000  0.89417956  0.44184946  1
  S  S5  1  0.25000000  0.10582044  0.55815054  1
  S  S6  1  0.75000000  0.41841495  0.40759828  1
  S  S7  1  0.25000000  0.58158505  0.59240172  1
  S  S8  1  0.75000000  0.23249539  0.22881640  1
  S  S9  1  0.25000000  0.76750461  0.77118360  1
  S  S10  1  0.75000000  0.61993887  0.03658396  1
  S  S11  1  0.25000000  0.38006113  0.96341604  1
loop_
_geom_bond_atom_site_label_1
_geom_bond_atom_site_label_2
_geom_bond_distance
_geom_bond_site_symmetry_2
Pr0 S11 2.909299 1_555
Pr0 S11 2.909299 1_655
Pr0 S10 2.958263 1_556
Pr0 S2 2.997160 1_555
Pr0 S7 3.035322 1_555
Pr0 S7 3.035322 1_655
Pr0 S9 3.037331 1_555
Pr0 S9 3.037331 1_655
Pr1 S10 2.909299 1_455
Pr1 S10 2.909299 1_555
Pr1 S11 2.958263 1_554
Pr1 S3 2.997160 1_555
Pr1 S6 3.035322 1_555
Pr1 S6 3.035322 1_455
Pr1 S8 3.037331 1_555
Pr1 S8 3.037331 1_455
Er0 S1 2.665372 1_656
Er0 S1 2.665372 1_556
Er0 S2 2.697462 1_555
Er0 S8 2.843179 1_556
Er0 S0 2.870358 1_545
Er0 S11 2.899148 1_555
Er0 S11 2.899148 1_655
Er1 S0 2.665372 1_454
Er1 S0 2.665372 1_554
Er1 S3 2.697462 1_555
Er1 S9 2.843179 1_554
Er1 S1 2.870358 1_565
Er1 S10 2.899148 1_455
Er1 S10 2.899148 1_555
Er2 S0 2.647723 1_555
Er2 S5 2.690860 1_665
Er2 S5 2.690860 1_565
Er2 S9 2.746707 1_555
Er2 S9 2.746707 1_655
Er2 S4 2.754325 1_555
Er3 S1 2.647723 1_555
Er3 S4 2.690860 1_445
Er3 S4 2.690860 1_545
Er3 S8 2.746707 1_555
Er3 S8 2.746707 1_455
Er3 S5 2.754325 1_555
Er4 S3 2.628145 1_555
Er4 S3 2.628145 1_655
Er4 S4 2.684617 1_555
Er4 S6 2.696606 1_555
Er4 S7 2.767580 1_555
Er4 S7 2.767580 1_655
Er5 S2 2.628145 1_455
Er5 S2 2.628145 1_555
Er5 S5 2.684617 1_555
Er5 S7 2.696606 1_555
Er5 S6 2.767580 1_455
Er5 S6 2.767580 1_555
