# generated using pymatgen
data_AlIn3(CuSe2)4
_symmetry_space_group_name_H-M   'P 1'
_cell_length_a   5.82957301
_cell_length_b   7.11596857
_cell_length_c   10.88807125
_cell_angle_alpha   77.56399510
_cell_angle_beta   74.47016197
_cell_angle_gamma   65.82404524
_symmetry_Int_Tables_number   1
_chemical_formula_structural   AlIn3(CuSe2)4
_chemical_formula_sum   'Al1 In3 Cu4 Se8'
_cell_volume   394.13084421
_cell_formula_units_Z   1
loop_
 _symmetry_equiv_pos_site_id
 _symmetry_equiv_pos_as_xyz
  1  'x, y, z'
loop_
 _atom_site_type_symbol
 _atom_site_label
 _atom_site_symmetry_multiplicity
 _atom_site_fract_x
 _atom_site_fract_y
 _atom_site_fract_z
 _atom_site_occupancy
  Al  Al0  1  0.25016800  0.37508500  0.12493000  1
  In  In0  1  0.24983500  0.87487500  0.62503800  1
  In  In1  1  0.49681800  0.25078700  0.75272800  1
  In  In2  1  0.50322700  0.74926700  0.24714100  1
  Cu  Cu0  1  0.74928200  0.62302400  0.87711900  1
  Cu  Cu1  1  0.75064000  0.12698700  0.37294500  1
  Cu  Cu2  1  0.99979400  0.00058900  0.00157900  1
  Cu  Cu3  1  0.00009500  0.49942800  0.49840500  1
  Se  Se0  1  0.36411900  0.68128700  0.05156500  1
  Se  Se1  1  0.37608000  0.20461300  0.54647200  1
  Se  Se2  1  0.90116000  0.41920700  0.31401200  1
  Se  Se3  1  0.87467400  0.92099700  0.83002900  1
  Se  Se4  1  0.10305900  0.31555000  0.95167000  1
  Se  Se5  1  0.09320500  0.81242100  0.43626100  1
  Se  Se6  1  0.65999900  0.56163000  0.68704400  1
  Se  Se7  1  0.62784600  0.08425500  0.18306000  1
loop_
_geom_bond_atom_site_label_1
_geom_bond_atom_site_label_2
_geom_bond_distance
_geom_bond_site_symmetry_2
Al0 Se0 2.445167 1_555
Al0 Se7 2.445601 1_555
Al0 Se4 2.445769 1_554
Al0 Se2 2.447179 1_455
In0 Se3 2.643132 1_455
In0 Se5 2.643248 1_555
In0 Se1 2.644206 1_565
In0 Se6 2.644315 1_555
In1 Se3 2.641165 1_545
In1 Se6 2.643288 1_555
In1 Se1 2.645810 1_555
In1 Se4 2.659776 1_555
In2 Se5 2.653021 1_555
In2 Se0 2.667554 1_555
In2 Se7 2.669755 1_565
In2 Se2 2.670779 1_555
Cu0 Se3 2.427710 1_555
Cu0 Se6 2.428428 1_555
Cu0 Se0 2.472662 1_556
Cu0 Se4 2.476884 1_655
Cu1 Se5 2.425911 1_645
Cu1 Se1 2.427982 1_555
Cu1 Se7 2.474051 1_555
Cu1 Se2 2.474681 1_555
Cu2 Se3 2.421818 1_544
Cu2 Se4 2.467040 1_654
Cu2 Se0 2.470493 1_645
Cu2 Se7 2.472955 1_555
Cu3 Se6 2.416085 1_455
Cu3 Se1 2.419554 1_555
Cu3 Se5 2.420240 1_555
Cu3 Se2 2.464273 1_455
