# generated using pymatgen
data_Mg2Si3
_symmetry_space_group_name_H-M   'P 1'
_cell_length_a   6.79344237
_cell_length_b   5.43466185
_cell_length_c   14.12962748
_cell_angle_alpha   68.87014262
_cell_angle_beta   95.37371103
_cell_angle_gamma   55.15973619
_symmetry_Int_Tables_number   1
_chemical_formula_structural   Mg2Si3
_chemical_formula_sum   'Mg8 Si12'
_cell_volume   367.51980524
_cell_formula_units_Z   4
loop_
 _symmetry_equiv_pos_site_id
 _symmetry_equiv_pos_as_xyz
  1  'x, y, z'
loop_
 _atom_site_type_symbol
 _atom_site_label
 _atom_site_symmetry_multiplicity
 _atom_site_fract_x
 _atom_site_fract_y
 _atom_site_fract_z
 _atom_site_occupancy
  Mg  Mg0  1  0.99403900  0.07531300  0.24303300  1
  Mg  Mg1  1  0.05760000  0.23520800  0.77798300  1
  Mg  Mg2  1  0.02944500  0.88812900  0.01513700  1
  Mg  Mg3  1  0.85524200  0.57302900  0.95638100  1
  Mg  Mg4  1  0.53468300  0.83373100  0.73128400  1
  Mg  Mg5  1  0.44795600  0.37563100  0.24674100  1
  Mg  Mg6  1  0.61910600  0.59780400  0.54289500  1
  Mg  Mg7  1  0.46502800  0.25800100  0.48730100  1
  Si  Si0  1  0.55383400  0.42767300  0.03181700  1
  Si  Si1  1  0.36935300  0.03164500  0.98085500  1
  Si  Si2  1  0.73734800  0.80188800  0.13954400  1
  Si  Si3  1  0.32483300  0.53267600  0.85861200  1
  Si  Si4  1  0.92753900  0.89043700  0.69345800  1
  Si  Si5  1  0.05063600  0.47216200  0.32854200  1
  Si  Si6  1  0.13239100  0.09084100  0.56253100  1
  Si  Si7  1  0.90858000  0.75644100  0.44217800  1
  Si  Si8  1  0.23919200  0.52954200  0.62778000  1
  Si  Si9  1  0.79612700  0.32161900  0.39570300  1
  Si  Si10  1  0.31001100  0.09523200  0.14429000  1
  Si  Si11  1  0.64704100  0.21281300  0.79385500  1
loop_
_geom_bond_atom_site_label_1
_geom_bond_atom_site_label_2
_geom_bond_distance
_geom_bond_site_symmetry_2
Mg0 Si10 2.698793 1_655
Mg0 Si5 2.823122 1_645
Mg0 Si2 2.874579 1_555
Mg0 Si9 2.970122 1_555
Mg0 Si5 2.999714 1_655
Mg0 Si0 3.030127 1_555
Mg0 Si7 3.032789 1_545
Mg0 Mg5 3.099837 1_555
Mg0 Mg5 3.224824 1_645
Mg1 Si3 2.779925 1_545
Mg1 Si1 2.797437 1_555
Mg1 Si4 2.833489 1_455
Mg1 Si11 2.886101 1_455
Mg1 Si8 2.980319 1_555
Mg1 Si4 3.004191 1_445
Mg2 Si1 2.858336 1_564
Mg2 Si0 2.870580 1_555
Mg2 Si2 2.892964 1_455
Mg2 Si11 2.983559 1_464
Mg2 Si0 2.984800 1_465
Mg2 Mg5 3.031199 1_555
Mg2 Si10 3.134717 1_555
Mg3 Si11 2.716535 1_565
Mg3 Si0 2.757296 1_556
Mg3 Si10 2.768347 1_656
Mg3 Si1 2.876378 1_655
Mg3 Si1 2.943205 1_565
Mg4 Si6 2.668524 1_565
Mg4 Si8 2.694037 1_565
Mg4 Si11 2.744279 1_555
Mg4 Si4 2.931131 1_555
Mg4 Si11 2.931236 1_565
Mg4 Si3 2.994872 1_555
Mg5 Si9 2.817731 1_555
Mg5 Si10 2.874702 1_555
Mg5 Si5 2.881013 1_555
Mg5 Si7 2.896869 1_545
Mg5 Si10 3.121685 1_565
Mg5 Si0 3.137166 1_555
Mg5 Mg7 3.201614 1_555
Mg6 Si4 2.785689 1_545
Mg6 Mg7 2.847631 1_565
Mg6 Si6 2.849137 1_655
Mg6 Si7 2.865741 1_555
Mg6 Mg7 2.867661 1_555
Mg6 Si9 2.946393 1_555
Mg6 Si6 2.962149 1_565
Mg6 Si8 3.096827 1_555
Mg7 Si5 2.739130 1_555
Mg7 Si9 2.822265 1_555
Mg7 Si8 2.926913 1_555
Mg7 Si7 2.938988 1_455
Mg7 Si7 3.023964 1_545
Mg7 Si6 3.026709 1_555
Mg7 Si4 3.044178 1_545
Si0 Si3 2.449672 1_554
Si0 Si1 2.507971 1_564
Si0 Si2 2.550565 1_545
Si1 Si3 2.461624 1_555
Si1 Si2 2.490250 1_546
Si1 Si10 2.491031 1_556
Si2 Si5 2.449482 1_655
Si3 Si4 2.462458 1_455
Si4 Si8 2.475121 1_655
Si4 Si6 2.703069 1_665
Si5 Si9 2.433750 1_455
Si5 Si7 2.504281 1_455
Si6 Si9 2.436036 1_455
Si6 Si8 2.449497 1_545
Si6 Si7 2.661803 1_455
Si7 Si9 2.494002 1_565
Si7 Si8 2.615974 1_655
Si10 Si2 2.408205 1_545
Si11 Si3 2.413428 1_555
Si11 Si8 2.562610 1_555
Si11 Si4 2.682647 1_545
