# generated using pymatgen
data_Na4Sn2Ge5O17
_symmetry_space_group_name_H-M   'P 1'
_cell_length_a   5.45799700
_cell_length_b   7.09419200
_cell_length_c   21.29366140
_cell_angle_alpha   73.88779840
_cell_angle_beta   90.00000000
_cell_angle_gamma   90.00000000
_symmetry_Int_Tables_number   1
_chemical_formula_structural   Na4Sn2Ge5O17
_chemical_formula_sum   'Na8 Sn4 Ge10 O34'
_cell_volume   792.10625159
_cell_formula_units_Z   2
loop_
 _symmetry_equiv_pos_site_id
 _symmetry_equiv_pos_as_xyz
  1  'x, y, z'
loop_
 _atom_site_type_symbol
 _atom_site_label
 _atom_site_symmetry_multiplicity
 _atom_site_fract_x
 _atom_site_fract_y
 _atom_site_fract_z
 _atom_site_occupancy
  Na  Na0  1  0.99971100  0.74608600  0.70943000  1
  Na  Na1  1  0.99971100  0.25391400  0.79057000  1
  Na  Na2  1  0.00028900  0.25391400  0.29057000  1
  Na  Na3  1  0.00028900  0.74608600  0.20943000  1
  Na  Na4  1  0.24468000  0.60996700  0.52797200  1
  Na  Na5  1  0.24468000  0.39003300  0.97202800  1
  Na  Na6  1  0.75532000  0.39003300  0.47202800  1
  Na  Na7  1  0.75532000  0.60996700  0.02797200  1
  Sn  Sn0  1  0.23934600  0.88551100  0.91109200  1
  Sn  Sn1  1  0.23934600  0.11448900  0.58890800  1
  Sn  Sn2  1  0.76065400  0.11448900  0.08890800  1
  Sn  Sn3  1  0.76065400  0.88551100  0.41109200  1
  Ge  Ge0  1  0.50395900  0.00000000  0.75000000  1
  Ge  Ge1  1  0.49604100  0.00000000  0.25000000  1
  Ge  Ge2  1  0.71525400  0.81389500  0.57634900  1
  Ge  Ge3  1  0.71525400  0.18610500  0.92365100  1
  Ge  Ge4  1  0.28474600  0.18610500  0.42365100  1
  Ge  Ge5  1  0.28474600  0.81389500  0.07634900  1
  Ge  Ge6  1  0.74831200  0.65132200  0.86549500  1
  Ge  Ge7  1  0.74831200  0.34867800  0.63450500  1
  Ge  Ge8  1  0.25168800  0.34867800  0.13450500  1
  Ge  Ge9  1  0.25168800  0.65132200  0.36549500  1
  O  O0  1  0.30710500  0.50000000  0.75000000  1
  O  O1  1  0.69289500  0.50000000  0.25000000  1
  O  O2  1  0.05916500  0.65502500  0.88749700  1
  O  O3  1  0.05916500  0.34497500  0.61250300  1
  O  O4  1  0.94083500  0.34497500  0.11250300  1
  O  O5  1  0.94083500  0.65502500  0.38749700  1
  O  O6  1  0.32052500  0.96564600  0.68681800  1
  O  O7  1  0.32052500  0.03435400  0.81318200  1
  O  O8  1  0.67947500  0.03435400  0.31318200  1
  O  O9  1  0.67947500  0.96564600  0.18681800  1
  O  O10  1  0.40389000  0.88326400  0.56323800  1
  O  O11  1  0.40389000  0.11673600  0.93676200  1
  O  O12  1  0.59611000  0.11673600  0.43676200  1
  O  O13  1  0.59611000  0.88326400  0.06323800  1
  O  O14  1  0.54051900  0.69076900  0.92390900  1
  O  O15  1  0.54051900  0.30923100  0.57609100  1
  O  O16  1  0.45948100  0.30923100  0.07609100  1
  O  O17  1  0.45948100  0.69076900  0.42390900  1
  O  O18  1  0.70992000  0.59074600  0.64423800  1
  O  O19  1  0.70992000  0.40925400  0.85576200  1
  O  O20  1  0.29008000  0.40925400  0.35576200  1
  O  O21  1  0.29008000  0.59074600  0.14423800  1
  O  O22  1  0.70762900  0.79741000  0.78196100  1
  O  O23  1  0.70762900  0.20259000  0.71803900  1
  O  O24  1  0.29237100  0.20259000  0.21803900  1
  O  O25  1  0.29237100  0.79741000  0.28196100  1
  O  O26  1  0.83902400  0.74498500  0.50890600  1
  O  O27  1  0.83902400  0.25501500  0.99109400  1
  O  O28  1  0.16097600  0.25501500  0.49109400  1
  O  O29  1  0.16097600  0.74498500  0.00890600  1
  O  O30  1  0.90468600  0.96587200  0.60804100  1
  O  O31  1  0.90468600  0.03412800  0.89195900  1
  O  O32  1  0.09531400  0.03412800  0.39195900  1
  O  O33  1  0.09531400  0.96587200  0.10804100  1
loop_
_geom_bond_atom_site_label_1
_geom_bond_atom_site_label_2
_geom_bond_distance
_geom_bond_site_symmetry_2
Na0 O6 2.303844 1_655
Na0 O22 2.317636 1_555
Na0 O30 2.343663 1_555
Na0 O0 2.402463 1_655
Na0 O18 2.547992 1_555
Na1 O7 2.303844 1_655
Na1 O23 2.317636 1_555
Na1 O31 2.343663 1_555
Na1 O0 2.402463 1_655
Na1 O19 2.547992 1_555
Na2 O8 2.303844 1_455
Na2 O24 2.317636 1_555
Na2 O32 2.343663 1_555
Na2 O1 2.402463 1_455
Na2 O20 2.547992 1_555
Na3 O9 2.303844 1_455
Na3 O25 2.317636 1_555
Na3 O33 2.343663 1_555
Na3 O1 2.402463 1_455
Na3 O21 2.547992 1_555
Na4 O26 2.401781 1_455
Na4 O10 2.426139 1_555
Na4 O17 2.430678 1_555
Na4 O3 2.433322 1_555
Na4 O15 2.644899 1_555
Na4 O28 2.874665 1_555
Na5 O27 2.401781 1_455
Na5 O11 2.426139 1_555
Na5 O16 2.430678 1_556
Na5 O2 2.433322 1_555
Na5 O14 2.644899 1_555
Na5 O29 2.874665 1_556
Na6 O28 2.401781 1_655
Na6 O12 2.426139 1_555
Na6 O15 2.430678 1_555
Na6 O5 2.433322 1_555
Na6 O17 2.644899 1_555
Na6 O26 2.874665 1_555
Na7 O29 2.401781 1_655
Na7 O13 2.426139 1_555
Na7 O14 2.430678 1_554
Na7 O4 2.433322 1_555
Na7 O16 2.644899 1_555
Na7 O27 2.874665 1_554
Ge0 O6 1.747509 1_545
Ge0 O7 1.747509 1_555
Ge0 O23 1.794876 1_555
Ge0 O22 1.794876 1_545
Ge1 O9 1.747509 1_545
Ge1 O8 1.747509 1_555
Ge1 O24 1.794876 1_555
Ge1 O25 1.794876 1_545
Ge2 O30 1.758024 1_555
Ge2 O10 1.769719 1_555
Ge2 O26 1.774094 1_555
Ge2 O18 1.823873 1_555
Ge3 O31 1.758024 1_555
Ge3 O11 1.769719 1_555
Ge3 O27 1.774094 1_555
Ge3 O19 1.823873 1_555
Ge4 O32 1.758024 1_555
Ge4 O12 1.769719 1_555
Ge4 O28 1.774094 1_555
Ge4 O20 1.823873 1_555
Ge5 O33 1.758024 1_555
Ge5 O13 1.769719 1_555
Ge5 O29 1.774094 1_555
Ge5 O21 1.823873 1_555
Ge6 O14 1.762081 1_555
Ge6 O2 1.762267 1_655
Ge6 O19 1.798178 1_555
Ge6 O22 1.806690 1_555
Ge7 O15 1.762081 1_555
Ge7 O3 1.762267 1_655
Ge7 O18 1.798178 1_555
Ge7 O23 1.806690 1_555
Ge8 O16 1.762081 1_555
Ge8 O4 1.762267 1_455
Ge8 O21 1.798178 1_555
Ge8 O24 1.806690 1_555
Ge9 O17 1.762081 1_555
Ge9 O5 1.762267 1_455
Ge9 O20 1.798178 1_555
Ge9 O25 1.806690 1_555
O2 Sn0 2.085456 1_555
O3 Sn1 2.085456 1_555
O4 Sn2 2.085456 1_555
O5 Sn3 2.085456 1_555
O6 Sn1 2.106192 1_565
O7 Sn0 2.106192 1_545
O8 Sn3 2.106192 1_545
O9 Sn2 2.106192 1_565
O10 Sn1 2.072138 1_565
O11 Sn0 2.072138 1_545
O12 Sn3 2.072138 1_545
O13 Sn2 2.072138 1_565
O14 Sn0 2.115641 1_555
O15 Sn1 2.115641 1_555
O16 Sn2 2.115641 1_555
O17 Sn3 2.115641 1_555
O26 Sn3 2.088650 1_555
O27 Sn2 2.088650 1_556
O28 Sn1 2.088650 1_555
O29 Sn0 2.088650 1_554
O30 Sn1 2.091776 1_665
O31 Sn0 2.091776 1_645
O32 Sn3 2.091776 1_445
O33 Sn2 2.091776 1_465
