# generated using pymatgen
data_Cs2RbYI6
_symmetry_space_group_name_H-M   'P 1'
_cell_length_a   9.22718629
_cell_length_b   9.22718629
_cell_length_c   9.22718629
_cell_angle_alpha   60.00000000
_cell_angle_beta   60.00000000
_cell_angle_gamma   60.00000000
_symmetry_Int_Tables_number   1
_chemical_formula_structural   Cs2RbYI6
_chemical_formula_sum   'Cs2 Rb1 Y1 I6'
_cell_volume   555.51126355
_cell_formula_units_Z   1
loop_
 _symmetry_equiv_pos_site_id
 _symmetry_equiv_pos_as_xyz
  1  'x, y, z'
loop_
 _atom_site_type_symbol
 _atom_site_label
 _atom_site_symmetry_multiplicity
 _atom_site_fract_x
 _atom_site_fract_y
 _atom_site_fract_z
 _atom_site_occupancy
  Cs  Cs0  1  0.75000000  0.75000000  0.75000000  1
  Cs  Cs1  1  0.25000000  0.25000000  0.25000000  1
  Rb  Rb0  1  0.50000000  0.50000000  0.50000000  1
  Y  Y0  1  0.00000000  0.00000000  0.00000000  1
  I  I0  1  0.76796300  0.23203700  0.23203700  1
  I  I1  1  0.23203700  0.23203700  0.76796300  1
  I  I2  1  0.23203700  0.76796300  0.76796300  1
  I  I3  1  0.23203700  0.76796300  0.23203700  1
  I  I4  1  0.76796300  0.23203700  0.76796300  1
  I  I5  1  0.76796300  0.76796300  0.23203700  1
loop_
_geom_bond_atom_site_label_1
_geom_bond_atom_site_label_2
_geom_bond_distance
_geom_bond_site_symmetry_2
I0 Y0 3.027900 1_655
I0 Rb0 3.496706 1_555
I1 Y0 3.027900 1_556
I1 Rb0 3.496706 1_555
I2 Y0 3.027900 1_566
I2 Rb0 3.496706 1_555
I3 Y0 3.027900 1_565
I3 Rb0 3.496706 1_555
I4 Y0 3.027900 1_656
I4 Rb0 3.496706 1_555
I5 Y0 3.027900 1_665
I5 Rb0 3.496706 1_555
