# generated using pymatgen
data_La3As2BrO7
_symmetry_space_group_name_H-M   'P 1'
_cell_length_a   13.17389700
_cell_length_b   13.17389700
_cell_length_c   5.67251500
_cell_angle_alpha   90.00000000
_cell_angle_beta   90.00000000
_cell_angle_gamma   90.00000000
_symmetry_Int_Tables_number   1
_chemical_formula_structural   La3As2BrO7
_chemical_formula_sum   'La12 As8 Br4 O28'
_cell_volume   984.47383966
_cell_formula_units_Z   4
loop_
 _symmetry_equiv_pos_site_id
 _symmetry_equiv_pos_as_xyz
  1  'x, y, z'
loop_
 _atom_site_type_symbol
 _atom_site_label
 _atom_site_symmetry_multiplicity
 _atom_site_fract_x
 _atom_site_fract_y
 _atom_site_fract_z
 _atom_site_occupancy
  La  La0  1  0.76249500  0.23750500  0.50000000  1
  La  La1  1  0.23750500  0.76249500  0.50000000  1
  La  La2  1  0.26249500  0.26249500  0.00000000  1
  La  La3  1  0.73750500  0.73750500  0.00000000  1
  La  La4  1  0.63706500  0.95326500  0.50000000  1
  La  La5  1  0.36293500  0.04673500  0.50000000  1
  La  La6  1  0.13706500  0.54673500  0.00000000  1
  La  La7  1  0.86293500  0.45326500  0.00000000  1
  La  La8  1  0.95326500  0.63706500  0.50000000  1
  La  La9  1  0.04673500  0.36293500  0.50000000  1
  La  La10  1  0.54673500  0.13706500  0.00000000  1
  La  La11  1  0.45326500  0.86293500  0.00000000  1
  As  As0  1  0.47272000  0.28885000  0.50000000  1
  As  As1  1  0.52728000  0.71115000  0.50000000  1
  As  As2  1  0.97272000  0.21115000  0.00000000  1
  As  As3  1  0.02728000  0.78885000  0.00000000  1
  As  As4  1  0.28885000  0.47272000  0.50000000  1
  As  As5  1  0.71115000  0.52728000  0.50000000  1
  As  As6  1  0.21115000  0.97272000  0.00000000  1
  As  As7  1  0.78885000  0.02728000  0.00000000  1
  Br  Br0  1  0.85280400  0.85280400  0.50000000  1
  Br  Br1  1  0.14719600  0.14719600  0.50000000  1
  Br  Br2  1  0.35280400  0.64719600  0.00000000  1
  Br  Br3  1  0.64719600  0.35280400  0.00000000  1
  O  O0  1  0.50000000  0.00000000  0.25000000  1
  O  O1  1  0.00000000  0.50000000  0.75000000  1
  O  O2  1  0.50000000  0.00000000  0.75000000  1
  O  O3  1  0.00000000  0.50000000  0.25000000  1
  O  O4  1  0.58175200  0.20776900  0.50000000  1
  O  O5  1  0.41824800  0.79223100  0.50000000  1
  O  O6  1  0.08175200  0.29223100  0.00000000  1
  O  O7  1  0.91824800  0.70776900  0.00000000  1
  O  O8  1  0.20776900  0.58175200  0.50000000  1
  O  O9  1  0.79223100  0.41824800  0.50000000  1
  O  O10  1  0.29223100  0.08175200  0.00000000  1
  O  O11  1  0.70776900  0.91824800  0.00000000  1
  O  O12  1  0.40758800  0.22018500  0.26337500  1
  O  O13  1  0.59241200  0.77981500  0.26337500  1
  O  O14  1  0.90758800  0.27981500  0.76337500  1
  O  O15  1  0.09241200  0.72018500  0.76337500  1
  O  O16  1  0.59241200  0.77981500  0.73662500  1
  O  O17  1  0.40758800  0.22018500  0.73662500  1
  O  O18  1  0.09241200  0.72018500  0.23662500  1
  O  O19  1  0.90758800  0.27981500  0.23662500  1
  O  O20  1  0.22018500  0.40758800  0.26337500  1
  O  O21  1  0.77981500  0.59241200  0.26337500  1
  O  O22  1  0.27981500  0.90758800  0.76337500  1
  O  O23  1  0.72018500  0.09241200  0.76337500  1
  O  O24  1  0.77981500  0.59241200  0.73662500  1
  O  O25  1  0.22018500  0.40758800  0.73662500  1
  O  O26  1  0.72018500  0.09241200  0.23662500  1
  O  O27  1  0.27981500  0.90758800  0.23662500  1
loop_
_geom_bond_atom_site_label_1
_geom_bond_atom_site_label_2
_geom_bond_distance
_geom_bond_site_symmetry_2
La0 O4 2.413099 1_555
La0 O9 2.413099 1_555
La0 O19 2.489240 1_555
La0 O14 2.489240 1_555
La0 O23 2.489240 1_555
La0 O26 2.489240 1_555
La1 O8 2.413099 1_555
La1 O5 2.413099 1_555
La1 O22 2.489240 1_555
La1 O27 2.489240 1_555
La1 O18 2.489240 1_555
La1 O15 2.489240 1_555
La2 O10 2.413099 1_555
La2 O6 2.413099 1_555
La2 O12 2.489240 1_555
La2 O20 2.489240 1_555
La2 O25 2.489240 1_554
La2 O17 2.489240 1_554
La3 O7 2.413099 1_555
La3 O11 2.413099 1_555
La3 O24 2.489240 1_554
La3 O21 2.489240 1_555
La3 O13 2.489240 1_555
La3 O16 2.489240 1_554
La4 O2 2.377106 1_565
La4 O0 2.377106 1_565
La4 O23 2.606027 1_565
La4 O26 2.606027 1_565
La4 O13 2.714587 1_555
La4 O16 2.714587 1_555
La4 O11 3.020721 1_555
La4 O11 3.020721 1_556
La5 O0 2.377106 1_555
La5 O2 2.377106 1_555
La5 O27 2.606027 1_545
La5 O22 2.606027 1_545
La5 O12 2.714587 1_555
La5 O17 2.714587 1_555
La5 O10 3.020721 1_555
La5 O10 3.020721 1_556
La6 O1 2.377106 1_554
La6 O3 2.377106 1_555
La6 O20 2.606027 1_555
La6 O25 2.606027 1_554
La6 O18 2.714587 1_555
La6 O15 2.714587 1_554
La6 O8 3.020721 1_555
La6 O8 3.020721 1_554
La7 O3 2.377106 1_655
La7 O1 2.377106 1_654
La7 O24 2.606027 1_554
La7 O21 2.606027 1_555
La7 O19 2.714587 1_555
La7 O14 2.714587 1_554
La7 O9 3.020721 1_555
La7 O9 3.020721 1_554
La8 O3 2.377106 1_655
La8 O1 2.377106 1_655
La8 O15 2.606027 1_655
La8 O18 2.606027 1_655
La8 O21 2.714587 1_555
La8 O24 2.714587 1_555
La8 O7 3.020721 1_556
La8 O7 3.020721 1_555
La9 O1 2.377106 1_555
La9 O3 2.377106 1_555
La9 O19 2.606027 1_455
La9 O14 2.606027 1_455
La9 O20 2.714587 1_555
La9 O25 2.714587 1_555
La9 O6 3.020721 1_556
La9 O6 3.020721 1_555
La10 O0 2.377106 1_555
La10 O2 2.377106 1_554
La10 O12 2.606027 1_555
La10 O17 2.606027 1_554
La10 O23 2.714587 1_554
La10 O26 2.714587 1_555
La10 O4 3.020721 1_554
La10 O4 3.020721 1_555
La11 O0 2.377106 1_565
La11 O2 2.377106 1_564
La11 O13 2.606027 1_555
La11 O16 2.606027 1_554
La11 O22 2.714587 1_554
La11 O27 2.714587 1_555
La11 O5 3.020721 1_554
La11 O5 3.020721 1_555
As0 O4 1.790008 1_555
As0 O12 1.831985 1_555
As0 O17 1.831985 1_555
As1 O5 1.790008 1_555
As1 O13 1.831985 1_555
As1 O16 1.831985 1_555
As2 O6 1.790008 1_655
As2 O14 1.831985 1_554
As2 O19 1.831985 1_555
As3 O7 1.790008 1_455
As3 O15 1.831985 1_554
As3 O18 1.831985 1_555
As4 O8 1.790008 1_555
As4 O25 1.831985 1_555
As4 O20 1.831985 1_555
As5 O9 1.790008 1_555
As5 O24 1.831985 1_555
As5 O21 1.831985 1_555
As6 O10 1.790008 1_565
As6 O27 1.831985 1_555
As6 O22 1.831985 1_554
As7 O11 1.790008 1_545
As7 O23 1.831985 1_554
As7 O26 1.831985 1_555
Br0 La8 3.135159 1_555
Br0 La4 3.135159 1_555
Br0 La3 3.557906 1_555
Br0 La3 3.557906 1_556
Br1 La5 3.135159 1_555
Br1 La9 3.135159 1_555
Br1 La2 3.557906 1_556
Br1 La2 3.557906 1_555
Br2 La11 3.135159 1_555
Br2 La6 3.135159 1_555
Br2 La1 3.557906 1_555
Br2 La1 3.557906 1_554
Br3 La10 3.135159 1_555
Br3 La7 3.135159 1_555
Br3 La0 3.557906 1_555
Br3 La0 3.557906 1_554
