# generated using pymatgen
data_SrZnCr(PO4)2
_symmetry_space_group_name_H-M   'P 1'
_cell_length_a   5.60995074
_cell_length_b   6.95922212
_cell_length_c   9.39964014
_cell_angle_alpha   109.39576169
_cell_angle_beta   102.65584339
_cell_angle_gamma   98.79594197
_symmetry_Int_Tables_number   1
_chemical_formula_structural   SrZnCr(PO4)2
_chemical_formula_sum   'Sr2 Zn2 Cr2 P4 O16'
_cell_volume   327.42262607
_cell_formula_units_Z   2
loop_
 _symmetry_equiv_pos_site_id
 _symmetry_equiv_pos_as_xyz
  1  'x, y, z'
loop_
 _atom_site_type_symbol
 _atom_site_label
 _atom_site_symmetry_multiplicity
 _atom_site_fract_x
 _atom_site_fract_y
 _atom_site_fract_z
 _atom_site_occupancy
  Sr  Sr0  1  0.25250700  0.79985500  0.05307400  1
  Sr  Sr1  1  0.74749300  0.20014500  0.94692600  1
  Zn  Zn0  1  0.99602000  0.37994800  0.64142100  1
  Zn  Zn1  1  0.00398000  0.62005200  0.35857900  1
  Cr  Cr0  1  0.63592100  0.84021500  0.54659500  1
  Cr  Cr1  1  0.36407900  0.15978500  0.45340500  1
  P  P0  1  0.39033400  0.42137600  0.23223300  1
  P  P1  1  0.60966600  0.57862400  0.76776700  1
  P  P2  1  0.83457600  0.01983600  0.29634300  1
  P  P3  1  0.16542400  0.98016400  0.70365700  1
  O  O0  1  0.80868700  0.56389000  0.90250700  1
  O  O1  1  0.66093800  0.47939600  0.21655900  1
  O  O2  1  0.65918700  0.79769500  0.75775700  1
  O  O3  1  0.94827600  0.10338000  0.68843400  1
  O  O4  1  0.33906200  0.52060400  0.78344100  1
  O  O5  1  0.03822400  0.74726000  0.58910500  1
  O  O6  1  0.96177600  0.25274000  0.41089500  1
  O  O7  1  0.26641400  0.00374900  0.87394600  1
  O  O8  1  0.34081300  0.20230500  0.24224300  1
  O  O9  1  0.73358600  0.99625100  0.12605500  1
  O  O10  1  0.19131300  0.43611000  0.09749300  1
  O  O11  1  0.35796200  0.58228600  0.38914000  1
  O  O12  1  0.64203800  0.41771400  0.61086000  1
  O  O13  1  0.61816200  0.92471600  0.35109500  1
  O  O14  1  0.05172400  0.89662000  0.31156600  1
  O  O15  1  0.38183800  0.07528400  0.64890500  1
loop_
_geom_bond_atom_site_label_1
_geom_bond_atom_site_label_2
_geom_bond_distance
_geom_bond_site_symmetry_2
Cr0 O11 2.052363 1_555
Cr0 O2 2.081490 1_555
Cr0 O13 2.094770 1_555
Cr0 O3 2.138982 1_565
Cr0 O5 2.427913 1_655
Cr0 O15 2.429326 1_565
Cr1 O12 2.052363 1_555
Cr1 O8 2.081490 1_555
Cr1 O15 2.094770 1_555
Cr1 O14 2.138982 1_545
Cr1 O6 2.427913 1_455
Cr1 O13 2.429326 1_545
O0 P1 1.537129 1_555
O0 Sr0 2.561376 1_656
O0 Sr1 2.683112 1_555
O1 P0 1.561840 1_555
O1 Zn1 1.968247 1_655
O1 Sr1 2.827086 1_554
O2 P1 1.545161 1_555
O2 Sr1 2.670821 1_565
O3 P3 1.601351 1_645
O3 Zn0 2.104898 1_555
O3 Sr1 2.823171 1_555
O4 P1 1.561840 1_555
O4 Zn0 1.968247 1_455
O4 Sr0 2.827086 1_556
O5 P3 1.564009 1_555
O5 Zn1 2.001851 1_555
O6 P2 1.564009 1_555
O6 Zn0 2.001851 1_555
O7 P3 1.519773 1_545
O7 Sr0 2.542634 1_546
O7 Sr1 2.657108 1_555
O8 P0 1.545161 1_555
O8 Sr0 2.670821 1_545
O9 P2 1.519764 1_565
O9 Sr1 2.542642 1_564
O9 Sr0 2.657106 1_555
O10 P0 1.537129 1_555
O10 Sr1 2.561376 1_454
O10 Sr0 2.683112 1_555
O11 P0 1.595245 1_555
O11 Zn1 2.013673 1_555
O12 P1 1.595245 1_555
O12 Zn0 2.013673 1_555
O13 P2 1.559263 1_565
O13 Sr0 2.851372 1_555
O14 P2 1.601351 1_465
O14 Zn1 2.104898 1_555
O14 Sr0 2.823171 1_555
O15 P3 1.559263 1_545
O15 Sr1 2.851372 1_555
