# generated using pymatgen
data_K8Li31Al8O32
_symmetry_space_group_name_H-M   'P 1'
_cell_length_a   5.63267200
_cell_length_b   10.75817508
_cell_length_c   15.31134090
_cell_angle_alpha   90.18818381
_cell_angle_beta   90.04605714
_cell_angle_gamma   100.30439250
_symmetry_Int_Tables_number   1
_chemical_formula_structural   K8Li31Al8O32
_chemical_formula_sum   'K8 Li31 Al8 O32'
_cell_volume   912.85505231
_cell_formula_units_Z   1
loop_
 _symmetry_equiv_pos_site_id
 _symmetry_equiv_pos_as_xyz
  1  'x, y, z'
loop_
 _atom_site_type_symbol
 _atom_site_label
 _atom_site_symmetry_multiplicity
 _atom_site_fract_x
 _atom_site_fract_y
 _atom_site_fract_z
 _atom_site_occupancy
  K  K0  1  0.11825900  0.16106000  0.06542200  1
  K  K1  1  0.63413700  0.22842900  0.20022600  1
  K  K2  1  0.87516600  0.27254300  0.70405500  1
  K  K3  1  0.38516900  0.35104900  0.58941400  1
  K  K4  1  0.62238400  0.65610400  0.43572500  1
  K  K5  1  0.13591600  0.72570400  0.29955600  1
  K  K6  1  0.35916100  0.76531000  0.79799500  1
  K  K7  1  0.87567200  0.83537700  0.93165700  1
  Li  Li0  1  0.48191200  0.00143700  0.65571200  1
  Li  Li1  1  0.39192900  0.01745900  0.93050600  1
  Li  Li2  1  0.12576200  0.02170100  0.23584700  1
  Li  Li3  1  0.98238700  0.04206400  0.57818800  1
  Li  Li4  1  0.38708600  0.08059000  0.48477400  1
  Li  Li5  1  0.79784400  0.12688700  0.88205900  1
  Li  Li6  1  0.91341900  0.12862100  0.33983300  1
  Li  Li7  1  0.31835600  0.23065300  0.37957200  1
  Li  Li8  1  0.18460100  0.27118400  0.87388400  1
  Li  Li9  1  0.69893700  0.37063700  0.38318000  1
  Li  Li10  1  0.57941700  0.38568500  0.82966200  1
  Li  Li11  1  0.11008400  0.42301300  0.97911300  1
  Li  Li12  1  0.51793300  0.45715500  0.07639900  1
  Li  Li13  1  0.11322500  0.47618600  0.43161300  1
  Li  Li14  1  0.01751100  0.49428600  0.15292100  1
  Li  Li15  1  0.00162900  0.50543100  0.83694200  1
  Li  Li16  1  0.62494300  0.52019900  0.26461000  1
  Li  Li17  1  0.90022500  0.52476800  0.57190400  1
  Li  Li18  1  0.48003700  0.54299600  0.92334800  1
  Li  Li19  1  0.88258700  0.57638100  0.01258000  1
  Li  Li20  1  0.29983200  0.62662600  0.62140700  1
  Li  Li21  1  0.41250700  0.62607400  0.16156800  1
  Li  Li22  1  0.81749400  0.72594100  0.12404100  1
  Li  Li23  1  0.68197600  0.77702800  0.62094200  1
  Li  Li24  1  0.08538300  0.86962200  0.66012900  1
  Li  Li25  1  0.19891200  0.86983400  0.11855800  1
  Li  Li26  1  0.61665900  0.92525100  0.51475900  1
  Li  Li27  1  0.02195100  0.95965100  0.42257000  1
  Li  Li28  1  0.86797000  0.97475400  0.76539500  1
  Li  Li29  1  0.60836800  0.97924200  0.07092500  1
  Li  Li30  1  0.51868800  0.99787600  0.34457700  1
  Al  Al0  1  0.30924700  0.10987600  0.77726300  1
  Al  Al1  1  0.81972000  0.20477100  0.48703300  1
  Al  Al2  1  0.67752400  0.29833000  0.97969900  1
  Al  Al3  1  0.18914900  0.37856400  0.27288000  1
  Al  Al4  1  0.79408900  0.62348700  0.72483800  1
  Al  Al5  1  0.31893600  0.70247300  0.01586600  1
  Al  Al6  1  0.18235600  0.79734600  0.51432700  1
  Al  Al7  1  0.68986700  0.87913600  0.22702800  1
  O  O0  1  0.56985600  0.03780600  0.79211200  1
  O  O1  1  0.14769500  0.04247200  0.68435800  1
  O  O2  1  0.11128200  0.07531700  0.86945700  1
  O  O3  1  0.66544300  0.10035000  0.56734300  1
  O  O4  1  0.63058500  0.13499300  0.00306700  1
  O  O5  1  0.08898100  0.14172500  0.46585600  1
  O  O6  1  0.62611600  0.17687700  0.39218300  1
  O  O7  1  0.14339100  0.21011400  0.26105700  1
  O  O8  1  0.36779600  0.27430600  0.76328800  1
  O  O9  1  0.87294600  0.32393500  0.88560400  1
  O  O10  1  0.40772200  0.36141000  0.96128400  1
  O  O11  1  0.86684700  0.36804800  0.50722200  1
  O  O12  1  0.83471600  0.40006000  0.06134400  1
  O  O13  1  0.38413200  0.41984500  0.36591400  1
  O  O14  1  0.92211000  0.44697500  0.28711000  1
  O  O15  1  0.34820700  0.45077600  0.18130500  1
  O  O16  1  0.04919000  0.55067900  0.70298500  1
  O  O17  1  0.67597500  0.56263900  0.82557200  1
  O  O18  1  0.62415500  0.59295500  0.62615400  1
  O  O19  1  0.16748000  0.60074600  0.93354400  1
  O  O20  1  0.13452700  0.63462000  0.49246200  1
  O  O21  1  0.58758100  0.63955700  0.03733600  1
  O  O22  1  0.12427600  0.67471600  0.10976100  1
  O  O23  1  0.64239100  0.71065800  0.23985400  1
  O  O24  1  0.84932900  0.79242000  0.73881300  1
  O  O25  1  0.37315300  0.82446100  0.60956400  1
  O  O26  1  0.91370600  0.86144100  0.53538500  1
  O  O27  1  0.36702300  0.86580100  0.99669600  1
  O  O28  1  0.33783200  0.90199500  0.43485600  1
  O  O29  1  0.88307900  0.91840300  0.13334400  1
  O  O30  1  0.42519200  0.94965900  0.21174900  1
  O  O31  1  0.84941600  0.95369700  0.31817100  1
loop_
_geom_bond_atom_site_label_1
_geom_bond_atom_site_label_2
_geom_bond_distance
_geom_bond_site_symmetry_2
K0 O4 2.872996 1_455
K0 O29 2.904167 1_445
K0 O10 2.935307 1_554
K0 O7 3.038647 1_555
K0 O4 3.099999 1_555
K0 O2 3.134329 1_554
K0 O12 3.261248 1_455
K1 O7 2.890968 1_555
K1 O12 2.913929 1_555
K1 O14 2.922386 1_555
K1 O6 2.991656 1_555
K1 O30 3.025172 1_545
K1 O7 3.055080 1_655
K1 O15 3.127579 1_555
K1 O4 3.177510 1_555
K2 O9 2.832901 1_555
K2 O3 2.897671 1_555
K2 O8 2.915399 1_655
K2 O16 2.977517 1_655
K2 O8 3.002272 1_555
K2 O0 3.102419 1_555
K2 O1 3.151009 1_655
K2 O11 3.190307 1_555
K3 O18 2.763550 1_555
K3 O8 2.786523 1_555
K3 O11 2.967790 1_555
K3 O5 3.171197 1_555
K3 O11 3.213644 1_455
K4 O20 2.852577 1_555
K4 O13 2.857162 1_555
K4 O26 2.928822 1_555
K4 O18 2.996410 1_555
K4 O23 3.056122 1_555
K4 O20 3.060327 1_655
K5 O28 2.894967 1_555
K5 O23 2.902313 1_455
K5 O22 2.954061 1_555
K5 O30 2.981232 1_555
K5 O23 3.027994 1_555
K5 O14 3.030229 1_455
K5 O20 3.114581 1_555
K5 O31 3.180228 1_455
K6 O19 2.819820 1_555
K6 O24 2.871713 1_555
K6 O25 2.954594 1_555
K6 O0 2.961052 1_565
K6 O16 3.004638 1_555
K6 O24 3.074106 1_455
K6 O17 3.084412 1_555
K6 O27 3.223020 1_555
K7 O2 2.850271 1_665
K7 O27 2.903082 1_655
K7 O21 2.914290 1_556
K7 O24 2.986608 1_555
K7 O27 3.105684 1_555
Li0 O3 1.910480 1_555
Li0 O25 2.018100 1_545
Li0 O1 2.056350 1_555
Li0 O0 2.164207 1_555
Li1 O27 1.907349 1_545
Li1 O4 2.005120 1_556
Li1 O2 2.028189 1_555
Li1 O0 2.338901 1_555
Li2 O30 2.012011 1_545
Li2 O31 2.036855 1_445
Li2 O7 2.047021 1_555
Li2 O29 2.237940 1_445
Li3 O1 1.872342 1_655
Li3 O3 2.002135 1_555
Li3 O26 2.019254 1_545
Li3 O5 2.061978 1_655
Li4 O5 1.931710 1_555
Li4 O3 1.994391 1_555
Li4 O28 2.037661 1_545
Li4 O6 2.099852 1_555
Li5 O2 1.952502 1_655
Li5 O0 2.003113 1_555
Li5 O9 2.086663 1_555
Li5 O4 2.087863 1_556
Li6 O7 1.872054 1_655
Li6 O31 1.879994 1_545
Li6 O6 1.957229 1_555
Li6 O5 2.160166 1_655
Li7 O6 1.932881 1_555
Li7 O5 1.974522 1_555
Li7 O13 2.014158 1_555
Li7 O7 2.056579 1_555
Li8 O9 1.947335 1_455
Li8 O10 1.965911 1_555
Li8 O8 1.980958 1_555
Li8 O2 2.074370 1_555
Li9 O13 1.957128 1_555
Li9 O14 2.014935 1_555
Li9 O6 2.056331 1_555
Li9 O11 2.123514 1_555
Li10 O8 1.835348 1_555
Li10 O17 1.885267 1_555
Li10 O9 2.074359 1_555
Li10 O10 2.231859 1_555
Li11 O10 1.929099 1_555
Li11 O12 1.979940 1_456
Li11 O19 2.008823 1_555
Li11 O9 2.108967 1_455
Li12 O15 1.865055 1_555
Li12 O12 2.001526 1_555
Li12 O21 2.023607 1_555
Li12 O10 2.076186 1_554
Li13 O20 1.924535 1_555
Li13 O13 2.009259 1_555
Li13 O11 2.013299 1_455
Li13 O14 2.454276 1_455
Li14 O12 1.915392 1_455
Li14 O22 2.039035 1_555
Li14 O15 2.046852 1_555
Li14 O14 2.163343 1_455
Li15 O19 1.938310 1_555
Li15 O17 2.043973 1_455
Li15 O9 2.096935 1_455
Li15 O16 2.115743 1_555
Li16 O14 2.003393 1_555
Li16 O15 2.046590 1_555
Li16 O23 2.069981 1_555
Li16 O13 2.214008 1_555
Li17 O11 1.932401 1_555
Li17 O18 2.013036 1_555
Li17 O20 2.017914 1_655
Li17 O16 2.172519 1_655
Li18 O17 1.850746 1_555
Li18 O19 1.975082 1_555
Li18 O10 2.010661 1_555
Li18 O21 2.062392 1_556
Li19 O21 1.941681 1_555
Li19 O19 1.990723 1_654
Li19 O12 2.013709 1_555
Li19 O22 2.158166 1_655
Li20 O18 1.926244 1_555
Li20 O16 1.953906 1_555
Li20 O25 2.102732 1_555
Li20 O20 2.190687 1_555
Li21 O23 1.873581 1_555
Li21 O15 1.881124 1_555
Li21 O22 1.960472 1_555
Li21 O21 2.136671 1_555
Li22 O22 1.917810 1_655
Li22 O21 1.965137 1_555
Li22 O23 2.022610 1_555
Li22 O29 2.041624 1_555
Li23 O25 1.906374 1_555
Li23 O18 1.950469 1_555
Li23 O26 1.957289 1_555
Li23 O24 2.027961 1_555
Li24 O1 1.865611 1_565
Li24 O24 1.877021 1_455
Li24 O25 1.934971 1_555
Li24 O26 2.134574 1_455
Li25 O29 1.954860 1_455
Li25 O30 1.998855 1_555
Li25 O22 2.069662 1_555
Li25 O27 2.096905 1_554
Li26 O26 1.944730 1_555
Li26 O28 1.969843 1_555
Li26 O3 2.019094 1_565
Li26 O25 2.155363 1_555
Li27 O31 1.865017 1_455
Li27 O28 1.995226 1_555
Li27 O5 2.035960 1_565
Li27 O26 2.062769 1_455
Li28 O0 1.963130 1_565
Li28 O24 1.986324 1_555
Li28 O1 2.037458 1_665
Li28 O2 2.245469 1_665
Li29 O4 1.959446 1_565
Li29 O27 2.006001 1_554
Li29 O29 2.024885 1_555
Li29 O30 2.388653 1_555
Li30 O28 1.910024 1_555
Li30 O31 2.043624 1_555
Li30 O6 2.044277 1_565
Li30 O30 2.139223 1_555
Al0 O8 1.754332 1_555
Al0 O1 1.769876 1_555
Al0 O0 1.793167 1_555
Al0 O2 1.797757 1_555
Al1 O11 1.755283 1_555
Al1 O3 1.786260 1_555
Al1 O5 1.797997 1_655
Al1 O6 1.807179 1_555
Al2 O4 1.767420 1_556
Al2 O12 1.785224 1_556
Al2 O10 1.794175 1_555
Al2 O9 1.805514 1_555
Al3 O15 1.769847 1_555
Al3 O7 1.792761 1_555
Al3 O14 1.801970 1_455
Al3 O13 1.803165 1_555
Al4 O17 1.761399 1_555
Al4 O18 1.785805 1_555
Al4 O16 1.786581 1_655
Al4 O24 1.800171 1_555
Al5 O27 1.755052 1_554
Al5 O19 1.780294 1_554
Al5 O21 1.795280 1_555
Al5 O22 1.801795 1_555
Al6 O20 1.754040 1_555
Al6 O28 1.781301 1_555
Al6 O26 1.800521 1_455
Al6 O25 1.802488 1_555
Al7 O31 1.769543 1_555
Al7 O23 1.795637 1_555
Al7 O30 1.805042 1_555
Al7 O29 1.806226 1_555
