# generated using pymatgen
data_MgHg3
_symmetry_space_group_name_H-M   'P 1'
_cell_length_a   6.90361282
_cell_length_b   10.16700784
_cell_length_c   10.42407498
_cell_angle_alpha   90.00000000
_cell_angle_beta   90.00000000
_cell_angle_gamma   90.00000000
_symmetry_Int_Tables_number   1
_chemical_formula_structural   MgHg3
_chemical_formula_sum   'Mg8 Hg24'
_cell_volume   731.65629175
_cell_formula_units_Z   8
loop_
 _symmetry_equiv_pos_site_id
 _symmetry_equiv_pos_as_xyz
  1  'x, y, z'
loop_
 _atom_site_type_symbol
 _atom_site_label
 _atom_site_symmetry_multiplicity
 _atom_site_fract_x
 _atom_site_fract_y
 _atom_site_fract_z
 _atom_site_occupancy
  Mg  Mg0_0  1  0.00000000  0.25000000  0.16671400  1
  Mg  Mg0_1  1  0.00000000  0.25000000  0.66671400  1
  Mg  Mg0_2  1  0.00000000  0.75000000  0.16671400  1
  Mg  Mg0_3  1  0.00000000  0.75000000  0.66671400  1
  Mg  Mg0_4  1  0.50000000  0.25000000  0.16671400  1
  Mg  Mg0_5  1  0.50000000  0.25000000  0.66671400  1
  Mg  Mg0_6  1  0.50000000  0.75000000  0.16671400  1
  Mg  Mg0_7  1  0.50000000  0.75000000  0.66671400  1
  Hg  Hg0_0  1  0.25000000  0.00000000  0.24599781  1
  Hg  Hg0_1  1  0.25000000  0.00000000  0.74599781  1
  Hg  Hg0_2  1  0.25000000  0.50000000  0.24599781  1
  Hg  Hg0_3  1  0.25000000  0.50000000  0.74599781  1
  Hg  Hg0_4  1  0.75000000  0.00000000  0.24599781  1
  Hg  Hg0_5  1  0.75000000  0.00000000  0.74599781  1
  Hg  Hg0_6  1  0.75000000  0.50000000  0.24599781  1
  Hg  Hg0_7  1  0.75000000  0.50000000  0.74599781  1
  Hg  Hg1_0  1  0.00000000  0.00000000  0.00254262  1
  Hg  Hg1_1  1  0.00000000  0.00000000  0.50254262  1
  Hg  Hg1_2  1  0.00000000  0.50000000  0.00254262  1
  Hg  Hg1_3  1  0.00000000  0.50000000  0.50254262  1
  Hg  Hg1_4  1  0.50000000  0.00000000  0.00254262  1
  Hg  Hg1_5  1  0.50000000  0.00000000  0.50254262  1
  Hg  Hg1_6  1  0.50000000  0.50000000  0.00254262  1
  Hg  Hg1_7  1  0.50000000  0.50000000  0.50254262  1
  Hg  Hg2_0  1  0.25000000  0.25000000  0.41807808  1
  Hg  Hg2_1  1  0.25000000  0.25000000  0.91807808  1
  Hg  Hg2_2  1  0.25000000  0.75000000  0.41807808  1
  Hg  Hg2_3  1  0.25000000  0.75000000  0.91807808  1
  Hg  Hg2_4  1  0.75000000  0.25000000  0.41807808  1
  Hg  Hg2_5  1  0.75000000  0.25000000  0.91807808  1
  Hg  Hg2_6  1  0.75000000  0.75000000  0.41807808  1
  Hg  Hg2_7  1  0.75000000  0.75000000  0.91807808  1
loop_
_geom_bond_atom_site_label_1
_geom_bond_atom_site_label_2
_geom_bond_distance
_geom_bond_site_symmetry_2
Mg0_0 Mg0_4 3.451806 1_555
Mg0_0 Mg0_4 3.451806 1_455
Mg0_1 Mg0_5 3.451806 1_455
Mg0_1 Mg0_5 3.451806 1_555
Mg0_2 Mg0_6 3.451806 1_455
Mg0_2 Mg0_6 3.451806 1_555
Mg0_3 Mg0_7 3.451806 1_555
Mg0_3 Mg0_7 3.451806 1_455
Hg0_0 Hg1_0 3.069063 1_555
Hg0_0 Hg1_4 3.069063 1_555
Hg0_0 Hg2_0 3.110971 1_555
Hg0_0 Hg2_2 3.110971 1_545
Hg0_0 Mg0_0 3.181553 1_555
Hg0_0 Mg0_2 3.181553 1_545
Hg0_0 Mg0_4 3.181553 1_555
Hg0_0 Mg0_6 3.181553 1_545
Hg0_0 Hg1_5 3.182815 1_555
Hg0_0 Hg1_1 3.182815 1_555
Hg0_1 Hg1_1 3.069063 1_555
Hg0_1 Hg1_5 3.069063 1_555
Hg0_1 Hg2_3 3.110971 1_545
Hg0_1 Hg2_1 3.110971 1_555
Hg0_1 Mg0_5 3.181553 1_555
Hg0_1 Mg0_3 3.181553 1_545
Hg0_1 Mg0_7 3.181553 1_545
Hg0_1 Mg0_1 3.181553 1_555
Hg0_1 Hg1_0 3.182815 1_556
Hg0_1 Hg1_4 3.182815 1_556
Hg0_2 Hg1_6 3.069063 1_555
Hg0_2 Hg1_2 3.069063 1_555
Hg0_2 Hg2_0 3.110971 1_555
Hg0_2 Hg2_2 3.110971 1_555
Hg0_2 Mg0_2 3.181553 1_555
Hg0_2 Mg0_6 3.181553 1_555
Hg0_2 Mg0_0 3.181553 1_555
Hg0_2 Mg0_4 3.181553 1_555
Hg0_2 Hg1_3 3.182815 1_555
Hg0_2 Hg1_7 3.182815 1_555
Hg0_3 Hg1_3 3.069063 1_555
Hg0_3 Hg1_7 3.069063 1_555
Hg0_3 Hg2_3 3.110971 1_555
Hg0_3 Hg2_1 3.110971 1_555
Hg0_3 Mg0_5 3.181553 1_555
Hg0_3 Mg0_3 3.181553 1_555
Hg0_3 Mg0_7 3.181553 1_555
Hg0_3 Mg0_1 3.181553 1_555
Hg0_3 Hg1_2 3.182815 1_556
Hg0_3 Hg1_6 3.182815 1_556
Hg0_4 Hg1_0 3.069063 1_655
Hg0_4 Hg1_4 3.069063 1_555
Hg0_4 Hg2_4 3.110971 1_555
Hg0_4 Hg2_6 3.110971 1_545
Hg0_4 Mg0_2 3.181553 1_645
Hg0_4 Mg0_4 3.181553 1_555
Hg0_4 Mg0_6 3.181553 1_545
Hg0_4 Mg0_0 3.181553 1_655
Hg0_4 Hg1_5 3.182815 1_555
Hg0_4 Hg1_1 3.182815 1_655
Hg0_5 Hg1_1 3.069063 1_655
Hg0_5 Hg1_5 3.069063 1_555
Hg0_5 Hg2_5 3.110971 1_555
Hg0_5 Hg2_7 3.110971 1_545
Hg0_5 Mg0_3 3.181553 1_645
Hg0_5 Mg0_5 3.181553 1_555
Hg0_5 Mg0_7 3.181553 1_545
Hg0_5 Mg0_1 3.181553 1_655
Hg0_5 Hg1_4 3.182815 1_556
Hg0_5 Hg1_0 3.182815 1_656
Hg0_6 Hg1_6 3.069063 1_555
Hg0_6 Hg1_2 3.069063 1_655
Hg0_6 Hg2_6 3.110971 1_555
Hg0_6 Hg2_4 3.110971 1_555
Hg0_6 Mg0_0 3.181553 1_655
Hg0_6 Mg0_6 3.181553 1_555
Hg0_6 Mg0_2 3.181553 1_655
Hg0_6 Mg0_4 3.181553 1_555
Hg0_6 Hg1_3 3.182815 1_655
Hg0_6 Hg1_7 3.182815 1_555
Hg0_7 Hg1_3 3.069063 1_655
Hg0_7 Hg1_7 3.069063 1_555
Hg0_7 Hg2_7 3.110971 1_555
Hg0_7 Hg2_5 3.110971 1_555
Hg0_7 Mg0_5 3.181553 1_555
Hg0_7 Mg0_3 3.181553 1_655
Hg0_7 Mg0_7 3.181553 1_555
Hg0_7 Mg0_1 3.181553 1_655
Hg0_7 Hg1_2 3.182815 1_656
Hg0_7 Hg1_6 3.182815 1_556
Hg1_0 Mg0_2 3.064175 1_545
Hg1_0 Mg0_0 3.064175 1_555
Hg1_0 Hg2_7 3.196007 1_444
Hg1_0 Hg2_1 3.196007 1_554
Hg1_0 Hg2_3 3.196007 1_544
Hg1_0 Hg2_5 3.196007 1_454
Hg1_1 Mg0_1 3.064175 1_555
Hg1_1 Mg0_3 3.064175 1_545
Hg1_1 Hg2_2 3.196007 1_545
Hg1_1 Hg2_4 3.196007 1_455
Hg1_1 Hg2_6 3.196007 1_445
Hg1_1 Hg2_0 3.196007 1_555
Hg1_2 Mg0_2 3.064175 1_555
Hg1_2 Mg0_0 3.064175 1_555
Hg1_2 Hg2_1 3.196007 1_554
Hg1_2 Hg2_5 3.196007 1_454
Hg1_2 Hg2_3 3.196007 1_554
Hg1_2 Hg2_7 3.196007 1_454
Hg1_3 Mg0_1 3.064175 1_555
Hg1_3 Mg0_3 3.064175 1_555
Hg1_3 Hg2_4 3.196007 1_455
Hg1_3 Hg2_6 3.196007 1_455
Hg1_3 Hg2_0 3.196007 1_555
Hg1_3 Hg2_2 3.196007 1_555
Hg1_4 Mg0_4 3.064175 1_555
Hg1_4 Mg0_6 3.064175 1_545
Hg1_4 Hg2_1 3.196007 1_554
Hg1_4 Hg2_3 3.196007 1_544
Hg1_4 Hg2_7 3.196007 1_544
Hg1_4 Hg2_5 3.196007 1_554
Hg1_5 Mg0_5 3.064175 1_555
Hg1_5 Mg0_7 3.064175 1_545
Hg1_5 Hg2_2 3.196007 1_545
Hg1_5 Hg2_6 3.196007 1_545
Hg1_5 Hg2_0 3.196007 1_555
Hg1_5 Hg2_4 3.196007 1_555
Hg1_6 Mg0_6 3.064175 1_555
Hg1_6 Mg0_4 3.064175 1_555
Hg1_6 Hg2_1 3.196007 1_554
Hg1_6 Hg2_3 3.196007 1_554
Hg1_6 Hg2_5 3.196007 1_554
Hg1_6 Hg2_7 3.196007 1_554
Hg1_7 Mg0_5 3.064175 1_555
Hg1_7 Mg0_7 3.064175 1_555
Hg1_7 Hg2_0 3.196007 1_555
Hg1_7 Hg2_2 3.196007 1_555
Hg1_7 Hg2_6 3.196007 1_555
Hg1_7 Hg2_4 3.196007 1_555
Hg2_0 Mg0_1 3.113867 1_555
Hg2_0 Mg0_5 3.113867 1_555
Hg2_0 Mg0_0 3.137577 1_555
Hg2_0 Mg0_4 3.137577 1_555
Hg2_1 Mg0_0 3.113867 1_556
Hg2_1 Mg0_4 3.113867 1_556
Hg2_1 Mg0_5 3.137577 1_555
Hg2_1 Mg0_1 3.137577 1_555
Hg2_2 Mg0_3 3.113867 1_555
Hg2_2 Mg0_7 3.113867 1_555
Hg2_2 Mg0_2 3.137577 1_555
Hg2_2 Mg0_6 3.137577 1_555
Hg2_3 Mg0_2 3.113867 1_556
Hg2_3 Mg0_6 3.113867 1_556
Hg2_3 Mg0_3 3.137577 1_555
Hg2_3 Mg0_7 3.137577 1_555
Hg2_4 Mg0_1 3.113867 1_655
Hg2_4 Mg0_5 3.113867 1_555
Hg2_4 Mg0_4 3.137577 1_555
Hg2_4 Mg0_0 3.137577 1_655
Hg2_5 Mg0_0 3.113867 1_656
Hg2_5 Mg0_4 3.113867 1_556
Hg2_5 Mg0_1 3.137577 1_655
Hg2_5 Mg0_5 3.137577 1_555
Hg2_6 Mg0_7 3.113867 1_555
Hg2_6 Mg0_3 3.113867 1_655
Hg2_6 Mg0_6 3.137577 1_555
Hg2_6 Mg0_2 3.137577 1_655
Hg2_7 Mg0_2 3.113867 1_656
Hg2_7 Mg0_6 3.113867 1_556
Hg2_7 Mg0_7 3.137577 1_555
Hg2_7 Mg0_3 3.137577 1_655
