# generated using pymatgen
data_Sm2SiSeO4
_symmetry_space_group_name_H-M   'P 1'
_cell_length_a   6.18135900
_cell_length_b   7.14786600
_cell_length_c   11.02454900
_cell_angle_alpha   90.00000000
_cell_angle_beta   90.00000000
_cell_angle_gamma   90.00000000
_symmetry_Int_Tables_number   1
_chemical_formula_structural   Sm2SiSeO4
_chemical_formula_sum   'Sm8 Si4 Se4 O16'
_cell_volume   487.10344550
_cell_formula_units_Z   4
loop_
 _symmetry_equiv_pos_site_id
 _symmetry_equiv_pos_as_xyz
  1  'x, y, z'
loop_
 _atom_site_type_symbol
 _atom_site_label
 _atom_site_symmetry_multiplicity
 _atom_site_fract_x
 _atom_site_fract_y
 _atom_site_fract_z
 _atom_site_occupancy
  Sm  Sm0  1  0.60943000  0.25000000  0.50000000  1
  Sm  Sm1  1  0.60943000  0.25000000  0.00000000  1
  Sm  Sm2  1  0.39057000  0.75000000  0.50000000  1
  Sm  Sm3  1  0.39057000  0.75000000  0.00000000  1
  Sm  Sm4  1  0.86815800  0.53280200  0.75000000  1
  Sm  Sm5  1  0.86815800  0.96719800  0.25000000  1
  Sm  Sm6  1  0.13184200  0.03280200  0.75000000  1
  Sm  Sm7  1  0.13184200  0.46719800  0.25000000  1
  Si  Si0  1  0.11428000  0.25000000  0.50000000  1
  Si  Si1  1  0.88572000  0.75000000  0.50000000  1
  Si  Si2  1  0.88572000  0.75000000  0.00000000  1
  Si  Si3  1  0.11428000  0.25000000  0.00000000  1
  Se  Se0  1  0.57270200  0.87850300  0.75000000  1
  Se  Se1  1  0.57270200  0.62149700  0.25000000  1
  Se  Se2  1  0.42729800  0.37850300  0.75000000  1
  Se  Se3  1  0.42729800  0.12149700  0.25000000  1
  O  O0  1  0.27394700  0.42752800  0.03205400  1
  O  O1  1  0.27394700  0.07247200  0.96794600  1
  O  O2  1  0.72605300  0.92752800  0.46794600  1
  O  O3  1  0.72605300  0.57247200  0.53205400  1
  O  O4  1  0.72605300  0.57247200  0.96794600  1
  O  O5  1  0.72605300  0.92752800  0.03205400  1
  O  O6  1  0.27394700  0.07247200  0.53205400  1
  O  O7  1  0.27394700  0.42752800  0.46794600  1
  O  O8  1  0.04898600  0.73632000  0.11877300  1
  O  O9  1  0.04898600  0.73632000  0.38122700  1
  O  O10  1  0.95101400  0.23632000  0.38122700  1
  O  O11  1  0.95101400  0.26368000  0.61877300  1
  O  O12  1  0.95101400  0.26368000  0.88122700  1
  O  O13  1  0.95101400  0.23632000  0.11877300  1
  O  O14  1  0.04898600  0.76368000  0.61877300  1
  O  O15  1  0.04898600  0.76368000  0.88122700  1
loop_
_geom_bond_atom_site_label_1
_geom_bond_atom_site_label_2
_geom_bond_distance
_geom_bond_site_symmetry_2
Se0 Sm6 2.939839 1_565
Se0 Sm4 3.072687 1_555
Se0 Sm2 3.115679 1_555
Se0 Sm3 3.115679 1_556
Se1 Sm7 2.939839 1_555
Se1 Sm5 3.072687 1_555
Se1 Sm2 3.115679 1_555
Se1 Sm3 3.115679 1_555
Se2 Sm4 2.939839 1_555
Se2 Sm6 3.072687 1_555
Se2 Sm0 3.115679 1_555
Se2 Sm1 3.115679 1_556
Se3 Sm5 2.939839 1_545
Se3 Sm7 3.072687 1_555
Se3 Sm0 3.115679 1_555
Se3 Sm1 3.115679 1_555
O0 Si3 1.645962 1_555
O0 Sm3 2.440804 1_555
O0 Sm1 2.456726 1_555
O0 Sm7 2.573953 1_555
O1 Si3 1.645962 1_556
O1 Sm3 2.440804 1_546
O1 Sm1 2.456726 1_556
O1 Sm6 2.573953 1_555
O2 Si1 1.645962 1_555
O2 Sm0 2.440804 1_565
O2 Sm2 2.456726 1_555
O2 Sm5 2.573953 1_555
O3 Si1 1.645962 1_555
O3 Sm0 2.440804 1_555
O3 Sm2 2.456726 1_555
O3 Sm4 2.573953 1_555
O4 Si2 1.645962 1_556
O4 Sm1 2.440804 1_556
O4 Sm3 2.456726 1_556
O4 Sm4 2.573953 1_555
O5 Si2 1.645962 1_555
O5 Sm1 2.440804 1_565
O5 Sm3 2.456726 1_555
O5 Sm5 2.573953 1_555
O6 Si0 1.645962 1_555
O6 Sm2 2.440804 1_545
O6 Sm0 2.456726 1_555
O6 Sm6 2.573953 1_555
O7 Si0 1.645962 1_555
O7 Sm2 2.440804 1_555
O7 Sm0 2.456726 1_555
O7 Sm7 2.573953 1_555
O8 Si2 1.656090 1_455
O8 Sm7 2.460839 1_555
O8 Sm5 2.462890 1_455
O8 Sm3 2.486438 1_555
O9 Si1 1.656090 1_455
O9 Sm7 2.460839 1_555
O9 Sm5 2.462890 1_455
O9 Sm2 2.486438 1_555
O10 Si0 1.656090 1_655
O10 Sm5 2.460839 1_545
O10 Sm7 2.462890 1_655
O10 Sm0 2.486438 1_555
O11 Si0 1.656090 1_655
O11 Sm4 2.460839 1_555
O11 Sm6 2.462890 1_655
O11 Sm0 2.486438 1_555
O12 Si3 1.656090 1_656
O12 Sm4 2.460839 1_555
O12 Sm6 2.462890 1_655
O12 Sm1 2.486438 1_556
O13 Si3 1.656090 1_655
O13 Sm5 2.460839 1_545
O13 Sm7 2.462890 1_655
O13 Sm1 2.486438 1_555
O14 Si1 1.656090 1_455
O14 Sm6 2.460839 1_565
O14 Sm4 2.462890 1_455
O14 Sm2 2.486438 1_555
O15 Si2 1.656090 1_456
O15 Sm6 2.460839 1_565
O15 Sm4 2.462890 1_455
O15 Sm3 2.486438 1_556
