# generated using pymatgen
data_Gd5Si4
_symmetry_space_group_name_H-M   'P 1'
_cell_length_a   7.51738720
_cell_length_b   7.76971033
_cell_length_c   14.80470222
_cell_angle_alpha   90.01840477
_cell_angle_beta   89.99251402
_cell_angle_gamma   90.06434544
_symmetry_Int_Tables_number   1
_chemical_formula_structural   Gd5Si4
_chemical_formula_sum   'Gd20 Si16'
_cell_volume   864.71127991
_cell_formula_units_Z   4
loop_
 _symmetry_equiv_pos_site_id
 _symmetry_equiv_pos_as_xyz
  1  'x, y, z'
loop_
 _atom_site_type_symbol
 _atom_site_label
 _atom_site_symmetry_multiplicity
 _atom_site_fract_x
 _atom_site_fract_y
 _atom_site_fract_z
 _atom_site_occupancy
  Gd  Gd0  1  0.47121600  0.68269000  0.59738000  1
  Gd  Gd1  1  0.97168700  0.81616200  0.90135700  1
  Gd  Gd2  1  0.52814900  0.31726500  0.09798300  1
  Gd  Gd3  1  0.02855300  0.18337900  0.40338800  1
  Gd  Gd4  1  0.52875200  0.31643200  0.40359100  1
  Gd  Gd5  1  0.03018100  0.18197200  0.09838200  1
  Gd  Gd6  1  0.46983000  0.68345300  0.90038400  1
  Gd  Gd7  1  0.97084000  0.81652400  0.59723800  1
  Gd  Gd8  1  0.81658200  0.32085900  0.62177400  1
  Gd  Gd9  1  0.31587700  0.17946200  0.87611200  1
  Gd  Gd10  1  0.18309600  0.68010400  0.12317200  1
  Gd  Gd11  1  0.68406500  0.82077800  0.37878800  1
  Gd  Gd12  1  0.18345800  0.67955800  0.37843100  1
  Gd  Gd13  1  0.68425100  0.82031200  0.12296700  1
  Gd  Gd14  1  0.81667200  0.32146800  0.87577600  1
  Gd  Gd15  1  0.31565900  0.18019600  0.62212500  1
  Gd  Gd16  1  0.35477300  0.01061200  0.25152200  1
  Gd  Gd17  1  0.85767600  0.48933300  0.25219900  1
  Gd  Gd18  1  0.64431500  0.98732600  0.74893000  1
  Gd  Gd19  1  0.14413400  0.51247000  0.74886500  1
  Si  Si0  1  0.64360000  0.02807800  0.54026800  1
  Si  Si1  1  0.14424200  0.47317900  0.95937600  1
  Si  Si2  1  0.35618700  0.97075800  0.03971300  1
  Si  Si3  1  0.85703600  0.52791100  0.46052200  1
  Si  Si4  1  0.35570100  0.97164700  0.46043300  1
  Si  Si5  1  0.85729400  0.52895700  0.03962800  1
  Si  Si6  1  0.64323200  0.02707200  0.95936100  1
  Si  Si7  1  0.14372700  0.47217300  0.54012300  1
  Si  Si8  1  0.47791300  0.60106000  0.25047400  1
  Si  Si9  1  0.97923500  0.89933300  0.25065700  1
  Si  Si10  1  0.52031900  0.40057000  0.74922500  1
  Si  Si11  1  0.02128100  0.10029200  0.74911500  1
  Si  Si12  1  0.24028900  0.37498700  0.25088000  1
  Si  Si13  1  0.74132700  0.12473400  0.25110400  1
  Si  Si14  1  0.75986500  0.62467700  0.74919200  1
  Si  Si15  1  0.25898900  0.87421600  0.74956500  1
loop_
_geom_bond_atom_site_label_1
_geom_bond_atom_site_label_2
_geom_bond_distance
_geom_bond_site_symmetry_2
Gd0 Si7 3.073320 1_555
Gd0 Si0 3.096626 1_565
Gd0 Si15 3.136593 1_555
Gd0 Si4 3.148484 1_555
Gd0 Si14 3.157071 1_555
Gd0 Si10 3.162257 1_555
Gd1 Si6 3.086582 1_565
Gd1 Si1 3.087319 1_655
Gd1 Si14 3.133281 1_555
Gd1 Si5 3.147651 1_556
Gd1 Si15 3.148854 1_655
Gd1 Si11 3.177060 1_665
Gd2 Si5 3.092752 1_555
Gd2 Si2 3.107173 1_545
Gd2 Si13 3.154882 1_555
Gd2 Si12 3.163534 1_555
Gd2 Si6 3.169367 1_554
Gd2 Si8 3.178018 1_555
Gd3 Si4 3.078677 1_545
Gd3 Si3 3.090274 1_455
Gd3 Si12 3.137447 1_555
Gd3 Si7 3.142534 1_555
Gd3 Si13 3.154517 1_455
Gd3 Si9 3.180569 1_445
Gd3 Si0 3.732167 1_455
Gd4 Si3 3.080753 1_555
Gd4 Si4 3.093577 1_545
Gd4 Si0 3.141180 1_555
Gd4 Si13 3.141770 1_555
Gd4 Si12 3.166210 1_555
Gd4 Si8 3.190713 1_555
Gd4 Si7 3.732584 1_555
Gd5 Si2 3.075890 1_545
Gd5 Si5 3.118280 1_455
Gd5 Si12 3.135970 1_555
Gd5 Si13 3.165787 1_455
Gd5 Si9 3.170570 1_445
Gd5 Si1 3.176135 1_554
Gd6 Si1 3.068214 1_555
Gd6 Si6 3.095235 1_565
Gd6 Si15 3.114938 1_555
Gd6 Si2 3.157306 1_556
Gd6 Si14 3.157975 1_555
Gd6 Si10 3.159340 1_555
Gd7 Si0 3.078185 1_565
Gd7 Si7 3.093301 1_655
Gd7 Si14 3.129533 1_555
Gd7 Si3 3.138534 1_555
Gd7 Si15 3.158672 1_655
Gd7 Si11 3.171086 1_665
Gd7 Si4 3.730582 1_655
Gd8 Si0 2.883375 1_555
Gd8 Si3 2.894966 1_555
Gd8 Si11 2.977873 1_655
Gd8 Si7 2.980790 1_655
Gd8 Si10 2.984157 1_555
Gd8 Si14 3.051517 1_555
Gd9 Si1 2.897695 1_555
Gd9 Si2 2.931130 1_546
Gd9 Si11 2.969017 1_555
Gd9 Si10 2.972801 1_555
Gd9 Si6 2.997498 1_555
Gd9 Si15 3.051682 1_545
Gd10 Si2 2.883479 1_555
Gd10 Si1 2.923555 1_554
Gd10 Si9 2.969038 1_455
Gd10 Si8 2.974193 1_555
Gd10 Si5 2.983422 1_455
Gd10 Si12 3.063491 1_555
Gd11 Si3 2.888193 1_555
Gd11 Si0 2.898356 1_565
Gd11 Si9 2.981789 1_555
Gd11 Si8 2.986203 1_555
Gd11 Si4 2.988830 1_555
Gd11 Si13 3.055550 1_565
Gd12 Si4 2.879725 1_555
Gd12 Si7 2.901217 1_555
Gd12 Si9 2.976550 1_455
Gd12 Si8 2.976831 1_555
Gd12 Si3 2.979982 1_455
Gd12 Si12 3.057380 1_555
Gd13 Si5 2.888492 1_555
Gd13 Si6 2.923418 1_564
Gd13 Si9 2.977458 1_555
Gd13 Si8 2.977712 1_555
Gd13 Si2 2.995967 1_555
Gd13 Si13 3.061433 1_565
Gd14 Si6 2.908262 1_555
Gd14 Si5 2.928002 1_556
Gd14 Si11 2.972942 1_655
Gd14 Si10 2.975890 1_555
Gd14 Si1 2.996396 1_655
Gd14 Si14 3.041332 1_555
Gd15 Si7 2.880892 1_555
Gd15 Si4 2.906010 1_545
Gd15 Si11 2.968797 1_555
Gd15 Si10 2.971912 1_555
Gd15 Si0 2.991303 1_555
Gd15 Si15 3.064878 1_545
Gd16 Si9 2.951596 1_445
Gd16 Si12 2.959951 1_555
Gd16 Si13 3.037202 1_555
Gd16 Si4 3.107753 1_545
Gd16 Si2 3.150940 1_545
Gd16 Si8 3.315040 1_545
Gd17 Si13 2.963880 1_555
Gd17 Si8 2.984938 1_555
Gd17 Si12 3.011350 1_655
Gd17 Si3 3.098599 1_555
Gd17 Si5 3.162174 1_555
Gd17 Si9 3.313155 1_555
Gd18 Si14 2.949467 1_555
Gd18 Si11 2.965674 1_665
Gd18 Si15 3.026097 1_555
Gd18 Si0 3.105470 1_565
Gd18 Si6 3.130548 1_565
Gd18 Si10 3.344359 1_565
Gd19 Si15 2.939377 1_555
Gd19 Si10 2.959501 1_555
Gd19 Si14 3.018330 1_455
Gd19 Si7 3.106085 1_555
Gd19 Si1 3.131567 1_555
Gd19 Si11 3.332015 1_555
Si0 Si4 2.504273 1_545
Si1 Si5 2.500718 1_456
Si2 Si6 2.502065 1_564
Si3 Si7 2.494829 1_655
Si10 Si14 2.503524 1_555
Si11 Si15 2.507134 1_545
Si12 Si8 2.503851 1_555
Si13 Si9 2.504528 1_545
