# generated using pymatgen
data_Li9Mn2Co5O16
_symmetry_space_group_name_H-M   'P 1'
_cell_length_a   2.94750700
_cell_length_b   9.75592131
_cell_length_c   10.15034398
_cell_angle_alpha   85.60298801
_cell_angle_beta   87.53496674
_cell_angle_gamma   83.27293718
_symmetry_Int_Tables_number   1
_chemical_formula_structural   Li9Mn2Co5O16
_chemical_formula_sum   'Li9 Mn2 Co5 O16'
_cell_volume   288.84635821
_cell_formula_units_Z   1
loop_
 _symmetry_equiv_pos_site_id
 _symmetry_equiv_pos_as_xyz
  1  'x, y, z'
loop_
 _atom_site_type_symbol
 _atom_site_label
 _atom_site_symmetry_multiplicity
 _atom_site_fract_x
 _atom_site_fract_y
 _atom_site_fract_z
 _atom_site_occupancy
  Li  Li0  1  0.87708900  0.24981400  0.81312500  1
  Li  Li1  1  0.11186500  0.75526300  0.68081800  1
  Li  Li2  1  0.36670200  0.24892200  0.55639600  1
  Li  Li3  1  0.61804500  0.75779000  0.44086400  1
  Li  Li4  1  0.88150200  0.24875000  0.31091100  1
  Li  Li5  1  0.12919100  0.75100700  0.19071700  1
  Li  Li6  1  0.37569500  0.25210400  0.06439700  1
  Li  Li7  1  0.63680500  0.74273400  0.93938400  1
  Li  Li8  1  0.01617400  0.99087600  0.50149000  1
  Mn  Mn0  1  0.99380100  0.00250100  0.00268500  1
  Mn  Mn1  1  0.49523900  0.99884000  0.74170500  1
  Co  Co0  1  0.24953500  0.50041500  0.87469200  1
  Co  Co1  1  0.75145300  0.49690800  0.62309000  1
  Co  Co2  1  0.24887000  0.49834100  0.37511200  1
  Co  Co3  1  0.50740200  0.00156400  0.26186800  1
  Co  Co4  1  0.74918600  0.50433400  0.12703800  1
  O  O0  1  0.40598800  0.11536100  0.90186100  1
  O  O1  1  0.68168100  0.61385000  0.78538500  1
  O  O2  1  0.96132000  0.10944200  0.66578100  1
  O  O3  1  0.18587400  0.61018700  0.52878600  1
  O  O4  1  0.43984000  0.11484000  0.38815400  1
  O  O5  1  0.65618700  0.61348100  0.28462500  1
  O  O6  1  0.91691200  0.11573100  0.15652100  1
  O  O7  1  0.18787900  0.61943500  0.03376500  1
  O  O8  1  0.32216700  0.38311000  0.71401500  1
  O  O9  1  0.56424300  0.88104600  0.60728700  1
  O  O10  1  0.84162300  0.38092500  0.46498000  1
  O  O11  1  0.09003800  0.88471300  0.33538000  1
  O  O12  1  0.30590500  0.38994600  0.22029100  1
  O  O13  1  0.58122500  0.88895100  0.10144700  1
  O  O14  1  0.82359700  0.38553300  0.96806700  1
  O  O15  1  0.02696700  0.89328900  0.83936400  1
loop_
_geom_bond_atom_site_label_1
_geom_bond_atom_site_label_2
_geom_bond_distance
_geom_bond_site_symmetry_2
Li0 O2 2.091963 1_555
Li0 O0 2.103017 1_655
Li0 O14 2.121437 1_555
Li0 O8 2.123607 1_655
Li0 O0 2.144287 1_555
Li0 O8 2.195695 1_555
Li1 O9 1.999531 1_555
Li1 O9 2.041430 1_455
Li1 O3 2.160049 1_555
Li1 O15 2.164348 1_555
Li1 O1 2.169601 1_455
Li1 O1 2.288382 1_555
Li2 O10 2.094783 1_455
Li2 O2 2.132430 1_455
Li2 O8 2.133896 1_555
Li2 O10 2.146247 1_555
Li2 O4 2.217806 1_555
Li2 O2 2.352265 1_555
Li3 O9 2.137384 1_555
Li3 O11 2.142502 1_555
Li3 O3 2.151184 1_555
Li3 O11 2.165010 1_655
Li3 O5 2.190816 1_555
Li3 O3 2.244561 1_655
Li4 O4 2.041988 1_555
Li4 O10 2.092874 1_555
Li4 O6 2.101630 1_555
Li4 O12 2.102104 1_655
Li4 O4 2.116608 1_655
Li4 O12 2.239282 1_555
Li5 O11 2.028505 1_555
Li5 O7 2.110313 1_555
Li5 O13 2.129935 1_555
Li5 O5 2.136480 1_555
Li5 O13 2.161132 1_455
Li5 O5 2.186388 1_455
Li6 O14 2.118931 1_554
Li6 O12 2.141993 1_555
Li6 O6 2.143610 1_455
Li6 O6 2.151649 1_555
Li6 O14 2.178099 1_454
Li6 O0 2.192350 1_554
Li7 O7 2.050066 1_556
Li7 O1 2.070397 1_555
Li7 O7 2.121900 1_656
Li7 O15 2.139451 1_655
Li7 O13 2.247126 1_556
Li7 O15 2.393510 1_555
Li8 O9 2.027467 1_455
Li8 O11 2.036251 1_555
Li8 O4 2.088621 1_565
Li8 O2 2.091371 1_465
Li8 O9 2.116179 1_555
Li8 O4 2.268310 1_465
Mn0 O13 1.936859 1_545
Mn0 O0 1.941486 1_654
Mn0 O6 1.971112 1_555
Mn0 O15 2.031118 1_644
Mn0 O13 2.181665 1_645
Mn0 O0 2.189594 1_554
Mn1 O9 1.839932 1_555
Mn1 O2 1.942723 1_565
Mn1 O2 1.952900 1_465
Mn1 O15 2.001705 1_555
Mn1 O15 2.024441 1_655
Mn1 O0 2.044667 1_565
Co0 O1 1.935455 1_555
Co0 O14 1.948085 1_455
Co0 O7 2.049677 1_556
Co0 O8 2.052853 1_555
Co0 O1 2.095383 1_455
Co0 O14 2.132666 1_555
Co1 O8 1.938279 1_555
Co1 O3 1.959864 1_655
Co1 O10 2.024324 1_555
Co1 O1 2.064395 1_555
Co1 O8 2.110208 1_655
Co1 O3 2.111893 1_555
Co2 O5 1.899910 1_555
Co2 O10 1.911248 1_455
Co2 O12 1.951042 1_555
Co2 O3 1.961332 1_555
Co2 O5 2.162699 1_455
Co2 O10 2.169048 1_555
Co3 O4 1.745781 1_555
Co3 O11 1.867850 1_545
Co3 O6 1.965256 1_555
Co3 O13 2.023275 1_545
Co3 O11 2.080069 1_645
Co3 O6 2.221832 1_455
Co4 O7 1.975124 1_655
Co4 O12 1.980330 1_555
Co4 O5 1.980573 1_555
Co4 O14 2.047418 1_554
Co4 O12 2.092034 1_655
Co4 O7 2.104990 1_555
