# generated using pymatgen
data_TbPO4
_symmetry_space_group_name_H-M   'P 1'
_cell_length_a   4.96889700
_cell_length_b   6.85283500
_cell_length_c   6.93388400
_cell_angle_alpha   90.00000000
_cell_angle_beta   90.00000000
_cell_angle_gamma   90.00000000
_symmetry_Int_Tables_number   1
_chemical_formula_structural   TbPO4
_chemical_formula_sum   'Tb4 P4 O16'
_cell_volume   236.10590093
_cell_formula_units_Z   4
loop_
 _symmetry_equiv_pos_site_id
 _symmetry_equiv_pos_as_xyz
  1  'x, y, z'
loop_
 _atom_site_type_symbol
 _atom_site_label
 _atom_site_symmetry_multiplicity
 _atom_site_fract_x
 _atom_site_fract_y
 _atom_site_fract_z
 _atom_site_occupancy
  Tb  Tb0  1  0.48709200  0.75000000  0.30904100  1
  Tb  Tb1  1  0.51290800  0.25000000  0.69095900  1
  Tb  Tb2  1  0.48709200  0.25000000  0.19095900  1
  Tb  Tb3  1  0.51290800  0.75000000  0.80904100  1
  P  P0  1  0.00000000  0.50000000  0.50000000  1
  P  P1  1  0.00000000  0.00000000  0.50000000  1
  P  P2  1  0.00000000  0.50000000  0.00000000  1
  P  P3  1  0.00000000  0.00000000  0.00000000  1
  O  O0  1  0.70793200  0.56431800  0.07463300  1
  O  O1  1  0.29206800  0.06431800  0.92536700  1
  O  O2  1  0.70793200  0.43568200  0.42536700  1
  O  O3  1  0.29206800  0.93568200  0.57463300  1
  O  O4  1  0.29206800  0.43568200  0.92536700  1
  O  O5  1  0.70793200  0.93568200  0.07463300  1
  O  O6  1  0.29206800  0.56431800  0.57463300  1
  O  O7  1  0.70793200  0.06431800  0.42536700  1
  O  O8  1  0.14672500  0.50000000  0.25000000  1
  O  O9  1  0.85327500  0.00000000  0.75000000  1
  O  O10  1  0.85327500  0.50000000  0.75000000  1
  O  O11  1  0.14672500  0.00000000  0.25000000  1
  O  O12  1  0.88246100  0.75000000  0.47602600  1
  O  O13  1  0.11753900  0.25000000  0.52397400  1
  O  O14  1  0.88246100  0.25000000  0.02397400  1
  O  O15  1  0.11753900  0.75000000  0.97602600  1
loop_
_geom_bond_atom_site_label_1
_geom_bond_atom_site_label_2
_geom_bond_distance
_geom_bond_site_symmetry_2
O0 P2 1.602565 1_655
O0 Tb0 2.337744 1_555
O0 Tb3 2.439185 1_554
O0 Tb2 2.548393 1_555
O1 P3 1.602565 1_556
O1 Tb1 2.337744 1_555
O1 Tb2 2.439185 1_556
O1 Tb3 2.548393 1_545
O2 P0 1.602565 1_655
O2 Tb2 2.337744 1_555
O2 Tb1 2.439185 1_555
O2 Tb0 2.548393 1_555
O3 P1 1.602565 1_565
O3 Tb3 2.337744 1_555
O3 Tb0 2.439185 1_555
O3 Tb1 2.548393 1_565
O4 P2 1.602565 1_556
O4 Tb1 2.337744 1_555
O4 Tb2 2.439185 1_556
O4 Tb3 2.548393 1_555
O5 P3 1.602565 1_665
O5 Tb0 2.337744 1_555
O5 Tb3 2.439185 1_554
O5 Tb2 2.548393 1_565
O6 P0 1.602565 1_555
O6 Tb3 2.337744 1_555
O6 Tb0 2.439185 1_555
O6 Tb1 2.548393 1_555
O7 P1 1.602565 1_655
O7 Tb2 2.337744 1_555
O7 Tb1 2.439185 1_555
O7 Tb0 2.548393 1_545
O8 P2 1.880546 1_555
O8 P0 1.880546 1_555
O8 Tb2 2.441926 1_555
O8 Tb0 2.441926 1_555
O9 P1 1.880546 1_655
O9 P3 1.880546 1_656
O9 Tb1 2.441926 1_555
O9 Tb3 2.441926 1_545
O10 P2 1.880546 1_656
O10 P0 1.880546 1_655
O10 Tb1 2.441926 1_555
O10 Tb3 2.441926 1_555
O11 P1 1.880546 1_555
O11 P3 1.880546 1_555
O11 Tb2 2.441926 1_555
O11 Tb0 2.441926 1_545
O12 P0 1.817641 1_655
O12 P1 1.817641 1_665
O12 Tb0 2.280367 1_555
O12 Tb3 2.950216 1_555
O13 P1 1.817641 1_555
O13 P0 1.817641 1_555
O13 Tb1 2.280367 1_555
O13 Tb2 2.950216 1_555
O14 P3 1.817641 1_655
O14 P2 1.817641 1_655
O14 Tb2 2.280367 1_555
O14 Tb1 2.950216 1_554
O15 P2 1.817641 1_556
O15 P3 1.817641 1_566
O15 Tb3 2.280367 1_555
O15 Tb0 2.950216 1_556
