# generated using pymatgen
data_Ba4CaTi5O15
_symmetry_space_group_name_H-M   'P 1'
_cell_length_a   4.00903700
_cell_length_b   4.00903700
_cell_length_c   20.03820900
_cell_angle_alpha   90.00000000
_cell_angle_beta   90.00000000
_cell_angle_gamma   90.00000000
_symmetry_Int_Tables_number   1
_chemical_formula_structural   Ba4CaTi5O15
_chemical_formula_sum   'Ba4 Ca1 Ti5 O15'
_cell_volume   322.06166283
_cell_formula_units_Z   1
loop_
 _symmetry_equiv_pos_site_id
 _symmetry_equiv_pos_as_xyz
  1  'x, y, z'
loop_
 _atom_site_type_symbol
 _atom_site_label
 _atom_site_symmetry_multiplicity
 _atom_site_fract_x
 _atom_site_fract_y
 _atom_site_fract_z
 _atom_site_occupancy
  Ba  Ba0  1  0.00000000  0.00000000  0.19829500  1
  Ba  Ba1  1  0.00000000  0.00000000  0.39998800  1
  Ba  Ba2  1  0.00000000  0.00000000  0.60001200  1
  Ba  Ba3  1  0.00000000  0.00000000  0.80170500  1
  Ca  Ca0  1  0.00000000  0.00000000  0.00000000  1
  Ti  Ti0  1  0.50000000  0.50000000  0.09584800  1
  Ti  Ti1  1  0.50000000  0.50000000  0.29925100  1
  Ti  Ti2  1  0.50000000  0.50000000  0.50000000  1
  Ti  Ti3  1  0.50000000  0.50000000  0.70074900  1
  Ti  Ti4  1  0.50000000  0.50000000  0.90415200  1
  O  O0  1  0.50000000  0.50000000  0.00000000  1
  O  O1  1  0.50000000  0.50000000  0.19829200  1
  O  O2  1  0.50000000  0.50000000  0.39983300  1
  O  O3  1  0.50000000  0.50000000  0.60016700  1
  O  O4  1  0.50000000  0.50000000  0.80170800  1
  O  O5  1  0.50000000  0.00000000  0.09326200  1
  O  O6  1  0.50000000  0.00000000  0.29969300  1
  O  O7  1  0.50000000  0.00000000  0.50000000  1
  O  O8  1  0.50000000  0.00000000  0.70030700  1
  O  O9  1  0.50000000  0.00000000  0.90673800  1
  O  O10  1  0.00000000  0.50000000  0.09326200  1
  O  O11  1  0.00000000  0.50000000  0.29969300  1
  O  O12  1  0.00000000  0.50000000  0.50000000  1
  O  O13  1  0.00000000  0.50000000  0.70030700  1
  O  O14  1  0.00000000  0.50000000  0.90673800  1
loop_
_geom_bond_atom_site_label_1
_geom_bond_atom_site_label_2
_geom_bond_distance
_geom_bond_site_symmetry_2
Ba0 O1 2.834817 1_455
Ba0 O1 2.834817 1_555
Ba0 O1 2.834817 1_445
Ba0 O1 2.834817 1_545
Ba0 O6 2.854198 1_455
Ba0 O6 2.854198 1_555
Ba0 O11 2.854198 1_545
Ba0 O11 2.854198 1_555
Ba0 O5 2.906500 1_455
Ba0 O5 2.906500 1_555
Ba0 O10 2.906500 1_545
Ba0 O10 2.906500 1_555
Ba1 O12 2.834494 1_545
Ba1 O12 2.834494 1_555
Ba1 O7 2.834494 1_455
Ba1 O7 2.834494 1_555
Ba1 O2 2.834819 1_455
Ba1 O2 2.834819 1_555
Ba1 O2 2.834819 1_545
Ba1 O2 2.834819 1_445
Ba1 O6 2.838506 1_555
Ba1 O11 2.838506 1_555
Ba1 O6 2.838506 1_455
Ba1 O11 2.838506 1_545
Ba2 O12 2.834494 1_545
Ba2 O7 2.834494 1_555
Ba2 O12 2.834494 1_555
Ba2 O7 2.834494 1_455
Ba2 O3 2.834819 1_545
Ba2 O3 2.834819 1_555
Ba2 O3 2.834819 1_445
Ba2 O3 2.834819 1_455
Ba2 O13 2.838506 1_545
Ba2 O13 2.838506 1_555
Ba2 O8 2.838506 1_455
Ba2 O8 2.838506 1_555
Ba3 O4 2.834817 1_455
Ba3 O4 2.834817 1_555
Ba3 O4 2.834817 1_445
Ba3 O4 2.834817 1_545
Ba3 O13 2.854198 1_555
Ba3 O8 2.854198 1_555
Ba3 O8 2.854198 1_455
Ba3 O13 2.854198 1_545
Ba3 O9 2.906500 1_455
Ba3 O14 2.906500 1_545
Ba3 O9 2.906500 1_555
Ba3 O14 2.906500 1_555
Ca0 O10 2.740533 1_545
Ca0 O10 2.740533 1_555
Ca0 O5 2.740533 1_455
Ca0 O5 2.740533 1_555
Ca0 O14 2.740533 1_544
Ca0 O9 2.740533 1_554
Ca0 O9 2.740533 1_454
Ca0 O14 2.740533 1_554
Ca0 O0 2.834817 1_555
Ca0 O0 2.834817 1_545
Ca0 O0 2.834817 1_445
Ca0 O0 2.834817 1_455
O0 Ti0 1.920622 1_555
O0 Ti4 1.920622 1_554
O1 Ti1 2.023038 1_555
O1 Ti0 2.052794 1_555
O2 Ti2 2.007167 1_555
O2 Ti1 2.015483 1_555
O3 Ti2 2.007167 1_555
O3 Ti3 2.015483 1_555
O4 Ti3 2.023038 1_555
O4 Ti4 2.052794 1_555
O5 Ti0 2.005188 1_555
O5 Ti0 2.005188 1_545
O6 Ti1 2.004538 1_545
O6 Ti1 2.004538 1_555
O7 Ti2 2.004519 1_555
O7 Ti2 2.004519 1_545
O8 Ti3 2.004538 1_545
O8 Ti3 2.004538 1_555
O9 Ti4 2.005188 1_545
O9 Ti4 2.005188 1_555
O10 Ti0 2.005188 1_455
O10 Ti0 2.005188 1_555
O11 Ti1 2.004538 1_555
O11 Ti1 2.004538 1_455
O12 Ti2 2.004519 1_455
O12 Ti2 2.004519 1_555
O13 Ti3 2.004538 1_455
O13 Ti3 2.004538 1_555
O14 Ti4 2.005188 1_455
O14 Ti4 2.005188 1_555
