# generated using pymatgen
data_FeN
_symmetry_space_group_name_H-M   'P 1'
_cell_length_a   2.73839060
_cell_length_b   2.73839060
_cell_length_c   5.00432300
_cell_angle_alpha   90.00000000
_cell_angle_beta   90.00000000
_cell_angle_gamma   120.00001453
_symmetry_Int_Tables_number   1
_chemical_formula_structural   FeN
_chemical_formula_sum   'Fe2 N2'
_cell_volume   32.49875264
_cell_formula_units_Z   2
loop_
 _symmetry_equiv_pos_site_id
 _symmetry_equiv_pos_as_xyz
  1  'x, y, z'
loop_
 _atom_site_type_symbol
 _atom_site_label
 _atom_site_symmetry_multiplicity
 _atom_site_fract_x
 _atom_site_fract_y
 _atom_site_fract_z
 _atom_site_occupancy
  Fe  Fe0  1  0.00000000  0.00000000  0.50000000  1
  Fe  Fe1  1  0.00000000  0.00000000  0.00000000  1
  N  N0  1  0.66666700  0.33333300  0.25000000  1
  N  N1  1  0.33333300  0.66666700  0.75000000  1
loop_
_geom_bond_atom_site_label_1
_geom_bond_atom_site_label_2
_geom_bond_distance
_geom_bond_site_symmetry_2
Fe0 N0 2.016133 1_455
Fe0 N1 2.016133 1_545
Fe0 N1 2.016135 1_555
Fe0 N0 2.016135 1_445
Fe0 N0 2.016135 1_555
Fe0 N1 2.016135 1_445
Fe1 N0 2.016133 1_455
Fe1 N1 2.016133 1_544
Fe1 N1 2.016135 1_554
Fe1 N0 2.016135 1_555
Fe1 N0 2.016135 1_445
Fe1 N1 2.016135 1_444
