# generated using pymatgen
data_VPbO2
_symmetry_space_group_name_H-M   'P 1'
_cell_length_a   7.57584563
_cell_length_b   7.57584563
_cell_length_c   7.57584563
_cell_angle_alpha   128.62674406
_cell_angle_beta   128.62674406
_cell_angle_gamma   75.61190424
_symmetry_Int_Tables_number   1
_chemical_formula_structural   VPbO2
_chemical_formula_sum   'V4 Pb4 O8'
_cell_volume   258.17025203
_cell_formula_units_Z   4
loop_
 _symmetry_equiv_pos_site_id
 _symmetry_equiv_pos_as_xyz
  1  'x, y, z'
loop_
 _atom_site_type_symbol
 _atom_site_label
 _atom_site_symmetry_multiplicity
 _atom_site_fract_x
 _atom_site_fract_y
 _atom_site_fract_z
 _atom_site_occupancy
  V  V0  1  0.37500000  0.12500000  0.25000000  1
  V  V1  1  0.87500000  0.12500000  0.75000000  1
  V  V2  1  0.87500000  0.12500000  0.25000000  1
  V  V3  1  0.87500000  0.62500000  0.75000000  1
  Pb  Pb0  1  0.87500000  0.62500000  0.25000000  1
  Pb  Pb1  1  0.37500000  0.62500000  0.75000000  1
  Pb  Pb2  1  0.37500000  0.62500000  0.25000000  1
  Pb  Pb3  1  0.37500000  0.12500000  0.75000000  1
  O  O0  1  0.16285600  0.35360200  0.20803300  1
  O  O1  1  0.14557000  0.95482300  0.79196700  1
  O  O2  1  0.10360200  0.39557000  0.69074700  1
  O  O3  1  0.58714400  0.89639800  0.29196700  1
  O  O4  1  0.70482300  0.41285600  0.30925300  1
  O  O5  1  0.60443000  0.29517700  0.70803300  1
  O  O6  1  0.64639800  0.85443000  0.80925300  1
  O  O7  1  0.04517700  0.83714400  0.19074700  1
loop_
_geom_bond_atom_site_label_1
_geom_bond_atom_site_label_2
_geom_bond_distance
_geom_bond_site_symmetry_2
O0 V0 2.085572 1_555
O0 V1 2.173113 1_454
O0 Pb1 2.555882 1_555
O0 Pb0 2.627802 1_455
O0 Pb2 2.664518 1_555
O1 V1 2.085577 1_465
O1 V0 2.173113 1_566
O1 Pb0 2.555882 1_455
O1 Pb1 2.627798 1_555
O1 Pb3 2.664512 1_565
O2 V2 2.085577 1_455
O2 V3 2.173108 1_455
O2 Pb3 2.555886 1_555
O2 Pb2 2.627797 1_556
O2 Pb1 2.664518 1_555
O3 V0 2.085572 1_565
O3 V1 2.173113 1_565
O3 Pb1 2.555882 1_554
O3 Pb0 2.627802 1_555
O3 Pb2 2.664518 1_555
O4 V3 2.085577 1_555
O4 V2 2.173113 1_555
O4 Pb2 2.555882 1_555
O4 Pb3 2.627798 1_554
O4 Pb0 2.664512 1_555
O5 V1 2.085577 1_555
O5 V0 2.173113 1_555
O5 Pb0 2.555882 1_556
O5 Pb1 2.627798 1_555
O5 Pb3 2.664512 1_555
O6 V2 2.085577 1_566
O6 V3 2.173108 1_555
O6 Pb3 2.555886 1_565
O6 Pb2 2.627797 1_555
O6 Pb1 2.664518 1_555
O7 V3 2.085577 1_454
O7 V2 2.173113 1_465
O7 Pb2 2.555882 1_555
O7 Pb3 2.627798 1_565
O7 Pb0 2.664512 1_455
