# generated using pymatgen
data_SrMg14CrO16
_symmetry_space_group_name_H-M   'P 1'
_cell_length_a   8.74851779
_cell_length_b   8.64436934
_cell_length_c   4.40138939
_cell_angle_alpha   90.00000000
_cell_angle_beta   90.00000000
_cell_angle_gamma   90.00000000
_symmetry_Int_Tables_number   1
_chemical_formula_structural   SrMg14CrO16
_chemical_formula_sum   'Sr1 Mg14 Cr1 O16'
_cell_volume   332.85691660
_cell_formula_units_Z   1
loop_
 _symmetry_equiv_pos_site_id
 _symmetry_equiv_pos_as_xyz
  1  'x, y, z'
loop_
 _atom_site_type_symbol
 _atom_site_label
 _atom_site_symmetry_multiplicity
 _atom_site_fract_x
 _atom_site_fract_y
 _atom_site_fract_z
 _atom_site_occupancy
  Sr  Sr0  1  0.00000000  0.00000000  0.00000000  1
  Mg  Mg0  1  0.50000000  0.00000000  0.00000000  1
  Mg  Mg1  1  0.50000000  0.50000000  0.00000000  1
  Mg  Mg2  1  0.00000000  0.25822645  0.50000000  1
  Mg  Mg3  1  0.00000000  0.74177355  0.50000000  1
  Mg  Mg4  1  0.50000000  0.25144496  0.50000000  1
  Mg  Mg5  1  0.50000000  0.74855504  0.50000000  1
  Mg  Mg6  1  0.26047336  0.00000000  0.50000000  1
  Mg  Mg7  1  0.25397852  0.50000000  0.50000000  1
  Mg  Mg8  1  0.73952664  0.00000000  0.50000000  1
  Mg  Mg9  1  0.74602148  0.50000000  0.50000000  1
  Mg  Mg10  1  0.25844291  0.25576310  0.00000000  1
  Mg  Mg11  1  0.25844291  0.74423690  0.00000000  1
  Mg  Mg12  1  0.74155709  0.25576310  0.00000000  1
  Mg  Mg13  1  0.74155709  0.74423690  0.00000000  1
  Cr  Cr0  1  0.00000000  0.50000000  0.00000000  1
  O  O0  1  0.27145224  0.00000000  0.00000000  1
  O  O1  1  0.26574714  0.50000000  0.00000000  1
  O  O2  1  0.72854776  0.00000000  0.00000000  1
  O  O3  1  0.73425286  0.50000000  0.00000000  1
  O  O4  1  0.24985563  0.25027979  0.50000000  1
  O  O5  1  0.24985563  0.74972021  0.50000000  1
  O  O6  1  0.75014437  0.25027979  0.50000000  1
  O  O7  1  0.75014437  0.74972021  0.50000000  1
  O  O8  1  0.00000000  0.00000000  0.50000000  1
  O  O9  1  0.00000000  0.50000000  0.50000000  1
  O  O10  1  0.50000000  0.00000000  0.50000000  1
  O  O11  1  0.50000000  0.50000000  0.50000000  1
  O  O12  1  0.00000000  0.26891451  0.00000000  1
  O  O13  1  0.00000000  0.73108549  0.00000000  1
  O  O14  1  0.50000000  0.25178064  0.00000000  1
  O  O15  1  0.50000000  0.74821936  0.00000000  1
loop_
_geom_bond_atom_site_label_1
_geom_bond_atom_site_label_2
_geom_bond_distance
_geom_bond_site_symmetry_2
Mg0 O2 1.999454 1_555
Mg0 O0 1.999454 1_555
Mg0 O14 2.176485 1_555
Mg0 O15 2.176485 1_545
Mg0 O10 2.200695 1_555
Mg0 O10 2.200695 1_554
Mg1 O3 2.049365 1_555
Mg1 O1 2.049365 1_555
Mg1 O14 2.145700 1_555
Mg1 O15 2.145700 1_555
Mg1 O11 2.200695 1_554
Mg1 O11 2.200695 1_555
Mg2 O9 2.089980 1_555
Mg2 O4 2.186946 1_555
Mg2 O6 2.186946 1_455
Mg2 O12 2.202633 1_555
Mg2 O12 2.202633 1_556
Mg2 O8 2.232205 1_555
Mg3 O9 2.089980 1_555
Mg3 O7 2.186946 1_455
Mg3 O5 2.186946 1_555
Mg3 O13 2.202633 1_555
Mg3 O13 2.202633 1_556
Mg3 O8 2.232205 1_565
Mg4 O11 2.148602 1_555
Mg4 O10 2.173583 1_555
Mg4 O4 2.188416 1_555
Mg4 O6 2.188416 1_555
Mg4 O14 2.200697 1_556
Mg4 O14 2.200697 1_555
Mg5 O11 2.148602 1_555
Mg5 O10 2.173583 1_565
Mg5 O5 2.188416 1_555
Mg5 O7 2.188416 1_555
Mg5 O15 2.200697 1_556
Mg5 O15 2.200697 1_555
Mg6 O10 2.095503 1_555
Mg6 O4 2.165504 1_555
Mg6 O5 2.165504 1_545
Mg6 O0 2.202790 1_555
Mg6 O0 2.202790 1_556
Mg6 O8 2.278756 1_555
Mg7 O11 2.152323 1_555
Mg7 O4 2.158975 1_555
Mg7 O5 2.158975 1_555
Mg7 O1 2.203102 1_555
Mg7 O1 2.203102 1_556
Mg7 O9 2.221936 1_555
Mg8 O10 2.095503 1_555
Mg8 O6 2.165504 1_555
Mg8 O7 2.165504 1_545
Mg8 O2 2.202790 1_555
Mg8 O2 2.202790 1_556
Mg8 O8 2.278756 1_655
Mg9 O11 2.152323 1_555
Mg9 O6 2.158975 1_555
Mg9 O7 2.158975 1_555
Mg9 O3 2.203102 1_556
Mg9 O3 2.203102 1_555
Mg9 O9 2.221936 1_655
Mg10 O1 2.112241 1_555
Mg10 O14 2.113547 1_555
Mg10 O4 2.202487 1_554
Mg10 O4 2.202487 1_555
Mg10 O0 2.213838 1_555
Mg10 O12 2.263849 1_555
Mg11 O1 2.112241 1_555
Mg11 O15 2.113547 1_555
Mg11 O5 2.202487 1_555
Mg11 O5 2.202487 1_554
Mg11 O0 2.213838 1_565
Mg11 O13 2.263849 1_555
Mg12 O3 2.112241 1_555
Mg12 O14 2.113547 1_555
Mg12 O6 2.202487 1_555
Mg12 O6 2.202487 1_554
Mg12 O2 2.213838 1_555
Mg12 O12 2.263849 1_655
Mg13 O3 2.112241 1_555
Mg13 O15 2.113547 1_555
Mg13 O7 2.202487 1_555
Mg13 O7 2.202487 1_554
Mg13 O2 2.213838 1_565
Mg13 O13 2.263849 1_655
Cr0 O13 1.997588 1_555
Cr0 O12 1.997588 1_555
Cr0 O9 2.200695 1_555
Cr0 O9 2.200695 1_554
Cr0 O3 2.324894 1_455
Cr0 O1 2.324894 1_555
O0 Sr0 2.374805 1_555
O2 Sr0 2.374805 1_655
O8 Sr0 2.200695 1_555
O8 Sr0 2.200695 1_556
O12 Sr0 2.324596 1_555
O13 Sr0 2.324596 1_565
