# generated using pymatgen
data_InAgS2
_symmetry_space_group_name_H-M   'P 1'
_cell_length_a   4.14445721
_cell_length_b   4.14445721
_cell_length_c   6.87421200
_cell_angle_alpha   90.00000000
_cell_angle_beta   90.00000000
_cell_angle_gamma   119.99998738
_symmetry_Int_Tables_number   1
_chemical_formula_structural   InAgS2
_chemical_formula_sum   'In1 Ag1 S2'
_cell_volume   102.25603022
_cell_formula_units_Z   1
loop_
 _symmetry_equiv_pos_site_id
 _symmetry_equiv_pos_as_xyz
  1  'x, y, z'
loop_
 _atom_site_type_symbol
 _atom_site_label
 _atom_site_symmetry_multiplicity
 _atom_site_fract_x
 _atom_site_fract_y
 _atom_site_fract_z
 _atom_site_occupancy
  In  In0  1  0.66666700  0.33333300  0.02253300  1
  Ag  Ag0  1  0.33333300  0.66666700  0.48530300  1
  S  S0  1  0.33333300  0.66666700  0.86952700  1
  S  S1  1  0.66666700  0.33333300  0.37263700  1
loop_
_geom_bond_atom_site_label_1
_geom_bond_atom_site_label_2
_geom_bond_distance
_geom_bond_site_symmetry_2
In0 S1 2.406689 1_555
In0 S0 2.613766 1_544
In0 S0 2.613766 1_654
In0 S0 2.613772 1_554
Ag0 S1 2.515022 1_455
Ag0 S1 2.515022 1_565
Ag0 S1 2.515028 1_555
Ag0 S0 2.641237 1_555
