# generated using pymatgen
data_Cs6Fe2O5
_symmetry_space_group_name_H-M   'P 1'
_cell_length_a   7.19217594
_cell_length_b   7.19217594
_cell_length_c   7.36194056
_cell_angle_alpha   86.43868713
_cell_angle_beta   86.43868713
_cell_angle_gamma   116.96569944
_symmetry_Int_Tables_number   1
_chemical_formula_structural   Cs6Fe2O5
_chemical_formula_sum   'Cs6 Fe2 O5'
_cell_volume   337.00651413
_cell_formula_units_Z   1
loop_
 _symmetry_equiv_pos_site_id
 _symmetry_equiv_pos_as_xyz
  1  'x, y, z'
loop_
 _atom_site_type_symbol
 _atom_site_label
 _atom_site_symmetry_multiplicity
 _atom_site_fract_x
 _atom_site_fract_y
 _atom_site_fract_z
 _atom_site_occupancy
  Cs  Cs0  1  0.98900745  0.98900745  0.36012160  1
  Cs  Cs1  1  0.70134018  0.70134018  0.99326052  1
  Cs  Cs2  1  0.59771321  0.10813943  0.68516288  1
  Cs  Cs3  1  0.10813943  0.59771321  0.68516288  1
  Cs  Cs4  1  0.56065527  0.14025167  0.18275455  1
  Cs  Cs5  1  0.14025167  0.56065527  0.18275455  1
  Fe  Fe0  1  0.16566857  0.16566857  0.87579825  1
  Fe  Fe1  1  0.54845097  0.54845097  0.51083143  1
  O  O0  1  0.39896205  0.39896205  0.74037607  1
  O  O1  1  0.51022546  0.76893243  0.40959885  1
  O  O2  1  0.76893243  0.51022546  0.40959885  1
  O  O3  1  0.18674560  0.92750672  0.95498928  1
  O  O4  1  0.92750672  0.18674560  0.95498928  1
loop_
_geom_bond_atom_site_label_1
_geom_bond_atom_site_label_2
_geom_bond_distance
_geom_bond_site_symmetry_2
Cs0 O1 3.053698 1_555
Cs0 O2 3.053698 1_555
Cs0 O3 3.364716 1_654
Cs0 O4 3.364716 1_564
Cs1 O3 3.095796 1_655
Cs1 O4 3.095796 1_565
Cs1 O0 3.105127 1_555
Cs1 O1 3.433361 1_556
Cs1 O2 3.433361 1_556
Cs2 O0 3.054273 1_555
Cs2 O4 3.066004 1_555
Cs2 O2 3.118665 1_555
Cs2 O3 3.136507 1_545
Cs2 O1 3.137607 1_545
Cs3 O0 3.054273 1_555
Cs3 O3 3.066004 1_555
Cs3 O1 3.118665 1_555
Cs3 O4 3.136507 1_455
Cs3 O2 3.137607 1_455
Cs4 O4 2.909552 1_554
Cs4 O1 2.923147 1_545
Cs4 O2 3.059616 1_555
Cs4 O3 3.087387 1_544
Cs5 O3 2.909552 1_554
Cs5 O2 2.923147 1_455
Cs5 O1 3.059616 1_555
Cs5 O4 3.087387 1_454
Fe0 O3 1.849137 1_545
Fe0 O4 1.849137 1_455
Fe0 O0 1.911985 1_555
Fe1 O1 1.849215 1_555
Fe1 O2 1.849215 1_555
Fe1 O0 1.915165 1_555
