# generated using pymatgen
data_Mg5(SiN3)2
_symmetry_space_group_name_H-M   'P 1'
_cell_length_a   5.40176556
_cell_length_b   5.30679973
_cell_length_c   12.10971295
_cell_angle_alpha   90.00000265
_cell_angle_beta   94.13612627
_cell_angle_gamma   119.42012186
_symmetry_Int_Tables_number   1
_chemical_formula_structural   Mg5(SiN3)2
_chemical_formula_sum   'Mg10 Si4 N12'
_cell_volume   301.33323073
_cell_formula_units_Z   2
loop_
 _symmetry_equiv_pos_site_id
 _symmetry_equiv_pos_as_xyz
  1  'x, y, z'
loop_
 _atom_site_type_symbol
 _atom_site_label
 _atom_site_symmetry_multiplicity
 _atom_site_fract_x
 _atom_site_fract_y
 _atom_site_fract_z
 _atom_site_occupancy
  Mg  Mg0  1  0.00000000  0.38995300  0.75000000  1
  Mg  Mg1  1  0.00000000  0.61004700  0.25000000  1
  Mg  Mg2  1  0.19291400  0.85258500  0.02294100  1
  Mg  Mg3  1  0.80708600  0.65967200  0.47705900  1
  Mg  Mg4  1  0.80708600  0.14741500  0.97705900  1
  Mg  Mg5  1  0.19291400  0.34032800  0.52294100  1
  Mg  Mg6  1  0.29121300  0.06895100  0.71866300  1
  Mg  Mg7  1  0.70878700  0.77773900  0.78133700  1
  Mg  Mg8  1  0.70878700  0.93104900  0.28133700  1
  Mg  Mg9  1  0.29121300  0.22226100  0.21866300  1
  Si  Si0  1  0.57255400  0.93106500  0.58551100  1
  Si  Si1  1  0.42744600  0.35851000  0.91448900  1
  Si  Si2  1  0.42744600  0.06893500  0.41448900  1
  Si  Si3  1  0.57255400  0.64149000  0.08551100  1
  N  N0  1  0.33605100  0.70999800  0.67712300  1
  N  N1  1  0.66394900  0.37394700  0.82287700  1
  N  N2  1  0.66394900  0.29000200  0.32287700  1
  N  N3  1  0.33605100  0.62605300  0.17712300  1
  N  N4  1  0.53825800  0.24281300  0.55028100  1
  N  N5  1  0.46174200  0.70455500  0.94971900  1
  N  N6  1  0.46174200  0.75718700  0.44971900  1
  N  N7  1  0.53825800  0.29544500  0.05028100  1
  N  N8  1  0.91661600  0.02267800  0.62950800  1
  N  N9  1  0.08338400  0.10606200  0.87049200  1
  N  N10  1  0.08338400  0.97732200  0.37049200  1
  N  N11  1  0.91661600  0.89393800  0.12950800  1
loop_
_geom_bond_atom_site_label_1
_geom_bond_atom_site_label_2
_geom_bond_distance
_geom_bond_site_symmetry_2
Mg0 N1 2.039821 1_455
Mg0 N0 2.039821 1_555
Mg0 N8 2.274526 1_455
Mg0 N9 2.274526 1_555
Mg1 N3 2.039821 1_555
Mg1 N2 2.039821 1_455
Mg1 N10 2.274526 1_555
Mg1 N11 2.274526 1_455
Mg2 N11 2.130892 1_455
Mg2 N7 2.171796 1_565
Mg2 N5 2.195112 1_554
Mg2 N9 2.488360 1_564
Mg2 N3 2.496796 1_555
Mg3 N10 2.130889 1_655
Mg3 N6 2.171792 1_555
Mg3 N4 2.195115 1_555
Mg3 N8 2.488357 1_565
Mg3 N2 2.496799 1_555
Mg4 N9 2.130892 1_655
Mg4 N5 2.171796 1_545
Mg4 N7 2.195112 1_556
Mg4 N11 2.488360 1_546
Mg4 N1 2.496796 1_555
Mg5 N8 2.130889 1_455
Mg5 N4 2.171792 1_555
Mg5 N6 2.195115 1_555
Mg5 N10 2.488357 1_545
Mg5 N0 2.496799 1_555
Mg6 N0 2.100276 1_545
Mg6 N8 2.125353 1_455
Mg6 N1 2.167528 1_555
Mg6 N9 2.279154 1_555
Mg6 N4 2.443929 1_555
Mg7 N1 2.100281 1_555
Mg7 N9 2.125351 1_665
Mg7 N0 2.167526 1_555
Mg7 N8 2.279152 1_565
Mg7 N5 2.443928 1_555
Mg8 N2 2.100276 1_565
Mg8 N10 2.125353 1_655
Mg8 N3 2.167528 1_555
Mg8 N11 2.279154 1_555
Mg8 N6 2.443929 1_555
Mg9 N3 2.100281 1_555
Mg9 N11 2.125351 1_445
Mg9 N2 2.167526 1_555
Mg9 N10 2.279152 1_545
Mg9 N7 2.443928 1_555
N0 Si0 1.723716 1_555
N1 Si1 1.723715 1_555
N2 Si2 1.723716 1_555
N3 Si3 1.723715 1_555
N4 Si2 1.796994 1_555
N4 Si0 1.800838 1_545
N5 Si3 1.796992 1_556
N5 Si1 1.800843 1_555
N6 Si0 1.796994 1_555
N6 Si2 1.800838 1_565
N7 Si1 1.796992 1_554
N7 Si3 1.800843 1_555
N8 Si0 1.715774 1_545
N9 Si1 1.715773 1_555
N10 Si2 1.715774 1_565
N11 Si3 1.715773 1_555
