# generated using pymatgen
data_Mg14CrSb
_symmetry_space_group_name_H-M   'P 1'
_cell_length_a   6.32828513
_cell_length_b   6.30920828
_cell_length_c   10.33473425
_cell_angle_alpha   90.00000000
_cell_angle_beta   90.00000000
_cell_angle_gamma   119.90033515
_symmetry_Int_Tables_number   1
_chemical_formula_structural   Mg14CrSb
_chemical_formula_sum   'Mg14 Cr1 Sb1'
_cell_volume   357.70592216
_cell_formula_units_Z   1
loop_
 _symmetry_equiv_pos_site_id
 _symmetry_equiv_pos_as_xyz
  1  'x, y, z'
loop_
 _atom_site_type_symbol
 _atom_site_label
 _atom_site_symmetry_multiplicity
 _atom_site_fract_x
 _atom_site_fract_y
 _atom_site_fract_z
 _atom_site_occupancy
  Mg  Mg0  1  0.16711721  0.33355811  0.62500000  1
  Mg  Mg1  1  0.16649232  0.83324566  0.62500000  1
  Mg  Mg2  1  0.66787357  0.33285306  0.12500000  1
  Mg  Mg3  1  0.66654834  0.33370212  0.62500000  1
  Mg  Mg4  1  0.66787357  0.83501951  0.12500000  1
  Mg  Mg5  1  0.66654834  0.83284522  0.62500000  1
  Mg  Mg6  1  0.33278859  0.16976500  0.37365023  1
  Mg  Mg7  1  0.33278859  0.16976500  0.87634977  1
  Mg  Mg8  1  0.33278859  0.66302459  0.37365023  1
  Mg  Mg9  1  0.33278859  0.66302459  0.87634977  1
  Mg  Mg10  1  0.83645460  0.16822780  0.37347519  1
  Mg  Mg11  1  0.83645460  0.16822780  0.87652481  1
  Mg  Mg12  1  0.83162571  0.66581336  0.37653644  1
  Mg  Mg13  1  0.83162571  0.66581336  0.87346356  1
  Cr  Cr0  1  0.16520147  0.33260023  0.12500000  1
  Sb  Sb0  1  0.16503019  0.83251459  0.12500000  1
loop_
_geom_bond_atom_site_label_1
_geom_bond_atom_site_label_2
_geom_bond_distance
_geom_bond_site_symmetry_2
Mg0 Mg1 3.154606 1_555
Mg0 Mg1 3.154606 1_545
Mg0 Mg5 3.160089 1_555
Mg0 Mg3 3.160090 1_555
Mg0 Mg6 3.161482 1_555
Mg0 Mg7 3.161482 1_555
Mg0 Mg8 3.161488 1_555
Mg0 Mg9 3.161488 1_555
Mg0 Mg5 3.168195 1_445
Mg0 Mg3 3.168196 1_455
Mg0 Mg10 3.169809 1_455
Mg0 Mg11 3.169809 1_455
Mg1 Mg12 3.157280 1_455
Mg1 Mg13 3.157280 1_455
Mg1 Mg3 3.162529 1_455
Mg1 Mg5 3.162529 1_455
Mg1 Mg3 3.165757 1_565
Mg1 Mg5 3.165757 1_555
Mg1 Mg8 3.183609 1_555
Mg1 Mg9 3.183609 1_555
Mg1 Mg6 3.183616 1_565
Mg1 Mg7 3.183616 1_565
Mg2 Mg4 3.140936 1_545
Mg2 Sb0 3.154057 1_655
Mg2 Mg7 3.159671 1_554
Mg2 Mg6 3.159671 1_555
Mg2 Mg4 3.168273 1_555
Mg2 Sb0 3.174287 1_545
Mg3 Mg5 3.149198 1_555
Mg3 Mg5 3.160010 1_545
Mg3 Mg6 3.178139 1_555
Mg3 Mg7 3.178139 1_555
Mg4 Sb0 3.154057 1_655
Mg4 Mg9 3.159671 1_554
Mg4 Mg8 3.159671 1_555
Mg4 Sb0 3.174288 1_555
Mg5 Mg8 3.178139 1_555
Mg5 Mg9 3.178139 1_555
Mg6 Mg8 3.112077 1_555
Mg6 Sb0 3.163217 1_545
Mg6 Mg8 3.197131 1_545
Mg7 Mg9 3.112077 1_555
Mg7 Sb0 3.163217 1_546
Mg7 Mg9 3.197131 1_545
Mg8 Sb0 3.163211 1_555
Mg9 Sb0 3.163211 1_556
Mg10 Mg8 3.136120 1_655
Mg10 Mg6 3.136120 1_655
Mg10 Mg2 3.148951 1_555
Mg10 Mg4 3.148957 1_545
Mg10 Mg12 3.154874 1_545
Mg10 Mg12 3.154874 1_555
Mg10 Mg3 3.181556 1_555
Mg10 Mg5 3.181563 1_545
Mg10 Mg8 3.192188 1_545
Mg10 Mg6 3.192188 1_555
Mg11 Mg9 3.136120 1_655
Mg11 Mg7 3.136120 1_655
Mg11 Mg2 3.148951 1_556
Mg11 Mg4 3.148957 1_546
Mg11 Mg13 3.154874 1_545
Mg11 Mg13 3.154874 1_555
Mg11 Mg3 3.181556 1_555
Mg11 Mg5 3.181563 1_545
Mg11 Mg9 3.192188 1_545
Mg11 Mg7 3.192188 1_555
Mg12 Mg5 3.145328 1_555
Mg12 Mg3 3.145334 1_555
Mg12 Mg6 3.148191 1_555
Mg12 Mg8 3.148191 1_555
Mg12 Mg4 3.173988 1_555
Mg12 Mg2 3.173994 1_555
Mg12 Sb0 3.178540 1_655
Mg12 Mg6 3.180449 1_665
Mg12 Mg8 3.180449 1_655
Mg13 Mg5 3.145328 1_555
Mg13 Mg3 3.145334 1_555
Mg13 Mg7 3.148191 1_555
Mg13 Mg9 3.148191 1_555
Mg13 Mg4 3.173988 1_556
Mg13 Mg2 3.173994 1_556
Mg13 Sb0 3.178540 1_656
Mg13 Mg7 3.180449 1_665
Mg13 Mg9 3.180449 1_655
Cr0 Mg11 3.137963 1_454
Cr0 Mg10 3.137963 1_455
Cr0 Mg7 3.141659 1_554
Cr0 Mg6 3.141659 1_555
Cr0 Mg9 3.141665 1_554
Cr0 Mg8 3.141665 1_555
Cr0 Mg4 3.148028 1_445
Cr0 Mg2 3.148028 1_455
Cr0 Sb0 3.154604 1_545
Cr0 Sb0 3.154604 1_555
Cr0 Mg4 3.180257 1_555
Cr0 Mg2 3.180258 1_555
