# generated using pymatgen
data_CuH12(NO6)2
_symmetry_space_group_name_H-M   'P 1'
_cell_length_a   5.89870800
_cell_length_b   7.65918335
_cell_length_c   11.47212073
_cell_angle_alpha   106.11378783
_cell_angle_beta   96.02648518
_cell_angle_gamma   100.26101365
_symmetry_Int_Tables_number   1
_chemical_formula_structural   CuH12(NO6)2
_chemical_formula_sum   'Cu2 H24 N4 O24'
_cell_volume   483.39381226
_cell_formula_units_Z   2
loop_
 _symmetry_equiv_pos_site_id
 _symmetry_equiv_pos_as_xyz
  1  'x, y, z'
loop_
 _atom_site_type_symbol
 _atom_site_label
 _atom_site_symmetry_multiplicity
 _atom_site_fract_x
 _atom_site_fract_y
 _atom_site_fract_z
 _atom_site_occupancy
  Cu  Cu0  1  0.82863200  0.85488900  0.76948300  1
  Cu  Cu1  1  0.17136800  0.14511100  0.23051700  1
  H  H0  1  0.76935400  0.05984100  0.98401700  1
  H  H1  1  0.23064600  0.94015900  0.01598300  1
  H  H2  1  0.83557400  0.18767600  0.89725500  1
  H  H3  1  0.16442600  0.81232400  0.10274500  1
  H  H4  1  0.37539700  0.62110000  0.66624500  1
  H  H5  1  0.62460300  0.37890000  0.33375500  1
  H  H6  1  0.40167600  0.77960200  0.60404800  1
  H  H7  1  0.59832400  0.22039800  0.39595200  1
  H  H8  1  0.80370300  0.51464500  0.62686300  1
  H  H9  1  0.19629700  0.48535500  0.37313700  1
  H  H10  1  0.84893800  0.65672000  0.55248600  1
  H  H11  1  0.15106200  0.34328000  0.44751400  1
  H  H12  1  0.30461000  0.90033200  0.81008700  1
  H  H13  1  0.69539000  0.09966800  0.18991300  1
  H  H14  1  0.25425100  0.09971700  0.86943500  1
  H  H15  1  0.74574900  0.90028300  0.13056500  1
  H  H16  1  0.60665000  0.65101700  0.88309400  1
  H  H17  1  0.39335000  0.34898300  0.11690600  1
  H  H18  1  0.85280700  0.58559100  0.86780700  1
  H  H19  1  0.14719300  0.41440900  0.13219300  1
  H  H20  1  0.03800600  0.05137200  0.64444900  1
  H  H21  1  0.96199400  0.94862800  0.35555100  1
  H  H22  1  0.78475000  0.10098300  0.64262900  1
  H  H23  1  0.21525000  0.89901700  0.35737100  1
  N  N0  1  0.20691000  0.44739100  0.87280300  1
  N  N1  1  0.79309000  0.55260900  0.12719700  1
  N  N2  1  0.41723900  0.23826600  0.60976400  1
  N  N3  1  0.58276100  0.76173400  0.39023600  1
  O  O0  1  0.74671200  0.06547200  0.89722100  1
  O  O1  1  0.25328800  0.93452800  0.10277900  1
  O  O2  1  0.43355200  0.75568800  0.68272500  1
  O  O3  1  0.56644800  0.24431200  0.31727500  1
  O  O4  1  0.89748800  0.63858400  0.63262600  1
  O  O5  1  0.10251200  0.36141600  0.36737400  1
  O  O6  1  0.20908400  0.96694400  0.86536500  1
  O  O7  1  0.79091600  0.03305600  0.13463500  1
  O  O8  1  0.77403800  0.69306500  0.87752600  1
  O  O9  1  0.22596200  0.30693500  0.12247400  1
  O  O10  1  0.87178100  0.00324400  0.64818100  1
  O  O11  1  0.12821900  0.99675600  0.35181900  1
  O  O12  1  0.33423700  0.33285900  0.87564300  1
  O  O13  1  0.66576300  0.66714100  0.12435700  1
  O  O14  1  0.29651100  0.61239100  0.87885300  1
  O  O15  1  0.70348900  0.38760900  0.12114700  1
  O  O16  1  0.98394800  0.39837800  0.86325200  1
  O  O17  1  0.01605200  0.60162200  0.13674800  1
  O  O18  1  0.33783900  0.08716100  0.62881200  1
  O  O19  1  0.66216100  0.91283900  0.37118800  1
  O  O20  1  0.63121700  0.27533900  0.59509700  1
  O  O21  1  0.36878300  0.72466100  0.40490300  1
  O  O22  1  0.28790200  0.35232400  0.60426000  1
  O  O23  1  0.71209800  0.64767600  0.39574000  1
loop_
_geom_bond_atom_site_label_1
_geom_bond_atom_site_label_2
_geom_bond_distance
_geom_bond_site_symmetry_2
Cu0 O8 1.992640 1_555
Cu0 O0 2.024045 1_565
Cu0 O10 2.035068 1_565
Cu0 O4 2.074725 1_555
Cu0 O6 2.292225 1_655
Cu0 O2 2.336946 1_555
Cu1 O9 1.992640 1_555
Cu1 O1 2.024045 1_545
Cu1 O11 2.035068 1_545
Cu1 O5 2.074725 1_555
Cu1 O7 2.292225 1_455
Cu1 O3 2.336946 1_555
H0 O0 1.004565 1_555
H1 O1 1.004565 1_555
H2 O0 0.987818 1_555
H3 O1 0.987818 1_555
H4 O2 0.984001 1_555
H5 O3 0.984001 1_555
H6 O2 0.975693 1_555
H7 O3 0.975693 1_555
H8 O4 0.990919 1_555
H9 O5 0.990919 1_555
H10 O4 0.988098 1_555
H11 O5 0.988098 1_555
H12 O6 0.988847 1_555
H13 O7 0.988847 1_555
H14 O6 0.990869 1_545
H15 O7 0.990869 1_565
H16 O8 0.997035 1_555
H17 O9 0.997035 1_555
H18 O8 1.001053 1_555
H19 O9 1.001053 1_555
H20 O10 0.993945 1_455
H21 O11 0.993945 1_655
H22 O10 0.992233 1_555
H23 O11 0.992233 1_555
N0 O12 1.257032 1_555
N0 O14 1.259726 1_555
N0 O16 1.285948 1_455
N1 O13 1.257032 1_555
N1 O15 1.259726 1_555
N1 O17 1.285948 1_655
N2 O18 1.255113 1_555
N2 O22 1.267732 1_555
N2 O20 1.282771 1_555
N3 O19 1.255113 1_555
N3 O23 1.267732 1_555
N3 O21 1.282771 1_555
