# generated using pymatgen
data_CsYb2Cu3Se5
_symmetry_space_group_name_H-M   'P 1'
_cell_length_a   7.64306137
_cell_length_b   7.64306137
_cell_length_c   17.55196600
_cell_angle_alpha   90.00000000
_cell_angle_beta   90.00000000
_cell_angle_gamma   148.47639928
_symmetry_Int_Tables_number   1
_chemical_formula_structural   CsYb2Cu3Se5
_chemical_formula_sum   'Cs2 Yb4 Cu6 Se10'
_cell_volume   536.08956271
_cell_formula_units_Z   2
loop_
 _symmetry_equiv_pos_site_id
 _symmetry_equiv_pos_as_xyz
  1  'x, y, z'
loop_
 _atom_site_type_symbol
 _atom_site_label
 _atom_site_symmetry_multiplicity
 _atom_site_fract_x
 _atom_site_fract_y
 _atom_site_fract_z
 _atom_site_occupancy
  Cs  Cs0  1  0.06046200  0.93953800  0.25000000  1
  Cs  Cs1  1  0.93953800  0.06046200  0.75000000  1
  Yb  Yb0  1  0.80406300  0.19593700  0.08918200  1
  Yb  Yb1  1  0.19593700  0.80406300  0.91081800  1
  Yb  Yb2  1  0.80406300  0.19593700  0.41081800  1
  Yb  Yb3  1  0.19593700  0.80406300  0.58918200  1
  Cu  Cu0  1  0.34588500  0.65411500  0.25000000  1
  Cu  Cu1  1  0.65411500  0.34588500  0.75000000  1
  Cu  Cu2  1  0.58491400  0.41508600  0.46782200  1
  Cu  Cu3  1  0.41508600  0.58491400  0.53217800  1
  Cu  Cu4  1  0.58491400  0.41508600  0.03217800  1
  Cu  Cu5  1  0.41508600  0.58491400  0.96782200  1
  Se  Se0  1  0.77448400  0.22551600  0.25000000  1
  Se  Se1  1  0.22551600  0.77448400  0.75000000  1
  Se  Se2  1  0.56000400  0.43999600  0.89320200  1
  Se  Se3  1  0.43999600  0.56000400  0.10679800  1
  Se  Se4  1  0.56000400  0.43999600  0.60679800  1
  Se  Se5  1  0.43999600  0.56000400  0.39320200  1
  Se  Se6  1  0.83869200  0.16130800  0.92917900  1
  Se  Se7  1  0.16130800  0.83869200  0.07082100  1
  Se  Se8  1  0.83869200  0.16130800  0.57082100  1
  Se  Se9  1  0.16130800  0.83869200  0.42917900  1
loop_
_geom_bond_atom_site_label_1
_geom_bond_atom_site_label_2
_geom_bond_distance
_geom_bond_site_symmetry_2
Cs0 Se9 3.477310 1_555
Cs0 Se7 3.477310 1_555
Cs0 Se5 3.710623 1_455
Cs0 Se5 3.710623 1_565
Cs0 Se3 3.710623 1_455
Cs0 Se3 3.710623 1_565
Cs0 Se0 3.771444 1_565
Cs0 Se0 3.771444 1_455
Cs0 Cu0 3.778263 1_565
Cs0 Cu0 3.778263 1_455
Cs1 Se8 3.477310 1_555
Cs1 Se6 3.477310 1_555
Cs1 Se4 3.710623 1_545
Cs1 Se2 3.710623 1_545
Cs1 Se4 3.710623 1_655
Cs1 Se2 3.710623 1_655
Cs1 Se1 3.771444 1_545
Cs1 Se1 3.771444 1_655
Cs1 Cu1 3.778263 1_655
Cs1 Cu1 3.778263 1_545
Cu0 Se0 2.326748 1_565
Cu0 Se0 2.326748 1_455
Cu0 Se5 2.869565 1_555
Cu0 Se3 2.869565 1_555
Cu1 Se1 2.326748 1_545
Cu1 Se1 2.326748 1_655
Cu1 Se4 2.869565 1_555
Cu1 Se2 2.869565 1_555
Cu2 Se9 2.456318 1_655
Cu2 Se9 2.456318 1_545
Cu2 Se4 2.466675 1_555
Cu2 Se5 2.502110 1_555
Cu3 Se8 2.456318 1_565
Cu3 Se8 2.456318 1_455
Cu3 Se5 2.466675 1_555
Cu3 Se4 2.502110 1_555
Cu4 Se7 2.456318 1_545
Cu4 Se7 2.456318 1_655
Cu4 Se2 2.466675 1_554
Cu4 Se3 2.502110 1_555
Cu5 Se6 2.456318 1_565
Cu5 Se6 2.456318 1_455
Cu5 Se3 2.466675 1_556
Cu5 Se2 2.502110 1_555
Se0 Yb0 2.856017 1_555
Se0 Yb2 2.856017 1_555
Se1 Yb3 2.856017 1_555
Se1 Yb1 2.856017 1_555
Se2 Yb1 2.899144 1_545
Se2 Yb1 2.899144 1_655
Se3 Yb0 2.899144 1_565
Se3 Yb0 2.899144 1_455
Se4 Yb3 2.899144 1_545
Se4 Yb3 2.899144 1_655
Se5 Yb2 2.899144 1_565
Se5 Yb2 2.899144 1_455
Se6 Yb0 2.854200 1_556
Se6 Yb1 2.970650 1_545
Se6 Yb1 2.970650 1_655
Se7 Yb1 2.854200 1_554
Se7 Yb0 2.970650 1_455
Se7 Yb0 2.970650 1_565
Se8 Yb2 2.854200 1_555
Se8 Yb3 2.970650 1_545
Se8 Yb3 2.970650 1_655
Se9 Yb3 2.854200 1_555
Se9 Yb2 2.970650 1_565
Se9 Yb2 2.970650 1_455
