# generated using pymatgen
data_NiTe6O13
_symmetry_space_group_name_H-M   'P 1'
_cell_length_a   8.61048163
_cell_length_b   8.61048185
_cell_length_c   8.61048245
_cell_angle_alpha   72.09429670
_cell_angle_beta   72.09429597
_cell_angle_gamma   72.09429379
_symmetry_Int_Tables_number   1
_chemical_formula_structural   NiTe6O13
_chemical_formula_sum   'Ni2 Te12 O26'
_cell_volume   561.83119586
_cell_formula_units_Z   2
loop_
 _symmetry_equiv_pos_site_id
 _symmetry_equiv_pos_as_xyz
  1  'x, y, z'
loop_
 _atom_site_type_symbol
 _atom_site_label
 _atom_site_symmetry_multiplicity
 _atom_site_fract_x
 _atom_site_fract_y
 _atom_site_fract_z
 _atom_site_occupancy
  Ni  Ni0  1  0.75697375  0.75697375  0.75697375  1
  Ni  Ni1  1  0.24302625  0.24302625  0.24302625  1
  Te  Te0  1  0.83326262  0.51343241  0.43821468  1
  Te  Te1  1  0.43821468  0.83326262  0.51343241  1
  Te  Te2  1  0.51343241  0.43821468  0.83326262  1
  Te  Te3  1  0.16673738  0.48656759  0.56178532  1
  Te  Te4  1  0.56178532  0.16673738  0.48656759  1
  Te  Te5  1  0.48656759  0.56178532  0.16673738  1
  Te  Te6  1  0.97377017  0.07948836  0.67454812  1
  Te  Te7  1  0.67454812  0.97377017  0.07948836  1
  Te  Te8  1  0.07948836  0.67454812  0.97377017  1
  Te  Te9  1  0.02622983  0.92051164  0.32545188  1
  Te  Te10  1  0.32545188  0.02622983  0.92051164  1
  Te  Te11  1  0.92051164  0.32545188  0.02622983  1
  O  O0  1  0.89647469  0.58234560  0.60115756  1
  O  O1  1  0.60115756  0.89647469  0.58234560  1
  O  O2  1  0.58234560  0.60115756  0.89647469  1
  O  O3  1  0.10352531  0.41765440  0.39884244  1
  O  O4  1  0.39884244  0.10352531  0.41765440  1
  O  O5  1  0.41765440  0.39884244  0.10352531  1
  O  O6  1  0.86796383  0.95107019  0.61825580  1
  O  O7  1  0.61825580  0.86796383  0.95107019  1
  O  O8  1  0.95107019  0.61825580  0.86796383  1
  O  O9  1  0.13203617  0.04892981  0.38174420  1
  O  O10  1  0.38174420  0.13203617  0.04892981  1
  O  O11  1  0.04892981  0.38174420  0.13203617  1
  O  O12  1  0.58650915  0.58650915  0.58650915  1
  O  O13  1  0.41349085  0.41349085  0.41349085  1
  O  O14  1  0.80276548  0.29895416  0.55305900  1
  O  O15  1  0.55305900  0.80276548  0.29895416  1
  O  O16  1  0.29895416  0.55305900  0.80276548  1
  O  O17  1  0.19723452  0.70104584  0.44694100  1
  O  O18  1  0.44694100  0.19723452  0.70104584  1
  O  O19  1  0.70104584  0.44694100  0.19723452  1
  O  O20  1  0.11364178  0.87405543  0.80176822  1
  O  O21  1  0.80176822  0.11364178  0.87405543  1
  O  O22  1  0.87405543  0.80176822  0.11364178  1
  O  O23  1  0.88635822  0.12594457  0.19823178  1
  O  O24  1  0.19823178  0.88635822  0.12594457  1
  O  O25  1  0.12594457  0.19823178  0.88635822  1
loop_
_geom_bond_atom_site_label_1
_geom_bond_atom_site_label_2
_geom_bond_distance
_geom_bond_site_symmetry_2
Ni0 O8 2.045933 1_555
Ni0 O6 2.045933 1_555
Ni0 O7 2.045933 1_555
Ni0 O0 2.154691 1_555
Ni0 O2 2.154691 1_555
Ni0 O1 2.154691 1_555
Ni1 O11 2.045933 1_555
Ni1 O9 2.045933 1_555
Ni1 O10 2.045933 1_555
Ni1 O3 2.154691 1_555
Ni1 O5 2.154691 1_555
Ni1 O4 2.154691 1_555
O0 Te0 1.948557 1_555
O0 Te3 2.171896 1_655
O1 Te1 1.948557 1_555
O1 Te4 2.171896 1_565
O2 Te2 1.948557 1_555
O2 Te5 2.171896 1_556
O3 Te3 1.948557 1_555
O3 Te0 2.171896 1_455
O4 Te4 1.948557 1_555
O4 Te1 2.171896 1_545
O5 Te5 1.948557 1_555
O5 Te2 2.171896 1_554
O6 Te6 1.873003 1_565
O6 Te9 2.521401 1_655
O7 Te7 1.873003 1_556
O7 Te10 2.521401 1_565
O8 Te8 1.873003 1_655
O8 Te11 2.521401 1_556
O9 Te9 1.873003 1_545
O9 Te6 2.521401 1_455
O10 Te10 1.873003 1_554
O10 Te7 2.521401 1_545
O11 Te11 1.873003 1_455
O11 Te8 2.521401 1_554
O12 Te1 2.131748 1_555
O12 Te0 2.131748 1_555
O12 Te2 2.131748 1_555
O13 Te4 2.131748 1_555
O13 Te3 2.131748 1_555
O13 Te5 2.131748 1_555
O14 Te0 1.863579 1_555
O14 Te6 2.203175 1_555
O15 Te1 1.863579 1_555
O15 Te7 2.203175 1_555
O16 Te2 1.863579 1_555
O16 Te8 2.203175 1_555
O17 Te3 1.863579 1_555
O17 Te9 2.203175 1_555
O18 Te4 1.863579 1_555
O18 Te10 2.203175 1_555
O19 Te5 1.863579 1_555
O19 Te11 2.203175 1_555
O20 Te8 1.925962 1_555
O20 Te6 2.022166 1_465
O21 Te6 1.925962 1_555
O21 Te7 2.022166 1_546
O22 Te7 1.925962 1_555
O22 Te8 2.022166 1_654
O23 Te11 1.925962 1_555
O23 Te9 2.022166 1_645
O24 Te9 1.925962 1_555
O24 Te10 2.022166 1_564
O25 Te10 1.925962 1_555
O25 Te11 2.022166 1_456
