# generated using pymatgen
data_Cs3TaS4
_symmetry_space_group_name_H-M   'P 1'
_cell_length_a   10.02699466
_cell_length_b   10.09965328
_cell_length_c   11.68712578
_cell_angle_alpha   90.00000000
_cell_angle_beta   90.00000000
_cell_angle_gamma   90.00000000
_symmetry_Int_Tables_number   1
_chemical_formula_structural   Cs3TaS4
_chemical_formula_sum   'Cs12 Ta4 S16'
_cell_volume   1183.54552166
_cell_formula_units_Z   4
loop_
 _symmetry_equiv_pos_site_id
 _symmetry_equiv_pos_as_xyz
  1  'x, y, z'
loop_
 _atom_site_type_symbol
 _atom_site_label
 _atom_site_symmetry_multiplicity
 _atom_site_fract_x
 _atom_site_fract_y
 _atom_site_fract_z
 _atom_site_occupancy
  Cs  Cs0  1  0.95003216  0.70995499  0.95918872  1
  Cs  Cs1  1  0.45003216  0.79004501  0.95918872  1
  Cs  Cs2  1  0.54996784  0.20995499  0.45918872  1
  Cs  Cs3  1  0.04996784  0.29004501  0.04081128  1
  Cs  Cs4  1  0.14604975  0.08138448  0.75000000  1
  Cs  Cs5  1  0.64604975  0.41861552  0.75000000  1
  Cs  Cs6  1  0.35395025  0.58138448  0.25000000  1
  Cs  Cs7  1  0.85395025  0.91861552  0.25000000  1
  Cs  Cs8  1  0.04996784  0.29004501  0.45918872  1
  Cs  Cs9  1  0.45003216  0.79004501  0.54081128  1
  Cs  Cs10  1  0.54996784  0.20995499  0.04081128  1
  Cs  Cs11  1  0.95003216  0.70995499  0.54081128  1
  Ta  Ta0  1  0.77869041  0.48518783  0.25000000  1
  Ta  Ta1  1  0.27869041  0.01481217  0.25000000  1
  Ta  Ta2  1  0.72130959  0.98518783  0.75000000  1
  Ta  Ta3  1  0.22130959  0.51481217  0.75000000  1
  S  S0  1  0.20445725  0.73961724  0.75000000  1
  S  S1  1  0.70445725  0.76038276  0.75000000  1
  S  S2  1  0.29554275  0.23961724  0.25000000  1
  S  S3  1  0.79554275  0.26038276  0.25000000  1
  S  S4  1  0.01187706  0.42612072  0.75000000  1
  S  S5  1  0.51187706  0.07387928  0.75000000  1
  S  S6  1  0.48812294  0.92612072  0.25000000  1
  S  S7  1  0.98812294  0.57387928  0.25000000  1
  S  S8  1  0.66784274  0.54851746  0.41086889  1
  S  S9  1  0.16784274  0.95148254  0.08913111  1
  S  S10  1  0.83215726  0.04851746  0.58913111  1
  S  S11  1  0.33215726  0.45148254  0.91086889  1
  S  S12  1  0.33215726  0.45148254  0.58913111  1
  S  S13  1  0.66784274  0.54851746  0.08913111  1
  S  S14  1  0.16784274  0.95148254  0.41086889  1
  S  S15  1  0.83215726  0.04851746  0.91086889  1
loop_
_geom_bond_atom_site_label_1
_geom_bond_atom_site_label_2
_geom_bond_distance
_geom_bond_site_symmetry_2
Cs0 S1 3.507109 1_555
Cs0 S0 3.546135 1_655
Cs0 S13 3.601507 1_556
Cs0 S9 3.609225 1_656
Cs0 S15 3.661682 1_565
Cs0 S7 3.685934 1_556
Cs0 S4 3.818275 1_655
Cs1 S0 3.507109 1_555
Cs1 S1 3.546135 1_555
Cs1 S9 3.601507 1_556
Cs1 S13 3.609225 1_556
Cs1 S11 3.661682 1_555
Cs1 S6 3.685934 1_556
Cs1 S5 3.818275 1_565
Cs2 S3 3.507109 1_555
Cs2 S2 3.546135 1_555
Cs2 S10 3.601507 1_555
Cs2 S12 3.609225 1_555
Cs2 S8 3.661682 1_555
Cs2 S5 3.685934 1_555
Cs2 S6 3.818275 1_545
Cs3 S2 3.507109 1_555
Cs3 S3 3.546135 1_455
Cs3 S11 3.601507 1_554
Cs3 S15 3.609225 1_454
Cs3 S9 3.661682 1_545
Cs3 S4 3.685934 1_554
Cs3 S7 3.818275 1_455
Cs4 S0 3.501062 1_545
Cs4 S5 3.668932 1_555
Cs4 S10 3.681177 1_455
Cs4 S15 3.681177 1_455
Cs4 S4 3.732601 1_555
Cs5 S1 3.501062 1_555
Cs5 S4 3.668932 1_655
Cs5 S12 3.681177 1_555
Cs5 S11 3.681177 1_555
Cs5 S5 3.732601 1_555
Cs6 S2 3.501062 1_555
Cs6 S7 3.668932 1_455
Cs6 S8 3.681177 1_555
Cs6 S13 3.681177 1_555
Cs6 S6 3.732601 1_555
Cs7 S3 3.501062 1_565
Cs7 S6 3.668932 1_555
Cs7 S9 3.681177 1_655
Cs7 S14 3.681177 1_655
Cs7 S7 3.732601 1_555
Cs8 S2 3.507109 1_555
Cs8 S3 3.546135 1_455
Cs8 S12 3.601507 1_555
Cs8 S10 3.609225 1_455
Cs8 S14 3.661682 1_545
Cs8 S4 3.685934 1_555
Cs8 S7 3.818275 1_455
Cs9 S0 3.507109 1_555
Cs9 S1 3.546135 1_555
Cs9 S14 3.601507 1_555
Cs9 S8 3.609225 1_555
Cs9 S12 3.661682 1_555
Cs9 S6 3.685934 1_555
Cs9 S5 3.818275 1_565
Cs10 S3 3.507109 1_555
Cs10 S2 3.546135 1_555
Cs10 S15 3.601507 1_554
Cs10 S11 3.609225 1_554
Cs10 S13 3.661682 1_555
Cs10 S5 3.685934 1_554
Cs10 S6 3.818275 1_545
Cs11 S1 3.507109 1_555
Cs11 S0 3.546135 1_655
Cs11 S8 3.601507 1_555
Cs11 S14 3.609225 1_655
Cs11 S10 3.661682 1_565
Cs11 S7 3.685934 1_555
Cs11 S4 3.818275 1_655
S0 Ta3 2.276733 1_555
S1 Ta2 2.276733 1_555
S2 Ta1 2.276733 1_555
S3 Ta0 2.276733 1_555
S4 Ta3 2.283043 1_555
S5 Ta2 2.283043 1_545
S6 Ta1 2.283043 1_565
S7 Ta0 2.283043 1_555
S8 Ta0 2.275790 1_555
S9 Ta1 2.275790 1_565
S10 Ta2 2.275790 1_545
S11 Ta3 2.275790 1_555
S12 Ta3 2.275790 1_555
S13 Ta0 2.275790 1_555
S14 Ta1 2.275790 1_565
S15 Ta2 2.275790 1_545
