# generated using pymatgen
data_Pu2(SiPt)3
_symmetry_space_group_name_H-M   'P 1'
_cell_length_a   4.93786300
_cell_length_b   4.93786300
_cell_length_c   19.80820100
_cell_angle_alpha   90.00000000
_cell_angle_beta   90.00000000
_cell_angle_gamma   90.00000000
_symmetry_Int_Tables_number   1
_chemical_formula_structural   Pu2(SiPt)3
_chemical_formula_sum   'Pu2 Si3 Pt3'
_cell_volume   482.97328274
_cell_formula_units_Z   1
loop_
 _symmetry_equiv_pos_site_id
 _symmetry_equiv_pos_as_xyz
  1  'x, y, z'
loop_
 _atom_site_type_symbol
 _atom_site_label
 _atom_site_symmetry_multiplicity
 _atom_site_fract_x
 _atom_site_fract_y
 _atom_site_fract_z
 _atom_site_occupancy
  Pu  Pu0  1  0.50000000  0.50000000  0.75736000  1
  Pu  Pu1  1  0.50000000  0.50000000  0.24264000  1
  Si  Si0  1  0.50000000  0.50000000  0.38563800  1
  Si  Si1  1  0.50000000  0.50000000  0.61436200  1
  Si  Si2  1  0.50000000  0.50000000  0.00000000  1
  Pt  Pt0  1  0.50000000  0.50000000  0.11524300  1
  Pt  Pt1  1  0.50000000  0.50000000  0.88475700  1
  Pt  Pt2  1  0.50000000  0.50000000  0.50000000  1
loop_
_geom_bond_atom_site_label_1
_geom_bond_atom_site_label_2
_geom_bond_distance
_geom_bond_site_symmetry_2
Pu0 Si1 2.832533 1_555
Pu1 Si0 2.832533 1_555
Pt0 Si2 2.282757 1_555
Pt0 Pu1 2.523505 1_555
Pt1 Si2 2.282757 1_556
Pt1 Pu0 2.523505 1_555
Pt2 Si1 2.265305 1_555
Pt2 Si0 2.265305 1_555
