# generated using pymatgen
data_K4BaTi6S20O
_symmetry_space_group_name_H-M   'P 1'
_cell_length_a   18.18980979
_cell_length_b   17.37254339
_cell_length_c   9.66030243
_cell_angle_alpha   78.96298194
_cell_angle_beta   69.62020169
_cell_angle_gamma   31.41681636
_symmetry_Int_Tables_number   1
_chemical_formula_structural   K4BaTi6S20O
_chemical_formula_sum   'K8 Ba2 Ti12 S40 O2'
_cell_volume   1456.29141039
_cell_formula_units_Z   2
loop_
 _symmetry_equiv_pos_site_id
 _symmetry_equiv_pos_as_xyz
  1  'x, y, z'
loop_
 _atom_site_type_symbol
 _atom_site_label
 _atom_site_symmetry_multiplicity
 _atom_site_fract_x
 _atom_site_fract_y
 _atom_site_fract_z
 _atom_site_occupancy
  K  K0  1  0.29416800  0.29416800  0.70583200  1
  K  K1  1  0.95565200  0.95565200  0.04434800  1
  K  K2  1  0.20565200  0.20565200  0.29434800  1
  K  K3  1  0.54416800  0.54416800  0.95583200  1
  K  K4  1  0.12542200  0.12542200  0.87457800  1
  K  K5  1  0.37542200  0.37542200  0.12457800  1
  K  K6  1  0.45719000  0.45719000  0.54281000  1
  K  K7  1  0.70719000  0.70719000  0.79281000  1
  Ba  Ba0  1  0.79223600  0.79223600  0.20776400  1
  Ba  Ba1  1  0.04223600  0.04223600  0.45776400  1
  Ti  Ti0  1  0.77266600  0.47748000  0.52358900  1
  Ti  Ti1  1  0.47748000  0.77266600  0.22626500  1
  Ti  Ti2  1  0.72641100  0.02373500  0.47733400  1
  Ti  Ti3  1  0.02373500  0.72641100  0.77252000  1
  Ti  Ti4  1  0.53065100  0.81830600  0.46778100  1
  Ti  Ti5  1  0.43325000  0.71723700  0.56904200  1
  Ti  Ti6  1  0.71723700  0.43325000  0.28047100  1
  Ti  Ti7  1  0.81830600  0.53065100  0.18326200  1
  Ti  Ti8  1  0.96952900  0.68095800  0.53276300  1
  Ti  Ti9  1  0.06673800  0.78221900  0.43169400  1
  Ti  Ti10  1  0.78221900  0.06673800  0.71934900  1
  Ti  Ti11  1  0.68095800  0.96952900  0.81675000  1
  S  S0  1  0.30452300  0.95046100  0.46773700  1
  S  S1  1  0.52448600  0.71973800  0.69894200  1
  S  S2  1  0.71973800  0.52448600  0.05683400  1
  S  S3  1  0.95046100  0.30452300  0.27728000  1
  S  S4  1  0.19316600  0.55105800  0.53026200  1
  S  S5  1  0.97272000  0.78226300  0.29953900  1
  S  S6  1  0.78226300  0.97272000  0.94547700  1
  S  S7  1  0.55105800  0.19316600  0.72551400  1
  S  S8  1  0.44708800  0.02387800  0.45086800  1
  S  S9  1  0.32812900  0.70086200  0.76981500  1
  S  S10  1  0.70086200  0.32812900  0.20119400  1
  S  S11  1  0.02387800  0.44708800  0.07816600  1
  S  S12  1  0.04880600  0.48018500  0.54913800  1
  S  S13  1  0.17183400  0.79913200  0.22612200  1
  S  S14  1  0.79913200  0.17183400  0.80291200  1
  S  S15  1  0.48018500  0.04880600  0.92187100  1
  S  S16  1  0.94022200  0.37284500  0.62926500  1
  S  S17  1  0.30598000  0.88078400  0.12108000  1
  S  S18  1  0.88078400  0.30598000  0.69215500  1
  S  S19  1  0.37284500  0.94022200  0.05766900  1
  S  S20  1  0.55784500  0.12892000  0.36921600  1
  S  S21  1  0.19233100  0.62073500  0.87715500  1
  S  S22  1  0.62073500  0.19233100  0.30977800  1
  S  S23  1  0.12892000  0.55784500  0.94402000  1
  S  S24  1  0.60646600  0.79367800  0.18245600  1
  S  S25  1  0.67036800  0.43086400  0.54372100  1
  S  S26  1  0.43086400  0.67036800  0.35504700  1
  S  S27  1  0.79367800  0.60646600  0.41740000  1
  S  S28  1  0.89495300  0.70627900  0.81913600  1
  S  S29  1  0.83260000  0.06754400  0.45632200  1
  S  S30  1  0.06754400  0.83260000  0.64353400  1
  S  S31  1  0.70627900  0.89495300  0.57963200  1
  S  S32  1  0.41909900  0.98755100  0.66556900  1
  S  S33  1  0.17550500  0.91803800  0.74149800  1
  S  S34  1  0.91803800  0.17550500  0.16495900  1
  S  S35  1  0.98755100  0.41909900  0.92778000  1
  S  S36  1  0.08504100  0.50850200  0.33196200  1
  S  S37  1  0.32222000  0.58443100  0.26244900  1
  S  S38  1  0.58443100  0.32222000  0.83090100  1
  S  S39  1  0.50850200  0.08504100  0.07449500  1
  O  O0  1  0.62517600  0.62517600  0.37482400  1
  O  O1  1  0.87517600  0.87517600  0.62482400  1
loop_
_geom_bond_atom_site_label_1
_geom_bond_atom_site_label_2
_geom_bond_distance
_geom_bond_site_symmetry_2
K0 S15 3.296834 1_555
K0 S12 3.296834 1_555
K0 S20 3.321211 1_555
K0 S23 3.321217 1_555
K0 S7 3.383289 1_555
K0 S4 3.383289 1_555
K0 S35 3.634081 1_455
K0 S32 3.634082 1_545
K0 S11 3.635416 1_556
K0 S8 3.635416 1_555
K0 S28 3.730489 1_455
K0 S31 3.730489 1_545
K1 S14 3.266717 1_564
K1 S13 3.266717 1_655
K1 S22 3.316342 1_565
K1 S21 3.316346 1_654
K1 S5 3.367608 1_555
K1 S6 3.367613 1_554
K1 S34 3.619668 1_565
K1 S33 3.619668 1_654
K1 S10 3.650210 1_565
K1 S9 3.650210 1_654
K1 S29 3.736172 1_565
K1 S30 3.736172 1_654
K2 S11 3.266717 1_555
K2 S8 3.266717 1_555
K2 S19 3.316333 1_545
K2 S16 3.316339 1_455
K2 S3 3.367596 1_455
K2 S0 3.367600 1_545
K2 S36 3.619668 1_555
K2 S39 3.619668 1_555
K2 S12 3.650210 1_555
K2 S15 3.650210 1_554
K2 S24 3.736172 1_545
K2 S27 3.736172 1_455
K3 S10 3.296834 1_556
K3 S9 3.296834 1_555
K3 S17 3.321204 1_556
K3 S18 3.321207 1_555
K3 S1 3.383289 1_555
K3 S2 3.383289 1_556
K3 S38 3.634066 1_555
K3 S37 3.634070 1_556
K3 S14 3.635416 1_555
K3 S13 3.635416 1_556
K3 S25 3.730489 1_555
K3 S26 3.730489 1_556
K4 S34 3.289152 1_456
K4 S33 3.289152 1_545
K4 S35 3.294102 1_455
K4 S32 3.294104 1_545
K4 S17 3.502543 1_546
K4 S18 3.502550 1_455
K4 S16 3.519345 1_455
K4 S19 3.519353 1_546
K4 S2 3.731478 1_456
K4 S1 3.731478 1_545
K4 S0 3.748839 1_545
K4 S3 3.748847 1_456
K5 S36 3.289152 1_555
K5 S39 3.289152 1_555
K5 S38 3.294113 1_554
K5 S37 3.294118 1_555
K5 S23 3.502538 1_554
K5 S20 3.502545 1_555
K5 S22 3.519340 1_555
K5 S21 3.519348 1_554
K5 S4 3.731478 1_555
K5 S7 3.731478 1_554
K5 S5 3.748842 1_455
K5 S6 3.748843 1_544
K6 S21 3.320858 1_555
K6 S22 3.320865 1_555
K6 S9 3.353671 1_555
K6 S10 3.353671 1_555
K6 S37 3.365282 1_555
K6 S38 3.365291 1_555
K6 S25 3.498694 1_555
K6 S26 3.498694 1_555
K6 S29 3.527956 1_555
K6 S30 3.527956 1_555
K6 S7 3.563872 1_555
K6 S4 3.563872 1_555
K7 S16 3.320851 1_555
K7 S19 3.320855 1_556
K7 S15 3.353671 1_565
K7 S12 3.353671 1_655
K7 S35 3.365284 1_555
K7 S32 3.365290 1_555
K7 S28 3.498694 1_555
K7 S31 3.498694 1_555
K7 S24 3.527956 1_556
K7 S27 3.527956 1_555
K7 S2 3.563872 1_556
K7 S1 3.563872 1_555
Ba0 S23 3.334636 1_654
Ba0 S20 3.334640 1_565
Ba0 S11 3.369408 1_655
Ba0 S8 3.369408 1_565
Ba0 S36 3.388334 1_655
Ba0 S39 3.388334 1_565
Ba0 S24 3.450713 1_555
Ba0 S27 3.450713 1_555
Ba0 S28 3.509180 1_554
Ba0 S31 3.509180 1_555
Ba0 S5 3.548446 1_555
Ba0 S6 3.548452 1_554
Ba1 S18 3.334627 1_455
Ba1 S17 3.334633 1_545
Ba1 S13 3.369408 1_545
Ba1 S14 3.369408 1_455
Ba1 S34 3.388334 1_455
Ba1 S33 3.388334 1_545
Ba1 S29 3.450713 1_455
Ba1 S30 3.450713 1_545
Ba1 S25 3.509180 1_455
Ba1 S26 3.509180 1_545
Ba1 S3 3.548460 1_455
Ba1 S0 3.548464 1_545
S0 Ti1 2.437482 1_555
S0 Ti4 2.464241 1_555
S0 Ti5 2.596514 1_555
S1 Ti5 2.434164 1_555
S1 Ti0 2.436644 1_555
S1 Ti4 2.573073 1_555
S2 Ti6 2.434164 1_555
S2 Ti1 2.436644 1_555
S2 Ti7 2.573073 1_555
S3 Ti0 2.437475 1_555
S3 Ti7 2.464245 1_555
S3 Ti6 2.596518 1_555
S4 Ti8 2.434164 1_455
S4 Ti3 2.436644 1_555
S4 Ti9 2.573073 1_555
S5 Ti2 2.437480 1_565
S5 Ti9 2.464257 1_655
S5 Ti8 2.596508 1_555
S6 Ti3 2.437476 1_655
S6 Ti10 2.464249 1_565
S6 Ti11 2.596501 1_555
S7 Ti11 2.434164 1_545
S7 Ti2 2.436644 1_555
S7 Ti10 2.573073 1_555
S8 Ti4 2.403281 1_545
S9 Ti5 2.373416 1_555
S10 S34 2.067152 1_555
S10 Ti6 2.373416 1_555
S11 S35 2.066658 1_454
S11 Ti7 2.403281 1_455
S12 S36 2.067152 1_555
S12 Ti8 2.373416 1_455
S13 S37 2.066647 1_555
S13 Ti9 2.403281 1_555
S14 S38 2.066644 1_555
S14 Ti10 2.403281 1_555
S15 S39 2.067152 1_556
S15 Ti11 2.373416 1_545
S16 S18 2.074425 1_555
S16 Ti0 2.374043 1_555
S17 S19 2.074425 1_555
S17 Ti1 2.401712 1_555
S18 Ti0 2.401705 1_555
S19 Ti1 2.374036 1_555
S20 S22 2.074392 1_555
S20 Ti2 2.401698 1_555
S21 S23 2.074392 1_555
S21 Ti3 2.374029 1_555
S22 Ti2 2.374036 1_555
S23 Ti3 2.401705 1_555
S24 Ti7 2.383858 1_555
S24 Ti4 2.545435 1_555
S24 Ti1 2.555038 1_555
S25 Ti6 2.388661 1_555
S25 Ti0 2.532951 1_555
S25 Ti5 2.553554 1_555
S26 Ti5 2.388661 1_555
S26 Ti1 2.532951 1_555
S26 Ti6 2.553554 1_555
S27 Ti4 2.383858 1_555
S27 Ti7 2.545435 1_555
S27 Ti0 2.555038 1_555
S28 Ti11 2.388661 1_555
S28 Ti3 2.532951 1_655
S28 Ti8 2.553554 1_555
S29 Ti10 2.383858 1_555
S29 Ti9 2.545435 1_645
S29 Ti2 2.555038 1_555
S30 Ti9 2.383858 1_555
S30 Ti10 2.545435 1_465
S30 Ti3 2.555038 1_555
S31 Ti8 2.388661 1_555
S31 Ti2 2.532951 1_565
S31 Ti11 2.553554 1_555
S32 S8 2.066650 1_565
S32 Ti4 2.383454 1_555
S33 S9 2.067152 1_555
S33 Ti5 2.407445 1_555
S34 Ti6 2.407445 1_555
S35 Ti7 2.383461 1_556
S36 Ti8 2.407445 1_455
S37 Ti9 2.383462 1_555
S38 Ti10 2.383465 1_555
S39 Ti11 2.407445 1_544
O0 Ti4 2.291681 1_555
O0 Ti7 2.291681 1_555
O0 Ti5 2.307151 1_555
O0 Ti6 2.307151 1_555
O0 Ti1 2.317487 1_555
O0 Ti0 2.317487 1_555
O1 Ti9 2.291681 1_655
O1 Ti10 2.291681 1_565
O1 Ti8 2.307151 1_555
O1 Ti11 2.307151 1_555
O1 Ti2 2.317487 1_565
O1 Ti3 2.317487 1_655
