# generated using pymatgen
data_ScH7(NO5)2
_symmetry_space_group_name_H-M   'P 1'
_cell_length_a   7.63873544
_cell_length_b   8.03440375
_cell_length_c   8.71856704
_cell_angle_alpha   68.04633817
_cell_angle_beta   90.83163175
_cell_angle_gamma   66.95110629
_symmetry_Int_Tables_number   1
_chemical_formula_structural   ScH7(NO5)2
_chemical_formula_sum   'Sc2 H14 N4 O20'
_cell_volume   448.47601233
_cell_formula_units_Z   2
loop_
 _symmetry_equiv_pos_site_id
 _symmetry_equiv_pos_as_xyz
  1  'x, y, z'
loop_
 _atom_site_type_symbol
 _atom_site_label
 _atom_site_symmetry_multiplicity
 _atom_site_fract_x
 _atom_site_fract_y
 _atom_site_fract_z
 _atom_site_occupancy
  Sc  Sc0  1  0.80815900  0.14665900  0.34184700  1
  Sc  Sc1  1  0.19184100  0.85334100  0.65815300  1
  H  H0  1  0.92997000  0.75053300  0.53998700  1
  H  H1  1  0.07003000  0.24946700  0.46001300  1
  H  H2  1  0.85507200  0.51469900  0.17895100  1
  H  H3  1  0.14492800  0.48530100  0.82104900  1
  H  H4  1  0.65806800  0.54160400  0.08753300  1
  H  H5  1  0.34193200  0.45839600  0.91246700  1
  H  H6  1  0.06705600  0.94540000  0.17543400  1
  H  H7  1  0.93294400  0.05460000  0.82456600  1
  H  H8  1  0.98446100  0.17649500  0.04965000  1
  H  H9  1  0.01553900  0.82350500  0.95035000  1
  H  H10  1  0.46786300  0.30571500  0.47522600  1
  H  H11  1  0.53213700  0.69428500  0.52477400  1
  H  H12  1  0.65396900  0.28415700  0.58400800  1
  H  H13  1  0.34603100  0.71584300  0.41599200  1
  N  N0  1  0.51146200  0.12403600  0.18651000  1
  N  N1  1  0.48853800  0.87596400  0.81349000  1
  N  N2  1  0.15309100  0.58226400  0.26241000  1
  N  N3  1  0.84690900  0.41773600  0.73759000  1
  O  O0  1  0.97935200  0.85184600  0.51078500  1
  O  O1  1  0.02064800  0.14815400  0.48921500  1
  O  O2  1  0.63788000  0.97993800  0.31468600  1
  O  O3  1  0.36212000  0.02006200  0.68531400  1
  O  O4  1  0.53054900  0.28939300  0.13857100  1
  O  O5  1  0.46945100  0.71060700  0.86142900  1
  O  O6  1  0.38325900  0.10987600  0.11364100  1
  O  O7  1  0.61674100  0.89012400  0.88635900  1
  O  O8  1  0.76200600  0.45480000  0.18692300  1
  O  O9  1  0.23799400  0.54520000  0.81307700  1
  O  O10  1  0.96823800  0.08066900  0.15298900  1
  O  O11  1  0.03176200  0.91933100  0.84701100  1
  O  O12  1  0.61082600  0.24995800  0.49672800  1
  O  O13  1  0.38917400  0.75004200  0.50327200  1
  O  O14  1  0.21215200  0.41752100  0.38833800  1
  O  O15  1  0.78784800  0.58247900  0.61166200  1
  O  O16  1  0.01471500  0.63372500  0.14710600  1
  O  O17  1  0.98528500  0.36627500  0.85289400  1
  O  O18  1  0.23217400  0.69903100  0.24842900  1
  O  O19  1  0.76782600  0.30096900  0.75157100  1
loop_
_geom_bond_atom_site_label_1
_geom_bond_atom_site_label_2
_geom_bond_distance
_geom_bond_site_symmetry_2
H0 O0 0.978751 1_555
H1 O1 0.978751 1_555
H2 O8 0.993047 1_555
H3 O9 0.993047 1_555
H4 O8 0.980929 1_555
H5 O9 0.980929 1_555
H6 O10 0.991739 1_465
H7 O11 0.991739 1_645
H8 O10 0.989517 1_555
H9 O11 0.989517 1_555
H10 O12 0.988234 1_555
H11 O13 0.988234 1_555
H12 O12 0.991526 1_555
H13 O13 0.991526 1_555
N0 O6 1.224269 1_555
N0 O2 1.283582 1_545
N0 O4 1.303547 1_555
N1 O7 1.224269 1_555
N1 O3 1.283582 1_565
N1 O5 1.303547 1_555
N2 O14 1.261882 1_555
N2 O16 1.270824 1_555
N2 O18 1.272919 1_555
N3 O15 1.261882 1_555
N3 O17 1.270824 1_555
N3 O19 1.272919 1_555
O0 Sc1 2.061996 1_655
O0 Sc0 2.097629 1_565
O1 Sc0 2.061996 1_455
O1 Sc1 2.097629 1_545
O2 Sc0 2.265995 1_565
O3 Sc1 2.265995 1_545
O4 Sc0 2.328087 1_555
O5 Sc1 2.328087 1_555
O8 Sc0 2.209147 1_555
O9 Sc1 2.209147 1_555
O10 Sc0 2.165891 1_555
O11 Sc1 2.165891 1_555
O12 Sc0 2.168377 1_555
O13 Sc1 2.168377 1_555
