# generated using pymatgen
data_NaMnO2
_symmetry_space_group_name_H-M   'P 1'
_cell_length_a   2.90039100
_cell_length_b   5.69742700
_cell_length_c   11.49971800
_cell_angle_alpha   90.00000000
_cell_angle_beta   90.00000000
_cell_angle_gamma   90.00000000
_symmetry_Int_Tables_number   1
_chemical_formula_structural   NaMnO2
_chemical_formula_sum   'Na4 Mn4 O8'
_cell_volume   190.03014895
_cell_formula_units_Z   4
loop_
 _symmetry_equiv_pos_site_id
 _symmetry_equiv_pos_as_xyz
  1  'x, y, z'
loop_
 _atom_site_type_symbol
 _atom_site_label
 _atom_site_symmetry_multiplicity
 _atom_site_fract_x
 _atom_site_fract_y
 _atom_site_fract_z
 _atom_site_occupancy
  Na  Na0  1  0.25000000  0.03063200  0.62493700  1
  Na  Na1  1  0.25000000  0.46936800  0.12493700  1
  Na  Na2  1  0.75000000  0.96936800  0.37506300  1
  Na  Na3  1  0.75000000  0.53063200  0.87506300  1
  Mn  Mn0  1  0.25000000  0.52501500  0.61993700  1
  Mn  Mn1  1  0.75000000  0.47498500  0.38006300  1
  Mn  Mn2  1  0.75000000  0.02501500  0.88006300  1
  Mn  Mn3  1  0.25000000  0.97498500  0.11993700  1
  O  O0  1  0.75000000  0.34582200  0.69080700  1
  O  O1  1  0.25000000  0.65417800  0.30919300  1
  O  O2  1  0.25000000  0.84582200  0.80919300  1
  O  O3  1  0.75000000  0.15417800  0.19080700  1
  O  O4  1  0.75000000  0.71415500  0.55240900  1
  O  O5  1  0.25000000  0.28584500  0.44759100  1
  O  O6  1  0.75000000  0.78584500  0.05240900  1
  O  O7  1  0.25000000  0.21415500  0.94759100  1
loop_
_geom_bond_atom_site_label_1
_geom_bond_atom_site_label_2
_geom_bond_distance
_geom_bond_site_symmetry_2
Na0 O2 2.366092 1_545
Na0 O0 2.429331 1_555
Na0 O0 2.429331 1_455
Na0 O4 2.459653 1_545
Na0 O4 2.459653 1_445
Na0 O5 2.504706 1_555
Na1 O1 2.366092 1_555
Na1 O3 2.429331 1_455
Na1 O3 2.429331 1_555
Na1 O6 2.459653 1_455
Na1 O6 2.459653 1_555
Na1 O7 2.504706 1_554
Na2 O3 2.366092 1_565
Na2 O1 2.429331 1_555
Na2 O1 2.429331 1_655
Na2 O5 2.459653 1_565
Na2 O5 2.459653 1_665
Na2 O4 2.504706 1_555
Na3 O0 2.366092 1_555
Na3 O2 2.429331 1_655
Na3 O2 2.429331 1_555
Na3 O7 2.459653 1_555
Na3 O7 2.459653 1_655
Na3 O6 2.504706 1_556
Mn0 O0 1.951816 1_455
Mn0 O0 1.951816 1_555
Mn0 O4 1.966557 1_455
Mn0 O4 1.966557 1_555
Mn0 O5 2.405176 1_555
Mn1 O1 1.951816 1_555
Mn1 O1 1.951816 1_655
Mn1 O5 1.966557 1_655
Mn1 O5 1.966557 1_555
Mn1 O4 2.405176 1_555
Mn2 O2 1.951816 1_645
Mn2 O2 1.951816 1_545
Mn2 O7 1.966557 1_555
Mn2 O7 1.966557 1_655
Mn2 O6 2.405176 1_546
Mn3 O3 1.951816 1_565
Mn3 O3 1.951816 1_465
Mn3 O6 1.966557 1_555
Mn3 O6 1.966557 1_455
Mn3 O7 2.405176 1_564
