# generated using pymatgen
data_Li6MnV3(PO4)6
_symmetry_space_group_name_H-M   'P 1'
_cell_length_a   9.83062400
_cell_length_b   9.83908995
_cell_length_c   9.86500433
_cell_angle_alpha   84.82140546
_cell_angle_beta   86.84265201
_cell_angle_gamma   87.19375742
_symmetry_Int_Tables_number   1
_chemical_formula_structural   Li6MnV3(PO4)6
_chemical_formula_sum   'Li12 Mn2 V6 P12 O48'
_cell_volume   947.92048858
_cell_formula_units_Z   2
loop_
 _symmetry_equiv_pos_site_id
 _symmetry_equiv_pos_as_xyz
  1  'x, y, z'
loop_
 _atom_site_type_symbol
 _atom_site_label
 _atom_site_symmetry_multiplicity
 _atom_site_fract_x
 _atom_site_fract_y
 _atom_site_fract_z
 _atom_site_occupancy
  Li  Li0  1  0.23893600  0.50919400  0.98445000  1
  Li  Li1  1  0.38672500  0.25675300  0.00956200  1
  Li  Li2  1  0.46047700  0.57001000  0.78546000  1
  Li  Li3  1  0.17469300  0.73322000  0.77422100  1
  Li  Li4  1  0.61725400  0.97928000  0.74926600  1
  Li  Li5  1  0.82189300  0.74413700  0.62436100  1
  Li  Li6  1  0.75566400  0.01254000  0.49552900  1
  Li  Li7  1  0.53896200  0.22065500  0.43600600  1
  Li  Li8  1  0.97698600  0.92265500  0.30054700  1
  Li  Li9  1  0.82391500  0.22840500  0.26304600  1
  Li  Li10  1  0.17916000  0.37942900  0.24581000  1
  Li  Li11  1  0.01461100  0.69525800  0.07619500  1
  Mn  Mn0  1  0.78169700  0.26281200  0.96979400  1
  Mn  Mn1  1  0.72248000  0.74546600  0.02118600  1
  V  V0  1  0.99941300  0.24328000  0.75009700  1
  V  V1  1  0.21805500  0.02902000  0.74773600  1
  V  V2  1  0.00243300  0.46279400  0.53261000  1
  V  V3  1  0.50093500  0.53414600  0.46968200  1
  V  V4  1  0.28165100  0.96778300  0.25082100  1
  V  V5  1  0.50733800  0.74960100  0.25151000  1
  P  P0  1  0.40029600  0.82281900  0.95138200  1
  P  P1  1  0.90794500  0.94226900  0.82499500  1
  P  P2  1  0.92744300  0.54706600  0.84026000  1
  P  P3  1  0.30133000  0.34336800  0.68292100  1
  P  P4  1  0.69962600  0.31612900  0.65665300  1
  P  P5  1  0.42985300  0.83881000  0.55550900  1
  P  P6  1  0.07179100  0.15330400  0.44651200  1
  P  P7  1  0.80717400  0.68196500  0.35176200  1
  P  P8  1  0.19882300  0.65262900  0.31647200  1
  P  P9  1  0.57203900  0.44405200  0.16817800  1
  P  P10  1  0.59153700  0.05990200  0.18033400  1
  P  P11  1  0.09439800  0.17388900  0.05140400  1
  O  O0  1  0.88242700  0.87134800  0.96794800  1
  O  O1  1  0.55331600  0.82860500  0.91176600  1
  O  O2  1  0.78926900  0.60445000  0.88879400  1
  O  O3  1  0.32835100  0.95747800  0.89590100  1
  O  O4  1  0.33638200  0.69559900  0.90565500  1
  O  O5  1  0.92445300  0.38443400  0.87359300  1
  O  O6  1  0.05248600  0.59649400  0.90604700  1
  O  O7  1  0.12336000  0.16237300  0.89251100  1
  O  O8  1  0.87845200  0.10150600  0.82967500  1
  O  O9  1  0.66898000  0.30800500  0.81340200  1
  O  O10  1  0.06113300  0.90646400  0.78348000  1
  O  O11  1  0.34658500  0.40694300  0.80841000  1
  O  O12  1  0.81242500  0.90305000  0.71779400  1
  O  O13  1  0.94357400  0.58368800  0.68195000  1
  O  O14  1  0.33084700  0.18674000  0.68868000  1
  O  O15  1  0.14021800  0.37595100  0.67410100  1
  O  O16  1  0.29256700  0.88056500  0.62579700  1
  O  O17  1  0.55266100  0.91283500  0.59073800  1
  O  O18  1  0.86064400  0.32313800  0.62067200  1
  O  O19  1  0.63421200  0.45432200  0.60046800  1
  O  O20  1  0.44735100  0.67929900  0.59303800  1
  O  O21  1  0.65331000  0.19151000  0.59267200  1
  O  O22  1  0.07861300  0.12261800  0.60536000  1
  O  O23  1  0.36637900  0.40312000  0.54624400  1
  O  O24  1  0.84604200  0.80403700  0.42637800  1
  O  O25  1  0.13958900  0.59321900  0.45325700  1
  O  O26  1  0.86117800  0.54315500  0.41498800  1
  O  O27  1  0.41798300  0.86722800  0.39235900  1
  O  O28  1  0.64290100  0.67469700  0.37887900  1
  O  O29  1  0.94250000  0.09559000  0.39685700  1
  O  O30  1  0.07105200  0.31218700  0.40911400  1
  O  O31  1  0.20495200  0.08910900  0.38508400  1
  O  O32  1  0.36218900  0.63041800  0.32743800  1
  O  O33  1  0.15891300  0.80837100  0.29587100  1
  O  O34  1  0.54931700  0.40863800  0.32674700  1
  O  O35  1  0.65332700  0.11169700  0.30440800  1
  O  O36  1  0.84602900  0.70089900  0.19922700  1
  O  O37  1  0.61852100  0.89775500  0.18850100  1
  O  O38  1  0.16013600  0.57992600  0.19386100  1
  O  O39  1  0.43340700  0.08973900  0.17760600  1
  O  O40  1  0.57482600  0.60827200  0.13908700  1
  O  O41  1  0.37616600  0.82534200  0.11457200  1
  O  O42  1  0.71357500  0.38283700  0.12900700  1
  O  O43  1  0.93935500  0.20302000  0.08864800  1
  O  O44  1  0.45354000  0.40306700  0.09166100  1
  O  O45  1  0.13115000  0.03415700  0.12694400  1
  O  O46  1  0.18460100  0.28829900  0.08500100  1
  O  O47  1  0.65522600  0.11797400  0.04274000  1
loop_
_geom_bond_atom_site_label_1
_geom_bond_atom_site_label_2
_geom_bond_distance
_geom_bond_site_symmetry_2
Li0 O6 2.139553 1_555
Li0 O4 2.172166 1_555
Li0 O11 2.270829 1_555
Li0 O38 2.320038 1_556
Li0 O46 2.378880 1_556
Li0 O44 2.547637 1_556
Li1 O44 1.876561 1_555
Li1 O46 2.101615 1_555
Li1 O39 2.275362 1_555
Li1 O11 2.403522 1_554
Li2 O11 1.990333 1_555
Li2 O4 2.092518 1_555
Li2 O20 2.102660 1_555
Li3 O10 1.997673 1_555
Li3 O4 2.104157 1_555
Li3 O6 2.148152 1_555
Li3 O16 2.276576 1_555
Li4 O17 1.900246 1_555
Li4 O12 2.043448 1_555
Li4 O1 2.171161 1_555
Li4 O21 2.510429 1_565
Li5 O12 1.881330 1_555
Li5 O24 1.993275 1_555
Li5 O13 1.993466 1_555
Li6 O29 2.189787 1_555
Li6 O21 2.248668 1_555
Li6 O35 2.302061 1_555
Li6 O24 2.338955 1_545
Li6 O17 2.376138 1_545
Li6 O12 2.434973 1_545
Li7 O21 1.953016 1_555
Li7 O35 2.017695 1_555
Li7 O34 2.059011 1_555
Li8 O29 2.027972 1_565
Li8 O33 2.066023 1_655
Li8 O24 2.066299 1_555
Li8 O45 2.443585 1_665
Li9 O43 2.035905 1_555
Li9 O35 2.079896 1_555
Li9 O29 2.125594 1_555
Li9 O42 2.206301 1_555
Li10 O46 1.888427 1_555
Li10 O30 1.962228 1_555
Li10 O38 1.995274 1_555
Li11 O36 2.001072 1_455
Li11 O6 2.022498 1_554
Li11 O38 2.113739 1_555
Li11 O0 2.330042 1_454
Mn0 O9 1.955005 1_555
Mn0 O47 1.996059 1_556
Mn0 O43 2.027150 1_556
Mn0 O5 2.028500 1_555
Mn0 O42 2.109862 1_556
Mn0 O8 2.331883 1_555
Mn1 O2 2.050704 1_554
Mn1 O0 2.065077 1_554
Mn1 O1 2.122494 1_554
Mn1 O36 2.190002 1_555
Mn1 O40 2.237035 1_555
Mn1 O37 2.474806 1_555
O0 P1 1.529423 1_555
O1 P0 1.535724 1_555
O2 P2 1.514979 1_555
O3 P0 1.541162 1_555
O3 V1 1.929165 1_565
O4 P0 1.541187 1_555
O5 P2 1.605625 1_555
O5 V0 2.015547 1_555
O6 P2 1.540179 1_455
O7 P11 1.590797 1_556
O7 V0 1.995964 1_455
O7 V1 2.167977 1_555
O8 P1 1.583665 1_545
O8 V0 1.959087 1_555
O9 P4 1.554675 1_555
O10 P1 1.570296 1_455
O10 V1 2.000898 1_565
O11 P3 1.532783 1_555
O12 P1 1.538697 1_555
O13 P2 1.571849 1_555
O13 V2 2.018704 1_655
O14 P3 1.550667 1_555
O14 V1 1.977663 1_555
O15 P3 1.606019 1_555
O15 V0 2.016924 1_455
O15 V2 2.095882 1_555
O16 P5 1.537876 1_555
O16 V1 2.057301 1_565
O17 P5 1.512214 1_555
O18 P4 1.606462 1_555
O18 V0 2.003584 1_555
O18 V2 2.103416 1_655
O19 P4 1.545026 1_555
O19 V3 1.974997 1_555
O20 P5 1.582876 1_555
O20 V3 1.991854 1_555
O21 P4 1.528114 1_555
O22 P6 1.573354 1_555
O22 V0 2.036514 1_455
O22 V1 2.134222 1_555
O23 P3 1.539889 1_555
O23 V3 1.965528 1_555
O24 P7 1.538157 1_555
O25 P8 1.518549 1_555
O25 V2 1.987302 1_555
O26 P7 1.532283 1_555
O26 V2 1.950438 1_655
O27 P5 1.618167 1_555
O27 V5 2.024352 1_555
O27 V4 2.133441 1_555
O28 P7 1.626304 1_555
O28 V5 1.954241 1_555
O28 V3 2.119006 1_555
O29 P6 1.538618 1_655
O30 P6 1.573222 1_555
O30 V2 2.067026 1_555
O31 P6 1.542901 1_555
O31 V4 1.958346 1_545
O32 P8 1.618385 1_555
O32 V5 1.964628 1_555
O32 V3 2.138010 1_555
O33 P8 1.561107 1_555
O33 V4 2.028268 1_555
O34 P9 1.577665 1_555
O34 V3 1.980494 1_555
O35 P10 1.533510 1_555
O36 P7 1.529036 1_555
O37 P10 1.599939 1_565
O37 V5 1.903550 1_555
O38 P8 1.533909 1_555
O39 P10 1.569052 1_555
O39 V4 2.021704 1_545
O40 P9 1.616663 1_555
O40 V5 1.926344 1_555
O41 P0 1.616521 1_554
O41 V5 1.989761 1_555
O41 V4 2.170035 1_555
O42 P9 1.532572 1_555
O43 P11 1.566775 1_655
O44 P9 1.512364 1_555
O45 P11 1.540164 1_555
O45 V4 2.017264 1_545
O46 P11 1.536497 1_555
O47 P10 1.536985 1_555
