# generated using pymatgen
data_SmCo3
_symmetry_space_group_name_H-M   'P 1'
_cell_length_a   5.03593419
_cell_length_b   5.03593500
_cell_length_c   8.74618963
_cell_angle_alpha   73.26814345
_cell_angle_beta   73.26814323
_cell_angle_gamma   60.00000128
_symmetry_Int_Tables_number   1
_chemical_formula_structural   SmCo3
_chemical_formula_sum   'Sm3 Co9'
_cell_volume   181.16748577
_cell_formula_units_Z   3
loop_
 _symmetry_equiv_pos_site_id
 _symmetry_equiv_pos_as_xyz
  1  'x, y, z'
loop_
 _atom_site_type_symbol
 _atom_site_label
 _atom_site_symmetry_multiplicity
 _atom_site_fract_x
 _atom_site_fract_y
 _atom_site_fract_z
 _atom_site_occupancy
  Sm  Sm0  1  0.86036500  0.86036500  0.41890400  1
  Sm  Sm1  1  0.13963500  0.13963500  0.58109600  1
  Sm  Sm2  1  0.00000000  0.00000000  0.00000000  1
  Co  Co0  1  0.41984200  0.41984200  0.24047400  1
  Co  Co1  1  0.91984200  0.41984200  0.24047400  1
  Co  Co2  1  0.41984200  0.91984200  0.24047400  1
  Co  Co3  1  0.58015800  0.58015800  0.75952600  1
  Co  Co4  1  0.08015800  0.58015800  0.75952600  1
  Co  Co5  1  0.58015800  0.08015800  0.75952600  1
  Co  Co6  1  0.66549500  0.66549500  0.00351400  1
  Co  Co7  1  0.33450500  0.33450500  0.99648600  1
  Co  Co8  1  0.50000000  0.50000000  0.50000000  1
loop_
_geom_bond_atom_site_label_1
_geom_bond_atom_site_label_2
_geom_bond_distance
_geom_bond_site_symmetry_2
Co0 Co6 2.435971 1_555
Co0 Co7 2.482729 1_554
Co0 Co1 2.517967 1_455
Co0 Co1 2.517967 1_555
Co0 Co2 2.517967 1_545
Co0 Co2 2.517968 1_555
Co0 Co8 2.587719 1_555
Co0 Sm0 2.916580 1_455
Co0 Sm0 2.916580 1_545
Co0 Sm1 3.163522 1_555
Co0 Sm2 3.205447 1_655
Co0 Sm2 3.205447 1_565
Co1 Co6 2.435974 1_555
Co1 Co7 2.482732 1_654
Co1 Co2 2.517967 1_555
Co1 Co2 2.517967 1_645
Co1 Co8 2.587719 1_555
Co1 Sm0 2.916578 1_555
Co1 Sm0 2.916583 1_545
Co1 Sm1 3.163524 1_655
Co1 Sm2 3.205447 1_655
Co1 Sm2 3.205447 1_665
Co2 Co6 2.435974 1_555
Co2 Co7 2.482732 1_564
Co2 Co8 2.587719 1_555
Co2 Sm0 2.916578 1_555
Co2 Sm0 2.916582 1_455
Co2 Sm1 3.163524 1_565
Co2 Sm2 3.205447 1_565
Co2 Sm2 3.205447 1_665
Co3 Co7 2.435971 1_555
Co3 Co6 2.482729 1_556
Co3 Co4 2.517967 1_555
Co3 Co4 2.517967 1_655
Co3 Co5 2.517967 1_555
Co3 Co5 2.517968 1_565
Co3 Co8 2.587719 1_555
Co3 Sm1 2.916580 1_655
Co3 Sm1 2.916580 1_565
Co3 Sm0 3.163522 1_555
Co3 Sm2 3.205447 1_566
Co3 Sm2 3.205447 1_656
Co4 Co7 2.435974 1_555
Co4 Co6 2.482732 1_456
Co4 Co5 2.517967 1_555
Co4 Co5 2.517967 1_465
Co4 Co8 2.587719 1_555
Co4 Sm1 2.916578 1_555
Co4 Sm1 2.916583 1_565
Co4 Sm0 3.163524 1_455
Co4 Sm2 3.205447 1_566
Co4 Sm2 3.205447 1_556
Co5 Co7 2.435974 1_555
Co5 Co6 2.482732 1_546
Co5 Co8 2.587719 1_555
Co5 Sm1 2.916578 1_555
Co5 Sm1 2.916582 1_655
Co5 Sm0 3.163524 1_545
Co5 Sm2 3.205447 1_656
Co5 Sm2 3.205447 1_556
Co6 Sm2 2.907641 1_565
Co6 Sm2 2.907641 1_655
Co6 Sm2 2.907646 1_665
Co7 Sm2 2.907641 1_656
Co7 Sm2 2.907641 1_566
Co7 Sm2 2.907646 1_556
Co8 Sm1 2.983457 1_555
Co8 Sm0 2.983457 1_555
Co8 Sm1 2.983461 1_655
Co8 Sm0 2.983461 1_455
Co8 Sm1 2.983461 1_565
Co8 Sm0 2.983461 1_545
