# generated using pymatgen
data_RbCeMg6O8
_symmetry_space_group_name_H-M   'P 1'
_cell_length_a   9.18484832
_cell_length_b   4.72535150
_cell_length_c   4.72535150
_cell_angle_alpha   90.00000000
_cell_angle_beta   90.00000000
_cell_angle_gamma   90.00000000
_symmetry_Int_Tables_number   1
_chemical_formula_structural   RbCeMg6O8
_chemical_formula_sum   'Rb1 Ce1 Mg6 O8'
_cell_volume   205.08798949
_cell_formula_units_Z   1
loop_
 _symmetry_equiv_pos_site_id
 _symmetry_equiv_pos_as_xyz
  1  'x, y, z'
loop_
 _atom_site_type_symbol
 _atom_site_label
 _atom_site_symmetry_multiplicity
 _atom_site_fract_x
 _atom_site_fract_y
 _atom_site_fract_z
 _atom_site_occupancy
  Rb  Rb0  1  0.50000000  0.00000000  -0.00000000  1
  Ce  Ce0  1  0.00000000  0.00000000  -0.00000000  1
  Mg  Mg0  1  0.00000000  0.50000000  0.50000000  1
  Mg  Mg1  1  0.50000000  0.50000000  0.50000000  1
  Mg  Mg2  1  0.27101707  0.00000000  0.50000000  1
  Mg  Mg3  1  0.72898293  -0.00000000  0.50000000  1
  Mg  Mg4  1  0.27101707  0.50000000  -0.00000000  1
  Mg  Mg5  1  0.72898293  0.50000000  0.00000000  1
  O  O0  1  0.23395055  -0.00000000  0.00000000  1
  O  O1  1  0.76604945  0.00000000  -0.00000000  1
  O  O2  1  0.25027773  0.50000000  0.50000000  1
  O  O3  1  0.74972227  0.50000000  0.50000000  1
  O  O4  1  0.00000000  0.00000000  0.50000000  1
  O  O5  1  0.50000000  0.00000000  0.50000000  1
  O  O6  1  0.00000000  0.50000000  -0.00000000  1
  O  O7  1  0.50000000  0.50000000  -0.00000000  1
loop_
_geom_bond_atom_site_label_1
_geom_bond_atom_site_label_2
_geom_bond_distance
_geom_bond_site_symmetry_2
Ce0 O0 2.148800 1_555
Ce0 O1 2.148800 1_455
Ce0 O6 2.362676 1_555
Ce0 O4 2.362676 1_555
Ce0 O4 2.362676 1_554
Ce0 O6 2.362676 1_545
Mg0 O3 2.298763 1_455
Mg0 O2 2.298763 1_555
Mg0 O6 2.362676 1_556
Mg0 O6 2.362676 1_555
Mg0 O4 2.362676 1_555
Mg0 O4 2.362676 1_565
Mg1 O2 2.293661 1_555
Mg1 O3 2.293661 1_555
Mg1 O5 2.362676 1_555
Mg1 O5 2.362676 1_565
Mg1 O7 2.362676 1_555
Mg1 O7 2.362676 1_556
Mg2 O5 2.103173 1_555
Mg2 O2 2.370342 1_545
Mg2 O2 2.370342 1_555
Mg2 O0 2.387078 1_555
Mg2 O0 2.387078 1_556
Mg2 O4 2.489251 1_555
Mg3 O5 2.103173 1_555
Mg3 O3 2.370342 1_555
Mg3 O3 2.370342 1_545
Mg3 O1 2.387078 1_555
Mg3 O1 2.387078 1_556
Mg3 O4 2.489251 1_655
Mg4 O7 2.103173 1_555
Mg4 O2 2.370342 1_554
Mg4 O2 2.370342 1_555
Mg4 O0 2.387078 1_565
Mg4 O0 2.387078 1_555
Mg4 O6 2.489251 1_555
Mg5 O7 2.103173 1_555
Mg5 O3 2.370342 1_555
Mg5 O3 2.370342 1_554
Mg5 O1 2.387078 1_555
Mg5 O1 2.387078 1_565
Mg5 O6 2.489251 1_655
O0 Rb0 2.443624 1_555
O1 Rb0 2.443624 1_555
O5 Rb0 2.362676 1_555
O5 Rb0 2.362676 1_556
O7 Rb0 2.362676 1_555
O7 Rb0 2.362676 1_565
