# generated using pymatgen
data_Cd(PN2)2
_symmetry_space_group_name_H-M   'P 1'
_cell_length_a   7.91444434
_cell_length_b   17.02046079
_cell_length_c   17.02064559
_cell_angle_alpha   119.99964042
_cell_angle_beta   89.99999872
_cell_angle_gamma   89.99999999
_symmetry_Int_Tables_number   1
_chemical_formula_structural   Cd(PN2)2
_chemical_formula_sum   'Cd24 P48 N96'
_cell_volume   1985.63754847
_cell_formula_units_Z   24
loop_
 _symmetry_equiv_pos_site_id
 _symmetry_equiv_pos_as_xyz
  1  'x, y, z'
loop_
 _atom_site_type_symbol
 _atom_site_label
 _atom_site_symmetry_multiplicity
 _atom_site_fract_x
 _atom_site_fract_y
 _atom_site_fract_z
 _atom_site_occupancy
  Cd  Cd0  1  0.50000000  0.00000391  -0.00000000  1
  Cd  Cd1  1  -0.00000000  0.99999616  0.00000000  1
  Cd  Cd2  1  0.99728695  0.66664985  0.33331858  1
  Cd  Cd3  1  0.00271305  0.33333127  0.66668142  1
  Cd  Cd4  1  0.49728690  0.33335012  0.66668143  1
  Cd  Cd5  1  0.50271310  0.66666868  0.33331857  1
  Cd  Cd6  1  0.50000000  0.47465465  0.00000000  1
  Cd  Cd7  1  0.49999803  0.52536191  0.52535587  1
  Cd  Cd8  1  0.50000197  0.00000604  0.47464413  1
  Cd  Cd9  1  0.00000000  0.52534527  1.00000000  1
  Cd  Cd10  1  0.99999805  0.47463811  0.47464406  1
  Cd  Cd11  1  0.00000195  0.99999405  0.52535594  1
  Cd  Cd12  1  0.00652186  0.80534170  0.14495368  1
  Cd  Cd13  1  0.00649928  0.33961657  0.19465962  1
  Cd  Cd14  1  0.00653682  0.85503604  0.66036587  1
  Cd  Cd15  1  0.99347814  0.66038802  0.85504632  1
  Cd  Cd16  1  0.99350072  0.14495695  0.80534038  1
  Cd  Cd17  1  0.99346318  0.19467016  0.33963413  1
  Cd  Cd18  1  0.50652177  0.19465843  0.85504639  1
  Cd  Cd19  1  0.50649938  0.66038352  0.80534047  1
  Cd  Cd20  1  0.50653684  0.14496400  0.33963409  1
  Cd  Cd21  1  0.49347823  0.33961204  0.14495361  1
  Cd  Cd22  1  0.49350062  0.85504305  0.19465953  1
  Cd  Cd23  1  0.49346316  0.80532991  0.66036591  1
  P  P0  1  0.30307012  0.83101987  0.99923269  1
  P  P1  1  0.30305241  0.16821147  0.16897133  1
  P  P2  1  0.30307057  0.00076373  0.83178521  1
  P  P3  1  0.69692988  0.83178717  0.00076731  1
  P  P4  1  0.69694759  0.99924014  0.83102867  1
  P  P5  1  0.69692943  0.16897852  0.16821479  1
  P  P6  1  0.80307016  0.16898023  0.00076747  1
  P  P7  1  0.80305199  0.83178846  0.83102865  1
  P  P8  1  0.80307081  0.99923626  0.16821472  1
  P  P9  1  0.19692984  0.16821275  0.99923253  1
  P  P10  1  0.19694801  0.00075981  0.16897135  1
  P  P11  1  0.19692919  0.83102154  0.83178528  1
  P  P12  1  0.30199454  0.16664649  0.66628198  1
  P  P13  1  0.30197654  0.49964248  0.83335011  1
  P  P14  1  0.30195570  0.33370542  0.50035135  1
  P  P15  1  0.69800546  0.50036451  0.33371802  1
  P  P16  1  0.69802346  0.66629238  0.16664989  1
  P  P17  1  0.69804430  0.83335407  0.49964865  1
  P  P18  1  0.80199455  0.83335353  0.33371797  1
  P  P19  1  0.80197615  0.50035738  0.16664991  1
  P  P20  1  0.80195592  0.66629456  0.49964868  1
  P  P21  1  0.19800545  0.49963557  0.66628203  1
  P  P22  1  0.19802385  0.33370748  0.83335009  1
  P  P23  1  0.19804408  0.16664588  0.50035132  1
  P  P24  1  0.30352958  0.50011181  0.33296877  1
  P  P25  1  0.30359566  0.83285658  0.49988342  1
  P  P26  1  0.30354822  0.66702801  0.16713718  1
  P  P27  1  0.69647042  0.16714305  0.66703123  1
  P  P28  1  0.69640434  0.33297316  0.50011658  1
  P  P29  1  0.69645178  0.49989083  0.83286282  1
  P  P30  1  0.80352967  0.49988825  0.66703121  1
  P  P31  1  0.80359578  0.16714337  0.50011670  1
  P  P32  1  0.80354808  0.33297198  0.83286301  1
  P  P33  1  0.19647033  0.83285704  0.33296879  1
  P  P34  1  0.19640422  0.66702667  0.49988330  1
  P  P35  1  0.19645192  0.50010898  0.16713699  1
  P  P36  1  0.20130447  0.66512230  0.66519986  1
  P  P37  1  0.20134895  0.00007797  0.33486859  1
  P  P38  1  0.20132860  0.33479636  -0.00008044  1
  P  P39  1  0.79869553  -0.00007757  0.33480014  1
  P  P40  1  0.79865105  0.66520938  0.66513141  1
  P  P41  1  0.79867140  0.33487681  0.00008044  1
  P  P42  1  0.70130473  0.33487770  0.33480013  1
  P  P43  1  0.70134897  0.99992206  0.66513137  1
  P  P44  1  0.70132833  0.66520373  0.00008052  1
  P  P45  1  0.29869527  0.00007758  0.66519987  1
  P  P46  1  0.29865103  0.33479068  0.33486863  1
  P  P47  1  0.29867167  0.66512321  -0.00008052  1
  N  N0  1  0.50000000  0.66125333  0.00000000  1
  N  N1  1  0.49998323  0.33873965  0.33872689  1
  N  N2  1  0.50001677  0.00001276  0.66127311  1
  N  N3  1  0.00000000  0.33874675  1.00000000  1
  N  N4  1  -0.00001641  0.66126033  0.66127304  1
  N  N5  1  0.00001641  0.99998729  0.33872696  1
  N  N6  1  0.75000008  0.39216316  0.78432625  1
  N  N7  1  0.74991213  0.39216837  0.60785116  1
  N  N8  1  0.75008782  0.21568285  0.60785112  1
  N  N9  1  0.24999992  0.60783691  0.21567375  1
  N  N10  1  0.25008787  0.78431721  0.39214884  1
  N  N11  1  0.24991218  0.60783173  0.39214888  1
  N  N12  1  0.74999998  0.06032617  0.12065226  1
  N  N13  1  0.75001365  0.06032366  0.93968553  1
  N  N14  1  0.74998656  0.87936205  0.93968542  1
  N  N15  1  0.25000002  0.93967391  0.87934774  1
  N  N16  1  0.24998635  0.12063813  0.06031447  1
  N  N17  1  0.25001344  0.93967663  0.06031458  1
  N  N18  1  0.74999985  0.72509641  0.45019268  1
  N  N19  1  0.75001616  0.72509676  0.27490144  1
  N  N20  1  0.74998395  0.54980488  0.27490140  1
  N  N21  1  0.25000015  0.27490374  0.54980732  1
  N  N22  1  0.24998384  0.45019532  0.72509856  1
  N  N23  1  0.25001605  0.27490348  0.72509860  1
  N  N24  1  0.50000000  0.82061087  0.00000000  1
  N  N25  1  0.49998982  0.17938105  0.17935465  1
  N  N26  1  0.50001018  0.00002640  0.82064535  1
  N  N27  1  -0.00000000  0.17938904  1.00000000  1
  N  N28  1  0.99999031  0.82061899  0.82064557  1
  N  N29  1  0.00000969  0.99997342  0.17935443  1
  N  N30  1  0.00103690  0.16451331  0.49337849  1
  N  N31  1  0.00104783  0.32887876  0.83546116  1
  N  N32  1  0.00102220  0.50654677  0.67107263  1
  N  N33  1  0.99896310  0.67113483  0.50662151  1
  N  N34  1  0.99895217  0.49341761  0.16453884  1
  N  N35  1  0.99897780  0.83547414  0.32892737  1
  N  N36  1  0.50103623  0.83548686  0.50662151  1
  N  N37  1  0.50104755  0.67112134  0.16453897  1
  N  N38  1  0.50102238  0.49345321  0.32892733  1
  N  N39  1  0.49896377  0.32886535  0.49337849  1
  N  N40  1  0.49895245  0.50658237  0.83546103  1
  N  N41  1  0.49897762  0.16452588  0.67107267  1
  N  N42  1  0.28055942  0.76863246  0.72881616  1
  N  N43  1  0.28060922  0.96019217  0.23136249  1
  N  N44  1  0.28058837  0.27117402  0.03980466  1
  N  N45  1  0.71944058  0.03981630  0.27118384  1
  N  N46  1  0.71939078  0.72882968  0.76863751  1
  N  N47  1  0.71941163  0.23136936  0.96019534  1
  N  N48  1  0.78055965  0.23136756  0.27118386  1
  N  N49  1  0.78060921  0.03980780  0.76863750  1
  N  N50  1  0.78058810  0.72882602  0.96019546  1
  N  N51  1  0.21944035  0.96018370  0.72881614  1
  N  N52  1  0.21939079  0.27117029  0.23136250  1
  N  N53  1  0.21941190  0.76863056  0.03980454  1
  N  N54  1  0.28182248  0.10380211  0.39828387  1
  N  N55  1  0.28180674  0.29448540  0.89619568  1
  N  N56  1  0.28177869  0.60170841  0.70551177  1
  N  N57  1  0.71817752  0.70551824  0.60171613  1
  N  N58  1  0.71819326  0.39828972  0.10380432  1
  N  N59  1  0.71822131  0.89619664  0.29448823  1
  N  N60  1  0.78182222  0.89619787  0.60171626  1
  N  N61  1  0.78180656  0.70551438  0.10380428  1
  N  N62  1  0.78177857  0.39829154  0.29448832  1
  N  N63  1  0.21817778  0.29448162  0.39828374  1
  N  N64  1  0.21819344  0.60171009  0.89619572  1
  N  N65  1  0.21822143  0.10380323  0.70551168  1
  N  N66  1  0.27947693  0.43916587  0.06447584  1
  N  N67  1  0.27945781  0.62531414  0.56083054  1
  N  N68  1  0.27950742  0.93551588  0.37467305  1
  N  N69  1  0.72052307  0.37469004  0.93552416  1
  N  N70  1  0.72054219  0.06448359  0.43916946  1
  N  N71  1  0.72049258  0.56084283  0.62532695  1
  N  N72  1  0.77947709  0.56083428  0.93552431  1
  N  N73  1  0.77945774  0.37468566  0.43916952  1
  N  N74  1  0.77950755  0.06448400  0.62532694  1
  N  N75  1  0.22052291  0.62530997  0.06447569  1
  N  N76  1  0.22054226  0.93551613  0.56083048  1
  N  N77  1  0.22049245  0.43915706  0.37467306  1
  N  N78  1  0.75000003  0.55949627  0.11899246  1
  N  N79  1  0.75001710  0.55949458  0.44050494  1
  N  N80  1  0.74998274  0.88101038  0.44050491  1
  N  N81  1  0.24999997  0.44050381  0.88100754  1
  N  N82  1  0.24998290  0.11898965  0.55949506  1
  N  N83  1  0.25001726  0.44050547  0.55949509  1
  N  N84  1  0.75000005  0.22596153  0.45192300  1
  N  N85  1  0.74997339  0.22595500  0.77405727  1
  N  N86  1  0.75002661  0.54810208  0.77405724  1
  N  N87  1  0.24999995  0.77403853  0.54807700  1
  N  N88  1  0.25002661  0.45189773  0.22594273  1
  N  N89  1  0.24997339  0.77404484  0.22594276  1
  N  N90  1  0.74999998  0.89320295  0.78640614  1
  N  N91  1  0.74997164  0.89320390  0.10680732  1
  N  N92  1  0.75002877  0.21360340  0.10680720  1
  N  N93  1  0.25000002  0.10679680  0.21359386  1
  N  N94  1  0.25002836  0.78639658  0.89319268  1
  N  N95  1  0.24997123  0.10679620  0.89319280  1
loop_
_geom_bond_atom_site_label_1
_geom_bond_atom_site_label_2
_geom_bond_distance
_geom_bond_site_symmetry_2
Cd0 N17 2.660222 1_545
Cd0 N14 2.660222 1_544
Cd0 N13 2.660306 1_554
Cd0 N16 2.660306 1_555
Cd0 N12 2.660416 1_555
Cd0 N15 2.660416 1_544
Cd1 N13 2.660222 1_464
Cd1 N16 2.660222 1_565
Cd1 N17 2.660304 1_555
Cd1 N14 2.660304 1_454
Cd1 N15 2.660417 1_554
Cd1 N12 2.660417 1_465
Cd2 N19 2.607152 1_555
Cd2 N20 2.607158 1_555
Cd2 N18 2.607359 1_555
Cd2 N11 2.646672 1_655
Cd2 N9 2.647174 1_655
Cd2 N10 2.647905 1_655
Cd3 N22 2.607152 1_555
Cd3 N23 2.607158 1_555
Cd3 N21 2.607359 1_555
Cd3 N8 2.646672 1_455
Cd3 N6 2.647174 1_455
Cd3 N7 2.647905 1_455
Cd4 N23 2.607150 1_555
Cd4 N22 2.607160 1_555
Cd4 N21 2.607357 1_555
Cd4 N7 2.646673 1_555
Cd4 N6 2.647175 1_555
Cd4 N8 2.647904 1_555
Cd5 N20 2.607150 1_555
Cd5 N19 2.607160 1_555
Cd5 N18 2.607357 1_555
Cd5 N10 2.646673 1_555
Cd5 N9 2.647175 1_555
Cd5 N11 2.647904 1_555
Cd6 N69 2.297433 1_554
Cd6 N66 2.297433 1_555
Cd6 N81 2.679084 1_554
Cd6 N78 2.679084 1_555
Cd7 N71 2.297351 1_555
Cd7 N67 2.297429 1_555
Cd7 N83 2.679023 1_555
Cd7 N79 2.679139 1_555
Cd8 N68 2.297351 1_545
Cd8 N70 2.297429 1_555
Cd8 N80 2.679023 1_545
Cd8 N82 2.679139 1_555
Cd9 N72 2.297432 1_455
Cd9 N75 2.297432 1_556
Cd9 N78 2.679083 1_456
Cd9 N81 2.679083 1_555
Cd10 N77 2.297349 1_655
Cd10 N73 2.297432 1_555
Cd10 N79 2.679023 1_555
Cd10 N83 2.679141 1_655
Cd11 N74 2.297349 1_465
Cd11 N76 2.297432 1_555
Cd11 N82 2.679024 1_565
Cd11 N80 2.679141 1_455
Cd12 N53 2.305236 1_555
Cd12 N61 2.313123 1_455
Cd12 N89 2.575028 1_555
Cd12 N91 2.784176 1_455
Cd13 N52 2.305248 1_555
Cd13 N62 2.313176 1_455
Cd13 N88 2.575457 1_555
Cd13 N92 2.783737 1_455
Cd14 N51 2.305317 1_555
Cd14 N60 2.312950 1_455
Cd14 N87 2.575151 1_555
Cd14 N90 2.784414 1_455
Cd15 N50 2.305236 1_555
Cd15 N64 2.313123 1_655
Cd15 N86 2.575028 1_555
Cd15 N94 2.784176 1_655
Cd16 N49 2.305248 1_555
Cd16 N65 2.313176 1_655
Cd16 N85 2.575457 1_555
Cd16 N95 2.783737 1_655
Cd17 N48 2.305317 1_555
Cd17 N63 2.312950 1_655
Cd17 N84 2.575151 1_555
Cd17 N93 2.784414 1_655
Cd18 N47 2.305234 1_555
Cd18 N55 2.313118 1_555
Cd18 N85 2.575027 1_555
Cd18 N95 2.784178 1_555
Cd19 N46 2.305247 1_555
Cd19 N56 2.313176 1_555
Cd19 N86 2.575459 1_555
Cd19 N94 2.783738 1_555
Cd20 N45 2.305319 1_555
Cd20 N54 2.312950 1_555
Cd20 N84 2.575152 1_555
Cd20 N93 2.784413 1_555
Cd21 N44 2.305234 1_555
Cd21 N58 2.313118 1_555
Cd21 N88 2.575027 1_555
Cd21 N92 2.784178 1_555
Cd22 N43 2.305247 1_555
Cd22 N59 2.313176 1_555
Cd22 N89 2.575459 1_555
Cd22 N91 2.783738 1_555
Cd23 N42 2.305319 1_555
Cd23 N57 2.312950 1_555
Cd23 N87 2.575152 1_555
Cd23 N90 2.784413 1_555
N0 P47 1.594792 1_555
N0 P44 1.594792 1_555
N1 P42 1.594726 1_555
N1 P46 1.594818 1_555
N2 P45 1.594726 1_555
N2 P43 1.594818 1_545
N3 P41 1.594794 1_456
N3 P38 1.594794 1_556
N4 P36 1.594721 1_555
N4 P40 1.594820 1_455
N5 P39 1.594721 1_465
N5 P37 1.594820 1_565
N6 P29 1.646008 1_555
N6 P32 1.646012 1_555
N7 P30 1.646034 1_555
N7 P28 1.646043 1_555
N8 P27 1.646035 1_555
N8 P31 1.646040 1_555
N9 P26 1.646008 1_555
N9 P35 1.646012 1_555
N10 P33 1.646034 1_555
N10 P25 1.646043 1_555
N11 P24 1.646035 1_555
N11 P34 1.646040 1_555
N12 P5 1.659716 1_555
N12 P8 1.659717 1_545
N13 P6 1.659739 1_556
N13 P4 1.659779 1_545
N14 P3 1.659742 1_556
N14 P7 1.659776 1_555
N15 P2 1.659716 1_565
N15 P11 1.659717 1_555
N16 P9 1.659738 1_554
N16 P1 1.659779 1_555
N17 P0 1.659741 1_554
N17 P10 1.659776 1_565
N18 P17 1.649786 1_555
N18 P20 1.649790 1_555
N19 P16 1.649795 1_555
N19 P18 1.649833 1_555
N20 P19 1.649792 1_555
N20 P15 1.649836 1_555
N21 P14 1.649786 1_555
N21 P23 1.649790 1_555
N22 P13 1.649795 1_555
N22 P21 1.649833 1_555
N23 P22 1.649792 1_555
N23 P12 1.649836 1_555
N24 P3 1.569419 1_555
N24 P0 1.569419 1_554
N25 P1 1.569448 1_555
N25 P5 1.569450 1_555
N26 P4 1.569448 1_545
N26 P2 1.569450 1_555
N27 P6 1.569419 1_456
N27 P9 1.569419 1_555
N28 P11 1.569444 1_655
N28 P7 1.569455 1_555
N29 P8 1.569444 1_455
N29 P10 1.569455 1_565
N30 P23 1.562756 1_555
N30 P31 1.565841 1_455
N31 P22 1.562479 1_555
N31 P32 1.566261 1_455
N32 P21 1.562503 1_555
N32 P30 1.566169 1_455
N33 P20 1.562756 1_555
N33 P34 1.565841 1_655
N34 P19 1.562479 1_555
N34 P35 1.566261 1_655
N35 P18 1.562503 1_555
N35 P33 1.566169 1_655
N36 P17 1.562763 1_555
N36 P25 1.565836 1_555
N37 P16 1.562479 1_555
N37 P26 1.566258 1_555
N38 P15 1.562502 1_555
N38 P24 1.566171 1_555
N39 P14 1.562763 1_555
N39 P28 1.565836 1_555
N40 P13 1.562479 1_555
N40 P29 1.566258 1_555
N41 P12 1.562502 1_555
N41 P27 1.566171 1_555
N42 P36 1.661976 1_555
N42 P11 1.666213 1_555
N43 P37 1.661962 1_565
N43 P10 1.666173 1_565
N44 P38 1.661965 1_555
N44 P9 1.666187 1_554
N45 P39 1.661977 1_555
N45 P8 1.666213 1_545
N46 P40 1.661962 1_555
N46 P7 1.666173 1_555
N47 P41 1.661965 1_556
N47 P6 1.666187 1_556
N48 P42 1.661976 1_555
N48 P5 1.666212 1_555
N49 P43 1.661963 1_545
N49 P4 1.666175 1_545
N50 P44 1.661963 1_556
N50 P3 1.666185 1_556
N51 P45 1.661976 1_565
N51 P2 1.666212 1_565
N52 P46 1.661963 1_555
N52 P1 1.666174 1_555
N53 P47 1.661963 1_555
N53 P0 1.666185 1_554
N54 P23 1.656384 1_555
N54 P37 1.667904 1_555
N55 P22 1.656393 1_555
N55 P38 1.667922 1_556
N56 P21 1.656416 1_555
N56 P36 1.667919 1_555
N57 P20 1.656384 1_555
N57 P40 1.667904 1_555
N58 P19 1.656392 1_555
N58 P41 1.667922 1_555
N59 P18 1.656416 1_555
N59 P39 1.667919 1_565
N60 P17 1.656385 1_555
N60 P43 1.667903 1_555
N61 P16 1.656393 1_555
N61 P44 1.667922 1_555
N62 P15 1.656418 1_555
N62 P42 1.667916 1_555
N63 P14 1.656385 1_555
N63 P46 1.667903 1_555
N64 P13 1.656393 1_555
N64 P47 1.667922 1_556
N65 P12 1.656418 1_555
N65 P45 1.667916 1_555
N66 P35 1.657863 1_555
N66 P38 1.671422 1_555
N67 P34 1.657929 1_555
N67 P36 1.671458 1_555
N68 P33 1.657874 1_555
N68 P37 1.671422 1_565
N69 P32 1.657863 1_555
N69 P41 1.671422 1_556
N70 P31 1.657929 1_555
N70 P39 1.671458 1_555
N71 P30 1.657874 1_555
N71 P40 1.671422 1_555
N72 P29 1.657869 1_555
N72 P44 1.671422 1_556
N73 P28 1.657925 1_555
N73 P42 1.671458 1_555
N74 P27 1.657877 1_555
N74 P43 1.671420 1_545
N75 P26 1.657869 1_555
N75 P47 1.671422 1_555
N76 P25 1.657925 1_555
N76 P45 1.671458 1_565
N77 P24 1.657877 1_555
N77 P46 1.671420 1_555
N78 P16 1.629988 1_555
N78 P19 1.629990 1_555
N79 P15 1.629940 1_555
N79 P20 1.629973 1_555
N80 P18 1.629941 1_555
N80 P17 1.629973 1_555
N81 P13 1.629987 1_555
N81 P22 1.629990 1_555
N82 P12 1.629940 1_555
N82 P23 1.629973 1_555
N83 P21 1.629941 1_555
N83 P14 1.629973 1_555
N84 P28 1.635912 1_555
N84 P31 1.635915 1_555
N85 P27 1.635932 1_555
N85 P32 1.635933 1_555
N86 P29 1.635931 1_555
N86 P30 1.635932 1_555
N87 P25 1.635912 1_555
N87 P34 1.635915 1_555
N88 P24 1.635932 1_555
N88 P35 1.635933 1_555
N89 P26 1.635931 1_555
N89 P33 1.635932 1_555
N90 P7 1.624717 1_555
N90 P4 1.624720 1_555
N91 P8 1.624744 1_555
N91 P3 1.624757 1_555
N92 P5 1.624746 1_555
N92 P6 1.624753 1_555
N93 P10 1.624717 1_555
N93 P1 1.624720 1_555
N94 P11 1.624744 1_555
N94 P0 1.624757 1_555
N95 P2 1.624746 1_555
N95 P9 1.624753 1_555
