# generated using pymatgen
data_Li4MnCo2O7
_symmetry_space_group_name_H-M   'P 1'
_cell_length_a   2.98593800
_cell_length_b   6.45147923
_cell_length_c   13.63284906
_cell_angle_alpha   83.33860970
_cell_angle_beta   86.16225969
_cell_angle_gamma   76.76705713
_symmetry_Int_Tables_number   1
_chemical_formula_structural   Li4MnCo2O7
_chemical_formula_sum   'Li8 Mn2 Co4 O14'
_cell_volume   253.69877000
_cell_formula_units_Z   2
loop_
 _symmetry_equiv_pos_site_id
 _symmetry_equiv_pos_as_xyz
  1  'x, y, z'
loop_
 _atom_site_type_symbol
 _atom_site_label
 _atom_site_symmetry_multiplicity
 _atom_site_fract_x
 _atom_site_fract_y
 _atom_site_fract_z
 _atom_site_occupancy
  Li  Li0  1  0.14694900  0.92406000  0.78563400  1
  Li  Li1  1  0.98473700  0.50102200  0.50839500  1
  Li  Li2  1  0.84855400  0.06843300  0.21401200  1
  Li  Li3  1  0.56232000  0.22954900  0.64334300  1
  Li  Li4  1  0.43090400  0.78578900  0.35640100  1
  Li  Li5  1  0.28433200  0.36151800  0.07012700  1
  Li  Li6  1  0.73129700  0.62863200  0.92780500  1
  Li  Li7  1  0.88648600  0.56257800  0.70824600  1
  Mn  Mn0  1  0.00315000  0.99987200  0.99929200  1
  Mn  Mn1  1  0.29530400  0.84940700  0.57525100  1
  Co  Co0  1  0.70279700  0.15720300  0.43026600  1
  Co  Co1  1  0.55304600  0.71287500  0.14362700  1
  Co  Co2  1  0.45006600  0.29516000  0.85012500  1
  Co  Co3  1  0.12666900  0.42813900  0.28334700  1
  O  O0  1  0.59920900  0.98497100  0.89265000  1
  O  O1  1  0.42788700  0.55777300  0.60323700  1
  O  O2  1  0.26124200  0.12209300  0.32568100  1
  O  O3  1  0.04651700  0.24850700  0.75955400  1
  O  O4  1  0.83327400  0.83978800  0.47582200  1
  O  O5  1  0.67785700  0.40912900  0.18077300  1
  O  O6  1  0.15706600  0.69148300  0.04057100  1
  O  O7  1  0.74905600  0.88898300  0.66451100  1
  O  O8  1  0.57157500  0.45570200  0.38742100  1
  O  O9  1  0.40196300  0.01801900  0.10682100  1
  O  O10  1  0.15783900  0.16511400  0.53152300  1
  O  O11  1  0.95596300  0.73605500  0.24673100  1
  O  O12  1  0.84770100  0.30492400  0.96061300  1
  O  O13  1  0.30624000  0.57322000  0.82822100  1
loop_
_geom_bond_atom_site_label_1
_geom_bond_atom_site_label_2
_geom_bond_distance
_geom_bond_site_symmetry_2
Li0 O3 2.037624 1_565
Li0 O0 2.115935 1_455
Li0 O7 2.159117 1_455
Li0 O0 2.178586 1_555
Li0 O13 2.219383 1_555
Li0 O7 2.348010 1_555
Li1 O1 2.028247 1_555
Li1 O1 2.029130 1_655
Li1 O10 2.100806 1_655
Li1 O4 2.127797 1_555
Li1 O8 2.208334 1_555
Li1 O8 2.316530 1_655
Li2 O11 2.093409 1_545
Li2 O9 2.124330 1_655
Li2 O2 2.127112 1_655
Li2 O5 2.140851 1_555
Li2 O9 2.142224 1_555
Li2 O2 2.236019 1_555
Li3 O1 2.077411 1_555
Li3 O3 2.128165 1_555
Li3 O7 2.129607 1_545
Li3 O10 2.139787 1_555
Li3 O3 2.246717 1_655
Li3 O10 2.259282 1_655
Li4 O8 2.072577 1_555
Li4 O11 2.088902 1_555
Li4 O2 2.110410 1_565
Li4 O4 2.190990 1_555
Li4 O11 2.225510 1_455
Li4 O4 2.326879 1_455
Li5 O5 2.064074 1_555
Li5 O6 2.071119 1_555
Li5 O12 2.160337 1_454
Li5 O9 2.166698 1_555
Li5 O12 2.168214 1_554
Li5 O5 2.266320 1_455
Li6 O13 2.032915 1_555
Li6 O12 2.038145 1_555
Li6 O13 2.106599 1_655
Li6 O6 2.187756 1_656
Li6 O6 2.222872 1_556
Li6 O0 2.241613 1_555
Li7 O3 2.023816 1_655
Li7 O1 2.053684 1_555
Li7 O7 2.074634 1_555
Li7 O1 2.083574 1_655
Li7 O13 2.142587 1_655
Li7 O13 2.296516 1_555
Mn0 O12 1.934025 1_465
Mn0 O6 1.960235 1_556
Mn0 O0 1.974309 1_455
Mn0 O9 1.979406 1_566
Mn0 O0 2.213203 1_555
Mn0 O9 2.230784 1_466
Mn1 O1 1.831637 1_555
Mn1 O7 1.955009 1_455
Mn1 O7 1.957754 1_555
Mn1 O10 2.010132 1_565
Mn1 O4 2.013343 1_455
Mn1 O4 2.025829 1_555
Co0 O8 1.904591 1_555
Co0 O10 2.013324 1_655
Co0 O4 2.025596 1_545
Co0 O10 2.057576 1_555
Co0 O2 2.070219 1_555
Co0 O2 2.109132 1_655
Co1 O5 1.922523 1_555
Co1 O9 1.930112 1_565
Co1 O6 1.932093 1_555
Co1 O11 1.950128 1_555
Co1 O11 2.183550 1_455
Co1 O6 2.199456 1_655
Co2 O13 1.741222 1_555
Co2 O3 1.875781 1_555
Co2 O0 1.973961 1_545
Co2 O12 1.994536 1_555
Co2 O3 2.081696 1_655
Co2 O12 2.261711 1_455
Co3 O11 1.948245 1_455
Co3 O2 1.948446 1_555
Co3 O5 2.032812 1_455
Co3 O8 2.056330 1_555
Co3 O5 2.078099 1_555
Co3 O8 2.097787 1_455
