# generated using pymatgen
data_CaNiBN
_symmetry_space_group_name_H-M   'P 1'
_cell_length_a   3.53534500
_cell_length_b   3.53534500
_cell_length_c   7.62418200
_cell_angle_alpha   90.00000000
_cell_angle_beta   90.00000000
_cell_angle_gamma   90.00000000
_symmetry_Int_Tables_number   1
_chemical_formula_structural   CaNiBN
_chemical_formula_sum   'Ca2 Ni2 B2 N2'
_cell_volume   95.29209114
_cell_formula_units_Z   2
loop_
 _symmetry_equiv_pos_site_id
 _symmetry_equiv_pos_as_xyz
  1  'x, y, z'
loop_
 _atom_site_type_symbol
 _atom_site_label
 _atom_site_symmetry_multiplicity
 _atom_site_fract_x
 _atom_site_fract_y
 _atom_site_fract_z
 _atom_site_occupancy
  Ca  Ca0  1  0.00000000  0.50000000  0.34124100  1
  Ca  Ca1  1  0.50000000  0.00000000  0.65875900  1
  Ni  Ni0  1  0.00000000  0.00000000  0.00000000  1
  Ni  Ni1  1  0.50000000  0.50000000  0.00000000  1
  B  B0  1  0.00000000  0.50000000  0.84595800  1
  B  B1  1  0.50000000  0.00000000  0.15404200  1
  N  N0  1  0.00000000  0.50000000  0.66343800  1
  N  N1  1  0.50000000  0.00000000  0.33656200  1
loop_
_geom_bond_atom_site_label_1
_geom_bond_atom_site_label_2
_geom_bond_distance
_geom_bond_site_symmetry_2
Ca0 N0 2.456489 1_555
Ca0 N1 2.500121 1_555
Ca0 N1 2.500121 1_455
Ca0 N1 2.500121 1_465
Ca0 N1 2.500121 1_565
Ca1 N1 2.456489 1_555
Ca1 N0 2.500121 1_655
Ca1 N0 2.500121 1_545
Ca1 N0 2.500121 1_555
Ca1 N0 2.500121 1_645
B0 N0 1.391566 1_555
B0 Ni0 2.122259 1_566
B0 Ni0 2.122259 1_556
B0 Ni1 2.122259 1_456
B0 Ni1 2.122259 1_556
B1 N1 1.391566 1_555
B1 Ni0 2.122259 1_655
B1 Ni0 2.122259 1_555
B1 Ni1 2.122259 1_545
B1 Ni1 2.122259 1_555
