# generated using pymatgen
data_ErBPd2Rh
_symmetry_space_group_name_H-M   'P 1'
_cell_length_a   4.31545300
_cell_length_b   4.16596700
_cell_length_c   4.31545300
_cell_angle_alpha   90.00000000
_cell_angle_beta   90.00000000
_cell_angle_gamma   90.00000000
_symmetry_Int_Tables_number   1
_chemical_formula_structural   ErBPd2Rh
_chemical_formula_sum   'Er1 B1 Pd2 Rh1'
_cell_volume   77.58336416
_cell_formula_units_Z   1
loop_
 _symmetry_equiv_pos_site_id
 _symmetry_equiv_pos_as_xyz
  1  'x, y, z'
loop_
 _atom_site_type_symbol
 _atom_site_label
 _atom_site_symmetry_multiplicity
 _atom_site_fract_x
 _atom_site_fract_y
 _atom_site_fract_z
 _atom_site_occupancy
  Er  Er0  1  0.00000000  0.00000000  0.00000000  1
  B  B0  1  0.50000000  0.50000000  0.50000000  1
  Pd  Pd0  1  0.00000000  0.50000000  0.50000000  1
  Pd  Pd1  1  0.50000000  0.50000000  0.00000000  1
  Rh  Rh0  1  0.50000000  0.00000000  0.50000000  1
loop_
_geom_bond_atom_site_label_1
_geom_bond_atom_site_label_2
_geom_bond_distance
_geom_bond_site_symmetry_2
Er0 Pd0 2.999101 1_555
Er0 Pd1 2.999101 1_455
Er0 Pd0 2.999101 1_544
Er0 Pd1 2.999101 1_555
Er0 Pd0 2.999101 1_545
Er0 Pd1 2.999101 1_545
Er0 Pd1 2.999101 1_445
Er0 Pd0 2.999101 1_554
Er0 Rh0 3.051486 1_555
Er0 Rh0 3.051486 1_454
Er0 Rh0 3.051486 1_455
Er0 Rh0 3.051486 1_554
B0 Rh0 2.082984 1_565
B0 Rh0 2.082984 1_555
B0 Pd1 2.157726 1_555
B0 Pd1 2.157726 1_556
B0 Pd0 2.157726 1_655
B0 Pd0 2.157726 1_555
