# generated using pymatgen
data_Mg4Si3
_symmetry_space_group_name_H-M   'P 1'
_cell_length_a   6.82550500
_cell_length_b   7.29248714
_cell_length_c   11.52604164
_cell_angle_alpha   91.48472629
_cell_angle_beta   95.37145318
_cell_angle_gamma   107.25618982
_symmetry_Int_Tables_number   1
_chemical_formula_structural   Mg4Si3
_chemical_formula_sum   'Mg16 Si12'
_cell_volume   544.60790993
_cell_formula_units_Z   4
loop_
 _symmetry_equiv_pos_site_id
 _symmetry_equiv_pos_as_xyz
  1  'x, y, z'
loop_
 _atom_site_type_symbol
 _atom_site_label
 _atom_site_symmetry_multiplicity
 _atom_site_fract_x
 _atom_site_fract_y
 _atom_site_fract_z
 _atom_site_occupancy
  Mg  Mg0  1  0.63416400  0.87594900  0.94516600  1
  Mg  Mg1  1  0.69542400  0.48573600  0.87176400  1
  Mg  Mg2  1  0.13486800  0.87295800  0.46278300  1
  Mg  Mg3  1  0.11763400  0.58179600  0.25600500  1
  Mg  Mg4  1  0.16454200  0.86763500  0.86284900  1
  Mg  Mg5  1  0.02690900  0.23111200  0.89559200  1
  Mg  Mg6  1  0.55088200  0.84857700  0.39938400  1
  Mg  Mg7  1  0.34554100  0.26785200  0.35570900  1
  Mg  Mg8  1  0.41126800  0.80686100  0.66444200  1
  Mg  Mg9  1  0.30412100  0.23357900  0.68698800  1
  Mg  Mg10  1  0.91334400  0.93618000  0.22369700  1
  Mg  Mg11  1  0.76246300  0.25101400  0.31425400  1
  Mg  Mg12  1  0.97189100  0.47975300  0.66540700  1
  Mg  Mg13  1  0.86814800  0.91075600  0.66058400  1
  Mg  Mg14  1  0.61544800  0.51033300  0.13988200  1
  Mg  Mg15  1  0.38496800  0.95814800  0.15627100  1
  Si  Si0  1  0.62964000  0.17388100  0.54691700  1
  Si  Si1  1  0.24709500  0.52490200  0.49450400  1
  Si  Si2  1  0.42501500  0.19526100  0.97930500  1
  Si  Si3  1  0.96226000  0.71843500  0.04394600  1
  Si  Si4  1  0.31766100  0.55310400  0.83105400  1
  Si  Si5  1  0.65806600  0.14670400  0.76049400  1
  Si  Si6  1  0.77467600  0.61462700  0.36411000  1
  Si  Si7  1  0.19761700  0.27950900  0.12501500  1
  Si  Si8  1  0.61871200  0.54118400  0.54696600  1
  Si  Si9  1  0.00180700  0.19089600  0.49419600  1
  Si  Si10  1  0.25617000  0.59684300  0.03200300  1
  Si  Si11  1  0.79062200  0.20325400  0.08484300  1
loop_
_geom_bond_atom_site_label_1
_geom_bond_atom_site_label_2
_geom_bond_distance
_geom_bond_site_symmetry_2
Mg0 Si11 2.719583 1_566
Mg0 Si4 2.868755 1_555
Mg0 Si5 2.923618 1_565
Mg0 Si3 2.957581 1_556
Mg0 Si10 3.045397 1_556
Mg0 Si2 3.105620 1_565
Mg1 Si5 2.687556 1_555
Mg1 Si3 2.729544 1_556
Mg1 Si4 2.765278 1_555
Mg1 Si2 2.770360 1_555
Mg2 Si6 2.739399 1_455
Mg2 Si9 2.756633 1_565
Mg2 Si1 2.883061 1_555
Mg3 Si6 2.820047 1_455
Mg3 Si10 2.825304 1_555
Mg3 Si7 2.851814 1_555
Mg3 Si1 2.886436 1_555
Mg3 Si3 2.891286 1_455
Mg4 Si3 2.685712 1_456
Mg4 Si2 2.745492 1_565
Mg4 Si4 2.817457 1_555
Mg4 Si10 2.965796 1_556
Mg5 Si5 2.727377 1_455
Mg5 Si7 2.757809 1_556
Mg5 Si4 2.758187 1_555
Mg5 Si11 2.808503 1_456
Mg5 Si2 2.885586 1_555
Mg5 Si10 2.979940 1_556
Mg6 Si6 2.652498 1_555
Mg6 Si0 2.769745 1_565
Mg6 Si1 2.954465 1_555
Mg6 Si8 2.966276 1_555
Mg7 Si1 2.705136 1_555
Mg7 Si7 2.767102 1_555
Mg7 Si9 2.886812 1_555
Mg7 Si8 3.017769 1_555
Mg7 Si0 3.025455 1_555
Mg8 Si4 2.689404 1_555
Mg8 Si5 2.690181 1_565
Mg8 Si1 2.708039 1_555
Mg8 Si0 3.069071 1_565
Mg8 Si8 3.072856 1_555
Mg9 Si5 2.740104 1_555
Mg9 Si4 2.799706 1_555
Mg9 Si9 2.831462 1_555
Mg9 Si0 2.990249 1_555
Mg9 Si1 3.187496 1_555
Mg9 Si8 3.197814 1_555
Mg10 Si3 2.683077 1_555
Mg10 Si11 2.816870 1_565
Mg10 Si6 2.860141 1_555
Mg10 Si7 3.000949 1_665
Mg11 Si9 2.645795 1_655
Mg11 Si6 2.673818 1_555
Mg11 Si11 2.690202 1_555
Mg11 Si0 2.925836 1_555
Mg12 Si4 2.802804 1_655
Mg12 Si1 2.806511 1_655
Mg12 Si8 2.816331 1_555
Mg12 Si0 2.907071 1_555
Mg12 Si9 2.913493 1_655
Mg12 Si5 3.029714 1_555
Mg13 Si5 2.830746 1_565
Mg13 Si9 2.847557 1_665
Mg13 Si8 2.924807 1_555
Mg13 Si0 3.103675 1_565
Mg14 Si6 2.705717 1_555
Mg14 Si3 2.752263 1_555
Mg14 Si2 2.819860 1_554
Mg14 Si7 2.835773 1_555
Mg14 Si10 2.888817 1_555
Mg14 Si11 2.916115 1_555
Mg15 Si2 2.689208 1_564
Mg15 Si10 2.821535 1_555
Mg15 Si7 2.998765 1_565
Mg15 Si11 3.017574 1_565
Mg15 Si3 3.040956 1_455
Si0 Si5 2.468917 1_555
Si0 Si9 2.635017 1_655
Si0 Si8 2.701605 1_555
Si1 Si9 2.512936 1_555
Si1 Si8 2.518705 1_555
Si2 Si7 2.570485 1_556
Si6 Si8 2.449975 1_555
Si10 Si4 2.421894 1_554
Si10 Si3 2.435221 1_455
Si10 Si7 2.514839 1_555
Si11 Si2 2.655578 1_554
Si11 Si7 2.658937 1_655
