# generated using pymatgen
data_Zr3GeAs5
_symmetry_space_group_name_H-M   'P 1'
_cell_length_a   3.71087400
_cell_length_b   6.80645800
_cell_length_c   27.62834332
_cell_angle_alpha   89.99128380
_cell_angle_beta   90.00000000
_cell_angle_gamma   90.00000000
_symmetry_Int_Tables_number   1
_chemical_formula_structural   Zr3GeAs5
_chemical_formula_sum   'Zr12 Ge4 As20'
_cell_volume   697.83414636
_cell_formula_units_Z   4
loop_
 _symmetry_equiv_pos_site_id
 _symmetry_equiv_pos_as_xyz
  1  'x, y, z'
loop_
 _atom_site_type_symbol
 _atom_site_label
 _atom_site_symmetry_multiplicity
 _atom_site_fract_x
 _atom_site_fract_y
 _atom_site_fract_z
 _atom_site_occupancy
  Zr  Zr0  1  0.50000000  0.72834000  0.71956000  1
  Zr  Zr1  1  0.50000000  0.72653200  0.38659100  1
  Zr  Zr2  1  0.50000000  0.72691500  0.05332000  1
  Zr  Zr3  1  0.50000000  0.22814600  0.78065400  1
  Zr  Zr4  1  0.50000000  0.22893000  0.44620700  1
  Zr  Zr5  1  0.50000000  0.22861200  0.11325400  1
  Zr  Zr6  1  0.00000000  0.27153600  0.94561900  1
  Zr  Zr7  1  0.00000000  0.27092900  0.61102600  1
  Zr  Zr8  1  0.00000000  0.27155500  0.27884200  1
  Zr  Zr9  1  0.00000000  0.77112700  0.88845300  1
  Zr  Zr10  1  0.00000000  0.77114900  0.55533200  1
  Zr  Zr11  1  0.00000000  0.77159200  0.22154100  1
  Ge  Ge0  1  0.50000000  0.62764400  0.81846900  1
  Ge  Ge1  1  0.50000000  0.62600800  0.48523400  1
  Ge  Ge2  1  0.50000000  0.62612000  0.15184900  1
  Ge  Ge3  1  0.50000000  0.12754100  0.68142600  1
  As  As0  1  0.50000000  0.58338700  0.95093000  1
  As  As1  1  0.50000000  0.58340100  0.61748600  1
  As  As2  1  0.50000000  0.58352400  0.28396900  1
  As  As3  1  0.50000000  0.08300300  0.88300200  1
  As  As4  1  0.50000000  0.08350300  0.54904700  1
  As  As5  1  0.50000000  0.08333800  0.21621000  1
  As  As6  1  0.00000000  0.40453300  0.71553300  1
  As  As7  1  0.00000000  0.41399500  0.38266800  1
  As  As8  1  0.00000000  0.41404800  0.04953100  1
  As  As9  1  0.00000000  0.90537300  0.78445300  1
  As  As10  1  0.00000000  0.90635500  0.45129400  1
  As  As11  1  0.00000000  0.90690100  0.11783600  1
  As  As12  1  0.50000000  0.12268100  0.34763200  1
  As  As13  1  0.50000000  0.12243500  0.01435300  1
  As  As14  1  0.00000000  0.38639500  0.84716800  1
  As  As15  1  0.00000000  0.38506100  0.51327100  1
  As  As16  1  0.00000000  0.38569500  0.18029200  1
  As  As17  1  0.00000000  0.87904700  0.98576600  1
  As  As18  1  0.00000000  0.88567300  0.65309200  1
  As  As19  1  0.00000000  0.87897500  0.31909200  1
loop_
_geom_bond_atom_site_label_1
_geom_bond_atom_site_label_2
_geom_bond_distance
_geom_bond_site_symmetry_2
Ge0 Zr0 2.817230 1_555
Ge0 Zr9 2.852293 1_655
Ge0 Zr9 2.852293 1_555
Ge0 Zr3 2.913120 1_555
Ge1 Zr1 2.809817 1_555
Ge1 Zr10 2.858311 1_655
Ge1 Zr10 2.858311 1_555
Ge1 Zr4 2.909995 1_555
Ge2 Zr2 2.807212 1_555
Ge2 Zr11 2.851504 1_555
Ge2 Zr11 2.851504 1_655
Ge2 Zr5 2.908315 1_555
Ge3 Zr3 2.825831 1_555
Ge3 Zr7 2.859674 1_655
Ge3 Zr7 2.859674 1_555
Ge3 Zr0 2.914110 1_545
As0 Zr6 2.823067 1_655
As0 Zr6 2.823067 1_555
As0 Zr9 2.838029 1_555
As0 Zr9 2.838029 1_655
As0 As17 2.901605 1_655
As0 As17 2.901605 1_555
As0 Zr2 2.992940 1_556
As1 Zr7 2.828076 1_655
As1 Zr7 2.828076 1_555
As1 Zr10 2.832635 1_655
As1 Zr10 2.832635 1_555
As1 Zr0 2.987848 1_555
As2 Zr8 2.823411 1_555
As2 Zr8 2.823411 1_655
As2 Zr11 2.838212 1_555
As2 Zr11 2.838212 1_655
As2 Zr1 2.997848 1_555
As3 Zr9 2.823364 1_645
As3 Zr9 2.823364 1_545
As3 Zr6 2.843052 1_655
As3 Zr6 2.843052 1_555
As3 Zr3 2.995169 1_555
As4 Zr10 2.827130 1_645
As4 Zr10 2.827130 1_545
As4 Zr7 2.828953 1_555
As4 Zr7 2.828953 1_655
As4 Zr4 3.008640 1_555
As5 Zr11 2.822525 1_545
As5 Zr11 2.822525 1_645
As5 Zr8 2.842334 1_555
As5 Zr8 2.842334 1_655
As5 Zr5 3.011324 1_555
As6 Ge3 2.808138 1_555
As6 Ge3 2.808138 1_455
As6 Zr3 2.849636 1_455
As6 Zr3 2.849636 1_555
As6 Zr0 2.883162 1_455
As6 Zr0 2.883162 1_555
As6 Zr7 3.027305 1_555
As7 Zr1 2.824844 1_555
As7 Zr1 2.824844 1_455
As7 Zr4 2.847869 1_555
As7 Zr4 2.847869 1_455
As7 Zr8 3.028089 1_555
As8 Zr2 2.826396 1_555
As8 Zr2 2.826396 1_455
As8 Zr5 2.852122 1_455
As8 Zr5 2.852122 1_555
As8 Zr6 3.030497 1_554
As9 Ge0 2.810474 1_455
As9 Ge0 2.810474 1_555
As9 Zr0 2.847752 1_455
As9 Zr0 2.847752 1_555
As9 Zr3 2.877524 1_565
As9 Zr3 2.877524 1_465
As9 Zr9 3.015004 1_555
As10 Ge1 2.821792 1_455
As10 Ge1 2.821792 1_555
As10 Zr1 2.852548 1_555
As10 Zr1 2.852548 1_455
As10 Zr4 2.878009 1_565
As10 Zr4 2.878009 1_465
As10 Zr10 3.017990 1_555
As11 Ge2 2.824460 1_455
As11 Ge2 2.824460 1_555
As11 Zr2 2.849790 1_555
As11 Zr2 2.849790 1_455
As11 Zr5 2.872878 1_465
As11 Zr5 2.872878 1_565
As11 Zr11 3.009443 1_555
As12 As19 2.610810 1_545
As12 As19 2.610810 1_645
As12 Zr4 2.817950 1_555
As12 Zr8 2.842701 1_655
As12 Zr8 2.842701 1_555
As12 As7 2.883017 1_655
As12 As7 2.883017 1_555
As12 Zr1 2.903121 1_545
As13 As17 2.609828 1_644
As13 As17 2.609828 1_544
As13 Zr5 2.826531 1_555
As13 Zr6 2.842218 1_554
As13 Zr6 2.842218 1_654
As13 As8 2.885737 1_555
As13 As8 2.885737 1_655
As13 Zr2 2.899228 1_545
As14 Ge0 2.601400 1_555
As14 Ge0 2.601400 1_455
As14 Zr3 2.824971 1_455
As14 Zr3 2.824971 1_555
As14 Zr6 2.830043 1_555
As14 Zr9 2.856458 1_555
As15 Ge1 2.594586 1_555
As15 Ge1 2.594586 1_455
As15 Zr7 2.810196 1_555
As15 Zr4 2.829433 1_555
As15 Zr4 2.829433 1_455
As15 Zr10 2.873528 1_555
As16 Ge2 2.595714 1_555
As16 Ge2 2.595714 1_455
As16 Zr8 2.831326 1_555
As16 Zr5 2.831404 1_555
As16 Zr5 2.831404 1_455
As16 Zr11 2.863333 1_555
As17 Zr9 2.787243 1_555
As17 Zr2 2.828029 1_456
As17 Zr2 2.828029 1_556
As17 Zr6 2.892423 1_565
As18 Ge3 2.601160 1_565
As18 Ge3 2.601160 1_465
As18 Zr10 2.811295 1_555
As18 Zr0 2.821560 1_555
As18 Zr0 2.821560 1_455
As18 Zr7 2.868083 1_565
As19 Zr11 2.792627 1_555
As19 Zr1 2.827802 1_555
As19 Zr1 2.827802 1_455
As19 Zr8 2.894087 1_565
As19 As2 2.903260 1_455
As19 As2 2.903260 1_555
