# generated using pymatgen
data_Si3Ge(PbO2)8
_symmetry_space_group_name_H-M   'P 1'
_cell_length_a   7.86496700
_cell_length_b   7.89434844
_cell_length_c   18.57215130
_cell_angle_alpha   97.38334032
_cell_angle_beta   89.72837687
_cell_angle_gamma   117.70827073
_symmetry_Int_Tables_number   1
_chemical_formula_structural   Si3Ge(PbO2)8
_chemical_formula_sum   'Si3 Ge1 Pb8 O16'
_cell_volume   1010.43595515
_cell_formula_units_Z   1
loop_
 _symmetry_equiv_pos_site_id
 _symmetry_equiv_pos_as_xyz
  1  'x, y, z'
loop_
 _atom_site_type_symbol
 _atom_site_label
 _atom_site_symmetry_multiplicity
 _atom_site_fract_x
 _atom_site_fract_y
 _atom_site_fract_z
 _atom_site_occupancy
  Si  Si0  1  0.82929600  0.08087400  0.08341400  1
  Si  Si1  1  0.25044300  0.08723800  0.08590600  1
  Si  Si2  1  0.74424800  0.92143100  0.91679900  1
  Ge  Ge0  1  0.17431300  0.91524200  0.91693300  1
  Pb  Pb0  1  0.27210400  0.49631100  0.90859300  1
  Pb  Pb1  1  0.72855200  0.49002100  0.09158600  1
  Pb  Pb2  1  0.52877600  0.03086900  0.76672000  1
  Pb  Pb3  1  0.48477200  0.97283400  0.22946700  1
  Pb  Pb4  1  0.73692600  0.45097500  0.88822700  1
  Pb  Pb5  1  0.25367600  0.54068700  0.11098600  1
  Pb  Pb6  1  0.03830500  0.06025200  0.77884000  1
  Pb  Pb7  1  0.96416600  0.93321400  0.22090500  1
  O  O0  1  0.67291000  0.33711200  0.77710000  1
  O  O1  1  0.33392000  0.66768100  0.22038300  1
  O  O2  1  0.30325200  0.04839800  0.84823100  1
  O  O3  1  0.70346100  0.95228400  0.14513600  1
  O  O4  1  0.29782600  0.01799500  0.00365000  1
  O  O5  1  0.71829900  0.99005200  0.00206400  1
  O  O6  1  0.25137700  0.94991200  0.14463700  1
  O  O7  1  0.72970400  0.06172000  0.86262700  1
  O  O8  1  0.09110600  0.66544900  0.90011700  1
  O  O9  1  0.89703500  0.31156600  0.10283100  1
  O  O10  1  0.18097900  0.35880300  0.79979600  1
  O  O11  1  0.81949000  0.63508500  0.19944600  1
  O  O12  1  0.02485400  0.05015400  0.08309800  1
  O  O13  1  0.97347000  0.96539700  0.90992200  1
  O  O14  1  0.39431500  0.31700200  0.11055400  1
  O  O15  1  0.60242600  0.69144300  0.89203100  1
loop_
_geom_bond_atom_site_label_1
_geom_bond_atom_site_label_2
_geom_bond_distance
_geom_bond_site_symmetry_2
Ge0 O8 1.748708 1_555
Ge0 O2 1.761405 1_565
Ge0 O4 1.772492 1_566
Ge0 O13 1.807140 1_455
O0 Pb4 2.105519 1_555
O0 Pb2 2.121477 1_555
O1 Pb5 2.105137 1_555
O1 Pb3 2.116335 1_555
O2 Pb2 2.367688 1_555
O2 Pb6 2.499925 1_555
O3 Si0 1.636475 1_565
O3 Pb3 2.367763 1_555
O3 Pb7 2.564373 1_555
O4 Si1 1.655559 1_555
O5 Si0 1.646466 1_565
O5 Si2 1.649856 1_554
O6 Si1 1.635996 1_565
O6 Pb3 2.351533 1_555
O6 Pb7 2.620522 1_455
O7 Si2 1.630065 1_545
O7 Pb2 2.299259 1_555
O7 Pb6 2.880677 1_655
O8 Pb0 2.378623 1_555
O8 Pb4 2.489752 1_455
O9 Si0 1.631340 1_555
O9 Pb1 2.366109 1_555
O9 Pb5 2.525463 1_655
O10 Pb6 2.067470 1_555
O10 Pb0 2.121636 1_555
O11 Pb7 2.065318 1_555
O11 Pb1 2.120868 1_555
O12 Si1 1.658407 1_555
O12 Si0 1.664597 1_455
O12 Pb7 2.795774 1_445
O13 Si2 1.677579 1_555
O13 Pb6 2.617077 1_665
O14 Si1 1.631814 1_555
O14 Pb1 2.382433 1_555
O14 Pb5 2.480818 1_555
O15 Si2 1.630680 1_555
O15 Pb0 2.368458 1_555
O15 Pb4 2.561243 1_555
