# generated using pymatgen
data_Ca3Si3(HO5)2
_symmetry_space_group_name_H-M   'P 1'
_cell_length_a   6.89751174
_cell_length_b   7.05279595
_cell_length_c   9.56524338
_cell_angle_alpha   95.82736068
_cell_angle_beta   108.49330512
_cell_angle_gamma   95.54420584
_symmetry_Int_Tables_number   1
_chemical_formula_structural   Ca3Si3(HO5)2
_chemical_formula_sum   'Ca6 Si6 H4 O20'
_cell_volume   434.89738492
_cell_formula_units_Z   2
loop_
 _symmetry_equiv_pos_site_id
 _symmetry_equiv_pos_as_xyz
  1  'x, y, z'
loop_
 _atom_site_type_symbol
 _atom_site_label
 _atom_site_symmetry_multiplicity
 _atom_site_fract_x
 _atom_site_fract_y
 _atom_site_fract_z
 _atom_site_occupancy
  Ca  Ca0  1  0.82260100  0.71953000  0.65595700  1
  Ca  Ca1  1  0.17739900  0.28047000  0.34404300  1
  Ca  Ca2  1  0.75381900  0.90473400  0.31907300  1
  Ca  Ca3  1  0.24618100  0.09526600  0.68092700  1
  Ca  Ca4  1  0.73125700  0.15575300  0.99091800  1
  Ca  Ca5  1  0.26874300  0.84424700  0.00908200  1
  Si  Si0  1  0.72344400  0.69922900  0.94985400  1
  Si  Si1  1  0.27655600  0.30077100  0.05014600  1
  Si  Si2  1  0.67232500  0.37334700  0.33995000  1
  Si  Si3  1  0.32767500  0.62665300  0.66005000  1
  Si  Si4  1  0.73339200  0.19665200  0.62601100  1
  Si  Si5  1  0.26660800  0.80334800  0.37398900  1
  H  H0  1  0.09535300  0.46818700  0.88154500  1
  H  H1  1  0.90464700  0.53181300  0.11845500  1
  H  H2  1  0.02626600  0.39874900  0.65488600  1
  H  H3  1  0.97373400  0.60125100  0.34511400  1
  O  O0  1  0.91481200  0.80563900  0.91164100  1
  O  O1  1  0.08518800  0.19436100  0.08835900  1
  O  O2  1  0.77855400  0.50139700  0.02824900  1
  O  O3  1  0.22144600  0.49860300  0.97175100  1
  O  O4  1  0.63571800  0.84540900  0.05059600  1
  O  O5  1  0.36428200  0.15459100  0.94940400  1
  O  O6  1  0.55362900  0.61343900  0.78371800  1
  O  O7  1  0.44637100  0.38656100  0.21628200  1
  O  O8  1  0.80459700  0.23051200  0.27534500  1
  O  O9  1  0.19540300  0.76948800  0.72465500  1
  O  O10  1  0.79308200  0.59129100  0.40571700  1
  O  O11  1  0.20691800  0.40870900  0.59428300  1
  O  O12  1  0.59179800  0.27695400  0.47018700  1
  O  O13  1  0.40820200  0.72304600  0.52981300  1
  O  O14  1  0.91502800  0.39085900  0.70725200  1
  O  O15  1  0.08497200  0.60914100  0.29274800  1
  O  O16  1  0.60049200  0.14557700  0.73091800  1
  O  O17  1  0.39950800  0.85442300  0.26908200  1
  O  O18  1  0.85164500  0.02266600  0.58123600  1
  O  O19  1  0.14835500  0.97733400  0.41876400  1
loop_
_geom_bond_atom_site_label_1
_geom_bond_atom_site_label_2
_geom_bond_distance
_geom_bond_site_symmetry_2
Ca0 O0 2.321995 1_555
Ca0 O18 2.332420 1_565
Ca0 O10 2.409245 1_555
Ca0 O9 2.423647 1_655
Ca0 O14 2.517655 1_555
Ca0 O6 2.617433 1_555
Ca0 O13 2.731001 1_555
Ca1 O1 2.321995 1_555
Ca1 O19 2.332420 1_545
Ca1 O11 2.409245 1_555
Ca1 O8 2.423647 1_455
Ca1 O15 2.517655 1_555
Ca1 O7 2.617433 1_555
Ca1 O12 2.731001 1_555
Ca2 O17 2.320274 1_555
Ca2 O8 2.389432 1_565
Ca2 O4 2.412958 1_555
Ca2 O18 2.414545 1_565
Ca2 O10 2.447960 1_555
Ca2 O19 2.561724 1_655
Ca3 O16 2.320274 1_555
Ca3 O9 2.389432 1_545
Ca3 O5 2.412958 1_555
Ca3 O19 2.414545 1_545
Ca3 O11 2.447960 1_555
Ca3 O18 2.561724 1_455
Ca4 O1 2.297626 1_656
Ca4 O16 2.351998 1_555
Ca4 O4 2.400952 1_546
Ca4 O2 2.402553 1_556
Ca4 O5 2.433616 1_555
Ca4 O8 2.592244 1_556
Ca5 O0 2.297626 1_454
Ca5 O17 2.351998 1_555
Ca5 O5 2.400952 1_564
Ca5 O3 2.402553 1_554
Ca5 O4 2.433616 1_555
Ca5 O9 2.592244 1_554
H0 O3 0.998617 1_555
H1 O2 0.998617 1_555
H2 O14 1.041107 1_455
H2 O11 1.530747 1_555
H3 O15 1.041107 1_655
H3 O10 1.530747 1_555
O0 Si0 1.615394 1_555
O1 Si1 1.615394 1_555
O2 Si0 1.669635 1_554
O3 Si1 1.669635 1_556
O4 Si0 1.626751 1_554
O5 Si1 1.626751 1_556
O6 Si3 1.648592 1_555
O6 Si0 1.658425 1_555
O7 Si2 1.648592 1_555
O7 Si1 1.658425 1_555
O8 Si2 1.624170 1_555
O9 Si3 1.624170 1_555
O10 Si2 1.635871 1_555
O11 Si3 1.635871 1_555
O12 Si4 1.688488 1_555
O12 Si2 1.691315 1_555
O13 Si5 1.688488 1_555
O13 Si3 1.691315 1_555
O14 Si4 1.698298 1_555
O15 Si5 1.698298 1_555
O16 Si4 1.603163 1_555
O17 Si5 1.603163 1_555
O18 Si4 1.631793 1_555
O19 Si5 1.631793 1_555
