# generated using pymatgen
data_Na5Tb(MoO4)4
_symmetry_space_group_name_H-M   'P 1'
_cell_length_a   9.82390796
_cell_length_b   9.82390796
_cell_length_c   9.82390796
_cell_angle_alpha   109.33195037
_cell_angle_beta   109.33195037
_cell_angle_gamma   109.75012167
_symmetry_Int_Tables_number   1
_chemical_formula_structural   Na5Tb(MoO4)4
_chemical_formula_sum   'Na10 Tb2 Mo8 O32'
_cell_volume   729.83257071
_cell_formula_units_Z   2
loop_
 _symmetry_equiv_pos_site_id
 _symmetry_equiv_pos_as_xyz
  1  'x, y, z'
loop_
 _atom_site_type_symbol
 _atom_site_label
 _atom_site_symmetry_multiplicity
 _atom_site_fract_x
 _atom_site_fract_y
 _atom_site_fract_z
 _atom_site_occupancy
  Na  Na0  1  0.08913112  0.67270921  0.82521612  1
  Na  Na1  1  0.92270921  0.59749309  0.08357809  1
  Na  Na2  1  0.51391500  0.83913112  0.91642191  1
  Na  Na3  1  0.84749309  0.26391500  0.17478388  1
  Na  Na4  1  0.16086888  0.07729079  0.67478388  1
  Na  Na5  1  0.32729079  0.15250691  0.41642191  1
  Na  Na6  1  0.73608500  0.91086888  0.58357809  1
  Na  Na7  1  0.40250691  0.48608500  0.32521612  1
  Na  Na8  1  0.25000000  0.75000000  0.50000000  1
  Na  Na9  1  -0.00000000  -0.00000000  -0.00000000  1
  Tb  Tb0  1  0.50000000  0.50000000  -0.00000000  1
  Tb  Tb1  1  0.75000000  0.25000000  0.50000000  1
  Mo  Mo0  1  0.41843665  0.14275740  0.08756989  1
  Mo  Mo1  1  0.39275740  0.80518752  0.22432075  1
  Mo  Mo2  1  0.19481248  0.41913323  0.58756989  1
  Mo  Mo3  1  0.66913323  0.58156335  0.72432075  1
  Mo  Mo4  1  0.85724260  0.94481248  0.27567925  1
  Mo  Mo5  1  0.83156335  0.60724260  0.41243011  1
  Mo  Mo6  1  0.05518752  0.33086677  0.91243011  1
  Mo  Mo7  1  0.58086677  0.16843665  0.77567925  1
  O  O0  1  0.25654532  0.35317874  0.73693718  1
  O  O1  1  0.60317874  0.36624155  0.59663341  1
  O  O2  1  0.76960814  0.00654532  0.40336659  1
  O  O3  1  0.61624155  0.51960814  0.26306282  1
  O  O4  1  0.99345468  0.39682126  0.76306282  1
  O  O5  1  0.64682126  0.38375845  0.90336659  1
  O  O6  1  0.48039186  0.74345468  0.09663341  1
  O  O7  1  0.63375845  0.23039186  0.23693718  1
  O  O8  1  0.97563516  0.30147015  0.44695195  1
  O  O9  1  0.55147015  0.60451921  0.82583599  1
  O  O10  1  0.77868321  0.72563516  0.17416401  1
  O  O11  1  0.85451921  0.52868321  0.55304805  1
  O  O12  1  0.27436484  0.44852985  0.05304805  1
  O  O13  1  0.69852985  0.14548079  0.67416401  1
  O  O14  1  0.47131679  0.02436484  0.32583599  1
  O  O15  1  0.39548079  0.22131679  0.94695195  1
  O  O16  1  0.24833707  0.63067327  0.67785585  1
  O  O17  1  0.88067327  0.70281642  0.88233620  1
  O  O18  1  0.82048022  0.99833707  0.11766380  1
  O  O19  1  0.95281642  0.57048022  0.32214415  1
  O  O20  1  0.32375179  0.92737220  0.96423440  1
  O  O21  1  0.17737220  0.71313780  0.10361941  1
  O  O22  1  0.60951739  0.07375179  0.89638059  1
  O  O23  1  0.96313780  0.35951739  0.03576560  1
  O  O24  1  0.92624821  0.82262780  0.53576560  1
  O  O25  1  0.07262780  0.03686220  0.39638059  1
  O  O26  1  0.64048261  0.67624821  0.60361941  1
  O  O27  1  0.28686220  0.39048261  0.46423440  1
  O  O28  1  0.29718358  0.17951978  0.17785585  1
  O  O29  1  0.42951978  0.75166293  0.38233620  1
  O  O30  1  0.36932673  0.04718358  0.61766380  1
  O  O31  1  0.00166293  0.11932673  0.82214415  1
loop_
_geom_bond_atom_site_label_1
_geom_bond_atom_site_label_2
_geom_bond_distance
_geom_bond_site_symmetry_2
Na0 O20 2.278873 1_555
Na0 O4 2.324796 1_455
Na0 O17 2.378326 1_455
Na0 O11 2.382079 1_455
Na0 O21 2.422370 1_556
Na0 O16 2.500434 1_555
Na1 O21 2.278877 1_655
Na1 O5 2.324796 1_554
Na1 O19 2.378335 1_555
Na1 O10 2.382079 1_555
Na1 O23 2.422379 1_555
Na1 O17 2.500427 1_554
Na2 O22 2.278868 1_565
Na2 O6 2.324796 1_556
Na2 O16 2.378329 1_555
Na2 O9 2.382073 1_555
Na2 O20 2.422379 1_555
Na2 O18 2.500427 1_556
Na3 O23 2.278873 1_555
Na3 O7 2.324796 1_555
Na3 O18 2.378326 1_545
Na3 O8 2.382083 1_555
Na3 O22 2.422374 1_554
Na3 O19 2.500428 1_555
Na4 O24 2.278873 1_445
Na4 O0 2.324796 1_555
Na4 O30 2.378326 1_555
Na4 O15 2.382079 1_555
Na4 O25 2.422370 1_555
Na4 O31 2.500434 1_555
Na5 O25 2.278877 1_555
Na5 O1 2.324796 1_555
Na5 O28 2.378335 1_555
Na5 O14 2.382079 1_555
Na5 O27 2.422379 1_555
Na5 O30 2.500427 1_555
Na6 O26 2.278868 1_555
Na6 O2 2.324796 1_565
Na6 O31 2.378329 1_665
Na6 O13 2.382073 1_565
Na6 O24 2.422379 1_555
Na6 O29 2.500427 1_555
Na7 O27 2.278873 1_555
Na7 O3 2.324796 1_555
Na7 O29 2.378326 1_555
Na7 O12 2.382083 1_555
Na7 O26 2.422374 1_555
Na7 O28 2.500428 1_555
Na8 O16 2.406103 1_555
Na8 O19 2.406111 1_455
Na8 O29 2.406112 1_555
Na8 O30 2.406112 1_565
Na9 O31 2.406103 1_554
Na9 O28 2.406111 1_555
Na9 O18 2.406112 1_445
Na9 O17 2.406112 1_444
Mo0 O20 1.742604 1_544
Mo0 O28 1.764711 1_555
Mo0 O15 1.781015 1_554
Mo0 O7 1.801843 1_555
Mo1 O21 1.742605 1_555
Mo1 O29 1.764717 1_555
Mo1 O14 1.781014 1_565
Mo1 O6 1.801843 1_555
Mo2 O27 1.742604 1_555
Mo2 O16 1.764717 1_555
Mo2 O8 1.781014 1_455
Mo2 O0 1.801843 1_555
Mo3 O26 1.742612 1_555
Mo3 O17 1.764717 1_555
Mo3 O9 1.781023 1_555
Mo3 O1 1.801843 1_555
Mo4 O25 1.742605 1_665
Mo4 O18 1.764717 1_555
Mo4 O10 1.781014 1_555
Mo4 O2 1.801843 1_565
Mo5 O24 1.742604 1_555
Mo5 O19 1.764711 1_555
Mo5 O11 1.781015 1_555
Mo5 O3 1.801843 1_555
Mo6 O23 1.742604 1_456
Mo6 O31 1.764717 1_555
Mo6 O12 1.781014 1_556
Mo6 O4 1.801843 1_455
Mo7 O22 1.742612 1_555
Mo7 O30 1.764717 1_555
Mo7 O13 1.781023 1_555
Mo7 O5 1.801843 1_555
O0 Tb0 2.363817 1_556
O1 Tb1 2.363817 1_555
O2 Tb1 2.363817 1_555
O3 Tb0 2.363817 1_555
O4 Tb1 2.363817 1_555
O5 Tb0 2.363817 1_556
O6 Tb0 2.363817 1_555
O7 Tb1 2.363817 1_555
O8 Tb1 2.371171 1_555
O9 Tb0 2.371167 1_556
O10 Tb0 2.371170 1_555
O11 Tb1 2.371170 1_555
O12 Tb0 2.371171 1_555
O13 Tb1 2.371167 1_555
O14 Tb1 2.371170 1_555
O15 Tb0 2.371170 1_556
