# generated using pymatgen
data_TeIrO6
_symmetry_space_group_name_H-M   'P 1'
_cell_length_a   5.24025000
_cell_length_b   5.01393700
_cell_length_c   8.86508462
_cell_angle_alpha   55.45898399
_cell_angle_beta   90.00000000
_cell_angle_gamma   90.00000000
_symmetry_Int_Tables_number   1
_chemical_formula_structural   TeIrO6
_chemical_formula_sum   'Te2 Ir2 O12'
_cell_volume   191.86406567
_cell_formula_units_Z   2
loop_
 _symmetry_equiv_pos_site_id
 _symmetry_equiv_pos_as_xyz
  1  'x, y, z'
loop_
 _atom_site_type_symbol
 _atom_site_label
 _atom_site_symmetry_multiplicity
 _atom_site_fract_x
 _atom_site_fract_y
 _atom_site_fract_z
 _atom_site_occupancy
  Te  Te0  1  0.50000000  0.00000000  0.00000000  1
  Te  Te1  1  0.00000000  0.00000000  0.50000000  1
  Ir  Ir0  1  0.50000000  0.50000000  0.50000000  1
  Ir  Ir1  1  0.00000000  0.50000000  0.00000000  1
  O  O0  1  0.46247500  0.61085000  0.25416700  1
  O  O1  1  0.17728800  0.89199300  0.93079600  1
  O  O2  1  0.18111300  0.26434800  0.56729100  1
  O  O3  1  0.68111300  0.73565200  0.93270900  1
  O  O4  1  0.67728800  0.10800700  0.56920400  1
  O  O5  1  0.96247500  0.38915000  0.24583300  1
  O  O6  1  0.03752500  0.61085000  0.75416700  1
  O  O7  1  0.32271200  0.89199300  0.43079600  1
  O  O8  1  0.31888700  0.26434800  0.06729100  1
  O  O9  1  0.82271200  0.10800700  0.06920400  1
  O  O10  1  0.81888700  0.73565200  0.43270900  1
  O  O11  1  0.53752500  0.38915000  0.74583300  1
loop_
_geom_bond_atom_site_label_1
_geom_bond_atom_site_label_2
_geom_bond_distance
_geom_bond_site_symmetry_2
Ir0 O11 1.929636 1_555
Ir0 O0 1.929636 1_555
Ir0 O7 1.932625 1_555
Ir0 O4 1.932625 1_555
Ir0 O10 1.935207 1_555
Ir0 O2 1.935207 1_555
Ir1 O5 1.929636 1_455
Ir1 O6 1.929636 1_554
Ir1 O1 1.932625 1_554
Ir1 O9 1.932625 1_455
Ir1 O3 1.935207 1_454
Ir1 O8 1.935207 1_555
O0 Te0 1.984243 1_565
O1 Te0 1.976408 1_566
O2 Te1 1.977364 1_555
O3 Te0 1.977364 1_566
O4 Te1 1.976408 1_655
O5 Te1 1.984243 1_655
O6 Te1 1.984243 1_565
O7 Te1 1.976408 1_565
O8 Te0 1.977364 1_555
O9 Te0 1.976408 1_555
O10 Te1 1.977364 1_665
O11 Te0 1.984243 1_556
