# generated using pymatgen
data_K2W2O5
_symmetry_space_group_name_H-M   'P 1'
_cell_length_a   5.82295900
_cell_length_b   5.83249543
_cell_length_c   8.98264488
_cell_angle_alpha   108.85694680
_cell_angle_beta   108.66749389
_cell_angle_gamma   90.37874952
_symmetry_Int_Tables_number   1
_chemical_formula_structural   K2W2O5
_chemical_formula_sum   'K4 W4 O10'
_cell_volume   271.44173384
_cell_formula_units_Z   2
loop_
 _symmetry_equiv_pos_site_id
 _symmetry_equiv_pos_as_xyz
  1  'x, y, z'
loop_
 _atom_site_type_symbol
 _atom_site_label
 _atom_site_symmetry_multiplicity
 _atom_site_fract_x
 _atom_site_fract_y
 _atom_site_fract_z
 _atom_site_occupancy
  K  K0  1  0.13375500  0.63826200  0.75680300  1
  K  K1  1  0.87468700  0.39765200  0.24444700  1
  K  K2  1  0.61907200  0.14188600  0.75629300  1
  K  K3  1  0.38790800  0.89284600  0.24397100  1
  W  W0  1  0.99912100  0.01812100  0.99962000  1
  W  W1  1  0.49861300  0.51668800  0.00137200  1
  W  W2  1  0.26942300  0.26003600  0.49994200  1
  W  W3  1  0.77764800  0.77746800  0.50034700  1
  O  O0  1  0.74360500  0.76147000  0.00910400  1
  O  O1  1  0.23972200  0.78861500  0.98940300  1
  O  O2  1  0.75879100  0.24760400  0.01085500  1
  O  O3  1  0.25537900  0.27287200  0.99082400  1
  O  O4  1  0.09938100  0.14805400  0.73884900  1
  O  O5  1  0.89446500  0.88925400  0.26103600  1
  O  O6  1  0.65995800  0.64441100  0.73910800  1
  O  O7  1  0.33555000  0.38961200  0.26110600  1
  O  O8  1  0.47532400  0.51537000  0.50106700  1
  O  O9  1  0.47760300  0.01297900  0.49585600  1
loop_
_geom_bond_atom_site_label_1
_geom_bond_atom_site_label_2
_geom_bond_distance
_geom_bond_site_symmetry_2
K0 O1 1.870390 1_555
K0 O6 2.713366 1_455
K0 O4 2.813261 1_555
K0 W3 2.905034 1_455
K0 O4 3.033829 1_565
K0 O6 3.119136 1_555
K1 O2 1.876907 1_555
K1 O7 2.641090 1_655
K1 O5 2.822259 1_555
K1 W3 2.840237 1_555
K1 O5 3.017814 1_545
K1 O7 3.191171 1_555
K2 O2 2.040068 1_556
K2 O9 2.082766 1_555
K2 O4 2.851474 1_655
K2 O6 2.870969 1_545
K2 W3 2.980293 1_545
K2 O4 2.980756 1_555
K2 O6 2.996313 1_555
K3 O9 2.024093 1_565
K3 O1 2.043149 1_554
K3 O7 2.874879 1_565
K3 O5 2.904803 1_555
K3 O5 2.926262 1_455
K3 W3 2.929678 1_555
K3 O7 3.006950 1_555
O0 W1 1.980858 1_555
O0 W0 2.143798 1_564
O1 W0 1.946991 1_465
O1 W1 2.199470 1_556
O2 W0 1.946259 1_554
O2 W1 2.191085 1_555
O3 W1 1.958982 1_556
O3 W0 2.136023 1_455
O4 W3 2.674927 1_445
O4 W2 2.875777 1_555
O5 W3 2.710154 1_555
O5 W2 2.826197 1_665
O6 O8 1.942113 1_555
O6 W3 2.771535 1_555
O6 W0 2.795500 1_565
O7 O8 1.921878 1_555
O7 W2 2.625858 1_555
O7 W0 2.785311 1_454
O8 W2 1.901136 1_555
O8 W3 2.326822 1_555
O9 W2 1.888010 1_555
O9 W3 2.227872 1_545
