# generated using pymatgen
data_BaNaLaMnO6
_symmetry_space_group_name_H-M   'P 1'
_cell_length_a   8.51480852
_cell_length_b   8.50428893
_cell_length_c   8.44229337
_cell_angle_alpha   90.00000000
_cell_angle_beta   90.00000000
_cell_angle_gamma   90.00000000
_symmetry_Int_Tables_number   1
_chemical_formula_structural   BaNaLaMnO6
_chemical_formula_sum   'Ba4 Na4 La4 Mn4 O24'
_cell_volume   611.32665552
_cell_formula_units_Z   4
loop_
 _symmetry_equiv_pos_site_id
 _symmetry_equiv_pos_as_xyz
  1  'x, y, z'
loop_
 _atom_site_type_symbol
 _atom_site_label
 _atom_site_symmetry_multiplicity
 _atom_site_fract_x
 _atom_site_fract_y
 _atom_site_fract_z
 _atom_site_occupancy
  Ba  Ba0  1  0.00000000  -0.00000000  0.00000000  1
  Ba  Ba1  1  0.50000000  0.50000000  0.50000000  1
  Ba  Ba2  1  0.50000000  -0.00000000  0.50000000  1
  Ba  Ba3  1  0.00000000  0.50000000  0.00000000  1
  Na  Na0  1  0.00000000  0.50000000  0.50000000  1
  Na  Na1  1  0.50000000  0.50000000  0.00000000  1
  Na  Na2  1  0.50000000  -0.00000000  0.00000000  1
  Na  Na3  1  0.00000000  -0.00000000  0.50000000  1
  La  La0  1  0.75000000  0.75000000  0.75000000  1
  La  La1  1  0.25000000  0.25000000  0.75000000  1
  La  La2  1  0.25000000  0.75000000  0.25000000  1
  La  La3  1  0.75000000  0.25000000  0.25000000  1
  Mn  Mn0  1  0.25000000  0.25000000  0.25000000  1
  Mn  Mn1  1  0.75000000  0.75000000  0.25000000  1
  Mn  Mn2  1  0.75000000  0.25000000  0.75000000  1
  Mn  Mn3  1  0.25000000  0.75000000  0.75000000  1
  O  O0  1  0.02700009  0.22013030  0.26950609  1
  O  O1  1  0.97299991  0.77986970  0.26950609  1
  O  O2  1  0.97299991  0.22013030  0.73049391  1
  O  O3  1  0.02700009  0.77986970  0.73049391  1
  O  O4  1  0.27707025  0.02606381  0.22216167  1
  O  O5  1  0.27707025  0.97393619  0.77783833  1
  O  O6  1  0.72292975  0.97393619  0.22216167  1
  O  O7  1  0.72292975  0.02606381  0.77783833  1
  O  O8  1  0.21959346  0.26992439  0.02560417  1
  O  O9  1  0.78040654  0.26992439  0.97439583  1
  O  O10  1  0.21959346  0.73007561  0.97439583  1
  O  O11  1  0.78040654  0.73007561  0.02560417  1
  O  O12  1  0.47299991  0.27986970  0.23049391  1
  O  O13  1  0.52700009  0.72013030  0.23049391  1
  O  O14  1  0.52700009  0.27986970  0.76950609  1
  O  O15  1  0.47299991  0.72013030  0.76950609  1
  O  O16  1  0.22292975  0.47393619  0.27783833  1
  O  O17  1  0.22292975  0.52606381  0.72216167  1
  O  O18  1  0.77707025  0.52606381  0.27783833  1
  O  O19  1  0.77707025  0.47393619  0.72216167  1
  O  O20  1  0.28040654  0.23007561  0.47439583  1
  O  O21  1  0.71959346  0.23007561  0.52560417  1
  O  O22  1  0.28040654  0.76992439  0.52560417  1
  O  O23  1  0.71959346  0.76992439  0.47439583  1
loop_
_geom_bond_atom_site_label_1
_geom_bond_atom_site_label_2
_geom_bond_distance
_geom_bond_site_symmetry_2
Ba0 O0 2.955367 1_555
Ba0 O1 2.955367 1_445
Ba0 O3 2.955367 1_544
Ba0 O2 2.955367 1_454
Ba0 O10 2.968544 1_544
Ba0 O9 2.968544 1_454
Ba0 O8 2.968544 1_555
Ba0 O11 2.968544 1_445
Ba0 O7 3.022029 1_454
Ba0 O6 3.022029 1_445
Ba0 O5 3.022029 1_544
Ba0 O4 3.022029 1_555
Ba1 O13 2.955367 1_555
Ba1 O15 2.955367 1_555
Ba1 O14 2.955367 1_555
Ba1 O12 2.955367 1_555
Ba1 O23 2.968544 1_555
Ba1 O21 2.968544 1_555
Ba1 O22 2.968544 1_555
Ba1 O20 2.968544 1_555
Ba1 O16 3.022029 1_555
Ba1 O19 3.022029 1_555
Ba1 O17 3.022029 1_555
Ba1 O18 3.022029 1_555
Ba2 O22 2.715007 1_545
Ba2 O21 2.715007 1_555
Ba2 O23 2.715007 1_545
Ba2 O20 2.715007 1_555
Ba2 O5 3.025577 1_545
Ba2 O4 3.025577 1_555
Ba2 O6 3.025577 1_545
Ba2 O7 3.025577 1_555
Ba2 O15 3.300675 1_545
Ba2 O14 3.300675 1_555
Ba2 O13 3.300675 1_545
Ba2 O12 3.300675 1_555
Ba3 O10 2.715007 1_554
Ba3 O8 2.715007 1_555
Ba3 O9 2.715007 1_454
Ba3 O11 2.715007 1_455
Ba3 O16 3.025577 1_555
Ba3 O17 3.025577 1_554
Ba3 O18 3.025577 1_455
Ba3 O19 3.025577 1_454
Ba3 O3 3.300675 1_554
Ba3 O1 3.300675 1_455
Ba3 O0 3.300675 1_555
Ba3 O2 3.300675 1_454
Na0 O19 2.677688 1_455
Na0 O17 2.677688 1_555
Na0 O16 2.677688 1_555
Na0 O18 2.677688 1_455
Na1 O13 2.709972 1_555
Na1 O15 2.709972 1_554
Na1 O14 2.709972 1_554
Na1 O12 2.709972 1_555
Na2 O6 2.677688 1_545
Na2 O4 2.677688 1_555
Na2 O7 2.677688 1_554
Na2 O5 2.677688 1_544
Na3 O3 2.709972 1_545
Na3 O1 2.709972 1_445
Na3 O0 2.709972 1_555
Na3 O2 2.709972 1_455
La0 O23 2.347216 1_555
La0 O11 2.347216 1_556
La0 O7 2.370692 1_565
La0 O19 2.370692 1_555
La0 O15 2.377951 1_555
La0 O3 2.377951 1_655
La1 O20 2.347216 1_555
La1 O8 2.347216 1_556
La1 O17 2.370692 1_555
La1 O5 2.370692 1_545
La1 O14 2.377951 1_555
La1 O2 2.377951 1_455
La2 O22 2.347216 1_555
La2 O10 2.347216 1_554
La2 O4 2.370692 1_565
La2 O16 2.370692 1_555
La2 O13 2.377951 1_555
La2 O1 2.377951 1_455
La3 O21 2.347216 1_555
La3 O9 2.347216 1_554
La3 O6 2.370692 1_545
La3 O18 2.370692 1_555
La3 O12 2.377951 1_555
La3 O0 2.377951 1_655
Mn0 O8 1.919519 1_555
Mn0 O20 1.919519 1_555
Mn0 O0 1.922782 1_555
Mn0 O12 1.922782 1_555
Mn0 O16 1.932659 1_555
Mn0 O4 1.932659 1_555
Mn1 O11 1.919519 1_555
Mn1 O23 1.919519 1_555
Mn1 O1 1.922782 1_555
Mn1 O13 1.922782 1_555
Mn1 O18 1.932659 1_555
Mn1 O6 1.932659 1_555
Mn2 O9 1.919519 1_555
Mn2 O21 1.919519 1_555
Mn2 O14 1.922782 1_555
Mn2 O2 1.922782 1_555
Mn2 O19 1.932659 1_555
Mn2 O7 1.932659 1_555
Mn3 O22 1.919519 1_555
Mn3 O10 1.919519 1_555
Mn3 O3 1.922782 1_555
Mn3 O15 1.922782 1_555
Mn3 O17 1.932659 1_555
Mn3 O5 1.932659 1_555
