# generated using pymatgen
data_Al2O3
_symmetry_space_group_name_H-M   'P 1'
_cell_length_a   10.17152018
_cell_length_b   10.35236064
_cell_length_c   10.54910845
_cell_angle_alpha   92.78968515
_cell_angle_beta   94.75694918
_cell_angle_gamma   92.36575142
_symmetry_Int_Tables_number   1
_chemical_formula_structural   Al2O3
_chemical_formula_sum   'Al40 O60'
_cell_volume   1104.52866143
_cell_formula_units_Z   20
loop_
 _symmetry_equiv_pos_site_id
 _symmetry_equiv_pos_as_xyz
  1  'x, y, z'
loop_
 _atom_site_type_symbol
 _atom_site_label
 _atom_site_symmetry_multiplicity
 _atom_site_fract_x
 _atom_site_fract_y
 _atom_site_fract_z
 _atom_site_occupancy
  Al  Al0  1  0.39769100  0.55542200  0.35522300  1
  Al  Al1  1  0.39170800  0.01813000  0.55808500  1
  Al  Al2  1  0.81981600  0.76748300  0.60327900  1
  Al  Al3  1  0.01831500  0.65253000  0.90648500  1
  Al  Al4  1  0.52880000  0.72643400  0.91782200  1
  Al  Al5  1  0.89868900  0.19047100  0.71379600  1
  Al  Al6  1  0.34715800  0.31782000  0.55175700  1
  Al  Al7  1  0.09495900  0.93250700  0.98279500  1
  Al  Al8  1  0.28642000  0.76918700  0.01805700  1
  Al  Al9  1  0.95986600  0.49832100  0.66818300  1
  Al  Al10  1  0.88099300  0.69287800  0.30847300  1
  Al  Al11  1  0.68480300  0.25488100  0.11256200  1
  Al  Al12  1  0.77747200  0.95482700  0.17513900  1
  Al  Al13  1  0.49368800  0.76653000  0.60147700  1
  Al  Al14  1  0.21169100  0.83854000  0.71414200  1
  Al  Al15  1  0.96143900  0.17035500  0.00794200  1
  Al  Al16  1  0.78810100  0.38988300  0.88711800  1
  Al  Al17  1  0.90767600  0.19029800  0.29962300  1
  Al  Al18  1  0.53173300  0.97182400  0.36370600  1
  Al  Al19  1  0.38231100  0.27213800  0.01953700  1
  Al  Al20  1  0.43941100  0.25735700  0.30994300  1
  Al  Al21  1  0.82258500  0.92900000  0.87395600  1
  Al  Al22  1  0.60442300  0.71128400  0.22251500  1
  Al  Al23  1  0.19303300  0.90740000  0.29526200  1
  Al  Al24  1  0.23465000  0.58388200  0.54528200  1
  Al  Al25  1  0.11982300  0.16316500  0.51621500  1
  Al  Al26  1  0.66144200  0.01721100  0.67283000  1
  Al  Al27  1  0.45400700  0.52162600  0.07694700  1
  Al  Al28  1  0.74435700  0.45415800  0.36443100  1
  Al  Al29  1  0.77055900  0.64893200  0.01218200  1
  Al  Al30  1  0.12912300  0.46397100  0.05401500  1
  Al  Al31  1  0.68366300  0.63938300  0.75030000  1
  Al  Al32  1  0.26786200  0.54173900  0.78883800  1
  Al  Al33  1  0.17978700  0.25887500  0.22990300  1
  Al  Al34  1  0.15503100  0.22270100  0.84138100  1
  Al  Al35  1  0.05962800  0.45542200  0.37056300  1
  Al  Al36  1  0.48837600  0.23091600  0.78151400  1
  Al  Al37  1  0.01752600  0.88689200  0.46142400  1
  Al  Al38  1  0.54841800  0.01160900  0.97103200  1
  Al  Al39  1  0.67849300  0.30901900  0.62291100  1
  O  O0  1  0.61282500  0.87937000  0.25212500  1
  O  O1  1  0.46141900  0.14682400  0.93297200  1
  O  O2  1  0.80192200  0.90987100  0.69378600  1
  O  O3  1  0.50986300  0.69076600  0.75404700  1
  O  O4  1  0.06963400  0.31914800  0.95436900  1
  O  O5  1  0.06721200  0.19454700  0.67777100  1
  O  O6  1  0.28585900  0.15573600  0.58179100  1
  O  O7  1  0.65788600  0.28761700  0.79910900  1
  O  O8  1  0.88809700  0.99113300  0.04575100  1
  O  O9  1  0.43202400  0.63870800  0.21467700  1
  O  O10  1  0.50763100  0.09674900  0.67584200  1
  O  O11  1  0.10777600  0.02383400  0.40742500  1
  O  O12  1  0.75759500  0.15235300  0.60824300  1
  O  O13  1  0.76059400  0.41802000  0.52650400  1
  O  O14  1  0.56394900  0.92160700  0.52840100  1
  O  O15  1  0.59985000  0.63464300  0.06183600  1
  O  O16  1  0.80999800  0.76257400  0.16179000  1
  O  O17  1  0.81791400  0.28590000  0.01835700  1
  O  O18  1  0.68725900  0.52619700  0.86919200  1
  O  O19  1  0.33157300  0.20638300  0.16590400  1
  O  O20  1  0.90715600  0.54905300  0.98795000  1
  O  O21  1  0.21241900  0.84821200  0.88323100  1
  O  O22  1  0.15194600  0.64048400  0.03399400  1
  O  O23  1  0.54408700  0.36021700  0.07748500  1
  O  O24  1  0.35781500  0.88247300  0.64548400  1
  O  O25  1  0.23637200  0.67481700  0.69028200  1
  O  O26  1  0.65893700  0.69510100  0.59148000  1
  O  O27  1  0.10053900  0.40745200  0.20597300  1
  O  O28  1  0.28546300  0.44735600  0.63967200  1
  O  O29  1  0.37561700  0.61729800  0.93459300  1
  O  O30  1  0.65476300  0.07852800  0.10627400  1
  O  O31  1  0.30443600  0.42521600  0.06271100  1
  O  O32  1  0.05499600  0.52201700  0.53792800  1
  O  O33  1  0.88198000  0.36395000  0.74474200  1
  O  O34  1  0.71536000  0.76571200  0.90039700  1
  O  O35  1  0.22710500  0.52531400  0.38320400  1
  O  O36  1  0.76699800  0.29906300  0.26886300  1
  O  O37  1  0.39853400  0.65826700  0.49436600  1
  O  O38  1  0.20270800  0.88979200  0.12544000  1
  O  O39  1  0.69593800  0.61227700  0.32033400  1
  O  O40  1  0.06803200  0.78660200  0.33033100  1
  O  O41  1  0.02803200  0.17031700  0.17924200  1
  O  O42  1  0.96955400  0.81664100  0.90673200  1
  O  O43  1  0.50687500  0.33147600  0.61731500  1
  O  O44  1  0.02497800  0.27565400  0.41770900  1
  O  O45  1  0.35250100  0.94474800  0.38039500  1
  O  O46  1  0.84746400  0.03325500  0.31677500  1
  O  O47  1  0.50064200  0.41956700  0.34308900  1
  O  O48  1  0.09078300  0.52994800  0.80731700  1
  O  O49  1  0.07340100  0.88522600  0.62072600  1
  O  O50  1  0.87028500  0.63942600  0.71150300  1
  O  O51  1  0.89666500  0.10304000  0.84853800  1
  O  O52  1  0.91010700  0.52667100  0.32157400  1
  O  O53  1  0.45959100  0.85893600  0.99940000  1
  O  O54  1  0.31986000  0.30042900  0.84142900  1
  O  O55  1  0.13302700  0.09272900  0.94642500  1
  O  O56  1  0.86689300  0.79241500  0.45172500  1
  O  O57  1  0.53573400  0.13939600  0.37148800  1
  O  O58  1  0.28354500  0.27703500  0.38530000  1
  O  O59  1  0.65171100  0.98851600  0.84732500  1
loop_
_geom_bond_atom_site_label_1
_geom_bond_atom_site_label_2
_geom_bond_distance
_geom_bond_site_symmetry_2
Al0 O37 1.770088 1_555
Al0 O47 1.793671 1_555
Al0 O35 1.801158 1_555
Al0 O9 1.802501 1_555
Al1 O24 1.754975 1_545
Al1 O10 1.781934 1_555
Al1 O6 1.840553 1_555
Al1 O45 1.990523 1_545
Al1 O14 2.090678 1_545
Al2 O56 1.734612 1_555
Al2 O2 1.741125 1_555
Al2 O26 1.763701 1_555
Al2 O50 1.852212 1_555
Al3 O42 1.789338 1_455
Al3 O20 1.820779 1_455
Al3 O48 1.823189 1_555
Al3 O22 1.843760 1_556
Al3 O50 2.441023 1_455
Al4 O3 1.742171 1_555
Al4 O53 1.784104 1_555
Al4 O29 1.911888 1_555
Al4 O15 1.936080 1_556
Al4 O34 1.949728 1_555
Al5 O51 1.722965 1_555
Al5 O12 1.760863 1_555
Al5 O5 1.785524 1_655
Al5 O33 1.827049 1_555
Al6 O43 1.709578 1_555
Al6 O28 1.759871 1_555
Al6 O6 1.817362 1_555
Al6 O58 1.843151 1_555
Al7 O55 1.755535 1_565
Al7 O42 1.822061 1_455
Al7 O38 1.868770 1_556
Al7 O21 1.870048 1_555
Al7 O8 2.352577 1_456
Al8 O21 1.801471 1_554
Al8 O22 1.893114 1_555
Al8 O38 1.917598 1_555
Al8 O53 1.986140 1_554
Al8 O29 2.046055 1_554
Al9 O32 1.765864 1_655
Al9 O50 1.812979 1_555
Al9 O33 1.827406 1_555
Al9 O48 1.904664 1_655
Al10 O52 1.767995 1_555
Al10 O56 1.806272 1_555
Al10 O16 1.844664 1_555
Al10 O39 2.043153 1_555
Al10 O40 2.089749 1_655
Al11 O17 1.772627 1_555
Al11 O36 1.814725 1_555
Al11 O30 1.835655 1_555
Al11 O23 1.858752 1_555
Al12 O46 1.748213 1_565
Al12 O8 1.881536 1_555
Al12 O30 1.948756 1_565
Al12 O16 2.031077 1_555
Al12 O0 2.062464 1_555
Al13 O37 1.753687 1_555
Al13 O3 1.822713 1_555
Al13 O26 1.872843 1_555
Al13 O24 1.937869 1_555
Al13 O14 1.949226 1_555
Al14 O25 1.732977 1_555
Al14 O49 1.748105 1_555
Al14 O24 1.759357 1_555
Al14 O21 1.781057 1_555
Al15 O51 1.847069 1_554
Al15 O41 1.876528 1_655
Al15 O17 1.931855 1_555
Al15 O4 1.987752 1_654
Al15 O8 2.040861 1_545
Al15 O55 2.089478 1_654
Al16 O18 1.786774 1_555
Al16 O17 1.808271 1_556
Al16 O7 1.822542 1_555
Al16 O33 1.859974 1_555
Al16 O20 2.182680 1_555
Al17 O46 1.736593 1_555
Al17 O44 1.820843 1_655
Al17 O41 1.845893 1_655
Al17 O36 1.874081 1_555
Al18 O57 1.731347 1_565
Al18 O0 1.760249 1_555
Al18 O14 1.844912 1_555
Al18 O45 1.857140 1_555
Al19 O1 1.804737 1_554
Al19 O19 1.821882 1_555
Al19 O31 1.854565 1_555
Al19 O23 1.888874 1_555
Al19 O54 1.972422 1_554
Al20 O57 1.715560 1_555
Al20 O47 1.774949 1_555
Al20 O19 1.840697 1_555
Al20 O58 1.845765 1_555
Al21 O59 1.871797 1_555
Al21 O2 1.894589 1_555
Al21 O8 1.947560 1_556
Al21 O42 1.950444 1_555
Al21 O51 1.963247 1_565
Al21 O34 2.017165 1_555
Al22 O39 1.733274 1_555
Al22 O0 1.750189 1_555
Al22 O15 1.832412 1_555
Al22 O9 1.872818 1_555
Al22 O16 2.286533 1_555
Al23 O38 1.803112 1_555
Al23 O45 1.805502 1_555
Al23 O40 1.819090 1_555
Al23 O11 1.929402 1_565
Al24 O25 1.755076 1_555
Al24 O35 1.780544 1_555
Al24 O28 1.835253 1_555
Al24 O32 1.905374 1_555
Al24 O37 1.934683 1_555
Al25 O6 1.777292 1_555
Al25 O11 1.792643 1_555
Al25 O5 1.846125 1_555
Al25 O44 1.846864 1_555
Al26 O10 1.799636 1_555
Al26 O2 1.851495 1_545
Al26 O12 1.862364 1_555
Al26 O59 1.888778 1_545
Al26 O14 1.950867 1_545
Al27 O31 1.776347 1_555
Al27 O15 1.873230 1_555
Al27 O9 1.880149 1_555
Al27 O23 1.938589 1_555
Al27 O29 1.970588 1_554
Al28 O13 1.763782 1_555
Al28 O39 1.800301 1_555
Al28 O36 1.886488 1_555
Al28 O52 1.914484 1_555
Al28 O47 2.480005 1_555
Al29 O20 1.793510 1_554
Al29 O34 1.803434 1_554
Al29 O15 1.856993 1_555
Al29 O16 1.926422 1_555
Al29 O18 2.029832 1_554
Al30 O27 1.775137 1_555
Al30 O31 1.839755 1_555
Al30 O4 1.839862 1_554
Al30 O22 1.856959 1_555
Al30 O20 2.514332 1_454
Al31 O18 1.756795 1_555
Al31 O26 1.799756 1_555
Al31 O3 1.869986 1_555
Al31 O50 1.974736 1_555
Al31 O34 2.000093 1_555
Al32 O25 1.789448 1_555
Al32 O48 1.827426 1_555
Al32 O28 1.836946 1_555
Al32 O29 1.926123 1_555
Al33 O27 1.784854 1_555
Al33 O41 1.790922 1_555
Al33 O19 1.827880 1_555
Al33 O58 1.871668 1_555
Al34 O55 1.802733 1_555
Al34 O4 1.816469 1_555
Al34 O54 1.829424 1_555
Al34 O5 1.880307 1_555
Al35 O52 1.767336 1_455
Al35 O35 1.815041 1_555
Al35 O27 1.867458 1_555
Al35 O32 1.868872 1_555
Al35 O44 1.974841 1_555
Al36 O10 1.765826 1_555
Al36 O7 1.790125 1_555
Al36 O1 1.890551 1_555
Al36 O54 2.023019 1_555
Al36 O43 2.081567 1_555
Al37 O49 1.729909 1_555
Al37 O56 1.776273 1_455
Al37 O11 1.798576 1_565
Al37 O40 1.810085 1_555
Al38 O1 1.732552 1_555
Al38 O59 1.755508 1_545
Al38 O30 1.808695 1_556
Al38 O53 1.837643 1_545
Al39 O43 1.767047 1_555
Al39 O13 1.783195 1_555
Al39 O12 1.845452 1_555
Al39 O7 1.910178 1_555
Al39 O33 2.376886 1_555
