# generated using pymatgen
data_CoF3
_symmetry_space_group_name_H-M   'P 1'
_cell_length_a   5.41894484
_cell_length_b   5.42717682
_cell_length_c   8.59049045
_cell_angle_alpha   71.58449244
_cell_angle_beta   107.96411287
_cell_angle_gamma   90.00177775
_symmetry_Int_Tables_number   1
_chemical_formula_structural   CoF3
_chemical_formula_sum   'Co4 F12'
_cell_volume   226.68760094
_cell_formula_units_Z   4
loop_
 _symmetry_equiv_pos_site_id
 _symmetry_equiv_pos_as_xyz
  1  'x, y, z'
loop_
 _atom_site_type_symbol
 _atom_site_label
 _atom_site_symmetry_multiplicity
 _atom_site_fract_x
 _atom_site_fract_y
 _atom_site_fract_z
 _atom_site_occupancy
  Co  Co0  1  0.49977100  0.50023700  0.99958600  1
  Co  Co1  1  0.75021800  0.24983000  0.50041000  1
  Co  Co2  1  0.99977300  0.00017900  0.99957000  1
  Co  Co3  1  0.25022000  0.74975100  0.50043000  1
  F  F0  1  0.74201500  0.25792000  0.99987000  1
  F  F1  1  0.00786800  0.99191900  0.50015700  1
  F  F2  1  0.25722900  0.74290400  0.99844500  1
  F  F3  1  0.49293300  0.50718900  0.50163200  1
  F  F4  1  0.12500300  0.87455700  0.24999800  1
  F  F5  1  0.37500300  0.62500100  0.75000700  1
  F  F6  1  0.62499600  0.37534200  0.25001100  1
  F  F7  1  0.87500700  0.12508900  0.74999100  1
  F  F8  1  0.50781400  0.00788900  0.50011500  1
  F  F9  1  0.75728700  0.75872300  0.99844800  1
  F  F10  1  0.99289600  0.49122100  0.50155000  1
  F  F11  1  0.24196700  0.24225000  0.99978200  1
loop_
_geom_bond_atom_site_label_1
_geom_bond_atom_site_label_2
_geom_bond_distance
_geom_bond_site_symmetry_2
Co0 F2 1.856347 1_555
Co0 F0 1.857092 1_555
Co0 F5 1.923801 1_555
Co0 F6 1.930324 1_556
Co0 F11 1.977857 1_555
Co0 F9 1.978644 1_555
Co1 F10 1.856291 1_555
Co1 F8 1.857294 1_555
Co1 F7 1.923817 1_555
Co1 F6 1.930124 1_555
Co1 F1 1.978007 1_645
Co1 F3 1.978185 1_555
Co2 F9 1.855804 1_545
Co2 F11 1.856985 1_655
Co2 F7 1.923801 1_555
Co2 F4 1.930348 1_646
Co2 F0 1.977946 1_555
Co2 F2 1.978146 1_645
Co3 F3 1.856369 1_555
Co3 F1 1.856975 1_555
Co3 F5 1.923786 1_555
Co3 F4 1.930378 1_555
Co3 F8 1.977628 1_565
Co3 F10 1.978078 1_455
