# generated using pymatgen
data_Y(GaFe)6
_symmetry_space_group_name_H-M   'P 1'
_cell_length_a   5.05048000
_cell_length_b   6.59346119
_cell_length_c   6.59346119
_cell_angle_alpha   80.69176797
_cell_angle_beta   67.48088957
_cell_angle_gamma   67.48088957
_symmetry_Int_Tables_number   1
_chemical_formula_structural   Y(GaFe)6
_chemical_formula_sum   'Y1 Ga6 Fe6'
_cell_volume   187.32792539
_cell_formula_units_Z   1
loop_
 _symmetry_equiv_pos_site_id
 _symmetry_equiv_pos_as_xyz
  1  'x, y, z'
loop_
 _atom_site_type_symbol
 _atom_site_label
 _atom_site_symmetry_multiplicity
 _atom_site_fract_x
 _atom_site_fract_y
 _atom_site_fract_z
 _atom_site_occupancy
  Y  Y0  1  0.00000000  0.00000000  0.00000000  1
  Ga  Ga0  1  0.00000000  0.66593900  0.33406100  1
  Ga  Ga1  1  0.00000000  0.33406100  0.66593900  1
  Ga  Ga2  1  0.34357300  0.65642700  0.65642700  1
  Ga  Ga3  1  0.65642700  0.34357300  0.34357300  1
  Ga  Ga4  1  0.31852400  0.18147600  0.18147600  1
  Ga  Ga5  1  0.68147600  0.81852400  0.81852400  1
  Fe  Fe0  1  0.50000000  0.24502300  0.75497700  1
  Fe  Fe1  1  0.50000000  0.75497700  0.24502300  1
  Fe  Fe2  1  0.00000000  0.50000000  0.00000000  1
  Fe  Fe3  1  0.50000000  0.50000000  0.00000000  1
  Fe  Fe4  1  0.00000000  0.00000000  0.50000000  1
  Fe  Fe5  1  0.50000000  0.00000000  0.50000000  1
loop_
_geom_bond_atom_site_label_1
_geom_bond_atom_site_label_2
_geom_bond_distance
_geom_bond_site_symmetry_2
Ga0 Ga1 2.833315 1_555
Ga0 Y0 2.851952 1_565
Ga1 Y0 2.851952 1_556
Ga2 Ga3 2.718474 1_555
Ga2 Ga5 2.891492 1_455
Ga2 Ga5 2.891492 1_555
Ga2 Y0 2.985400 1_566
Ga3 Ga4 2.891492 1_555
Ga3 Ga4 2.891492 1_655
Ga3 Y0 2.985400 1_655
Ga4 Y0 2.977152 1_655
Ga4 Y0 2.977152 1_555
Ga5 Y0 2.977152 1_566
Ga5 Y0 2.977152 1_666
Fe0 Fe5 2.512963 1_555
Fe0 Fe4 2.512963 1_655
Fe0 Fe3 2.512963 1_556
Fe0 Fe2 2.512963 1_556
Fe0 Ga3 2.566312 1_555
Fe0 Ga2 2.566312 1_555
Fe0 Ga4 2.619597 1_556
Fe0 Ga5 2.619597 1_545
Fe0 Ga1 2.637166 1_555
Fe0 Ga1 2.637166 1_655
Fe0 Y0 3.279104 1_556
Fe0 Y0 3.279104 1_656
Fe1 Fe5 2.512963 1_565
Fe1 Fe3 2.512963 1_555
Fe1 Fe4 2.512963 1_565
Fe1 Fe2 2.512963 1_655
Fe1 Ga3 2.566312 1_555
Fe1 Ga2 2.566312 1_555
Fe1 Ga5 2.619597 1_554
Fe1 Ga4 2.619597 1_565
Fe1 Ga0 2.637166 1_655
Fe1 Ga0 2.637166 1_555
Fe1 Y0 3.279104 1_665
Fe1 Y0 3.279104 1_565
Fe2 Fe3 2.525240 1_555
Fe2 Fe3 2.525240 1_455
Fe2 Ga5 2.550293 1_454
Fe2 Ga4 2.550293 1_555
Fe2 Ga2 2.609706 1_554
Fe2 Ga3 2.609706 1_455
Fe2 Ga0 2.613081 1_555
Fe2 Ga1 2.613081 1_554
Fe2 Y0 3.296731 1_555
Fe2 Y0 3.296731 1_565
Fe3 Ga5 2.550293 1_554
Fe3 Ga4 2.550293 1_555
Fe3 Ga3 2.609706 1_555
Fe3 Ga2 2.609706 1_554
Fe3 Ga0 2.613081 1_555
Fe3 Ga1 2.613081 1_654
Fe3 Y0 3.296731 1_655
Fe3 Y0 3.296731 1_565
Fe4 Fe5 2.525240 1_455
Fe4 Fe5 2.525240 1_555
Fe4 Ga4 2.550293 1_555
Fe4 Ga5 2.550293 1_445
Fe4 Ga2 2.609706 1_545
Fe4 Ga3 2.609706 1_455
Fe4 Ga1 2.613081 1_555
Fe4 Ga0 2.613081 1_545
Fe4 Y0 3.296731 1_555
Fe4 Y0 3.296731 1_556
Fe5 Ga5 2.550293 1_545
Fe5 Ga4 2.550293 1_555
Fe5 Ga3 2.609706 1_555
Fe5 Ga2 2.609706 1_545
Fe5 Ga0 2.613081 1_645
Fe5 Ga1 2.613081 1_555
Fe5 Y0 3.296731 1_655
Fe5 Y0 3.296731 1_556
