# generated using pymatgen
data_Re3Se2Br5
_symmetry_space_group_name_H-M   'P 1'
_cell_length_a   9.90215448
_cell_length_b   9.89098844
_cell_length_c   13.13405496
_cell_angle_alpha   83.30098114
_cell_angle_beta   84.22460976
_cell_angle_gamma   82.79544271
_symmetry_Int_Tables_number   1
_chemical_formula_structural   Re3Se2Br5
_chemical_formula_sum   'Re12 Se8 Br20'
_cell_volume   1262.67038784
_cell_formula_units_Z   4
loop_
 _symmetry_equiv_pos_site_id
 _symmetry_equiv_pos_as_xyz
  1  'x, y, z'
loop_
 _atom_site_type_symbol
 _atom_site_label
 _atom_site_symmetry_multiplicity
 _atom_site_fract_x
 _atom_site_fract_y
 _atom_site_fract_z
 _atom_site_occupancy
  Re  Re0  1  0.07166900  0.05368600  0.11270200  1
  Re  Re1  1  0.02941900  0.81620200  0.05509100  1
  Re  Re2  1  0.17741800  0.98010700  0.93147900  1
  Re  Re3  1  0.32693200  0.60028800  0.49833100  1
  Re  Re4  1  0.41952500  0.33614700  0.50505400  1
  Re  Re5  1  0.48631000  0.49042600  0.64424400  1
  Re  Re6  1  0.51342900  0.50940900  0.35607000  1
  Re  Re7  1  0.58006000  0.66360200  0.49527300  1
  Re  Re8  1  0.67278700  0.39958500  0.50203300  1
  Re  Re9  1  0.82347400  0.01854800  0.06450900  1
  Re  Re10  1  0.97341100  0.18210300  0.93994500  1
  Re  Re11  1  0.93218700  0.94546900  0.88357900  1
  Se  Se0  1  0.07503200  0.10305500  0.77119800  1
  Se  Se1  1  0.13029200  0.75535700  0.88138000  1
  Se  Se2  1  0.27446400  0.44898200  0.36667300  1
  Se  Se3  1  0.25899200  0.85939500  0.09885000  1
  Se  Se4  1  0.40094000  0.74016800  0.63089500  1
  Se  Se5  1  0.59862600  0.25954100  0.36964900  1
  Se  Se6  1  0.74143400  0.14072200  0.90037200  1
  Se  Se7  1  0.72516800  0.55114600  0.63360000  1
  Br  Br0  1  0.06547400  0.57076400  0.13328100  1
  Br  Br1  1  0.16666900  0.12794200  0.26388100  1
  Br  Br2  1  0.09381600  0.73599200  0.49509700  1
  Br  Br3  1  0.23064500  0.43352100  0.64681400  1
  Br  Br4  1  0.21899700  0.21751900  0.99300200  1
  Br  Br5  1  0.30870500  0.11988100  0.51901600  1
  Br  Br6  1  0.41719600  0.77378900  0.35146900  1
  Br  Br7  1  0.58436200  0.04383800  0.15193200  1
  Br  Br8  1  0.46565500  0.47216900  0.83853800  1
  Br  Br9  1  0.53367100  0.52729900  0.16155700  1
  Br  Br10  1  0.41893400  0.95560800  0.84523500  1
  Br  Br11  1  0.58272400  0.22585600  0.64861400  1
  Br  Br12  1  0.69075700  0.88024600  0.48064800  1
  Br  Br13  1  0.77891900  0.78377500  0.01338200  1
  Br  Br14  1  0.76923900  0.56610100  0.35322300  1
  Br  Br15  1  0.86212500  0.25137200  0.12289400  1
  Br  Br16  1  0.90593900  0.26409900  0.50508900  1
  Br  Br17  1  0.83371000  0.87016500  0.73342100  1
  Br  Br18  1  0.92457400  0.89755100  0.23717500  1
  Br  Br19  1  0.93631800  0.42858100  0.86480800  1
loop_
_geom_bond_atom_site_label_1
_geom_bond_atom_site_label_2
_geom_bond_distance
_geom_bond_site_symmetry_2
Re0 Se3 2.507262 1_545
Re1 Se3 2.498882 1_555
Re1 Se1 2.505234 1_554
Re2 Se1 2.501143 1_555
Re2 Se3 2.532485 1_556
Re2 Se0 2.541920 1_565
Re3 Se2 2.545464 1_555
Re3 Se4 2.560436 1_555
Re4 Se5 2.494936 1_555
Re4 Se2 2.502450 1_555
Re5 Se7 2.498923 1_555
Re5 Se4 2.500447 1_555
Re6 Se2 2.498968 1_555
Re6 Se5 2.501205 1_555
Re7 Se4 2.496861 1_555
Re7 Se7 2.501124 1_555
Re8 Se7 2.545996 1_555
Re8 Se5 2.560316 1_555
Re9 Se6 2.503214 1_554
Re10 Se6 2.497989 1_555
Re10 Se0 2.508807 1_655
Re11 Se0 2.490965 1_665
Re11 Se6 2.539041 1_565
Re11 Se1 2.541831 1_655
Br0 Re1 2.519961 1_555
Br1 Re0 2.501281 1_555
Br2 Re3 2.522141 1_555
Br3 Re3 2.588986 1_555
Br3 Re5 2.657608 1_555
Br3 Re4 2.675448 1_555
Br4 Re0 2.600546 1_556
Br4 Re2 2.662487 1_545
Br4 Re10 2.670916 1_455
Br5 Re4 2.504048 1_555
Br6 Re3 2.594219 1_555
Br6 Re7 2.654774 1_555
Br6 Re6 2.664492 1_555
Br7 Re9 2.521586 1_555
Br8 Re5 2.526496 1_555
Br9 Re6 2.529540 1_555
Br10 Re2 2.536670 1_555
Br11 Re8 2.592583 1_555
Br11 Re4 2.654796 1_555
Br11 Re5 2.666843 1_555
Br12 Re7 2.506162 1_555
Br13 Re9 2.591966 1_565
Br13 Re1 2.658912 1_655
Br13 Re11 2.686930 1_554
Br14 Re8 2.590877 1_555
Br14 Re6 2.657929 1_555
Br14 Re7 2.680163 1_555
Br15 Re9 2.594187 1_555
Br15 Re10 2.668204 1_554
Br15 Re0 2.670965 1_655
Br16 Re8 2.521441 1_555
Br17 Re11 2.511396 1_555
Br18 Re0 2.583626 1_665
Br18 Re9 2.664701 1_565
Br18 Re1 2.680347 1_655
Br19 Re10 2.517786 1_555
