# generated using pymatgen
data_YSb3Se2ClO8
_symmetry_space_group_name_H-M   'P 1'
_cell_length_a   7.55450700
_cell_length_b   7.71359900
_cell_length_c   9.61941000
_cell_angle_alpha   90.00000000
_cell_angle_beta   90.00000000
_cell_angle_gamma   90.00000000
_symmetry_Int_Tables_number   1
_chemical_formula_structural   YSb3Se2ClO8
_chemical_formula_sum   'Y2 Sb6 Se4 Cl2 O16'
_cell_volume   560.54646937
_cell_formula_units_Z   2
loop_
 _symmetry_equiv_pos_site_id
 _symmetry_equiv_pos_as_xyz
  1  'x, y, z'
loop_
 _atom_site_type_symbol
 _atom_site_label
 _atom_site_symmetry_multiplicity
 _atom_site_fract_x
 _atom_site_fract_y
 _atom_site_fract_z
 _atom_site_occupancy
  Y  Y0  1  0.00000000  0.16908400  0.00000000  1
  Y  Y1  1  0.50000000  0.83091600  0.50000000  1
  Sb  Sb0  1  0.25000000  0.50000000  0.75000000  1
  Sb  Sb1  1  0.25000000  0.50000000  0.25000000  1
  Sb  Sb2  1  0.75000000  0.50000000  0.75000000  1
  Sb  Sb3  1  0.50000000  0.37146800  0.50000000  1
  Sb  Sb4  1  0.00000000  0.62853200  0.00000000  1
  Sb  Sb5  1  0.75000000  0.50000000  0.25000000  1
  Se  Se0  1  0.50000000  0.08746400  0.82382400  1
  Se  Se1  1  0.00000000  0.91253600  0.67617600  1
  Se  Se2  1  0.50000000  0.08746400  0.17617600  1
  Se  Se3  1  0.00000000  0.91253600  0.32382400  1
  Cl  Cl0  1  0.00000000  0.41669700  0.50000000  1
  Cl  Cl1  1  0.50000000  0.58330300  0.00000000  1
  O  O0  1  0.00000000  0.40052500  0.85501100  1
  O  O1  1  0.00000000  0.94025700  0.85558600  1
  O  O2  1  0.50000000  0.05974300  0.35558600  1
  O  O3  1  0.31608800  0.22052200  0.84518800  1
  O  O4  1  0.18391200  0.77947800  0.34518800  1
  O  O5  1  0.81608800  0.77947800  0.34518800  1
  O  O6  1  0.50000000  0.59947500  0.64498900  1
  O  O7  1  0.68391200  0.22052200  0.84518800  1
  O  O8  1  0.68391200  0.22052200  0.15481200  1
  O  O9  1  0.81608800  0.77947800  0.65481200  1
  O  O10  1  0.00000000  0.40052500  0.14498900  1
  O  O11  1  0.50000000  0.59947500  0.35501100  1
  O  O12  1  0.18391200  0.77947800  0.65481200  1
  O  O13  1  0.31608800  0.22052200  0.15481200  1
  O  O14  1  0.50000000  0.05974300  0.64441400  1
  O  O15  1  0.00000000  0.94025700  0.14441400  1
loop_
_geom_bond_atom_site_label_1
_geom_bond_atom_site_label_2
_geom_bond_distance
_geom_bond_site_symmetry_2
Cl0 Sb2 3.124599 1_455
Cl0 Sb1 3.124599 1_555
Cl0 Sb5 3.124599 1_455
Cl0 Sb0 3.124599 1_555
Cl1 Sb2 3.124599 1_554
Cl1 Sb5 3.124599 1_555
Cl1 Sb1 3.124599 1_555
Cl1 Sb0 3.124599 1_554
O0 Sb4 2.244645 1_556
O0 Y0 2.265459 1_556
O0 Sb0 2.275097 1_555
O0 Sb2 2.275097 1_455
O1 Se1 1.739015 1_555
O1 Y0 2.246179 1_566
O2 Se2 1.739015 1_555
O2 Y1 2.246179 1_545
O3 Se0 1.739533 1_555
O3 Sb0 2.394802 1_555
O3 Y0 2.842034 1_556
O4 Se3 1.739533 1_555
O4 Sb1 2.394802 1_555
O4 Y1 2.842034 1_555
O5 Se3 1.739533 1_655
O5 Sb5 2.394802 1_555
O5 Y1 2.842034 1_555
O6 Sb3 2.244645 1_555
O6 Y1 2.265459 1_555
O6 Sb2 2.275097 1_555
O6 Sb0 2.275097 1_555
O7 Se0 1.739533 1_555
O7 Sb2 2.394802 1_555
O7 Y0 2.842034 1_656
O8 Se2 1.739533 1_555
O8 Sb5 2.394802 1_555
O8 Y0 2.842034 1_655
O9 Se1 1.739533 1_655
O9 Sb2 2.394802 1_555
O9 Y1 2.842034 1_555
O10 Sb4 2.244645 1_555
O10 Y0 2.265459 1_555
O10 Sb1 2.275097 1_555
O10 Sb5 2.275097 1_455
O11 Sb3 2.244645 1_555
O11 Y1 2.265459 1_555
O11 Sb5 2.275097 1_555
O11 Sb1 2.275097 1_555
O12 Se1 1.739533 1_555
O12 Sb0 2.394802 1_555
O12 Y1 2.842034 1_555
O13 Se2 1.739533 1_555
O13 Sb1 2.394802 1_555
O13 Y0 2.842034 1_555
O14 Se0 1.739015 1_555
O14 Y1 2.246179 1_545
O15 Se3 1.739015 1_555
O15 Y0 2.246179 1_565
