# generated using pymatgen
data_Na(CoO2)3
_symmetry_space_group_name_H-M   'P 1'
_cell_length_a   4.93931706
_cell_length_b   7.17011301
_cell_length_c   7.17070279
_cell_angle_alpha   73.02305625
_cell_angle_beta   96.34285248
_cell_angle_gamma   96.26392545
_symmetry_Int_Tables_number   1
_chemical_formula_structural   Na(CoO2)3
_chemical_formula_sum   'Na2 Co6 O12'
_cell_volume   240.61001290
_cell_formula_units_Z   2
loop_
 _symmetry_equiv_pos_site_id
 _symmetry_equiv_pos_as_xyz
  1  'x, y, z'
loop_
 _atom_site_type_symbol
 _atom_site_label
 _atom_site_symmetry_multiplicity
 _atom_site_fract_x
 _atom_site_fract_y
 _atom_site_fract_z
 _atom_site_occupancy
  Na  Na0  1  0.24780300  0.08226400  0.41529300  1
  Na  Na1  1  0.75208200  0.58483000  0.91762800  1
  Co  Co0  1  0.00005700  0.33178300  0.66820700  1
  Co  Co1  1  0.49943600  0.83848600  0.16163700  1
  Co  Co2  1  0.99979900  0.66563400  0.33435800  1
  Co  Co3  1  0.50030500  0.16676800  0.83310000  1
  Co  Co4  1  0.49981500  0.49880700  0.50130000  1
  Co  Co5  1  0.00023200  0.00069000  0.99918300  1
  O  O0  1  0.88571400  0.91900100  0.25846300  1
  O  O1  1  0.36017100  0.41763200  0.75095900  1
  O  O2  1  0.63990100  0.24911400  0.58228500  1
  O  O3  1  0.11425800  0.74088200  0.08130700  1
  O  O4  1  0.35840300  0.09601400  0.07826500  1
  O  O5  1  0.85793300  0.58034200  0.58984800  1
  O  O6  1  0.35172600  0.74495600  0.42601700  1
  O  O7  1  0.85856500  0.25641800  0.91356800  1
  O  O8  1  0.14189500  0.08638400  0.74357300  1
  O  O9  1  0.64742900  0.57452700  0.25486000  1
  O  O10  1  0.14178300  0.41009700  0.41968900  1
  O  O11  1  0.64269300  0.92203500  0.90379100  1
loop_
_geom_bond_atom_site_label_1
_geom_bond_atom_site_label_2
_geom_bond_distance
_geom_bond_site_symmetry_2
Na0 O0 2.387711 1_445
Na0 O10 2.473068 1_555
Na0 O8 2.476266 1_555
Na0 O6 2.504455 1_545
Na0 O4 2.507896 1_555
Na0 O2 2.536622 1_555
Na1 O3 2.386605 1_656
Na1 O5 2.473499 1_555
Na1 O7 2.477096 1_555
Na1 O11 2.506123 1_555
Na1 O9 2.506759 1_556
Na1 O1 2.536110 1_555
Co0 O8 1.873204 1_555
Co0 O7 1.873506 1_455
Co0 O5 1.893623 1_455
Co0 O10 1.893819 1_555
Co0 O1 1.906833 1_555
Co0 O2 1.906967 1_455
Co1 O4 1.948401 1_565
Co1 O11 1.956496 1_554
Co1 O9 2.004569 1_555
Co1 O6 2.008098 1_555
Co1 O3 2.035647 1_555
Co1 O0 2.038781 1_555
Co2 O3 1.868612 1_655
Co2 O0 1.868762 1_555
Co2 O6 1.878083 1_655
Co2 O9 1.879112 1_555
Co2 O10 1.937569 1_655
Co2 O5 1.938362 1_555
Co3 O11 1.871328 1_545
Co3 O4 1.874314 1_556
Co3 O7 1.902696 1_555
Co3 O8 1.902786 1_555
Co3 O2 1.903615 1_555
Co3 O1 1.903768 1_555
Co4 O6 1.891945 1_555
Co4 O9 1.893994 1_555
Co4 O2 1.896224 1_555
Co4 O1 1.896361 1_555
Co4 O5 1.901775 1_555
Co4 O10 1.902011 1_555
Co5 O0 1.908887 1_446
Co5 O11 1.909380 1_445
Co5 O3 1.910302 1_546
Co5 O4 1.912935 1_556
Co5 O7 1.938120 1_455
Co5 O8 1.938701 1_555
