# generated using pymatgen
data_CoH10SeO9
_symmetry_space_group_name_H-M   'P 1'
_cell_length_a   6.17139183
_cell_length_b   6.43692120
_cell_length_c   10.90689567
_cell_angle_alpha   104.64631569
_cell_angle_beta   98.70859140
_cell_angle_gamma   70.87226080
_symmetry_Int_Tables_number   1
_chemical_formula_structural   CoH10SeO9
_chemical_formula_sum   'Co2 H20 Se2 O18'
_cell_volume   394.93563860
_cell_formula_units_Z   2
loop_
 _symmetry_equiv_pos_site_id
 _symmetry_equiv_pos_as_xyz
  1  'x, y, z'
loop_
 _atom_site_type_symbol
 _atom_site_label
 _atom_site_symmetry_multiplicity
 _atom_site_fract_x
 _atom_site_fract_y
 _atom_site_fract_z
 _atom_site_occupancy
  Co  Co0  1  0.00000000  0.00000000  0.00000000  1
  Co  Co1  1  0.00000000  0.50000000  0.50000000  1
  H  H0  1  0.76811200  0.71908700  0.01326500  1
  H  H1  1  0.23188800  0.28091300  0.98673500  1
  H  H2  1  0.74643500  0.90212300  0.14674400  1
  H  H3  1  0.25356500  0.09787700  0.85325600  1
  H  H4  1  0.91228200  0.33715900  0.20360100  1
  H  H5  1  0.08771800  0.66284100  0.79639900  1
  H  H6  1  0.66594400  0.35900500  0.12777300  1
  H  H7  1  0.33405600  0.64099500  0.87222700  1
  H  H8  1  0.64794900  0.33521300  0.35941400  1
  H  H9  1  0.35205100  0.66478700  0.64058600  1
  H  H10  1  0.54866800  0.60678900  0.39865100  1
  H  H11  1  0.45133200  0.39321100  0.60134900  1
  H  H12  1  0.10175600  0.80588400  0.40563800  1
  H  H13  1  0.89824400  0.19411600  0.59436200  1
  H  H14  1  0.82662000  0.86615400  0.39031600  1
  H  H15  1  0.17338000  0.13384600  0.60968400  1
  H  H16  1  0.29216700  0.61807400  0.12736000  1
  H  H17  1  0.70783300  0.38192600  0.87264000  1
  H  H18  1  0.25123700  0.44406700  0.19187000  1
  H  H19  1  0.74876300  0.55593300  0.80813000  1
  Se  Se0  1  0.34806000  0.02706200  0.28901700  1
  Se  Se1  1  0.65194000  0.97293800  0.71098300  1
  O  O0  1  0.28195800  0.90861100  0.13772900  1
  O  O1  1  0.71804200  0.09138900  0.86227100  1
  O  O2  1  0.61614900  0.04512200  0.29828300  1
  O  O3  1  0.38385100  0.95487800  0.70171700  1
  O  O4  1  0.33788000  0.86935500  0.38696200  1
  O  O5  1  0.66212000  0.13064500  0.61303800  1
  O  O6  1  0.16362700  0.28981900  0.32451300  1
  O  O7  1  0.83637300  0.71018100  0.67548700  1
  O  O8  1  0.83961200  0.82719100  0.07274600  1
  O  O9  1  0.16038800  0.17280900  0.92725400  1
  O  O10  1  0.83282300  0.31444500  0.11798700  1
  O  O11  1  0.16717700  0.68555500  0.88201300  1
  O  O12  1  0.68569400  0.47439300  0.40355400  1
  O  O13  1  0.31430600  0.52560700  0.59644600  1
  O  O14  1  0.97004500  0.75811700  0.41789900  1
  O  O15  1  0.02995500  0.24188300  0.58210100  1
  O  O16  1  0.33877600  0.45485300  0.12708600  1
  O  O17  1  0.66122400  0.54514700  0.87291400  1
loop_
_geom_bond_atom_site_label_1
_geom_bond_atom_site_label_2
_geom_bond_distance
_geom_bond_site_symmetry_2
Co0 O9 2.062115 1_554
Co0 O8 2.062115 1_445
Co0 O11 2.129223 1_544
Co0 O10 2.129223 1_455
Co0 O0 2.148257 1_545
Co0 O1 2.148257 1_454
Co1 O15 2.024232 1_555
Co1 O14 2.024232 1_455
Co1 O12 2.097652 1_455
Co1 O13 2.097652 1_555
Co1 O7 2.212237 1_455
Co1 O6 2.212237 1_555
H0 O8 0.992999 1_555
H1 O9 0.992999 1_555
H2 O8 0.988235 1_555
H3 O9 0.988235 1_555
H4 O10 0.986446 1_555
H5 O11 0.986446 1_555
H6 O10 0.989203 1_555
H7 O11 0.989203 1_555
H8 O12 0.986583 1_555
H9 O13 0.986583 1_555
H10 O12 0.990611 1_555
H11 O13 0.990611 1_555
H12 O14 0.995305 1_455
H12 O4 1.689385 1_555
H13 O15 0.995305 1_655
H13 O5 1.689385 1_555
H14 O14 0.989621 1_555
H15 O15 0.989621 1_555
H16 O16 0.993586 1_555
H17 O17 0.993586 1_555
H18 O16 0.980272 1_555
H19 O17 0.980272 1_555
O0 Se0 1.683538 1_565
O1 Se1 1.683538 1_545
O2 Se0 1.682412 1_555
O3 Se1 1.682412 1_555
O4 Se0 1.669197 1_565
O5 Se1 1.669197 1_545
O6 Se0 1.687228 1_555
O7 Se1 1.687228 1_555
