# generated using pymatgen
data_RbH2(IO3)3
_symmetry_space_group_name_H-M   'P 1'
_cell_length_a   8.73565197
_cell_length_b   13.27251205
_cell_length_c   25.99903580
_cell_angle_alpha   90.00000000
_cell_angle_beta   90.00000000
_cell_angle_gamma   106.83195672
_symmetry_Int_Tables_number   1
_chemical_formula_structural   RbH2(IO3)3
_chemical_formula_sum   'Rb12 H24 I36 O108'
_cell_volume   2885.28947443
_cell_formula_units_Z   12
loop_
 _symmetry_equiv_pos_site_id
 _symmetry_equiv_pos_as_xyz
  1  'x, y, z'
loop_
 _atom_site_type_symbol
 _atom_site_label
 _atom_site_symmetry_multiplicity
 _atom_site_fract_x
 _atom_site_fract_y
 _atom_site_fract_z
 _atom_site_occupancy
  Rb  Rb0  1  0.42248988  0.75199601  0.07399265  1
  Rb  Rb1  1  0.07751012  0.74800399  0.57399265  1
  Rb  Rb2  1  0.57751012  0.24800399  0.92600735  1
  Rb  Rb3  1  0.92248988  0.25199601  0.42600735  1
  Rb  Rb4  1  0.68150571  0.42999427  0.07524039  1
  Rb  Rb5  1  0.81849429  0.07000573  0.57524039  1
  Rb  Rb6  1  0.31849429  0.57000573  0.92475961  1
  Rb  Rb7  1  0.18150571  0.92999427  0.42475961  1
  Rb  Rb8  1  0.07225020  0.09861105  0.07166291  1
  Rb  Rb9  1  0.42774980  0.40138895  0.57166291  1
  Rb  Rb10  1  0.92774980  0.90138895  0.92833709  1
  Rb  Rb11  1  0.57225020  0.59861105  0.42833709  1
  H  H0  1  0.30451533  0.34012140  0.01034544  1
  H  H1  1  0.19548467  0.15987860  0.51034544  1
  H  H2  1  0.69548467  0.65987860  0.98965456  1
  H  H3  1  0.80451533  0.84012140  0.48965456  1
  H  H4  1  0.88760720  0.28037799  0.10694183  1
  H  H5  1  0.61239280  0.21962201  0.60694183  1
  H  H6  1  0.11239280  0.71962201  0.89305817  1
  H  H7  1  0.38760720  0.78037799  0.39305817  1
  H  H8  1  0.67055570  0.01627989  0.00702301  1
  H  H9  1  0.82944430  0.48372011  0.50702301  1
  H  H10  1  0.32944430  0.98372011  0.99297699  1
  H  H11  1  0.17055570  0.51627989  0.49297699  1
  H  H12  1  0.24517793  0.94498554  0.10382918  1
  H  H13  1  0.25482207  0.55501446  0.60382918  1
  H  H14  1  0.75482207  0.05501446  0.89617082  1
  H  H15  1  0.74517793  0.44498554  0.39617082  1
  H  H16  1  0.08567101  0.62328486  0.04714174  1
  H  H17  1  0.41432899  0.87671514  0.54714174  1
  H  H18  1  0.91432899  0.37671514  0.95285826  1
  H  H19  1  0.58567101  0.12328486  0.45285826  1
  H  H20  1  0.04353929  0.68804744  0.00096500  1
  H  H21  1  0.45646071  0.81195256  0.50096500  1
  H  H22  1  0.95646071  0.31195256  0.99903500  1
  H  H23  1  0.54353929  0.18804744  0.49903500  1
  I  I0  1  0.41140432  0.22981160  0.19510390  1
  I  I1  1  0.08859568  0.27018840  0.69510390  1
  I  I2  1  0.58859568  0.77018840  0.80489610  1
  I  I3  1  0.91140432  0.72981160  0.30489610  1
  I  I4  1  0.01001697  0.05033146  0.29753138  1
  I  I5  1  0.48998303  0.44966854  0.79753138  1
  I  I6  1  0.98998303  0.94966854  0.70246862  1
  I  I7  1  0.51001697  0.55033146  0.20246862  1
  I  I8  1  0.02410786  0.57898474  0.18252423  1
  I  I9  1  0.47589214  0.92101526  0.68252423  1
  I  I10  1  0.97589214  0.42101526  0.81747577  1
  I  I11  1  0.52410786  0.07898474  0.31747577  1
  I  I12  1  0.76699366  0.90439612  0.19482073  1
  I  I13  1  0.73300634  0.59560388  0.69482073  1
  I  I14  1  0.23300634  0.09560388  0.80517927  1
  I  I15  1  0.26699366  0.40439612  0.30517927  1
  I  I16  1  0.88396889  0.77019442  0.08561351  1
  I  I17  1  0.61603111  0.72980558  0.58561351  1
  I  I18  1  0.11603111  0.22980558  0.91438649  1
  I  I19  1  0.38396889  0.27019442  0.41438649  1
  I  I20  1  0.19450568  0.42268012  0.08318135  1
  I  I21  1  0.30549432  0.07731988  0.58318135  1
  I  I22  1  0.80549432  0.57731988  0.91681865  1
  I  I23  1  0.69450568  0.92268012  0.41681865  1
  I  I24  1  0.90484171  0.23213739  0.19873695  1
  I  I25  1  0.59515829  0.26786261  0.69873695  1
  I  I26  1  0.09515829  0.76786261  0.80126305  1
  I  I27  1  0.40484171  0.73213739  0.30126305  1
  I  I28  1  0.55655694  0.09259106  0.08062745  1
  I  I29  1  0.94344306  0.40740894  0.58062745  1
  I  I30  1  0.44344306  0.90740894  0.91937255  1
  I  I31  1  0.05655694  0.59259106  0.41937255  1
  I  I32  1  0.26506721  0.89659769  0.19538690  1
  I  I33  1  0.23493279  0.60340231  0.69538690  1
  I  I34  1  0.73493279  0.10340231  0.80461310  1
  I  I35  1  0.76506721  0.39659769  0.30461310  1
  O  O0  1  0.49938821  0.36339119  0.17055846  1
  O  O1  1  0.00061179  0.13660881  0.67055846  1
  O  O2  1  0.50061179  0.63660881  0.82944154  1
  O  O3  1  0.99938821  0.86339119  0.32944154  1
  O  O4  1  0.58551729  0.20134773  0.22497162  1
  O  O5  1  0.91448271  0.29865227  0.72497162  1
  O  O6  1  0.41448271  0.79865227  0.77502838  1
  O  O7  1  0.08551729  0.70134773  0.27502838  1
  O  O8  1  0.39042280  0.16288669  0.13180665  1
  O  O9  1  0.10957720  0.33711331  0.63180665  1
  O  O10  1  0.60957720  0.83711331  0.86819335  1
  O  O11  1  0.89042280  0.66288669  0.36819335  1
  O  O12  1  0.95673108  0.06572628  0.36366794  1
  O  O13  1  0.54326892  0.43427372  0.86366794  1
  O  O14  1  0.04326892  0.93427372  0.63633206  1
  O  O15  1  0.45673108  0.56572628  0.13633206  1
  O  O16  1  0.04458169  0.18711018  0.27304944  1
  O  O17  1  0.45541831  0.31288982  0.77304944  1
  O  O18  1  0.95541831  0.81288982  0.72695056  1
  O  O19  1  0.54458169  0.68711018  0.22695056  1
  O  O20  1  0.80019724  0.99701420  0.27070419  1
  O  O21  1  0.69980276  0.50298580  0.77070419  1
  O  O22  1  0.19980276  0.00298580  0.72929581  1
  O  O23  1  0.30019724  0.49701420  0.22929581  1
  O  O24  1  0.17959169  0.69476737  0.16093884  1
  O  O25  1  0.32040831  0.80523263  0.66093884  1
  O  O26  1  0.82040831  0.30523263  0.83906116  1
  O  O27  1  0.67959169  0.19476737  0.33906116  1
  O  O28  1  0.84181125  0.61233151  0.16533255  1
  O  O29  1  0.65818875  0.88766849  0.66533255  1
  O  O30  1  0.15818875  0.38766849  0.83466745  1
  O  O31  1  0.34181125  0.11233151  0.33466745  1
  O  O32  1  0.01868783  0.49524349  0.12400372  1
  O  O33  1  0.48131217  0.00475651  0.62400372  1
  O  O34  1  0.98131217  0.50475651  0.87599628  1
  O  O35  1  0.51868783  0.99524349  0.37599628  1
  O  O36  1  0.86109148  0.02926238  0.16365791  1
  O  O37  1  0.63890852  0.47073762  0.66365791  1
  O  O38  1  0.13890852  0.97073762  0.83634209  1
  O  O39  1  0.36109148  0.52926238  0.33634209  1
  O  O40  1  0.93348120  0.85670265  0.21522316  1
  O  O41  1  0.56651880  0.64329735  0.71522316  1
  O  O42  1  0.06651880  0.14329735  0.78477684  1
  O  O43  1  0.43348120  0.35670265  0.28477684  1
  O  O44  1  0.73275658  0.82453384  0.12767247  1
  O  O45  1  0.76724342  0.67546616  0.62767247  1
  O  O46  1  0.26724342  0.17546616  0.87232753  1
  O  O47  1  0.23275658  0.32453384  0.37232753  1
  O  O48  1  0.93600371  0.87456959  0.03897099  1
  O  O49  1  0.56399629  0.62543041  0.53897099  1
  O  O50  1  0.06399629  0.12543041  0.96102901  1
  O  O51  1  0.43600371  0.37456959  0.46102901  1
  O  O52  1  0.71949864  0.67552187  0.05323746  1
  O  O53  1  0.78050136  0.82447813  0.55323746  1
  O  O54  1  0.28050136  0.32447813  0.94676254  1
  O  O55  1  0.21949864  0.17552187  0.44676254  1
  O  O56  1  0.21692467  0.52686018  0.03632354  1
  O  O57  1  0.28307533  0.97313982  0.53632354  1
  O  O58  1  0.78307533  0.47313982  0.96367646  1
  O  O59  1  0.71692467  0.02686018  0.46367646  1
  O  O60  1  0.00995715  0.32553898  0.06052850  1
  O  O61  1  0.49004285  0.17446102  0.56052850  1
  O  O62  1  0.99004285  0.67446102  0.93947150  1
  O  O63  1  0.50995715  0.82553898  0.43947150  1
  O  O64  1  0.33537416  0.35388229  0.04785162  1
  O  O65  1  0.16462584  0.14611771  0.54785162  1
  O  O66  1  0.66462584  0.64611771  0.95214838  1
  O  O67  1  0.83537416  0.85388229  0.45214838  1
  O  O68  1  0.09902522  0.26026041  0.16776182  1
  O  O69  1  0.40097478  0.23973959  0.66776182  1
  O  O70  1  0.90097478  0.73973959  0.83223818  1
  O  O71  1  0.59902522  0.76026041  0.33223818  1
  O  O72  1  0.92315382  0.36100226  0.22818241  1
  O  O73  1  0.57684618  0.13899774  0.72818241  1
  O  O74  1  0.07684618  0.63899774  0.77181759  1
  O  O75  1  0.42315382  0.86100226  0.27181759  1
  O  O76  1  0.79996904  0.25028756  0.13356806  1
  O  O77  1  0.70003096  0.24971244  0.63356806  1
  O  O78  1  0.20003096  0.74971244  0.86643194  1
  O  O79  1  0.29996904  0.75028756  0.36643194  1
  O  O80  1  0.58212720  0.20107141  0.03692827  1
  O  O81  1  0.91787280  0.29892859  0.53692827  1
  O  O82  1  0.41787280  0.79892859  0.96307173  1
  O  O83  1  0.08212720  0.70107141  0.46307173  1
  O  O84  1  0.36701855  0.00201428  0.05696836  1
  O  O85  1  0.13298145  0.49798572  0.55696836  1
  O  O86  1  0.63298145  0.99798572  0.94303164  1
  O  O87  1  0.86701855  0.50201428  0.44303164  1
  O  O88  1  0.69692827  0.02424550  0.04494866  1
  O  O89  1  0.80307173  0.47575450  0.54494866  1
  O  O90  1  0.30307173  0.97575450  0.95505134  1
  O  O91  1  0.19692827  0.52424550  0.45505134  1
  O  O92  1  0.27882211  0.02225191  0.22583824  1
  O  O93  1  0.22117789  0.47774809  0.72583824  1
  O  O94  1  0.72117789  0.97774809  0.77416176  1
  O  O95  1  0.77882211  0.52225191  0.27416176  1
  O  O96  1  0.45777029  0.92063901  0.16323205  1
  O  O97  1  0.04222971  0.57936099  0.66323205  1
  O  O98  1  0.54222971  0.07936099  0.83676795  1
  O  O99  1  0.95777029  0.42063901  0.33676795  1
  O  O100  1  0.15853230  0.91519779  0.13061892  1
  O  O101  1  0.34146770  0.58480221  0.63061892  1
  O  O102  1  0.84146770  0.08480221  0.86938108  1
  O  O103  1  0.65853230  0.41519779  0.36938108  1
  O  O104  1  0.07439845  0.69307404  0.03842355  1
  O  O105  1  0.42560155  0.80692596  0.53842355  1
  O  O106  1  0.92560155  0.30692596  0.96157645  1
  O  O107  1  0.57439845  0.19307404  0.46157645  1
loop_
_geom_bond_atom_site_label_1
_geom_bond_atom_site_label_2
_geom_bond_distance
_geom_bond_site_symmetry_2
H0 O64 1.014091 1_555
H0 O54 1.671709 1_554
H1 O65 1.014091 1_555
H1 O55 1.671709 1_555
H2 O66 1.014091 1_555
H2 O52 1.671709 1_556
H3 O67 1.014091 1_555
H3 O53 1.671709 1_555
H4 O76 1.023600 1_555
H4 O60 1.608335 1_655
H4 Rb4 3.151945 1_555
H5 O77 1.023600 1_555
H5 O61 1.608335 1_555
H5 Rb5 3.151945 1_555
H6 O78 1.023600 1_555
H6 O62 1.608335 1_455
H6 Rb6 3.151945 1_555
H7 O79 1.023600 1_555
H7 O63 1.608335 1_555
H7 Rb7 3.151945 1_555
H8 O88 1.011140 1_555
H8 O86 1.699554 1_544
H9 O89 1.011140 1_555
H9 O87 1.699554 1_555
H10 O90 1.011140 1_555
H10 O84 1.699554 1_566
H11 O91 1.011140 1_555
H11 O85 1.699554 1_555
H12 O100 1.020310 1_555
H12 O84 1.650320 1_565
H12 Rb8 2.987096 1_565
H13 O101 1.020310 1_555
H13 O85 1.650320 1_555
H13 Rb9 2.987096 1_555
H14 O102 1.020310 1_555
H14 O86 1.650320 1_545
H14 Rb10 2.987096 1_545
H15 O103 1.020310 1_555
H15 O87 1.650320 1_555
H15 Rb11 2.987096 1_555
H16 O104 0.985844 1_555
H16 Rb0 3.025235 1_555
H17 O105 0.985844 1_555
H17 Rb1 3.025235 1_555
H18 O106 0.985844 1_555
H18 Rb2 3.025235 1_555
H19 O107 0.985844 1_555
H19 Rb3 3.025235 1_555
H20 O104 1.007552 1_555
H20 O62 1.660776 1_454
H21 O105 1.007552 1_555
H21 O63 1.660776 1_555
H22 O106 1.007552 1_555
H22 O60 1.660776 1_656
H23 O107 1.007552 1_555
H23 O61 1.660776 1_555
I0 O0 1.830881 1_555
I0 O4 1.841714 1_555
I0 O8 1.853790 1_555
I1 O1 1.830881 1_555
I1 O5 1.841714 1_455
I1 O9 1.853790 1_555
I2 O2 1.830881 1_555
I2 O6 1.841714 1_555
I2 O10 1.853790 1_555
I3 O3 1.830881 1_555
I3 O7 1.841714 1_655
I3 O11 1.853790 1_555
I4 O12 1.808354 1_455
I4 O16 1.864008 1_555
I4 O20 1.896219 1_445
I4 O3 2.592236 1_445
I5 O13 1.808354 1_555
I5 O17 1.864008 1_555
I5 O21 1.896219 1_555
I5 O2 2.592236 1_555
I6 O14 1.808354 1_655
I6 O18 1.864008 1_555
I6 O22 1.896219 1_665
I6 O1 2.592236 1_665
I7 O15 1.808354 1_555
I7 O19 1.864008 1_555
I7 O23 1.896219 1_555
I7 O0 2.592236 1_555
I8 O24 1.820034 1_555
I8 O28 1.827525 1_455
I8 O32 1.876697 1_555
I9 O25 1.820034 1_555
I9 O29 1.827525 1_555
I9 O33 1.876697 1_565
I10 O26 1.820034 1_555
I10 O30 1.827525 1_655
I10 O34 1.876697 1_555
I11 O27 1.820034 1_555
I11 O31 1.827525 1_555
I11 O35 1.876697 1_545
I12 O36 1.813775 1_565
I12 O40 1.824954 1_555
I12 O44 2.019203 1_555
I12 O20 2.298059 1_555
I13 O37 1.813775 1_555
I13 O41 1.824954 1_555
I13 O45 2.019203 1_555
I13 O21 2.298059 1_555
I14 O38 1.813775 1_545
I14 O42 1.824954 1_555
I14 O46 2.019203 1_555
I14 O22 2.298059 1_555
I15 O39 1.813775 1_555
I15 O43 1.824954 1_555
I15 O47 2.019203 1_555
I15 O23 2.298059 1_555
I16 O48 1.797665 1_555
I16 O52 1.818287 1_555
I16 O44 2.003121 1_555
I16 O104 2.511260 1_655
I17 O49 1.797665 1_555
I17 O53 1.818287 1_555
I17 O45 2.003121 1_555
I17 O105 2.511260 1_555
I18 O50 1.797665 1_555
I18 O54 1.818287 1_555
I18 O46 2.003121 1_555
I18 O106 2.511260 1_455
I19 O51 1.797665 1_555
I19 O55 1.818287 1_555
I19 O47 2.003121 1_555
I19 O107 2.511260 1_555
I20 O56 1.810421 1_555
I20 O60 1.845116 1_555
I20 O64 1.960248 1_555
I20 O32 2.295561 1_555
I21 O57 1.810421 1_545
I21 O61 1.845116 1_555
I21 O65 1.960248 1_555
I21 O33 2.295561 1_555
I22 O58 1.810421 1_555
I22 O62 1.845116 1_555
I22 O66 1.960248 1_555
I22 O34 2.295561 1_555
I23 O59 1.810421 1_565
I23 O63 1.845116 1_555
I23 O67 1.960248 1_555
I23 O35 2.295561 1_555
I24 O68 1.816227 1_655
I24 O72 1.838081 1_555
I24 O76 1.973800 1_555
I24 O16 2.450028 1_655
I25 O69 1.816227 1_555
I25 O73 1.838081 1_555
I25 O77 1.973800 1_555
I25 O17 2.450028 1_555
I26 O70 1.816227 1_455
I26 O74 1.838081 1_555
I26 O78 1.973800 1_555
I26 O18 2.450028 1_455
I27 O71 1.816227 1_555
I27 O75 1.838081 1_555
I27 O79 1.973800 1_555
I27 O19 2.450028 1_555
I28 O80 1.796521 1_555
I28 O84 1.847247 1_555
I28 O88 1.957338 1_555
I28 O8 2.351899 1_555
I29 O81 1.796521 1_555
I29 O85 1.847247 1_655
I29 O89 1.957338 1_555
I29 O9 2.351899 1_655
I30 O82 1.796521 1_555
I30 O86 1.847247 1_555
I30 O90 1.957338 1_555
I30 O10 2.351899 1_555
I31 O83 1.796521 1_555
I31 O87 1.847247 1_455
I31 O91 1.957338 1_555
I31 O11 2.351899 1_455
I32 O92 1.818395 1_565
I32 O96 1.823024 1_555
I32 O100 1.973740 1_555
I32 O75 2.541032 1_555
I33 O93 1.818395 1_555
I33 O97 1.823024 1_555
I33 O101 1.973740 1_555
I33 O74 2.541032 1_555
I34 O94 1.818395 1_545
I34 O98 1.823024 1_555
I34 O102 1.973740 1_555
I34 O73 2.541032 1_555
I35 O95 1.818395 1_555
I35 O99 1.823024 1_555
I35 O103 1.973740 1_555
I35 O72 2.541032 1_555
O0 Rb4 2.939277 1_555
O1 Rb5 2.939277 1_455
O2 Rb6 2.939277 1_555
O3 Rb7 2.939277 1_655
O8 Rb8 3.086257 1_555
O9 Rb9 3.086257 1_555
O10 Rb10 3.086257 1_555
O11 Rb11 3.086257 1_555
O12 Rb3 3.042487 1_555
O12 Rb7 3.416478 1_645
O13 Rb2 3.042487 1_555
O13 Rb6 3.416478 1_555
O14 Rb1 3.042487 1_555
O14 Rb5 3.416478 1_465
O15 Rb0 3.042487 1_555
O15 Rb4 3.416478 1_555
O24 Rb0 3.042341 1_555
O25 Rb1 3.042341 1_555
O26 Rb2 3.042341 1_555
O27 Rb3 3.042341 1_555
O28 Rb4 3.367719 1_555
O29 Rb5 3.367719 1_565
O30 Rb6 3.367719 1_555
O31 Rb7 3.367719 1_545
O32 Rb4 3.091282 1_455
O33 Rb5 3.091282 1_555
O34 Rb6 3.091282 1_655
O35 Rb7 3.091282 1_555
O36 Rb8 2.997853 1_655
O37 Rb9 2.997853 1_555
O38 Rb10 2.997853 1_455
O39 Rb11 2.997853 1_555
O44 Rb0 2.951208 1_555
O45 Rb1 2.951208 1_655
O46 Rb2 2.951208 1_555
O47 Rb3 2.951208 1_455
O48 Rb10 2.901776 1_554
O48 Rb8 2.988581 1_665
O49 Rb11 2.901776 1_555
O49 Rb9 2.988581 1_555
O50 Rb8 2.901776 1_556
O50 Rb10 2.988581 1_445
O51 Rb9 2.901776 1_555
O51 Rb11 2.988581 1_555
O52 Rb0 3.094887 1_555
O52 Rb4 3.229644 1_555
O53 Rb1 3.094887 1_655
O53 Rb5 3.229644 1_565
O54 Rb2 3.094887 1_555
O54 Rb6 3.229644 1_555
O55 Rb3 3.094887 1_455
O55 Rb7 3.229644 1_545
O56 Rb6 3.038774 1_554
O56 Rb0 3.163090 1_555
O57 Rb7 3.038774 1_555
O57 Rb1 3.163090 1_555
O58 Rb4 3.038774 1_556
O58 Rb2 3.163090 1_555
O59 Rb5 3.038774 1_555
O59 Rb3 3.163090 1_555
O60 Rb8 3.225008 1_555
O61 Rb9 3.225008 1_555
O62 Rb10 3.225008 1_555
O63 Rb11 3.225008 1_555
O64 Rb4 2.983498 1_555
O64 Rb8 3.554668 1_555
O65 Rb5 2.983498 1_455
O65 Rb9 3.554668 1_555
O66 Rb6 2.983498 1_555
O66 Rb10 3.554668 1_555
O67 Rb7 2.983498 1_655
O67 Rb11 3.554668 1_555
O68 Rb8 3.257242 1_555
O69 Rb9 3.257242 1_555
O70 Rb10 3.257242 1_555
O71 Rb11 3.257242 1_555
O76 Rb4 3.238678 1_555
O77 Rb5 3.238678 1_555
O78 Rb6 3.238678 1_555
O79 Rb7 3.238678 1_555
O80 Rb2 2.953085 1_554
O80 Rb4 3.074086 1_555
O81 Rb3 2.953085 1_555
O81 Rb5 3.074086 1_555
O82 Rb0 2.953085 1_556
O82 Rb6 3.074086 1_555
O83 Rb1 2.953085 1_555
O83 Rb7 3.074086 1_555
O84 Rb8 3.214374 1_555
O84 Rb0 3.517607 1_545
O85 Rb9 3.214374 1_555
O85 Rb1 3.517607 1_555
O86 Rb10 3.214374 1_555
O86 Rb2 3.517607 1_565
O87 Rb11 3.214374 1_555
O87 Rb3 3.517607 1_555
O88 Rb8 3.214376 1_655
O89 Rb9 3.214376 1_555
O90 Rb10 3.214376 1_455
O91 Rb11 3.214376 1_555
O96 Rb0 3.176252 1_555
O97 Rb1 3.176252 1_555
O98 Rb2 3.176252 1_555
O99 Rb3 3.176252 1_555
O100 Rb8 3.147425 1_565
O101 Rb9 3.147425 1_555
O102 Rb10 3.147425 1_545
O103 Rb11 3.147425 1_555
O104 Rb0 3.055500 1_555
O105 Rb1 3.055500 1_555
O106 Rb2 3.055500 1_555
O107 Rb3 3.055500 1_555
