# generated using pymatgen
data_BaMg(SbO2)4
_symmetry_space_group_name_H-M   'P 1'
_cell_length_a   6.13207189
_cell_length_b   6.13207189
_cell_length_c   7.18434300
_cell_angle_alpha   90.00000000
_cell_angle_beta   90.00000000
_cell_angle_gamma   119.99999879
_symmetry_Int_Tables_number   1
_chemical_formula_structural   BaMg(SbO2)4
_chemical_formula_sum   'Ba1 Mg1 Sb4 O8'
_cell_volume   233.95491350
_cell_formula_units_Z   1
loop_
 _symmetry_equiv_pos_site_id
 _symmetry_equiv_pos_as_xyz
  1  'x, y, z'
loop_
 _atom_site_type_symbol
 _atom_site_label
 _atom_site_symmetry_multiplicity
 _atom_site_fract_x
 _atom_site_fract_y
 _atom_site_fract_z
 _atom_site_occupancy
  Ba  Ba0  1  0.00000000  0.00000000  0.00000000  1
  Mg  Mg0  1  0.00000000  0.00000000  0.50000000  1
  Sb  Sb0  1  0.33333300  0.66666700  0.71759600  1
  Sb  Sb1  1  0.66666700  0.33333300  0.71759600  1
  Sb  Sb2  1  0.33333300  0.66666700  0.28240400  1
  Sb  Sb3  1  0.66666700  0.33333300  0.28240400  1
  O  O0  1  0.28667500  0.28667500  0.69986600  1
  O  O1  1  0.71332500  0.00000000  0.69986600  1
  O  O2  1  0.00000000  0.71332500  0.69986600  1
  O  O3  1  0.71332500  0.71332500  0.30013400  1
  O  O4  1  0.00000000  0.28667500  0.30013400  1
  O  O5  1  0.28667500  0.00000000  0.30013400  1
  O  O6  1  0.33333300  0.66666700  0.00000000  1
  O  O7  1  0.66666700  0.33333300  0.00000000  1
loop_
_geom_bond_atom_site_label_1
_geom_bond_atom_site_label_2
_geom_bond_distance
_geom_bond_site_symmetry_2
Ba0 O2 2.782038 1_544
Ba0 O4 2.782038 1_555
Ba0 O5 2.782038 1_555
Ba0 O1 2.782038 1_454
Ba0 O0 2.782038 1_554
Ba0 O3 2.782038 1_445
Mg0 O1 2.269819 1_455
Mg0 O2 2.269819 1_545
Mg0 O4 2.269819 1_555
Mg0 O5 2.269819 1_555
Mg0 O3 2.269819 1_445
Mg0 O0 2.269819 1_555
O0 Sb1 2.204757 1_555
O0 Sb0 2.204757 1_555
O1 Sb1 2.204751 1_555
O1 Sb0 2.204754 1_545
O2 Sb0 2.204751 1_555
O2 Sb1 2.204754 1_455
O3 Sb3 2.204757 1_555
O3 Sb2 2.204757 1_555
O4 Sb3 2.204751 1_455
O4 Sb2 2.204754 1_555
O5 Sb2 2.204751 1_545
O5 Sb3 2.204754 1_555
O6 Sb2 2.028887 1_555
O6 Sb0 2.028887 1_554
O7 Sb1 2.028887 1_554
O7 Sb3 2.028887 1_555
