# generated using pymatgen
data_Sr2MgPb
_symmetry_space_group_name_H-M   'P 1'
_cell_length_a   13.76761784
_cell_length_b   13.83390879
_cell_length_c   13.83390915
_cell_angle_alpha   59.94548352
_cell_angle_beta   60.15839040
_cell_angle_gamma   60.15839028
_symmetry_Int_Tables_number   1
_chemical_formula_structural   Sr2MgPb
_chemical_formula_sum   'Sr2 Mg1 Pb1'
_cell_volume   1866.76273151
_cell_formula_units_Z   1
loop_
 _symmetry_equiv_pos_site_id
 _symmetry_equiv_pos_as_xyz
  1  'x, y, z'
loop_
 _atom_site_type_symbol
 _atom_site_label
 _atom_site_symmetry_multiplicity
 _atom_site_fract_x
 _atom_site_fract_y
 _atom_site_fract_z
 _atom_site_occupancy
  Sr  Sr0  1  0.73206515  1.00000000  1.00000000  1
  Sr  Sr1  1  0.26793485  0.00000000  0.00000000  1
  Mg  Mg0  1  0.00000000  0.00000000  0.00000000  1
  Pb  Pb0  1  0.50000000  0.00000000  0.00000000  1
loop_
_geom_bond_atom_site_label_1
_geom_bond_atom_site_label_2
_geom_bond_distance
_geom_bond_site_symmetry_2
Mg0 Sr0 3.688825 1_444
Mg0 Sr1 3.688825 1_555
Pb0 Sr1 3.194984 1_555
Pb0 Sr0 3.194984 1_544
