# generated using pymatgen
data_Ce(P3Os)4
_symmetry_space_group_name_H-M   'P 1'
_cell_length_a   7.00122097
_cell_length_b   7.00122097
_cell_length_c   7.00122097
_cell_angle_alpha   109.47122063
_cell_angle_beta   109.47122063
_cell_angle_gamma   109.47122063
_symmetry_Int_Tables_number   1
_chemical_formula_structural   Ce(P3Os)4
_chemical_formula_sum   'Ce1 P12 Os4'
_cell_volume   264.17971264
_cell_formula_units_Z   1
loop_
 _symmetry_equiv_pos_site_id
 _symmetry_equiv_pos_as_xyz
  1  'x, y, z'
loop_
 _atom_site_type_symbol
 _atom_site_label
 _atom_site_symmetry_multiplicity
 _atom_site_fract_x
 _atom_site_fract_y
 _atom_site_fract_z
 _atom_site_occupancy
  Ce  Ce0  1  -0.00000000  -0.00000000  -0.00000000  1
  P  P0  1  0.85702988  0.64448276  0.50151164  1
  P  P1  1  0.14297012  0.35551724  0.49848836  1
  P  P2  1  0.14297012  0.64448276  0.78745187  1
  P  P3  1  0.85702988  0.35551724  0.21254813  1
  P  P4  1  0.64448276  0.50151164  0.85702988  1
  P  P5  1  0.35551724  0.49848836  0.14297012  1
  P  P6  1  0.64448276  0.78745187  0.14297012  1
  P  P7  1  0.35551724  0.21254813  0.85702988  1
  P  P8  1  0.50151164  0.85702988  0.64448276  1
  P  P9  1  0.49848836  0.14297012  0.35551724  1
  P  P10  1  0.78745187  0.14297012  0.64448276  1
  P  P11  1  0.21254813  0.85702988  0.35551724  1
  Os  Os0  1  0.50000000  0.50000000  0.50000000  1
  Os  Os1  1  0.50000000  -0.00000000  -0.00000000  1
  Os  Os2  1  -0.00000000  0.50000000  -0.00000000  1
  Os  Os3  1  -0.00000000  -0.00000000  0.50000000  1
loop_
_geom_bond_atom_site_label_1
_geom_bond_atom_site_label_2
_geom_bond_distance
_geom_bond_site_symmetry_2
Ce0 P2 3.097813 1_544
Ce0 P6 3.097813 1_445
Ce0 P10 3.097813 1_454
Ce0 P3 3.097813 1_455
Ce0 P11 3.097813 1_545
Ce0 P7 3.097813 1_554
Ce0 P0 3.097816 1_444
Ce0 P4 3.097816 1_444
Ce0 P8 3.097816 1_444
Ce0 P1 3.097816 1_555
Ce0 P9 3.097816 1_555
Ce0 P5 3.097816 1_555
P0 P2 2.311631 1_655
P0 P3 2.336080 1_555
P1 P3 2.311631 1_455
P1 P2 2.336080 1_555
P4 P6 2.311631 1_556
P4 P7 2.336080 1_555
P5 P7 2.311631 1_554
P5 P6 2.336080 1_555
P10 P8 2.311631 1_545
P10 P9 2.336080 1_555
P11 P9 2.311631 1_565
P11 P8 2.336080 1_555
Os0 P0 2.358203 1_555
Os0 P4 2.358203 1_555
Os0 P9 2.358203 1_555
Os0 P1 2.358203 1_555
Os0 P8 2.358203 1_555
Os0 P5 2.358203 1_555
Os1 P9 2.358196 1_555
Os1 P8 2.358196 1_544
Os1 P3 2.358199 1_555
Os1 P2 2.358199 1_544
Os1 P6 2.358206 1_545
Os1 P7 2.358206 1_554
Os2 P5 2.358196 1_555
Os2 P4 2.358196 1_454
Os2 P10 2.358199 1_454
Os2 P11 2.358199 1_555
Os2 P2 2.358206 1_554
Os2 P3 2.358206 1_455
Os3 P0 2.358196 1_445
Os3 P1 2.358196 1_555
Os3 P7 2.358199 1_555
Os3 P6 2.358199 1_445
Os3 P10 2.358206 1_455
Os3 P11 2.358206 1_545
