# generated using pymatgen
data_SbPdS
_symmetry_space_group_name_H-M   'P 1'
_cell_length_a   6.27498600
_cell_length_b   6.27498600
_cell_length_c   6.27498600
_cell_angle_alpha   90.00000000
_cell_angle_beta   90.00000000
_cell_angle_gamma   90.00000000
_symmetry_Int_Tables_number   1
_chemical_formula_structural   SbPdS
_chemical_formula_sum   'Sb4 Pd4 S4'
_cell_volume   247.08039310
_cell_formula_units_Z   4
loop_
 _symmetry_equiv_pos_site_id
 _symmetry_equiv_pos_as_xyz
  1  'x, y, z'
loop_
 _atom_site_type_symbol
 _atom_site_label
 _atom_site_symmetry_multiplicity
 _atom_site_fract_x
 _atom_site_fract_y
 _atom_site_fract_z
 _atom_site_occupancy
  Sb  Sb0  1  0.12042900  0.62042900  0.87957100  1
  Sb  Sb1  1  0.62042900  0.87957100  0.12042900  1
  Sb  Sb2  1  0.87957100  0.12042900  0.62042900  1
  Sb  Sb3  1  0.37957100  0.37957100  0.37957100  1
  Pd  Pd0  1  0.48981100  0.98981100  0.51018900  1
  Pd  Pd1  1  0.98981100  0.51018900  0.48981100  1
  Pd  Pd2  1  0.51018900  0.48981100  0.98981100  1
  Pd  Pd3  1  0.01018900  0.01018900  0.01018900  1
  S  S0  1  0.88969000  0.38969000  0.11031000  1
  S  S1  1  0.38969000  0.11031000  0.88969000  1
  S  S2  1  0.11031000  0.88969000  0.38969000  1
  S  S3  1  0.61031000  0.61031000  0.61031000  1
loop_
_geom_bond_atom_site_label_1
_geom_bond_atom_site_label_2
_geom_bond_distance
_geom_bond_site_symmetry_2
Pd0 S3 2.576302 1_555
Pd0 S1 2.576302 1_565
Pd0 S2 2.576302 1_555
Pd0 Sb3 2.670571 1_565
Pd0 Sb2 2.670571 1_565
Pd0 Sb1 2.670571 1_555
Pd1 S0 2.576302 1_555
Pd1 S2 2.576302 1_655
Pd1 S3 2.576302 1_555
Pd1 Sb3 2.670571 1_655
Pd1 Sb0 2.670571 1_655
Pd1 Sb2 2.670571 1_555
Pd2 S3 2.576302 1_555
Pd2 S0 2.576302 1_556
Pd2 S1 2.576302 1_555
Pd2 Sb3 2.670571 1_556
Pd2 Sb1 2.670571 1_556
Pd2 Sb0 2.670571 1_555
Pd3 S2 2.576302 1_545
Pd3 S1 2.576302 1_554
Pd3 S0 2.576302 1_455
Pd3 Sb0 2.670571 1_544
Pd3 Sb1 2.670571 1_445
Pd3 Sb2 2.670571 1_454
S0 Sb0 2.507809 1_654
S1 Sb1 2.507809 1_546
S2 Sb2 2.507809 1_465
S3 Sb3 2.507809 1_555
