# generated using pymatgen
data_Y2Ni3N4
_symmetry_space_group_name_H-M   'P 1'
_cell_length_a   5.72893756
_cell_length_b   7.73554600
_cell_length_c   7.53271949
_cell_angle_alpha   90.00000312
_cell_angle_beta   79.58070800
_cell_angle_gamma   132.46418872
_symmetry_Int_Tables_number   1
_chemical_formula_structural   Y2Ni3N4
_chemical_formula_sum   'Y4 Ni6 N8'
_cell_volume   238.74648435
_cell_formula_units_Z   2
loop_
 _symmetry_equiv_pos_site_id
 _symmetry_equiv_pos_as_xyz
  1  'x, y, z'
loop_
 _atom_site_type_symbol
 _atom_site_label
 _atom_site_symmetry_multiplicity
 _atom_site_fract_x
 _atom_site_fract_y
 _atom_site_fract_z
 _atom_site_occupancy
  Y  Y0  1  0.70489100  0.23193100  0.63133400  1
  Y  Y1  1  0.29510900  0.52704000  0.86866600  1
  Y  Y2  1  0.29510900  0.76806900  0.36866600  1
  Y  Y3  1  0.70489100  0.47296000  0.13133400  1
  Ni  Ni0  1  0.24421100  0.99472100  0.00596400  1
  Ni  Ni1  1  0.75578900  0.75051000  0.49403600  1
  Ni  Ni2  1  0.75578900  0.00527900  0.99403600  1
  Ni  Ni3  1  0.24421100  0.24949000  0.50596400  1
  Ni  Ni4  1  0.00000000  0.90882000  0.75000000  1
  Ni  Ni5  1  0.00000000  0.09118000  0.25000000  1
  N  N0  1  0.20920400  0.98601600  0.50844400  1
  N  N1  1  0.79079600  0.77681200  0.99155600  1
  N  N2  1  0.79079600  0.01398400  0.49155600  1
  N  N3  1  0.20920400  0.22318800  0.00844400  1
  N  N4  1  0.72629100  0.23640100  0.94819200  1
  N  N5  1  0.27370900  0.51011000  0.55180800  1
  N  N6  1  0.27370900  0.76359900  0.05180800  1
  N  N7  1  0.72629100  0.48989000  0.44819200  1
loop_
_geom_bond_atom_site_label_1
_geom_bond_atom_site_label_2
_geom_bond_distance
_geom_bond_site_symmetry_2
N0 Ni4 1.829949 1_555
N0 Ni3 1.908196 1_565
N0 Ni1 1.946882 1_455
N0 Y2 2.264096 1_555
N0 Y0 2.489281 1_565
N1 Ni4 1.829949 1_655
N1 Ni2 1.908196 1_565
N1 Ni0 1.946882 1_656
N1 Y3 2.264096 1_556
N1 Y1 2.489281 1_555
N2 Ni5 1.829949 1_655
N2 Ni1 1.908196 1_545
N2 Ni3 1.946882 1_655
N2 Y0 2.264096 1_555
N2 Y2 2.489281 1_545
N3 Ni5 1.829949 1_555
N3 Ni0 1.908196 1_545
N3 Ni2 1.946882 1_454
N3 Y1 2.264096 1_554
N3 Y3 2.489281 1_555
N4 Ni2 1.942499 1_555
N4 Ni0 1.976263 1_546
N4 Y1 2.331117 1_655
N4 Y3 2.347028 1_556
N4 Y0 2.411051 1_555
N5 Ni3 1.942499 1_555
N5 Ni1 1.976263 1_555
N5 Y0 2.331117 1_455
N5 Y2 2.347028 1_555
N5 Y1 2.411051 1_555
N6 Ni0 1.942499 1_555
N6 Ni2 1.976263 1_564
N6 Y3 2.331117 1_455
N6 Y1 2.347028 1_554
N6 Y2 2.411051 1_555
N7 Ni1 1.942499 1_555
N7 Ni3 1.976263 1_555
N7 Y2 2.331117 1_655
N7 Y0 2.347028 1_555
N7 Y3 2.411051 1_555
