# generated using pymatgen
data_CaH16C4N8(ClO2)2
_symmetry_space_group_name_H-M   'P 1'
_cell_length_a   12.80760200
_cell_length_b   7.71629500
_cell_length_c   8.35513849
_cell_angle_alpha   66.75710961
_cell_angle_beta   90.00000000
_cell_angle_gamma   90.00000000
_symmetry_Int_Tables_number   1
_chemical_formula_structural   CaH16C4N8(ClO2)2
_chemical_formula_sum   'Ca2 H32 C8 N16 Cl4 O8'
_cell_volume   758.70034181
_cell_formula_units_Z   2
loop_
 _symmetry_equiv_pos_site_id
 _symmetry_equiv_pos_as_xyz
  1  'x, y, z'
loop_
 _atom_site_type_symbol
 _atom_site_label
 _atom_site_symmetry_multiplicity
 _atom_site_fract_x
 _atom_site_fract_y
 _atom_site_fract_z
 _atom_site_occupancy
  Ca  Ca0  1  0.50000000  0.00000000  0.00000000  1
  Ca  Ca1  1  0.00000000  0.50000000  0.00000000  1
  H  H0  1  0.48113200  0.42930100  0.28446300  1
  H  H1  1  0.98113200  0.07069900  0.71553700  1
  H  H2  1  0.51886800  0.57069900  0.71553700  1
  H  H3  1  0.01886800  0.92930100  0.28446300  1
  H  H4  1  0.25642200  0.46844500  0.03107100  1
  H  H5  1  0.75642200  0.03155500  0.96892900  1
  H  H6  1  0.74357800  0.53155500  0.96892900  1
  H  H7  1  0.24357800  0.96844500  0.03107100  1
  H  H8  1  0.32620000  0.55420500  0.16608800  1
  H  H9  1  0.82620000  0.94579500  0.83391200  1
  H  H10  1  0.67380000  0.44579500  0.83391200  1
  H  H11  1  0.17380000  0.05420500  0.16608800  1
  H  H12  1  0.42021400  0.17157400  0.56213700  1
  H  H13  1  0.92021400  0.32842600  0.43786300  1
  H  H14  1  0.57978600  0.82842600  0.43786300  1
  H  H15  1  0.07978600  0.67157400  0.56213700  1
  H  H16  1  0.30973300  0.15988900  0.44445000  1
  H  H17  1  0.80973300  0.34011100  0.55555000  1
  H  H18  1  0.69026700  0.84011100  0.55555000  1
  H  H19  1  0.19026700  0.65988900  0.44445000  1
  H  H20  1  0.17068400  0.86388100  0.82008600  1
  H  H21  1  0.67068400  0.63611900  0.17991400  1
  H  H22  1  0.82931600  0.13611900  0.17991400  1
  H  H23  1  0.32931600  0.36388100  0.82008600  1
  H  H24  1  0.16225400  0.00083300  0.59351400  1
  H  H25  1  0.66225400  0.49916700  0.40648600  1
  H  H26  1  0.83774600  0.99916700  0.40648600  1
  H  H27  1  0.33774600  0.50083300  0.59351400  1
  H  H28  1  0.53204000  0.23171600  0.25462600  1
  H  H29  1  0.03204000  0.26828400  0.74537400  1
  H  H30  1  0.46796000  0.76828400  0.74537400  1
  H  H31  1  0.96796000  0.73171600  0.25462600  1
  C  C0  1  0.39541500  0.33413800  0.12617000  1
  C  C1  1  0.89541500  0.16586200  0.87383000  1
  C  C2  1  0.60458500  0.66586200  0.87383000  1
  C  C3  1  0.10458500  0.83413800  0.12617000  1
  C  C4  1  0.30470700  0.00294500  0.70889800  1
  C  C5  1  0.80470700  0.49705500  0.29110200  1
  C  C6  1  0.69529300  0.99705500  0.29110200  1
  C  C7  1  0.19529300  0.50294500  0.70889800  1
  N  N0  1  0.47784400  0.33497800  0.22667300  1
  N  N1  1  0.97784400  0.16502200  0.77332700  1
  N  N2  1  0.52215600  0.66502200  0.77332700  1
  N  N3  1  0.02215600  0.83497800  0.22667300  1
  N  N4  1  0.31748500  0.45603800  0.11338900  1
  N  N5  1  0.81748500  0.04396200  0.88661100  1
  N  N6  1  0.68251500  0.54396200  0.88661100  1
  N  N7  1  0.18251500  0.95603800  0.11338900  1
  N  N8  1  0.35211200  0.10575300  0.55594200  1
  N  N9  1  0.85211200  0.39424700  0.44405800  1
  N  N10  1  0.64788800  0.89424700  0.44405800  1
  N  N11  1  0.14788800  0.60575300  0.55594200  1
  N  N12  1  0.20509000  0.94930400  0.70549100  1
  N  N13  1  0.70509000  0.55069600  0.29450900  1
  N  N14  1  0.79491000  0.05069600  0.29450900  1
  N  N15  1  0.29491000  0.44930400  0.70549100  1
  Cl  Cl0  1  0.42751600  0.71735700  0.31657700  1
  Cl  Cl1  1  0.92751600  0.78264300  0.68342300  1
  Cl  Cl2  1  0.57248400  0.28264300  0.68342300  1
  Cl  Cl3  1  0.07248400  0.21735700  0.31657700  1
  O  O0  1  0.39071100  0.22039800  0.04935300  1
  O  O1  1  0.89071100  0.27960200  0.95064700  1
  O  O2  1  0.60928900  0.77960200  0.95064700  1
  O  O3  1  0.10928900  0.72039800  0.04935300  1
  O  O4  1  0.35477300  0.95262100  0.85219500  1
  O  O5  1  0.85477300  0.54737900  0.14780500  1
  O  O6  1  0.64522700  0.04737900  0.14780500  1
  O  O7  1  0.14522700  0.45262100  0.85219500  1
loop_
_geom_bond_atom_site_label_1
_geom_bond_atom_site_label_2
_geom_bond_distance
_geom_bond_site_symmetry_2
Ca0 O6 2.339804 1_555
Ca0 O4 2.339804 1_544
Ca0 O0 2.361142 1_555
Ca0 O2 2.361142 1_544
Ca0 Cl0 2.839302 1_545
Ca0 Cl2 2.839302 1_554
Ca1 O5 2.339804 1_455
Ca1 O7 2.339804 1_554
Ca1 O3 2.361142 1_555
Ca1 O1 2.361142 1_454
Ca1 Cl3 2.839302 1_555
Ca1 Cl1 2.839302 1_454
H0 N0 1.020786 1_555
H1 N1 1.020786 1_555
H2 N2 1.020786 1_555
H3 N3 1.020786 1_555
H4 N4 1.020720 1_555
H5 N5 1.020720 1_555
H6 N6 1.020720 1_555
H7 N7 1.020720 1_555
H8 N4 1.021446 1_555
H9 N5 1.021446 1_565
H10 N6 1.021446 1_555
H11 N7 1.021446 1_545
H12 N8 1.020861 1_555
H13 N9 1.020861 1_555
H14 N10 1.020861 1_555
H15 N11 1.020861 1_555
H16 N8 1.014755 1_555
H17 N9 1.014755 1_555
H18 N10 1.014755 1_555
H19 N11 1.014755 1_555
H20 N12 1.023364 1_555
H21 N13 1.023364 1_555
H22 N14 1.023364 1_555
H23 N15 1.023364 1_555
H24 N12 1.020195 1_545
H25 N13 1.020195 1_555
H26 N14 1.020195 1_565
H27 N15 1.020195 1_555
H28 N0 1.012109 1_555
H29 N1 1.012109 1_455
H30 N2 1.012109 1_555
H31 N3 1.012109 1_655
C0 O0 1.276876 1_555
C0 N4 1.346507 1_555
C0 N0 1.350556 1_555
C1 O1 1.276876 1_555
C1 N5 1.346507 1_555
C1 N1 1.350556 1_555
C2 O2 1.276876 1_555
C2 N6 1.346507 1_555
C2 N2 1.350556 1_555
C3 O3 1.276876 1_555
C3 N7 1.346507 1_555
C3 N3 1.350556 1_555
C4 O4 1.276113 1_545
C4 N12 1.345079 1_545
C4 N8 1.353141 1_555
C5 O5 1.276113 1_555
C5 N13 1.345079 1_555
C5 N9 1.353141 1_555
C6 O6 1.276113 1_565
C6 N14 1.345079 1_565
C6 N10 1.353141 1_555
C7 O7 1.276113 1_555
C7 N15 1.345079 1_555
C7 N11 1.353141 1_555
