# generated using pymatgen
data_FeNiGe
_symmetry_space_group_name_H-M   'P 1'
_cell_length_a   4.07581360
_cell_length_b   4.07581360
_cell_length_c   4.98879100
_cell_angle_alpha   90.00000000
_cell_angle_beta   90.00000000
_cell_angle_gamma   119.99999346
_symmetry_Int_Tables_number   1
_chemical_formula_structural   FeNiGe
_chemical_formula_sum   'Fe2 Ni2 Ge2'
_cell_volume   71.77192555
_cell_formula_units_Z   2
loop_
 _symmetry_equiv_pos_site_id
 _symmetry_equiv_pos_as_xyz
  1  'x, y, z'
loop_
 _atom_site_type_symbol
 _atom_site_label
 _atom_site_symmetry_multiplicity
 _atom_site_fract_x
 _atom_site_fract_y
 _atom_site_fract_z
 _atom_site_occupancy
  Fe  Fe0  1  0.33333300  0.66666700  0.75000000  1
  Fe  Fe1  1  0.66666700  0.33333300  0.25000000  1
  Ni  Ni0  1  0.00000000  0.00000000  0.00000000  1
  Ni  Ni1  1  0.00000000  0.00000000  0.50000000  1
  Ge  Ge0  1  0.33333300  0.66666700  0.25000000  1
  Ge  Ge1  1  0.66666700  0.33333300  0.75000000  1
loop_
_geom_bond_atom_site_label_1
_geom_bond_atom_site_label_2
_geom_bond_distance
_geom_bond_site_symmetry_2
Fe0 Ge1 2.353170 1_455
Fe0 Ge1 2.353170 1_565
Fe0 Ge1 2.353177 1_555
Fe0 Ge0 2.494395 1_556
Fe0 Ge0 2.494395 1_555
Fe0 Ni1 2.663252 1_565
Fe0 Ni0 2.663252 1_566
Fe0 Ni1 2.663255 1_665
Fe0 Ni0 2.663255 1_666
Fe0 Ni1 2.663255 1_555
Fe0 Ni0 2.663255 1_556
Fe1 Ge0 2.353170 1_545
Fe1 Ge0 2.353170 1_655
Fe1 Ge0 2.353177 1_555
Fe1 Ge1 2.494395 1_554
Fe1 Ge1 2.494395 1_555
Fe1 Ni1 2.663252 1_655
Fe1 Ni0 2.663252 1_655
Fe1 Ni1 2.663255 1_665
Fe1 Ni0 2.663255 1_555
Fe1 Ni1 2.663255 1_555
Fe1 Ni0 2.663255 1_665
Ni0 Ni1 2.494395 1_555
Ni0 Ni1 2.494395 1_554
Ge0 Ni0 2.663252 1_565
Ge0 Ni1 2.663252 1_565
Ge0 Ni0 2.663255 1_555
Ge0 Ni1 2.663255 1_665
Ge0 Ni1 2.663255 1_555
Ge0 Ni0 2.663255 1_665
Ge1 Ni1 2.663252 1_655
Ge1 Ni0 2.663252 1_656
Ge1 Ni1 2.663255 1_665
Ge1 Ni1 2.663255 1_555
Ge1 Ni0 2.663255 1_556
Ge1 Ni0 2.663255 1_666
