# generated using pymatgen
data_BaFeOF5
_symmetry_space_group_name_H-M   'P 1'
_cell_length_a   7.41485200
_cell_length_b   10.44964800
_cell_length_c   13.53885800
_cell_angle_alpha   90.00000000
_cell_angle_beta   90.00000000
_cell_angle_gamma   90.00000000
_symmetry_Int_Tables_number   1
_chemical_formula_structural   BaFeOF5
_chemical_formula_sum   'Ba8 Fe8 O8 F40'
_cell_volume   1049.02582914
_cell_formula_units_Z   8
loop_
 _symmetry_equiv_pos_site_id
 _symmetry_equiv_pos_as_xyz
  1  'x, y, z'
loop_
 _atom_site_type_symbol
 _atom_site_label
 _atom_site_symmetry_multiplicity
 _atom_site_fract_x
 _atom_site_fract_y
 _atom_site_fract_z
 _atom_site_occupancy
  Ba  Ba0  1  0.43446200  0.87291400  0.87967300  1
  Ba  Ba1  1  0.06553800  0.62708600  0.37967300  1
  Ba  Ba2  1  0.06553800  0.37291400  0.12032700  1
  Ba  Ba3  1  0.43446200  0.12708600  0.62032700  1
  Ba  Ba4  1  0.56553800  0.12708600  0.12032700  1
  Ba  Ba5  1  0.93446200  0.37291400  0.62032700  1
  Ba  Ba6  1  0.93446200  0.62708600  0.87967300  1
  Ba  Ba7  1  0.56553800  0.87291400  0.37967300  1
  Fe  Fe0  1  0.26062400  0.75936200  0.12876500  1
  Fe  Fe1  1  0.23937600  0.74063800  0.62876500  1
  Fe  Fe2  1  0.23937600  0.25936200  0.87123500  1
  Fe  Fe3  1  0.26062400  0.24063800  0.37123500  1
  Fe  Fe4  1  0.73937600  0.24063800  0.87123500  1
  Fe  Fe5  1  0.76062400  0.25936200  0.37123500  1
  Fe  Fe6  1  0.76062400  0.74063800  0.12876500  1
  Fe  Fe7  1  0.73937600  0.75936200  0.62876500  1
  O  O0  1  0.03858400  0.90833500  0.89340200  1
  O  O1  1  0.46141600  0.59166500  0.39340200  1
  O  O2  1  0.46141600  0.40833500  0.10659800  1
  O  O3  1  0.03858400  0.09166500  0.60659800  1
  O  O4  1  0.96141600  0.09166500  0.10659800  1
  O  O5  1  0.53858400  0.40833500  0.60659800  1
  O  O6  1  0.53858400  0.59166500  0.89340200  1
  O  O7  1  0.96141600  0.90833500  0.39340200  1
  F  F0  1  0.32725800  0.90067400  0.68462900  1
  F  F1  1  0.17274200  0.59932600  0.18462900  1
  F  F2  1  0.17274200  0.40067400  0.31537100  1
  F  F3  1  0.32725800  0.09932600  0.81537100  1
  F  F4  1  0.67274200  0.09932600  0.31537100  1
  F  F5  1  0.82725800  0.40067400  0.81537100  1
  F  F6  1  0.82725800  0.59932600  0.68462900  1
  F  F7  1  0.67274200  0.90067400  0.18462900  1
  F  F8  1  0.72231400  0.79395600  0.99124700  1
  F  F9  1  0.77768600  0.70604400  0.49124700  1
  F  F10  1  0.77768600  0.29395600  0.00875300  1
  F  F11  1  0.72231400  0.20604400  0.50875300  1
  F  F12  1  0.27768600  0.20604400  0.00875300  1
  F  F13  1  0.22231400  0.29395600  0.50875300  1
  F  F14  1  0.22231400  0.70604400  0.99124700  1
  F  F15  1  0.27768600  0.79395600  0.49124700  1
  F  F16  1  0.20880200  0.68851800  0.76757700  1
  F  F17  1  0.29119800  0.81148200  0.26757700  1
  F  F18  1  0.29119800  0.18851800  0.23242300  1
  F  F19  1  0.20880200  0.31148200  0.73242300  1
  F  F20  1  0.79119800  0.31148200  0.23242300  1
  F  F21  1  0.70880200  0.18851800  0.73242300  1
  F  F22  1  0.70880200  0.81148200  0.76757700  1
  F  F23  1  0.79119800  0.68851800  0.26757700  1
  F  F24  1  0.35232400  0.92007100  0.07371200  1
  F  F25  1  0.14767600  0.57992900  0.57371200  1
  F  F26  1  0.14767600  0.42007100  0.92628800  1
  F  F27  1  0.35232400  0.07992900  0.42628800  1
  F  F28  1  0.64767600  0.07992900  0.92628800  1
  F  F29  1  0.85232400  0.42007100  0.42628800  1
  F  F30  1  0.85232400  0.57992900  0.07371200  1
  F  F31  1  0.64767600  0.92007100  0.57371200  1
  F  F32  1  0.49369300  0.67978900  0.62825000  1
  F  F33  1  0.00630700  0.82021100  0.12825000  1
  F  F34  1  0.00630700  0.17978900  0.37175000  1
  F  F35  1  0.49369300  0.32021100  0.87175000  1
  F  F36  1  0.50630700  0.32021100  0.37175000  1
  F  F37  1  0.99369300  0.17978900  0.87175000  1
  F  F38  1  0.99369300  0.82021100  0.62825000  1
  F  F39  1  0.50630700  0.67978900  0.12825000  1
loop_
_geom_bond_atom_site_label_1
_geom_bond_atom_site_label_2
_geom_bond_distance
_geom_bond_site_symmetry_2
Ba0 F22 2.617879 1_555
Ba0 F3 2.643364 1_565
Ba0 F24 2.741393 1_556
Ba0 F8 2.741935 1_555
Ba0 F28 2.752688 1_565
Ba0 F0 2.772935 1_555
Ba0 F14 2.792301 1_555
Ba0 O0 2.964454 1_555
Ba0 F16 2.969145 1_555
Ba0 O6 3.044348 1_555
Ba1 F23 2.617879 1_455
Ba1 F2 2.643364 1_555
Ba1 F25 2.741393 1_555
Ba1 F9 2.741935 1_455
Ba1 F29 2.752688 1_455
Ba1 F1 2.772935 1_555
Ba1 F15 2.792301 1_555
Ba1 O1 2.964454 1_555
Ba1 F17 2.969145 1_555
Ba1 O7 3.044348 1_455
Ba2 F20 2.617879 1_455
Ba2 F1 2.643364 1_555
Ba2 F26 2.741393 1_554
Ba2 F10 2.741935 1_455
Ba2 F30 2.752688 1_455
Ba2 F2 2.772935 1_555
Ba2 F12 2.792301 1_555
Ba2 O2 2.964454 1_555
Ba2 F18 2.969145 1_555
Ba2 O4 3.044348 1_455
Ba3 F21 2.617879 1_555
Ba3 F0 2.643364 1_545
Ba3 F27 2.741393 1_555
Ba3 F11 2.741935 1_555
Ba3 F31 2.752688 1_545
Ba3 F3 2.772935 1_555
Ba3 F13 2.792301 1_555
Ba3 O3 2.964454 1_555
Ba3 F19 2.969145 1_555
Ba3 O5 3.044348 1_555
Ba4 F18 2.617879 1_555
Ba4 F7 2.643364 1_545
Ba4 F28 2.741393 1_554
Ba4 F12 2.741935 1_555
Ba4 F24 2.752688 1_545
Ba4 F4 2.772935 1_555
Ba4 F10 2.792301 1_555
Ba4 O4 2.964454 1_555
Ba4 F20 2.969145 1_555
Ba4 O2 3.044348 1_555
Ba5 F19 2.617879 1_655
Ba5 F6 2.643364 1_555
Ba5 F29 2.741393 1_555
Ba5 F13 2.741935 1_655
Ba5 F25 2.752688 1_655
Ba5 F5 2.772935 1_555
Ba5 F11 2.792301 1_555
Ba5 O5 2.964454 1_555
Ba5 F21 2.969145 1_555
Ba5 O3 3.044348 1_655
Ba6 F16 2.617879 1_655
Ba6 F5 2.643364 1_555
Ba6 F30 2.741393 1_556
Ba6 F14 2.741935 1_655
Ba6 F26 2.752688 1_655
Ba6 F6 2.772935 1_555
Ba6 F8 2.792301 1_555
Ba6 O6 2.964454 1_555
Ba6 F22 2.969145 1_555
Ba6 O0 3.044348 1_655
Ba7 F17 2.617879 1_555
Ba7 F4 2.643364 1_565
Ba7 F31 2.741393 1_555
Ba7 F15 2.741935 1_555
Ba7 F27 2.752688 1_565
Ba7 F7 2.772935 1_555
Ba7 F9 2.792301 1_555
Ba7 O7 2.964454 1_555
Ba7 F23 2.969145 1_555
Ba7 O1 3.044348 1_555
F0 Fe1 1.947645 1_555
F1 Fe0 1.947645 1_555
F2 Fe3 1.947645 1_555
F3 Fe2 1.947645 1_555
F4 Fe5 1.947645 1_555
F5 Fe4 1.947645 1_555
F6 Fe7 1.947645 1_555
F7 Fe6 1.947645 1_555
F8 Fe6 1.964064 1_556
F9 Fe7 1.964064 1_555
F10 Fe4 1.964064 1_554
F11 Fe5 1.964064 1_555
F12 Fe2 1.964064 1_554
F13 Fe3 1.964064 1_555
F14 Fe0 1.964064 1_556
F15 Fe1 1.964064 1_555
F16 Fe1 1.969772 1_555
F17 Fe0 1.969772 1_555
F18 Fe3 1.969772 1_555
F19 Fe2 1.969772 1_555
F20 Fe5 1.969772 1_555
F21 Fe4 1.969772 1_555
F22 Fe7 1.969772 1_555
F23 Fe6 1.969772 1_555
F24 Fe0 1.959107 1_555
F25 Fe1 1.959107 1_555
F26 Fe2 1.959107 1_555
F27 Fe3 1.959107 1_555
F28 Fe4 1.959107 1_555
F29 Fe5 1.959107 1_555
F30 Fe6 1.959107 1_555
F31 Fe7 1.959107 1_555
F32 Fe1 1.990052 1_555
F32 Fe7 2.002513 1_555
F33 Fe0 1.990052 1_555
F33 Fe6 2.002513 1_455
F34 Fe3 1.990052 1_555
F34 Fe5 2.002513 1_455
F35 Fe2 1.990052 1_555
F35 Fe4 2.002513 1_555
F36 Fe5 1.990052 1_555
F36 Fe3 2.002513 1_555
F37 Fe4 1.990052 1_555
F37 Fe2 2.002513 1_655
F38 Fe7 1.990052 1_555
F38 Fe1 2.002513 1_655
F39 Fe6 1.990052 1_555
F39 Fe0 2.002513 1_555
