# generated using pymatgen
data_Te2Mo3WS6
_symmetry_space_group_name_H-M   'P 1'
_cell_length_a   3.27281754
_cell_length_b   3.27281754
_cell_length_c   37.26166900
_cell_angle_alpha   90.00000000
_cell_angle_beta   90.00000000
_cell_angle_gamma   119.99999072
_symmetry_Int_Tables_number   1
_chemical_formula_structural   Te2Mo3WS6
_chemical_formula_sum   'Te2 Mo3 W1 S6'
_cell_volume   345.65000239
_cell_formula_units_Z   1
loop_
 _symmetry_equiv_pos_site_id
 _symmetry_equiv_pos_as_xyz
  1  'x, y, z'
loop_
 _atom_site_type_symbol
 _atom_site_label
 _atom_site_symmetry_multiplicity
 _atom_site_fract_x
 _atom_site_fract_y
 _atom_site_fract_z
 _atom_site_occupancy
  Te  Te0  1  0.66666700  0.33333300  0.41789900  1
  Te  Te1  1  0.66666700  0.33333300  0.52135400  1
  Mo  Mo0  1  0.33333300  0.66666700  0.09391600  1
  Mo  Mo1  1  0.33333300  0.66666700  0.46963800  1
  Mo  Mo2  1  0.66666700  0.33333300  0.28172500  1
  W  W0  1  0.66666700  0.33333300  0.65764200  1
  S  S0  1  0.33333300  0.66666700  0.32302600  1
  S  S1  1  0.33333300  0.66666700  0.69906900  1
  S  S2  1  0.66666700  0.33333300  0.05261700  1
  S  S3  1  0.66666700  0.33333300  0.13522700  1
  S  S4  1  0.33333300  0.66666700  0.24045600  1
  S  S5  1  0.33333300  0.66666700  0.61617700  1
loop_
_geom_bond_atom_site_label_1
_geom_bond_atom_site_label_2
_geom_bond_distance
_geom_bond_site_symmetry_2
Mo0 S2 2.436916 1_455
Mo0 S2 2.436916 1_565
Mo0 S2 2.436920 1_555
Mo0 S3 2.437198 1_455
Mo0 S3 2.437198 1_565
Mo0 S3 2.437202 1_555
Mo1 Te1 2.698863 1_455
Mo1 Te1 2.698863 1_565
Mo1 Te1 2.698867 1_555
Mo1 Te0 2.699475 1_565
Mo1 Te0 2.699475 1_455
Mo1 Te0 2.699479 1_555
Mo2 S4 2.436210 1_545
Mo2 S4 2.436210 1_655
Mo2 S4 2.436214 1_555
Mo2 S0 2.436963 1_545
Mo2 S0 2.436963 1_655
Mo2 S0 2.436967 1_555
S1 W0 2.439930 1_455
S1 W0 2.439930 1_565
S1 W0 2.439935 1_555
S5 W0 2.440826 1_455
S5 W0 2.440826 1_565
S5 W0 2.440831 1_555
