# generated using pymatgen
data_Li4MnCo2O7
_symmetry_space_group_name_H-M   'P 1'
_cell_length_a   3.03250600
_cell_length_b   6.38700263
_cell_length_c   13.57420739
_cell_angle_alpha   96.03511418
_cell_angle_beta   88.98837623
_cell_angle_gamma   103.36904028
_symmetry_Int_Tables_number   1
_chemical_formula_structural   Li4MnCo2O7
_chemical_formula_sum   'Li8 Mn2 Co4 O14'
_cell_volume   254.36531682
_cell_formula_units_Z   2
loop_
 _symmetry_equiv_pos_site_id
 _symmetry_equiv_pos_as_xyz
  1  'x, y, z'
loop_
 _atom_site_type_symbol
 _atom_site_label
 _atom_site_symmetry_multiplicity
 _atom_site_fract_x
 _atom_site_fract_y
 _atom_site_fract_z
 _atom_site_occupancy
  Li  Li0  1  0.06864200  0.78294600  0.64389700  1
  Li  Li1  1  0.21228000  0.35436500  0.93047700  1
  Li  Li2  1  0.36078300  0.93059400  0.21346600  1
  Li  Li3  1  0.63921700  0.06940600  0.78653400  1
  Li  Li4  1  0.78772000  0.64563500  0.06952300  1
  Li  Li5  1  0.93135800  0.21705400  0.35610300  1
  Li  Li6  1  0.50000000  0.50000000  0.50000000  1
  Li  Li7  1  0.50000000  0.00000000  0.00000000  1
  Mn  Mn0  1  0.21413600  0.85425600  0.42646100  1
  Mn  Mn1  1  0.78586400  0.14574400  0.57353900  1
  Co  Co0  1  0.35884800  0.43293400  0.71652700  1
  Co  Co1  1  0.64115200  0.56706600  0.28347300  1
  Co  Co2  1  0.93197300  0.72564100  0.86332100  1
  Co  Co3  1  0.06802700  0.27435900  0.13667900  1
  O  O0  1  0.62538100  0.83267800  0.53449900  1
  O  O1  1  0.77713600  0.41861300  0.81897300  1
  O  O2  1  0.93594500  0.99344200  0.11291500  1
  O  O3  1  0.20479400  0.12491600  0.67911500  1
  O  O4  1  0.34195600  0.68032100  0.95551700  1
  O  O5  1  0.48960400  0.26706900  0.24432600  1
  O  O6  1  0.05262300  0.54484900  0.38754300  1
  O  O7  1  0.51039600  0.73293100  0.75567400  1
  O  O8  1  0.65804400  0.31967900  0.04448300  1
  O  O9  1  0.79520600  0.87508400  0.32088500  1
  O  O10  1  0.06405500  0.00655800  0.88708500  1
  O  O11  1  0.22286400  0.58138700  0.18102700  1
  O  O12  1  0.37461900  0.16732200  0.46550100  1
  O  O13  1  0.94737700  0.45515100  0.61245700  1
loop_
_geom_bond_atom_site_label_1
_geom_bond_atom_site_label_2
_geom_bond_distance
_geom_bond_site_symmetry_2
Li0 O13 2.040163 1_455
Li0 O0 2.116616 1_455
Li0 O3 2.130717 1_565
Li0 O7 2.137842 1_555
Li0 O0 2.217918 1_555
Li0 O7 2.243032 1_455
Li1 O4 2.020329 1_555
Li1 O8 2.134415 1_556
Li1 O1 2.156879 1_455
Li1 O10 2.180881 1_555
Li1 O8 2.253188 1_456
Li1 O1 2.259964 1_555
Li2 O2 2.024922 1_455
Li2 O5 2.091606 1_565
Li2 O9 2.092817 1_555
Li2 O11 2.170724 1_555
Li2 O2 2.184863 1_555
Li2 O9 2.220958 1_455
Li3 O10 2.024922 1_655
Li3 O7 2.091606 1_545
Li3 O3 2.092817 1_555
Li3 O1 2.170724 1_555
Li3 O10 2.184863 1_555
Li3 O3 2.220958 1_655
Li4 O8 2.020329 1_555
Li4 O4 2.134415 1_554
Li4 O11 2.156879 1_655
Li4 O2 2.180881 1_555
Li4 O4 2.253188 1_654
Li4 O11 2.259964 1_555
Li5 O6 2.040163 1_655
Li5 O12 2.116616 1_655
Li5 O9 2.130717 1_545
Li5 O5 2.137842 1_555
Li5 O12 2.217918 1_555
Li5 O5 2.243032 1_655
Li6 O0 2.074164 1_555
Li6 O12 2.074164 1_555
Li6 O13 2.144214 1_555
Li6 O6 2.144214 1_555
Li6 O13 2.236144 1_455
Li6 O6 2.236144 1_655
Li7 O8 2.015353 1_555
Li7 O4 2.015353 1_544
Li7 O2 2.051676 1_545
Li7 O10 2.051676 1_554
Li7 O10 2.272581 1_654
Li7 O2 2.272581 1_445
Mn0 O6 1.940691 1_555
Mn0 O12 1.962695 1_565
Mn0 O9 1.966715 1_455
Mn0 O0 1.977760 1_555
Mn0 O9 2.240315 1_555
Mn0 O0 2.278952 1_455
Mn1 O13 1.940691 1_555
Mn1 O0 1.962695 1_545
Mn1 O3 1.966715 1_655
Mn1 O12 1.977760 1_555
Mn1 O3 2.240315 1_555
Mn1 O12 2.278952 1_655
Co0 O7 1.884743 1_555
Co0 O1 1.921947 1_555
Co0 O3 1.928663 1_555
Co0 O13 1.938818 1_455
Co0 O1 2.218009 1_455
Co0 O13 2.244325 1_555
Co1 O5 1.884743 1_555
Co1 O11 1.921947 1_555
Co1 O9 1.928663 1_555
Co1 O6 1.938818 1_655
Co1 O11 2.218009 1_655
Co1 O6 2.244325 1_555
Co2 O10 1.741903 1_665
Co2 O4 1.869032 1_655
Co2 O1 1.940177 1_555
Co2 O7 1.969653 1_555
Co2 O4 2.146848 1_555
Co2 O7 2.258349 1_655
Co3 O2 1.741903 1_445
Co3 O8 1.869032 1_455
Co3 O11 1.940177 1_555
Co3 O5 1.969653 1_555
Co3 O8 2.146848 1_555
Co3 O5 2.258349 1_455
