# generated using pymatgen
data_Li9Mn2Co5O16
_symmetry_space_group_name_H-M   'P 1'
_cell_length_a   5.10919100
_cell_length_b   7.68969396
_cell_length_c   7.79994963
_cell_angle_alpha   98.73831727
_cell_angle_beta   101.48039191
_cell_angle_gamma   102.69586773
_symmetry_Int_Tables_number   1
_chemical_formula_structural   Li9Mn2Co5O16
_chemical_formula_sum   'Li9 Mn2 Co5 O16'
_cell_volume   286.77019164
_cell_formula_units_Z   1
loop_
 _symmetry_equiv_pos_site_id
 _symmetry_equiv_pos_as_xyz
  1  'x, y, z'
loop_
 _atom_site_type_symbol
 _atom_site_label
 _atom_site_symmetry_multiplicity
 _atom_site_fract_x
 _atom_site_fract_y
 _atom_site_fract_z
 _atom_site_occupancy
  Li  Li0  1  0.49874100  0.12305900  0.87188300  1
  Li  Li1  1  0.49079500  0.99899200  0.49668300  1
  Li  Li2  1  0.49881500  0.37545100  0.62548500  1
  Li  Li3  1  0.49788600  0.24893100  0.24844700  1
  Li  Li4  1  0.50473900  0.63280800  0.36982600  1
  Li  Li5  1  0.50925800  0.50539100  0.00835500  1
  Li  Li6  1  0.49750400  0.86764000  0.13091700  1
  Li  Li7  1  0.50150000  0.74657400  0.74898200  1
  Li  Li8  1  0.99814400  0.75075700  0.24971600  1
  Mn  Mn0  1  0.00156800  0.99942000  0.00263300  1
  Mn  Mn1  1  0.99723500  0.37660800  0.12530900  1
  Co  Co0  1  0.99918900  0.87320100  0.61492800  1
  Co  Co1  1  0.99815500  0.62707900  0.88169500  1
  Co  Co2  1  0.99379300  0.50617800  0.49493000  1
  Co  Co3  1  0.01106600  0.25210400  0.74650600  1
  Co  Co4  1  0.99750300  0.12205200  0.37352500  1
  O  O0  1  0.76873900  0.12900000  0.11156100  1
  O  O1  1  0.79043600  0.00497700  0.76113300  1
  O  O2  1  0.77453900  0.37733800  0.89135700  1
  O  O3  1  0.78361500  0.25196000  0.50253700  1
  O  O4  1  0.76216100  0.62379900  0.62728600  1
  O  O5  1  0.76886400  0.48817500  0.24810900  1
  O  O6  1  0.76782400  0.89452000  0.38611300  1
  O  O7  1  0.77307600  0.76050400  0.99093300  1
  O  O8  1  0.24682500  0.12606200  0.62490600  1
  O  O9  1  0.21353200  0.00641000  0.23727400  1
  O  O10  1  0.21244800  0.36259000  0.35735200  1
  O  O11  1  0.22124500  0.24287400  0.00186500  1
  O  O12  1  0.23250200  0.60560900  0.12083700  1
  O  O13  1  0.22541100  0.49594000  0.75256700  1
  O  O14  1  0.22999500  0.87958200  0.88376300  1
  O  O15  1  0.23289700  0.74441300  0.51258800  1
loop_
_geom_bond_atom_site_label_1
_geom_bond_atom_site_label_2
_geom_bond_distance
_geom_bond_site_symmetry_2
Li0 O0 2.078402 1_556
Li0 O14 2.091093 1_545
Li0 O8 2.099469 1_555
Li0 O2 2.108419 1_555
Li0 O1 2.158877 1_555
Li0 O11 2.179312 1_556
Li1 O6 2.041501 1_555
Li1 O8 2.059967 1_565
Li1 O15 2.142189 1_555
Li1 O3 2.165855 1_565
Li1 O9 2.243580 1_565
Li1 O1 2.298636 1_565
Li2 O8 2.060353 1_555
Li2 O4 2.076645 1_555
Li2 O13 2.152498 1_555
Li2 O3 2.196555 1_555
Li2 O2 2.259266 1_555
Li2 O10 2.275960 1_555
Li3 O5 2.045654 1_555
Li3 O9 2.074965 1_555
Li3 O10 2.107145 1_555
Li3 O11 2.135606 1_555
Li3 O0 2.180699 1_555
Li3 O3 2.208823 1_555
Li4 O12 2.103225 1_555
Li4 O6 2.130329 1_555
Li4 O15 2.180530 1_555
Li4 O4 2.190507 1_555
Li4 O5 2.192762 1_555
Li4 O10 2.252563 1_555
Li5 O12 2.032341 1_555
Li5 O5 2.106893 1_555
Li5 O2 2.108412 1_554
Li5 O7 2.162257 1_554
Li5 O13 2.201558 1_554
Li5 O11 2.208296 1_555
Li6 O6 2.137179 1_555
Li6 O12 2.147014 1_555
Li6 O14 2.157070 1_554
Li6 O7 2.168339 1_554
Li6 O9 2.196037 1_565
Li6 O0 2.221191 1_565
Li7 O15 2.063208 1_555
Li7 O7 2.080663 1_555
Li7 O4 2.085553 1_555
Li7 O13 2.131227 1_555
Li7 O1 2.175844 1_565
Li7 O14 2.225527 1_555
Li8 O9 2.057845 1_665
Li8 O5 2.096727 1_555
Li8 O12 2.101353 1_655
Li8 O6 2.109861 1_555
Li8 O7 2.135918 1_554
Li8 O15 2.173063 1_655
Mn0 O9 1.918550 1_565
Mn0 O7 1.926230 1_454
Mn0 O14 1.927379 1_554
Mn0 O0 1.948312 1_465
Mn0 O11 1.961370 1_565
Mn0 O1 1.987359 1_464
Mn1 O5 1.910512 1_555
Mn1 O12 1.911013 1_655
Mn1 O2 1.950382 1_554
Mn1 O10 1.953372 1_655
Mn1 O0 1.977576 1_555
Mn1 O11 1.987386 1_655
Co0 O15 1.924252 1_655
Co0 O6 1.985899 1_555
Co0 O1 2.018156 1_565
Co0 O8 2.054530 1_665
Co0 O4 2.058077 1_555
Co0 O14 2.179215 1_655
Co1 O7 1.934974 1_555
Co1 O13 2.012722 1_655
Co1 O2 2.028022 1_555
Co1 O14 2.036015 1_655
Co1 O12 2.057086 1_656
Co1 O4 2.100284 1_555
Co2 O15 1.933923 1_655
Co2 O4 1.989355 1_555
Co2 O5 2.003645 1_555
Co2 O3 2.028798 1_555
Co2 O10 2.068355 1_655
Co2 O13 2.141797 1_655
Co3 O13 1.940913 1_555
Co3 O8 1.994626 1_555
Co3 O1 2.017533 1_455
Co3 O3 2.022418 1_455
Co3 O11 2.085771 1_556
Co3 O2 2.094929 1_455
Co4 O6 1.908808 1_545
Co4 O9 1.936397 1_655
Co4 O3 1.953679 1_555
Co4 O10 1.968854 1_655
Co4 O8 2.106728 1_655
Co4 O0 2.157313 1_555
