# generated using pymatgen
data_CeGaO3
_symmetry_space_group_name_H-M   'P 1'
_cell_length_a   5.49188300
_cell_length_b   5.58874100
_cell_length_c   7.86941200
_cell_angle_alpha   90.00000000
_cell_angle_beta   90.00000000
_cell_angle_gamma   90.00000000
_symmetry_Int_Tables_number   1
_chemical_formula_structural   CeGaO3
_chemical_formula_sum   'Ce4 Ga4 O12'
_cell_volume   241.53359368
_cell_formula_units_Z   4
loop_
 _symmetry_equiv_pos_site_id
 _symmetry_equiv_pos_as_xyz
  1  'x, y, z'
loop_
 _atom_site_type_symbol
 _atom_site_label
 _atom_site_symmetry_multiplicity
 _atom_site_fract_x
 _atom_site_fract_y
 _atom_site_fract_z
 _atom_site_occupancy
  Ce  Ce0  1  0.51019200  0.53905100  0.25000000  1
  Ce  Ce1  1  0.98980800  0.03905100  0.25000000  1
  Ce  Ce2  1  0.48980800  0.46094900  0.75000000  1
  Ce  Ce3  1  0.01019200  0.96094900  0.75000000  1
  Ga  Ga0  1  0.50000000  0.00000000  0.00000000  1
  Ga  Ga1  1  0.00000000  0.50000000  0.50000000  1
  Ga  Ga2  1  0.50000000  0.00000000  0.50000000  1
  Ga  Ga3  1  0.00000000  0.50000000  0.00000000  1
  O  O0  1  0.41832000  0.98183800  0.25000000  1
  O  O1  1  0.08168000  0.48183800  0.25000000  1
  O  O2  1  0.58168000  0.01816200  0.75000000  1
  O  O3  1  0.91832000  0.51816200  0.75000000  1
  O  O4  1  0.79022000  0.79025000  0.04333300  1
  O  O5  1  0.70978000  0.29025000  0.45666700  1
  O  O6  1  0.20978000  0.20975000  0.54333300  1
  O  O7  1  0.29022000  0.70975000  0.95666700  1
  O  O8  1  0.20978000  0.20975000  0.95666700  1
  O  O9  1  0.29022000  0.70975000  0.54333300  1
  O  O10  1  0.79022000  0.79025000  0.45666700  1
  O  O11  1  0.70978000  0.29025000  0.04333300  1
loop_
_geom_bond_atom_site_label_1
_geom_bond_atom_site_label_2
_geom_bond_distance
_geom_bond_site_symmetry_2
Ce0 O1 2.374961 1_555
Ce0 O5 2.404146 1_555
Ce0 O11 2.404146 1_555
Ce0 O0 2.525534 1_555
Ce0 O10 2.642155 1_555
Ce0 O4 2.642155 1_555
Ce0 O9 2.774532 1_555
Ce0 O7 2.774532 1_554
Ce1 O0 2.374961 1_645
Ce1 O10 2.404146 1_545
Ce1 O4 2.404146 1_545
Ce1 O1 2.525534 1_655
Ce1 O5 2.642155 1_555
Ce1 O11 2.642155 1_555
Ce1 O6 2.774532 1_655
Ce1 O8 2.774532 1_654
Ce2 O3 2.374961 1_555
Ce2 O7 2.404146 1_555
Ce2 O9 2.404146 1_555
Ce2 O2 2.525534 1_555
Ce2 O8 2.642155 1_555
Ce2 O6 2.642155 1_555
Ce2 O11 2.774532 1_556
Ce2 O5 2.774532 1_555
Ce3 O2 2.374961 1_465
Ce3 O8 2.404146 1_565
Ce3 O6 2.404146 1_565
Ce3 O3 2.525534 1_455
Ce3 O7 2.642155 1_555
Ce3 O9 2.642155 1_555
Ce3 O4 2.774532 1_456
Ce3 O10 2.774532 1_455
Ga0 O4 2.007685 1_545
Ga0 O8 2.007685 1_554
Ga0 O11 2.018639 1_555
Ga0 O7 2.018639 1_544
Ga0 O2 2.020396 1_554
Ga0 O0 2.020396 1_545
Ga1 O5 2.007685 1_455
Ga1 O9 2.007685 1_555
Ga1 O6 2.018639 1_555
Ga1 O10 2.018639 1_455
Ga1 O3 2.020396 1_455
Ga1 O1 2.020396 1_555
Ga2 O10 2.007685 1_545
Ga2 O6 2.007685 1_555
Ga2 O9 2.018639 1_545
Ga2 O5 2.018639 1_555
Ga2 O2 2.020396 1_555
Ga2 O0 2.020396 1_545
Ga3 O11 2.007685 1_455
Ga3 O7 2.007685 1_554
Ga3 O4 2.018639 1_455
Ga3 O8 2.018639 1_554
Ga3 O3 2.020396 1_454
Ga3 O1 2.020396 1_555
