# generated using pymatgen
data_PrAlNi4
_symmetry_space_group_name_H-M   'P 1'
_cell_length_a   4.95131775
_cell_length_b   4.95131775
_cell_length_c   4.00580754
_cell_angle_alpha   90.00000000
_cell_angle_beta   90.00000000
_cell_angle_gamma   118.00716629
_symmetry_Int_Tables_number   1
_chemical_formula_structural   PrAlNi4
_chemical_formula_sum   'Pr1 Al1 Ni4'
_cell_volume   86.70371694
_cell_formula_units_Z   1
loop_
 _symmetry_equiv_pos_site_id
 _symmetry_equiv_pos_as_xyz
  1  'x, y, z'
loop_
 _atom_site_type_symbol
 _atom_site_label
 _atom_site_symmetry_multiplicity
 _atom_site_fract_x
 _atom_site_fract_y
 _atom_site_fract_z
 _atom_site_occupancy
  Pr  Pr0  1  0.50000000  0.50000000  0.00000000  1
  Al  Al0  1  -0.00000000  -0.00000000  0.50000000  1
  Ni  Ni0  1  0.16877579  0.83122421  -0.00000000  1
  Ni  Ni1  1  0.83122421  0.16877579  0.00000000  1
  Ni  Ni2  1  -0.00000000  0.50000000  0.50000000  1
  Ni  Ni3  1  0.50000000  -0.00000000  0.50000000  1
loop_
_geom_bond_atom_site_label_1
_geom_bond_atom_site_label_2
_geom_bond_distance
_geom_bond_site_symmetry_2
Al0 Ni1 2.462547 1_456
Al0 Ni0 2.462547 1_546
Al0 Ni1 2.462547 1_455
Al0 Ni0 2.462547 1_545
Al0 Ni3 2.475659 1_455
Al0 Ni2 2.475659 1_555
Al0 Ni2 2.475659 1_545
Al0 Ni3 2.475659 1_555
Al0 Pr0 3.242432 1_556
Al0 Pr0 3.242432 1_445
Al0 Pr0 3.242432 1_446
Al0 Pr0 3.242432 1_555
Ni0 Ni3 2.472334 1_565
Ni0 Ni2 2.472334 1_555
Ni0 Ni3 2.472334 1_564
Ni0 Ni2 2.472334 1_554
Ni0 Pr0 2.811608 1_555
Ni0 Pr0 2.924766 1_565
Ni0 Pr0 2.924766 1_455
Ni1 Ni3 2.472334 1_554
Ni1 Ni3 2.472334 1_555
Ni1 Ni2 2.472334 1_655
Ni1 Ni2 2.472334 1_654
Ni1 Pr0 2.811608 1_555
Ni1 Pr0 2.924766 1_655
Ni1 Pr0 2.924766 1_545
Ni2 Ni3 2.549852 1_455
Ni2 Ni3 2.549852 1_565
Ni2 Pr0 3.184417 1_556
Ni2 Pr0 3.184417 1_456
Ni2 Pr0 3.184417 1_455
Ni2 Pr0 3.184417 1_555
Ni3 Pr0 3.184417 1_556
Ni3 Pr0 3.184417 1_546
Ni3 Pr0 3.184417 1_545
Ni3 Pr0 3.184417 1_555
