# generated using pymatgen
data_Tb12Ge5S28
_symmetry_space_group_name_H-M   'P 1'
_cell_length_a   9.91403000
_cell_length_b   11.44934846
_cell_length_c   11.45438553
_cell_angle_alpha   96.94415786
_cell_angle_beta   115.63960495
_cell_angle_gamma   115.65020527
_symmetry_Int_Tables_number   1
_chemical_formula_structural   Tb12Ge5S28
_chemical_formula_sum   'Tb12 Ge5 S28'
_cell_volume   977.70620758
_cell_formula_units_Z   1
loop_
 _symmetry_equiv_pos_site_id
 _symmetry_equiv_pos_as_xyz
  1  'x, y, z'
loop_
 _atom_site_type_symbol
 _atom_site_label
 _atom_site_symmetry_multiplicity
 _atom_site_fract_x
 _atom_site_fract_y
 _atom_site_fract_z
 _atom_site_occupancy
  Tb  Tb0  1  0.06235800  0.93274100  0.29728400  1
  Tb  Tb1  1  0.58701400  0.46249100  0.80881700  1
  Tb  Tb2  1  0.92064400  0.69769700  0.57332200  1
  Tb  Tb3  1  0.41378900  0.18053900  0.05096900  1
  Tb  Tb4  1  0.39925200  0.74586100  0.52547400  1
  Tb  Tb5  1  0.87056700  0.23381700  0.99665900  1
  Tb  Tb6  1  0.91615400  0.03684600  0.69280300  1
  Tb  Tb7  1  0.43026200  0.56627700  0.19903700  1
  Tb  Tb8  1  0.08240300  0.31604500  0.44881800  1
  Tb  Tb9  1  0.58227900  0.80419200  0.92634200  1
  Tb  Tb10  1  0.63130600  0.26628900  0.49747800  1
  Tb  Tb11  1  0.09981300  0.75416800  0.97754900  1
  Ge  Ge0  1  0.41074900  0.08037600  0.74608000  1
  Ge  Ge1  1  0.91602000  0.57957500  0.24770200  1
  Ge  Ge2  1  0.66500300  0.99773100  0.33232100  1
  Ge  Ge3  1  0.16639700  0.49998600  0.83235800  1
  Ge  Ge4  1  0.23694900  0.23712700  0.23744000  1
  S  S0  1  0.64551200  0.24182800  0.74884500  1
  S  S1  1  0.16186500  0.73338400  0.25778800  1
  S  S2  1  0.30416300  0.20898000  0.78210500  1
  S  S3  1  0.80188500  0.69780900  0.29309400  1
  S  S4  1  0.53096200  0.04387000  0.94463200  1
  S  S5  1  0.02704200  0.54552900  0.44731400  1
  S  S6  1  0.58619400  0.00586900  0.48732300  1
  S  S7  1  0.08832700  0.50513700  0.98934400  1
  S  S8  1  0.93982300  0.03885600  0.45466200  1
  S  S9  1  0.43839100  0.53723000  0.95725300  1
  S  S10  1  0.71371400  0.19749700  0.29650200  1
  S  S11  1  0.21540900  0.69768100  0.79664200  1
  S  S12  1  0.22392300  0.88957900  0.55727600  1
  S  S13  1  0.72317300  0.39031800  0.05619500  1
  S  S14  1  0.97630200  0.30282100  0.64857800  1
  S  S15  1  0.47447000  0.81425200  0.13565500  1
  S  S16  1  0.31747000  0.22875200  0.46573600  1
  S  S17  1  0.83203900  0.73684800  0.99976400  1
  S  S18  1  0.08245100  0.91462700  0.82070200  1
  S  S19  1  0.53975700  0.39266000  0.30268500  1
  S  S20  1  0.69078100  0.95099600  0.78294000  1
  S  S21  1  0.18390900  0.42260400  0.27377300  1
  S  S22  1  0.64856500  0.74423300  0.48340400  1
  S  S23  1  0.15927700  0.24485300  0.00216600  1
  S  S24  1  0.92367200  0.08071300  0.16605600  1
  S  S25  1  0.40109100  0.56590400  0.66142600  1
  S  S26  1  0.28729000  0.04426200  0.20192200  1
  S  S27  1  0.79207800  0.53165100  0.69626500  1
loop_
_geom_bond_atom_site_label_1
_geom_bond_atom_site_label_2
_geom_bond_distance
_geom_bond_site_symmetry_2
Ge0 S12 2.183538 1_545
Ge0 S0 2.243288 1_555
Ge0 S2 2.243304 1_555
Ge0 S4 2.254525 1_555
Ge1 S13 2.190210 1_555
Ge1 S5 2.236122 1_655
Ge1 S1 2.246377 1_655
Ge1 S3 2.246844 1_555
Ge2 S15 2.189405 1_555
Ge2 S6 2.234925 1_565
Ge2 S8 2.243735 1_565
Ge2 S10 2.252757 1_565
Ge3 S14 2.193955 1_455
Ge3 S11 2.229476 1_555
Ge3 S9 2.240166 1_555
Ge3 S7 2.248181 1_555
Ge4 S16 2.409349 1_555
Ge4 S19 2.418729 1_555
Ge4 S21 2.429360 1_555
Ge4 S24 2.480871 1_455
Ge4 S23 2.486780 1_555
Ge4 S26 2.490633 1_555
S0 Tb5 2.793417 1_555
S0 Tb10 2.875165 1_555
S0 Tb1 2.895652 1_555
S1 Tb4 2.884214 1_555
S1 Tb0 2.910963 1_555
S1 Tb11 3.056377 1_554
S2 Tb1 2.894473 1_555
S2 Tb3 2.902391 1_556
S2 Tb6 3.044935 1_455
S3 Tb0 2.784581 1_655
S3 Tb7 2.893373 1_555
S3 Tb2 2.901897 1_555
S4 Tb3 2.760232 1_556
S4 Tb5 2.833996 1_555
S4 Tb9 2.999173 1_545
S5 Tb8 2.907959 1_555
S5 Tb2 2.920932 1_455
S5 Tb4 2.999349 1_555
S6 Tb10 2.796489 1_555
S6 Tb6 2.914958 1_555
S6 Tb4 2.954118 1_545
S7 Tb11 2.825982 1_555
S7 Tb7 2.871135 1_556
S7 Tb5 2.954847 1_455
S8 Tb6 2.839138 1_555
S8 Tb8 2.885129 1_655
S8 Tb0 2.974035 1_645
S9 Tb7 2.789410 1_556
S9 Tb9 2.902876 1_555
S9 Tb1 2.949913 1_555
S10 Tb8 2.803561 1_655
S10 Tb10 2.886801 1_555
S10 Tb3 2.986620 1_555
S11 Tb9 2.822911 1_555
S11 Tb11 2.897990 1_555
S11 Tb2 2.935061 1_455
S12 Tb0 2.931146 1_555
S12 Tb4 2.956508 1_555
S12 Tb2 2.959349 1_455
S13 Tb3 2.934059 1_555
S13 Tb5 2.940204 1_554
S13 Tb1 2.959015 1_554
S14 Tb10 2.886574 1_555
S14 Tb8 2.897196 1_655
S14 Tb6 2.991320 1_555
S15 Tb7 2.911433 1_555
S15 Tb9 3.026779 1_554
S15 Tb11 3.035558 1_554
S16 Tb10 2.796984 1_555
S16 Tb8 2.853066 1_555
S16 Tb0 2.894901 1_545
S16 Tb1 3.453052 1_555
S17 Tb11 2.700491 1_655
S17 Tb9 2.727733 1_555
S17 Tb1 2.772435 1_555
S17 Tb0 2.973512 1_656
S18 Tb6 2.687982 1_465
S18 Tb11 2.727035 1_555
S18 Tb2 2.772438 1_455
S18 Tb3 2.986346 1_566
S19 Tb7 2.804053 1_555
S19 Tb10 2.839111 1_555
S19 Tb3 2.887195 1_555
S19 Tb2 3.449696 1_555
S20 Tb9 2.704017 1_555
S20 Tb6 2.713838 1_565
S20 Tb4 2.763820 1_555
S20 Tb5 2.994238 1_565
S21 Tb8 2.792148 1_555
S21 Tb7 2.841741 1_555
S21 Tb5 2.896889 1_454
S21 Tb4 3.438074 1_555
S22 Tb4 2.722194 1_555
S22 Tb2 2.755593 1_555
S22 Tb7 2.814573 1_555
S22 Tb6 2.978332 1_565
S23 Tb3 2.776483 1_555
S23 Tb5 2.782319 1_454
S23 Tb6 3.104241 1_454
S23 Tb7 3.168085 1_555
S24 Tb5 2.802191 1_554
S24 Tb0 2.804283 1_645
S24 Tb9 3.097827 1_544
S24 Tb8 3.167725 1_655
S25 Tb1 2.707286 1_555
S25 Tb4 2.730265 1_555
S25 Tb8 2.815737 1_555
S25 Tb9 2.985972 1_555
S26 Tb0 2.788634 1_545
S26 Tb3 2.798549 1_555
S26 Tb11 3.090113 1_544
S26 Tb10 3.158469 1_555
S27 Tb2 2.706451 1_555
S27 Tb1 2.746563 1_555
S27 Tb10 2.819542 1_555
S27 Tb11 2.993083 1_655
