# generated using pymatgen
data_Tb2Si2O7
_symmetry_space_group_name_H-M   'P 1'
_cell_length_a   6.62605436
_cell_length_b   6.65130016
_cell_length_c   12.04684329
_cell_angle_alpha   94.20881928
_cell_angle_beta   90.96724988
_cell_angle_gamma   91.76006580
_symmetry_Int_Tables_number   1
_chemical_formula_structural   Tb2Si2O7
_chemical_formula_sum   'Tb8 Si8 O28'
_cell_volume   529.14785326
_cell_formula_units_Z   4
loop_
 _symmetry_equiv_pos_site_id
 _symmetry_equiv_pos_as_xyz
  1  'x, y, z'
loop_
 _atom_site_type_symbol
 _atom_site_label
 _atom_site_symmetry_multiplicity
 _atom_site_fract_x
 _atom_site_fract_y
 _atom_site_fract_z
 _atom_site_occupancy
  Tb  Tb0  1  0.67269336  0.17394550  0.89157675  1
  Tb  Tb1  1  0.32730664  0.82605450  0.10842325  1
  Tb  Tb2  1  0.36899945  0.22262096  0.63231967  1
  Tb  Tb3  1  0.63100055  0.77737904  0.36768033  1
  Tb  Tb4  1  0.88228302  0.91155815  0.64108674  1
  Tb  Tb5  1  0.11771698  0.08844185  0.35891326  1
  Tb  Tb6  1  0.94910529  0.67360162  0.88437380  1
  Tb  Tb7  1  0.05089471  0.32639838  0.11562620  1
  Si  Si0  1  0.14475811  0.62412993  0.38144910  1
  Si  Si1  1  0.85524189  0.37587007  0.61855090  1
  Si  Si2  1  0.37606517  0.72693629  0.59511036  1
  Si  Si3  1  0.62393483  0.27306371  0.40488964  1
  Si  Si4  1  0.48811656  0.66739093  0.82509575  1
  Si  Si5  1  0.51188344  0.33260907  0.17490425  1
  Si  Si6  1  0.15475589  0.14977603  0.88393191  1
  Si  Si7  1  0.84524411  0.85022397  0.11606809  1
  O  O0  1  0.00182691  0.98849825  0.81430210  1
  O  O1  1  -0.00182691  0.01150175  0.18569790  1
  O  O2  1  0.00050995  0.33421677  0.91789225  1
  O  O3  1  0.99949005  0.66578323  0.08210775  1
  O  O4  1  0.34807126  0.21133191  0.81380440  1
  O  O5  1  0.65192874  0.78866809  0.18619560  1
  O  O6  1  0.23086576  0.08491725  0.00369792  1
  O  O7  1  0.76913424  0.91508275  0.99630208  1
  O  O8  1  0.07485387  0.41612394  0.31302803  1
  O  O9  1  0.92514613  0.58387606  0.68697197  1
  O  O10  1  0.96348531  0.76922332  0.42533290  1
  O  O11  1  0.03651469  0.23077668  0.57466710  1
  O  O12  1  0.28799107  0.77857984  0.31376313  1
  O  O13  1  0.71200893  0.22142016  0.68623687  1
  O  O14  1  0.28730053  0.57378476  0.49056245  1
  O  O15  1  0.71269947  0.42621524  0.50943755  1
  O  O16  1  0.35615130  0.48768011  0.12617641  1
  O  O17  1  0.64384870  0.51231989  0.87382359  1
  O  O18  1  0.38025007  0.13748965  0.21103776  1
  O  O19  1  0.61974993  0.86251035  0.78896224  1
  O  O20  1  0.69906694  0.29158563  0.09378455  1
  O  O21  1  0.30093306  0.70841437  0.90621545  1
  O  O22  1  0.59981684  0.42777858  0.30432631  1
  O  O23  1  0.40018316  0.57222142  0.69567369  1
  O  O24  1  0.41593354  0.17179444  0.44607381  1
  O  O25  1  0.58406646  0.82820556  0.55392619  1
  O  O26  1  0.77376276  0.09364677  0.37763489  1
  O  O27  1  0.22623724  0.90635323  0.62236511  1
loop_
_geom_bond_atom_site_label_1
_geom_bond_atom_site_label_2
_geom_bond_distance
_geom_bond_site_symmetry_2
O0 Si6 1.628982 1_565
O0 Tb4 2.237449 1_455
O0 Tb6 2.333657 1_455
O0 Tb0 2.685036 1_465
O1 Si7 1.628982 1_445
O1 Tb5 2.237449 1_555
O1 Tb7 2.333657 1_555
O1 Tb1 2.685036 1_545
O2 Si6 1.653596 1_555
O2 Tb6 2.356072 1_455
O2 Tb0 2.395818 1_455
O2 Tb7 2.404333 1_556
O3 Si7 1.653596 1_555
O3 Tb7 2.356072 1_655
O3 Tb1 2.395818 1_655
O3 Tb6 2.404333 1_554
O4 Si6 1.605361 1_555
O4 Tb2 2.199670 1_555
O4 Tb0 2.359089 1_555
O5 Si7 1.605361 1_555
O5 Tb3 2.199670 1_555
O5 Tb1 2.359089 1_555
O6 Si6 1.613154 1_554
O6 Tb1 2.307320 1_545
O6 Tb7 2.382016 1_555
O7 Si7 1.613154 1_556
O7 Tb0 2.307320 1_565
O7 Tb6 2.382016 1_555
O8 Si0 1.608852 1_555
O8 Tb5 2.312154 1_555
O8 Tb7 2.410330 1_555
O9 Si1 1.608852 1_555
O9 Tb4 2.312154 1_555
O9 Tb6 2.410330 1_555
O10 Si0 1.634404 1_655
O10 Tb3 2.302175 1_555
O10 Tb5 2.517212 1_665
O10 Tb4 2.767432 1_555
O11 Si1 1.634404 1_455
O11 Tb2 2.302175 1_555
O11 Tb4 2.517212 1_445
O11 Tb5 2.767432 1_555
O12 Si0 1.646249 1_555
O12 Tb3 2.353637 1_555
O12 Tb5 2.411526 1_565
O12 Tb1 2.533399 1_555
O13 Si1 1.646249 1_555
O13 Tb2 2.353637 1_555
O13 Tb4 2.411526 1_545
O13 Tb0 2.533399 1_555
O14 Si2 1.649161 1_555
O14 Si0 1.665580 1_555
O15 Si3 1.649161 1_555
O15 Si1 1.665580 1_555
O16 Si5 1.614627 1_555
O16 Tb7 2.257440 1_555
O16 Tb1 2.289825 1_555
O17 Si4 1.614627 1_555
O17 Tb6 2.257440 1_555
O17 Tb0 2.289825 1_555
O18 Si5 1.631170 1_555
O18 Tb1 2.346692 1_545
O18 Tb5 2.541862 1_555
O19 Si4 1.631170 1_555
O19 Tb0 2.346692 1_565
O19 Tb4 2.541862 1_555
O20 Si5 1.609450 1_555
O20 Tb7 2.344071 1_655
O20 Tb0 2.504828 1_554
O21 Si4 1.609450 1_555
O21 Tb6 2.344071 1_455
O21 Tb1 2.504828 1_556
O22 Si3 1.654905 1_555
O22 Si5 1.724198 1_555
O22 Tb3 2.395176 1_555
O23 Si2 1.654905 1_555
O23 Si4 1.724198 1_555
O23 Tb2 2.395176 1_555
O24 Si3 1.616935 1_555
O24 Tb5 2.256472 1_555
O24 Tb2 2.272390 1_555
O25 Si2 1.616935 1_555
O25 Tb4 2.256472 1_555
O25 Tb3 2.272390 1_555
O26 Si3 1.594916 1_555
O26 Tb3 2.274029 1_545
O26 Tb5 2.295045 1_655
O27 Si2 1.594916 1_555
O27 Tb2 2.274029 1_565
O27 Tb4 2.295045 1_455
