# generated using pymatgen
data_Sm2Si5Pd3
_symmetry_space_group_name_H-M   'P 1'
_cell_length_a   8.22550797
_cell_length_b   8.22444887
_cell_length_c   8.22050113
_cell_angle_alpha   137.53655046
_cell_angle_beta   105.52667029
_cell_angle_gamma   89.69047220
_symmetry_Int_Tables_number   1
_chemical_formula_structural   Sm2Si5Pd3
_chemical_formula_sum   'Sm4 Si10 Pd6'
_cell_volume   345.61576066
_cell_formula_units_Z   2
loop_
 _symmetry_equiv_pos_site_id
 _symmetry_equiv_pos_as_xyz
  1  'x, y, z'
loop_
 _atom_site_type_symbol
 _atom_site_label
 _atom_site_symmetry_multiplicity
 _atom_site_fract_x
 _atom_site_fract_y
 _atom_site_fract_z
 _atom_site_occupancy
  Sm  Sm0  1  0.63868430  0.87223675  0.76653547  1
  Sm  Sm1  1  0.36131370  0.12776268  0.23346262  1
  Sm  Sm2  1  0.10572472  0.37226994  0.73349905  1
  Sm  Sm3  1  0.89427548  0.62772798  0.26650046  1
  Si  Si0  1  0.27439632  0.02469300  0.75052612  1
  Si  Si1  1  0.72560401  0.97530240  0.24946813  1
  Si  Si2  1  0.72565667  0.47609434  0.75027048  1
  Si  Si3  1  0.27434319  0.52390762  0.24973284  1
  Si  Si4  1  0.46443855  0.61431499  0.84979868  1
  Si  Si5  1  0.53556197  0.38568464  0.15020084  1
  Si  Si6  1  0.76453259  0.11461729  0.65004825  1
  Si  Si7  1  0.23547207  0.88538234  0.34995368  1
  Si  Si8  1  0.99989155  0.74963605  0.74943355  1
  Si  Si9  1  0.00009982  0.25036327  0.25056548  1
  Pd  Pd0  1  0.24815886  0.63815664  0.61019783  1
  Pd  Pd1  1  0.75183449  0.36184172  0.38980262  1
  Pd  Pd2  1  0.02761506  0.13789706  0.88992653  1
  Pd  Pd3  1  0.97237751  0.86210187  0.11006974  1
  Pd  Pd4  1  0.49992275  0.75013108  0.25017116  1
  Pd  Pd5  1  0.50009836  0.24987934  0.74983747  1
loop_
_geom_bond_atom_site_label_1
_geom_bond_atom_site_label_2
_geom_bond_distance
_geom_bond_site_symmetry_2
Si0 Si5 2.474346 1_556
Si0 Si7 2.476182 1_545
Si0 Sm1 3.242255 1_556
Si0 Sm3 3.248154 1_445
Si0 Sm2 3.249583 1_555
Si0 Sm0 3.249614 1_545
Si1 Si4 2.474328 1_554
Si1 Si6 2.476216 1_565
Si1 Sm0 3.242243 1_554
Si1 Sm2 3.248166 1_665
Si1 Sm3 3.249588 1_555
Si1 Sm1 3.249642 1_565
Si2 Si4 2.474047 1_555
Si2 Si6 2.477182 1_555
Si2 Sm0 3.244669 1_555
Si2 Sm3 3.247601 1_556
Si2 Sm2 3.248049 1_655
Si2 Sm1 3.249122 1_555
Si3 Si5 2.474063 1_555
Si3 Si7 2.477161 1_555
Si3 Sm1 3.244658 1_555
Si3 Sm2 3.247610 1_554
Si3 Sm3 3.248036 1_455
Si3 Sm0 3.249097 1_555
Si4 Sm2 3.054203 1_555
Si4 Sm0 3.118133 1_555
Si4 Sm1 3.197683 1_555
Si4 Sm1 3.200363 1_566
Si5 Sm3 3.054195 1_555
Si5 Sm1 3.118135 1_555
Si5 Sm0 3.197680 1_555
Si5 Sm0 3.200354 1_544
Si6 Sm0 3.054793 1_545
Si6 Sm2 3.118659 1_655
Si6 Sm3 3.198259 1_556
Si6 Sm3 3.200370 1_545
Si7 Sm1 3.054796 1_565
Si7 Sm3 3.118687 1_455
Si7 Sm2 3.198268 1_554
Si7 Sm2 3.200382 1_565
Si8 Sm3 3.132212 1_555
Si8 Sm2 3.136802 1_655
Si8 Sm0 3.137849 1_555
Si8 Sm1 3.138716 1_666
Si9 Sm2 3.132219 1_555
Si9 Sm3 3.136768 1_455
Si9 Sm1 3.137902 1_555
Si9 Sm0 3.138685 1_444
Pd0 Si4 2.402688 1_555
Pd0 Si3 2.437483 1_555
Pd0 Si0 2.438658 1_565
Pd0 Si8 2.450264 1_455
Pd0 Si9 2.450449 1_555
Pd0 Sm0 3.143696 1_555
Pd0 Sm1 3.221724 1_566
Pd0 Sm1 3.224689 1_555
Pd0 Sm2 3.334022 1_555
Pd0 Sm3 3.421302 1_455
Pd1 Si5 2.402670 1_555
Pd1 Si2 2.437468 1_555
Pd1 Si1 2.438657 1_545
Pd1 Si9 2.450253 1_655
Pd1 Si8 2.450444 1_555
Pd1 Sm1 3.143652 1_555
Pd1 Sm0 3.221740 1_544
Pd1 Sm0 3.224672 1_555
Pd1 Sm3 3.334050 1_555
Pd1 Sm2 3.421335 1_655
Pd2 Si6 2.402259 1_455
Pd2 Si3 2.438775 1_556
Pd2 Si0 2.439530 1_555
Pd2 Si9 2.450901 1_556
Pd2 Si8 2.451165 1_445
Pd2 Sm2 3.145598 1_555
Pd2 Sm3 3.222643 1_456
Pd2 Sm3 3.222842 1_445
Pd2 Sm0 3.332514 1_445
Pd2 Sm1 3.422154 1_556
Pd3 Si7 2.402348 1_655
Pd3 Si2 2.438732 1_554
Pd3 Si1 2.439462 1_555
Pd3 Si8 2.450877 1_554
Pd3 Si9 2.451156 1_665
Pd3 Sm3 3.145610 1_555
Pd3 Sm2 3.222681 1_654
Pd3 Sm2 3.222850 1_665
Pd3 Sm1 3.332548 1_665
Pd3 Sm0 3.422121 1_554
Pd4 Si7 2.494946 1_555
Pd4 Si4 2.496066 1_554
Pd4 Si6 2.496090 1_565
Pd4 Si5 2.496135 1_555
Pd4 Si3 2.632194 1_555
Pd4 Si1 2.633304 1_555
Pd4 Sm0 3.385039 1_555
Pd4 Sm1 3.387053 1_565
Pd4 Sm2 3.387085 1_554
Pd4 Sm3 3.388859 1_555
Pd5 Si6 2.494847 1_555
Pd5 Si5 2.496080 1_556
Pd5 Si4 2.496123 1_555
Pd5 Si7 2.496193 1_545
Pd5 Si2 2.632051 1_555
Pd5 Si0 2.633429 1_555
Pd5 Sm1 3.385065 1_555
Pd5 Sm3 3.386953 1_556
Pd5 Sm0 3.387023 1_545
Pd5 Sm2 3.388989 1_555
