# generated using pymatgen
data_Na2SO9
_symmetry_space_group_name_H-M   'P 1'
_cell_length_a   7.57929400
_cell_length_b   7.57929400
_cell_length_c   12.10748600
_cell_angle_alpha   90.00000000
_cell_angle_beta   90.00000000
_cell_angle_gamma   90.00000000
_symmetry_Int_Tables_number   1
_chemical_formula_structural   Na2SO9
_chemical_formula_sum   'Na8 S4 O36'
_cell_volume   695.52297871
_cell_formula_units_Z   4
loop_
 _symmetry_equiv_pos_site_id
 _symmetry_equiv_pos_as_xyz
  1  'x, y, z'
loop_
 _atom_site_type_symbol
 _atom_site_label
 _atom_site_symmetry_multiplicity
 _atom_site_fract_x
 _atom_site_fract_y
 _atom_site_fract_z
 _atom_site_occupancy
  Na  Na0  1  0.72206800  0.50000000  0.75000000  1
  Na  Na1  1  0.27793200  0.50000000  0.25000000  1
  Na  Na2  1  0.50000000  0.72206800  0.50000000  1
  Na  Na3  1  0.50000000  0.27793200  0.00000000  1
  Na  Na4  1  0.00000000  0.79951400  0.00000000  1
  Na  Na5  1  0.00000000  0.20048600  0.50000000  1
  Na  Na6  1  0.20048600  0.00000000  0.75000000  1
  Na  Na7  1  0.79951400  0.00000000  0.25000000  1
  S  S0  1  0.65442300  0.50000000  0.25000000  1
  S  S1  1  0.34557700  0.50000000  0.75000000  1
  S  S2  1  0.50000000  0.65442300  0.00000000  1
  S  S3  1  0.50000000  0.34557700  0.50000000  1
  O  O0  1  0.32395100  0.32395100  0.62500000  1
  O  O1  1  0.67604900  0.67604900  0.12500000  1
  O  O2  1  0.67604900  0.32395100  0.37500000  1
  O  O3  1  0.32395100  0.67604900  0.87500000  1
  O  O4  1  0.07430000  0.75342600  0.24237500  1
  O  O5  1  0.92570000  0.24657400  0.74237500  1
  O  O6  1  0.24657400  0.07430000  0.99237500  1
  O  O7  1  0.75342600  0.92570000  0.49237500  1
  O  O8  1  0.92570000  0.75342600  0.75762500  1
  O  O9  1  0.07430000  0.24657400  0.25762500  1
  O  O10  1  0.75342600  0.07430000  0.00762500  1
  O  O11  1  0.24657400  0.92570000  0.50762500  1
  O  O12  1  0.01071200  0.52342500  0.55096900  1
  O  O13  1  0.98928800  0.47657500  0.05096900  1
  O  O14  1  0.47657500  0.01071200  0.30096900  1
  O  O15  1  0.52342500  0.98928800  0.80096900  1
  O  O16  1  0.98928800  0.52342500  0.44903100  1
  O  O17  1  0.01071200  0.47657500  0.94903100  1
  O  O18  1  0.52342500  0.01071200  0.69903100  1
  O  O19  1  0.47657500  0.98928800  0.19903100  1
  O  O20  1  0.63339200  0.55501500  0.93491800  1
  O  O21  1  0.36660800  0.44498500  0.43491800  1
  O  O22  1  0.44498500  0.63339200  0.68491800  1
  O  O23  1  0.55501500  0.36660800  0.18491800  1
  O  O24  1  0.36660800  0.55501500  0.06508200  1
  O  O25  1  0.63339200  0.44498500  0.56508200  1
  O  O26  1  0.55501500  0.63339200  0.31508200  1
  O  O27  1  0.44498500  0.36660800  0.81508200  1
  O  O28  1  0.85954100  0.86494600  0.41994400  1
  O  O29  1  0.14045900  0.13505400  0.91994400  1
  O  O30  1  0.13505400  0.85954100  0.16994400  1
  O  O31  1  0.86494600  0.14045900  0.66994400  1
  O  O32  1  0.14045900  0.86494600  0.58005600  1
  O  O33  1  0.85954100  0.13505400  0.08005600  1
  O  O34  1  0.86494600  0.85954100  0.83005600  1
  O  O35  1  0.13505400  0.14045900  0.33005600  1
loop_
_geom_bond_atom_site_label_1
_geom_bond_atom_site_label_2
_geom_bond_distance
_geom_bond_site_symmetry_2
Na0 O20 2.374495 1_555
Na0 O25 2.374495 1_555
Na0 O27 2.460378 1_555
Na0 O22 2.460378 1_555
Na0 O8 2.465766 1_555
Na0 O5 2.465766 1_555
Na1 O21 2.374495 1_555
Na1 O24 2.374495 1_555
Na1 O26 2.460378 1_555
Na1 O23 2.460378 1_555
Na1 O4 2.465766 1_555
Na1 O9 2.465766 1_555
Na2 O22 2.374495 1_555
Na2 O26 2.374495 1_555
Na2 O25 2.460378 1_555
Na2 O21 2.460378 1_555
Na2 O7 2.465766 1_555
Na2 O11 2.465766 1_555
Na3 O23 2.374495 1_555
Na3 O27 2.374495 1_554
Na3 O24 2.460378 1_555
Na3 O20 2.460378 1_554
Na3 O10 2.465766 1_555
Na3 O6 2.465766 1_554
Na4 O30 2.342749 1_555
Na4 O34 2.342749 1_454
Na4 O13 2.525550 1_455
Na4 O17 2.525550 1_554
Na4 O6 2.799772 1_564
Na4 O10 2.799772 1_465
Na5 O31 2.342749 1_455
Na5 O35 2.342749 1_555
Na5 O12 2.525550 1_555
Na5 O16 2.525550 1_455
Na5 O11 2.799772 1_545
Na5 O7 2.799772 1_445
Na6 O29 2.342749 1_555
Na6 O32 2.342749 1_545
Na6 O15 2.525550 1_545
Na6 O18 2.525550 1_555
Na6 O5 2.799772 1_455
Na6 O8 2.799772 1_445
Na7 O33 2.342749 1_555
Na7 O28 2.342749 1_545
Na7 O14 2.525550 1_555
Na7 O19 2.525550 1_545
Na7 O9 2.799772 1_655
Na7 O4 2.799772 1_645
O0 S1 2.024298 1_555
O0 S3 2.024298 1_555
O1 S2 2.024298 1_555
O1 S0 2.024298 1_555
O2 S3 2.024298 1_555
O2 S0 2.024298 1_555
O3 S1 2.024298 1_555
O3 S2 2.024298 1_556
O10 O33 1.275911 1_555
O11 O32 1.275911 1_555
O12 O16 1.244849 1_455
O13 O17 1.244849 1_654
O14 O19 1.244849 1_545
O15 O18 1.244849 1_565
O20 S2 1.486857 1_556
O21 S3 1.486857 1_555
O22 S1 1.486857 1_555
O23 S0 1.486857 1_555
O24 S2 1.486857 1_555
O25 S3 1.486857 1_555
O26 S0 1.486857 1_555
O27 S1 1.486857 1_555
O28 O7 1.275911 1_555
O29 O6 1.275911 1_555
O30 O4 1.275911 1_555
O31 O5 1.275911 1_555
O34 O8 1.275911 1_555
O35 O9 1.275911 1_555
