# generated using pymatgen
data_Mg4Si3
_symmetry_space_group_name_H-M   'P 1'
_cell_length_a   6.10827500
_cell_length_b   6.67157267
_cell_length_c   7.55918852
_cell_angle_alpha   105.97485166
_cell_angle_beta   100.46952366
_cell_angle_gamma   101.25942841
_symmetry_Int_Tables_number   1
_chemical_formula_structural   Mg4Si3
_chemical_formula_sum   'Mg8 Si6'
_cell_volume   281.25279555
_cell_formula_units_Z   2
loop_
 _symmetry_equiv_pos_site_id
 _symmetry_equiv_pos_as_xyz
  1  'x, y, z'
loop_
 _atom_site_type_symbol
 _atom_site_label
 _atom_site_symmetry_multiplicity
 _atom_site_fract_x
 _atom_site_fract_y
 _atom_site_fract_z
 _atom_site_occupancy
  Mg  Mg0  1  0.23690500  0.67162600  0.75732700  1
  Mg  Mg1  1  0.77054500  0.73483700  0.82443100  1
  Mg  Mg2  1  0.40551200  0.68054800  0.38456600  1
  Mg  Mg3  1  0.62689800  0.04302400  0.15122000  1
  Mg  Mg4  1  0.43076400  0.37671200  0.94517100  1
  Mg  Mg5  1  0.92322400  0.35244500  0.96608100  1
  Mg  Mg6  1  0.50070500  0.28723600  0.53070000  1
  Mg  Mg7  1  0.00063700  0.01984700  0.60086200  1
  Si  Si0  1  0.78958400  0.69225300  0.19226100  1
  Si  Si1  1  0.84438100  0.58184400  0.47193500  1
  Si  Si2  1  0.15377500  0.79834900  0.11328600  1
  Si  Si3  1  0.55103900  0.02011600  0.73613500  1
  Si  Si4  1  0.04475900  0.30771900  0.41572800  1
  Si  Si5  1  0.22136100  0.18349300  0.16045900  1
loop_
_geom_bond_atom_site_label_1
_geom_bond_atom_site_label_2
_geom_bond_distance
_geom_bond_site_symmetry_2
Mg0 Si1 2.758559 1_455
Mg0 Si2 2.761311 1_556
Mg0 Si3 2.772659 1_565
Mg0 Si4 2.876594 1_555
Mg1 Si3 2.690009 1_565
Mg1 Si1 2.732167 1_555
Mg1 Si2 2.769976 1_656
Mg1 Si0 2.855800 1_556
Mg2 Si2 2.720361 1_555
Mg2 Si3 2.833071 1_565
Mg2 Si1 2.888157 1_555
Mg2 Si0 2.975466 1_555
Mg2 Si4 3.077167 1_555
Mg2 Si5 3.144927 1_555
Mg3 Si0 2.784953 1_545
Mg3 Si5 2.820051 1_555
Mg3 Si4 2.841263 1_655
Mg3 Si2 2.949193 1_545
Mg3 Si3 3.043562 1_554
Mg4 Si5 2.685809 1_556
Mg4 Si0 2.696357 1_556
Mg4 Si3 2.780598 1_555
Mg5 Si5 2.736175 1_656
Mg5 Si3 2.753139 1_555
Mg5 Si0 2.797407 1_556
Mg5 Si2 2.836154 1_656
Mg6 Si3 2.691795 1_555
Mg6 Si1 2.770499 1_555
Mg6 Si4 2.804425 1_555
Mg6 Si5 2.821425 1_555
Mg7 Si4 2.670963 1_555
Mg7 Si1 2.721231 1_445
Mg7 Si3 3.099854 1_455
Mg7 Si0 3.116986 1_445
Si0 Si1 2.412539 1_555
Si0 Si2 2.430331 1_655
Si1 Si4 2.378800 1_655
Si2 Si5 2.434732 1_565
Si4 Si5 2.408183 1_555
