# generated using pymatgen
data_K2Cr2AsHO10
_symmetry_space_group_name_H-M   'P 1'
_cell_length_a   7.92336443
_cell_length_b   7.92336443
_cell_length_c   14.78183100
_cell_angle_alpha   90.00000000
_cell_angle_beta   90.00000000
_cell_angle_gamma   120.00000356
_symmetry_Int_Tables_number   1
_chemical_formula_structural   K2Cr2AsHO10
_chemical_formula_sum   'K6 Cr6 As3 H3 O30'
_cell_volume   803.67065589
_cell_formula_units_Z   3
loop_
 _symmetry_equiv_pos_site_id
 _symmetry_equiv_pos_as_xyz
  1  'x, y, z'
loop_
 _atom_site_type_symbol
 _atom_site_label
 _atom_site_symmetry_multiplicity
 _atom_site_fract_x
 _atom_site_fract_y
 _atom_site_fract_z
 _atom_site_occupancy
  K  K0  1  0.55292200  0.00000000  0.66666700  1
  K  K1  1  0.00000000  0.55292200  0.33333300  1
  K  K2  1  0.44707800  0.44707800  0.00000000  1
  K  K3  1  0.38382700  0.38382700  0.50000000  1
  K  K4  1  0.61617300  0.00000000  0.16666700  1
  K  K5  1  0.00000000  0.61617300  0.83333300  1
  Cr  Cr0  1  0.57407900  0.99161900  0.41227100  1
  Cr  Cr1  1  0.00838100  0.58245900  0.07893700  1
  Cr  Cr2  1  0.41754100  0.42592100  0.74560400  1
  Cr  Cr3  1  0.99161900  0.57407900  0.58772900  1
  Cr  Cr4  1  0.58245900  0.00838100  0.92106300  1
  Cr  Cr5  1  0.42592100  0.41754100  0.25439600  1
  As  As0  1  0.87912000  0.87912000  0.50000000  1
  As  As1  1  0.12088000  0.00000000  0.16666700  1
  As  As2  1  0.00000000  0.12088000  0.83333300  1
  H  H0  1  0.95183800  0.00000000  0.66666700  1
  H  H1  1  0.00000000  0.95183800  0.33333300  1
  H  H2  1  0.04816200  0.04816200  0.00000000  1
  O  O0  1  0.39263200  0.85387200  0.34601700  1
  O  O1  1  0.14612800  0.53876000  0.01268300  1
  O  O2  1  0.46124000  0.60736800  0.67935000  1
  O  O3  1  0.85387200  0.39263200  0.65398300  1
  O  O4  1  0.53876000  0.14612800  0.98731700  1
  O  O5  1  0.60736800  0.46124000  0.32065000  1
  O  O6  1  0.51294300  0.10307200  0.48630200  1
  O  O7  1  0.89692800  0.40987100  0.15296800  1
  O  O8  1  0.59012900  0.48705700  0.81963500  1
  O  O9  1  0.10307200  0.51294300  0.51369800  1
  O  O10  1  0.40987100  0.89692800  0.84703200  1
  O  O11  1  0.48705700  0.59012900  0.18036500  1
  O  O12  1  0.75511800  0.14846800  0.35101100  1
  O  O13  1  0.85153200  0.60665000  0.01767800  1
  O  O14  1  0.39335000  0.24488200  0.68434500  1
  O  O15  1  0.14846800  0.75511800  0.64898900  1
  O  O16  1  0.60665000  0.85153200  0.98232200  1
  O  O17  1  0.24488200  0.39335000  0.31565500  1
  O  O18  1  0.64315300  0.83001500  0.47327400  1
  O  O19  1  0.16998500  0.81313800  0.13994000  1
  O  O20  1  0.18686200  0.35684700  0.80660700  1
  O  O21  1  0.83001500  0.64315300  0.52672600  1
  O  O22  1  0.81313800  0.16998500  0.86006000  1
  O  O23  1  0.35684700  0.18686200  0.19339300  1
  O  O24  1  0.04012600  0.96717300  0.41293900  1
  O  O25  1  0.03282700  0.07295200  0.07960600  1
  O  O26  1  0.92704800  0.95987400  0.74627300  1
  O  O27  1  0.96717300  0.04012600  0.58706100  1
  O  O28  1  0.07295200  0.03282700  0.92039400  1
  O  O29  1  0.95987400  0.92704800  0.25372700  1
loop_
_geom_bond_atom_site_label_1
_geom_bond_atom_site_label_2
_geom_bond_distance
_geom_bond_site_symmetry_2
K0 O15 2.807985 1_545
K0 O14 2.807985 1_555
K0 O2 2.825077 1_545
K0 O3 2.825078 1_555
K0 O10 2.852056 1_545
K0 O6 2.852056 1_555
K1 O12 2.807985 1_455
K1 O17 2.807985 1_555
K1 O5 2.825077 1_455
K1 O0 2.825078 1_555
K1 O7 2.852056 1_455
K1 O9 2.852056 1_555
K2 O13 2.807985 1_555
K2 O16 2.807985 1_554
K2 O1 2.825077 1_555
K2 O4 2.825077 1_554
K2 O11 2.852056 1_555
K2 O8 2.852056 1_554
K3 O9 2.883031 1_555
K3 O6 2.883031 1_555
K3 O14 2.954007 1_555
K3 O17 2.954007 1_555
K3 O5 3.074964 1_555
K3 O2 3.074964 1_555
K3 O18 3.100371 1_555
K3 O21 3.100371 1_555
K3 O27 3.313701 1_455
K3 O24 3.313701 1_545
K4 O11 2.883031 1_545
K4 O7 2.883031 1_555
K4 O12 2.953993 1_555
K4 O16 2.954007 1_544
K4 O0 3.074964 1_545
K4 O4 3.074964 1_554
K4 O23 3.100371 1_555
K4 O19 3.100373 1_545
K4 O29 3.313691 1_545
K4 O25 3.313704 1_655
K5 O8 2.883031 1_455
K5 O10 2.883031 1_555
K5 O15 2.953993 1_555
K5 O13 2.954007 1_456
K5 O3 3.074964 1_455
K5 O1 3.074964 1_556
K5 O20 3.100371 1_555
K5 O22 3.100373 1_455
K5 O26 3.313691 1_455
K5 O28 3.313704 1_565
Cr0 O12 1.624626 1_565
Cr0 O6 1.624737 1_565
Cr0 O0 1.627307 1_555
Cr0 O18 1.858224 1_555
Cr1 O13 1.624621 1_455
Cr1 O7 1.624733 1_455
Cr1 O1 1.627303 1_555
Cr1 O19 1.858229 1_555
Cr2 O14 1.624615 1_555
Cr2 O8 1.624732 1_555
Cr2 O2 1.627309 1_555
Cr2 O20 1.858230 1_555
Cr3 O15 1.624626 1_655
Cr3 O9 1.624737 1_655
Cr3 O3 1.627307 1_555
Cr3 O21 1.858224 1_555
Cr4 O16 1.624621 1_545
Cr4 O10 1.624733 1_545
Cr4 O4 1.627303 1_555
Cr4 O22 1.858229 1_555
Cr5 O17 1.624615 1_555
Cr5 O11 1.624732 1_555
Cr5 O5 1.627309 1_555
Cr5 O23 1.858230 1_555
As0 O27 1.697150 1_565
As0 O24 1.697150 1_655
As0 O18 1.753743 1_555
As0 O21 1.753743 1_555
As1 O29 1.697140 1_445
As1 O25 1.697146 1_555
As1 O23 1.753743 1_555
As1 O19 1.753746 1_545
As2 O26 1.697140 1_445
As2 O28 1.697146 1_555
As2 O20 1.753743 1_555
As2 O22 1.753746 1_455
H0 O26 1.209086 1_545
H0 O27 1.209086 1_555
H1 O29 1.209086 1_455
H1 O24 1.209086 1_555
H2 O25 1.209085 1_555
H2 O28 1.209085 1_554
