# generated using pymatgen
data_MnPRh
_symmetry_space_group_name_H-M   'P 1'
_cell_length_a   5.99648222
_cell_length_b   5.99648222
_cell_length_c   3.68179300
_cell_angle_alpha   90.00000000
_cell_angle_beta   90.00000000
_cell_angle_gamma   120.00000243
_symmetry_Int_Tables_number   1
_chemical_formula_structural   MnPRh
_chemical_formula_sum   'Mn3 P3 Rh3'
_cell_volume   114.65238396
_cell_formula_units_Z   3
loop_
 _symmetry_equiv_pos_site_id
 _symmetry_equiv_pos_as_xyz
  1  'x, y, z'
loop_
 _atom_site_type_symbol
 _atom_site_label
 _atom_site_symmetry_multiplicity
 _atom_site_fract_x
 _atom_site_fract_y
 _atom_site_fract_z
 _atom_site_occupancy
  Mn  Mn0  1  0.39479000  0.39479000  0.50000000  1
  Mn  Mn1  1  0.60521000  0.00000000  0.50000000  1
  Mn  Mn2  1  0.00000000  0.60521000  0.50000000  1
  P  P0  1  0.66666700  0.33333300  0.00000000  1
  P  P1  1  0.33333300  0.66666700  0.00000000  1
  P  P2  1  0.00000000  0.00000000  0.50000000  1
  Rh  Rh0  1  0.73500900  0.73500900  0.00000000  1
  Rh  Rh1  1  0.26499100  0.00000000  0.00000000  1
  Rh  Rh2  1  0.00000000  0.26499100  0.00000000  1
loop_
_geom_bond_atom_site_label_1
_geom_bond_atom_site_label_2
_geom_bond_distance
_geom_bond_site_symmetry_2
Mn0 P2 2.367351 1_555
Mn0 P0 2.604499 1_556
Mn0 P1 2.604499 1_556
Mn0 P1 2.604499 1_555
Mn0 P0 2.604499 1_555
Mn0 Rh0 2.747904 1_556
Mn0 Rh0 2.747904 1_555
Mn0 Rh1 2.785043 1_555
Mn0 Rh1 2.785043 1_556
Mn0 Rh2 2.785043 1_556
Mn0 Rh2 2.785043 1_555
Mn1 P2 2.367351 1_655
Mn1 P0 2.604495 1_555
Mn1 P0 2.604495 1_556
Mn1 P1 2.604497 1_545
Mn1 P1 2.604497 1_546
Mn1 Rh1 2.747904 1_555
Mn1 Rh1 2.747904 1_556
Mn1 Rh2 2.785043 1_655
Mn1 Rh2 2.785043 1_656
Mn1 Rh0 2.785043 1_546
Mn1 Rh0 2.785043 1_545
Mn2 P2 2.367351 1_565
Mn2 P1 2.604495 1_555
Mn2 P1 2.604495 1_556
Mn2 P0 2.604497 1_456
Mn2 P0 2.604497 1_455
Mn2 Rh2 2.747904 1_555
Mn2 Rh2 2.747904 1_556
Mn2 Rh1 2.785043 1_565
Mn2 Rh1 2.785043 1_566
Mn2 Rh0 2.785043 1_455
Mn2 Rh0 2.785043 1_456
P0 Rh2 2.232127 1_655
P0 Rh1 2.232131 1_555
P0 Rh0 2.232133 1_555
P1 Rh1 2.232127 1_565
P1 Rh2 2.232131 1_555
P1 Rh0 2.232133 1_555
P2 Rh0 2.431844 1_446
P2 Rh0 2.431844 1_445
P2 Rh1 2.431844 1_555
P2 Rh1 2.431844 1_556
P2 Rh2 2.431844 1_556
P2 Rh2 2.431844 1_555
