# generated using pymatgen
data_La2MgMoO6
_symmetry_space_group_name_H-M   'P 1'
_cell_length_a   6.04326811
_cell_length_b   6.07652721
_cell_length_c   6.00771107
_cell_angle_alpha   58.39203649
_cell_angle_beta   58.30605394
_cell_angle_gamma   58.15292132
_symmetry_Int_Tables_number   1
_chemical_formula_structural   La2MgMoO6
_chemical_formula_sum   'La2 Mg1 Mo1 O6'
_cell_volume   149.86513966
_cell_formula_units_Z   1
loop_
 _symmetry_equiv_pos_site_id
 _symmetry_equiv_pos_as_xyz
  1  'x, y, z'
loop_
 _atom_site_type_symbol
 _atom_site_label
 _atom_site_symmetry_multiplicity
 _atom_site_fract_x
 _atom_site_fract_y
 _atom_site_fract_z
 _atom_site_occupancy
  La  La0  1  0.61904500  0.61200100  0.62014800  1
  La  La1  1  0.34984100  0.35132900  0.36050400  1
  Mg  Mg0  1  0.83579300  0.82785500  0.83355000  1
  Mo  Mo0  1  0.02790800  0.01939000  0.03053900  1
  O  O0  1  0.43161300  0.78954300  0.02021300  1
  O  O1  1  0.78894300  0.03858100  0.42320200  1
  O  O2  1  0.01807200  0.44831300  0.77362700  1
  O  O3  1  0.65457600  0.17750900  0.96896300  1
  O  O4  1  0.97041000  0.63687200  0.19104100  1
  O  O5  1  0.18475100  0.96765400  0.64726200  1
loop_
_geom_bond_atom_site_label_1
_geom_bond_atom_site_label_2
_geom_bond_distance
_geom_bond_site_symmetry_2
La0 O4 2.314272 1_555
La0 O3 2.341643 1_555
La0 O5 2.349337 1_555
La0 O2 2.549180 1_655
La0 O0 2.606023 1_556
La0 O1 2.736886 1_565
La1 O2 2.363177 1_555
La1 O4 2.389066 1_455
La1 O1 2.402743 1_555
La1 O5 2.416051 1_545
La1 O3 2.457637 1_554
La1 O0 2.476923 1_555
Mg0 O2 2.105850 1_655
Mg0 O0 2.173973 1_556
Mg0 O3 2.189877 1_565
Mg0 O5 2.198959 1_655
Mg0 O1 2.199817 1_565
Mg0 O4 2.201870 1_556
Mo0 O1 2.048172 1_455
Mo0 O0 2.059742 1_545
Mo0 O3 2.089735 1_454
Mo0 O5 2.109573 1_544
Mo0 O4 2.145741 1_445
Mo0 O2 2.212483 1_554
