# generated using pymatgen
data_Ba2InO3F
_symmetry_space_group_name_H-M   'P 1'
_cell_length_a   4.22909900
_cell_length_b   4.22909900
_cell_length_c   14.17652200
_cell_angle_alpha   90.00000000
_cell_angle_beta   90.00000000
_cell_angle_gamma   90.00000000
_symmetry_Int_Tables_number   1
_chemical_formula_structural   Ba2InO3F
_chemical_formula_sum   'Ba4 In2 O6 F2'
_cell_volume   253.55104203
_cell_formula_units_Z   2
loop_
 _symmetry_equiv_pos_site_id
 _symmetry_equiv_pos_as_xyz
  1  'x, y, z'
loop_
 _atom_site_type_symbol
 _atom_site_label
 _atom_site_symmetry_multiplicity
 _atom_site_fract_x
 _atom_site_fract_y
 _atom_site_fract_z
 _atom_site_occupancy
  Ba  Ba0  1  0.00000000  0.50000000  0.89799800  1
  Ba  Ba1  1  0.50000000  0.00000000  0.10200200  1
  Ba  Ba2  1  0.00000000  0.50000000  0.62053000  1
  Ba  Ba3  1  0.50000000  0.00000000  0.37947000  1
  In  In0  1  0.50000000  0.00000000  0.76801900  1
  In  In1  1  0.00000000  0.50000000  0.23198100  1
  O  O0  1  0.50000000  0.50000000  0.25837400  1
  O  O1  1  0.00000000  0.00000000  0.25837400  1
  O  O2  1  0.50000000  0.00000000  0.91857900  1
  O  O3  1  0.00000000  0.50000000  0.08142100  1
  O  O4  1  0.00000000  0.00000000  0.74162600  1
  O  O5  1  0.50000000  0.50000000  0.74162600  1
  F  F0  1  0.00000000  0.50000000  0.42783400  1
  F  F1  1  0.50000000  0.00000000  0.57216600  1
loop_
_geom_bond_atom_site_label_1
_geom_bond_atom_site_label_2
_geom_bond_distance
_geom_bond_site_symmetry_2
Ba0 O3 2.600300 1_556
Ba0 O2 3.004624 1_465
Ba0 O2 3.004624 1_555
Ba0 O2 3.004624 1_455
Ba0 O2 3.004624 1_565
Ba0 O4 3.063588 1_555
Ba0 O5 3.063588 1_555
Ba0 O5 3.063588 1_455
Ba0 O4 3.063588 1_565
Ba1 O2 2.600300 1_554
Ba1 O3 3.004624 1_545
Ba1 O3 3.004624 1_645
Ba1 O3 3.004624 1_555
Ba1 O3 3.004624 1_655
Ba1 O0 3.063588 1_555
Ba1 O0 3.063588 1_545
Ba1 O1 3.063588 1_655
Ba1 O1 3.063588 1_555
Ba2 O4 2.723683 1_565
Ba2 O4 2.723683 1_555
Ba2 O5 2.723683 1_455
Ba2 O5 2.723683 1_555
Ba2 F0 2.731759 1_555
Ba2 F1 3.068018 1_455
Ba2 F1 3.068018 1_565
Ba2 F1 3.068018 1_465
Ba2 F1 3.068018 1_555
Ba3 O0 2.723683 1_555
Ba3 O0 2.723683 1_545
Ba3 O1 2.723683 1_655
Ba3 O1 2.723683 1_555
Ba3 F1 2.731759 1_555
Ba3 F0 3.068018 1_555
Ba3 F0 3.068018 1_655
Ba3 F0 3.068018 1_545
Ba3 F0 3.068018 1_645
In0 O2 2.134417 1_555
In0 O4 2.147397 1_655
In0 O5 2.147397 1_545
In0 O4 2.147397 1_555
In0 O5 2.147397 1_555
In1 O3 2.134417 1_555
In1 O0 2.147397 1_455
In1 O1 2.147397 1_555
In1 O1 2.147397 1_565
In1 O0 2.147397 1_555
