# generated using pymatgen
data_Sr3UO6
_symmetry_space_group_name_H-M   'P 1'
_cell_length_a   6.05893718
_cell_length_b   6.26947800
_cell_length_c   8.70635523
_cell_angle_alpha   90.00000000
_cell_angle_beta   90.12459180
_cell_angle_gamma   90.00000000
_symmetry_Int_Tables_number   1
_chemical_formula_structural   Sr3UO6
_chemical_formula_sum   'Sr6 U2 O12'
_cell_volume   330.72207828
_cell_formula_units_Z   2
loop_
 _symmetry_equiv_pos_site_id
 _symmetry_equiv_pos_as_xyz
  1  'x, y, z'
loop_
 _atom_site_type_symbol
 _atom_site_label
 _atom_site_symmetry_multiplicity
 _atom_site_fract_x
 _atom_site_fract_y
 _atom_site_fract_z
 _atom_site_occupancy
  Sr  Sr0  1  0.75123000  0.47797100  0.25054700  1
  Sr  Sr1  1  0.24877000  0.97797100  0.74945300  1
  Sr  Sr2  1  0.74274100  0.92896800  0.00442000  1
  Sr  Sr3  1  0.25725900  0.42896800  0.99558000  1
  Sr  Sr4  1  0.23917400  0.52691700  0.50572400  1
  Sr  Sr5  1  0.76082600  0.02691700  0.49427600  1
  U  U0  1  0.74581100  0.47753700  0.75025300  1
  U  U1  1  0.25418900  0.97753700  0.24974700  1
  O  O0  1  0.36522800  0.92063400  0.47632500  1
  O  O1  1  0.63477200  0.42063400  0.52367500  1
  O  O2  1  0.45821300  0.64578700  0.79762600  1
  O  O3  1  0.54178700  0.14578700  0.20237400  1
  O  O4  1  0.91043300  0.75916700  0.68268000  1
  O  O5  1  0.08956700  0.25916700  0.31732000  1
  O  O6  1  0.86002400  0.53706100  0.97538900  1
  O  O7  1  0.13997600  0.03706100  0.02461100  1
  O  O8  1  0.97036000  0.80473900  0.30185500  1
  O  O9  1  0.02964000  0.30473900  0.69814500  1
  O  O10  1  0.42035000  0.69832000  0.17920700  1
  O  O11  1  0.57965000  0.19832000  0.82079300  1
loop_
_geom_bond_atom_site_label_1
_geom_bond_atom_site_label_2
_geom_bond_distance
_geom_bond_site_symmetry_2
O0 U1 2.113185 1_555
O0 Sr5 2.492378 1_565
O0 Sr1 2.507798 1_555
O0 Sr4 2.596668 1_555
O1 U0 2.113185 1_555
O1 Sr4 2.492378 1_555
O1 Sr0 2.507798 1_555
O1 Sr5 2.596668 1_555
O2 U0 2.079030 1_555
O2 Sr1 2.474119 1_555
O2 Sr3 2.511915 1_555
O2 Sr4 2.959860 1_555
O2 Sr2 3.058106 1_556
O3 U1 2.079030 1_545
O3 Sr0 2.474119 1_555
O3 Sr2 2.511915 1_545
O3 Sr5 2.959860 1_555
O3 Sr3 3.058106 1_554
O4 U0 2.112142 1_555
O4 Sr5 2.514697 1_565
O4 Sr1 2.533166 1_655
O4 Sr4 2.911093 1_655
O4 Sr2 3.166169 1_556
O5 U1 2.112142 1_545
O5 Sr4 2.514697 1_555
O5 Sr0 2.533166 1_455
O5 Sr5 2.911093 1_455
O5 Sr3 3.166169 1_554
O6 U0 2.110519 1_555
O6 Sr3 2.506215 1_655
O6 Sr0 2.513491 1_556
O6 Sr2 2.570358 1_556
O7 U1 2.110519 1_545
O7 Sr2 2.506215 1_445
O7 Sr1 2.513491 1_544
O7 Sr3 2.570358 1_554
O8 U1 2.083324 1_655
O8 Sr0 2.481283 1_555
O8 Sr5 2.523466 1_565
O8 Sr4 2.970608 1_655
O8 Sr2 3.032981 1_555
O9 U0 2.083324 1_455
O9 Sr1 2.481283 1_545
O9 Sr4 2.523466 1_555
O9 Sr5 2.970608 1_455
O9 Sr3 3.032981 1_555
O10 U1 2.111359 1_555
O10 Sr0 2.511569 1_555
O10 Sr3 2.525311 1_554
O10 Sr2 2.869717 1_555
O10 Sr4 3.233378 1_555
O11 U0 2.111359 1_555
O11 Sr1 2.511569 1_545
O11 Sr2 2.525311 1_546
O11 Sr3 2.869717 1_555
O11 Sr5 3.233378 1_555
