# generated using pymatgen
data_C4(N3O)3
_symmetry_space_group_name_H-M   'P 1'
_cell_length_a   6.80728100
_cell_length_b   11.66261700
_cell_length_c   12.89349900
_cell_angle_alpha   90.00000000
_cell_angle_beta   90.00000000
_cell_angle_gamma   90.00000000
_symmetry_Int_Tables_number   1
_chemical_formula_structural   C4(N3O)3
_chemical_formula_sum   'C16 N36 O12'
_cell_volume   1023.62405436
_cell_formula_units_Z   4
loop_
 _symmetry_equiv_pos_site_id
 _symmetry_equiv_pos_as_xyz
  1  'x, y, z'
loop_
 _atom_site_type_symbol
 _atom_site_label
 _atom_site_symmetry_multiplicity
 _atom_site_fract_x
 _atom_site_fract_y
 _atom_site_fract_z
 _atom_site_occupancy
  C  C0  1  0.14780500  0.63036400  0.73441800  1
  C  C1  1  0.64780500  0.36963600  0.26558200  1
  C  C2  1  0.64780500  0.13036400  0.76558200  1
  C  C3  1  0.14780500  0.86963600  0.23441800  1
  C  C4  1  0.32322600  0.56021500  0.59691300  1
  C  C5  1  0.82322600  0.43978500  0.40308700  1
  C  C6  1  0.82322600  0.06021500  0.90308700  1
  C  C7  1  0.32322600  0.93978500  0.09691300  1
  C  C8  1  0.43889600  0.53401100  0.76144600  1
  C  C9  1  0.93889600  0.46598900  0.23855400  1
  C  C10  1  0.93889600  0.03401100  0.73855400  1
  C  C11  1  0.43889600  0.96598900  0.26144600  1
  C  C12  1  0.94516500  0.70728500  0.86946700  1
  C  C13  1  0.44516500  0.29271500  0.13053300  1
  C  C14  1  0.44516500  0.20728500  0.63053300  1
  C  C15  1  0.94516500  0.79271500  0.36946700  1
  N  N0  1  0.16295700  0.61972300  0.62965300  1
  N  N1  1  0.66295700  0.38027700  0.37034700  1
  N  N2  1  0.66295700  0.11972300  0.87034700  1
  N  N3  1  0.16295700  0.88027700  0.12965300  1
  N  N4  1  0.46391400  0.51342700  0.65852600  1
  N  N5  1  0.96391400  0.48657300  0.34147400  1
  N  N6  1  0.96391400  0.01342700  0.84147400  1
  N  N7  1  0.46391400  0.98657300  0.15852600  1
  N  N8  1  0.28286600  0.59066000  0.80355600  1
  N  N9  1  0.78286600  0.40934000  0.19644400  1
  N  N10  1  0.78286600  0.09066000  0.69644400  1
  N  N11  1  0.28286600  0.90934000  0.30355600  1
  N  N12  1  0.34504900  0.54754500  0.49280900  1
  N  N13  1  0.84504900  0.45245500  0.50719100  1
  N  N14  1  0.84504900  0.04754500  0.00719100  1
  N  N15  1  0.34504900  0.95245500  0.99280900  1
  N  N16  1  0.58113900  0.49414000  0.82564900  1
  N  N17  1  0.08113900  0.50586000  0.17435100  1
  N  N18  1  0.08113900  0.99414000  0.67435100  1
  N  N19  1  0.58113900  0.00586000  0.32564900  1
  N  N20  1  0.98227800  0.68551100  0.76590200  1
  N  N21  1  0.48227800  0.31448900  0.23409800  1
  N  N22  1  0.48227800  0.18551100  0.73409800  1
  N  N23  1  0.98227800  0.81448900  0.26590200  1
  N  N24  1  0.76764400  0.75936500  0.88204200  1
  N  N25  1  0.26764400  0.24063500  0.11795800  1
  N  N26  1  0.26764400  0.25936500  0.61795800  1
  N  N27  1  0.76764400  0.74063500  0.38204200  1
  N  N28  1  0.06710300  0.68303800  0.94742600  1
  N  N29  1  0.56710300  0.31696200  0.05257400  1
  N  N30  1  0.56710300  0.18303800  0.55257400  1
  N  N31  1  0.06710300  0.81696200  0.44742600  1
  N  N32  1  0.55009500  0.84266200  0.62675700  1
  N  N33  1  0.05009500  0.15733800  0.37324300  1
  N  N34  1  0.05009500  0.34266200  0.87324300  1
  N  N35  1  0.55009500  0.65733800  0.12675700  1
  O  O0  1  0.46721600  0.89366200  0.55398700  1
  O  O1  1  0.96721600  0.10633800  0.44601300  1
  O  O2  1  0.96721600  0.39366200  0.94601300  1
  O  O3  1  0.46721600  0.60633800  0.05398700  1
  O  O4  1  0.49021600  0.85538900  0.71865900  1
  O  O5  1  0.99021600  0.14461100  0.28134100  1
  O  O6  1  0.99021600  0.35538900  0.78134100  1
  O  O7  1  0.49021600  0.64461100  0.21865900  1
  O  O8  1  0.69463100  0.77768600  0.60968900  1
  O  O9  1  0.19463100  0.22231400  0.39031100  1
  O  O10  1  0.19463100  0.27768600  0.89031100  1
  O  O11  1  0.69463100  0.72231400  0.10968900  1
loop_
_geom_bond_atom_site_label_1
_geom_bond_atom_site_label_2
_geom_bond_distance
_geom_bond_site_symmetry_2
C0 N20 1.359445 1_455
C0 N0 1.360392 1_555
C0 N8 1.361749 1_555
C1 N21 1.359445 1_555
C1 N1 1.360392 1_555
C1 N9 1.361749 1_555
C2 N22 1.359445 1_555
C2 N2 1.360392 1_555
C2 N10 1.361749 1_555
C3 N23 1.359445 1_455
C3 N3 1.360392 1_555
C3 N11 1.361749 1_555
C4 N12 1.358521 1_555
C4 N4 1.358688 1_555
C4 N0 1.360195 1_555
C5 N13 1.358521 1_555
C5 N5 1.358688 1_555
C5 N1 1.360195 1_555
C6 N14 1.358521 1_556
C6 N6 1.358688 1_555
C6 N2 1.360195 1_555
C7 N15 1.358521 1_554
C7 N7 1.358688 1_555
C7 N3 1.360195 1_555
C8 N16 1.356120 1_555
C8 N4 1.359250 1_555
C8 N8 1.363607 1_555
C9 N17 1.356120 1_655
C9 N5 1.359250 1_555
C9 N9 1.363607 1_555
C10 N18 1.356120 1_645
C10 N6 1.359250 1_555
C10 N10 1.363607 1_555
C11 N19 1.356120 1_565
C11 N7 1.359250 1_555
C11 N11 1.363607 1_555
C12 N28 1.333916 1_655
C12 N24 1.362177 1_555
C12 N20 1.382526 1_555
C13 N29 1.333916 1_555
C13 N25 1.362177 1_555
C13 N21 1.382526 1_555
C14 N30 1.333916 1_555
C14 N26 1.362177 1_555
C14 N22 1.382526 1_555
C15 N31 1.333916 1_655
C15 N27 1.362177 1_555
C15 N23 1.382526 1_555
N32 O0 1.245958 1_555
N32 O8 1.261241 1_555
N32 O4 1.261847 1_555
N33 O1 1.245958 1_455
N33 O9 1.261241 1_555
N33 O5 1.261847 1_455
N34 O2 1.245958 1_455
N34 O10 1.261241 1_555
N34 O6 1.261847 1_455
N35 O3 1.245958 1_555
N35 O11 1.261241 1_555
N35 O7 1.261847 1_555
