# generated using pymatgen
data_KRb(Fe2S3)2
_symmetry_space_group_name_H-M   'P 1'
_cell_length_a   7.19365763
_cell_length_b   7.19365763
_cell_length_c   5.17762600
_cell_angle_alpha   90.00000000
_cell_angle_beta   90.00000000
_cell_angle_gamma   102.78310618
_symmetry_Int_Tables_number   1
_chemical_formula_structural   KRb(Fe2S3)2
_chemical_formula_sum   'K1 Rb1 Fe4 S6'
_cell_volume   261.29458860
_cell_formula_units_Z   1
loop_
 _symmetry_equiv_pos_site_id
 _symmetry_equiv_pos_as_xyz
  1  'x, y, z'
loop_
 _atom_site_type_symbol
 _atom_site_label
 _atom_site_symmetry_multiplicity
 _atom_site_fract_x
 _atom_site_fract_y
 _atom_site_fract_z
 _atom_site_occupancy
  K  K0  1  0.32953400  0.67046600  0.50000000  1
  Rb  Rb0  1  0.67064300  0.32935700  0.00000000  1
  Fe  Fe0  1  0.85784000  0.85856200  0.24976600  1
  Fe  Fe1  1  0.85784000  0.85856200  0.75023300  1
  Fe  Fe2  1  0.14143800  0.14216000  0.24976600  1
  Fe  Fe3  1  0.14143800  0.14216000  0.75023300  1
  S  S0  1  0.61736200  0.83031800  0.00000000  1
  S  S1  1  0.83434900  0.61968500  0.50000000  1
  S  S2  1  0.38031500  0.16565100  0.50000000  1
  S  S3  1  0.16968200  0.38263800  0.00000000  1
  S  S4  1  0.10805600  0.89194400  0.00000000  1
  S  S5  1  0.89150400  0.10849600  0.50000000  1
loop_
_geom_bond_atom_site_label_1
_geom_bond_atom_site_label_2
_geom_bond_distance
_geom_bond_site_symmetry_2
K0 S3 3.355259 1_556
K0 S0 3.355259 1_555
K0 S0 3.355259 1_556
K0 S3 3.355259 1_555
K0 S2 3.499544 1_565
K0 S1 3.499544 1_455
K0 S4 3.591944 1_555
K0 S4 3.591944 1_556
K0 S1 3.729347 1_555
K0 S2 3.729347 1_555
Rb0 S1 3.370804 1_555
Rb0 S1 3.370804 1_554
Rb0 S2 3.370804 1_555
Rb0 S2 3.370804 1_554
Rb0 S3 3.524984 1_655
Rb0 S0 3.524984 1_545
Rb0 S5 3.587139 1_554
Rb0 S5 3.587139 1_555
Rb0 S0 3.707439 1_555
Rb0 S3 3.707439 1_555
Fe0 S1 2.128750 1_555
Fe0 S0 2.133239 1_555
Fe0 S5 2.185677 1_565
Fe0 S4 2.186008 1_655
Fe1 S1 2.128747 1_555
Fe1 S0 2.133242 1_556
Fe1 S5 2.185674 1_565
Fe1 S4 2.186011 1_656
Fe2 S2 2.128750 1_555
Fe2 S3 2.133239 1_555
Fe2 S5 2.185677 1_455
Fe2 S4 2.186008 1_545
Fe3 S2 2.128747 1_555
Fe3 S3 2.133242 1_556
Fe3 S5 2.185674 1_455
Fe3 S4 2.186011 1_546
