# generated using pymatgen
data_H6AuC3NO
_symmetry_space_group_name_H-M   'P 1'
_cell_length_a   8.90054995
_cell_length_b   10.69609196
_cell_length_c   11.31194409
_cell_angle_alpha   61.63952937
_cell_angle_beta   67.13853158
_cell_angle_gamma   69.10552877
_symmetry_Int_Tables_number   1
_chemical_formula_structural   H6AuC3NO
_chemical_formula_sum   'H36 Au6 C18 N6 O6'
_cell_volume   853.31838520
_cell_formula_units_Z   6
loop_
 _symmetry_equiv_pos_site_id
 _symmetry_equiv_pos_as_xyz
  1  'x, y, z'
loop_
 _atom_site_type_symbol
 _atom_site_label
 _atom_site_symmetry_multiplicity
 _atom_site_fract_x
 _atom_site_fract_y
 _atom_site_fract_z
 _atom_site_occupancy
  H  H0  1  0.59784600  0.89222900  0.88723500  1
  H  H1  1  0.40215400  0.10777100  0.11276500  1
  H  H2  1  0.59937600  0.70994900  0.92153900  1
  H  H3  1  0.40062400  0.29005100  0.07846100  1
  H  H4  1  0.45103800  0.85910700  0.83620300  1
  H  H5  1  0.54896200  0.14089300  0.16379700  1
  H  H6  1  0.80594500  0.02106400  0.54682900  1
  H  H7  1  0.19405500  0.97893600  0.45317100  1
  H  H8  1  0.58355900  0.04248500  0.60944900  1
  H  H9  1  0.41644100  0.95751500  0.39055100  1
  H  H10  1  0.70001400  0.94541000  0.49691900  1
  H  H11  1  0.29998600  0.05459000  0.50308100  1
  H  H12  1  0.90947100  0.66756200  0.78772000  1
  H  H13  1  0.09052900  0.33243800  0.21228000  1
  H  H14  1  0.92555000  0.74942200  0.60437200  1
  H  H15  1  0.07445000  0.25057800  0.39562800  1
  H  H16  1  0.78187600  0.63135900  0.72112400  1
  H  H17  1  0.21812400  0.36864100  0.27887600  1
  H  H18  1  0.34732400  0.40572500  0.57139600  1
  H  H19  1  0.65267600  0.59427500  0.42860400  1
  H  H20  1  0.33658800  0.23268100  0.59201000  1
  H  H21  1  0.66341200  0.76731900  0.40799000  1
  H  H22  1  0.17951200  0.39030600  0.53494200  1
  H  H23  1  0.82048800  0.60969400  0.46505800  1
  H  H24  1  0.55861000  0.40822600  0.32862500  1
  H  H25  1  0.44139000  0.59177400  0.67137500  1
  H  H26  1  0.65961600  0.53782500  0.17168400  1
  H  H27  1  0.34038400  0.46217500  0.82831600  1
  H  H28  1  0.51638800  0.45982100  0.16809100  1
  H  H29  1  0.48361200  0.54017900  0.83190900  1
  H  H30  1  0.35087100  0.73055100  0.31486100  1
  H  H31  1  0.64912900  0.26944900  0.68513900  1
  H  H32  1  0.13489500  0.73210500  0.40203900  1
  H  H33  1  0.86510500  0.26789500  0.59796100  1
  H  H34  1  0.24102400  0.64728900  0.28015800  1
  H  H35  1  0.75897600  0.35271100  0.71984200  1
  Au  Au0  1  0.21883300  0.09684300  0.90788200  1
  Au  Au1  1  0.78116700  0.90315700  0.09211800  1
  Au  Au2  1  0.97198000  0.03519000  0.23663100  1
  Au  Au3  1  0.02802000  0.96481000  0.76336900  1
  Au  Au4  1  0.90735100  0.36627800  0.98149800  1
  Au  Au5  1  0.09264900  0.63372200  0.01850200  1
  C  C0  1  0.27318400  0.90618000  0.06378700  1
  C  C1  1  0.72681600  0.09382000  0.93621300  1
  C  C2  1  0.77826800  0.19074800  0.27994300  1
  C  C3  1  0.22173200  0.80925200  0.72005700  1
  C  C4  1  0.05044400  0.40415500  0.78489600  1
  C  C5  1  0.94955600  0.59584500  0.21510400  1
  C  C6  1  0.52024100  0.81750800  0.91403400  1
  C  C7  1  0.47975900  0.18249200  0.08596600  1
  C  C8  1  0.69196800  0.03604500  0.52111200  1
  C  C9  1  0.30803200  0.96395500  0.47888800  1
  C  C10  1  0.90387200  0.65231800  0.70025900  1
  C  C11  1  0.09612800  0.34768200  0.29974100  1
  C  C12  1  0.26260300  0.33421300  0.60431900  1
  C  C13  1  0.73739700  0.66578700  0.39568100  1
  C  C14  1  0.61423400  0.43767000  0.21628300  1
  C  C15  1  0.38576600  0.56233000  0.78371700  1
  C  C16  1  0.22952600  0.73971000  0.30340200  1
  C  C17  1  0.77047400  0.26029000  0.69659800  1
  N  N0  1  0.18091500  0.87889600  0.19280400  1
  N  N1  1  0.81908500  0.12110400  0.80719600  1
  N  N2  1  0.75296000  0.32289100  0.18436400  1
  N  N3  1  0.24704000  0.67710900  0.81563600  1
  N  N4  1  0.16703900  0.30114100  0.75083000  1
  N  N5  1  0.83296100  0.69885900  0.24917000  1
  O  O0  1  0.40640500  0.79676200  0.04967500  1
  O  O1  1  0.59359500  0.20323800  0.95032500  1
  O  O2  1  0.66485200  0.17192600  0.40665400  1
  O  O3  1  0.33514800  0.82807400  0.59334600  1
  O  O4  1  0.03477200  0.53462500  0.67513600  1
  O  O5  1  0.96522800  0.46537500  0.32486400  1
loop_
_geom_bond_atom_site_label_1
_geom_bond_atom_site_label_2
_geom_bond_distance
_geom_bond_site_symmetry_2
Au0 C0 2.011353 1_546
Au0 N4 2.091269 1_555
Au1 C1 2.011353 1_564
Au1 N5 2.091269 1_555
Au2 C2 2.013206 1_555
Au2 N0 2.086203 1_645
Au3 C3 2.013206 1_555
Au3 N1 2.086203 1_465
Au4 C4 2.010821 1_655
Au4 N2 2.088712 1_556
Au5 C5 2.010821 1_455
Au5 N3 2.088712 1_554
C0 N0 1.313237 1_555
C0 O0 1.357103 1_555
C1 N1 1.313237 1_555
C1 O1 1.357103 1_555
C2 N2 1.314446 1_555
C2 O2 1.364033 1_555
C3 N3 1.314446 1_555
C3 O3 1.364033 1_555
C4 N4 1.310170 1_555
C4 O4 1.363128 1_555
C5 N5 1.310170 1_555
C5 O5 1.363128 1_555
C6 H2 1.096605 1_555
C6 H4 1.098278 1_555
C6 H0 1.099388 1_555
C6 O0 1.434937 1_556
C7 H3 1.096605 1_555
C7 H5 1.098278 1_555
C7 H1 1.099388 1_555
C7 O1 1.434937 1_554
C8 H8 1.096861 1_555
C8 H10 1.098699 1_545
C8 H6 1.099319 1_555
C8 O2 1.432415 1_555
C9 H9 1.096861 1_555
C9 H11 1.098699 1_565
C9 H7 1.099319 1_555
C9 O3 1.432415 1_555
C10 H14 1.096604 1_555
C10 H12 1.097839 1_555
C10 H16 1.099647 1_555
C10 O4 1.435038 1_655
C11 H15 1.096604 1_555
C11 H13 1.097839 1_555
C11 H17 1.099647 1_555
C11 O5 1.435038 1_455
C12 H20 1.093031 1_555
C12 H22 1.099978 1_555
C12 H18 1.102251 1_555
C12 N4 1.468893 1_555
C13 H21 1.093031 1_555
C13 H23 1.099978 1_555
C13 H19 1.102251 1_555
C13 N5 1.468893 1_555
C14 H24 1.096072 1_555
C14 H26 1.096426 1_555
C14 H28 1.100346 1_555
C14 N2 1.468202 1_555
C15 H25 1.096072 1_555
C15 H27 1.096426 1_555
C15 H29 1.100346 1_555
C15 N3 1.468202 1_555
C16 H32 1.092435 1_555
C16 H34 1.100315 1_555
C16 H30 1.101873 1_555
C16 N0 1.469838 1_555
C17 H33 1.092435 1_555
C17 H35 1.100315 1_555
C17 H31 1.101873 1_555
C17 N1 1.469838 1_555
