# generated using pymatgen
data_Y2VO5
_symmetry_space_group_name_H-M   'P 1'
_cell_length_a   8.43046330
_cell_length_b   8.43046330
_cell_length_c   10.57067350
_cell_angle_alpha   60.63913465
_cell_angle_beta   60.63913465
_cell_angle_gamma   48.23417656
_symmetry_Int_Tables_number   1
_chemical_formula_structural   Y2VO5
_chemical_formula_sum   'Y8 V4 O20'
_cell_volume   472.64246002
_cell_formula_units_Z   4
loop_
 _symmetry_equiv_pos_site_id
 _symmetry_equiv_pos_as_xyz
  1  'x, y, z'
loop_
 _atom_site_type_symbol
 _atom_site_label
 _atom_site_symmetry_multiplicity
 _atom_site_fract_x
 _atom_site_fract_y
 _atom_site_fract_z
 _atom_site_occupancy
  Y  Y0  1  0.76147200  0.50759900  0.16292900  1
  Y  Y1  1  0.49240100  0.23852800  0.33707100  1
  Y  Y2  1  0.23852800  0.49240100  0.83707100  1
  Y  Y3  1  0.50759900  0.76147200  0.66292900  1
  Y  Y4  1  0.77601100  0.28905900  0.53735600  1
  Y  Y5  1  0.71094100  0.22398900  0.96264400  1
  Y  Y6  1  0.22398900  0.71094100  0.46264400  1
  Y  Y7  1  0.28905900  0.77601100  0.03735600  1
  V  V0  1  0.90602300  0.71458500  0.31557200  1
  V  V1  1  0.28541500  0.09397700  0.18442800  1
  V  V2  1  0.09397700  0.28541500  0.68442800  1
  V  V3  1  0.71458500  0.90602300  0.81557200  1
  O  O0  1  0.83942900  0.54650900  0.32206300  1
  O  O1  1  0.45349100  0.16057100  0.17793700  1
  O  O2  1  0.16057100  0.45349100  0.67793700  1
  O  O3  1  0.54650900  0.83942900  0.82206300  1
  O  O4  1  0.87457800  0.72170000  0.95221000  1
  O  O5  1  0.27830000  0.12542200  0.54779000  1
  O  O6  1  0.12542200  0.27830000  0.04779000  1
  O  O7  1  0.72170000  0.87457800  0.45221000  1
  O  O8  1  0.41064000  0.81748800  0.17286700  1
  O  O9  1  0.18251200  0.58936000  0.32713300  1
  O  O10  1  0.58936000  0.18251200  0.82713300  1
  O  O11  1  0.81748800  0.41064000  0.67286700  1
  O  O12  1  0.09527300  0.07791000  0.36808800  1
  O  O13  1  0.92209000  0.90472700  0.13191200  1
  O  O14  1  0.90472700  0.92209000  0.63191200  1
  O  O15  1  0.07791000  0.09527300  0.86808800  1
  O  O16  1  0.58339000  0.38410400  0.39726700  1
  O  O17  1  0.61589600  0.41661000  0.10273300  1
  O  O18  1  0.41661000  0.61589600  0.60273300  1
  O  O19  1  0.38410400  0.58339000  0.89726700  1
loop_
_geom_bond_atom_site_label_1
_geom_bond_atom_site_label_2
_geom_bond_distance
_geom_bond_site_symmetry_2
O0 V0 1.803971 1_555
O0 Y0 2.298168 1_555
O0 Y4 2.384287 1_555
O1 V1 1.803971 1_555
O1 Y1 2.298168 1_555
O1 Y5 2.384287 1_554
O2 V2 1.803971 1_555
O2 Y2 2.298168 1_555
O2 Y6 2.384287 1_555
O3 V3 1.803971 1_555
O3 Y3 2.298168 1_555
O3 Y7 2.384287 1_556
O4 V3 1.799293 1_555
O4 Y2 2.318651 1_655
O4 Y0 2.322960 1_556
O5 V2 1.799293 1_555
O5 Y3 2.318651 1_545
O5 Y1 2.322960 1_555
O6 V1 1.799293 1_555
O6 Y0 2.318651 1_455
O6 Y2 2.322960 1_554
O7 V0 1.799293 1_555
O7 Y1 2.318651 1_565
O7 Y3 2.322960 1_555
O8 V1 1.854002 1_565
O8 Y0 2.292350 1_555
O8 Y7 2.373428 1_555
O8 Y6 2.669076 1_555
O9 V0 1.854002 1_455
O9 Y1 2.292350 1_555
O9 Y6 2.373428 1_555
O9 Y7 2.669076 1_555
O10 V3 1.854002 1_545
O10 Y2 2.292350 1_555
O10 Y5 2.373428 1_555
O10 Y4 2.669076 1_555
O11 V2 1.854002 1_655
O11 Y3 2.292350 1_555
O11 Y4 2.373428 1_555
O11 Y5 2.669076 1_555
O12 V1 1.826645 1_555
O12 Y6 2.303627 1_545
O12 Y4 2.373325 1_455
O13 V0 1.826645 1_555
O13 Y7 2.303627 1_655
O13 Y5 2.373325 1_564
O14 V3 1.826645 1_555
O14 Y4 2.303627 1_565
O14 Y6 2.373325 1_655
O15 V2 1.826645 1_555
O15 Y5 2.303627 1_455
O15 Y7 2.373325 1_546
O16 Y4 2.221049 1_555
O16 Y1 2.235636 1_555
O16 Y0 2.319566 1_555
O16 Y6 2.437685 1_555
O17 Y5 2.221049 1_554
O17 Y0 2.235636 1_555
O17 Y1 2.319566 1_555
O17 Y7 2.437685 1_555
O18 Y6 2.221049 1_555
O18 Y3 2.235636 1_555
O18 Y2 2.319566 1_555
O18 Y4 2.437685 1_555
O19 Y7 2.221049 1_556
O19 Y2 2.235636 1_555
O19 Y3 2.319566 1_555
O19 Y5 2.437685 1_555
