# generated using pymatgen
data_Mg6CrGa
_symmetry_space_group_name_H-M   'P 1'
_cell_length_a   4.93446500
_cell_length_b   6.21843400
_cell_length_c   10.71034600
_cell_angle_alpha   90.00000000
_cell_angle_beta   90.00000000
_cell_angle_gamma   90.00000000
_symmetry_Int_Tables_number   1
_chemical_formula_structural   Mg6CrGa
_chemical_formula_sum   'Mg12 Cr2 Ga2'
_cell_volume   328.64316406
_cell_formula_units_Z   2
loop_
 _symmetry_equiv_pos_site_id
 _symmetry_equiv_pos_as_xyz
  1  'x, y, z'
loop_
 _atom_site_type_symbol
 _atom_site_label
 _atom_site_symmetry_multiplicity
 _atom_site_fract_x
 _atom_site_fract_y
 _atom_site_fract_z
 _atom_site_occupancy
  Mg  Mg0  1  0.00000000  0.25436600  0.08461600  1
  Mg  Mg1  1  0.00000000  0.74563400  0.08461600  1
  Mg  Mg2  1  0.00000000  0.50000000  0.83393700  1
  Mg  Mg3  1  0.50000000  0.24464000  0.91361000  1
  Mg  Mg4  1  0.50000000  0.75536000  0.91361000  1
  Mg  Mg5  1  0.50000000  0.50000000  0.66771700  1
  Mg  Mg6  1  0.00000000  0.75436600  0.58461600  1
  Mg  Mg7  1  0.00000000  0.24563400  0.58461600  1
  Mg  Mg8  1  0.00000000  0.00000000  0.33393700  1
  Mg  Mg9  1  0.50000000  0.74464000  0.41361000  1
  Mg  Mg10  1  0.50000000  0.25536000  0.41361000  1
  Mg  Mg11  1  0.50000000  0.00000000  0.16771700  1
  Cr  Cr0  1  0.00000000  0.50000000  0.32986700  1
  Cr  Cr1  1  0.00000000  0.00000000  0.82986700  1
  Ga  Ga0  1  0.50000000  0.50000000  0.17202800  1
  Ga  Ga1  1  0.50000000  0.00000000  0.67202800  1
loop_
_geom_bond_atom_site_label_1
_geom_bond_atom_site_label_2
_geom_bond_distance
_geom_bond_site_symmetry_2
Mg0 Mg1 3.054918 1_555
Mg0 Mg11 3.062902 1_455
Mg0 Mg11 3.062902 1_555
Mg0 Mg3 3.073338 1_454
Mg0 Mg3 3.073338 1_554
Mg0 Mg2 3.088948 1_554
Mg0 Mg8 3.103633 1_555
Mg0 Mg1 3.163516 1_545
Mg1 Mg11 3.062902 1_465
Mg1 Mg11 3.062902 1_565
Mg1 Mg4 3.073338 1_554
Mg1 Mg4 3.073338 1_454
Mg1 Mg2 3.088948 1_554
Mg1 Mg8 3.103633 1_565
Mg2 Mg5 3.042468 1_455
Mg2 Mg5 3.042468 1_555
Mg2 Mg4 3.055643 1_555
Mg2 Mg3 3.055643 1_455
Mg2 Mg4 3.055643 1_455
Mg2 Mg3 3.055643 1_555
Mg2 Mg7 3.103633 1_555
Mg2 Mg6 3.103633 1_555
Mg3 Mg4 3.042555 1_545
Mg3 Mg5 3.075288 1_555
Mg3 Mg4 3.175879 1_555
Mg4 Mg5 3.075288 1_555
Mg5 Mg6 3.062902 1_655
Mg5 Mg7 3.062902 1_555
Mg5 Mg7 3.062902 1_655
Mg5 Mg6 3.062902 1_555
Mg5 Mg9 3.117892 1_555
Mg6 Mg7 3.054918 1_565
Mg6 Mg9 3.073338 1_455
Mg6 Mg9 3.073338 1_555
Mg6 Mg8 3.088948 1_565
Mg6 Mg7 3.163516 1_555
Mg7 Mg8 3.088948 1_555
Mg8 Mg9 3.055643 1_545
Mg8 Mg9 3.055643 1_445
Mg10 Mg9 3.042555 1_555
Mg10 Mg8 3.055643 1_655
Mg10 Mg8 3.055643 1_555
Mg10 Mg7 3.073338 1_555
Mg10 Mg7 3.073338 1_655
Mg10 Mg11 3.075288 1_555
Mg10 Mg5 3.117892 1_555
Mg10 Mg9 3.175879 1_545
Mg11 Mg8 3.042468 1_555
Mg11 Mg8 3.042468 1_655
Mg11 Mg9 3.075288 1_545
Mg11 Mg4 3.117892 1_544
Mg11 Mg3 3.117892 1_554
Cr0 Ga0 2.990830 1_555
Cr0 Ga0 2.990830 1_455
Cr0 Mg9 3.034136 1_555
Cr0 Mg9 3.034136 1_455
Cr0 Mg10 3.034136 1_455
Cr0 Mg10 3.034136 1_555
Cr0 Mg1 3.038553 1_555
Cr0 Mg0 3.038553 1_555
Cr0 Mg8 3.109523 1_565
Cr0 Mg8 3.109523 1_555
Cr0 Mg7 3.153791 1_555
Cr0 Mg6 3.153791 1_555
Cr1 Ga1 2.990830 1_555
Cr1 Ga1 2.990830 1_455
Cr1 Mg4 3.034136 1_445
Cr1 Mg3 3.034136 1_455
Cr1 Mg4 3.034136 1_545
Cr1 Mg3 3.034136 1_555
Cr1 Mg6 3.038553 1_545
Cr1 Mg7 3.038553 1_555
Cr1 Mg2 3.109523 1_555
Cr1 Mg2 3.109523 1_545
Cr1 Mg1 3.153791 1_546
Cr1 Mg0 3.153791 1_556
Ga0 Mg10 3.001510 1_555
Ga0 Mg9 3.001510 1_555
Ga0 Mg0 3.049075 1_555
Ga0 Mg0 3.049075 1_655
Ga0 Mg1 3.049075 1_655
Ga0 Mg1 3.049075 1_555
Ga0 Mg11 3.109560 1_565
Ga0 Mg11 3.109560 1_555
Ga0 Mg3 3.190920 1_554
Ga0 Mg4 3.190920 1_554
Ga1 Mg3 3.001510 1_555
Ga1 Mg4 3.001510 1_545
Ga1 Mg6 3.049075 1_545
Ga1 Mg7 3.049075 1_555
Ga1 Mg7 3.049075 1_655
Ga1 Mg6 3.049075 1_645
Ga1 Mg5 3.109560 1_545
Ga1 Mg5 3.109560 1_555
Ga1 Mg9 3.190920 1_545
Ga1 Mg10 3.190920 1_555
