# generated using pymatgen
data_V3(FeO4)2
_symmetry_space_group_name_H-M   'P 1'
_cell_length_a   5.93564134
_cell_length_b   5.93564134
_cell_length_c   9.47807100
_cell_angle_alpha   90.00000000
_cell_angle_beta   90.00000000
_cell_angle_gamma   119.99999267
_symmetry_Int_Tables_number   1
_chemical_formula_structural   V3(FeO4)2
_chemical_formula_sum   'V6 Fe4 O16'
_cell_volume   289.19176613
_cell_formula_units_Z   2
loop_
 _symmetry_equiv_pos_site_id
 _symmetry_equiv_pos_as_xyz
  1  'x, y, z'
loop_
 _atom_site_type_symbol
 _atom_site_label
 _atom_site_symmetry_multiplicity
 _atom_site_fract_x
 _atom_site_fract_y
 _atom_site_fract_z
 _atom_site_occupancy
  V  V0  1  0.84016400  0.68032900  0.64190100  1
  V  V1  1  0.84016400  0.15983600  0.64190100  1
  V  V2  1  0.15983600  0.31967100  0.14190100  1
  V  V3  1  0.31967100  0.15983600  0.64190100  1
  V  V4  1  0.15983600  0.84016400  0.14190100  1
  V  V5  1  0.68032900  0.84016400  0.14190100  1
  Fe  Fe0  1  0.66666700  0.33333300  0.95610900  1
  Fe  Fe1  1  0.33333300  0.66666700  0.45610900  1
  Fe  Fe2  1  0.66666700  0.33333300  0.35408300  1
  Fe  Fe3  1  0.33333300  0.66666700  0.85408300  1
  O  O0  1  0.51334100  0.02668200  0.51144100  1
  O  O1  1  0.51334100  0.48665900  0.51144100  1
  O  O2  1  0.48665900  0.97331800  0.01144100  1
  O  O3  1  0.97331800  0.48665900  0.51144100  1
  O  O4  1  0.48665900  0.51334100  0.01144100  1
  O  O5  1  0.02668200  0.51334100  0.01144100  1
  O  O6  1  0.16611900  0.33223700  0.75201300  1
  O  O7  1  0.16611900  0.83388100  0.75201300  1
  O  O8  1  0.83388100  0.66776300  0.25201300  1
  O  O9  1  0.66776300  0.83388100  0.75201300  1
  O  O10  1  0.83388100  0.16611900  0.25201300  1
  O  O11  1  0.33223700  0.16611900  0.25201300  1
  O  O12  1  0.00000000  0.00000000  0.02945400  1
  O  O13  1  0.00000000  0.00000000  0.52945400  1
  O  O14  1  0.66666700  0.33333300  0.75289100  1
  O  O15  1  0.33333300  0.66666700  0.25289100  1
loop_
_geom_bond_atom_site_label_1
_geom_bond_atom_site_label_2
_geom_bond_distance
_geom_bond_site_symmetry_2
Fe0 O2 1.923502 1_546
Fe0 O5 1.923502 1_656
Fe0 O4 1.923506 1_556
Fe0 O14 1.926115 1_555
Fe1 O3 1.923502 1_455
Fe1 O0 1.923502 1_565
Fe1 O1 1.923506 1_555
Fe1 O15 1.926115 1_555
Fe2 O10 1.972617 1_555
Fe2 O8 1.972626 1_555
Fe2 O11 1.972626 1_555
Fe2 O3 2.170067 1_555
Fe2 O0 2.170067 1_555
Fe2 O1 2.170070 1_555
Fe3 O7 1.972617 1_555
Fe3 O6 1.972626 1_555
Fe3 O9 1.972626 1_555
Fe3 O5 2.170067 1_556
Fe3 O2 2.170067 1_556
Fe3 O4 2.170070 1_556
O0 V1 2.093712 1_555
O0 V3 2.093717 1_555
O1 V3 2.093713 1_555
O1 V0 2.093713 1_555
O2 V4 2.093712 1_555
O2 V5 2.093717 1_555
O3 V1 2.093712 1_555
O3 V0 2.093717 1_555
O4 V2 2.093713 1_555
O4 V5 2.093713 1_555
O5 V4 2.093712 1_555
O5 V2 2.093717 1_555
O6 V3 1.974778 1_555
O6 V1 1.974787 1_455
O7 V0 1.974787 1_455
O7 V3 1.974787 1_565
O8 V5 1.974778 1_555
O8 V4 1.974787 1_655
O9 V0 1.974778 1_555
O9 V1 1.974787 1_565
O10 V5 1.974787 1_545
O10 V2 1.974787 1_655
O11 V2 1.974778 1_555
O11 V4 1.974787 1_545
O12 V5 1.958605 1_445
O12 V2 1.958605 1_555
O12 V4 1.958609 1_545
O13 V0 1.958605 1_445
O13 V3 1.958605 1_555
O13 V1 1.958609 1_455
O14 V1 2.070798 1_555
O14 V0 2.070807 1_555
O14 V3 2.070807 1_555
O15 V4 2.070798 1_555
O15 V5 2.070807 1_555
O15 V2 2.070807 1_555
