# generated using pymatgen
data_TlCr2FeO8
_symmetry_space_group_name_H-M   'P 1'
_cell_length_a   5.55251100
_cell_length_b   8.87440800
_cell_length_c   14.81944100
_cell_angle_alpha   90.00000000
_cell_angle_beta   90.00000000
_cell_angle_gamma   90.00000000
_symmetry_Int_Tables_number   1
_chemical_formula_structural   TlCr2FeO8
_chemical_formula_sum   'Tl4 Cr8 Fe4 O32'
_cell_volume   730.23163107
_cell_formula_units_Z   4
loop_
 _symmetry_equiv_pos_site_id
 _symmetry_equiv_pos_as_xyz
  1  'x, y, z'
loop_
 _atom_site_type_symbol
 _atom_site_label
 _atom_site_symmetry_multiplicity
 _atom_site_fract_x
 _atom_site_fract_y
 _atom_site_fract_z
 _atom_site_occupancy
  Tl  Tl0  1  0.25000000  0.05665000  0.38232100  1
  Tl  Tl1  1  0.75000000  0.94335000  0.61767900  1
  Tl  Tl2  1  0.75000000  0.55665000  0.11767900  1
  Tl  Tl3  1  0.25000000  0.44335000  0.88232100  1
  Cr  Cr0  1  0.25000000  0.25644000  0.16043900  1
  Cr  Cr1  1  0.75000000  0.74356000  0.83956100  1
  Cr  Cr2  1  0.75000000  0.75644000  0.33956100  1
  Cr  Cr3  1  0.25000000  0.24356000  0.66043900  1
  Cr  Cr4  1  0.25000000  0.81646400  0.06410500  1
  Cr  Cr5  1  0.75000000  0.18353600  0.93589500  1
  Cr  Cr6  1  0.75000000  0.31646400  0.43589500  1
  Cr  Cr7  1  0.25000000  0.68353600  0.56410500  1
  Fe  Fe0  1  0.25000000  0.50440800  0.34317300  1
  Fe  Fe1  1  0.75000000  0.49559200  0.65682700  1
  Fe  Fe2  1  0.75000000  0.00440800  0.15682700  1
  Fe  Fe3  1  0.25000000  0.99559200  0.84317300  1
  O  O0  1  0.25000000  0.28709400  0.05318100  1
  O  O1  1  0.75000000  0.71290600  0.94681900  1
  O  O2  1  0.75000000  0.78709400  0.44681900  1
  O  O3  1  0.25000000  0.21290600  0.55318100  1
  O  O4  1  0.25000000  0.63807900  0.03679900  1
  O  O5  1  0.75000000  0.36192100  0.96320100  1
  O  O6  1  0.75000000  0.13807900  0.46320100  1
  O  O7  1  0.25000000  0.86192100  0.53679900  1
  O  O8  1  0.25000000  0.57588300  0.47246200  1
  O  O9  1  0.75000000  0.42411700  0.52753800  1
  O  O10  1  0.75000000  0.07588300  0.02753800  1
  O  O11  1  0.25000000  0.92411700  0.97246200  1
  O  O12  1  0.99879700  0.34981500  0.37356500  1
  O  O13  1  0.00120300  0.65018500  0.62643500  1
  O  O14  1  0.00120300  0.84981500  0.12643500  1
  O  O15  1  0.49879700  0.65018500  0.62643500  1
  O  O16  1  0.99879700  0.15018500  0.87356500  1
  O  O17  1  0.50120300  0.34981500  0.37356500  1
  O  O18  1  0.50120300  0.15018500  0.87356500  1
  O  O19  1  0.49879700  0.84981500  0.12643500  1
  O  O20  1  0.25000000  0.42442600  0.21482900  1
  O  O21  1  0.75000000  0.57557400  0.78517100  1
  O  O22  1  0.75000000  0.92442600  0.28517100  1
  O  O23  1  0.25000000  0.07557400  0.71482900  1
  O  O24  1  0.00437200  0.15662900  0.18910300  1
  O  O25  1  0.99562800  0.84337100  0.81089700  1
  O  O26  1  0.99562800  0.65662900  0.31089700  1
  O  O27  1  0.50437200  0.84337100  0.81089700  1
  O  O28  1  0.00437200  0.34337100  0.68910300  1
  O  O29  1  0.49562800  0.15662900  0.18910300  1
  O  O30  1  0.49562800  0.34337100  0.68910300  1
  O  O31  1  0.50437200  0.65662900  0.31089700  1
loop_
_geom_bond_atom_site_label_1
_geom_bond_atom_site_label_2
_geom_bond_distance
_geom_bond_site_symmetry_2
Cr0 O0 1.612614 1_555
Cr0 O29 1.680807 1_555
Cr0 O24 1.680807 1_555
Cr0 O20 1.694726 1_555
Cr1 O1 1.612614 1_555
Cr1 O25 1.680807 1_555
Cr1 O27 1.680807 1_555
Cr1 O21 1.694726 1_555
Cr2 O2 1.612614 1_555
Cr2 O26 1.680807 1_555
Cr2 O31 1.680807 1_555
Cr2 O22 1.694726 1_555
Cr3 O3 1.612614 1_555
Cr3 O30 1.680807 1_555
Cr3 O28 1.680807 1_555
Cr3 O23 1.694726 1_555
Cr4 O4 1.633962 1_555
Cr4 O11 1.660463 1_554
Cr4 O19 1.687961 1_555
Cr4 O14 1.687961 1_555
Cr5 O5 1.633962 1_555
Cr5 O10 1.660463 1_556
Cr5 O16 1.687961 1_555
Cr5 O18 1.687961 1_555
Cr6 O6 1.633962 1_555
Cr6 O9 1.660463 1_555
Cr6 O12 1.687961 1_555
Cr6 O17 1.687961 1_555
Cr7 O7 1.633962 1_555
Cr7 O8 1.660463 1_555
Cr7 O15 1.687961 1_555
Cr7 O13 1.687961 1_555
Fe0 O17 2.007613 1_555
Fe0 O12 2.007613 1_455
Fe0 O31 2.012093 1_555
Fe0 O26 2.012093 1_455
Fe0 O8 2.018255 1_555
Fe0 O20 2.030113 1_555
Fe1 O13 2.007613 1_655
Fe1 O15 2.007613 1_555
Fe1 O28 2.012093 1_655
Fe1 O30 2.012093 1_555
Fe1 O9 2.018255 1_555
Fe1 O21 2.030113 1_555
Fe2 O14 2.007613 1_645
Fe2 O19 2.007613 1_545
Fe2 O24 2.012093 1_655
Fe2 O29 2.012093 1_555
Fe2 O10 2.018255 1_555
Fe2 O22 2.030113 1_545
Fe3 O18 2.007613 1_565
Fe3 O16 2.007613 1_465
Fe3 O27 2.012093 1_555
Fe3 O25 2.012093 1_455
Fe3 O11 2.018255 1_555
Fe3 O23 2.030113 1_565
