# generated using pymatgen
data_Sr5Pt4
_symmetry_space_group_name_H-M   'P 1'
_cell_length_a   7.89637200
_cell_length_b   8.22340500
_cell_length_c   15.73410500
_cell_angle_alpha   90.00000000
_cell_angle_beta   90.00000000
_cell_angle_gamma   90.00000000
_symmetry_Int_Tables_number   1
_chemical_formula_structural   Sr5Pt4
_chemical_formula_sum   'Sr20 Pt16'
_cell_volume   1021.69513068
_cell_formula_units_Z   4
loop_
 _symmetry_equiv_pos_site_id
 _symmetry_equiv_pos_as_xyz
  1  'x, y, z'
loop_
 _atom_site_type_symbol
 _atom_site_label
 _atom_site_symmetry_multiplicity
 _atom_site_fract_x
 _atom_site_fract_y
 _atom_site_fract_z
 _atom_site_occupancy
  Sr  Sr0  1  0.34275400  0.82793100  0.87878000  1
  Sr  Sr1  1  0.84275400  0.67206900  0.62122000  1
  Sr  Sr2  1  0.65724600  0.17206900  0.37878100  1
  Sr  Sr3  1  0.15724600  0.32793100  0.12121900  1
  Sr  Sr4  1  0.65724600  0.17206900  0.12121900  1
  Sr  Sr5  1  0.15724600  0.32793100  0.37878100  1
  Sr  Sr6  1  0.34275400  0.82793100  0.62122000  1
  Sr  Sr7  1  0.84275400  0.67206900  0.87878000  1
  Sr  Sr8  1  0.49862000  0.31886700  0.90468400  1
  Sr  Sr9  1  0.99862000  0.18113300  0.59531600  1
  Sr  Sr10  1  0.50138000  0.68113300  0.40468400  1
  Sr  Sr11  1  0.00138000  0.81886700  0.09531600  1
  Sr  Sr12  1  0.50138000  0.68113300  0.09531600  1
  Sr  Sr13  1  0.00138000  0.81886700  0.40468400  1
  Sr  Sr14  1  0.49862000  0.31886700  0.59531600  1
  Sr  Sr15  1  0.99862000  0.18113300  0.90468400  1
  Sr  Sr16  1  0.18426500  0.48691200  0.75000000  1
  Sr  Sr17  1  0.68426500  0.01308800  0.75000000  1
  Sr  Sr18  1  0.81573500  0.51308800  0.25000000  1
  Sr  Sr19  1  0.31573500  0.98691200  0.25000000  1
  Pt  Pt0  1  0.33164000  0.03002500  0.03946600  1
  Pt  Pt1  1  0.83164000  0.46997500  0.46053400  1
  Pt  Pt2  1  0.66836000  0.96997500  0.53946600  1
  Pt  Pt3  1  0.16836000  0.53002500  0.96053400  1
  Pt  Pt4  1  0.66836000  0.96997500  0.96053400  1
  Pt  Pt5  1  0.16836000  0.53002500  0.53946600  1
  Pt  Pt6  1  0.33164000  0.03002500  0.46053400  1
  Pt  Pt7  1  0.83164000  0.46997500  0.03946600  1
  Pt  Pt8  1  0.55192100  0.60144100  0.75000000  1
  Pt  Pt9  1  0.05192100  0.89855900  0.75000000  1
  Pt  Pt10  1  0.44807900  0.39855900  0.25000000  1
  Pt  Pt11  1  0.94807900  0.10144100  0.25000000  1
  Pt  Pt12  1  0.29828200  0.13078800  0.75000000  1
  Pt  Pt13  1  0.79828200  0.36921200  0.75000000  1
  Pt  Pt14  1  0.70171800  0.86921200  0.25000000  1
  Pt  Pt15  1  0.20171800  0.63078800  0.25000000  1
loop_
_geom_bond_atom_site_label_1
_geom_bond_atom_site_label_2
_geom_bond_distance
_geom_bond_site_symmetry_2
Pt0 Pt4 2.975870 1_544
Pt0 Sr0 3.026824 1_544
Pt0 Sr3 3.090707 1_555
Pt0 Sr4 3.103160 1_555
Pt0 Sr11 3.253971 1_545
Pt0 Sr12 3.286382 1_545
Pt0 Sr19 3.333849 1_545
Pt0 Sr8 3.446401 1_554
Pt0 Sr15 3.599504 1_454
Pt1 Pt5 2.975870 1_655
Pt1 Sr1 3.026824 1_555
Pt1 Sr2 3.090707 1_555
Pt1 Sr5 3.103160 1_655
Pt1 Sr10 3.253971 1_555
Pt1 Sr13 3.286382 1_655
Pt1 Sr18 3.333849 1_555
Pt1 Sr9 3.446401 1_555
Pt1 Sr14 3.599504 1_555
Pt2 Pt6 2.975870 1_565
Pt2 Sr2 3.026811 1_565
Pt2 Sr1 3.090714 1_555
Pt2 Sr6 3.103167 1_555
Pt2 Sr9 3.253971 1_565
Pt2 Sr14 3.286382 1_565
Pt2 Sr17 3.333849 1_565
Pt2 Sr10 3.446401 1_555
Pt2 Sr13 3.599504 1_655
Pt3 Pt7 2.975870 1_456
Pt3 Sr3 3.026811 1_556
Pt3 Sr0 3.090714 1_555
Pt3 Sr7 3.103167 1_455
Pt3 Sr8 3.253971 1_555
Pt3 Sr15 3.286382 1_455
Pt3 Sr16 3.333849 1_555
Pt3 Sr11 3.446401 1_556
Pt3 Sr12 3.599504 1_556
Pt4 Sr4 3.026811 1_566
Pt4 Sr7 3.090714 1_555
Pt4 Sr0 3.103167 1_555
Pt4 Sr15 3.253971 1_565
Pt4 Sr8 3.286382 1_565
Pt4 Sr17 3.333849 1_565
Pt4 Sr12 3.446401 1_556
Pt4 Sr11 3.599504 1_656
Pt5 Sr5 3.026811 1_555
Pt5 Sr6 3.090714 1_555
Pt5 Sr1 3.103167 1_455
Pt5 Sr14 3.253971 1_555
Pt5 Sr9 3.286382 1_455
Pt5 Sr16 3.333849 1_555
Pt5 Sr13 3.446401 1_555
Pt5 Sr10 3.599504 1_555
Pt6 Sr6 3.026824 1_545
Pt6 Sr5 3.090707 1_555
Pt6 Sr2 3.103160 1_555
Pt6 Sr13 3.253971 1_545
Pt6 Sr10 3.286382 1_545
Pt6 Sr19 3.333849 1_545
Pt6 Sr14 3.446401 1_555
Pt6 Sr9 3.599504 1_455
Pt7 Sr7 3.026824 1_554
Pt7 Sr4 3.090707 1_555
Pt7 Sr3 3.103160 1_655
Pt7 Sr12 3.253971 1_555
Pt7 Sr11 3.286382 1_655
Pt7 Sr18 3.333849 1_555
Pt7 Sr15 3.446401 1_554
Pt7 Sr8 3.599504 1_554
Pt8 Sr16 3.052097 1_555
Pt8 Sr1 3.117211 1_555
Pt8 Sr7 3.117211 1_555
Pt8 Sr0 3.209766 1_555
Pt8 Sr6 3.209766 1_555
Pt8 Sr8 3.391205 1_555
Pt8 Sr14 3.391205 1_555
Pt8 Sr17 3.542778 1_565
Pt9 Sr17 3.052097 1_465
Pt9 Sr0 3.117211 1_555
Pt9 Sr6 3.117211 1_555
Pt9 Sr7 3.209766 1_455
Pt9 Sr1 3.209766 1_455
Pt9 Sr15 3.391205 1_465
Pt9 Sr9 3.391205 1_465
Pt9 Sr16 3.542778 1_555
Pt10 Pt15 2.726064 1_555
Pt10 Sr18 3.052097 1_555
Pt10 Sr5 3.117221 1_555
Pt10 Sr3 3.117221 1_555
Pt10 Sr2 3.209776 1_555
Pt10 Sr4 3.209776 1_555
Pt10 Sr12 3.391205 1_555
Pt10 Sr10 3.391205 1_555
Pt10 Sr19 3.542778 1_545
Pt11 Pt14 2.726064 1_545
Pt11 Sr19 3.052097 1_645
Pt11 Sr2 3.117221 1_555
Pt11 Sr4 3.117221 1_555
Pt11 Sr5 3.209776 1_655
Pt11 Sr3 3.209776 1_655
Pt11 Sr11 3.391205 1_645
Pt11 Sr13 3.391205 1_645
Pt11 Sr18 3.542778 1_555
Pt12 Pt9 2.726064 1_545
Pt12 Sr16 3.063820 1_555
Pt12 Sr17 3.197859 1_555
Pt12 Sr6 3.229803 1_545
Pt12 Sr0 3.229803 1_545
Pt12 Sr8 3.289091 1_555
Pt12 Sr14 3.289091 1_555
Pt12 Sr15 3.419643 1_455
Pt12 Sr9 3.419643 1_455
Pt13 Pt8 2.726064 1_555
Pt13 Sr17 3.063820 1_555
Pt13 Sr16 3.197859 1_655
Pt13 Sr7 3.229803 1_555
Pt13 Sr1 3.229803 1_555
Pt13 Sr15 3.289091 1_555
Pt13 Sr9 3.289091 1_555
Pt13 Sr14 3.419643 1_555
Pt13 Sr8 3.419643 1_555
Pt14 Sr18 3.063820 1_555
Pt14 Sr19 3.197859 1_555
Pt14 Sr4 3.229813 1_565
Pt14 Sr2 3.229813 1_565
Pt14 Sr10 3.289091 1_555
Pt14 Sr12 3.289091 1_555
Pt14 Sr13 3.419643 1_655
Pt14 Sr11 3.419643 1_655
Pt15 Sr19 3.063820 1_555
Pt15 Sr18 3.197859 1_455
Pt15 Sr3 3.229813 1_555
Pt15 Sr5 3.229813 1_555
Pt15 Sr11 3.289091 1_555
Pt15 Sr13 3.289091 1_555
Pt15 Sr12 3.419643 1_555
Pt15 Sr10 3.419643 1_555
