# generated using pymatgen
data_ZnSn(GeO3)2
_symmetry_space_group_name_H-M   'P 1'
_cell_length_a   9.48901000
_cell_length_b   5.46872000
_cell_length_c   10.84787800
_cell_angle_alpha   82.11273703
_cell_angle_beta   90.00000000
_cell_angle_gamma   90.00000000
_symmetry_Int_Tables_number   1
_chemical_formula_structural   ZnSn(GeO3)2
_chemical_formula_sum   'Zn4 Sn4 Ge8 O24'
_cell_volume   557.60081449
_cell_formula_units_Z   4
loop_
 _symmetry_equiv_pos_site_id
 _symmetry_equiv_pos_as_xyz
  1  'x, y, z'
loop_
 _atom_site_type_symbol
 _atom_site_label
 _atom_site_symmetry_multiplicity
 _atom_site_fract_x
 _atom_site_fract_y
 _atom_site_fract_z
 _atom_site_occupancy
  Zn  Zn0  1  0.47980800  0.19151400  0.19768300  1
  Zn  Zn1  1  0.97980800  0.30848600  0.80231700  1
  Zn  Zn2  1  0.52019200  0.80848600  0.80231700  1
  Zn  Zn3  1  0.02019200  0.69151400  0.19768300  1
  Sn  Sn0  1  0.38537200  0.74163200  0.25517600  1
  Sn  Sn1  1  0.88537200  0.75836800  0.74482400  1
  Sn  Sn2  1  0.61462800  0.25836800  0.74482400  1
  Sn  Sn3  1  0.11462800  0.24163200  0.25517600  1
  Ge  Ge0  1  0.67848000  0.70114100  0.06978000  1
  Ge  Ge1  1  0.17848000  0.79885900  0.93022000  1
  Ge  Ge2  1  0.32152000  0.29885900  0.93022000  1
  Ge  Ge3  1  0.82152000  0.20114100  0.06978000  1
  Ge  Ge4  1  0.65157400  0.64926600  0.49214400  1
  Ge  Ge5  1  0.15157400  0.85073400  0.50785600  1
  Ge  Ge6  1  0.34842600  0.35073400  0.50785600  1
  Ge  Ge7  1  0.84842600  0.14926600  0.49214400  1
  O  O0  1  0.72599500  0.94918600  0.43330100  1
  O  O1  1  0.22599500  0.55081400  0.56669900  1
  O  O2  1  0.27400500  0.05081400  0.56669900  1
  O  O3  1  0.77400500  0.44918600  0.43330100  1
  O  O4  1  0.67263900  0.00422200  0.12642900  1
  O  O5  1  0.17263900  0.49577800  0.87357100  1
  O  O6  1  0.32736100  0.99577800  0.87357100  1
  O  O7  1  0.82736100  0.50422200  0.12642900  1
  O  O8  1  0.02094800  0.20172900  0.43258800  1
  O  O9  1  0.52094800  0.29827100  0.56741200  1
  O  O10  1  0.97905200  0.79827100  0.56741200  1
  O  O11  1  0.47905200  0.70172900  0.43258800  1
  O  O12  1  0.96361100  0.03810500  0.14682600  1
  O  O13  1  0.46361100  0.46189500  0.85317400  1
  O  O14  1  0.03638900  0.96189500  0.85317400  1
  O  O15  1  0.53638900  0.53810500  0.14682600  1
  O  O16  1  0.69315800  0.76721000  0.90981600  1
  O  O17  1  0.19315800  0.73279000  0.09018400  1
  O  O18  1  0.30684200  0.23279000  0.09018400  1
  O  O19  1  0.80684200  0.26721000  0.90981600  1
  O  O20  1  0.66699900  0.63545900  0.66574300  1
  O  O21  1  0.16699900  0.86454100  0.33425700  1
  O  O22  1  0.33300100  0.36454100  0.33425700  1
  O  O23  1  0.83300100  0.13545900  0.66574300  1
loop_
_geom_bond_atom_site_label_1
_geom_bond_atom_site_label_2
_geom_bond_distance
_geom_bond_site_symmetry_2
Sn0 Zn0 2.612246 1_565
Sn1 Zn1 2.612246 1_555
Sn2 Zn2 2.612246 1_545
Sn3 Zn3 2.612246 1_555
Ge0 O16 1.728883 1_554
Ge0 O15 1.762637 1_555
Ge0 O7 1.830719 1_555
Ge0 O4 1.845925 1_565
Ge1 O17 1.728883 1_556
Ge1 O14 1.762637 1_555
Ge1 O6 1.830719 1_555
Ge1 O5 1.845925 1_555
Ge2 O18 1.728883 1_556
Ge2 O13 1.762637 1_555
Ge2 O5 1.830719 1_555
Ge2 O6 1.845925 1_545
Ge3 O19 1.728883 1_554
Ge3 O12 1.762637 1_555
Ge3 O4 1.830719 1_555
Ge3 O7 1.845925 1_555
Ge4 O11 1.768844 1_555
Ge4 O3 1.773706 1_555
Ge4 O0 1.819064 1_555
Ge4 O20 1.880019 1_555
Ge4 O9 2.336103 1_555
Ge5 O10 1.768844 1_455
Ge5 O2 1.773706 1_565
Ge5 O1 1.819064 1_555
Ge5 O21 1.880019 1_555
Ge5 O8 2.336103 1_565
Ge6 O9 1.768844 1_555
Ge6 O1 1.773706 1_555
Ge6 O2 1.819064 1_555
Ge6 O22 1.880019 1_555
Ge6 O11 2.336103 1_555
Ge7 O8 1.768844 1_655
Ge7 O0 1.773706 1_545
Ge7 O3 1.819064 1_555
Ge7 O23 1.880019 1_555
Ge7 O10 2.336103 1_545
O4 Zn0 2.282959 1_555
O5 Zn1 2.282959 1_455
O6 Zn2 2.282959 1_555
O7 Zn3 2.282959 1_655
O8 Sn3 2.103907 1_555
O9 Sn2 2.103907 1_555
O10 Sn1 2.103907 1_555
O11 Sn0 2.103907 1_555
O12 Zn3 1.974389 1_645
O12 Sn3 2.243404 1_655
O13 Zn2 1.974389 1_555
O13 Sn2 2.243404 1_555
O14 Zn1 1.974389 1_465
O14 Sn1 2.243404 1_455
O15 Zn0 1.974389 1_555
O15 Sn0 2.243404 1_555
O16 Zn2 2.008076 1_555
O16 Sn1 2.560509 1_555
O17 Zn3 2.008076 1_555
O17 Sn0 2.560509 1_555
O18 Zn0 2.008076 1_555
O18 Sn3 2.560509 1_555
O19 Zn1 2.008076 1_555
O19 Sn2 2.560509 1_555
O20 Sn2 2.179461 1_555
O20 Zn2 2.327157 1_555
O20 Sn1 2.374815 1_555
O21 Sn3 2.179461 1_565
O21 Zn3 2.327157 1_555
O21 Sn0 2.374815 1_555
O22 Sn0 2.179461 1_555
O22 Zn0 2.327157 1_555
O22 Sn3 2.374815 1_555
O23 Sn1 2.179461 1_545
O23 Zn1 2.327157 1_555
O23 Sn2 2.374815 1_555
