# generated using pymatgen
data_TlCd(NO2)3
_symmetry_space_group_name_H-M   'P 1'
_cell_length_a   5.49494314
_cell_length_b   5.49494314
_cell_length_c   5.49494336
_cell_angle_alpha   90.61278911
_cell_angle_beta   90.61278911
_cell_angle_gamma   90.61278798
_symmetry_Int_Tables_number   1
_chemical_formula_structural   TlCd(NO2)3
_chemical_formula_sum   'Tl1 Cd1 N3 O6'
_cell_volume   165.88784593
_cell_formula_units_Z   1
loop_
 _symmetry_equiv_pos_site_id
 _symmetry_equiv_pos_as_xyz
  1  'x, y, z'
loop_
 _atom_site_type_symbol
 _atom_site_label
 _atom_site_symmetry_multiplicity
 _atom_site_fract_x
 _atom_site_fract_y
 _atom_site_fract_z
 _atom_site_occupancy
  Tl  Tl0  1  0.38455400  0.38455400  0.38455400  1
  Cd  Cd0  1  0.89830600  0.89830600  0.89830600  1
  N  N0  1  0.44244600  0.88662800  0.83858800  1
  N  N1  1  0.88662800  0.83858800  0.44244600  1
  N  N2  1  0.83858800  0.44244600  0.88662800  1
  O  O0  1  0.68816200  0.83713400  0.32596600  1
  O  O1  1  0.32596600  0.68816200  0.83713400  1
  O  O2  1  0.84942400  0.31574400  0.07771500  1
  O  O3  1  0.07771500  0.84942400  0.31574400  1
  O  O4  1  0.31574400  0.07771500  0.84942400  1
  O  O5  1  0.83713400  0.32596600  0.68816200  1
loop_
_geom_bond_atom_site_label_1
_geom_bond_atom_site_label_2
_geom_bond_distance
_geom_bond_site_symmetry_2
Cd0 O2 2.505198 1_566
Cd0 O4 2.505198 1_665
Cd0 O3 2.505198 1_656
Cd0 N0 2.522890 1_555
Cd0 N2 2.522890 1_555
Cd0 N1 2.522890 1_555
Cd0 O1 2.652427 1_655
Cd0 O5 2.652427 1_565
Cd0 O0 2.652428 1_556
N0 O1 1.258500 1_555
N0 O4 1.267273 1_565
N1 O0 1.258500 1_555
N1 O3 1.267273 1_655
N2 O5 1.258500 1_555
N2 O2 1.267273 1_556
