# generated using pymatgen
data_CaLaMn2O6
_symmetry_space_group_name_H-M   'P 1'
_cell_length_a   5.53734447
_cell_length_b   7.59511666
_cell_length_c   5.59716236
_cell_angle_alpha   89.61227231
_cell_angle_beta   86.48988665
_cell_angle_gamma   89.51189896
_symmetry_Int_Tables_number   1
_chemical_formula_structural   CaLaMn2O6
_chemical_formula_sum   'Ca2 La2 Mn4 O12'
_cell_volume   234.94387877
_cell_formula_units_Z   2
loop_
 _symmetry_equiv_pos_site_id
 _symmetry_equiv_pos_as_xyz
  1  'x, y, z'
loop_
 _atom_site_type_symbol
 _atom_site_label
 _atom_site_symmetry_multiplicity
 _atom_site_fract_x
 _atom_site_fract_y
 _atom_site_fract_z
 _atom_site_occupancy
  Ca  Ca0  1  0.01013800  0.49856300  0.79532500  1
  Ca  Ca1  1  0.51745900  0.00002800  0.20319100  1
  La  La0  1  0.03312000  0.00023900  0.71542600  1
  La  La1  1  0.52506600  0.50035400  0.28592900  1
  Mn  Mn0  1  0.52413500  0.74984900  0.75017700  1
  Mn  Mn1  1  0.02273300  0.24912100  0.24919200  1
  Mn  Mn2  1  0.52371200  0.25119300  0.75103700  1
  Mn  Mn3  1  0.02109700  0.75027900  0.24962300  1
  O  O0  1  0.09564600  0.49854900  0.22536000  1
  O  O1  1  0.59743100  0.99895100  0.77036900  1
  O  O2  1  0.94129200  0.00063000  0.27142700  1
  O  O3  1  0.43891800  0.50195000  0.73455500  1
  O  O4  1  0.23306600  0.21105200  0.96311200  1
  O  O5  1  0.24061400  0.79185500  0.96506400  1
  O  O6  1  0.75525200  0.28587500  0.05207200  1
  O  O7  1  0.72088300  0.71088600  0.01662700  1
  O  O8  1  0.81276200  0.70576000  0.54225400  1
  O  O9  1  0.81533100  0.29343900  0.53772900  1
  O  O10  1  0.33405300  0.79279900  0.47892800  1
  O  O11  1  0.29309500  0.20862900  0.44260200  1
loop_
_geom_bond_atom_site_label_1
_geom_bond_atom_site_label_2
_geom_bond_distance
_geom_bond_site_symmetry_2
Ca0 O3 2.378172 1_555
Ca0 O8 2.409877 1_455
Ca0 O9 2.432918 1_455
Ca0 O0 2.481385 1_556
Ca0 O6 2.534898 1_456
Ca0 O7 2.537789 1_456
Ca0 O4 2.691191 1_555
Ca0 O5 2.778318 1_555
Ca1 O11 2.375010 1_555
Ca1 O10 2.386001 1_545
Ca1 O2 2.400799 1_555
Ca1 O1 2.435956 1_544
Ca1 O5 2.635598 1_544
Ca1 O7 2.650816 1_545
Ca1 O4 2.653566 1_554
Ca1 O6 2.655211 1_555
La0 O1 2.413426 1_445
La0 O5 2.431683 1_545
La0 O4 2.441236 1_555
La0 O2 2.566917 1_455
La0 O11 2.578029 1_555
La0 O10 2.593205 1_545
La0 O9 2.733820 1_455
La0 O8 2.766120 1_445
La1 O6 2.404324 1_555
La1 O7 2.408608 1_555
La1 O0 2.422519 1_555
La1 O3 2.527178 1_555
La1 O10 2.659273 1_555
La1 O11 2.685605 1_555
La1 O9 2.691437 1_555
La1 O8 2.717091 1_555
Mn0 O7 1.919936 1_556
Mn0 O10 1.924163 1_555
Mn0 O1 1.943862 1_555
Mn0 O5 1.943864 1_555
Mn0 O8 1.946598 1_555
Mn0 O3 1.948781 1_555
Mn1 O6 1.917778 1_455
Mn1 O11 1.921942 1_555
Mn1 O0 1.942345 1_555
Mn1 O4 1.943250 1_554
Mn1 O2 1.945579 1_455
Mn1 O9 1.952972 1_455
Mn2 O1 1.959066 1_545
Mn2 O3 1.960585 1_555
Mn2 O4 1.965118 1_555
Mn2 O9 1.975735 1_555
Mn2 O6 2.197391 1_556
Mn2 O11 2.236093 1_555
Mn3 O2 1.951382 1_465
Mn3 O0 1.956396 1_555
Mn3 O5 1.968931 1_554
Mn3 O8 1.973748 1_455
Mn3 O7 2.198406 1_455
Mn3 O10 2.245473 1_555
