# generated using pymatgen
data_Sr3ZnCoO6
_symmetry_space_group_name_H-M   'P 1'
_cell_length_a   6.70763537
_cell_length_b   6.68671284
_cell_length_c   13.36374526
_cell_angle_alpha   92.85152208
_cell_angle_beta   92.68350396
_cell_angle_gamma   92.55254498
_symmetry_Int_Tables_number   1
_chemical_formula_structural   Sr3ZnCoO6
_chemical_formula_sum   'Sr12 Zn4 Co4 O24'
_cell_volume   597.33235588
_cell_formula_units_Z   4
loop_
 _symmetry_equiv_pos_site_id
 _symmetry_equiv_pos_as_xyz
  1  'x, y, z'
loop_
 _atom_site_type_symbol
 _atom_site_label
 _atom_site_symmetry_multiplicity
 _atom_site_fract_x
 _atom_site_fract_y
 _atom_site_fract_z
 _atom_site_occupancy
  Sr  Sr0  1  0.61412400  0.88593000  0.12496600  1
  Sr  Sr1  1  0.61696100  0.88268600  0.62482000  1
  Sr  Sr2  1  0.88516100  0.25325100  0.30988700  1
  Sr  Sr3  1  0.88473500  0.24854200  0.80625600  1
  Sr  Sr4  1  0.25159300  0.61528600  0.44372600  1
  Sr  Sr5  1  0.24720700  0.61525400  0.94013500  1
  Sr  Sr6  1  0.11390600  0.75318300  0.19208400  1
  Sr  Sr7  1  0.11602800  0.74496200  0.69170000  1
  Sr  Sr8  1  0.74651700  0.38605600  0.05791200  1
  Sr  Sr9  1  0.75477200  0.38367600  0.55827000  1
  Sr  Sr10  1  0.38615300  0.11738800  0.37758500  1
  Sr  Sr11  1  0.38254000  0.11423600  0.87265500  1
  Zn  Zn0  1  0.24611100  0.25372900  0.12507200  1
  Zn  Zn1  1  0.25101800  0.24902000  0.62498600  1
  Zn  Zn2  1  0.74948800  0.74586900  0.37829600  1
  Zn  Zn3  1  0.75373400  0.75106800  0.87160500  1
  Co  Co0  1  0.50216300  0.49853300  0.75008500  1
  Co  Co1  1  0.00153100  0.99781300  0.49987900  1
  Co  Co2  1  0.49838600  0.50162900  0.25025600  1
  Co  Co3  1  0.99826800  0.00166100  0.99981100  1
  O  O0  1  0.53871700  0.22711500  0.20768400  1
  O  O1  1  0.54348400  0.21971300  0.70575300  1
  O  O2  1  0.22345500  0.41658200  0.26949500  1
  O  O3  1  0.21242100  0.40540200  0.77038500  1
  O  O4  1  0.41036200  0.54376800  0.10421700  1
  O  O5  1  0.41781700  0.54068200  0.61524800  1
  O  O6  1  0.04482100  0.91544800  0.36467000  1
  O  O7  1  0.04193600  0.91237500  0.85557400  1
  O  O8  1  0.91190700  0.72466400  0.01969700  1
  O  O9  1  0.91240000  0.71243200  0.52033800  1
  O  O10  1  0.72104400  0.03793900  0.45434200  1
  O  O11  1  0.72341200  0.04263200  0.95791600  1
  O  O12  1  0.45610400  0.77526500  0.29153100  1
  O  O13  1  0.46111600  0.77813000  0.79493500  1
  O  O14  1  0.77615600  0.58958600  0.23046300  1
  O  O15  1  0.78788800  0.58816400  0.72968300  1
  O  O16  1  0.58746000  0.45893300  0.39468100  1
  O  O17  1  0.58446200  0.45643900  0.88564500  1
  O  O18  1  0.95503700  0.08976200  0.14549900  1
  O  O19  1  0.95828100  0.08225700  0.63444500  1
  O  O20  1  0.09408800  0.28698300  0.47962600  1
  O  O21  1  0.08191200  0.27596700  0.98031400  1
  O  O22  1  0.27419400  0.96293600  0.04308200  1
  O  O23  1  0.28113100  0.95705300  0.54479000  1
loop_
_geom_bond_atom_site_label_1
_geom_bond_atom_site_label_2
_geom_bond_distance
_geom_bond_site_symmetry_2
Co0 O5 1.901508 1_555
Co0 O17 1.907027 1_555
Co0 O1 1.963482 1_555
Co0 O13 1.969823 1_555
Co0 O15 2.017310 1_555
Co0 O3 2.048635 1_555
Co1 O19 1.897184 1_465
Co1 O6 1.901811 1_555
Co1 O23 1.976926 1_555
Co1 O10 1.983936 1_465
Co1 O9 2.009787 1_455
Co1 O20 2.039208 1_565
Co2 O12 1.921727 1_555
Co2 O0 1.928991 1_555
Co2 O2 1.938009 1_555
Co2 O14 1.962482 1_555
Co2 O16 2.031170 1_555
Co2 O4 2.049022 1_555
Co3 O21 1.927837 1_655
Co3 O11 1.936775 1_555
Co3 O22 1.945330 1_646
Co3 O8 1.950551 1_546
Co3 O7 2.027713 1_645
Co3 O18 2.043444 1_556
O0 Zn0 2.224956 1_555
O0 Sr0 2.566481 1_545
O0 Sr2 2.634200 1_555
O0 Sr10 2.656547 1_555
O0 Sr8 2.723845 1_555
O1 Zn1 2.215604 1_555
O1 Sr1 2.529378 1_545
O1 Sr3 2.593761 1_555
O1 Sr11 2.636643 1_555
O1 Sr9 2.726410 1_555
O2 Zn0 2.183352 1_555
O2 Sr2 2.566285 1_455
O2 Sr4 2.617453 1_555
O2 Sr6 2.642696 1_555
O2 Sr10 2.759422 1_555
O3 Zn1 2.192048 1_555
O3 Sr3 2.470724 1_455
O3 Sr5 2.602710 1_555
O3 Sr7 2.642681 1_555
O3 Sr11 2.697626 1_555
O4 Zn0 2.223738 1_555
O4 Sr5 2.482035 1_554
O4 Sr0 2.608150 1_555
O4 Sr8 2.618534 1_555
O4 Sr6 2.756252 1_555
O5 Zn1 2.217376 1_555
O5 Sr4 2.582651 1_555
O5 Sr1 2.591007 1_555
O5 Sr9 2.661451 1_555
O5 Sr7 2.703431 1_555
O6 Zn2 2.257763 1_455
O6 Sr6 2.570474 1_555
O6 Sr10 2.599909 1_565
O6 Sr2 2.663009 1_465
O6 Sr4 2.718447 1_555
O7 Zn3 2.196004 1_455
O7 Sr7 2.490715 1_555
O7 Sr11 2.596050 1_565
O7 Sr3 2.625362 1_465
O7 Sr5 2.727892 1_555
O8 Zn3 2.219989 1_554
O8 Sr8 2.561714 1_555
O8 Sr6 2.611591 1_655
O8 Sr5 2.648985 1_654
O8 Sr0 2.726827 1_555
O9 Zn2 2.171882 1_555
O9 Sr9 2.482219 1_555
O9 Sr7 2.605428 1_655
O9 Sr4 2.632532 1_655
O9 Sr1 2.733976 1_555
O10 Zn2 2.176515 1_545
O10 Sr10 2.514986 1_555
O10 Sr9 2.632353 1_555
O10 Sr1 2.659913 1_545
O10 Sr2 2.710294 1_555
O11 Zn3 2.237474 1_545
O11 Sr11 2.581311 1_555
O11 Sr8 2.593590 1_556
O11 Sr0 2.633732 1_546
O11 Sr3 2.743114 1_555
O12 Zn2 2.258149 1_555
O12 Sr10 2.580797 1_565
O12 Sr6 2.592534 1_555
O12 Sr0 2.634535 1_555
O12 Sr4 2.740416 1_555
O13 Zn3 2.190161 1_555
O13 Sr11 2.516360 1_565
O13 Sr7 2.633488 1_555
O13 Sr1 2.658072 1_555
O13 Sr5 2.709587 1_555
O14 Zn2 2.207124 1_555
O14 Sr6 2.556583 1_655
O14 Sr8 2.613376 1_555
O14 Sr2 2.651484 1_555
O14 Sr0 2.724298 1_555
O15 Zn3 2.166455 1_555
O15 Sr7 2.480632 1_655
O15 Sr9 2.603853 1_555
O15 Sr3 2.631873 1_555
O15 Sr1 2.735334 1_555
O16 Zn2 2.188317 1_555
O16 Sr9 2.494403 1_555
O16 Sr10 2.595345 1_555
O16 Sr4 2.622584 1_555
O16 Sr2 2.732132 1_555
O17 Zn3 2.250144 1_555
O17 Sr8 2.573312 1_556
O17 Sr11 2.600561 1_555
O17 Sr5 2.658338 1_555
O17 Sr3 2.723512 1_555
O18 Zn0 2.231046 1_655
O18 Sr2 2.478707 1_555
O18 Sr0 2.605472 1_545
O18 Sr6 2.622839 1_645
O18 Sr8 2.752433 1_555
O19 Zn1 2.226494 1_655
O19 Sr3 2.579222 1_555
O19 Sr1 2.592713 1_545
O19 Sr7 2.664638 1_645
O19 Sr9 2.698337 1_555
O20 Zn1 2.197129 1_555
O20 Sr4 2.472085 1_555
O20 Sr2 2.604515 1_455
O20 Sr9 2.643909 1_455
O20 Sr10 2.697718 1_555
O21 Zn0 2.195721 1_556
O21 Sr5 2.572464 1_555
O21 Sr3 2.615597 1_455
O21 Sr8 2.639783 1_456
O21 Sr11 2.759864 1_555
O22 Zn0 2.203834 1_565
O22 Sr0 2.566819 1_555
O22 Sr5 2.636545 1_554
O22 Sr11 2.656624 1_564
O22 Sr6 2.726192 1_555
O23 Zn1 2.201834 1_565
O23 Sr1 2.528345 1_555
O23 Sr4 2.591035 1_555
O23 Sr10 2.637627 1_565
O23 Sr7 2.726327 1_555
