# generated using pymatgen
data_Ho2Al3Co14
_symmetry_space_group_name_H-M   'P 1'
_cell_length_a   8.34168389
_cell_length_b   8.34168389
_cell_length_c   8.14831100
_cell_angle_alpha   90.00000000
_cell_angle_beta   90.00000000
_cell_angle_gamma   119.97030251
_symmetry_Int_Tables_number   1
_chemical_formula_structural   Ho2Al3Co14
_chemical_formula_sum   'Ho4 Al6 Co28'
_cell_volume   491.17422628
_cell_formula_units_Z   2
loop_
 _symmetry_equiv_pos_site_id
 _symmetry_equiv_pos_as_xyz
  1  'x, y, z'
loop_
 _atom_site_type_symbol
 _atom_site_label
 _atom_site_symmetry_multiplicity
 _atom_site_fract_x
 _atom_site_fract_y
 _atom_site_fract_z
 _atom_site_occupancy
  Ho  Ho0  1  0.99992100  0.00007900  0.75000000  1
  Ho  Ho1  1  0.00007900  0.99992100  0.25000000  1
  Ho  Ho2  1  0.66671800  0.33328200  0.25000000  1
  Ho  Ho3  1  0.33328200  0.66671800  0.75000000  1
  Al  Al0  1  0.50000000  0.00000000  0.50000000  1
  Al  Al1  1  0.50000000  0.50000000  0.50000000  1
  Al  Al2  1  0.00000000  0.50000000  0.50000000  1
  Al  Al3  1  0.50000000  0.00000000  0.00000000  1
  Al  Al4  1  0.50000000  0.50000000  0.00000000  1
  Al  Al5  1  0.00000000  0.50000000  0.00000000  1
  Co  Co0  1  0.66675700  0.33324300  0.61009500  1
  Co  Co1  1  0.33324300  0.66675700  0.38990500  1
  Co  Co2  1  0.33324300  0.66675700  0.11009500  1
  Co  Co3  1  0.66675700  0.33324300  0.88990500  1
  Co  Co4  1  0.67347500  0.04460600  0.75000000  1
  Co  Co5  1  0.37114100  0.32655700  0.75000000  1
  Co  Co6  1  0.95564700  0.62886600  0.75000000  1
  Co  Co7  1  0.37113400  0.04435300  0.75000000  1
  Co  Co8  1  0.95539400  0.32652500  0.75000000  1
  Co  Co9  1  0.67344300  0.62885900  0.75000000  1
  Co  Co10  1  0.32652500  0.95539400  0.25000000  1
  Co  Co11  1  0.62885900  0.67344300  0.25000000  1
  Co  Co12  1  0.04435300  0.37113400  0.25000000  1
  Co  Co13  1  0.62886600  0.95564700  0.25000000  1
  Co  Co14  1  0.04460600  0.67347500  0.25000000  1
  Co  Co15  1  0.32655700  0.37114100  0.25000000  1
  Co  Co16  1  0.83755400  0.67498700  0.48517000  1
  Co  Co17  1  0.83748000  0.16252000  0.48524900  1
  Co  Co18  1  0.32501300  0.16244600  0.48517000  1
  Co  Co19  1  0.16244600  0.32501300  0.51483000  1
  Co  Co20  1  0.16252000  0.83748000  0.51475100  1
  Co  Co21  1  0.67498700  0.83755400  0.51483000  1
  Co  Co22  1  0.16244600  0.32501300  0.98517000  1
  Co  Co23  1  0.16252000  0.83748000  0.98524900  1
  Co  Co24  1  0.67498700  0.83755400  0.98517000  1
  Co  Co25  1  0.83755400  0.67498700  0.01483000  1
  Co  Co26  1  0.83748000  0.16252000  0.01475100  1
  Co  Co27  1  0.32501300  0.16244600  0.01483000  1
loop_
_geom_bond_atom_site_label_1
_geom_bond_atom_site_label_2
_geom_bond_distance
_geom_bond_site_symmetry_2
Al0 Co7 2.416498 1_555
Al0 Co13 2.416498 1_545
Al0 Co10 2.417478 1_545
Al0 Co4 2.417478 1_555
Al0 Co21 2.440843 1_545
Al0 Co18 2.440843 1_555
Al0 Co17 2.442207 1_555
Al0 Co20 2.442207 1_545
Al0 Co1 2.569774 1_545
Al0 Co0 2.569774 1_555
Al0 Ho3 3.154364 1_545
Al0 Ho2 3.154364 1_555
Al1 Co15 2.417555 1_555
Al1 Co9 2.417555 1_555
Al1 Co5 2.417555 1_555
Al1 Co11 2.417555 1_555
Al1 Co19 2.442824 1_555
Al1 Co16 2.442824 1_555
Al1 Co18 2.442824 1_555
Al1 Co21 2.442824 1_555
Al1 Co1 2.570595 1_555
Al1 Co0 2.570595 1_555
Al1 Ho2 3.154388 1_555
Al1 Ho3 3.154388 1_555
Al2 Co6 2.416498 1_455
Al2 Co12 2.416498 1_555
Al2 Co8 2.417478 1_455
Al2 Co14 2.417478 1_555
Al2 Co16 2.440843 1_455
Al2 Co19 2.440843 1_555
Al2 Co17 2.442207 1_455
Al2 Co20 2.442207 1_555
Al2 Co0 2.569774 1_455
Al2 Co1 2.569774 1_555
Al2 Ho3 3.154364 1_555
Al2 Ho2 3.154364 1_455
Al3 Co7 2.416498 1_554
Al3 Co13 2.416498 1_545
Al3 Co10 2.417478 1_545
Al3 Co4 2.417478 1_554
Al3 Co24 2.440843 1_544
Al3 Co27 2.440843 1_555
Al3 Co23 2.442207 1_544
Al3 Co26 2.442207 1_555
Al3 Co2 2.569774 1_545
Al3 Co3 2.569774 1_554
Al3 Ho3 3.154364 1_544
Al3 Ho2 3.154364 1_555
Al4 Co15 2.417555 1_555
Al4 Co5 2.417555 1_554
Al4 Co11 2.417555 1_555
Al4 Co9 2.417555 1_554
Al4 Co22 2.442824 1_554
Al4 Co27 2.442824 1_555
Al4 Co24 2.442824 1_554
Al4 Co25 2.442824 1_555
Al4 Co3 2.570595 1_554
Al4 Co2 2.570595 1_555
Al4 Ho2 3.154388 1_555
Al4 Ho3 3.154388 1_554
Al5 Co12 2.416498 1_555
Al5 Co6 2.416498 1_454
Al5 Co8 2.417478 1_454
Al5 Co14 2.417478 1_555
Al5 Co22 2.440843 1_554
Al5 Co25 2.440843 1_455
Al5 Co26 2.442207 1_455
Al5 Co23 2.442207 1_554
Al5 Co3 2.569774 1_454
Al5 Co2 2.569774 1_555
Al5 Ho3 3.154364 1_554
Al5 Ho2 3.154364 1_455
Co0 Co3 2.279979 1_555
Co0 Co17 2.667841 1_555
Co0 Co16 2.671101 1_555
Co0 Co18 2.671101 1_555
Co0 Co8 2.689727 1_555
Co0 Co4 2.689727 1_555
Co0 Co9 2.691861 1_555
Co0 Co5 2.691861 1_555
Co0 Co6 2.692710 1_555
Co0 Co7 2.692710 1_555
Co0 Ho2 2.934166 1_555
Co1 Co2 2.279979 1_555
Co1 Co20 2.667841 1_555
Co1 Co21 2.671101 1_555
Co1 Co19 2.671101 1_555
Co1 Co10 2.689727 1_555
Co1 Co14 2.689727 1_555
Co1 Co11 2.691861 1_555
Co1 Co15 2.691861 1_555
Co1 Co13 2.692710 1_555
Co1 Co12 2.692710 1_555
Co1 Ho3 2.934166 1_555
Co2 Co23 2.667841 1_554
Co2 Co24 2.671101 1_554
Co2 Co22 2.671101 1_554
Co2 Ho3 2.934166 1_554
Co3 Co8 2.689727 1_555
Co3 Co4 2.689727 1_555
Co3 Co9 2.691861 1_555
Co3 Co5 2.691861 1_555
Co3 Co6 2.692710 1_555
Co3 Co7 2.692710 1_555
Co3 Ho2 2.934166 1_556
Co4 Co8 2.352735 1_555
Co4 Co7 2.520979 1_555
Co4 Ho0 2.926401 1_555
Co4 Ho3 3.008692 1_545
Co5 Co7 2.354027 1_555
Co5 Co9 2.522840 1_555
Co5 Ho0 2.929176 1_455
Co5 Ho3 3.007746 1_555
Co6 Co9 2.354027 1_555
Co6 Co8 2.520979 1_555
Co6 Ho0 2.929570 1_565
Co6 Ho3 3.004854 1_655
Co7 Ho0 2.929570 1_455
Co7 Ho3 3.004854 1_545
Co8 Ho0 2.926401 1_555
Co8 Ho3 3.008692 1_655
Co9 Ho0 2.929176 1_565
Co9 Ho3 3.007746 1_555
Co10 Co14 2.352735 1_555
Co10 Co23 2.479617 1_554
Co10 Co20 2.479617 1_555
Co10 Co13 2.520979 1_555
Co10 Co18 2.583986 1_565
Co10 Co27 2.583986 1_565
Co10 Co2 2.689727 1_555
Co10 Ho1 2.926401 1_555
Co10 Ho2 3.008692 1_565
Co11 Co13 2.354027 1_555
Co11 Co21 2.480411 1_555
Co11 Co24 2.480411 1_554
Co11 Co15 2.522840 1_555
Co11 Co25 2.584638 1_555
Co11 Co16 2.584638 1_555
Co11 Co2 2.691861 1_555
Co11 Ho1 2.929176 1_655
Co11 Ho2 3.007746 1_555
Co12 Co15 2.354027 1_555
Co12 Co19 2.480662 1_555
Co12 Co22 2.480662 1_554
Co12 Co14 2.520979 1_555
Co12 Co26 2.584635 1_455
Co12 Co17 2.584635 1_455
Co12 Co2 2.692710 1_555
Co12 Ho1 2.929570 1_545
Co12 Ho2 3.004854 1_455
Co13 Co24 2.480662 1_554
Co13 Co21 2.480662 1_555
Co13 Co17 2.584635 1_565
Co13 Co26 2.584635 1_565
Co13 Co2 2.692710 1_555
Co13 Ho1 2.929570 1_655
Co13 Ho2 3.004854 1_565
Co14 Co23 2.479617 1_554
Co14 Co20 2.479617 1_555
Co14 Co16 2.583986 1_455
Co14 Co25 2.583986 1_455
Co14 Co2 2.689727 1_555
Co14 Ho1 2.926401 1_555
Co14 Ho2 3.008692 1_455
Co15 Co19 2.480411 1_555
Co15 Co22 2.480411 1_554
Co15 Co27 2.584638 1_555
Co15 Co18 2.584638 1_555
Co15 Co2 2.691861 1_555
Co15 Ho1 2.929176 1_545
Co15 Ho2 3.007746 1_555
Co16 Co20 2.360631 1_655
Co16 Co21 2.360855 1_555
Co16 Co9 2.480411 1_555
Co16 Co6 2.480662 1_555
Co16 Ho1 3.030736 1_655
Co16 Ho2 3.125569 1_555
Co16 Ho0 3.189884 1_565
Co17 Co21 2.360631 1_545
Co17 Co19 2.360631 1_655
Co17 Co4 2.479617 1_555
Co17 Co8 2.479617 1_555
Co17 Ho1 3.031804 1_645
Co17 Ho2 3.124056 1_555
Co17 Ho0 3.187556 1_555
Co18 Co20 2.360631 1_545
Co18 Co19 2.360855 1_555
Co18 Co5 2.480411 1_555
Co18 Co7 2.480662 1_555
Co18 Ho1 3.030736 1_545
Co18 Ho2 3.125569 1_555
Co18 Ho0 3.189884 1_455
Co19 Co8 2.583986 1_455
Co19 Co5 2.584638 1_555
Co19 Ho0 3.030736 1_455
Co19 Ho3 3.125569 1_555
Co19 Ho1 3.189884 1_545
Co20 Co6 2.584635 1_455
Co20 Co7 2.584635 1_565
Co20 Ho0 3.031804 1_465
Co20 Ho3 3.124056 1_555
Co20 Ho1 3.187556 1_555
Co21 Co4 2.583986 1_565
Co21 Co9 2.584638 1_555
Co21 Ho0 3.030736 1_565
Co21 Ho3 3.125569 1_555
Co21 Ho1 3.189884 1_655
Co22 Co26 2.360631 1_456
Co22 Co27 2.360855 1_556
Co22 Co8 2.583986 1_455
Co22 Co5 2.584638 1_555
Co22 Ho0 3.030736 1_455
Co22 Ho3 3.125569 1_555
Co22 Ho1 3.189884 1_546
Co23 Co25 2.360631 1_456
Co23 Co27 2.360631 1_566
Co23 Co6 2.584635 1_455
Co23 Co7 2.584635 1_565
Co23 Ho0 3.031804 1_465
Co23 Ho3 3.124056 1_555
Co23 Ho1 3.187556 1_556
Co24 Co26 2.360631 1_566
Co24 Co25 2.360855 1_556
Co24 Co4 2.583986 1_565
Co24 Co9 2.584638 1_555
Co24 Ho0 3.030736 1_565
Co24 Ho3 3.125569 1_555
Co24 Ho1 3.189884 1_656
Co25 Co9 2.480411 1_554
Co25 Co6 2.480662 1_554
Co25 Co3 2.671101 1_554
Co25 Ho1 3.030736 1_655
Co25 Ho2 3.125569 1_555
Co25 Ho0 3.189884 1_564
Co26 Co4 2.479617 1_554
Co26 Co8 2.479617 1_554
Co26 Co3 2.667841 1_554
Co26 Ho1 3.031804 1_645
Co26 Ho2 3.124056 1_555
Co26 Ho0 3.187556 1_554
Co27 Co5 2.480411 1_554
Co27 Co7 2.480662 1_554
Co27 Co3 2.671101 1_554
Co27 Ho1 3.030736 1_545
Co27 Ho2 3.125569 1_555
Co27 Ho0 3.189884 1_454
