# generated using pymatgen
data_Na2Al2B2O7
_symmetry_space_group_name_H-M   'P 1'
_cell_length_a   4.86489178
_cell_length_b   4.86489178
_cell_length_c   15.57485080
_cell_angle_alpha   89.95648119
_cell_angle_beta   89.95648119
_cell_angle_gamma   119.67475956
_symmetry_Int_Tables_number   1
_chemical_formula_structural   Na2Al2B2O7
_chemical_formula_sum   'Na4 Al4 B4 O14'
_cell_volume   320.26864263
_cell_formula_units_Z   2
loop_
 _symmetry_equiv_pos_site_id
 _symmetry_equiv_pos_as_xyz
  1  'x, y, z'
loop_
 _atom_site_type_symbol
 _atom_site_label
 _atom_site_symmetry_multiplicity
 _atom_site_fract_x
 _atom_site_fract_y
 _atom_site_fract_z
 _atom_site_occupancy
  Na  Na0  1  0.99819700  0.99891600  0.50001100  1
  Na  Na1  1  0.99891600  0.99819700  0.00001100  1
  Na  Na2  1  0.00412100  0.00753900  0.25000300  1
  Na  Na3  1  0.00753900  0.00412100  0.75000300  1
  Al  Al0  1  0.32238700  0.66100300  0.86111400  1
  Al  Al1  1  0.66100300  0.32238700  0.36111400  1
  Al  Al2  1  0.66292600  0.32302500  0.13889200  1
  Al  Al3  1  0.32302500  0.66292600  0.63889200  1
  B  B0  1  0.33171100  0.66393100  0.39586500  1
  B  B1  1  0.66393100  0.33171100  0.89586500  1
  B  B2  1  0.66354500  0.33118300  0.60414100  1
  B  B3  1  0.33118300  0.66354500  0.10414100  1
  O  O0  1  0.64594400  0.29060000  0.25000500  1
  O  O1  1  0.29060000  0.64594400  0.75000500  1
  O  O2  1  0.39196200  0.35467700  0.60543200  1
  O  O3  1  0.64154000  0.03662200  0.60807300  1
  O  O4  1  0.95664800  0.60142100  0.59881400  1
  O  O5  1  0.03662200  0.64154000  0.10807300  1
  O  O6  1  0.35467700  0.39196200  0.10543200  1
  O  O7  1  0.60142100  0.95664800  0.09881400  1
  O  O8  1  0.60376200  0.64073500  0.39226100  1
  O  O9  1  0.35467600  0.95798100  0.40125000  1
  O  O10  1  0.03826400  0.39270600  0.39414000  1
  O  O11  1  0.95798100  0.35467600  0.90125000  1
  O  O12  1  0.64073500  0.60376200  0.89226100  1
  O  O13  1  0.39270600  0.03826400  0.89414000  1
loop_
_geom_bond_atom_site_label_1
_geom_bond_atom_site_label_2
_geom_bond_distance
_geom_bond_site_symmetry_2
Na0 O9 2.398252 1_655
Na0 O4 2.399237 1_555
Na0 O10 2.460081 1_665
Na0 O2 2.467238 1_665
Na0 O3 2.487578 1_565
Na0 O8 2.496672 1_555
Na1 O11 2.398252 1_564
Na1 O7 2.399237 1_555
Na1 O13 2.460081 1_664
Na1 O6 2.467238 1_665
Na1 O5 2.487578 1_655
Na1 O12 2.496672 1_554
Na2 O0 2.703417 1_455
Na2 O0 2.718140 1_555
Na2 O10 2.876997 1_555
Na2 O6 2.881975 1_555
Na2 O5 2.892409 1_545
Na2 O8 2.903964 1_445
Na2 O9 2.987975 1_545
Na2 O7 2.995297 1_445
Na2 O0 3.030441 1_445
Na3 O1 2.703417 1_545
Na3 O1 2.718140 1_555
Na3 O13 2.876997 1_555
Na3 O2 2.881975 1_555
Na3 O3 2.892409 1_455
Na3 O12 2.903964 1_445
Na3 O11 2.987975 1_455
Na3 O4 2.995297 1_445
Na3 O1 3.030441 1_445
Al0 O1 1.735890 1_555
Al0 O13 1.769206 1_565
Al0 O11 1.770712 1_455
Al0 O12 1.771836 1_555
Al1 O0 1.735890 1_555
Al1 O10 1.769206 1_655
Al1 O9 1.770712 1_545
Al1 O8 1.771836 1_555
Al2 O0 1.735811 1_555
Al2 O7 1.769172 1_545
Al2 O6 1.769672 1_555
Al2 O5 1.773360 1_655
Al3 O1 1.735811 1_555
Al3 O4 1.769172 1_455
Al3 O2 1.769672 1_555
Al3 O3 1.773360 1_565
B0 O9 1.381252 1_555
B0 O10 1.383743 1_555
B0 O8 1.383948 1_555
B1 O11 1.381252 1_555
B1 O13 1.383743 1_555
B1 O12 1.383948 1_555
B2 O2 1.381514 1_555
B2 O4 1.382748 1_555
B2 O3 1.384443 1_555
B3 O6 1.381514 1_555
B3 O7 1.382748 1_555
B3 O5 1.384443 1_555
