# generated using pymatgen
data_LiCr2(PO4)3
_symmetry_space_group_name_H-M   'P 1'
_cell_length_a   8.54567400
_cell_length_b   8.52395500
_cell_length_c   12.11719960
_cell_angle_alpha   89.87335263
_cell_angle_beta   90.00000000
_cell_angle_gamma   90.00000000
_symmetry_Int_Tables_number   1
_chemical_formula_structural   LiCr2(PO4)3
_chemical_formula_sum   'Li4 Cr8 P12 O48'
_cell_volume   882.65029480
_cell_formula_units_Z   4
loop_
 _symmetry_equiv_pos_site_id
 _symmetry_equiv_pos_as_xyz
  1  'x, y, z'
loop_
 _atom_site_type_symbol
 _atom_site_label
 _atom_site_symmetry_multiplicity
 _atom_site_fract_x
 _atom_site_fract_y
 _atom_site_fract_z
 _atom_site_occupancy
  Li  Li0  1  0.50000000  0.50000000  0.50000000  1
  Li  Li1  1  0.00000000  0.00000000  0.00000000  1
  Li  Li2  1  0.00000000  0.00000000  0.50000000  1
  Li  Li3  1  0.50000000  0.50000000  0.00000000  1
  Cr  Cr0  1  0.00314800  0.28006900  0.36017300  1
  Cr  Cr1  1  0.99685200  0.28006900  0.86017300  1
  Cr  Cr2  1  0.49719000  0.77923200  0.85605600  1
  Cr  Cr3  1  0.00314800  0.71993100  0.13982700  1
  Cr  Cr4  1  0.50281000  0.77923200  0.35605600  1
  Cr  Cr5  1  0.49719000  0.22076800  0.64394400  1
  Cr  Cr6  1  0.99685200  0.71993100  0.63982700  1
  Cr  Cr7  1  0.50281000  0.22076800  0.14394400  1
  P  P0  1  0.79448400  0.00000000  0.25000000  1
  P  P1  1  0.35843900  0.14905400  0.39384500  1
  P  P2  1  0.85479400  0.64706500  0.89535200  1
  P  P3  1  0.35843900  0.85094600  0.10615500  1
  P  P4  1  0.64156100  0.14905400  0.89384500  1
  P  P5  1  0.20551600  0.00000000  0.75000000  1
  P  P6  1  0.14520600  0.64706500  0.39535200  1
  P  P7  1  0.28771900  0.50000000  0.75000000  1
  P  P8  1  0.85479400  0.35293500  0.60464800  1
  P  P9  1  0.71228100  0.50000000  0.25000000  1
  P  P10  1  0.14520600  0.35293500  0.10464800  1
  P  P11  1  0.64156100  0.85094600  0.60615500  1
  O  O0  1  0.42414600  0.24828600  0.49034900  1
  O  O1  1  0.09940000  0.07211400  0.84044500  1
  O  O2  1  0.39646800  0.42626100  0.66157100  1
  O  O3  1  0.41303600  0.97869500  0.39613800  1
  O  O4  1  0.10267900  0.47301000  0.40701100  1
  O  O5  1  0.60353200  0.57373900  0.33842900  1
  O  O6  1  0.57585400  0.24828600  0.99034900  1
  O  O7  1  0.17766000  0.14621600  0.40966500  1
  O  O8  1  0.18910800  0.62074000  0.68651700  1
  O  O9  1  0.39646800  0.57373900  0.83842900  1
  O  O10  1  0.89732100  0.52699000  0.59298900  1
  O  O11  1  0.30393400  0.12711000  0.69266200  1
  O  O12  1  0.82234000  0.14621600  0.90966500  1
  O  O13  1  0.58696400  0.02130500  0.60386200  1
  O  O14  1  0.06976400  0.75052200  0.48643700  1
  O  O15  1  0.67476700  0.34430200  0.58653000  1
  O  O16  1  0.06976400  0.24947800  0.01356300  1
  O  O17  1  0.30393400  0.87289000  0.80733800  1
  O  O18  1  0.32523300  0.34430200  0.08653000  1
  O  O19  1  0.67476700  0.65569800  0.91347000  1
  O  O20  1  0.89732100  0.47301000  0.90701100  1
  O  O21  1  0.09427000  0.27985400  0.21442600  1
  O  O22  1  0.59194600  0.76350000  0.71153900  1
  O  O23  1  0.41303600  0.02130500  0.10386200  1
  O  O24  1  0.90573000  0.72014600  0.78557400  1
  O  O25  1  0.90060000  0.07211400  0.34044500  1
  O  O26  1  0.93023600  0.75052200  0.98643700  1
  O  O27  1  0.90573000  0.27985400  0.71442600  1
  O  O28  1  0.82234000  0.85378400  0.59033500  1
  O  O29  1  0.81089200  0.62074000  0.18651700  1
  O  O30  1  0.57585400  0.75171400  0.50965100  1
  O  O31  1  0.93023600  0.24947800  0.51356300  1
  O  O32  1  0.32523300  0.65569800  0.41347000  1
  O  O33  1  0.40805400  0.76350000  0.21153900  1
  O  O34  1  0.69606600  0.12711000  0.19266200  1
  O  O35  1  0.17766000  0.85378400  0.09033500  1
  O  O36  1  0.60353200  0.42626100  0.16157100  1
  O  O37  1  0.58696400  0.97869500  0.89613800  1
  O  O38  1  0.10267900  0.52699000  0.09298900  1
  O  O39  1  0.09940000  0.92788600  0.65955500  1
  O  O40  1  0.09427000  0.72014600  0.28557400  1
  O  O41  1  0.18910800  0.37926000  0.81348300  1
  O  O42  1  0.40805400  0.23650000  0.28846100  1
  O  O43  1  0.69606600  0.87289000  0.30733800  1
  O  O44  1  0.59194600  0.23650000  0.78846100  1
  O  O45  1  0.42414600  0.75171400  0.00965100  1
  O  O46  1  0.90060000  0.92788600  0.15955500  1
  O  O47  1  0.81089200  0.37926000  0.31348300  1
loop_
_geom_bond_atom_site_label_1
_geom_bond_atom_site_label_2
_geom_bond_distance
_geom_bond_site_symmetry_2
Li0 O2 2.237264 1_555
Li0 O5 2.237264 1_555
Li0 O0 2.244677 1_555
Li0 O30 2.244677 1_555
Li0 O15 2.255019 1_555
Li0 O32 2.255019 1_555
Li1 O46 2.198187 1_445
Li1 O1 2.198187 1_554
Li1 O16 2.214984 1_555
Li1 O26 2.214984 1_444
Li1 O35 2.247332 1_545
Li1 O12 2.247332 1_454
Li2 O25 2.198187 1_455
Li2 O39 2.198187 1_545
Li2 O14 2.214984 1_545
Li2 O31 2.214984 1_455
Li2 O7 2.247332 1_555
Li2 O28 2.247332 1_445
Li3 O36 2.237264 1_555
Li3 O9 2.237264 1_554
Li3 O6 2.244677 1_554
Li3 O45 2.244677 1_555
Li3 O19 2.255019 1_554
Li3 O18 2.255019 1_555
Cr0 O21 1.930105 1_555
Cr0 O47 1.931874 1_455
Cr0 O4 1.937643 1_555
Cr0 O7 1.970392 1_555
Cr0 O31 1.977041 1_455
Cr0 O25 1.992260 1_455
Cr1 O27 1.930105 1_555
Cr1 O41 1.931874 1_655
Cr1 O20 1.937643 1_555
Cr1 O12 1.970392 1_555
Cr1 O16 1.977041 1_656
Cr1 O1 1.992260 1_655
Cr2 O17 1.926448 1_555
Cr2 O37 1.928426 1_555
Cr2 O22 1.934223 1_555
Cr2 O9 1.963744 1_555
Cr2 O19 1.972920 1_555
Cr2 O45 1.976506 1_556
Cr3 O40 1.930105 1_555
Cr3 O29 1.931874 1_455
Cr3 O38 1.937643 1_555
Cr3 O35 1.970392 1_555
Cr3 O26 1.977041 1_454
Cr3 O46 1.992260 1_455
Cr4 O43 1.926448 1_555
Cr4 O3 1.928426 1_555
Cr4 O33 1.934223 1_555
Cr4 O5 1.963744 1_555
Cr4 O32 1.972920 1_555
Cr4 O30 1.976506 1_555
Cr5 O11 1.926448 1_555
Cr5 O13 1.928426 1_555
Cr5 O44 1.934223 1_555
Cr5 O2 1.963744 1_555
Cr5 O15 1.972920 1_555
Cr5 O0 1.976506 1_555
Cr6 O24 1.930105 1_555
Cr6 O8 1.931874 1_655
Cr6 O10 1.937643 1_555
Cr6 O28 1.970392 1_555
Cr6 O14 1.977041 1_655
Cr6 O39 1.992260 1_655
Cr7 O34 1.926448 1_555
Cr7 O23 1.928426 1_555
Cr7 O42 1.934223 1_555
Cr7 O36 1.963744 1_555
Cr7 O18 1.972920 1_555
Cr7 O6 1.976506 1_554
O0 P1 1.550008 1_555
O1 P5 1.550568 1_555
O2 P7 1.552369 1_555
O3 P1 1.525440 1_565
O4 P6 1.533716 1_555
O5 P9 1.552369 1_555
O6 P4 1.550008 1_555
O7 P1 1.556907 1_555
O8 P7 1.535441 1_555
O9 P7 1.552369 1_555
O10 P8 1.533716 1_555
O11 P5 1.536449 1_555
O12 P4 1.556907 1_555
O13 P11 1.525440 1_545
O14 P6 1.554275 1_555
O15 P8 1.555802 1_555
O16 P10 1.554275 1_555
O17 P5 1.536449 1_565
O18 P10 1.555802 1_555
O19 P2 1.555802 1_555
O20 P2 1.533716 1_555
O21 P10 1.530783 1_555
O22 P11 1.536811 1_555
O23 P3 1.525440 1_545
O24 P2 1.530783 1_555
O25 P0 1.550568 1_555
O26 P2 1.554275 1_555
O27 P8 1.530783 1_555
O28 P11 1.556907 1_555
O29 P9 1.535441 1_555
O30 P11 1.550008 1_555
O31 P8 1.554275 1_555
O32 P6 1.555802 1_555
O33 P3 1.536811 1_555
O34 P0 1.536449 1_555
O35 P3 1.556907 1_555
O36 P9 1.552369 1_555
O37 P4 1.525440 1_565
O38 P10 1.533716 1_555
O39 P5 1.550568 1_565
O40 P6 1.530783 1_555
O41 P7 1.535441 1_555
O42 P1 1.536811 1_555
O43 P0 1.536449 1_565
O44 P4 1.536811 1_555
O45 P3 1.550008 1_555
O46 P0 1.550568 1_565
O47 P9 1.535441 1_555
