# generated using pymatgen
data_KZr6NCl15
_symmetry_space_group_name_H-M   'P 1'
_cell_length_a   9.75028100
_cell_length_b   14.01689100
_cell_length_c   18.60394400
_cell_angle_alpha   90.00000000
_cell_angle_beta   90.00000000
_cell_angle_gamma   90.00000000
_symmetry_Int_Tables_number   1
_chemical_formula_structural   KZr6NCl15
_chemical_formula_sum   'K4 Zr24 N4 Cl60'
_cell_volume   2542.57546459
_cell_formula_units_Z   4
loop_
 _symmetry_equiv_pos_site_id
 _symmetry_equiv_pos_as_xyz
  1  'x, y, z'
loop_
 _atom_site_type_symbol
 _atom_site_label
 _atom_site_symmetry_multiplicity
 _atom_site_fract_x
 _atom_site_fract_y
 _atom_site_fract_z
 _atom_site_occupancy
  K  K0  1  0.83076100  0.24717600  0.75000000  1
  K  K1  1  0.16923900  0.75282400  0.25000000  1
  K  K2  1  0.83076100  0.75282400  0.75000000  1
  K  K3  1  0.16923900  0.24717600  0.25000000  1
  Zr  Zr0  1  0.11553800  0.50000000  0.75000000  1
  Zr  Zr1  1  0.88446200  0.50000000  0.25000000  1
  Zr  Zr2  1  0.08078000  0.00000000  0.11271900  1
  Zr  Zr3  1  0.91922000  0.00000000  0.88728100  1
  Zr  Zr4  1  0.08078000  0.00000000  0.38728100  1
  Zr  Zr5  1  0.91922000  0.00000000  0.61271900  1
  Zr  Zr6  1  0.34247500  0.38463600  0.66303600  1
  Zr  Zr7  1  0.65752500  0.61536400  0.33696400  1
  Zr  Zr8  1  0.34247500  0.61536400  0.83696400  1
  Zr  Zr9  1  0.65752500  0.38463600  0.33696400  1
  Zr  Zr10  1  0.65752500  0.38463600  0.16303600  1
  Zr  Zr11  1  0.34247500  0.61536400  0.66303600  1
  Zr  Zr12  1  0.65752500  0.61536400  0.16303600  1
  Zr  Zr13  1  0.34247500  0.38463600  0.83696400  1
  Zr  Zr14  1  0.57153100  0.50000000  0.75000000  1
  Zr  Zr15  1  0.42846900  0.50000000  0.25000000  1
  Zr  Zr16  1  0.15605400  0.11494800  0.52951900  1
  Zr  Zr17  1  0.84394600  0.88505200  0.47048100  1
  Zr  Zr18  1  0.15605400  0.88505200  0.97048100  1
  Zr  Zr19  1  0.84394600  0.11494800  0.47048100  1
  Zr  Zr20  1  0.84394600  0.11494800  0.02951900  1
  Zr  Zr21  1  0.15605400  0.88505200  0.52951900  1
  Zr  Zr22  1  0.84394600  0.88505200  0.02951900  1
  Zr  Zr23  1  0.15605400  0.11494800  0.97048100  1
  N  N0  1  0.00000000  0.00000000  0.50000000  1
  N  N1  1  0.00000000  0.00000000  0.00000000  1
  N  N2  1  0.34384800  0.50000000  0.75000000  1
  N  N3  1  0.65615200  0.50000000  0.25000000  1
  Cl  Cl0  1  0.81606300  0.00000000  0.75000000  1
  Cl  Cl1  1  0.18393700  0.00000000  0.25000000  1
  Cl  Cl2  1  0.84276600  0.50000000  0.75000000  1
  Cl  Cl3  1  0.15723400  0.50000000  0.25000000  1
  Cl  Cl4  1  0.34234900  0.50000000  0.55720200  1
  Cl  Cl5  1  0.65765100  0.50000000  0.44279800  1
  Cl  Cl6  1  0.34234900  0.50000000  0.94279800  1
  Cl  Cl7  1  0.65765100  0.50000000  0.05720200  1
  Cl  Cl8  1  0.00000000  0.25515100  0.50000000  1
  Cl  Cl9  1  0.00000000  0.74484900  0.50000000  1
  Cl  Cl10  1  0.00000000  0.74484900  0.00000000  1
  Cl  Cl11  1  0.00000000  0.25515100  0.00000000  1
  Cl  Cl12  1  0.34994500  0.24406000  0.75000000  1
  Cl  Cl13  1  0.65005500  0.75594000  0.25000000  1
  Cl  Cl14  1  0.34994500  0.75594000  0.75000000  1
  Cl  Cl15  1  0.65005500  0.24406000  0.25000000  1
  Cl  Cl16  1  0.34140800  0.24924600  0.56200400  1
  Cl  Cl17  1  0.65859200  0.75075400  0.43799600  1
  Cl  Cl18  1  0.34140800  0.75075400  0.93799600  1
  Cl  Cl19  1  0.65859200  0.24924600  0.43799600  1
  Cl  Cl20  1  0.65859200  0.24924600  0.06200400  1
  Cl  Cl21  1  0.34140800  0.75075400  0.56200400  1
  Cl  Cl22  1  0.65859200  0.75075400  0.06200400  1
  Cl  Cl23  1  0.34140800  0.24924600  0.93799600  1
  Cl  Cl24  1  0.08205600  0.12616100  0.66063100  1
  Cl  Cl25  1  0.91794400  0.87383900  0.33936900  1
  Cl  Cl26  1  0.08205600  0.87383900  0.83936900  1
  Cl  Cl27  1  0.91794400  0.12616100  0.33936900  1
  Cl  Cl28  1  0.91794400  0.12616100  0.16063100  1
  Cl  Cl29  1  0.08205600  0.87383900  0.66063100  1
  Cl  Cl30  1  0.91794400  0.87383900  0.16063100  1
  Cl  Cl31  1  0.08205600  0.12616100  0.83936900  1
  Cl  Cl32  1  0.08152500  0.37309800  0.65426300  1
  Cl  Cl33  1  0.91847500  0.62690200  0.34573700  1
  Cl  Cl34  1  0.08152500  0.62690200  0.84573700  1
  Cl  Cl35  1  0.91847500  0.37309800  0.34573700  1
  Cl  Cl36  1  0.91847500  0.37309800  0.15426300  1
  Cl  Cl37  1  0.08152500  0.62690200  0.65426300  1
  Cl  Cl38  1  0.91847500  0.62690200  0.15426300  1
  Cl  Cl39  1  0.08152500  0.37309800  0.84573700  1
  Cl  Cl40  1  0.34570900  0.00000000  0.56626800  1
  Cl  Cl41  1  0.65429100  0.00000000  0.43373200  1
  Cl  Cl42  1  0.34570900  0.00000000  0.93373200  1
  Cl  Cl43  1  0.65429100  0.00000000  0.06626800  1
  Cl  Cl44  1  0.60439500  0.37210000  0.65268900  1
  Cl  Cl45  1  0.39560500  0.62790000  0.34731100  1
  Cl  Cl46  1  0.60439500  0.62790000  0.84731100  1
  Cl  Cl47  1  0.39560500  0.37210000  0.34731100  1
  Cl  Cl48  1  0.39560500  0.37210000  0.15268900  1
  Cl  Cl49  1  0.60439500  0.62790000  0.65268900  1
  Cl  Cl50  1  0.39560500  0.62790000  0.15268900  1
  Cl  Cl51  1  0.60439500  0.37210000  0.84731100  1
  Cl  Cl52  1  0.26419700  0.12871200  0.09609900  1
  Cl  Cl53  1  0.73580300  0.87128800  0.90390100  1
  Cl  Cl54  1  0.26419700  0.87128800  0.40390100  1
  Cl  Cl55  1  0.73580300  0.12871200  0.90390100  1
  Cl  Cl56  1  0.73580300  0.12871200  0.59609900  1
  Cl  Cl57  1  0.26419700  0.87128800  0.09609900  1
  Cl  Cl58  1  0.73580300  0.87128800  0.59609900  1
  Cl  Cl59  1  0.26419700  0.12871200  0.40390100  1
loop_
_geom_bond_atom_site_label_1
_geom_bond_atom_site_label_2
_geom_bond_distance
_geom_bond_site_symmetry_2
N0 Zr4 2.240054 1_555
N0 Zr5 2.240054 1_455
N0 Zr16 2.283150 1_555
N0 Zr19 2.283150 1_455
N0 Zr21 2.283150 1_545
N0 Zr17 2.283150 1_445
N1 Zr2 2.240054 1_555
N1 Zr3 2.240054 1_454
N1 Zr20 2.283150 1_455
N1 Zr22 2.283150 1_445
N1 Zr23 2.283150 1_554
N1 Zr18 2.283150 1_544
N2 Zr14 2.219973 1_555
N2 Zr0 2.226087 1_555
N2 Zr13 2.287472 1_555
N2 Zr8 2.287472 1_555
N2 Zr11 2.287472 1_555
N2 Zr6 2.287472 1_555
N3 Zr15 2.219973 1_555
N3 Zr1 2.226087 1_555
N3 Zr7 2.287472 1_555
N3 Zr9 2.287472 1_555
N3 Zr12 2.287472 1_555
N3 Zr10 2.287472 1_555
Cl0 Zr3 2.744887 1_555
Cl0 Zr5 2.744887 1_555
Cl0 K0 3.467602 1_555
Cl0 K2 3.467602 1_545
Cl1 Zr4 2.744887 1_555
Cl1 Zr2 2.744887 1_555
Cl1 K3 3.467602 1_555
Cl1 K1 3.467602 1_545
Cl2 Zr14 2.644617 1_555
Cl2 Zr0 2.659604 1_655
Cl2 K2 3.545739 1_555
Cl2 K0 3.545739 1_555
Cl3 Zr15 2.644617 1_555
Cl3 Zr1 2.659604 1_455
Cl3 K1 3.545739 1_555
Cl3 K3 3.545739 1_555
Cl4 Zr6 2.547846 1_555
Cl4 Zr11 2.547846 1_555
Cl5 Zr7 2.547846 1_555
Cl5 Zr9 2.547846 1_555
Cl6 Zr8 2.547846 1_555
Cl6 Zr13 2.547846 1_555
Cl7 Zr12 2.547846 1_555
Cl7 Zr10 2.547846 1_555
Cl8 Zr16 2.545352 1_555
Cl8 Zr19 2.545352 1_455
Cl9 Zr21 2.545352 1_555
Cl9 Zr17 2.545352 1_455
Cl10 Zr22 2.545352 1_455
Cl10 Zr18 2.545352 1_554
Cl11 Zr20 2.545352 1_455
Cl11 Zr23 2.545352 1_554
Cl12 Zr13 2.550578 1_555
Cl12 Zr6 2.550578 1_555
Cl13 Zr7 2.550578 1_555
Cl13 Zr12 2.550578 1_555
Cl14 Zr8 2.550578 1_555
Cl14 Zr11 2.550578 1_555
Cl15 Zr9 2.550578 1_555
Cl15 Zr10 2.550578 1_555
Cl16 Zr6 2.671034 1_555
Cl16 Zr16 2.678616 1_555
Cl17 Zr7 2.671034 1_555
Cl17 Zr17 2.678616 1_555
Cl18 Zr8 2.671034 1_555
Cl18 Zr18 2.678616 1_555
Cl19 Zr9 2.671034 1_555
Cl19 Zr19 2.678616 1_555
Cl20 Zr10 2.671034 1_555
Cl20 Zr20 2.678616 1_555
Cl21 Zr11 2.671034 1_555
Cl21 Zr21 2.678616 1_555
Cl22 Zr12 2.671034 1_555
Cl22 Zr22 2.678616 1_555
Cl23 Zr13 2.671034 1_555
Cl23 Zr23 2.678616 1_555
Cl24 Zr5 2.538203 1_455
Cl24 Zr16 2.548522 1_555
Cl24 K0 3.412482 1_455
Cl25 Zr4 2.538203 1_665
Cl25 Zr17 2.548522 1_555
Cl25 K1 3.412482 1_655
Cl26 Zr3 2.538203 1_465
Cl26 Zr18 2.548522 1_555
Cl26 K2 3.412482 1_455
Cl27 Zr4 2.538203 1_655
Cl27 Zr19 2.548522 1_555
Cl27 K3 3.412482 1_655
Cl28 Zr2 2.538203 1_655
Cl28 Zr20 2.548522 1_555
Cl28 K3 3.412482 1_655
Cl29 Zr5 2.538203 1_465
Cl29 Zr21 2.548522 1_555
Cl29 K2 3.412482 1_455
Cl30 Zr2 2.538203 1_665
Cl30 Zr22 2.548522 1_555
Cl30 K1 3.412482 1_655
Cl31 Zr3 2.538203 1_455
Cl31 Zr23 2.548522 1_555
Cl31 K0 3.412482 1_455
Cl32 Zr0 2.538952 1_555
Cl32 Zr6 2.554690 1_555
Cl32 K0 3.502247 1_455
Cl33 Zr1 2.538952 1_555
Cl33 Zr7 2.554690 1_555
Cl33 K1 3.502247 1_655
Cl34 Zr0 2.538952 1_555
Cl34 Zr8 2.554690 1_555
Cl34 K2 3.502247 1_455
Cl35 Zr1 2.538952 1_555
Cl35 Zr9 2.554690 1_555
Cl35 K3 3.502247 1_655
Cl36 Zr1 2.538952 1_555
Cl36 Zr10 2.554690 1_555
Cl36 K3 3.502247 1_655
Cl37 Zr0 2.538952 1_555
Cl37 Zr11 2.554690 1_555
Cl37 K2 3.502247 1_455
Cl38 Zr1 2.538952 1_555
Cl38 Zr12 2.554690 1_555
Cl38 K1 3.502247 1_655
Cl39 Zr0 2.538952 1_555
Cl39 Zr13 2.554690 1_555
Cl39 K0 3.502247 1_455
Cl40 Zr16 2.546159 1_555
Cl40 Zr21 2.546159 1_545
Cl41 Zr19 2.546159 1_555
Cl41 Zr17 2.546159 1_545
Cl42 Zr23 2.546159 1_555
Cl42 Zr18 2.546159 1_545
Cl43 Zr20 2.546159 1_555
Cl43 Zr22 2.546159 1_545
Cl44 Zr6 2.567059 1_555
Cl44 Zr14 2.567898 1_555
Cl44 K0 3.348885 1_555
Cl45 Zr7 2.567059 1_555
Cl45 Zr15 2.567898 1_555
Cl45 K1 3.348885 1_555
Cl46 Zr8 2.567059 1_555
Cl46 Zr14 2.567898 1_555
Cl46 K2 3.348885 1_555
Cl47 Zr9 2.567059 1_555
Cl47 Zr15 2.567898 1_555
Cl47 K3 3.348885 1_555
Cl48 Zr10 2.567059 1_555
Cl48 Zr15 2.567898 1_555
Cl48 K3 3.348885 1_555
Cl49 Zr11 2.567059 1_555
Cl49 Zr14 2.567898 1_555
Cl49 K2 3.348885 1_555
Cl50 Zr12 2.567059 1_555
Cl50 Zr15 2.567898 1_555
Cl50 K1 3.348885 1_555
Cl51 Zr13 2.567059 1_555
Cl51 Zr14 2.567898 1_555
Cl51 K0 3.348885 1_555
Cl52 Zr2 2.559060 1_555
Cl52 Zr23 2.571100 1_554
Cl52 K3 3.436888 1_555
Cl53 Zr3 2.559060 1_565
Cl53 Zr22 2.571100 1_556
Cl53 K2 3.436888 1_555
Cl54 Zr4 2.559060 1_565
Cl54 Zr21 2.571100 1_555
Cl54 K1 3.436888 1_555
Cl55 Zr3 2.559060 1_555
Cl55 Zr20 2.571100 1_556
Cl55 K0 3.436888 1_555
Cl56 Zr5 2.559060 1_555
Cl56 Zr19 2.571100 1_555
Cl56 K0 3.436888 1_555
Cl57 Zr2 2.559060 1_565
Cl57 Zr18 2.571100 1_554
Cl57 K1 3.436888 1_555
Cl58 Zr5 2.559060 1_565
Cl58 Zr17 2.571100 1_555
Cl58 K2 3.436888 1_555
Cl59 Zr4 2.559060 1_555
Cl59 Zr16 2.571100 1_555
Cl59 K3 3.436888 1_555
