# generated using pymatgen
data_LiFe2O3
_symmetry_space_group_name_H-M   'P 1'
_cell_length_a   3.04799551
_cell_length_b   5.29400437
_cell_length_c   7.40969189
_cell_angle_alpha   88.45878844
_cell_angle_beta   89.99113363
_cell_angle_gamma   89.99572598
_symmetry_Int_Tables_number   1
_chemical_formula_structural   LiFe2O3
_chemical_formula_sum   'Li2 Fe4 O6'
_cell_volume   119.52028534
_cell_formula_units_Z   2
loop_
 _symmetry_equiv_pos_site_id
 _symmetry_equiv_pos_as_xyz
  1  'x, y, z'
loop_
 _atom_site_type_symbol
 _atom_site_label
 _atom_site_symmetry_multiplicity
 _atom_site_fract_x
 _atom_site_fract_y
 _atom_site_fract_z
 _atom_site_occupancy
  Li  Li0  1  0.49982700  0.48853800  0.49607200  1
  Li  Li1  1  0.99994800  0.01220700  0.50442100  1
  Fe  Fe0  1  0.00018900  0.66357500  0.18233400  1
  Fe  Fe1  1  0.49978600  0.83642900  0.81738100  1
  Fe  Fe2  1  0.50045200  0.16957800  0.18091000  1
  Fe  Fe3  1  0.00006500  0.33018100  0.81948400  1
  O  O0  1  0.50018800  0.51680500  0.00866800  1
  O  O1  1  0.00009100  0.98353900  0.99118300  1
  O  O2  1  0.49960900  0.14759900  0.67326300  1
  O  O3  1  0.99967200  0.67105600  0.68632400  1
  O  O4  1  0.50005600  0.82841300  0.31367800  1
  O  O5  1  0.00009900  0.35210000  0.32628300  1
loop_
_geom_bond_atom_site_label_1
_geom_bond_atom_site_label_2
_geom_bond_distance
_geom_bond_site_symmetry_2
Li0 O5 2.115226 1_555
Li0 O5 2.116062 1_655
Li0 O2 2.203201 1_555
Li0 O4 2.221076 1_555
Li0 O3 2.305690 1_555
Li0 O3 2.305931 1_455
Li1 O2 2.108870 1_655
Li1 O2 2.110006 1_555
Li1 O5 2.202799 1_655
Li1 O3 2.224315 1_545
Li1 O4 2.310999 1_545
Li1 O4 2.311049 1_645
Fe0 O5 1.939613 1_555
Fe0 O4 2.018998 1_555
Fe0 O4 2.019284 1_455
Fe0 O0 2.152946 1_555
Fe0 O0 2.153314 1_455
Fe0 O1 2.178604 1_554
Fe1 O2 1.938926 1_565
Fe1 O3 2.018930 1_555
Fe1 O3 2.019780 1_455
Fe1 O1 2.153581 1_555
Fe1 O1 2.155261 1_655
Fe1 O0 2.177871 1_556
Fe2 O4 2.033305 1_545
Fe2 O5 2.114233 1_655
Fe2 O5 2.115440 1_555
Fe2 O0 2.209457 1_555
Fe2 O1 2.310659 1_644
Fe2 O1 2.312494 1_544
Fe3 O3 2.033300 1_455
Fe3 O2 2.117098 1_555
Fe3 O2 2.119443 1_455
Fe3 O1 2.204695 1_545
Fe3 O0 2.310020 1_456
Fe3 O0 2.310898 1_556
