# generated using pymatgen
data_SrMn7O12
_symmetry_space_group_name_H-M   'P 1'
_cell_length_a   6.40668533
_cell_length_b   6.40667719
_cell_length_c   10.46516715
_cell_angle_alpha   90.03319925
_cell_angle_beta   89.96671623
_cell_angle_gamma   109.46165714
_symmetry_Int_Tables_number   1
_chemical_formula_structural   SrMn7O12
_chemical_formula_sum   'Sr2 Mn14 O24'
_cell_volume   405.00618588
_cell_formula_units_Z   2
loop_
 _symmetry_equiv_pos_site_id
 _symmetry_equiv_pos_as_xyz
  1  'x, y, z'
loop_
 _atom_site_type_symbol
 _atom_site_label
 _atom_site_symmetry_multiplicity
 _atom_site_fract_x
 _atom_site_fract_y
 _atom_site_fract_z
 _atom_site_occupancy
  Sr  Sr0  1  1.00000740  0.99998887  1.00000091  1
  Sr  Sr1  1  0.49997092  0.50001745  0.49999594  1
  Mn  Mn0  1  0.74997588  0.75000731  0.25003145  1
  Mn  Mn1  1  0.25000529  0.24996865  0.74996386  1
  Mn  Mn2  1  0.50000116  0.99997700  0.00000187  1
  Mn  Mn3  1  0.99998131  0.50001930  0.50000618  1
  Mn  Mn4  1  0.00002190  0.49998851  1.00000479  1
  Mn  Mn5  1  0.49998933  0.00001693  0.50000959  1
  Mn  Mn6  1  0.24997830  0.25000943  0.25002740  1
  Mn  Mn7  1  0.75003745  0.75001764  0.74995564  1
  Mn  Mn8  1  0.74997883  0.25001568  0.25000288  1
  Mn  Mn9  1  0.25005555  0.74990378  0.75006590  1
  Mn  Mn10  1  0.00002381  0.00000723  0.49996455  1
  Mn  Mn11  1  0.25001603  0.74997709  0.25001189  1
  Mn  Mn12  1  0.75000309  0.25006924  0.74998974  1
  Mn  Mn13  1  0.50008281  0.49993566  0.99995687  1
  O  O0  1  0.83622130  0.52468058  0.34428242  1
  O  O1  1  0.33628087  0.02466365  0.84422570  1
  O  O2  1  0.66371855  0.97529034  0.15579150  1
  O  O3  1  0.16370587  0.47530884  0.65571883  1
  O  O4  1  0.47530881  0.16373969  0.34429107  1
  O  O5  1  0.97529541  0.66369001  0.84421014  1
  O  O6  1  0.02468670  0.33625136  0.15577863  1
  O  O7  1  0.52466343  0.83624821  0.65571564  1
  O  O8  1  0.77878721  0.59874380  0.09027115  1
  O  O9  1  0.27879645  0.09863530  0.59013569  1
  O  O10  1  0.72119632  0.90142209  0.40984915  1
  O  O11  1  0.22128583  0.40127511  0.90972880  1
  O  O12  1  0.09858714  0.27882130  0.40983852  1
  O  O13  1  0.59876953  0.77875108  0.90973704  1
  O  O14  1  0.40129271  0.22122832  0.09026890  1
  O  O15  1  0.90137424  0.72124313  0.59014218  1
  O  O16  1  0.25392191  0.74608449  0.43457264  1
  O  O17  1  0.75376104  0.24622429  0.93457429  1
  O  O18  1  0.24620669  0.75379556  0.06543027  1
  O  O19  1  0.74603680  0.25395757  0.56543064  1
  O  O20  1  0.43458887  0.56539979  0.25432429  1
  O  O21  1  0.93456355  0.06543924  0.75407734  1
  O  O22  1  0.06541452  0.93456271  0.24594838  1
  O  O23  1  0.56540517  0.43462574  0.74566934  1
loop_
_geom_bond_atom_site_label_1
_geom_bond_atom_site_label_2
_geom_bond_distance
_geom_bond_site_symmetry_2
Mn0 O8 1.971165 1_555
Mn0 O10 1.972128 1_555
Mn0 O20 1.972594 1_555
Mn0 O22 1.972733 1_655
Mn0 O2 1.973572 1_555
Mn0 O0 1.973821 1_555
Mn1 O11 1.971199 1_555
Mn1 O9 1.971968 1_555
Mn1 O21 1.972713 1_455
Mn1 O23 1.972745 1_555
Mn1 O1 1.973864 1_555
Mn1 O3 1.974042 1_555
Mn2 O18 1.972644 1_555
Mn2 O17 1.972739 1_564
Mn2 O1 1.973746 1_564
Mn2 O2 1.973852 1_555
Mn2 O14 1.973993 1_565
Mn2 O13 1.974063 1_554
Mn3 O19 1.972764 1_555
Mn3 O16 1.972795 1_655
Mn3 O15 1.972829 1_555
Mn3 O12 1.972847 1_655
Mn3 O3 1.973251 1_655
Mn3 O0 1.973393 1_555
Mn4 O18 1.972692 1_556
Mn4 O17 1.972813 1_455
Mn4 O6 1.973748 1_556
Mn4 O5 1.973903 1_455
Mn4 O8 1.974070 1_456
Mn4 O11 1.974123 1_555
Mn5 O9 1.972657 1_555
Mn5 O19 1.972691 1_555
Mn5 O16 1.972787 1_545
Mn5 O10 1.972819 1_545
Mn5 O4 1.973244 1_555
Mn5 O7 1.973291 1_545
Mn6 O14 1.971269 1_555
Mn6 O12 1.972044 1_555
Mn6 O20 1.972616 1_555
Mn6 O22 1.972787 1_545
Mn6 O6 1.973614 1_555
Mn6 O4 1.973991 1_555
Mn7 O13 1.971238 1_555
Mn7 O15 1.971821 1_555
Mn7 O21 1.972601 1_565
Mn7 O23 1.972658 1_555
Mn7 O5 1.973754 1_555
Mn7 O7 1.973966 1_555
Mn8 O6 1.930219 1_655
Mn8 O2 1.930239 1_545
Mn8 O0 1.930289 1_555
Mn8 O4 1.930359 1_555
Mn9 O5 1.930068 1_455
Mn9 O1 1.930148 1_565
Mn9 O3 1.930273 1_555
Mn9 O7 1.930358 1_555
Mn10 O12 1.930997 1_555
Mn10 O15 1.931010 1_445
Mn10 O10 1.931018 1_445
Mn10 O9 1.931022 1_555
Mn11 O20 1.931482 1_555
Mn11 O22 1.931615 1_555
Mn11 O16 1.931919 1_555
Mn11 O18 1.932118 1_555
Mn12 O23 1.931507 1_555
Mn12 O21 1.931638 1_555
Mn12 O19 1.931908 1_555
Mn12 O17 1.932146 1_555
Mn13 O14 1.931418 1_556
Mn13 O8 1.931420 1_556
Mn13 O11 1.931445 1_555
Mn13 O13 1.931498 1_555
O0 Sr1 2.662828 1_555
O1 Sr0 2.663324 1_445
O2 Sr0 2.663468 1_554
O3 Sr1 2.662901 1_555
O4 Sr1 2.662912 1_555
O5 Sr0 2.663502 1_555
O6 Sr0 2.663278 1_444
O7 Sr1 2.662729 1_555
O8 Sr0 2.661369 1_554
O9 Sr1 2.661516 1_555
O10 Sr1 2.661724 1_555
O11 Sr0 2.661663 1_445
O12 Sr1 2.661623 1_555
O13 Sr0 2.661337 1_555
O14 Sr0 2.661595 1_444
O15 Sr1 2.661720 1_555
O16 Sr1 2.664092 1_555
O17 Sr0 2.665949 1_545
O18 Sr0 2.665506 1_454
O19 Sr1 2.664171 1_555
O20 Sr1 2.660895 1_555
O21 Sr0 2.663617 1_545
O22 Sr0 2.663777 1_454
O23 Sr1 2.660995 1_555
