# generated using pymatgen
data_Li9V8F48
_symmetry_space_group_name_H-M   'P 1'
_cell_length_a   9.91585600
_cell_length_b   10.07204584
_cell_length_c   11.27657550
_cell_angle_alpha   116.12580007
_cell_angle_beta   115.97101833
_cell_angle_gamma   90.45374975
_symmetry_Int_Tables_number   1
_chemical_formula_structural   Li9V8F48
_chemical_formula_sum   'Li9 V8 F48'
_cell_volume   880.48163334
_cell_formula_units_Z   1
loop_
 _symmetry_equiv_pos_site_id
 _symmetry_equiv_pos_as_xyz
  1  'x, y, z'
loop_
 _atom_site_type_symbol
 _atom_site_label
 _atom_site_symmetry_multiplicity
 _atom_site_fract_x
 _atom_site_fract_y
 _atom_site_fract_z
 _atom_site_occupancy
  Li  Li0  1  0.29700900  0.31554900  0.11604600  1
  Li  Li1  1  0.67690300  0.70401600  0.39092700  1
  Li  Li2  1  0.80522800  0.32104400  0.63446600  1
  Li  Li3  1  0.61985100  0.88985900  0.25068200  1
  Li  Li4  1  0.87722100  0.64205100  0.75974600  1
  Li  Li5  1  0.63689700  0.35955600  0.24001900  1
  Li  Li6  1  0.88736500  0.13220200  0.77629200  1
  Li  Li7  1  0.85221100  0.59599400  0.18104000  1
  Li  Li8  1  0.87047300  0.12065400  0.24350000  1
  V  V0  1  0.00600600  0.50333800  0.00409400  1
  V  V1  1  0.00776800  0.00296200  0.00542600  1
  V  V2  1  0.00836900  0.50357400  0.50507000  1
  V  V3  1  0.00755900  0.99828400  0.50448800  1
  V  V4  1  0.49136800  0.49364800  0.98876900  1
  V  V5  1  0.49116900  0.99043000  0.98573800  1
  V  V6  1  0.49197000  0.50166000  0.49893500  1
  V  V7  1  0.49600700  0.00416500  0.50368600  1
  F  F0  1  0.01262000  0.01231900  0.84736300  1
  F  F1  1  0.13851400  0.36486000  0.98761900  1
  F  F2  1  0.16146300  0.99108600  0.65570400  1
  F  F3  1  0.99804600  0.33316100  0.34602500  1
  F  F4  1  0.36467900  0.61452600  0.00243900  1
  F  F5  1  0.01928300  0.83267700  0.36070000  1
  F  F6  1  0.16777200  0.47820900  0.63827900  1
  F  F7  1  0.12295100  0.12926300  0.50029300  1
  F  F8  1  0.12085400  0.62656800  0.49123900  1
  F  F9  1  0.32804300  0.83790600  0.84178000  1
  F  F10  1  0.99430900  0.47448600  0.15329000  1
  F  F11  1  0.34903400  0.32280600  0.84847400  1
  F  F12  1  0.16540300  0.66453700  0.12918400  1
  F  F13  1  0.52338600  0.53281100  0.86502300  1
  F  F14  1  0.17150700  0.16942700  0.13548200  1
  F  F15  1  0.52395600  0.02957000  0.86149800  1
  F  F16  1  0.39396000  0.86393800  0.50902600  1
  F  F17  1  0.38359600  0.35496200  0.49050100  1
  F  F18  1  0.62975200  0.87734900  0.00085400  1
  F  F19  1  0.13146300  0.87600300  0.00477600  1
  F  F20  1  0.33040600  0.51714700  0.35530700  1
  F  F21  1  0.47039300  0.16009300  0.63912900  1
  F  F22  1  0.33347900  0.99593400  0.34658200  1
  F  F23  1  0.47904600  0.64921400  0.65015500  1
  F  F24  1  0.51734000  0.35481100  0.33783000  1
  F  F25  1  0.67942500  0.00330100  0.65030600  1
  F  F26  1  0.54385200  0.84370900  0.36284700  1
  F  F27  1  0.67574700  0.47888700  0.63101400  1
  F  F28  1  0.87134400  0.12058700  0.99402300  1
  F  F29  1  0.38215000  0.13719900  0.01494900  1
  F  F30  1  0.62602300  0.64134100  0.50726500  1
  F  F31  1  0.62216800  0.13544900  0.49461400  1
  F  F32  1  0.47904300  0.96957700  0.13581600  1
  F  F33  1  0.84406700  0.83309200  0.86346200  1
  F  F34  1  0.48444200  0.46167000  0.14391800  1
  F  F35  1  0.84183600  0.32234500  0.84116500  1
  F  F36  1  0.65523700  0.67661400  0.16923600  1
  F  F37  1  0.97920100  0.51428200  0.82494500  1
  F  F38  1  0.67109700  0.16210400  0.15518200  1
  F  F39  1  0.86683700  0.37484500  0.49910800  1
  F  F40  1  0.86274400  0.86759300  0.49085300  1
  F  F41  1  0.82485000  0.52773400  0.35762000  1
  F  F42  1  0.95796800  0.15351700  0.63426400  1
  F  F43  1  0.65315500  0.40492300  0.02538300  1
  F  F44  1  0.98233800  0.65954000  0.64892200  1
  F  F45  1  0.83442400  0.01200000  0.34367500  1
  F  F46  1  0.85801200  0.61703400  0.01771700  1
  F  F47  1  0.98993000  0.00316300  0.15974600  1
loop_
_geom_bond_atom_site_label_1
_geom_bond_atom_site_label_2
_geom_bond_distance
_geom_bond_site_symmetry_2
F0 V1 1.846931 1_556
F0 Li6 1.909731 1_455
F1 Li0 1.861818 1_556
F1 V0 1.928961 1_556
F2 V3 1.753102 1_555
F3 V2 1.816172 1_655
F3 Li8 2.003741 1_555
F4 V4 1.764284 1_554
F5 V3 1.791952 1_555
F5 Li7 2.297038 1_455
F6 V2 1.756394 1_555
F7 V3 1.769258 1_545
F8 V2 1.761725 1_555
F9 V5 1.753925 1_555
F10 V0 1.878666 1_655
F10 Li7 1.912393 1_555
F11 V4 1.750483 1_555
F12 V0 1.764568 1_555
F13 V4 1.753400 1_555
F14 V1 1.817676 1_555
F14 Li0 2.063180 1_555
F15 V5 1.762729 1_545
F16 V7 1.768605 1_565
F17 V6 1.763118 1_555
F18 V5 1.790317 1_554
F19 V1 1.778788 1_565
F20 V6 1.779887 1_555
F20 Li0 2.427781 1_555
F21 V7 1.759925 1_555
F22 V7 1.763697 1_565
F23 V6 1.759399 1_555
F24 V6 1.895020 1_555
F24 Li5 1.953208 1_555
F24 Li0 2.348224 1_555
F25 V7 1.849537 1_555
F25 Li6 1.929501 1_555
F26 Li3 1.931537 1_555
F26 V7 1.941868 1_565
F26 Li1 1.968849 1_555
F27 V6 1.876718 1_555
F27 Li4 2.026375 1_555
F27 Li2 2.054381 1_555
F28 V1 1.804790 1_656
F29 V5 1.835949 1_544
F29 Li0 2.074299 1_555
F30 V6 1.870738 1_555
F30 Li1 1.917836 1_555
F31 V7 1.878549 1_555
F31 Li2 2.029571 1_555
F32 V5 1.847576 1_554
F32 Li3 1.903065 1_555
F33 V1 1.841976 1_666
F33 Li4 1.882348 1_555
F34 V4 1.941786 1_554
F34 Li5 2.022099 1_555
F34 Li0 2.180991 1_555
F35 Li6 1.864349 1_555
F35 V0 1.932000 1_656
F35 Li2 2.190164 1_555
F36 V4 1.982773 1_554
F36 Li3 2.033878 1_555
F36 Li7 2.093929 1_555
F36 Li1 2.300638 1_555
F37 Li4 1.849847 1_555
F37 V0 1.972371 1_656
F37 Li2 2.097012 1_555
F38 Li5 1.898575 1_555
F38 Li8 1.931172 1_555
F38 V5 1.969676 1_544
F39 V2 1.861971 1_655
F39 Li2 2.129917 1_555
F40 V3 1.848457 1_655
F40 Li1 1.969326 1_555
F41 V2 1.961802 1_655
F41 Li5 1.976962 1_555
F41 Li1 2.319963 1_555
F41 Li7 2.487387 1_555
F42 V3 1.858860 1_645
F42 Li6 2.093745 1_555
F42 Li2 2.276200 1_555
F43 V4 1.819405 1_554
F43 Li7 2.147329 1_555
F44 V2 1.815125 1_655
F44 Li4 2.002771 1_555
F45 V3 1.937168 1_645
F45 Li3 2.002086 1_545
F45 Li8 2.009397 1_555
F46 V0 1.886166 1_655
F46 Li7 1.968878 1_555
F47 V1 1.823754 1_655
F47 Li8 1.926962 1_555
