# generated using pymatgen
data_Sr2VBrO4
_symmetry_space_group_name_H-M   'P 1'
_cell_length_a   6.68723800
_cell_length_b   7.61702500
_cell_length_c   11.81136800
_cell_angle_alpha   90.00000000
_cell_angle_beta   90.00000000
_cell_angle_gamma   90.00000000
_symmetry_Int_Tables_number   1
_chemical_formula_structural   Sr2VBrO4
_chemical_formula_sum   'Sr8 V4 Br4 O16'
_cell_volume   601.63398673
_cell_formula_units_Z   4
loop_
 _symmetry_equiv_pos_site_id
 _symmetry_equiv_pos_as_xyz
  1  'x, y, z'
loop_
 _atom_site_type_symbol
 _atom_site_label
 _atom_site_symmetry_multiplicity
 _atom_site_fract_x
 _atom_site_fract_y
 _atom_site_fract_z
 _atom_site_occupancy
  Sr  Sr0  1  0.62502000  0.25000000  0.00000000  1
  Sr  Sr1  1  0.37498000  0.75000000  0.00000000  1
  Sr  Sr2  1  0.37498000  0.75000000  0.50000000  1
  Sr  Sr3  1  0.62502000  0.25000000  0.50000000  1
  Sr  Sr4  1  0.12198200  0.03055200  0.25000000  1
  Sr  Sr5  1  0.87801800  0.96944800  0.75000000  1
  Sr  Sr6  1  0.87801800  0.53055200  0.25000000  1
  Sr  Sr7  1  0.12198200  0.46944800  0.75000000  1
  V  V0  1  0.12485100  0.25000000  0.00000000  1
  V  V1  1  0.87514900  0.75000000  0.00000000  1
  V  V2  1  0.87514900  0.75000000  0.50000000  1
  V  V3  1  0.12485100  0.25000000  0.50000000  1
  Br  Br0  1  0.47207000  0.32357100  0.25000000  1
  Br  Br1  1  0.52793000  0.67642900  0.75000000  1
  Br  Br2  1  0.52793000  0.82357100  0.25000000  1
  Br  Br3  1  0.47207000  0.17642900  0.75000000  1
  O  O0  1  0.03180800  0.77117500  0.11859300  1
  O  O1  1  0.96819200  0.22882500  0.88140700  1
  O  O2  1  0.96819200  0.22882500  0.61859300  1
  O  O3  1  0.96819200  0.27117500  0.38140700  1
  O  O4  1  0.03180800  0.77117500  0.38140700  1
  O  O5  1  0.03180800  0.72882500  0.61859300  1
  O  O6  1  0.03180800  0.72882500  0.88140700  1
  O  O7  1  0.96819200  0.27117500  0.11859300  1
  O  O8  1  0.28056600  0.07239600  0.02762000  1
  O  O9  1  0.71943400  0.92760400  0.97238000  1
  O  O10  1  0.71943400  0.92760400  0.52762000  1
  O  O11  1  0.71943400  0.57239600  0.47238000  1
  O  O12  1  0.28056600  0.07239600  0.47238000  1
  O  O13  1  0.28056600  0.42760400  0.52762000  1
  O  O14  1  0.28056600  0.42760400  0.97238000  1
  O  O15  1  0.71943400  0.57239600  0.02762000  1
loop_
_geom_bond_atom_site_label_1
_geom_bond_atom_site_label_2
_geom_bond_distance
_geom_bond_site_symmetry_2
Br0 Sr6 3.139274 1_555
Br0 Sr3 3.174817 1_555
Br0 Sr0 3.174817 1_555
Br0 Sr4 3.234560 1_555
Br1 Sr7 3.139274 1_555
Br1 Sr1 3.174817 1_556
Br1 Sr2 3.174817 1_555
Br1 Sr5 3.234560 1_555
Br2 Sr4 3.139274 1_565
Br2 Sr2 3.174817 1_555
Br2 Sr1 3.174817 1_555
Br2 Sr6 3.234560 1_555
Br3 Sr5 3.139274 1_545
Br3 Sr3 3.174817 1_555
Br3 Sr0 3.174817 1_556
Br3 Sr7 3.234560 1_555
O0 V1 1.756588 1_455
O0 Sr4 2.583785 1_565
O0 Sr6 2.612651 1_455
O0 Sr1 2.693426 1_555
O1 V0 1.756588 1_656
O1 Sr5 2.583785 1_545
O1 Sr7 2.612651 1_655
O1 Sr0 2.693426 1_556
O2 V3 1.756588 1_655
O2 Sr5 2.583785 1_545
O2 Sr7 2.612651 1_655
O2 Sr3 2.693426 1_555
O3 V3 1.756588 1_655
O3 Sr6 2.583785 1_555
O3 Sr4 2.612651 1_655
O3 Sr3 2.693426 1_555
O4 V2 1.756588 1_455
O4 Sr4 2.583785 1_565
O4 Sr6 2.612651 1_455
O4 Sr2 2.693426 1_555
O5 V2 1.756588 1_455
O5 Sr7 2.583785 1_555
O5 Sr5 2.612651 1_455
O5 Sr2 2.693426 1_555
O6 V1 1.756588 1_456
O6 Sr7 2.583785 1_555
O6 Sr5 2.612651 1_455
O6 Sr1 2.693426 1_556
O7 V0 1.756588 1_655
O7 Sr6 2.583785 1_555
O7 Sr4 2.612651 1_655
O7 Sr0 2.693426 1_555
O8 V0 1.738058 1_555
O8 Sr1 2.556464 1_545
O8 Sr0 2.691170 1_555
O8 Sr4 2.850494 1_555
O9 V1 1.738058 1_556
O9 Sr0 2.556464 1_566
O9 Sr1 2.691170 1_556
O9 Sr5 2.850494 1_555
O10 V2 1.738058 1_555
O10 Sr3 2.556464 1_565
O10 Sr2 2.691170 1_555
O10 Sr5 2.850494 1_555
O11 V2 1.738058 1_555
O11 Sr3 2.556464 1_555
O11 Sr2 2.691170 1_555
O11 Sr6 2.850494 1_555
O12 V3 1.738058 1_555
O12 Sr2 2.556464 1_545
O12 Sr3 2.691170 1_555
O12 Sr4 2.850494 1_555
O13 V3 1.738058 1_555
O13 Sr2 2.556464 1_555
O13 Sr3 2.691170 1_555
O13 Sr7 2.850494 1_555
O14 V0 1.738058 1_556
O14 Sr1 2.556464 1_556
O14 Sr0 2.691170 1_556
O14 Sr7 2.850494 1_555
O15 V1 1.738058 1_555
O15 Sr0 2.556464 1_555
O15 Sr1 2.691170 1_555
O15 Sr6 2.850494 1_555
