# generated using pymatgen
data_YNiO3
_symmetry_space_group_name_H-M   'P 1'
_cell_length_a   6.18090857
_cell_length_b   6.18090857
_cell_length_c   11.35973600
_cell_angle_alpha   90.00000000
_cell_angle_beta   90.00000000
_cell_angle_gamma   120.00000606
_symmetry_Int_Tables_number   1
_chemical_formula_structural   YNiO3
_chemical_formula_sum   'Y6 Ni6 O18'
_cell_volume   375.84041757
_cell_formula_units_Z   6
loop_
 _symmetry_equiv_pos_site_id
 _symmetry_equiv_pos_as_xyz
  1  'x, y, z'
loop_
 _atom_site_type_symbol
 _atom_site_label
 _atom_site_symmetry_multiplicity
 _atom_site_fract_x
 _atom_site_fract_y
 _atom_site_fract_z
 _atom_site_occupancy
  Y  Y0  1  0.66666700  0.33333300  0.23341700  1
  Y  Y1  1  0.33333300  0.66666700  0.73341700  1
  Y  Y2  1  0.66666700  0.33333300  0.73341700  1
  Y  Y3  1  0.33333300  0.66666700  0.23341700  1
  Y  Y4  1  0.00000000  0.00000000  0.77691400  1
  Y  Y5  1  0.00000000  0.00000000  0.27691400  1
  Ni  Ni0  1  0.66732600  0.00000000  0.50143100  1
  Ni  Ni1  1  0.66732600  0.66732600  0.00143100  1
  Ni  Ni2  1  0.00000000  0.33267400  0.00143100  1
  Ni  Ni3  1  0.00000000  0.66732600  0.50143100  1
  Ni  Ni4  1  0.33267400  0.33267400  0.50143100  1
  Ni  Ni5  1  0.33267400  0.00000000  0.00143100  1
  O  O0  1  0.66666700  0.33333300  0.01918600  1
  O  O1  1  0.33333300  0.66666700  0.51918600  1
  O  O2  1  0.66666700  0.33333300  0.51918600  1
  O  O3  1  0.33333300  0.66666700  0.01918600  1
  O  O4  1  0.00000000  0.00000000  0.98039800  1
  O  O5  1  0.00000000  0.00000000  0.48039800  1
  O  O6  1  0.35728400  0.00000000  0.83811400  1
  O  O7  1  0.35728400  0.35728400  0.33811400  1
  O  O8  1  0.00000000  0.64271600  0.33811400  1
  O  O9  1  0.00000000  0.35728400  0.83811400  1
  O  O10  1  0.64271600  0.64271600  0.83811400  1
  O  O11  1  0.64271600  0.00000000  0.33811400  1
  O  O12  1  0.30947700  0.00000000  0.16461400  1
  O  O13  1  0.30947700  0.30947700  0.66461400  1
  O  O14  1  0.00000000  0.69052300  0.66461400  1
  O  O15  1  0.00000000  0.30947700  0.16461400  1
  O  O16  1  0.69052300  0.69052300  0.16461400  1
  O  O17  1  0.69052300  0.00000000  0.66461400  1
loop_
_geom_bond_atom_site_label_1
_geom_bond_atom_site_label_2
_geom_bond_distance
_geom_bond_site_symmetry_2
Ni0 O17 1.859252 1_555
Ni0 O11 1.861463 1_555
Ni0 O5 2.070063 1_655
Ni0 O2 2.072179 1_555
Ni0 O1 2.072182 1_545
Ni1 O16 1.859252 1_555
Ni1 O10 1.861463 1_554
Ni1 O4 2.070062 1_664
Ni1 O3 2.072186 1_555
Ni1 O0 2.072186 1_555
Ni2 O15 1.859252 1_555
Ni2 O9 1.861463 1_554
Ni2 O4 2.070063 1_554
Ni2 O0 2.072179 1_455
Ni2 O3 2.072182 1_555
Ni3 O14 1.859252 1_555
Ni3 O8 1.861463 1_555
Ni3 O5 2.070063 1_565
Ni3 O1 2.072179 1_555
Ni3 O2 2.072182 1_455
Ni4 O13 1.859252 1_555
Ni4 O7 1.861463 1_555
Ni4 O5 2.070062 1_555
Ni4 O2 2.072186 1_555
Ni4 O1 2.072186 1_555
Ni5 O12 1.859252 1_555
Ni5 O6 1.861463 1_554
Ni5 O4 2.070063 1_554
Ni5 O3 2.072179 1_545
Ni5 O0 2.072182 1_555
O0 Y0 2.433608 1_555
O1 Y1 2.433608 1_555
O2 Y2 2.433608 1_555
O3 Y3 2.433608 1_555
O4 Y4 2.311525 1_555
O5 Y5 2.311525 1_555
O6 Y4 2.315187 1_555
O6 Y1 2.318676 1_545
O6 Y2 2.318678 1_555
O7 Y5 2.315187 1_555
O7 Y3 2.318681 1_555
O7 Y0 2.318681 1_555
O8 Y5 2.315187 1_565
O8 Y3 2.318676 1_555
O8 Y0 2.318678 1_455
O9 Y4 2.315187 1_555
O9 Y2 2.318676 1_455
O9 Y1 2.318678 1_555
O10 Y4 2.315187 1_665
O10 Y2 2.318681 1_555
O10 Y1 2.318681 1_555
O11 Y5 2.315187 1_655
O11 Y0 2.318676 1_555
O11 Y3 2.318678 1_545
O12 Y3 2.276236 1_545
O12 Y0 2.276239 1_555
O12 Y5 2.299217 1_555
O13 Y1 2.276242 1_555
O13 Y2 2.276242 1_555
O13 Y4 2.299217 1_555
O14 Y1 2.276236 1_555
O14 Y2 2.276239 1_455
O14 Y4 2.299217 1_565
O15 Y0 2.276236 1_455
O15 Y3 2.276239 1_555
O15 Y5 2.299217 1_555
O16 Y3 2.276242 1_555
O16 Y0 2.276242 1_555
O16 Y5 2.299217 1_665
O17 Y2 2.276236 1_555
O17 Y1 2.276239 1_545
O17 Y4 2.299217 1_655
