# generated using pymatgen
data_Mg6BMo
_symmetry_space_group_name_H-M   'P 1'
_cell_length_a   4.53292400
_cell_length_b   5.94183400
_cell_length_c   11.34138800
_cell_angle_alpha   90.00000000
_cell_angle_beta   90.00000000
_cell_angle_gamma   90.00000000
_symmetry_Int_Tables_number   1
_chemical_formula_structural   Mg6BMo
_chemical_formula_sum   'Mg12 B2 Mo2'
_cell_volume   305.46760546
_cell_formula_units_Z   2
loop_
 _symmetry_equiv_pos_site_id
 _symmetry_equiv_pos_as_xyz
  1  'x, y, z'
loop_
 _atom_site_type_symbol
 _atom_site_label
 _atom_site_symmetry_multiplicity
 _atom_site_fract_x
 _atom_site_fract_y
 _atom_site_fract_z
 _atom_site_occupancy
  Mg  Mg0  1  0.00000000  0.24253200  0.57524200  1
  Mg  Mg1  1  0.00000000  0.75746800  0.57524200  1
  Mg  Mg2  1  0.00000000  0.50000000  0.82808500  1
  Mg  Mg3  1  0.50000000  0.76415300  0.90892600  1
  Mg  Mg4  1  0.50000000  0.23584700  0.90892600  1
  Mg  Mg5  1  0.50000000  0.50000000  0.67479600  1
  Mg  Mg6  1  0.00000000  0.74253200  0.07524200  1
  Mg  Mg7  1  0.00000000  0.25746800  0.07524200  1
  Mg  Mg8  1  0.00000000  0.00000000  0.32808500  1
  Mg  Mg9  1  0.50000000  0.26415300  0.40892600  1
  Mg  Mg10  1  0.50000000  0.73584700  0.40892600  1
  Mg  Mg11  1  0.50000000  0.00000000  0.17479600  1
  B  B0  1  0.50000000  0.00000000  0.73844000  1
  B  B1  1  0.50000000  0.50000000  0.23844000  1
  Mo  Mo0  1  0.00000000  0.00000000  0.79034300  1
  Mo  Mo1  1  0.00000000  0.50000000  0.29034300  1
loop_
_geom_bond_atom_site_label_1
_geom_bond_atom_site_label_2
_geom_bond_distance
_geom_bond_site_symmetry_2
Mg0 Mo0 2.833390 1_555
Mg0 Mg5 2.958388 1_455
Mg0 Mg5 2.958388 1_555
Mg1 Mo0 2.833390 1_565
Mg1 Mg5 2.958388 1_455
Mg1 Mg5 2.958388 1_555
Mg2 Mg5 2.856443 1_455
Mg2 Mg5 2.856443 1_555
Mg2 Mo0 3.001595 1_555
Mg2 Mo0 3.001595 1_565
Mg3 Mo0 2.984864 1_665
Mg3 Mo0 2.984864 1_565
Mg3 Mg5 3.084547 1_555
Mg4 Mo0 2.984864 1_655
Mg4 Mo0 2.984864 1_555
Mg4 Mg5 3.084547 1_555
Mg5 Mg9 3.325066 1_555
Mg6 Mo1 2.833390 1_555
Mg7 Mo1 2.833390 1_555
Mg8 Mo1 3.001595 1_555
Mg8 Mo1 3.001595 1_545
Mg9 Mo1 2.984864 1_655
Mg9 Mo1 2.984864 1_555
Mg10 Mo1 2.984864 1_655
Mg10 Mo1 2.984864 1_555
Mg10 Mg11 3.084547 1_565
Mg10 Mg5 3.325066 1_555
Mg11 Mg8 2.856443 1_655
Mg11 Mg8 2.856443 1_555
Mg11 Mg7 2.958388 1_555
Mg11 Mg6 2.958388 1_545
Mg11 Mg7 2.958388 1_655
Mg11 Mg6 2.958388 1_645
Mg11 Mg9 3.084547 1_555
Mg11 Mg3 3.325066 1_544
Mg11 Mg4 3.325066 1_554
B0 Mo0 2.341658 1_655
B0 Mo0 2.341658 1_555
B0 Mg3 2.387976 1_545
B0 Mg4 2.387976 1_555
B0 Mg5 3.057345 1_545
B0 Mg5 3.057345 1_555
B1 Mo1 2.341658 1_655
B1 Mo1 2.341658 1_555
B1 Mg9 2.387976 1_555
B1 Mg10 2.387976 1_555
B1 Mg11 3.057345 1_555
B1 Mg11 3.057345 1_565
