# generated using pymatgen
data_LiCe(C2O5)2
_symmetry_space_group_name_H-M   'P 1'
_cell_length_a   9.16381712
_cell_length_b   8.07003900
_cell_length_c   14.90474625
_cell_angle_alpha   90.00000000
_cell_angle_beta   107.25323816
_cell_angle_gamma   90.00000000
_symmetry_Int_Tables_number   1
_chemical_formula_structural   LiCe(C2O5)2
_chemical_formula_sum   'Li4 Ce4 C16 O40'
_cell_volume   1052.64383969
_cell_formula_units_Z   4
loop_
 _symmetry_equiv_pos_site_id
 _symmetry_equiv_pos_as_xyz
  1  'x, y, z'
loop_
 _atom_site_type_symbol
 _atom_site_label
 _atom_site_symmetry_multiplicity
 _atom_site_fract_x
 _atom_site_fract_y
 _atom_site_fract_z
 _atom_site_occupancy
  Li  Li0  1  0.41550600  0.69826100  0.28444000  1
  Li  Li1  1  0.08449400  0.69826100  0.71556000  1
  Li  Li2  1  0.58449400  0.30173900  0.71556000  1
  Li  Li3  1  0.91550600  0.30173900  0.28444000  1
  Ce  Ce0  1  0.76245000  0.76468100  0.28595300  1
  Ce  Ce1  1  0.73755000  0.76468100  0.71404700  1
  Ce  Ce2  1  0.23755000  0.23531900  0.71404700  1
  Ce  Ce3  1  0.26245000  0.23531900  0.28595300  1
  C  C0  1  0.66042900  0.76928800  0.48299700  1
  C  C1  1  0.83957100  0.76928800  0.51700300  1
  C  C2  1  0.33957100  0.23071200  0.51700300  1
  C  C3  1  0.16042900  0.23071200  0.48299700  1
  C  C4  1  0.61169800  0.17038700  0.27546100  1
  C  C5  1  0.88830200  0.17038700  0.72453900  1
  C  C6  1  0.38830200  0.82961300  0.72453900  1
  C  C7  1  0.11169800  0.82961300  0.27546100  1
  C  C8  1  0.60807500  0.36270600  0.28445900  1
  C  C9  1  0.89192500  0.36270600  0.71554100  1
  C  C10  1  0.39192500  0.63729400  0.71554100  1
  C  C11  1  0.10807500  0.63729400  0.28445900  1
  C  C12  1  0.75000000  0.59758000  0.00000000  1
  C  C13  1  0.25000000  0.40242000  0.00000000  1
  C  C14  1  0.75000000  0.95329900  0.00000000  1
  C  C15  1  0.25000000  0.04670100  0.00000000  1
  O  O0  1  0.59848200  0.76157400  0.39498200  1
  O  O1  1  0.90151800  0.76157400  0.60501800  1
  O  O2  1  0.40151800  0.23842600  0.60501800  1
  O  O3  1  0.09848200  0.23842600  0.39498200  1
  O  O4  1  0.59199300  0.77428900  0.54507800  1
  O  O5  1  0.90800700  0.77428900  0.45492200  1
  O  O6  1  0.40800700  0.22571100  0.45492200  1
  O  O7  1  0.09199300  0.22571100  0.54507800  1
  O  O8  1  0.73783100  0.10069000  0.28210600  1
  O  O9  1  0.76216900  0.10069000  0.71789400  1
  O  O10  1  0.26216900  0.89931000  0.71789400  1
  O  O11  1  0.23783100  0.89931000  0.28210600  1
  O  O12  1  0.48388500  0.09897800  0.26394400  1
  O  O13  1  0.01611500  0.09897800  0.73605600  1
  O  O14  1  0.51611500  0.90102200  0.73605600  1
  O  O15  1  0.98388500  0.90102200  0.26394400  1
  O  O16  1  0.48166700  0.42439300  0.28597500  1
  O  O17  1  0.01833300  0.42439300  0.71402500  1
  O  O18  1  0.51833300  0.57560700  0.71402500  1
  O  O19  1  0.98166700  0.57560700  0.28597500  1
  O  O20  1  0.73004000  0.44161500  0.29134600  1
  O  O21  1  0.76996000  0.44161500  0.70865400  1
  O  O22  1  0.26996000  0.55838500  0.70865400  1
  O  O23  1  0.23004000  0.55838500  0.29134600  1
  O  O24  1  0.77904600  0.59780900  0.08223100  1
  O  O25  1  0.72095400  0.59780900  0.91776900  1
  O  O26  1  0.22095400  0.40219100  0.91776900  1
  O  O27  1  0.27904600  0.40219100  0.08223100  1
  O  O28  1  0.72848800  0.95262100  0.07389300  1
  O  O29  1  0.77151200  0.95262100  0.92610700  1
  O  O30  1  0.27151200  0.04737900  0.92610700  1
  O  O31  1  0.22848800  0.04737900  0.07389300  1
  O  O32  1  0.56620500  0.74431500  0.20309100  1
  O  O33  1  0.93379500  0.74431500  0.79690900  1
  O  O34  1  0.43379500  0.25568500  0.79690900  1
  O  O35  1  0.06620500  0.25568500  0.20309100  1
  O  O36  1  0.68186800  0.27583900  0.99857700  1
  O  O37  1  0.81813200  0.27583900  0.00142300  1
  O  O38  1  0.31813200  0.72416100  0.00142300  1
  O  O39  1  0.18186800  0.72416100  0.99857700  1
loop_
_geom_bond_atom_site_label_1
_geom_bond_atom_site_label_2
_geom_bond_distance
_geom_bond_site_symmetry_2
Li0 O0 2.036762 1_555
Li0 O23 2.068122 1_555
Li0 O32 2.123347 1_555
Li0 O16 2.290095 1_555
Li0 O11 2.291507 1_555
Li1 O1 2.036762 1_455
Li1 O22 2.068122 1_555
Li1 O33 2.123347 1_455
Li1 O17 2.290095 1_555
Li1 O10 2.291507 1_555
Li2 O2 2.036762 1_555
Li2 O21 2.068122 1_555
Li2 O34 2.123347 1_555
Li2 O18 2.290095 1_555
Li2 O9 2.291507 1_555
Li3 O3 2.036762 1_655
Li3 O20 2.068122 1_555
Li3 O35 2.123347 1_655
Li3 O19 2.290095 1_555
Li3 O8 2.291507 1_555
Ce0 O32 1.862500 1_555
Ce0 O15 2.414682 1_555
Ce0 O5 2.476905 1_555
Ce0 O0 2.519438 1_555
Ce0 O19 2.522562 1_555
Ce0 O20 2.627944 1_555
Ce0 O8 2.720169 1_565
Ce1 O33 1.862500 1_555
Ce1 O14 2.414682 1_555
Ce1 O4 2.476905 1_555
Ce1 O1 2.519438 1_555
Ce1 O18 2.522562 1_555
Ce1 O21 2.627944 1_555
Ce1 O9 2.720169 1_565
Ce2 O34 1.862500 1_555
Ce2 O13 2.414682 1_555
Ce2 O7 2.476905 1_555
Ce2 O2 2.519438 1_555
Ce2 O17 2.522562 1_555
Ce2 O22 2.627944 1_555
Ce2 O10 2.720169 1_545
Ce3 O35 1.862500 1_555
Ce3 O12 2.414682 1_555
Ce3 O6 2.476905 1_555
Ce3 O3 2.519438 1_555
Ce3 O16 2.522562 1_555
Ce3 O23 2.627944 1_555
Ce3 O11 2.720169 1_545
C0 O4 1.263065 1_555
C0 O0 1.267007 1_555
C1 O5 1.263065 1_555
C1 O1 1.267007 1_555
C2 O6 1.263065 1_555
C2 O2 1.267007 1_555
C3 O7 1.263065 1_555
C3 O3 1.267007 1_555
C4 O8 1.262645 1_555
C4 O12 1.270485 1_555
C5 O9 1.262645 1_555
C5 O13 1.270485 1_655
C6 O10 1.262645 1_555
C6 O14 1.270485 1_555
C7 O11 1.262645 1_555
C7 O15 1.270485 1_455
C8 O20 1.263792 1_555
C8 O16 1.267163 1_555
C9 O21 1.263792 1_555
C9 O17 1.267163 1_655
C10 O22 1.263792 1_555
C10 O18 1.267163 1_555
C11 O23 1.263792 1_555
C11 O19 1.267163 1_455
C12 O24 1.174525 1_555
C12 O25 1.174525 1_554
C13 O26 1.174525 1_554
C13 O27 1.174525 1_555
C14 O29 1.175018 1_554
C14 O28 1.175018 1_555
C15 O30 1.175018 1_554
C15 O31 1.175018 1_555
O36 O37 1.236781 1_556
O38 O39 1.236781 1_554
