# generated using pymatgen
data_NaH6C4SN3O5
_symmetry_space_group_name_H-M   'P 1'
_cell_length_a   8.85128378
_cell_length_b   8.85128378
_cell_length_c   14.86305198
_cell_angle_alpha   68.82032419
_cell_angle_beta   68.82032419
_cell_angle_gamma   68.91977164
_symmetry_Int_Tables_number   1
_chemical_formula_structural   NaH6C4SN3O5
_chemical_formula_sum   'Na4 H24 C16 S4 N12 O20'
_cell_volume   976.65743969
_cell_formula_units_Z   4
loop_
 _symmetry_equiv_pos_site_id
 _symmetry_equiv_pos_as_xyz
  1  'x, y, z'
loop_
 _atom_site_type_symbol
 _atom_site_label
 _atom_site_symmetry_multiplicity
 _atom_site_fract_x
 _atom_site_fract_y
 _atom_site_fract_z
 _atom_site_occupancy
  Na  Na0  1  0.50000000  0.50000000  0.00000000  1
  Na  Na1  1  0.50000000  0.50000000  0.50000000  1
  Na  Na2  1  0.55931300  0.44068700  0.75000000  1
  Na  Na3  1  0.44068700  0.55931300  0.25000000  1
  H  H0  1  0.83715500  0.62585100  0.94144000  1
  H  H1  1  0.37414900  0.16284500  0.55856000  1
  H  H2  1  0.16284500  0.37414900  0.05856000  1
  H  H3  1  0.62585100  0.83715500  0.44144000  1
  H  H4  1  0.17253400  0.81266500  0.83935500  1
  H  H5  1  0.18733500  0.82746600  0.66064500  1
  H  H6  1  0.82746600  0.18733500  0.16064500  1
  H  H7  1  0.81266500  0.17253400  0.33935500  1
  H  H8  1  0.09500200  0.96136200  0.90943100  1
  H  H9  1  0.03863800  0.90499800  0.59056900  1
  H  H10  1  0.90499800  0.03863800  0.09056900  1
  H  H11  1  0.96136200  0.09500200  0.40943100  1
  H  H12  1  0.02205000  0.36206300  0.71971900  1
  H  H13  1  0.63793700  0.97795000  0.78028100  1
  H  H14  1  0.97795000  0.63793700  0.28028100  1
  H  H15  1  0.36206300  0.02205000  0.21971900  1
  H  H16  1  0.62335200  0.19802400  0.93324800  1
  H  H17  1  0.80197600  0.37664800  0.56675200  1
  H  H18  1  0.37664800  0.80197600  0.06675200  1
  H  H19  1  0.19802400  0.62335200  0.43324800  1
  H  H20  1  0.43327700  0.22776600  0.94401800  1
  H  H21  1  0.77223400  0.56672300  0.55598200  1
  H  H22  1  0.56672300  0.77223400  0.05598200  1
  H  H23  1  0.22776600  0.43327700  0.44401800  1
  C  C0  1  0.94169800  0.81491100  0.93698300  1
  C  C1  1  0.18508900  0.05830200  0.56301700  1
  C  C2  1  0.05830200  0.18508900  0.06301700  1
  C  C3  1  0.81491100  0.94169800  0.43698300  1
  C  C4  1  0.03853600  0.51829700  0.80441600  1
  C  C5  1  0.48170300  0.96146400  0.69558400  1
  C  C6  1  0.96146400  0.48170300  0.19558400  1
  C  C7  1  0.51829700  0.03853600  0.30441600  1
  C  C8  1  0.88796500  0.44629900  0.84705600  1
  C  C9  1  0.55370100  0.11203500  0.65294400  1
  C  C10  1  0.11203500  0.55370100  0.15294400  1
  C  C11  1  0.44629900  0.88796500  0.34705600  1
  C  C12  1  0.17743100  0.46970800  0.71696300  1
  C  C13  1  0.53029200  0.82256900  0.78303700  1
  C  C14  1  0.82256900  0.53029200  0.28303700  1
  C  C15  1  0.46970800  0.17743100  0.21696300  1
  S  S0  1  0.78183800  0.88902400  0.02823700  1
  S  S1  1  0.11097600  0.21816200  0.47176300  1
  S  S2  1  0.21816200  0.11097600  0.97176300  1
  S  S3  1  0.88902400  0.78183800  0.52823700  1
  N  N0  1  0.93465500  0.68533600  0.90938400  1
  N  N1  1  0.31466400  0.06534500  0.59061600  1
  N  N2  1  0.06534500  0.31466400  0.09061600  1
  N  N3  1  0.68533600  0.93465500  0.40938400  1
  N  N4  1  0.05439800  0.63308900  0.83376400  1
  N  N5  1  0.36691100  0.94560200  0.66623600  1
  N  N6  1  0.94560200  0.36691100  0.16623600  1
  N  N7  1  0.63308900  0.05439800  0.33376400  1
  N  N8  1  0.07657200  0.87322600  0.88822100  1
  N  N9  1  0.12677400  0.92342800  0.61177900  1
  N  N10  1  0.92342800  0.12677400  0.11177900  1
  N  N11  1  0.87322600  0.07657200  0.38822100  1
  O  O0  1  0.78588700  0.47084900  0.92884100  1
  O  O1  1  0.52915100  0.21411300  0.57115900  1
  O  O2  1  0.21411300  0.52915100  0.07115900  1
  O  O3  1  0.47084900  0.78588700  0.42884100  1
  O  O4  1  0.87240900  0.36683300  0.79503100  1
  O  O5  1  0.63316700  0.12759100  0.70496900  1
  O  O6  1  0.12759100  0.63316700  0.20496900  1
  O  O7  1  0.36683300  0.87240900  0.29503100  1
  O  O8  1  0.14589400  0.37916800  0.67548700  1
  O  O9  1  0.62083200  0.85410600  0.82451300  1
  O  O10  1  0.85410600  0.62083200  0.32451300  1
  O  O11  1  0.37916800  0.14589400  0.17548700  1
  O  O12  1  0.30999200  0.51309500  0.68524300  1
  O  O13  1  0.48690500  0.69000800  0.81475700  1
  O  O14  1  0.69000800  0.48690500  0.31475700  1
  O  O15  1  0.51309500  0.30999200  0.18524300  1
  O  O16  1  0.52302500  0.28609700  0.91900600  1
  O  O17  1  0.71390300  0.47697500  0.58099400  1
  O  O18  1  0.47697500  0.71390300  0.08099400  1
  O  O19  1  0.28609700  0.52302500  0.41900600  1
loop_
_geom_bond_atom_site_label_1
_geom_bond_atom_site_label_2
_geom_bond_distance
_geom_bond_site_symmetry_2
Na0 O2 2.319930 1_555
Na0 O0 2.319930 1_554
Na0 O18 2.503485 1_555
Na0 O16 2.503485 1_554
Na0 O15 2.677105 1_555
Na0 O13 2.677105 1_554
Na1 O1 2.319930 1_555
Na1 O3 2.319930 1_555
Na1 O17 2.503485 1_555
Na1 O19 2.503485 1_555
Na1 O14 2.677105 1_555
Na1 O12 2.677105 1_555
Na2 O16 2.352625 1_555
Na2 O17 2.352625 1_555
Na2 O12 2.505753 1_555
Na2 O13 2.505753 1_555
Na2 O5 2.876864 1_555
Na2 O4 2.876864 1_555
Na3 O18 2.352625 1_555
Na3 O19 2.352625 1_555
Na3 O15 2.505753 1_555
Na3 O14 2.505753 1_555
Na3 O6 2.876864 1_555
Na3 O7 2.876864 1_555
H0 N0 1.047606 1_555
H0 O0 1.678744 1_555
H1 N1 1.047606 1_555
H1 O1 1.678744 1_555
H2 N2 1.047606 1_555
H2 O2 1.678744 1_555
H3 N3 1.047606 1_555
H3 O3 1.678744 1_555
H4 N8 1.021927 1_555
H5 N9 1.021927 1_555
H6 N10 1.021927 1_555
H7 N11 1.021927 1_555
H8 N8 1.020285 1_555
H9 N9 1.020285 1_555
H10 N10 1.020285 1_555
H11 N11 1.020285 1_555
H12 O8 1.087870 1_555
H12 O4 1.389858 1_455
H13 O9 1.087870 1_555
H13 O5 1.389858 1_565
H14 O10 1.087870 1_555
H14 O6 1.389858 1_655
H15 O11 1.087870 1_555
H15 O7 1.389858 1_545
H16 O16 0.979650 1_555
H17 O17 0.979650 1_555
H18 O18 0.979650 1_555
H19 O19 0.979650 1_555
H20 O16 0.989329 1_555
H21 O17 0.989329 1_555
H22 O18 0.989329 1_555
H23 O19 0.989329 1_555
C0 N8 1.328391 1_655
C0 N0 1.377465 1_555
C0 S0 1.691302 1_556
C1 N9 1.328391 1_545
C1 N1 1.377465 1_555
C1 S1 1.691302 1_555
C2 N10 1.328391 1_455
C2 N2 1.377465 1_555
C2 S2 1.691302 1_554
C3 N11 1.328391 1_565
C3 N3 1.377465 1_555
C3 S3 1.691302 1_555
C4 N4 1.307470 1_555
C5 N5 1.307470 1_555
C6 N6 1.307470 1_555
C7 N7 1.307470 1_555
C8 O0 1.263807 1_555
C8 O4 1.284998 1_555
C9 O1 1.263807 1_555
C9 O5 1.284998 1_555
C10 O2 1.263807 1_555
C10 O6 1.284998 1_555
C11 O3 1.263807 1_555
C11 O7 1.284998 1_555
C12 O12 1.240990 1_555
C12 O8 1.320008 1_555
C13 O13 1.240990 1_555
C13 O9 1.320008 1_555
C14 O14 1.240990 1_555
C14 O10 1.320008 1_555
C15 O15 1.240990 1_555
C15 O11 1.320008 1_555
N0 N4 1.327657 1_655
N1 N5 1.327657 1_545
N2 N6 1.327657 1_455
N3 N7 1.327657 1_565
