# generated using pymatgen
data_MgTl4(NiO3)4
_symmetry_space_group_name_H-M   'P 1'
_cell_length_a   5.46787722
_cell_length_b   5.54478370
_cell_length_c   8.57967788
_cell_angle_alpha   84.28493214
_cell_angle_beta   95.80510677
_cell_angle_gamma   94.09166378
_symmetry_Int_Tables_number   1
_chemical_formula_structural   MgTl4(NiO3)4
_chemical_formula_sum   'Mg1 Tl4 Ni4 O12'
_cell_volume   257.00621124
_cell_formula_units_Z   1
loop_
 _symmetry_equiv_pos_site_id
 _symmetry_equiv_pos_as_xyz
  1  'x, y, z'
loop_
 _atom_site_type_symbol
 _atom_site_label
 _atom_site_symmetry_multiplicity
 _atom_site_fract_x
 _atom_site_fract_y
 _atom_site_fract_z
 _atom_site_occupancy
  Mg  Mg0  1  0.85813900  0.14970900  0.89699700  1
  Tl  Tl0  1  0.52751100  0.53997800  0.26386100  1
  Tl  Tl1  1  0.01774700  0.86534400  0.67314700  1
  Tl  Tl2  1  0.48139400  0.56250900  0.82126700  1
  Tl  Tl3  1  0.99521200  0.03559300  0.26957200  1
  Ni  Ni0  1  0.44680200  0.04514300  0.04037300  1
  Ni  Ni1  1  0.51127700  0.97744900  0.49556600  1
  Ni  Ni2  1  0.03025800  0.44771700  0.47652200  1
  Ni  Ni3  1  0.99539900  0.55621800  0.02618300  1
  O  O0  1  0.74341300  0.24895600  0.40927000  1
  O  O1  1  0.67326700  0.33371200  0.05927300  1
  O  O2  1  0.20755000  0.15895100  0.53000400  1
  O  O3  1  0.82404700  0.72612400  0.43283000  1
  O  O4  1  0.77343900  0.86066500  0.06637800  1
  O  O5  1  0.38430000  0.93038800  0.26444600  1
  O  O6  1  0.20536700  0.26594700  0.95412400  1
  O  O7  1  0.66293900  0.98273200  0.72480400  1
  O  O8  1  0.86127100  0.50167200  0.79280700  1
  O  O9  1  0.24722700  0.79334400  0.93751400  1
  O  O10  1  0.13035400  0.44790600  0.24872900  1
  O  O11  1  0.29808400  0.65327400  0.57466700  1
loop_
_geom_bond_atom_site_label_1
_geom_bond_atom_site_label_2
_geom_bond_distance
_geom_bond_site_symmetry_2
Mg0 O6 1.990065 1_655
Mg0 O7 1.997851 1_545
Mg0 O8 2.063697 1_555
Mg0 O4 2.112189 1_546
Mg0 O1 2.171629 1_556
Ni0 O6 1.908370 1_554
Ni0 O9 1.937030 1_544
Ni0 O1 1.961663 1_555
Ni0 O5 2.018865 1_545
Ni0 O4 2.102514 1_545
Ni1 O0 2.030045 1_565
Ni1 O7 2.057881 1_555
Ni1 O2 2.062808 1_565
Ni1 O5 2.069026 1_555
Ni1 O11 2.160664 1_555
Ni1 O3 2.414978 1_555
Ni2 O2 1.923322 1_555
Ni2 O0 1.924686 1_455
Ni2 O3 1.960236 1_455
Ni2 O11 1.963724 1_555
Ni2 O10 2.082087 1_555
Ni3 O9 1.989432 1_654
Ni3 O10 2.025031 1_655
Ni3 O1 2.103918 1_555
Ni3 O8 2.104854 1_554
Ni3 O6 2.212741 1_654
Ni3 O4 2.221375 1_555
O0 Tl0 2.264268 1_555
O0 Tl3 2.362292 1_555
O1 Tl0 2.416027 1_555
O1 Tl2 2.473975 1_554
O2 Tl1 2.203229 1_545
O2 Tl3 2.544557 1_455
O3 Tl3 2.310769 1_565
O3 Tl0 2.319405 1_555
O3 Tl1 2.393201 1_655
O4 Tl3 2.278543 1_565
O4 Tl0 2.713014 1_555
O5 Tl3 2.251567 1_465
O5 Tl0 2.354605 1_555
O6 Tl2 2.429350 1_555
O7 Tl1 2.189853 1_655
O7 Tl2 2.559592 1_555
O8 Tl2 2.169524 1_555
O8 Tl1 2.317631 1_655
O9 Tl2 2.240269 1_555
O9 Tl1 2.488754 1_555
O10 Tl0 2.188907 1_555
O10 Tl3 2.347102 1_455
O11 Tl1 2.272292 1_555
O11 Tl2 2.272718 1_555
