# generated using pymatgen
data_CaVF5
_symmetry_space_group_name_H-M   'P 1'
_cell_length_a   10.13504721
_cell_length_b   5.45801211
_cell_length_c   7.63640504
_cell_angle_alpha   69.92995726
_cell_angle_beta   90.00000000
_cell_angle_gamma   90.00000000
_symmetry_Int_Tables_number   1
_chemical_formula_structural   CaVF5
_chemical_formula_sum   'Ca4 V4 F20'
_cell_volume   396.77238546
_cell_formula_units_Z   4
loop_
 _symmetry_equiv_pos_site_id
 _symmetry_equiv_pos_as_xyz
  1  'x, y, z'
loop_
 _atom_site_type_symbol
 _atom_site_label
 _atom_site_symmetry_multiplicity
 _atom_site_fract_x
 _atom_site_fract_y
 _atom_site_fract_z
 _atom_site_occupancy
  Ca  Ca0  1  0.02129323  0.53523443  0.74322187  1
  Ca  Ca1  1  0.52129323  0.46476557  0.75677813  1
  Ca  Ca2  1  0.97870677  0.46476557  0.25677813  1
  Ca  Ca3  1  0.47870677  0.53523443  0.24322187  1
  V  V0  1  0.75289129  0.11161174  0.59876242  1
  V  V1  1  0.25289129  0.88838826  0.90123758  1
  V  V2  1  0.24710871  0.88838826  0.40123758  1
  V  V3  1  0.74710871  0.11161174  0.09876242  1
  F  F0  1  0.87844958  0.40103975  0.55592421  1
  F  F1  1  0.37844958  0.59896025  0.94407579  1
  F  F2  1  0.12155042  0.59896025  0.44407579  1
  F  F3  1  0.62155042  0.40103975  0.05592421  1
  F  F4  1  0.61386290  0.36496411  0.49962093  1
  F  F5  1  0.11386290  0.63503589  0.00037907  1
  F  F6  1  0.38613710  0.63503589  0.50037907  1
  F  F7  1  0.88613710  0.36496411  -0.00037907  1
  F  F8  1  0.39620352  0.11314588  0.80362982  1
  F  F9  1  0.89620352  0.88685412  0.69637018  1
  F  F10  1  0.60379648  0.88685412  0.19637018  1
  F  F11  1  0.10379648  0.11314588  0.30362982  1
  F  F12  1  0.13669150  0.16895277  0.86531418  1
  F  F13  1  0.63669150  0.83104723  0.63468582  1
  F  F14  1  0.86330850  0.83104723  0.13468582  1
  F  F15  1  0.36330850  0.16895277  0.36531418  1
  F  F16  1  0.69299900  0.14370678  0.84007651  1
  F  F17  1  0.19299900  0.85629322  0.65992349  1
  F  F18  1  0.30700100  0.85629322  0.15992349  1
  F  F19  1  0.80700100  0.14370678  0.34007651  1
loop_
_geom_bond_atom_site_label_1
_geom_bond_atom_site_label_2
_geom_bond_distance
_geom_bond_site_symmetry_2
Ca0 F9 2.224220 1_455
Ca0 F12 2.225884 1_555
Ca0 F7 2.307558 1_456
Ca0 F0 2.323162 1_455
Ca0 F17 2.395569 1_555
Ca0 F5 2.401550 1_556
Ca0 F2 2.413838 1_555
Ca1 F8 2.224220 1_555
Ca1 F13 2.225884 1_555
Ca1 F6 2.307558 1_555
Ca1 F1 2.323162 1_555
Ca1 F16 2.395569 1_555
Ca1 F4 2.401550 1_555
Ca1 F3 2.413838 1_556
Ca2 F11 2.224220 1_655
Ca2 F14 2.225884 1_555
Ca2 F5 2.307558 1_655
Ca2 F2 2.323162 1_655
Ca2 F19 2.395569 1_555
Ca2 F7 2.401550 1_555
Ca2 F0 2.413838 1_555
Ca3 F10 2.224220 1_555
Ca3 F15 2.225884 1_555
Ca3 F4 2.307558 1_555
Ca3 F3 2.323162 1_555
Ca3 F18 2.395569 1_555
Ca3 F6 2.401550 1_555
Ca3 F1 2.413838 1_554
F0 V0 1.966507 1_555
F1 V1 1.966507 1_555
F2 V2 1.966507 1_555
F3 V3 1.966507 1_555
F4 V0 1.937069 1_555
F5 V1 1.937069 1_554
F6 V2 1.937069 1_555
F7 V3 1.937069 1_555
F8 V1 1.882171 1_545
F9 V0 1.882171 1_565
F10 V3 1.882171 1_565
F11 V2 1.882171 1_545
F12 V1 1.875859 1_545
F13 V0 1.875859 1_565
F14 V3 1.875859 1_565
F15 V2 1.875859 1_545
F16 V3 1.999063 1_556
F16 V0 2.004124 1_555
F17 V2 1.999063 1_555
F17 V1 2.004124 1_555
F18 V1 1.999063 1_554
F18 V2 2.004124 1_555
F19 V0 1.999063 1_555
F19 V3 2.004124 1_555
