# generated using pymatgen
data_KMg6Cd
_symmetry_space_group_name_H-M   'P 1'
_cell_length_a   5.36733500
_cell_length_b   6.66595000
_cell_length_c   11.69758000
_cell_angle_alpha   90.00000000
_cell_angle_beta   90.00000000
_cell_angle_gamma   90.00000000
_symmetry_Int_Tables_number   1
_chemical_formula_structural   KMg6Cd
_chemical_formula_sum   'K2 Mg12 Cd2'
_cell_volume   418.52054120
_cell_formula_units_Z   2
loop_
 _symmetry_equiv_pos_site_id
 _symmetry_equiv_pos_as_xyz
  1  'x, y, z'
loop_
 _atom_site_type_symbol
 _atom_site_label
 _atom_site_symmetry_multiplicity
 _atom_site_fract_x
 _atom_site_fract_y
 _atom_site_fract_z
 _atom_site_occupancy
  K  K0  1  0.50000000  0.00000000  0.16684500  1
  K  K1  1  0.50000000  0.50000000  0.66684500  1
  Mg  Mg0  1  0.50000000  0.24641600  0.41720800  1
  Mg  Mg1  1  0.50000000  0.75358400  0.41720800  1
  Mg  Mg2  1  0.00000000  0.73915300  0.08056200  1
  Mg  Mg3  1  0.00000000  0.26084700  0.08056200  1
  Mg  Mg4  1  0.00000000  0.00000000  0.34042900  1
  Mg  Mg5  1  0.00000000  0.50000000  0.33322000  1
  Mg  Mg6  1  0.50000000  0.74641600  0.91720800  1
  Mg  Mg7  1  0.50000000  0.25358400  0.91720800  1
  Mg  Mg8  1  0.00000000  0.23915300  0.58056200  1
  Mg  Mg9  1  0.00000000  0.76084700  0.58056200  1
  Mg  Mg10  1  0.00000000  0.50000000  0.84042900  1
  Mg  Mg11  1  0.00000000  0.00000000  0.83322000  1
  Cd  Cd0  1  0.50000000  0.50000000  0.16396200  1
  Cd  Cd1  1  0.50000000  0.00000000  0.66396200  1
loop_
_geom_bond_atom_site_label_1
_geom_bond_atom_site_label_2
_geom_bond_distance
_geom_bond_site_symmetry_2
K0 Mg2 3.353232 1_645
K0 Mg3 3.353232 1_655
K0 Mg2 3.353232 1_545
K0 Mg3 3.353232 1_555
K0 Mg0 3.357836 1_555
K0 Mg1 3.357836 1_545
K0 Mg4 3.365272 1_655
K0 Mg4 3.365272 1_555
K0 Mg6 3.374114 1_544
K0 Mg7 3.374114 1_554
K1 Mg9 3.353232 1_655
K1 Mg9 3.353232 1_555
K1 Mg8 3.353232 1_555
K1 Mg8 3.353232 1_655
K1 Mg6 3.357836 1_555
K1 Mg7 3.357836 1_555
K1 Mg10 3.365272 1_655
K1 Mg10 3.365272 1_555
K1 Mg1 3.374114 1_555
K1 Mg0 3.374114 1_555
Mg0 Mg4 3.272129 1_655
Mg0 Mg4 3.272129 1_555
Mg0 Mg1 3.285193 1_545
Mg0 Mg8 3.294806 1_555
Mg0 Mg8 3.294806 1_655
Mg0 Mg5 3.320342 1_555
Mg0 Mg5 3.320342 1_655
Mg0 Mg1 3.380757 1_555
Mg1 Mg4 3.272129 1_665
Mg1 Mg4 3.272129 1_565
Mg1 Mg9 3.294806 1_655
Mg1 Mg9 3.294806 1_555
Mg1 Mg5 3.320342 1_655
Mg1 Mg5 3.320342 1_555
Mg2 Mg6 3.294806 1_454
Mg2 Mg6 3.294806 1_554
Mg2 Mg5 3.358023 1_555
Mg3 Mg7 3.294806 1_554
Mg3 Mg7 3.294806 1_454
Mg3 Mg5 3.358023 1_555
Mg4 Mg5 3.334042 1_555
Mg4 Mg5 3.334042 1_545
Mg5 Mg9 3.375589 1_555
Mg5 Mg8 3.375589 1_555
Mg6 Mg7 3.285193 1_555
Mg6 Mg7 3.380757 1_565
Mg10 Mg6 3.272129 1_555
Mg10 Mg6 3.272129 1_455
Mg10 Mg7 3.272129 1_455
Mg10 Mg7 3.272129 1_555
Mg10 Mg11 3.334042 1_565
Mg10 Mg11 3.334042 1_555
Mg11 Mg6 3.320342 1_445
Mg11 Mg6 3.320342 1_545
Mg11 Mg7 3.320342 1_455
Mg11 Mg7 3.320342 1_555
Mg11 Mg8 3.358023 1_555
Mg11 Mg9 3.358023 1_545
Mg11 Mg3 3.375589 1_556
Mg11 Mg2 3.375589 1_546
Cd0 Mg2 3.270358 1_655
Cd0 Mg2 3.270358 1_555
Cd0 Mg3 3.270358 1_555
Cd0 Mg3 3.270358 1_655
Cd0 Mg6 3.321080 1_554
Cd0 Mg7 3.321080 1_554
Cd0 K0 3.333146 1_555
Cd0 K0 3.333146 1_565
Cd0 Mg5 3.334983 1_555
Cd0 Mg5 3.334983 1_655
Cd0 Mg1 3.410717 1_555
Cd0 Mg0 3.410717 1_555
Cd1 Mg8 3.270358 1_655
Cd1 Mg8 3.270358 1_555
Cd1 Mg9 3.270358 1_645
Cd1 Mg9 3.270358 1_545
Cd1 Mg0 3.321080 1_555
Cd1 Mg1 3.321080 1_545
Cd1 K1 3.333146 1_545
Cd1 K1 3.333146 1_555
Cd1 Mg11 3.334983 1_655
Cd1 Mg11 3.334983 1_555
Cd1 Mg7 3.410717 1_555
Cd1 Mg6 3.410717 1_545
