# generated using pymatgen
data_BaSr4(FeO3)5
_symmetry_space_group_name_H-M   'P 1'
_cell_length_a   3.92991801
_cell_length_b   3.92987801
_cell_length_c   39.46156300
_cell_angle_alpha   90.00000581
_cell_angle_beta   90.00000000
_cell_angle_gamma   89.99023176
_symmetry_Int_Tables_number   1
_chemical_formula_structural   BaSr4(FeO3)5
_chemical_formula_sum   'Ba2 Sr8 Fe10 O30'
_cell_volume   609.44825322
_cell_formula_units_Z   2
loop_
 _symmetry_equiv_pos_site_id
 _symmetry_equiv_pos_as_xyz
  1  'x, y, z'
loop_
 _atom_site_type_symbol
 _atom_site_label
 _atom_site_symmetry_multiplicity
 _atom_site_fract_x
 _atom_site_fract_y
 _atom_site_fract_z
 _atom_site_occupancy
  Ba  Ba0  1  0.49999900  0.50000000  0.05000300  1
  Ba  Ba1  1  0.50000000  0.50000000  0.54988000  1
  Sr  Sr0  1  0.50000100  0.50000000  0.15147100  1
  Sr  Sr1  1  0.50000000  0.49999900  0.65138100  1
  Sr  Sr2  1  0.50000100  0.50000000  0.44856900  1
  Sr  Sr3  1  0.49999900  0.50000000  0.94865800  1
  Sr  Sr4  1  0.50000000  0.50000000  0.25048700  1
  Sr  Sr5  1  0.50000000  0.49999900  0.75042100  1
  Sr  Sr6  1  0.50000100  0.50000000  0.34958100  1
  Sr  Sr7  1  0.49999900  0.50000000  0.84960500  1
  Fe  Fe0  1  0.99999900  0.00000000  0.80000300  1
  Fe  Fe1  1  0.00000100  0.00000000  0.99874500  1
  Fe  Fe2  1  0.00000000  0.99999900  0.60119000  1
  Fe  Fe3  1  0.99999900  0.00000000  0.70090500  1
  Fe  Fe4  1  0.99999900  0.00000000  0.89907300  1
  Fe  Fe5  1  0.00000100  0.00000100  0.29999500  1
  Fe  Fe6  1  0.00000000  0.00000000  0.49864600  1
  Fe  Fe7  1  0.99999900  0.99999900  0.10134100  1
  Fe  Fe8  1  0.00000000  0.00000000  0.20101000  1
  Fe  Fe9  1  0.00000100  0.00000100  0.39899900  1
  O  O0  1  0.00000000  0.00000000  0.05006800  1
  O  O1  1  0.00000000  0.00000000  0.54994500  1
  O  O2  1  0.00000000  0.00000000  0.15273200  1
  O  O3  1  0.00000000  0.00000000  0.65264000  1
  O  O4  1  0.00000000  0.00000100  0.44728300  1
  O  O5  1  0.00000000  0.00000100  0.94732600  1
  O  O6  1  0.00000100  0.00000000  0.25034000  1
  O  O7  1  0.00000000  0.00000000  0.75030600  1
  O  O8  1  0.00000000  0.00000100  0.34961700  1
  O  O9  1  0.00000000  0.00000000  0.84971900  1
  O  O10  1  0.00000000  0.50000000  0.29998200  1
  O  O11  1  0.00000000  0.49999900  0.80002800  1
  O  O12  1  0.50000100  0.00000100  0.29998200  1
  O  O13  1  0.50000000  0.99999900  0.80002800  1
  O  O14  1  0.00000100  0.50000000  0.49647200  1
  O  O15  1  0.99999900  0.50000000  0.99660100  1
  O  O16  1  0.00000000  0.50000000  0.10353200  1
  O  O17  1  0.00000000  0.50000000  0.60341400  1
  O  O18  1  0.50000000  0.00000000  0.49647200  1
  O  O19  1  0.50000000  0.00000000  0.99660100  1
  O  O20  1  0.50000000  0.00000000  0.10353200  1
  O  O21  1  0.50000000  0.00000000  0.60341300  1
  O  O22  1  0.00000100  0.50000000  0.20151900  1
  O  O23  1  0.00000000  0.50000000  0.70144300  1
  O  O24  1  0.00000000  0.50000000  0.39845000  1
  O  O25  1  0.00000000  0.50000100  0.89858800  1
  O  O26  1  0.50000000  0.00000000  0.20151900  1
  O  O27  1  0.50000000  0.00000000  0.70144300  1
  O  O28  1  0.50000000  0.00000000  0.39845100  1
  O  O29  1  0.50000000  0.00000000  0.89858900  1
loop_
_geom_bond_atom_site_label_1
_geom_bond_atom_site_label_2
_geom_bond_distance
_geom_bond_site_symmetry_2
Ba0 O0 2.778619 1_565
Ba0 O0 2.778625 1_655
Ba0 O0 2.779093 1_555
Ba0 O0 2.779098 1_665
Ba0 O19 2.881286 1_554
Ba0 O19 2.881286 1_564
Ba0 O15 2.881300 1_454
Ba0 O15 2.881300 1_554
Ba0 O20 2.884953 1_565
Ba0 O20 2.884954 1_555
Ba0 O16 2.884965 1_555
Ba0 O16 2.884970 1_655
Ba1 O1 2.778622 1_565
Ba1 O1 2.778622 1_655
Ba1 O1 2.779096 1_665
Ba1 O1 2.779096 1_555
Ba1 O18 2.881459 1_555
Ba1 O18 2.881459 1_565
Ba1 O14 2.881470 1_555
Ba1 O14 2.881476 1_655
Ba1 O21 2.885069 1_565
Ba1 O21 2.885069 1_555
Ba1 O17 2.885112 1_655
Ba1 O17 2.885112 1_555
Fe0 O7 1.961121 1_655
Fe0 O9 1.961871 1_655
Fe0 O11 1.964935 1_655
Fe0 O11 1.964943 1_645
Fe0 O13 1.964955 1_545
Fe0 O13 1.964963 1_645
Fe1 O15 1.966760 1_445
Fe1 O15 1.966760 1_455
Fe1 O19 1.966776 1_555
Fe1 O19 1.966784 1_455
Fe1 O0 2.025286 1_556
Fe1 O5 2.029074 1_555
Fe2 O17 1.966894 1_555
Fe2 O17 1.966902 1_565
Fe2 O21 1.966916 1_465
Fe2 O21 1.966916 1_565
Fe2 O1 2.022208 1_565
Fe2 O3 2.030297 1_565
Fe3 O3 1.904612 1_655
Fe3 O7 1.949441 1_655
Fe3 O23 1.965054 1_655
Fe3 O23 1.965054 1_645
Fe3 O27 1.965070 1_555
Fe3 O27 1.965078 1_655
Fe4 O5 1.904139 1_655
Fe4 O9 1.947586 1_655
Fe4 O25 1.965028 1_645
Fe4 O25 1.965036 1_655
Fe4 O29 1.965048 1_555
Fe4 O29 1.965056 1_655
Fe5 O8 1.958162 1_555
Fe5 O6 1.959464 1_555
Fe5 O10 1.964935 1_555
Fe5 O10 1.964943 1_545
Fe5 O12 1.964959 1_455
Fe5 O12 1.964959 1_555
Fe6 O14 1.966811 1_545
Fe6 O14 1.966811 1_555
Fe6 O18 1.966831 1_455
Fe6 O18 1.966831 1_555
Fe6 O1 2.024339 1_555
Fe6 O4 2.026864 1_555
Fe7 O16 1.966836 1_655
Fe7 O16 1.966844 1_665
Fe7 O20 1.966856 1_565
Fe7 O20 1.966864 1_665
Fe7 O0 2.023313 1_665
Fe7 O2 2.027969 1_665
Fe8 O2 1.905125 1_555
Fe8 O6 1.946639 1_555
Fe8 O22 1.965042 1_555
Fe8 O22 1.965042 1_545
Fe8 O26 1.965062 1_555
Fe8 O26 1.965062 1_455
Fe9 O4 1.905362 1_555
Fe9 O8 1.948691 1_555
Fe9 O24 1.965055 1_555
Fe9 O24 1.965062 1_545
Fe9 O28 1.965074 1_555
Fe9 O28 1.965082 1_455
O2 Sr0 2.779063 1_455
O2 Sr0 2.779069 1_545
O2 Sr0 2.779537 1_445
O2 Sr0 2.779543 1_555
O3 Sr1 2.779062 1_455
O3 Sr1 2.779068 1_545
O3 Sr1 2.779536 1_555
O3 Sr1 2.779541 1_445
O4 Sr2 2.779078 1_455
O4 Sr2 2.779090 1_545
O4 Sr2 2.779558 1_555
O4 Sr2 2.779558 1_445
O5 Sr3 2.779118 1_455
O5 Sr3 2.779118 1_545
O5 Sr3 2.779586 1_555
O5 Sr3 2.779597 1_445
O6 Sr4 2.778624 1_545
O6 Sr4 2.778629 1_455
O6 Sr4 2.779098 1_555
O6 Sr4 2.779103 1_445
O7 Sr5 2.778622 1_455
O7 Sr5 2.778627 1_545
O7 Sr5 2.779095 1_555
O7 Sr5 2.779101 1_445
O8 Sr6 2.778615 1_455
O8 Sr6 2.778627 1_545
O8 Sr6 2.779095 1_445
O8 Sr6 2.779095 1_555
O9 Sr7 2.778622 1_545
O9 Sr7 2.778627 1_455
O9 Sr7 2.779095 1_555
O9 Sr7 2.779101 1_445
O10 Sr4 2.770534 1_455
O10 Sr4 2.770534 1_555
O10 Sr6 2.773426 1_455
O10 Sr6 2.773432 1_555
O11 Sr7 2.772813 1_555
O11 Sr7 2.772819 1_455
O11 Sr5 2.773652 1_455
O11 Sr5 2.773652 1_555
O12 Sr4 2.770517 1_555
O12 Sr4 2.770523 1_545
O12 Sr6 2.773412 1_555
O12 Sr6 2.773418 1_545
O13 Sr7 2.772799 1_555
O13 Sr7 2.772805 1_565
O13 Sr5 2.773637 1_555
O13 Sr5 2.773638 1_565
O14 Sr2 2.726610 1_455
O14 Sr2 2.726610 1_555
O15 Sr3 2.727704 1_555
O15 Sr3 2.727704 1_655
O16 Sr0 2.727592 1_455
O16 Sr0 2.727598 1_555
O17 Sr1 2.728361 1_555
O17 Sr1 2.728361 1_455
O18 Sr2 2.726595 1_545
O18 Sr2 2.726596 1_555
O19 Sr3 2.727690 1_545
O19 Sr3 2.727690 1_555
O20 Sr0 2.727580 1_555
O20 Sr0 2.727581 1_545
O21 Sr1 2.728371 1_555
O21 Sr1 2.728377 1_545
O22 Sr4 2.755910 1_555
O22 Sr4 2.755916 1_455
O22 Sr0 2.785961 1_455
O22 Sr0 2.785961 1_555
O23 Sr5 2.756189 1_555
O23 Sr5 2.756189 1_455
O23 Sr1 2.786353 1_555
O23 Sr1 2.786353 1_455
O24 Sr6 2.753172 1_455
O24 Sr6 2.753178 1_555
O24 Sr2 2.787945 1_455
O24 Sr2 2.787951 1_555
O25 Sr7 2.756325 1_555
O25 Sr7 2.756331 1_455
O25 Sr3 2.786574 1_555
O25 Sr3 2.786579 1_455
O26 Sr4 2.755898 1_555
O26 Sr4 2.755899 1_545
O26 Sr0 2.785947 1_545
O26 Sr0 2.785947 1_555
O27 Sr5 2.756172 1_555
O27 Sr5 2.756178 1_545
O27 Sr1 2.786336 1_555
O27 Sr1 2.786341 1_545
O28 Sr6 2.753188 1_545
O28 Sr6 2.753188 1_555
O28 Sr2 2.787906 1_555
O28 Sr2 2.787906 1_545
O29 Sr7 2.756341 1_545
O29 Sr7 2.756341 1_555
O29 Sr3 2.786534 1_555
O29 Sr3 2.786535 1_545
