# generated using pymatgen
data_Sc3Si3Rh
_symmetry_space_group_name_H-M   'P 1'
_cell_length_a   4.02264751
_cell_length_b   10.20439522
_cell_length_c   11.69066006
_cell_angle_alpha   89.99976386
_cell_angle_beta   90.00000738
_cell_angle_gamma   89.99999579
_symmetry_Int_Tables_number   1
_chemical_formula_structural   Sc3Si3Rh
_chemical_formula_sum   'Sc12 Si12 Rh4'
_cell_volume   479.88622251
_cell_formula_units_Z   4
loop_
 _symmetry_equiv_pos_site_id
 _symmetry_equiv_pos_as_xyz
  1  'x, y, z'
loop_
 _atom_site_type_symbol
 _atom_site_label
 _atom_site_symmetry_multiplicity
 _atom_site_fract_x
 _atom_site_fract_y
 _atom_site_fract_z
 _atom_site_occupancy
  Sc  Sc0  1  0.25000006  0.87734203  0.02026731  1
  Sc  Sc1  1  0.24999994  0.62268402  0.52024180  1
  Sc  Sc2  1  0.75000011  0.12267058  0.97974093  1
  Sc  Sc3  1  0.74999977  0.37732891  0.47974953  1
  Sc  Sc4  1  0.25000027  0.92037582  0.60171013  1
  Sc  Sc5  1  0.24999964  0.57965747  0.10180442  1
  Sc  Sc6  1  0.74999989  0.07963162  0.39823825  1
  Sc  Sc7  1  0.74999974  0.42035236  0.89824874  1
  Sc  Sc8  1  0.24999928  0.65853760  0.79948733  1
  Sc  Sc9  1  0.25000020  0.84152853  0.29954140  1
  Sc  Sc10  1  0.74999971  0.34146035  0.20050463  1
  Sc  Sc11  1  0.74999997  0.15847159  0.70046637  1
  Si  Si0  1  0.24999977  0.01410733  0.82288605  1
  Si  Si1  1  0.25000008  0.48586395  0.32291320  1
  Si  Si2  1  0.75000020  0.98587432  0.17712729  1
  Si  Si3  1  0.74999998  0.51411652  0.67707416  1
  Si  Si4  1  0.25000000  0.24961622  0.84198611  1
  Si  Si5  1  0.24999999  0.25036598  0.34202745  1
  Si  Si6  1  0.75000000  0.75039033  0.15801387  1
  Si  Si7  1  0.74999999  0.74963881  0.65797207  1
  Si  Si8  1  0.25000003  0.19487513  0.54459960  1
  Si  Si9  1  0.24999993  0.30509902  0.04462933  1
  Si  Si10  1  0.74999997  0.80512499  0.45537972  1
  Si  Si11  1  0.75000007  0.69490474  0.95539212  1
  Rh  Rh0  1  0.25000038  0.38906375  0.67854336  1
  Rh  Rh1  1  0.25000045  0.11091622  0.17862021  1
  Rh  Rh2  1  0.75000042  0.61092625  0.32143760  1
  Rh  Rh3  1  0.75000015  0.88907453  0.82139699  1
loop_
_geom_bond_atom_site_label_1
_geom_bond_atom_site_label_2
_geom_bond_distance
_geom_bond_site_symmetry_2
Sc0 Si0 2.696726 1_564
Sc0 Si11 2.843667 1_454
Sc0 Si11 2.843667 1_554
Sc0 Si6 2.883896 1_555
Sc0 Si6 2.883897 1_455
Sc0 Si2 2.938506 1_455
Sc0 Si2 2.938507 1_555
Sc1 Si1 2.696498 1_555
Sc1 Si10 2.843647 1_455
Sc1 Si10 2.843647 1_555
Sc1 Si7 2.883810 1_455
Sc1 Si7 2.883810 1_555
Sc1 Si3 2.938435 1_555
Sc1 Si3 2.938435 1_455
Sc2 Si2 2.696940 1_546
Sc2 Si9 2.843649 1_656
Sc2 Si9 2.843650 1_556
Sc2 Si4 2.883922 1_655
Sc2 Si4 2.883923 1_555
Sc2 Si0 2.938588 1_655
Sc2 Si0 2.938589 1_555
Sc3 Si3 2.696287 1_555
Sc3 Si8 2.843694 1_555
Sc3 Si8 2.843695 1_655
Sc3 Si5 2.883793 1_555
Sc3 Si5 2.883795 1_655
Sc3 Si1 2.938338 1_555
Sc3 Si1 2.938340 1_655
Sc4 Si7 2.741081 1_555
Sc4 Si7 2.741083 1_455
Sc4 Si0 2.756931 1_565
Sc4 Si8 2.879568 1_565
Sc4 Si10 2.890511 1_555
Sc4 Si10 2.890513 1_455
Sc5 Si6 2.740911 1_455
Sc5 Si6 2.740913 1_555
Sc5 Si1 2.756407 1_555
Sc5 Si9 2.880336 1_555
Sc5 Si11 2.891057 1_454
Sc5 Si11 2.891060 1_554
Sc6 Si5 2.740921 1_555
Sc6 Si5 2.740922 1_655
Sc6 Si2 2.756310 1_545
Sc6 Si10 2.879725 1_545
Sc6 Si8 2.890695 1_555
Sc6 Si8 2.890696 1_655
Sc7 Si4 2.741081 1_555
Sc7 Si4 2.741083 1_655
Sc7 Si3 2.757024 1_555
Sc7 Si11 2.880189 1_555
Sc7 Si9 2.890864 1_556
Sc7 Si9 2.890864 1_656
Sc8 Si11 2.739547 1_455
Sc8 Si11 2.739551 1_555
Sc8 Si7 2.765263 1_455
Sc8 Si7 2.765267 1_555
Sc8 Si3 2.874949 1_455
Sc8 Si3 2.874953 1_555
Sc9 Si10 2.739079 1_555
Sc9 Si10 2.739081 1_455
Sc9 Si6 2.765482 1_555
Sc9 Si6 2.765483 1_455
Sc9 Si2 2.874556 1_455
Sc9 Si2 2.874556 1_555
Sc10 Si9 2.739311 1_555
Sc10 Si9 2.739312 1_655
Sc10 Si5 2.765294 1_555
Sc10 Si5 2.765295 1_655
Sc10 Si1 2.874831 1_555
Sc10 Si1 2.874833 1_655
Sc11 Si8 2.739301 1_555
Sc11 Si8 2.739302 1_655
Sc11 Si4 2.765450 1_655
Sc11 Si4 2.765450 1_555
Sc11 Si0 2.874684 1_655
Sc11 Si0 2.874686 1_555
Si0 Si4 2.413578 1_555
Si1 Si5 2.413480 1_555
Si2 Si6 2.413339 1_555
Si3 Si7 2.413714 1_555
Si4 Si9 2.435749 1_556
Si5 Si8 2.434956 1_555
Si10 Si7 2.435174 1_555
Si11 Si6 2.435512 1_556
Rh0 Si3 2.382040 1_555
Rh0 Si3 2.382042 1_455
Rh0 Si4 2.382398 1_555
Rh0 Si8 2.525607 1_555
Rh0 Sc1 3.017963 1_555
Rh0 Sc3 3.075854 1_555
Rh0 Sc3 3.075857 1_455
Rh0 Sc8 3.092036 1_555
Rh0 Sc11 3.106116 1_555
Rh0 Sc11 3.106119 1_455
Rh1 Si2 2.381983 1_545
Rh1 Si2 2.381984 1_445
Rh1 Si5 2.382089 1_555
Rh1 Si9 2.525892 1_555
Rh1 Sc0 3.017972 1_545
Rh1 Sc2 3.076616 1_554
Rh1 Sc2 3.076618 1_454
Rh1 Sc9 3.091122 1_545
Rh1 Sc10 3.105709 1_555
Rh1 Sc10 3.105712 1_455
Rh2 Si1 2.382092 1_655
Rh2 Si1 2.382095 1_555
Rh2 Si6 2.382321 1_555
Rh2 Si10 2.525676 1_555
Rh2 Sc3 3.017853 1_555
Rh2 Sc1 3.075954 1_655
Rh2 Sc1 3.075957 1_555
Rh2 Sc10 3.091905 1_555
Rh2 Sc9 3.106169 1_655
Rh2 Sc9 3.106170 1_555
Rh3 Si0 2.381932 1_665
Rh3 Si0 2.381935 1_565
Rh3 Si7 2.382169 1_555
Rh3 Si11 2.525818 1_555
Rh3 Sc2 3.018084 1_565
Rh3 Sc0 3.076529 1_656
Rh3 Sc0 3.076530 1_556
Rh3 Sc11 3.091257 1_565
Rh3 Sc8 3.105677 1_655
Rh3 Sc8 3.105682 1_555
