# generated using pymatgen
data_CsNaB10(H2O9)2
_symmetry_space_group_name_H-M   'P 1'
_cell_length_a   7.77058223
_cell_length_b   9.10244815
_cell_length_c   11.16168155
_cell_angle_alpha   90.00000000
_cell_angle_beta   103.27817838
_cell_angle_gamma   90.00000000
_symmetry_Int_Tables_number   1
_chemical_formula_structural   CsNaB10(H2O9)2
_chemical_formula_sum   'Cs2 Na2 B20 H8 O36'
_cell_volume   768.37484917
_cell_formula_units_Z   2
loop_
 _symmetry_equiv_pos_site_id
 _symmetry_equiv_pos_as_xyz
  1  'x, y, z'
loop_
 _atom_site_type_symbol
 _atom_site_label
 _atom_site_symmetry_multiplicity
 _atom_site_fract_x
 _atom_site_fract_y
 _atom_site_fract_z
 _atom_site_occupancy
  Cs  Cs0  1  0.74399120  0.32588416  0.25017615  1
  Cs  Cs1  1  0.24399120  0.67411584  0.75017615  1
  Na  Na0  1  0.69101742  0.91553954  0.74620744  1
  Na  Na1  1  0.19101742  0.08446046  0.24620744  1
  B  B0  1  0.27627131  0.04433382  0.96920583  1
  B  B1  1  0.22462220  0.04280476  0.53202882  1
  B  B2  1  0.72462220  0.95719524  0.03202882  1
  B  B3  1  0.77627131  0.95566618  0.46920583  1
  B  B4  1  0.46311469  0.23491299  0.91895911  1
  B  B5  1  0.03748653  0.23426702  0.58185686  1
  B  B6  1  0.53748653  0.76573298  0.08185686  1
  B  B7  1  0.96311469  0.76508701  0.41895911  1
  B  B8  1  0.74970103  0.58479825  0.75012549  1
  B  B9  1  0.24970103  0.41520175  0.25012549  1
  B  B10  1  0.88123320  0.64949140  0.96639268  1
  B  B11  1  0.61763163  0.64862978  0.53290236  1
  B  B12  1  0.11763163  0.35137022  0.03290236  1
  B  B13  1  0.38123320  0.35050860  0.46639268  1
  B  B14  1  0.25104058  0.10821241  0.75074619  1
  B  B15  1  0.75104058  0.89178759  0.25074619  1
  B  B16  1  0.66872470  0.45318899  0.92126923  1
  B  B17  1  0.83162129  0.45307848  0.57883553  1
  B  B18  1  0.33162129  0.54692152  0.07883553  1
  B  B19  1  0.16872470  0.54681101  0.42126923  1
  H  H0  1  0.99090109  0.71577991  0.13768093  1
  H  H1  1  0.50899922  0.71756460  0.36184942  1
  H  H2  1  0.00899922  0.28243540  0.86184942  1
  H  H3  1  0.49090109  0.28422009  0.63768093  1
  H  H4  1  0.14251649  0.88828493  0.04083730  1
  H  H5  1  0.35798353  0.88874265  0.45593977  1
  H  H6  1  0.85798353  0.11125735  0.95593977  1
  H  H7  1  0.64251649  0.11171507  0.54083730  1
  O  O0  1  0.39986340  0.15625723  0.00739320  1
  O  O1  1  0.09995748  0.15413192  0.49342737  1
  O  O2  1  0.59995748  0.84586808  0.99342737  1
  O  O3  1  0.89986340  0.84374277  0.50739320  1
  O  O4  1  0.22758190  0.96990627  0.06433039  1
  O  O5  1  0.26888363  0.96773719  0.43586812  1
  O  O6  1  0.76888363  0.03226281  0.93586812  1
  O  O7  1  0.72758190  0.03009373  0.56433039  1
  O  O8  1  0.21263095  0.01299290  0.84803710  1
  O  O9  1  0.29239300  0.01297340  0.65310461  1
  O  O10  1  0.79239300  0.98702660  0.15310461  1
  O  O11  1  0.71263095  0.98700710  0.34803710  1
  O  O12  1  0.63047484  0.48879871  0.80040870  1
  O  O13  1  0.86954531  0.48958033  0.69953991  1
  O  O14  1  0.36954531  0.51041967  0.19953991  1
  O  O15  1  0.13047484  0.51120129  0.30040870  1
  O  O16  1  0.40667415  0.20645234  0.79690324  1
  O  O17  1  0.09597462  0.20651902  0.70368312  1
  O  O18  1  0.59597462  0.79348098  0.20368312  1
  O  O19  1  0.90667415  0.79354766  0.29690324  1
  O  O20  1  0.58504263  0.34209058  0.96944618  1
  O  O21  1  0.91549063  0.34147177  0.53112467  1
  O  O22  1  0.41549063  0.65852823  0.03112467  1
  O  O23  1  0.08504263  0.65790942  0.46944618  1
  O  O24  1  0.99458549  0.73616835  0.05188517  1
  O  O25  1  0.50497142  0.73623497  0.44782314  1
  O  O26  1  0.00497142  0.26376503  0.94782314  1
  O  O27  1  0.49458549  0.26383165  0.55188517  1
  O  O28  1  0.79451556  0.53231549  0.00761603  1
  O  O29  1  0.70573363  0.53210136  0.49227858  1
  O  O30  1  0.20573363  0.46789864  0.99227858  1
  O  O31  1  0.29451556  0.46768451  0.50761603  1
  O  O32  1  0.85749038  0.68227525  0.84445462  1
  O  O33  1  0.63853485  0.68045325  0.65486273  1
  O  O34  1  0.13853485  0.31954675  0.15486273  1
  O  O35  1  0.35749038  0.31772475  0.34445462  1
loop_
_geom_bond_atom_site_label_1
_geom_bond_atom_site_label_2
_geom_bond_distance
_geom_bond_site_symmetry_2
Cs0 O20 3.096419 1_554
Cs0 O21 3.116093 1_555
Cs0 O14 3.294182 1_555
Cs0 O11 3.299937 1_545
Cs0 O10 3.319083 1_545
Cs0 O29 3.359032 1_555
Cs0 O15 3.377208 1_655
Cs0 O28 3.391616 1_555
Cs0 O35 3.403625 1_555
Cs0 O34 3.468819 1_655
Cs1 O23 3.096419 1_555
Cs1 O22 3.116093 1_556
Cs1 O13 3.294182 1_455
Cs1 O8 3.299937 1_565
Cs1 O9 3.319083 1_565
Cs1 O30 3.359032 1_555
Cs1 O12 3.377208 1_555
Cs1 O31 3.391616 1_555
Cs1 O32 3.403625 1_455
Cs1 O33 3.468819 1_555
Na0 O6 2.321198 1_565
Na0 O7 2.356708 1_565
Na0 O33 2.365127 1_555
Na0 O32 2.594724 1_555
Na1 O5 2.321198 1_545
Na1 O4 2.356708 1_545
Na1 O34 2.365127 1_555
Na1 O35 2.594724 1_555
B0 O8 1.359347 1_555
B0 O4 1.383458 1_546
B0 O0 1.397813 1_556
B1 O9 1.360314 1_555
B1 O5 1.380858 1_545
B1 O1 1.399715 1_555
B2 O10 1.360314 1_555
B2 O6 1.380858 1_564
B2 O2 1.399715 1_554
B3 O11 1.359347 1_555
B3 O7 1.383458 1_565
B3 O3 1.397813 1_555
B4 O16 1.356832 1_555
B4 O20 1.386260 1_555
B4 O0 1.396904 1_556
B5 O17 1.354800 1_555
B5 O21 1.387431 1_455
B5 O1 1.400720 1_555
B6 O18 1.354800 1_555
B6 O22 1.387431 1_555
B6 O2 1.400720 1_554
B7 O19 1.356832 1_555
B7 O23 1.386260 1_655
B7 O3 1.396904 1_555
B8 O12 1.475043 1_555
B8 O13 1.476066 1_555
B8 O32 1.480628 1_555
B8 O33 1.487607 1_555
B9 O15 1.475043 1_555
B9 O14 1.476066 1_555
B9 O35 1.480628 1_555
B9 O34 1.487607 1_555
B10 O32 1.363875 1_555
B10 O24 1.386647 1_556
B10 O28 1.394925 1_556
B11 O33 1.364483 1_555
B11 O25 1.386427 1_555
B11 O29 1.393537 1_555
B12 O34 1.364483 1_555
B12 O26 1.386427 1_554
B12 O30 1.393537 1_554
B13 O35 1.363875 1_555
B13 O27 1.386647 1_555
B13 O31 1.394925 1_555
B14 O8 1.472559 1_555
B14 O9 1.484390 1_555
B14 O17 1.495934 1_555
B14 O16 1.497135 1_555
B15 O11 1.472559 1_555
B15 O10 1.484390 1_555
B15 O18 1.495934 1_555
B15 O19 1.497135 1_555
B16 O12 1.352421 1_555
B16 O20 1.376692 1_555
B16 O28 1.403680 1_556
B17 O13 1.352767 1_555
B17 O21 1.378328 1_555
B17 O29 1.404838 1_555
B18 O14 1.352767 1_555
B18 O22 1.378328 1_555
B18 O30 1.404838 1_554
B19 O15 1.352421 1_555
B19 O23 1.376692 1_555
B19 O31 1.403680 1_555
H0 O24 0.982294 1_555
H1 O25 0.982095 1_555
H2 O26 0.982095 1_555
H3 O27 0.982294 1_555
H4 O4 0.988965 1_555
H5 O5 0.987584 1_555
H6 O6 0.987584 1_555
H7 O7 0.988965 1_555
