# generated using pymatgen
data_LiYb8Ge13
_symmetry_space_group_name_H-M   'P 1'
_cell_length_a   15.05489243
_cell_length_b   13.12147802
_cell_length_c   11.21946321
_cell_angle_alpha   110.10790543
_cell_angle_beta   90.00000000
_cell_angle_gamma   90.00000000
_symmetry_Int_Tables_number   1
_chemical_formula_structural   LiYb8Ge13
_chemical_formula_sum   'Li4 Yb32 Ge52'
_cell_volume   2081.22839401
_cell_formula_units_Z   4
loop_
 _symmetry_equiv_pos_site_id
 _symmetry_equiv_pos_as_xyz
  1  'x, y, z'
loop_
 _atom_site_type_symbol
 _atom_site_label
 _atom_site_symmetry_multiplicity
 _atom_site_fract_x
 _atom_site_fract_y
 _atom_site_fract_z
 _atom_site_occupancy
  Li  Li0  1  0.12544801  0.40574534  0.13979605  1
  Li  Li1  1  0.37455199  0.90574534  0.13979605  1
  Li  Li2  1  0.87455199  0.59425466  0.86020395  1
  Li  Li3  1  0.62544801  0.09425466  0.86020395  1
  Yb  Yb0  1  0.82572695  0.57607555  0.11450963  1
  Yb  Yb1  1  0.21612553  0.95513120  0.63600307  1
  Yb  Yb2  1  0.03144008  0.93599723  0.14773179  1
  Yb  Yb3  1  0.57205099  0.11570401  0.59948052  1
  Yb  Yb4  1  0.42794901  0.88429599  0.40051948  1
  Yb  Yb5  1  0.67427305  0.07607555  0.11450963  1
  Yb  Yb6  1  0.17427305  0.42392445  0.88549037  1
  Yb  Yb7  1  0.62950441  0.79217369  0.08435624  1
  Yb  Yb8  1  0.12430179  0.15676327  0.08872008  1
  Yb  Yb9  1  0.92794901  0.61570401  0.59948052  1
  Yb  Yb10  1  0.07205099  0.38429599  0.40051948  1
  Yb  Yb11  1  0.37049559  0.20782631  0.91564376  1
  Yb  Yb12  1  0.37569821  0.65676327  0.08872008  1
  Yb  Yb13  1  0.57077699  0.75544495  0.63169672  1
  Yb  Yb14  1  0.53144008  0.56400277  0.85226821  1
  Yb  Yb15  1  0.92922301  0.25544495  0.63169672  1
  Yb  Yb16  1  0.07077699  0.74455505  0.36830328  1
  Yb  Yb17  1  0.81470511  0.90881210  0.61523687  1
  Yb  Yb18  1  0.46855992  0.43599723  0.14773179  1
  Yb  Yb19  1  0.78387447  0.04486880  0.36399693  1
  Yb  Yb20  1  0.42922301  0.24455505  0.36830328  1
  Yb  Yb21  1  0.28387447  0.45513120  0.63600307  1
  Yb  Yb22  1  0.87569821  0.84323673  0.91127992  1
  Yb  Yb23  1  0.31470511  0.59118790  0.38476313  1
  Yb  Yb24  1  0.71612553  0.54486880  0.36399693  1
  Yb  Yb25  1  0.68529489  0.40881210  0.61523687  1
  Yb  Yb26  1  0.96855992  0.06400277  0.85226821  1
  Yb  Yb27  1  0.12950441  0.70782631  0.91564376  1
  Yb  Yb28  1  0.62430179  0.34323673  0.91127992  1
  Yb  Yb29  1  0.32572695  0.92392445  0.88549037  1
  Yb  Yb30  1  0.18529489  0.09118790  0.38476313  1
  Yb  Yb31  1  0.87049559  0.29217369  0.08435624  1
  Ge  Ge0  1  0.73825915  0.66395905  0.73420698  1
  Ge  Ge1  1  0.63076742  0.20375029  0.41255324  1
  Ge  Ge2  1  0.21592460  0.95206387  0.11115492  1
  Ge  Ge3  1  0.91548210  0.49834129  0.30780459  1
  Ge  Ge4  1  0.47571274  0.06145698  0.11025992  1
  Ge  Ge5  1  0.63567368  0.89443777  0.46565880  1
  Ge  Ge6  1  0.36432632  0.10556223  0.53434120  1
  Ge  Ge7  1  0.97571274  0.43854302  0.88974008  1
  Ge  Ge8  1  0.86923258  0.70375029  0.41255324  1
  Ge  Ge9  1  0.90082890  0.83422449  0.28826721  1
  Ge  Ge10  1  0.52597510  0.52670719  0.40965908  1
  Ge  Ge11  1  0.59917110  0.33422449  0.28826721  1
  Ge  Ge12  1  0.53211488  0.68140728  0.31906270  1
  Ge  Ge13  1  0.03211488  0.81859272  0.68093730  1
  Ge  Ge14  1  0.47402490  0.47329281  0.59034092  1
  Ge  Ge15  1  0.11452255  0.93244133  0.89262176  1
  Ge  Ge16  1  0.40082890  0.66577551  0.71173279  1
  Ge  Ge17  1  0.88547745  0.06755867  0.10737824  1
  Ge  Ge18  1  0.09917110  0.16577551  0.71173279  1
  Ge  Ge19  1  0.03964615  0.27797507  0.93204500  1
  Ge  Ge20  1  0.46035385  0.77797507  0.93204500  1
  Ge  Ge21  1  0.02597510  0.97329281  0.59034092  1
  Ge  Ge22  1  0.58451790  -0.00165871  0.30780459  1
  Ge  Ge23  1  0.76174085  0.16395905  0.73420698  1
  Ge  Ge24  1  0.71592460  0.54793613  0.88884508  1
  Ge  Ge25  1  0.18757141  0.62125096  0.12904331  1
  Ge  Ge26  1  0.46788512  0.31859272  0.68093730  1
  Ge  Ge27  1  0.08451790  0.50165871  0.69219541  1
  Ge  Ge28  1  0.38547745  0.43244133  0.89262176  1
  Ge  Ge29  1  0.52428726  0.93854302  0.88974008  1
  Ge  Ge30  1  0.23825915  0.83604095  0.26579302  1
  Ge  Ge31  1  0.41548210  0.00165871  0.69219541  1
  Ge  Ge32  1  0.31242859  0.12125096  0.12904331  1
  Ge  Ge33  1  0.36923258  0.79624971  0.58744676  1
  Ge  Ge34  1  0.86432632  0.39443777  0.46565880  1
  Ge  Ge35  1  0.68757141  0.87874904  0.87095669  1
  Ge  Ge36  1  0.78407540  0.04793613  0.88884508  1
  Ge  Ge37  1  0.28407540  0.45206387  0.11115492  1
  Ge  Ge38  1  0.26331835  0.23014480  0.69911476  1
  Ge  Ge39  1  0.13567368  0.60556223  0.53434120  1
  Ge  Ge40  1  0.23668165  0.73014480  0.69911476  1
  Ge  Ge41  1  0.96035385  0.72202493  0.06795500  1
  Ge  Ge42  1  0.61452255  0.56755867  0.10737824  1
  Ge  Ge43  1  0.73668165  0.76985520  0.30088524  1
  Ge  Ge44  1  0.26174085  0.33604095  0.26579302  1
  Ge  Ge45  1  0.53964615  0.22202493  0.06795500  1
  Ge  Ge46  1  0.76331835  0.26985520  0.30088524  1
  Ge  Ge47  1  0.81242859  0.37874904  0.87095669  1
  Ge  Ge48  1  0.96788512  0.18140728  0.31906270  1
  Ge  Ge49  1  0.97402490  0.02670719  0.40965908  1
  Ge  Ge50  1  0.02428726  0.56145698  0.11025992  1
  Ge  Ge51  1  0.13076742  0.29624971  0.58744676  1
loop_
_geom_bond_atom_site_label_1
_geom_bond_atom_site_label_2
_geom_bond_distance
_geom_bond_site_symmetry_2
Li0 Yb6 3.034100 1_554
Li0 Yb8 3.116858 1_555
Li0 Yb10 3.138181 1_555
Li1 Yb29 3.034100 1_554
Li1 Yb12 3.116858 1_555
Li1 Yb4 3.138181 1_555
Li2 Yb0 3.034100 1_556
Li2 Yb22 3.116858 1_555
Li2 Yb9 3.138181 1_555
Li3 Yb5 3.034100 1_556
Li3 Yb28 3.116858 1_555
Li3 Yb3 3.138181 1_555
Ge0 Ge24 2.693864 1_555
Ge0 Ge35 2.811810 1_555
Ge0 Li2 2.816742 1_555
Ge0 Yb13 3.173431 1_555
Ge0 Yb9 3.191084 1_555
Ge0 Yb22 3.247850 1_555
Ge0 Yb25 3.248586 1_555
Ge1 Ge11 2.596751 1_555
Ge1 Ge22 2.636760 1_555
Ge1 Ge46 2.655448 1_555
Ge1 Yb3 2.860141 1_555
Ge1 Yb25 2.979569 1_555
Ge1 Yb19 3.029055 1_555
Ge1 Yb20 3.149994 1_555
Ge1 Yb5 3.250441 1_555
Ge2 Li1 2.511978 1_555
Ge2 Ge32 2.602510 1_565
Ge2 Ge30 2.693864 1_555
Ge2 Yb2 2.825996 1_555
Ge2 Yb29 2.938770 1_554
Ge2 Yb30 3.019162 1_565
Ge2 Yb8 3.105680 1_565
Ge2 Yb27 3.455615 1_554
Ge3 Ge8 2.636760 1_555
Ge3 Ge34 2.692339 1_555
Ge3 Yb0 3.015014 1_555
Ge3 Yb31 3.065734 1_555
Ge3 Yb24 3.084363 1_555
Ge3 Yb9 3.106544 1_555
Ge3 Yb10 3.154002 1_655
Ge4 Ge45 2.505649 1_555
Ge4 Li1 2.658815 1_545
Ge4 Yb5 2.994782 1_555
Ge4 Yb20 3.140241 1_555
Ge5 Yb3 2.933229 1_565
Ge5 Yb17 3.146249 1_555
Ge5 Yb13 3.176007 1_555
Ge5 Yb4 3.203870 1_555
Ge5 Yb19 3.423911 1_565
Ge6 Yb4 2.933229 1_545
Ge6 Yb30 3.146249 1_555
Ge6 Yb20 3.176007 1_555
Ge6 Yb3 3.203870 1_555
Ge6 Yb1 3.423911 1_545
Ge7 Li2 2.658815 1_555
Ge7 Yb6 2.994782 1_655
Ge7 Yb15 3.140241 1_555
Ge8 Ge9 2.596751 1_555
Ge8 Yb9 2.860141 1_555
Ge8 Yb17 2.979569 1_555
Ge8 Yb24 3.029055 1_555
Ge8 Yb16 3.149994 1_655
Ge8 Yb0 3.250441 1_555
Ge9 Yb16 3.076255 1_655
Ge9 Yb2 3.095745 1_655
Ge9 Yb19 3.137975 1_565
Ge9 Yb0 3.465861 1_555
Ge9 Yb17 3.691574 1_555
Ge10 Ge14 2.487803 1_555
Ge10 Ge12 2.565313 1_555
Ge10 Ge11 2.661394 1_555
Ge10 Yb18 2.897364 1_555
Ge10 Yb24 2.932270 1_555
Ge10 Yb13 3.244698 1_555
Ge10 Yb23 3.327594 1_555
Ge11 Ge45 2.564785 1_555
Ge11 Ge46 2.631076 1_555
Ge11 Yb20 3.076255 1_555
Ge11 Yb18 3.095745 1_555
Ge11 Yb24 3.137975 1_555
Ge11 Yb5 3.465861 1_555
Ge11 Yb25 3.691574 1_555
Ge12 Ge42 2.640437 1_555
Ge12 Yb4 2.951088 1_555
Ge12 Yb18 3.274719 1_555
Ge12 Yb13 3.353022 1_555
Ge12 Yb12 3.428401 1_555
Ge12 Yb24 3.429185 1_555
Ge13 Ge21 2.565313 1_555
Ge13 Ge15 2.640437 1_555
Ge13 Yb9 2.951088 1_455
Ge13 Yb26 3.274719 1_465
Ge13 Yb16 3.353022 1_555
Ge13 Yb22 3.428401 1_455
Ge13 Yb1 3.429185 1_555
Ge14 Ge26 2.565313 1_555
Ge14 Ge16 2.661394 1_555
Ge14 Yb14 2.897364 1_555
Ge14 Yb21 2.932270 1_555
Ge14 Yb20 3.244698 1_555
Ge14 Yb25 3.327594 1_555
Ge15 Ge2 2.823859 1_556
Ge15 Yb26 2.924244 1_465
Ge15 Yb8 3.012194 1_566
Ge15 Yb27 3.054093 1_555
Ge15 Yb2 3.109184 1_556
Ge15 Yb29 3.181663 1_555
Ge15 Yb1 3.362606 1_555
Ge16 Ge20 2.564785 1_555
Ge16 Ge33 2.596751 1_555
Ge16 Ge40 2.631076 1_555
Ge16 Yb13 3.076255 1_555
Ge16 Yb14 3.095745 1_555
Ge16 Yb21 3.137975 1_555
Ge16 Yb29 3.465861 1_555
Ge16 Yb23 3.691574 1_555
Ge17 Ge48 2.640437 1_555
Ge17 Ge36 2.823859 1_554
Ge17 Yb2 2.924244 1_645
Ge17 Yb22 3.012194 1_544
Ge17 Yb31 3.054093 1_555
Ge17 Yb26 3.109184 1_554
Ge17 Yb5 3.181663 1_555
Ge17 Yb19 3.362606 1_555
Ge18 Ge19 2.564785 1_555
Ge18 Ge51 2.596751 1_555
Ge18 Ge38 2.631076 1_555
Ge18 Ge21 2.661394 1_545
Ge18 Yb15 3.076255 1_455
Ge18 Yb26 3.095745 1_455
Ge18 Yb1 3.137975 1_545
Ge18 Yb6 3.465861 1_555
Ge18 Yb30 3.691574 1_555
Ge19 Ge7 2.505649 1_455
Ge19 Li0 2.688001 1_556
Ge19 Yb26 2.846290 1_455
Ge19 Yb6 2.955668 1_555
Ge19 Yb8 3.027561 1_556
Ge19 Yb31 3.036587 1_456
Ge20 Ge29 2.505649 1_555
Ge20 Li1 2.688001 1_556
Ge20 Yb14 2.846290 1_555
Ge20 Yb29 2.955668 1_555
Ge20 Yb12 3.027561 1_556
Ge20 Yb7 3.036587 1_556
Ge21 Ge49 2.487803 1_465
Ge21 Yb26 2.897364 1_465
Ge21 Yb1 2.932270 1_555
Ge21 Yb16 3.244698 1_555
Ge21 Yb17 3.327594 1_455
Ge22 Ge5 2.692339 1_545
Ge22 Yb5 3.015014 1_555
Ge22 Yb7 3.065734 1_545
Ge22 Yb19 3.084363 1_555
Ge22 Yb3 3.106544 1_555
Ge22 Yb4 3.154002 1_545
Ge23 Ge36 2.693864 1_555
Ge23 Ge47 2.811810 1_555
Ge23 Li3 2.816742 1_555
Ge23 Yb15 3.173431 1_555
Ge23 Yb3 3.191084 1_555
Ge23 Yb28 3.247850 1_555
Ge23 Yb17 3.248586 1_545
Ge24 Li2 2.511978 1_555
Ge24 Ge47 2.602510 1_555
Ge24 Ge42 2.823859 1_556
Ge24 Yb14 2.825996 1_555
Ge24 Yb0 2.938770 1_556
Ge24 Yb25 3.019162 1_555
Ge24 Yb28 3.105680 1_555
Ge24 Yb7 3.455615 1_556
Ge25 Ge50 2.566938 1_555
Ge25 Ge37 2.602510 1_555
Ge25 Ge30 2.811810 1_555
Ge25 Yb12 2.930575 1_555
Ge25 Li0 3.019936 1_555
Ge25 Yb6 3.057149 1_554
Ge25 Yb27 3.107592 1_554
Ge25 Yb16 3.151034 1_555
Ge25 Yb23 3.581689 1_555
Ge26 Ge28 2.640437 1_555
Ge26 Yb3 2.951088 1_555
Ge26 Yb14 3.274719 1_555
Ge26 Yb20 3.353022 1_555
Ge26 Yb28 3.428401 1_555
Ge26 Yb21 3.429185 1_555
Ge27 Ge51 2.636760 1_555
Ge27 Ge39 2.692339 1_555
Ge27 Yb6 3.015014 1_555
Ge27 Yb27 3.065734 1_555
Ge27 Yb21 3.084363 1_555
Ge27 Yb10 3.106544 1_555
Ge27 Yb9 3.154002 1_455
Ge28 Ge37 2.823859 1_556
Ge28 Yb14 2.924244 1_555
Ge28 Yb12 3.012194 1_556
Ge28 Yb11 3.054093 1_555
Ge28 Yb18 3.109184 1_556
Ge28 Yb6 3.181663 1_555
Ge28 Yb21 3.362606 1_555
Ge29 Ge35 2.566938 1_555
Ge29 Li3 2.658815 1_565
Ge29 Yb29 2.994782 1_555
Ge29 Yb13 3.140241 1_555
Ge30 Li1 2.816742 1_555
Ge30 Yb16 3.173431 1_555
Ge30 Yb4 3.191084 1_555
Ge30 Yb12 3.247850 1_555
Ge30 Yb30 3.248586 1_565
Ge31 Ge33 2.636760 1_545
Ge31 Ge6 2.692339 1_555
Ge31 Yb29 3.015014 1_545
Ge31 Yb11 3.065734 1_555
Ge31 Yb1 3.084363 1_545
Ge31 Yb4 3.106544 1_545
Ge31 Yb3 3.154002 1_555
Ge32 Ge4 2.566938 1_555
Ge32 Ge44 2.811810 1_555
Ge32 Yb8 2.930575 1_555
Ge32 Li1 3.019936 1_545
Ge32 Yb29 3.057149 1_544
Ge32 Yb11 3.107592 1_554
Ge32 Yb20 3.151034 1_555
Ge32 Yb30 3.581689 1_555
Ge33 Ge40 2.655448 1_555
Ge33 Yb4 2.860141 1_555
Ge33 Yb23 2.979569 1_555
Ge33 Yb1 3.029055 1_555
Ge33 Yb13 3.149994 1_555
Ge33 Yb29 3.250441 1_555
Ge34 Ge46 2.514833 1_555
Ge34 Yb9 2.933229 1_555
Ge34 Yb25 3.146249 1_555
Ge34 Yb15 3.176007 1_555
Ge34 Yb10 3.203870 1_655
Ge34 Yb24 3.423911 1_555
Ge35 Ge36 2.602510 1_565
Ge35 Yb22 2.930575 1_555
Ge35 Li3 3.019936 1_565
Ge35 Yb5 3.057149 1_566
Ge35 Yb7 3.107592 1_556
Ge35 Yb13 3.151034 1_555
Ge35 Yb17 3.581689 1_555
Ge36 Li3 2.511978 1_555
Ge36 Yb26 2.825996 1_555
Ge36 Yb5 2.938770 1_556
Ge36 Yb17 3.019162 1_545
Ge36 Yb22 3.105680 1_545
Ge36 Yb31 3.455615 1_556
Ge37 Li0 2.511978 1_555
Ge37 Ge44 2.693864 1_555
Ge37 Yb18 2.825996 1_555
Ge37 Yb6 2.938770 1_554
Ge37 Yb23 3.019162 1_555
Ge37 Yb12 3.105680 1_555
Ge37 Yb11 3.455615 1_554
Ge38 Ge6 2.514833 1_555
Ge38 Ge51 2.655448 1_555
Ge38 Yb6 2.996500 1_555
Ge38 Yb11 3.013326 1_555
Ge38 Yb21 3.278666 1_555
Ge38 Yb1 3.503023 1_545
Ge38 Yb30 3.566714 1_555
Ge39 Ge40 2.514833 1_555
Ge39 Yb10 2.933229 1_555
Ge39 Yb23 3.146249 1_555
Ge39 Yb16 3.176007 1_555
Ge39 Yb9 3.203870 1_455
Ge39 Yb21 3.423911 1_555
Ge40 Yb29 2.996500 1_555
Ge40 Yb27 3.013326 1_555
Ge40 Yb1 3.278666 1_555
Ge40 Yb21 3.503023 1_555
Ge40 Yb23 3.566714 1_555
Ge41 Ge50 2.505649 1_655
Ge41 Ge9 2.564785 1_555
Ge41 Li2 2.688001 1_554
Ge41 Yb2 2.846290 1_655
Ge41 Yb0 2.955668 1_555
Ge41 Yb22 3.027561 1_554
Ge41 Yb27 3.036587 1_654
Ge42 Yb18 2.924244 1_555
Ge42 Yb28 3.012194 1_554
Ge42 Yb7 3.054093 1_555
Ge42 Yb14 3.109184 1_554
Ge42 Yb0 3.181663 1_555
Ge42 Yb24 3.362606 1_555
Ge43 Ge5 2.514833 1_555
Ge43 Ge9 2.631076 1_555
Ge43 Ge8 2.655448 1_555
Ge43 Yb0 2.996500 1_555
Ge43 Yb7 3.013326 1_555
Ge43 Yb24 3.278666 1_555
Ge43 Yb19 3.503023 1_565
Ge43 Yb17 3.566714 1_555
Ge44 Li0 2.816742 1_555
Ge44 Yb20 3.173431 1_555
Ge44 Yb10 3.191084 1_555
Ge44 Yb8 3.247850 1_555
Ge44 Yb23 3.248586 1_555
Ge45 Li3 2.688001 1_554
Ge45 Yb18 2.846290 1_555
Ge45 Yb5 2.955668 1_555
Ge45 Yb28 3.027561 1_554
Ge45 Yb11 3.036587 1_554
Ge46 Yb5 2.996500 1_555
Ge46 Yb31 3.013326 1_555
Ge46 Yb19 3.278666 1_555
Ge46 Yb24 3.503023 1_555
Ge46 Yb25 3.566714 1_555
Ge47 Ge7 2.566938 1_555
Ge47 Yb28 2.930575 1_555
Ge47 Li2 3.019936 1_555
Ge47 Yb0 3.057149 1_556
Ge47 Yb31 3.107592 1_556
Ge47 Yb15 3.151034 1_555
Ge47 Yb25 3.581689 1_555
Ge48 Ge49 2.565313 1_555
Ge48 Yb10 2.951088 1_655
Ge48 Yb2 3.274719 1_645
Ge48 Yb15 3.353022 1_555
Ge48 Yb8 3.428401 1_655
Ge48 Yb19 3.429185 1_555
Ge49 Ge9 2.661394 1_545
Ge49 Yb2 2.897364 1_645
Ge49 Yb19 2.932270 1_555
Ge49 Yb15 3.244698 1_555
Ge49 Yb30 3.327594 1_655
Ge50 Li0 2.658815 1_555
Ge50 Yb0 2.994782 1_455
Ge50 Yb16 3.140241 1_555
Ge51 Yb10 2.860141 1_555
Ge51 Yb30 2.979569 1_555
Ge51 Yb21 3.029055 1_555
Ge51 Yb15 3.149994 1_455
Ge51 Yb6 3.250441 1_555
