# generated using pymatgen
data_Ca5Sc2(CoO6)2
_symmetry_space_group_name_H-M   'P 1'
_cell_length_a   6.43206885
_cell_length_b   9.37263984
_cell_length_c   8.82728640
_cell_angle_alpha   90.11191630
_cell_angle_beta   93.52708287
_cell_angle_gamma   88.68792383
_symmetry_Int_Tables_number   1
_chemical_formula_structural   Ca5Sc2(CoO6)2
_chemical_formula_sum   'Ca10 Sc4 Co4 O24'
_cell_volume   531.00972374
_cell_formula_units_Z   2
loop_
 _symmetry_equiv_pos_site_id
 _symmetry_equiv_pos_as_xyz
  1  'x, y, z'
loop_
 _atom_site_type_symbol
 _atom_site_label
 _atom_site_symmetry_multiplicity
 _atom_site_fract_x
 _atom_site_fract_y
 _atom_site_fract_z
 _atom_site_occupancy
  Ca  Ca0  1  0.61446400  0.31790400  0.56609300  1
  Ca  Ca1  1  0.61859900  0.81574100  0.06736300  1
  Ca  Ca2  1  0.73937900  0.13535500  0.24569500  1
  Ca  Ca3  1  0.74289900  0.63247300  0.74502400  1
  Ca  Ca4  1  0.12049200  0.18616200  0.57180200  1
  Ca  Ca5  1  0.12112600  0.68424100  0.07544600  1
  Ca  Ca6  1  0.89265700  0.80895000  0.43441100  1
  Ca  Ca7  1  0.88788700  0.31451000  0.93437700  1
  Ca  Ca8  1  0.25349700  0.86394700  0.74295100  1
  Ca  Ca9  1  0.25425300  0.36816300  0.24404400  1
  Sc  Sc0  1  0.24744300  0.00130800  0.25119700  1
  Sc  Sc1  1  0.25150400  0.49915000  0.74948100  1
  Sc  Sc2  1  0.74579300  0.00213500  0.75180400  1
  Sc  Sc3  1  0.74283500  0.50351200  0.25381400  1
  Co  Co0  1  0.50244400  0.50092000  0.99659300  1
  Co  Co1  1  0.00262100  0.49654500  0.50106600  1
  Co  Co2  1  0.50215400  0.99596200  0.49785600  1
  Co  Co3  1  0.00624700  0.00030900  0.99785700  1
  O  O0  1  0.07298200  0.65887900  0.62868500  1
  O  O1  1  0.06864400  0.16188200  0.13069900  1
  O  O2  1  0.20756000  0.94903200  0.48091300  1
  O  O3  1  0.21172000  0.44928700  0.97918800  1
  O  O4  1  0.91135700  0.33506700  0.38093600  1
  O  O5  1  0.91235000  0.83202900  0.87952100  1
  O  O6  1  0.78731600  0.06831700  0.52015700  1
  O  O7  1  0.78540400  0.56653000  0.02123600  1
  O  O8  1  0.72286500  0.55783300  0.48441300  1
  O  O9  1  0.72434800  0.05700700  0.98454800  1
  O  O10  1  0.45832100  0.10083900  0.67406700  1
  O  O11  1  0.45809000  0.60274400  0.17493700  1
  O  O12  1  0.96014000  0.89145000  0.19800800  1
  O  O13  1  0.96051800  0.39813000  0.69060400  1
  O  O14  1  0.40924000  0.17298500  0.36606900  1
  O  O15  1  0.41200900  0.66619000  0.87403500  1
  O  O16  1  0.03093300  0.09492400  0.80179300  1
  O  O17  1  0.03010500  0.58982600  0.30973900  1
  O  O18  1  0.60285300  0.83787500  0.63192900  1
  O  O19  1  0.60073400  0.34489000  0.12433300  1
  O  O20  1  0.55175500  0.91391600  0.30908000  1
  O  O21  1  0.55536900  0.41374100  0.80795100  1
  O  O22  1  0.27811100  0.41958300  0.52634000  1
  O  O23  1  0.27772300  0.92139000  0.02557200  1
loop_
_geom_bond_atom_site_label_1
_geom_bond_atom_site_label_2
_geom_bond_distance
_geom_bond_site_symmetry_2
Ca0 O22 2.350600 1_555
Ca0 O21 2.363484 1_555
Ca0 O8 2.490574 1_555
Ca0 O10 2.505015 1_555
Ca0 O14 2.547725 1_555
Ca0 O13 2.549548 1_555
Ca0 O4 2.596746 1_555
Ca0 O6 2.608724 1_555
Ca1 O20 2.381455 1_555
Ca1 O23 2.392971 1_555
Ca1 O11 2.485032 1_555
Ca1 O9 2.499722 1_564
Ca1 O12 2.532974 1_555
Ca1 O15 2.537662 1_554
Ca1 O7 2.589976 1_555
Ca1 O5 2.596599 1_554
Ca2 O19 2.368606 1_555
Ca2 O9 2.414920 1_554
Ca2 O1 2.422226 1_655
Ca2 O14 2.450403 1_555
Ca2 O4 2.464987 1_555
Ca2 O6 2.502950 1_555
Ca2 O20 2.505861 1_545
Ca2 O12 2.709342 1_545
Ca3 O18 2.309056 1_555
Ca3 O8 2.399921 1_555
Ca3 O0 2.432457 1_655
Ca3 O5 2.453816 1_555
Ca3 O21 2.483247 1_555
Ca3 O15 2.488469 1_555
Ca3 O7 2.513504 1_556
Ca3 O13 2.636680 1_555
Ca4 O16 2.314743 1_555
Ca4 O10 2.420327 1_555
Ca4 O2 2.426581 1_545
Ca4 O6 2.450819 1_455
Ca4 O22 2.475940 1_555
Ca4 O13 2.477201 1_455
Ca4 O4 2.498055 1_455
Ca4 O14 2.677000 1_555
Ca5 O17 2.362842 1_555
Ca5 O11 2.396846 1_555
Ca5 O3 2.430184 1_554
Ca5 O12 2.460073 1_455
Ca5 O7 2.467596 1_455
Ca5 O23 2.511916 1_555
Ca5 O5 2.520217 1_454
Ca5 O15 2.661537 1_554
Ca6 O12 2.296552 1_555
Ca6 O0 2.440204 1_655
Ca6 O2 2.451988 1_655
Ca6 O17 2.497684 1_655
Ca6 O20 2.570367 1_555
Ca6 O6 2.630971 1_565
Ca6 O18 2.638749 1_555
Ca6 O8 2.666118 1_555
Ca7 O13 2.368547 1_555
Ca7 O1 2.467186 1_656
Ca7 O3 2.471415 1_655
Ca7 O21 2.510798 1_555
Ca7 O16 2.547239 1_655
Ca7 O7 2.566257 1_556
Ca7 O19 2.580542 1_556
Ca7 O9 2.702828 1_555
Ca8 O15 2.364441 1_555
Ca8 O2 2.446619 1_555
Ca8 O0 2.451578 1_555
Ca8 O18 2.512849 1_555
Ca8 O23 2.547316 1_556
Ca8 O5 2.591263 1_455
Ca8 O16 2.636461 1_565
Ca8 O10 2.696838 1_565
Ca9 O14 2.300556 1_555
Ca9 O3 2.457183 1_554
Ca9 O1 2.472962 1_555
Ca9 O19 2.529319 1_555
Ca9 O22 2.533193 1_555
Ca9 O17 2.586923 1_555
Ca9 O4 2.604131 1_455
Ca9 O11 2.675966 1_555
Co0 O11 1.872836 1_556
Co0 O21 1.899502 1_555
Co0 O19 1.919949 1_556
Co0 O7 1.933896 1_556
Co0 O3 1.939160 1_555
Co0 O15 1.948351 1_555
Co1 O8 1.873473 1_455
Co1 O22 1.898271 1_555
Co1 O17 1.922912 1_555
Co1 O4 1.928086 1_455
Co1 O0 1.936737 1_555
Co1 O13 1.948506 1_455
Co2 O10 1.870960 1_565
Co2 O20 1.875932 1_555
Co2 O2 1.951753 1_555
Co2 O6 1.968474 1_565
Co2 O18 1.970834 1_555
Co2 O14 2.083248 1_565
Co3 O9 1.874507 1_455
Co3 O23 1.882823 1_546
Co3 O1 1.947419 1_556
Co3 O16 1.962966 1_555
Co3 O5 1.975634 1_445
Co3 O12 2.082275 1_446
O0 Sc1 2.115095 1_555
O1 Sc0 2.120262 1_555
O2 Sc0 2.119283 1_565
O3 Sc1 2.113869 1_555
O4 Sc3 2.169230 1_555
O5 Sc2 2.177346 1_565
O6 Sc2 2.171890 1_555
O7 Sc3 2.172575 1_555
O8 Sc3 2.108165 1_555
O9 Sc2 2.128845 1_555
O10 Sc2 2.124546 1_555
O11 Sc3 2.114668 1_555
O12 Sc0 2.161959 1_665
O13 Sc1 2.151553 1_655
O14 Sc0 2.154255 1_555
O15 Sc1 2.157176 1_555
O16 Sc2 2.070442 1_455
O17 Sc3 2.065666 1_455
O18 Sc2 2.067363 1_565
O19 Sc3 2.068605 1_555
O20 Sc0 2.137378 1_565
O21 Sc1 2.129094 1_555
O22 Sc1 2.120180 1_555
O23 Sc0 2.144974 1_565
