# generated using pymatgen
data_RbBa3Ga5(Se5Cl)2
_symmetry_space_group_name_H-M   'P 1'
_cell_length_a   8.81535400
_cell_length_b   8.84749824
_cell_length_c   10.09387982
_cell_angle_alpha   115.76628818
_cell_angle_beta   115.87723062
_cell_angle_gamma   89.98663368
_symmetry_Int_Tables_number   1
_chemical_formula_structural   RbBa3Ga5(Se5Cl)2
_chemical_formula_sum   'Rb1 Ba3 Ga5 Se10 Cl2'
_cell_volume   620.20909521
_cell_formula_units_Z   1
loop_
 _symmetry_equiv_pos_site_id
 _symmetry_equiv_pos_as_xyz
  1  'x, y, z'
loop_
 _atom_site_type_symbol
 _atom_site_label
 _atom_site_symmetry_multiplicity
 _atom_site_fract_x
 _atom_site_fract_y
 _atom_site_fract_z
 _atom_site_occupancy
  Rb  Rb0  1  0.48356600  0.35376200  0.22714700  1
  Ba  Ba0  1  0.74697200  0.87753200  0.22961300  1
  Ba  Ba1  1  0.12598900  0.52022800  0.77084000  1
  Ba  Ba2  1  0.64668700  0.25091300  0.77049800  1
  Ga  Ga0  1  0.00332900  0.00078500  0.00047400  1
  Ga  Ga1  1  0.07174800  0.47184200  0.33177900  1
  Ga  Ga2  1  0.25989800  0.85532600  0.32836000  1
  Ga  Ga3  1  0.14242400  0.92931800  0.66963200  1
  Ga  Ga4  1  0.52424500  0.73440600  0.66577400  1
  Se  Se0  1  0.34478800  0.44741200  0.52347000  1
  Se  Se1  1  0.16777600  0.07037600  0.51672300  1
  Se  Se2  1  0.93091700  0.65442700  0.48459400  1
  Se  Se3  1  0.55262100  0.83739300  0.48669100  1
  Se  Se4  1  0.86244600  0.19267000  0.14515200  1
  Se  Se5  1  0.28329100  0.94358400  0.14167300  1
  Se  Se6  1  0.04009300  0.13448700  0.84848100  1
  Se  Se7  1  0.80616900  0.71696400  0.85518800  1
  Se  Se8  1  0.06325700  0.57314000  0.14172000  1
  Se  Se9  1  0.43072300  0.93083800  0.85775100  1
  Cl  Cl0  1  0.50170500  0.50703900  0.99269600  1
  Cl  Cl1  1  0.76135500  0.24755900  0.51174600  1
loop_
_geom_bond_atom_site_label_1
_geom_bond_atom_site_label_2
_geom_bond_distance
_geom_bond_site_symmetry_2
Rb0 Se0 3.488338 1_555
Rb0 Se5 3.603140 1_545
Rb0 Se6 3.764286 1_554
Rb0 Se3 3.795567 1_555
Rb0 Se2 3.798759 1_555
Rb0 Se9 3.804711 1_544
Rb0 Se4 3.906004 1_555
Ba0 Cl0 3.132624 1_554
Ba0 Cl1 3.228524 1_565
Ba0 Se1 3.374997 1_665
Ba0 Se4 3.516027 1_565
Ba0 Se7 3.691566 1_554
Ba0 Se2 3.731272 1_555
Ba0 Se3 3.804885 1_555
Ba0 Se9 3.806287 1_554
Ba0 Se5 3.888442 1_555
Ba0 Se8 3.986504 1_655
Ba1 Cl0 3.122669 1_555
Ba1 Cl1 3.189391 1_455
Ba1 Se2 3.370414 1_455
Ba1 Se0 3.629691 1_555
Ba1 Se1 3.808457 1_555
Ba2 Cl0 3.143402 1_555
Ba2 Cl1 3.175117 1_555
Ba2 Se3 3.330982 1_545
Ba2 Se6 3.468169 1_655
Ba2 Se4 3.687782 1_556
Ba2 Se1 3.733969 1_555
Ba2 Se0 3.781113 1_555
Ba2 Se8 3.789434 1_656
Ba2 Se7 3.949520 1_555
Ba2 Se9 4.006748 1_545
Ga0 Se6 2.422838 1_554
Ga0 Se5 2.436075 1_545
Ga0 Se4 2.446206 1_455
Ga0 Se7 2.460209 1_444
Ga1 Se8 2.420468 1_555
Ga1 Se0 2.425302 1_555
Ga1 Se4 2.444724 1_455
Ga1 Se2 2.456501 1_455
Ga2 Se5 2.412837 1_555
Ga2 Se8 2.418567 1_555
Ga2 Se3 2.420443 1_555
Ga2 Se1 2.469114 1_565
Ga3 Se9 2.414583 1_555
Ga3 Se2 2.427553 1_455
Ga3 Se6 2.437124 1_565
Ga3 Se1 2.442457 1_565
Ga4 Se0 2.420896 1_555
Ga4 Se9 2.433318 1_555
Ga4 Se7 2.442227 1_555
Ga4 Se3 2.446869 1_555
Cl0 Rb0 3.253554 1_556
Cl1 Rb0 3.367075 1_555
