# generated using pymatgen
data_GaPH11C3Cl
_symmetry_space_group_name_H-M   'P 1'
_cell_length_a   6.66237500
_cell_length_b   7.67543392
_cell_length_c   10.26147468
_cell_angle_alpha   89.95875525
_cell_angle_beta   89.97921791
_cell_angle_gamma   65.01382457
_symmetry_Int_Tables_number   1
_chemical_formula_structural   GaPH11C3Cl
_chemical_formula_sum   'Ga2 P2 H22 C6 Cl2'
_cell_volume   475.62670950
_cell_formula_units_Z   2
loop_
 _symmetry_equiv_pos_site_id
 _symmetry_equiv_pos_as_xyz
  1  'x, y, z'
loop_
 _atom_site_type_symbol
 _atom_site_label
 _atom_site_symmetry_multiplicity
 _atom_site_fract_x
 _atom_site_fract_y
 _atom_site_fract_z
 _atom_site_occupancy
  Ga  Ga0  1  0.29729200  0.63738200  0.74981700  1
  Ga  Ga1  1  0.70270800  0.36261800  0.25018300  1
  P  P0  1  0.36284200  0.30018900  0.74982000  1
  P  P1  1  0.63715800  0.69981100  0.25018000  1
  H  H0  1  0.31669200  0.25625700  0.51884700  1
  H  H1  1  0.68314400  0.74354200  0.01879900  1
  H  H2  1  0.68330800  0.74374300  0.48115300  1
  H  H3  1  0.31685600  0.25645800  0.98120100  1
  H  H4  1  0.19361900  0.72956200  0.61604100  1
  H  H5  1  0.80644400  0.27095300  0.11631400  1
  H  H6  1  0.80638100  0.27043800  0.38395900  1
  H  H7  1  0.19355600  0.72904700  0.88368600  1
  H  H8  1  0.28567400  0.07526300  0.61669000  1
  H  H9  1  0.71437500  0.92414100  0.11670000  1
  H  H10  1  0.71432600  0.92473700  0.38331000  1
  H  H11  1  0.28562500  0.07585900  0.88330000  1
  H  H12  1  0.06693600  0.31259700  0.60833500  1
  H  H13  1  0.93303200  0.68673100  0.10807100  1
  H  H14  1  0.93306400  0.68740300  0.39166500  1
  H  H15  1  0.06696800  0.31326900  0.89192900  1
  H  H16  1  0.72879500  0.14975100  0.65534500  1
  H  H17  1  0.27120500  0.85024900  0.34465500  1
  H  H18  1  0.68235500  0.99206000  0.76797300  1
  H  H19  1  0.31764500  0.00794000  0.23202700  1
  H  H20  1  0.74038300  0.18665800  0.82615800  1
  H  H21  1  0.25961700  0.81334200  0.17384200  1
  C  C0  1  0.24756800  0.22872000  0.60988900  1
  C  C1  1  0.75239700  0.77068400  0.10978000  1
  C  C2  1  0.75243200  0.77128000  0.39011100  1
  C  C3  1  0.24760300  0.22931600  0.89022000  1
  C  C4  1  0.65690600  0.14089800  0.75023000  1
  C  C5  1  0.34309400  0.85910200  0.24977000  1
  Cl  Cl0  1  0.65149700  0.61512200  0.75020900  1
  Cl  Cl1  1  0.34850300  0.38487800  0.24979100  1
loop_
_geom_bond_atom_site_label_1
_geom_bond_atom_site_label_2
_geom_bond_distance
_geom_bond_site_symmetry_2
Ga0 H4 1.564775 1_555
Ga0 H7 1.565124 1_555
Ga0 P0 2.436010 1_555
Ga1 H6 1.564775 1_555
Ga1 H5 1.565124 1_555
Ga1 P1 2.436010 1_555
C0 H8 1.097236 1_555
C0 H12 1.099302 1_555
C0 H0 1.100532 1_555
C0 P0 1.819445 1_555
C1 H9 1.097536 1_555
C1 H13 1.099416 1_555
C1 H1 1.099855 1_555
C1 P1 1.819870 1_555
C2 H10 1.097236 1_555
C2 H14 1.099302 1_555
C2 H2 1.100532 1_555
C2 P1 1.819445 1_555
C3 H11 1.097536 1_555
C3 H15 1.099416 1_555
C3 H3 1.099855 1_555
C3 P0 1.819870 1_555
C4 H18 1.096839 1_545
C4 H20 1.097929 1_555
C4 H16 1.099585 1_555
C4 P0 1.819228 1_555
C5 H19 1.096839 1_565
C5 H21 1.097929 1_555
C5 H17 1.099585 1_555
C5 P1 1.819228 1_555
Cl0 Ga0 2.292918 1_555
Cl1 Ga1 2.292918 1_555
