# generated using pymatgen
data_La2BeGa2O7
_symmetry_space_group_name_H-M   'P 1'
_cell_length_a   5.28189200
_cell_length_b   7.82905300
_cell_length_c   7.82905300
_cell_angle_alpha   90.00000000
_cell_angle_beta   90.00000000
_cell_angle_gamma   90.00000000
_symmetry_Int_Tables_number   1
_chemical_formula_structural   La2BeGa2O7
_chemical_formula_sum   'La4 Be2 Ga4 O14'
_cell_volume   323.74866261
_cell_formula_units_Z   2
loop_
 _symmetry_equiv_pos_site_id
 _symmetry_equiv_pos_as_xyz
  1  'x, y, z'
loop_
 _atom_site_type_symbol
 _atom_site_label
 _atom_site_symmetry_multiplicity
 _atom_site_fract_x
 _atom_site_fract_y
 _atom_site_fract_z
 _atom_site_occupancy
  La  La0  1  0.51547000  0.16851700  0.66851700  1
  La  La1  1  0.51547000  0.83148300  0.33148300  1
  La  La2  1  0.48453000  0.66851700  0.83148300  1
  La  La3  1  0.48453000  0.33148300  0.16851700  1
  Be  Be0  1  0.00000000  0.00000000  0.00000000  1
  Be  Be1  1  0.00000000  0.50000000  0.50000000  1
  Ga  Ga0  1  0.96839000  0.64906600  0.14906600  1
  Ga  Ga1  1  0.96839000  0.35093400  0.85093400  1
  Ga  Ga2  1  0.03161000  0.14906600  0.35093400  1
  Ga  Ga3  1  0.03161000  0.85093400  0.64906600  1
  O  O0  1  0.19807000  0.00000000  0.50000000  1
  O  O1  1  0.80193000  0.50000000  0.00000000  1
  O  O2  1  0.31396900  0.63378200  0.13378200  1
  O  O3  1  0.31396900  0.36621800  0.86621800  1
  O  O4  1  0.68603100  0.13378200  0.36621800  1
  O  O5  1  0.68603100  0.86621800  0.63378200  1
  O  O6  1  0.19141800  0.08625500  0.14806400  1
  O  O7  1  0.19141800  0.91374500  0.85193600  1
  O  O8  1  0.80858200  0.14806400  0.91374500  1
  O  O9  1  0.80858200  0.41374500  0.64806400  1
  O  O10  1  0.80858200  0.85193600  0.08625500  1
  O  O11  1  0.80858200  0.58625500  0.35193600  1
  O  O12  1  0.19141800  0.35193600  0.41374500  1
  O  O13  1  0.19141800  0.64806400  0.58625500  1
loop_
_geom_bond_atom_site_label_1
_geom_bond_atom_site_label_2
_geom_bond_distance
_geom_bond_site_symmetry_2
La0 O3 2.433966 1_555
La0 O9 2.471548 1_555
La0 O8 2.471548 1_555
La0 O0 2.508349 1_555
La0 O4 2.546936 1_555
La0 O5 2.546936 1_545
La0 O12 2.995031 1_555
La0 O7 2.995031 1_545
La1 O2 2.433966 1_555
La1 O10 2.471548 1_555
La1 O11 2.471548 1_555
La1 O0 2.508349 1_565
La1 O4 2.546936 1_565
La1 O5 2.546936 1_555
La1 O6 2.995031 1_565
La1 O13 2.995031 1_555
La2 O5 2.433966 1_555
La2 O7 2.471548 1_555
La2 O13 2.471548 1_555
La2 O1 2.508349 1_556
La2 O2 2.546936 1_556
La2 O3 2.546936 1_555
La2 O9 2.995031 1_555
La2 O10 2.995031 1_556
La3 O4 2.433966 1_555
La3 O6 2.471548 1_555
La3 O12 2.471548 1_555
La3 O1 2.508349 1_555
La3 O2 2.546936 1_555
La3 O3 2.546936 1_554
La3 O11 2.995031 1_555
La3 O8 2.995031 1_554
Be0 O6 1.679878 1_555
Be0 O8 1.679878 1_454
Be0 O7 1.679878 1_544
Be0 O10 1.679878 1_445
Be1 O13 1.679878 1_555
Be1 O9 1.679878 1_455
Be1 O12 1.679878 1_555
Be1 O11 1.679878 1_455
Ga0 O2 1.833138 1_655
Ga0 O11 1.864655 1_555
Ga0 O10 1.864655 1_555
Ga0 O1 1.870034 1_555
Ga1 O3 1.833138 1_655
Ga1 O8 1.864655 1_555
Ga1 O9 1.864655 1_555
Ga1 O1 1.870034 1_556
Ga2 O4 1.833138 1_455
Ga2 O6 1.864655 1_555
Ga2 O12 1.864655 1_555
Ga2 O0 1.870034 1_555
Ga3 O5 1.833138 1_455
Ga3 O13 1.864655 1_555
Ga3 O7 1.864655 1_555
Ga3 O0 1.870034 1_565
