# generated using pymatgen
data_Sn2P3O10
_symmetry_space_group_name_H-M   'P 1'
_cell_length_a   7.70562058
_cell_length_b   7.70562058
_cell_length_c   10.19161573
_cell_angle_alpha   68.74433825
_cell_angle_beta   68.74433825
_cell_angle_gamma   86.46488465
_symmetry_Int_Tables_number   1
_chemical_formula_structural   Sn2P3O10
_chemical_formula_sum   'Sn4 P6 O20'
_cell_volume   523.91215010
_cell_formula_units_Z   2
loop_
 _symmetry_equiv_pos_site_id
 _symmetry_equiv_pos_as_xyz
  1  'x, y, z'
loop_
 _atom_site_type_symbol
 _atom_site_label
 _atom_site_symmetry_multiplicity
 _atom_site_fract_x
 _atom_site_fract_y
 _atom_site_fract_z
 _atom_site_occupancy
  Sn  Sn0  1  0.64604400  0.67858000  0.90650100  1
  Sn  Sn1  1  0.67858000  0.64604400  0.40650100  1
  Sn  Sn2  1  0.32142000  0.35395600  0.59349900  1
  Sn  Sn3  1  0.35395600  0.32142000  0.09349900  1
  P  P0  1  0.90670200  0.42563000  0.83401100  1
  P  P1  1  0.90377000  0.09623000  0.75000000  1
  P  P2  1  0.57437000  0.09329800  0.66598900  1
  P  P3  1  0.42563000  0.90670200  0.33401100  1
  P  P4  1  0.09623000  0.90377000  0.25000000  1
  P  P5  1  0.09329800  0.57437000  0.16598900  1
  O  O0  1  0.85483500  0.89186700  0.85075400  1
  O  O1  1  0.83721100  0.21436800  0.85725700  1
  O  O2  1  0.80772100  0.56757800  0.73549600  1
  O  O3  1  0.89186700  0.85483500  0.35075400  1
  O  O4  1  0.88065100  0.55769500  0.23882700  1
  O  O5  1  0.78563200  0.16278900  0.64274300  1
  O  O6  1  0.55769500  0.88065100  0.73882700  1
  O  O7  1  0.82485700  0.44020200  0.98939900  1
  O  O8  1  0.55979800  0.17514300  0.51060100  1
  O  O9  1  0.56757800  0.80772100  0.23549600  1
  O  O10  1  0.43242200  0.19227900  0.76450400  1
  O  O11  1  0.44020200  0.82485700  0.48939900  1
  O  O12  1  0.17514300  0.55979800  0.01060100  1
  O  O13  1  0.44230500  0.11934900  0.26117300  1
  O  O14  1  0.21436800  0.83721100  0.35725700  1
  O  O15  1  0.11934900  0.44230500  0.76117300  1
  O  O16  1  0.10813300  0.14516500  0.64924600  1
  O  O17  1  0.19227900  0.43242200  0.26450400  1
  O  O18  1  0.16278900  0.78563200  0.14274300  1
  O  O19  1  0.14516500  0.10813300  0.14924600  1
loop_
_geom_bond_atom_site_label_1
_geom_bond_atom_site_label_2
_geom_bond_distance
_geom_bond_site_symmetry_2
O0 P1 1.515409 1_565
O0 Sn0 2.144446 1_555
O1 P1 1.595020 1_555
O1 P0 1.651911 1_555
O2 P0 1.562781 1_555
O2 Sn0 2.167082 1_555
O3 P4 1.515409 1_655
O3 Sn1 2.144446 1_555
O4 P5 1.525571 1_655
O4 Sn1 2.142830 1_555
O5 P1 1.595020 1_555
O5 P2 1.651911 1_555
O6 P2 1.525571 1_565
O6 Sn0 2.142830 1_555
O7 P0 1.521299 1_555
O7 Sn0 2.322294 1_555
O8 P2 1.521299 1_555
O8 Sn2 2.322294 1_555
O9 P3 1.562781 1_555
O9 Sn1 2.167082 1_555
O10 P2 1.562781 1_555
O10 Sn2 2.167082 1_555
O11 P3 1.521299 1_555
O11 Sn1 2.322294 1_555
O12 P5 1.521299 1_555
O12 Sn3 2.322294 1_555
O13 P3 1.525571 1_545
O13 Sn3 2.142830 1_555
O14 P4 1.595020 1_555
O14 P3 1.651911 1_555
O15 P0 1.525571 1_455
O15 Sn2 2.142830 1_555
O16 P1 1.515409 1_455
O16 Sn2 2.144446 1_555
O17 P5 1.562781 1_555
O17 Sn3 2.167082 1_555
O18 P4 1.595020 1_555
O18 P5 1.651911 1_555
O19 P4 1.515409 1_545
O19 Sn3 2.144446 1_555
