# generated using pymatgen
data_MgPb2
_symmetry_space_group_name_H-M   'P 1'
_cell_length_a   6.99756806
_cell_length_b   6.99756806
_cell_length_c   31.55253768
_cell_angle_alpha   90.00000000
_cell_angle_beta   90.00000000
_cell_angle_gamma   119.99708362
_symmetry_Int_Tables_number   1
_chemical_formula_structural   MgPb2
_chemical_formula_sum   'Mg16 Pb32'
_cell_volume   1338.04879253
_cell_formula_units_Z   16
loop_
 _symmetry_equiv_pos_site_id
 _symmetry_equiv_pos_as_xyz
  1  'x, y, z'
loop_
 _atom_site_type_symbol
 _atom_site_label
 _atom_site_symmetry_multiplicity
 _atom_site_fract_x
 _atom_site_fract_y
 _atom_site_fract_z
 _atom_site_occupancy
  Mg  Mg0_0  1  0.99999808  0.00000192  0.17070666  1
  Mg  Mg0_1  1  0.99999808  0.00000192  0.67070666  1
  Mg  Mg0_2  1  0.99999808  0.50000192  0.17070666  1
  Mg  Mg0_3  1  0.99999808  0.50000192  0.67070666  1
  Mg  Mg0_4  1  0.49999808  0.00000191  0.17070666  1
  Mg  Mg0_5  1  0.49999808  0.00000191  0.67070666  1
  Mg  Mg0_6  1  0.49999808  0.50000191  0.17070666  1
  Mg  Mg0_7  1  0.49999808  0.50000191  0.67070666  1
  Mg  Mg1_0  1  0.99999808  0.00000192  0.32929335  1
  Mg  Mg1_1  1  0.99999808  0.00000192  0.82929335  1
  Mg  Mg1_2  1  0.99999808  0.50000192  0.32929335  1
  Mg  Mg1_3  1  0.99999808  0.50000192  0.82929335  1
  Mg  Mg1_4  1  0.49999808  0.00000191  0.32929335  1
  Mg  Mg1_5  1  0.49999808  0.00000191  0.82929335  1
  Mg  Mg1_6  1  0.49999808  0.50000191  0.32929335  1
  Mg  Mg1_7  1  0.49999808  0.50000191  0.82929335  1
  Pb  Pb0_0  1  0.16666759  0.33333240  0.40729242  1
  Pb  Pb0_1  1  0.16666759  0.33333240  0.90729242  1
  Pb  Pb0_2  1  0.16666759  0.83333240  0.40729242  1
  Pb  Pb0_3  1  0.16666759  0.83333240  0.90729242  1
  Pb  Pb0_4  1  0.66666759  0.33333240  0.40729242  1
  Pb  Pb0_5  1  0.66666759  0.33333240  0.90729242  1
  Pb  Pb0_6  1  0.66666760  0.83333241  0.40729242  1
  Pb  Pb0_7  1  0.66666760  0.83333241  0.90729242  1
  Pb  Pb1_0  1  0.99999985  0.00000014  0.00000000  1
  Pb  Pb1_1  1  0.99999985  0.00000014  0.50000000  1
  Pb  Pb1_2  1  0.99999985  0.50000015  0.00000000  1
  Pb  Pb1_3  1  0.99999985  0.50000015  0.50000000  1
  Pb  Pb1_4  1  0.49999985  0.00000014  0.00000000  1
  Pb  Pb1_5  1  0.49999985  0.00000014  0.50000000  1
  Pb  Pb1_6  1  0.49999985  0.50000014  0.00000000  1
  Pb  Pb1_7  1  0.49999985  0.50000014  0.50000000  1
  Pb  Pb2_0  1  0.16666759  0.33333240  0.09270758  1
  Pb  Pb2_1  1  0.16666759  0.33333240  0.59270758  1
  Pb  Pb2_2  1  0.16666759  0.83333240  0.09270758  1
  Pb  Pb2_3  1  0.16666759  0.83333240  0.59270758  1
  Pb  Pb2_4  1  0.66666759  0.33333240  0.09270758  1
  Pb  Pb2_5  1  0.66666759  0.33333240  0.59270758  1
  Pb  Pb2_6  1  0.66666760  0.83333241  0.09270758  1
  Pb  Pb2_7  1  0.66666760  0.83333241  0.59270758  1
  Pb  Pb3_0  1  0.16666829  0.33333171  0.25000000  1
  Pb  Pb3_1  1  0.16666829  0.33333171  0.75000000  1
  Pb  Pb3_2  1  0.16666829  0.83333171  0.25000000  1
  Pb  Pb3_3  1  0.16666829  0.83333171  0.75000000  1
  Pb  Pb3_4  1  0.66666829  0.33333171  0.25000000  1
  Pb  Pb3_5  1  0.66666829  0.33333171  0.75000000  1
  Pb  Pb3_6  1  0.66666829  0.83333171  0.25000000  1
  Pb  Pb3_7  1  0.66666829  0.83333171  0.75000000  1
loop_
_geom_bond_atom_site_label_1
_geom_bond_atom_site_label_2
_geom_bond_distance
_geom_bond_site_symmetry_2
Mg0_0 Pb2_2 3.183924 1_645
Mg0_0 Pb2_0 3.183948 1_655
Mg0_0 Pb2_6 3.183948 1_545
Mg0_0 Pb3_2 3.215600 1_645
Mg0_0 Pb3_6 3.215616 1_545
Mg0_0 Pb3_0 3.215616 1_655
Mg0_1 Pb2_3 3.183924 1_645
Mg0_1 Pb2_7 3.183948 1_545
Mg0_1 Pb2_1 3.183948 1_655
Mg0_1 Pb3_3 3.215600 1_645
Mg0_1 Pb3_7 3.215616 1_545
Mg0_1 Pb3_1 3.215616 1_655
Mg0_2 Pb2_0 3.183924 1_655
Mg0_2 Pb2_2 3.183948 1_655
Mg0_2 Pb2_4 3.183948 1_555
Mg0_2 Pb3_0 3.215600 1_655
Mg0_2 Pb3_2 3.215616 1_655
Mg0_2 Pb3_4 3.215616 1_555
Mg0_3 Pb2_1 3.183924 1_655
Mg0_3 Pb2_3 3.183948 1_655
Mg0_3 Pb2_5 3.183948 1_555
Mg0_3 Pb3_1 3.215600 1_655
Mg0_3 Pb3_3 3.215616 1_655
Mg0_3 Pb3_5 3.215616 1_555
Mg0_4 Pb2_6 3.183924 1_545
Mg0_4 Pb2_2 3.183948 1_545
Mg0_4 Pb2_4 3.183948 1_555
Mg0_4 Pb3_6 3.215600 1_545
Mg0_4 Pb3_2 3.215616 1_545
Mg0_4 Pb3_4 3.215616 1_555
Mg0_5 Pb2_7 3.183924 1_545
Mg0_5 Pb2_3 3.183948 1_545
Mg0_5 Pb2_5 3.183948 1_555
Mg0_5 Pb3_7 3.215600 1_545
Mg0_5 Pb3_3 3.215616 1_545
Mg0_5 Pb3_5 3.215616 1_555
Mg0_6 Pb2_4 3.183924 1_555
Mg0_6 Pb2_0 3.183948 1_555
Mg0_6 Pb2_6 3.183948 1_555
Mg0_6 Pb3_4 3.215600 1_555
Mg0_6 Pb3_0 3.215616 1_555
Mg0_6 Pb3_6 3.215616 1_555
Mg0_7 Pb2_5 3.183924 1_555
Mg0_7 Pb2_1 3.183948 1_555
Mg0_7 Pb2_7 3.183948 1_555
Mg0_7 Pb3_5 3.215600 1_555
Mg0_7 Pb3_1 3.215616 1_555
Mg0_7 Pb3_7 3.215616 1_555
Mg1_0 Pb0_2 3.183924 1_645
Mg1_0 Pb0_6 3.183948 1_545
Mg1_0 Pb0_0 3.183948 1_655
Mg1_0 Pb3_2 3.215600 1_645
Mg1_0 Pb3_6 3.215616 1_545
Mg1_0 Pb3_0 3.215616 1_655
Mg1_1 Pb0_3 3.183924 1_645
Mg1_1 Pb0_7 3.183948 1_545
Mg1_1 Pb0_1 3.183948 1_655
Mg1_1 Pb3_3 3.215600 1_645
Mg1_1 Pb3_7 3.215616 1_545
Mg1_1 Pb3_1 3.215616 1_655
Mg1_2 Pb0_0 3.183924 1_655
Mg1_2 Pb0_2 3.183948 1_655
Mg1_2 Pb0_4 3.183948 1_555
Mg1_2 Pb3_0 3.215600 1_655
Mg1_2 Pb3_2 3.215616 1_655
Mg1_2 Pb3_4 3.215616 1_555
Mg1_3 Pb0_1 3.183924 1_655
Mg1_3 Pb0_3 3.183948 1_655
Mg1_3 Pb0_5 3.183948 1_555
Mg1_3 Pb3_1 3.215600 1_655
Mg1_3 Pb3_3 3.215616 1_655
Mg1_3 Pb3_5 3.215616 1_555
Mg1_4 Pb0_6 3.183924 1_545
Mg1_4 Pb0_2 3.183948 1_545
Mg1_4 Pb0_4 3.183948 1_555
Mg1_4 Pb3_6 3.215600 1_545
Mg1_4 Pb3_2 3.215616 1_545
Mg1_4 Pb3_4 3.215616 1_555
Mg1_5 Pb0_7 3.183924 1_545
Mg1_5 Pb0_3 3.183948 1_545
Mg1_5 Pb0_5 3.183948 1_555
Mg1_5 Pb3_7 3.215600 1_545
Mg1_5 Pb3_3 3.215616 1_545
Mg1_5 Pb3_5 3.215616 1_555
Mg1_6 Pb0_4 3.183924 1_555
Mg1_6 Pb0_0 3.183948 1_555
Mg1_6 Pb0_6 3.183948 1_555
Mg1_6 Pb3_4 3.215600 1_555
Mg1_6 Pb3_0 3.215616 1_555
Mg1_6 Pb3_6 3.215616 1_555
Mg1_7 Pb0_5 3.183924 1_555
Mg1_7 Pb0_1 3.183948 1_555
Mg1_7 Pb0_7 3.183948 1_555
Mg1_7 Pb3_5 3.215600 1_555
Mg1_7 Pb3_1 3.215616 1_555
Mg1_7 Pb3_7 3.215616 1_555
Pb0_0 Pb1_3 3.554854 1_455
Pb0_0 Pb1_7 3.554894 1_555
Pb0_0 Pb1_1 3.554894 1_455
Pb0_1 Pb1_2 3.554854 1_456
Pb0_1 Pb1_0 3.554894 1_456
Pb0_1 Pb1_6 3.554894 1_556
Pb0_2 Pb1_1 3.554854 1_465
Pb0_2 Pb1_5 3.554894 1_565
Pb0_2 Pb1_3 3.554894 1_455
Pb0_3 Pb1_0 3.554854 1_466
Pb0_3 Pb1_4 3.554894 1_566
Pb0_3 Pb1_2 3.554894 1_456
Pb0_4 Pb1_7 3.554854 1_555
Pb0_4 Pb1_3 3.554894 1_555
Pb0_4 Pb1_5 3.554894 1_555
Pb0_5 Pb1_6 3.554854 1_556
Pb0_5 Pb1_4 3.554894 1_556
Pb0_5 Pb1_2 3.554894 1_556
Pb0_6 Pb1_5 3.554854 1_565
Pb0_6 Pb1_1 3.554894 1_565
Pb0_6 Pb1_7 3.554894 1_555
Pb0_7 Pb1_4 3.554854 1_566
Pb0_7 Pb1_0 3.554894 1_566
Pb0_7 Pb1_6 3.554894 1_556
Pb1_0 Pb1_2 3.498784 1_555
Pb1_0 Pb1_4 3.498784 1_555
Pb1_0 Pb1_2 3.498784 1_545
Pb1_0 Pb1_4 3.498784 1_655
Pb1_0 Pb1_6 3.498938 1_655
Pb1_0 Pb1_6 3.498938 1_545
Pb1_0 Pb2_2 3.554854 1_645
Pb1_0 Pb2_6 3.554894 1_545
Pb1_0 Pb2_0 3.554894 1_655
Pb1_1 Pb1_3 3.498784 1_545
Pb1_1 Pb1_5 3.498784 1_555
Pb1_1 Pb1_3 3.498784 1_555
Pb1_1 Pb1_5 3.498784 1_655
Pb1_1 Pb1_7 3.498938 1_655
Pb1_1 Pb1_7 3.498938 1_545
Pb1_1 Pb2_3 3.554854 1_645
Pb1_1 Pb2_7 3.554894 1_545
Pb1_1 Pb2_1 3.554894 1_655
Pb1_2 Pb1_6 3.498784 1_555
Pb1_2 Pb1_6 3.498784 1_655
Pb1_2 Pb1_4 3.498938 1_665
Pb1_2 Pb1_4 3.498938 1_555
Pb1_2 Pb2_0 3.554854 1_655
Pb1_2 Pb2_2 3.554894 1_655
Pb1_2 Pb2_4 3.554894 1_555
Pb1_3 Pb1_7 3.498784 1_555
Pb1_3 Pb1_7 3.498784 1_655
Pb1_3 Pb1_5 3.498938 1_665
Pb1_3 Pb1_5 3.498938 1_555
Pb1_3 Pb2_1 3.554854 1_655
Pb1_3 Pb2_3 3.554894 1_655
Pb1_3 Pb2_5 3.554894 1_555
Pb1_4 Pb1_6 3.498784 1_555
Pb1_4 Pb1_6 3.498784 1_545
Pb1_4 Pb2_6 3.554854 1_545
Pb1_4 Pb2_2 3.554894 1_545
Pb1_4 Pb2_4 3.554894 1_555
Pb1_5 Pb1_7 3.498784 1_555
Pb1_5 Pb1_7 3.498784 1_545
Pb1_5 Pb2_7 3.554854 1_545
Pb1_5 Pb2_5 3.554894 1_555
Pb1_5 Pb2_3 3.554894 1_545
Pb1_6 Pb2_4 3.554854 1_555
Pb1_6 Pb2_0 3.554894 1_555
Pb1_6 Pb2_6 3.554894 1_555
Pb1_7 Pb2_5 3.554854 1_555
Pb1_7 Pb2_1 3.554894 1_555
Pb1_7 Pb2_7 3.554894 1_555
