# generated using pymatgen
data_ZnW2O5
_symmetry_space_group_name_H-M   'P 1'
_cell_length_a   6.03125852
_cell_length_b   6.03125852
_cell_length_c   10.93104500
_cell_angle_alpha   90.00000000
_cell_angle_beta   90.00000000
_cell_angle_gamma   143.30834782
_symmetry_Int_Tables_number   1
_chemical_formula_structural   ZnW2O5
_chemical_formula_sum   'Zn2 W4 O10'
_cell_volume   237.58637451
_cell_formula_units_Z   2
loop_
 _symmetry_equiv_pos_site_id
 _symmetry_equiv_pos_as_xyz
  1  'x, y, z'
loop_
 _atom_site_type_symbol
 _atom_site_label
 _atom_site_symmetry_multiplicity
 _atom_site_fract_x
 _atom_site_fract_y
 _atom_site_fract_z
 _atom_site_occupancy
  Zn  Zn0  1  0.09087800  0.90912200  0.75000000  1
  Zn  Zn1  1  0.90912200  0.09087800  0.25000000  1
  W  W0  1  0.81024600  0.18975400  0.62309500  1
  W  W1  1  0.18975400  0.81024600  0.37690500  1
  W  W2  1  0.18975400  0.81024600  0.12309500  1
  W  W3  1  0.81024600  0.18975400  0.87690500  1
  O  O0  1  0.33604100  0.66395900  0.25000000  1
  O  O1  1  0.66395900  0.33604100  0.75000000  1
  O  O2  1  0.74189600  0.25810400  0.08778800  1
  O  O3  1  0.25810400  0.74189600  0.91221200  1
  O  O4  1  0.25810400  0.74189600  0.58778800  1
  O  O5  1  0.74189600  0.25810400  0.41221200  1
  O  O6  1  0.96685700  0.03314300  0.62022200  1
  O  O7  1  0.03314300  0.96685700  0.37977800  1
  O  O8  1  0.96685700  0.03314300  0.87977800  1
  O  O9  1  0.03314300  0.96685700  0.12022200  1
loop_
_geom_bond_atom_site_label_1
_geom_bond_atom_site_label_2
_geom_bond_distance
_geom_bond_site_symmetry_2
O0 Zn1 2.074574 1_455
O0 Zn1 2.074574 1_565
O0 W2 2.174772 1_555
O0 W1 2.174772 1_555
O1 Zn0 2.074574 1_545
O1 Zn0 2.074574 1_655
O1 W3 2.174772 1_555
O1 W0 2.174772 1_555
O2 W2 2.027088 1_545
O2 W2 2.027088 1_655
O2 W3 2.434385 1_554
O2 Zn1 2.609579 1_555
O3 W3 2.027088 1_455
O3 W3 2.027088 1_565
O3 W2 2.434385 1_556
O3 Zn0 2.609579 1_555
O4 W0 2.027088 1_455
O4 W0 2.027088 1_565
O4 W1 2.434385 1_555
O4 Zn0 2.609579 1_555
O5 W1 2.027088 1_655
O5 W1 2.027088 1_545
O5 W0 2.434385 1_555
O5 Zn1 2.609579 1_555
O6 W0 1.793381 1_555
O6 Zn0 2.007178 1_645
O7 W1 1.793381 1_555
O7 Zn1 2.007178 1_465
O8 W3 1.793381 1_555
O8 Zn0 2.007178 1_645
O9 W2 1.793381 1_555
O9 Zn1 2.007178 1_465
