# generated using pymatgen
data_Ca3Fe3(SbO6)2
_symmetry_space_group_name_H-M   'P 1'
_cell_length_a   11.09120640
_cell_length_b   11.09120640
_cell_length_c   11.09120640
_cell_angle_alpha   109.47122063
_cell_angle_beta   109.47122063
_cell_angle_gamma   109.47122063
_symmetry_Int_Tables_number   1
_chemical_formula_structural   Ca3Fe3(SbO6)2
_chemical_formula_sum   'Ca12 Fe12 Sb8 O48'
_cell_volume   1050.30267362
_cell_formula_units_Z   4
loop_
 _symmetry_equiv_pos_site_id
 _symmetry_equiv_pos_as_xyz
  1  'x, y, z'
loop_
 _atom_site_type_symbol
 _atom_site_label
 _atom_site_symmetry_multiplicity
 _atom_site_fract_x
 _atom_site_fract_y
 _atom_site_fract_z
 _atom_site_occupancy
  Ca  Ca0  1  0.25000000  0.37500000  0.12500000  1
  Ca  Ca1  1  0.75000000  0.62500000  0.87500000  1
  Ca  Ca2  1  0.75000000  0.12500000  0.37500000  1
  Ca  Ca3  1  0.12500000  0.25000000  0.37500000  1
  Ca  Ca4  1  0.37500000  0.75000000  0.12500000  1
  Ca  Ca5  1  0.25000000  0.87500000  0.62500000  1
  Ca  Ca6  1  0.87500000  0.75000000  0.62500000  1
  Ca  Ca7  1  0.62500000  0.25000000  0.87500000  1
  Ca  Ca8  1  0.37500000  0.12500000  0.25000000  1
  Ca  Ca9  1  0.62500000  0.87500000  0.75000000  1
  Ca  Ca10  1  0.12500000  0.37500000  0.75000000  1
  Ca  Ca11  1  0.87500000  0.62500000  0.25000000  1
  Fe  Fe0  1  0.25000000  0.62500000  0.37500000  1
  Fe  Fe1  1  0.75000000  0.37500000  0.62500000  1
  Fe  Fe2  1  0.75000000  0.87500000  0.12500000  1
  Fe  Fe3  1  0.37500000  0.25000000  0.62500000  1
  Fe  Fe4  1  0.62500000  0.75000000  0.37500000  1
  Fe  Fe5  1  0.25000000  0.12500000  0.87500000  1
  Fe  Fe6  1  0.12500000  0.75000000  0.87500000  1
  Fe  Fe7  1  0.87500000  0.25000000  0.12500000  1
  Fe  Fe8  1  0.62500000  0.37500000  0.25000000  1
  Fe  Fe9  1  0.37500000  0.62500000  0.75000000  1
  Fe  Fe10  1  0.87500000  0.12500000  0.75000000  1
  Fe  Fe11  1  0.12500000  0.87500000  0.25000000  1
  Sb  Sb0  1  0.00000000  0.00000000  0.00000000  1
  Sb  Sb1  1  0.50000000  0.00000000  0.50000000  1
  Sb  Sb2  1  0.00000000  0.50000000  0.50000000  1
  Sb  Sb3  1  0.50000000  0.00000000  0.00000000  1
  Sb  Sb4  1  0.50000000  0.50000000  0.00000000  1
  Sb  Sb5  1  0.50000000  0.50000000  0.50000000  1
  Sb  Sb6  1  0.00000000  0.00000000  0.50000000  1
  Sb  Sb7  1  0.00000000  0.50000000  0.00000000  1
  O  O0  1  0.47678700  0.38041500  0.30165500  1
  O  O1  1  0.52321300  0.61958500  0.69834500  1
  O  O2  1  0.57876000  0.17513300  0.19834500  1
  O  O3  1  0.92124000  0.11958500  0.59637300  1
  O  O4  1  0.30165500  0.47678700  0.38041500  1
  O  O5  1  0.32486700  0.92124000  0.30165500  1
  O  O6  1  0.42124000  0.82486700  0.80165500  1
  O  O7  1  0.07876000  0.88041500  0.40362700  1
  O  O8  1  0.69834500  0.52321300  0.61958500  1
  O  O9  1  0.67513300  0.07876000  0.69834500  1
  O  O10  1  0.02321300  0.32486700  0.90362700  1
  O  O11  1  0.19834500  0.57876000  0.17513300  1
  O  O12  1  0.11958500  0.02321300  0.19834500  1
  O  O13  1  0.97678700  0.67513300  0.09637300  1
  O  O14  1  0.80165500  0.42124000  0.82486700  1
  O  O15  1  0.88041500  0.97678700  0.80165500  1
  O  O16  1  0.59637300  0.92124000  0.11958500  1
  O  O17  1  0.17513300  0.47678700  0.59637300  1
  O  O18  1  0.40362700  0.07876000  0.88041500  1
  O  O19  1  0.82486700  0.52321300  0.40362700  1
  O  O20  1  0.90362700  0.02321300  0.32486700  1
  O  O21  1  0.38041500  0.57876000  0.90362700  1
  O  O22  1  0.09637300  0.97678700  0.67513300  1
  O  O23  1  0.61958500  0.42124000  0.09637300  1
  O  O24  1  0.38041500  0.30165500  0.47678700  1
  O  O25  1  0.57876000  0.90362700  0.38041500  1
  O  O26  1  0.61958500  0.69834500  0.52321300  1
  O  O27  1  0.42124000  0.09637300  0.61958500  1
  O  O28  1  0.11958500  0.59637300  0.92124000  1
  O  O29  1  0.02321300  0.19834500  0.11958500  1
  O  O30  1  0.88041500  0.40362700  0.07876000  1
  O  O31  1  0.97678700  0.80165500  0.88041500  1
  O  O32  1  0.32486700  0.90362700  0.02321300  1
  O  O33  1  0.92124000  0.30165500  0.32486700  1
  O  O34  1  0.67513300  0.09637300  0.97678700  1
  O  O35  1  0.07876000  0.69834500  0.67513300  1
  O  O36  1  0.17513300  0.19834500  0.57876000  1
  O  O37  1  0.47678700  0.59637300  0.17513300  1
  O  O38  1  0.82486700  0.80165500  0.42124000  1
  O  O39  1  0.52321300  0.40362700  0.82486700  1
  O  O40  1  0.30165500  0.32486700  0.92124000  1
  O  O41  1  0.69834500  0.67513300  0.07876000  1
  O  O42  1  0.19834500  0.11958500  0.02321300  1
  O  O43  1  0.80165500  0.88041500  0.97678700  1
  O  O44  1  0.90362700  0.38041500  0.57876000  1
  O  O45  1  0.09637300  0.61958500  0.42124000  1
  O  O46  1  0.59637300  0.17513300  0.47678700  1
  O  O47  1  0.40362700  0.82486700  0.52321300  1
loop_
_geom_bond_atom_site_label_1
_geom_bond_atom_site_label_2
_geom_bond_distance
_geom_bond_site_symmetry_2
Ca0 O40 2.445928 1_554
Ca0 O11 2.445928 1_555
Ca0 O4 2.445928 1_555
Ca0 O42 2.445928 1_555
Ca0 O29 2.589352 1_555
Ca0 O0 2.589352 1_555
Ca0 O37 2.589353 1_555
Ca0 O10 2.589353 1_554
Ca1 O41 2.445928 1_556
Ca1 O14 2.445928 1_555
Ca1 O8 2.445928 1_555
Ca1 O43 2.445928 1_555
Ca1 O31 2.589352 1_555
Ca1 O1 2.589352 1_555
Ca1 O39 2.589353 1_555
Ca1 O13 2.589353 1_556
Ca2 O20 2.445921 1_555
Ca2 O46 2.445921 1_555
Ca2 O16 2.445928 1_545
Ca2 O44 2.445928 1_555
Ca2 O2 2.589360 1_555
Ca2 O33 2.589360 1_555
Ca2 O3 2.589360 1_555
Ca2 O25 2.589360 1_545
Ca3 O36 2.445928 1_555
Ca3 O33 2.445928 1_455
Ca3 O29 2.445928 1_555
Ca3 O24 2.445928 1_555
Ca3 O12 2.589352 1_555
Ca3 O4 2.589352 1_555
Ca3 O20 2.589353 1_455
Ca3 O17 2.589353 1_555
Ca4 O37 2.445921 1_555
Ca4 O32 2.445921 1_555
Ca4 O25 2.445928 1_555
Ca4 O28 2.445928 1_554
Ca4 O5 2.589360 1_555
Ca4 O11 2.589360 1_555
Ca4 O16 2.589360 1_555
Ca4 O21 2.589360 1_554
Ca5 O47 2.445921 1_555
Ca5 O22 2.445921 1_555
Ca5 O18 2.445928 1_565
Ca5 O45 2.445928 1_555
Ca5 O7 2.589360 1_555
Ca5 O35 2.589360 1_555
Ca5 O6 2.589360 1_555
Ca5 O27 2.589360 1_565
Ca6 O35 2.445928 1_655
Ca6 O38 2.445928 1_555
Ca6 O31 2.445928 1_555
Ca6 O26 2.445928 1_555
Ca6 O15 2.589352 1_555
Ca6 O8 2.589352 1_555
Ca6 O19 2.589353 1_555
Ca6 O22 2.589353 1_655
Ca7 O39 2.445921 1_555
Ca7 O34 2.445921 1_555
Ca7 O27 2.445928 1_555
Ca7 O30 2.445928 1_556
Ca7 O14 2.589360 1_555
Ca7 O9 2.589360 1_555
Ca7 O18 2.589360 1_555
Ca7 O23 2.589360 1_556
Ca8 O2 2.445928 1_555
Ca8 O5 2.445928 1_545
Ca8 O0 2.445928 1_555
Ca8 O12 2.445928 1_555
Ca8 O24 2.589352 1_555
Ca8 O42 2.589352 1_555
Ca8 O46 2.589353 1_555
Ca8 O32 2.589353 1_545
Ca9 O9 2.445928 1_565
Ca9 O6 2.445928 1_555
Ca9 O15 2.445928 1_555
Ca9 O1 2.445928 1_555
Ca9 O43 2.589352 1_555
Ca9 O26 2.589352 1_555
Ca9 O47 2.589353 1_555
Ca9 O34 2.589353 1_565
Ca10 O10 2.445921 1_555
Ca10 O17 2.445921 1_555
Ca10 O21 2.445928 1_555
Ca10 O3 2.445928 1_455
Ca10 O36 2.589360 1_555
Ca10 O40 2.589360 1_555
Ca10 O44 2.589360 1_455
Ca10 O28 2.589360 1_555
Ca11 O19 2.445921 1_555
Ca11 O13 2.445921 1_555
Ca11 O7 2.445928 1_655
Ca11 O23 2.445928 1_555
Ca11 O30 2.589360 1_555
Ca11 O38 2.589360 1_555
Ca11 O41 2.589360 1_555
Ca11 O45 2.589360 1_655
Fe0 O45 1.924791 1_555
Fe0 O11 1.924791 1_555
Fe0 O47 1.924793 1_555
Fe0 O4 1.924802 1_555
Fe1 O44 1.924791 1_555
Fe1 O14 1.924791 1_555
Fe1 O46 1.924793 1_555
Fe1 O8 1.924802 1_555
Fe2 O16 1.924791 1_555
Fe2 O41 1.924791 1_555
Fe2 O20 1.924793 1_565
Fe2 O43 1.924802 1_554
Fe3 O27 1.924791 1_555
Fe3 O36 1.924791 1_555
Fe3 O39 1.924793 1_555
Fe3 O24 1.924802 1_555
Fe4 O25 1.924791 1_555
Fe4 O38 1.924791 1_555
Fe4 O37 1.924793 1_555
Fe4 O26 1.924802 1_555
Fe5 O18 1.924791 1_555
Fe5 O40 1.924791 1_555
Fe5 O22 1.924793 1_545
Fe5 O42 1.924802 1_556
Fe6 O28 1.924791 1_555
Fe6 O35 1.924791 1_555
Fe6 O32 1.924793 1_556
Fe6 O31 1.924802 1_455
Fe7 O33 1.924791 1_555
Fe7 O30 1.924791 1_555
Fe7 O34 1.924793 1_554
Fe7 O29 1.924802 1_655
Fe8 O23 1.924791 1_555
Fe8 O2 1.924791 1_555
Fe8 O19 1.924793 1_555
Fe8 O0 1.924802 1_555
Fe9 O21 1.924791 1_555
Fe9 O6 1.924791 1_555
Fe9 O17 1.924793 1_555
Fe9 O1 1.924802 1_555
Fe10 O3 1.924791 1_555
Fe10 O9 1.924791 1_555
Fe10 O10 1.924793 1_655
Fe10 O15 1.924802 1_545
Fe11 O5 1.924791 1_555
Fe11 O7 1.924791 1_555
Fe11 O13 1.924793 1_455
Fe11 O12 1.924802 1_565
O0 Sb5 2.028428 1_555
O1 Sb5 2.028428 1_555
O2 Sb3 2.028433 1_555
O3 Sb6 2.028433 1_655
O4 Sb5 2.028428 1_555
O5 Sb1 2.028433 1_565
O6 Sb3 2.028433 1_566
O7 Sb6 2.028433 1_565
O8 Sb5 2.028428 1_555
O9 Sb1 2.028433 1_555
O10 Sb7 2.028440 1_556
O11 Sb7 2.028433 1_555
O12 Sb0 2.028428 1_555
O13 Sb7 2.028440 1_655
O14 Sb7 2.028433 1_656
O15 Sb0 2.028428 1_666
O16 Sb3 2.028433 1_565
O17 Sb2 2.028440 1_555
O18 Sb3 2.028433 1_556
O19 Sb2 2.028440 1_655
O20 Sb6 2.028440 1_655
O21 Sb4 2.028433 1_556
O22 Sb6 2.028440 1_565
O23 Sb4 2.028433 1_555
O24 Sb5 2.028428 1_555
O25 Sb1 2.028433 1_565
O26 Sb5 2.028428 1_555
O27 Sb1 2.028433 1_555
O28 Sb7 2.028433 1_556
O29 Sb0 2.028428 1_555
O30 Sb7 2.028433 1_655
O31 Sb0 2.028428 1_666
O32 Sb3 2.028440 1_565
O33 Sb2 2.028433 1_655
O34 Sb3 2.028440 1_556
O35 Sb2 2.028433 1_555
O36 Sb6 2.028433 1_555
O37 Sb4 2.028440 1_555
O38 Sb6 2.028433 1_665
O39 Sb4 2.028440 1_556
O40 Sb4 2.028433 1_556
O41 Sb4 2.028433 1_555
O42 Sb0 2.028428 1_555
O43 Sb0 2.028428 1_666
O44 Sb2 2.028433 1_655
O45 Sb2 2.028433 1_555
O46 Sb1 2.028440 1_555
O47 Sb1 2.028440 1_565
