# generated using pymatgen
data_HoZn(BiO3)2
_symmetry_space_group_name_H-M   'P 1'
_cell_length_a   5.60168000
_cell_length_b   6.38579800
_cell_length_c   8.57271200
_cell_angle_alpha   90.00000000
_cell_angle_beta   90.00000000
_cell_angle_gamma   90.00000000
_symmetry_Int_Tables_number   1
_chemical_formula_structural   HoZn(BiO3)2
_chemical_formula_sum   'Ho2 Zn2 Bi4 O12'
_cell_volume   306.65616927
_cell_formula_units_Z   2
loop_
 _symmetry_equiv_pos_site_id
 _symmetry_equiv_pos_as_xyz
  1  'x, y, z'
loop_
 _atom_site_type_symbol
 _atom_site_label
 _atom_site_symmetry_multiplicity
 _atom_site_fract_x
 _atom_site_fract_y
 _atom_site_fract_z
 _atom_site_occupancy
  Ho  Ho0  1  0.04203700  0.66525500  0.00000000  1
  Ho  Ho1  1  0.54203700  0.33474500  0.50000000  1
  Zn  Zn0  1  0.53196500  0.41037600  0.00000000  1
  Zn  Zn1  1  0.03196500  0.58962400  0.50000000  1
  Bi  Bi0  1  0.00748700  0.21821300  0.75754700  1
  Bi  Bi1  1  0.00748700  0.21821300  0.24245300  1
  Bi  Bi2  1  0.50748700  0.78178700  0.25754700  1
  Bi  Bi3  1  0.50748700  0.78178700  0.74245300  1
  O  O0  1  0.15233900  0.25817500  0.50000000  1
  O  O1  1  0.14911100  0.89861400  0.81871000  1
  O  O2  1  0.14911100  0.89861400  0.18129000  1
  O  O3  1  0.29979100  0.47172600  0.83198100  1
  O  O4  1  0.29979100  0.47172600  0.16801900  1
  O  O5  1  0.35999000  0.67841400  0.50000000  1
  O  O6  1  0.65233900  0.74182500  0.00000000  1
  O  O7  1  0.64911100  0.10138600  0.31871000  1
  O  O8  1  0.64911100  0.10138600  0.68129000  1
  O  O9  1  0.79979100  0.52827400  0.66801900  1
  O  O10  1  0.79979100  0.52827400  0.33198100  1
  O  O11  1  0.85999000  0.32158600  0.00000000  1
loop_
_geom_bond_atom_site_label_1
_geom_bond_atom_site_label_2
_geom_bond_distance
_geom_bond_site_symmetry_2
Ho0 O1 2.235123 1_554
Ho0 O2 2.235123 1_555
Ho0 O6 2.237054 1_455
Ho0 O3 2.384681 1_554
Ho0 O4 2.384681 1_555
Ho0 O11 2.419959 1_455
Ho1 O8 2.235123 1_555
Ho1 O7 2.235123 1_555
Ho1 O0 2.237054 1_555
Ho1 O10 2.384681 1_555
Ho1 O9 2.384681 1_555
Ho1 O5 2.419959 1_555
Bi0 O8 2.239200 1_455
Bi0 O1 2.251567 1_545
Bi0 O11 2.332058 1_456
Bi0 O0 2.366058 1_555
Bi0 O3 2.389354 1_555
Bi0 O9 2.421365 1_455
Bi1 O7 2.239200 1_455
Bi1 O2 2.251567 1_545
Bi1 O11 2.332058 1_455
Bi1 O0 2.366058 1_555
Bi1 O4 2.389354 1_555
Bi1 O10 2.421365 1_455
Bi2 O2 2.239200 1_555
Bi2 O7 2.251567 1_565
Bi2 O5 2.332058 1_555
Bi2 O6 2.366058 1_555
Bi2 O10 2.389354 1_555
Bi2 O4 2.421365 1_555
Bi3 O1 2.239200 1_555
Bi3 O8 2.251567 1_565
Bi3 O5 2.332058 1_555
Bi3 O6 2.366058 1_556
Bi3 O9 2.389354 1_555
Bi3 O3 2.421365 1_555
O0 Zn1 2.221380 1_555
O3 Zn0 1.979808 1_556
O4 Zn0 1.979808 1_555
O5 Zn1 1.922981 1_555
O6 Zn0 2.221380 1_555
O9 Zn1 1.979808 1_655
O10 Zn1 1.979808 1_655
O11 Zn0 1.922981 1_555
