# generated using pymatgen
data_Li4Mn3NbO8
_symmetry_space_group_name_H-M   'P 1'
_cell_length_a   6.07363060
_cell_length_b   10.74536290
_cell_length_c   6.07612256
_cell_angle_alpha   72.78014381
_cell_angle_beta   62.08884976
_cell_angle_gamma   90.28211469
_symmetry_Int_Tables_number   1
_chemical_formula_structural   Li4Mn3NbO8
_chemical_formula_sum   'Li8 Mn6 Nb2 O16'
_cell_volume   329.83960359
_cell_formula_units_Z   2
loop_
 _symmetry_equiv_pos_site_id
 _symmetry_equiv_pos_as_xyz
  1  'x, y, z'
loop_
 _atom_site_type_symbol
 _atom_site_label
 _atom_site_symmetry_multiplicity
 _atom_site_fract_x
 _atom_site_fract_y
 _atom_site_fract_z
 _atom_site_occupancy
  Li  Li0  1  0.25617000  0.74997000  0.49387100  1
  Li  Li1  1  0.74414200  0.24997500  0.50641800  1
  Li  Li2  1  0.75148200  0.74984200  0.99831600  1
  Li  Li3  1  0.24823800  0.24988100  0.00160100  1
  Li  Li4  1  0.48912000  0.01182300  0.01539600  1
  Li  Li5  1  0.00748100  0.48943600  0.98750500  1
  Li  Li6  1  0.97709300  0.98941600  0.51785500  1
  Li  Li7  1  0.52630400  0.51136900  0.47810700  1
  Mn  Mn0  1  0.99557200  0.50052500  0.50588400  1
  Mn  Mn1  1  0.74821300  0.24915500  0.00384700  1
  Mn  Mn2  1  0.25286200  0.75098700  0.99582800  1
  Mn  Mn3  1  0.50638900  0.00022400  0.49532500  1
  Mn  Mn4  1  0.75279400  0.74916700  0.49893300  1
  Mn  Mn5  1  0.24686300  0.25093100  0.50144800  1
  Nb  Nb0  1  0.01086900  0.99972000  0.98804400  1
  Nb  Nb1  1  0.48772300  0.49961600  0.01110300  1
  O  O0  1  0.41533200  0.14019500  0.23193300  1
  O  O1  1  0.87189900  0.64038400  0.27510900  1
  O  O2  1  0.63191700  0.85881100  0.72142500  1
  O  O3  1  0.08052600  0.35897200  0.77254300  1
  O  O4  1  0.37176000  0.61035200  0.76518900  1
  O  O5  1  0.87534800  0.11034900  0.76166900  1
  O  O6  1  0.62191300  0.38959600  0.24050500  1
  O  O7  1  0.13031700  0.88966100  0.23203400  1
  O  O8  1  0.11370800  0.88564900  0.76085700  1
  O  O9  1  0.61543200  0.37437800  0.78568400  1
  O  O10  1  0.65979700  0.87438600  0.24143900  1
  O  O11  1  0.14624200  0.38556500  0.22840000  1
  O  O12  1  0.88508800  0.12499500  0.21521200  1
  O  O13  1  0.38534500  0.61472500  0.23873900  1
  O  O14  1  0.35363600  0.11488800  0.77016200  1
  O  O15  1  0.84042600  0.62505400  0.75962000  1
loop_
_geom_bond_atom_site_label_1
_geom_bond_atom_site_label_2
_geom_bond_distance
_geom_bond_site_symmetry_2
Li0 O4 2.256307 1_555
Li0 O7 2.259292 1_555
Li0 O13 2.310217 1_555
Li0 O10 2.320138 1_555
Li0 O8 2.367383 1_555
Li0 O15 2.377225 1_455
Li1 O5 2.254460 1_555
Li1 O6 2.260797 1_555
Li1 O14 2.308886 1_555
Li1 O9 2.321371 1_555
Li1 O11 2.363500 1_655
Li1 O12 2.380611 1_555
Li2 O15 2.149046 1_555
Li2 O10 2.165877 1_556
Li2 O2 2.171350 1_555
Li2 O1 2.176155 1_556
Li2 O8 2.191214 1_655
Li2 O13 2.204156 1_556
Li3 O12 2.147033 1_455
Li3 O9 2.162603 1_554
Li3 O3 2.172972 1_554
Li3 O0 2.177757 1_555
Li3 O11 2.192659 1_555
Li3 O14 2.205795 1_554
Li4 O14 2.074556 1_554
Li4 O0 2.088851 1_555
Li4 O7 2.113787 1_545
Li4 O5 2.150309 1_554
Li4 O10 2.299794 1_545
Li5 O11 2.072523 1_556
Li5 O3 2.101390 1_555
Li5 O4 2.131318 1_555
Li5 O6 2.150962 1_456
Li5 O15 2.281560 1_455
Li5 O1 2.589773 1_456
Li6 O8 2.071992 1_655
Li6 O2 2.100048 1_555
Li6 O5 2.134435 1_565
Li6 O7 2.151750 1_655
Li6 O12 2.280367 1_565
Li6 O0 2.586437 1_665
Li7 O13 2.073762 1_555
Li7 O1 2.093847 1_555
Li7 O6 2.115356 1_555
Li7 O4 2.151861 1_555
Li7 O9 2.297551 1_555
Mn0 O3 2.129851 1_655
Mn0 O1 2.130363 1_555
Mn0 O15 2.220177 1_555
Mn0 O13 2.222483 1_655
Mn0 O9 2.233456 1_555
Mn0 O11 2.237375 1_655
Mn1 O0 1.942137 1_555
Mn1 O3 1.944313 1_654
Mn1 O12 2.028895 1_555
Mn1 O9 2.042929 1_554
Mn1 O6 2.279706 1_555
Mn1 O5 2.287633 1_554
Mn2 O2 2.158453 1_555
Mn2 O1 2.179168 1_456
Mn2 O8 2.182892 1_555
Mn2 O13 2.194014 1_556
Mn2 O4 2.255263 1_555
Mn2 O7 2.260819 1_556
Mn3 O2 2.129228 1_545
Mn3 O0 2.130946 1_555
Mn3 O12 2.222218 1_555
Mn3 O14 2.224085 1_555
Mn3 O10 2.231156 1_545
Mn3 O8 2.235969 1_545
Mn4 O1 1.941062 1_555
Mn4 O2 1.943458 1_555
Mn4 O15 2.028882 1_555
Mn4 O10 2.041012 1_555
Mn4 O7 2.280720 1_655
Mn4 O4 2.286937 1_555
Mn5 O3 2.160450 1_555
Mn5 O0 2.177513 1_555
Mn5 O11 2.180775 1_555
Mn5 O14 2.193352 1_555
Mn5 O5 2.255126 1_455
Mn5 O6 2.260410 1_555
Nb0 O8 2.000061 1_555
Nb0 O14 2.010599 1_565
Nb0 O5 2.020901 1_465
Nb0 O7 2.024865 1_556
Nb0 O10 2.097953 1_456
Nb0 O12 2.103315 1_466
Nb1 O11 2.000000 1_555
Nb1 O13 2.011204 1_555
Nb1 O4 2.021234 1_554
Nb1 O6 2.025376 1_555
Nb1 O9 2.096572 1_554
Nb1 O15 2.104339 1_554
