# generated using pymatgen
data_KAlSi3Ni3(HO6)2
_symmetry_space_group_name_H-M   'P 1'
_cell_length_a   5.33073600
_cell_length_b   5.33626873
_cell_length_c   10.53341537
_cell_angle_alpha   99.71204616
_cell_angle_beta   85.22362693
_cell_angle_gamma   119.92725778
_symmetry_Int_Tables_number   1
_chemical_formula_structural   KAlSi3Ni3(HO6)2
_chemical_formula_sum   'K1 Al1 Si3 Ni3 H2 O12'
_cell_volume   255.96053502
_cell_formula_units_Z   1
loop_
 _symmetry_equiv_pos_site_id
 _symmetry_equiv_pos_as_xyz
  1  'x, y, z'
loop_
 _atom_site_type_symbol
 _atom_site_label
 _atom_site_symmetry_multiplicity
 _atom_site_fract_x
 _atom_site_fract_y
 _atom_site_fract_z
 _atom_site_occupancy
  K  K0  1  0.99980800  0.00808800  0.02433800  1
  Al  Al0  1  0.66618200  0.40986700  0.23119600  1
  Si  Si0  1  0.33384700  0.74217900  0.22596300  1
  Si  Si1  1  0.33219400  0.58824800  0.76524300  1
  Si  Si2  1  0.66587300  0.25301200  0.76515700  1
  Ni  Ni0  1  0.33683300  0.16507700  0.49614900  1
  Ni  Ni1  1  0.66374900  0.82737100  0.49595700  1
  Ni  Ni2  1  0.99924800  0.50325600  0.49603400  1
  H  H0  1  0.00015600  0.10772900  0.31068900  1
  H  H1  1  0.00556200  0.89927500  0.69343200  1
  O  O0  1  0.99940600  0.13625900  0.40439800  1
  O  O1  1  0.00331100  0.86956300  0.59972000  1
  O  O2  1  0.66417500  0.46443700  0.40035100  1
  O  O3  1  0.33458900  0.79536200  0.38667000  1
  O  O4  1  0.33092700  0.53882000  0.60981800  1
  O  O5  1  0.66588700  0.19927000  0.60975800  1
  O  O6  1  0.57067500  0.63989800  0.17063700  1
  O  O7  1  0.41702500  0.04398800  0.17076900  1
  O  O8  1  0.47382300  0.41467300  0.82297300  1
  O  O9  1  0.52501400  0.94061700  0.82496600  1
  O  O10  1  0.01276200  0.48702500  0.17138400  1
  O  O11  1  0.99895700  0.46598500  0.82440000  1
loop_
_geom_bond_atom_site_label_1
_geom_bond_atom_site_label_2
_geom_bond_distance
_geom_bond_site_symmetry_2
K0 O7 2.721896 1_655
K0 O6 2.723586 1_545
K0 O10 2.727959 1_655
Al0 O2 1.756282 1_555
Al0 O10 1.764786 1_655
Al0 O6 1.764861 1_555
Al0 O7 1.764996 1_555
Ni0 O2 2.020965 1_555
Ni0 O0 2.038744 1_455
Ni0 O1 2.073125 1_545
Ni0 O3 2.105576 1_545
Ni0 O5 2.121032 1_555
Ni0 O4 2.159370 1_555
Ni1 O2 2.027558 1_555
Ni1 O0 2.038326 1_565
Ni1 O1 2.088447 1_655
Ni1 O3 2.098618 1_555
Ni1 O4 2.121312 1_555
Ni1 O5 2.133676 1_565
Ni2 O2 2.027150 1_555
Ni2 O0 2.032419 1_555
Ni2 O1 2.062912 1_655
Ni2 O3 2.105922 1_655
Ni2 O4 2.130729 1_655
Ni2 O5 2.156171 1_555
H0 O0 0.973016 1_455
H1 O1 0.973105 1_555
O3 Si0 1.668537 1_555
O4 Si1 1.613774 1_555
O5 Si2 1.613458 1_555
O6 Si0 1.639829 1_555
O7 Si0 1.639778 1_545
O8 Si1 1.661915 1_555
O8 Si2 1.662323 1_555
O9 Si2 1.663206 1_565
O9 Si1 1.663738 1_555
O10 Si0 1.639645 1_555
O11 Si2 1.662969 1_555
O11 Si1 1.663112 1_655
