# generated using pymatgen
data_EuGaO3
_symmetry_space_group_name_H-M   'P 1'
_cell_length_a   3.67296525
_cell_length_b   3.67296525
_cell_length_c   11.59799800
_cell_angle_alpha   90.00000000
_cell_angle_beta   90.00000000
_cell_angle_gamma   119.99998653
_symmetry_Int_Tables_number   1
_chemical_formula_structural   EuGaO3
_chemical_formula_sum   'Eu2 Ga2 O6'
_cell_volume   135.50251615
_cell_formula_units_Z   2
loop_
 _symmetry_equiv_pos_site_id
 _symmetry_equiv_pos_as_xyz
  1  'x, y, z'
loop_
 _atom_site_type_symbol
 _atom_site_label
 _atom_site_symmetry_multiplicity
 _atom_site_fract_x
 _atom_site_fract_y
 _atom_site_fract_z
 _atom_site_occupancy
  Eu  Eu0  1  0.00000000  0.00000000  0.00000000  1
  Eu  Eu1  1  0.00000000  0.00000000  0.50000000  1
  Ga  Ga0  1  0.33333300  0.66666700  0.25000000  1
  Ga  Ga1  1  0.66666700  0.33333300  0.75000000  1
  O  O0  1  0.33333300  0.66666700  0.08831100  1
  O  O1  1  0.66666700  0.33333300  0.91168900  1
  O  O2  1  0.66666700  0.33333300  0.58831100  1
  O  O3  1  0.33333300  0.66666700  0.41168900  1
  O  O4  1  0.00000000  0.00000000  0.25000000  1
  O  O5  1  0.00000000  0.00000000  0.75000000  1
loop_
_geom_bond_atom_site_label_1
_geom_bond_atom_site_label_2
_geom_bond_distance
_geom_bond_site_symmetry_2
Eu0 O0 2.354980 1_545
Eu0 O1 2.354980 1_454
Eu0 O1 2.354983 1_444
Eu0 O0 2.354983 1_555
Eu0 O0 2.354983 1_445
Eu0 O1 2.354983 1_554
Eu1 O2 2.354980 1_455
Eu1 O3 2.354980 1_545
Eu1 O2 2.354983 1_555
Eu1 O2 2.354983 1_445
Eu1 O3 2.354983 1_555
Eu1 O3 2.354983 1_445
Ga0 O3 1.875269 1_555
Ga0 O0 1.875269 1_555
Ga0 O4 2.120585 1_565
Ga0 O4 2.120589 1_555
Ga0 O4 2.120589 1_665
Ga1 O2 1.875269 1_555
Ga1 O1 1.875269 1_555
Ga1 O5 2.120585 1_655
Ga1 O5 2.120589 1_555
Ga1 O5 2.120589 1_665
