# generated using pymatgen
data_HfGeO2
_symmetry_space_group_name_H-M   'P 1'
_cell_length_a   7.03604593
_cell_length_b   7.03604593
_cell_length_c   7.03604593
_cell_angle_alpha   125.51144752
_cell_angle_beta   125.51144752
_cell_angle_gamma   80.69260422
_symmetry_Int_Tables_number   1
_chemical_formula_structural   HfGeO2
_chemical_formula_sum   'Hf4 Ge4 O8'
_cell_volume   222.53950991
_cell_formula_units_Z   4
loop_
 _symmetry_equiv_pos_site_id
 _symmetry_equiv_pos_as_xyz
  1  'x, y, z'
loop_
 _atom_site_type_symbol
 _atom_site_label
 _atom_site_symmetry_multiplicity
 _atom_site_fract_x
 _atom_site_fract_y
 _atom_site_fract_z
 _atom_site_occupancy
  Hf  Hf0  1  0.87500000  0.62500000  0.25000000  1
  Hf  Hf1  1  0.37500000  0.62500000  0.75000000  1
  Hf  Hf2  1  0.37500000  0.62500000  0.25000000  1
  Hf  Hf3  1  0.37500000  0.12500000  0.75000000  1
  Ge  Ge0  1  0.37500000  0.12500000  0.25000000  1
  Ge  Ge1  1  0.87500000  0.12500000  0.75000000  1
  Ge  Ge2  1  0.87500000  0.12500000  0.25000000  1
  Ge  Ge3  1  0.87500000  0.62500000  0.75000000  1
  O  O0  1  0.17244600  0.45365800  0.28121100  1
  O  O1  1  0.17244600  0.89123500  0.71878900  1
  O  O2  1  0.20365800  0.42244600  0.78121100  1
  O  O3  1  0.57755400  0.79634200  0.21878900  1
  O  O4  1  0.64123500  0.42244600  0.21878900  1
  O  O5  1  0.57755400  0.35876500  0.78121100  1
  O  O6  1  0.54634200  0.82755400  0.71878900  1
  O  O7  1  0.10876500  0.82755400  0.28121100  1
loop_
_geom_bond_atom_site_label_1
_geom_bond_atom_site_label_2
_geom_bond_distance
_geom_bond_site_symmetry_2
Hf0 O4 2.181672 1_555
Hf0 O7 2.181672 1_655
Hf0 O3 2.199805 1_555
Hf0 O0 2.199805 1_655
Hf0 O1 2.199808 1_655
Hf0 O5 2.199808 1_554
Hf1 O6 2.181667 1_555
Hf1 O2 2.181667 1_555
Hf1 O1 2.199808 1_555
Hf1 O5 2.199808 1_555
Hf1 O3 2.199810 1_556
Hf1 O0 2.199810 1_555
Hf2 O0 2.181667 1_555
Hf2 O3 2.181667 1_555
Hf2 O7 2.199808 1_555
Hf2 O4 2.199808 1_555
Hf2 O2 2.199810 1_554
Hf2 O6 2.199810 1_555
Hf3 O1 2.181672 1_545
Hf3 O5 2.181672 1_555
Hf3 O6 2.199805 1_545
Hf3 O2 2.199805 1_555
Hf3 O4 2.199808 1_556
Hf3 O7 2.199808 1_545
Ge0 O1 2.476770 1_544
Ge0 O5 2.476770 1_555
Ge0 O3 2.476775 1_545
Ge0 O0 2.476775 1_555
Ge1 O1 2.476770 1_645
Ge1 O5 2.476770 1_555
Ge1 O0 2.476771 1_656
Ge1 O3 2.476771 1_545
Ge2 O7 2.476770 1_645
Ge2 O4 2.476770 1_555
Ge2 O2 2.476771 1_655
Ge2 O6 2.476771 1_544
Ge3 O7 2.476770 1_656
Ge3 O4 2.476770 1_555
Ge3 O2 2.476775 1_655
Ge3 O6 2.476775 1_555
