# generated using pymatgen
data_Na5Ni2P(CO4)4
_symmetry_space_group_name_H-M   'P 1'
_cell_length_a   9.89699862
_cell_length_b   9.89699862
_cell_length_c   9.84490393
_cell_angle_alpha   60.24130627
_cell_angle_beta   60.24130627
_cell_angle_gamma   90.64347447
_symmetry_Int_Tables_number   1
_chemical_formula_structural   Na5Ni2P(CO4)4
_chemical_formula_sum   'Na10 Ni4 P2 C8 O32'
_cell_volume   682.97485338
_cell_formula_units_Z   2
loop_
 _symmetry_equiv_pos_site_id
 _symmetry_equiv_pos_as_xyz
  1  'x, y, z'
loop_
 _atom_site_type_symbol
 _atom_site_label
 _atom_site_symmetry_multiplicity
 _atom_site_fract_x
 _atom_site_fract_y
 _atom_site_fract_z
 _atom_site_occupancy
  Na  Na0  1  0.65463600  0.90939800  0.25744500  1
  Na  Na1  1  0.90939800  0.65463600  0.75744500  1
  Na  Na2  1  0.08807700  0.91192300  0.25000000  1
  Na  Na3  1  0.09024700  0.34452400  0.82271200  1
  Na  Na4  1  0.65547600  0.90975300  0.67728800  1
  Na  Na5  1  0.91192300  0.08807700  0.75000000  1
  Na  Na6  1  0.34452400  0.09024700  0.32271200  1
  Na  Na7  1  0.90975300  0.65547600  0.17728800  1
  Na  Na8  1  0.09060200  0.34536400  0.24255500  1
  Na  Na9  1  0.34536400  0.09060200  0.74255500  1
  Ni  Ni0  1  0.50000000  0.00000000  0.00000000  1
  Ni  Ni1  1  0.50000000  0.50000000  0.50000000  1
  Ni  Ni2  1  0.50000000  0.50000000  0.00000000  1
  Ni  Ni3  1  0.00000000  0.50000000  0.50000000  1
  P  P0  1  0.12312100  0.87687900  0.75000000  1
  P  P1  1  0.87687900  0.12312100  0.25000000  1
  C  C0  1  0.28385600  0.71588800  0.43244200  1
  C  C1  1  0.65067000  0.71794400  0.06540800  1
  C  C2  1  0.28411200  0.71614400  0.06755800  1
  C  C3  1  0.28205600  0.34933000  0.43459200  1
  C  C4  1  0.71588800  0.28385600  0.93244200  1
  C  C5  1  0.71794400  0.65067000  0.56540800  1
  C  C6  1  0.34933000  0.28205600  0.93459200  1
  C  C7  1  0.71614400  0.28411200  0.56755800  1
  O  O0  1  0.31536700  0.94017700  0.62310900  1
  O  O1  1  0.06087800  0.93913600  0.87932700  1
  O  O2  1  0.06086400  0.93912200  0.62067300  1
  O  O3  1  0.05982300  0.68463300  0.87689100  1
  O  O4  1  0.65447700  0.69546600  0.20452600  1
  O  O5  1  0.39931000  0.85990800  0.29394900  1
  O  O6  1  0.65361900  0.86048200  0.94628800  1
  O  O7  1  0.30859800  0.59632200  0.54402200  1
  O  O8  1  0.13924100  0.69407900  0.46208200  1
  O  O9  1  0.65187000  0.60250100  0.03963100  1
  O  O10  1  0.30592100  0.86075900  0.03791800  1
  O  O11  1  0.39749900  0.34813000  0.46036900  1
  O  O12  1  0.85990800  0.39931000  0.79394900  1
  O  O13  1  0.69546600  0.65447700  0.70452600  1
  O  O14  1  0.40367800  0.69140200  0.95597800  1
  O  O15  1  0.13951800  0.34638100  0.55371200  1
  O  O16  1  0.86048200  0.65361900  0.44628800  1
  O  O17  1  0.59632200  0.30859800  0.04402200  1
  O  O18  1  0.30453400  0.34552300  0.29547400  1
  O  O19  1  0.14009200  0.60069000  0.20605100  1
  O  O20  1  0.69407900  0.13924100  0.96208200  1
  O  O21  1  0.60250100  0.65187000  0.53963100  1
  O  O22  1  0.34813000  0.39749900  0.96036900  1
  O  O23  1  0.86075900  0.30592100  0.53791800  1
  O  O24  1  0.69140200  0.40367800  0.45597800  1
  O  O25  1  0.34638100  0.13951800  0.05371200  1
  O  O26  1  0.34552300  0.30453400  0.79547400  1
  O  O27  1  0.60069000  0.14009200  0.70605100  1
  O  O28  1  0.94017700  0.31536700  0.12310900  1
  O  O29  1  0.93913600  0.06087800  0.37932700  1
  O  O30  1  0.93912200  0.06086400  0.12067300  1
  O  O31  1  0.68463300  0.05982300  0.37689100  1
loop_
_geom_bond_atom_site_label_1
_geom_bond_atom_site_label_2
_geom_bond_distance
_geom_bond_site_symmetry_2
Na0 O5 2.377089 1_555
Na0 O31 2.400392 1_565
Na0 O4 2.418692 1_555
Na0 O21 2.449227 1_555
Na0 O20 2.463590 1_564
Na0 O30 2.474993 1_565
Na1 O12 2.377089 1_555
Na1 O3 2.400392 1_655
Na1 O13 2.418692 1_555
Na1 O9 2.449227 1_556
Na1 O8 2.463590 1_655
Na1 O2 2.474993 1_655
Na2 O8 2.422717 1_555
Na2 O10 2.422717 1_555
Na2 O16 2.447246 1_455
Na2 O25 2.447246 1_565
Na2 O29 2.452798 1_465
Na2 O30 2.452798 1_465
Na3 O7 2.369352 1_555
Na3 O28 2.412088 1_456
Na3 O15 2.433316 1_555
Na3 O26 2.463099 1_555
Na3 O12 2.467229 1_455
Na3 O30 2.469526 1_456
Na4 O14 2.369352 1_555
Na4 O31 2.412088 1_565
Na4 O6 2.433316 1_555
Na4 O13 2.463099 1_555
Na4 O27 2.467229 1_565
Na4 O29 2.469526 1_565
Na5 O20 2.422717 1_555
Na5 O23 2.422717 1_555
Na5 O6 2.447246 1_545
Na5 O15 2.447246 1_655
Na5 O1 2.452798 1_645
Na5 O2 2.452798 1_645
Na6 O17 2.369352 1_555
Na6 O0 2.412088 1_545
Na6 O25 2.433316 1_555
Na6 O18 2.463099 1_555
Na6 O5 2.467229 1_545
Na6 O2 2.469526 1_545
Na7 O24 2.369352 1_555
Na7 O3 2.412088 1_654
Na7 O16 2.433316 1_555
Na7 O4 2.463099 1_555
Na7 O19 2.467229 1_655
Na7 O1 2.469526 1_654
Na8 O19 2.377089 1_555
Na8 O28 2.400392 1_455
Na8 O18 2.418692 1_555
Na8 O22 2.449227 1_554
Na8 O23 2.463590 1_455
Na8 O29 2.474993 1_455
Na9 O27 2.377089 1_555
Na9 O0 2.400392 1_545
Na9 O26 2.418692 1_555
Na9 O11 2.449227 1_555
Na9 O10 2.463590 1_546
Na9 O1 2.474993 1_545
Ni0 O5 2.100761 1_545
Ni0 O27 2.100761 1_554
Ni0 O20 2.108547 1_554
Ni0 O10 2.108547 1_545
Ni0 O25 2.114631 1_555
Ni0 O6 2.114631 1_544
Ni1 O24 2.078633 1_555
Ni1 O7 2.078633 1_555
Ni1 O11 2.093165 1_555
Ni1 O21 2.093165 1_555
Ni1 O26 2.115193 1_555
Ni1 O4 2.115193 1_555
Ni2 O14 2.078633 1_554
Ni2 O17 2.078633 1_555
Ni2 O9 2.093165 1_555
Ni2 O22 2.093165 1_554
Ni2 O18 2.115193 1_555
Ni2 O13 2.115193 1_554
Ni3 O12 2.100761 1_455
Ni3 O19 2.100761 1_555
Ni3 O8 2.108547 1_555
Ni3 O23 2.108547 1_455
Ni3 O15 2.114631 1_555
Ni3 O16 2.114631 1_455
C0 O7 1.284557 1_555
C0 O5 1.297667 1_555
C0 O8 1.302371 1_555
C1 O9 1.286498 1_555
C1 O4 1.294479 1_555
C1 O6 1.299625 1_554
C2 O14 1.284557 1_554
C2 O19 1.297667 1_555
C2 O10 1.302371 1_555
C3 O11 1.286498 1_555
C3 O18 1.294479 1_555
C3 O15 1.299625 1_555
C4 O17 1.284557 1_556
C4 O12 1.297667 1_555
C4 O20 1.302371 1_555
C5 O21 1.286498 1_555
C5 O13 1.294479 1_555
C5 O16 1.299625 1_555
C6 O22 1.286498 1_555
C6 O26 1.294479 1_555
C6 O25 1.299625 1_556
C7 O24 1.284557 1_555
C7 O27 1.297667 1_555
C7 O23 1.302371 1_555
O0 P0 1.552414 1_555
O1 P0 1.545606 1_555
O2 P0 1.545606 1_555
O3 P0 1.552414 1_555
O28 P1 1.552414 1_555
O29 P1 1.545606 1_555
O30 P1 1.545606 1_555
O31 P1 1.552414 1_555
