# generated using pymatgen
data_TmFeCu
_symmetry_space_group_name_H-M   'P 1'
_cell_length_a   5.16531864
_cell_length_b   5.16531864
_cell_length_c   5.16531864
_cell_angle_alpha   121.77791498
_cell_angle_beta   121.28005167
_cell_angle_gamma   87.37208164
_symmetry_Int_Tables_number   1
_chemical_formula_structural   TmFeCu
_chemical_formula_sum   'Tm2 Fe2 Cu2'
_cell_volume   95.08558587
_cell_formula_units_Z   2
loop_
 _symmetry_equiv_pos_site_id
 _symmetry_equiv_pos_as_xyz
  1  'x, y, z'
loop_
 _atom_site_type_symbol
 _atom_site_label
 _atom_site_symmetry_multiplicity
 _atom_site_fract_x
 _atom_site_fract_y
 _atom_site_fract_z
 _atom_site_occupancy
  Tm  Tm0  1  0.37139000  0.12139000  0.25000000  1
  Tm  Tm1  1  0.62861000  0.87861000  0.75000000  1
  Fe  Fe0  1  0.00000000  0.50000000  0.00000000  1
  Fe  Fe1  1  0.00000000  0.00000000  0.50000000  1
  Cu  Cu0  1  0.50000000  0.50000000  0.00000000  1
  Cu  Cu1  1  0.00000000  0.50000000  0.50000000  1
loop_
_geom_bond_atom_site_label_1
_geom_bond_atom_site_label_2
_geom_bond_distance
_geom_bond_site_symmetry_2
Fe0 Fe1 2.512947 1_565
Fe0 Fe1 2.512947 1_554
Fe0 Tm0 2.985887 1_454
Fe0 Tm1 2.985887 1_555
Fe0 Tm0 2.985887 1_555
Fe0 Tm1 2.985887 1_454
Fe0 Tm1 3.045702 1_444
Fe0 Tm0 3.045702 1_565
Fe1 Tm0 2.985887 1_556
Fe1 Tm0 2.985887 1_455
Fe1 Tm1 2.985887 1_545
Fe1 Tm1 2.985887 1_444
Fe1 Tm1 3.045702 1_445
Fe1 Tm0 3.045702 1_555
Cu0 Cu1 2.532530 1_554
Cu0 Cu1 2.532530 1_655
Cu0 Fe0 2.582659 1_555
Cu0 Fe1 2.582659 1_554
Cu0 Fe0 2.582659 1_655
Cu0 Fe1 2.582659 1_665
Cu0 Tm1 2.956465 1_544
Cu0 Tm1 2.956465 1_555
Cu0 Tm0 2.956465 1_554
Cu0 Tm0 2.956465 1_565
Cu0 Tm0 3.098903 1_555
Cu0 Tm1 3.098903 1_554
Cu1 Fe0 2.582659 1_555
Cu1 Fe0 2.582659 1_556
Cu1 Fe1 2.582659 1_555
Cu1 Fe1 2.582659 1_565
Cu1 Tm1 2.956465 1_444
Cu1 Tm0 2.956465 1_555
Cu1 Tm0 2.956465 1_566
Cu1 Tm1 2.956465 1_455
Cu1 Tm0 3.098903 1_455
Cu1 Tm1 3.098903 1_555
