# generated using pymatgen
data_Ba6Pr2Y(CuO2)12
_symmetry_space_group_name_H-M   'P 1'
_cell_length_a   5.53221100
_cell_length_b   8.71235516
_cell_length_c   13.93952996
_cell_angle_alpha   82.85456410
_cell_angle_beta   84.36950212
_cell_angle_gamma   71.89545706
_symmetry_Int_Tables_number   1
_chemical_formula_structural   Ba6Pr2Y(CuO2)12
_chemical_formula_sum   'Ba6 Pr2 Y1 Cu12 O24'
_cell_volume   632.38214902
_cell_formula_units_Z   1
loop_
 _symmetry_equiv_pos_site_id
 _symmetry_equiv_pos_as_xyz
  1  'x, y, z'
loop_
 _atom_site_type_symbol
 _atom_site_label
 _atom_site_symmetry_multiplicity
 _atom_site_fract_x
 _atom_site_fract_y
 _atom_site_fract_z
 _atom_site_occupancy
  Ba  Ba0  1  0.95474700  0.45481500  0.27154700  1
  Ba  Ba1  1  0.62135900  0.12107300  0.27304500  1
  Ba  Ba2  1  0.28765600  0.78798800  0.27298600  1
  Ba  Ba3  1  0.71234400  0.21201200  0.72701400  1
  Ba  Ba4  1  0.37864100  0.87892700  0.72695500  1
  Ba  Ba5  1  0.04525300  0.54518500  0.72845300  1
  Pr  Pr0  1  0.33425400  0.83169500  0.00000200  1
  Pr  Pr1  1  0.66574600  0.16830500  0.99999800  1
  Y  Y0  1  0.00000000  0.50000000  0.00000000  1
  Cu  Cu0  1  0.57069700  0.57082800  0.57568400  1
  Cu  Cu1  1  0.23752200  0.23753000  0.57564800  1
  Cu  Cu2  1  0.90405100  0.90393000  0.57559200  1
  Cu  Cu3  1  0.42930300  0.42917200  0.42431600  1
  Cu  Cu4  1  0.09594900  0.09607000  0.42440800  1
  Cu  Cu5  1  0.76247800  0.76247000  0.42435200  1
  Cu  Cu6  1  0.52105200  0.52132100  0.87297200  1
  Cu  Cu7  1  0.18712400  0.18935200  0.87229500  1
  Cu  Cu8  1  0.85546300  0.85277700  0.87248500  1
  Cu  Cu9  1  0.47894800  0.47867900  0.12702800  1
  Cu  Cu10  1  0.14453700  0.14722300  0.12751500  1
  Cu  Cu11  1  0.81287600  0.81064800  0.12770500  1
  O  O0  1  0.59345900  0.59391700  0.43780900  1
  O  O1  1  0.26073900  0.26025300  0.43787400  1
  O  O2  1  0.92688500  0.92688700  0.43763300  1
  O  O3  1  0.40654100  0.40608300  0.56219100  1
  O  O4  1  0.07311500  0.07311300  0.56236700  1
  O  O5  1  0.73926100  0.73974700  0.56212600  1
  O  O6  1  0.54874900  0.54874000  0.70961900  1
  O  O7  1  0.21554800  0.21521000  0.70949700  1
  O  O8  1  0.88198500  0.88216500  0.70945500  1
  O  O9  1  0.45125100  0.45126000  0.29038100  1
  O  O10  1  0.11801500  0.11783500  0.29054500  1
  O  O11  1  0.78445200  0.78479000  0.29050300  1
  O  O12  1  0.65723700  0.64448500  0.10696300  1
  O  O13  1  0.30746600  0.31992200  0.10692100  1
  O  O14  1  0.98162000  0.98157100  0.11088200  1
  O  O15  1  0.34276300  0.35551500  0.89303700  1
  O  O16  1  0.01838000  0.01842900  0.88911800  1
  O  O17  1  0.69253400  0.68007800  0.89307900  1
  O  O18  1  0.85471000  0.35533700  0.89083800  1
  O  O19  1  0.51890900  0.01875600  0.88687500  1
  O  O20  1  0.18171100  0.68103500  0.89076800  1
  O  O21  1  0.81828900  0.31896500  0.10923200  1
  O  O22  1  0.48109100  0.98124400  0.11312500  1
  O  O23  1  0.14529000  0.64466300  0.10916200  1
loop_
_geom_bond_atom_site_label_1
_geom_bond_atom_site_label_2
_geom_bond_distance
_geom_bond_site_symmetry_2
Ba0 O11 2.771108 1_555
Ba0 O9 2.775105 1_655
Ba0 O10 2.776837 1_655
Ba0 O9 2.781491 1_555
Ba0 O21 2.940538 1_555
Ba0 O23 2.941889 1_655
Ba0 O12 2.968253 1_555
Ba0 O13 2.970177 1_655
Ba0 O0 3.019813 1_555
Ba0 O1 3.020518 1_655
Ba1 O9 2.768618 1_555
Ba1 O11 2.771266 1_545
Ba1 O10 2.773315 1_655
Ba1 O10 2.779955 1_555
Ba1 O22 2.942487 1_545
Ba1 O14 2.975415 1_545
Ba1 O2 3.000155 1_545
Ba1 O1 3.003295 1_555
Ba1 O21 3.012231 1_555
Ba1 O13 3.049684 1_555
Ba2 O10 2.766371 1_565
Ba2 O11 2.774238 1_555
Ba2 O9 2.774957 1_555
Ba2 O11 2.779072 1_455
Ba2 O22 2.943510 1_555
Ba2 O14 2.974038 1_455
Ba2 O2 3.001065 1_455
Ba2 O0 3.003029 1_555
Ba2 O23 3.011326 1_555
Ba2 O12 3.049920 1_555
Ba3 O8 2.766371 1_545
Ba3 O7 2.774238 1_555
Ba3 O6 2.774957 1_555
Ba3 O7 2.779072 1_655
Ba3 O19 2.943510 1_555
Ba3 O16 2.974038 1_655
Ba3 O4 3.001065 1_655
Ba3 O3 3.003029 1_555
Ba3 O18 3.011326 1_555
Ba3 O15 3.049920 1_555
Ba4 O6 2.768618 1_555
Ba4 O7 2.771266 1_565
Ba4 O8 2.773315 1_455
Ba4 O8 2.779955 1_555
Ba4 O19 2.942487 1_565
Ba4 O16 2.975415 1_565
Ba4 O4 3.000155 1_565
Ba4 O5 3.003295 1_555
Ba4 O20 3.012231 1_555
Ba4 O17 3.049684 1_555
Ba5 O7 2.771108 1_555
Ba5 O6 2.775105 1_455
Ba5 O8 2.776837 1_455
Ba5 O6 2.781491 1_555
Ba5 O20 2.940538 1_555
Ba5 O18 2.941889 1_455
Ba5 O15 2.968253 1_555
Ba5 O17 2.970177 1_455
Ba5 O3 3.019813 1_555
Ba5 O5 3.020518 1_455
Cu0 O6 1.848808 1_555
Cu0 O0 1.903193 1_555
Cu0 O5 1.954572 1_555
Cu0 O3 1.957302 1_555
Cu1 O7 1.847619 1_555
Cu1 O1 1.901800 1_555
Cu1 O3 1.953567 1_555
Cu1 O4 1.955050 1_555
Cu2 O8 1.847818 1_555
Cu2 O2 1.904352 1_555
Cu2 O5 1.955325 1_555
Cu2 O4 1.958767 1_665
Cu3 O9 1.848808 1_555
Cu3 O3 1.903193 1_555
Cu3 O1 1.954572 1_555
Cu3 O0 1.957302 1_555
Cu4 O10 1.847818 1_555
Cu4 O4 1.904352 1_555
Cu4 O1 1.955325 1_555
Cu4 O2 1.958767 1_445
Cu5 O11 1.847619 1_555
Cu5 O5 1.901800 1_555
Cu5 O0 1.953567 1_555
Cu5 O2 1.955050 1_555
Cu6 O17 1.963611 1_555
Cu6 O15 1.966906 1_555
Cu6 O20 1.973074 1_555
Cu6 O18 1.975372 1_555
Cu6 O6 2.254889 1_555
Cu7 O15 1.961733 1_555
Cu7 O16 1.969305 1_555
Cu7 O18 1.971506 1_455
Cu7 O19 1.980399 1_555
Cu7 O7 2.247251 1_555
Cu8 O17 1.960452 1_555
Cu8 O20 1.969348 1_655
Cu8 O16 1.970188 1_665
Cu8 O19 1.980784 1_565
Cu8 O8 2.250508 1_555
Cu9 O13 1.963611 1_555
Cu9 O12 1.966906 1_555
Cu9 O21 1.973074 1_555
Cu9 O23 1.975372 1_555
Cu9 O9 2.254889 1_555
Cu10 O13 1.960452 1_555
Cu10 O21 1.969348 1_455
Cu10 O14 1.970188 1_445
Cu10 O22 1.980784 1_545
Cu10 O10 2.250508 1_555
Cu11 O12 1.961733 1_555
Cu11 O14 1.969305 1_555
Cu11 O23 1.971506 1_655
Cu11 O22 1.980399 1_555
Cu11 O11 2.247251 1_555
O12 Y0 2.414962 1_655
O12 Pr0 2.486466 1_555
O13 Y0 2.415220 1_555
O13 Pr1 2.485531 1_554
O14 Pr0 2.495394 1_655
O14 Pr1 2.495413 1_564
O15 Y0 2.414962 1_556
O15 Pr1 2.486466 1_555
O16 Pr1 2.495394 1_455
O16 Pr0 2.495413 1_546
O17 Y0 2.415220 1_656
O17 Pr0 2.485531 1_556
O18 Y0 2.428321 1_656
O18 Pr1 2.488610 1_555
O19 Pr1 2.502866 1_555
O19 Pr0 2.503121 1_546
O20 Y0 2.429876 1_556
O20 Pr0 2.488259 1_556
O21 Y0 2.429876 1_655
O21 Pr1 2.488259 1_554
O22 Pr0 2.502866 1_555
O22 Pr1 2.503121 1_564
O23 Y0 2.428321 1_555
O23 Pr0 2.488610 1_555
