# generated using pymatgen
data_CaZn11
_symmetry_space_group_name_H-M   'P 1'
_cell_length_a   6.73705284
_cell_length_b   8.15741257
_cell_length_c   8.15741304
_cell_angle_alpha   80.37713069
_cell_angle_beta   65.71325345
_cell_angle_gamma   65.71326471
_symmetry_Int_Tables_number   1
_chemical_formula_structural   CaZn11
_chemical_formula_sum   'Ca2 Zn22'
_cell_volume   372.46499730
_cell_formula_units_Z   2
loop_
 _symmetry_equiv_pos_site_id
 _symmetry_equiv_pos_as_xyz
  1  'x, y, z'
loop_
 _atom_site_type_symbol
 _atom_site_label
 _atom_site_symmetry_multiplicity
 _atom_site_fract_x
 _atom_site_fract_y
 _atom_site_fract_z
 _atom_site_occupancy
  Ca  Ca0  1  0.37505664  0.24992626  0.74992626  1
  Ca  Ca1  1  0.62494336  0.75007374  0.25007374  1
  Zn  Zn0  1  0.27740758  0.92217733  0.66567893  1
  Zn  Zn1  1  0.44268338  0.83406170  0.92218600  1
  Zn  Zn2  1  0.19935641  0.66574532  0.57802300  1
  Zn  Zn3  1  0.86454789  0.57789074  0.83431237  1
  Zn  Zn4  1  0.80064359  0.92197700  0.83425468  1
  Zn  Zn5  1  0.55731662  0.57781400  0.66593830  1
  Zn  Zn6  1  0.72259242  0.83432107  0.57782267  1
  Zn  Zn7  1  0.13545311  0.66568763  0.92210826  1
  Zn  Zn8  1  0.72259242  0.07782267  0.33432107  1
  Zn  Zn9  1  0.55731662  0.16593830  0.07781500  1
  Zn  Zn10  1  0.80064459  0.33425468  0.42197700  1
  Zn  Zn11  1  0.13545311  0.42210826  0.16568763  1
  Zn  Zn12  1  0.19935541  0.07802300  0.16574532  1
  Zn  Zn13  1  0.44268338  0.42218500  0.33406170  1
  Zn  Zn14  1  0.27740758  0.16567893  0.42217733  1
  Zn  Zn15  1  0.86454789  0.33431237  0.07789174  1
  Zn  Zn16  1  0.00000000  -0.00000000  0.00000000  1
  Zn  Zn17  1  0.50000000  0.50000000  0.00000000  1
  Zn  Zn18  1  0.00000000  -0.00000000  0.50000000  1
  Zn  Zn19  1  0.00000000  0.50000000  0.50000000  1
  Zn  Zn20  1  0.12506005  0.74940851  0.24940851  1
  Zn  Zn21  1  0.87493995  0.25059149  0.75059149  1
loop_
_geom_bond_atom_site_label_1
_geom_bond_atom_site_label_2
_geom_bond_distance
_geom_bond_site_symmetry_2
Ca0 Zn0 3.238238 1_545
Ca0 Zn14 3.238238 1_555
Ca0 Zn5 3.244720 1_555
Ca0 Zn9 3.244728 1_556
Ca0 Zn4 3.247822 1_545
Ca0 Zn10 3.247826 1_555
Ca0 Zn3 3.249509 1_455
Ca0 Zn15 3.249512 1_456
Ca0 Zn8 3.362206 1_555
Ca0 Zn6 3.362206 1_545
Ca0 Zn11 3.362295 1_556
Ca0 Zn7 3.362295 1_555
Ca0 Zn21 3.364856 1_455
Ca0 Zn2 3.368323 1_555
Ca0 Zn12 3.368324 1_556
Ca0 Zn13 3.369257 1_555
Ca0 Zn1 3.369259 1_545
Ca0 Zn21 3.372211 1_555
Ca1 Zn8 3.238238 1_565
Ca1 Zn6 3.238238 1_555
Ca1 Zn1 3.244720 1_554
Ca1 Zn13 3.244728 1_555
Ca1 Zn2 3.247822 1_555
Ca1 Zn12 3.247826 1_565
Ca1 Zn7 3.249516 1_654
Ca1 Zn11 3.249516 1_655
Ca1 Zn0 3.362206 1_555
Ca1 Zn14 3.362206 1_565
Ca1 Zn15 3.362294 1_555
Ca1 Zn3 3.362297 1_554
Ca1 Zn20 3.364856 1_655
Ca1 Zn4 3.368323 1_554
Ca1 Zn10 3.368324 1_555
Ca1 Zn9 3.369257 1_565
Ca1 Zn5 3.369259 1_555
Ca1 Zn20 3.372211 1_555
Zn0 Zn18 2.556830 1_565
Zn0 Zn14 2.563595 1_565
Zn0 Zn6 2.580312 1_555
Zn0 Zn16 2.596833 1_566
Zn0 Zn2 2.622537 1_555
Zn0 Zn1 2.624903 1_555
Zn0 Zn5 2.662876 1_555
Zn0 Zn21 2.847603 1_465
Zn0 Zn7 2.864453 1_555
Zn0 Zn4 2.928827 1_455
Zn1 Zn16 2.557131 1_566
Zn1 Zn12 2.560127 1_566
Zn1 Zn4 2.583096 1_555
Zn1 Zn17 2.595342 1_556
Zn1 Zn3 2.626332 1_555
Zn1 Zn6 2.662875 1_555
Zn1 Zn20 2.842810 1_556
Zn1 Zn5 2.853100 1_555
Zn1 Zn7 2.917299 1_555
Zn2 Zn5 2.583097 1_555
Zn2 Zn3 2.630959 1_455
Zn2 Zn7 2.658837 1_555
Zn2 Zn20 2.848379 1_555
Zn2 Zn4 2.859484 1_455
Zn2 Zn6 2.928827 1_455
Zn3 Zn7 2.584346 1_655
Zn3 Zn4 2.658843 1_555
Zn3 Zn6 2.864459 1_555
Zn3 Zn5 2.917303 1_555
Zn4 Zn9 2.560132 1_566
Zn4 Zn6 2.622537 1_555
Zn4 Zn7 2.630960 1_655
Zn5 Zn6 2.624903 1_555
Zn5 Zn7 2.626324 1_555
Zn6 Zn8 2.563595 1_565
Zn8 Zn9 2.624896 1_555
Zn10 Zn19 2.553745 1_655
Zn10 Zn5 2.560127 1_555
Zn10 Zn13 2.583104 1_555
Zn10 Zn18 2.598863 1_655
Zn10 Zn8 2.622541 1_555
Zn10 Zn11 2.630955 1_655
Zn10 Zn15 2.658837 1_555
Zn10 Zn21 2.848376 1_555
Zn10 Zn12 2.859479 1_655
Zn10 Zn14 2.928821 1_655
Zn11 Zn17 2.555048 1_555
Zn11 Zn7 2.564414 1_554
Zn11 Zn15 2.584341 1_455
Zn11 Zn19 2.594003 1_555
Zn11 Zn9 2.626325 1_555
Zn11 Zn12 2.658839 1_555
Zn11 Zn20 2.831307 1_555
Zn11 Zn14 2.864453 1_555
Zn11 Zn13 2.917297 1_555
Zn12 Zn16 2.553745 1_555
Zn12 Zn9 2.583104 1_555
Zn12 Zn18 2.598863 1_555
Zn12 Zn14 2.622542 1_555
Zn12 Zn15 2.630951 1_455
Zn12 Zn20 2.848376 1_545
Zn12 Zn8 2.928821 1_455
Zn13 Zn19 2.557130 1_555
Zn13 Zn2 2.560132 1_555
Zn13 Zn17 2.595343 1_555
Zn13 Zn14 2.624895 1_555
Zn13 Zn15 2.626329 1_555
Zn13 Zn8 2.662869 1_555
Zn13 Zn20 2.842816 1_555
Zn13 Zn9 2.853088 1_555
Zn14 Zn18 2.556830 1_555
Zn14 Zn8 2.580312 1_555
Zn14 Zn19 2.596833 1_555
Zn14 Zn9 2.662869 1_555
Zn14 Zn21 2.847603 1_455
Zn15 Zn17 2.555054 1_555
Zn15 Zn3 2.564409 1_554
Zn15 Zn16 2.594004 1_655
Zn15 Zn21 2.831311 1_554
Zn15 Zn8 2.864455 1_555
Zn15 Zn9 2.917302 1_555
Zn16 Zn4 2.553751 1_444
Zn16 Zn9 2.557130 1_455
Zn16 Zn7 2.594003 1_544
Zn16 Zn8 2.596833 1_455
Zn16 Zn21 2.762375 1_454
Zn16 Zn20 2.762375 1_545
Zn17 Zn7 2.555048 1_554
Zn17 Zn3 2.555049 1_554
Zn17 Zn5 2.595342 1_554
Zn17 Zn9 2.595343 1_555
Zn17 Zn21 2.754638 1_554
Zn17 Zn20 2.754638 1_555
Zn18 Zn6 2.556830 1_445
Zn18 Zn8 2.556830 1_455
Zn18 Zn4 2.598864 1_445
Zn18 Zn2 2.598865 1_545
Zn18 Zn20 2.762369 1_545
Zn18 Zn21 2.762369 1_455
Zn19 Zn2 2.553751 1_555
Zn19 Zn5 2.557131 1_455
Zn19 Zn3 2.594002 1_455
Zn19 Zn6 2.596833 1_455
Zn19 Zn21 2.762374 1_455
Zn19 Zn20 2.762374 1_555
Zn20 Zn7 2.831307 1_554
Zn20 Zn6 2.847603 1_455
Zn20 Zn8 2.847603 1_465
Zn21 Zn3 2.831303 1_555
Zn21 Zn5 2.842811 1_555
Zn21 Zn9 2.842815 1_556
Zn21 Zn4 2.848379 1_545
