# generated using pymatgen
data_AlInSb2
_symmetry_space_group_name_H-M   'P 1'
_cell_length_a   7.85567297
_cell_length_b   7.85567297
_cell_length_c   7.85567383
_cell_angle_alpha   33.68684699
_cell_angle_beta   33.68684699
_cell_angle_gamma   33.68684398
_symmetry_Int_Tables_number   1
_chemical_formula_structural   AlInSb2
_chemical_formula_sum   'Al1 In1 Sb2'
_cell_volume   132.87069941
_cell_formula_units_Z   1
loop_
 _symmetry_equiv_pos_site_id
 _symmetry_equiv_pos_as_xyz
  1  'x, y, z'
loop_
 _atom_site_type_symbol
 _atom_site_label
 _atom_site_symmetry_multiplicity
 _atom_site_fract_x
 _atom_site_fract_y
 _atom_site_fract_z
 _atom_site_occupancy
  Al  Al0  1  0.99970600  0.99970600  0.99970600  1
  In  In0  1  0.50032600  0.50032600  0.50032600  1
  Sb  Sb0  1  0.12056500  0.12056500  0.12056500  1
  Sb  Sb1  1  0.62940300  0.62940300  0.62940300  1
loop_
_geom_bond_atom_site_label_1
_geom_bond_atom_site_label_2
_geom_bond_distance
_geom_bond_site_symmetry_2
Al0 Sb0 2.684129 1_666
Al0 Sb1 2.753629 1_655
Al0 Sb1 2.753629 1_565
Al0 Sb1 2.753629 1_556
In0 Sb0 2.823387 1_565
In0 Sb0 2.823387 1_655
In0 Sb0 2.823388 1_556
In0 Sb1 2.866641 1_555
