# generated using pymatgen
data_Co2ClO3
_symmetry_space_group_name_H-M   'P 1'
_cell_length_a   5.75210892
_cell_length_b   5.75210892
_cell_length_c   5.75210870
_cell_angle_alpha   68.62136730
_cell_angle_beta   68.62136730
_cell_angle_gamma   68.62136249
_symmetry_Int_Tables_number   1
_chemical_formula_structural   Co2ClO3
_chemical_formula_sum   'Co4 Cl2 O6'
_cell_volume   159.03091507
_cell_formula_units_Z   2
loop_
 _symmetry_equiv_pos_site_id
 _symmetry_equiv_pos_as_xyz
  1  'x, y, z'
loop_
 _atom_site_type_symbol
 _atom_site_label
 _atom_site_symmetry_multiplicity
 _atom_site_fract_x
 _atom_site_fract_y
 _atom_site_fract_z
 _atom_site_occupancy
  Co  Co0  1  0.50000000  0.50000000  0.50000000  1
  Co  Co1  1  0.50000000  0.50000000  0.00000000  1
  Co  Co2  1  0.00000000  0.50000000  0.50000000  1
  Co  Co3  1  0.50000000  0.00000000  0.50000000  1
  Cl  Cl0  1  0.78959700  0.78959700  0.78959700  1
  Cl  Cl1  1  0.21040300  0.21040300  0.21040300  1
  O  O0  1  0.72324200  0.33428400  0.72324200  1
  O  O1  1  0.72324200  0.72324200  0.33428400  1
  O  O2  1  0.33428400  0.72324200  0.72324200  1
  O  O3  1  0.27675800  0.66571600  0.27675800  1
  O  O4  1  0.27675800  0.27675800  0.66571600  1
  O  O5  1  0.66571600  0.27675800  0.27675800  1
loop_
_geom_bond_atom_site_label_1
_geom_bond_atom_site_label_2
_geom_bond_distance
_geom_bond_site_symmetry_2
Co0 O0 1.903654 1_555
Co0 O2 1.903654 1_555
Co0 O3 1.903654 1_555
Co0 O5 1.903654 1_555
Co0 O1 1.903654 1_555
Co0 O4 1.903654 1_555
Co1 O3 1.953306 1_555
Co1 O5 1.953306 1_555
Co1 O0 1.953306 1_554
Co1 O2 1.953306 1_554
Co2 O4 1.953306 1_555
Co2 O1 1.953306 1_455
Co2 O3 1.953307 1_555
Co2 O0 1.953307 1_455
Co3 O4 1.953306 1_555
Co3 O1 1.953306 1_545
Co3 O5 1.953307 1_555
Co3 O2 1.953307 1_545
Cl0 Co3 2.469388 1_565
Cl0 Co2 2.469388 1_655
Cl0 Co1 2.469388 1_556
Cl1 Co3 2.469388 1_555
Cl1 Co2 2.469388 1_555
Cl1 Co1 2.469388 1_555
