# generated using pymatgen
data_Li9Mn2Co5O16
_symmetry_space_group_name_H-M   'P 1'
_cell_length_a   2.98114344
_cell_length_b   2.98114344
_cell_length_c   38.82034589
_cell_angle_alpha   89.94668660
_cell_angle_beta   89.94668660
_cell_angle_gamma   57.61084335
_symmetry_Int_Tables_number   1
_chemical_formula_structural   Li9Mn2Co5O16
_chemical_formula_sum   'Li9 Mn2 Co5 O16'
_cell_volume   291.33200958
_cell_formula_units_Z   1
loop_
 _symmetry_equiv_pos_site_id
 _symmetry_equiv_pos_as_xyz
  1  'x, y, z'
loop_
 _atom_site_type_symbol
 _atom_site_label
 _atom_site_symmetry_multiplicity
 _atom_site_fract_x
 _atom_site_fract_y
 _atom_site_fract_z
 _atom_site_occupancy
  Li  Li0  1  0.93976400  0.93976400  0.81404700  1
  Li  Li1  1  0.31853500  0.31853500  0.94041800  1
  Li  Li2  1  0.68146500  0.68146500  0.05958200  1
  Li  Li3  1  0.06023600  0.06023600  0.18595300  1
  Li  Li4  1  0.44038500  0.44038500  0.31349800  1
  Li  Li5  1  0.81254700  0.81254700  0.43810900  1
  Li  Li6  1  0.18745300  0.18745300  0.56189100  1
  Li  Li7  1  0.55961500  0.55961500  0.68650200  1
  Li  Li8  1  0.00000000  0.00000000  0.00000000  1
  Mn  Mn0  1  0.24972600  0.24972600  0.75011500  1
  Mn  Mn1  1  0.75027400  0.75027400  0.24988500  1
  Co  Co0  1  0.62728200  0.62728200  0.87510500  1
  Co  Co1  1  0.37271800  0.37271800  0.12489500  1
  Co  Co2  1  0.12529400  0.12529400  0.37543000  1
  Co  Co3  1  0.50000000  0.50000000  0.50000000  1
  Co  Co4  1  0.87470600  0.87470600  0.62457000  1
  O  O0  1  0.61638800  0.61638800  0.77967200  1
  O  O1  1  0.97900300  0.97900300  0.90127000  1
  O  O2  1  0.34578000  0.34578000  0.03207000  1
  O  O3  1  0.73078500  0.73078500  0.15291200  1
  O  O4  1  0.11718800  0.11718800  0.27922600  1
  O  O5  1  0.46681800  0.46681800  0.40404100  1
  O  O6  1  0.86103900  0.86103900  0.52785200  1
  O  O7  1  0.21676500  0.21676500  0.65328700  1
  O  O8  1  0.26921500  0.26921500  0.84708800  1
  O  O9  1  0.65422000  0.65422000  0.96793000  1
  O  O10  1  0.02099700  0.02099700  0.09873000  1
  O  O11  1  0.38361200  0.38361200  0.22032800  1
  O  O12  1  0.78323500  0.78323500  0.34671300  1
  O  O13  1  0.13896100  0.13896100  0.47214800  1
  O  O14  1  0.53318200  0.53318200  0.59595900  1
  O  O15  1  0.88281200  0.88281200  0.72077400  1
loop_
_geom_bond_atom_site_label_1
_geom_bond_atom_site_label_2
_geom_bond_distance
_geom_bond_site_symmetry_2
Li0 O8 2.121334 1_655
Li0 O8 2.121334 1_565
Li0 O8 2.147679 1_665
Li0 O0 2.154043 1_555
Li0 O0 2.166326 1_655
Li0 O0 2.166326 1_565
Li1 O9 1.984694 1_545
Li1 O9 1.984694 1_455
Li1 O9 2.054372 1_555
Li1 O1 2.252349 1_455
Li1 O1 2.252349 1_545
Li1 O1 2.337097 1_445
Li2 O2 1.984694 1_565
Li2 O2 1.984694 1_655
Li2 O2 2.054372 1_555
Li2 O10 2.252349 1_655
Li2 O10 2.252349 1_565
Li2 O10 2.337097 1_665
Li3 O3 2.121334 1_455
Li3 O3 2.121334 1_545
Li3 O3 2.147679 1_445
Li3 O11 2.154043 1_555
Li3 O11 2.166326 1_545
Li3 O11 2.166326 1_455
Li4 O12 2.097084 1_545
Li4 O12 2.097084 1_455
Li4 O4 2.150830 1_555
Li4 O4 2.164265 1_655
Li4 O4 2.164265 1_565
Li4 O12 2.208166 1_555
Li5 O5 2.111815 1_655
Li5 O5 2.111815 1_565
Li5 O13 2.151594 1_565
Li5 O13 2.151594 1_655
Li5 O13 2.158504 1_665
Li5 O5 2.239814 1_555
Li6 O14 2.111815 1_455
Li6 O14 2.111815 1_545
Li6 O6 2.151594 1_545
Li6 O6 2.151594 1_455
Li6 O6 2.158504 1_445
Li6 O14 2.239814 1_555
Li7 O7 2.097084 1_565
Li7 O7 2.097084 1_655
Li7 O15 2.150830 1_555
Li7 O15 2.164265 1_455
Li7 O15 2.164265 1_545
Li7 O7 2.208166 1_555
Li8 O9 2.064055 1_544
Li8 O9 2.064055 1_454
Li8 O2 2.064055 1_455
Li8 O2 2.064055 1_545
Li8 O9 2.195060 1_444
Li8 O2 2.195060 1_555
Mn0 O15 1.960223 1_455
Mn0 O15 1.960223 1_545
Mn0 O0 1.965569 1_545
Mn0 O0 1.965569 1_455
Mn0 O15 2.230856 1_445
Mn0 O0 2.234026 1_555
Mn1 O4 1.960223 1_565
Mn1 O4 1.960223 1_655
Mn1 O11 1.965569 1_655
Mn1 O11 1.965569 1_565
Mn1 O4 2.230856 1_665
Mn1 O11 2.234026 1_555
Co0 O1 1.921848 1_545
Co0 O1 1.921848 1_455
Co0 O8 1.947924 1_565
Co0 O8 1.947924 1_655
Co0 O1 2.100561 1_555
Co0 O8 2.164921 1_555
Co1 O10 1.921848 1_655
Co1 O10 1.921848 1_565
Co1 O3 1.947924 1_455
Co1 O3 1.947924 1_545
Co1 O10 2.100561 1_555
Co1 O3 2.164921 1_555
Co2 O5 1.995122 1_455
Co2 O5 1.995122 1_545
Co2 O12 1.996258 1_455
Co2 O12 1.996258 1_545
Co2 O5 2.102751 1_555
Co2 O12 2.107303 1_445
Co3 O6 1.938498 1_545
Co3 O6 1.938498 1_455
Co3 O13 1.938498 1_655
Co3 O13 1.938498 1_565
Co3 O6 2.175164 1_555
Co3 O13 2.175164 1_555
Co4 O14 1.995122 1_565
Co4 O14 1.995122 1_655
Co4 O7 1.996258 1_655
Co4 O7 1.996258 1_565
Co4 O14 2.102751 1_555
Co4 O7 2.107303 1_665
