# generated using pymatgen
data_LuB4Ru
_symmetry_space_group_name_H-M   'P 1'
_cell_length_a   3.52037700
_cell_length_b   5.91026700
_cell_length_c   11.41777900
_cell_angle_alpha   90.00000000
_cell_angle_beta   90.00000000
_cell_angle_gamma   90.00000000
_symmetry_Int_Tables_number   1
_chemical_formula_structural   LuB4Ru
_chemical_formula_sum   'Lu4 B16 Ru4'
_cell_volume   237.56251174
_cell_formula_units_Z   4
loop_
 _symmetry_equiv_pos_site_id
 _symmetry_equiv_pos_as_xyz
  1  'x, y, z'
loop_
 _atom_site_type_symbol
 _atom_site_label
 _atom_site_symmetry_multiplicity
 _atom_site_fract_x
 _atom_site_fract_y
 _atom_site_fract_z
 _atom_site_occupancy
  Lu  Lu0  1  0.00000000  0.62971300  0.35046900  1
  Lu  Lu1  1  0.00000000  0.37028700  0.64953100  1
  Lu  Lu2  1  0.00000000  0.12971300  0.14953100  1
  Lu  Lu3  1  0.00000000  0.87028700  0.85046900  1
  B  B0  1  0.50000000  0.79127800  0.18635100  1
  B  B1  1  0.50000000  0.20872200  0.81364900  1
  B  B2  1  0.50000000  0.29127800  0.31364900  1
  B  B3  1  0.50000000  0.70872200  0.68635100  1
  B  B4  1  0.50000000  0.86520500  0.03005100  1
  B  B5  1  0.50000000  0.13479500  0.96994900  1
  B  B6  1  0.50000000  0.36520500  0.46994900  1
  B  B7  1  0.50000000  0.63479500  0.53005100  1
  B  B8  1  0.50000000  0.88701400  0.45255000  1
  B  B9  1  0.50000000  0.11298600  0.54745000  1
  B  B10  1  0.50000000  0.38701400  0.04745000  1
  B  B11  1  0.50000000  0.61298600  0.95255000  1
  B  B12  1  0.50000000  0.97715600  0.30718800  1
  B  B13  1  0.50000000  0.02284400  0.69281200  1
  B  B14  1  0.50000000  0.47715600  0.19281200  1
  B  B15  1  0.50000000  0.52284400  0.80718800  1
  Ru  Ru0  1  0.00000000  0.64183400  0.09347400  1
  Ru  Ru1  1  0.00000000  0.35816600  0.90652600  1
  Ru  Ru2  1  0.00000000  0.14183400  0.40652600  1
  Ru  Ru3  1  0.00000000  0.85816600  0.59347400  1
loop_
_geom_bond_atom_site_label_1
_geom_bond_atom_site_label_2
_geom_bond_distance
_geom_bond_site_symmetry_2
Lu0 Ru0 2.935186 1_555
Lu0 Ru2 2.953676 1_555
Lu0 Ru3 3.085672 1_555
Lu0 Ru2 3.093704 1_565
Lu1 Ru1 2.935186 1_555
Lu1 Ru3 2.953676 1_555
Lu1 Ru2 3.085672 1_555
Lu1 Ru3 3.093704 1_545
Lu2 Ru2 2.935186 1_555
Lu2 Ru0 2.953676 1_545
Lu2 Ru1 3.085672 1_554
Lu2 Ru0 3.093704 1_555
Lu3 Ru3 2.935186 1_555
Lu3 Ru1 2.953676 1_565
Lu3 Ru0 3.085672 1_556
Lu3 Ru1 3.093704 1_555
B0 B12 1.763644 1_555
B0 B4 1.837308 1_555
B0 B14 1.858010 1_555
B0 Ru0 2.236728 1_555
B0 Ru0 2.236728 1_655
B0 Lu2 2.697400 1_665
B0 Lu2 2.697400 1_565
B0 Lu0 2.742525 1_555
B0 Lu0 2.742525 1_655
B1 B13 1.763644 1_555
B1 B5 1.837308 1_555
B1 B15 1.858010 1_555
B1 Ru1 2.236728 1_655
B1 Ru1 2.236728 1_555
B1 Lu3 2.697400 1_645
B1 Lu3 2.697400 1_545
B1 Lu1 2.742525 1_555
B1 Lu1 2.742525 1_655
B2 B6 1.837308 1_555
B2 Ru2 2.236728 1_555
B2 Ru2 2.236728 1_655
B2 Lu0 2.697400 1_655
B2 Lu0 2.697400 1_555
B2 Lu2 2.742525 1_555
B2 Lu2 2.742525 1_655
B3 B7 1.837308 1_555
B3 Ru3 2.236728 1_655
B3 Ru3 2.236728 1_555
B3 Lu1 2.697400 1_555
B3 Lu1 2.697400 1_655
B3 Lu3 2.742525 1_655
B3 Lu3 2.742525 1_555
B4 B5 1.734841 1_564
B4 Ru0 2.316363 1_655
B4 Ru0 2.316363 1_555
B4 Lu3 2.702484 1_654
B4 Lu3 2.702484 1_554
B4 Lu2 2.720890 1_565
B4 Lu2 2.720890 1_665
B5 Ru1 2.316363 1_655
B5 Ru1 2.316363 1_555
B5 Lu2 2.702484 1_656
B5 Lu2 2.702484 1_556
B5 Lu3 2.720890 1_545
B5 Lu3 2.720890 1_645
B6 B9 1.733540 1_555
B6 B7 1.734841 1_555
B6 Ru2 2.316363 1_555
B6 Ru2 2.316363 1_655
B6 Lu1 2.702484 1_655
B6 Lu1 2.702484 1_555
B6 Lu0 2.720890 1_555
B6 Lu0 2.720890 1_655
B7 B8 1.733540 1_555
B7 Ru3 2.316363 1_655
B7 Ru3 2.316363 1_555
B7 Lu0 2.702484 1_555
B7 Lu0 2.702484 1_655
B7 Lu1 2.720890 1_655
B7 Lu1 2.720890 1_555
B8 B9 1.719820 1_565
B8 Ru2 2.375417 1_665
B8 Ru2 2.375417 1_565
B8 Ru3 2.390887 1_555
B8 Ru3 2.390887 1_655
B8 Lu0 2.601793 1_555
B8 Lu0 2.601793 1_655
B9 Ru3 2.375417 1_545
B9 Ru3 2.375417 1_645
B9 Ru2 2.390887 1_655
B9 Ru2 2.390887 1_555
B9 Lu1 2.601793 1_655
B9 Lu1 2.601793 1_555
B10 B11 1.719820 1_554
B10 B5 1.733540 1_554
B10 B14 1.743123 1_555
B10 Ru0 2.375417 1_555
B10 Ru0 2.375417 1_655
B10 Ru1 2.390887 1_554
B10 Ru1 2.390887 1_654
B10 Lu2 2.601793 1_555
B10 Lu2 2.601793 1_655
B11 B4 1.733540 1_556
B11 B15 1.743123 1_555
B11 Ru1 2.375417 1_655
B11 Ru1 2.375417 1_555
B11 Ru0 2.390887 1_556
B11 Ru0 2.390887 1_656
B11 Lu3 2.601793 1_555
B11 Lu3 2.601793 1_655
B12 B8 1.743123 1_555
B12 B2 1.858010 1_565
B12 Ru2 2.309115 1_665
B12 Ru2 2.309115 1_565
B12 Lu2 2.674243 1_565
B12 Lu2 2.674243 1_665
B12 Lu0 2.749410 1_555
B12 Lu0 2.749410 1_655
B13 B9 1.743123 1_555
B13 B3 1.858010 1_545
B13 Ru3 2.309115 1_545
B13 Ru3 2.309115 1_645
B13 Lu3 2.674243 1_645
B13 Lu3 2.674243 1_545
B13 Lu1 2.749410 1_555
B13 Lu1 2.749410 1_655
B14 B2 1.763644 1_555
B14 Ru0 2.309115 1_555
B14 Ru0 2.309115 1_655
B14 Lu0 2.674243 1_555
B14 Lu0 2.674243 1_655
B14 Lu2 2.749410 1_655
B14 Lu2 2.749410 1_555
B15 B3 1.763644 1_555
B15 Ru1 2.309115 1_555
B15 Ru1 2.309115 1_655
B15 Lu1 2.674243 1_655
B15 Lu1 2.674243 1_555
B15 Lu3 2.749410 1_555
B15 Lu3 2.749410 1_655
Ru0 Ru1 2.714232 1_554
Ru2 Ru3 2.714232 1_545
