# generated using pymatgen
data_Lu12(MnC3)5
_symmetry_space_group_name_H-M   'P 1'
_cell_length_a   4.90068100
_cell_length_b   10.28358848
_cell_length_c   10.28358848
_cell_angle_alpha   120.00000306
_cell_angle_beta   90.00000000
_cell_angle_gamma   90.00000000
_symmetry_Int_Tables_number   1
_chemical_formula_structural   Lu12(MnC3)5
_chemical_formula_sum   'Lu12 Mn5 C15'
_cell_volume   448.82437010
_cell_formula_units_Z   1
loop_
 _symmetry_equiv_pos_site_id
 _symmetry_equiv_pos_as_xyz
  1  'x, y, z'
loop_
 _atom_site_type_symbol
 _atom_site_label
 _atom_site_symmetry_multiplicity
 _atom_site_fract_x
 _atom_site_fract_y
 _atom_site_fract_z
 _atom_site_occupancy
  Lu  Lu0  1  0.50000000  0.20669200  0.20669200  1
  Lu  Lu1  1  0.50000000  0.00000000  0.79330800  1
  Lu  Lu2  1  0.50000000  0.79330800  0.00000000  1
  Lu  Lu3  1  0.00000000  0.73083800  0.18548300  1
  Lu  Lu4  1  0.00000000  0.45464600  0.26916200  1
  Lu  Lu5  1  0.00000000  0.54535400  0.81451700  1
  Lu  Lu6  1  0.00000000  0.81451700  0.54535400  1
  Lu  Lu7  1  0.00000000  0.18548300  0.73083800  1
  Lu  Lu8  1  0.00000000  0.26916200  0.45464600  1
  Lu  Lu9  1  0.50000000  0.56872900  0.56872900  1
  Lu  Lu10  1  0.50000000  0.00000000  0.43127100  1
  Lu  Lu11  1  0.50000000  0.43127100  0.00000000  1
  Mn  Mn0  1  0.00000000  0.84685200  0.84685200  1
  Mn  Mn1  1  0.00000000  0.00000000  0.15314800  1
  Mn  Mn2  1  0.00000000  0.15314800  0.00000000  1
  Mn  Mn3  1  0.50000000  0.66666700  0.33333300  1
  Mn  Mn4  1  0.50000000  0.33333300  0.66666700  1
  C  C0  1  0.00000000  0.67331000  0.67331000  1
  C  C1  1  0.00000000  0.00000000  0.32669000  1
  C  C2  1  0.00000000  0.32669000  0.00000000  1
  C  C3  1  0.00000000  0.20553300  0.20553300  1
  C  C4  1  0.00000000  0.00000000  0.79446700  1
  C  C5  1  0.00000000  0.79446700  0.00000000  1
  C  C6  1  0.00000000  0.54149200  0.54149200  1
  C  C7  1  0.00000000  0.00000000  0.45850800  1
  C  C8  1  0.00000000  0.45850800  0.00000000  1
  C  C9  1  0.50000000  0.71834100  0.19130900  1
  C  C10  1  0.50000000  0.47296800  0.28165900  1
  C  C11  1  0.50000000  0.52703200  0.80869100  1
  C  C12  1  0.50000000  0.80869100  0.52703200  1
  C  C13  1  0.50000000  0.19130900  0.71834100  1
  C  C14  1  0.50000000  0.28165900  0.47296800  1
loop_
_geom_bond_atom_site_label_1
_geom_bond_atom_site_label_2
_geom_bond_distance
_geom_bond_site_symmetry_2
C0 C6 1.355562 1_555
C0 Mn0 1.784634 1_555
C0 Lu6 2.398093 1_555
C0 Lu5 2.398093 1_555
C0 Lu9 2.675967 1_555
C0 Lu9 2.675967 1_455
C1 C7 1.355562 1_555
C1 Mn1 1.784635 1_555
C1 Lu8 2.398084 1_555
C1 Lu3 2.398084 1_545
C1 Lu10 2.675967 1_555
C1 Lu10 2.675967 1_455
C2 C8 1.355562 1_555
C2 Mn2 1.784635 1_555
C2 Lu4 2.398084 1_555
C2 Lu7 2.398084 1_554
C2 Lu11 2.675967 1_455
C2 Lu11 2.675967 1_555
C3 Mn1 1.902357 1_555
C3 Mn2 1.902357 1_555
C3 Lu4 2.305339 1_555
C3 Lu8 2.305339 1_555
C3 Lu0 2.450369 1_455
C3 Lu0 2.450369 1_555
C4 Mn2 1.902357 1_556
C4 Mn0 1.902357 1_545
C4 Lu7 2.305329 1_555
C4 Lu6 2.305336 1_545
C4 Lu1 2.450369 1_555
C4 Lu1 2.450369 1_455
C5 Mn1 1.902357 1_565
C5 Mn0 1.902357 1_554
C5 Lu3 2.305329 1_555
C5 Lu5 2.305336 1_554
C5 Lu2 2.450369 1_455
C5 Lu2 2.450369 1_555
C6 Lu9 2.466297 1_455
C6 Lu9 2.466297 1_555
C6 Lu8 2.477792 1_555
C6 Lu4 2.477792 1_555
C7 Lu10 2.466297 1_555
C7 Lu10 2.466297 1_455
C7 Lu6 2.477782 1_545
C7 Lu7 2.477790 1_555
C8 Lu11 2.466297 1_455
C8 Lu11 2.466297 1_555
C8 Lu5 2.477782 1_554
C8 Lu3 2.477790 1_555
C9 Mn3 1.786504 1_555
C9 Lu2 2.445701 1_555
C9 Lu3 2.456008 1_655
C9 Lu3 2.456008 1_555
C9 Lu11 2.603378 1_555
C9 Lu10 2.707653 1_565
C10 Mn3 1.786514 1_555
C10 Lu0 2.445701 1_555
C10 Lu4 2.456007 1_555
C10 Lu4 2.456007 1_655
C10 Lu9 2.603378 1_555
C10 Lu11 2.707653 1_555
C11 Mn4 1.786512 1_555
C11 Lu2 2.445701 1_556
C11 Lu5 2.456007 1_555
C11 Lu5 2.456007 1_655
C11 Lu11 2.603378 1_556
C11 Lu9 2.707653 1_555
C12 Mn3 1.786512 1_555
C12 Lu1 2.445701 1_565
C12 Lu6 2.456007 1_555
C12 Lu6 2.456007 1_655
C12 Lu10 2.603378 1_565
C12 Lu9 2.707653 1_555
C13 Mn4 1.786504 1_555
C13 Lu1 2.445701 1_555
C13 Lu7 2.456008 1_555
C13 Lu7 2.456008 1_655
C13 Lu10 2.603378 1_555
C13 Lu11 2.707653 1_556
C14 Mn4 1.786514 1_555
C14 Lu0 2.445701 1_555
C14 Lu8 2.456007 1_655
C14 Lu8 2.456007 1_555
C14 Lu9 2.603378 1_555
C14 Lu10 2.707653 1_555
