# generated using pymatgen
data_KMg3Cu(AsO4)3
_symmetry_space_group_name_H-M   'P 1'
_cell_length_a   8.81260748
_cell_length_b   8.81260748
_cell_length_c   6.75208327
_cell_angle_alpha   74.53057962
_cell_angle_beta   74.53057962
_cell_angle_gamma   92.91518525
_symmetry_Int_Tables_number   1
_chemical_formula_structural   KMg3Cu(AsO4)3
_chemical_formula_sum   'K2 Mg6 Cu2 As6 O24'
_cell_volume   482.85573480
_cell_formula_units_Z   2
loop_
 _symmetry_equiv_pos_site_id
 _symmetry_equiv_pos_as_xyz
  1  'x, y, z'
loop_
 _atom_site_type_symbol
 _atom_site_label
 _atom_site_symmetry_multiplicity
 _atom_site_fract_x
 _atom_site_fract_y
 _atom_site_fract_z
 _atom_site_occupancy
  K  K0  1  0.51537982  0.48462018  0.25000000  1
  K  K1  1  0.48462018  0.51537982  0.75000000  1
  Mg  Mg0  1  0.24355316  0.75644684  0.25000000  1
  Mg  Mg1  1  0.75644684  0.24355316  0.75000000  1
  Mg  Mg2  1  0.56049735  0.87625998  0.37198304  1
  Mg  Mg3  1  0.43950265  0.12374002  0.62801696  1
  Mg  Mg4  1  0.12374002  0.43950265  0.12801696  1
  Mg  Mg5  1  0.87625998  0.56049735  0.87198304  1
  Cu  Cu0  1  0.99894375  0.00105625  0.25000000  1
  Cu  Cu1  1  0.00105625  0.99894375  0.75000000  1
  As  As0  1  0.78641521  0.21358479  0.25000000  1
  As  As1  1  0.21358479  0.78641521  0.75000000  1
  As  As2  1  0.37797802  0.14714891  0.12750003  1
  As  As3  1  0.62202198  0.85285109  0.87249997  1
  As  As4  1  0.85285109  0.62202198  0.37249997  1
  As  As5  1  0.14714891  0.37797802  0.62750003  1
  O  O0  1  0.49161664  0.83175522  0.11797959  1
  O  O1  1  0.50838336  0.16824478  0.88202041  1
  O  O2  1  0.16824478  0.50838336  0.38202041  1
  O  O3  1  0.83175522  0.49161664  0.61797959  1
  O  O4  1  0.67597375  0.24969510  0.47602729  1
  O  O5  1  0.32402625  0.75030490  0.52397271  1
  O  O6  1  0.75030490  0.32402625  0.02397271  1
  O  O7  1  0.24969510  0.67597375  0.97602729  1
  O  O8  1  0.67648355  0.68575166  0.37726041  1
  O  O9  1  0.32351645  0.31424834  0.62273959  1
  O  O10  1  0.31424834  0.32351645  0.12273959  1
  O  O11  1  0.68575166  0.67648355  0.87726041  1
  O  O12  1  0.77595546  0.01493137  0.26292194  1
  O  O13  1  0.22404454  0.98506863  0.73707806  1
  O  O14  1  0.98506863  0.22404454  0.23707806  1
  O  O15  1  0.01493137  0.77595546  0.76292194  1
  O  O16  1  0.22461995  -0.00051337  0.18569855  1
  O  O17  1  0.77538005  0.00051337  0.81430145  1
  O  O18  1  0.00051337  0.77538005  0.31430145  1
  O  O19  1  -0.00051337  0.22461995  0.68569855  1
  O  O20  1  0.47108552  0.09460622  0.32095933  1
  O  O21  1  0.52891448  0.90539378  0.67904067  1
  O  O22  1  0.90539378  0.52891448  0.17904067  1
  O  O23  1  0.09460622  0.47108552  0.82095933  1
loop_
_geom_bond_atom_site_label_1
_geom_bond_atom_site_label_2
_geom_bond_distance
_geom_bond_site_symmetry_2
K0 O11 2.627403 1_554
K0 O9 2.627403 1_555
K0 O8 2.665152 1_555
K0 O10 2.665152 1_555
K0 O6 2.895336 1_555
K0 O4 2.895336 1_555
K0 O0 2.984460 1_555
K0 O2 2.984460 1_555
K1 O10 2.627403 1_556
K1 O8 2.627403 1_555
K1 O11 2.665152 1_555
K1 O9 2.665152 1_555
K1 O5 2.895336 1_555
K1 O7 2.895336 1_555
K1 O3 2.984460 1_555
K1 O1 2.984460 1_555
Mg0 O16 2.093477 1_565
Mg0 O18 2.093477 1_555
Mg0 O0 2.123993 1_555
Mg0 O2 2.123993 1_555
Mg0 O5 2.139688 1_555
Mg0 O7 2.139688 1_554
Mg1 O19 2.093477 1_655
Mg1 O17 2.093477 1_555
Mg1 O3 2.123993 1_555
Mg1 O1 2.123993 1_555
Mg1 O6 2.139688 1_556
Mg1 O4 2.139688 1_555
Mg2 O8 2.006671 1_555
Mg2 O12 2.044257 1_565
Mg2 O0 2.086543 1_555
Mg2 O20 2.094636 1_565
Mg2 O21 2.103632 1_555
Mg2 O5 2.155047 1_555
Mg3 O9 2.006671 1_555
Mg3 O13 2.044257 1_545
Mg3 O1 2.086543 1_555
Mg3 O21 2.094636 1_545
Mg3 O20 2.103632 1_555
Mg3 O4 2.155047 1_555
Mg4 O10 2.006671 1_555
Mg4 O14 2.044257 1_455
Mg4 O2 2.086543 1_555
Mg4 O22 2.094636 1_455
Mg4 O23 2.103632 1_554
Mg4 O7 2.155047 1_554
Mg5 O11 2.006671 1_555
Mg5 O15 2.044257 1_655
Mg5 O3 2.086543 1_555
Mg5 O23 2.094636 1_655
Mg5 O22 2.103632 1_556
Mg5 O6 2.155047 1_556
Cu0 O18 1.920778 1_645
Cu0 O16 1.920778 1_655
Cu0 O12 1.955220 1_555
Cu0 O14 1.955220 1_555
Cu1 O17 1.920778 1_465
Cu1 O19 1.920778 1_565
Cu1 O15 1.955220 1_555
Cu1 O13 1.955220 1_555
As0 O4 1.695847 1_555
As0 O6 1.695847 1_555
As0 O12 1.725896 1_555
As0 O14 1.725896 1_555
As1 O7 1.695847 1_555
As1 O5 1.695847 1_555
As1 O13 1.725896 1_555
As1 O15 1.725896 1_555
As2 O10 1.674497 1_555
As2 O20 1.697557 1_555
As2 O1 1.703032 1_554
As2 O16 1.714443 1_555
As3 O11 1.674497 1_555
As3 O21 1.697557 1_555
As3 O0 1.703032 1_556
As3 O17 1.714443 1_565
As4 O8 1.674497 1_555
As4 O22 1.697557 1_555
As4 O3 1.703032 1_555
As4 O18 1.714443 1_655
As5 O9 1.674497 1_555
As5 O23 1.697557 1_555
As5 O2 1.703032 1_555
As5 O19 1.714443 1_555
