# generated using pymatgen
data_Ga40Mo8Au
_symmetry_space_group_name_H-M   'P 1'
_cell_length_a   9.59798076
_cell_length_b   9.59798076
_cell_length_c   9.59798017
_cell_angle_alpha   94.76219048
_cell_angle_beta   94.76219048
_cell_angle_gamma   94.76219528
_symmetry_Int_Tables_number   1
_chemical_formula_structural   Ga40Mo8Au
_chemical_formula_sum   'Ga40 Mo8 Au1'
_cell_volume   874.47752788
_cell_formula_units_Z   1
loop_
 _symmetry_equiv_pos_site_id
 _symmetry_equiv_pos_as_xyz
  1  'x, y, z'
loop_
 _atom_site_type_symbol
 _atom_site_label
 _atom_site_symmetry_multiplicity
 _atom_site_fract_x
 _atom_site_fract_y
 _atom_site_fract_z
 _atom_site_occupancy
  Ga  Ga0  1  0.50000000  0.50000000  0.50000000  1
  Ga  Ga1  1  0.00000000  0.50000000  0.50000000  1
  Ga  Ga2  1  0.50000000  0.00000000  0.50000000  1
  Ga  Ga3  1  0.50000000  0.50000000  0.00000000  1
  Ga  Ga4  1  0.26596500  0.63446700  0.61135700  1
  Ga  Ga5  1  0.61135700  0.26596500  0.63446700  1
  Ga  Ga6  1  0.63446700  0.61135700  0.26596500  1
  Ga  Ga7  1  0.73403500  0.36553300  0.38864300  1
  Ga  Ga8  1  0.38864300  0.73403500  0.36553300  1
  Ga  Ga9  1  0.36553300  0.38864300  0.73403500  1
  Ga  Ga10  1  0.67508000  0.77902900  0.53762500  1
  Ga  Ga11  1  0.53762500  0.67508000  0.77902900  1
  Ga  Ga12  1  0.77902900  0.53762500  0.67508000  1
  Ga  Ga13  1  0.32492000  0.22097100  0.46237500  1
  Ga  Ga14  1  0.46237500  0.32492000  0.22097100  1
  Ga  Ga15  1  0.22097100  0.46237500  0.32492000  1
  Ga  Ga16  1  0.77867200  0.07438300  0.44955200  1
  Ga  Ga17  1  0.44955200  0.77867200  0.07438300  1
  Ga  Ga18  1  0.07438300  0.44955200  0.77867200  1
  Ga  Ga19  1  0.22132800  0.92561700  0.55044800  1
  Ga  Ga20  1  0.55044800  0.22132800  0.92561700  1
  Ga  Ga21  1  0.92561700  0.55044800  0.22132800  1
  Ga  Ga22  1  0.96835000  0.78676500  0.59952200  1
  Ga  Ga23  1  0.59952200  0.96835000  0.78676500  1
  Ga  Ga24  1  0.78676500  0.59952200  0.96835000  1
  Ga  Ga25  1  0.03165000  0.21323500  0.40047800  1
  Ga  Ga26  1  0.40047800  0.03165000  0.21323500  1
  Ga  Ga27  1  0.21323500  0.40047800  0.03165000  1
  Ga  Ga28  1  0.05526100  0.74148200  0.87422600  1
  Ga  Ga29  1  0.87422600  0.05526100  0.74148200  1
  Ga  Ga30  1  0.74148200  0.87422600  0.05526100  1
  Ga  Ga31  1  0.94473900  0.25851800  0.12577400  1
  Ga  Ga32  1  0.12577400  0.94473900  0.25851800  1
  Ga  Ga33  1  0.25851800  0.12577400  0.94473900  1
  Ga  Ga34  1  0.12517000  0.17663100  0.67904800  1
  Ga  Ga35  1  0.67904800  0.12517000  0.17663100  1
  Ga  Ga36  1  0.17663100  0.67904800  0.12517000  1
  Ga  Ga37  1  0.87483000  0.82336900  0.32095200  1
  Ga  Ga38  1  0.32095200  0.87483000  0.82336900  1
  Ga  Ga39  1  0.82336900  0.32095200  0.87483000  1
  Mo  Mo0  1  0.79959100  0.79959100  0.79959100  1
  Mo  Mo1  1  0.20040900  0.20040900  0.20040900  1
  Mo  Mo2  1  0.29114000  0.61256300  0.88781400  1
  Mo  Mo3  1  0.88781400  0.29114000  0.61256300  1
  Mo  Mo4  1  0.61256300  0.88781400  0.29114000  1
  Mo  Mo5  1  0.70886000  0.38743700  0.11218600  1
  Mo  Mo6  1  0.11218600  0.70886000  0.38743700  1
  Mo  Mo7  1  0.38743700  0.11218600  0.70886000  1
  Au  Au0  1  0.00000000  0.00000000  0.00000000  1
loop_
_geom_bond_atom_site_label_1
_geom_bond_atom_site_label_2
_geom_bond_distance
_geom_bond_site_symmetry_2
Ga0 Ga9 2.916277 1_555
Ga0 Ga6 2.916277 1_555
Ga0 Ga8 2.916277 1_555
Ga0 Ga5 2.916277 1_555
Ga0 Ga7 2.916277 1_555
Ga0 Ga4 2.916277 1_555
Ga0 Ga11 3.019589 1_555
Ga0 Ga14 3.019589 1_555
Ga0 Ga13 3.019589 1_555
Ga0 Ga10 3.019589 1_555
Ga0 Ga15 3.019590 1_555
Ga0 Ga12 3.019590 1_555
Ga1 Mo3 2.557253 1_455
Ga1 Mo6 2.557253 1_555
Ga2 Mo4 2.557253 1_545
Ga2 Mo7 2.557253 1_555
Ga3 Mo2 2.557253 1_554
Ga3 Mo5 2.557253 1_555
Ga4 Mo2 2.671679 1_555
Ga4 Mo6 2.685213 1_555
Ga5 Mo3 2.671679 1_555
Ga5 Mo7 2.685213 1_555
Ga6 Mo4 2.671679 1_555
Ga6 Mo5 2.685213 1_555
Ga7 Mo5 2.671679 1_555
Ga7 Mo3 2.685213 1_555
Ga8 Mo6 2.671679 1_555
Ga8 Mo4 2.685213 1_555
Ga9 Mo7 2.671679 1_555
Ga9 Mo2 2.685213 1_555
Ga10 Mo0 2.677417 1_555
Ga10 Mo4 2.706566 1_555
Ga10 Ga37 2.975748 1_555
Ga11 Mo0 2.677417 1_555
Ga11 Mo2 2.706566 1_555
Ga11 Ga38 2.975748 1_555
Ga12 Mo0 2.677418 1_555
Ga12 Mo3 2.706566 1_555
Ga12 Ga39 2.975748 1_555
Ga13 Mo1 2.677417 1_555
Ga13 Mo7 2.706566 1_555
Ga13 Ga34 2.975748 1_555
Ga14 Mo1 2.677417 1_555
Ga14 Mo5 2.706566 1_555
Ga14 Ga35 2.975748 1_555
Ga15 Mo1 2.677418 1_555
Ga15 Mo6 2.706566 1_555
Ga15 Ga36 2.975748 1_555
Ga16 Mo3 2.588239 1_555
Ga16 Mo4 2.594517 1_545
Ga16 Ga35 2.808408 1_555
Ga16 Ga37 2.871280 1_545
Ga17 Mo4 2.588239 1_555
Ga17 Mo2 2.594517 1_554
Ga17 Ga36 2.808408 1_555
Ga17 Ga38 2.871280 1_554
Ga18 Mo2 2.588239 1_555
Ga18 Mo3 2.594517 1_455
Ga18 Ga34 2.808408 1_555
Ga18 Ga39 2.871280 1_455
Ga19 Mo6 2.588239 1_555
Ga19 Mo7 2.594517 1_565
Ga19 Ga38 2.808408 1_555
Ga19 Ga34 2.871280 1_565
Ga20 Mo7 2.588239 1_555
Ga20 Mo5 2.594517 1_556
Ga20 Ga39 2.808408 1_555
Ga20 Ga35 2.871280 1_556
Ga21 Mo5 2.588239 1_555
Ga21 Mo6 2.594517 1_655
Ga21 Ga37 2.808408 1_555
Ga21 Ga36 2.871280 1_655
Ga22 Mo0 2.614655 1_555
Ga22 Mo6 2.644594 1_655
Ga22 Ga37 2.808502 1_555
Ga23 Mo0 2.614655 1_555
Ga23 Mo7 2.644594 1_565
Ga23 Ga38 2.808502 1_555
Ga24 Mo0 2.614655 1_555
Ga24 Mo5 2.644594 1_556
Ga24 Ga39 2.808503 1_555
Ga25 Mo1 2.614655 1_555
Ga25 Mo3 2.644594 1_455
Ga25 Ga34 2.808502 1_555
Ga26 Mo1 2.614655 1_555
Ga26 Mo4 2.644594 1_545
Ga26 Ga35 2.808502 1_555
Ga27 Mo1 2.614655 1_555
Ga27 Mo2 2.644594 1_554
Ga27 Ga36 2.808503 1_555
Ga28 Mo0 2.616797 1_455
Ga28 Mo2 2.667678 1_555
Ga28 Ga36 2.721566 1_556
Ga28 Ga38 2.854439 1_555
Ga29 Mo0 2.616796 1_545
Ga29 Mo3 2.667677 1_555
Ga29 Ga34 2.721566 1_655
Ga29 Ga39 2.854439 1_555
Ga30 Mo0 2.616796 1_554
Ga30 Mo4 2.667677 1_555
Ga30 Ga35 2.721566 1_565
Ga30 Ga37 2.854439 1_555
Ga31 Mo1 2.616797 1_655
Ga31 Mo5 2.667678 1_555
Ga31 Ga39 2.721566 1_554
Ga31 Ga35 2.854439 1_555
Ga32 Mo1 2.616796 1_565
Ga32 Mo6 2.667677 1_555
Ga32 Ga37 2.721566 1_455
Ga32 Ga36 2.854439 1_555
Ga33 Mo1 2.616796 1_556
Ga33 Mo7 2.667677 1_555
Ga33 Ga38 2.721566 1_545
Ga33 Ga34 2.854439 1_555
Ga34 Mo7 2.639934 1_555
Ga34 Mo3 2.663802 1_455
Ga34 Ga9 2.929435 1_555
Ga35 Mo5 2.639934 1_555
Ga35 Mo4 2.663802 1_545
Ga35 Ga7 2.929435 1_555
Ga36 Mo6 2.639934 1_555
Ga36 Mo2 2.663802 1_554
Ga36 Ga8 2.929435 1_555
Ga37 Mo4 2.639934 1_555
Ga37 Mo6 2.663802 1_655
Ga37 Ga6 2.929435 1_555
Ga38 Mo2 2.639934 1_555
Ga38 Mo7 2.663802 1_565
Ga38 Ga4 2.929435 1_555
Ga39 Mo3 2.639934 1_555
Ga39 Mo5 2.663802 1_556
Ga39 Ga5 2.929435 1_555
Au0 Ga29 2.778972 1_454
Au0 Ga32 2.778972 1_545
Au0 Ga33 2.778972 1_554
Au0 Ga30 2.778972 1_445
Au0 Ga28 2.778972 1_544
Au0 Ga31 2.778972 1_455
Au0 Mo0 3.042497 1_444
Au0 Mo1 3.042497 1_555
