# generated using pymatgen
data_MgV8(OF)8
_symmetry_space_group_name_H-M   'P 1'
_cell_length_a   4.87152175
_cell_length_b   10.48973494
_cell_length_c   5.71665727
_cell_angle_alpha   84.25731916
_cell_angle_beta   90.71927727
_cell_angle_gamma   90.40987826
_symmetry_Int_Tables_number   1
_chemical_formula_structural   MgV8(OF)8
_chemical_formula_sum   'Mg1 V8 O8 F8'
_cell_volume   290.63263905
_cell_formula_units_Z   1
loop_
 _symmetry_equiv_pos_site_id
 _symmetry_equiv_pos_as_xyz
  1  'x, y, z'
loop_
 _atom_site_type_symbol
 _atom_site_label
 _atom_site_symmetry_multiplicity
 _atom_site_fract_x
 _atom_site_fract_y
 _atom_site_fract_z
 _atom_site_occupancy
  Mg  Mg0  1  0.00030961  0.12107348  0.61644325  1
  V  V0  1  0.48336099  0.27458761  0.72382931  1
  V  V1  1  0.51028305  0.97846215  0.52003724  1
  V  V2  1  0.51624442  0.73147688  0.26693327  1
  V  V3  1  0.48147288  0.51939464  0.98862590  1
  V  V4  1  0.99153388  0.24745702  0.19548252  1
  V  V5  1  0.00935867  0.76156441  0.74951883  1
  V  V6  1  0.97699040  0.48596123  0.49431969  1
  V  V7  1  0.01327714  0.00206136  0.04267060  1
  O  O0  1  0.82939331  0.30560270  0.53022311  1
  O  O1  1  0.84214932  0.06792685  0.31618739  1
  O  O2  1  0.68904465  0.80248505  0.53490035  1
  O  O3  1  0.69749559  0.55780531  0.27240614  1
  O  O4  1  0.31163117  0.43593470  0.70937404  1
  O  O5  1  0.30536734  0.68181778  0.97828302  1
  O  O6  1  0.15221209  0.93680518  0.72903120  1
  O  O7  1  0.18229105  0.17423593  0.91548299  1
  F  F0  1  0.81916771  0.57378441  0.77705236  1
  F  F1  1  0.81057260  0.82327699  0.04443278  1
  F  F2  1  0.67389285  0.07750157  0.80716731  1
  F  F3  1  0.66455306  0.33494580  0.01576228  1
  F  F4  1  0.32725054  0.91334799  0.22616260  1
  F  F5  1  0.33120590  0.17830528  0.43956397  1
  F  F6  1  0.18560775  0.66907942  0.47196106  1
  F  F7  1  0.18144504  0.42635628  0.20557779  1
loop_
_geom_bond_atom_site_label_1
_geom_bond_atom_site_label_2
_geom_bond_distance
_geom_bond_site_symmetry_2
Mg0 O1 2.000706 1_455
Mg0 O7 2.040830 1_555
Mg0 O6 2.111300 1_545
Mg0 O0 2.122455 1_455
O0 V6 2.011216 1_555
O0 V0 2.034537 1_555
O0 V4 2.221753 1_555
O1 V7 1.968336 1_655
O1 V4 2.070074 1_555
O1 V1 2.158509 1_545
O2 V2 1.948610 1_555
O2 V5 1.995134 1_655
O2 V1 2.040314 1_555
O3 V6 1.952217 1_555
O3 V3 1.995860 1_554
O3 V2 2.027404 1_555
O4 V0 1.887261 1_555
O4 V3 2.058067 1_555
O4 V6 2.068135 1_455
O5 V3 1.908356 1_555
O5 V2 2.042390 1_556
O5 V5 2.059224 1_555
O6 V5 1.953908 1_555
O6 V7 2.103356 1_566
O6 V1 2.144309 1_555
O7 V7 2.049245 1_556
O7 V0 2.060836 1_555
O7 V4 2.075860 1_456
F0 V6 2.095588 1_555
F0 V3 2.095979 1_555
F0 V5 2.163026 1_655
F1 V2 2.093309 1_555
F1 V7 2.112420 1_665
F1 V5 2.113656 1_654
F2 Mg0 1.964595 1_655
F2 V1 2.169194 1_545
F2 V7 2.218518 1_656
F2 V0 2.276356 1_555
F3 V0 2.032642 1_554
F3 V4 2.055780 1_555
F3 V3 2.127014 1_554
F4 V7 2.022496 1_565
F4 V1 2.065723 1_555
F4 V2 2.114798 1_555
F5 Mg0 1.971521 1_555
F5 V0 2.120789 1_555
F5 V4 2.228873 1_455
F5 V1 2.278213 1_545
F6 V2 2.067686 1_555
F6 V5 2.133114 1_555
F6 V6 2.159879 1_455
F7 V6 2.089086 1_455
F7 V4 2.091982 1_455
F7 V3 2.099951 1_554
