# generated using pymatgen
data_Er(Al5Re)2
_symmetry_space_group_name_H-M   'P 1'
_cell_length_a   6.90152575
_cell_length_b   6.90152575
_cell_length_c   26.75868640
_cell_angle_alpha   90.00000000
_cell_angle_beta   90.00000000
_cell_angle_gamma   96.17274951
_symmetry_Int_Tables_number   1
_chemical_formula_structural   Er(Al5Re)2
_chemical_formula_sum   'Er6 Al60 Re12'
_cell_volume   1267.15500450
_cell_formula_units_Z   6
loop_
 _symmetry_equiv_pos_site_id
 _symmetry_equiv_pos_as_xyz
  1  'x, y, z'
loop_
 _atom_site_type_symbol
 _atom_site_label
 _atom_site_symmetry_multiplicity
 _atom_site_fract_x
 _atom_site_fract_y
 _atom_site_fract_z
 _atom_site_occupancy
  Er  Er0  1  0.87539957  0.12460043  0.58459432  1
  Er  Er1  1  0.12460043  0.87539957  0.41540568  1
  Er  Er2  1  0.12460043  0.87539957  0.08459432  1
  Er  Er3  1  0.87539957  0.12460043  0.91540568  1
  Er  Er4  1  0.61795318  0.38204682  0.75000000  1
  Er  Er5  1  0.38204682  0.61795318  0.25000000  1
  Al  Al0  1  0.59522913  0.40477087  0.63323343  1
  Al  Al1  1  0.40477087  0.59522913  0.36676657  1
  Al  Al2  1  0.40477087  0.59522913  0.13323343  1
  Al  Al3  1  0.59522913  0.40477087  0.86676657  1
  Al  Al4  1  0.17506095  0.39813438  0.75000000  1
  Al  Al5  1  0.82493905  0.60186562  0.25000000  1
  Al  Al6  1  0.60186562  0.82493905  0.75000000  1
  Al  Al7  1  0.39813438  0.17506095  0.25000000  1
  Al  Al8  1  0.87473364  0.12526636  0.14581625  1
  Al  Al9  1  0.12526636  0.87473364  0.85418375  1
  Al  Al10  1  0.12526636  0.87473364  0.64581625  1
  Al  Al11  1  0.87473364  0.12526636  0.35418375  1
  Al  Al12  1  0.36997829  0.63002171  0.67859381  1
  Al  Al13  1  0.63002171  0.36997829  0.32140619  1
  Al  Al14  1  0.63002171  0.36997829  0.17859381  1
  Al  Al15  1  0.36997829  0.63002171  0.82140619  1
  Al  Al16  1  0.22766819  0.47151127  0.58082927  1
  Al  Al17  1  0.77233181  0.52848873  0.41917073  1
  Al  Al18  1  0.77233181  0.52848873  0.08082927  1
  Al  Al19  1  0.52848873  0.77233181  0.91917073  1
  Al  Al20  1  0.22766819  0.47151127  0.91917073  1
  Al  Al21  1  0.47151127  0.22766819  0.08082927  1
  Al  Al22  1  0.47151127  0.22766819  0.41917073  1
  Al  Al23  1  0.52848873  0.77233181  0.58082927  1
  Al  Al24  1  0.96387727  0.73778858  0.75000000  1
  Al  Al25  1  0.03612273  0.26221142  0.25000000  1
  Al  Al26  1  0.26221142  0.03612273  0.75000000  1
  Al  Al27  1  0.73778858  0.96387727  0.25000000  1
  Al  Al28  1  0.62242274  0.37757726  0.52207749  1
  Al  Al29  1  0.37757726  0.62242274  0.47792251  1
  Al  Al30  1  0.37757726  0.62242274  0.02207749  1
  Al  Al31  1  0.62242274  0.37757726  0.97792251  1
  Al  Al32  1  0.96832945  0.47376010  0.67083635  1
  Al  Al33  1  0.03167055  0.52623990  0.32916365  1
  Al  Al34  1  0.03167055  0.52623990  0.17083635  1
  Al  Al35  1  0.52623990  0.03167055  0.82916365  1
  Al  Al36  1  0.96832945  0.47376010  0.82916365  1
  Al  Al37  1  0.47376010  0.96832945  0.17083635  1
  Al  Al38  1  0.47376010  0.96832945  0.32916365  1
  Al  Al39  1  0.52623990  0.03167055  0.67083635  1
  Al  Al40  1  0.90757848  0.09242152  0.69961900  1
  Al  Al41  1  0.09242152  0.90757848  0.30038100  1
  Al  Al42  1  0.09242152  0.90757848  0.19961900  1
  Al  Al43  1  0.90757848  0.09242152  0.80038100  1
  Al  Al44  1  0.87688253  0.62071958  0.58299032  1
  Al  Al45  1  0.12311747  0.37928042  0.41700968  1
  Al  Al46  1  0.12311747  0.37928042  0.08299032  1
  Al  Al47  1  0.37928042  0.12311747  0.91700968  1
  Al  Al48  1  0.87688253  0.62071958  0.91700968  1
  Al  Al49  1  0.62071958  0.87688253  0.08299032  1
  Al  Al50  1  0.62071958  0.87688253  0.41700968  1
  Al  Al51  1  0.37928042  0.12311747  0.58299032  1
  Al  Al52  1  0.20667790  0.20667790  0.50000000  1
  Al  Al53  1  0.79332210  0.79332210  0.50000000  1
  Al  Al54  1  0.79332210  0.79332210  0.00000000  1
  Al  Al55  1  0.20667790  0.20667790  0.00000000  1
  Al  Al56  1  0.83449604  0.16550396  0.03401016  1
  Al  Al57  1  0.16550396  0.83449604  0.96598984  1
  Al  Al58  1  0.16550396  0.83449604  0.53401016  1
  Al  Al59  1  0.83449604  0.16550396  0.46598984  1
  Re  Re0  1  0.24896176  0.25509196  0.66314601  1
  Re  Re1  1  0.75103824  0.74490804  0.33685399  1
  Re  Re2  1  0.75103824  0.74490804  0.16314601  1
  Re  Re3  1  0.74490804  0.75103824  0.83685399  1
  Re  Re4  1  0.24896176  0.25509196  0.83685399  1
  Re  Re5  1  0.25509196  0.24896176  0.16314601  1
  Re  Re6  1  0.25509196  0.24896176  0.33685399  1
  Re  Re7  1  0.74490804  0.75103824  0.66314601  1
  Re  Re8  1  -0.00000000  0.50000000  0.50000000  1
  Re  Re9  1  -0.00000000  0.50000000  0.00000000  1
  Re  Re10  1  0.50000000  0.00000000  0.00000000  1
  Re  Re11  1  0.50000000  0.00000000  0.50000000  1
loop_
_geom_bond_atom_site_label_1
_geom_bond_atom_site_label_2
_geom_bond_distance
_geom_bond_site_symmetry_2
Er0 Re0 3.372943 1_655
Er0 Re7 3.372943 1_545
Er0 Re8 3.478044 1_655
Er0 Re11 3.478044 1_555
Er1 Re6 3.372943 1_565
Er1 Re1 3.372943 1_455
Er1 Re11 3.478044 1_565
Er1 Re8 3.478044 1_555
Er2 Re5 3.372943 1_565
Er2 Re2 3.372943 1_455
Er2 Re9 3.478044 1_555
Er2 Re10 3.478044 1_565
Er3 Re4 3.372943 1_655
Er3 Re3 3.372943 1_545
Er3 Re10 3.478044 1_556
Er3 Re9 3.478044 1_656
Al0 Al12 2.612737 1_555
Al0 Re0 2.624483 1_555
Al0 Re7 2.624483 1_555
Al0 Al51 2.680340 1_555
Al0 Al44 2.680340 1_555
Al0 Al39 2.757883 1_555
Al0 Al32 2.757883 1_555
Al0 Al16 2.977381 1_555
Al0 Al23 2.977381 1_555
Al0 Al28 2.987474 1_555
Al0 Er4 3.133226 1_555
Al0 Er0 3.158424 1_555
Al1 Al13 2.612737 1_555
Al1 Re6 2.624483 1_555
Al1 Re1 2.624483 1_555
Al1 Al45 2.680340 1_555
Al1 Al50 2.680340 1_555
Al1 Al33 2.757883 1_555
Al1 Al38 2.757883 1_555
Al1 Al22 2.977381 1_555
Al1 Al17 2.977381 1_555
Al1 Al29 2.987474 1_555
Al1 Er5 3.133226 1_555
Al1 Er1 3.158424 1_555
Al2 Re2 2.624483 1_555
Al2 Re5 2.624483 1_555
Al2 Al46 2.680340 1_555
Al2 Al49 2.680340 1_555
Al2 Al34 2.757883 1_555
Al2 Al37 2.757883 1_555
Al2 Al21 2.977381 1_555
Al2 Al30 2.987474 1_555
Al2 Er5 3.133226 1_555
Al2 Er2 3.158424 1_555
Al3 Re3 2.624483 1_555
Al3 Re4 2.624483 1_555
Al3 Al47 2.680340 1_555
Al3 Al48 2.680340 1_555
Al3 Al36 2.757883 1_555
Al3 Al35 2.757883 1_555
Al3 Al31 2.987474 1_555
Al3 Er4 3.133226 1_555
Al3 Er3 3.158424 1_555
Al4 Re0 2.597004 1_555
Al4 Re4 2.597004 1_555
Al4 Al40 2.973097 1_455
Al4 Al43 2.973097 1_455
Al4 Er4 3.070555 1_555
Al5 Re1 2.597004 1_555
Al5 Re2 2.597004 1_555
Al5 Er5 3.070555 1_555
Al6 Re7 2.597004 1_555
Al6 Re3 2.597004 1_555
Al6 Er4 3.070555 1_555
Al7 Re5 2.597004 1_555
Al7 Re6 2.597004 1_555
Al7 Er5 3.070555 1_555
Al8 Re2 2.711603 1_545
Al8 Re5 2.711603 1_655
Al8 Er2 3.044802 1_645
Al9 Re3 2.711603 1_455
Al9 Re4 2.711603 1_565
Al9 Er3 3.044802 1_465
Al10 Al40 2.659398 1_465
Al10 Al12 2.662208 1_555
Al10 Re7 2.711603 1_455
Al10 Re0 2.711603 1_565
Al10 Al44 2.862138 1_455
Al10 Al51 2.862138 1_565
Al10 Al39 2.938517 1_565
Al10 Al32 2.938517 1_455
Al10 Al58 3.020197 1_555
Al10 Er0 3.044802 1_465
Al10 Al24 3.111180 1_455
Al10 Al26 3.111180 1_565
Al11 Al41 2.659398 1_645
Al11 Al13 2.662208 1_555
Al11 Re1 2.711603 1_545
Al11 Re6 2.711603 1_655
Al11 Al50 2.862138 1_545
Al11 Al45 2.862138 1_655
Al11 Al33 2.938517 1_655
Al11 Al38 2.938517 1_545
Al11 Al59 3.020197 1_555
Al11 Er1 3.044802 1_645
Al11 Al27 3.111180 1_545
Al11 Al25 3.111180 1_655
Al12 Re0 2.664446 1_555
Al12 Re7 2.664446 1_555
Al12 Al6 2.749322 1_555
Al12 Al4 2.749322 1_555
Al12 Al39 2.871789 1_565
Al12 Al32 2.871789 1_455
Al12 Al23 2.962102 1_555
Al12 Al16 2.962102 1_555
Al12 Er4 3.184116 1_555
Al13 Re1 2.664446 1_555
Al13 Re6 2.664446 1_555
Al13 Al5 2.749322 1_555
Al13 Al7 2.749322 1_555
Al13 Al33 2.871789 1_655
Al13 Al38 2.871789 1_545
Al13 Al17 2.962102 1_555
Al13 Al22 2.962102 1_555
Al13 Er5 3.184116 1_555
Al14 Al2 2.612737 1_555
Al14 Al8 2.662208 1_555
Al14 Re2 2.664446 1_555
Al14 Re5 2.664446 1_555
Al14 Al5 2.749322 1_555
Al14 Al7 2.749322 1_555
Al14 Al34 2.871789 1_655
Al14 Al37 2.871789 1_545
Al14 Al18 2.962102 1_555
Al14 Al21 2.962102 1_555
Al14 Er5 3.184116 1_555
Al15 Al3 2.612737 1_555
Al15 Al9 2.662208 1_555
Al15 Re3 2.664446 1_555
Al15 Re4 2.664446 1_555
Al15 Al6 2.749322 1_555
Al15 Al4 2.749322 1_555
Al15 Al35 2.871789 1_565
Al15 Al36 2.871789 1_455
Al15 Al19 2.962102 1_555
Al15 Al20 2.962102 1_555
Al15 Er4 3.184116 1_555
Al16 Re0 2.674237 1_555
Al16 Re8 2.692957 1_555
Al16 Al58 2.874112 1_555
Al16 Al29 3.083183 1_555
Al16 Er0 3.225108 1_455
Al17 Re1 2.674237 1_555
Al17 Re8 2.692957 1_655
Al17 Al59 2.874112 1_555
Al17 Al28 3.083183 1_555
Al17 Er1 3.225108 1_655
Al18 Re2 2.674237 1_555
Al18 Re9 2.692957 1_655
Al18 Al56 2.874112 1_555
Al18 Al2 2.977381 1_555
Al18 Al31 3.083183 1_554
Al18 Er2 3.225108 1_655
Al19 Re3 2.674237 1_555
Al19 Re10 2.692957 1_566
Al19 Al57 2.874112 1_555
Al19 Al3 2.977381 1_555
Al19 Al30 3.083183 1_556
Al19 Er3 3.225108 1_565
Al20 Re4 2.674237 1_555
Al20 Re9 2.692957 1_556
Al20 Al57 2.874112 1_555
Al20 Al3 2.977381 1_555
Al20 Al30 3.083183 1_556
Al20 Er3 3.225108 1_455
Al21 Re5 2.674237 1_555
Al21 Re10 2.692957 1_555
Al21 Al56 2.874112 1_555
Al21 Al31 3.083183 1_554
Al21 Er2 3.225108 1_545
Al22 Re6 2.674237 1_555
Al22 Re11 2.692957 1_555
Al22 Al59 2.874112 1_555
Al22 Al28 3.083183 1_555
Al22 Er1 3.225108 1_545
Al23 Re7 2.674237 1_555
Al23 Re11 2.692957 1_565
Al23 Al58 2.874112 1_555
Al23 Al29 3.083183 1_555
Al23 Er0 3.225108 1_565
Al24 Al6 2.631939 1_555
Al24 Al26 2.750811 1_665
Al24 Re7 2.779084 1_555
Al24 Re3 2.779084 1_555
Al24 Al32 2.796543 1_555
Al24 Al36 2.796543 1_555
Al24 Al40 2.857136 1_565
Al24 Al43 2.857136 1_565
Al24 Al4 2.890324 1_655
Al24 Al9 3.111180 1_655
Al24 Er4 3.235272 1_555
Al25 Al7 2.631939 1_555
Al25 Al27 2.750811 1_445
Al25 Re6 2.779084 1_555
Al25 Re5 2.779084 1_555
Al25 Al34 2.796543 1_555
Al25 Al33 2.796543 1_555
Al25 Al42 2.857136 1_545
Al25 Al41 2.857136 1_545
Al25 Al5 2.890324 1_455
Al25 Al8 3.111180 1_455
Al25 Er5 3.235272 1_555
Al26 Al4 2.631939 1_555
Al26 Re0 2.779084 1_555
Al26 Re4 2.779084 1_555
Al26 Al39 2.796543 1_555
Al26 Al35 2.796543 1_555
Al26 Al43 2.857136 1_455
Al26 Al40 2.857136 1_455
Al26 Al6 2.890324 1_545
Al26 Al9 3.111180 1_545
Al26 Er4 3.235272 1_555
Al27 Al5 2.631939 1_555
Al27 Re1 2.779084 1_555
Al27 Re2 2.779084 1_555
Al27 Al37 2.796543 1_555
Al27 Al38 2.796543 1_555
Al27 Al42 2.857136 1_655
Al27 Al41 2.857136 1_655
Al27 Al7 2.890324 1_565
Al27 Al8 3.111180 1_565
Al27 Er5 3.235272 1_555
Al28 Al59 2.645299 1_555
Al28 Re11 2.716594 1_555
Al28 Re8 2.716594 1_655
Al28 Al29 2.778666 1_555
Al28 Al51 2.814773 1_555
Al28 Al44 2.814773 1_555
Al28 Al53 3.040574 1_555
Al28 Al52 3.040574 1_555
Al28 Er0 3.090395 1_555
Al29 Al58 2.645299 1_555
Al29 Re8 2.716594 1_555
Al29 Re11 2.716594 1_565
Al29 Al45 2.814773 1_555
Al29 Al50 2.814773 1_555
Al29 Al53 3.040574 1_555
Al29 Al52 3.040574 1_555
Al29 Er1 3.090395 1_555
Al30 Al57 2.645299 1_554
Al30 Re9 2.716594 1_555
Al30 Re10 2.716594 1_565
Al30 Al31 2.778666 1_554
Al30 Al46 2.814773 1_555
Al30 Al49 2.814773 1_555
Al30 Al54 3.040574 1_555
Al30 Al55 3.040574 1_555
Al30 Er2 3.090395 1_555
Al31 Al56 2.645299 1_556
Al31 Re9 2.716594 1_656
Al31 Re10 2.716594 1_556
Al31 Al47 2.814773 1_555
Al31 Al48 2.814773 1_555
Al31 Al54 3.040574 1_556
Al31 Al55 3.040574 1_556
Al31 Er3 3.090395 1_555
Al32 Re0 2.588358 1_655
Al32 Re7 2.591630 1_555
Al32 Al4 2.637323 1_655
Al32 Al40 2.730960 1_555
Al32 Er4 3.225849 1_555
Al32 Er0 3.348340 1_555
Al33 Re1 2.588358 1_455
Al33 Re6 2.591630 1_555
Al33 Al5 2.637323 1_455
Al33 Al41 2.730960 1_555
Al33 Er5 3.225849 1_555
Al33 Er1 3.348340 1_555
Al34 Re2 2.588358 1_455
Al34 Re5 2.591630 1_555
Al34 Al5 2.637323 1_455
Al34 Al42 2.730960 1_555
Al34 Al8 2.938517 1_455
Al34 Er5 3.225849 1_555
Al34 Er2 3.348340 1_555
Al35 Re3 2.588358 1_545
Al35 Re4 2.591630 1_555
Al35 Al6 2.637323 1_545
Al35 Al43 2.730960 1_555
Al35 Al9 2.938517 1_545
Al35 Er4 3.225849 1_555
Al35 Er3 3.348340 1_555
Al36 Re4 2.588358 1_655
Al36 Re3 2.591630 1_555
Al36 Al4 2.637323 1_655
Al36 Al43 2.730960 1_555
Al36 Al9 2.938517 1_655
Al36 Er4 3.225849 1_555
Al36 Er3 3.348340 1_555
Al37 Re5 2.588358 1_565
Al37 Re2 2.591630 1_555
Al37 Al7 2.637323 1_565
Al37 Al42 2.730960 1_555
Al37 Al8 2.938517 1_565
Al37 Er5 3.225849 1_555
Al37 Er2 3.348340 1_555
Al38 Re6 2.588358 1_565
Al38 Re1 2.591630 1_555
Al38 Al7 2.637323 1_565
Al38 Al41 2.730960 1_555
Al38 Er5 3.225849 1_555
Al38 Er1 3.348340 1_555
Al39 Re7 2.588358 1_545
Al39 Re0 2.591630 1_555
Al39 Al6 2.637323 1_545
Al39 Al40 2.730960 1_555
Al39 Er4 3.225849 1_555
Al39 Er0 3.348340 1_555
Al40 Re7 2.682373 1_545
Al40 Re0 2.682373 1_655
Al40 Al43 2.696259 1_555
Al40 Al6 2.973097 1_545
Al40 Er0 3.095606 1_555
Al40 Er4 3.266119 1_555
Al41 Re6 2.682373 1_565
Al41 Re1 2.682373 1_455
Al41 Al42 2.696259 1_555
Al41 Al7 2.973097 1_565
Al41 Al5 2.973097 1_455
Al41 Er1 3.095606 1_555
Al41 Er5 3.266119 1_555
Al42 Al8 2.659398 1_465
Al42 Re2 2.682373 1_455
Al42 Re5 2.682373 1_565
Al42 Al7 2.973097 1_565
Al42 Al5 2.973097 1_455
Al42 Er2 3.095606 1_555
Al42 Er5 3.266119 1_555
Al43 Al9 2.659398 1_645
Al43 Re4 2.682373 1_655
Al43 Re3 2.682373 1_545
Al43 Al6 2.973097 1_545
Al43 Er3 3.095606 1_555
Al43 Er4 3.266119 1_555
Al44 Re7 2.532808 1_555
Al44 Re8 2.549496 1_655
Al44 Al58 2.688924 1_655
Al44 Er0 3.423163 1_555
Al44 Er0 3.478927 1_565
Al45 Re6 2.532808 1_555
Al45 Re8 2.549496 1_555
Al45 Al59 2.688924 1_455
Al45 Er1 3.423163 1_555
Al45 Er1 3.478927 1_545
Al46 Re5 2.532808 1_555
Al46 Re9 2.549496 1_555
Al46 Al56 2.688924 1_455
Al46 Al8 2.862138 1_455
Al46 Er2 3.423163 1_555
Al46 Er2 3.478927 1_545
Al47 Re4 2.532808 1_555
Al47 Re10 2.549496 1_556
Al47 Al57 2.688924 1_545
Al47 Al9 2.862138 1_545
Al47 Er3 3.423163 1_555
Al47 Er3 3.478927 1_455
Al48 Re3 2.532808 1_555
Al48 Re9 2.549496 1_656
Al48 Al57 2.688924 1_655
Al48 Al9 2.862138 1_655
Al48 Er3 3.423163 1_555
Al48 Er3 3.478927 1_565
Al49 Re2 2.532808 1_555
Al49 Re10 2.549496 1_565
Al49 Al56 2.688924 1_565
Al49 Al8 2.862138 1_565
Al49 Er2 3.423163 1_555
Al49 Er2 3.478927 1_655
Al50 Re1 2.532808 1_555
Al50 Re11 2.549496 1_565
Al50 Al59 2.688924 1_565
Al50 Er1 3.423163 1_555
Al50 Er1 3.478927 1_655
Al51 Re0 2.532808 1_555
Al51 Re11 2.549496 1_555
Al51 Al58 2.688924 1_545
Al51 Er0 3.423163 1_555
Al51 Er0 3.478927 1_455
Al52 Re8 2.598778 1_555
Al52 Re11 2.598778 1_555
Al52 Al59 2.711056 1_455
Al52 Al58 2.711056 1_545
Al52 Er0 3.223923 1_455
Al52 Er1 3.223923 1_545
Al53 Re11 2.598778 1_565
Al53 Re8 2.598778 1_655
Al53 Al58 2.711056 1_655
Al53 Al59 2.711056 1_565
Al53 Er1 3.223923 1_655
Al53 Er0 3.223923 1_565
Al54 Re10 2.598778 1_565
Al54 Re9 2.598778 1_655
Al54 Al56 2.711056 1_565
Al54 Al57 2.711056 1_654
Al54 Er3 3.223923 1_564
Al54 Er2 3.223923 1_655
Al55 Re9 2.598778 1_555
Al55 Re10 2.598778 1_555
Al55 Al57 2.711056 1_544
Al55 Al56 2.711056 1_455
Al55 Er3 3.223923 1_454
Al55 Er2 3.223923 1_545
Al56 Re9 2.625865 1_655
Al56 Re10 2.625865 1_555
Al56 Al8 3.020197 1_555
Al56 Er3 3.201389 1_554
Al56 Er2 3.272847 1_645
Al57 Re10 2.625865 1_566
Al57 Re9 2.625865 1_556
Al57 Al9 3.020197 1_555
Al57 Er2 3.201389 1_556
Al57 Er3 3.272847 1_465
Al58 Re8 2.625865 1_555
Al58 Re11 2.625865 1_565
Al58 Er1 3.201389 1_555
Al58 Er0 3.272847 1_465
Al59 Re8 2.625865 1_655
Al59 Re11 2.625865 1_555
Al59 Er0 3.201389 1_555
Al59 Er1 3.272847 1_645
