# generated using pymatgen
data_Mg14AlVO16
_symmetry_space_group_name_H-M   'P 1'
_cell_length_a   4.26287400
_cell_length_b   8.49450700
_cell_length_c   8.70181400
_cell_angle_alpha   90.00000000
_cell_angle_beta   90.00000000
_cell_angle_gamma   90.00000000
_symmetry_Int_Tables_number   1
_chemical_formula_structural   Mg14AlVO16
_chemical_formula_sum   'Mg14 Al1 V1 O16'
_cell_volume   315.10150017
_cell_formula_units_Z   1
loop_
 _symmetry_equiv_pos_site_id
 _symmetry_equiv_pos_as_xyz
  1  'x, y, z'
loop_
 _atom_site_type_symbol
 _atom_site_label
 _atom_site_symmetry_multiplicity
 _atom_site_fract_x
 _atom_site_fract_y
 _atom_site_fract_z
 _atom_site_occupancy
  Mg  Mg0  1  0.00000000  0.50000000  0.00000000  1
  Mg  Mg1  1  0.00000000  0.50000000  0.50000000  1
  Mg  Mg2  1  0.50000000  0.00000000  0.25033100  1
  Mg  Mg3  1  0.50000000  0.00000000  0.74966900  1
  Mg  Mg4  1  0.50000000  0.50000000  0.25098400  1
  Mg  Mg5  1  0.50000000  0.50000000  0.74901600  1
  Mg  Mg6  1  0.50000000  0.25037800  0.00000000  1
  Mg  Mg7  1  0.50000000  0.24973800  0.50000000  1
  Mg  Mg8  1  0.50000000  0.74962200  0.00000000  1
  Mg  Mg9  1  0.50000000  0.75026200  0.50000000  1
  Mg  Mg10  1  0.00000000  0.24905100  0.25114100  1
  Mg  Mg11  1  0.00000000  0.24905100  0.74885900  1
  Mg  Mg12  1  0.00000000  0.75094900  0.25114100  1
  Mg  Mg13  1  0.00000000  0.75094900  0.74885900  1
  Al  Al0  1  0.00000000  0.00000000  0.00000000  1
  V  V0  1  0.00000000  0.00000000  0.50000000  1
  O  O0  1  0.00000000  0.23965100  0.00000000  1
  O  O1  1  0.00000000  0.25769600  0.50000000  1
  O  O2  1  0.00000000  0.76034900  0.00000000  1
  O  O3  1  0.00000000  0.74230400  0.50000000  1
  O  O4  1  0.50000000  0.24947600  0.24902700  1
  O  O5  1  0.50000000  0.24947600  0.75097300  1
  O  O6  1  0.50000000  0.75052400  0.24902700  1
  O  O7  1  0.50000000  0.75052400  0.75097300  1
  O  O8  1  0.50000000  0.00000000  0.00000000  1
  O  O9  1  0.50000000  0.00000000  0.50000000  1
  O  O10  1  0.50000000  0.50000000  0.00000000  1
  O  O11  1  0.50000000  0.50000000  0.50000000  1
  O  O12  1  0.00000000  0.00000000  0.21100000  1
  O  O13  1  0.00000000  0.00000000  0.78900000  1
  O  O14  1  0.00000000  0.50000000  0.24582700  1
  O  O15  1  0.00000000  0.50000000  0.75417300  1
loop_
_geom_bond_atom_site_label_1
_geom_bond_atom_site_label_2
_geom_bond_distance
_geom_bond_site_symmetry_2
Mg0 O10 2.131437 1_555
Mg0 O10 2.131437 1_455
Mg0 O14 2.139141 1_555
Mg0 O15 2.139141 1_554
Mg0 O0 2.211536 1_555
Mg0 O2 2.211536 1_555
Mg1 O3 2.058253 1_555
Mg1 O1 2.058253 1_555
Mg1 O11 2.131437 1_555
Mg1 O11 2.131437 1_455
Mg1 O15 2.211766 1_555
Mg1 O14 2.211766 1_555
Mg2 O4 2.119206 1_555
Mg2 O6 2.119206 1_545
Mg2 O12 2.158740 1_655
Mg2 O12 2.158740 1_555
Mg2 O9 2.172573 1_555
Mg2 O8 2.178334 1_555
Mg3 O5 2.119206 1_555
Mg3 O7 2.119206 1_545
Mg3 O13 2.158740 1_555
Mg3 O13 2.158740 1_655
Mg3 O9 2.172573 1_555
Mg3 O8 2.178334 1_556
Mg4 O6 2.128146 1_555
Mg4 O4 2.128146 1_555
Mg4 O14 2.131909 1_555
Mg4 O14 2.131909 1_655
Mg4 O11 2.166891 1_555
Mg4 O10 2.184016 1_555
Mg5 O7 2.128146 1_555
Mg5 O5 2.128146 1_555
Mg5 O15 2.131909 1_555
Mg5 O15 2.131909 1_655
Mg5 O11 2.166891 1_555
Mg5 O10 2.184016 1_556
Mg6 O10 2.120416 1_555
Mg6 O8 2.126838 1_555
Mg6 O0 2.133384 1_555
Mg6 O0 2.133384 1_655
Mg6 O4 2.167000 1_555
Mg6 O5 2.167000 1_554
Mg7 O9 2.121401 1_555
Mg7 O11 2.125852 1_555
Mg7 O1 2.132509 1_655
Mg7 O1 2.132509 1_555
Mg7 O4 2.183921 1_555
Mg7 O5 2.183921 1_555
Mg8 O10 2.120416 1_555
Mg8 O8 2.126838 1_565
Mg8 O2 2.133384 1_655
Mg8 O2 2.133384 1_555
Mg8 O6 2.167000 1_555
Mg8 O7 2.167000 1_554
Mg9 O9 2.121401 1_565
Mg9 O11 2.125852 1_555
Mg9 O3 2.132509 1_655
Mg9 O3 2.132509 1_555
Mg9 O6 2.183921 1_555
Mg9 O7 2.183921 1_555
Mg10 O4 2.131519 1_455
Mg10 O4 2.131519 1_555
Mg10 O14 2.132190 1_555
Mg10 O12 2.144208 1_555
Mg10 O1 2.166769 1_555
Mg10 O0 2.186841 1_555
Mg11 O5 2.131519 1_455
Mg11 O5 2.131519 1_555
Mg11 O15 2.132190 1_555
Mg11 O13 2.144208 1_555
Mg11 O1 2.166769 1_555
Mg11 O0 2.186841 1_556
Mg12 O6 2.131519 1_555
Mg12 O6 2.131519 1_455
Mg12 O14 2.132190 1_555
Mg12 O12 2.144208 1_565
Mg12 O3 2.166769 1_555
Mg12 O2 2.186841 1_555
Mg13 O7 2.131519 1_555
Mg13 O7 2.131519 1_455
Mg13 O15 2.132190 1_555
Mg13 O13 2.144208 1_565
Mg13 O3 2.166769 1_555
Mg13 O2 2.186841 1_556
Al0 O13 1.836083 1_554
Al0 O12 1.836083 1_555
Al0 O2 2.035717 1_545
Al0 O0 2.035717 1_555
Al0 O8 2.131437 1_555
Al0 O8 2.131437 1_455
O1 V0 2.189000 1_555
O3 V0 2.189000 1_565
O9 V0 2.131437 1_655
O9 V0 2.131437 1_555
O12 V0 2.514824 1_555
O13 V0 2.514824 1_555
