# generated using pymatgen
data_ErCr2Si2C
_symmetry_space_group_name_H-M   'P 1'
_cell_length_a   3.95990100
_cell_length_b   3.95990100
_cell_length_c   5.20675400
_cell_angle_alpha   90.00000000
_cell_angle_beta   90.00000000
_cell_angle_gamma   90.00000000
_symmetry_Int_Tables_number   1
_chemical_formula_structural   ErCr2Si2C
_chemical_formula_sum   'Er1 Cr2 Si2 C1'
_cell_volume   81.64615107
_cell_formula_units_Z   1
loop_
 _symmetry_equiv_pos_site_id
 _symmetry_equiv_pos_as_xyz
  1  'x, y, z'
loop_
 _atom_site_type_symbol
 _atom_site_label
 _atom_site_symmetry_multiplicity
 _atom_site_fract_x
 _atom_site_fract_y
 _atom_site_fract_z
 _atom_site_occupancy
  Er  Er0  1  0.00000000  0.00000000  0.50000000  1
  Cr  Cr0  1  0.00000000  0.50000000  0.00000000  1
  Cr  Cr1  1  0.50000000  0.00000000  0.00000000  1
  Si  Si0  1  0.50000000  0.50000000  0.27037800  1
  Si  Si1  1  0.50000000  0.50000000  0.72962200  1
  C  C0  1  0.00000000  0.00000000  0.00000000  1
loop_
_geom_bond_atom_site_label_1
_geom_bond_atom_site_label_2
_geom_bond_distance
_geom_bond_site_symmetry_2
Er0 Si1 3.044640 1_455
Er0 Si0 3.044640 1_555
Er0 Si0 3.044640 1_445
Er0 Si0 3.044640 1_545
Er0 Si1 3.044640 1_545
Er0 Si1 3.044640 1_555
Er0 Si1 3.044640 1_445
Er0 Si0 3.044640 1_455
Cr0 Si0 2.429420 1_455
Cr0 Si1 2.429420 1_554
Cr0 Si1 2.429420 1_454
Cr0 Si0 2.429420 1_555
Cr1 Si1 2.429420 1_554
Cr1 Si1 2.429420 1_544
Cr1 Si0 2.429420 1_555
Cr1 Si0 2.429420 1_545
Si0 Si1 2.391171 1_555
C0 Cr0 1.979950 1_545
C0 Cr0 1.979950 1_555
C0 Cr1 1.979950 1_455
C0 Cr1 1.979950 1_555
C0 Er0 2.603377 1_555
C0 Er0 2.603377 1_554
