# generated using pymatgen
data_Ce3NdC8
_symmetry_space_group_name_H-M   'P 1'
_cell_length_a   3.79753200
_cell_length_b   3.79753200
_cell_length_c   12.76635300
_cell_angle_alpha   90.00000000
_cell_angle_beta   90.00000000
_cell_angle_gamma   90.00000000
_symmetry_Int_Tables_number   1
_chemical_formula_structural   Ce3NdC8
_chemical_formula_sum   'Ce3 Nd1 C8'
_cell_volume   184.10675915
_cell_formula_units_Z   1
loop_
 _symmetry_equiv_pos_site_id
 _symmetry_equiv_pos_as_xyz
  1  'x, y, z'
loop_
 _atom_site_type_symbol
 _atom_site_label
 _atom_site_symmetry_multiplicity
 _atom_site_fract_x
 _atom_site_fract_y
 _atom_site_fract_z
 _atom_site_occupancy
  Ce  Ce0  1  0.50000000  0.50000000  0.74855200  1
  Ce  Ce1  1  0.00000000  0.00000000  0.50000000  1
  Ce  Ce2  1  0.50000000  0.50000000  0.25144800  1
  Nd  Nd0  1  0.00000000  0.00000000  0.00000000  1
  C  C0  1  0.00000000  0.00000000  0.79976900  1
  C  C1  1  0.50000000  0.50000000  0.55131400  1
  C  C2  1  0.00000000  0.00000000  0.30236200  1
  C  C3  1  0.50000000  0.50000000  0.05086400  1
  C  C4  1  0.50000000  0.50000000  0.94913600  1
  C  C5  1  0.00000000  0.00000000  0.69763800  1
  C  C6  1  0.50000000  0.50000000  0.44868600  1
  C  C7  1  0.00000000  0.00000000  0.20023100  1
loop_
_geom_bond_atom_site_label_1
_geom_bond_atom_site_label_2
_geom_bond_distance
_geom_bond_site_symmetry_2
C0 C5 1.303840 1_555
C0 Nd0 2.556220 1_556
C0 Ce0 2.763720 1_555
C0 Ce0 2.763720 1_545
C0 Ce0 2.763720 1_455
C0 Ce0 2.763720 1_445
C1 C6 1.310185 1_555
C1 Ce0 2.518010 1_555
C1 Ce1 2.764014 1_555
C1 Ce1 2.764014 1_655
C1 Ce1 2.764014 1_665
C1 Ce1 2.764014 1_565
C2 C7 1.303840 1_555
C2 Ce1 2.523116 1_555
C2 Ce2 2.762808 1_555
C2 Ce2 2.762808 1_455
C2 Ce2 2.762808 1_545
C2 Ce2 2.762808 1_445
C3 C4 1.298696 1_554
C3 Ce2 2.560726 1_555
C3 Nd0 2.762658 1_555
C3 Nd0 2.762658 1_565
C3 Nd0 2.762658 1_655
C3 Nd0 2.762658 1_665
C4 Ce0 2.560726 1_555
C4 Nd0 2.762658 1_556
C4 Nd0 2.762658 1_656
C4 Nd0 2.762658 1_666
C4 Nd0 2.762658 1_566
C5 Ce1 2.523116 1_555
C5 Ce0 2.762808 1_455
C5 Ce0 2.762808 1_445
C5 Ce0 2.762808 1_555
C5 Ce0 2.762808 1_545
C6 Ce2 2.518010 1_555
C6 Ce1 2.764014 1_555
C6 Ce1 2.764014 1_655
C6 Ce1 2.764014 1_665
C6 Ce1 2.764014 1_565
C7 Nd0 2.556220 1_555
C7 Ce2 2.763720 1_445
C7 Ce2 2.763720 1_555
C7 Ce2 2.763720 1_455
C7 Ce2 2.763720 1_545
