# generated using pymatgen
data_Li3MnCoO5
_symmetry_space_group_name_H-M   'P 1'
_cell_length_a   2.95171700
_cell_length_b   2.95171867
_cell_length_c   24.62544323
_cell_angle_alpha   93.43592296
_cell_angle_beta   90.00000000
_cell_angle_gamma   119.99999253
_symmetry_Int_Tables_number   1
_chemical_formula_structural   Li3MnCoO5
_chemical_formula_sum   'Li6 Mn2 Co2 O10'
_cell_volume   185.36252939
_cell_formula_units_Z   2
loop_
 _symmetry_equiv_pos_site_id
 _symmetry_equiv_pos_as_xyz
  1  'x, y, z'
loop_
 _atom_site_type_symbol
 _atom_site_label
 _atom_site_symmetry_multiplicity
 _atom_site_fract_x
 _atom_site_fract_y
 _atom_site_fract_z
 _atom_site_occupancy
  Li  Li0  1  0.10294100  0.20588300  0.30882400  1
  Li  Li1  1  0.49876600  0.99753300  0.49629900  1
  Li  Li2  1  0.89978000  0.79955900  0.69933900  1
  Li  Li3  1  0.29854100  0.59708200  0.89562300  1
  Li  Li4  1  0.69984400  0.39968800  0.09953200  1
  Li  Li5  1  0.79985400  0.59970900  0.39956300  1
  Mn  Mn0  1  0.99990700  0.99981400  0.99972000  1
  Mn  Mn1  1  0.39994800  0.79989500  0.19984300  1
  Co  Co0  1  0.20028200  0.40056500  0.60084700  1
  Co  Co1  1  0.59965500  0.19931000  0.79896500  1
  O  O0  1  0.15092000  0.30184000  0.45276000  1
  O  O1  1  0.54829100  0.09658100  0.64487200  1
  O  O2  1  0.94787600  0.89575100  0.84362700  1
  O  O3  1  0.34874600  0.69749200  0.04623800  1
  O  O4  1  0.74709900  0.49419700  0.24129600  1
  O  O5  1  0.05128700  0.10257400  0.15386200  1
  O  O6  1  0.44940600  0.89881200  0.34821700  1
  O  O7  1  0.85368200  0.70736300  0.56104500  1
  O  O8  1  0.25172400  0.50344900  0.75517300  1
  O  O9  1  0.65145100  0.30290300  0.95435400  1
loop_
_geom_bond_atom_site_label_1
_geom_bond_atom_site_label_2
_geom_bond_distance
_geom_bond_site_symmetry_2
Li0 O6 1.959779 1_445
Li0 O6 1.959782 1_545
Li0 O6 1.959782 1_555
Li0 O4 2.378280 1_455
Li0 O4 2.378284 1_555
Li0 O4 2.378285 1_445
Li1 O0 2.012025 1_565
Li1 O0 2.012027 1_665
Li1 O0 2.012028 1_555
Li1 O7 2.331124 1_455
Li1 O7 2.331125 1_565
Li1 O7 2.331128 1_555
Li2 O1 2.166705 1_665
Li2 O1 2.166705 1_565
Li2 O1 2.166706 1_555
Li2 O8 2.187601 1_655
Li2 O8 2.187605 1_555
Li2 O8 2.187606 1_665
Li3 O2 2.129752 1_455
Li3 O2 2.129753 1_555
Li3 O2 2.129754 1_445
Li3 O9 2.232914 1_555
Li3 O9 2.232916 1_455
Li3 O9 2.232917 1_565
Li4 O3 2.149029 1_655
Li4 O3 2.149029 1_555
Li4 O3 2.149030 1_545
Li4 O5 2.164628 1_665
Li4 O5 2.164629 1_555
Li4 O5 2.164629 1_655
Li5 O6 2.120214 1_555
Li5 O6 2.120214 1_545
Li5 O6 2.120215 1_655
Li5 O0 2.147577 1_555
Li5 O0 2.147578 1_665
Li5 O0 2.147580 1_655
Mn0 O9 2.036239 1_665
Mn0 O9 2.036242 1_565
Mn0 O9 2.036242 1_555
Mn0 O3 2.051866 1_666
Mn0 O3 2.051868 1_556
Mn0 O3 2.051868 1_656
Mn1 O4 1.985258 1_455
Mn1 O4 1.985259 1_555
Mn1 O4 1.985259 1_565
Mn1 O5 2.044547 1_665
Mn1 O5 2.044550 1_565
Mn1 O5 2.044551 1_555
Co0 O7 1.964759 1_455
Co0 O7 1.964763 1_555
Co0 O7 1.964764 1_445
Co0 O1 2.018397 1_455
Co0 O1 2.018398 1_565
Co0 O1 2.018401 1_555
Co1 O8 2.015336 1_655
Co1 O8 2.015337 1_545
Co1 O8 2.015339 1_555
Co1 O2 2.026826 1_445
Co1 O2 2.026827 1_555
Co1 O2 2.026828 1_545
