# generated using pymatgen
data_NaScTiO4
_symmetry_space_group_name_H-M   'P 1'
_cell_length_a   3.06786800
_cell_length_b   9.42018100
_cell_length_c   11.02675200
_cell_angle_alpha   90.00000000
_cell_angle_beta   90.00000000
_cell_angle_gamma   90.00000000
_symmetry_Int_Tables_number   1
_chemical_formula_structural   NaScTiO4
_chemical_formula_sum   'Na4 Sc4 Ti4 O16'
_cell_volume   318.67171966
_cell_formula_units_Z   4
loop_
 _symmetry_equiv_pos_site_id
 _symmetry_equiv_pos_as_xyz
  1  'x, y, z'
loop_
 _atom_site_type_symbol
 _atom_site_label
 _atom_site_symmetry_multiplicity
 _atom_site_fract_x
 _atom_site_fract_y
 _atom_site_fract_z
 _atom_site_occupancy
  Na  Na0  1  0.50000000  0.25500100  0.89992300  1
  Na  Na1  1  0.50000000  0.75500100  0.10007700  1
  Na  Na2  1  0.00000000  0.74268300  0.59795000  1
  Na  Na3  1  0.00000000  0.24268300  0.40205000  1
  Sc  Sc0  1  0.50000000  0.42793500  0.13990800  1
  Sc  Sc1  1  0.50000000  0.92793500  0.86009200  1
  Sc  Sc2  1  0.50000000  0.42120600  0.64377700  1
  Sc  Sc3  1  0.50000000  0.92120600  0.35622300  1
  Ti  Ti0  1  0.00000000  0.56241800  0.36182500  1
  Ti  Ti1  1  0.00000000  0.06241800  0.63817500  1
  Ti  Ti2  1  0.00000000  0.58033200  0.85437000  1
  Ti  Ti3  1  0.00000000  0.08033200  0.14563000  1
  O  O0  1  0.50000000  0.19730900  0.60170800  1
  O  O1  1  0.50000000  0.69730900  0.39829200  1
  O  O2  1  0.00000000  0.78358400  0.90447100  1
  O  O3  1  0.00000000  0.28358400  0.09552900  1
  O  O4  1  0.50000000  0.12175200  0.26126700  1
  O  O5  1  0.50000000  0.62175200  0.73873300  1
  O  O6  1  0.00000000  0.89538700  0.22618300  1
  O  O7  1  0.00000000  0.39538700  0.77381700  1
  O  O8  1  0.50000000  0.42714300  0.33057200  1
  O  O9  1  0.50000000  0.92714300  0.66942800  1
  O  O10  1  0.00000000  0.57489000  0.18653800  1
  O  O11  1  0.00000000  0.07489000  0.81346200  1
  O  O12  1  0.50000000  0.02650200  0.03824400  1
  O  O13  1  0.50000000  0.52650200  0.96175600  1
  O  O14  1  0.00000000  0.98385800  0.47215500  1
  O  O15  1  0.00000000  0.48385800  0.52784500  1
loop_
_geom_bond_atom_site_label_1
_geom_bond_atom_site_label_2
_geom_bond_distance
_geom_bond_site_symmetry_2
Na0 O7 2.456717 1_655
Na0 O7 2.456717 1_555
Na0 O11 2.478026 1_655
Na0 O11 2.478026 1_555
Na0 O12 2.638104 1_556
Na0 O13 2.646910 1_555
Na0 O3 2.660388 1_556
Na0 O3 2.660388 1_656
Na1 O6 2.456717 1_655
Na1 O6 2.456717 1_555
Na1 O10 2.478026 1_655
Na1 O10 2.478026 1_555
Na1 O13 2.638104 1_554
Na1 O12 2.646910 1_565
Na1 O2 2.660388 1_654
Na1 O2 2.660388 1_554
Na2 O9 2.448179 1_455
Na2 O9 2.448179 1_555
Na2 O5 2.461827 1_555
Na2 O5 2.461827 1_455
Na2 O15 2.557790 1_555
Na2 O14 2.661890 1_555
Na2 O1 2.717094 1_555
Na2 O1 2.717094 1_455
Na3 O8 2.448179 1_555
Na3 O8 2.448179 1_455
Na3 O4 2.461827 1_555
Na3 O4 2.461827 1_455
Na3 O14 2.557790 1_545
Na3 O15 2.661890 1_555
Na3 O0 2.717094 1_455
Na3 O0 2.717094 1_555
O0 Ti1 2.032073 1_555
O0 Ti1 2.032073 1_655
O0 Sc2 2.159561 1_555
O1 Ti0 2.032073 1_655
O1 Ti0 2.032073 1_555
O1 Sc3 2.159561 1_555
O2 Ti2 1.992778 1_555
O2 Sc1 2.107490 1_455
O2 Sc1 2.107490 1_555
O3 Ti3 1.992778 1_555
O3 Sc0 2.107490 1_555
O3 Sc0 2.107490 1_455
O4 Ti3 2.032505 1_555
O4 Ti3 2.032505 1_655
O4 Sc3 2.159937 1_545
O5 Ti2 2.032505 1_555
O5 Ti2 2.032505 1_655
O5 Sc2 2.159937 1_555
O6 Ti3 1.955577 1_565
O6 Sc3 2.113819 1_455
O6 Sc3 2.113819 1_555
O7 Ti2 1.955577 1_555
O7 Sc2 2.113819 1_455
O7 Sc2 2.113819 1_555
O8 Ti0 2.023758 1_655
O8 Ti0 2.023758 1_555
O8 Sc0 2.102418 1_555
O9 Ti1 2.023758 1_565
O9 Ti1 2.023758 1_665
O9 Sc1 2.102418 1_555
O10 Ti0 1.936414 1_555
O10 Sc0 2.129257 1_455
O10 Sc0 2.129257 1_555
O11 Ti1 1.936414 1_555
O11 Sc1 2.129257 1_445
O11 Sc1 2.129257 1_545
O12 Ti3 2.003055 1_655
O12 Ti3 2.003055 1_555
O12 Sc1 2.172824 1_544
O13 Ti2 2.003055 1_655
O13 Ti2 2.003055 1_555
O13 Sc0 2.172824 1_556
O14 Ti1 1.974587 1_565
O14 Sc3 2.082179 1_455
O14 Sc3 2.082179 1_555
O15 Ti0 1.974587 1_555
O15 Sc2 2.082179 1_455
O15 Sc2 2.082179 1_555
