# generated using pymatgen
data_HoSiNi4
_symmetry_space_group_name_H-M   'P 1'
_cell_length_a   4.74819057
_cell_length_b   4.74819057
_cell_length_c   3.90712845
_cell_angle_alpha   90.00000000
_cell_angle_beta   90.00000000
_cell_angle_gamma   116.51112977
_symmetry_Int_Tables_number   1
_chemical_formula_structural   HoSiNi4
_chemical_formula_sum   'Ho1 Si1 Ni4'
_cell_volume   78.82483731
_cell_formula_units_Z   1
loop_
 _symmetry_equiv_pos_site_id
 _symmetry_equiv_pos_as_xyz
  1  'x, y, z'
loop_
 _atom_site_type_symbol
 _atom_site_label
 _atom_site_symmetry_multiplicity
 _atom_site_fract_x
 _atom_site_fract_y
 _atom_site_fract_z
 _atom_site_occupancy
  Ho  Ho0  1  -0.00000000  0.00000000  -0.00000000  1
  Si  Si0  1  0.50000000  0.50000000  0.50000000  1
  Ni  Ni0  1  0.34089548  0.65910452  0.00000000  1
  Ni  Ni1  1  0.65910452  0.34089548  -0.00000000  1
  Ni  Ni2  1  0.50000000  0.00000000  0.50000000  1
  Ni  Ni3  1  -0.00000000  0.50000000  0.50000000  1
loop_
_geom_bond_atom_site_label_1
_geom_bond_atom_site_label_2
_geom_bond_distance
_geom_bond_site_symmetry_2
Ho0 Ni1 2.752988 1_455
Ho0 Ni0 2.752988 1_545
Ho0 Ni0 2.809235 1_555
Ho0 Ni1 2.809235 1_555
Ho0 Ni0 2.809235 1_445
Ho0 Ni1 2.809235 1_445
Ho0 Ni3 3.074531 1_555
Ho0 Ni3 3.074531 1_544
Ho0 Ni2 3.074531 1_554
Ho0 Ni2 3.074531 1_455
Ho0 Ni3 3.074531 1_545
Ho0 Ni2 3.074531 1_555
Ho0 Ni2 3.074531 1_454
Ho0 Ni3 3.074531 1_554
Ho0 Si0 3.171321 1_445
Ho0 Si0 3.171321 1_444
Ho0 Si0 3.171321 1_555
Ho0 Si0 3.171321 1_554
Ni0 Si0 2.338237 1_555
Ni0 Si0 2.338237 1_554
Ni0 Ni3 2.432171 1_554
Ni0 Ni3 2.432171 1_555
Ni0 Ni2 2.432171 1_565
Ni0 Ni2 2.432171 1_564
Ni0 Ni1 2.569778 1_555
Ni0 Ni1 2.897616 1_455
Ni0 Ni1 2.897616 1_565
Ni1 Si0 2.338237 1_555
Ni1 Si0 2.338237 1_554
Ni1 Ni2 2.432171 1_555
Ni1 Ni2 2.432171 1_554
Ni1 Ni3 2.432171 1_654
Ni1 Ni3 2.432171 1_655
Ni2 Si0 2.374095 1_545
Ni2 Si0 2.374095 1_555
Ni2 Ni3 2.498172 1_545
Ni2 Ni3 2.498172 1_655
Ni3 Si0 2.374095 1_455
Ni3 Si0 2.374095 1_555
