# generated using pymatgen
data_KCo3Cu(AsO4)3
_symmetry_space_group_name_H-M   'P 1'
_cell_length_a   8.95525917
_cell_length_b   8.95525917
_cell_length_c   6.92258180
_cell_angle_alpha   73.95081230
_cell_angle_beta   73.95081230
_cell_angle_gamma   92.34510766
_symmetry_Int_Tables_number   1
_chemical_formula_structural   KCo3Cu(AsO4)3
_chemical_formula_sum   'K2 Co6 Cu2 As6 O24'
_cell_volume   508.57986128
_cell_formula_units_Z   2
loop_
 _symmetry_equiv_pos_site_id
 _symmetry_equiv_pos_as_xyz
  1  'x, y, z'
loop_
 _atom_site_type_symbol
 _atom_site_label
 _atom_site_symmetry_multiplicity
 _atom_site_fract_x
 _atom_site_fract_y
 _atom_site_fract_z
 _atom_site_occupancy
  K  K0  1  0.51373700  0.48626300  0.25000000  1
  K  K1  1  0.48626300  0.51373700  0.75000000  1
  Co  Co0  1  0.56042000  0.87627700  0.37072900  1
  Co  Co1  1  0.43958000  0.12372300  0.62927100  1
  Co  Co2  1  0.12372300  0.43958000  0.12927100  1
  Co  Co3  1  0.87627700  0.56042000  0.87072900  1
  Co  Co4  1  0.24113500  0.75886500  0.25000000  1
  Co  Co5  1  0.75886500  0.24113500  0.75000000  1
  Cu  Cu0  1  0.99791200  0.00208800  0.25000000  1
  Cu  Cu1  1  0.00208800  0.99791200  0.75000000  1
  As  As0  1  0.37771800  0.14726800  0.12738000  1
  As  As1  1  0.62228200  0.85273200  0.87262000  1
  As  As2  1  0.85273200  0.62228200  0.37262000  1
  As  As3  1  0.14726800  0.37771800  0.62738000  1
  As  As4  1  0.78544600  0.21455400  0.25000000  1
  As  As5  1  0.21455400  0.78544600  0.75000000  1
  O  O0  1  0.22386700  0.99989300  0.18594700  1
  O  O1  1  0.77613300  0.00010700  0.81405300  1
  O  O2  1  0.00010700  0.77613300  0.31405300  1
  O  O3  1  0.99989300  0.22386700  0.68594700  1
  O  O4  1  0.47114300  0.09291400  0.31945800  1
  O  O5  1  0.52885700  0.90708600  0.68054200  1
  O  O6  1  0.90708600  0.52885700  0.18054200  1
  O  O7  1  0.09291400  0.47114300  0.81945800  1
  O  O8  1  0.49070500  0.83040000  0.11859100  1
  O  O9  1  0.50929500  0.16960000  0.88140900  1
  O  O10  1  0.16960000  0.50929500  0.38140900  1
  O  O11  1  0.83040000  0.49070500  0.61859100  1
  O  O12  1  0.67369300  0.25021400  0.47669700  1
  O  O13  1  0.32630700  0.74978600  0.52330300  1
  O  O14  1  0.74978600  0.32630700  0.02330300  1
  O  O15  1  0.25021400  0.67369300  0.97669700  1
  O  O16  1  0.77642900  0.01612100  0.26185300  1
  O  O17  1  0.22357100  0.98387900  0.73814700  1
  O  O18  1  0.98387900  0.22357100  0.23814700  1
  O  O19  1  0.01612100  0.77642900  0.76185300  1
  O  O20  1  0.67479200  0.68441600  0.37389000  1
  O  O21  1  0.32520800  0.31558400  0.62611000  1
  O  O22  1  0.31558400  0.32520800  0.12611000  1
  O  O23  1  0.68441600  0.67479200  0.87389000  1
loop_
_geom_bond_atom_site_label_1
_geom_bond_atom_site_label_2
_geom_bond_distance
_geom_bond_site_symmetry_2
K0 O21 2.668991 1_555
K0 O23 2.668991 1_554
K0 O20 2.698263 1_555
K0 O22 2.698263 1_555
K0 O14 2.939336 1_555
K0 O12 2.939336 1_555
K0 O8 2.995567 1_555
K0 O10 2.995567 1_555
K1 O22 2.668991 1_556
K1 O20 2.668991 1_555
K1 O23 2.698263 1_555
K1 O21 2.698263 1_555
K1 O15 2.939336 1_555
K1 O13 2.939336 1_555
K1 O11 2.995567 1_555
K1 O9 2.995567 1_555
Co0 O20 2.034020 1_555
Co0 O16 2.086165 1_565
Co0 O4 2.105239 1_565
Co0 O8 2.140837 1_555
Co0 O13 2.171159 1_555
Co0 O5 2.180402 1_555
Co1 O21 2.034020 1_555
Co1 O17 2.086165 1_545
Co1 O5 2.105239 1_545
Co1 O9 2.140837 1_555
Co1 O12 2.171159 1_555
Co1 O4 2.180402 1_555
Co2 O22 2.034020 1_555
Co2 O18 2.086165 1_455
Co2 O6 2.105239 1_455
Co2 O10 2.140837 1_555
Co2 O15 2.171159 1_554
Co2 O7 2.180402 1_554
Co3 O23 2.034020 1_555
Co3 O19 2.086165 1_655
Co3 O7 2.105239 1_655
Co3 O11 2.140837 1_555
Co3 O14 2.171159 1_556
Co3 O6 2.180402 1_556
Co4 O2 2.101319 1_555
Co4 O0 2.101319 1_555
Co4 O10 2.160886 1_555
Co4 O8 2.160886 1_555
Co4 O13 2.210392 1_555
Co4 O15 2.210392 1_554
Co5 O1 2.101319 1_555
Co5 O3 2.101319 1_555
Co5 O9 2.160886 1_555
Co5 O11 2.160886 1_555
Co5 O14 2.210392 1_556
Co5 O12 2.210392 1_555
Cu0 O0 1.950247 1_645
Cu0 O2 1.950247 1_645
Cu0 O18 1.972983 1_555
Cu0 O16 1.972983 1_555
Cu1 O3 1.950247 1_465
Cu1 O1 1.950247 1_465
Cu1 O17 1.972983 1_555
Cu1 O19 1.972983 1_555
As0 O22 1.707761 1_555
As0 O4 1.730755 1_555
As0 O9 1.735174 1_554
As0 O0 1.746692 1_545
As1 O23 1.707761 1_555
As1 O5 1.730755 1_555
As1 O8 1.735174 1_556
As1 O1 1.746692 1_565
As2 O20 1.707761 1_555
As2 O6 1.730755 1_555
As2 O11 1.735174 1_555
As2 O2 1.746692 1_655
As3 O21 1.707761 1_555
As3 O7 1.730755 1_555
As3 O10 1.735174 1_555
As3 O3 1.746692 1_455
As4 O12 1.732394 1_555
As4 O14 1.732394 1_555
As4 O18 1.753574 1_555
As4 O16 1.753574 1_555
As5 O15 1.732394 1_555
As5 O13 1.732394 1_555
As5 O17 1.753574 1_555
As5 O19 1.753574 1_555
