# generated using pymatgen
data_RbTa7(CuO7)3
_symmetry_space_group_name_H-M   'P 1'
_cell_length_a   14.73801439
_cell_length_b   14.73801439
_cell_length_c   7.68054100
_cell_angle_alpha   90.00000000
_cell_angle_beta   90.00000000
_cell_angle_gamma   150.30927830
_symmetry_Int_Tables_number   1
_chemical_formula_structural   RbTa7(CuO7)3
_chemical_formula_sum   'Rb2 Ta14 Cu6 O42'
_cell_volume   826.33067263
_cell_formula_units_Z   2
loop_
 _symmetry_equiv_pos_site_id
 _symmetry_equiv_pos_as_xyz
  1  'x, y, z'
loop_
 _atom_site_type_symbol
 _atom_site_label
 _atom_site_symmetry_multiplicity
 _atom_site_fract_x
 _atom_site_fract_y
 _atom_site_fract_z
 _atom_site_occupancy
  Rb  Rb0  1  0.99862300  0.00137700  0.00000000  1
  Rb  Rb1  1  0.00024700  0.99975300  0.50000000  1
  Ta  Ta0  1  0.50380600  0.00442600  0.75020200  1
  Ta  Ta1  1  0.99557400  0.49619400  0.24979800  1
  Ta  Ta2  1  0.50380600  0.00442600  0.24979800  1
  Ta  Ta3  1  0.99557400  0.49619400  0.75020200  1
  Ta  Ta4  1  0.50009800  0.49990200  0.75165300  1
  Ta  Ta5  1  0.50009800  0.49990200  0.24834700  1
  Ta  Ta6  1  0.63443000  0.86187200  0.74566400  1
  Ta  Ta7  1  0.36011700  0.13257900  0.75063600  1
  Ta  Ta8  1  0.13812800  0.36557000  0.25433600  1
  Ta  Ta9  1  0.86742100  0.63988300  0.24936400  1
  Ta  Ta10  1  0.36011700  0.13257900  0.24936400  1
  Ta  Ta11  1  0.63443000  0.86187200  0.25433600  1
  Ta  Ta12  1  0.86742100  0.63988300  0.75063600  1
  Ta  Ta13  1  0.13812800  0.36557000  0.74566400  1
  Cu  Cu0  1  0.67948000  0.32052000  0.00000000  1
  Cu  Cu1  1  0.31688100  0.68311900  0.00000000  1
  Cu  Cu2  1  0.81520700  0.18479300  0.50000000  1
  Cu  Cu3  1  0.18256300  0.81743700  0.50000000  1
  Cu  Cu4  1  0.68010200  0.31989800  0.50000000  1
  Cu  Cu5  1  0.81952000  0.18048000  0.00000000  1
  O  O0  1  0.90049200  0.09950800  0.71735200  1
  O  O1  1  0.09921500  0.90078500  0.69382900  1
  O  O2  1  0.90049200  0.09950800  0.28264800  1
  O  O3  1  0.09921500  0.90078500  0.30617100  1
  O  O4  1  0.58581900  0.81010800  0.50000000  1
  O  O5  1  0.44888900  0.19550900  0.50000000  1
  O  O6  1  0.18989200  0.41418100  0.50000000  1
  O  O7  1  0.80449100  0.55111100  0.50000000  1
  O  O8  1  0.63300100  0.00351600  0.68648800  1
  O  O9  1  0.35471800  0.98420600  0.71848700  1
  O  O10  1  0.99648400  0.36699900  0.31351200  1
  O  O11  1  0.01579400  0.64528200  0.28151300  1
  O  O12  1  0.35471800  0.98420600  0.28151300  1
  O  O13  1  0.63300100  0.00351600  0.31351200  1
  O  O14  1  0.01579400  0.64528200  0.71848700  1
  O  O15  1  0.99648400  0.36699900  0.68648800  1
  O  O16  1  0.50669100  0.49330900  0.00000000  1
  O  O17  1  0.63394400  0.36605600  0.81163000  1
  O  O18  1  0.36419200  0.63580800  0.81362800  1
  O  O19  1  0.63394400  0.36605600  0.18837000  1
  O  O20  1  0.36419200  0.63580800  0.18637200  1
  O  O21  1  0.67882400  0.94393000  0.00000000  1
  O  O22  1  0.32238600  0.08328300  0.00000000  1
  O  O23  1  0.05607000  0.32117600  0.00000000  1
  O  O24  1  0.91671700  0.67761400  0.00000000  1
  O  O25  1  0.63887800  0.73791800  0.77728000  1
  O  O26  1  0.35768100  0.25956700  0.74096300  1
  O  O27  1  0.26208200  0.36112200  0.22272000  1
  O  O28  1  0.74043300  0.64231900  0.25903700  1
  O  O29  1  0.35768100  0.25956700  0.25903700  1
  O  O30  1  0.63887800  0.73791800  0.22272000  1
  O  O31  1  0.74043300  0.64231900  0.74096300  1
  O  O32  1  0.26208200  0.36112200  0.77728000  1
  O  O33  1  0.72503900  0.27496100  0.80516900  1
  O  O34  1  0.26770200  0.73229800  0.78692000  1
  O  O35  1  0.72503900  0.27496100  0.19483100  1
  O  O36  1  0.26770200  0.73229800  0.21308000  1
  O  O37  1  0.49409300  0.50590700  0.50000000  1
  O  O38  1  0.56479300  0.08762200  0.50000000  1
  O  O39  1  0.91237800  0.43520700  0.50000000  1
  O  O40  1  0.55237200  0.01249700  0.00000000  1
  O  O41  1  0.98750300  0.44762800  0.00000000  1
loop_
_geom_bond_atom_site_label_1
_geom_bond_atom_site_label_2
_geom_bond_distance
_geom_bond_site_symmetry_2
Cu0 O19 1.943316 1_555
Cu0 O17 1.943316 1_554
Cu0 O33 1.980967 1_554
Cu0 O35 1.980967 1_555
Cu1 O18 1.966239 1_554
Cu1 O20 1.966239 1_555
Cu1 O36 2.154475 1_555
Cu1 O34 2.154475 1_554
Cu1 O40 2.517642 1_565
Cu1 O41 2.517642 1_455
Cu2 O8 1.983828 1_555
Cu2 O13 1.983828 1_555
Cu2 O15 1.983828 1_555
Cu2 O10 1.983828 1_555
Cu2 O38 2.547277 1_555
Cu2 O39 2.547277 1_555
Cu3 O9 2.111816 1_555
Cu3 O14 2.111816 1_555
Cu3 O11 2.111816 1_555
Cu3 O12 2.111816 1_555
Cu4 O5 2.029525 1_555
Cu4 O7 2.029525 1_555
Cu4 O38 2.121148 1_555
Cu4 O39 2.121148 1_555
Cu5 O21 1.973297 1_545
Cu5 O23 1.973297 1_655
Cu5 O41 2.166897 1_555
Cu5 O40 2.166897 1_555
O0 Ta6 1.956738 1_545
O0 Ta13 1.956738 1_655
O0 Rb1 3.296229 1_645
O1 Ta12 1.955393 1_455
O1 Ta7 1.955393 1_565
O1 Rb1 3.188666 1_555
O2 Ta11 1.956738 1_545
O2 Ta8 1.956738 1_655
O2 Rb1 3.296229 1_645
O3 Ta9 1.955393 1_455
O3 Ta10 1.955393 1_565
O3 Rb1 3.188666 1_555
O4 Ta6 1.925048 1_555
O4 Ta11 1.925048 1_555
O5 Ta7 2.041904 1_555
O5 Ta10 2.041904 1_555
O6 Ta13 1.925048 1_555
O6 Ta8 1.925048 1_555
O7 Ta12 2.041904 1_555
O7 Ta9 2.041904 1_555
O8 Ta0 1.977253 1_555
O8 Ta6 2.154362 1_545
O9 Ta0 1.959196 1_565
O9 Ta7 2.132311 1_565
O10 Ta1 1.977253 1_555
O10 Ta8 2.154362 1_655
O11 Ta1 1.959196 1_455
O11 Ta9 2.132311 1_455
O12 Ta2 1.959196 1_565
O12 Ta10 2.132311 1_565
O13 Ta2 1.977253 1_555
O13 Ta11 2.154362 1_545
O14 Ta3 1.959196 1_455
O14 Ta12 2.132311 1_455
O15 Ta3 1.977253 1_555
O15 Ta13 2.154362 1_655
O16 Ta4 1.916667 1_554
O16 Ta5 1.916667 1_555
O17 Ta7 2.054123 1_555
O17 Ta12 2.054123 1_555
O18 Ta13 2.044652 1_555
O18 Ta6 2.044652 1_555
O19 Ta10 2.054123 1_555
O19 Ta9 2.054123 1_555
O20 Ta11 2.044652 1_555
O20 Ta8 2.044652 1_555
O21 Ta11 2.081302 1_555
O21 Ta6 2.081302 1_554
O22 Ta10 1.950210 1_555
O22 Ta7 1.950210 1_554
O23 Ta8 2.081302 1_555
O23 Ta13 2.081302 1_554
O24 Ta9 1.950210 1_555
O24 Ta12 1.950210 1_554
O25 Ta6 1.899648 1_555
O25 Ta4 2.015368 1_555
O25 Rb0 3.216443 1_566
O25 Rb1 3.476183 1_655
O26 Ta7 1.904272 1_555
O26 Ta4 2.010342 1_555
O26 Rb1 3.285066 1_545
O26 Rb0 3.384612 1_456
O27 Ta8 1.899648 1_555
O27 Ta5 2.015368 1_555
O27 Rb0 3.216443 1_455
O27 Rb1 3.476183 1_545
O28 Ta9 1.904272 1_555
O28 Ta5 2.010342 1_555
O28 Rb1 3.285066 1_655
O28 Rb0 3.384612 1_565
O29 Ta10 1.904272 1_555
O29 Ta5 2.010342 1_555
O29 Rb1 3.285066 1_545
O29 Rb0 3.384612 1_455
O30 Ta11 1.899648 1_555
O30 Ta5 2.015368 1_555
O30 Rb0 3.216443 1_565
O30 Rb1 3.476183 1_655
O31 Ta12 1.904272 1_555
O31 Ta4 2.010342 1_555
O31 Rb1 3.285066 1_655
O31 Rb0 3.384612 1_566
O32 Ta13 1.899648 1_555
O32 Ta4 2.015368 1_555
O32 Rb0 3.216443 1_456
O32 Rb1 3.476183 1_545
O33 Ta3 2.029719 1_555
O33 Ta0 2.029719 1_555
O34 Ta0 2.006458 1_565
O34 Ta3 2.006458 1_455
O35 Ta1 2.029719 1_555
O35 Ta2 2.029719 1_555
O36 Ta1 2.006458 1_455
O36 Ta2 2.006458 1_565
O37 Ta5 1.940389 1_555
O37 Ta4 1.940389 1_555
O38 Ta0 2.022226 1_555
O38 Ta2 2.022226 1_555
O39 Ta1 2.022226 1_555
O39 Ta3 2.022226 1_555
O40 Ta0 2.014822 1_554
O40 Ta2 2.014822 1_555
O41 Ta1 2.014822 1_555
O41 Ta3 2.014822 1_554
