# generated using pymatgen
data_Rb3V(SO5)2
_symmetry_space_group_name_H-M   'P 1'
_cell_length_a   8.56773800
_cell_length_b   11.80987700
_cell_length_c   12.30783440
_cell_angle_alpha   70.43904526
_cell_angle_beta   90.00000000
_cell_angle_gamma   90.00000000
_symmetry_Int_Tables_number   1
_chemical_formula_structural   Rb3V(SO5)2
_chemical_formula_sum   'Rb12 V4 S8 O40'
_cell_volume   1173.48044840
_cell_formula_units_Z   4
loop_
 _symmetry_equiv_pos_site_id
 _symmetry_equiv_pos_as_xyz
  1  'x, y, z'
loop_
 _atom_site_type_symbol
 _atom_site_label
 _atom_site_symmetry_multiplicity
 _atom_site_fract_x
 _atom_site_fract_y
 _atom_site_fract_z
 _atom_site_occupancy
  Rb  Rb0  1  0.28399700  0.01447400  0.04905200  1
  Rb  Rb1  1  0.28399700  0.98552600  0.45094800  1
  Rb  Rb2  1  0.71600300  0.98552600  0.95094800  1
  Rb  Rb3  1  0.71600300  0.01447400  0.54905200  1
  Rb  Rb4  1  0.85237700  0.37608900  0.64373700  1
  Rb  Rb5  1  0.85237700  0.62391100  0.85626300  1
  Rb  Rb6  1  0.14762300  0.62391100  0.35626300  1
  Rb  Rb7  1  0.14762300  0.37608900  0.14373700  1
  Rb  Rb8  1  0.69155000  0.50000000  0.25000000  1
  Rb  Rb9  1  0.30845000  0.50000000  0.75000000  1
  Rb  Rb10  1  0.88490500  0.00000000  0.25000000  1
  Rb  Rb11  1  0.11509500  0.00000000  0.75000000  1
  V  V0  1  0.67045100  0.32576000  0.02392200  1
  V  V1  1  0.67045100  0.67424000  0.47607800  1
  V  V2  1  0.32954900  0.67424000  0.97607800  1
  V  V3  1  0.32954900  0.32576000  0.52392200  1
  S  S0  1  0.51047300  0.18314500  0.21240800  1
  S  S1  1  0.51047300  0.81685500  0.28759200  1
  S  S2  1  0.48952700  0.81685500  0.78759200  1
  S  S3  1  0.48952700  0.18314500  0.71240800  1
  S  S4  1  0.97878300  0.23536100  0.93425000  1
  S  S5  1  0.97878300  0.76463900  0.56575000  1
  S  S6  1  0.02121700  0.76463900  0.06575000  1
  S  S7  1  0.02121700  0.23536100  0.43425000  1
  O  O0  1  0.34715500  0.14723900  0.21089800  1
  O  O1  1  0.34715500  0.85276100  0.28910200  1
  O  O2  1  0.65284500  0.85276100  0.78910200  1
  O  O3  1  0.65284500  0.14723900  0.71089800  1
  O  O4  1  0.02860400  0.35782800  0.86709900  1
  O  O5  1  0.02860400  0.64217200  0.63290100  1
  O  O6  1  0.97139600  0.64217200  0.13290100  1
  O  O7  1  0.97139600  0.35782800  0.36709900  1
  O  O8  1  0.79681700  0.23659600  0.94722400  1
  O  O9  1  0.79681700  0.76340400  0.55277600  1
  O  O10  1  0.20318300  0.76340400  0.05277600  1
  O  O11  1  0.20318300  0.23659600  0.44722400  1
  O  O12  1  0.58226500  0.13751700  0.32633600  1
  O  O13  1  0.58226500  0.86248300  0.17366400  1
  O  O14  1  0.41773500  0.86248300  0.67366400  1
  O  O15  1  0.41773500  0.13751700  0.82633600  1
  O  O16  1  0.56683300  0.41116400  0.91432200  1
  O  O17  1  0.56683300  0.58883600  0.58567800  1
  O  O18  1  0.43316700  0.58883600  0.08567800  1
  O  O19  1  0.43316700  0.41116400  0.41432200  1
  O  O20  1  0.04689600  0.19189000  0.05145300  1
  O  O21  1  0.04689600  0.80811000  0.44854700  1
  O  O22  1  0.95310400  0.80811000  0.94854700  1
  O  O23  1  0.95310400  0.19189000  0.55145300  1
  O  O24  1  0.47464700  0.31999700  0.65974800  1
  O  O25  1  0.47464700  0.68000300  0.84025200  1
  O  O26  1  0.52535300  0.68000300  0.34025200  1
  O  O27  1  0.52535300  0.31999700  0.15974800  1
  O  O28  1  0.80802000  0.40783500  0.05724100  1
  O  O29  1  0.80802000  0.59216500  0.44275900  1
  O  O30  1  0.19198000  0.59216500  0.94275900  1
  O  O31  1  0.19198000  0.40783500  0.55724100  1
  O  O32  1  0.60740100  0.14783200  0.12320300  1
  O  O33  1  0.60740100  0.85216800  0.37679700  1
  O  O34  1  0.39259900  0.85216800  0.87679700  1
  O  O35  1  0.39259900  0.14783200  0.62320300  1
  O  O36  1  0.00513100  0.85180200  0.62677400  1
  O  O37  1  0.00513100  0.14819800  0.87322600  1
  O  O38  1  0.99486900  0.14819800  0.37322600  1
  O  O39  1  0.99486900  0.85180200  0.12677400  1
loop_
_geom_bond_atom_site_label_1
_geom_bond_atom_site_label_2
_geom_bond_distance
_geom_bond_site_symmetry_2
O0 S0 1.464029 1_555
O0 Rb0 2.968269 1_555
O0 Rb1 2.981760 1_545
O0 Rb7 3.068283 1_555
O1 S1 1.464029 1_555
O1 Rb1 2.968269 1_555
O1 Rb0 2.981760 1_565
O1 Rb6 3.068283 1_555
O2 S2 1.464029 1_555
O2 Rb2 2.968269 1_555
O2 Rb3 2.981760 1_565
O2 Rb5 3.068283 1_555
O3 S3 1.464029 1_555
O3 Rb3 2.968269 1_555
O3 Rb2 2.981760 1_545
O3 Rb4 3.068283 1_555
O4 S4 1.468566 1_455
O4 Rb9 3.004102 1_555
O4 Rb4 3.080061 1_455
O4 Rb5 3.448416 1_455
O5 S5 1.468566 1_455
O5 Rb9 3.004102 1_555
O5 Rb5 3.080061 1_455
O5 Rb4 3.448416 1_455
O6 S6 1.468566 1_655
O6 Rb8 3.004102 1_555
O6 Rb6 3.080061 1_655
O6 Rb7 3.448416 1_655
O7 S7 1.468566 1_655
O7 Rb8 3.004102 1_555
O7 Rb7 3.080061 1_655
O7 Rb6 3.448416 1_655
O8 S4 1.567759 1_555
O8 V0 1.959018 1_556
O8 Rb2 3.030241 1_545
O9 S5 1.567759 1_555
O9 V1 1.959018 1_555
O9 Rb3 3.030241 1_565
O10 S6 1.567759 1_555
O10 V2 1.959018 1_554
O10 Rb0 3.030241 1_565
O11 S7 1.567759 1_555
O11 V3 1.959018 1_555
O11 Rb1 3.030241 1_545
O12 S0 1.459088 1_555
O12 Rb3 2.875963 1_555
O12 Rb1 3.203325 1_545
O12 Rb10 3.356392 1_555
O13 S1 1.459088 1_555
O13 Rb2 2.875963 1_554
O13 Rb0 3.203325 1_565
O13 Rb10 3.356392 1_565
O14 S2 1.459088 1_555
O14 Rb1 2.875963 1_555
O14 Rb3 3.203325 1_565
O14 Rb11 3.356392 1_565
O15 S3 1.459088 1_555
O15 Rb0 2.875963 1_556
O15 Rb2 3.203325 1_545
O15 Rb11 3.356392 1_555
O16 V0 1.647427 1_556
O16 Rb9 2.944639 1_555
O16 Rb5 3.406806 1_555
O17 V1 1.647427 1_555
O17 Rb9 2.944639 1_555
O17 Rb4 3.406806 1_555
O18 V2 1.647427 1_554
O18 Rb8 2.944639 1_555
O18 Rb7 3.406806 1_555
O19 V3 1.647427 1_555
O19 Rb8 2.944639 1_555
O19 Rb6 3.406806 1_555
O20 S4 1.479553 1_454
O20 Rb7 2.901996 1_555
O20 Rb0 2.925597 1_555
O20 Rb10 3.053725 1_455
O21 S5 1.479553 1_455
O21 Rb6 2.901996 1_555
O21 Rb1 2.925597 1_555
O21 Rb10 3.053725 1_465
O22 S6 1.479553 1_656
O22 Rb5 2.901996 1_555
O22 Rb2 2.925597 1_555
O22 Rb11 3.053725 1_665
O23 S7 1.479553 1_655
O23 Rb4 2.901996 1_555
O23 Rb3 2.925597 1_555
O23 Rb11 3.053725 1_655
O24 S3 1.531996 1_555
O24 V3 2.066048 1_555
O24 Rb9 3.059702 1_555
O24 Rb4 3.296033 1_555
O25 S2 1.531996 1_555
O25 V2 2.066048 1_555
O25 Rb9 3.059702 1_555
O25 Rb5 3.296033 1_555
O26 S1 1.531996 1_555
O26 V1 2.066048 1_555
O26 Rb8 3.059702 1_555
O26 Rb6 3.296033 1_555
O27 S0 1.531996 1_555
O27 V0 2.066048 1_555
O27 Rb8 3.059702 1_555
O27 Rb7 3.296033 1_555
O28 V0 1.662258 1_555
O28 Rb5 2.923731 1_554
O28 Rb7 3.077754 1_655
O28 Rb8 3.088393 1_555
O29 V1 1.662258 1_555
O29 Rb4 2.923731 1_555
O29 Rb6 3.077754 1_655
O29 Rb8 3.088393 1_555
O30 V2 1.662258 1_555
O30 Rb7 2.923731 1_556
O30 Rb5 3.077754 1_455
O30 Rb9 3.088393 1_555
O31 V3 1.662258 1_555
O31 Rb6 2.923731 1_555
O31 Rb4 3.077754 1_455
O31 Rb9 3.088393 1_555
O32 S0 1.541302 1_555
O32 V0 2.116855 1_555
O32 Rb10 3.051556 1_555
O32 Rb2 3.428692 1_544
O32 Rb0 3.457367 1_555
O33 S1 1.541302 1_555
O33 V1 2.116855 1_555
O33 Rb10 3.051556 1_565
O33 Rb3 3.428692 1_565
O33 Rb1 3.457367 1_555
O34 S2 1.541302 1_555
O34 V2 2.116855 1_555
O34 Rb11 3.051556 1_565
O34 Rb0 3.428692 1_566
O34 Rb2 3.457367 1_555
O35 S3 1.541302 1_555
O35 V3 2.116855 1_555
O35 Rb11 3.051556 1_555
O35 Rb1 3.428692 1_545
O35 Rb3 3.457367 1_555
O36 S5 1.480680 1_455
O36 Rb11 2.833462 1_565
O36 Rb3 3.084093 1_465
O36 Rb1 3.255330 1_555
O36 Rb5 3.441490 1_455
O37 S4 1.480680 1_455
O37 Rb11 2.833462 1_555
O37 Rb2 3.084093 1_445
O37 Rb0 3.255330 1_556
O37 Rb4 3.441490 1_455
O38 S7 1.480680 1_655
O38 Rb10 2.833462 1_555
O38 Rb1 3.084093 1_645
O38 Rb3 3.255330 1_555
O38 Rb7 3.441490 1_655
O39 S6 1.480680 1_655
O39 Rb10 2.833462 1_565
O39 Rb0 3.084093 1_665
O39 Rb2 3.255330 1_554
O39 Rb6 3.441490 1_655
