# generated using pymatgen
data_Cr2CuO4
_symmetry_space_group_name_H-M   'P 1'
_cell_length_a   5.92625371
_cell_length_b   5.92629044
_cell_length_c   5.92628632
_cell_angle_alpha   92.77243569
_cell_angle_beta   118.41258957
_cell_angle_gamma   118.41256827
_symmetry_Int_Tables_number   1
_chemical_formula_structural   Cr2CuO4
_chemical_formula_sum   'Cr4 Cu2 O8'
_cell_volume   150.51427845
_cell_formula_units_Z   2
loop_
 _symmetry_equiv_pos_site_id
 _symmetry_equiv_pos_as_xyz
  1  'x, y, z'
loop_
 _atom_site_type_symbol
 _atom_site_label
 _atom_site_symmetry_multiplicity
 _atom_site_fract_x
 _atom_site_fract_y
 _atom_site_fract_z
 _atom_site_occupancy
  Cr  Cr0  1  0.25000500  0.87500200  0.62499500  1
  Cr  Cr1  1  0.74999300  0.37499100  0.62499600  1
  Cr  Cr2  1  0.74999600  0.37500400  0.12499900  1
  Cr  Cr3  1  0.25000500  0.37500400  0.62500800  1
  Cu  Cu0  1  0.50000000  0.74999800  0.25000200  1
  Cu  Cu1  1  0.00000100  0.00000200  0.99999900  1
  O  O0  1  0.21939400  0.59891900  0.37952500  1
  O  O1  1  0.78060600  0.16013000  0.37952400  1
  O  O2  1  0.71941200  0.58989700  0.87048700  1
  O  O3  1  0.28058900  0.15107500  0.87048600  1
  O  O4  1  0.78060600  0.62047500  0.40108100  1
  O  O5  1  0.21939500  0.62047600  0.83987000  1
  O  O6  1  0.28058800  0.12951300  0.41010200  1
  O  O7  1  0.71941100  0.12951400  0.84892500  1
loop_
_geom_bond_atom_site_label_1
_geom_bond_atom_site_label_2
_geom_bond_distance
_geom_bond_site_symmetry_2
Cr0 O0 2.015508 1_555
Cr0 O3 2.015646 1_565
Cr0 O4 2.018633 1_455
Cr0 O7 2.018654 1_565
Cr0 O5 2.018660 1_555
Cr0 O6 2.018665 1_565
Cr1 O1 2.015524 1_555
Cr1 O2 2.015638 1_555
Cr1 O5 2.018646 1_655
Cr1 O6 2.018650 1_555
Cr1 O4 2.018652 1_555
Cr1 O7 2.018673 1_555
Cr2 O4 2.015511 1_555
Cr2 O7 2.015643 1_554
Cr2 O0 2.018628 1_655
Cr2 O1 2.018651 1_555
Cr2 O3 2.018659 1_554
Cr2 O2 2.018669 1_554
Cr3 O5 2.015514 1_555
Cr3 O6 2.015646 1_555
Cr3 O1 2.018632 1_455
Cr3 O0 2.018647 1_555
Cr3 O2 2.018659 1_555
Cr3 O3 2.018678 1_555
Cu0 O4 2.005125 1_555
Cu0 O0 2.005125 1_555
Cu0 O5 2.005142 1_554
Cu0 O1 2.005144 1_565
Cu1 O3 2.004990 1_555
Cu1 O7 2.004995 1_455
Cu1 O6 2.005001 1_556
Cu1 O2 2.005013 1_445
