# generated using pymatgen
data_K3AsF12
_symmetry_space_group_name_H-M   'P 1'
_cell_length_a   7.74499658
_cell_length_b   8.19750703
_cell_length_c   8.35788230
_cell_angle_alpha   119.36725918
_cell_angle_beta   113.81257025
_cell_angle_gamma   34.58453729
_symmetry_Int_Tables_number   1
_chemical_formula_structural   K3AsF12
_chemical_formula_sum   'K3 As1 F12'
_cell_volume   262.49598975
_cell_formula_units_Z   1
loop_
 _symmetry_equiv_pos_site_id
 _symmetry_equiv_pos_as_xyz
  1  'x, y, z'
loop_
 _atom_site_type_symbol
 _atom_site_label
 _atom_site_symmetry_multiplicity
 _atom_site_fract_x
 _atom_site_fract_y
 _atom_site_fract_z
 _atom_site_occupancy
  K  K0  1  0.50000000  0.00000000  0.00000000  1
  K  K1  1  0.00000000  0.50000000  0.50000000  1
  K  K2  1  0.00000000  0.00000000  0.50000000  1
  As  As0  1  0.00000000  0.00000000  0.00000000  1
  F  F0  1  0.92960800  0.23853300  0.87061500  1
  F  F1  1  0.07039200  0.76146700  0.12938500  1
  F  F2  1  0.62352200  0.98746400  0.36999000  1
  F  F3  1  0.07039200  0.63208200  0.87061500  1
  F  F4  1  0.37647800  0.01253600  0.63001000  1
  F  F5  1  0.92960800  0.36791800  0.12938500  1
  F  F6  1  0.28520000  0.72056200  0.83438700  1
  F  F7  1  0.37647800  0.38252600  0.36999000  1
  F  F8  1  0.71480000  0.27943800  0.16561300  1
  F  F9  1  0.62352200  0.61747400  0.63001000  1
  F  F10  1  0.71480000  0.11382500  0.83438700  1
  F  F11  1  0.28520000  0.88617500  0.16561300  1
loop_
_geom_bond_atom_site_label_1
_geom_bond_atom_site_label_2
_geom_bond_distance
_geom_bond_site_symmetry_2
As0 F11 1.752110 1_545
As0 F10 1.752110 1_454
As0 F8 1.752110 1_455
As0 F6 1.752110 1_544
As0 F5 2.265539 1_455
As0 F3 2.265539 1_544
As0 F1 2.265539 1_545
As0 F0 2.265539 1_454
F0 K2 2.717211 1_655
F0 K0 2.915761 1_656
F1 K2 2.717211 1_565
F1 K0 2.915761 1_465
F2 K2 2.742030 1_665
F2 K1 2.857575 1_655
F2 K0 2.872153 1_565
F2 K1 2.916331 1_565
F3 K1 2.717211 1_555
F3 K0 2.915761 1_466
F4 K2 2.742030 1_555
F4 K1 2.857575 1_555
F4 K0 2.872153 1_556
F4 K1 2.916331 1_645
F5 K1 2.717211 1_655
F5 K0 2.915761 1_655
F7 K1 2.742030 1_555
F7 K2 2.857575 1_565
F7 K0 2.872153 1_555
F7 K2 2.916331 1_655
F9 K1 2.742030 1_655
F9 K2 2.857575 1_655
F9 K0 2.872153 1_566
F9 K2 2.916331 1_565
