# generated using pymatgen
data_Hf3Pb
_symmetry_space_group_name_H-M   'P 1'
_cell_length_a   6.29255620
_cell_length_b   6.29255620
_cell_length_c   5.12912807
_cell_angle_alpha   90.00000000
_cell_angle_beta   90.00000000
_cell_angle_gamma   119.99999222
_symmetry_Int_Tables_number   1
_chemical_formula_structural   Hf3Pb
_chemical_formula_sum   'Hf6 Pb2'
_cell_volume   175.88484278
_cell_formula_units_Z   2
loop_
 _symmetry_equiv_pos_site_id
 _symmetry_equiv_pos_as_xyz
  1  'x, y, z'
loop_
 _atom_site_type_symbol
 _atom_site_label
 _atom_site_symmetry_multiplicity
 _atom_site_fract_x
 _atom_site_fract_y
 _atom_site_fract_z
 _atom_site_occupancy
  Hf  Hf0  1  0.16413897  0.32827694  0.25000000  1
  Hf  Hf1  1  0.67172306  0.83586103  0.25000000  1
  Hf  Hf2  1  0.16413897  0.83586103  0.25000000  1
  Hf  Hf3  1  0.83586103  0.67172306  0.75000000  1
  Hf  Hf4  1  0.32827694  0.16413897  0.75000000  1
  Hf  Hf5  1  0.83586103  0.16413897  0.75000000  1
  Pb  Pb0  1  0.33333300  0.66666700  0.75000000  1
  Pb  Pb1  1  0.66666700  0.33333300  0.25000000  1
loop_
_geom_bond_atom_site_label_1
_geom_bond_atom_site_label_2
_geom_bond_distance
_geom_bond_site_symmetry_2
Hf0 Hf2 3.098555 1_545
Hf0 Hf1 3.098555 1_445
Hf0 Hf4 3.126869 1_555
Hf0 Hf4 3.126869 1_554
Hf0 Hf5 3.126875 1_455
Hf0 Hf5 3.126875 1_454
Hf0 Pb1 3.146399 1_455
Hf0 Pb1 3.146399 1_555
Hf0 Pb0 3.158726 1_554
Hf0 Pb0 3.158726 1_555
Hf0 Hf2 3.194001 1_555
Hf0 Hf1 3.194002 1_555
Hf1 Hf2 3.098555 1_655
Hf1 Hf3 3.126869 1_554
Hf1 Hf3 3.126869 1_555
Hf1 Hf5 3.126875 1_565
Hf1 Hf5 3.126875 1_564
Hf1 Pb1 3.146399 1_565
Hf1 Pb1 3.146399 1_555
Hf1 Pb0 3.158726 1_554
Hf1 Pb0 3.158726 1_555
Hf1 Hf2 3.194001 1_555
Hf2 Hf4 3.126875 1_564
Hf2 Hf4 3.126875 1_565
Hf2 Hf3 3.126875 1_455
Hf2 Hf3 3.126875 1_454
Hf2 Pb1 3.146399 1_455
Hf2 Pb1 3.146399 1_565
Hf2 Pb0 3.158720 1_555
Hf2 Pb0 3.158720 1_554
Hf3 Hf5 3.098555 1_565
Hf3 Hf4 3.098555 1_665
Hf3 Pb0 3.146399 1_655
Hf3 Pb0 3.146399 1_555
Hf3 Pb1 3.158726 1_556
Hf3 Pb1 3.158726 1_555
Hf3 Hf5 3.194001 1_555
Hf3 Hf4 3.194002 1_555
Hf4 Hf5 3.098555 1_455
Hf4 Pb0 3.146399 1_545
Hf4 Pb0 3.146399 1_555
Hf4 Pb1 3.158726 1_556
Hf4 Pb1 3.158726 1_555
Hf4 Hf5 3.194001 1_555
Hf5 Pb0 3.146399 1_545
Hf5 Pb0 3.146399 1_655
Hf5 Pb1 3.158720 1_555
Hf5 Pb1 3.158720 1_556
