# generated using pymatgen
data_Li2SbPd
_symmetry_space_group_name_H-M   'P 1'
_cell_length_a   4.48156200
_cell_length_b   4.48156134
_cell_length_c   4.48156245
_cell_angle_alpha   60.00000695
_cell_angle_beta   60.00001181
_cell_angle_gamma   60.00001166
_symmetry_Int_Tables_number   1
_chemical_formula_structural   Li2SbPd
_chemical_formula_sum   'Li2 Sb1 Pd1'
_cell_volume   63.64632161
_cell_formula_units_Z   1
loop_
 _symmetry_equiv_pos_site_id
 _symmetry_equiv_pos_as_xyz
  1  'x, y, z'
loop_
 _atom_site_type_symbol
 _atom_site_label
 _atom_site_symmetry_multiplicity
 _atom_site_fract_x
 _atom_site_fract_y
 _atom_site_fract_z
 _atom_site_occupancy
  Li  Li0  1  0.50000000  0.50000000  0.50000000  1
  Li  Li1  1  0.75000000  0.75000000  0.75000000  1
  Sb  Sb0  1  0.00000000  0.00000000  0.00000000  1
  Pd  Pd0  1  0.25000000  0.25000000  0.25000000  1
loop_
_geom_bond_atom_site_label_1
_geom_bond_atom_site_label_2
_geom_bond_distance
_geom_bond_site_symmetry_2
Li0 Pd0 2.744385 1_555
Li0 Pd0 2.744385 1_565
Li0 Pd0 2.744385 1_655
Li0 Pd0 2.744386 1_556
Li0 Sb0 3.168943 1_665
Li0 Sb0 3.168943 1_556
Li0 Sb0 3.168943 1_566
Li0 Sb0 3.168943 1_655
Li0 Sb0 3.168943 1_565
Li0 Sb0 3.168943 1_656
Li1 Sb0 2.744385 1_666
Li1 Sb0 2.744385 1_656
Li1 Sb0 2.744385 1_566
Li1 Sb0 2.744386 1_665
Li1 Pd0 3.168943 1_665
Li1 Pd0 3.168943 1_556
Li1 Pd0 3.168943 1_566
Li1 Pd0 3.168943 1_655
Li1 Pd0 3.168943 1_565
Li1 Pd0 3.168943 1_656
Pd0 Sb0 2.744385 1_555
Pd0 Sb0 2.744385 1_565
Pd0 Sb0 2.744385 1_655
Pd0 Sb0 2.744386 1_556
