# generated using pymatgen
data_Mg2V3InS8
_symmetry_space_group_name_H-M   'P 1'
_cell_length_a   7.45866656
_cell_length_b   7.44554828
_cell_length_c   7.45460804
_cell_angle_alpha   58.43617644
_cell_angle_beta   58.40643413
_cell_angle_gamma   58.43459510
_symmetry_Int_Tables_number   1
_chemical_formula_structural   Mg2V3InS8
_chemical_formula_sum   'Mg2 V3 In1 S8'
_cell_volume   282.18388108
_cell_formula_units_Z   1
loop_
 _symmetry_equiv_pos_site_id
 _symmetry_equiv_pos_as_xyz
  1  'x, y, z'
loop_
 _atom_site_type_symbol
 _atom_site_label
 _atom_site_symmetry_multiplicity
 _atom_site_fract_x
 _atom_site_fract_y
 _atom_site_fract_z
 _atom_site_occupancy
  Mg  Mg0  1  0.87347400  0.87360400  0.87350200  1
  Mg  Mg1  1  0.12652900  0.12639300  0.12651200  1
  V  V0  1  0.50003500  0.50000600  0.99996400  1
  V  V1  1  0.99999100  0.49997800  0.50004100  1
  V  V2  1  0.49998400  0.00000900  0.50001300  1
  In  In0  1  0.49999100  0.49998900  0.49998200  1
  S  S0  1  0.73878600  0.73839500  0.73850400  1
  S  S1  1  0.25047800  0.25063200  0.72044000  1
  S  S2  1  0.25058800  0.72043300  0.25049800  1
  S  S3  1  0.72059100  0.25066200  0.25048900  1
  S  S4  1  0.74939600  0.27955500  0.74948900  1
  S  S5  1  0.27940700  0.74933800  0.74950500  1
  S  S6  1  0.26122200  0.26162400  0.26149300  1
  S  S7  1  0.74953300  0.74937800  0.27956800  1
loop_
_geom_bond_atom_site_label_1
_geom_bond_atom_site_label_2
_geom_bond_distance
_geom_bond_site_symmetry_2
Mg0 S4 2.426813 1_565
Mg0 S7 2.430064 1_556
Mg0 S5 2.430569 1_655
Mg0 S0 2.492814 1_555
Mg1 S2 2.426894 1_545
Mg1 S1 2.430091 1_554
Mg1 S3 2.430610 1_455
Mg1 S6 2.492875 1_555
In0 S3 2.612054 1_555
In0 S5 2.612360 1_555
In0 S1 2.613383 1_555
In0 S7 2.613764 1_555
In0 S2 2.616470 1_555
In0 S4 2.616620 1_555
S0 V1 2.482108 1_555
S0 V0 2.484176 1_555
S0 V2 2.487494 1_565
S1 V2 2.452696 1_555
S1 V1 2.455246 1_455
S2 V0 2.452429 1_554
S2 V1 2.453687 1_455
S3 V2 2.454411 1_555
S3 V0 2.456114 1_554
S4 V0 2.452229 1_555
S4 V1 2.453510 1_555
S5 V2 2.454355 1_565
S5 V0 2.456122 1_555
S6 V1 2.482227 1_455
S6 V0 2.484473 1_554
S6 V2 2.487439 1_555
S7 V2 2.452831 1_565
S7 V1 2.455465 1_555
