# generated using pymatgen
data_ReSbN
_symmetry_space_group_name_H-M   'P 1'
_cell_length_a   3.43212300
_cell_length_b   3.43212300
_cell_length_c   8.59262700
_cell_angle_alpha   90.00000000
_cell_angle_beta   90.00000000
_cell_angle_gamma   90.00000000
_symmetry_Int_Tables_number   1
_chemical_formula_structural   ReSbN
_chemical_formula_sum   'Re2 Sb2 N2'
_cell_volume   101.21657725
_cell_formula_units_Z   2
loop_
 _symmetry_equiv_pos_site_id
 _symmetry_equiv_pos_as_xyz
  1  'x, y, z'
loop_
 _atom_site_type_symbol
 _atom_site_label
 _atom_site_symmetry_multiplicity
 _atom_site_fract_x
 _atom_site_fract_y
 _atom_site_fract_z
 _atom_site_occupancy
  Re  Re0  1  0.50000000  0.00000000  0.12675900  1
  Re  Re1  1  0.00000000  0.50000000  0.87324100  1
  Sb  Sb0  1  0.50000000  0.00000000  0.66654200  1
  Sb  Sb1  1  0.00000000  0.50000000  0.33345800  1
  N  N0  1  0.50000000  0.50000000  0.00000000  1
  N  N1  1  0.00000000  0.00000000  0.00000000  1
loop_
_geom_bond_atom_site_label_1
_geom_bond_atom_site_label_2
_geom_bond_distance
_geom_bond_site_symmetry_2
Re0 Sb1 3.007361 1_655
Re0 Sb1 3.007361 1_545
Re0 Sb1 3.007361 1_645
Re0 Sb1 3.007361 1_555
Re1 Sb0 3.007361 1_565
Re1 Sb0 3.007361 1_465
Re1 Sb0 3.007361 1_455
Re1 Sb0 3.007361 1_555
N0 Re0 2.032537 1_565
N0 Re0 2.032537 1_555
N0 Re1 2.032537 1_554
N0 Re1 2.032537 1_654
N1 Re0 2.032537 1_455
N1 Re0 2.032537 1_555
N1 Re1 2.032537 1_554
N1 Re1 2.032537 1_544
