# generated using pymatgen
data_K3VMo3H4O15
_symmetry_space_group_name_H-M   'P 1'
_cell_length_a   10.01049759
_cell_length_b   10.01049759
_cell_length_c   9.50735401
_cell_angle_alpha   61.71118334
_cell_angle_beta   61.71118334
_cell_angle_gamma   82.03561332
_symmetry_Int_Tables_number   1
_chemical_formula_structural   K3VMo3H4O15
_chemical_formula_sum   'K6 V2 Mo6 H8 O30'
_cell_volume   734.19002303
_cell_formula_units_Z   2
loop_
 _symmetry_equiv_pos_site_id
 _symmetry_equiv_pos_as_xyz
  1  'x, y, z'
loop_
 _atom_site_type_symbol
 _atom_site_label
 _atom_site_symmetry_multiplicity
 _atom_site_fract_x
 _atom_site_fract_y
 _atom_site_fract_z
 _atom_site_occupancy
  K  K0  1  0.00000000  0.00000000  0.50000000  1
  K  K1  1  0.98342400  0.59051500  0.76863400  1
  K  K2  1  0.59051500  0.98342400  0.76863400  1
  K  K3  1  0.01657600  0.40948500  0.23136600  1
  K  K4  1  0.40948500  0.01657600  0.23136600  1
  K  K5  1  0.50000000  0.50000000  0.00000000  1
  V  V0  1  0.11745800  0.11745800  0.99950600  1
  V  V1  1  0.88254200  0.88254200  0.00049400  1
  Mo  Mo0  1  0.26856500  0.26856500  0.53784300  1
  Mo  Mo1  1  0.73143500  0.73143500  0.46215700  1
  Mo  Mo2  1  0.89311800  0.24060300  0.77461000  1
  Mo  Mo3  1  0.24060300  0.89311800  0.77461000  1
  Mo  Mo4  1  0.10688200  0.75939700  0.22539000  1
  Mo  Mo5  1  0.75939700  0.10688200  0.22539000  1
  H  H0  1  0.25918900  0.42636100  0.81826200  1
  H  H1  1  0.42636100  0.25918900  0.81826200  1
  H  H2  1  0.74081100  0.57363900  0.18173800  1
  H  H3  1  0.57363900  0.74081100  0.18173800  1
  H  H4  1  0.32271700  0.58417200  0.77149300  1
  H  H5  1  0.58417200  0.32271700  0.77149300  1
  H  H6  1  0.67728300  0.41582800  0.22850700  1
  H  H7  1  0.41582800  0.67728300  0.22850700  1
  O  O0  1  0.25371300  0.25371300  0.78686400  1
  O  O1  1  0.74628700  0.74628700  0.21313600  1
  O  O2  1  0.14772900  0.14772900  0.13919800  1
  O  O3  1  0.85227100  0.85227100  0.86080200  1
  O  O4  1  0.86568800  0.20979100  0.62285600  1
  O  O5  1  0.20979100  0.86568800  0.62285600  1
  O  O6  1  0.13431200  0.79020900  0.37714400  1
  O  O7  1  0.79020900  0.13431200  0.37714400  1
  O  O8  1  0.94332800  0.23013400  0.99957600  1
  O  O9  1  0.23013400  0.94332800  0.99957600  1
  O  O10  1  0.05667200  0.76986600  0.00042400  1
  O  O11  1  0.76986700  0.05667200  0.00042400  1
  O  O12  1  0.23579900  0.23579900  0.38874500  1
  O  O13  1  0.76420100  0.76420100  0.61125500  1
  O  O14  1  0.08616800  0.36864700  0.61439700  1
  O  O15  1  0.36864700  0.08616800  0.61439700  1
  O  O16  1  0.91383200  0.63135300  0.38560300  1
  O  O17  1  0.63135300  0.91383200  0.38560300  1
  O  O18  1  0.06260700  0.06260700  0.80874800  1
  O  O19  1  0.93739300  0.93739300  0.19125200  1
  O  O20  1  0.41630000  0.41630000  0.39474000  1
  O  O21  1  0.58370000  0.58370000  0.60526000  1
  O  O22  1  0.77587400  0.38188100  0.80462500  1
  O  O23  1  0.38188100  0.77587400  0.80462500  1
  O  O24  1  0.22412600  0.61811900  0.19537500  1
  O  O25  1  0.61811900  0.22412600  0.19537500  1
  O  O26  1  0.23410100  0.50697500  0.85584400  1
  O  O27  1  0.50697500  0.23410100  0.85584400  1
  O  O28  1  0.76589900  0.49302500  0.14415600  1
  O  O29  1  0.49302500  0.76589900  0.14415600  1
loop_
_geom_bond_atom_site_label_1
_geom_bond_atom_site_label_2
_geom_bond_distance
_geom_bond_site_symmetry_2
K0 O2 2.670275 1_555
K0 O3 2.670275 1_445
K0 O4 2.763434 1_455
K0 O5 2.763434 1_545
K0 O7 2.763434 1_455
K0 O6 2.763434 1_545
K0 O12 3.012211 1_555
K0 O13 3.012211 1_445
K1 O28 2.891063 1_556
K1 O26 2.901252 1_655
K1 O6 2.930338 1_655
K1 O22 2.940588 1_555
K1 O14 3.027444 1_655
K1 O3 3.080606 1_555
K1 O13 3.109164 1_555
K1 O5 3.126997 1_655
K1 O8 3.170941 1_555
K2 O29 2.891063 1_556
K2 O27 2.901252 1_565
K2 O7 2.930338 1_565
K2 O23 2.940588 1_555
K2 O15 3.027444 1_565
K2 O3 3.080606 1_555
K2 O13 3.109164 1_555
K2 O4 3.126997 1_565
K2 O9 3.170941 1_555
K3 O26 2.891063 1_554
K3 O28 2.901252 1_455
K3 O4 2.930338 1_455
K3 O24 2.940588 1_555
K3 O16 3.027444 1_455
K3 O2 3.080606 1_555
K3 O12 3.109164 1_555
K3 O7 3.126997 1_455
K3 O10 3.170941 1_555
K4 O27 2.891063 1_554
K4 O29 2.901252 1_545
K4 O5 2.930338 1_545
K4 O25 2.940588 1_555
K4 O17 3.027444 1_545
K4 O2 3.080606 1_555
K4 O12 3.109164 1_555
K4 O6 3.126997 1_545
K4 O11 3.170950 1_555
K5 O24 2.964764 1_555
K5 O25 2.964764 1_555
K5 O22 2.964764 1_554
K5 O23 2.964764 1_554
K5 O21 3.118046 1_554
K5 O20 3.118046 1_555
K5 O13 3.325365 1_554
K5 O12 3.325365 1_555
Mo0 O20 1.737004 1_555
Mo0 O12 1.770810 1_555
Mo0 O14 1.947293 1_555
Mo0 O15 1.947293 1_555
Mo0 O0 2.233444 1_555
Mo0 O18 2.499363 1_555
Mo1 O21 1.737004 1_555
Mo1 O13 1.770810 1_555
Mo1 O16 1.947293 1_555
Mo1 O17 1.947293 1_555
Mo1 O1 2.233444 1_555
Mo1 O19 2.499363 1_555
Mo2 O22 1.750478 1_555
Mo2 O4 1.752975 1_555
Mo2 O14 1.934833 1_655
Mo2 O11 1.973253 1_556
Mo2 O18 2.301081 1_655
Mo2 O8 2.372787 1_555
Mo3 O23 1.750478 1_555
Mo3 O5 1.752975 1_555
Mo3 O15 1.934833 1_565
Mo3 O10 1.973255 1_556
Mo3 O18 2.301081 1_565
Mo3 O9 2.372787 1_555
Mo4 O24 1.750478 1_555
Mo4 O6 1.752975 1_555
Mo4 O16 1.934833 1_455
Mo4 O9 1.973255 1_554
Mo4 O19 2.301081 1_455
Mo4 O10 2.372787 1_555
Mo5 O25 1.750478 1_555
Mo5 O7 1.752975 1_555
Mo5 O17 1.934833 1_545
Mo5 O8 1.973255 1_554
Mo5 O19 2.301081 1_545
Mo5 O11 2.372783 1_555
H0 O26 0.986939 1_555
H1 O27 0.986939 1_555
H2 O28 0.986939 1_555
H3 O29 0.986939 1_555
H4 O26 0.977507 1_555
H5 O27 0.977507 1_555
H6 O28 0.977507 1_555
H7 O29 0.977507 1_555
O0 V0 1.759616 1_555
O1 V1 1.759616 1_555
O2 V0 1.654045 1_554
O3 V1 1.654045 1_556
O8 V0 1.940493 1_655
O9 V0 1.940493 1_565
O10 V1 1.940493 1_455
O11 V1 1.940488 1_545
O18 V1 2.119624 1_446
O18 V0 2.421456 1_555
O19 V0 2.119624 1_664
O19 V1 2.421456 1_555
