# generated using pymatgen
data_Tm3Mg
_symmetry_space_group_name_H-M   'P 1'
_cell_length_a   7.03991992
_cell_length_b   7.03991992
_cell_length_c   18.40757882
_cell_angle_alpha   90.00000000
_cell_angle_beta   90.00000000
_cell_angle_gamma   90.00000000
_symmetry_Int_Tables_number   1
_chemical_formula_structural   Tm3Mg
_chemical_formula_sum   'Tm24 Mg8'
_cell_volume   912.28830353
_cell_formula_units_Z   8
loop_
 _symmetry_equiv_pos_site_id
 _symmetry_equiv_pos_as_xyz
  1  'x, y, z'
loop_
 _atom_site_type_symbol
 _atom_site_label
 _atom_site_symmetry_multiplicity
 _atom_site_fract_x
 _atom_site_fract_y
 _atom_site_fract_z
 _atom_site_occupancy
  Tm  Tm0_0  1  0.25000000  0.25000000  0.38108409  1
  Tm  Tm0_1  1  0.25000000  0.25000000  0.88108409  1
  Tm  Tm0_2  1  0.25000000  0.75000000  0.38108409  1
  Tm  Tm0_3  1  0.25000000  0.75000000  0.88108409  1
  Tm  Tm0_4  1  0.75000000  0.25000000  0.38108409  1
  Tm  Tm0_5  1  0.75000000  0.25000000  0.88108409  1
  Tm  Tm0_6  1  0.75000000  0.75000000  0.38108409  1
  Tm  Tm0_7  1  0.75000000  0.75000000  0.88108409  1
  Tm  Tm1_0  1  0.00000000  0.00000000  0.25000000  1
  Tm  Tm1_1  1  0.00000000  0.00000000  0.75000000  1
  Tm  Tm1_2  1  0.00000000  0.50000000  0.25000000  1
  Tm  Tm1_3  1  0.00000000  0.50000000  0.75000000  1
  Tm  Tm1_4  1  0.50000000  0.00000000  0.25000000  1
  Tm  Tm1_5  1  0.50000000  0.00000000  0.75000000  1
  Tm  Tm1_6  1  0.50000000  0.50000000  0.25000000  1
  Tm  Tm1_7  1  0.50000000  0.50000000  0.75000000  1
  Tm  Tm2_0  1  0.25000000  0.25000000  0.11891591  1
  Tm  Tm2_1  1  0.25000000  0.25000000  0.61891591  1
  Tm  Tm2_2  1  0.25000000  0.75000000  0.11891591  1
  Tm  Tm2_3  1  0.25000000  0.75000000  0.61891591  1
  Tm  Tm2_4  1  0.75000000  0.25000000  0.11891591  1
  Tm  Tm2_5  1  0.75000000  0.25000000  0.61891591  1
  Tm  Tm2_6  1  0.75000000  0.75000000  0.11891591  1
  Tm  Tm2_7  1  0.75000000  0.75000000  0.61891591  1
  Mg  Mg0_0  1  0.00000000  0.00000000  0.00000000  1
  Mg  Mg0_1  1  0.00000000  0.00000000  0.50000000  1
  Mg  Mg0_2  1  0.00000000  0.50000000  0.00000000  1
  Mg  Mg0_3  1  0.00000000  0.50000000  0.50000000  1
  Mg  Mg0_4  1  0.50000000  0.00000000  0.00000000  1
  Mg  Mg0_5  1  0.50000000  0.00000000  0.50000000  1
  Mg  Mg0_6  1  0.50000000  0.50000000  0.00000000  1
  Mg  Mg0_7  1  0.50000000  0.50000000  0.50000000  1
loop_
_geom_bond_atom_site_label_1
_geom_bond_atom_site_label_2
_geom_bond_distance
_geom_bond_site_symmetry_2
Tm0_0 Tm1_6 3.466604 1_555
Tm0_0 Tm1_2 3.466604 1_555
Tm0_0 Tm1_0 3.466604 1_555
Tm0_0 Tm1_4 3.466604 1_555
Tm0_0 Tm0_2 3.519960 1_545
Tm0_0 Tm0_4 3.519960 1_455
Tm0_0 Tm0_4 3.519960 1_555
Tm0_0 Tm0_2 3.519960 1_555
Tm0_1 Tm1_7 3.466604 1_555
Tm0_1 Tm1_3 3.466604 1_555
Tm0_1 Tm1_5 3.466604 1_555
Tm0_1 Tm1_1 3.466604 1_555
Tm0_1 Tm0_3 3.519960 1_545
Tm0_1 Tm0_5 3.519960 1_455
Tm0_1 Tm0_5 3.519960 1_555
Tm0_1 Tm0_3 3.519960 1_555
Tm0_2 Tm1_4 3.466604 1_565
Tm0_2 Tm1_0 3.466604 1_565
Tm0_2 Tm1_2 3.466604 1_555
Tm0_2 Tm1_6 3.466604 1_555
Tm0_2 Tm0_6 3.519960 1_455
Tm0_2 Tm0_6 3.519960 1_555
Tm0_3 Tm1_1 3.466604 1_565
Tm0_3 Tm1_5 3.466604 1_565
Tm0_3 Tm1_7 3.466604 1_555
Tm0_3 Tm1_3 3.466604 1_555
Tm0_3 Tm0_7 3.519960 1_455
Tm0_3 Tm0_7 3.519960 1_555
Tm0_4 Tm1_2 3.466604 1_655
Tm0_4 Tm1_0 3.466604 1_655
Tm0_4 Tm1_4 3.466604 1_555
Tm0_4 Tm1_6 3.466604 1_555
Tm0_4 Tm0_6 3.519960 1_545
Tm0_4 Tm0_6 3.519960 1_555
Tm0_5 Tm1_3 3.466604 1_655
Tm0_5 Tm1_1 3.466604 1_655
Tm0_5 Tm1_7 3.466604 1_555
Tm0_5 Tm1_5 3.466604 1_555
Tm0_5 Tm0_7 3.519960 1_545
Tm0_5 Tm0_7 3.519960 1_555
Tm0_6 Tm1_0 3.466604 1_665
Tm0_6 Tm1_2 3.466604 1_655
Tm0_6 Tm1_4 3.466604 1_565
Tm0_6 Tm1_6 3.466604 1_555
Tm0_7 Tm1_1 3.466604 1_665
Tm0_7 Tm1_5 3.466604 1_565
Tm0_7 Tm1_3 3.466604 1_655
Tm0_7 Tm1_7 3.466604 1_555
Tm1_0 Tm2_6 3.466604 1_445
Tm1_0 Tm2_4 3.466604 1_455
Tm1_0 Tm2_2 3.466604 1_545
Tm1_0 Tm2_0 3.466604 1_555
Tm1_0 Tm1_2 3.519960 1_555
Tm1_0 Tm1_2 3.519960 1_545
Tm1_0 Tm1_4 3.519960 1_455
Tm1_0 Tm1_4 3.519960 1_555
Tm1_1 Tm2_7 3.466604 1_445
Tm1_1 Tm2_1 3.466604 1_555
Tm1_1 Tm2_3 3.466604 1_545
Tm1_1 Tm2_5 3.466604 1_455
Tm1_1 Tm1_5 3.519960 1_555
Tm1_1 Tm1_3 3.519960 1_545
Tm1_1 Tm1_3 3.519960 1_555
Tm1_1 Tm1_5 3.519960 1_455
Tm1_2 Tm2_4 3.466604 1_455
Tm1_2 Tm2_6 3.466604 1_455
Tm1_2 Tm2_0 3.466604 1_555
Tm1_2 Tm2_2 3.466604 1_555
Tm1_2 Tm1_6 3.519960 1_455
Tm1_2 Tm1_6 3.519960 1_555
Tm1_3 Tm2_1 3.466604 1_555
Tm1_3 Tm2_7 3.466604 1_455
Tm1_3 Tm2_5 3.466604 1_455
Tm1_3 Tm2_3 3.466604 1_555
Tm1_3 Tm1_7 3.519960 1_555
Tm1_3 Tm1_7 3.519960 1_455
Tm1_4 Tm2_2 3.466604 1_545
Tm1_4 Tm2_0 3.466604 1_555
Tm1_4 Tm2_6 3.466604 1_545
Tm1_4 Tm2_4 3.466604 1_555
Tm1_4 Tm1_6 3.519960 1_555
Tm1_4 Tm1_6 3.519960 1_545
Tm1_5 Tm2_1 3.466604 1_555
Tm1_5 Tm2_7 3.466604 1_545
Tm1_5 Tm2_3 3.466604 1_545
Tm1_5 Tm2_5 3.466604 1_555
Tm1_5 Tm1_7 3.519960 1_555
Tm1_5 Tm1_7 3.519960 1_545
Tm1_6 Tm2_0 3.466604 1_555
Tm1_6 Tm2_2 3.466604 1_555
Tm1_6 Tm2_4 3.466604 1_555
Tm1_6 Tm2_6 3.466604 1_555
Tm1_7 Tm2_1 3.466604 1_555
Tm1_7 Tm2_5 3.466604 1_555
Tm1_7 Tm2_3 3.466604 1_555
Tm1_7 Tm2_7 3.466604 1_555
Tm2_0 Tm2_4 3.519960 1_455
Tm2_0 Tm2_2 3.519960 1_545
Tm2_0 Tm2_4 3.519960 1_555
Tm2_0 Tm2_2 3.519960 1_555
Tm2_1 Tm2_5 3.519960 1_455
Tm2_1 Tm2_3 3.519960 1_545
Tm2_1 Tm2_5 3.519960 1_555
Tm2_1 Tm2_3 3.519960 1_555
Tm2_2 Tm2_6 3.519960 1_455
Tm2_2 Tm2_6 3.519960 1_555
Tm2_3 Tm2_7 3.519960 1_455
Tm2_3 Tm2_7 3.519960 1_555
Tm2_4 Tm2_6 3.519960 1_545
Tm2_4 Tm2_6 3.519960 1_555
Tm2_5 Tm2_7 3.519960 1_545
Tm2_5 Tm2_7 3.519960 1_555
Mg0_0 Tm0_7 3.314601 1_444
Mg0_0 Tm2_6 3.314601 1_445
Mg0_0 Tm2_4 3.314601 1_455
Mg0_0 Tm2_2 3.314601 1_545
Mg0_0 Tm0_3 3.314601 1_544
Mg0_0 Tm0_5 3.314601 1_454
Mg0_0 Tm0_1 3.314601 1_554
Mg0_0 Tm2_0 3.314601 1_555
Mg0_0 Mg0_2 3.519960 1_545
Mg0_0 Mg0_4 3.519960 1_555
Mg0_0 Mg0_4 3.519960 1_455
Mg0_0 Mg0_2 3.519960 1_555
Mg0_1 Tm0_6 3.314601 1_445
Mg0_1 Tm2_7 3.314601 1_445
Mg0_1 Tm0_2 3.314601 1_545
Mg0_1 Tm0_4 3.314601 1_455
Mg0_1 Tm2_3 3.314601 1_545
Mg0_1 Tm2_5 3.314601 1_455
Mg0_1 Tm2_1 3.314601 1_555
Mg0_1 Tm0_0 3.314601 1_555
Mg0_1 Mg0_3 3.519960 1_545
Mg0_1 Mg0_3 3.519960 1_555
Mg0_1 Mg0_5 3.519960 1_455
Mg0_1 Mg0_5 3.519960 1_555
Mg0_2 Tm2_4 3.314601 1_455
Mg0_2 Tm0_5 3.314601 1_454
Mg0_2 Tm0_7 3.314601 1_454
Mg0_2 Tm2_6 3.314601 1_455
Mg0_2 Tm0_1 3.314601 1_554
Mg0_2 Tm2_0 3.314601 1_555
Mg0_2 Tm2_2 3.314601 1_555
Mg0_2 Tm0_3 3.314601 1_554
Mg0_2 Mg0_6 3.519960 1_555
Mg0_2 Mg0_6 3.519960 1_455
Mg0_3 Tm0_4 3.314601 1_455
Mg0_3 Tm2_5 3.314601 1_455
Mg0_3 Tm2_7 3.314601 1_455
Mg0_3 Tm0_6 3.314601 1_455
Mg0_3 Tm2_1 3.314601 1_555
Mg0_3 Tm0_0 3.314601 1_555
Mg0_3 Tm0_2 3.314601 1_555
Mg0_3 Tm2_3 3.314601 1_555
Mg0_3 Mg0_7 3.519960 1_555
Mg0_3 Mg0_7 3.519960 1_455
Mg0_4 Tm2_2 3.314601 1_545
Mg0_4 Tm0_3 3.314601 1_544
Mg0_4 Tm2_6 3.314601 1_545
Mg0_4 Tm0_7 3.314601 1_544
Mg0_4 Tm0_1 3.314601 1_554
Mg0_4 Tm2_0 3.314601 1_555
Mg0_4 Tm2_4 3.314601 1_555
Mg0_4 Tm0_5 3.314601 1_554
Mg0_4 Mg0_6 3.519960 1_555
Mg0_4 Mg0_6 3.519960 1_545
Mg0_5 Tm0_2 3.314601 1_545
Mg0_5 Tm2_3 3.314601 1_545
Mg0_5 Tm0_6 3.314601 1_545
Mg0_5 Tm2_1 3.314601 1_555
Mg0_5 Tm0_0 3.314601 1_555
Mg0_5 Tm2_7 3.314601 1_545
Mg0_5 Tm2_5 3.314601 1_555
Mg0_5 Tm0_4 3.314601 1_555
Mg0_5 Mg0_7 3.519960 1_545
Mg0_5 Mg0_7 3.519960 1_555
Mg0_6 Tm0_1 3.314601 1_554
Mg0_6 Tm2_0 3.314601 1_555
Mg0_6 Tm2_4 3.314601 1_555
Mg0_6 Tm2_2 3.314601 1_555
Mg0_6 Tm0_5 3.314601 1_554
Mg0_6 Tm0_3 3.314601 1_554
Mg0_6 Tm2_6 3.314601 1_555
Mg0_6 Tm0_7 3.314601 1_554
Mg0_7 Tm2_1 3.314601 1_555
Mg0_7 Tm0_0 3.314601 1_555
Mg0_7 Tm0_2 3.314601 1_555
Mg0_7 Tm2_5 3.314601 1_555
Mg0_7 Tm0_4 3.314601 1_555
Mg0_7 Tm2_3 3.314601 1_555
Mg0_7 Tm2_7 3.314601 1_555
Mg0_7 Tm0_6 3.314601 1_555
