# generated using pymatgen
data_NpSeO5
_symmetry_space_group_name_H-M   'P 1'
_cell_length_a   4.19278512
_cell_length_b   9.36759147
_cell_length_c   5.44756831
_cell_angle_alpha   90.00000000
_cell_angle_beta   96.21603786
_cell_angle_gamma   90.00000000
_symmetry_Int_Tables_number   1
_chemical_formula_structural   NpSeO5
_chemical_formula_sum   'Np2 Se2 O10'
_cell_volume   212.70237903
_cell_formula_units_Z   2
loop_
 _symmetry_equiv_pos_site_id
 _symmetry_equiv_pos_as_xyz
  1  'x, y, z'
loop_
 _atom_site_type_symbol
 _atom_site_label
 _atom_site_symmetry_multiplicity
 _atom_site_fract_x
 _atom_site_fract_y
 _atom_site_fract_z
 _atom_site_occupancy
  Np  Np0  1  0.50000000  0.50000000  -0.00000000  1
  Np  Np1  1  0.50000000  -0.00000000  -0.00000000  1
  Se  Se0  1  0.11634314  0.25000000  0.31408433  1
  Se  Se1  1  0.88365686  0.75000000  0.68591567  1
  O  O0  1  0.49338273  0.25000000  0.21799040  1
  O  O1  1  0.50661727  0.75000000  0.78200960  1
  O  O2  1  0.00344061  0.39429194  0.12865179  1
  O  O3  1  0.99655939  0.89429194  0.87134821  1
  O  O4  1  0.99655939  0.60570806  0.87134821  1
  O  O5  1  0.00344061  0.10570806  0.12865179  1
  O  O6  1  0.46300829  0.40821965  0.71509364  1
  O  O7  1  0.53699171  0.90821965  0.28490636  1
  O  O8  1  0.53699171  0.59178035  0.28490636  1
  O  O9  1  0.46300829  0.09178035  0.71509364  1
loop_
_geom_bond_atom_site_label_1
_geom_bond_atom_site_label_2
_geom_bond_distance
_geom_bond_site_symmetry_2
Np0 O8 1.766342 1_555
Np0 O6 1.766342 1_554
Np0 O4 2.367895 1_454
Np0 O2 2.367895 1_655
Np0 O4 2.474328 1_554
Np0 O2 2.474328 1_555
Np1 O7 1.766342 1_545
Np1 O9 1.766342 1_554
Np1 O3 2.367895 1_444
Np1 O5 2.367895 1_655
Np1 O3 2.474328 1_544
Np1 O5 2.474328 1_555
O0 Se0 1.718229 1_555
O1 Se1 1.718229 1_555
O2 Se0 1.722775 1_555
O3 Se1 1.722775 1_555
O4 Se1 1.722775 1_555
O5 Se0 1.722775 1_555
