# generated using pymatgen
data_Au3I8N3
_symmetry_space_group_name_H-M   'P 1'
_cell_length_a   8.08856915
_cell_length_b   8.08856915
_cell_length_c   20.41773889
_cell_angle_alpha   69.95845546
_cell_angle_beta   69.95845546
_cell_angle_gamma   67.17991681
_symmetry_Int_Tables_number   1
_chemical_formula_structural   Au3I8N3
_chemical_formula_sum   'Au6 I16 N6'
_cell_volume   1122.24908136
_cell_formula_units_Z   2
loop_
 _symmetry_equiv_pos_site_id
 _symmetry_equiv_pos_as_xyz
  1  'x, y, z'
loop_
 _atom_site_type_symbol
 _atom_site_label
 _atom_site_symmetry_multiplicity
 _atom_site_fract_x
 _atom_site_fract_y
 _atom_site_fract_z
 _atom_site_occupancy
  Au  Au0  1  0.00000000  0.00000000  0.00000000  1
  Au  Au1  1  0.00000000  0.00000000  0.50000000  1
  Au  Au2  1  0.39385900  0.38921200  0.80130200  1
  Au  Au3  1  0.60614100  0.61078800  0.19869800  1
  Au  Au4  1  0.61078800  0.60614100  0.69869800  1
  Au  Au5  1  0.38921200  0.39385900  0.30130200  1
  I  I0  1  0.66716800  0.27167200  0.86309400  1
  I  I1  1  0.33283200  0.72832800  0.13690600  1
  I  I2  1  0.72832800  0.33283200  0.63690600  1
  I  I3  1  0.27167200  0.66716800  0.36309400  1
  I  I4  1  0.46849200  0.87551700  0.76638200  1
  I  I5  1  0.53150800  0.12448300  0.23361800  1
  I  I6  1  0.12448300  0.53150800  0.73361800  1
  I  I7  1  0.87551700  0.46849200  0.26638200  1
  I  I8  1  0.14924000  0.28840800  0.93582000  1
  I  I9  1  0.85076000  0.71159200  0.06418000  1
  I  I10  1  0.71159200  0.85076000  0.56418000  1
  I  I11  1  0.28840800  0.14924000  0.43582000  1
  I  I12  1  0.24885700  0.84014100  0.58049800  1
  I  I13  1  0.75114300  0.15985900  0.41950200  1
  I  I14  1  0.15985900  0.75114300  0.91950200  1
  I  I15  1  0.84014100  0.24885700  0.08049800  1
  N  N0  1  0.33622400  0.30928900  0.59004100  1
  N  N1  1  0.66377600  0.69071100  0.40995900  1
  N  N2  1  0.69071100  0.66377600  0.90995900  1
  N  N3  1  0.30928900  0.33622400  0.09004100  1
  N  N4  1  0.00544900  0.99455100  0.75000000  1
  N  N5  1  0.99455100  0.00544900  0.25000000  1
loop_
_geom_bond_atom_site_label_1
_geom_bond_atom_site_label_2
_geom_bond_distance
_geom_bond_site_symmetry_2
Au0 I15 2.686470 1_455
Au0 I14 2.686470 1_544
Au0 I9 2.760659 1_445
Au0 I8 2.760659 1_554
Au1 I12 2.686470 1_545
Au1 I13 2.686470 1_455
Au1 I10 2.760659 1_445
Au1 I11 2.760659 1_555
Au2 I0 2.615721 1_555
Au2 I6 2.647708 1_555
Au2 Au4 2.809905 1_555
Au2 I8 2.848690 1_555
Au3 I1 2.615721 1_555
Au3 I7 2.647708 1_555
Au3 Au5 2.809905 1_555
Au3 I9 2.848690 1_555
Au4 I2 2.615721 1_555
Au4 I4 2.647708 1_555
Au4 I10 2.848690 1_555
Au5 I3 2.615721 1_555
Au5 I5 2.647708 1_555
Au5 I11 2.848690 1_555
