# generated using pymatgen
data_NaHCO3
_symmetry_space_group_name_H-M   'P 1'
_cell_length_a   8.25613000
_cell_length_b   3.57355700
_cell_length_c   9.06450074
_cell_angle_alpha   83.45443869
_cell_angle_beta   90.00000000
_cell_angle_gamma   90.00000000
_symmetry_Int_Tables_number   1
_chemical_formula_structural   NaHCO3
_chemical_formula_sum   'Na4 H4 C4 O12'
_cell_volume   265.69349370
_cell_formula_units_Z   4
loop_
 _symmetry_equiv_pos_site_id
 _symmetry_equiv_pos_as_xyz
  1  'x, y, z'
loop_
 _atom_site_type_symbol
 _atom_site_label
 _atom_site_symmetry_multiplicity
 _atom_site_fract_x
 _atom_site_fract_y
 _atom_site_fract_z
 _atom_site_occupancy
  Na  Na0  1  0.87732700  0.49723600  0.71833300  1
  Na  Na1  1  0.37732700  0.50276400  0.78166700  1
  Na  Na2  1  0.12267300  0.50276400  0.28166700  1
  Na  Na3  1  0.62267300  0.49723600  0.21833300  1
  H  H0  1  0.63019600  0.95171200  0.91173400  1
  H  H1  1  0.13019600  0.04828800  0.58826600  1
  H  H2  1  0.36980400  0.04828800  0.08826600  1
  H  H3  1  0.86980400  0.95171200  0.41173400  1
  C  C0  1  0.91435800  0.90423600  0.00849000  1
  C  C1  1  0.41435800  0.09576400  0.49151000  1
  C  C2  1  0.08564200  0.09576400  0.99151000  1
  C  C3  1  0.58564200  0.90423600  0.50849000  1
  O  O0  1  0.50669700  0.96900000  0.92097500  1
  O  O1  1  0.00669700  0.03100000  0.57902500  1
  O  O2  1  0.49330300  0.03100000  0.07902500  1
  O  O3  1  0.99330300  0.96900000  0.42097500  1
  O  O4  1  0.81995400  0.97174100  0.89668900  1
  O  O5  1  0.31995400  0.02825900  0.60331100  1
  O  O6  1  0.18004600  0.02825900  0.10331100  1
  O  O7  1  0.68004600  0.97174100  0.39668900  1
  O  O8  1  0.61694700  0.69919600  0.62723200  1
  O  O9  1  0.11694700  0.30080400  0.87276800  1
  O  O10  1  0.38305300  0.30080400  0.37276800  1
  O  O11  1  0.88305300  0.69919600  0.12723200  1
loop_
_geom_bond_atom_site_label_1
_geom_bond_atom_site_label_2
_geom_bond_distance
_geom_bond_site_symmetry_2
Na0 O4 2.381682 1_545
Na0 O8 2.385008 1_555
Na0 O1 2.413413 1_665
Na0 O1 2.447653 1_655
Na0 O9 2.478341 1_655
Na0 O4 2.517622 1_555
Na1 O5 2.381682 1_565
Na1 O9 2.385008 1_555
Na1 O0 2.413413 1_545
Na1 O0 2.447653 1_555
Na1 O8 2.478341 1_555
Na1 O5 2.517622 1_555
Na2 O6 2.381682 1_565
Na2 O10 2.385008 1_555
Na2 O3 2.413413 1_445
Na2 O3 2.447653 1_455
Na2 O11 2.478341 1_455
Na2 O6 2.517622 1_555
Na3 O7 2.381682 1_545
Na3 O11 2.385008 1_555
Na3 O2 2.413413 1_565
Na3 O2 2.447653 1_555
Na3 O10 2.478341 1_555
Na3 O7 2.517622 1_555
H0 O0 1.025498 1_555
H0 O4 1.573512 1_555
H1 O1 1.025498 1_555
H1 O5 1.573512 1_555
H2 O2 1.025498 1_555
H2 O6 1.573512 1_555
H3 O3 1.025498 1_555
H3 O7 1.573512 1_555
C0 O11 1.257927 1_555
C0 O4 1.279438 1_554
C1 O10 1.257927 1_555
C1 O5 1.279438 1_555
C2 O9 1.257927 1_555
C2 O6 1.279438 1_556
C3 O8 1.257927 1_555
C3 O7 1.279438 1_555
