# generated using pymatgen
data_TiSiRu
_symmetry_space_group_name_H-M   'P 1'
_cell_length_a   6.46381881
_cell_length_b   7.05689049
_cell_length_c   7.34709796
_cell_angle_alpha   118.70164775
_cell_angle_beta   116.09563843
_cell_angle_gamma   90.00026020
_symmetry_Int_Tables_number   1
_chemical_formula_structural   TiSiRu
_chemical_formula_sum   'Ti6 Si6 Ru6'
_cell_volume   254.32070002
_cell_formula_units_Z   6
loop_
 _symmetry_equiv_pos_site_id
 _symmetry_equiv_pos_as_xyz
  1  'x, y, z'
loop_
 _atom_site_type_symbol
 _atom_site_label
 _atom_site_symmetry_multiplicity
 _atom_site_fract_x
 _atom_site_fract_y
 _atom_site_fract_z
 _atom_site_occupancy
  Ti  Ti0  1  0.91224012  0.24602798  0.99205269  1
  Ti  Ti1  1  0.49286741  0.97372797  0.44743942  1
  Ti  Ti2  1  0.04540193  0.02625815  0.55254943  1
  Ti  Ti3  1  0.49120915  0.44529599  0.39062731  1
  Ti  Ti4  1  0.92018893  0.75396244  0.00795308  1
  Ti  Ti5  1  0.10057667  0.55468168  0.60936017  1
  Si  Si0  1  0.53850566  0.78123177  0.06247948  1
  Si  Si1  1  0.16245271  0.17471898  0.33508893  1
  Si  Si2  1  0.16248147  0.66037013  0.33510676  1
  Si  Si3  1  0.82742715  0.33964051  0.66493451  1
  Si  Si4  1  0.47600799  0.21876540  0.93749345  1
  Si  Si5  1  0.82739254  0.82528689  0.66493593  1
  Ru  Ru0  1  0.24562132  0.50002875  0.00000842  1
  Ru  Ru1  1  0.24561705  0.00002170  0.99999889  1
  Ru  Ru2  1  0.49717007  0.83845724  0.74721896  1
  Ru  Ru3  1  0.74993558  0.59122604  0.25277439  1
  Ru  Ru4  1  0.49716029  0.40876077  0.74720198  1
  Ru  Ru5  1  0.74994596  0.16153860  0.25277321  1
loop_
_geom_bond_atom_site_label_1
_geom_bond_atom_site_label_2
_geom_bond_distance
_geom_bond_site_symmetry_2
Si0 Ti1 2.641126 1_555
Si0 Ti4 2.660774 1_555
Si0 Ti5 2.872140 1_554
Si1 Ti3 2.610925 1_555
Si1 Ti1 2.613077 1_545
Si1 Ti0 2.617860 1_454
Si1 Ti4 2.622887 1_445
Si1 Ti2 2.625622 1_555
Si1 Ti5 2.632401 1_555
Si2 Ti3 2.610952 1_555
Si2 Ti1 2.613078 1_555
Si2 Ti0 2.617897 1_454
Si2 Ti4 2.622891 1_455
Si2 Ti2 2.625537 1_565
Si2 Ti5 2.632345 1_555
Si3 Ti5 2.610790 1_655
Si3 Ti2 2.612903 1_655
Si3 Ti4 2.617770 1_556
Si3 Ti0 2.622785 1_555
Si3 Ti1 2.625724 1_545
Si3 Ti3 2.632634 1_555
Si4 Ti2 2.641167 1_555
Si4 Ti0 2.660846 1_555
Si4 Ti3 2.872149 1_556
Si5 Ti5 2.610922 1_655
Si5 Ti2 2.612925 1_665
Si5 Ti4 2.617813 1_556
Si5 Ti0 2.622791 1_565
Si5 Ti1 2.625730 1_555
Si5 Ti3 2.632645 1_555
Ru0 Si0 2.468464 1_555
Ru0 Si4 2.468672 1_554
Ru0 Si3 2.473428 1_454
Ru0 Si2 2.473621 1_555
Ru0 Ti4 2.765331 1_455
Ru0 Ti0 2.765592 1_454
Ru0 Ti5 2.821585 1_554
Ru0 Ti3 2.821758 1_555
Ru1 Si4 2.468604 1_555
Ru1 Si0 2.468797 1_546
Ru1 Si5 2.473541 1_445
Ru1 Si1 2.473665 1_556
Ru1 Ti0 2.765410 1_455
Ru1 Ti4 2.765660 1_446
Ru1 Ti3 2.821433 1_556
Ru1 Ti5 2.821736 1_545
Ru2 Si4 2.395903 1_565
Ru2 Si0 2.439973 1_556
Ru2 Si2 2.451493 1_555
Ru2 Si5 2.451823 1_555
Ru2 Ti5 2.715746 1_555
Ru2 Ti3 2.737271 1_555
Ru2 Ti1 2.780039 1_555
Ru2 Ti4 2.826797 1_556
Ru3 Si0 2.395830 1_555
Ru3 Si4 2.439906 1_554
Ru3 Si5 2.451705 1_555
Ru3 Si2 2.451997 1_655
Ru3 Ti3 2.715696 1_555
Ru3 Ti5 2.737209 1_655
Ru3 Ti2 2.779947 1_665
Ru3 Ti0 2.826684 1_554
Ru4 Si4 2.395761 1_555
Ru4 Si0 2.439939 1_556
Ru4 Si1 2.451547 1_555
Ru4 Si3 2.452049 1_555
Ru4 Ti5 2.715707 1_555
Ru4 Ti3 2.737034 1_555
Ru4 Ti1 2.779944 1_545
Ru4 Ti4 2.826705 1_556
Ru5 Si0 2.395882 1_545
Ru5 Si4 2.440133 1_554
Ru5 Si3 2.451649 1_555
Ru5 Si1 2.451786 1_655
Ru5 Ti3 2.715661 1_555
Ru5 Ti5 2.737226 1_655
Ru5 Ti2 2.780058 1_655
Ru5 Ti0 2.826672 1_554
