# generated using pymatgen
data_Er4CdS7
_symmetry_space_group_name_H-M   'P 1'
_cell_length_a   6.59831647
_cell_length_b   6.59831647
_cell_length_c   11.53104998
_cell_angle_alpha   75.75340792
_cell_angle_beta   75.75340792
_cell_angle_gamma   33.50957278
_symmetry_Int_Tables_number   1
_chemical_formula_structural   Er4CdS7
_chemical_formula_sum   'Er4 Cd1 S7'
_cell_volume   267.85239812
_cell_formula_units_Z   1
loop_
 _symmetry_equiv_pos_site_id
 _symmetry_equiv_pos_as_xyz
  1  'x, y, z'
loop_
 _atom_site_type_symbol
 _atom_site_label
 _atom_site_symmetry_multiplicity
 _atom_site_fract_x
 _atom_site_fract_y
 _atom_site_fract_z
 _atom_site_occupancy
  Er  Er0  1  0.69318000  0.69318000  0.19858000  1
  Er  Er1  1  0.30703900  0.30703900  0.80435400  1
  Er  Er2  1  0.00002400  0.00002400  0.00197200  1
  Er  Er3  1  0.11500100  0.11500100  0.57199400  1
  Cd  Cd0  1  0.88497800  0.88497800  0.42132600  1
  S  S0  1  0.74126400  0.74126400  0.64765200  1
  S  S1  1  0.25662300  0.25662300  0.35228300  1
  S  S2  1  0.34061900  0.34061900  0.04990900  1
  S  S3  1  0.65996400  0.65996400  0.94815500  1
  S  S4  1  0.03893200  0.03893200  0.21614400  1
  S  S5  1  0.96112200  0.96112200  0.78527200  1
  S  S6  1  0.50125300  0.50125300  0.50235800  1
loop_
_geom_bond_atom_site_label_1
_geom_bond_atom_site_label_2
_geom_bond_distance
_geom_bond_site_symmetry_2
Er0 S4 2.693581 1_655
Er0 S4 2.693581 1_565
Er0 S1 2.851743 1_565
Er0 S1 2.851743 1_655
Er0 S2 2.895939 1_565
Er0 S2 2.895939 1_655
Er0 S3 3.022876 1_554
Er1 S5 2.690233 1_455
Er1 S5 2.690233 1_545
Er1 S3 2.870131 1_545
Er1 S3 2.870131 1_455
Er1 S0 2.888936 1_455
Er1 S0 2.888936 1_545
Er1 S2 2.969019 1_556
Er2 S4 2.639111 1_555
Er2 S5 2.667758 1_444
Er2 S2 2.721908 1_545
Er2 S2 2.721908 1_455
Er2 S3 2.728234 1_544
Er2 S3 2.728234 1_454
Er3 S6 2.631003 1_545
Er3 S6 2.631003 1_455
Er3 S1 2.700141 1_555
Er3 S5 2.714993 1_445
Er3 S0 2.764122 1_455
Er3 S0 2.764122 1_545
Cd0 S4 2.648879 1_665
Cd0 S6 2.712143 1_655
Cd0 S6 2.712143 1_565
Cd0 S1 2.747073 1_565
Cd0 S1 2.747073 1_655
Cd0 S0 2.769976 1_555
