# generated using pymatgen
data_Tb5(In2Ni)2
_symmetry_space_group_name_H-M   'P 1'
_cell_length_a   3.59727300
_cell_length_b   8.09061500
_cell_length_c   18.10325400
_cell_angle_alpha   90.00000000
_cell_angle_beta   90.00000000
_cell_angle_gamma   90.00000000
_symmetry_Int_Tables_number   1
_chemical_formula_structural   Tb5(In2Ni)2
_chemical_formula_sum   'Tb10 In8 Ni4'
_cell_volume   526.87983607
_cell_formula_units_Z   2
loop_
 _symmetry_equiv_pos_site_id
 _symmetry_equiv_pos_as_xyz
  1  'x, y, z'
loop_
 _atom_site_type_symbol
 _atom_site_label
 _atom_site_symmetry_multiplicity
 _atom_site_fract_x
 _atom_site_fract_y
 _atom_site_fract_z
 _atom_site_occupancy
  Tb  Tb0  1  0.00000000  0.50000000  0.50000000  1
  Tb  Tb1  1  0.00000000  0.00000000  0.00000000  1
  Tb  Tb2  1  0.00000000  0.74618000  0.27807900  1
  Tb  Tb3  1  0.00000000  0.25382000  0.72192100  1
  Tb  Tb4  1  0.00000000  0.75382000  0.77807900  1
  Tb  Tb5  1  0.00000000  0.24618000  0.22192100  1
  Tb  Tb6  1  0.00000000  0.61799600  0.08762000  1
  Tb  Tb7  1  0.00000000  0.38200400  0.91238000  1
  Tb  Tb8  1  0.00000000  0.88200400  0.58762000  1
  Tb  Tb9  1  0.00000000  0.11799600  0.41238000  1
  In  In0  1  0.50000000  0.70568600  0.93001500  1
  In  In1  1  0.50000000  0.29431400  0.06998500  1
  In  In2  1  0.50000000  0.79431400  0.43001500  1
  In  In3  1  0.50000000  0.20568600  0.56998500  1
  In  In4  1  0.50000000  0.57088100  0.65215900  1
  In  In5  1  0.50000000  0.42911900  0.34784100  1
  In  In6  1  0.50000000  0.92911900  0.15215900  1
  In  In7  1  0.50000000  0.07088100  0.84784100  1
  Ni  Ni0  1  0.50000000  0.52379900  0.19592200  1
  Ni  Ni1  1  0.50000000  0.47620100  0.80407800  1
  Ni  Ni2  1  0.50000000  0.97620100  0.69592200  1
  Ni  Ni3  1  0.50000000  0.02379900  0.30407800  1
loop_
_geom_bond_atom_site_label_1
_geom_bond_atom_site_label_2
_geom_bond_distance
_geom_bond_site_symmetry_2
In0 Ni1 2.940246 1_555
In0 Tb7 3.192970 1_655
In0 Tb7 3.192970 1_555
In0 Tb1 3.241959 1_566
In0 Tb1 3.241959 1_666
In0 Tb4 3.309411 1_655
In0 Tb4 3.309411 1_555
In0 Tb6 3.446589 1_656
In0 Tb6 3.446589 1_556
In1 Ni0 2.940246 1_555
In1 Tb6 3.192970 1_555
In1 Tb6 3.192970 1_655
In1 Tb1 3.241959 1_655
In1 Tb1 3.241959 1_555
In1 Tb5 3.309411 1_555
In1 Tb5 3.309411 1_655
In1 Tb7 3.446589 1_554
In1 Tb7 3.446589 1_654
In2 Ni3 2.940246 1_565
In2 Tb9 3.192970 1_565
In2 Tb9 3.192970 1_665
In2 Tb0 3.241959 1_655
In2 Tb0 3.241959 1_555
In2 Tb2 3.309411 1_555
In2 Tb2 3.309411 1_655
In2 Tb8 3.446589 1_655
In2 Tb8 3.446589 1_555
In3 Ni2 2.940246 1_545
In3 Tb8 3.192970 1_645
In3 Tb8 3.192970 1_545
In3 Tb0 3.241959 1_555
In3 Tb0 3.241959 1_655
In3 Tb3 3.309411 1_655
In3 Tb3 3.309411 1_555
In3 Tb9 3.446589 1_655
In3 Tb9 3.446589 1_555
In4 Ni1 2.854915 1_555
In4 Tb4 3.259165 1_655
In4 Tb4 3.259165 1_555
In4 Tb8 3.307015 1_555
In4 Tb8 3.307015 1_655
In4 Tb0 3.339406 1_655
In4 Tb0 3.339406 1_555
In4 Tb3 3.377929 1_655
In4 Tb3 3.377929 1_555
In5 Ni0 2.854915 1_555
In5 Tb5 3.259165 1_655
In5 Tb5 3.259165 1_555
In5 Tb9 3.307015 1_655
In5 Tb9 3.307015 1_555
In5 Tb0 3.339406 1_655
In5 Tb0 3.339406 1_555
In5 Tb2 3.377929 1_555
In5 Tb2 3.377929 1_655
In6 Ni3 2.854915 1_565
In6 Tb2 3.259165 1_555
In6 Tb2 3.259165 1_655
In6 Tb6 3.307015 1_655
In6 Tb6 3.307015 1_555
In6 Tb1 3.339406 1_565
In6 Tb1 3.339406 1_665
In6 Tb5 3.377929 1_565
In6 Tb5 3.377929 1_665
In7 Ni2 2.854915 1_545
In7 Tb3 3.259165 1_655
In7 Tb3 3.259165 1_555
In7 Tb7 3.307015 1_655
In7 Tb7 3.307015 1_555
In7 Tb1 3.339406 1_656
In7 Tb1 3.339406 1_556
In7 Tb4 3.377929 1_545
In7 Tb4 3.377929 1_645
Ni0 Tb6 2.767658 1_655
Ni0 Tb6 2.767658 1_555
Ni0 Tb5 2.915754 1_555
Ni0 Tb5 2.915754 1_655
Ni0 Tb2 2.946913 1_655
Ni0 Tb2 2.946913 1_555
Ni1 Tb7 2.767658 1_655
Ni1 Tb7 2.767658 1_555
Ni1 Tb4 2.915754 1_555
Ni1 Tb4 2.915754 1_655
Ni1 Tb3 2.946913 1_655
Ni1 Tb3 2.946913 1_555
Ni2 Tb8 2.767658 1_655
Ni2 Tb8 2.767658 1_555
Ni2 Tb3 2.915754 1_665
Ni2 Tb3 2.915754 1_565
Ni2 Tb4 2.946913 1_555
Ni2 Tb4 2.946913 1_655
Ni3 Tb9 2.767658 1_555
Ni3 Tb9 2.767658 1_655
Ni3 Tb2 2.915754 1_645
Ni3 Tb2 2.915754 1_545
Ni3 Tb5 2.946913 1_555
Ni3 Tb5 2.946913 1_655
