# generated using pymatgen
data_YbTlPd
_symmetry_space_group_name_H-M   'P 1'
_cell_length_a   7.72431463
_cell_length_b   7.72431463
_cell_length_c   3.71484101
_cell_angle_alpha   90.00000000
_cell_angle_beta   90.00000000
_cell_angle_gamma   119.99999231
_symmetry_Int_Tables_number   1
_chemical_formula_structural   YbTlPd
_chemical_formula_sum   'Yb3 Tl3 Pd3'
_cell_volume   191.95118939
_cell_formula_units_Z   3
loop_
 _symmetry_equiv_pos_site_id
 _symmetry_equiv_pos_as_xyz
  1  'x, y, z'
loop_
 _atom_site_type_symbol
 _atom_site_label
 _atom_site_symmetry_multiplicity
 _atom_site_fract_x
 _atom_site_fract_y
 _atom_site_fract_z
 _atom_site_occupancy
  Yb  Yb0  1  0.40281133  0.40281133  0.50000000  1
  Yb  Yb1  1  0.00000000  0.59718867  0.50000000  1
  Yb  Yb2  1  0.59718867  0.00000000  0.50000000  1
  Tl  Tl0  1  1.00000000  0.26924619  0.00000000  1
  Tl  Tl1  1  0.26924619  1.00000000  0.00000000  1
  Tl  Tl2  1  0.73075381  0.73075381  0.00000000  1
  Pd  Pd0  1  0.00000000  0.00000000  0.50000000  1
  Pd  Pd1  1  0.33333300  0.66666700  0.00000000  1
  Pd  Pd2  1  0.66666700  0.33333300  0.00000000  1
loop_
_geom_bond_atom_site_label_1
_geom_bond_atom_site_label_2
_geom_bond_distance
_geom_bond_site_symmetry_2
Tl0 Yb1 3.141140 1_654
Tl0 Yb1 3.141140 1_655
Tl0 Yb0 3.314425 1_654
Tl0 Yb0 3.314425 1_655
Tl0 Yb2 3.314425 1_554
Tl0 Yb2 3.314425 1_555
Tl1 Yb2 3.141140 1_565
Tl1 Yb2 3.141140 1_564
Tl1 Yb0 3.314425 1_565
Tl1 Yb0 3.314425 1_564
Tl1 Yb1 3.314425 1_554
Tl1 Yb1 3.314425 1_555
Tl2 Yb0 3.141141 1_554
Tl2 Yb0 3.141141 1_555
Tl2 Yb1 3.314425 1_654
Tl2 Yb2 3.314425 1_565
Tl2 Yb2 3.314425 1_564
Tl2 Yb1 3.314425 1_655
Pd0 Tl1 2.788429 1_545
Pd0 Tl0 2.788429 1_456
Pd0 Tl0 2.788429 1_455
Pd0 Tl1 2.788429 1_546
Pd0 Tl2 2.788430 1_446
Pd0 Tl2 2.788430 1_445
Pd0 Yb2 3.111441 1_455
Pd0 Yb1 3.111441 1_545
Pd0 Yb0 3.111442 1_555
Pd1 Tl1 2.854657 1_555
Pd1 Tl0 2.854662 1_455
Pd1 Tl2 2.854665 1_555
Pd1 Yb1 2.997608 1_554
Pd1 Yb1 2.997608 1_555
Pd1 Yb2 2.997610 1_564
Pd1 Yb2 2.997610 1_565
Pd1 Yb0 2.997614 1_555
Pd1 Yb0 2.997614 1_554
Pd2 Tl0 2.854657 1_555
Pd2 Tl1 2.854662 1_545
Pd2 Tl2 2.854665 1_555
Pd2 Yb2 2.997608 1_555
Pd2 Yb2 2.997608 1_554
Pd2 Yb1 2.997610 1_655
Pd2 Yb1 2.997610 1_654
Pd2 Yb0 2.997614 1_555
Pd2 Yb0 2.997614 1_554
