# generated using pymatgen
data_Ba3N2
_symmetry_space_group_name_H-M   'P 1'
_cell_length_a   11.36057575
_cell_length_b   11.36063422
_cell_length_c   11.36063422
_cell_angle_alpha   109.47118860
_cell_angle_beta   109.47053527
_cell_angle_gamma   109.47214656
_symmetry_Int_Tables_number   1
_chemical_formula_structural   Ba3N2
_chemical_formula_sum   'Ba24 N16'
_cell_volume   1128.71029833
_cell_formula_units_Z   8
loop_
 _symmetry_equiv_pos_site_id
 _symmetry_equiv_pos_as_xyz
  1  'x, y, z'
loop_
 _atom_site_type_symbol
 _atom_site_label
 _atom_site_symmetry_multiplicity
 _atom_site_fract_x
 _atom_site_fract_y
 _atom_site_fract_z
 _atom_site_occupancy
  Ba  Ba0  1  0.04731126  0.27345289  0.00141833  1
  Ba  Ba1  1  0.95268874  0.72654711  0.99858167  1
  Ba  Ba2  1  0.45268874  0.45410706  0.22614263  1
  Ba  Ba3  1  0.72796087  0.22653830  0.27384299  1
  Ba  Ba4  1  0.27345900  0.00142536  0.04730616  1
  Ba  Ba5  1  0.54731126  0.54589294  0.77385737  1
  Ba  Ba6  1  0.27203913  0.77346170  0.72615701  1
  Ba  Ba7  1  0.72654100  0.99857464  0.95269384  1
  Ba  Ba8  1  0.77203913  0.04588212  0.49857843  1
  Ba  Ba9  1  0.45410838  0.22614699  0.45269268  1
  Ba  Ba10  1  0.22796087  0.95411788  0.50142157  1
  Ba  Ba11  1  0.54589162  0.77385301  0.54730732  1
  Ba  Ba12  1  0.22654100  0.27384616  0.72796636  1
  Ba  Ba13  1  0.77345900  0.72615384  0.27203364  1
  Ba  Ba14  1  0.04589162  0.49858429  0.77203861  1
  Ba  Ba15  1  0.95410838  0.50141571  0.22796139  1
  Ba  Ba16  1  0.00141180  0.04730146  0.27345276  1
  Ba  Ba17  1  0.99858820  0.95269854  0.72654724  1
  Ba  Ba18  1  0.27384860  0.72796386  0.22653988  1
  Ba  Ba19  1  0.72615140  0.27203614  0.77346012  1
  Ba  Ba20  1  0.49858820  0.77204096  0.04588965  1
  Ba  Ba21  1  0.50141180  0.22795904  0.95411035  1
  Ba  Ba22  1  0.22615140  0.45269228  0.45411526  1
  Ba  Ba23  1  0.77384860  0.54730772  0.54588474  1
  N  N0  1  0.18896512  0.93896070  0.25000111  1
  N  N1  1  0.81103488  0.06103930  0.74999889  1
  N  N2  1  0.31103488  0.56103599  0.74999658  1
  N  N3  1  0.93896296  0.25000506  0.18896712  1
  N  N4  1  0.68896512  0.43896401  0.25000342  1
  N  N5  1  0.06103704  0.74999494  0.81103288  1
  N  N6  1  0.56103704  0.75000415  0.31104210  1
  N  N7  1  0.43896296  0.24999585  0.68895790  1
  N  N8  1  0.25000000  0.18896262  0.93896262  1
  N  N9  1  0.75000000  0.81103738  0.06103738  1
  N  N10  1  0.75000000  0.31103717  0.56103717  1
  N  N11  1  0.25000000  0.68896283  0.43896283  1
  N  N12  1  0.50000000  0.50000000  0.50000000  1
  N  N13  1  0.00000000  0.50000000  0.00000000  1
  N  N14  1  0.00000000  -0.00000000  0.50000000  1
  N  N15  1  0.50000000  -0.00000000  0.00000000  1
loop_
_geom_bond_atom_site_label_1
_geom_bond_atom_site_label_2
_geom_bond_distance
_geom_bond_site_symmetry_2
Ba0 N1 2.676203 1_454
Ba0 N13 2.803090 1_555
Ba0 N3 2.834429 1_455
Ba0 N8 2.972495 1_554
Ba1 N0 2.676203 1_656
Ba1 N13 2.803090 1_656
Ba1 N5 2.834429 1_655
Ba1 N9 2.972495 1_556
Ba2 N4 2.676208 1_555
Ba2 N12 2.803079 1_555
Ba2 N6 2.834431 1_555
Ba2 N8 2.972501 1_554
Ba3 N4 2.676212 1_555
Ba3 N15 2.802954 1_555
Ba3 N3 2.834281 1_555
Ba3 N10 2.972643 1_555
Ba4 N5 2.676260 1_544
Ba4 N15 2.802988 1_555
Ba4 N8 2.834318 1_554
Ba4 N0 2.972614 1_545
Ba5 N2 2.676208 1_555
Ba5 N12 2.803079 1_555
Ba5 N7 2.834431 1_555
Ba5 N9 2.972501 1_556
Ba6 N2 2.676212 1_555
Ba6 N15 2.802954 1_566
Ba6 N5 2.834281 1_555
Ba6 N11 2.972643 1_555
Ba7 N3 2.676260 1_566
Ba7 N15 2.802988 1_566
Ba7 N9 2.834318 1_556
Ba7 N1 2.972614 1_565
Ba8 N1 2.676197 1_555
Ba8 N14 2.802957 1_655
Ba8 N6 2.834281 1_545
Ba8 N10 2.972643 1_555
Ba9 N7 2.676129 1_555
Ba9 N12 2.803031 1_555
Ba9 N10 2.834398 1_555
Ba9 N0 2.972511 1_545
Ba10 N0 2.676197 1_555
Ba10 N14 2.802957 1_565
Ba10 N7 2.834281 1_565
Ba10 N11 2.972643 1_555
Ba11 N6 2.676129 1_555
Ba11 N12 2.803031 1_555
Ba11 N11 2.834398 1_555
Ba11 N1 2.972511 1_565
Ba12 N7 2.676256 1_555
Ba12 N14 2.802982 1_555
Ba12 N8 2.834310 1_555
Ba12 N2 2.972621 1_555
Ba13 N6 2.676256 1_555
Ba13 N14 2.802982 1_665
Ba13 N9 2.834310 1_555
Ba13 N4 2.972621 1_555
Ba14 N5 2.676129 1_555
Ba14 N13 2.803031 1_556
Ba14 N10 2.834398 1_455
Ba14 N2 2.972505 1_555
Ba15 N3 2.676129 1_555
Ba15 N13 2.803031 1_655
Ba15 N11 2.834398 1_655
Ba15 N4 2.972505 1_555
Ba16 N9 2.676110 1_445
Ba16 N14 2.803011 1_555
Ba16 N0 2.834448 1_545
Ba16 N3 2.972616 1_455
Ba17 N8 2.676110 1_665
Ba17 N14 2.803011 1_665
Ba17 N1 2.834448 1_565
Ba17 N5 2.972616 1_655
Ba18 N11 2.676233 1_555
Ba18 N13 2.802986 1_555
Ba18 N0 2.834319 1_555
Ba18 N6 2.972561 1_555
Ba19 N10 2.676233 1_555
Ba19 N13 2.802986 1_656
Ba19 N1 2.834319 1_555
Ba19 N7 2.972561 1_555
Ba20 N9 2.676110 1_555
Ba20 N15 2.803011 1_565
Ba20 N2 2.834440 1_554
Ba20 N6 2.972616 1_555
Ba21 N8 2.676110 1_555
Ba21 N15 2.803011 1_556
Ba21 N4 2.834440 1_556
Ba21 N7 2.972616 1_555
Ba22 N11 2.676222 1_555
Ba22 N12 2.802989 1_555
Ba22 N2 2.834330 1_555
Ba22 N3 2.972561 1_455
Ba23 N10 2.676222 1_555
Ba23 N12 2.802989 1_555
Ba23 N4 2.834330 1_555
Ba23 N5 2.972561 1_655
