# generated using pymatgen
data_ZrTiS6
_symmetry_space_group_name_H-M   'P 1'
_cell_length_a   3.53591581
_cell_length_b   5.11989714
_cell_length_c   9.11411948
_cell_angle_alpha   83.45831231
_cell_angle_beta   90.00000000
_cell_angle_gamma   90.00000000
_symmetry_Int_Tables_number   1
_chemical_formula_structural   ZrTiS6
_chemical_formula_sum   'Zr1 Ti1 S6'
_cell_volume   163.92342953
_cell_formula_units_Z   1
loop_
 _symmetry_equiv_pos_site_id
 _symmetry_equiv_pos_as_xyz
  1  'x, y, z'
loop_
 _atom_site_type_symbol
 _atom_site_label
 _atom_site_symmetry_multiplicity
 _atom_site_fract_x
 _atom_site_fract_y
 _atom_site_fract_z
 _atom_site_occupancy
  Zr  Zr0  1  0.25000000  0.72093491  0.64794033  1
  Ti  Ti0  1  0.75000000  0.28067649  0.34807319  1
  S  S0  1  0.75000000  0.48144724  0.82402582  1
  S  S1  1  0.25000000  0.51170317  0.18519774  1
  S  S2  1  0.75000000  0.88355617  0.82680086  1
  S  S3  1  0.25000000  0.11688406  0.18431913  1
  S  S4  1  0.75000000  0.76285903  0.44104674  1
  S  S5  1  0.25000000  0.24193794  0.54259619  1
loop_
_geom_bond_atom_site_label_1
_geom_bond_atom_site_label_2
_geom_bond_distance
_geom_bond_site_symmetry_2
S0 S2 2.061791 1_555
S0 Zr0 2.599297 1_555
S0 Zr0 2.599297 1_655
S1 S3 2.022361 1_555
S1 Ti0 2.515617 1_555
S1 Ti0 2.515617 1_455
S2 Zr0 2.604913 1_555
S2 Zr0 2.604913 1_655
S3 Ti0 2.518250 1_555
S3 Ti0 2.518250 1_455
S4 Zr0 2.575891 1_555
S4 Zr0 2.575891 1_655
S4 Ti0 2.689773 1_565
S4 Ti0 2.699869 1_555
S5 Ti0 2.495614 1_455
S5 Ti0 2.495614 1_555
S5 Zr0 2.730153 1_545
S5 Zr0 2.733619 1_555
