# generated using pymatgen
data_Ca3Mn2O7
_symmetry_space_group_name_H-M   'P 1'
_cell_length_a   10.01330708
_cell_length_b   10.01330708
_cell_length_c   5.33646500
_cell_angle_alpha   90.00000000
_cell_angle_beta   90.00000000
_cell_angle_gamma   148.47817561
_symmetry_Int_Tables_number   1
_chemical_formula_structural   Ca3Mn2O7
_chemical_formula_sum   'Ca6 Mn4 O14'
_cell_volume   279.74586274
_cell_formula_units_Z   2
loop_
 _symmetry_equiv_pos_site_id
 _symmetry_equiv_pos_as_xyz
  1  'x, y, z'
loop_
 _atom_site_type_symbol
 _atom_site_label
 _atom_site_symmetry_multiplicity
 _atom_site_fract_x
 _atom_site_fract_y
 _atom_site_fract_z
 _atom_site_occupancy
  Ca  Ca0  1  0.74108900  0.74108900  0.25000000  1
  Ca  Ca1  1  0.25891100  0.25891100  0.75000000  1
  Ca  Ca2  1  0.92345000  0.55103700  0.25000000  1
  Ca  Ca3  1  0.55103700  0.92345000  0.25000000  1
  Ca  Ca4  1  0.44896300  0.07655000  0.75000000  1
  Ca  Ca5  1  0.07655000  0.44896300  0.75000000  1
  Mn  Mn0  1  0.14936700  0.34706800  0.25000000  1
  Mn  Mn1  1  0.34706800  0.14936700  0.25000000  1
  Mn  Mn2  1  0.85063300  0.65293200  0.75000000  1
  Mn  Mn3  1  0.65293200  0.85063300  0.75000000  1
  O  O0  1  0.49280200  0.88635600  0.75000000  1
  O  O1  1  0.88635600  0.49280200  0.75000000  1
  O  O2  1  0.50719800  0.11364400  0.25000000  1
  O  O3  1  0.11364400  0.50719800  0.25000000  1
  O  O4  1  0.41818200  0.58181800  0.50000000  1
  O  O5  1  0.58181800  0.41818200  0.00000000  1
  O  O6  1  0.58181800  0.41818200  0.50000000  1
  O  O7  1  0.41818200  0.58181800  0.00000000  1
  O  O8  1  0.88383000  0.11617000  0.50000000  1
  O  O9  1  0.11617000  0.88383000  0.00000000  1
  O  O10  1  0.16805100  0.16805100  0.25000000  1
  O  O11  1  0.83194900  0.83194900  0.75000000  1
  O  O12  1  0.88383000  0.11617000  0.00000000  1
  O  O13  1  0.11617000  0.88383000  0.50000000  1
loop_
_geom_bond_atom_site_label_1
_geom_bond_atom_site_label_2
_geom_bond_distance
_geom_bond_site_symmetry_2
Ca0 O10 2.322547 1_665
Ca0 O5 2.446732 1_555
Ca0 O6 2.446732 1_555
Ca0 O7 2.446732 1_555
Ca0 O4 2.446732 1_555
Ca0 O11 2.713623 1_554
Ca0 O11 2.713623 1_555
Ca1 O11 2.322547 1_445
Ca1 O5 2.446732 1_556
Ca1 O7 2.446732 1_556
Ca1 O6 2.446732 1_555
Ca1 O4 2.446732 1_555
Ca1 O10 2.713623 1_556
Ca1 O10 2.713623 1_555
Ca2 O3 2.290198 1_655
Ca2 O2 2.330709 1_555
Ca2 O9 2.375908 1_655
Ca2 O13 2.375908 1_655
Ca2 O1 2.688531 1_555
Ca2 O1 2.688531 1_554
Ca2 O5 2.737388 1_555
Ca2 O6 2.737388 1_555
Ca3 O2 2.290198 1_565
Ca3 O3 2.330709 1_555
Ca3 O8 2.375908 1_565
Ca3 O12 2.375908 1_565
Ca3 O0 2.688531 1_555
Ca3 O0 2.688531 1_554
Ca3 O4 2.737388 1_555
Ca3 O7 2.737388 1_555
Ca4 O0 2.290198 1_545
Ca4 O1 2.330709 1_555
Ca4 O9 2.375908 1_546
Ca4 O13 2.375908 1_545
Ca4 O2 2.688531 1_555
Ca4 O2 2.688531 1_556
Ca4 O6 2.737388 1_555
Ca4 O5 2.737388 1_556
Ca5 O1 2.290198 1_455
Ca5 O0 2.330709 1_555
Ca5 O12 2.375908 1_456
Ca5 O8 2.375908 1_455
Ca5 O3 2.688531 1_556
Ca5 O3 2.688531 1_555
Ca5 O7 2.737388 1_556
Ca5 O4 2.737388 1_555
Mn0 O3 1.917495 1_555
Mn0 O8 1.927282 1_455
Mn0 O12 1.927282 1_455
Mn0 O7 1.939974 1_555
Mn0 O4 1.939974 1_555
Mn0 O10 1.954483 1_555
Mn1 O2 1.917495 1_555
Mn1 O13 1.927282 1_545
Mn1 O9 1.927282 1_545
Mn1 O6 1.939974 1_555
Mn1 O5 1.939974 1_555
Mn1 O10 1.954483 1_555
Mn2 O1 1.917495 1_555
Mn2 O9 1.927282 1_656
Mn2 O13 1.927282 1_655
Mn2 O5 1.939974 1_556
Mn2 O6 1.939974 1_555
Mn2 O11 1.954483 1_555
Mn3 O0 1.917495 1_555
Mn3 O8 1.927282 1_565
Mn3 O12 1.927282 1_566
Mn3 O7 1.939974 1_556
Mn3 O4 1.939974 1_555
Mn3 O11 1.954483 1_555
