# generated using pymatgen
data_Li2Ni2H24C6(N4O5)3
_symmetry_space_group_name_H-M   'P 1'
_cell_length_a   4.97438315
_cell_length_b   9.64879645
_cell_length_c   11.56905697
_cell_angle_alpha   92.07232527
_cell_angle_beta   89.72209801
_cell_angle_gamma   89.86396761
_symmetry_Int_Tables_number   1
_chemical_formula_structural   Li2Ni2H24C6(N4O5)3
_chemical_formula_sum   'Li2 Ni2 H24 C6 N12 O15'
_cell_volume   554.90633675
_cell_formula_units_Z   1
loop_
 _symmetry_equiv_pos_site_id
 _symmetry_equiv_pos_as_xyz
  1  'x, y, z'
loop_
 _atom_site_type_symbol
 _atom_site_label
 _atom_site_symmetry_multiplicity
 _atom_site_fract_x
 _atom_site_fract_y
 _atom_site_fract_z
 _atom_site_occupancy
  Li  Li0  1  0.23692400  0.20349800  0.80969200  1
  Li  Li1  1  0.74132200  0.79634000  0.18904900  1
  Ni  Ni0  1  0.72180400  0.73619700  0.67053100  1
  Ni  Ni1  1  0.21872800  0.26592100  0.32911300  1
  H  H0  1  0.80028400  0.33674100  0.69620100  1
  H  H1  1  0.29701800  0.66272700  0.30478900  1
  H  H2  1  0.93489200  0.50302300  0.55966900  1
  H  H3  1  0.44647800  0.49349100  0.43775300  1
  H  H4  1  0.87231500  0.93760400  0.95805800  1
  H  H5  1  0.37010900  0.06727600  0.04169500  1
  H  H6  1  0.18271300  0.80129600  0.55384900  1
  H  H7  1  0.68025700  0.19810400  0.44233400  1
  H  H8  1  0.08426200  0.54021800  0.68508300  1
  H  H9  1  0.57629400  0.46172100  0.30716500  1
  H  H10  1  0.88473700  0.70974900  0.89012000  1
  H  H11  1  0.39591600  0.29805900  0.11599700  1
  H  H12  1  0.96620300  0.92988600  0.40331200  1
  H  H13  1  0.46352300  0.07046400  0.59531400  1
  H  H14  1  0.03641900  0.94300400  0.61351100  1
  H  H15  1  0.53056000  0.05698400  0.38530800  1
  H  H16  1  0.78249600  0.17947400  0.90842100  1
  H  H17  1  0.29146800  0.82183900  0.09036600  1
  H  H18  1  0.91363100  0.32086400  0.95084700  1
  H  H19  1  0.40994800  0.67263600  0.06401900  1
  H  H20  1  0.12965500  0.78481900  0.81756300  1
  H  H21  1  0.63054900  0.21065600  0.18633900  1
  H  H22  1  0.38301300  0.45501800  0.94554800  1
  H  H23  1  0.59988700  0.49274000  0.04283400  1
  C  C0  1  0.50852000  0.48304800  0.75370200  1
  C  C1  1  0.00692100  0.51923100  0.24516900  1
  C  C2  1  0.61544900  0.97266500  0.82069800  1
  C  C3  1  0.11111100  0.03128500  0.17852400  1
  C  C4  1  0.63695100  0.80574200  0.43703500  1
  C  C5  1  0.13458300  0.19643800  0.56384200  1
  N  N0  1  0.87020700  0.87482100  0.46527500  1
  N  N1  1  0.36985700  0.12844600  0.53504900  1
  N  N2  1  0.73503900  0.43810200  0.69664600  1
  N  N3  1  0.22150000  0.56426700  0.31134000  1
  N  N4  1  0.83267300  0.91312200  0.87268500  1
  N  N5  1  0.32622500  0.09250700  0.12637700  1
  N  N6  1  0.99978800  0.84972700  0.57083500  1
  N  N7  1  0.49633200  0.15087100  0.42788300  1
  N  N8  1  0.92515800  0.78245400  0.83002300  1
  N  N9  1  0.42758200  0.21910200  0.17236400  1
  N  N10  1  0.90123800  0.53620100  0.64379800  1
  N  N11  1  0.39959600  0.46382400  0.35433200  1
  O  O0  1  0.51989500  0.08344700  0.87017400  1
  O  O1  1  0.01308700  0.92327200  0.12628300  1
  O  O2  1  0.95735300  0.22535500  0.92940700  1
  O  O3  1  0.46108700  0.77114400  0.07129200  1
  O  O4  1  0.52593200  0.91910000  0.72526100  1
  O  O5  1  0.02497400  0.08117600  0.27647400  1
  O  O6  1  0.37124500  0.39390300  0.80831300  1
  O  O7  1  0.87479400  0.60771100  0.18999800  1
  O  O8  1  0.44170500  0.61186200  0.75049500  1
  O  O9  1  0.94337400  0.38934800  0.24755300  1
  O  O10  1  0.53763800  0.82568900  0.33778700  1
  O  O11  1  0.03568500  0.17630800  0.66418800  1
  O  O12  1  0.52882800  0.72850700  0.51358900  1
  O  O13  1  0.02464300  0.27368100  0.48871100  1
  O  O14  1  0.40718600  0.48089700  0.02961800  1
loop_
_geom_bond_atom_site_label_1
_geom_bond_atom_site_label_2
_geom_bond_distance
_geom_bond_site_symmetry_2
Li0 O6 1.956980 1_555
Li0 O2 1.963543 1_455
Li0 O0 1.968035 1_555
Li0 O11 1.972362 1_555
Li1 O7 1.936304 1_555
Li1 O3 1.963255 1_555
Li1 O1 1.979259 1_655
Li1 O10 2.003563 1_555
Ni0 O12 2.056975 1_555
Ni0 O8 2.076560 1_555
Ni0 O4 2.090403 1_555
Ni1 O9 2.066593 1_455
Ni1 O13 2.078283 1_555
Ni1 O5 2.100636 1_555
H0 N2 1.029554 1_555
H1 N3 1.027631 1_555
H2 N10 1.026371 1_555
H3 N11 1.024826 1_555
H4 N4 1.027349 1_555
H5 N5 1.023298 1_555
H6 N6 1.036620 1_455
H7 N7 1.034732 1_555
H8 N10 1.030322 1_455
H9 N11 1.032092 1_555
H10 N8 1.024956 1_555
H11 N9 1.032870 1_555
H12 N0 1.024513 1_555
H13 N1 1.022891 1_555
H14 N6 1.027861 1_455
H15 N7 1.028800 1_555
H16 O2 1.003789 1_555
H16 O0 1.656002 1_555
H17 O3 0.994133 1_555
H18 O2 0.969571 1_555
H19 O3 0.985283 1_555
H20 N8 1.027140 1_455
H21 N9 1.026787 1_555
H22 O14 1.003242 1_556
H22 O6 1.674885 1_555
H23 O14 0.977736 1_555
C0 O6 1.281879 1_555
C0 O8 1.287686 1_555
C0 N2 1.364994 1_555
C1 O7 1.268478 1_455
C1 O9 1.294422 1_455
C1 N3 1.378507 1_555
C2 O0 1.283291 1_565
C2 O4 1.284161 1_555
C2 N4 1.373954 1_555
C3 O1 1.284105 1_545
C3 O5 1.286198 1_555
C3 N5 1.371295 1_555
C4 O10 1.272992 1_555
C4 O12 1.293848 1_555
C4 N0 1.374376 1_555
C5 O11 1.280108 1_555
C5 O13 1.288248 1_555
C5 N1 1.373980 1_555
N0 N6 1.412019 1_555
N1 N7 1.411467 1_555
N4 N8 1.412402 1_555
N5 N9 1.409901 1_555
N6 Ni0 2.127322 1_555
N7 Ni1 2.131828 1_555
N8 Ni0 2.141917 1_555
N9 Ni1 2.119489 1_555
N10 N2 1.412057 1_555
N10 Ni0 2.135917 1_555
N11 N3 1.416528 1_555
N11 Ni1 2.123981 1_555
