# generated using pymatgen
data_Lu13Zn58
_symmetry_space_group_name_H-M   'P 1'
_cell_length_a   13.83701661
_cell_length_b   14.16661607
_cell_length_c   14.16661607
_cell_angle_alpha   119.99920323
_cell_angle_beta   90.00000000
_cell_angle_gamma   90.00000000
_symmetry_Int_Tables_number   1
_chemical_formula_structural   Lu13Zn58
_chemical_formula_sum   'Lu26 Zn116'
_cell_volume   2404.96538104
_cell_formula_units_Z   2
loop_
 _symmetry_equiv_pos_site_id
 _symmetry_equiv_pos_as_xyz
  1  'x, y, z'
loop_
 _atom_site_type_symbol
 _atom_site_label
 _atom_site_symmetry_multiplicity
 _atom_site_fract_x
 _atom_site_fract_y
 _atom_site_fract_z
 _atom_site_occupancy
  Lu  Lu0  1  0.50000000  -0.00000000  0.00000000  1
  Lu  Lu1  1  -0.00000000  -0.00000000  0.00000000  1
  Lu  Lu2  1  0.75000000  0.45567714  0.91135354  1
  Lu  Lu3  1  0.75000000  0.45568381  0.54431619  1
  Lu  Lu4  1  0.75000000  0.08864646  0.54432286  1
  Lu  Lu5  1  0.25000000  0.54432286  0.08864646  1
  Lu  Lu6  1  0.25000000  0.54431619  0.45568381  1
  Lu  Lu7  1  0.25000000  0.91135354  0.45567714  1
  Lu  Lu8  1  0.75000000  0.12787672  0.25571813  1
  Lu  Lu9  1  0.75000000  0.12785233  0.87214767  1
  Lu  Lu10  1  0.75000000  0.74428187  0.87212328  1
  Lu  Lu11  1  0.25000000  0.87212328  0.74428187  1
  Lu  Lu12  1  0.25000000  0.87214767  0.12785233  1
  Lu  Lu13  1  0.25000000  0.25571813  0.12787672  1
  Lu  Lu14  1  0.55209658  0.79387324  0.58773646  1
  Lu  Lu15  1  0.55211021  0.79386397  0.20613603  1
  Lu  Lu16  1  0.55209658  0.41226354  0.20612676  1
  Lu  Lu17  1  0.44790342  0.20612676  0.41226354  1
  Lu  Lu18  1  0.44788979  0.20613603  0.79386397  1
  Lu  Lu19  1  0.44790342  0.58773646  0.79387324  1
  Lu  Lu20  1  0.05209658  0.20612676  0.41226354  1
  Lu  Lu21  1  0.05211021  0.20613603  0.79386397  1
  Lu  Lu22  1  0.05209658  0.58773646  0.79387324  1
  Lu  Lu23  1  0.94790342  0.79387324  0.58773646  1
  Lu  Lu24  1  0.94788979  0.79386397  0.20613603  1
  Lu  Lu25  1  0.94790342  0.41226354  0.20612676  1
  Zn  Zn0  1  0.75000000  0.00000191  -0.00000191  1
  Zn  Zn1  1  0.25000000  -0.00000191  0.00000191  1
  Zn  Zn2  1  0.25000000  0.66667645  0.33332355  1
  Zn  Zn3  1  0.75000000  0.33332355  0.66667645  1
  Zn  Zn4  1  0.59590066  0.66667691  0.33332309  1
  Zn  Zn5  1  0.40409934  0.33332309  0.66667691  1
  Zn  Zn6  1  0.09590066  0.33332309  0.66667691  1
  Zn  Zn7  1  0.90409934  0.66667691  0.33332309  1
  Zn  Zn8  1  0.50000000  0.50000000  0.00000000  1
  Zn  Zn9  1  0.50000000  0.50000000  0.50000000  1
  Zn  Zn10  1  0.50000000  -0.00000000  0.50000000  1
  Zn  Zn11  1  -0.00000000  0.50000000  0.00000000  1
  Zn  Zn12  1  -0.00000000  0.50000000  0.50000000  1
  Zn  Zn13  1  -0.00000000  -0.00000000  0.50000000  1
  Zn  Zn14  1  0.75000000  0.73042911  0.46084843  1
  Zn  Zn15  1  0.75000000  0.73043428  0.26956572  1
  Zn  Zn16  1  0.75000000  0.53915157  0.26957089  1
  Zn  Zn17  1  0.25000000  0.26957089  0.53915157  1
  Zn  Zn18  1  0.25000000  0.26956572  0.73043428  1
  Zn  Zn19  1  0.25000000  0.46084843  0.73042911  1
  Zn  Zn20  1  0.49999897  0.79916541  -0.00001160  1
  Zn  Zn21  1  0.50000000  0.20081945  0.20081945  1
  Zn  Zn22  1  0.50000103  -0.00001160  0.79916541  1
  Zn  Zn23  1  0.50000103  0.20083459  0.00001160  1
  Zn  Zn24  1  0.49999897  0.00001160  0.20083459  1
  Zn  Zn25  1  0.50000000  0.79918055  0.79918055  1
  Zn  Zn26  1  -0.00000103  0.20083459  0.00001160  1
  Zn  Zn27  1  -0.00000000  0.79918055  0.79918055  1
  Zn  Zn28  1  0.00000103  0.00001160  0.20083459  1
  Zn  Zn29  1  0.00000103  0.79916541  -0.00001160  1
  Zn  Zn30  1  -0.00000103  -0.00001160  0.79916541  1
  Zn  Zn31  1  -0.00000000  0.20081945  0.20081945  1
  Zn  Zn32  1  0.75000000  0.91595853  0.63462006  1
  Zn  Zn33  1  0.75000000  0.71865978  0.08403404  1
  Zn  Zn34  1  0.75000000  0.36535677  0.28133192  1
  Zn  Zn35  1  0.75000000  0.71866808  0.63464323  1
  Zn  Zn36  1  0.75000000  0.36537994  0.08404147  1
  Zn  Zn37  1  0.75000000  0.91596596  0.28134022  1
  Zn  Zn38  1  0.25000000  0.08404147  0.36537994  1
  Zn  Zn39  1  0.25000000  0.28134022  0.91596596  1
  Zn  Zn40  1  0.25000000  0.63464323  0.71866808  1
  Zn  Zn41  1  0.25000000  0.28133192  0.36535677  1
  Zn  Zn42  1  0.25000000  0.63462006  0.91595853  1
  Zn  Zn43  1  0.25000000  0.08403404  0.71865978  1
  Zn  Zn44  1  0.65687392  0.90518786  0.81039893  1
  Zn  Zn45  1  0.65687977  0.90520545  0.09479455  1
  Zn  Zn46  1  0.65687392  0.18960107  0.09481214  1
  Zn  Zn47  1  0.34312608  0.09481214  0.18960107  1
  Zn  Zn48  1  0.34312023  0.09479455  0.90520545  1
  Zn  Zn49  1  0.34312608  0.81039893  0.90518786  1
  Zn  Zn50  1  0.15687392  0.09481214  0.18960107  1
  Zn  Zn51  1  0.15687977  0.09479455  0.90520545  1
  Zn  Zn52  1  0.15687392  0.81039893  0.90518786  1
  Zn  Zn53  1  0.84312608  0.90518786  0.81039893  1
  Zn  Zn54  1  0.84312023  0.90520545  0.09479455  1
  Zn  Zn55  1  0.84312608  0.18960107  0.09481214  1
  Zn  Zn56  1  0.14258739  0.43744861  0.87488807  1
  Zn  Zn57  1  0.14257232  0.43743706  0.56256294  1
  Zn  Zn58  1  0.14258739  0.12511193  0.56255139  1
  Zn  Zn59  1  0.85741261  0.56255139  0.12511193  1
  Zn  Zn60  1  0.85742768  0.56256294  0.43743706  1
  Zn  Zn61  1  0.85741261  0.87488807  0.43744861  1
  Zn  Zn62  1  0.64258739  0.56255139  0.12511193  1
  Zn  Zn63  1  0.64257232  0.56256294  0.43743706  1
  Zn  Zn64  1  0.64258739  0.87488807  0.43744861  1
  Zn  Zn65  1  0.35741261  0.43744861  0.87488807  1
  Zn  Zn66  1  0.35742768  0.43743706  0.56256294  1
  Zn  Zn67  1  0.35741261  0.12511193  0.56255139  1
  Zn  Zn68  1  0.55111611  0.39885244  0.79768571  1
  Zn  Zn69  1  0.55110109  0.39884378  0.60115622  1
  Zn  Zn70  1  0.55111611  0.20231429  0.60114756  1
  Zn  Zn71  1  0.44888389  0.60114756  0.20231429  1
  Zn  Zn72  1  0.44889891  0.60115622  0.39884378  1
  Zn  Zn73  1  0.44888389  0.79768571  0.39885244  1
  Zn  Zn74  1  0.05111611  0.60114756  0.20231429  1
  Zn  Zn75  1  0.05110109  0.60115622  0.39884378  1
  Zn  Zn76  1  0.05111611  0.79768571  0.39885244  1
  Zn  Zn77  1  0.94888389  0.39885244  0.79768571  1
  Zn  Zn78  1  0.94889891  0.39884378  0.60115622  1
  Zn  Zn79  1  0.94888389  0.20231429  0.60114756  1
  Zn  Zn80  1  0.15714790  0.76484496  0.52966825  1
  Zn  Zn81  1  0.15714736  0.76484312  0.23515688  1
  Zn  Zn82  1  0.15714790  0.47033175  0.23515504  1
  Zn  Zn83  1  0.84285210  0.23515504  0.47033175  1
  Zn  Zn84  1  0.84285264  0.23515688  0.76484312  1
  Zn  Zn85  1  0.84285210  0.52966825  0.76484496  1
  Zn  Zn86  1  0.65714790  0.23515504  0.47033175  1
  Zn  Zn87  1  0.65714736  0.23515688  0.76484312  1
  Zn  Zn88  1  0.65714790  0.52966825  0.76484496  1
  Zn  Zn89  1  0.34285210  0.76484496  0.52966825  1
  Zn  Zn90  1  0.34285264  0.76484312  0.23515688  1
  Zn  Zn91  1  0.34285210  0.47033175  0.23515504  1
  Zn  Zn92  1  0.60235980  0.63429613  0.96384931  1
  Zn  Zn93  1  0.60235824  0.32955385  0.36570578  1
  Zn  Zn94  1  0.60235641  0.03615097  0.67045164  1
  Zn  Zn95  1  0.60235641  0.32954836  0.96384903  1
  Zn  Zn96  1  0.60235980  0.03615069  0.36570387  1
  Zn  Zn97  1  0.60235824  0.63429422  0.67044615  1
  Zn  Zn98  1  0.39764020  0.36570387  0.03615069  1
  Zn  Zn99  1  0.39764176  0.67044615  0.63429422  1
  Zn  Zn100  1  0.39764359  0.96384903  0.32954836  1
  Zn  Zn101  1  0.39764359  0.67045164  0.03615097  1
  Zn  Zn102  1  0.39764020  0.96384931  0.63429613  1
  Zn  Zn103  1  0.39764176  0.36570578  0.32955385  1
  Zn  Zn104  1  0.10235980  0.36570387  0.03615069  1
  Zn  Zn105  1  0.10235824  0.67044615  0.63429422  1
  Zn  Zn106  1  0.10235641  0.96384903  0.32954836  1
  Zn  Zn107  1  0.10235641  0.67045164  0.03615097  1
  Zn  Zn108  1  0.10235980  0.96384931  0.63429613  1
  Zn  Zn109  1  0.10235824  0.36570578  0.32955385  1
  Zn  Zn110  1  0.89764020  0.63429613  0.96384931  1
  Zn  Zn111  1  0.89764176  0.32955385  0.36570578  1
  Zn  Zn112  1  0.89764359  0.03615097  0.67045164  1
  Zn  Zn113  1  0.89764359  0.32954836  0.96384903  1
  Zn  Zn114  1  0.89764020  0.03615069  0.36570387  1
  Zn  Zn115  1  0.89764176  0.63429422  0.67044615  1
loop_
_geom_bond_atom_site_label_1
_geom_bond_atom_site_label_2
_geom_bond_distance
_geom_bond_site_symmetry_2
Lu0 Zn21 2.844966 1_555
Lu0 Zn25 2.844966 1_544
Lu0 Zn20 2.845064 1_545
Lu0 Zn23 2.845064 1_555
Lu0 Zn24 2.845064 1_555
Lu0 Zn22 2.845064 1_554
Lu0 Zn45 3.181570 1_545
Lu0 Zn48 3.181570 1_554
Lu0 Zn46 3.181643 1_555
Lu0 Zn47 3.181643 1_555
Lu0 Zn49 3.181643 1_544
Lu0 Zn44 3.181643 1_544
Lu0 Zn0 3.459254 1_555
Lu0 Zn1 3.459254 1_555
Lu1 Zn27 2.844966 1_544
Lu1 Zn31 2.844966 1_555
Lu1 Zn28 2.845064 1_555
Lu1 Zn30 2.845064 1_554
Lu1 Zn26 2.845064 1_555
Lu1 Zn29 2.845064 1_545
Lu1 Zn54 3.181570 1_445
Lu1 Zn51 3.181570 1_554
Lu1 Zn55 3.181643 1_455
Lu1 Zn52 3.181643 1_544
Lu1 Zn53 3.181643 1_444
Lu1 Zn50 3.181643 1_555
Lu1 Zn1 3.459254 1_555
Lu1 Zn0 3.459254 1_455
Lu2 Zn3 3.001882 1_555
Lu2 Zn62 3.014425 1_556
Lu2 Zn59 3.014425 1_556
Lu2 Zn88 3.038550 1_555
Lu2 Zn85 3.038550 1_555
Lu2 Zn87 3.038792 1_555
Lu2 Zn84 3.038792 1_555
Lu2 Zn92 3.041014 1_555
Lu2 Zn110 3.041014 1_555
Lu2 Zn95 3.041087 1_555
Lu2 Zn113 3.041087 1_555
Lu2 Zn68 3.085139 1_555
Lu2 Zn77 3.085139 1_555
Lu2 Zn33 3.278816 1_556
Lu2 Zn36 3.278816 1_556
Lu3 Zn3 3.002378 1_555
Lu3 Zn63 3.014499 1_555
Lu3 Zn60 3.014499 1_555
Lu3 Zn83 3.038940 1_555
Lu3 Zn86 3.038940 1_555
Lu3 Zn85 3.038940 1_555
Lu3 Zn88 3.038940 1_555
Lu3 Zn97 3.040990 1_555
Lu3 Zn115 3.040990 1_555
Lu3 Zn93 3.040990 1_555
Lu3 Zn111 3.040990 1_555
Lu3 Zn69 3.085385 1_555
Lu3 Zn78 3.085385 1_555
Lu3 Zn34 3.278759 1_555
Lu3 Zn35 3.278759 1_555
Lu4 Zn3 3.001882 1_555
Lu4 Zn64 3.014425 1_545
Lu4 Zn61 3.014425 1_545
Lu4 Zn86 3.038550 1_555
Lu4 Zn83 3.038550 1_555
Lu4 Zn84 3.038792 1_555
Lu4 Zn87 3.038792 1_555
Lu4 Zn114 3.041014 1_555
Lu4 Zn96 3.041014 1_555
Lu4 Zn112 3.041087 1_555
Lu4 Zn94 3.041087 1_555
Lu4 Zn79 3.085139 1_555
Lu4 Zn70 3.085139 1_555
Lu4 Zn37 3.278816 1_545
Lu4 Zn32 3.278816 1_545
Lu5 Zn2 3.001882 1_555
Lu5 Zn56 3.014425 1_554
Lu5 Zn65 3.014425 1_554
Lu5 Zn91 3.038550 1_555
Lu5 Zn82 3.038550 1_555
Lu5 Zn90 3.038792 1_555
Lu5 Zn81 3.038792 1_555
Lu5 Zn104 3.041014 1_555
Lu5 Zn98 3.041014 1_555
Lu5 Zn107 3.041087 1_555
Lu5 Zn101 3.041087 1_555
Lu5 Zn71 3.085139 1_555
Lu5 Zn74 3.085139 1_555
Lu5 Zn39 3.278816 1_554
Lu5 Zn42 3.278816 1_554
Lu6 Zn2 3.002378 1_555
Lu6 Zn57 3.014499 1_555
Lu6 Zn66 3.014499 1_555
Lu6 Zn82 3.038940 1_555
Lu6 Zn91 3.038940 1_555
Lu6 Zn80 3.038940 1_555
Lu6 Zn89 3.038940 1_555
Lu6 Zn99 3.040990 1_555
Lu6 Zn105 3.040990 1_555
Lu6 Zn109 3.040990 1_555
Lu6 Zn103 3.040990 1_555
Lu6 Zn75 3.085385 1_555
Lu6 Zn72 3.085385 1_555
Lu6 Zn41 3.278759 1_555
Lu6 Zn40 3.278759 1_555
Lu7 Zn2 3.001882 1_555
Lu7 Zn58 3.014425 1_565
Lu7 Zn67 3.014425 1_565
Lu7 Zn80 3.038550 1_555
Lu7 Zn89 3.038550 1_555
Lu7 Zn90 3.038792 1_555
Lu7 Zn81 3.038792 1_555
Lu7 Zn108 3.041014 1_555
Lu7 Zn102 3.041014 1_555
Lu7 Zn106 3.041087 1_555
Lu7 Zn100 3.041087 1_555
Lu7 Zn76 3.085139 1_555
Lu7 Zn73 3.085139 1_555
Lu7 Zn43 3.278816 1_565
Lu7 Zn38 3.278816 1_565
Lu8 Zn83 2.929779 1_555
Lu8 Zn86 2.929779 1_555
Lu8 Zn46 3.100704 1_555
Lu8 Zn55 3.100704 1_555
Lu8 Zn54 3.101139 1_545
Lu8 Zn45 3.101139 1_545
Lu8 Zn0 3.137365 1_555
Lu8 Zn34 3.198338 1_555
Lu8 Zn37 3.199025 1_545
Lu8 Zn93 3.211328 1_555
Lu8 Zn111 3.211328 1_555
Lu8 Zn114 3.211606 1_555
Lu8 Zn96 3.211606 1_555
Lu9 Zn87 2.929704 1_555
Lu9 Zn84 2.929704 1_555
Lu9 Zn46 3.101068 1_556
Lu9 Zn55 3.101068 1_556
Lu9 Zn44 3.101068 1_545
Lu9 Zn53 3.101068 1_545
Lu9 Zn0 3.137091 1_556
Lu9 Zn32 3.198925 1_545
Lu9 Zn36 3.198925 1_556
Lu9 Zn95 3.211518 1_555
Lu9 Zn113 3.211518 1_555
Lu9 Zn112 3.211518 1_555
Lu9 Zn94 3.211518 1_555
Lu10 Zn88 2.929779 1_555
Lu10 Zn85 2.929779 1_555
Lu10 Zn53 3.100704 1_555
Lu10 Zn44 3.100704 1_555
Lu10 Zn54 3.101139 1_556
Lu10 Zn45 3.101139 1_556
Lu10 Zn0 3.137365 1_566
Lu10 Zn35 3.198338 1_555
Lu10 Zn33 3.199025 1_556
Lu10 Zn115 3.211328 1_555
Lu10 Zn97 3.211328 1_555
Lu10 Zn110 3.211606 1_555
Lu10 Zn92 3.211606 1_555
Lu11 Zn80 2.929779 1_555
Lu11 Zn89 2.929779 1_555
Lu11 Zn52 3.100704 1_555
Lu11 Zn49 3.100704 1_555
Lu11 Zn51 3.101139 1_565
Lu11 Zn48 3.101139 1_565
Lu11 Zn1 3.137365 1_566
Lu11 Zn40 3.198338 1_555
Lu11 Zn43 3.199025 1_565
Lu11 Zn99 3.211328 1_555
Lu11 Zn105 3.211328 1_555
Lu11 Zn102 3.211606 1_555
Lu11 Zn108 3.211606 1_555
Lu12 Zn81 2.929704 1_555
Lu12 Zn90 2.929704 1_555
Lu12 Zn47 3.101068 1_565
Lu12 Zn50 3.101068 1_565
Lu12 Zn49 3.101068 1_554
Lu12 Zn52 3.101068 1_554
Lu12 Zn1 3.137091 1_565
Lu12 Zn42 3.198925 1_554
Lu12 Zn38 3.198925 1_565
Lu12 Zn100 3.211518 1_555
Lu12 Zn106 3.211518 1_555
Lu12 Zn107 3.211518 1_555
Lu12 Zn101 3.211518 1_555
Lu13 Zn91 2.929779 1_555
Lu13 Zn82 2.929779 1_555
Lu13 Zn50 3.100704 1_555
Lu13 Zn47 3.100704 1_555
Lu13 Zn51 3.101139 1_554
Lu13 Zn48 3.101139 1_554
Lu13 Zn1 3.137365 1_555
Lu13 Zn41 3.198338 1_555
Lu13 Zn39 3.199025 1_554
Lu13 Zn109 3.211328 1_555
Lu13 Zn103 3.211328 1_555
Lu13 Zn104 3.211606 1_555
Lu13 Zn98 3.211606 1_555
Lu14 Zn89 2.981681 1_555
Lu14 Zn102 3.035275 1_555
Lu14 Zn99 3.035339 1_555
Lu14 Zn22 3.044904 1_565
Lu14 Zn25 3.045125 1_555
Lu14 Zn73 3.057323 1_555
Lu14 Zn72 3.057440 1_555
Lu14 Zn44 3.092671 1_555
Lu14 Zn94 3.100859 1_565
Lu14 Zn97 3.100995 1_555
Lu14 Zn32 3.127703 1_555
Lu14 Zn35 3.127844 1_555
Lu14 Zn64 3.140298 1_555
Lu14 Zn63 3.140352 1_555
Lu14 Zn14 3.149966 1_555
Lu14 Zn4 3.179639 1_555
Lu15 Zn90 2.981777 1_555
Lu15 Zn101 3.035439 1_555
Lu15 Zn100 3.035439 1_555
Lu15 Zn24 3.045279 1_565
Lu15 Zn20 3.045279 1_555
Lu15 Zn71 3.057605 1_555
Lu15 Zn73 3.057605 1_555
Lu15 Zn45 3.092813 1_555
Lu15 Zn96 3.100949 1_565
Lu15 Zn92 3.100949 1_554
Lu15 Zn37 3.127634 1_555
Lu15 Zn33 3.127634 1_555
Lu15 Zn64 3.140346 1_555
Lu15 Zn62 3.140346 1_555
Lu15 Zn15 3.149620 1_555
Lu15 Zn4 3.179093 1_555
Lu16 Zn91 2.981681 1_555
Lu16 Zn98 3.035275 1_555
Lu16 Zn103 3.035339 1_555
Lu16 Zn23 3.044904 1_555
Lu16 Zn21 3.045125 1_555
Lu16 Zn71 3.057323 1_555
Lu16 Zn72 3.057440 1_555
Lu16 Zn46 3.092671 1_555
Lu16 Zn95 3.100859 1_554
Lu16 Zn93 3.100995 1_555
Lu16 Zn36 3.127703 1_555
Lu16 Zn34 3.127844 1_555
Lu16 Zn62 3.140298 1_555
Lu16 Zn63 3.140352 1_555
Lu16 Zn16 3.149966 1_555
Lu16 Zn4 3.179639 1_555
Lu17 Zn86 2.981681 1_555
Lu17 Zn96 3.035275 1_555
Lu17 Zn93 3.035339 1_555
Lu17 Zn24 3.044904 1_555
Lu17 Zn21 3.045125 1_555
Lu17 Zn70 3.057323 1_555
Lu17 Zn69 3.057440 1_555
Lu17 Zn47 3.092671 1_555
Lu17 Zn100 3.100859 1_545
Lu17 Zn103 3.100995 1_555
Lu17 Zn38 3.127703 1_555
Lu17 Zn41 3.127844 1_555
Lu17 Zn67 3.140298 1_555
Lu17 Zn66 3.140352 1_555
Lu17 Zn17 3.149966 1_555
Lu17 Zn5 3.179639 1_555
Lu18 Zn87 2.981777 1_555
Lu18 Zn94 3.035439 1_555
Lu18 Zn95 3.035439 1_555
Lu18 Zn23 3.045279 1_556
Lu18 Zn22 3.045279 1_555
Lu18 Zn68 3.057605 1_555
Lu18 Zn70 3.057605 1_555
Lu18 Zn48 3.092813 1_555
Lu18 Zn98 3.100949 1_556
Lu18 Zn102 3.100949 1_545
Lu18 Zn39 3.127634 1_555
Lu18 Zn43 3.127634 1_555
Lu18 Zn67 3.140346 1_555
Lu18 Zn65 3.140346 1_555
Lu18 Zn18 3.149620 1_555
Lu18 Zn5 3.179093 1_555
Lu19 Zn88 2.981681 1_555
Lu19 Zn92 3.035275 1_555
Lu19 Zn97 3.035339 1_555
Lu19 Zn20 3.044904 1_556
Lu19 Zn25 3.045125 1_555
Lu19 Zn68 3.057323 1_555
Lu19 Zn69 3.057440 1_555
Lu19 Zn49 3.092671 1_555
Lu19 Zn101 3.100859 1_556
Lu19 Zn99 3.100995 1_555
Lu19 Zn42 3.127703 1_555
Lu19 Zn40 3.127844 1_555
Lu19 Zn65 3.140298 1_555
Lu19 Zn66 3.140352 1_555
Lu19 Zn19 3.149966 1_555
Lu19 Zn5 3.179639 1_555
Lu20 Zn83 2.981681 1_455
Lu20 Zn114 3.035275 1_455
Lu20 Zn111 3.035339 1_455
Lu20 Zn28 3.044904 1_555
Lu20 Zn31 3.045125 1_555
Lu20 Zn79 3.057323 1_455
Lu20 Zn78 3.057440 1_455
Lu20 Zn50 3.092671 1_555
Lu20 Zn106 3.100859 1_545
Lu20 Zn109 3.100995 1_555
Lu20 Zn38 3.127703 1_555
Lu20 Zn41 3.127844 1_555
Lu20 Zn58 3.140298 1_555
Lu20 Zn57 3.140352 1_555
Lu20 Zn17 3.149966 1_555
Lu20 Zn6 3.179639 1_555
Lu21 Zn84 2.981777 1_455
Lu21 Zn112 3.035439 1_455
Lu21 Zn113 3.035439 1_455
Lu21 Zn26 3.045279 1_556
Lu21 Zn30 3.045279 1_555
Lu21 Zn77 3.057605 1_455
Lu21 Zn79 3.057605 1_455
Lu21 Zn51 3.092813 1_555
Lu21 Zn104 3.100949 1_556
Lu21 Zn108 3.100949 1_545
Lu21 Zn39 3.127634 1_555
Lu21 Zn43 3.127634 1_555
Lu21 Zn58 3.140346 1_555
Lu21 Zn56 3.140346 1_555
Lu21 Zn18 3.149620 1_555
Lu21 Zn6 3.179093 1_555
Lu22 Zn85 2.981681 1_455
Lu22 Zn110 3.035275 1_455
Lu22 Zn115 3.035339 1_455
Lu22 Zn29 3.044904 1_556
Lu22 Zn27 3.045125 1_555
Lu22 Zn77 3.057323 1_455
Lu22 Zn78 3.057440 1_455
Lu22 Zn52 3.092671 1_555
Lu22 Zn107 3.100859 1_556
Lu22 Zn105 3.100995 1_555
Lu22 Zn42 3.127703 1_555
Lu22 Zn40 3.127844 1_555
Lu22 Zn56 3.140298 1_555
Lu22 Zn57 3.140352 1_555
Lu22 Zn19 3.149966 1_555
Lu22 Zn6 3.179639 1_555
Lu23 Zn80 2.981681 1_655
Lu23 Zn108 3.035275 1_655
Lu23 Zn105 3.035339 1_655
Lu23 Zn30 3.044904 1_665
Lu23 Zn27 3.045125 1_655
Lu23 Zn76 3.057323 1_655
Lu23 Zn75 3.057440 1_655
Lu23 Zn53 3.092671 1_555
Lu23 Zn112 3.100859 1_565
Lu23 Zn115 3.100995 1_555
Lu23 Zn32 3.127703 1_555
Lu23 Zn35 3.127844 1_555
Lu23 Zn61 3.140298 1_555
Lu23 Zn60 3.140352 1_555
Lu23 Zn14 3.149966 1_555
Lu23 Zn7 3.179639 1_555
Lu24 Zn81 2.981777 1_655
Lu24 Zn107 3.035439 1_655
Lu24 Zn106 3.035439 1_655
Lu24 Zn28 3.045279 1_665
Lu24 Zn29 3.045279 1_655
Lu24 Zn74 3.057605 1_655
Lu24 Zn76 3.057605 1_655
Lu24 Zn54 3.092813 1_555
Lu24 Zn114 3.100949 1_565
Lu24 Zn110 3.100949 1_554
Lu24 Zn37 3.127634 1_555
Lu24 Zn33 3.127634 1_555
Lu24 Zn61 3.140346 1_555
Lu24 Zn59 3.140346 1_555
Lu24 Zn15 3.149620 1_555
Lu24 Zn7 3.179093 1_555
Lu25 Zn82 2.981681 1_655
Lu25 Zn104 3.035275 1_655
Lu25 Zn109 3.035339 1_655
Lu25 Zn26 3.044904 1_655
Lu25 Zn31 3.045125 1_655
Lu25 Zn74 3.057323 1_655
Lu25 Zn75 3.057440 1_655
Lu25 Zn55 3.092671 1_555
Lu25 Zn113 3.100859 1_554
Lu25 Zn111 3.100995 1_555
Lu25 Zn36 3.127703 1_555
Lu25 Zn34 3.127844 1_555
Lu25 Zn59 3.140298 1_555
Lu25 Zn60 3.140352 1_555
Lu25 Zn16 3.149966 1_555
Lu25 Zn7 3.179639 1_555
Zn0 Zn54 2.659080 1_545
Zn0 Zn45 2.659080 1_545
Zn0 Zn55 2.659211 1_555
Zn0 Zn46 2.659211 1_555
Zn0 Zn53 2.659211 1_544
Zn0 Zn44 2.659211 1_544
Zn1 Zn51 2.659080 1_554
Zn1 Zn48 2.659080 1_554
Zn1 Zn50 2.659211 1_555
Zn1 Zn47 2.659211 1_555
Zn1 Zn49 2.659211 1_544
Zn1 Zn52 2.659211 1_544
Zn2 Zn81 2.729968 1_555
Zn2 Zn90 2.729968 1_555
Zn2 Zn89 2.730113 1_555
Zn2 Zn80 2.730113 1_555
Zn2 Zn91 2.730113 1_555
Zn2 Zn82 2.730113 1_555
Zn3 Zn84 2.729968 1_555
Zn3 Zn87 2.729968 1_555
Zn3 Zn88 2.730113 1_555
Zn3 Zn85 2.730113 1_555
Zn3 Zn83 2.730113 1_555
Zn3 Zn86 2.730113 1_555
Zn4 Zn71 2.592629 1_555
Zn4 Zn73 2.592629 1_555
Zn4 Zn72 2.592702 1_555
Zn4 Zn62 2.634909 1_555
Zn4 Zn64 2.634909 1_555
Zn4 Zn63 2.635027 1_555
Zn5 Zn70 2.592629 1_555
Zn5 Zn68 2.592629 1_555
Zn5 Zn69 2.592702 1_555
Zn5 Zn67 2.634909 1_555
Zn5 Zn65 2.634909 1_555
Zn5 Zn66 2.635027 1_555
Zn6 Zn79 2.592629 1_455
Zn6 Zn77 2.592629 1_455
Zn6 Zn78 2.592702 1_455
Zn7 Zn76 2.592629 1_655
Zn7 Zn74 2.592629 1_655
Zn7 Zn75 2.592702 1_655
Zn8 Zn92 2.619589 1_554
Zn8 Zn98 2.619589 1_555
Zn8 Zn95 2.619629 1_554
Zn9 Zn99 2.619591 1_555
Zn9 Zn93 2.619591 1_555
Zn9 Zn97 2.619591 1_555
Zn10 Zn64 2.499758 1_545
Zn10 Zn67 2.499758 1_555
Zn10 Zn70 2.580949 1_555
Zn10 Zn73 2.580949 1_545
Zn10 Zn102 2.619589 1_545
Zn10 Zn96 2.619589 1_555
Zn10 Zn94 2.619629 1_555
Zn10 Zn100 2.619629 1_545
Zn11 Zn56 2.499758 1_554
Zn11 Zn59 2.499758 1_455
Zn11 Zn74 2.580949 1_555
Zn11 Zn77 2.580949 1_454
Zn11 Zn110 2.619589 1_454
Zn11 Zn113 2.619629 1_454
Zn12 Zn60 2.499687 1_455
Zn12 Zn57 2.499687 1_555
Zn12 Zn75 2.580842 1_555
Zn12 Zn78 2.580842 1_455
Zn13 Zn61 2.499758 1_445
Zn13 Zn58 2.499758 1_555
Zn13 Zn79 2.580949 1_455
Zn13 Zn76 2.580949 1_545
Zn14 Zn32 2.549155 1_555
Zn14 Zn35 2.549476 1_555
Zn14 Zn7 2.644711 1_555
Zn14 Zn4 2.644711 1_555
Zn14 Zn64 2.680563 1_555
Zn14 Zn61 2.680563 1_555
Zn14 Zn60 2.680719 1_555
Zn14 Zn63 2.680719 1_555
Zn14 Zn16 2.709788 1_555
Zn14 Zn15 2.709865 1_555
Zn15 Zn33 2.549052 1_555
Zn15 Zn37 2.549052 1_555
Zn15 Zn7 2.644623 1_555
Zn15 Zn4 2.644623 1_555
Zn15 Zn59 2.680737 1_555
Zn15 Zn62 2.680737 1_555
Zn15 Zn64 2.680737 1_555
Zn15 Zn61 2.680737 1_555
Zn15 Zn16 2.709865 1_555
Zn16 Zn36 2.549155 1_555
Zn16 Zn34 2.549476 1_555
Zn16 Zn7 2.644711 1_555
Zn16 Zn4 2.644711 1_555
Zn16 Zn59 2.680563 1_555
Zn16 Zn62 2.680563 1_555
Zn16 Zn60 2.680719 1_555
Zn16 Zn63 2.680719 1_555
Zn17 Zn38 2.549155 1_555
Zn17 Zn41 2.549476 1_555
Zn17 Zn5 2.644711 1_555
Zn17 Zn6 2.644711 1_555
Zn17 Zn58 2.680563 1_555
Zn17 Zn67 2.680563 1_555
Zn17 Zn57 2.680719 1_555
Zn17 Zn66 2.680719 1_555
Zn17 Zn19 2.709788 1_555
Zn17 Zn18 2.709865 1_555
Zn18 Zn43 2.549052 1_555
Zn18 Zn39 2.549052 1_555
Zn18 Zn6 2.644623 1_555
Zn18 Zn5 2.644623 1_555
Zn18 Zn58 2.680737 1_555
Zn18 Zn56 2.680737 1_555
Zn18 Zn67 2.680737 1_555
Zn18 Zn65 2.680737 1_555
Zn18 Zn19 2.709865 1_555
Zn19 Zn42 2.549155 1_555
Zn19 Zn40 2.549476 1_555
Zn19 Zn6 2.644711 1_555
Zn19 Zn5 2.644711 1_555
Zn19 Zn56 2.680563 1_555
Zn19 Zn65 2.680563 1_555
Zn19 Zn66 2.680719 1_555
Zn19 Zn57 2.680719 1_555
Zn20 Zn92 2.554932 1_554
Zn20 Zn49 2.598930 1_554
Zn20 Zn45 2.599077 1_555
Zn20 Zn25 2.844875 1_554
Zn20 Zn24 2.845345 1_565
Zn21 Zn93 2.555077 1_555
Zn21 Zn46 2.598786 1_555
Zn21 Zn47 2.598786 1_555
Zn21 Zn24 2.844875 1_555
Zn21 Zn23 2.844875 1_555
Zn22 Zn94 2.554877 1_555
Zn22 Zn44 2.598930 1_545
Zn22 Zn48 2.599077 1_555
Zn22 Zn25 2.844875 1_545
Zn22 Zn23 2.845345 1_556
Zn23 Zn95 2.554877 1_554
Zn23 Zn98 2.554932 1_555
Zn23 Zn46 2.598930 1_555
Zn23 Zn48 2.599077 1_554
Zn24 Zn96 2.554932 1_555
Zn24 Zn47 2.598930 1_555
Zn24 Zn45 2.599077 1_545
Zn25 Zn99 2.555077 1_555
Zn25 Zn97 2.555077 1_555
Zn25 Zn49 2.598786 1_555
Zn25 Zn44 2.598786 1_555
Zn26 Zn55 2.598930 1_455
Zn26 Zn51 2.599077 1_554
Zn26 Zn31 2.844875 1_555
Zn26 Zn30 2.845345 1_554
Zn27 Zn52 2.598786 1_555
Zn27 Zn53 2.598786 1_455
Zn27 Zn29 2.844875 1_556
Zn27 Zn30 2.844875 1_565
Zn28 Zn50 2.598930 1_555
Zn28 Zn54 2.599077 1_445
Zn28 Zn31 2.844875 1_555
Zn28 Zn29 2.845345 1_545
Zn29 Zn52 2.598930 1_554
Zn29 Zn54 2.599077 1_455
Zn30 Zn53 2.598930 1_445
Zn30 Zn51 2.599077 1_555
Zn31 Zn50 2.598786 1_555
Zn31 Zn55 2.598786 1_455
Zn32 Zn94 2.542884 1_565
Zn32 Zn35 2.795102 1_555
Zn32 Zn44 2.874847 1_555
Zn32 Zn53 2.874847 1_555
Zn32 Zn61 2.953748 1_555
Zn32 Zn64 2.953748 1_555
Zn33 Zn92 2.542809 1_554
Zn33 Zn37 2.795195 1_555
Zn33 Zn54 2.874824 1_555
Zn33 Zn45 2.874824 1_555
Zn33 Zn59 2.953885 1_555
Zn33 Zn62 2.953885 1_555
Zn34 Zn93 2.542785 1_555
Zn34 Zn36 2.795102 1_555
Zn34 Zn46 2.874538 1_555
Zn34 Zn55 2.874538 1_555
Zn34 Zn63 2.954168 1_555
Zn34 Zn60 2.954168 1_555
Zn35 Zn97 2.542785 1_555
Zn35 Zn53 2.874538 1_555
Zn35 Zn44 2.874538 1_555
Zn35 Zn63 2.954168 1_555
Zn35 Zn60 2.954168 1_555
Zn36 Zn95 2.542884 1_554
Zn36 Zn46 2.874847 1_555
Zn36 Zn55 2.874847 1_555
Zn36 Zn59 2.953748 1_555
Zn36 Zn62 2.953748 1_555
Zn37 Zn96 2.542809 1_565
Zn37 Zn45 2.874824 1_555
Zn37 Zn54 2.874824 1_555
Zn37 Zn64 2.953885 1_555
Zn37 Zn61 2.953885 1_555
Zn38 Zn41 2.795102 1_555
Zn38 Zn50 2.874847 1_555
Zn38 Zn47 2.874847 1_555
Zn38 Zn58 2.953748 1_555
Zn38 Zn67 2.953748 1_555
Zn39 Zn98 2.542809 1_556
Zn39 Zn43 2.795195 1_555
Zn39 Zn51 2.874824 1_555
Zn39 Zn48 2.874824 1_555
Zn39 Zn56 2.953885 1_555
Zn39 Zn65 2.953885 1_555
Zn40 Zn99 2.542785 1_555
Zn40 Zn42 2.795102 1_555
Zn40 Zn49 2.874538 1_555
Zn40 Zn52 2.874538 1_555
Zn40 Zn57 2.954168 1_555
Zn40 Zn66 2.954168 1_555
Zn41 Zn50 2.874538 1_555
Zn41 Zn47 2.874538 1_555
Zn41 Zn57 2.954168 1_555
Zn41 Zn66 2.954168 1_555
Zn42 Zn49 2.874847 1_555
Zn42 Zn52 2.874847 1_555
Zn42 Zn65 2.953748 1_555
Zn42 Zn56 2.953748 1_555
Zn43 Zn48 2.874824 1_555
Zn43 Zn51 2.874824 1_555
Zn43 Zn58 2.953885 1_555
Zn43 Zn67 2.953885 1_555
Zn44 Zn53 2.577174 1_555
Zn45 Zn54 2.577012 1_555
Zn46 Zn55 2.577174 1_555
Zn47 Zn50 2.577174 1_555
Zn48 Zn51 2.577012 1_555
Zn49 Zn52 2.577174 1_555
Zn56 Zn6 2.634909 1_555
Zn56 Zn77 2.842716 1_455
Zn56 Zn65 2.972540 1_555
Zn57 Zn6 2.635027 1_555
Zn57 Zn78 2.842255 1_455
Zn57 Zn66 2.972957 1_555
Zn58 Zn6 2.634909 1_555
Zn58 Zn79 2.842716 1_455
Zn58 Zn67 2.972540 1_555
Zn59 Zn7 2.634909 1_555
Zn59 Zn74 2.842716 1_655
Zn59 Zn62 2.972540 1_555
Zn60 Zn7 2.635027 1_555
Zn60 Zn75 2.842255 1_655
Zn60 Zn63 2.972957 1_555
Zn61 Zn7 2.634909 1_555
Zn61 Zn76 2.842716 1_655
Zn61 Zn64 2.972540 1_555
Zn62 Zn8 2.499758 1_555
Zn62 Zn71 2.842716 1_555
Zn62 Zn92 2.980591 1_554
Zn62 Zn95 2.980596 1_554
Zn63 Zn9 2.499687 1_555
Zn63 Zn72 2.842255 1_555
Zn63 Zn93 2.980643 1_555
Zn63 Zn97 2.980643 1_555
Zn64 Zn73 2.842716 1_555
Zn64 Zn96 2.980591 1_565
Zn64 Zn94 2.980596 1_565
Zn65 Zn8 2.499758 1_556
Zn65 Zn68 2.842716 1_555
Zn65 Zn98 2.980591 1_556
Zn66 Zn9 2.499687 1_555
Zn66 Zn69 2.842255 1_555
Zn66 Zn99 2.980643 1_555
Zn67 Zn70 2.842716 1_555
Zn68 Zn8 2.580949 1_556
Zn68 Zn88 2.581784 1_555
Zn68 Zn87 2.582228 1_555
Zn68 Zn69 2.784097 1_555
Zn68 Zn70 2.784314 1_555
Zn68 Zn92 3.052503 1_555
Zn68 Zn95 3.052688 1_555
Zn69 Zn9 2.580842 1_555
Zn69 Zn88 2.582205 1_555
Zn69 Zn86 2.582205 1_555
Zn69 Zn70 2.784097 1_555
Zn69 Zn93 3.052586 1_555
Zn69 Zn97 3.052586 1_555
Zn70 Zn86 2.581784 1_555
Zn70 Zn87 2.582228 1_555
Zn70 Zn96 3.052503 1_555
Zn70 Zn94 3.052688 1_555
Zn71 Zn8 2.580949 1_555
Zn71 Zn91 2.581784 1_555
Zn71 Zn90 2.582228 1_555
Zn71 Zn72 2.784097 1_555
Zn71 Zn73 2.784314 1_555
Zn71 Zn98 3.052503 1_555
Zn72 Zn9 2.580842 1_555
Zn72 Zn89 2.582205 1_555
Zn72 Zn91 2.582205 1_555
Zn72 Zn73 2.784097 1_555
Zn72 Zn99 3.052586 1_555
Zn73 Zn89 2.581784 1_555
Zn73 Zn90 2.582228 1_555
Zn74 Zn82 2.581784 1_555
Zn74 Zn81 2.582228 1_555
Zn74 Zn75 2.784097 1_555
Zn74 Zn76 2.784314 1_555
Zn75 Zn80 2.582205 1_555
Zn75 Zn82 2.582205 1_555
Zn75 Zn76 2.784097 1_555
Zn76 Zn80 2.581784 1_555
Zn76 Zn81 2.582228 1_555
Zn77 Zn85 2.581784 1_555
Zn77 Zn84 2.582228 1_555
Zn77 Zn78 2.784097 1_555
Zn77 Zn79 2.784314 1_555
Zn78 Zn85 2.582205 1_555
Zn78 Zn83 2.582205 1_555
Zn78 Zn79 2.784097 1_555
Zn79 Zn83 2.581784 1_555
Zn79 Zn84 2.582228 1_555
Zn80 Zn89 2.569592 1_555
Zn81 Zn90 2.569607 1_555
Zn82 Zn91 2.569592 1_555
Zn83 Zn86 2.569592 1_555
Zn84 Zn87 2.569607 1_555
Zn85 Zn88 2.569592 1_555
Zn86 Zn96 2.557555 1_555
Zn86 Zn93 2.557767 1_555
Zn87 Zn94 2.557577 1_555
Zn87 Zn95 2.557577 1_555
Zn88 Zn92 2.557555 1_555
Zn88 Zn97 2.557767 1_555
Zn89 Zn99 2.557767 1_555
Zn91 Zn98 2.557555 1_555
Zn95 Zn98 2.968304 1_556
Zn97 Zn99 2.968313 1_555
Zn100 Zn38 2.542884 1_565
Zn100 Zn24 2.554877 1_565
Zn100 Zn90 2.557577 1_555
Zn100 Zn96 2.968304 1_565
Zn100 Zn67 2.980596 1_565
Zn100 Zn73 3.052688 1_555
Zn101 Zn42 2.542884 1_554
Zn101 Zn20 2.554877 1_555
Zn101 Zn90 2.557577 1_555
Zn101 Zn8 2.619629 1_555
Zn101 Zn92 2.968304 1_554
Zn101 Zn65 2.980596 1_554
Zn101 Zn71 3.052688 1_555
Zn102 Zn43 2.542809 1_565
Zn102 Zn22 2.554932 1_565
Zn102 Zn89 2.557555 1_555
Zn102 Zn94 2.968304 1_565
Zn102 Zn67 2.980591 1_565
Zn102 Zn73 3.052503 1_555
Zn103 Zn41 2.542785 1_555
Zn103 Zn21 2.555077 1_555
Zn103 Zn91 2.557767 1_555
Zn103 Zn9 2.619591 1_555
Zn103 Zn93 2.968313 1_555
Zn103 Zn66 2.980643 1_555
Zn103 Zn72 3.052586 1_555
Zn104 Zn39 2.542809 1_554
Zn104 Zn26 2.554932 1_555
Zn104 Zn82 2.557555 1_555
Zn104 Zn11 2.619589 1_555
Zn104 Zn113 2.968304 1_454
Zn104 Zn56 2.980591 1_554
Zn104 Zn74 3.052503 1_555
Zn105 Zn40 2.542785 1_555
Zn105 Zn27 2.555077 1_555
Zn105 Zn80 2.557767 1_555
Zn105 Zn12 2.619591 1_555
Zn105 Zn115 2.968313 1_455
Zn105 Zn57 2.980643 1_555
Zn105 Zn75 3.052586 1_555
Zn106 Zn38 2.542884 1_565
Zn106 Zn28 2.554877 1_565
Zn106 Zn81 2.557577 1_555
Zn106 Zn13 2.619629 1_565
Zn106 Zn114 2.968304 1_465
Zn106 Zn58 2.980596 1_565
Zn106 Zn76 3.052688 1_555
Zn107 Zn42 2.542884 1_554
Zn107 Zn29 2.554877 1_555
Zn107 Zn81 2.557577 1_555
Zn107 Zn11 2.619629 1_555
Zn107 Zn110 2.968304 1_454
Zn107 Zn56 2.980596 1_554
Zn107 Zn74 3.052688 1_555
Zn108 Zn43 2.542809 1_565
Zn108 Zn30 2.554932 1_565
Zn108 Zn80 2.557555 1_555
Zn108 Zn13 2.619589 1_565
Zn108 Zn112 2.968304 1_465
Zn108 Zn58 2.980591 1_565
Zn108 Zn76 3.052503 1_555
Zn109 Zn41 2.542785 1_555
Zn109 Zn31 2.555077 1_555
Zn109 Zn82 2.557767 1_555
Zn109 Zn12 2.619591 1_555
Zn109 Zn111 2.968313 1_455
Zn109 Zn57 2.980643 1_555
Zn109 Zn75 3.052586 1_555
Zn110 Zn33 2.542809 1_556
Zn110 Zn29 2.554932 1_656
Zn110 Zn85 2.557555 1_555
Zn110 Zn59 2.980591 1_556
Zn110 Zn77 3.052503 1_555
Zn111 Zn34 2.542785 1_555
Zn111 Zn31 2.555077 1_655
Zn111 Zn83 2.557767 1_555
Zn111 Zn12 2.619591 1_655
Zn111 Zn60 2.980643 1_555
Zn111 Zn78 3.052586 1_555
Zn112 Zn32 2.542884 1_545
Zn112 Zn30 2.554877 1_655
Zn112 Zn84 2.557577 1_555
Zn112 Zn13 2.619629 1_655
Zn112 Zn61 2.980596 1_545
Zn112 Zn79 3.052688 1_555
Zn113 Zn36 2.542884 1_556
Zn113 Zn26 2.554877 1_656
Zn113 Zn84 2.557577 1_555
Zn113 Zn59 2.980596 1_556
Zn113 Zn77 3.052688 1_555
Zn114 Zn37 2.542809 1_545
Zn114 Zn28 2.554932 1_655
Zn114 Zn83 2.557555 1_555
Zn114 Zn13 2.619589 1_655
Zn114 Zn61 2.980591 1_545
Zn114 Zn79 3.052503 1_555
Zn115 Zn35 2.542785 1_555
Zn115 Zn27 2.555077 1_655
Zn115 Zn85 2.557767 1_555
Zn115 Zn12 2.619591 1_655
Zn115 Zn60 2.980643 1_555
Zn115 Zn78 3.052586 1_555
