# generated using pymatgen
data_Mg14VSn
_symmetry_space_group_name_H-M   'P 1'
_cell_length_a   6.32281296
_cell_length_b   6.23941508
_cell_length_c   10.34465145
_cell_angle_alpha   90.00000000
_cell_angle_beta   90.00000000
_cell_angle_gamma   119.56463452
_symmetry_Int_Tables_number   1
_chemical_formula_structural   Mg14VSn
_chemical_formula_sum   'Mg14 V1 Sn1'
_cell_volume   354.96808024
_cell_formula_units_Z   1
loop_
 _symmetry_equiv_pos_site_id
 _symmetry_equiv_pos_as_xyz
  1  'x, y, z'
loop_
 _atom_site_type_symbol
 _atom_site_label
 _atom_site_symmetry_multiplicity
 _atom_site_fract_x
 _atom_site_fract_y
 _atom_site_fract_z
 _atom_site_occupancy
  Mg  Mg0  1  0.16651890  0.33325895  0.62500000  1
  Mg  Mg1  1  0.16656471  0.83328186  0.62500000  1
  Mg  Mg2  1  0.66732747  0.33294559  0.12500000  1
  Mg  Mg3  1  0.66640765  0.33328324  0.62500000  1
  Mg  Mg4  1  0.66732747  0.83438087  0.12500000  1
  Mg  Mg5  1  0.66640765  0.83312341  0.62500000  1
  Mg  Mg6  1  0.33221571  0.16934784  0.37345237  1
  Mg  Mg7  1  0.33221571  0.16934784  0.87654763  1
  Mg  Mg8  1  0.33221571  0.66286887  0.37345237  1
  Mg  Mg9  1  0.33221571  0.66286887  0.87654763  1
  Mg  Mg10  1  0.83708951  0.16854525  0.37388609  1
  Mg  Mg11  1  0.83708951  0.16854525  0.87611391  1
  Mg  Mg12  1  0.83254448  0.66627274  0.37685471  1
  Mg  Mg13  1  0.83254448  0.66627274  0.87314529  1
  V  V0  1  0.16561513  0.33280707  0.12500000  1
  Sn  Sn0  1  0.16570020  0.83284960  0.12500000  1
loop_
_geom_bond_atom_site_label_1
_geom_bond_atom_site_label_2
_geom_bond_distance
_geom_bond_site_symmetry_2
Mg0 Mg1 3.119708 1_545
Mg0 Mg1 3.119708 1_555
Mg0 Mg7 3.157876 1_555
Mg0 Mg6 3.157876 1_555
Mg0 Mg8 3.157882 1_555
Mg0 Mg9 3.157882 1_555
Mg0 Mg5 3.160628 1_555
Mg0 Mg3 3.160628 1_555
Mg0 Mg5 3.162184 1_445
Mg0 Mg3 3.162185 1_455
Mg0 Mg10 3.167067 1_455
Mg0 Mg11 3.167067 1_455
Mg1 Mg13 3.156554 1_455
Mg1 Mg12 3.156554 1_455
Mg1 Mg3 3.160901 1_565
Mg1 Mg5 3.160901 1_555
Mg1 Mg3 3.161912 1_455
Mg1 Mg5 3.161912 1_455
Mg1 Mg8 3.177709 1_555
Mg1 Mg9 3.177709 1_555
Mg1 Mg7 3.177715 1_565
Mg1 Mg6 3.177715 1_565
Mg2 Mg4 3.110752 1_545
Mg2 Mg4 3.128663 1_555
Mg2 V0 3.151006 1_655
Mg2 Sn0 3.155842 1_655
Mg2 Mg7 3.162728 1_554
Mg2 Mg6 3.162728 1_555
Mg2 Sn0 3.166992 1_545
Mg2 V0 3.171807 1_555
Mg3 Mg5 3.118710 1_555
Mg3 Mg5 3.120705 1_545
Mg3 Mg7 3.185847 1_555
Mg3 Mg6 3.185847 1_555
Mg4 V0 3.151006 1_665
Mg4 Sn0 3.155843 1_655
Mg4 Mg9 3.162728 1_554
Mg4 Mg8 3.162728 1_555
Mg4 Sn0 3.166992 1_555
Mg4 V0 3.171807 1_555
Mg5 Mg9 3.185847 1_555
Mg5 Mg8 3.185847 1_555
Mg6 Mg8 3.079283 1_555
Mg6 V0 3.132993 1_555
Mg6 Sn0 3.152926 1_545
Mg6 Mg8 3.160133 1_545
Mg7 Mg9 3.079283 1_555
Mg7 V0 3.132993 1_556
Mg7 Sn0 3.152926 1_546
Mg7 Mg9 3.160133 1_545
Mg8 V0 3.132999 1_555
Mg8 Sn0 3.152920 1_555
Mg9 V0 3.132999 1_556
Mg9 Sn0 3.152920 1_556
Mg10 Mg12 3.119959 1_545
Mg10 Mg12 3.119959 1_555
Mg10 Mg8 3.128126 1_655
Mg10 Mg6 3.128126 1_655
Mg10 V0 3.145334 1_655
Mg10 Mg2 3.149538 1_555
Mg10 Mg4 3.149545 1_545
Mg10 Mg3 3.172345 1_555
Mg10 Mg5 3.172351 1_545
Mg10 Mg8 3.194699 1_545
Mg10 Mg6 3.194700 1_555
Mg11 Mg13 3.119959 1_545
Mg11 Mg13 3.119959 1_555
Mg11 Mg9 3.128126 1_655
Mg11 Mg7 3.128126 1_655
Mg11 V0 3.145334 1_656
Mg11 Mg2 3.149538 1_556
Mg11 Mg4 3.149545 1_546
Mg11 Mg3 3.172345 1_555
Mg11 Mg5 3.172351 1_545
Mg11 Mg9 3.194699 1_545
Mg11 Mg7 3.194700 1_555
Mg12 Mg5 3.139388 1_555
Mg12 Mg3 3.139394 1_555
Mg12 Mg6 3.153257 1_555
Mg12 Mg8 3.153257 1_555
Mg12 Mg6 3.170056 1_665
Mg12 Mg8 3.170056 1_655
Mg12 Mg4 3.171838 1_555
Mg12 Mg2 3.171844 1_555
Mg12 Sn0 3.185100 1_655
Mg13 Mg5 3.139388 1_555
Mg13 Mg3 3.139394 1_555
Mg13 Mg7 3.153257 1_555
Mg13 Mg9 3.153257 1_555
Mg13 Mg7 3.170056 1_665
Mg13 Mg9 3.170056 1_655
Mg13 Mg4 3.171838 1_556
Mg13 Mg2 3.171844 1_556
Mg13 Sn0 3.185100 1_656
Sn0 V0 3.119708 1_555
Sn0 V0 3.119708 1_565
