# generated using pymatgen
data_PrSnIr
_symmetry_space_group_name_H-M   'P 1'
_cell_length_a   7.47472010
_cell_length_b   7.47472010
_cell_length_c   4.21344164
_cell_angle_alpha   90.00000000
_cell_angle_beta   90.00000000
_cell_angle_gamma   120.00000163
_symmetry_Int_Tables_number   1
_chemical_formula_structural   PrSnIr
_chemical_formula_sum   'Pr3 Sn3 Ir3'
_cell_volume   203.87195016
_cell_formula_units_Z   3
loop_
 _symmetry_equiv_pos_site_id
 _symmetry_equiv_pos_as_xyz
  1  'x, y, z'
loop_
 _atom_site_type_symbol
 _atom_site_label
 _atom_site_symmetry_multiplicity
 _atom_site_fract_x
 _atom_site_fract_y
 _atom_site_fract_z
 _atom_site_occupancy
  Pr  Pr0  1  0.58695631  0.00000000  0.00000000  1
  Pr  Pr1  1  0.00000000  0.58695631  -0.00000000  1
  Pr  Pr2  1  0.41304369  0.41304369  0.00000000  1
  Sn  Sn0  1  0.24875399  0.00000000  0.50000000  1
  Sn  Sn1  1  0.00000000  0.24875399  0.50000000  1
  Sn  Sn2  1  0.75124601  0.75124601  0.50000000  1
  Ir  Ir0  1  0.33333300  0.66666700  0.50000000  1
  Ir  Ir1  1  0.66666700  0.33333300  0.50000000  1
  Ir  Ir2  1  -0.00000000  -0.00000000  0.00000000  1
loop_
_geom_bond_atom_site_label_1
_geom_bond_atom_site_label_2
_geom_bond_distance
_geom_bond_site_symmetry_2
Pr0 Sn0 3.290728 1_554
Pr0 Sn0 3.290728 1_555
Pr0 Sn1 3.418609 1_654
Pr0 Sn1 3.418609 1_655
Pr0 Sn2 3.418609 1_544
Pr0 Sn2 3.418609 1_545
Pr1 Sn1 3.290728 1_555
Pr1 Sn1 3.290728 1_554
Pr1 Sn0 3.418609 1_564
Pr1 Sn0 3.418609 1_565
Pr1 Sn2 3.418609 1_454
Pr1 Sn2 3.418609 1_455
Pr2 Sn2 3.290728 1_555
Pr2 Sn2 3.290728 1_554
Pr2 Sn1 3.418609 1_554
Pr2 Sn0 3.418609 1_555
Pr2 Sn1 3.418609 1_555
Pr2 Sn0 3.418609 1_554
Sn0 Sn2 3.220517 1_445
Sn0 Sn1 3.220517 1_555
Sn1 Sn2 3.220517 1_445
Ir0 Sn0 2.860558 1_565
Ir0 Sn1 2.860562 1_555
Ir0 Sn2 2.860565 1_555
Ir0 Pr1 3.084911 1_556
Ir0 Pr1 3.084911 1_555
Ir0 Pr0 3.084913 1_565
Ir0 Pr0 3.084913 1_566
Ir0 Pr2 3.084917 1_556
Ir0 Pr2 3.084917 1_555
Ir1 Sn1 2.860558 1_655
Ir1 Sn0 2.860562 1_555
Ir1 Sn2 2.860565 1_555
Ir1 Pr0 3.084911 1_555
Ir1 Pr0 3.084911 1_556
Ir1 Pr1 3.084913 1_655
Ir1 Pr1 3.084913 1_656
Ir1 Pr2 3.084917 1_556
Ir1 Pr2 3.084917 1_555
Ir2 Sn2 2.809896 1_444
Ir2 Sn2 2.809896 1_445
Ir2 Sn0 2.809896 1_555
Ir2 Sn1 2.809896 1_554
Ir2 Sn1 2.809896 1_555
Ir2 Sn0 2.809896 1_554
Ir2 Pr2 3.087386 1_555
Ir2 Pr1 3.087386 1_545
Ir2 Pr0 3.087386 1_455
