# generated using pymatgen
data_HfMg7
_symmetry_space_group_name_H-M   'P 1'
_cell_length_a   6.40817136
_cell_length_b   6.40817136
_cell_length_c   5.06530600
_cell_angle_alpha   90.00000000
_cell_angle_beta   90.00000000
_cell_angle_gamma   119.99999335
_symmetry_Int_Tables_number   1
_chemical_formula_structural   HfMg7
_chemical_formula_sum   'Hf1 Mg7'
_cell_volume   180.13768622
_cell_formula_units_Z   1
loop_
 _symmetry_equiv_pos_site_id
 _symmetry_equiv_pos_as_xyz
  1  'x, y, z'
loop_
 _atom_site_type_symbol
 _atom_site_label
 _atom_site_symmetry_multiplicity
 _atom_site_fract_x
 _atom_site_fract_y
 _atom_site_fract_z
 _atom_site_occupancy
  Hf  Hf0  1  0.00000000  0.00000000  0.50000000  1
  Mg  Mg0  1  0.00219000  0.50109500  0.50000000  1
  Mg  Mg1  1  0.49890500  0.50109500  0.50000000  1
  Mg  Mg2  1  0.49890500  0.99781000  0.50000000  1
  Mg  Mg3  1  0.16360400  0.32720700  0.00000000  1
  Mg  Mg4  1  0.16360400  0.83639600  0.00000000  1
  Mg  Mg5  1  0.67279300  0.83639600  0.00000000  1
  Mg  Mg6  1  0.66666700  0.33333300  0.00000000  1
loop_
_geom_bond_atom_site_label_1
_geom_bond_atom_site_label_2
_geom_bond_distance
_geom_bond_site_symmetry_2
Hf0 Mg3 3.116369 1_555
Hf0 Mg3 3.116369 1_556
Hf0 Mg5 3.116369 1_445
Hf0 Mg5 3.116369 1_446
Hf0 Mg4 3.116372 1_546
Hf0 Mg4 3.116372 1_545
Hf0 Mg2 3.204109 1_545
Hf0 Mg0 3.204109 1_545
Hf0 Mg0 3.204109 1_555
Hf0 Mg2 3.204109 1_445
Hf0 Mg1 3.204109 1_555
Hf0 Mg1 3.204109 1_445
Mg0 Mg4 3.143009 1_556
Mg0 Mg4 3.143009 1_555
Mg0 Mg3 3.143012 1_555
Mg0 Mg3 3.143012 1_556
Mg0 Mg6 3.143484 1_455
Mg0 Mg6 3.143484 1_456
Mg0 Mg1 3.183035 1_555
Mg0 Mg2 3.183035 1_555
Mg0 Mg1 3.225137 1_455
Mg0 Mg2 3.225137 1_445
Mg1 Mg5 3.143009 1_556
Mg1 Mg5 3.143009 1_555
Mg1 Mg3 3.143009 1_555
Mg1 Mg3 3.143009 1_556
Mg1 Mg6 3.143487 1_556
Mg1 Mg6 3.143487 1_555
Mg1 Mg2 3.183035 1_555
Mg1 Mg2 3.225137 1_545
Mg2 Mg4 3.143009 1_556
Mg2 Mg4 3.143009 1_555
Mg2 Mg5 3.143012 1_555
Mg2 Mg5 3.143012 1_556
Mg2 Mg6 3.143484 1_565
Mg2 Mg6 3.143484 1_566
Mg3 Mg4 3.145201 1_545
Mg3 Mg5 3.145201 1_445
Mg3 Mg6 3.204266 1_455
Mg3 Mg6 3.204266 1_555
Mg3 Mg4 3.262970 1_555
Mg3 Mg5 3.262971 1_555
Mg4 Mg5 3.145201 1_455
Mg4 Mg6 3.204266 1_455
Mg4 Mg6 3.204266 1_565
Mg4 Mg5 3.262970 1_555
Mg5 Mg6 3.204266 1_565
Mg5 Mg6 3.204266 1_555
