# generated using pymatgen
data_YbGd3
_symmetry_space_group_name_H-M   'P 1'
_cell_length_a   6.86984896
_cell_length_b   6.86984896
_cell_length_c   5.36213000
_cell_angle_alpha   90.00000000
_cell_angle_beta   90.00000000
_cell_angle_gamma   120.00000927
_symmetry_Int_Tables_number   1
_chemical_formula_structural   YbGd3
_chemical_formula_sum   'Yb2 Gd6'
_cell_volume   219.16051279
_cell_formula_units_Z   2
loop_
 _symmetry_equiv_pos_site_id
 _symmetry_equiv_pos_as_xyz
  1  'x, y, z'
loop_
 _atom_site_type_symbol
 _atom_site_label
 _atom_site_symmetry_multiplicity
 _atom_site_fract_x
 _atom_site_fract_y
 _atom_site_fract_z
 _atom_site_occupancy
  Yb  Yb0  1  0.33333300  0.66666700  0.75000000  1
  Yb  Yb1  1  0.66666700  0.33333300  0.25000000  1
  Gd  Gd0  1  0.16391200  0.32782400  0.25000000  1
  Gd  Gd1  1  0.67217600  0.83608800  0.25000000  1
  Gd  Gd2  1  0.16391200  0.83608800  0.25000000  1
  Gd  Gd3  1  0.83608800  0.67217600  0.75000000  1
  Gd  Gd4  1  0.32782400  0.16391200  0.75000000  1
  Gd  Gd5  1  0.83608800  0.16391200  0.75000000  1
loop_
_geom_bond_atom_site_label_1
_geom_bond_atom_site_label_2
_geom_bond_distance
_geom_bond_site_symmetry_2
Gd0 Gd5 3.315430 1_455
Gd0 Gd5 3.315430 1_454
Gd0 Gd4 3.315431 1_554
Gd0 Gd4 3.315431 1_555
Gd0 Yb0 3.354415 1_555
Gd0 Yb0 3.354415 1_554
Gd0 Gd1 3.378152 1_445
Gd0 Gd2 3.378152 1_545
Gd0 Yb1 3.435077 1_455
Gd0 Yb1 3.435084 1_555
Gd0 Gd1 3.491696 1_555
Gd0 Gd2 3.491697 1_555
Gd1 Gd5 3.315430 1_564
Gd1 Gd5 3.315430 1_565
Gd1 Gd3 3.315431 1_555
Gd1 Gd3 3.315431 1_554
Gd1 Yb0 3.354415 1_554
Gd1 Yb0 3.354415 1_555
Gd1 Gd2 3.378152 1_655
Gd1 Yb1 3.435077 1_565
Gd1 Yb1 3.435084 1_555
Gd1 Gd2 3.491697 1_555
Gd2 Gd3 3.315430 1_455
Gd2 Gd3 3.315430 1_454
Gd2 Gd4 3.315430 1_565
Gd2 Gd4 3.315430 1_564
Gd2 Yb0 3.354411 1_555
Gd2 Yb0 3.354411 1_554
Gd2 Yb1 3.435080 1_455
Gd2 Yb1 3.435080 1_565
Gd3 Yb1 3.354415 1_556
Gd3 Yb1 3.354415 1_555
Gd3 Gd4 3.378152 1_665
Gd3 Gd5 3.378152 1_565
Gd3 Yb0 3.435077 1_655
Gd3 Yb0 3.435084 1_555
Gd3 Gd4 3.491696 1_555
Gd3 Gd5 3.491697 1_555
Gd4 Yb1 3.354415 1_556
Gd4 Yb1 3.354415 1_555
Gd4 Gd5 3.378152 1_455
Gd4 Yb0 3.435077 1_545
Gd4 Yb0 3.435084 1_555
Gd4 Gd5 3.491697 1_555
Gd5 Yb1 3.354411 1_555
Gd5 Yb1 3.354411 1_556
Gd5 Yb0 3.435080 1_655
Gd5 Yb0 3.435080 1_545
