# generated using pymatgen
data_Ca6V3Fe7O24
_symmetry_space_group_name_H-M   'P 1'
_cell_length_a   10.93451642
_cell_length_b   10.93451642
_cell_length_c   10.93451642
_cell_angle_alpha   109.47122063
_cell_angle_beta   109.47122063
_cell_angle_gamma   109.47122063
_symmetry_Int_Tables_number   1
_chemical_formula_structural   Ca6V3Fe7O24
_chemical_formula_sum   'Ca12 V6 Fe14 O48'
_cell_volume   1006.41442474
_cell_formula_units_Z   2
loop_
 _symmetry_equiv_pos_site_id
 _symmetry_equiv_pos_as_xyz
  1  'x, y, z'
loop_
 _atom_site_type_symbol
 _atom_site_label
 _atom_site_symmetry_multiplicity
 _atom_site_fract_x
 _atom_site_fract_y
 _atom_site_fract_z
 _atom_site_occupancy
  Ca  Ca0  1  0.12404000  0.37404000  0.75000000  1
  Ca  Ca1  1  0.37596000  0.12596000  0.25000000  1
  Ca  Ca2  1  0.25000000  0.37596000  0.12596000  1
  Ca  Ca3  1  0.75000000  0.12404000  0.37404000  1
  Ca  Ca4  1  0.12596000  0.25000000  0.37596000  1
  Ca  Ca5  1  0.37404000  0.75000000  0.12404000  1
  Ca  Ca6  1  0.87404000  0.62404000  0.25000000  1
  Ca  Ca7  1  0.62596000  0.87596000  0.75000000  1
  Ca  Ca8  1  0.75000000  0.62596000  0.87596000  1
  Ca  Ca9  1  0.25000000  0.87404000  0.62404000  1
  Ca  Ca10  1  0.87596000  0.75000000  0.62596000  1
  Ca  Ca11  1  0.62404000  0.25000000  0.87404000  1
  V  V0  1  0.12500000  0.87500000  0.25000000  1
  V  V1  1  0.37500000  0.62500000  0.75000000  1
  V  V2  1  0.75000000  0.37500000  0.62500000  1
  V  V3  1  0.25000000  0.12500000  0.87500000  1
  V  V4  1  0.62500000  0.75000000  0.37500000  1
  V  V5  1  0.87500000  0.25000000  0.12500000  1
  Fe  Fe0  1  0.52470100  0.50000000  0.00000000  1
  Fe  Fe1  1  0.00000000  0.52470100  0.50000000  1
  Fe  Fe2  1  0.97529900  0.97529900  0.97529900  1
  Fe  Fe3  1  0.50000000  0.00000000  0.52470100  1
  Fe  Fe4  1  0.02470100  0.50000000  0.00000000  1
  Fe  Fe5  1  0.47529900  0.47529900  0.47529900  1
  Fe  Fe6  1  0.00000000  0.02470100  0.50000000  1
  Fe  Fe7  1  0.50000000  0.00000000  0.02470100  1
  Fe  Fe8  1  0.87500000  0.12500000  0.75000000  1
  Fe  Fe9  1  0.62500000  0.37500000  0.25000000  1
  Fe  Fe10  1  0.25000000  0.62500000  0.37500000  1
  Fe  Fe11  1  0.75000000  0.87500000  0.12500000  1
  Fe  Fe12  1  0.37500000  0.25000000  0.62500000  1
  Fe  Fe13  1  0.12500000  0.75000000  0.87500000  1
  O  O0  1  0.39163900  0.58017700  0.89237200  1
  O  O1  1  0.18780600  0.49926800  0.60762800  1
  O  O2  1  0.10836100  0.00073200  0.18853800  1
  O  O3  1  0.31219400  0.91982300  0.31146200  1
  O  O4  1  0.18853800  0.10836100  0.00073200  1
  O  O5  1  0.31146200  0.31219400  0.91982300  1
  O  O6  1  0.89237200  0.39163900  0.58017700  1
  O  O7  1  0.60762800  0.18780600  0.49926800  1
  O  O8  1  0.91982300  0.31146200  0.31219400  1
  O  O9  1  0.00073200  0.18853800  0.10836100  1
  O  O10  1  0.49926800  0.60762800  0.18780600  1
  O  O11  1  0.58017700  0.89237200  0.39163900  1
  O  O12  1  0.62943400  0.41320400  0.09331100  1
  O  O13  1  0.81989200  0.53612300  0.40668900  1
  O  O14  1  0.87056600  0.96387700  0.78376900  1
  O  O15  1  0.68010800  0.08679600  0.71623100  1
  O  O16  1  0.78376900  0.87056600  0.96387700  1
  O  O17  1  0.71623100  0.68010800  0.08679600  1
  O  O18  1  0.09331100  0.62943400  0.41320400  1
  O  O19  1  0.40668900  0.81989200  0.53612300  1
  O  O20  1  0.08679600  0.71623100  0.68010800  1
  O  O21  1  0.96387700  0.78376900  0.87056600  1
  O  O22  1  0.53612300  0.40668900  0.81989200  1
  O  O23  1  0.41320400  0.09331100  0.62943400  1
  O  O24  1  0.81146200  0.41982300  0.81219400  1
  O  O25  1  0.68853800  0.50073200  0.60836100  1
  O  O26  1  0.10762800  0.99926800  0.68780600  1
  O  O27  1  0.39237200  0.08017700  0.89163900  1
  O  O28  1  0.08017700  0.89163900  0.39237200  1
  O  O29  1  0.99926800  0.68780600  0.10762800  1
  O  O30  1  0.50073200  0.60836100  0.68853800  1
  O  O31  1  0.41982300  0.81219400  0.81146200  1
  O  O32  1  0.60836100  0.68853800  0.50073200  1
  O  O33  1  0.81219400  0.81146200  0.41982300  1
  O  O34  1  0.89163900  0.39237200  0.08017700  1
  O  O35  1  0.68780600  0.10762800  0.99926800  1
  O  O36  1  0.21623100  0.58679600  0.18010800  1
  O  O37  1  0.28376900  0.46387700  0.37056600  1
  O  O38  1  0.90668900  0.03612300  0.31989200  1
  O  O39  1  0.59331100  0.91320400  0.12943400  1
  O  O40  1  0.91320400  0.12943400  0.59331100  1
  O  O41  1  0.03612300  0.31989200  0.90668900  1
  O  O42  1  0.46387700  0.37056600  0.28376900  1
  O  O43  1  0.58679600  0.18010800  0.21623100  1
  O  O44  1  0.37056600  0.28376900  0.46387700  1
  O  O45  1  0.18010800  0.21623100  0.58679600  1
  O  O46  1  0.12943400  0.59331100  0.91320400  1
  O  O47  1  0.31989200  0.90668900  0.03612300  1
loop_
_geom_bond_atom_site_label_1
_geom_bond_atom_site_label_2
_geom_bond_distance
_geom_bond_site_symmetry_2
Ca0 O40 2.367494 1_455
Ca0 O41 2.367498 1_555
Ca0 O46 2.433065 1_555
Ca0 O45 2.433067 1_555
Ca0 O0 2.508567 1_555
Ca0 O1 2.508577 1_555
Ca0 O6 2.707299 1_455
Ca0 O5 2.707307 1_555
Ca1 O43 2.367487 1_555
Ca1 O42 2.367498 1_555
Ca1 O44 2.433061 1_555
Ca1 O47 2.433061 1_545
Ca1 O2 2.508567 1_555
Ca1 O3 2.508567 1_545
Ca1 O7 2.707302 1_555
Ca1 O4 2.707307 1_555
Ca2 O36 2.367487 1_555
Ca2 O37 2.367498 1_555
Ca2 O42 2.433061 1_555
Ca2 O41 2.433061 1_554
Ca2 O5 2.508567 1_554
Ca2 O4 2.508567 1_555
Ca2 O10 2.707302 1_555
Ca2 O9 2.707307 1_555
Ca3 O39 2.367494 1_545
Ca3 O38 2.367498 1_555
Ca3 O40 2.433065 1_555
Ca3 O43 2.433067 1_555
Ca3 O6 2.508567 1_555
Ca3 O7 2.508577 1_555
Ca3 O11 2.707299 1_545
Ca3 O8 2.707307 1_555
Ca4 O45 2.367487 1_555
Ca4 O44 2.367498 1_555
Ca4 O37 2.433061 1_555
Ca4 O38 2.433061 1_455
Ca4 O9 2.508567 1_555
Ca4 O8 2.508567 1_455
Ca4 O1 2.707302 1_555
Ca4 O2 2.707307 1_555
Ca5 O46 2.367494 1_554
Ca5 O47 2.367498 1_555
Ca5 O39 2.433065 1_555
Ca5 O36 2.433067 1_555
Ca5 O11 2.508567 1_555
Ca5 O10 2.508577 1_555
Ca5 O0 2.707299 1_554
Ca5 O3 2.707307 1_555
Ca6 O12 2.367494 1_555
Ca6 O13 2.367498 1_555
Ca6 O18 2.433065 1_655
Ca6 O17 2.433067 1_555
Ca6 O28 2.508567 1_655
Ca6 O29 2.508577 1_555
Ca6 O34 2.707299 1_555
Ca6 O33 2.707307 1_555
Ca7 O15 2.367487 1_565
Ca7 O14 2.367498 1_555
Ca7 O19 2.433061 1_555
Ca7 O16 2.433061 1_555
Ca7 O30 2.508567 1_555
Ca7 O31 2.508567 1_555
Ca7 O35 2.707302 1_565
Ca7 O32 2.707307 1_555
Ca8 O17 2.367487 1_556
Ca8 O16 2.367498 1_555
Ca8 O22 2.433061 1_555
Ca8 O21 2.433061 1_555
Ca8 O25 2.508567 1_555
Ca8 O24 2.508567 1_555
Ca8 O29 2.707302 1_556
Ca8 O30 2.707307 1_555
Ca9 O18 2.367494 1_555
Ca9 O19 2.367498 1_555
Ca9 O23 2.433065 1_565
Ca9 O20 2.433067 1_555
Ca9 O27 2.508567 1_565
Ca9 O26 2.508577 1_555
Ca9 O28 2.707299 1_555
Ca9 O31 2.707307 1_555
Ca10 O20 2.367487 1_655
Ca10 O21 2.367498 1_555
Ca10 O13 2.433061 1_555
Ca10 O14 2.433061 1_555
Ca10 O32 2.508567 1_555
Ca10 O33 2.508567 1_555
Ca10 O26 2.707302 1_655
Ca10 O25 2.707307 1_555
Ca11 O23 2.367494 1_555
Ca11 O22 2.367498 1_555
Ca11 O12 2.433065 1_556
Ca11 O15 2.433067 1_555
Ca11 O34 2.508567 1_556
Ca11 O35 2.508577 1_555
Ca11 O27 2.707299 1_555
Ca11 O24 2.707307 1_555
Fe0 O12 1.960725 1_555
Fe0 O22 1.960735 1_554
Fe0 O17 1.960737 1_555
Fe0 O0 2.160373 1_554
Fe0 O10 2.160375 1_555
Fe0 O5 2.160378 1_554
Fe1 O18 1.960725 1_555
Fe1 O13 1.960735 1_455
Fe1 O20 1.960737 1_555
Fe1 O6 2.160373 1_455
Fe1 O1 2.160375 1_555
Fe1 O8 2.160378 1_455
Fe2 O16 1.960735 1_555
Fe2 O21 1.960735 1_555
Fe2 O14 1.960735 1_555
Fe2 O4 2.160378 1_666
Fe2 O9 2.160378 1_666
Fe2 O2 2.160378 1_666
Fe3 O23 1.960725 1_555
Fe3 O19 1.960735 1_545
Fe3 O15 1.960737 1_555
Fe3 O11 2.160373 1_545
Fe3 O7 2.160375 1_555
Fe3 O3 2.160378 1_545
Fe4 O46 1.960725 1_554
Fe4 O41 1.960735 1_554
Fe4 O36 1.960737 1_555
Fe4 O34 2.160373 1_455
Fe4 O29 2.160375 1_455
Fe4 O24 2.160378 1_454
Fe5 O37 1.960735 1_555
Fe5 O44 1.960735 1_555
Fe5 O42 1.960735 1_555
Fe5 O32 2.160378 1_555
Fe5 O25 2.160378 1_555
Fe5 O30 2.160378 1_555
Fe6 O40 1.960725 1_455
Fe6 O38 1.960735 1_455
Fe6 O45 1.960737 1_555
Fe6 O28 2.160373 1_545
Fe6 O26 2.160375 1_545
Fe6 O33 2.160378 1_445
Fe7 O39 1.960725 1_545
Fe7 O47 1.960735 1_545
Fe7 O43 1.960737 1_555
Fe7 O27 2.160373 1_554
Fe7 O35 2.160375 1_554
Fe7 O31 2.160378 1_544
Fe8 O15 1.905601 1_555
Fe8 O41 1.905603 1_655
Fe8 O14 1.905603 1_545
Fe8 O40 1.905609 1_555
Fe9 O43 1.905601 1_555
Fe9 O13 1.905603 1_555
Fe9 O42 1.905603 1_555
Fe9 O12 1.905609 1_555
Fe10 O36 1.905601 1_555
Fe10 O19 1.905603 1_555
Fe10 O37 1.905603 1_555
Fe10 O18 1.905609 1_555
Fe11 O17 1.905601 1_555
Fe11 O38 1.905603 1_565
Fe11 O16 1.905603 1_554
Fe11 O39 1.905609 1_555
Fe12 O45 1.905601 1_555
Fe12 O22 1.905603 1_555
Fe12 O44 1.905603 1_555
Fe12 O23 1.905609 1_555
Fe13 O20 1.905601 1_555
Fe13 O47 1.905603 1_556
Fe13 O21 1.905603 1_455
Fe13 O46 1.905609 1_555
O0 V1 1.753892 1_555
O1 V1 1.753884 1_555
O2 V0 1.753882 1_545
O3 V0 1.753882 1_555
O4 V3 1.753882 1_554
O5 V3 1.753882 1_555
O6 V2 1.753892 1_555
O7 V2 1.753884 1_555
O8 V5 1.753882 1_555
O9 V5 1.753882 1_455
O10 V4 1.753884 1_555
O11 V4 1.753892 1_555
O24 V2 1.753882 1_555
O25 V2 1.753882 1_555
O26 V3 1.753884 1_565
O27 V3 1.753892 1_555
O28 V0 1.753892 1_555
O29 V0 1.753884 1_655
O30 V1 1.753882 1_555
O31 V1 1.753882 1_555
O32 V4 1.753882 1_555
O33 V4 1.753882 1_555
O34 V5 1.753892 1_555
O35 V5 1.753884 1_556
