# generated using pymatgen
data_Mn2O3
_symmetry_space_group_name_H-M   'P 1'
_cell_length_a   9.58026900
_cell_length_b   9.60874200
_cell_length_c   9.65843400
_cell_angle_alpha   90.00000000
_cell_angle_beta   90.00000000
_cell_angle_gamma   90.00000000
_symmetry_Int_Tables_number   1
_chemical_formula_structural   Mn2O3
_chemical_formula_sum   'Mn32 O48'
_cell_volume   889.10070077
_cell_formula_units_Z   16
loop_
 _symmetry_equiv_pos_site_id
 _symmetry_equiv_pos_as_xyz
  1  'x, y, z'
loop_
 _atom_site_type_symbol
 _atom_site_label
 _atom_site_symmetry_multiplicity
 _atom_site_fract_x
 _atom_site_fract_y
 _atom_site_fract_z
 _atom_site_occupancy
  Mn  Mn0  1  0.50000000  0.50000000  0.00000000  1
  Mn  Mn1  1  0.50000000  0.00000000  0.50000000  1
  Mn  Mn2  1  0.00000000  0.50000000  0.50000000  1
  Mn  Mn3  1  0.00000000  0.00000000  0.00000000  1
  Mn  Mn4  1  0.00000000  0.00000000  0.50000000  1
  Mn  Mn5  1  0.00000000  0.50000000  0.00000000  1
  Mn  Mn6  1  0.50000000  0.00000000  0.00000000  1
  Mn  Mn7  1  0.50000000  0.50000000  0.50000000  1
  Mn  Mn8  1  0.50913600  0.75883900  0.28594100  1
  Mn  Mn9  1  0.49086400  0.25883900  0.21405900  1
  Mn  Mn10  1  0.99086400  0.24116100  0.78594100  1
  Mn  Mn11  1  0.00913600  0.74116100  0.71405900  1
  Mn  Mn12  1  0.49086400  0.24116100  0.71405900  1
  Mn  Mn13  1  0.50913600  0.74116100  0.78594100  1
  Mn  Mn14  1  0.00913600  0.75883900  0.21405900  1
  Mn  Mn15  1  0.99086400  0.25883900  0.28594100  1
  Mn  Mn16  1  0.25641400  0.78794300  0.99987600  1
  Mn  Mn17  1  0.74358600  0.28794300  0.50012400  1
  Mn  Mn18  1  0.24358600  0.21205700  0.49987600  1
  Mn  Mn19  1  0.75641400  0.71205700  0.00012400  1
  Mn  Mn20  1  0.74358600  0.21205700  0.00012400  1
  Mn  Mn21  1  0.25641400  0.71205700  0.49987600  1
  Mn  Mn22  1  0.75641400  0.78794300  0.50012400  1
  Mn  Mn23  1  0.24358600  0.28794300  0.99987600  1
  Mn  Mn24  1  0.21575100  0.51179600  0.24663900  1
  Mn  Mn25  1  0.78424900  0.01179600  0.25336100  1
  Mn  Mn26  1  0.28424900  0.48820400  0.74663900  1
  Mn  Mn27  1  0.71575100  0.98820400  0.75336100  1
  Mn  Mn28  1  0.78424900  0.48820400  0.75336100  1
  Mn  Mn29  1  0.21575100  0.98820400  0.74663900  1
  Mn  Mn30  1  0.71575100  0.51179600  0.25336100  1
  Mn  Mn31  1  0.28424900  0.01179600  0.24663900  1
  O  O0  1  0.14865300  0.92325000  0.12533600  1
  O  O1  1  0.85134700  0.42325000  0.37466400  1
  O  O2  1  0.35134700  0.07675000  0.62533600  1
  O  O3  1  0.64865300  0.57675000  0.87466400  1
  O  O4  1  0.85134700  0.07675000  0.87466400  1
  O  O5  1  0.14865300  0.57675000  0.62533600  1
  O  O6  1  0.64865300  0.92325000  0.37466400  1
  O  O7  1  0.35134700  0.42325000  0.12533600  1
  O  O8  1  0.09336200  0.63976700  0.35272500  1
  O  O9  1  0.90663800  0.13976700  0.14727500  1
  O  O10  1  0.40663800  0.36023300  0.85272500  1
  O  O11  1  0.59336200  0.86023300  0.64727500  1
  O  O12  1  0.90663800  0.36023300  0.64727500  1
  O  O13  1  0.09336200  0.86023300  0.85272500  1
  O  O14  1  0.59336200  0.63976700  0.14727500  1
  O  O15  1  0.40663800  0.13976700  0.35272500  1
  O  O16  1  0.37727800  0.85790000  0.41665400  1
  O  O17  1  0.62272200  0.35790000  0.08334600  1
  O  O18  1  0.12272200  0.14210000  0.91665400  1
  O  O19  1  0.87727800  0.64210000  0.58334600  1
  O  O20  1  0.62272200  0.14210000  0.58334600  1
  O  O21  1  0.37727800  0.64210000  0.91665400  1
  O  O22  1  0.87727800  0.85790000  0.08334600  1
  O  O23  1  0.12272200  0.35790000  0.41665400  1
  O  O24  1  0.36121200  0.58585000  0.37229600  1
  O  O25  1  0.63878800  0.08585000  0.12770400  1
  O  O26  1  0.13878800  0.41415000  0.87229600  1
  O  O27  1  0.86121200  0.91415000  0.62770400  1
  O  O28  1  0.63878800  0.41415000  0.62770400  1
  O  O29  1  0.36121200  0.91415000  0.87229600  1
  O  O30  1  0.86121200  0.58585000  0.12770400  1
  O  O31  1  0.13878800  0.08585000  0.37229600  1
  O  O32  1  0.41963000  0.87881200  0.14619200  1
  O  O33  1  0.58037000  0.37881200  0.35380800  1
  O  O34  1  0.08037000  0.12118800  0.64619200  1
  O  O35  1  0.91963000  0.62118800  0.85380800  1
  O  O36  1  0.58037000  0.12118800  0.85380800  1
  O  O37  1  0.41963000  0.62118800  0.64619200  1
  O  O38  1  0.91963000  0.87881200  0.35380800  1
  O  O39  1  0.08037000  0.37881200  0.14619200  1
  O  O40  1  0.13849800  0.65363400  0.08819600  1
  O  O41  1  0.86150200  0.15363400  0.41180400  1
  O  O42  1  0.36150200  0.34636600  0.58819600  1
  O  O43  1  0.63849800  0.84636600  0.91180400  1
  O  O44  1  0.86150200  0.34636600  0.91180400  1
  O  O45  1  0.13849800  0.84636600  0.58819600  1
  O  O46  1  0.63849800  0.65363400  0.41180400  1
  O  O47  1  0.36150200  0.15363400  0.08819600  1
loop_
_geom_bond_atom_site_label_1
_geom_bond_atom_site_label_2
_geom_bond_distance
_geom_bond_site_symmetry_2
Mn0 O17 1.973481 1_555
Mn0 O21 1.973481 1_554
Mn0 O7 2.009342 1_555
Mn0 O3 2.009342 1_554
Mn0 O14 2.151040 1_555
Mn0 O10 2.151040 1_554
Mn1 O16 1.973481 1_545
Mn1 O20 1.973481 1_555
Mn1 O2 2.009342 1_555
Mn1 O6 2.009342 1_545
Mn1 O11 2.151040 1_545
Mn1 O15 2.151040 1_555
Mn2 O23 1.973481 1_555
Mn2 O19 1.973481 1_455
Mn2 O5 2.009342 1_555
Mn2 O1 2.009342 1_455
Mn2 O8 2.151040 1_555
Mn2 O12 2.151040 1_455
Mn3 O18 1.973481 1_554
Mn3 O22 1.973481 1_445
Mn3 O0 2.009342 1_545
Mn3 O4 2.009342 1_454
Mn3 O9 2.151040 1_455
Mn3 O13 2.151040 1_544
Mn4 O38 1.985580 1_445
Mn4 O34 1.985580 1_555
Mn4 O31 1.992413 1_555
Mn4 O27 1.992413 1_445
Mn4 O41 2.159954 1_455
Mn4 O45 2.159954 1_545
Mn5 O35 1.985580 1_454
Mn5 O39 1.985580 1_555
Mn5 O26 1.992413 1_554
Mn5 O30 1.992413 1_455
Mn5 O44 2.159954 1_454
Mn5 O40 2.159954 1_555
Mn6 O32 1.985580 1_545
Mn6 O36 1.985580 1_554
Mn6 O25 1.992413 1_555
Mn6 O29 1.992413 1_544
Mn6 O47 2.159954 1_555
Mn6 O43 2.159954 1_544
Mn7 O37 1.985580 1_555
Mn7 O33 1.985580 1_555
Mn7 O24 1.992413 1_555
Mn7 O28 1.992413 1_555
Mn7 O46 2.159954 1_555
Mn7 O42 2.159954 1_555
Mn8 O14 1.937486 1_555
Mn8 O32 1.971309 1_555
Mn8 O46 2.008879 1_555
Mn8 O16 2.023771 1_555
Mn8 O6 2.239768 1_555
Mn8 O24 2.338139 1_555
Mn9 O15 1.937486 1_555
Mn9 O33 1.971309 1_555
Mn9 O47 2.008879 1_555
Mn9 O17 2.023771 1_555
Mn9 O7 2.239768 1_555
Mn9 O25 2.338139 1_555
Mn10 O12 1.937486 1_555
Mn10 O34 1.971309 1_655
Mn10 O44 2.008879 1_555
Mn10 O18 2.023771 1_655
Mn10 O4 2.239768 1_555
Mn10 O26 2.338139 1_655
Mn11 O13 1.937486 1_555
Mn11 O35 1.971309 1_455
Mn11 O45 2.008879 1_555
Mn11 O19 2.023771 1_455
Mn11 O5 2.239768 1_555
Mn11 O27 2.338139 1_455
Mn12 O10 1.937486 1_555
Mn12 O36 1.971309 1_555
Mn12 O42 2.008879 1_555
Mn12 O20 2.023771 1_555
Mn12 O2 2.239768 1_555
Mn12 O28 2.338139 1_555
Mn13 O11 1.937486 1_555
Mn13 O37 1.971309 1_555
Mn13 O43 2.008879 1_555
Mn13 O21 2.023771 1_555
Mn13 O3 2.239768 1_555
Mn13 O29 2.338139 1_555
Mn14 O8 1.937486 1_555
Mn14 O38 1.971309 1_455
Mn14 O40 2.008879 1_555
Mn14 O22 2.023771 1_455
Mn14 O0 2.239768 1_555
Mn14 O30 2.338139 1_455
Mn15 O9 1.937486 1_555
Mn15 O39 1.971309 1_655
Mn15 O41 2.008879 1_555
Mn15 O23 2.023771 1_655
Mn15 O1 2.239768 1_555
Mn15 O31 2.338139 1_655
Mn16 O40 1.915544 1_556
Mn16 O21 1.987630 1_555
Mn16 O29 1.999248 1_555
Mn16 O0 2.055353 1_556
Mn16 O13 2.223182 1_555
Mn16 O32 2.281330 1_556
Mn17 O41 1.915544 1_555
Mn17 O20 1.987630 1_555
Mn17 O28 1.999248 1_555
Mn17 O1 2.055353 1_555
Mn17 O12 2.223182 1_555
Mn17 O33 2.281330 1_555
Mn18 O42 1.915544 1_555
Mn18 O23 1.987630 1_555
Mn18 O31 1.999248 1_555
Mn18 O2 2.055353 1_555
Mn18 O15 2.223182 1_555
Mn18 O34 2.281330 1_555
Mn19 O43 1.915544 1_554
Mn19 O22 1.987630 1_555
Mn19 O30 1.999248 1_555
Mn19 O3 2.055353 1_554
Mn19 O14 2.223182 1_555
Mn19 O35 2.281330 1_554
Mn20 O44 1.915544 1_554
Mn20 O17 1.987630 1_555
Mn20 O25 1.999248 1_555
Mn20 O4 2.055353 1_554
Mn20 O9 2.223182 1_555
Mn20 O36 2.281330 1_554
Mn21 O45 1.915544 1_555
Mn21 O16 1.987630 1_555
Mn21 O24 1.999248 1_555
Mn21 O5 2.055353 1_555
Mn21 O8 2.223182 1_555
Mn21 O37 2.281330 1_555
Mn22 O46 1.915544 1_555
Mn22 O19 1.987630 1_555
Mn22 O27 1.999248 1_555
Mn22 O6 2.055353 1_555
Mn22 O11 2.223182 1_555
Mn22 O38 2.281330 1_555
Mn23 O47 1.915544 1_556
Mn23 O18 1.987630 1_555
Mn23 O26 1.999248 1_555
Mn23 O7 2.055353 1_556
Mn23 O10 2.223182 1_555
Mn23 O39 2.281330 1_556
Mn24 O7 1.945263 1_555
Mn24 O24 1.980219 1_555
Mn24 O8 1.984105 1_555
Mn24 O39 2.063051 1_555
Mn24 O40 2.178775 1_555
Mn24 O23 2.382736 1_555
Mn25 O6 1.945263 1_545
Mn25 O25 1.980219 1_555
Mn25 O9 1.984105 1_555
Mn25 O38 2.063051 1_545
Mn25 O41 2.178775 1_555
Mn25 O22 2.382736 1_545
Mn26 O5 1.945263 1_555
Mn26 O26 1.980219 1_555
Mn26 O10 1.984105 1_555
Mn26 O37 2.063051 1_555
Mn26 O42 2.178775 1_555
Mn26 O21 2.382736 1_555
Mn27 O4 1.945263 1_565
Mn27 O27 1.980219 1_555
Mn27 O11 1.984105 1_555
Mn27 O36 2.063051 1_565
Mn27 O43 2.178775 1_555
Mn27 O20 2.382736 1_565
Mn28 O3 1.945263 1_555
Mn28 O28 1.980219 1_555
Mn28 O12 1.984105 1_555
Mn28 O35 2.063051 1_555
Mn28 O44 2.178775 1_555
Mn28 O19 2.382736 1_555
Mn29 O2 1.945263 1_565
Mn29 O29 1.980219 1_555
Mn29 O13 1.984105 1_555
Mn29 O34 2.063051 1_565
Mn29 O45 2.178775 1_555
Mn29 O18 2.382736 1_565
Mn30 O1 1.945263 1_555
Mn30 O30 1.980219 1_555
Mn30 O14 1.984105 1_555
Mn30 O33 2.063051 1_555
Mn30 O46 2.178775 1_555
Mn30 O17 2.382736 1_555
Mn31 O0 1.945263 1_545
Mn31 O31 1.980219 1_555
Mn31 O15 1.984105 1_555
Mn31 O32 2.063051 1_545
Mn31 O47 2.178775 1_555
Mn31 O16 2.382736 1_545
