# generated using pymatgen
data_GeC4NCl3
_symmetry_space_group_name_H-M   'P 1'
_cell_length_a   7.95591400
_cell_length_b   8.12895000
_cell_length_c   15.14751100
_cell_angle_alpha   90.00000000
_cell_angle_beta   90.00000000
_cell_angle_gamma   90.00000000
_symmetry_Int_Tables_number   1
_chemical_formula_structural   GeC4NCl3
_chemical_formula_sum   'Ge4 C16 N4 Cl12'
_cell_volume   979.63841906
_cell_formula_units_Z   4
loop_
 _symmetry_equiv_pos_site_id
 _symmetry_equiv_pos_as_xyz
  1  'x, y, z'
loop_
 _atom_site_type_symbol
 _atom_site_label
 _atom_site_symmetry_multiplicity
 _atom_site_fract_x
 _atom_site_fract_y
 _atom_site_fract_z
 _atom_site_occupancy
  Ge  Ge0  1  0.24640700  0.75000000  0.78234100  1
  Ge  Ge1  1  0.25359300  0.75000000  0.28234100  1
  Ge  Ge2  1  0.75359300  0.25000000  0.21765900  1
  Ge  Ge3  1  0.74640700  0.25000000  0.71765900  1
  C  C0  1  0.30682900  0.25000000  0.02725500  1
  C  C1  1  0.19317100  0.25000000  0.52725500  1
  C  C2  1  0.69317100  0.75000000  0.97274500  1
  C  C3  1  0.80682900  0.75000000  0.47274500  1
  C  C4  1  0.14894600  0.25000000  0.88383200  1
  C  C5  1  0.35105400  0.25000000  0.38383200  1
  C  C6  1  0.85105400  0.75000000  0.11616800  1
  C  C7  1  0.64894600  0.75000000  0.61616800  1
  C  C8  1  0.37848100  0.16675700  0.09731100  1
  C  C9  1  0.12151900  0.33324300  0.59731100  1
  C  C10  1  0.62151900  0.66675700  0.90268900  1
  C  C11  1  0.87848100  0.83324300  0.40268900  1
  C  C12  1  0.62151900  0.83324300  0.90268900  1
  C  C13  1  0.87848100  0.66675700  0.40268900  1
  C  C14  1  0.37848100  0.33324300  0.09731100  1
  C  C15  1  0.12151900  0.16675700  0.59731100  1
  N  N0  1  0.22571600  0.25000000  0.95173700  1
  N  N1  1  0.27428400  0.25000000  0.45173700  1
  N  N2  1  0.77428400  0.75000000  0.04826300  1
  N  N3  1  0.72571600  0.75000000  0.54826300  1
  Cl  Cl0  1  0.45385500  0.97604100  0.79555000  1
  Cl  Cl1  1  0.04614500  0.52395900  0.29555000  1
  Cl  Cl2  1  0.54614500  0.47604100  0.20445000  1
  Cl  Cl3  1  0.95385500  0.02395900  0.70445000  1
  Cl  Cl4  1  0.54614500  0.02395900  0.20445000  1
  Cl  Cl5  1  0.95385500  0.47604100  0.70445000  1
  Cl  Cl6  1  0.45385500  0.52395900  0.79555000  1
  Cl  Cl7  1  0.04614500  0.97604100  0.29555000  1
  Cl  Cl8  1  0.17538200  0.75000000  0.92775100  1
  Cl  Cl9  1  0.32461800  0.75000000  0.42775100  1
  Cl  Cl10  1  0.82461800  0.25000000  0.07224900  1
  Cl  Cl11  1  0.67538200  0.25000000  0.57224900  1
loop_
_geom_bond_atom_site_label_1
_geom_bond_atom_site_label_2
_geom_bond_distance
_geom_bond_site_symmetry_2
C0 N0 1.313384 1_554
C0 C14 1.381647 1_555
C0 C8 1.381647 1_555
C1 N1 1.313384 1_555
C1 C9 1.381647 1_555
C1 C15 1.381647 1_555
C2 N2 1.313384 1_556
C3 N3 1.313384 1_555
C4 N0 1.196264 1_555
C5 N1 1.196264 1_555
C6 N2 1.196264 1_555
C7 N3 1.196264 1_555
C8 Cl4 2.400118 1_555
C9 Cl5 2.400118 1_455
C10 C12 1.353356 1_555
C10 C2 1.381647 1_555
C10 Cl6 2.400118 1_555
C11 C13 1.353356 1_555
C11 C3 1.381647 1_555
C11 Cl7 2.400118 1_655
C12 C2 1.381647 1_555
C12 Cl0 2.400118 1_555
C13 C3 1.381647 1_555
C13 Cl1 2.400118 1_655
C14 C8 1.353356 1_555
C14 Cl2 2.400118 1_555
C15 C9 1.353356 1_555
C15 Cl3 2.400118 1_455
Cl0 Ge0 2.477963 1_555
Cl1 Ge1 2.477963 1_555
Cl2 Ge2 2.477963 1_555
Cl3 Ge3 2.477963 1_555
Cl4 Ge2 2.477963 1_555
Cl5 Ge3 2.477963 1_555
Cl6 Ge0 2.477963 1_555
Cl7 Ge1 2.477963 1_555
Cl8 Ge0 2.273928 1_555
Cl9 Ge1 2.273928 1_555
Cl10 Ge2 2.273928 1_555
Cl11 Ge3 2.273928 1_555
