# generated using pymatgen
data_Mg14MnCuO16
_symmetry_space_group_name_H-M   'P 1'
_cell_length_a   4.26834100
_cell_length_b   8.57143800
_cell_length_c   8.58440100
_cell_angle_alpha   90.00000000
_cell_angle_beta   90.00000000
_cell_angle_gamma   90.00000000
_symmetry_Int_Tables_number   1
_chemical_formula_structural   Mg14MnCuO16
_chemical_formula_sum   'Mg14 Mn1 Cu1 O16'
_cell_volume   314.06735189
_cell_formula_units_Z   1
loop_
 _symmetry_equiv_pos_site_id
 _symmetry_equiv_pos_as_xyz
  1  'x, y, z'
loop_
 _atom_site_type_symbol
 _atom_site_label
 _atom_site_symmetry_multiplicity
 _atom_site_fract_x
 _atom_site_fract_y
 _atom_site_fract_z
 _atom_site_occupancy
  Mg  Mg0  1  0.00000000  0.00000000  0.50000000  1
  Mg  Mg1  1  0.00000000  0.50000000  0.50000000  1
  Mg  Mg2  1  0.50000000  0.74543200  0.00000000  1
  Mg  Mg3  1  0.50000000  0.25456800  0.00000000  1
  Mg  Mg4  1  0.50000000  0.74877900  0.50000000  1
  Mg  Mg5  1  0.50000000  0.25122100  0.50000000  1
  Mg  Mg6  1  0.50000000  0.00000000  0.74716200  1
  Mg  Mg7  1  0.50000000  0.50000000  0.75164200  1
  Mg  Mg8  1  0.50000000  0.00000000  0.25283800  1
  Mg  Mg9  1  0.50000000  0.50000000  0.24835800  1
  Mg  Mg10  1  0.00000000  0.74775900  0.74953200  1
  Mg  Mg11  1  0.00000000  0.25224100  0.74953200  1
  Mg  Mg12  1  0.00000000  0.74775900  0.25046800  1
  Mg  Mg13  1  0.00000000  0.25224100  0.25046800  1
  Mn  Mn0  1  0.00000000  0.00000000  0.00000000  1
  Cu  Cu0  1  0.00000000  0.50000000  0.00000000  1
  O  O0  1  0.00000000  0.00000000  0.74371900  1
  O  O1  1  0.00000000  0.50000000  0.74446500  1
  O  O2  1  0.00000000  0.00000000  0.25628100  1
  O  O3  1  0.00000000  0.50000000  0.25553500  1
  O  O4  1  0.50000000  0.75008400  0.75123900  1
  O  O5  1  0.50000000  0.24991600  0.75123900  1
  O  O6  1  0.50000000  0.75008400  0.24876100  1
  O  O7  1  0.50000000  0.24991600  0.24876100  1
  O  O8  1  0.50000000  0.00000000  0.00000000  1
  O  O9  1  0.50000000  0.50000000  0.00000000  1
  O  O10  1  0.50000000  0.00000000  0.50000000  1
  O  O11  1  0.50000000  0.50000000  0.50000000  1
  O  O12  1  0.00000000  0.75736900  0.00000000  1
  O  O13  1  0.00000000  0.24263100  0.00000000  1
  O  O14  1  0.00000000  0.74981300  0.50000000  1
  O  O15  1  0.00000000  0.25018700  0.50000000  1
loop_
_geom_bond_atom_site_label_1
_geom_bond_atom_site_label_2
_geom_bond_distance
_geom_bond_site_symmetry_2
Mg0 O0 2.092182 1_555
Mg0 O2 2.092182 1_555
Mg0 O10 2.134171 1_455
Mg0 O10 2.134171 1_555
Mg0 O15 2.144462 1_555
Mg0 O14 2.144462 1_545
Mg1 O3 2.098586 1_555
Mg1 O1 2.098586 1_555
Mg1 O11 2.134171 1_555
Mg1 O11 2.134171 1_455
Mg1 O14 2.141257 1_555
Mg1 O15 2.141257 1_555
Mg2 O9 2.103705 1_555
Mg2 O4 2.135836 1_554
Mg2 O6 2.135836 1_555
Mg2 O12 2.136622 1_655
Mg2 O12 2.136622 1_555
Mg2 O8 2.182014 1_565
Mg3 O9 2.103705 1_555
Mg3 O5 2.135836 1_554
Mg3 O7 2.135836 1_555
Mg3 O13 2.136622 1_655
Mg3 O13 2.136622 1_555
Mg3 O8 2.182014 1_555
Mg4 O11 2.132394 1_555
Mg4 O14 2.134189 1_555
Mg4 O14 2.134189 1_655
Mg4 O10 2.153325 1_565
Mg4 O6 2.156765 1_555
Mg4 O4 2.156765 1_555
Mg5 O11 2.132394 1_555
Mg5 O15 2.134189 1_655
Mg5 O15 2.134189 1_555
Mg5 O10 2.153325 1_555
Mg5 O7 2.156765 1_555
Mg5 O5 2.156765 1_555
Mg6 O10 2.121738 1_555
Mg6 O0 2.134375 1_555
Mg6 O0 2.134375 1_655
Mg6 O5 2.142425 1_555
Mg6 O4 2.142425 1_545
Mg6 O8 2.170463 1_556
Mg7 O9 2.132005 1_556
Mg7 O1 2.135060 1_655
Mg7 O1 2.135060 1_555
Mg7 O4 2.143582 1_555
Mg7 O5 2.143582 1_555
Mg7 O11 2.160196 1_555
Mg8 O10 2.121738 1_555
Mg8 O2 2.134375 1_655
Mg8 O2 2.134375 1_555
Mg8 O7 2.142425 1_555
Mg8 O6 2.142425 1_545
Mg8 O8 2.170463 1_555
Mg9 O9 2.132005 1_555
Mg9 O3 2.135060 1_655
Mg9 O3 2.135060 1_555
Mg9 O6 2.143582 1_555
Mg9 O7 2.143582 1_555
Mg9 O11 2.160196 1_555
Mg10 O1 2.124096 1_555
Mg10 O4 2.134314 1_455
Mg10 O4 2.134314 1_555
Mg10 O14 2.142155 1_555
Mg10 O12 2.151695 1_556
Mg10 O0 2.162644 1_565
Mg11 O1 2.124096 1_555
Mg11 O5 2.134314 1_455
Mg11 O5 2.134314 1_555
Mg11 O15 2.142155 1_555
Mg11 O13 2.151695 1_556
Mg11 O0 2.162644 1_555
Mg12 O3 2.124096 1_555
Mg12 O6 2.134314 1_455
Mg12 O6 2.134314 1_555
Mg12 O14 2.142155 1_555
Mg12 O12 2.151695 1_555
Mg12 O2 2.162644 1_565
Mg13 O3 2.124096 1_555
Mg13 O7 2.134314 1_555
Mg13 O7 2.134314 1_455
Mg13 O15 2.142155 1_555
Mg13 O13 2.151695 1_555
Mg13 O2 2.162644 1_555
Mn0 O12 2.079697 1_545
Mn0 O13 2.079697 1_555
Mn0 O8 2.134171 1_455
Mn0 O8 2.134171 1_555
Mn0 O2 2.200019 1_555
Mn0 O0 2.200019 1_554
Cu0 O9 2.134171 1_455
Cu0 O9 2.134171 1_555
Cu0 O1 2.193615 1_554
Cu0 O3 2.193615 1_555
Cu0 O12 2.206022 1_555
Cu0 O13 2.206022 1_555
