# generated using pymatgen
data_Ce2In8Ir
_symmetry_space_group_name_H-M   'P 1'
_cell_length_a   4.75737000
_cell_length_b   4.75737000
_cell_length_c   12.44027700
_cell_angle_alpha   90.00000000
_cell_angle_beta   90.00000000
_cell_angle_gamma   90.00000000
_symmetry_Int_Tables_number   1
_chemical_formula_structural   Ce2In8Ir
_chemical_formula_sum   'Ce2 In8 Ir1'
_cell_volume   281.55543152
_cell_formula_units_Z   1
loop_
 _symmetry_equiv_pos_site_id
 _symmetry_equiv_pos_as_xyz
  1  'x, y, z'
loop_
 _atom_site_type_symbol
 _atom_site_label
 _atom_site_symmetry_multiplicity
 _atom_site_fract_x
 _atom_site_fract_y
 _atom_site_fract_z
 _atom_site_occupancy
  Ce  Ce0  1  0.00000000  0.00000000  0.30330500  1
  Ce  Ce1  1  0.00000000  0.00000000  0.69669500  1
  In  In0  1  0.00000000  0.50000000  0.12062300  1
  In  In1  1  0.00000000  0.50000000  0.87937700  1
  In  In2  1  0.50000000  0.00000000  0.12062300  1
  In  In3  1  0.50000000  0.00000000  0.87937700  1
  In  In4  1  0.50000000  0.50000000  0.30717400  1
  In  In5  1  0.50000000  0.50000000  0.69282600  1
  In  In6  1  0.00000000  0.50000000  0.50000000  1
  In  In7  1  0.50000000  0.00000000  0.50000000  1
  Ir  Ir0  1  0.00000000  0.00000000  0.00000000  1
loop_
_geom_bond_atom_site_label_1
_geom_bond_atom_site_label_2
_geom_bond_distance
_geom_bond_site_symmetry_2
Ce0 In0 3.289821 1_555
Ce0 In0 3.289821 1_545
Ce0 In2 3.289821 1_455
Ce0 In2 3.289821 1_555
Ce0 In4 3.364313 1_455
Ce0 In4 3.364313 1_445
Ce0 In4 3.364313 1_555
Ce0 In4 3.364313 1_545
Ce0 In6 3.412574 1_555
Ce0 In6 3.412574 1_545
Ce0 In7 3.412574 1_455
Ce0 In7 3.412574 1_555
Ce1 In3 3.289821 1_455
Ce1 In3 3.289821 1_555
Ce1 In1 3.289821 1_555
Ce1 In1 3.289821 1_545
Ce1 In5 3.364313 1_445
Ce1 In5 3.364313 1_455
Ce1 In5 3.364313 1_555
Ce1 In5 3.364313 1_545
Ce1 In6 3.412574 1_555
Ce1 In6 3.412574 1_545
Ce1 In7 3.412574 1_455
Ce1 In7 3.412574 1_555
In0 Ir0 2.812453 1_565
In0 Ir0 2.812453 1_555
In0 In4 3.323252 1_455
In0 In4 3.323252 1_555
In1 Ir0 2.812453 1_566
In1 Ir0 2.812453 1_556
In1 In5 3.323252 1_455
In1 In5 3.323252 1_555
In2 Ir0 2.812453 1_655
In2 Ir0 2.812453 1_555
In2 In4 3.323252 1_545
In2 In4 3.323252 1_555
In3 Ir0 2.812453 1_656
In3 Ir0 2.812453 1_556
In3 In5 3.323252 1_555
In3 In5 3.323252 1_545
In4 In6 3.378228 1_655
In4 In7 3.378228 1_555
In4 In7 3.378228 1_565
In4 In6 3.378228 1_555
In5 In6 3.378228 1_555
In5 In7 3.378228 1_555
In5 In7 3.378228 1_565
In5 In6 3.378228 1_655
In6 In7 3.363969 1_465
In6 In7 3.363969 1_555
In6 In7 3.363969 1_455
In6 In7 3.363969 1_565
