# generated using pymatgen
data_Tb3Te3N
_symmetry_space_group_name_H-M   'P 1'
_cell_length_a   12.02757048
_cell_length_b   8.14355585
_cell_length_c   8.67488877
_cell_angle_alpha   71.13831767
_cell_angle_beta   90.00000000
_cell_angle_gamma   90.00000000
_symmetry_Int_Tables_number   1
_chemical_formula_structural   Tb3Te3N
_chemical_formula_sum   'Tb12 Te12 N4'
_cell_volume   804.05463301
_cell_formula_units_Z   4
loop_
 _symmetry_equiv_pos_site_id
 _symmetry_equiv_pos_as_xyz
  1  'x, y, z'
loop_
 _atom_site_type_symbol
 _atom_site_label
 _atom_site_symmetry_multiplicity
 _atom_site_fract_x
 _atom_site_fract_y
 _atom_site_fract_z
 _atom_site_occupancy
  Tb  Tb0  1  0.02336719  0.60214047  0.13825985  1
  Tb  Tb1  1  0.52336719  0.39785953  0.36174015  1
  Tb  Tb2  1  0.97663281  0.39785953  0.86174015  1
  Tb  Tb3  1  0.47663281  0.60214047  0.63825985  1
  Tb  Tb4  1  0.41140666  0.83839511  0.20500555  1
  Tb  Tb5  1  0.91140666  0.16160489  0.29499445  1
  Tb  Tb6  1  0.58859334  0.16160489  0.79499445  1
  Tb  Tb7  1  0.08859334  0.83839511  0.70500555  1
  Tb  Tb8  1  0.70808226  0.76810761  0.34507916  1
  Tb  Tb9  1  0.20808226  0.23189239  0.15492084  1
  Tb  Tb10  1  0.29191774  0.23189239  0.65492084  1
  Tb  Tb11  1  0.79191774  0.76810761  0.84507916  1
  Te  Te0  1  0.97892056  0.77767120  0.41426017  1
  Te  Te1  1  0.47892056  0.22232880  0.08573983  1
  Te  Te2  1  0.02107944  0.22232880  0.58573983  1
  Te  Te3  1  0.52107944  0.77767120  0.91426017  1
  Te  Te4  1  0.26696011  0.50583246  0.31307971  1
  Te  Te5  1  0.76696011  0.49416754  0.18692029  1
  Te  Te6  1  0.73303989  0.49416754  0.68692029  1
  Te  Te7  1  0.23303989  0.50583246  0.81307971  1
  Te  Te8  1  0.30878522  0.95299780  0.48324397  1
  Te  Te9  1  0.80878522  0.04700220  0.01675603  1
  Te  Te10  1  0.69121478  0.04700220  0.51675603  1
  Te  Te11  1  0.19121478  0.95299780  0.98324397  1
  N  N0  1  0.53439482  0.67288465  0.37658633  1
  N  N1  1  0.03439482  0.32711535  0.12341367  1
  N  N2  1  0.46560518  0.32711535  0.62341367  1
  N  N3  1  0.96560518  0.67288465  0.87658633  1
loop_
_geom_bond_atom_site_label_1
_geom_bond_atom_site_label_2
_geom_bond_distance
_geom_bond_site_symmetry_2
Tb0 Te5 3.197205 1_455
Tb0 Te0 3.205386 1_455
Tb0 Te4 3.275651 1_555
Tb0 Te11 3.400493 1_554
Tb1 Te4 3.197205 1_555
Tb1 Te1 3.205386 1_555
Tb1 Te5 3.275651 1_555
Tb1 Te10 3.400493 1_555
Tb2 Te7 3.197205 1_655
Tb2 Te2 3.205386 1_655
Tb2 Te6 3.275651 1_555
Tb2 Te9 3.400493 1_556
Tb3 Te6 3.197205 1_555
Tb3 Te3 3.205386 1_555
Tb3 Te7 3.275651 1_555
Tb3 Te8 3.400493 1_555
Tb4 Te3 3.025293 1_554
Tb4 Te1 3.068196 1_565
Tb4 Te4 3.096808 1_555
Tb4 Te8 3.110760 1_555
Tb4 Te11 3.228758 1_554
Tb5 Te2 3.025293 1_655
Tb5 Te0 3.068196 1_545
Tb5 Te5 3.096808 1_555
Tb5 Te9 3.110760 1_555
Tb5 Te10 3.228758 1_555
Tb6 Te1 3.025293 1_556
Tb6 Te3 3.068196 1_545
Tb6 Te6 3.096808 1_555
Tb6 Te10 3.110760 1_555
Tb6 Te9 3.228758 1_556
Tb7 Te0 3.025293 1_455
Tb7 Te2 3.068196 1_565
Tb7 Te7 3.096808 1_555
Tb7 Te11 3.110760 1_555
Tb7 Te8 3.228758 1_555
Tb8 Te5 3.056069 1_555
Tb8 Te6 3.095682 1_555
Tb8 Te10 3.099098 1_565
Tb8 Te9 3.248834 1_565
Tb8 Te0 3.317820 1_555
Tb9 Te4 3.056069 1_555
Tb9 Te7 3.095682 1_554
Tb9 Te11 3.099098 1_544
Tb9 Te8 3.248834 1_545
Tb9 Te1 3.317820 1_555
Tb10 Te7 3.056069 1_555
Tb10 Te4 3.095682 1_555
Tb10 Te8 3.099098 1_545
Tb10 Te11 3.248834 1_545
Tb10 Te2 3.317820 1_555
Tb11 Te6 3.056069 1_555
Tb11 Te5 3.095682 1_556
Tb11 Te9 3.099098 1_566
Tb11 Te10 3.248834 1_565
Tb11 Te3 3.317820 1_555
N0 Tb8 2.214288 1_555
N0 Tb4 2.218825 1_555
N0 Tb3 2.263151 1_555
N0 Tb1 2.288418 1_555
N1 Tb9 2.214288 1_555
N1 Tb5 2.218825 1_455
N1 Tb2 2.263151 1_454
N1 Tb0 2.288418 1_555
N2 Tb10 2.214288 1_555
N2 Tb6 2.218825 1_555
N2 Tb1 2.263151 1_555
N2 Tb3 2.288418 1_555
N3 Tb11 2.214288 1_555
N3 Tb7 2.218825 1_655
N3 Tb0 2.263151 1_656
N3 Tb2 2.288418 1_555
