# generated using pymatgen
data_ZrCrP
_symmetry_space_group_name_H-M   'P 1'
_cell_length_a   3.66010300
_cell_length_b   6.44133700
_cell_length_c   7.60435300
_cell_angle_alpha   90.00000000
_cell_angle_beta   90.00000000
_cell_angle_gamma   90.00000000
_symmetry_Int_Tables_number   1
_chemical_formula_structural   ZrCrP
_chemical_formula_sum   'Zr4 Cr4 P4'
_cell_volume   179.27989841
_cell_formula_units_Z   4
loop_
 _symmetry_equiv_pos_site_id
 _symmetry_equiv_pos_as_xyz
  1  'x, y, z'
loop_
 _atom_site_type_symbol
 _atom_site_label
 _atom_site_symmetry_multiplicity
 _atom_site_fract_x
 _atom_site_fract_y
 _atom_site_fract_z
 _atom_site_occupancy
  Zr  Zr0  1  0.25000000  0.53508000  0.17234400  1
  Zr  Zr1  1  0.75000000  0.46492000  0.82765600  1
  Zr  Zr2  1  0.75000000  0.96492000  0.67234400  1
  Zr  Zr3  1  0.25000000  0.03508000  0.32765600  1
  Cr  Cr0  1  0.25000000  0.63111900  0.55371000  1
  Cr  Cr1  1  0.75000000  0.36888100  0.44629000  1
  Cr  Cr2  1  0.75000000  0.86888100  0.05371000  1
  Cr  Cr3  1  0.25000000  0.13111900  0.94629000  1
  P  P0  1  0.25000000  0.76651500  0.86476800  1
  P  P1  1  0.75000000  0.23348500  0.13523200  1
  P  P2  1  0.75000000  0.73348500  0.36476800  1
  P  P3  1  0.25000000  0.26651500  0.63523200  1
loop_
_geom_bond_atom_site_label_1
_geom_bond_atom_site_label_2
_geom_bond_distance
_geom_bond_site_symmetry_2
Cr0 P2 2.418306 1_455
Cr0 P2 2.418306 1_555
Cr0 P3 2.428977 1_555
Cr0 P0 2.521052 1_555
Cr1 P3 2.418306 1_555
Cr1 P3 2.418306 1_655
Cr1 P2 2.428977 1_555
Cr1 P1 2.521052 1_555
Cr2 P0 2.418306 1_554
Cr2 P0 2.418306 1_654
Cr2 P1 2.428977 1_565
Cr2 P2 2.521052 1_555
Cr3 P1 2.418306 1_556
Cr3 P1 2.418306 1_456
Cr3 P0 2.428977 1_545
Cr3 P3 2.521052 1_555
P0 Zr2 2.668986 1_455
P0 Zr2 2.668986 1_555
P0 Zr1 2.683788 1_555
P0 Zr1 2.683788 1_455
P0 Zr0 2.773602 1_556
P1 Zr3 2.668986 1_655
P1 Zr3 2.668986 1_555
P1 Zr0 2.683788 1_555
P1 Zr0 2.683788 1_655
P1 Zr1 2.773602 1_554
P2 Zr0 2.668986 1_555
P2 Zr0 2.668986 1_655
P2 Zr3 2.683788 1_665
P2 Zr3 2.683788 1_565
P2 Zr2 2.773602 1_555
P3 Zr1 2.668986 1_555
P3 Zr1 2.668986 1_455
P3 Zr2 2.683788 1_545
P3 Zr2 2.683788 1_445
P3 Zr3 2.773602 1_555
