# generated using pymatgen
data_Pb4S2O7
_symmetry_space_group_name_H-M   'P 1'
_cell_length_a   6.47032100
_cell_length_b   7.95759809
_cell_length_c   10.47256778
_cell_angle_alpha   89.99395376
_cell_angle_beta   101.13801877
_cell_angle_gamma   91.81813036
_symmetry_Int_Tables_number   1
_chemical_formula_structural   Pb4S2O7
_chemical_formula_sum   'Pb8 S4 O14'
_cell_volume   528.78123957
_cell_formula_units_Z   2
loop_
 _symmetry_equiv_pos_site_id
 _symmetry_equiv_pos_as_xyz
  1  'x, y, z'
loop_
 _atom_site_type_symbol
 _atom_site_label
 _atom_site_symmetry_multiplicity
 _atom_site_fract_x
 _atom_site_fract_y
 _atom_site_fract_z
 _atom_site_occupancy
  Pb  Pb0  1  0.74601800  0.87692300  0.01290900  1
  Pb  Pb1  1  0.25398200  0.12307700  0.98709100  1
  Pb  Pb2  1  0.27652100  0.36643700  0.68445300  1
  Pb  Pb3  1  0.72347900  0.63356300  0.31554700  1
  Pb  Pb4  1  0.32414100  0.90496100  0.69455600  1
  Pb  Pb5  1  0.67585900  0.09503900  0.30544400  1
  Pb  Pb6  1  0.71265000  0.36907700  0.96776400  1
  Pb  Pb7  1  0.28735000  0.63092300  0.03223600  1
  S  S0  1  0.77492000  0.84312200  0.57801900  1
  S  S1  1  0.22508000  0.15687800  0.42198100  1
  S  S2  1  0.81194100  0.62724200  0.68884800  1
  S  S3  1  0.18805900  0.37275800  0.31115200  1
  O  O0  1  0.79597600  0.47832600  0.60503400  1
  O  O1  1  0.20402400  0.52167400  0.39496600  1
  O  O2  1  0.02331900  0.64894000  0.77484200  1
  O  O3  1  0.97668100  0.35106000  0.22515800  1
  O  O4  1  0.64323100  0.62656600  0.76838000  1
  O  O5  1  0.35676900  0.37343400  0.23162000  1
  O  O6  1  0.39527400  0.86280300  0.92157100  1
  O  O7  1  0.60472600  0.13719700  0.07842900  1
  O  O8  1  0.35403600  0.39326000  0.91906800  1
  O  O9  1  0.64596400  0.60674000  0.08093200  1
  O  O10  1  0.15101900  0.12127100  0.76557300  1
  O  O11  1  0.84898100  0.87872900  0.23442700  1
  O  O12  1  0.51118700  0.15508200  0.75565200  1
  O  O13  1  0.48881300  0.84491800  0.24434800  1
loop_
_geom_bond_atom_site_label_1
_geom_bond_atom_site_label_2
_geom_bond_distance
_geom_bond_site_symmetry_2
Pb2 S1 3.171682 1_555
Pb3 S0 3.171682 1_555
S0 S2 2.067349 1_555
S1 S3 2.067349 1_555
O0 S2 1.463828 1_555
O1 S3 1.463828 1_555
O2 S2 1.490166 1_455
O3 S3 1.490166 1_655
O4 S2 1.495413 1_555
O5 S3 1.495413 1_555
O6 Pb0 2.285401 1_556
O6 Pb7 2.337955 1_556
O6 Pb4 2.358693 1_555
O6 Pb1 2.441122 1_565
O7 Pb1 2.285401 1_554
O7 Pb6 2.337955 1_554
O7 Pb5 2.358693 1_555
O7 Pb0 2.441122 1_545
O8 Pb6 2.291781 1_555
O8 Pb7 2.327517 1_556
O8 Pb1 2.374583 1_555
O8 Pb2 2.418942 1_555
O9 Pb7 2.291781 1_555
O9 Pb6 2.327517 1_554
O9 Pb0 2.374583 1_555
O9 Pb3 2.418942 1_555
O10 Pb4 2.283695 1_545
O10 Pb1 2.286503 1_555
O10 Pb2 2.313633 1_555
O11 Pb5 2.283695 1_565
O11 Pb0 2.286503 1_555
O11 Pb3 2.313633 1_555
O12 Pb4 2.320318 1_545
O12 Pb2 2.326907 1_555
O13 Pb5 2.320318 1_565
O13 Pb3 2.326907 1_555
