# generated using pymatgen
data_Zr2CuSb3
_symmetry_space_group_name_H-M   'P 1'
_cell_length_a   3.93440900
_cell_length_b   3.93440900
_cell_length_c   8.66758300
_cell_angle_alpha   90.00000000
_cell_angle_beta   90.00000000
_cell_angle_gamma   90.00000000
_symmetry_Int_Tables_number   1
_chemical_formula_structural   Zr2CuSb3
_chemical_formula_sum   'Zr2 Cu1 Sb3'
_cell_volume   134.17049400
_cell_formula_units_Z   1
loop_
 _symmetry_equiv_pos_site_id
 _symmetry_equiv_pos_as_xyz
  1  'x, y, z'
loop_
 _atom_site_type_symbol
 _atom_site_label
 _atom_site_symmetry_multiplicity
 _atom_site_fract_x
 _atom_site_fract_y
 _atom_site_fract_z
 _atom_site_occupancy
  Zr  Zr0  1  0.00000000  0.50000000  0.73761200  1
  Zr  Zr1  1  0.50000000  0.00000000  0.26238800  1
  Cu  Cu0  1  0.00000000  0.00000000  0.00000000  1
  Sb  Sb0  1  0.50000000  0.50000000  0.00000000  1
  Sb  Sb1  1  0.00000000  0.50000000  0.37862600  1
  Sb  Sb2  1  0.50000000  0.00000000  0.62137400  1
loop_
_geom_bond_atom_site_label_1
_geom_bond_atom_site_label_2
_geom_bond_distance
_geom_bond_site_symmetry_2
Cu0 Sb0 2.782047 1_455
Cu0 Sb0 2.782047 1_555
Cu0 Sb0 2.782047 1_445
Cu0 Sb0 2.782047 1_545
Cu0 Zr0 3.007025 1_544
Cu0 Zr0 3.007025 1_554
Cu0 Zr1 3.007025 1_455
Cu0 Zr1 3.007025 1_555
Sb0 Zr0 3.007025 1_654
Sb0 Zr0 3.007025 1_554
Sb0 Zr1 3.007025 1_555
Sb0 Zr1 3.007025 1_565
Sb1 Zr1 2.958859 1_565
Sb1 Zr1 2.958859 1_465
Sb1 Zr1 2.958859 1_555
Sb1 Zr1 2.958859 1_455
Sb1 Zr0 3.111541 1_555
Sb2 Zr0 2.958859 1_655
Sb2 Zr0 2.958859 1_545
Sb2 Zr0 2.958859 1_645
Sb2 Zr0 2.958859 1_555
Sb2 Zr1 3.111541 1_555
