# generated using pymatgen
data_Er5BiAu2
_symmetry_space_group_name_H-M   'P 1'
_cell_length_a   8.60940149
_cell_length_b   8.60940149
_cell_length_c   8.60940149
_cell_angle_alpha   124.44886727
_cell_angle_beta   124.44886727
_cell_angle_gamma   82.45290576
_symmetry_Int_Tables_number   1
_chemical_formula_structural   Er5BiAu2
_chemical_formula_sum   'Er10 Bi2 Au4'
_cell_volume   416.91733406
_cell_formula_units_Z   2
loop_
 _symmetry_equiv_pos_site_id
 _symmetry_equiv_pos_as_xyz
  1  'x, y, z'
loop_
 _atom_site_type_symbol
 _atom_site_label
 _atom_site_symmetry_multiplicity
 _atom_site_fract_x
 _atom_site_fract_y
 _atom_site_fract_z
 _atom_site_occupancy
  Er  Er0  1  0.50000000  0.50000000  0.00000000  1
  Er  Er1  1  -0.00000000  -0.00000000  0.00000000  1
  Er  Er2  1  0.51444024  0.01444024  0.80768057  1
  Er  Er3  1  0.20675767  0.70675767  0.19231943  1
  Er  Er4  1  0.01444024  0.20675767  0.50000000  1
  Er  Er5  1  0.70675767  0.51444024  0.50000000  1
  Er  Er6  1  0.48555976  0.98555976  0.19231943  1
  Er  Er7  1  0.79324233  0.29324233  0.80768057  1
  Er  Er8  1  0.98555976  0.79324233  0.50000000  1
  Er  Er9  1  0.29324233  0.48555976  0.50000000  1
  Bi  Bi0  1  0.25000000  0.25000000  0.00000000  1
  Bi  Bi1  1  0.75000000  0.75000000  0.00000000  1
  Au  Au0  1  0.13845806  0.63845806  0.77691612  1
  Au  Au1  1  0.86154194  0.36154194  0.22308388  1
  Au  Au2  1  0.63845806  0.86154194  0.50000000  1
  Au  Au3  1  0.36154194  0.13845806  0.50000000  1
loop_
_geom_bond_atom_site_label_1
_geom_bond_atom_site_label_2
_geom_bond_distance
_geom_bond_site_symmetry_2
Bi0 Er1 3.237612 1_555
Bi0 Er0 3.237612 1_555
Bi0 Er3 3.360135 1_555
Bi0 Er7 3.360135 1_454
Bi0 Er4 3.360137 1_554
Bi0 Er9 3.360137 1_555
Bi0 Er5 3.360137 1_555
Bi0 Er8 3.360137 1_444
Bi0 Er2 3.360146 1_554
Bi0 Er6 3.360146 1_545
Bi1 Er0 3.237612 1_555
Bi1 Er1 3.237612 1_665
Bi1 Er7 3.360135 1_554
Bi1 Er3 3.360135 1_655
Bi1 Er5 3.360137 1_554
Bi1 Er8 3.360137 1_555
Bi1 Er9 3.360137 1_554
Bi1 Er4 3.360137 1_665
Bi1 Er6 3.360146 1_555
Bi1 Er2 3.360146 1_564
Au0 Er8 2.962344 1_455
Au0 Er9 2.962344 1_555
Au0 Er5 2.962344 1_455
Au0 Er4 2.962344 1_555
Au0 Er6 2.968897 1_556
Au0 Er3 2.968913 1_556
Au0 Er0 3.106520 1_556
Au0 Er1 3.106520 1_566
Au1 Er5 2.962344 1_555
Au1 Er4 2.962344 1_655
Au1 Er9 2.962344 1_655
Au1 Er8 2.962344 1_555
Au1 Er2 2.968897 1_554
Au1 Er7 2.968913 1_554
Au1 Er0 3.106520 1_555
Au1 Er1 3.106520 1_655
Au2 Er6 2.962330 1_555
Au2 Er2 2.962330 1_565
Au2 Er7 2.962345 1_565
Au2 Er3 2.962345 1_555
Au2 Er5 2.968896 1_555
Au2 Er8 2.968896 1_555
Au2 Er1 3.106520 1_666
Au2 Er0 3.106520 1_555
Au3 Er6 2.962330 1_545
Au3 Er2 2.962330 1_555
Au3 Er3 2.962345 1_545
Au3 Er7 2.962345 1_555
Au3 Er9 2.968896 1_555
Au3 Er4 2.968896 1_555
Au3 Er1 3.106520 1_555
Au3 Er0 3.106520 1_556
