# generated using pymatgen
data_Na3U2H5(Se2O9)2
_symmetry_space_group_name_H-M   'P 1'
_cell_length_a   9.77071100
_cell_length_b   9.92097038
_cell_length_c   11.73219677
_cell_angle_alpha   84.08636313
_cell_angle_beta   66.14164661
_cell_angle_gamma   62.35587390
_symmetry_Int_Tables_number   1
_chemical_formula_structural   Na3U2H5(Se2O9)2
_chemical_formula_sum   'Na6 U4 H10 Se8 O36'
_cell_volume   916.30825698
_cell_formula_units_Z   2
loop_
 _symmetry_equiv_pos_site_id
 _symmetry_equiv_pos_as_xyz
  1  'x, y, z'
loop_
 _atom_site_type_symbol
 _atom_site_label
 _atom_site_symmetry_multiplicity
 _atom_site_fract_x
 _atom_site_fract_y
 _atom_site_fract_z
 _atom_site_occupancy
  Na  Na0  1  0.65892500  0.28004800  0.50129700  1
  Na  Na1  1  0.34107500  0.71995200  0.49870300  1
  Na  Na2  1  0.23666400  0.42473000  0.48638000  1
  Na  Na3  1  0.76333600  0.57527000  0.51362000  1
  Na  Na4  1  0.91295000  0.86804900  0.51706300  1
  Na  Na5  1  0.08705000  0.13195100  0.48293700  1
  U  U0  1  0.84192600  0.64811900  0.80242300  1
  U  U1  1  0.15807400  0.35188100  0.19757700  1
  U  U2  1  0.36783500  0.80834200  0.80041000  1
  U  U3  1  0.63216500  0.19165800  0.19959000  1
  H  H0  1  0.90638100  0.73368100  0.33105500  1
  H  H1  1  0.09361900  0.26631900  0.66894500  1
  H  H2  1  0.71620600  0.85643700  0.38232300  1
  H  H3  1  0.28379400  0.14356300  0.61767700  1
  H  H4  1  0.95878300  0.29583800  0.89821600  1
  H  H5  1  0.04121700  0.70416200  0.10178400  1
  H  H6  1  0.15751700  0.18052500  0.89247400  1
  H  H7  1  0.84248300  0.81947500  0.10752600  1
  H  H8  1  0.00045200  0.30188900  0.02302600  1
  H  H9  1  0.99954800  0.69811100  0.97697400  1
  Se  Se0  1  0.95161100  0.98507300  0.75867000  1
  Se  Se1  1  0.04838900  0.01492700  0.24133000  1
  Se  Se2  1  0.51887000  0.05917200  0.79278000  1
  Se  Se3  1  0.48113000  0.94082800  0.20722000  1
  Se  Se4  1  0.71893600  0.38572000  0.77695100  1
  Se  Se5  1  0.28106400  0.61428000  0.22304900  1
  Se  Se6  1  0.30400400  0.46124500  0.76007300  1
  Se  Se7  1  0.69599600  0.53875500  0.23992700  1
  O  O0  1  0.94768200  0.62211600  0.62851100  1
  O  O1  1  0.05231800  0.37788400  0.37148900  1
  O  O2  1  0.73292500  0.66688900  0.97230500  1
  O  O3  1  0.26707500  0.33311100  0.02769500  1
  O  O4  1  0.45421700  0.77289100  0.62806700  1
  O  O5  1  0.54578300  0.22710900  0.37193300  1
  O  O6  1  0.29782300  0.83770600  0.96867400  1
  O  O7  1  0.70217700  0.16229400  0.03132600  1
  O  O8  1  0.89751700  0.36787600  0.79593700  1
  O  O9  1  0.10248300  0.63212400  0.20406300  1
  O  O10  1  0.08692400  0.51676300  0.82689600  1
  O  O11  1  0.91307600  0.48323700  0.17310400  1
  O  O12  1  0.89126400  0.84224000  0.81907600  1
  O  O13  1  0.10873600  0.15776000  0.18092400  1
  O  O14  1  0.60502600  0.85619200  0.78115300  1
  O  O15  1  0.39497400  0.14380800  0.21884700  1
  O  O16  1  0.63174200  0.58668600  0.78405000  1
  O  O17  1  0.36825800  0.41331400  0.21595000  1
  O  O18  1  0.30052700  0.61524600  0.82295800  1
  O  O19  1  0.69947300  0.38475400  0.17704200  1
  O  O20  1  0.10498900  0.95132200  0.81180100  1
  O  O21  1  0.89501100  0.04867800  0.18819900  1
  O  O22  1  0.32919200  0.08362100  0.78965800  1
  O  O23  1  0.67080800  0.91637900  0.21034200  1
  O  O24  1  0.06362400  0.92405900  0.60422100  1
  O  O25  1  0.93637600  0.07594100  0.39577900  1
  O  O26  1  0.63131000  0.08623200  0.64914500  1
  O  O27  1  0.36869000  0.91376800  0.35085500  1
  O  O28  1  0.79426600  0.33672600  0.62247100  1
  O  O29  1  0.20573400  0.66327400  0.37752900  1
  O  O30  1  0.35322600  0.48462200  0.60636700  1
  O  O31  1  0.64677400  0.51537800  0.39363300  1
  O  O32  1  0.80316100  0.78257400  0.40973900  1
  O  O33  1  0.19683900  0.21742600  0.59026100  1
  O  O34  1  0.02779500  0.23649100  0.95129100  1
  O  O35  1  0.97220500  0.76350900  0.04870900  1
loop_
_geom_bond_atom_site_label_1
_geom_bond_atom_site_label_2
_geom_bond_distance
_geom_bond_site_symmetry_2
Na0 O25 2.385301 1_555
Na0 O5 2.421096 1_555
Na0 O26 2.488867 1_555
Na0 O31 2.513337 1_555
Na0 O28 2.541934 1_555
Na0 O30 2.543989 1_555
Na1 O24 2.385301 1_555
Na1 O4 2.421096 1_555
Na1 O27 2.488867 1_555
Na1 O30 2.513337 1_555
Na1 O29 2.541934 1_555
Na1 O31 2.543989 1_555
Na2 O33 2.389373 1_555
Na2 O30 2.393543 1_555
Na2 O0 2.514160 1_455
Na2 O29 2.519666 1_555
Na2 O5 2.556542 1_555
Na2 O1 2.854316 1_555
Na2 O17 2.893295 1_555
Na3 O32 2.389373 1_555
Na3 O31 2.393543 1_555
Na3 O1 2.514160 1_655
Na3 O28 2.519666 1_555
Na3 O4 2.556542 1_555
Na3 O0 2.854316 1_555
Na3 O16 2.893295 1_555
Na4 O32 2.368980 1_555
Na4 O24 2.369756 1_655
Na4 O25 2.429166 1_565
Na4 O26 2.524564 1_565
Na4 O29 2.548467 1_655
Na4 O0 2.590581 1_555
Na5 O33 2.368980 1_555
Na5 O25 2.369756 1_455
Na5 O24 2.429166 1_545
Na5 O27 2.524564 1_545
Na5 O28 2.548467 1_455
Na5 O1 2.590581 1_555
H0 O32 0.994872 1_555
H0 O9 1.764867 1_655
H1 O33 0.994872 1_555
H1 O8 1.764867 1_455
H2 O32 0.978289 1_555
H3 O33 0.978289 1_555
H4 O34 1.041527 1_655
H4 O8 1.521965 1_555
H5 O35 1.041527 1_455
H5 O9 1.521965 1_555
H6 O34 1.053245 1_555
H6 O22 1.516134 1_555
H7 O35 1.053245 1_555
H7 O23 1.516134 1_555
H8 O34 0.985097 1_554
H9 O35 0.985097 1_556
O0 U0 1.858210 1_555
O1 U1 1.858210 1_555
O2 U0 1.821164 1_555
O3 U1 1.821164 1_555
O4 U2 1.847954 1_555
O5 U3 1.847954 1_555
O6 U2 1.814128 1_555
O7 U3 1.814128 1_555
O8 Se4 1.773457 1_555
O8 U0 2.576741 1_555
O9 Se5 1.773457 1_555
O9 U1 2.576741 1_555
O10 Se6 1.753991 1_555
O10 U0 2.257234 1_455
O11 Se7 1.753991 1_555
O11 U1 2.257234 1_655
O12 Se0 1.757354 1_555
O12 U0 2.234898 1_555
O13 Se1 1.757354 1_555
O13 U1 2.234898 1_555
O14 Se2 1.781323 1_565
O14 U0 2.368224 1_555
O14 U2 2.494508 1_555
O15 Se3 1.781323 1_545
O15 U1 2.368224 1_555
O15 U3 2.494508 1_555
O16 Se4 1.763093 1_555
O16 U2 2.438513 1_555
O16 U0 2.486371 1_555
O17 Se5 1.763093 1_555
O17 U3 2.438513 1_555
O17 U1 2.486371 1_555
O18 Se6 1.744590 1_555
O18 U2 2.257502 1_555
O19 Se7 1.744590 1_555
O19 U3 2.257502 1_555
O20 Se0 1.730186 1_455
O20 U2 2.237521 1_555
O21 Se1 1.730186 1_655
O21 U3 2.237521 1_555
O22 Se2 1.769405 1_555
O22 U2 2.574431 1_545
O23 Se3 1.769405 1_555
O23 U3 2.574431 1_565
O24 Se0 1.689564 1_455
O25 Se1 1.689564 1_655
O26 Se2 1.673797 1_555
O27 Se3 1.673797 1_555
O28 Se4 1.683204 1_555
O29 Se5 1.683204 1_555
O30 Se6 1.689009 1_555
O31 Se7 1.689009 1_555
