# generated using pymatgen
data_Sm2(CoNi)5
_symmetry_space_group_name_H-M   'P 1'
_cell_length_a   3.97163500
_cell_length_b   4.94816400
_cell_length_c   8.53535500
_cell_angle_alpha   90.00000000
_cell_angle_beta   90.00000000
_cell_angle_gamma   90.00000000
_symmetry_Int_Tables_number   1
_chemical_formula_structural   Sm2(CoNi)5
_chemical_formula_sum   'Sm2 Co5 Ni5'
_cell_volume   167.73936840
_cell_formula_units_Z   1
loop_
 _symmetry_equiv_pos_site_id
 _symmetry_equiv_pos_as_xyz
  1  'x, y, z'
loop_
 _atom_site_type_symbol
 _atom_site_label
 _atom_site_symmetry_multiplicity
 _atom_site_fract_x
 _atom_site_fract_y
 _atom_site_fract_z
 _atom_site_occupancy
  Sm  Sm0  1  0.00000000  0.50000000  0.00000000  1
  Sm  Sm1  1  0.00000000  0.00000000  0.50000000  1
  Co  Co0  1  0.00000000  0.50000000  0.33707900  1
  Co  Co1  1  0.00000000  0.00000000  0.83317800  1
  Co  Co2  1  0.00000000  0.00000000  0.16682200  1
  Co  Co3  1  0.00000000  0.50000000  0.66292100  1
  Co  Co4  1  0.50000000  0.50000000  0.50000000  1
  Ni  Ni0  1  0.50000000  0.00000000  0.00000000  1
  Ni  Ni1  1  0.50000000  0.75026600  0.25020100  1
  Ni  Ni2  1  0.50000000  0.24973400  0.74979900  1
  Ni  Ni3  1  0.50000000  0.24973400  0.25020100  1
  Ni  Ni4  1  0.50000000  0.75026600  0.74979900  1
loop_
_geom_bond_atom_site_label_1
_geom_bond_atom_site_label_2
_geom_bond_distance
_geom_bond_site_symmetry_2
Co0 Co4 2.424295 1_455
Co0 Co4 2.424295 1_555
Co0 Ni1 2.454969 1_455
Co0 Ni1 2.454969 1_555
Co0 Ni3 2.454969 1_555
Co0 Ni3 2.454969 1_455
Co0 Co3 2.781177 1_555
Co0 Sm1 2.838101 1_565
Co0 Sm1 2.838101 1_555
Co0 Co2 2.869300 1_565
Co0 Co2 2.869300 1_555
Co0 Sm0 2.877089 1_555
Co1 Ni0 2.443547 1_556
Co1 Ni0 2.443547 1_456
Co1 Ni2 2.444782 1_455
Co1 Ni2 2.444782 1_555
Co1 Ni4 2.444782 1_545
Co1 Ni4 2.444782 1_445
Co1 Sm1 2.843793 1_555
Co1 Co2 2.847770 1_556
Co1 Sm0 2.854563 1_546
Co1 Sm0 2.854563 1_556
Co1 Co3 2.869300 1_555
Co1 Co3 2.869300 1_545
Co2 Ni0 2.443547 1_555
Co2 Ni0 2.443547 1_455
Co2 Ni3 2.444782 1_455
Co2 Ni3 2.444782 1_555
Co2 Ni1 2.444782 1_545
Co2 Ni1 2.444782 1_445
Co2 Sm1 2.843793 1_555
Co2 Sm0 2.854563 1_555
Co2 Sm0 2.854563 1_545
Co3 Co4 2.424295 1_455
Co3 Co4 2.424295 1_555
Co3 Ni4 2.454969 1_455
Co3 Ni4 2.454969 1_555
Co3 Ni2 2.454969 1_455
Co3 Ni2 2.454969 1_555
Co3 Sm1 2.838101 1_555
Co3 Sm1 2.838101 1_565
Co3 Sm0 2.877089 1_556
Co4 Ni4 2.465660 1_555
Co4 Ni1 2.465660 1_555
Co4 Ni3 2.465660 1_555
Co4 Ni2 2.465660 1_555
Co4 Sm1 3.172468 1_565
Co4 Sm1 3.172468 1_655
Co4 Sm1 3.172468 1_665
Co4 Sm1 3.172468 1_555
Ni0 Ni3 2.467308 1_555
Ni0 Ni2 2.467308 1_554
Ni0 Ni4 2.467308 1_544
Ni0 Ni1 2.467308 1_545
Ni0 Sm0 3.172468 1_655
Ni0 Sm0 3.172468 1_545
Ni0 Sm0 3.172468 1_645
Ni0 Sm0 3.172468 1_555
Ni1 Ni3 2.471450 1_565
Ni1 Ni3 2.476714 1_555
Ni1 Sm1 3.164875 1_565
Ni1 Sm1 3.164875 1_665
Ni1 Sm0 3.168216 1_655
Ni1 Sm0 3.168216 1_555
Ni2 Ni4 2.471450 1_545
Ni2 Ni4 2.476714 1_555
Ni2 Sm1 3.164875 1_555
Ni2 Sm1 3.164875 1_655
Ni2 Sm0 3.168216 1_556
Ni2 Sm0 3.168216 1_656
Ni3 Sm1 3.164875 1_555
Ni3 Sm1 3.164875 1_655
Ni3 Sm0 3.168216 1_555
Ni3 Sm0 3.168216 1_655
Ni4 Sm1 3.164875 1_565
Ni4 Sm1 3.164875 1_665
Ni4 Sm0 3.168216 1_556
Ni4 Sm0 3.168216 1_656
