# generated using pymatgen
data_MoRuN3
_symmetry_space_group_name_H-M   'P 1'
_cell_length_a   8.39555307
_cell_length_b   5.57376735
_cell_length_c   7.90026314
_cell_angle_alpha   107.12162367
_cell_angle_beta   103.69190815
_cell_angle_gamma   111.85085853
_symmetry_Int_Tables_number   1
_chemical_formula_structural   MoRuN3
_chemical_formula_sum   'Mo4 Ru4 N12'
_cell_volume   301.90518246
_cell_formula_units_Z   4
loop_
 _symmetry_equiv_pos_site_id
 _symmetry_equiv_pos_as_xyz
  1  'x, y, z'
loop_
 _atom_site_type_symbol
 _atom_site_label
 _atom_site_symmetry_multiplicity
 _atom_site_fract_x
 _atom_site_fract_y
 _atom_site_fract_z
 _atom_site_occupancy
  Mo  Mo0  1  0.97975800  0.70727600  0.64741800  1
  Mo  Mo1  1  0.02024200  0.29272400  0.35258200  1
  Mo  Mo2  1  0.61552400  0.96036800  0.16059100  1
  Mo  Mo3  1  0.38447600  0.03963200  0.83940900  1
  Ru  Ru0  1  0.68860000  0.64070400  0.34076000  1
  Ru  Ru1  1  0.31140000  0.35929600  0.65924000  1
  Ru  Ru2  1  0.69891400  0.67468500  0.78272400  1
  Ru  Ru3  1  0.30108600  0.32531500  0.21727600  1
  N  N0  1  0.73224500  0.79192200  0.59778000  1
  N  N1  1  0.26775500  0.20807800  0.40222000  1
  N  N2  1  0.81055400  0.38730600  0.36973900  1
  N  N3  1  0.18944600  0.61269400  0.63026100  1
  N  N4  1  0.92802200  0.63516800  0.84022600  1
  N  N5  1  0.07197800  0.36483200  0.15977400  1
  N  N6  1  0.53091900  0.80413400  0.88449900  1
  N  N7  1  0.46908100  0.19586600  0.11550100  1
  N  N8  1  0.83772000  0.88956500  0.24648900  1
  N  N9  1  0.16228000  0.11043500  0.75351100  1
  N  N10  1  0.53348900  0.29423600  0.76436200  1
  N  N11  1  0.46651100  0.70576400  0.23563800  1
loop_
_geom_bond_atom_site_label_1
_geom_bond_atom_site_label_2
_geom_bond_distance
_geom_bond_site_symmetry_2
Mo0 N4 1.792811 1_555
Mo0 N9 1.954477 1_665
Mo0 N3 2.038919 1_655
Mo0 N2 2.084788 1_555
Mo0 N0 2.268800 1_555
Mo1 N5 1.792811 1_555
Mo1 N8 1.954477 1_445
Mo1 N2 2.038919 1_455
Mo1 N3 2.084788 1_555
Mo1 N1 2.268800 1_555
Mo2 N11 1.858892 1_555
Mo2 N6 1.925673 1_554
Mo2 N8 2.050022 1_555
Mo2 N2 2.139533 1_565
Mo2 N7 2.151910 1_565
Mo3 N10 1.858892 1_555
Mo3 N7 1.925673 1_556
Mo3 N9 2.050022 1_555
Mo3 N3 2.139533 1_545
Mo3 N6 2.151910 1_545
N0 Ru2 1.805476 1_555
N0 Ru0 1.837902 1_555
N1 Ru3 1.805476 1_555
N1 Ru1 1.837902 1_555
N2 Ru0 2.061898 1_555
N3 Ru1 2.061898 1_555
N4 Ru2 1.978716 1_555
N5 Ru3 1.978716 1_555
N6 Ru2 2.027098 1_555
N6 Ru1 2.271333 1_555
N7 Ru3 2.027098 1_555
N7 Ru0 2.271333 1_555
N8 Ru0 1.950146 1_555
N9 Ru1 1.950146 1_555
N10 Ru2 1.994444 1_555
N10 Ru1 2.060430 1_555
N11 Ru3 1.994444 1_555
N11 Ru0 2.060430 1_555
