# generated using pymatgen
data_SrH6Cl2O11
_symmetry_space_group_name_H-M   'P 1'
_cell_length_a   13.72321500
_cell_length_b   9.32517900
_cell_length_c   16.82717578
_cell_angle_alpha   62.67119178
_cell_angle_beta   90.00000000
_cell_angle_gamma   90.00000000
_symmetry_Int_Tables_number   1
_chemical_formula_structural   SrH6Cl2O11
_chemical_formula_sum   'Sr8 H48 Cl16 O88'
_cell_volume   1913.04960868
_cell_formula_units_Z   8
loop_
 _symmetry_equiv_pos_site_id
 _symmetry_equiv_pos_as_xyz
  1  'x, y, z'
loop_
 _atom_site_type_symbol
 _atom_site_label
 _atom_site_symmetry_multiplicity
 _atom_site_fract_x
 _atom_site_fract_y
 _atom_site_fract_z
 _atom_site_occupancy
  Sr  Sr0  1  0.23938000  0.01690200  0.66102300  1
  Sr  Sr1  1  0.26062000  0.01690200  0.16102300  1
  Sr  Sr2  1  0.76062000  0.98309800  0.33897700  1
  Sr  Sr3  1  0.73938000  0.98309800  0.83897700  1
  Sr  Sr4  1  0.26180000  0.50842000  0.66468800  1
  Sr  Sr5  1  0.23820000  0.50842000  0.16468800  1
  Sr  Sr6  1  0.73820000  0.49158000  0.33531200  1
  Sr  Sr7  1  0.76180000  0.49158000  0.83531200  1
  H  H0  1  0.05191500  0.49848600  0.59098700  1
  H  H1  1  0.44808500  0.49848600  0.09098700  1
  H  H2  1  0.94808500  0.50151400  0.40901300  1
  H  H3  1  0.55191500  0.50151400  0.90901300  1
  H  H4  1  0.11957300  0.48094300  0.52093900  1
  H  H5  1  0.38042700  0.48094300  0.02093900  1
  H  H6  1  0.88042700  0.51905700  0.47906100  1
  H  H7  1  0.61957300  0.51905700  0.97906100  1
  H  H8  1  0.44455200  0.93652400  0.60261400  1
  H  H9  1  0.05544800  0.93652400  0.10261400  1
  H  H10  1  0.55544800  0.06347600  0.39738600  1
  H  H11  1  0.94455200  0.06347600  0.89738600  1
  H  H12  1  0.38626900  0.04050900  0.51451800  1
  H  H13  1  0.11373100  0.04050900  0.01451800  1
  H  H14  1  0.61373100  0.95949100  0.48548200  1
  H  H15  1  0.88626900  0.95949100  0.98548200  1
  H  H16  1  0.12197200  0.20812200  0.73147400  1
  H  H17  1  0.37802800  0.20812200  0.23147400  1
  H  H18  1  0.87802800  0.79187800  0.26852600  1
  H  H19  1  0.62197200  0.79187800  0.76852600  1
  H  H20  1  0.20864400  0.14519200  0.79970000  1
  H  H21  1  0.29135600  0.14519200  0.29970000  1
  H  H22  1  0.79135600  0.85480800  0.20030000  1
  H  H23  1  0.70864400  0.85480800  0.70030000  1
  H  H24  1  0.09822600  0.82287700  0.59368400  1
  H  H25  1  0.40177400  0.82287700  0.09368400  1
  H  H26  1  0.90177400  0.17712300  0.40631600  1
  H  H27  1  0.59822600  0.17712300  0.90631600  1
  H  H28  1  0.18399700  0.87294400  0.52519000  1
  H  H29  1  0.31600300  0.87294400  0.02519000  1
  H  H30  1  0.81600300  0.12705600  0.47481000  1
  H  H31  1  0.68399700  0.12705600  0.97481000  1
  H  H32  1  0.26441700  0.65834800  0.79830300  1
  H  H33  1  0.23558300  0.65834800  0.29830300  1
  H  H34  1  0.73558300  0.34165200  0.20169700  1
  H  H35  1  0.76441700  0.34165200  0.70169700  1
  H  H36  1  0.36660600  0.70229600  0.75298900  1
  H  H37  1  0.13339400  0.70229600  0.25298900  1
  H  H38  1  0.63339400  0.29770400  0.24701100  1
  H  H39  1  0.86660600  0.29770400  0.74701100  1
  H  H40  1  0.35036200  0.36680900  0.53404300  1
  H  H41  1  0.14963800  0.36680900  0.03404300  1
  H  H42  1  0.64963800  0.63319100  0.46595700  1
  H  H43  1  0.85036200  0.63319100  0.96595700  1
  H  H44  1  0.41107100  0.26973700  0.61913300  1
  H  H45  1  0.08892900  0.26973700  0.11913300  1
  H  H46  1  0.58892900  0.73026300  0.38086700  1
  H  H47  1  0.91107100  0.73026300  0.88086700  1
  Cl  Cl0  1  0.05302600  0.41356700  0.84581300  1
  Cl  Cl1  1  0.44697400  0.41356700  0.34581300  1
  Cl  Cl2  1  0.94697400  0.58643300  0.15418700  1
  Cl  Cl3  1  0.55302600  0.58643300  0.65418700  1
  Cl  Cl4  1  0.13193700  0.28719800  0.41744700  1
  Cl  Cl5  1  0.36806300  0.28719800  0.91744700  1
  Cl  Cl6  1  0.86806300  0.71280200  0.58255300  1
  Cl  Cl7  1  0.63193700  0.71280200  0.08255300  1
  Cl  Cl8  1  0.46038400  0.90362000  0.82106300  1
  Cl  Cl9  1  0.03961600  0.90362000  0.32106300  1
  Cl  Cl10  1  0.53961600  0.09638000  0.17893700  1
  Cl  Cl11  1  0.96038400  0.09638000  0.67893700  1
  Cl  Cl12  1  0.33838600  0.81729900  0.41817000  1
  Cl  Cl13  1  0.16161400  0.81729900  0.91817000  1
  Cl  Cl14  1  0.66161400  0.18270100  0.58183000  1
  Cl  Cl15  1  0.83838600  0.18270100  0.08183000  1
  O  O0  1  0.11905400  0.47672000  0.58008100  1
  O  O1  1  0.38094600  0.47672000  0.08008100  1
  O  O2  1  0.88094600  0.52328000  0.41991900  1
  O  O3  1  0.61905400  0.52328000  0.91991900  1
  O  O4  1  0.18632200  0.81705600  0.83345100  1
  O  O5  1  0.31367800  0.81705600  0.33345100  1
  O  O6  1  0.81367800  0.18294400  0.16654900  1
  O  O7  1  0.68632200  0.18294400  0.66654900  1
  O  O8  1  0.37971100  0.97703100  0.57924900  1
  O  O9  1  0.12028900  0.97703100  0.07924900  1
  O  O10  1  0.62028900  0.02296900  0.42075100  1
  O  O11  1  0.87971100  0.02296900  0.92075100  1
  O  O12  1  0.18692400  0.31847600  0.33675700  1
  O  O13  1  0.31307600  0.31847600  0.83675700  1
  O  O14  1  0.81307600  0.68152400  0.66324300  1
  O  O15  1  0.68692400  0.68152400  0.16324300  1
  O  O16  1  0.38994500  0.02540100  0.76403600  1
  O  O17  1  0.11005500  0.02540100  0.26403600  1
  O  O18  1  0.61005500  0.97459900  0.23596400  1
  O  O19  1  0.88994500  0.97459900  0.73596400  1
  O  O20  1  0.19381900  0.20056100  0.73533000  1
  O  O21  1  0.30618100  0.20056100  0.23533000  1
  O  O22  1  0.80618100  0.79943900  0.26467000  1
  O  O23  1  0.69381900  0.79943900  0.76467000  1
  O  O24  1  0.16938900  0.82707700  0.58949400  1
  O  O25  1  0.33061100  0.82707700  0.08949400  1
  O  O26  1  0.83061100  0.17292300  0.41050600  1
  O  O27  1  0.66938900  0.17292300  0.91050600  1
  O  O28  1  0.29676800  0.70178200  0.74003400  1
  O  O29  1  0.20323200  0.70178200  0.24003400  1
  O  O30  1  0.70323200  0.29821800  0.25996600  1
  O  O31  1  0.79676800  0.29821800  0.75996600  1
  O  O32  1  0.34443800  0.30605300  0.59935700  1
  O  O33  1  0.15556200  0.30605300  0.09935700  1
  O  O34  1  0.65556200  0.69394700  0.40064300  1
  O  O35  1  0.84443800  0.69394700  0.90064300  1
  O  O36  1  0.19936000  0.21988800  0.49368100  1
  O  O37  1  0.30064000  0.21988800  0.99368100  1
  O  O38  1  0.80064000  0.78011200  0.50631900  1
  O  O39  1  0.69936000  0.78011200  0.00631900  1
  O  O40  1  0.10468100  0.49925800  0.76008500  1
  O  O41  1  0.39531900  0.49925800  0.26008500  1
  O  O42  1  0.89531900  0.50074200  0.23991500  1
  O  O43  1  0.60468100  0.50074200  0.73991500  1
  O  O44  1  0.30441600  0.66548000  0.49176200  1
  O  O45  1  0.19558400  0.66548000  0.99176200  1
  O  O46  1  0.69558400  0.33452000  0.50823800  1
  O  O47  1  0.80441600  0.33452000  0.00823800  1
  O  O48  1  0.94908300  0.45061200  0.82822500  1
  O  O49  1  0.55091700  0.45061200  0.32822500  1
  O  O50  1  0.05091700  0.54938800  0.17177500  1
  O  O51  1  0.44908300  0.54938800  0.67177500  1
  O  O52  1  0.28761500  0.95204900  0.42268500  1
  O  O53  1  0.21238500  0.95204900  0.92268500  1
  O  O54  1  0.71238500  0.04795100  0.57731500  1
  O  O55  1  0.78761500  0.04795100  0.07731500  1
  O  O56  1  0.41899600  0.80207400  0.90768900  1
  O  O57  1  0.08100400  0.80207400  0.40768900  1
  O  O58  1  0.58100400  0.19792600  0.09231100  1
  O  O59  1  0.91899600  0.19792600  0.59231100  1
  O  O60  1  0.09358500  0.44049400  0.40964100  1
  O  O61  1  0.40641500  0.44049400  0.90964100  1
  O  O62  1  0.90641500  0.55950600  0.59035900  1
  O  O63  1  0.59358500  0.55950600  0.09035900  1
  O  O64  1  0.54762200  0.98524800  0.82978900  1
  O  O65  1  0.95237800  0.98524800  0.32978900  1
  O  O66  1  0.45237800  0.01475200  0.17021100  1
  O  O67  1  0.04762200  0.01475200  0.67021100  1
  O  O68  1  0.48787500  0.80493100  0.77613300  1
  O  O69  1  0.01212500  0.80493100  0.27613300  1
  O  O70  1  0.51212500  0.19506900  0.22386700  1
  O  O71  1  0.98787500  0.19506900  0.72386700  1
  O  O72  1  0.06762900  0.24031100  0.88140900  1
  O  O73  1  0.43237100  0.24031100  0.38140900  1
  O  O74  1  0.93237100  0.75968900  0.11859100  1
  O  O75  1  0.56762900  0.75968900  0.61859100  1
  O  O76  1  0.05359100  0.17476200  0.43054600  1
  O  O77  1  0.44640900  0.17476200  0.93054600  1
  O  O78  1  0.94640900  0.82523800  0.56945400  1
  O  O79  1  0.55359100  0.82523800  0.06945400  1
  O  O80  1  0.44258000  0.83376200  0.42385600  1
  O  O81  1  0.05742000  0.83376200  0.92385600  1
  O  O82  1  0.55742000  0.16623800  0.57614400  1
  O  O83  1  0.94258000  0.16623800  0.07614400  1
  O  O84  1  0.08829000  0.46972900  0.90789400  1
  O  O85  1  0.41171000  0.46972900  0.40789400  1
  O  O86  1  0.91171000  0.53027100  0.09210600  1
  O  O87  1  0.58829000  0.53027100  0.59210600  1
loop_
_geom_bond_atom_site_label_1
_geom_bond_atom_site_label_2
_geom_bond_distance
_geom_bond_site_symmetry_2
H0 O0 0.978768 1_555
H1 O1 0.978768 1_555
H2 O2 0.978768 1_555
H3 O3 0.978768 1_555
H4 O0 0.977766 1_555
H5 O1 0.977766 1_555
H6 O2 0.977766 1_555
H7 O3 0.977766 1_555
H8 O8 0.976060 1_555
H9 O9 0.976060 1_555
H10 O10 0.976060 1_555
H11 O11 0.976060 1_555
H12 O8 0.976175 1_545
H13 O9 0.976175 1_545
H14 O10 0.976175 1_565
H15 O11 0.976175 1_565
H16 O20 0.988494 1_555
H17 O21 0.988494 1_555
H18 O22 0.988494 1_555
H19 O23 0.988494 1_555
H20 O20 0.983726 1_555
H21 O21 0.983726 1_555
H22 O22 0.983726 1_555
H23 O23 0.983726 1_555
H24 O24 0.978615 1_555
H25 O25 0.978615 1_555
H26 O26 0.978615 1_555
H27 O27 0.978615 1_555
H28 O24 0.984388 1_555
H29 O25 0.984388 1_555
H30 O26 0.984388 1_555
H31 O27 0.984388 1_555
H32 O28 0.978719 1_555
H33 O29 0.978719 1_555
H34 O30 0.978719 1_555
H35 O31 0.978719 1_555
H36 O28 0.983381 1_555
H37 O29 0.983381 1_555
H38 O30 0.983381 1_555
H39 O31 0.983381 1_555
H40 O32 0.981719 1_555
H41 O33 0.981719 1_555
H42 O34 0.981719 1_555
H43 O35 0.981719 1_555
H44 O32 0.978831 1_555
H45 O33 0.978831 1_555
H46 O34 0.978831 1_555
H47 O35 0.978831 1_555
Cl0 O84 1.449866 1_555
Cl0 O72 1.456252 1_555
Cl0 O48 1.465524 1_455
Cl0 O40 1.470915 1_555
Cl1 O85 1.449866 1_555
Cl1 O73 1.456252 1_555
Cl1 O49 1.465524 1_555
Cl1 O41 1.470915 1_555
Cl2 O86 1.449866 1_555
Cl2 O74 1.456252 1_555
Cl2 O50 1.465524 1_655
Cl2 O42 1.470915 1_555
Cl3 O87 1.449866 1_555
Cl3 O75 1.456252 1_555
Cl3 O51 1.465524 1_555
Cl3 O43 1.470915 1_555
Cl4 O76 1.446262 1_555
Cl4 O12 1.460972 1_555
Cl4 O36 1.468453 1_555
Cl4 O60 1.471515 1_555
Cl5 O77 1.446262 1_555
Cl5 O13 1.460972 1_555
Cl5 O37 1.468453 1_555
Cl5 O61 1.471515 1_555
Cl6 O78 1.446262 1_555
Cl6 O14 1.460972 1_555
Cl6 O38 1.468453 1_555
Cl6 O62 1.471515 1_555
Cl7 O79 1.446262 1_555
Cl7 O15 1.460972 1_555
Cl7 O39 1.468453 1_555
Cl7 O63 1.471515 1_555
Cl8 O56 1.441072 1_555
Cl8 O64 1.461800 1_555
Cl8 O16 1.464343 1_565
Cl8 O68 1.483150 1_555
Cl9 O57 1.441072 1_555
Cl9 O65 1.461800 1_455
Cl9 O17 1.464343 1_565
Cl9 O69 1.483150 1_555
Cl10 O58 1.441072 1_555
Cl10 O66 1.461800 1_555
Cl10 O18 1.464343 1_545
Cl10 O70 1.483150 1_555
Cl11 O59 1.441072 1_555
Cl11 O67 1.461800 1_655
Cl11 O19 1.464343 1_545
Cl11 O71 1.483150 1_555
Cl12 O80 1.445945 1_555
Cl12 O44 1.464714 1_555
Cl12 O5 1.466364 1_555
Cl12 O52 1.468959 1_555
Cl13 O81 1.445945 1_555
Cl13 O45 1.464714 1_555
Cl13 O4 1.466364 1_555
Cl13 O53 1.468959 1_555
Cl14 O82 1.445945 1_555
Cl14 O46 1.464714 1_555
Cl14 O7 1.466364 1_555
Cl14 O54 1.468959 1_555
Cl15 O83 1.445945 1_555
Cl15 O47 1.464714 1_555
Cl15 O6 1.466364 1_555
Cl15 O55 1.468959 1_555
O0 Sr4 2.517568 1_555
O1 Sr5 2.517568 1_555
O2 Sr6 2.517568 1_555
O3 Sr7 2.517568 1_555
O4 Sr0 2.730731 1_565
O5 Sr1 2.730731 1_565
O6 Sr2 2.730731 1_545
O7 Sr3 2.730731 1_545
O8 Sr0 2.492011 1_565
O9 Sr1 2.492011 1_565
O10 Sr2 2.492011 1_545
O11 Sr3 2.492011 1_545
O12 Sr5 2.703155 1_555
O13 Sr4 2.703155 1_555
O14 Sr7 2.703155 1_555
O15 Sr6 2.703155 1_555
O16 Sr0 2.721487 1_555
O17 Sr1 2.721487 1_555
O18 Sr2 2.721487 1_555
O19 Sr3 2.721487 1_555
O20 Sr0 2.617981 1_555
O20 Sr4 2.718763 1_555
O21 Sr1 2.617981 1_555
O21 Sr5 2.718763 1_555
O22 Sr2 2.617981 1_555
O22 Sr6 2.718763 1_555
O23 Sr3 2.617981 1_555
O23 Sr7 2.718763 1_555
O24 Sr0 2.731490 1_565
O24 Sr4 2.930353 1_555
O25 Sr1 2.731490 1_565
O25 Sr5 2.930353 1_555
O26 Sr2 2.731490 1_545
O26 Sr6 2.930353 1_555
O27 Sr3 2.731490 1_545
O27 Sr7 2.930353 1_555
O28 Sr4 2.681072 1_555
O28 Sr0 2.726845 1_565
O29 Sr5 2.681072 1_555
O29 Sr1 2.726845 1_565
O30 Sr6 2.681072 1_555
O30 Sr2 2.726845 1_545
O31 Sr7 2.681072 1_555
O31 Sr3 2.726845 1_545
O32 Sr0 2.802996 1_555
O32 Sr4 2.821464 1_555
O33 Sr1 2.802996 1_555
O33 Sr5 2.821464 1_555
O34 Sr2 2.802996 1_555
O34 Sr6 2.821464 1_555
O35 Sr3 2.802996 1_555
O35 Sr7 2.821464 1_555
O36 Sr0 2.630546 1_555
O37 Sr1 2.630546 1_556
O38 Sr2 2.630546 1_555
O39 Sr3 2.630546 1_554
O40 Sr4 2.665959 1_555
O41 Sr5 2.665959 1_555
O42 Sr6 2.665959 1_555
O43 Sr7 2.665959 1_555
O44 Sr4 2.653528 1_555
O45 Sr5 2.653528 1_556
O46 Sr6 2.653528 1_555
O47 Sr7 2.653528 1_554
O48 Sr7 2.609127 1_555
O49 Sr6 2.609127 1_555
O50 Sr5 2.609127 1_555
O51 Sr4 2.609127 1_555
O64 Sr3 2.635610 1_555
O65 Sr2 2.635610 1_555
O66 Sr1 2.635610 1_555
O67 Sr0 2.635610 1_555
