# generated using pymatgen
data_BiO2
_symmetry_space_group_name_H-M   'P 1'
_cell_length_a   6.16627800
_cell_length_b   6.17366906
_cell_length_c   22.27461488
_cell_angle_alpha   93.36108044
_cell_angle_beta   97.00440389
_cell_angle_gamma   110.26095918
_symmetry_Int_Tables_number   1
_chemical_formula_structural   BiO2
_chemical_formula_sum   'Bi16 O32'
_cell_volume   784.91243110
_cell_formula_units_Z   16
loop_
 _symmetry_equiv_pos_site_id
 _symmetry_equiv_pos_as_xyz
  1  'x, y, z'
loop_
 _atom_site_type_symbol
 _atom_site_label
 _atom_site_symmetry_multiplicity
 _atom_site_fract_x
 _atom_site_fract_y
 _atom_site_fract_z
 _atom_site_occupancy
  Bi  Bi0  1  0.77142100  0.36123900  0.12458400  1
  Bi  Bi1  1  0.45437400  0.30891300  0.26323200  1
  Bi  Bi2  1  0.26371400  0.85394400  0.12444100  1
  Bi  Bi3  1  0.68550600  0.31541300  0.50290800  1
  Bi  Bi4  1  0.11082700  0.27310500  0.38367500  1
  Bi  Bi5  1  0.84948900  0.89301600  0.24387600  1
  Bi  Bi6  1  0.31498700  0.92673700  0.74624900  1
  Bi  Bi7  1  0.60748500  0.77239900  0.38255700  1
  Bi  Bi8  1  0.75363600  0.86765000  0.62562300  1
  Bi  Bi9  1  0.17907200  0.82547500  0.50476900  1
  Bi  Bi10  1  0.25290200  0.37061800  0.62476700  1
  Bi  Bi11  1  0.87528300  0.99490500  0.87281800  1
  Bi  Bi12  1  0.37543100  0.50019500  0.87298000  1
  Bi  Bi13  1  0.82589300  0.42433200  0.74580500  1
  Bi  Bi14  1  0.03919100  0.45492000  0.99202800  1
  Bi  Bi15  1  0.48284500  0.00047600  0.98073100  1
  O  O0  1  0.36469700  0.69225200  0.04740200  1
  O  O1  1  0.12840100  0.54157800  0.16891500  1
  O  O2  1  0.85649400  0.18353800  0.04733900  1
  O  O3  1  0.91520600  0.64758300  0.06246400  1
  O  O4  1  0.62301700  0.05871300  0.18057200  1
  O  O5  1  0.75365600  0.62483600  0.31566000  1
  O  O6  1  0.65428400  0.55622500  0.18550300  1
  O  O7  1  0.48883000  0.45309500  0.42864100  1
  O  O8  1  0.18882900  0.06275300  0.31453800  1
  O  O9  1  0.41380200  0.16415400  0.07747300  1
  O  O10  1  0.28822400  0.53978900  0.32191200  1
  O  O11  1  0.12916700  0.03186800  0.18549000  1
  O  O12  1  0.35353300  0.18108900  0.54677100  1
  O  O13  1  0.96133000  0.95977900  0.43602500  1
  O  O14  1  0.02110000  0.48206900  0.45211700  1
  O  O15  1  0.11853000  0.03556700  0.67296000  1
  O  O16  1  0.87596100  0.69073400  0.55483800  1
  O  O17  1  0.73193800  0.08462300  0.33151400  1
  O  O18  1  0.87116400  0.18102500  0.58170900  1
  O  O19  1  0.46674200  0.94169200  0.44738800  1
  O  O20  1  0.64298500  0.54629600  0.67039300  1
  O  O21  1  0.99572500  0.78731200  0.78828200  1
  O  O22  1  0.63251400  0.04996800  0.69730800  1
  O  O23  1  0.66047600  0.77682000  0.93920100  1
  O  O24  1  0.49535400  0.29149000  0.78427600  1
  O  O25  1  0.39496300  0.70752900  0.57600900  1
  O  O26  1  0.49640900  0.82992400  0.82233600  1
  O  O27  1  0.14831300  0.56603800  0.70046200  1
  O  O28  1  0.20683200  0.24741400  0.94770300  1
  O  O29  1  0.16456600  0.68337100  0.92421500  1
  O  O30  1  0.00904100  0.30054800  0.81433500  1
  O  O31  1  0.74205000  0.26042800  0.92482800  1
loop_
_geom_bond_atom_site_label_1
_geom_bond_atom_site_label_2
_geom_bond_distance
_geom_bond_site_symmetry_2
Bi0 O6 2.112301 1_555
Bi0 O1 2.168792 1_655
Bi0 O2 2.199229 1_555
Bi0 O9 2.207272 1_555
Bi0 O4 2.291005 1_555
Bi0 O3 2.307877 1_555
Bi1 O8 2.287640 1_555
Bi1 O5 2.299558 1_555
Bi1 O10 2.430901 1_555
Bi1 O6 2.524953 1_555
Bi1 O11 2.525012 1_555
Bi2 O11 2.115483 1_565
Bi2 O1 2.169709 1_555
Bi2 O0 2.195262 1_555
Bi2 O9 2.205060 1_565
Bi2 O4 2.295496 1_565
Bi2 O3 2.306752 1_455
Bi3 O12 2.289045 1_555
Bi3 O7 2.306389 1_555
Bi3 O18 2.327748 1_555
Bi3 O16 2.357100 1_555
Bi3 O19 2.403197 1_545
Bi3 O14 2.419439 1_655
Bi4 O8 2.160597 1_555
Bi4 O14 2.182666 1_555
Bi4 O7 2.275341 1_555
Bi4 O10 2.277108 1_555
Bi4 O13 2.289749 1_445
Bi4 O17 2.336439 1_455
Bi5 O6 2.242900 1_555
Bi5 O11 2.248153 1_665
Bi5 O8 2.332078 1_665
Bi5 O5 2.347406 1_555
Bi5 O4 2.379750 1_565
Bi5 O17 2.530535 1_565
Bi6 O26 2.144891 1_555
Bi6 O15 2.189508 1_565
Bi6 O24 2.199389 1_565
Bi6 O21 2.205342 1_455
Bi6 O27 2.224456 1_555
Bi6 O22 2.277489 1_565
Bi7 O5 2.144722 1_555
Bi7 O19 2.165139 1_555
Bi7 O7 2.212800 1_555
Bi7 O10 2.220033 1_555
Bi7 O13 2.230224 1_555
Bi7 O17 2.245527 1_565
Bi8 O18 2.156085 1_565
Bi8 O25 2.202632 1_555
Bi8 O20 2.203728 1_555
Bi8 O16 2.215092 1_555
Bi8 O15 2.219648 1_665
Bi8 O22 2.244261 1_565
Bi9 O12 2.174968 1_565
Bi9 O14 2.195121 1_555
Bi9 O16 2.229249 1_455
Bi9 O19 2.252553 1_555
Bi9 O25 2.261005 1_555
Bi9 O13 2.292033 1_455
Bi10 O18 2.289165 1_455
Bi10 O27 2.297803 1_555
Bi10 O12 2.302151 1_555
Bi10 O15 2.325473 1_555
Bi10 O20 2.337230 1_555
Bi10 O25 2.346952 1_555
Bi11 O23 2.286832 1_555
Bi11 O26 2.310154 1_555
Bi11 O30 2.325979 1_665
Bi11 O31 2.376216 1_565
Bi11 O28 2.459318 1_665
Bi11 O21 2.541090 1_555
Bi12 O23 2.274870 1_555
Bi12 O26 2.322850 1_555
Bi12 O30 2.343639 1_555
Bi12 O29 2.345405 1_555
Bi12 O28 2.426826 1_555
Bi12 O24 2.613179 1_555
Bi13 O30 2.122176 1_655
Bi13 O21 2.213143 1_555
Bi13 O24 2.216265 1_555
Bi13 O20 2.221506 1_555
Bi13 O27 2.264250 1_655
Bi13 O22 2.326975 1_555
Bi14 O31 2.153160 1_455
Bi14 O29 2.155904 1_555
Bi14 O28 2.168484 1_555
Bi14 O0 2.200983 1_556
Bi14 O2 2.206215 1_456
Bi14 O3 2.272523 1_456
Bi15 O23 2.259834 1_545
Bi15 O31 2.371490 1_555
Bi15 O29 2.390925 1_545
Bi15 O2 2.439933 1_556
Bi15 O0 2.447898 1_546
Bi15 O9 2.472304 1_556
Bi15 O28 2.717586 1_555
