# generated using pymatgen
data_SmCo12
_symmetry_space_group_name_H-M   'P 1'
_cell_length_a   6.63388550
_cell_length_b   6.63388550
_cell_length_c   6.63388550
_cell_angle_alpha   95.45657401
_cell_angle_beta   95.45657401
_cell_angle_gamma   144.07809709
_symmetry_Int_Tables_number   1
_chemical_formula_structural   SmCo12
_chemical_formula_sum   'Sm1 Co12'
_cell_volume   162.93299611
_cell_formula_units_Z   1
loop_
 _symmetry_equiv_pos_site_id
 _symmetry_equiv_pos_as_xyz
  1  'x, y, z'
loop_
 _atom_site_type_symbol
 _atom_site_label
 _atom_site_symmetry_multiplicity
 _atom_site_fract_x
 _atom_site_fract_y
 _atom_site_fract_z
 _atom_site_occupancy
  Sm  Sm0  1  0.00000000  0.00000000  0.00000000  1
  Co  Co0  1  0.26747400  0.50000000  0.76747400  1
  Co  Co1  1  0.50000000  0.26747400  0.76747400  1
  Co  Co2  1  0.73252600  0.50000000  0.23252600  1
  Co  Co3  1  0.50000000  0.73252600  0.23252600  1
  Co  Co4  1  0.21438500  0.21438500  0.42877000  1
  Co  Co5  1  0.78561500  0.21438500  0.00000000  1
  Co  Co6  1  0.78561500  0.78561500  0.57123000  1
  Co  Co7  1  0.21438500  0.78561500  0.00000000  1
  Co  Co8  1  0.37317500  0.00000000  0.37317500  1
  Co  Co9  1  0.00000000  0.37317500  0.37317500  1
  Co  Co10  1  0.62682500  0.00000000  0.62682500  1
  Co  Co11  1  0.00000000  0.62682500  0.62682500  1
loop_
_geom_bond_atom_site_label_1
_geom_bond_atom_site_label_2
_geom_bond_distance
_geom_bond_site_symmetry_2
Co0 Co10 2.400086 1_455
Co0 Co10 2.400086 1_565
Co0 Co4 2.592639 1_555
Co0 Co7 2.592639 1_556
Co0 Co11 2.641826 1_555
Co0 Co9 2.641826 1_555
Co0 Co6 2.805653 1_445
Co0 Co6 2.805653 1_555
Co0 Co5 2.805653 1_456
Co0 Co5 2.805653 1_566
Co0 Sm0 2.913969 1_666
Co0 Sm0 2.913969 1_556
Co0 Co1 2.934755 1_555
Co0 Co3 2.934755 1_556
Co1 Co11 2.400086 1_545
Co1 Co11 2.400086 1_655
Co1 Co5 2.592639 1_556
Co1 Co4 2.592639 1_555
Co1 Co10 2.641826 1_555
Co1 Co8 2.641826 1_555
Co1 Co6 2.805653 1_555
Co1 Co6 2.805653 1_445
Co1 Co7 2.805653 1_546
Co1 Co7 2.805653 1_656
Co1 Sm0 2.913969 1_666
Co1 Sm0 2.913969 1_556
Co1 Co2 2.934755 1_556
Co2 Co8 2.400086 1_665
Co2 Co8 2.400086 1_555
Co2 Co5 2.592639 1_555
Co2 Co6 2.592639 1_555
Co2 Co9 2.641826 1_655
Co2 Co4 2.805653 1_665
Co2 Co4 2.805653 1_555
Co2 Co7 2.805653 1_545
Co2 Co7 2.805653 1_655
Co2 Sm0 2.913969 1_555
Co2 Sm0 2.913969 1_665
Co2 Co3 2.934755 1_555
Co3 Co9 2.400086 1_555
Co3 Co9 2.400086 1_665
Co3 Co7 2.592639 1_555
Co3 Co6 2.592639 1_555
Co3 Co8 2.641826 1_565
Co3 Co4 2.805653 1_555
Co3 Co5 2.805653 1_565
Co3 Co4 2.805653 1_665
Co3 Co5 2.805653 1_455
Co3 Sm0 2.913969 1_555
Co3 Sm0 2.913969 1_665
Co4 Co6 2.234510 1_555
Co4 Co6 2.234510 1_445
Co4 Co8 2.380947 1_555
Co4 Co9 2.380947 1_555
Co4 Sm0 2.705794 1_555
Co5 Co7 2.234510 1_655
Co5 Co7 2.234510 1_545
Co5 Co9 2.380947 1_655
Co5 Sm0 2.705794 1_655
Co6 Sm0 2.705794 1_666
Co7 Co8 2.380947 1_565
Co7 Sm0 2.705794 1_565
Co8 Co9 2.597500 1_545
Co8 Co9 2.597500 1_655
Co10 Co8 2.263707 1_555
Co10 Co5 2.380947 1_556
Co10 Co6 2.380947 1_545
Co10 Co11 2.597500 1_655
Co10 Co11 2.597500 1_545
Co10 Co9 2.597500 1_545
Co10 Co9 2.597500 1_655
Co10 Co3 2.641826 1_545
Co11 Co9 2.263707 1_555
Co11 Co7 2.380947 1_556
Co11 Co6 2.380947 1_455
Co11 Co8 2.597500 1_565
Co11 Co8 2.597500 1_455
Co11 Co2 2.641826 1_455
