# generated using pymatgen
data_PrMgAl7Fe2
_symmetry_space_group_name_H-M   'P 1'
_cell_length_a   4.01229800
_cell_length_b   12.97077900
_cell_length_c   14.50741600
_cell_angle_alpha   90.00000000
_cell_angle_beta   90.00000000
_cell_angle_gamma   90.00000000
_symmetry_Int_Tables_number   1
_chemical_formula_structural   PrMgAl7Fe2
_chemical_formula_sum   'Pr4 Mg4 Al28 Fe8'
_cell_volume   755.00409243
_cell_formula_units_Z   4
loop_
 _symmetry_equiv_pos_site_id
 _symmetry_equiv_pos_as_xyz
  1  'x, y, z'
loop_
 _atom_site_type_symbol
 _atom_site_label
 _atom_site_symmetry_multiplicity
 _atom_site_fract_x
 _atom_site_fract_y
 _atom_site_fract_z
 _atom_site_occupancy
  Pr  Pr0  1  0.00000000  0.83964600  0.18067500  1
  Pr  Pr1  1  0.00000000  0.16035400  0.81932500  1
  Pr  Pr2  1  0.00000000  0.33964600  0.31932500  1
  Pr  Pr3  1  0.00000000  0.66035400  0.68067500  1
  Mg  Mg0  1  0.00000000  0.83195900  0.45223000  1
  Mg  Mg1  1  0.00000000  0.16804100  0.54777000  1
  Mg  Mg2  1  0.00000000  0.33195900  0.04777000  1
  Mg  Mg3  1  0.00000000  0.66804100  0.95223000  1
  Al  Al0  1  0.50000000  0.50000000  0.00000000  1
  Al  Al1  1  0.50000000  0.00000000  0.50000000  1
  Al  Al2  1  0.50000000  0.83481800  0.00560400  1
  Al  Al3  1  0.50000000  0.16518200  0.99439600  1
  Al  Al4  1  0.50000000  0.33481800  0.49439600  1
  Al  Al5  1  0.50000000  0.66518200  0.50560400  1
  Al  Al6  1  0.00000000  0.50000000  0.50000000  1
  Al  Al7  1  0.00000000  0.00000000  0.00000000  1
  Al  Al8  1  0.50000000  0.52479800  0.36663600  1
  Al  Al9  1  0.50000000  0.47520200  0.63336400  1
  Al  Al10  1  0.50000000  0.02479800  0.13336400  1
  Al  Al11  1  0.50000000  0.97520200  0.86663600  1
  Al  Al12  1  0.50000000  0.65719000  0.12027700  1
  Al  Al13  1  0.50000000  0.34281000  0.87972300  1
  Al  Al14  1  0.50000000  0.15719000  0.37972300  1
  Al  Al15  1  0.50000000  0.84281000  0.62027700  1
  Al  Al16  1  0.00000000  0.59349100  0.24501500  1
  Al  Al17  1  0.00000000  0.40650900  0.75498500  1
  Al  Al18  1  0.00000000  0.09349100  0.25498500  1
  Al  Al19  1  0.00000000  0.90650900  0.74501500  1
  Al  Al20  1  0.50000000  0.72903300  0.32640300  1
  Al  Al21  1  0.50000000  0.27096700  0.67359700  1
  Al  Al22  1  0.50000000  0.22903300  0.17359700  1
  Al  Al23  1  0.50000000  0.77096700  0.82640300  1
  Al  Al24  1  0.50000000  0.95177800  0.32183300  1
  Al  Al25  1  0.50000000  0.04822200  0.67816700  1
  Al  Al26  1  0.50000000  0.45177800  0.17816700  1
  Al  Al27  1  0.50000000  0.54822200  0.82183300  1
  Fe  Fe0  1  0.00000000  0.63939400  0.39921700  1
  Fe  Fe1  1  0.00000000  0.36060600  0.60078300  1
  Fe  Fe2  1  0.00000000  0.13939400  0.10078300  1
  Fe  Fe3  1  0.00000000  0.86060600  0.89921700  1
  Fe  Fe4  1  0.00000000  0.53385900  0.09150200  1
  Fe  Fe5  1  0.00000000  0.46614100  0.90849800  1
  Fe  Fe6  1  0.00000000  0.03385900  0.40849800  1
  Fe  Fe7  1  0.00000000  0.96614100  0.59150200  1
loop_
_geom_bond_atom_site_label_1
_geom_bond_atom_site_label_2
_geom_bond_distance
_geom_bond_site_symmetry_2
Al0 Fe4 2.445333 1_655
Al0 Fe4 2.445333 1_555
Al0 Fe5 2.445333 1_554
Al0 Fe5 2.445333 1_654
Al0 Al26 2.659345 1_555
Al0 Al27 2.659345 1_554
Al0 Al12 2.683603 1_555
Al0 Al13 2.683603 1_554
Al0 Mg3 3.042312 1_654
Al0 Mg3 3.042312 1_554
Al0 Mg2 3.042312 1_555
Al0 Mg2 3.042312 1_655
Al1 Fe7 2.445333 1_545
Al1 Fe7 2.445333 1_645
Al1 Fe6 2.445333 1_655
Al1 Fe6 2.445333 1_555
Al1 Al25 2.659345 1_555
Al1 Al24 2.659345 1_545
Al1 Al15 2.683603 1_545
Al1 Al14 2.683603 1_555
Al1 Mg0 3.042312 1_645
Al1 Mg0 3.042312 1_545
Al1 Mg1 3.042312 1_655
Al1 Mg1 3.042312 1_555
Al2 Fe3 2.553155 1_554
Al2 Fe3 2.553155 1_654
Al2 Al23 2.728475 1_554
Al2 Al7 2.936276 1_565
Al2 Al7 2.936276 1_665
Al2 Mg3 3.050206 1_654
Al2 Mg3 3.050206 1_554
Al2 Pr0 3.237172 1_555
Al2 Pr0 3.237172 1_655
Al3 Fe2 2.553155 1_556
Al3 Fe2 2.553155 1_656
Al3 Al7 2.936276 1_656
Al3 Al7 2.936276 1_556
Al3 Mg2 3.050206 1_656
Al3 Mg2 3.050206 1_556
Al3 Pr1 3.237172 1_655
Al3 Pr1 3.237172 1_555
Al4 Fe1 2.553155 1_655
Al4 Fe1 2.553155 1_555
Al4 Al9 2.716646 1_555
Al4 Al6 2.936276 1_655
Al4 Al6 2.936276 1_555
Al4 Mg1 3.050206 1_655
Al4 Mg1 3.050206 1_555
Al4 Al8 3.083434 1_555
Al4 Pr2 3.237172 1_655
Al4 Pr2 3.237172 1_555
Al5 Fe0 2.553155 1_555
Al5 Fe0 2.553155 1_655
Al5 Al8 2.716646 1_555
Al5 Al6 2.936276 1_655
Al5 Al6 2.936276 1_555
Al5 Mg0 3.050206 1_655
Al5 Mg0 3.050206 1_555
Al5 Al9 3.083434 1_555
Al5 Pr3 3.237172 1_555
Al5 Pr3 3.237172 1_655
Al6 Fe1 2.325248 1_555
Al6 Fe0 2.325248 1_555
Al6 Al9 2.805604 1_555
Al6 Al9 2.805604 1_455
Al6 Al8 2.805604 1_555
Al6 Al8 2.805604 1_455
Al6 Pr3 3.346096 1_555
Al6 Pr2 3.346096 1_555
Al7 Fe2 2.325248 1_555
Al7 Fe3 2.325248 1_544
Al7 Pr0 3.346096 1_545
Al7 Pr1 3.346096 1_554
Al8 Fe0 2.541147 1_555
Al8 Fe0 2.541147 1_655
Al8 Pr2 3.203630 1_655
Al8 Pr2 3.203630 1_555
Al9 Fe1 2.541147 1_555
Al9 Fe1 2.541147 1_655
Al9 Pr3 3.203630 1_655
Al9 Pr3 3.203630 1_555
Al10 Fe2 2.541147 1_555
Al10 Fe2 2.541147 1_655
Al10 Al22 2.712626 1_555
Al10 Al3 2.716646 1_554
Al10 Al7 2.805604 1_655
Al10 Al7 2.805604 1_555
Al10 Al18 2.816318 1_655
Al10 Al18 2.816318 1_555
Al10 Al24 2.893594 1_545
Al10 Al2 3.083434 1_545
Al10 Pr0 3.203630 1_645
Al10 Pr0 3.203630 1_545
Al11 Fe3 2.541147 1_555
Al11 Fe3 2.541147 1_655
Al11 Al23 2.712626 1_555
Al11 Al2 2.716646 1_556
Al11 Al7 2.805604 1_566
Al11 Al7 2.805604 1_666
Al11 Al19 2.816318 1_655
Al11 Al19 2.816318 1_555
Al11 Al25 2.893594 1_565
Al11 Al3 3.083434 1_565
Al11 Pr1 3.203630 1_565
Al11 Pr1 3.203630 1_665
Al12 Fe4 2.599603 1_655
Al12 Fe4 2.599603 1_555
Al12 Al26 2.793582 1_555
Al12 Al16 2.825249 1_655
Al12 Al16 2.825249 1_555
Al12 Al2 2.841811 1_555
Al12 Al20 3.132186 1_555
Al12 Mg3 3.160369 1_554
Al12 Mg3 3.160369 1_654
Al12 Pr0 3.223844 1_655
Al12 Pr0 3.223844 1_555
Al13 Fe5 2.599603 1_555
Al13 Fe5 2.599603 1_655
Al13 Al27 2.793582 1_555
Al13 Al17 2.825249 1_555
Al13 Al17 2.825249 1_655
Al13 Al3 2.841811 1_555
Al13 Al21 3.132186 1_555
Al13 Mg2 3.160369 1_656
Al13 Mg2 3.160369 1_556
Al13 Pr1 3.223844 1_555
Al13 Pr1 3.223844 1_655
Al14 Fe6 2.599603 1_555
Al14 Fe6 2.599603 1_655
Al14 Al24 2.793582 1_545
Al14 Al18 2.825249 1_655
Al14 Al18 2.825249 1_555
Al14 Al4 2.841811 1_555
Al14 Al22 3.132186 1_555
Al14 Mg1 3.160369 1_555
Al14 Mg1 3.160369 1_655
Al14 Pr2 3.223844 1_655
Al14 Pr2 3.223844 1_555
Al15 Fe7 2.599603 1_655
Al15 Fe7 2.599603 1_555
Al15 Al25 2.793582 1_565
Al15 Al19 2.825249 1_555
Al15 Al19 2.825249 1_655
Al15 Al5 2.841811 1_555
Al15 Al23 3.132186 1_555
Al15 Mg0 3.160369 1_655
Al15 Mg0 3.160369 1_555
Al15 Pr3 3.223844 1_555
Al15 Pr3 3.223844 1_655
Al16 Fe0 2.314950 1_555
Al16 Fe4 2.357569 1_555
Al16 Al8 2.816318 1_455
Al16 Al8 2.816318 1_555
Al16 Al26 2.888571 1_455
Al16 Al26 2.888571 1_555
Al16 Al20 2.917125 1_555
Al16 Al20 2.917125 1_455
Al16 Pr0 3.326464 1_555
Al16 Pr2 3.464561 1_555
Al17 Fe1 2.314950 1_555
Al17 Fe5 2.357569 1_555
Al17 Al9 2.816318 1_455
Al17 Al9 2.816318 1_555
Al17 Al27 2.888571 1_555
Al17 Al27 2.888571 1_455
Al17 Al21 2.917125 1_455
Al17 Al21 2.917125 1_555
Al17 Pr1 3.326464 1_555
Al17 Pr3 3.464561 1_555
Al18 Fe2 2.314950 1_555
Al18 Fe6 2.357569 1_555
Al18 Al24 2.888571 1_545
Al18 Al24 2.888571 1_445
Al18 Al22 2.917125 1_455
Al18 Al22 2.917125 1_555
Al18 Pr2 3.326464 1_555
Al18 Pr0 3.464561 1_545
Al19 Fe3 2.314950 1_555
Al19 Fe7 2.357569 1_555
Al19 Al25 2.888571 1_565
Al19 Al25 2.888571 1_465
Al19 Al23 2.917125 1_555
Al19 Al23 2.917125 1_455
Al19 Pr3 3.326464 1_555
Al19 Pr1 3.464561 1_565
Al20 Fe0 2.548006 1_555
Al20 Fe0 2.548006 1_655
Al20 Al8 2.712626 1_555
Al20 Al5 2.728475 1_555
Al20 Al24 2.889937 1_555
Al20 Mg0 3.023097 1_555
Al20 Mg0 3.023097 1_655
Al20 Pr0 3.248488 1_555
Al20 Pr0 3.248488 1_655
Al21 Fe1 2.548006 1_555
Al21 Fe1 2.548006 1_655
Al21 Al9 2.712626 1_555
Al21 Al4 2.728475 1_555
Al21 Al25 2.889937 1_555
Al21 Mg1 3.023097 1_655
Al21 Mg1 3.023097 1_555
Al21 Pr1 3.248488 1_655
Al21 Pr1 3.248488 1_555
Al22 Fe2 2.548006 1_555
Al22 Fe2 2.548006 1_655
Al22 Al3 2.728475 1_554
Al22 Al26 2.889937 1_555
Al22 Mg2 3.023097 1_555
Al22 Mg2 3.023097 1_655
Al22 Pr2 3.248488 1_655
Al22 Pr2 3.248488 1_555
Al23 Fe3 2.548006 1_655
Al23 Fe3 2.548006 1_555
Al23 Al27 2.889937 1_555
Al23 Mg3 3.023097 1_655
Al23 Mg3 3.023097 1_555
Al23 Pr3 3.248488 1_555
Al23 Pr3 3.248488 1_655
Al24 Fe6 2.595937 1_565
Al24 Fe6 2.595937 1_665
Al24 Mg0 3.165220 1_555
Al24 Mg0 3.165220 1_655
Al24 Pr0 3.214602 1_555
Al24 Pr0 3.214602 1_655
Al25 Fe7 2.595937 1_545
Al25 Fe7 2.595937 1_645
Al25 Mg1 3.165220 1_655
Al25 Mg1 3.165220 1_555
Al25 Pr1 3.214602 1_655
Al25 Pr1 3.214602 1_555
Al26 Fe4 2.595937 1_655
Al26 Fe4 2.595937 1_555
Al26 Al8 2.893594 1_555
Al26 Mg2 3.165220 1_555
Al26 Mg2 3.165220 1_655
Al26 Pr2 3.214602 1_655
Al26 Pr2 3.214602 1_555
Al27 Fe5 2.595937 1_655
Al27 Fe5 2.595937 1_555
Al27 Al9 2.893594 1_555
Al27 Mg3 3.165220 1_555
Al27 Mg3 3.165220 1_655
Al27 Pr3 3.214602 1_555
Al27 Pr3 3.214602 1_655
Fe0 Mg0 2.613443 1_555
Fe1 Mg1 2.613443 1_555
Fe2 Mg2 2.613443 1_555
Fe3 Mg3 2.613443 1_555
Fe4 Mg3 2.666735 1_554
Fe4 Mg2 2.694555 1_555
Fe4 Fe5 2.796441 1_554
Fe5 Mg2 2.666735 1_556
Fe5 Mg3 2.694555 1_555
Fe6 Mg1 2.666735 1_555
Fe6 Mg0 2.694555 1_545
Fe6 Fe7 2.796441 1_545
Fe7 Mg0 2.666735 1_555
Fe7 Mg1 2.694555 1_565
