# generated using pymatgen
data_NdInNi2
_symmetry_space_group_name_H-M   'P 1'
_cell_length_a   4.04759837
_cell_length_b   5.17002183
_cell_length_c   7.10141639
_cell_angle_alpha   90.00000000
_cell_angle_beta   90.00000000
_cell_angle_gamma   90.00000000
_symmetry_Int_Tables_number   1
_chemical_formula_structural   NdInNi2
_chemical_formula_sum   'Nd2 In2 Ni4'
_cell_volume   148.60546034
_cell_formula_units_Z   2
loop_
 _symmetry_equiv_pos_site_id
 _symmetry_equiv_pos_as_xyz
  1  'x, y, z'
loop_
 _atom_site_type_symbol
 _atom_site_label
 _atom_site_symmetry_multiplicity
 _atom_site_fract_x
 _atom_site_fract_y
 _atom_site_fract_z
 _atom_site_occupancy
  Nd  Nd0  1  0.50000000  0.75000000  0.72644014  1
  Nd  Nd1  1  0.50000000  0.25000000  0.27355986  1
  In  In0  1  -0.00000000  0.75000000  0.34082035  1
  In  In1  1  -0.00000000  0.25000000  0.65917965  1
  Ni  Ni0  1  -0.00000000  0.00000000  0.00000000  1
  Ni  Ni1  1  -0.00000000  0.50000000  0.00000000  1
  Ni  Ni2  1  0.50000000  0.75000000  0.10554051  1
  Ni  Ni3  1  0.50000000  0.25000000  0.89445949  1
loop_
_geom_bond_atom_site_label_1
_geom_bond_atom_site_label_2
_geom_bond_distance
_geom_bond_site_symmetry_2
Nd0 Ni2 2.692150 1_556
Nd0 Ni3 2.847095 1_565
Nd0 Ni3 2.847095 1_555
Nd0 Ni1 3.088733 1_656
Nd0 Ni0 3.088733 1_566
Nd0 Ni0 3.088733 1_666
Nd0 Ni1 3.088733 1_556
Nd1 Ni3 2.692150 1_554
Nd1 Ni2 2.847095 1_555
Nd1 Ni2 2.847095 1_545
Nd1 Ni0 3.088733 1_655
Nd1 Ni1 3.088733 1_655
Nd1 Ni0 3.088733 1_555
Nd1 Ni1 3.088733 1_555
In0 Ni2 2.624386 1_555
In0 Ni2 2.624386 1_455
In0 Ni0 2.743803 1_565
In0 Ni1 2.743803 1_555
In0 Nd1 3.317558 1_555
In0 Nd1 3.317558 1_465
In0 Nd1 3.317558 1_455
In0 Nd1 3.317558 1_565
In0 Nd0 3.405122 1_555
In0 Nd0 3.405122 1_455
In1 Ni3 2.624386 1_455
In1 Ni3 2.624386 1_555
In1 Ni1 2.743803 1_556
In1 Ni0 2.743803 1_556
In1 Nd0 3.317558 1_455
In1 Nd0 3.317558 1_445
In1 Nd0 3.317558 1_555
In1 Nd0 3.317558 1_545
In1 Nd1 3.405122 1_555
In1 Nd1 3.405122 1_455
Ni0 Ni3 2.515564 1_554
Ni0 Ni2 2.515564 1_545
Ni0 Ni3 2.515564 1_454
Ni0 Ni2 2.515564 1_445
Ni0 Ni1 2.585011 1_545
Ni0 Ni1 2.585011 1_555
Ni1 Ni3 2.515564 1_554
Ni1 Ni2 2.515564 1_555
Ni1 Ni3 2.515564 1_454
Ni1 Ni2 2.515564 1_455
