# generated using pymatgen
data_Yb(ZnSb)2
_symmetry_space_group_name_H-M   'P 1'
_cell_length_a   4.49492678
_cell_length_b   4.49492678
_cell_length_c   7.39527500
_cell_angle_alpha   90.00000000
_cell_angle_beta   90.00000000
_cell_angle_gamma   120.00001142
_symmetry_Int_Tables_number   1
_chemical_formula_structural   Yb(ZnSb)2
_chemical_formula_sum   'Yb1 Zn2 Sb2'
_cell_volume   129.39877132
_cell_formula_units_Z   1
loop_
 _symmetry_equiv_pos_site_id
 _symmetry_equiv_pos_as_xyz
  1  'x, y, z'
loop_
 _atom_site_type_symbol
 _atom_site_label
 _atom_site_symmetry_multiplicity
 _atom_site_fract_x
 _atom_site_fract_y
 _atom_site_fract_z
 _atom_site_occupancy
  Yb  Yb0  1  0.00000000  0.00000000  0.00000000  1
  Zn  Zn0  1  0.66666700  0.33333300  0.36475200  1
  Zn  Zn1  1  0.33333300  0.66666700  0.63524800  1
  Sb  Sb0  1  0.66666700  0.33333300  0.74565000  1
  Sb  Sb1  1  0.33333300  0.66666700  0.25435000  1
loop_
_geom_bond_atom_site_label_1
_geom_bond_atom_site_label_2
_geom_bond_distance
_geom_bond_site_symmetry_2
Sb0 Zn1 2.720546 1_545
Sb0 Zn1 2.720546 1_655
Sb0 Zn1 2.720554 1_555
Sb0 Zn0 2.816845 1_555
Sb0 Yb0 3.205135 1_656
Sb0 Yb0 3.205138 1_666
Sb0 Yb0 3.205138 1_556
Sb1 Zn0 2.720546 1_565
Sb1 Zn0 2.720546 1_455
Sb1 Zn0 2.720554 1_555
Sb1 Zn1 2.816845 1_555
Sb1 Yb0 3.205135 1_565
Sb1 Yb0 3.205138 1_665
Sb1 Yb0 3.205138 1_555
