# generated using pymatgen
data_Pm2MgSe4
_symmetry_space_group_name_H-M   'P 1'
_cell_length_a   6.93855700
_cell_length_b   8.49315700
_cell_length_c   14.52406500
_cell_angle_alpha   90.00000000
_cell_angle_beta   90.00000000
_cell_angle_gamma   90.00000000
_symmetry_Int_Tables_number   1
_chemical_formula_structural   Pm2MgSe4
_chemical_formula_sum   'Pm8 Mg4 Se16'
_cell_volume   855.90683890
_cell_formula_units_Z   4
loop_
 _symmetry_equiv_pos_site_id
 _symmetry_equiv_pos_as_xyz
  1  'x, y, z'
loop_
 _atom_site_type_symbol
 _atom_site_label
 _atom_site_symmetry_multiplicity
 _atom_site_fract_x
 _atom_site_fract_y
 _atom_site_fract_z
 _atom_site_occupancy
  Pm  Pm0  1  0.50000000  0.00000000  0.00000000  1
  Pm  Pm1  1  0.00000000  0.00000000  0.50000000  1
  Pm  Pm2  1  0.00000000  0.50000000  0.50000000  1
  Pm  Pm3  1  0.50000000  0.50000000  0.00000000  1
  Pm  Pm4  1  0.00141900  0.75000000  0.23351700  1
  Pm  Pm5  1  0.99858100  0.25000000  0.76648300  1
  Pm  Pm6  1  0.50141900  0.25000000  0.26648300  1
  Pm  Pm7  1  0.49858100  0.75000000  0.73351700  1
  Mg  Mg0  1  0.91807800  0.25000000  0.09242300  1
  Mg  Mg1  1  0.08192200  0.75000000  0.90757700  1
  Mg  Mg2  1  0.41807800  0.75000000  0.40757700  1
  Mg  Mg3  1  0.58192200  0.25000000  0.59242300  1
  Se  Se0  1  0.74518400  0.01159000  0.16873700  1
  Se  Se1  1  0.25481600  0.98841000  0.83126300  1
  Se  Se2  1  0.24518400  0.98841000  0.33126300  1
  Se  Se3  1  0.75481600  0.01159000  0.66873700  1
  Se  Se4  1  0.75481600  0.48841000  0.66873700  1
  Se  Se5  1  0.24518400  0.51159000  0.33126300  1
  Se  Se6  1  0.25481600  0.51159000  0.83126300  1
  Se  Se7  1  0.74518400  0.48841000  0.16873700  1
  Se  Se8  1  0.24587400  0.75000000  0.06987200  1
  Se  Se9  1  0.75412600  0.25000000  0.93012800  1
  Se  Se10  1  0.74587400  0.25000000  0.43012800  1
  Se  Se11  1  0.25412600  0.75000000  0.56987200  1
  Se  Se12  1  0.28446200  0.25000000  0.09196200  1
  Se  Se13  1  0.71553800  0.75000000  0.90803800  1
  Se  Se14  1  0.78446200  0.75000000  0.40803800  1
  Se  Se15  1  0.21553800  0.25000000  0.59196200  1
loop_
_geom_bond_atom_site_label_1
_geom_bond_atom_site_label_2
_geom_bond_distance
_geom_bond_site_symmetry_2
Pm0 Se13 2.920435 1_544
Pm0 Se12 2.920435 1_555
Pm0 Se9 2.940636 1_554
Pm0 Se8 2.940636 1_545
Pm0 Se0 2.984964 1_555
Pm0 Se1 2.984964 1_544
Pm1 Se15 2.920435 1_555
Pm1 Se14 2.920435 1_445
Pm1 Se11 2.940636 1_545
Pm1 Se10 2.940636 1_455
Pm1 Se3 2.984964 1_455
Pm1 Se2 2.984964 1_545
Pm2 Se15 2.920435 1_555
Pm2 Se14 2.920435 1_455
Pm2 Se11 2.940636 1_555
Pm2 Se10 2.940636 1_455
Pm2 Se4 2.984964 1_455
Pm2 Se5 2.984964 1_555
Pm3 Se13 2.920435 1_554
Pm3 Se12 2.920435 1_555
Pm3 Se9 2.940636 1_554
Pm3 Se8 2.940636 1_555
Pm3 Se7 2.984964 1_555
Pm3 Se6 2.984964 1_554
Pm4 Se8 2.919950 1_555
Pm4 Se14 2.948070 1_455
Pm4 Se5 2.996039 1_555
Pm4 Se2 2.996039 1_555
Pm4 Se0 2.997037 1_465
Pm4 Se7 2.997037 1_455
Pm5 Se9 2.919950 1_555
Pm5 Se15 2.948070 1_655
Pm5 Se3 2.996039 1_555
Pm5 Se4 2.996039 1_555
Pm5 Se1 2.997037 1_645
Pm5 Se6 2.997037 1_655
Pm6 Se10 2.919950 1_555
Pm6 Se12 2.948070 1_555
Pm6 Se0 2.996039 1_555
Pm6 Se7 2.996039 1_555
Pm6 Se2 2.997037 1_545
Pm6 Se5 2.997037 1_555
Pm7 Se11 2.919950 1_555
Pm7 Se13 2.948070 1_555
Pm7 Se6 2.996039 1_555
Pm7 Se1 2.996039 1_555
Pm7 Se3 2.997037 1_565
Pm7 Se4 2.997037 1_555
Mg0 Se12 2.542185 1_655
Mg0 Se0 2.601477 1_555
Mg0 Se7 2.601477 1_555
Mg0 Se9 2.617331 1_554
Mg1 Se13 2.542185 1_455
Mg1 Se6 2.601477 1_555
Mg1 Se1 2.601477 1_555
Mg1 Se8 2.617331 1_556
Mg2 Se14 2.542185 1_555
Mg2 Se5 2.601477 1_555
Mg2 Se2 2.601477 1_555
Mg2 Se11 2.617331 1_555
Mg3 Se15 2.542185 1_555
Mg3 Se3 2.601477 1_555
Mg3 Se4 2.601477 1_555
Mg3 Se10 2.617331 1_555
