# generated using pymatgen
data_Zr5AgPb3
_symmetry_space_group_name_H-M   'P 1'
_cell_length_a   8.83643978
_cell_length_b   8.83652333
_cell_length_c   5.97564847
_cell_angle_alpha   90.00000000
_cell_angle_beta   90.00000000
_cell_angle_gamma   120.00031779
_symmetry_Int_Tables_number   1
_chemical_formula_structural   Zr5AgPb3
_chemical_formula_sum   'Zr10 Ag2 Pb6'
_cell_volume   404.08528234
_cell_formula_units_Z   2
loop_
 _symmetry_equiv_pos_site_id
 _symmetry_equiv_pos_as_xyz
  1  'x, y, z'
loop_
 _atom_site_type_symbol
 _atom_site_label
 _atom_site_symmetry_multiplicity
 _atom_site_fract_x
 _atom_site_fract_y
 _atom_site_fract_z
 _atom_site_occupancy
  Zr  Zr0  1  0.66667396  0.33333648  0.00000000  1
  Zr  Zr1  1  0.33332604  0.66666352  -0.00000000  1
  Zr  Zr2  1  0.33332604  0.66666352  0.50000000  1
  Zr  Zr3  1  0.66667396  0.33333648  0.50000000  1
  Zr  Zr4  1  0.72063919  0.72064162  0.75000000  1
  Zr  Zr5  1  0.27936081  0.00000243  0.75000000  1
  Zr  Zr6  1  1.00000000  0.27936624  0.75000000  1
  Zr  Zr7  1  0.27936081  0.27935838  0.25000000  1
  Zr  Zr8  1  0.72063919  0.99999757  0.25000000  1
  Zr  Zr9  1  0.00000000  0.72063376  0.25000000  1
  Ag  Ag0  1  0.00000000  -0.00000000  0.00000000  1
  Ag  Ag1  1  0.00000000  -0.00000000  0.50000000  1
  Pb  Pb0  1  0.37846001  0.37846647  0.75000000  1
  Pb  Pb1  1  0.62153999  1.00000546  0.75000000  1
  Pb  Pb2  1  0.00000000  0.62152981  0.75000000  1
  Pb  Pb3  1  0.62153999  0.62153353  0.25000000  1
  Pb  Pb4  1  0.37846001  -0.00000546  0.25000000  1
  Pb  Pb5  1  1.00000000  0.37847019  0.25000000  1
loop_
_geom_bond_atom_site_label_1
_geom_bond_atom_site_label_2
_geom_bond_distance
_geom_bond_site_symmetry_2
Zr0 Zr3 2.987824 1_554
Zr0 Zr3 2.987824 1_555
Zr0 Zr6 3.541101 1_554
Zr0 Zr9 3.541106 1_655
Zr0 Zr5 3.541200 1_554
Zr0 Zr8 3.541202 1_545
Zr0 Zr7 3.541203 1_555
Zr0 Zr4 3.541210 1_554
Zr1 Zr2 2.987824 1_554
Zr1 Zr2 2.987824 1_555
Zr1 Zr9 3.541101 1_555
Zr1 Zr6 3.541106 1_454
Zr1 Zr8 3.541200 1_555
Zr1 Zr5 3.541202 1_564
Zr1 Zr4 3.541203 1_554
Zr1 Zr7 3.541210 1_555
Zr2 Zr9 3.541101 1_555
Zr2 Zr6 3.541106 1_455
Zr2 Zr8 3.541200 1_555
Zr2 Zr5 3.541202 1_565
Zr2 Zr4 3.541203 1_555
Zr2 Zr7 3.541210 1_555
Zr3 Zr6 3.541101 1_555
Zr3 Zr9 3.541106 1_655
Zr3 Zr5 3.541200 1_555
Zr3 Zr8 3.541202 1_545
Zr3 Zr7 3.541203 1_555
Zr3 Zr4 3.541210 1_555
Ag0 Zr7 2.885391 1_555
Ag0 Zr4 2.885391 1_444
Ag0 Zr8 2.885391 1_445
Ag0 Zr5 2.885391 1_554
Ag0 Zr6 2.885462 1_454
Ag0 Zr9 2.885462 1_545
Ag0 Ag1 2.987824 1_555
Ag0 Ag1 2.987824 1_554
Ag1 Zr7 2.885391 1_555
Ag1 Zr4 2.885391 1_445
Ag1 Zr8 2.885391 1_445
Ag1 Zr5 2.885391 1_555
Ag1 Zr6 2.885462 1_455
Ag1 Zr9 2.885462 1_545
Pb0 Zr6 3.003699 1_455
Pb0 Zr5 3.003768 1_555
Pb0 Zr4 3.023628 1_555
Pb0 Zr7 3.113517 1_556
Pb0 Zr7 3.113517 1_555
Pb0 Zr2 3.145153 1_555
Pb0 Zr1 3.145153 1_556
Pb0 Zr3 3.145246 1_555
Pb0 Zr0 3.145246 1_556
Pb1 Zr6 3.003701 1_565
Pb1 Zr4 3.003760 1_555
Pb1 Zr5 3.023632 1_565
Pb1 Zr8 3.113515 1_556
Pb1 Zr8 3.113515 1_555
Pb1 Zr0 3.145153 1_566
Pb1 Zr3 3.145153 1_565
Pb1 Zr2 3.145236 1_555
Pb1 Zr1 3.145236 1_556
Pb2 Zr5 3.003795 1_565
Pb2 Zr4 3.003795 1_455
Pb2 Zr6 3.023536 1_455
Pb2 Zr9 3.113520 1_556
Pb2 Zr9 3.113520 1_555
Pb2 Zr2 3.145090 1_555
Pb2 Zr1 3.145090 1_556
Pb2 Zr0 3.145093 1_456
Pb2 Zr3 3.145093 1_455
Pb3 Zr9 3.003699 1_655
Pb3 Zr8 3.003768 1_555
Pb3 Zr7 3.023628 1_555
Pb3 Zr4 3.113517 1_555
Pb3 Zr4 3.113517 1_554
Pb3 Zr3 3.145153 1_555
Pb3 Zr0 3.145153 1_555
Pb3 Zr2 3.145246 1_555
Pb3 Zr1 3.145246 1_555
Pb4 Zr9 3.003701 1_545
Pb4 Zr7 3.003760 1_555
Pb4 Zr8 3.023632 1_545
Pb4 Zr5 3.113515 1_555
Pb4 Zr5 3.113515 1_554
Pb4 Zr2 3.145153 1_545
Pb4 Zr1 3.145153 1_545
Pb4 Zr0 3.145236 1_555
Pb4 Zr3 3.145236 1_555
Pb5 Zr8 3.003795 1_545
Pb5 Zr7 3.003795 1_655
Pb5 Zr9 3.023536 1_655
Pb5 Zr6 3.113520 1_555
Pb5 Zr6 3.113520 1_554
Pb5 Zr3 3.145090 1_555
Pb5 Zr0 3.145090 1_555
Pb5 Zr1 3.145093 1_655
Pb5 Zr2 3.145093 1_655
