# generated using pymatgen
data_KMnH5(SO5)2
_symmetry_space_group_name_H-M   'P 1'
_cell_length_a   7.17311218
_cell_length_b   8.05843562
_cell_length_c   8.38222199
_cell_angle_alpha   94.58122457
_cell_angle_beta   107.32625806
_cell_angle_gamma   77.50224291
_symmetry_Int_Tables_number   1
_chemical_formula_structural   KMnH5(SO5)2
_chemical_formula_sum   'K2 Mn2 H10 S4 O20'
_cell_volume   451.51881338
_cell_formula_units_Z   2
loop_
 _symmetry_equiv_pos_site_id
 _symmetry_equiv_pos_as_xyz
  1  'x, y, z'
loop_
 _atom_site_type_symbol
 _atom_site_label
 _atom_site_symmetry_multiplicity
 _atom_site_fract_x
 _atom_site_fract_y
 _atom_site_fract_z
 _atom_site_occupancy
  K  K0  1  0.50543300  0.49937500  0.49687100  1
  K  K1  1  0.00540700  0.99933100  0.49702300  1
  Mn  Mn0  1  0.50506900  0.50091500  0.00517400  1
  Mn  Mn1  1  0.00517800  0.00074200  0.00555900  1
  H  H0  1  0.46311200  0.82457900  0.87500400  1
  H  H1  1  0.96310400  0.32454900  0.87498200  1
  H  H2  1  0.53517300  0.17422500  0.13628800  1
  H  H3  1  0.03519700  0.67421000  0.13630400  1
  H  H4  1  0.64116700  0.70073200  0.82421100  1
  H  H5  1  0.14116900  0.20065000  0.82427500  1
  H  H6  1  0.35442300  0.30400600  0.17867100  1
  H  H7  1  0.85441600  0.80395800  0.17876000  1
  H  H8  1  0.51004500  0.01524200  0.51171800  1
  H  H9  1  0.01004200  0.51543100  0.51174800  1
  S  S0  1  0.52928900  0.14966900  0.75628300  1
  S  S1  1  0.02923700  0.64979100  0.75634000  1
  S  S2  1  0.47148200  0.85316000  0.24929300  1
  S  S3  1  0.97142100  0.35321800  0.24932700  1
  O  O0  1  0.51340900  0.70604700  0.84908900  1
  O  O1  1  0.01339500  0.20599500  0.84913000  1
  O  O2  1  0.48230400  0.29477800  0.15145100  1
  O  O3  1  0.98234100  0.79472300  0.15158200  1
  O  O4  1  0.53785700  0.33134200  0.78869400  1
  O  O5  1  0.03783100  0.83145300  0.78889500  1
  O  O6  1  0.46625000  0.66951800  0.21312600  1
  O  O7  1  0.96622400  0.16954100  0.21324900  1
  O  O8  1  0.58673700  0.10878000  0.59004700  1
  O  O9  1  0.08674400  0.60906700  0.59010500  1
  O  O10  1  0.41300100  0.89760500  0.40828700  1
  O  O11  1  0.91300000  0.39778300  0.40838000  1
  O  O12  1  0.32927500  0.11458400  0.72809800  1
  O  O13  1  0.82921900  0.61470600  0.72809100  1
  O  O14  1  0.67271700  0.88753200  0.27337100  1
  O  O15  1  0.17265600  0.38761000  0.27339100  1
  O  O16  1  0.67677400  0.04133500  0.88970000  1
  O  O17  1  0.17671200  0.54135500  0.88968300  1
  O  O18  1  0.32764500  0.95724900  0.10790000  1
  O  O19  1  0.82754700  0.45720800  0.10790100  1
loop_
_geom_bond_atom_site_label_1
_geom_bond_atom_site_label_2
_geom_bond_distance
_geom_bond_site_symmetry_2
K0 O6 2.751672 1_555
K0 O4 2.815157 1_555
K0 O13 2.824838 1_555
K0 O15 2.831230 1_555
K0 O11 3.150581 1_555
K0 O8 3.191289 1_555
K0 O10 3.233555 1_555
K0 O9 3.248169 1_555
K1 O7 2.752179 1_465
K1 O5 2.814855 1_555
K1 O12 2.824456 1_565
K1 O14 2.831462 1_455
K1 O10 3.151816 1_555
K1 O9 3.188475 1_555
K1 O11 3.235420 1_465
K1 O8 3.247068 1_465
Mn0 O6 2.170016 1_555
Mn0 O19 2.173873 1_555
Mn0 O2 2.202604 1_555
Mn0 O0 2.209703 1_554
Mn0 O4 2.221334 1_554
Mn0 O17 2.225102 1_554
Mn1 O7 2.169347 1_455
Mn1 O18 2.173569 1_545
Mn1 O3 2.200677 1_445
Mn1 O1 2.212065 1_554
Mn1 O5 2.221154 1_544
Mn1 O16 2.225754 1_454
H0 O0 0.976786 1_555
H1 O1 0.976798 1_655
H2 O2 0.976350 1_555
H3 O3 0.976201 1_455
H4 O0 0.990233 1_555
H5 O1 0.990211 1_555
H6 O2 0.995723 1_555
H7 O3 0.995847 1_555
H8 O8 1.089569 1_555
H8 O10 1.389142 1_545
H9 O9 1.090291 1_555
H9 O11 1.388979 1_455
O4 S0 1.478629 1_555
O5 S1 1.478691 1_555
O6 S2 1.492955 1_555
O7 S3 1.493100 1_555
O8 S0 1.558820 1_555
O9 S1 1.558908 1_555
O10 S2 1.507354 1_555
O11 S3 1.507716 1_555
O12 S0 1.468735 1_555
O13 S1 1.468685 1_655
O14 S2 1.480433 1_555
O15 S3 1.480515 1_455
O16 S0 1.477684 1_555
O17 S1 1.477700 1_555
O18 S2 1.492873 1_555
O19 S3 1.492757 1_555
