# generated using pymatgen
data_BaTh
_symmetry_space_group_name_H-M   'P 1'
_cell_length_a   7.55157800
_cell_length_b   7.55156504
_cell_length_c   13.01961000
_cell_angle_alpha   90.00000000
_cell_angle_beta   90.00000000
_cell_angle_gamma   120.00004801
_symmetry_Int_Tables_number   1
_chemical_formula_structural   BaTh
_chemical_formula_sum   'Ba8 Th8'
_cell_volume   642.98830921
_cell_formula_units_Z   8
loop_
 _symmetry_equiv_pos_site_id
 _symmetry_equiv_pos_as_xyz
  1  'x, y, z'
loop_
 _atom_site_type_symbol
 _atom_site_label
 _atom_site_symmetry_multiplicity
 _atom_site_fract_x
 _atom_site_fract_y
 _atom_site_fract_z
 _atom_site_occupancy
  Ba  Ba0_0  1  0.33333300  0.16666600  0.37500000  1
  Ba  Ba0_1  1  0.33333300  0.16666600  0.87500000  1
  Ba  Ba0_2  1  0.33333300  0.66666600  0.37500000  1
  Ba  Ba0_3  1  0.33333300  0.66666600  0.87500000  1
  Ba  Ba0_4  1  0.83333300  0.16666600  0.37500000  1
  Ba  Ba0_5  1  0.83333300  0.16666600  0.87500000  1
  Ba  Ba0_6  1  0.83333300  0.66666600  0.37500000  1
  Ba  Ba0_7  1  0.83333300  0.66666600  0.87500000  1
  Th  Th0_0  1  0.16666700  0.33333400  0.12500000  1
  Th  Th0_1  1  0.16666700  0.33333400  0.62500000  1
  Th  Th0_2  1  0.16666700  0.83333400  0.12500000  1
  Th  Th0_3  1  0.16666700  0.83333400  0.62500000  1
  Th  Th0_4  1  0.66666700  0.33333400  0.12500000  1
  Th  Th0_5  1  0.66666700  0.33333400  0.62500000  1
  Th  Th0_6  1  0.66666700  0.83333400  0.12500000  1
  Th  Th0_7  1  0.66666700  0.83333400  0.62500000  1
loop_
_geom_bond_atom_site_label_1
_geom_bond_atom_site_label_2
_geom_bond_distance
_geom_bond_site_symmetry_2
Ba0_0 Ba0_2 3.775783 1_555
Ba0_0 Ba0_2 3.775783 1_545
Ba0_0 Ba0_6 3.775783 1_445
Ba0_0 Ba0_6 3.775783 1_555
Ba0_0 Ba0_4 3.775789 1_555
Ba0_0 Ba0_4 3.775789 1_455
Ba0_0 Th0_3 3.917464 1_545
Ba0_0 Th0_2 3.917464 1_545
Ba0_0 Th0_1 3.917473 1_555
Ba0_0 Th0_0 3.917473 1_555
Ba0_0 Th0_5 3.917474 1_555
Ba0_0 Th0_4 3.917474 1_555
Ba0_1 Ba0_3 3.775783 1_545
Ba0_1 Ba0_3 3.775783 1_555
Ba0_1 Ba0_7 3.775783 1_445
Ba0_1 Ba0_7 3.775783 1_555
Ba0_1 Ba0_5 3.775789 1_555
Ba0_1 Ba0_5 3.775789 1_455
Ba0_1 Th0_3 3.917464 1_545
Ba0_1 Th0_2 3.917464 1_546
Ba0_1 Th0_0 3.917473 1_556
Ba0_1 Th0_1 3.917473 1_555
Ba0_1 Th0_4 3.917474 1_556
Ba0_1 Th0_5 3.917474 1_555
Ba0_2 Ba0_4 3.775783 1_455
Ba0_2 Ba0_4 3.775783 1_565
Ba0_2 Ba0_6 3.775789 1_455
Ba0_2 Ba0_6 3.775789 1_555
Ba0_2 Th0_0 3.917464 1_555
Ba0_2 Th0_1 3.917464 1_555
Ba0_2 Th0_2 3.917473 1_555
Ba0_2 Th0_3 3.917473 1_555
Ba0_2 Th0_7 3.917474 1_555
Ba0_2 Th0_6 3.917474 1_555
Ba0_3 Ba0_5 3.775783 1_565
Ba0_3 Ba0_5 3.775783 1_455
Ba0_3 Ba0_7 3.775789 1_455
Ba0_3 Ba0_7 3.775789 1_555
Ba0_3 Th0_0 3.917464 1_556
Ba0_3 Th0_1 3.917464 1_555
Ba0_3 Th0_3 3.917473 1_555
Ba0_3 Th0_2 3.917473 1_556
Ba0_3 Th0_7 3.917474 1_555
Ba0_3 Th0_6 3.917474 1_556
Ba0_4 Ba0_6 3.775783 1_555
Ba0_4 Ba0_6 3.775783 1_545
Ba0_4 Th0_6 3.917464 1_545
Ba0_4 Th0_7 3.917464 1_545
Ba0_4 Th0_5 3.917473 1_555
Ba0_4 Th0_4 3.917473 1_555
Ba0_4 Th0_0 3.917474 1_655
Ba0_4 Th0_1 3.917474 1_655
Ba0_5 Ba0_7 3.775783 1_555
Ba0_5 Ba0_7 3.775783 1_545
Ba0_5 Th0_6 3.917464 1_546
Ba0_5 Th0_7 3.917464 1_545
Ba0_5 Th0_5 3.917473 1_555
Ba0_5 Th0_4 3.917473 1_556
Ba0_5 Th0_0 3.917474 1_656
Ba0_5 Th0_1 3.917474 1_655
Ba0_6 Th0_5 3.917464 1_555
Ba0_6 Th0_4 3.917464 1_555
Ba0_6 Th0_6 3.917473 1_555
Ba0_6 Th0_7 3.917473 1_555
Ba0_6 Th0_3 3.917474 1_655
Ba0_6 Th0_2 3.917474 1_655
Ba0_7 Th0_4 3.917464 1_556
Ba0_7 Th0_5 3.917464 1_555
Ba0_7 Th0_6 3.917473 1_556
Ba0_7 Th0_7 3.917473 1_555
Ba0_7 Th0_2 3.917474 1_656
Ba0_7 Th0_3 3.917474 1_655
Th0_0 Th0_2 3.775783 1_555
Th0_0 Th0_2 3.775783 1_545
Th0_0 Th0_6 3.775783 1_555
Th0_0 Th0_6 3.775783 1_445
Th0_0 Th0_4 3.775789 1_555
Th0_0 Th0_4 3.775789 1_455
Th0_1 Th0_3 3.775783 1_545
Th0_1 Th0_3 3.775783 1_555
Th0_1 Th0_7 3.775783 1_555
Th0_1 Th0_7 3.775783 1_445
Th0_1 Th0_5 3.775789 1_555
Th0_1 Th0_5 3.775789 1_455
Th0_2 Th0_4 3.775783 1_455
Th0_2 Th0_4 3.775783 1_565
Th0_2 Th0_6 3.775789 1_555
Th0_2 Th0_6 3.775789 1_455
Th0_3 Th0_5 3.775783 1_455
Th0_3 Th0_5 3.775783 1_565
Th0_3 Th0_7 3.775789 1_455
Th0_3 Th0_7 3.775789 1_555
Th0_4 Th0_6 3.775783 1_555
Th0_4 Th0_6 3.775783 1_545
Th0_5 Th0_7 3.775783 1_555
Th0_5 Th0_7 3.775783 1_545
