# generated using pymatgen
data_Eu2Sb3
_symmetry_space_group_name_H-M   'P 1'
_cell_length_a   12.63661300
_cell_length_b   6.61351400
_cell_length_c   14.84996833
_cell_angle_alpha   89.98785790
_cell_angle_beta   90.00000000
_cell_angle_gamma   90.00000000
_symmetry_Int_Tables_number   1
_chemical_formula_structural   Eu2Sb3
_chemical_formula_sum   'Eu16 Sb24'
_cell_volume   1241.04771796
_cell_formula_units_Z   8
loop_
 _symmetry_equiv_pos_site_id
 _symmetry_equiv_pos_as_xyz
  1  'x, y, z'
loop_
 _atom_site_type_symbol
 _atom_site_label
 _atom_site_symmetry_multiplicity
 _atom_site_fract_x
 _atom_site_fract_y
 _atom_site_fract_z
 _atom_site_occupancy
  Eu  Eu0  1  0.77909000  0.00057600  0.74622400  1
  Eu  Eu1  1  0.27909000  0.99942400  0.75377600  1
  Eu  Eu2  1  0.22091000  0.99942400  0.25377600  1
  Eu  Eu3  1  0.72091000  0.00057600  0.24622400  1
  Eu  Eu4  1  0.97162800  0.49819300  0.75207600  1
  Eu  Eu5  1  0.47162800  0.50180700  0.74792400  1
  Eu  Eu6  1  0.02837200  0.50180700  0.24792400  1
  Eu  Eu7  1  0.52837200  0.49819300  0.25207600  1
  Eu  Eu8  1  0.87589900  0.25245800  0.99827500  1
  Eu  Eu9  1  0.37589900  0.74754200  0.50172500  1
  Eu  Eu10  1  0.12410100  0.74754200  0.00172500  1
  Eu  Eu11  1  0.62410100  0.25245800  0.49827500  1
  Eu  Eu12  1  0.87325400  0.75085700  0.49606600  1
  Eu  Eu13  1  0.37325400  0.24914300  0.00393400  1
  Eu  Eu14  1  0.12674600  0.24914300  0.50393400  1
  Eu  Eu15  1  0.62674600  0.75085700  0.99606600  1
  Sb  Sb0  1  0.87826100  0.75603800  0.93041500  1
  Sb  Sb1  1  0.37826100  0.24396200  0.56958500  1
  Sb  Sb2  1  0.12173900  0.24396200  0.06958500  1
  Sb  Sb3  1  0.62173900  0.75603800  0.43041500  1
  Sb  Sb4  1  0.53674400  0.94919300  0.65756400  1
  Sb  Sb5  1  0.03674400  0.05080700  0.84243600  1
  Sb  Sb6  1  0.46325600  0.05080700  0.34243600  1
  Sb  Sb7  1  0.96325600  0.94919300  0.15756400  1
  Sb  Sb8  1  0.04201400  0.92261500  0.65147200  1
  Sb  Sb9  1  0.54201400  0.07738500  0.84852800  1
  Sb  Sb10  1  0.95798600  0.07738500  0.34852800  1
  Sb  Sb11  1  0.45798600  0.92261500  0.15147200  1
  Sb  Sb12  1  0.70699600  0.42681400  0.84537400  1
  Sb  Sb13  1  0.20699600  0.57318600  0.65462600  1
  Sb  Sb14  1  0.29300400  0.57318600  0.15462600  1
  Sb  Sb15  1  0.79300400  0.42681400  0.34537400  1
  Sb  Sb16  1  0.71398100  0.55715700  0.65495500  1
  Sb  Sb17  1  0.21398100  0.44284300  0.84504500  1
  Sb  Sb18  1  0.28601900  0.44284300  0.34504500  1
  Sb  Sb19  1  0.78601900  0.55715700  0.15495500  1
  Sb  Sb20  1  0.87277200  0.25450800  0.56872500  1
  Sb  Sb21  1  0.37277200  0.74549200  0.93127500  1
  Sb  Sb22  1  0.12722800  0.74549200  0.43127500  1
  Sb  Sb23  1  0.62722800  0.25450800  0.06872500  1
loop_
_geom_bond_atom_site_label_1
_geom_bond_atom_site_label_2
_geom_bond_distance
_geom_bond_site_symmetry_2
Eu0 Sb12 3.308471 1_555
Eu0 Sb16 3.333986 1_545
Eu0 Sb20 3.341798 1_555
Eu0 Sb4 3.350760 1_545
Eu0 Sb9 3.397266 1_555
Eu0 Sb0 3.415494 1_545
Eu0 Sb5 3.571077 1_655
Eu0 Sb8 3.644829 1_645
Eu0 Sb16 4.007643 1_555
Eu1 Sb13 3.308471 1_555
Eu1 Sb17 3.333986 1_565
Eu1 Sb21 3.341798 1_555
Eu1 Sb5 3.350760 1_565
Eu1 Sb8 3.397266 1_555
Eu1 Sb1 3.415494 1_565
Eu1 Sb4 3.571077 1_555
Eu1 Sb9 3.644829 1_565
Eu1 Sb17 4.007643 1_555
Eu2 Sb14 3.308471 1_555
Eu2 Sb18 3.333986 1_565
Eu2 Sb22 3.341798 1_555
Eu2 Sb6 3.350760 1_565
Eu2 Sb11 3.397266 1_555
Eu2 Sb2 3.415494 1_565
Eu2 Sb7 3.571077 1_455
Eu2 Sb10 3.644829 1_465
Eu2 Sb18 4.007643 1_555
Eu3 Sb15 3.308471 1_555
Eu3 Sb19 3.333986 1_545
Eu3 Sb23 3.341798 1_555
Eu3 Sb7 3.350760 1_545
Eu3 Sb10 3.397266 1_555
Eu3 Sb3 3.415494 1_545
Eu3 Sb6 3.571077 1_555
Eu3 Sb11 3.644829 1_545
Eu3 Sb19 4.007643 1_555
Eu4 Sb8 3.301525 1_655
Eu4 Sb13 3.344556 1_655
Eu4 Sb5 3.351178 1_655
Eu4 Sb0 3.363852 1_555
Eu4 Sb17 3.379177 1_655
Eu4 Sb20 3.401922 1_555
Eu4 Sb16 3.582183 1_555
Eu4 Sb12 3.650313 1_555
Eu4 Sb5 3.979532 1_665
Eu5 Sb9 3.301525 1_555
Eu5 Sb12 3.344556 1_555
Eu5 Sb4 3.351178 1_555
Eu5 Sb1 3.363852 1_555
Eu5 Sb16 3.379177 1_555
Eu5 Sb21 3.401922 1_555
Eu5 Sb17 3.582183 1_555
Eu5 Sb13 3.650313 1_555
Eu5 Sb4 3.979532 1_545
Eu6 Sb10 3.301525 1_455
Eu6 Sb15 3.344556 1_455
Eu6 Sb7 3.351178 1_455
Eu6 Sb2 3.363852 1_555
Eu6 Sb19 3.379177 1_455
Eu6 Sb22 3.401922 1_555
Eu6 Sb18 3.582183 1_555
Eu6 Sb14 3.650313 1_555
Eu6 Sb7 3.979532 1_445
Eu7 Sb11 3.301525 1_555
Eu7 Sb14 3.344556 1_555
Eu7 Sb6 3.351178 1_555
Eu7 Sb3 3.363852 1_555
Eu7 Sb18 3.379177 1_555
Eu7 Sb23 3.401922 1_555
Eu7 Sb19 3.582183 1_555
Eu7 Sb15 3.650313 1_555
Eu7 Sb6 3.979532 1_565
Eu8 Sb19 3.281194 1_556
Eu8 Sb2 3.282587 1_656
Eu8 Sb7 3.291578 1_546
Eu8 Sb23 3.311964 1_556
Eu8 Sb12 3.322583 1_555
Eu8 Sb5 3.356575 1_655
Eu8 Sb0 3.434590 1_545
Eu8 Sb0 3.479476 1_555
Eu9 Sb18 3.281194 1_555
Eu9 Sb3 3.282587 1_555
Eu9 Sb6 3.291578 1_565
Eu9 Sb22 3.311964 1_555
Eu9 Sb13 3.322583 1_555
Eu9 Sb4 3.356575 1_555
Eu9 Sb1 3.434590 1_565
Eu9 Sb1 3.479476 1_555
Eu10 Sb17 3.281194 1_554
Eu10 Sb0 3.282587 1_454
Eu10 Sb5 3.291578 1_564
Eu10 Sb21 3.311964 1_554
Eu10 Sb14 3.322583 1_555
Eu10 Sb7 3.356575 1_455
Eu10 Sb2 3.434590 1_565
Eu10 Sb2 3.479476 1_555
Eu11 Sb16 3.281194 1_555
Eu11 Sb1 3.282587 1_555
Eu11 Sb4 3.291578 1_545
Eu11 Sb20 3.311964 1_555
Eu11 Sb15 3.322583 1_555
Eu11 Sb6 3.356575 1_555
Eu11 Sb3 3.434590 1_545
Eu11 Sb3 3.479476 1_555
Eu12 Sb10 3.257003 1_565
Eu12 Sb15 3.260483 1_555
Eu12 Sb3 3.324635 1_555
Eu12 Sb8 3.341414 1_655
Eu12 Sb22 3.350680 1_655
Eu12 Sb16 3.355271 1_555
Eu12 Sb20 3.455181 1_555
Eu12 Sb20 3.501526 1_565
Eu13 Sb11 3.257003 1_545
Eu13 Sb14 3.260483 1_555
Eu13 Sb2 3.324635 1_555
Eu13 Sb9 3.341414 1_554
Eu13 Sb23 3.350680 1_555
Eu13 Sb17 3.355271 1_554
Eu13 Sb21 3.455181 1_554
Eu13 Sb21 3.501526 1_544
Eu14 Sb8 3.257003 1_545
Eu14 Sb13 3.260483 1_555
Eu14 Sb1 3.324635 1_555
Eu14 Sb10 3.341414 1_455
Eu14 Sb20 3.350680 1_455
Eu14 Sb18 3.355271 1_555
Eu14 Sb22 3.455181 1_555
Eu14 Sb22 3.501526 1_545
Eu15 Sb9 3.257003 1_565
Eu15 Sb12 3.260483 1_555
Eu15 Sb0 3.324635 1_555
Eu15 Sb11 3.341414 1_556
Eu15 Sb21 3.350680 1_555
Eu15 Sb19 3.355271 1_556
Eu15 Sb23 3.455181 1_556
Eu15 Sb23 3.501526 1_566
Sb0 Sb5 3.084960 1_665
Sb0 Sb12 3.319718 1_555
Sb1 Sb4 3.084960 1_545
Sb1 Sb13 3.319718 1_555
Sb2 Sb7 3.084960 1_445
Sb3 Sb6 3.084960 1_565
Sb4 Sb9 2.960749 1_565
Sb5 Sb8 2.960749 1_545
Sb10 Sb7 2.960749 1_545
Sb10 Sb15 3.112732 1_555
Sb10 Sb22 3.301594 1_645
Sb11 Sb6 2.960749 1_565
Sb11 Sb14 3.112732 1_555
Sb11 Sb23 3.301594 1_565
Sb12 Sb16 2.957334 1_555
Sb12 Sb9 3.112732 1_555
Sb13 Sb17 2.957334 1_555
Sb13 Sb8 3.112732 1_555
Sb14 Sb18 2.957334 1_555
Sb14 Sb2 3.319718 1_555
Sb15 Sb19 2.957334 1_555
Sb15 Sb3 3.319718 1_555
Sb16 Sb20 3.110219 1_555
Sb16 Sb4 3.426364 1_555
Sb17 Sb21 3.110219 1_555
Sb17 Sb5 3.426364 1_555
Sb18 Sb22 3.110219 1_555
Sb18 Sb6 3.426364 1_555
Sb19 Sb23 3.110219 1_555
Sb19 Sb7 3.426364 1_555
Sb20 Sb8 3.301594 1_645
Sb21 Sb9 3.301594 1_565
