# generated using pymatgen
data_MgSb
_symmetry_space_group_name_H-M   'P 1'
_cell_length_a   5.95895473
_cell_length_b   5.95895473
_cell_length_c   8.30882019
_cell_angle_alpha   75.99300906
_cell_angle_beta   75.99300906
_cell_angle_gamma   31.87879692
_symmetry_Int_Tables_number   1
_chemical_formula_structural   MgSb
_chemical_formula_sum   'Mg3 Sb3'
_cell_volume   150.80002628
_cell_formula_units_Z   3
loop_
 _symmetry_equiv_pos_site_id
 _symmetry_equiv_pos_as_xyz
  1  'x, y, z'
loop_
 _atom_site_type_symbol
 _atom_site_label
 _atom_site_symmetry_multiplicity
 _atom_site_fract_x
 _atom_site_fract_y
 _atom_site_fract_z
 _atom_site_occupancy
  Mg  Mg0  1  0.66205500  0.66205500  0.67895700  1
  Mg  Mg1  1  0.00125400  0.00125400  0.38196500  1
  Mg  Mg2  1  0.78057900  0.78057900  0.03592300  1
  Sb  Sb0  1  0.05790800  0.05790800  0.00420500  1
  Sb  Sb1  1  0.39682200  0.39682200  0.70722400  1
  Sb  Sb2  1  0.26804900  0.26804900  0.35839300  1
loop_
_geom_bond_atom_site_label_1
_geom_bond_atom_site_label_2
_geom_bond_distance
_geom_bond_site_symmetry_2
Mg0 Sb1 2.989025 1_555
Mg0 Sb2 3.101435 1_565
Mg0 Sb2 3.101435 1_655
Mg0 Sb0 3.127581 1_656
Mg0 Sb0 3.127581 1_566
Mg0 Sb1 3.207690 1_565
Mg0 Sb1 3.207690 1_655
Mg1 Sb2 3.014056 1_555
Mg1 Sb0 3.040938 1_555
Mg1 Sb1 3.128189 1_545
Mg1 Sb1 3.128189 1_455
Mg1 Sb2 3.181489 1_455
Mg1 Sb2 3.181489 1_545
Mg2 Sb0 3.097962 1_655
Mg2 Sb0 3.097962 1_565
Mg2 Sb2 3.111880 1_655
Mg2 Sb2 3.111880 1_565
Mg2 Sb0 3.122204 1_665
Mg2 Sb1 3.174876 1_564
Mg2 Sb1 3.174876 1_654
