# generated using pymatgen
data_LiPr2(BrO2)2
_symmetry_space_group_name_H-M   'P 1'
_cell_length_a   4.35567300
_cell_length_b   5.69061005
_cell_length_c   7.59632117
_cell_angle_alpha   117.61152770
_cell_angle_beta   90.00000000
_cell_angle_gamma   90.00000000
_symmetry_Int_Tables_number   1
_chemical_formula_structural   LiPr2(BrO2)2
_chemical_formula_sum   'Li1 Pr2 Br2 O4'
_cell_volume   166.84193622
_cell_formula_units_Z   1
loop_
 _symmetry_equiv_pos_site_id
 _symmetry_equiv_pos_as_xyz
  1  'x, y, z'
loop_
 _atom_site_type_symbol
 _atom_site_label
 _atom_site_symmetry_multiplicity
 _atom_site_fract_x
 _atom_site_fract_y
 _atom_site_fract_z
 _atom_site_occupancy
  Li  Li0  1  0.75000000  0.30018800  0.91569700  1
  Pr  Pr0  1  0.75000000  0.16181300  0.37425000  1
  Pr  Pr1  1  0.25000000  0.80857600  0.61380000  1
  Br  Br0  1  0.75000000  0.73771400  0.92550600  1
  Br  Br1  1  0.25000000  0.30511500  0.08135800  1
  O  O0  1  0.75000000  0.60739500  0.46046200  1
  O  O1  1  0.25000000  0.27362500  0.54269400  1
  O  O2  1  0.75000000  0.04008500  0.64278200  1
  O  O3  1  0.25000000  0.99048900  0.37863500  1
loop_
_geom_bond_atom_site_label_1
_geom_bond_atom_site_label_2
_geom_bond_distance
_geom_bond_site_symmetry_2
Li0 O2 1.909026 1_555
Br0 Li0 2.456143 1_555
Br0 Pr0 3.133462 1_566
Br1 Li0 2.508916 1_554
Br1 Li0 2.508916 1_454
O0 Pr0 2.306308 1_555
O0 Pr1 2.484815 1_655
O0 Pr1 2.484815 1_555
O1 O3 1.512567 1_545
O1 Pr0 2.455688 1_455
O1 Pr0 2.455688 1_555
O1 Pr1 2.834556 1_555
O2 Pr0 2.439395 1_555
O2 Pr1 2.501640 1_545
O2 Pr1 2.501640 1_645
O3 Pr0 2.392632 1_565
O3 Pr0 2.392632 1_465
O3 Pr1 2.444788 1_555
