# generated using pymatgen
data_Lu2Al3Co
_symmetry_space_group_name_H-M   'P 1'
_cell_length_a   5.37672996
_cell_length_b   5.37674181
_cell_length_c   8.46840674
_cell_angle_alpha   90.00004112
_cell_angle_beta   89.99995158
_cell_angle_gamma   120.00007000
_symmetry_Int_Tables_number   1
_chemical_formula_structural   Lu2Al3Co
_chemical_formula_sum   'Lu4 Al6 Co2'
_cell_volume   212.01639297
_cell_formula_units_Z   2
loop_
 _symmetry_equiv_pos_site_id
 _symmetry_equiv_pos_as_xyz
  1  'x, y, z'
loop_
 _atom_site_type_symbol
 _atom_site_label
 _atom_site_symmetry_multiplicity
 _atom_site_fract_x
 _atom_site_fract_y
 _atom_site_fract_z
 _atom_site_occupancy
  Lu  Lu0  1  0.66666545  0.33333210  0.94259404  1
  Lu  Lu1  1  0.33333351  0.66666507  0.44260271  1
  Lu  Lu2  1  0.33333455  0.66666790  0.05740596  1
  Lu  Lu3  1  0.66666649  0.33333493  0.55739729  1
  Al  Al0  1  0.83656922  0.67313959  0.25001018  1
  Al  Al1  1  0.16343008  0.83657401  0.74999054  1
  Al  Al2  1  0.67314533  0.83657470  0.74998957  1
  Al  Al3  1  0.32685467  0.16342530  0.25001043  1
  Al  Al4  1  0.83656992  0.16342599  0.25000946  1
  Al  Al5  1  0.16343078  0.32686041  0.74998982  1
  Co  Co0  1  0.00000000  -0.00000000  0.00000000  1
  Co  Co1  1  0.00000000  -0.00000000  0.50000000  1
loop_
_geom_bond_atom_site_label_1
_geom_bond_atom_site_label_2
_geom_bond_distance
_geom_bond_site_symmetry_2
Lu0 Lu2 3.252950 1_546
Lu0 Lu2 3.252960 1_556
Lu0 Lu2 3.252966 1_656
Lu0 Lu3 3.262003 1_555
Lu1 Lu3 3.252902 1_555
Lu1 Lu3 3.252911 1_455
Lu1 Lu3 3.252931 1_565
Lu1 Lu2 3.262003 1_555
Al0 Co1 2.607337 1_665
Al0 Co0 2.607478 1_665
Al0 Al3 2.636133 1_665
Al0 Al4 2.636142 1_565
Al0 Al3 2.740597 1_555
Al0 Al4 2.740600 1_555
Al0 Lu3 3.046241 1_555
Al0 Lu0 3.046457 1_554
Al0 Lu1 3.144546 1_555
Al0 Lu1 3.144562 1_655
Al0 Lu2 3.144601 1_555
Al0 Lu2 3.144609 1_655
Al1 Co1 2.607332 1_565
Al1 Co0 2.607460 1_566
Al1 Al2 2.636131 1_455
Al1 Al5 2.636142 1_565
Al1 Al2 2.740599 1_555
Al1 Al5 2.740600 1_555
Al1 Lu1 3.046263 1_555
Al1 Lu2 3.046460 1_556
Al1 Lu3 3.144551 1_565
Al1 Lu3 3.144564 1_455
Al1 Lu0 3.144587 1_565
Al1 Lu0 3.144617 1_455
Al2 Co1 2.607317 1_665
Al2 Co0 2.607462 1_666
Al2 Al5 2.636133 1_665
Al2 Al5 2.740597 1_555
Al2 Lu1 3.046255 1_555
Al2 Lu2 3.046464 1_556
Al2 Lu3 3.144557 1_565
Al2 Lu3 3.144559 1_555
Al2 Lu0 3.144598 1_565
Al2 Lu0 3.144625 1_555
Al3 Co1 2.607317 1_555
Al3 Co0 2.607462 1_555
Al3 Al4 2.636131 1_455
Al3 Al4 2.740599 1_555
Al3 Lu3 3.046255 1_555
Al3 Lu0 3.046464 1_554
Al3 Lu1 3.144557 1_545
Al3 Lu1 3.144559 1_555
Al3 Lu2 3.144598 1_545
Al3 Lu2 3.144625 1_555
Al4 Co1 2.607332 1_655
Al4 Co0 2.607460 1_655
Al4 Lu3 3.046263 1_555
Al4 Lu0 3.046460 1_554
Al4 Lu1 3.144551 1_545
Al4 Lu1 3.144564 1_655
Al4 Lu2 3.144587 1_545
Al4 Lu2 3.144617 1_655
Al5 Co1 2.607337 1_555
Al5 Co0 2.607478 1_556
Al5 Lu1 3.046241 1_555
Al5 Lu2 3.046457 1_556
Al5 Lu3 3.144546 1_555
Al5 Lu3 3.144562 1_455
Al5 Lu0 3.144601 1_555
Al5 Lu0 3.144609 1_455
Co0 Lu0 3.142083 1_554
Co0 Lu2 3.142083 1_445
Co0 Lu0 3.142096 1_454
Co0 Lu2 3.142096 1_545
Co0 Lu2 3.142101 1_555
Co0 Lu0 3.142101 1_444
Co1 Lu1 3.142077 1_445
Co1 Lu3 3.142077 1_555
Co1 Lu1 3.142077 1_555
Co1 Lu3 3.142077 1_445
Co1 Lu3 3.142092 1_455
Co1 Lu1 3.142092 1_545
