# generated using pymatgen
data_Rb3Ti
_symmetry_space_group_name_H-M   'P 1'
_cell_length_a   8.81796055
_cell_length_b   8.81796055
_cell_length_c   7.13987200
_cell_angle_alpha   90.00000000
_cell_angle_beta   90.00000000
_cell_angle_gamma   120.00000410
_symmetry_Int_Tables_number   1
_chemical_formula_structural   Rb3Ti
_chemical_formula_sum   'Rb6 Ti2'
_cell_volume   480.79212150
_cell_formula_units_Z   2
loop_
 _symmetry_equiv_pos_site_id
 _symmetry_equiv_pos_as_xyz
  1  'x, y, z'
loop_
 _atom_site_type_symbol
 _atom_site_label
 _atom_site_symmetry_multiplicity
 _atom_site_fract_x
 _atom_site_fract_y
 _atom_site_fract_z
 _atom_site_occupancy
  Rb  Rb0  1  0.17609700  0.35219500  0.25000000  1
  Rb  Rb1  1  0.64780500  0.82390300  0.25000000  1
  Rb  Rb2  1  0.17609700  0.82390300  0.25000000  1
  Rb  Rb3  1  0.82390300  0.64780500  0.75000000  1
  Rb  Rb4  1  0.35219500  0.17609700  0.75000000  1
  Rb  Rb5  1  0.82390300  0.17609700  0.75000000  1
  Ti  Ti0  1  0.33333300  0.66666700  0.75000000  1
  Ti  Ti1  1  0.66666700  0.33333300  0.25000000  1
loop_
_geom_bond_atom_site_label_1
_geom_bond_atom_site_label_2
_geom_bond_distance
_geom_bond_site_symmetry_2
Rb0 Rb1 4.159502 1_555
Rb0 Rb2 4.159503 1_555
Rb0 Ti0 4.302510 1_555
Rb0 Ti0 4.302510 1_554
Rb0 Ti1 4.411324 1_455
Rb0 Ti1 4.411341 1_555
Rb0 Rb5 4.469693 1_454
Rb0 Rb5 4.469693 1_455
Rb0 Rb4 4.469703 1_555
Rb0 Rb4 4.469703 1_554
Rb0 Rb1 4.658458 1_445
Rb0 Rb2 4.658458 1_545
Rb1 Rb2 4.159503 1_555
Rb1 Ti0 4.302510 1_554
Rb1 Ti0 4.302510 1_555
Rb1 Ti1 4.411324 1_565
Rb1 Ti1 4.411341 1_555
Rb1 Rb5 4.469693 1_564
Rb1 Rb5 4.469693 1_565
Rb1 Rb3 4.469703 1_554
Rb1 Rb3 4.469703 1_555
Rb1 Rb2 4.658458 1_655
Rb2 Ti0 4.302511 1_555
Rb2 Ti0 4.302511 1_554
Rb2 Ti1 4.411332 1_455
Rb2 Ti1 4.411332 1_565
Rb2 Rb3 4.469693 1_454
Rb2 Rb3 4.469693 1_455
Rb2 Rb4 4.469693 1_565
Rb2 Rb4 4.469693 1_564
Rb3 Rb4 4.159502 1_555
Rb3 Rb5 4.159503 1_555
Rb3 Ti1 4.302510 1_556
Rb3 Ti1 4.302510 1_555
Rb3 Ti0 4.411324 1_655
Rb3 Ti0 4.411341 1_555
Rb3 Rb4 4.658458 1_665
Rb3 Rb5 4.658458 1_565
Rb4 Rb5 4.159503 1_555
Rb4 Ti1 4.302510 1_556
Rb4 Ti1 4.302510 1_555
Rb4 Ti0 4.411324 1_545
Rb4 Ti0 4.411341 1_555
Rb4 Rb5 4.658458 1_455
Rb5 Ti1 4.302511 1_555
Rb5 Ti1 4.302511 1_556
Rb5 Ti0 4.411332 1_545
Rb5 Ti0 4.411332 1_655
