# generated using pymatgen
data_Mg14SnMo
_symmetry_space_group_name_H-M   'P 1'
_cell_length_a   6.29019040
_cell_length_b   6.20801132
_cell_length_c   10.20471623
_cell_angle_alpha   90.00000000
_cell_angle_beta   90.00000000
_cell_angle_gamma   119.56876333
_symmetry_Int_Tables_number   1
_chemical_formula_structural   Mg14SnMo
_chemical_formula_sum   'Mg14 Sn1 Mo1'
_cell_volume   346.59212950
_cell_formula_units_Z   1
loop_
 _symmetry_equiv_pos_site_id
 _symmetry_equiv_pos_as_xyz
  1  'x, y, z'
loop_
 _atom_site_type_symbol
 _atom_site_label
 _atom_site_symmetry_multiplicity
 _atom_site_fract_x
 _atom_site_fract_y
 _atom_site_fract_z
 _atom_site_occupancy
  Mg  Mg0  1  0.16687223  0.33343562  0.62500000  1
  Mg  Mg1  1  0.16581784  0.83290842  0.62500000  1
  Mg  Mg2  1  0.66763726  0.33446897  0.12500000  1
  Mg  Mg3  1  0.66602687  0.33378457  0.62500000  1
  Mg  Mg4  1  0.66763726  0.83316729  0.12500000  1
  Mg  Mg5  1  0.66602687  0.83224130  0.62500000  1
  Mg  Mg6  1  0.33030672  0.15837398  0.36964185  1
  Mg  Mg7  1  0.33030672  0.15837398  0.88035815  1
  Mg  Mg8  1  0.33030672  0.67193374  0.36964185  1
  Mg  Mg9  1  0.33030672  0.67193374  0.88035815  1
  Mg  Mg10  1  0.83248434  0.16624267  0.37824757  1
  Mg  Mg11  1  0.83248434  0.16624267  0.87175243  1
  Mg  Mg12  1  0.84290096  0.67145098  0.36992586  1
  Mg  Mg13  1  0.84290096  0.67145098  0.88007414  1
  Sn  Sn0  1  0.16276623  0.33138262  0.12500000  1
  Mo  Mo0  1  0.16521794  0.83260847  0.12500000  1
loop_
_geom_bond_atom_site_label_1
_geom_bond_atom_site_label_2
_geom_bond_distance
_geom_bond_site_symmetry_2
Mg0 Mg1 3.104011 1_555
Mg0 Mg1 3.104011 1_545
Mg0 Mg11 3.112448 1_455
Mg0 Mg10 3.112448 1_455
Mg0 Mg5 3.138709 1_555
Mg0 Mg3 3.138709 1_555
Mg0 Mg5 3.151482 1_445
Mg0 Mg3 3.151482 1_455
Mg0 Mg7 3.182939 1_555
Mg0 Mg6 3.182939 1_555
Mg0 Mg9 3.182946 1_555
Mg0 Mg8 3.182946 1_555
Mg1 Mg3 3.141738 1_455
Mg1 Mg5 3.141739 1_455
Mg1 Mg9 3.143272 1_555
Mg1 Mg8 3.143272 1_555
Mg1 Mg7 3.143278 1_565
Mg1 Mg6 3.143278 1_565
Mg1 Mg13 3.145875 1_455
Mg1 Mg12 3.145875 1_455
Mg1 Mg3 3.148456 1_565
Mg1 Mg5 3.148456 1_555
Mg2 Mg4 3.095925 1_555
Mg2 Mg7 3.104935 1_554
Mg2 Mg6 3.104935 1_555
Mg2 Mg4 3.112087 1_545
Mg2 Sn0 3.123955 1_655
Mg2 Mo0 3.131590 1_655
Mg2 Mo0 3.158602 1_545
Mg2 Sn0 3.166324 1_555
Mg3 Mg5 3.094425 1_555
Mg3 Mg5 3.113586 1_545
Mg3 Mg7 3.188452 1_555
Mg3 Mg6 3.188452 1_555
Mg4 Mg8 3.104935 1_555
Mg4 Mg9 3.104935 1_554
Mg4 Sn0 3.123955 1_665
Mg4 Mo0 3.131591 1_655
Mg4 Mo0 3.158603 1_555
Mg4 Sn0 3.166324 1_555
Mg5 Mg9 3.188452 1_555
Mg5 Mg8 3.188452 1_555
Mg6 Mo0 3.054200 1_545
Mg6 Sn0 3.100613 1_555
Mg7 Mo0 3.054200 1_546
Mg7 Sn0 3.100613 1_556
Mg8 Mo0 3.054194 1_555
Mg8 Sn0 3.100619 1_555
Mg9 Mo0 3.054194 1_556
Mg9 Sn0 3.100619 1_556
Mg10 Mg3 3.097330 1_555
Mg10 Mg5 3.097336 1_545
Mg10 Mg12 3.105690 1_555
Mg10 Mg12 3.105690 1_545
Mg10 Mg8 3.136205 1_545
Mg10 Mg6 3.136205 1_555
Mg10 Mg2 3.148545 1_555
Mg10 Mg4 3.148552 1_545
Mg10 Sn0 3.153385 1_655
Mg10 Mg8 3.157010 1_655
Mg10 Mg6 3.157011 1_655
Mg11 Mg3 3.097330 1_555
Mg11 Mg5 3.097336 1_545
Mg11 Mg13 3.105690 1_555
Mg11 Mg13 3.105690 1_545
Mg11 Mg9 3.136205 1_545
Mg11 Mg7 3.136205 1_555
Mg11 Mg2 3.148545 1_556
Mg11 Mg4 3.148552 1_546
Mg11 Sn0 3.153385 1_656
Mg11 Mg9 3.157010 1_655
Mg11 Mg7 3.157011 1_655
Mg12 Mo0 3.058846 1_655
Mg12 Mg4 3.092343 1_555
Mg12 Mg2 3.092349 1_555
Mg12 Mg5 3.178937 1_555
Mg12 Mg3 3.178943 1_555
Mg13 Mo0 3.058846 1_656
Mg13 Mg4 3.092343 1_556
Mg13 Mg2 3.092349 1_556
Mg13 Mg5 3.178937 1_555
Mg13 Mg3 3.178943 1_555
Mo0 Sn0 3.104035 1_555
Mo0 Sn0 3.104035 1_565
