# generated using pymatgen
data_Mn2SnPd3
_symmetry_space_group_name_H-M   'P 1'
_cell_length_a   4.47945395
_cell_length_b   4.47945420
_cell_length_c   11.01575729
_cell_angle_alpha   89.99931586
_cell_angle_beta   90.00067432
_cell_angle_gamma   119.99893001
_symmetry_Int_Tables_number   1
_chemical_formula_structural   Mn2SnPd3
_chemical_formula_sum   'Mn4 Sn2 Pd6'
_cell_volume   191.42552610
_cell_formula_units_Z   2
loop_
 _symmetry_equiv_pos_site_id
 _symmetry_equiv_pos_as_xyz
  1  'x, y, z'
loop_
 _atom_site_type_symbol
 _atom_site_label
 _atom_site_symmetry_multiplicity
 _atom_site_fract_x
 _atom_site_fract_y
 _atom_site_fract_z
 _atom_site_occupancy
  Mn  Mn0  1  0.00000019  0.00000004  0.50000566  1
  Mn  Mn1  1  0.33333365  0.66666653  0.15880927  1
  Mn  Mn2  1  0.66666600  0.33333341  0.84117937  1
  Mn  Mn3  1  0.00000002  -0.00000007  0.00000070  1
  Sn  Sn0  1  0.33333339  0.66666667  0.66779427  1
  Sn  Sn1  1  0.66666671  0.33333337  0.33221134  1
  Pd  Pd0  1  0.33333076  0.66666908  0.41458825  1
  Pd  Pd1  1  0.66666656  0.33333358  0.08257066  1
  Pd  Pd2  1  -0.00000203  0.00000186  0.75445016  1
  Pd  Pd3  1  0.00000211  -0.00000178  0.24556570  1
  Pd  Pd4  1  0.33333316  0.66666629  0.91742324  1
  Pd  Pd5  1  0.66666948  0.33333101  0.58540237  1
loop_
_geom_bond_atom_site_label_1
_geom_bond_atom_site_label_2
_geom_bond_distance
_geom_bond_site_symmetry_2
Mn0 Pd5 2.751969 1_455
Mn0 Pd5 2.752017 1_445
Mn0 Pd5 2.752018 1_555
Mn0 Pd0 2.752046 1_545
Mn0 Pd0 2.752095 1_555
Mn0 Pd0 2.752096 1_445
Mn0 Pd3 2.802849 1_555
Mn0 Pd2 2.802899 1_555
Mn1 Pd4 2.659050 1_554
Mn1 Pd1 2.719151 1_555
Mn1 Pd1 2.719179 1_565
Mn1 Pd1 2.719179 1_455
Mn1 Pd3 2.757131 1_565
Mn1 Pd3 2.757170 1_555
Mn1 Pd3 2.757170 1_665
Mn1 Pd0 2.817599 1_555
Mn2 Pd1 2.659108 1_556
Mn2 Pd4 2.719168 1_555
Mn2 Pd4 2.719197 1_545
Mn2 Pd4 2.719197 1_655
Mn2 Pd2 2.757028 1_655
Mn2 Pd2 2.757065 1_555
Mn2 Pd2 2.757066 1_665
Mn2 Pd5 2.817577 1_555
Mn3 Pd2 2.704925 1_554
Mn3 Pd3 2.705084 1_555
Mn3 Pd1 2.741500 1_455
Mn3 Pd1 2.741519 1_445
Mn3 Pd1 2.741520 1_555
Mn3 Pd4 2.741526 1_544
Mn3 Pd4 2.741547 1_554
Mn3 Pd4 2.741549 1_444
Pd0 Sn1 2.740806 1_455
Pd0 Sn1 2.740807 1_565
Pd0 Sn1 2.740812 1_555
Pd0 Sn0 2.789256 1_555
Pd1 Sn1 2.749981 1_555
Pd2 Sn0 2.756773 1_445
Pd2 Sn0 2.756773 1_555
Pd2 Sn0 2.756774 1_545
Pd3 Sn1 2.756734 1_555
Pd3 Sn1 2.756734 1_455
Pd3 Sn1 2.756734 1_445
Pd4 Sn0 2.749852 1_555
Pd5 Sn0 2.740860 1_655
Pd5 Sn0 2.740862 1_545
Pd5 Sn0 2.740867 1_555
Pd5 Sn1 2.789091 1_555
