# generated using pymatgen
data_Fe4C
_symmetry_space_group_name_H-M   'P 1'
_cell_length_a   5.30563000
_cell_length_b   12.01658200
_cell_length_c   12.69503231
_cell_angle_alpha   78.81154502
_cell_angle_beta   90.00000000
_cell_angle_gamma   90.00000000
_symmetry_Int_Tables_number   1
_chemical_formula_structural   Fe4C
_chemical_formula_sum   'Fe64 C16'
_cell_volume   793.99578585
_cell_formula_units_Z   16
loop_
 _symmetry_equiv_pos_site_id
 _symmetry_equiv_pos_as_xyz
  1  'x, y, z'
loop_
 _atom_site_type_symbol
 _atom_site_label
 _atom_site_symmetry_multiplicity
 _atom_site_fract_x
 _atom_site_fract_y
 _atom_site_fract_z
 _atom_site_occupancy
  Fe  Fe0_0  1  0.37500000  0.05225100  0.41006800  1
  Fe  Fe0_1  1  0.37500000  0.05225100  0.91006800  1
  Fe  Fe0_2  1  0.37500000  0.55225100  0.41006800  1
  Fe  Fe0_3  1  0.37500000  0.55225100  0.91006800  1
  Fe  Fe0_4  1  0.87500000  0.05225100  0.41006800  1
  Fe  Fe0_5  1  0.87500000  0.05225100  0.91006800  1
  Fe  Fe0_6  1  0.87500000  0.55225100  0.41006800  1
  Fe  Fe0_7  1  0.87500000  0.55225100  0.91006800  1
  Fe  Fe1_0  1  0.12500000  0.44774900  0.08993200  1
  Fe  Fe1_1  1  0.12500000  0.44774900  0.58993200  1
  Fe  Fe1_2  1  0.12500000  0.94774900  0.08993200  1
  Fe  Fe1_3  1  0.12500000  0.94774900  0.58993200  1
  Fe  Fe1_4  1  0.62500000  0.44774900  0.08993200  1
  Fe  Fe1_5  1  0.62500000  0.44774900  0.58993200  1
  Fe  Fe1_6  1  0.62500000  0.94774900  0.08993200  1
  Fe  Fe1_7  1  0.62500000  0.94774900  0.58993200  1
  Fe  Fe2_0  1  0.37500000  0.41352250  0.26740450  1
  Fe  Fe2_1  1  0.37500000  0.41352250  0.76740450  1
  Fe  Fe2_2  1  0.37500000  0.91352250  0.26740450  1
  Fe  Fe2_3  1  0.37500000  0.91352250  0.76740450  1
  Fe  Fe2_4  1  0.87500000  0.41352250  0.26740450  1
  Fe  Fe2_5  1  0.87500000  0.41352250  0.76740450  1
  Fe  Fe2_6  1  0.87500000  0.91352250  0.26740450  1
  Fe  Fe2_7  1  0.87500000  0.91352250  0.76740450  1
  Fe  Fe3_0  1  0.12500000  0.08647750  0.23259550  1
  Fe  Fe3_1  1  0.12500000  0.08647750  0.73259550  1
  Fe  Fe3_2  1  0.12500000  0.58647750  0.23259550  1
  Fe  Fe3_3  1  0.12500000  0.58647750  0.73259550  1
  Fe  Fe3_4  1  0.62500000  0.08647750  0.23259550  1
  Fe  Fe3_5  1  0.62500000  0.08647750  0.73259550  1
  Fe  Fe3_6  1  0.62500000  0.58647750  0.23259550  1
  Fe  Fe3_7  1  0.62500000  0.58647750  0.73259550  1
  Fe  Fe4_0  1  0.12500000  0.15803250  0.03213350  1
  Fe  Fe4_1  1  0.12500000  0.15803250  0.53213350  1
  Fe  Fe4_2  1  0.12500000  0.65803250  0.03213350  1
  Fe  Fe4_3  1  0.12500000  0.65803250  0.53213350  1
  Fe  Fe4_4  1  0.62500000  0.15803250  0.03213350  1
  Fe  Fe4_5  1  0.62500000  0.15803250  0.53213350  1
  Fe  Fe4_6  1  0.62500000  0.65803250  0.03213350  1
  Fe  Fe4_7  1  0.62500000  0.65803250  0.53213350  1
  Fe  Fe5_0  1  0.37500000  0.34196750  0.46786650  1
  Fe  Fe5_1  1  0.37500000  0.34196750  0.96786650  1
  Fe  Fe5_2  1  0.37500000  0.84196750  0.46786650  1
  Fe  Fe5_3  1  0.37500000  0.84196750  0.96786650  1
  Fe  Fe5_4  1  0.87500000  0.34196750  0.46786650  1
  Fe  Fe5_5  1  0.87500000  0.34196750  0.96786650  1
  Fe  Fe5_6  1  0.87500000  0.84196750  0.46786650  1
  Fe  Fe5_7  1  0.87500000  0.84196750  0.96786650  1
  Fe  Fe6_0  1  0.12500000  0.23880350  0.34139550  1
  Fe  Fe6_1  1  0.12500000  0.23880350  0.84139550  1
  Fe  Fe6_2  1  0.12500000  0.73880350  0.34139550  1
  Fe  Fe6_3  1  0.12500000  0.73880350  0.84139550  1
  Fe  Fe6_4  1  0.62500000  0.23880350  0.34139550  1
  Fe  Fe6_5  1  0.62500000  0.23880350  0.84139550  1
  Fe  Fe6_6  1  0.62500000  0.73880350  0.34139550  1
  Fe  Fe6_7  1  0.62500000  0.73880350  0.84139550  1
  Fe  Fe7_0  1  0.37500000  0.26119650  0.15860450  1
  Fe  Fe7_1  1  0.37500000  0.26119650  0.65860450  1
  Fe  Fe7_2  1  0.37500000  0.76119650  0.15860450  1
  Fe  Fe7_3  1  0.37500000  0.76119650  0.65860450  1
  Fe  Fe7_4  1  0.87500000  0.26119650  0.15860450  1
  Fe  Fe7_5  1  0.87500000  0.26119650  0.65860450  1
  Fe  Fe7_6  1  0.87500000  0.76119650  0.15860450  1
  Fe  Fe7_7  1  0.87500000  0.76119650  0.65860450  1
  C  C0_0  1  0.12500000  0.43842750  0.37667850  1
  C  C0_1  1  0.12500000  0.43842750  0.87667850  1
  C  C0_2  1  0.12500000  0.93842750  0.37667850  1
  C  C0_3  1  0.12500000  0.93842750  0.87667850  1
  C  C0_4  1  0.62500000  0.43842750  0.37667850  1
  C  C0_5  1  0.62500000  0.43842750  0.87667850  1
  C  C0_6  1  0.62500000  0.93842750  0.37667850  1
  C  C0_7  1  0.62500000  0.93842750  0.87667850  1
  C  C1_0  1  0.37500000  0.06157250  0.12332150  1
  C  C1_1  1  0.37500000  0.06157250  0.62332150  1
  C  C1_2  1  0.37500000  0.56157250  0.12332150  1
  C  C1_3  1  0.37500000  0.56157250  0.62332150  1
  C  C1_4  1  0.87500000  0.06157250  0.12332150  1
  C  C1_5  1  0.87500000  0.06157250  0.62332150  1
  C  C1_6  1  0.87500000  0.56157250  0.12332150  1
  C  C1_7  1  0.87500000  0.56157250  0.62332150  1
loop_
_geom_bond_atom_site_label_1
_geom_bond_atom_site_label_2
_geom_bond_distance
_geom_bond_site_symmetry_2
Fe0_0 Fe6_0 2.605051 1_555
Fe0_0 Fe6_4 2.605051 1_555
Fe0_1 Fe6_1 2.605051 1_555
Fe0_1 Fe6_5 2.605051 1_555
Fe0_2 Fe6_2 2.605051 1_555
Fe0_2 Fe6_6 2.605051 1_555
Fe0_3 Fe6_3 2.605051 1_555
Fe0_3 Fe6_7 2.605051 1_555
Fe0_4 Fe6_4 2.605051 1_555
Fe0_4 Fe6_0 2.605051 1_655
Fe0_5 Fe6_5 2.605051 1_555
Fe0_5 Fe6_1 2.605051 1_655
Fe0_6 Fe6_2 2.605051 1_655
Fe0_6 Fe6_6 2.605051 1_555
Fe0_7 Fe6_7 2.605051 1_555
Fe0_7 Fe6_3 2.605051 1_655
Fe1_0 Fe7_0 2.605051 1_555
Fe1_0 Fe7_4 2.605051 1_455
Fe1_1 Fe7_1 2.605051 1_555
Fe1_1 Fe7_5 2.605051 1_455
Fe1_2 Fe7_2 2.605051 1_555
Fe1_2 Fe7_6 2.605051 1_455
Fe1_3 Fe7_3 2.605051 1_555
Fe1_3 Fe7_7 2.605051 1_455
Fe1_4 Fe7_4 2.605051 1_555
Fe1_4 Fe7_0 2.605051 1_555
Fe1_5 Fe7_5 2.605051 1_555
Fe1_5 Fe7_1 2.605051 1_555
Fe1_6 Fe7_6 2.605051 1_555
Fe1_6 Fe7_2 2.605051 1_555
Fe1_7 Fe7_7 2.605051 1_555
Fe1_7 Fe7_3 2.605051 1_555
Fe2_0 Fe7_0 2.497881 1_555
Fe2_0 Fe6_0 2.506861 1_555
Fe2_0 Fe6_4 2.506861 1_555
Fe2_1 Fe7_1 2.497881 1_555
Fe2_1 Fe6_1 2.506861 1_555
Fe2_1 Fe6_5 2.506861 1_555
Fe2_2 Fe7_2 2.497881 1_555
Fe2_2 Fe6_2 2.506861 1_555
Fe2_2 Fe6_6 2.506861 1_555
Fe2_3 Fe7_3 2.497881 1_555
Fe2_3 Fe6_3 2.506861 1_555
Fe2_3 Fe6_7 2.506861 1_555
Fe2_4 Fe7_4 2.497881 1_555
Fe2_4 Fe6_4 2.506861 1_555
Fe2_4 Fe6_0 2.506861 1_655
Fe2_5 Fe7_5 2.497881 1_555
Fe2_5 Fe6_5 2.506861 1_555
Fe2_5 Fe6_1 2.506861 1_655
Fe2_6 Fe7_6 2.497881 1_555
Fe2_6 Fe6_6 2.506861 1_555
Fe2_6 Fe6_2 2.506861 1_655
Fe2_7 Fe7_7 2.497881 1_555
Fe2_7 Fe6_7 2.506861 1_555
Fe2_7 Fe6_3 2.506861 1_655
Fe3_0 Fe6_0 2.497881 1_555
Fe3_0 Fe7_0 2.506861 1_555
Fe3_0 Fe7_4 2.506861 1_455
Fe3_1 Fe6_1 2.497881 1_555
Fe3_1 Fe7_1 2.506861 1_555
Fe3_1 Fe7_5 2.506861 1_455
Fe3_2 Fe6_2 2.497881 1_555
Fe3_2 Fe7_2 2.506861 1_555
Fe3_2 Fe7_6 2.506861 1_455
Fe3_3 Fe6_3 2.497881 1_555
Fe3_3 Fe7_3 2.506861 1_555
Fe3_3 Fe7_7 2.506861 1_455
Fe3_4 Fe6_4 2.497881 1_555
Fe3_4 Fe7_4 2.506861 1_555
Fe3_4 Fe7_0 2.506861 1_555
Fe3_5 Fe6_5 2.497881 1_555
Fe3_5 Fe7_5 2.506861 1_555
Fe3_5 Fe7_1 2.506861 1_555
Fe3_6 Fe6_6 2.497881 1_555
Fe3_6 Fe7_6 2.506861 1_555
Fe3_6 Fe7_2 2.506861 1_555
Fe3_7 Fe6_7 2.497881 1_555
Fe3_7 Fe7_7 2.506861 1_555
Fe3_7 Fe7_3 2.506861 1_555
Fe4_0 Fe6_1 2.427610 1_554
Fe4_0 Fe7_4 2.578056 1_455
Fe4_0 Fe7_0 2.578056 1_555
Fe4_1 Fe6_0 2.427610 1_555
Fe4_1 Fe7_1 2.578056 1_555
Fe4_1 Fe7_5 2.578056 1_455
Fe4_2 Fe6_3 2.427610 1_554
Fe4_2 Fe7_2 2.578056 1_555
Fe4_2 Fe7_6 2.578056 1_455
Fe4_3 Fe6_2 2.427610 1_555
Fe4_3 Fe7_7 2.578056 1_455
Fe4_3 Fe7_3 2.578056 1_555
Fe4_4 Fe6_5 2.427610 1_554
Fe4_4 Fe7_4 2.578056 1_555
Fe4_4 Fe7_0 2.578056 1_555
Fe4_5 Fe6_4 2.427610 1_555
Fe4_5 Fe7_5 2.578056 1_555
Fe4_5 Fe7_1 2.578056 1_555
Fe4_6 Fe6_7 2.427610 1_554
Fe4_6 Fe7_6 2.578056 1_555
Fe4_6 Fe7_2 2.578056 1_555
Fe4_7 Fe6_6 2.427610 1_555
Fe4_7 Fe7_7 2.578056 1_555
Fe4_7 Fe7_3 2.578056 1_555
Fe5_0 Fe7_1 2.427610 1_555
Fe5_0 Fe6_0 2.578056 1_555
Fe5_0 Fe6_4 2.578056 1_555
Fe5_1 Fe7_0 2.427610 1_556
Fe5_1 Fe6_1 2.578056 1_555
Fe5_1 Fe6_5 2.578056 1_555
Fe5_2 Fe7_3 2.427610 1_555
Fe5_2 Fe6_6 2.578056 1_555
Fe5_2 Fe6_2 2.578056 1_555
Fe5_3 Fe7_2 2.427610 1_556
Fe5_3 Fe6_3 2.578056 1_555
Fe5_3 Fe6_7 2.578056 1_555
Fe5_4 Fe7_5 2.427610 1_555
Fe5_4 Fe6_4 2.578056 1_555
Fe5_4 Fe6_0 2.578056 1_655
Fe5_5 Fe7_4 2.427610 1_556
Fe5_5 Fe6_5 2.578056 1_555
Fe5_5 Fe6_1 2.578056 1_655
Fe5_6 Fe7_7 2.427610 1_555
Fe5_6 Fe6_6 2.578056 1_555
Fe5_6 Fe6_2 2.578056 1_655
Fe5_7 Fe7_6 2.427610 1_556
Fe5_7 Fe6_7 2.578056 1_555
Fe5_7 Fe6_3 2.578056 1_655
Fe6_0 Fe7_4 2.640897 1_455
Fe6_0 Fe7_0 2.640897 1_555
Fe6_0 Fe6_4 2.652815 1_455
Fe6_0 Fe6_4 2.652815 1_555
Fe6_1 Fe7_1 2.640897 1_555
Fe6_1 Fe7_5 2.640897 1_455
Fe6_1 Fe6_5 2.652815 1_455
Fe6_1 Fe6_5 2.652815 1_555
Fe6_2 Fe7_2 2.640897 1_555
Fe6_2 Fe7_6 2.640897 1_455
Fe6_2 Fe6_6 2.652815 1_455
Fe6_2 Fe6_6 2.652815 1_555
Fe6_3 Fe7_7 2.640897 1_455
Fe6_3 Fe7_3 2.640897 1_555
Fe6_3 Fe6_7 2.652815 1_455
Fe6_3 Fe6_7 2.652815 1_555
Fe6_4 Fe7_4 2.640897 1_555
Fe6_4 Fe7_0 2.640897 1_555
Fe6_5 Fe7_5 2.640897 1_555
Fe6_5 Fe7_1 2.640897 1_555
Fe6_6 Fe7_6 2.640897 1_555
Fe6_6 Fe7_2 2.640897 1_555
Fe6_7 Fe7_7 2.640897 1_555
Fe6_7 Fe7_3 2.640897 1_555
Fe7_0 Fe7_4 2.652815 1_555
Fe7_0 Fe7_4 2.652815 1_455
Fe7_1 Fe7_5 2.652815 1_455
Fe7_1 Fe7_5 2.652815 1_555
Fe7_2 Fe7_6 2.652815 1_555
Fe7_2 Fe7_6 2.652815 1_455
Fe7_3 Fe7_7 2.652815 1_555
Fe7_3 Fe7_7 2.652815 1_455
C0_0 Fe5_0 1.980480 1_555
C0_0 Fe5_4 1.980480 1_455
C0_0 Fe2_0 1.983548 1_555
C0_0 Fe2_4 1.983548 1_455
C0_0 Fe0_2 2.008686 1_555
C0_0 Fe0_6 2.008686 1_455
C0_0 Fe3_2 2.290838 1_555
C0_0 Fe6_0 2.524250 1_555
C0_1 Fe5_1 1.980480 1_555
C0_1 Fe5_5 1.980480 1_455
C0_1 Fe2_5 1.983548 1_455
C0_1 Fe2_1 1.983548 1_555
C0_1 Fe0_3 2.008686 1_555
C0_1 Fe0_7 2.008686 1_455
C0_1 Fe3_3 2.290838 1_555
C0_1 Fe6_1 2.524250 1_555
C0_2 Fe5_2 1.980480 1_555
C0_2 Fe5_6 1.980480 1_455
C0_2 Fe2_2 1.983548 1_555
C0_2 Fe2_6 1.983548 1_455
C0_2 Fe0_4 2.008686 1_465
C0_2 Fe0_0 2.008686 1_565
C0_2 Fe3_0 2.290838 1_565
C0_2 Fe6_2 2.524250 1_555
C0_3 Fe5_3 1.980480 1_555
C0_3 Fe5_7 1.980480 1_455
C0_3 Fe2_3 1.983548 1_555
C0_3 Fe2_7 1.983548 1_455
C0_3 Fe0_5 2.008686 1_465
C0_3 Fe0_1 2.008686 1_565
C0_3 Fe3_1 2.290838 1_565
C0_3 Fe6_3 2.524250 1_555
C0_4 Fe5_4 1.980480 1_555
C0_4 Fe5_0 1.980480 1_555
C0_4 Fe2_4 1.983548 1_555
C0_4 Fe2_0 1.983548 1_555
C0_4 Fe0_6 2.008686 1_555
C0_4 Fe0_2 2.008686 1_555
C0_4 Fe3_6 2.290838 1_555
C0_4 Fe6_4 2.524250 1_555
C0_5 Fe5_5 1.980480 1_555
C0_5 Fe5_1 1.980480 1_555
C0_5 Fe2_5 1.983548 1_555
C0_5 Fe2_1 1.983548 1_555
C0_5 Fe0_7 2.008686 1_555
C0_5 Fe0_3 2.008686 1_555
C0_5 Fe3_7 2.290838 1_555
C0_5 Fe6_5 2.524250 1_555
C0_6 Fe5_6 1.980480 1_555
C0_6 Fe5_2 1.980480 1_555
C0_6 Fe2_6 1.983548 1_555
C0_6 Fe2_2 1.983548 1_555
C0_6 Fe0_4 2.008686 1_565
C0_6 Fe0_0 2.008686 1_565
C0_6 Fe3_4 2.290838 1_565
C0_6 Fe6_6 2.524250 1_555
C0_7 Fe5_7 1.980480 1_555
C0_7 Fe5_3 1.980480 1_555
C0_7 Fe2_7 1.983548 1_555
C0_7 Fe2_3 1.983548 1_555
C0_7 Fe0_5 2.008686 1_565
C0_7 Fe0_1 2.008686 1_565
C0_7 Fe3_5 2.290838 1_565
C0_7 Fe6_7 2.524250 1_555
C1_0 Fe4_0 1.980480 1_555
C1_0 Fe4_4 1.980480 1_555
C1_0 Fe3_0 1.983548 1_555
C1_0 Fe3_4 1.983548 1_555
C1_0 Fe1_2 2.008686 1_545
C1_0 Fe1_6 2.008686 1_545
C1_0 Fe2_2 2.290838 1_545
C1_0 Fe7_0 2.524250 1_555
C1_1 Fe4_1 1.980480 1_555
C1_1 Fe4_5 1.980480 1_555
C1_1 Fe3_1 1.983548 1_555
C1_1 Fe3_5 1.983548 1_555
C1_1 Fe1_3 2.008686 1_545
C1_1 Fe1_7 2.008686 1_545
C1_1 Fe2_3 2.290838 1_545
C1_1 Fe7_1 2.524250 1_555
C1_2 Fe4_2 1.980480 1_555
C1_2 Fe4_6 1.980480 1_555
C1_2 Fe3_2 1.983548 1_555
C1_2 Fe3_6 1.983548 1_555
C1_2 Fe1_0 2.008686 1_555
C1_2 Fe1_4 2.008686 1_555
C1_2 Fe2_0 2.290838 1_555
C1_2 Fe7_2 2.524250 1_555
C1_3 Fe4_3 1.980480 1_555
C1_3 Fe4_7 1.980480 1_555
C1_3 Fe3_3 1.983548 1_555
C1_3 Fe3_7 1.983548 1_555
C1_3 Fe1_1 2.008686 1_555
C1_3 Fe1_5 2.008686 1_555
C1_3 Fe2_1 2.290838 1_555
C1_3 Fe7_3 2.524250 1_555
C1_4 Fe4_4 1.980480 1_555
C1_4 Fe4_0 1.980480 1_655
C1_4 Fe3_4 1.983548 1_555
C1_4 Fe3_0 1.983548 1_655
C1_4 Fe1_6 2.008686 1_545
C1_4 Fe1_2 2.008686 1_645
C1_4 Fe2_6 2.290838 1_545
C1_4 Fe7_4 2.524250 1_555
C1_5 Fe4_5 1.980480 1_555
C1_5 Fe4_1 1.980480 1_655
C1_5 Fe3_5 1.983548 1_555
C1_5 Fe3_1 1.983548 1_655
C1_5 Fe1_7 2.008686 1_545
C1_5 Fe1_3 2.008686 1_645
C1_5 Fe2_7 2.290838 1_545
C1_5 Fe7_5 2.524250 1_555
C1_6 Fe4_6 1.980480 1_555
C1_6 Fe4_2 1.980480 1_655
C1_6 Fe3_6 1.983548 1_555
C1_6 Fe3_2 1.983548 1_655
C1_6 Fe1_4 2.008686 1_555
C1_6 Fe1_0 2.008686 1_655
C1_6 Fe2_4 2.290838 1_555
C1_6 Fe7_6 2.524250 1_555
C1_7 Fe4_7 1.980480 1_555
C1_7 Fe4_3 1.980480 1_655
C1_7 Fe3_7 1.983548 1_555
C1_7 Fe3_3 1.983548 1_655
C1_7 Fe1_5 2.008686 1_555
C1_7 Fe1_1 2.008686 1_655
C1_7 Fe2_5 2.290838 1_555
C1_7 Fe7_7 2.524250 1_555
