# generated using pymatgen
data_KMg6W
_symmetry_space_group_name_H-M   'P 1'
_cell_length_a   6.55480139
_cell_length_b   6.55480139
_cell_length_c   4.37840400
_cell_angle_alpha   90.00000000
_cell_angle_beta   90.00000000
_cell_angle_gamma   90.00888806
_symmetry_Int_Tables_number   1
_chemical_formula_structural   KMg6W
_chemical_formula_sum   'K1 Mg6 W1'
_cell_volume   188.11997019
_cell_formula_units_Z   1
loop_
 _symmetry_equiv_pos_site_id
 _symmetry_equiv_pos_as_xyz
  1  'x, y, z'
loop_
 _atom_site_type_symbol
 _atom_site_label
 _atom_site_symmetry_multiplicity
 _atom_site_fract_x
 _atom_site_fract_y
 _atom_site_fract_z
 _atom_site_occupancy
  K  K0  1  0.87088600  0.12911400  0.50000000  1
  Mg  Mg0  1  0.37217600  0.12223400  0.50000000  1
  Mg  Mg1  1  0.87776600  0.62782400  0.50000000  1
  Mg  Mg2  1  0.16270400  0.40959100  0.00000000  1
  Mg  Mg3  1  0.59040900  0.83729600  0.00000000  1
  Mg  Mg4  1  0.59101400  0.40898600  0.00000000  1
  Mg  Mg5  1  0.15910600  0.84089400  0.00000000  1
  W  W0  1  0.37594000  0.62406000  0.50000000  1
loop_
_geom_bond_atom_site_label_1
_geom_bond_atom_site_label_2
_geom_bond_distance
_geom_bond_site_symmetry_2
K0 Mg0 3.269249 1_555
K0 Mg1 3.269249 1_555
K0 Mg0 3.286173 1_655
K0 Mg1 3.286173 1_545
K0 Mg4 3.394771 1_556
K0 Mg4 3.394771 1_555
K0 Mg2 3.439524 1_656
K0 Mg2 3.439524 1_655
K0 Mg3 3.439524 1_545
K0 Mg3 3.439524 1_546
K0 Mg5 3.454281 1_646
K0 Mg5 3.454281 1_645
Mg0 Mg5 3.184838 1_545
Mg0 Mg5 3.184838 1_546
Mg0 Mg2 3.197889 1_555
Mg0 Mg2 3.197889 1_556
Mg0 Mg3 3.213727 1_545
Mg0 Mg3 3.213727 1_546
Mg0 Mg4 3.222156 1_556
Mg0 Mg4 3.222156 1_555
Mg0 W0 3.265529 1_545
Mg0 W0 3.289458 1_555
Mg1 Mg5 3.184838 1_655
Mg1 Mg5 3.184838 1_656
Mg1 Mg3 3.197889 1_556
Mg1 Mg3 3.197889 1_555
Mg1 Mg2 3.213727 1_656
Mg1 Mg2 3.213727 1_655
Mg1 Mg4 3.222156 1_555
Mg1 Mg4 3.222156 1_556
Mg1 W0 3.265529 1_655
Mg1 W0 3.289458 1_555
Mg2 Mg4 2.807490 1_555
Mg2 Mg5 2.827208 1_555
Mg2 W0 2.953285 1_554
Mg2 W0 2.953285 1_555
Mg3 Mg4 2.807490 1_555
Mg3 Mg5 2.827208 1_555
Mg3 W0 2.953285 1_554
Mg3 W0 2.953285 1_555
Mg4 W0 2.961099 1_554
Mg4 W0 2.961099 1_555
Mg5 W0 2.972111 1_555
Mg5 W0 2.972111 1_554
