# generated using pymatgen
data_Ga5(GeN3)3
_symmetry_space_group_name_H-M   'P 1'
_cell_length_a   6.44483823
_cell_length_b   9.78117277
_cell_length_c   19.63680900
_cell_angle_alpha   90.00000000
_cell_angle_beta   90.00000000
_cell_angle_gamma   139.36183915
_symmetry_Int_Tables_number   1
_chemical_formula_structural   Ga5(GeN3)3
_chemical_formula_sum   'Ga20 Ge12 N36'
_cell_volume   806.19751701
_cell_formula_units_Z   4
loop_
 _symmetry_equiv_pos_site_id
 _symmetry_equiv_pos_as_xyz
  1  'x, y, z'
loop_
 _atom_site_type_symbol
 _atom_site_label
 _atom_site_symmetry_multiplicity
 _atom_site_fract_x
 _atom_site_fract_y
 _atom_site_fract_z
 _atom_site_occupancy
  Ga  Ga0  1  -0.00000000  0.57102950  0.84838235  1
  Ga  Ga1  1  0.00000000  0.42897050  0.15161765  1
  Ga  Ga2  1  0.00000000  0.92897050  0.34838235  1
  Ga  Ga3  1  -0.00000000  0.07102950  0.65161765  1
  Ga  Ga4  1  0.58064347  0.08487632  0.87144378  1
  Ga  Ga5  1  0.58064347  0.49576615  0.12855622  1
  Ga  Ga6  1  0.58064347  0.99576615  0.37144378  1
  Ga  Ga7  1  0.58064347  0.58487632  0.62855622  1
  Ga  Ga8  1  0.41935653  0.91512368  0.12855622  1
  Ga  Ga9  1  0.41935653  0.50423385  0.87144378  1
  Ga  Ga10  1  0.41935653  0.00423385  0.62855622  1
  Ga  Ga11  1  0.41935653  0.41512368  0.37144378  1
  Ga  Ga12  1  -0.00000000  0.51374968  0.60381796  1
  Ga  Ga13  1  0.00000000  0.48625032  0.39618204  1
  Ga  Ga14  1  0.00000000  0.98625032  0.10381796  1
  Ga  Ga15  1  -0.00000000  0.01374968  0.89618204  1
  Ga  Ga16  1  0.64053243  0.32026572  0.00000000  1
  Ga  Ga17  1  0.64053243  0.82026572  0.50000000  1
  Ga  Ga18  1  0.35946757  0.67973428  0.00000000  1
  Ga  Ga19  1  0.35946757  0.17973428  0.50000000  1
  Ge  Ge0  1  -0.00000000  0.78409211  0.98446941  1
  Ge  Ge1  1  0.00000000  0.21590789  0.01553059  1
  Ge  Ge2  1  0.00000000  0.71590789  0.48446941  1
  Ge  Ge3  1  -0.00000000  0.28409211  0.51553059  1
  Ge  Ge4  1  -0.00000000  0.34540837  0.73961881  1
  Ge  Ge5  1  0.00000000  0.65459163  0.26038119  1
  Ge  Ge6  1  0.00000000  0.15459163  0.23961881  1
  Ge  Ge7  1  -0.00000000  0.84540837  0.76038119  1
  Ge  Ge8  1  0.50000000  0.81189279  0.75000000  1
  Ge  Ge9  1  0.50000000  0.68810721  0.25000000  1
  Ge  Ge10  1  0.50000000  0.18810721  0.25000000  1
  Ge  Ge11  1  0.50000000  0.31189279  0.75000000  1
  N  N0  1  0.00000000  0.51834726  0.69751575  1
  N  N1  1  -0.00000000  0.48165274  0.30248425  1
  N  N2  1  -0.00000000  0.98165274  0.19751575  1
  N  N3  1  0.00000000  0.01834726  0.80248425  1
  N  N4  1  0.00000000  0.21125324  0.91967129  1
  N  N5  1  -0.00000000  0.78874676  0.08032871  1
  N  N6  1  -0.00000000  0.28874676  0.41967129  1
  N  N7  1  0.00000000  0.71125324  0.58032871  1
  N  N8  1  -0.00000000  0.60181163  0.95228051  1
  N  N9  1  0.00000000  0.39818837  0.04771949  1
  N  N10  1  0.00000000  0.89818837  0.45228051  1
  N  N11  1  -0.00000000  0.10181163  0.54771949  1
  N  N12  1  0.69027726  0.54546556  0.80975514  1
  N  N13  1  0.69027726  0.14481170  0.19024486  1
  N  N14  1  0.69027726  0.64481170  0.30975514  1
  N  N15  1  0.69027726  0.04546556  0.69024486  1
  N  N16  1  0.30972274  0.45453444  0.19024486  1
  N  N17  1  0.30972274  0.85518830  0.80975514  1
  N  N18  1  0.30972274  0.35518830  0.69024486  1
  N  N19  1  0.30972274  0.95453444  0.30975514  1
  N  N20  1  0.70214105  0.27872736  0.80949818  1
  N  N21  1  0.70214105  0.42341369  0.19050182  1
  N  N22  1  0.70214105  0.92341369  0.30949818  1
  N  N23  1  0.70214105  0.77872736  0.69050182  1
  N  N24  1  0.29785895  0.72127264  0.19050182  1
  N  N25  1  0.29785895  0.57658631  0.80949818  1
  N  N26  1  0.29785895  0.07658631  0.69050182  1
  N  N27  1  0.29785895  0.22127264  0.30949818  1
  N  N28  1  0.33873671  0.05937349  0.94531726  1
  N  N29  1  0.33873671  0.27936322  0.05468274  1
  N  N30  1  0.33873671  0.77936322  0.44531726  1
  N  N31  1  0.33873671  0.55937349  0.55468274  1
  N  N32  1  0.66126329  0.94062651  0.05468274  1
  N  N33  1  0.66126329  0.72063678  0.94531726  1
  N  N34  1  0.66126329  0.22063678  0.55468274  1
  N  N35  1  0.66126329  0.44062651  0.44531726  1
loop_
_geom_bond_atom_site_label_1
_geom_bond_atom_site_label_2
_geom_bond_distance
_geom_bond_site_symmetry_2
Ga0 N12 1.965918 1_455
Ga0 N17 1.965918 1_555
Ga0 N25 2.027978 1_555
Ga0 N20 2.027978 1_455
Ga0 N8 2.062325 1_555
Ga1 N16 1.965918 1_555
Ga1 N13 1.965918 1_455
Ga1 N21 2.027978 1_455
Ga1 N24 2.027978 1_555
Ga1 N9 2.062325 1_555
Ga2 N19 1.965918 1_555
Ga2 N14 1.965918 1_455
Ga2 N22 2.027978 1_455
Ga2 N27 2.027978 1_565
Ga2 N10 2.062325 1_555
Ga3 N15 1.965918 1_455
Ga3 N18 1.965918 1_555
Ga3 N26 2.027978 1_555
Ga3 N23 2.027978 1_445
Ga3 N11 2.062325 1_555
Ga4 N20 1.853286 1_555
Ga4 N17 1.900000 1_545
Ga4 N28 2.001747 1_555
Ga4 N4 2.158487 1_655
Ga5 N21 1.853279 1_555
Ga5 N16 1.900004 1_555
Ga5 N29 2.001742 1_555
Ga5 N5 2.158491 1_655
Ga6 N22 1.853279 1_555
Ga6 N19 1.900004 1_555
Ga6 N30 2.001742 1_555
Ga6 N6 2.158491 1_665
Ga7 N23 1.853286 1_555
Ga7 N18 1.900000 1_555
Ga7 N31 2.001747 1_555
Ga7 N7 2.158487 1_655
Ga8 N24 1.853286 1_555
Ga8 N13 1.900000 1_565
Ga8 N32 2.001747 1_555
Ga8 N5 2.158487 1_555
Ga9 N25 1.853279 1_555
Ga9 N12 1.900004 1_555
Ga9 N33 2.001742 1_555
Ga9 N4 2.158491 1_555
Ga10 N26 1.853279 1_555
Ga10 N15 1.900004 1_555
Ga10 N34 2.001742 1_555
Ga10 N7 2.158491 1_545
Ga11 N27 1.853286 1_555
Ga11 N14 1.900000 1_555
Ga11 N35 2.001747 1_555
Ga11 N6 2.158487 1_555
Ga12 N0 1.840475 1_555
Ga12 N7 1.986119 1_555
Ga12 N31 2.101782 1_555
Ga12 N34 2.101782 1_455
Ga13 N1 1.840475 1_555
Ga13 N6 1.986119 1_555
Ga13 N35 2.101782 1_455
Ga13 N30 2.101782 1_555
Ga14 N2 1.840475 1_555
Ga14 N5 1.986119 1_555
Ga14 N32 2.101782 1_455
Ga14 N29 2.101782 1_565
Ga15 N3 1.840475 1_555
Ga15 N4 1.986119 1_555
Ga15 N28 2.101782 1_555
Ga15 N33 2.101782 1_445
Ga16 N28 1.978688 1_554
Ga16 N29 1.978694 1_555
Ga16 N9 2.036251 1_655
Ga16 N8 2.036256 1_654
Ga17 N31 1.978688 1_555
Ga17 N30 1.978694 1_555
Ga17 N10 2.036251 1_655
Ga17 N11 2.036256 1_665
Ga18 N32 1.978688 1_555
Ga18 N33 1.978694 1_554
Ga18 N8 2.036251 1_554
Ga18 N9 2.036256 1_555
Ga19 N35 1.978688 1_555
Ga19 N34 1.978694 1_555
Ga19 N11 2.036251 1_555
Ga19 N10 2.036256 1_545
Ge0 N5 1.882921 1_556
Ge0 N8 1.891647 1_555
Ge0 N33 1.919853 1_455
Ge0 N28 1.919853 1_565
Ge1 N4 1.882921 1_554
Ge1 N9 1.891647 1_555
Ge1 N29 1.919853 1_555
Ge1 N32 1.919853 1_445
Ge2 N7 1.882921 1_555
Ge2 N10 1.891647 1_555
Ge2 N30 1.919853 1_555
Ge2 N35 1.919853 1_455
Ge3 N6 1.882921 1_555
Ge3 N11 1.891647 1_555
Ge3 N34 1.919853 1_455
Ge3 N31 1.919853 1_555
Ge4 N0 1.882783 1_555
Ge4 N20 2.023173 1_455
Ge4 N25 2.023173 1_555
Ge4 N18 2.154958 1_555
Ge4 N15 2.154958 1_455
Ge5 N1 1.882783 1_555
Ge5 N24 2.023173 1_555
Ge5 N21 2.023173 1_455
Ge5 N14 2.154958 1_455
Ge5 N19 2.154958 1_555
Ge6 N2 1.882783 1_545
Ge6 N27 2.023173 1_555
Ge6 N22 2.023173 1_445
Ge6 N13 2.154958 1_455
Ge6 N16 2.154958 1_555
Ge7 N3 1.882783 1_565
Ge7 N23 2.023173 1_455
Ge7 N26 2.023173 1_565
Ge7 N17 2.154958 1_555
Ge7 N12 2.154958 1_455
Ge8 N23 1.951634 1_555
Ge8 N25 1.951634 1_555
Ge8 N17 1.961679 1_555
Ge8 N15 1.961679 1_565
Ge8 N3 2.376578 1_665
Ge8 N0 2.376578 1_555
Ge9 N24 1.951634 1_555
Ge9 N22 1.951634 1_555
Ge9 N14 1.961679 1_555
Ge9 N16 1.961679 1_555
Ge9 N1 2.376578 1_555
Ge9 N2 2.376578 1_655
Ge10 N27 1.951634 1_555
Ge10 N21 1.951634 1_555
Ge10 N13 1.961679 1_555
Ge10 N19 1.961679 1_545
Ge10 N2 2.376578 1_545
Ge10 N1 2.376578 1_655
Ge11 N20 1.951634 1_555
Ge11 N26 1.951634 1_555
Ge11 N18 1.961679 1_555
Ge11 N12 1.961679 1_555
Ge11 N0 2.376578 1_655
Ge11 N3 2.376578 1_555
