# generated using pymatgen
data_Ti2GaN
_symmetry_space_group_name_H-M   'P 1'
_cell_length_a   3.00091950
_cell_length_b   3.00091950
_cell_length_c   13.26951916
_cell_angle_alpha   90.00000000
_cell_angle_beta   90.00000000
_cell_angle_gamma   120.00000579
_symmetry_Int_Tables_number   1
_chemical_formula_structural   Ti2GaN
_chemical_formula_sum   'Ti4 Ga2 N2'
_cell_volume   103.48907000
_cell_formula_units_Z   2
loop_
 _symmetry_equiv_pos_site_id
 _symmetry_equiv_pos_as_xyz
  1  'x, y, z'
loop_
 _atom_site_type_symbol
 _atom_site_label
 _atom_site_symmetry_multiplicity
 _atom_site_fract_x
 _atom_site_fract_y
 _atom_site_fract_z
 _atom_site_occupancy
  Ti  Ti0  1  0.66666700  0.33333300  0.41279550  1
  Ti  Ti1  1  0.33333300  0.66666700  0.58720450  1
  Ti  Ti2  1  0.33333300  0.66666700  0.91279550  1
  Ti  Ti3  1  0.66666700  0.33333300  0.08720450  1
  Ga  Ga0  1  0.66666700  0.33333300  0.75000000  1
  Ga  Ga1  1  0.33333300  0.66666700  0.25000000  1
  N  N0  1  -0.00000000  0.00000000  0.00000000  1
  N  N1  1  -0.00000000  -0.00000000  0.50000000  1
loop_
_geom_bond_atom_site_label_1
_geom_bond_atom_site_label_2
_geom_bond_distance
_geom_bond_site_symmetry_2
Ga0 Ti2 2.769183 1_545
Ga0 Ti2 2.769183 1_655
Ga0 Ti1 2.769183 1_545
Ga0 Ti1 2.769183 1_655
Ga0 Ti1 2.769186 1_555
Ga0 Ti2 2.769186 1_555
Ga1 Ti3 2.769183 1_455
Ga1 Ti0 2.769183 1_565
Ga1 Ti3 2.769183 1_565
Ga1 Ti0 2.769183 1_455
Ga1 Ti3 2.769186 1_555
Ga1 Ti0 2.769186 1_555
N0 Ti3 2.083472 1_455
N0 Ti2 2.083472 1_544
N0 Ti3 2.083474 1_555
N0 Ti2 2.083474 1_554
N0 Ti3 2.083474 1_445
N0 Ti2 2.083474 1_444
N1 Ti1 2.083472 1_545
N1 Ti0 2.083472 1_455
N1 Ti0 2.083474 1_555
N1 Ti0 2.083474 1_445
N1 Ti1 2.083474 1_445
N1 Ti1 2.083474 1_555
