# generated using pymatgen
data_NiO2
_symmetry_space_group_name_H-M   'P 1'
_cell_length_a   5.61095116
_cell_length_b   5.61095116
_cell_length_c   14.16891700
_cell_angle_alpha   90.00000000
_cell_angle_beta   90.00000000
_cell_angle_gamma   119.99999008
_symmetry_Int_Tables_number   1
_chemical_formula_structural   NiO2
_chemical_formula_sum   'Ni12 O24'
_cell_volume   386.31387619
_cell_formula_units_Z   12
loop_
 _symmetry_equiv_pos_site_id
 _symmetry_equiv_pos_as_xyz
  1  'x, y, z'
loop_
 _atom_site_type_symbol
 _atom_site_label
 _atom_site_symmetry_multiplicity
 _atom_site_fract_x
 _atom_site_fract_y
 _atom_site_fract_z
 _atom_site_occupancy
  Ni  Ni0  1  0.83499200  0.16500800  0.83269900  1
  Ni  Ni1  1  0.83499200  0.66998500  0.83269900  1
  Ni  Ni2  1  0.50131300  0.49868700  0.49485900  1
  Ni  Ni3  1  0.33001500  0.16500800  0.83269900  1
  Ni  Ni4  1  0.50131300  0.00262500  0.49485900  1
  Ni  Ni5  1  0.33333300  0.66666700  0.33286200  1
  Ni  Ni6  1  0.33333300  0.66666700  0.70924600  1
  Ni  Ni7  1  0.16702500  0.83297500  0.17071200  1
  Ni  Ni8  1  0.99737500  0.49868700  0.49485900  1
  Ni  Ni9  1  0.16702500  0.33405100  0.17071200  1
  Ni  Ni10  1  0.66594900  0.83297500  0.17071200  1
  Ni  Ni11  1  0.66666700  0.33333300  0.04882700  1
  O  O0  1  0.14792700  0.85207300  0.90436300  1
  O  O1  1  0.00000000  0.00000000  0.76389400  1
  O  O2  1  0.14792700  0.29585500  0.90436300  1
  O  O3  1  0.70414500  0.85207300  0.90436300  1
  O  O4  1  0.81395200  0.18604800  0.56822600  1
  O  O5  1  0.97763200  0.48881600  0.76331200  1
  O  O6  1  0.66666700  0.33333300  0.42732700  1
  O  O7  1  0.51118400  0.02236800  0.76331200  1
  O  O8  1  0.66666700  0.33333300  0.90296400  1
  O  O9  1  0.81395200  0.62790300  0.56822600  1
  O  O10  1  0.37209700  0.18604800  0.56822600  1
  O  O11  1  0.51118400  0.48881600  0.76331200  1
  O  O12  1  0.48192500  0.51807500  0.24687700  1
  O  O13  1  0.63120900  0.81560400  0.41894100  1
  O  O14  1  0.18439600  0.36879100  0.41894100  1
  O  O15  1  0.33333300  0.66666700  0.10258000  1
  O  O16  1  0.33333300  0.66666700  0.56490400  1
  O  O17  1  0.48192500  0.96385000  0.24687700  1
  O  O18  1  0.03615000  0.51807500  0.24687700  1
  O  O19  1  0.18439600  0.81560400  0.41894100  1
  O  O20  1  0.30665700  0.15332900  0.09829100  1
  O  O21  1  0.84667100  0.69334300  0.09829100  1
  O  O22  1  0.00000000  0.00000000  0.23807700  1
  O  O23  1  0.84667100  0.15332900  0.09829100  1
loop_
_geom_bond_atom_site_label_1
_geom_bond_atom_site_label_2
_geom_bond_distance
_geom_bond_site_symmetry_2
Ni0 O2 1.834120 1_655
Ni0 O3 1.834120 1_545
Ni0 O5 1.858497 1_555
Ni0 O7 1.858497 1_555
Ni0 O1 1.876704 1_655
Ni0 O8 1.914996 1_555
Ni1 O3 1.834120 1_555
Ni1 O0 1.834120 1_655
Ni1 O11 1.858497 1_555
Ni1 O5 1.858501 1_555
Ni1 O1 1.876701 1_665
Ni1 O8 1.915005 1_555
Ni2 O10 1.847071 1_555
Ni2 O9 1.847071 1_555
Ni2 O6 1.870287 1_555
Ni2 O14 1.885278 1_555
Ni2 O13 1.885278 1_555
Ni2 O16 1.910512 1_555
Ni3 O2 1.834120 1_555
Ni3 O0 1.834120 1_545
Ni3 O11 1.858497 1_555
Ni3 O7 1.858501 1_555
Ni3 O1 1.876701 1_555
Ni3 O8 1.915005 1_555
Ni4 O10 1.847071 1_555
Ni4 O4 1.847071 1_555
Ni4 O6 1.870287 1_555
Ni4 O13 1.885278 1_545
Ni4 O19 1.885279 1_545
Ni4 O16 1.910504 1_545
Ni5 O18 1.889353 1_555
Ni5 O17 1.889353 1_555
Ni5 O12 1.889357 1_555
Ni5 O19 1.892779 1_555
Ni5 O13 1.892786 1_555
Ni5 O14 1.892786 1_555
Ni6 O7 1.890587 1_565
Ni6 O5 1.890587 1_455
Ni6 O11 1.890591 1_555
Ni6 O16 2.045170 1_555
Ni7 O21 1.868008 1_455
Ni7 O20 1.868008 1_565
Ni7 O18 1.878370 1_555
Ni7 O17 1.878370 1_555
Ni7 O15 1.882604 1_555
Ni7 O22 1.883058 1_565
Ni8 O9 1.847071 1_555
Ni8 O4 1.847071 1_555
Ni8 O6 1.870287 1_555
Ni8 O14 1.885278 1_655
Ni8 O19 1.885279 1_655
Ni8 O16 1.910504 1_655
Ni9 O20 1.868008 1_555
Ni9 O23 1.868008 1_455
Ni9 O18 1.878366 1_555
Ni9 O12 1.878370 1_555
Ni9 O15 1.882604 1_555
Ni9 O22 1.883062 1_555
Ni10 O21 1.868008 1_555
Ni10 O23 1.868008 1_565
Ni10 O17 1.878366 1_555
Ni10 O12 1.878370 1_555
Ni10 O15 1.882604 1_555
Ni10 O22 1.883062 1_665
Ni11 O23 1.884530 1_555
Ni11 O21 1.884539 1_555
Ni11 O20 1.884539 1_555
Ni11 O8 2.066721 1_554
