# generated using pymatgen
data_Lu6Ti4Al43
_symmetry_space_group_name_H-M   'P 1'
_cell_length_a   11.04522883
_cell_length_b   11.04522883
_cell_length_c   17.65665500
_cell_angle_alpha   90.00000000
_cell_angle_beta   90.00000000
_cell_angle_gamma   120.00000499
_symmetry_Int_Tables_number   1
_chemical_formula_structural   Lu6Ti4Al43
_chemical_formula_sum   'Lu12 Ti8 Al86'
_cell_volume   1865.47089232
_cell_formula_units_Z   2
loop_
 _symmetry_equiv_pos_site_id
 _symmetry_equiv_pos_as_xyz
  1  'x, y, z'
loop_
 _atom_site_type_symbol
 _atom_site_label
 _atom_site_symmetry_multiplicity
 _atom_site_fract_x
 _atom_site_fract_y
 _atom_site_fract_z
 _atom_site_occupancy
  Lu  Lu0  1  0.53131000  0.00000000  0.59640900  1
  Lu  Lu1  1  0.46869000  0.00000000  0.40359100  1
  Lu  Lu2  1  0.00000000  0.53131000  0.59640900  1
  Lu  Lu3  1  0.46869000  0.00000000  0.09640900  1
  Lu  Lu4  1  0.00000000  0.53131000  0.90359100  1
  Lu  Lu5  1  0.00000000  0.46869000  0.40359100  1
  Lu  Lu6  1  0.53131000  0.00000000  0.90359100  1
  Lu  Lu7  1  0.00000000  0.46869000  0.09640900  1
  Lu  Lu8  1  0.46869000  0.46869000  0.59640900  1
  Lu  Lu9  1  0.53131000  0.53131000  0.40359100  1
  Lu  Lu10  1  0.53131000  0.53131000  0.09640900  1
  Lu  Lu11  1  0.46869000  0.46869000  0.90359100  1
  Ti  Ti0  1  0.00000000  0.00000000  0.50000000  1
  Ti  Ti1  1  0.00000000  0.00000000  0.00000000  1
  Ti  Ti2  1  0.72750400  0.00000000  0.75000000  1
  Ti  Ti3  1  0.27249600  0.00000000  0.25000000  1
  Ti  Ti4  1  0.00000000  0.72750400  0.75000000  1
  Ti  Ti5  1  0.00000000  0.27249600  0.25000000  1
  Ti  Ti6  1  0.27249600  0.27249600  0.75000000  1
  Ti  Ti7  1  0.72750400  0.72750400  0.25000000  1
  Al  Al0  1  0.14920800  0.59705300  0.75000000  1
  Al  Al1  1  0.85079200  0.40294700  0.25000000  1
  Al  Al2  1  0.40294700  0.55215600  0.75000000  1
  Al  Al3  1  0.59705300  0.14920800  0.75000000  1
  Al  Al4  1  0.59705300  0.44784400  0.25000000  1
  Al  Al5  1  0.40294700  0.85079200  0.25000000  1
  Al  Al6  1  0.44784400  0.85079200  0.75000000  1
  Al  Al7  1  0.55215600  0.40294700  0.75000000  1
  Al  Al8  1  0.55215600  0.14920800  0.25000000  1
  Al  Al9  1  0.44784400  0.59705300  0.25000000  1
  Al  Al10  1  0.85079200  0.44784400  0.75000000  1
  Al  Al11  1  0.14920800  0.55215600  0.25000000  1
  Al  Al12  1  0.15718600  0.00000000  0.11577800  1
  Al  Al13  1  0.84281400  0.00000000  0.88422200  1
  Al  Al14  1  0.00000000  0.15718600  0.11577800  1
  Al  Al15  1  0.84281400  0.00000000  0.61577800  1
  Al  Al16  1  0.00000000  0.15718600  0.38422200  1
  Al  Al17  1  0.00000000  0.84281400  0.88422200  1
  Al  Al18  1  0.15718600  0.00000000  0.38422200  1
  Al  Al19  1  0.00000000  0.84281400  0.61577800  1
  Al  Al20  1  0.84281400  0.84281400  0.11577800  1
  Al  Al21  1  0.15718600  0.15718600  0.88422200  1
  Al  Al22  1  0.15718600  0.15718600  0.61577800  1
  Al  Al23  1  0.84281400  0.84281400  0.38422200  1
  Al  Al24  1  0.24744600  0.49489200  0.50000000  1
  Al  Al25  1  0.75255400  0.50510800  0.50000000  1
  Al  Al26  1  0.50510800  0.75255400  0.50000000  1
  Al  Al27  1  0.75255400  0.50510800  0.00000000  1
  Al  Al28  1  0.49489200  0.24744600  0.00000000  1
  Al  Al29  1  0.49489200  0.24744600  0.50000000  1
  Al  Al30  1  0.24744600  0.49489200  0.00000000  1
  Al  Al31  1  0.50510800  0.75255400  0.00000000  1
  Al  Al32  1  0.24744600  0.75255400  0.50000000  1
  Al  Al33  1  0.75255400  0.24744600  0.50000000  1
  Al  Al34  1  0.75255400  0.24744600  0.00000000  1
  Al  Al35  1  0.24744600  0.75255400  0.00000000  1
  Al  Al36  1  0.14678900  0.00000000  0.75000000  1
  Al  Al37  1  0.85321100  0.00000000  0.25000000  1
  Al  Al38  1  0.00000000  0.14678900  0.75000000  1
  Al  Al39  1  0.00000000  0.85321100  0.25000000  1
  Al  Al40  1  0.85321100  0.85321100  0.75000000  1
  Al  Al41  1  0.14678900  0.14678900  0.25000000  1
  Al  Al42  1  0.33333300  0.66666700  0.62588800  1
  Al  Al43  1  0.66666700  0.33333300  0.37411200  1
  Al  Al44  1  0.66666700  0.33333300  0.12588800  1
  Al  Al45  1  0.66666700  0.33333300  0.87411200  1
  Al  Al46  1  0.33333300  0.66666700  0.87411200  1
  Al  Al47  1  0.33333300  0.66666700  0.12588800  1
  Al  Al48  1  0.33333300  0.66666700  0.37411200  1
  Al  Al49  1  0.66666700  0.33333300  0.62588800  1
  Al  Al50  1  0.25497000  0.00000000  0.52918100  1
  Al  Al51  1  0.74503000  0.00000000  0.47081900  1
  Al  Al52  1  0.00000000  0.25497000  0.52918100  1
  Al  Al53  1  0.74503000  0.00000000  0.02918100  1
  Al  Al54  1  0.00000000  0.25497000  0.97081900  1
  Al  Al55  1  0.00000000  0.74503000  0.47081900  1
  Al  Al56  1  0.25497000  0.00000000  0.97081900  1
  Al  Al57  1  0.00000000  0.74503000  0.02918100  1
  Al  Al58  1  0.74503000  0.74503000  0.52918100  1
  Al  Al59  1  0.25497000  0.25497000  0.47081900  1
  Al  Al60  1  0.25497000  0.25497000  0.02918100  1
  Al  Al61  1  0.74503000  0.74503000  0.97081900  1
  Al  Al62  1  0.15827500  0.39399000  0.66392700  1
  Al  Al63  1  0.84172500  0.60601000  0.33607300  1
  Al  Al64  1  0.60601000  0.76428500  0.66392700  1
  Al  Al65  1  0.84172500  0.60601000  0.16392700  1
  Al  Al66  1  0.39399000  0.15827500  0.83607300  1
  Al  Al67  1  0.39399000  0.23571500  0.33607300  1
  Al  Al68  1  0.15827500  0.39399000  0.83607300  1
  Al  Al69  1  0.60601000  0.84172500  0.16392700  1
  Al  Al70  1  0.23571500  0.84172500  0.66392700  1
  Al  Al71  1  0.39399000  0.23571500  0.16392700  1
  Al  Al72  1  0.76428500  0.60601000  0.83607300  1
  Al  Al73  1  0.76428500  0.15827500  0.33607300  1
  Al  Al74  1  0.60601000  0.76428500  0.83607300  1
  Al  Al75  1  0.23571500  0.39399000  0.16392700  1
  Al  Al76  1  0.60601000  0.84172500  0.33607300  1
  Al  Al77  1  0.39399000  0.15827500  0.66392700  1
  Al  Al78  1  0.76428500  0.15827500  0.16392700  1
  Al  Al79  1  0.23571500  0.39399000  0.33607300  1
  Al  Al80  1  0.23571500  0.84172500  0.83607300  1
  Al  Al81  1  0.76428500  0.60601000  0.66392700  1
  Al  Al82  1  0.84172500  0.23571500  0.83607300  1
  Al  Al83  1  0.15827500  0.76428500  0.16392700  1
  Al  Al84  1  0.15827500  0.76428500  0.33607300  1
  Al  Al85  1  0.84172500  0.23571500  0.66392700  1
loop_
_geom_bond_atom_site_label_1
_geom_bond_atom_site_label_2
_geom_bond_distance
_geom_bond_site_symmetry_2
Lu0 Ti2 3.471360 1_555
Lu0 Lu1 3.474068 1_555
Lu1 Ti3 3.471360 1_555
Lu2 Ti4 3.471360 1_555
Lu2 Lu5 3.474068 1_555
Lu3 Ti3 3.471360 1_555
Lu3 Lu6 3.474068 1_554
Lu4 Ti4 3.471360 1_555
Lu4 Lu7 3.474068 1_556
Lu5 Ti5 3.471360 1_555
Lu6 Ti2 3.471360 1_555
Lu7 Ti5 3.471360 1_555
Lu8 Ti6 3.471360 1_555
Lu8 Lu9 3.474068 1_555
Lu9 Ti7 3.471360 1_555
Lu10 Ti7 3.471360 1_555
Lu10 Lu11 3.474068 1_554
Lu11 Ti6 3.471360 1_555
Al0 Ti4 2.677069 1_555
Al0 Al68 2.752239 1_555
Al0 Al62 2.752239 1_555
Al0 Al80 2.818465 1_555
Al0 Al70 2.818465 1_555
Al0 Al42 2.822354 1_555
Al0 Al46 2.822354 1_555
Al0 Al10 2.854483 1_455
Al0 Lu4 3.066108 1_555
Al0 Lu2 3.066108 1_555
Al0 Al6 3.080635 1_555
Al0 Al2 3.080636 1_555
Al1 Ti5 2.677069 1_655
Al1 Al65 2.752239 1_555
Al1 Al63 2.752239 1_555
Al1 Al73 2.818465 1_555
Al1 Al78 2.818465 1_555
Al1 Al44 2.822354 1_555
Al1 Al43 2.822354 1_555
Al1 Al11 2.854483 1_655
Al1 Lu5 3.066108 1_655
Al1 Lu7 3.066108 1_655
Al1 Al8 3.080635 1_555
Al1 Al4 3.080636 1_555
Al2 Ti6 2.677078 1_555
Al2 Al74 2.752234 1_555
Al2 Al64 2.752234 1_555
Al2 Al68 2.818466 1_555
Al2 Al62 2.818466 1_555
Al2 Al46 2.822355 1_555
Al2 Al42 2.822355 1_555
Al2 Al7 2.854502 1_555
Al2 Lu11 3.066112 1_555
Al2 Lu8 3.066112 1_555
Al2 Al6 3.080636 1_555
Al3 Ti2 2.677069 1_555
Al3 Al66 2.752239 1_555
Al3 Al77 2.752239 1_555
Al3 Al82 2.818465 1_555
Al3 Al85 2.818465 1_555
Al3 Al49 2.822354 1_555
Al3 Al45 2.822354 1_555
Al3 Al6 2.854483 1_545
Al3 Lu6 3.066108 1_555
Al3 Lu0 3.066108 1_555
Al3 Al7 3.080636 1_555
Al4 Ti7 2.677078 1_555
Al4 Al71 2.752234 1_555
Al4 Al67 2.752234 1_555
Al4 Al65 2.818466 1_555
Al4 Al63 2.818466 1_555
Al4 Al43 2.822355 1_555
Al4 Al44 2.822355 1_555
Al4 Al9 2.854502 1_555
Al4 Lu9 3.066112 1_555
Al4 Lu10 3.066112 1_555
Al4 Al8 3.080636 1_555
Al5 Ti3 2.677069 1_565
Al5 Al69 2.752239 1_555
Al5 Al76 2.752239 1_555
Al5 Al83 2.818465 1_555
Al5 Al84 2.818465 1_555
Al5 Al8 2.854483 1_565
Al5 Lu1 3.066108 1_565
Al5 Lu3 3.066108 1_565
Al5 Al9 3.080636 1_555
Al6 Ti2 2.677078 1_565
Al6 Al80 2.752230 1_555
Al6 Al70 2.752230 1_555
Al6 Al74 2.818474 1_555
Al6 Al64 2.818474 1_555
Al6 Lu6 3.066108 1_565
Al6 Lu0 3.066108 1_565
Al7 Ti6 2.677078 1_555
Al7 Al72 2.752234 1_555
Al7 Al81 2.752234 1_555
Al7 Al77 2.818466 1_555
Al7 Lu11 3.066112 1_555
Al7 Lu8 3.066112 1_555
Al8 Ti3 2.677078 1_555
Al8 Lu1 3.066108 1_555
Al8 Lu3 3.066108 1_555
Al9 Ti7 2.677078 1_555
Al9 Lu9 3.066112 1_555
Al9 Lu10 3.066112 1_555
Al10 Ti4 2.677078 1_655
Al10 Al82 2.752230 1_555
Al10 Al85 2.752230 1_555
Al10 Al72 2.818474 1_555
Al10 Al81 2.818474 1_555
Al10 Al49 2.822354 1_555
Al10 Al45 2.822354 1_555
Al10 Lu4 3.066108 1_655
Al10 Lu2 3.066108 1_655
Al10 Al3 3.080635 1_555
Al10 Al7 3.080636 1_555
Al11 Ti5 2.677078 1_555
Al11 Al84 2.752230 1_555
Al11 Al83 2.752230 1_555
Al11 Al75 2.818474 1_555
Al11 Al79 2.818474 1_555
Al11 Al48 2.822354 1_555
Al11 Al47 2.822354 1_555
Al11 Lu5 3.066108 1_555
Al11 Lu7 3.066108 1_555
Al11 Al5 3.080635 1_555
Al11 Al9 3.080636 1_555
Al12 Ti1 2.682015 1_555
Al12 Ti3 2.690465 1_555
Al12 Al71 2.744552 1_555
Al12 Al83 2.744552 1_545
Al12 Al56 2.778038 1_554
Al12 Al57 2.897196 1_545
Al12 Al60 2.897196 1_555
Al12 Al39 2.905947 1_545
Al12 Al41 2.905947 1_555
Al12 Al20 3.007109 1_445
Al12 Al14 3.007109 1_555
Al12 Lu3 3.457588 1_555
Al13 Ti1 2.682015 1_656
Al13 Ti2 2.690465 1_555
Al13 Al74 2.744552 1_545
Al13 Al82 2.744552 1_555
Al13 Al53 2.778038 1_556
Al13 Al54 2.897196 1_655
Al13 Al61 2.897196 1_545
Al13 Al38 2.905947 1_655
Al13 Al40 2.905947 1_545
Al13 Al21 3.007109 1_655
Al13 Al17 3.007109 1_645
Al13 Lu6 3.457588 1_555
Al14 Ti1 2.682015 1_555
Al14 Ti5 2.690465 1_555
Al14 Al75 2.744552 1_555
Al14 Al78 2.744552 1_455
Al14 Al54 2.778038 1_554
Al14 Al53 2.897196 1_455
Al14 Al60 2.897196 1_555
Al14 Al37 2.905947 1_455
Al14 Al41 2.905947 1_555
Al14 Al20 3.007109 1_445
Al14 Lu7 3.457588 1_555
Al15 Ti0 2.682015 1_655
Al15 Ti2 2.690465 1_555
Al15 Al64 2.744552 1_545
Al15 Al85 2.744552 1_555
Al15 Al51 2.778038 1_555
Al15 Al52 2.897196 1_655
Al15 Al58 2.897196 1_545
Al15 Al38 2.905947 1_655
Al15 Al40 2.905947 1_545
Al15 Al22 3.007109 1_655
Al15 Al19 3.007109 1_645
Al15 Lu0 3.457588 1_555
Al16 Ti0 2.682015 1_555
Al16 Ti5 2.690465 1_555
Al16 Al79 2.744552 1_555
Al16 Al73 2.744552 1_455
Al16 Al52 2.778038 1_555
Al16 Al51 2.897196 1_455
Al16 Al59 2.897196 1_555
Al16 Al37 2.905947 1_455
Al16 Al41 2.905947 1_555
Al16 Al23 3.007109 1_445
Al16 Al18 3.007109 1_555
Al16 Lu5 3.457588 1_555
Al17 Ti1 2.682015 1_566
Al17 Ti4 2.690465 1_555
Al17 Al72 2.744552 1_455
Al17 Al80 2.744552 1_555
Al17 Al57 2.778038 1_556
Al17 Al56 2.897196 1_565
Al17 Al61 2.897196 1_455
Al17 Al36 2.905947 1_565
Al17 Al40 2.905947 1_455
Al17 Al21 3.007109 1_565
Al17 Lu4 3.457588 1_555
Al18 Ti0 2.682015 1_555
Al18 Ti3 2.690465 1_555
Al18 Al67 2.744552 1_555
Al18 Al84 2.744552 1_545
Al18 Al50 2.778038 1_555
Al18 Al55 2.897196 1_545
Al18 Al59 2.897196 1_555
Al18 Al39 2.905947 1_545
Al18 Al41 2.905947 1_555
Al18 Al23 3.007109 1_445
Al18 Lu1 3.457588 1_555
Al19 Ti0 2.682015 1_565
Al19 Ti4 2.690465 1_555
Al19 Al81 2.744552 1_455
Al19 Al70 2.744552 1_555
Al19 Al55 2.778038 1_555
Al19 Al50 2.897196 1_565
Al19 Al58 2.897196 1_455
Al19 Al36 2.905947 1_565
Al19 Al40 2.905947 1_455
Al19 Al22 3.007109 1_565
Al19 Lu2 3.457588 1_555
Al20 Ti1 2.682015 1_665
Al20 Ti7 2.690465 1_555
Al20 Al69 2.744552 1_555
Al20 Al65 2.744552 1_555
Al20 Al61 2.778038 1_554
Al20 Al57 2.897196 1_655
Al20 Al53 2.897196 1_565
Al20 Al39 2.905947 1_655
Al20 Al37 2.905947 1_565
Al20 Lu10 3.457588 1_555
Al21 Ti1 2.682015 1_556
Al21 Ti6 2.690465 1_555
Al21 Al68 2.744552 1_555
Al21 Al66 2.744552 1_555
Al21 Al60 2.778038 1_556
Al21 Al56 2.897196 1_555
Al21 Al54 2.897196 1_555
Al21 Al36 2.905947 1_555
Al21 Al38 2.905947 1_555
Al21 Lu11 3.457588 1_555
Al22 Ti0 2.682015 1_555
Al22 Ti6 2.690465 1_555
Al22 Al62 2.744552 1_555
Al22 Al77 2.744552 1_555
Al22 Al59 2.778038 1_555
Al22 Al52 2.897196 1_555
Al22 Al50 2.897196 1_555
Al22 Al36 2.905947 1_555
Al22 Al38 2.905947 1_555
Al22 Lu8 3.457588 1_555
Al23 Ti0 2.682015 1_665
Al23 Ti7 2.690465 1_555
Al23 Al63 2.744552 1_555
Al23 Al76 2.744552 1_555
Al23 Al58 2.778038 1_555
Al23 Al55 2.897196 1_655
Al23 Al51 2.897196 1_565
Al23 Al39 2.905947 1_655
Al23 Al37 2.905947 1_565
Al23 Lu9 3.457588 1_555
Al24 Al52 2.741362 1_555
Al24 Al59 2.741362 1_555
Al24 Al48 2.764138 1_555
Al24 Al42 2.764138 1_555
Al24 Al26 2.845936 1_555
Al24 Al32 2.845936 1_555
Al24 Al62 3.080913 1_555
Al24 Al79 3.080913 1_555
Al24 Lu5 3.108101 1_555
Al24 Lu8 3.108101 1_555
Al24 Lu9 3.410086 1_555
Al24 Lu2 3.410087 1_555
Al25 Al55 2.741362 1_655
Al25 Al58 2.741362 1_555
Al25 Al43 2.764138 1_555
Al25 Al49 2.764138 1_555
Al25 Al29 2.845936 1_555
Al25 Al33 2.845936 1_555
Al25 Al63 3.080913 1_555
Al25 Al81 3.080913 1_555
Al25 Lu2 3.108101 1_655
Al25 Lu9 3.108101 1_555
Al25 Lu8 3.410086 1_555
Al25 Lu5 3.410087 1_655
Al26 Al51 2.741362 1_565
Al26 Al58 2.741362 1_555
Al26 Al48 2.764138 1_555
Al26 Al42 2.764138 1_555
Al26 Al32 2.845936 1_555
Al26 Al76 3.080913 1_555
Al26 Al64 3.080913 1_555
Al26 Lu0 3.108101 1_565
Al26 Lu9 3.108101 1_555
Al26 Lu8 3.410086 1_555
Al26 Lu1 3.410087 1_565
Al27 Al57 2.741362 1_655
Al27 Al61 2.741362 1_554
Al27 Al44 2.764138 1_555
Al27 Al45 2.764138 1_554
Al27 Al28 2.845936 1_555
Al27 Al34 2.845936 1_555
Al27 Al65 3.080913 1_555
Al27 Al72 3.080913 1_554
Al27 Lu4 3.108101 1_654
Al27 Lu10 3.108101 1_555
Al27 Lu11 3.410086 1_554
Al27 Lu7 3.410087 1_655
Al28 Al56 2.741362 1_554
Al28 Al60 2.741362 1_555
Al28 Al44 2.764138 1_555
Al28 Al45 2.764138 1_554
Al28 Al34 2.845936 1_555
Al28 Al66 3.080913 1_554
Al28 Al71 3.080913 1_555
Al28 Lu3 3.108101 1_555
Al28 Lu11 3.108101 1_554
Al28 Lu10 3.410086 1_555
Al28 Lu6 3.410087 1_554
Al29 Al50 2.741362 1_555
Al29 Al59 2.741362 1_555
Al29 Al49 2.764138 1_555
Al29 Al43 2.764138 1_555
Al29 Al33 2.845936 1_555
Al29 Al77 3.080913 1_555
Al29 Al67 3.080913 1_555
Al29 Lu1 3.108101 1_555
Al29 Lu8 3.108101 1_555
Al29 Lu9 3.410086 1_555
Al29 Lu0 3.410087 1_555
Al30 Al54 2.741362 1_554
Al30 Al60 2.741362 1_555
Al30 Al46 2.764138 1_554
Al30 Al47 2.764138 1_555
Al30 Al31 2.845936 1_555
Al30 Al35 2.845936 1_555
Al30 Al68 3.080913 1_554
Al30 Al75 3.080913 1_555
Al30 Lu7 3.108101 1_555
Al30 Lu11 3.108101 1_554
Al30 Lu10 3.410086 1_555
Al30 Lu4 3.410087 1_554
Al31 Al53 2.741362 1_565
Al31 Al61 2.741362 1_554
Al31 Al46 2.764138 1_554
Al31 Al47 2.764138 1_555
Al31 Al35 2.845936 1_555
Al31 Al69 3.080913 1_555
Al31 Al74 3.080913 1_554
Al31 Lu6 3.108101 1_564
Al31 Lu10 3.108101 1_555
Al31 Lu11 3.410086 1_554
Al31 Lu3 3.410087 1_565
Al32 Al55 2.741362 1_555
Al32 Al50 2.741362 1_565
Al32 Al42 2.764133 1_555
Al32 Al48 2.764133 1_555
Al32 Al70 3.080913 1_555
Al32 Al84 3.080913 1_555
Al32 Lu2 3.108101 1_555
Al32 Lu1 3.108101 1_565
Al32 Lu5 3.410086 1_555
Al32 Lu0 3.410086 1_565
Al33 Al52 2.741362 1_655
Al33 Al51 2.741362 1_555
Al33 Al49 2.764133 1_555
Al33 Al43 2.764133 1_555
Al33 Al85 3.080913 1_555
Al33 Al73 3.080913 1_555
Al33 Lu0 3.108101 1_555
Al33 Lu5 3.108101 1_655
Al33 Lu1 3.410086 1_555
Al33 Lu2 3.410086 1_655
Al34 Al54 2.741362 1_654
Al34 Al53 2.741362 1_555
Al34 Al45 2.764133 1_554
Al34 Al44 2.764133 1_555
Al34 Al78 3.080913 1_555
Al34 Al82 3.080913 1_554
Al34 Lu7 3.108101 1_655
Al34 Lu6 3.108101 1_554
Al34 Lu3 3.410086 1_555
Al34 Lu4 3.410086 1_654
Al35 Al56 2.741362 1_564
Al35 Al57 2.741362 1_555
Al35 Al46 2.764133 1_554
Al35 Al47 2.764133 1_555
Al35 Al83 3.080913 1_555
Al35 Al80 3.080913 1_554
Al35 Lu3 3.108101 1_565
Al35 Lu4 3.108101 1_554
Al35 Lu7 3.410086 1_555
Al35 Lu6 3.410086 1_564
Al36 Ti4 2.609145 1_545
Al36 Ti6 2.609145 1_555
Al36 Al40 2.808205 1_445
Al36 Al38 2.808205 1_555
Al36 Al66 2.836835 1_555
Al36 Al77 2.836835 1_555
Al36 Al80 2.836835 1_545
Al36 Al70 2.836835 1_545
Al37 Ti5 2.609145 1_655
Al37 Ti7 2.609145 1_545
Al37 Al41 2.808205 1_655
Al37 Al39 2.808205 1_645
Al37 Al69 2.836835 1_545
Al37 Al76 2.836835 1_545
Al37 Al78 2.836835 1_555
Al37 Al73 2.836835 1_555
Al38 Ti2 2.609145 1_455
Al38 Ti6 2.609145 1_555
Al38 Al40 2.808205 1_445
Al38 Al68 2.836835 1_555
Al38 Al62 2.836835 1_555
Al38 Al82 2.836835 1_455
Al38 Al85 2.836835 1_455
Al39 Ti3 2.609145 1_565
Al39 Ti7 2.609145 1_455
Al39 Al41 2.808205 1_565
Al39 Al65 2.836835 1_455
Al39 Al63 2.836835 1_455
Al39 Al83 2.836835 1_555
Al39 Al84 2.836835 1_555
Al40 Ti4 2.609146 1_655
Al40 Ti2 2.609146 1_565
Al40 Al72 2.836835 1_555
Al40 Al74 2.836835 1_555
Al40 Al81 2.836835 1_555
Al40 Al64 2.836835 1_555
Al41 Ti3 2.609146 1_555
Al41 Ti5 2.609146 1_555
Al41 Al71 2.836835 1_555
Al41 Al67 2.836835 1_555
Al41 Al79 2.836835 1_555
Al41 Al75 2.836835 1_555
Al42 Al70 2.727099 1_555
Al42 Al62 2.727107 1_555
Al42 Al64 2.727109 1_555
Al42 Al6 2.822354 1_555
Al42 Lu2 3.249141 1_555
Al42 Lu0 3.249142 1_565
Al42 Lu8 3.249151 1_555
Al43 Al73 2.727099 1_555
Al43 Al63 2.727107 1_555
Al43 Al67 2.727109 1_555
Al43 Al8 2.822354 1_555
Al43 Lu5 3.249141 1_655
Al43 Lu1 3.249142 1_555
Al43 Lu9 3.249151 1_555
Al44 Al78 2.727099 1_555
Al44 Al65 2.727107 1_555
Al44 Al71 2.727109 1_555
Al44 Al8 2.822354 1_555
Al44 Lu7 3.249141 1_655
Al44 Lu3 3.249142 1_555
Al44 Lu10 3.249151 1_555
Al45 Al82 2.727099 1_555
Al45 Al66 2.727107 1_555
Al45 Al72 2.727109 1_555
Al45 Al7 2.822355 1_555
Al45 Lu6 3.249141 1_555
Al45 Lu4 3.249142 1_655
Al45 Lu11 3.249151 1_555
Al46 Al80 2.727099 1_555
Al46 Al68 2.727107 1_555
Al46 Al74 2.727109 1_555
Al46 Al6 2.822354 1_555
Al46 Lu4 3.249141 1_555
Al46 Lu6 3.249142 1_565
Al46 Lu11 3.249151 1_555
Al47 Al83 2.727099 1_555
Al47 Al69 2.727107 1_555
Al47 Al75 2.727109 1_555
Al47 Al5 2.822354 1_555
Al47 Al9 2.822355 1_555
Al47 Lu3 3.249141 1_565
Al47 Lu7 3.249142 1_555
Al47 Lu10 3.249151 1_555
Al48 Al84 2.727099 1_555
Al48 Al76 2.727107 1_555
Al48 Al79 2.727109 1_555
Al48 Al5 2.822354 1_555
Al48 Al9 2.822355 1_555
Al48 Lu1 3.249141 1_565
Al48 Lu5 3.249142 1_555
Al48 Lu9 3.249151 1_555
Al49 Al85 2.727099 1_555
Al49 Al77 2.727107 1_555
Al49 Al81 2.727109 1_555
Al49 Al7 2.822355 1_555
Al49 Lu0 3.249141 1_555
Al49 Lu2 3.249142 1_655
Al49 Lu8 3.249151 1_555
Al50 Ti0 2.862947 1_555
Al50 Al77 2.896550 1_555
Al50 Al70 2.896550 1_545
Al50 Al55 2.998813 1_545
Al50 Al59 2.998813 1_555
Al50 Lu1 3.238776 1_555
Al50 Lu0 3.274932 1_555
Al51 Ti0 2.862947 1_655
Al51 Al76 2.896550 1_545
Al51 Al73 2.896550 1_555
Al51 Al52 2.998813 1_655
Al51 Al58 2.998813 1_545
Al51 Lu0 3.238776 1_555
Al51 Lu1 3.274932 1_555
Al52 Ti0 2.862947 1_555
Al52 Al62 2.896550 1_555
Al52 Al85 2.896550 1_455
Al52 Al59 2.998813 1_555
Al52 Lu5 3.238776 1_555
Al52 Lu2 3.274932 1_555
Al53 Ti1 2.862947 1_655
Al53 Al69 2.896550 1_545
Al53 Al78 2.896550 1_555
Al53 Al54 2.998813 1_654
Al53 Al61 2.998813 1_544
Al53 Lu6 3.238776 1_554
Al53 Lu3 3.274932 1_555
Al54 Ti1 2.862947 1_556
Al54 Al68 2.896550 1_555
Al54 Al82 2.896550 1_455
Al54 Al60 2.998813 1_556
Al54 Lu7 3.238776 1_556
Al54 Lu4 3.274932 1_555
Al55 Ti0 2.862947 1_565
Al55 Al63 2.896550 1_455
Al55 Al84 2.896550 1_555
Al55 Al58 2.998813 1_455
Al55 Lu2 3.238776 1_555
Al55 Lu5 3.274932 1_555
Al56 Ti1 2.862947 1_556
Al56 Al66 2.896550 1_555
Al56 Al80 2.896550 1_545
Al56 Al57 2.998813 1_546
Al56 Al60 2.998813 1_556
Al56 Lu3 3.238776 1_556
Al56 Lu6 3.274932 1_555
Al57 Ti1 2.862947 1_565
Al57 Al65 2.896550 1_455
Al57 Al83 2.896550 1_555
Al57 Al61 2.998813 1_454
Al57 Lu4 3.238776 1_554
Al57 Lu7 3.274932 1_555
Al58 Ti0 2.862947 1_665
Al58 Al81 2.896550 1_555
Al58 Al64 2.896550 1_555
Al58 Lu9 3.238776 1_555
Al58 Lu8 3.274932 1_555
Al59 Ti0 2.862947 1_555
Al59 Al67 2.896550 1_555
Al59 Al79 2.896550 1_555
Al59 Lu8 3.238776 1_555
Al59 Lu9 3.274932 1_555
Al60 Ti1 2.862947 1_555
Al60 Al71 2.896550 1_555
Al60 Al75 2.896550 1_555
Al60 Lu11 3.238776 1_554
Al60 Lu10 3.274932 1_555
Al61 Ti1 2.862947 1_666
Al61 Al74 2.896550 1_555
Al61 Al72 2.896550 1_555
Al61 Lu10 3.238776 1_556
Al61 Lu11 3.274932 1_555
Al62 Ti6 2.719384 1_555
Al62 Al85 3.027943 1_455
Al62 Al68 3.039523 1_555
Al62 Lu2 3.070724 1_555
Al62 Lu8 3.320906 1_555
Al63 Ti7 2.719384 1_555
Al63 Al84 3.027943 1_655
Al63 Al65 3.039523 1_555
Al63 Lu5 3.070724 1_655
Al63 Lu9 3.320906 1_555
Al64 Ti2 2.719384 1_565
Al64 Al81 3.027943 1_555
Al64 Al74 3.039523 1_555
Al64 Lu8 3.070724 1_555
Al64 Lu0 3.320906 1_565
Al65 Ti7 2.719384 1_555
Al65 Al83 3.027943 1_655
Al65 Lu7 3.070724 1_655
Al65 Lu10 3.320906 1_555
Al66 Ti6 2.719384 1_555
Al66 Al7 2.818466 1_555
Al66 Al80 3.027943 1_545
Al66 Al77 3.039523 1_555
Al66 Lu6 3.070724 1_555
Al66 Lu11 3.320906 1_555
Al67 Ti3 2.719384 1_555
Al67 Al8 2.818474 1_555
Al67 Al79 3.027943 1_555
Al67 Al71 3.039523 1_555
Al67 Lu9 3.070724 1_555
Al67 Lu1 3.320906 1_555
Al68 Ti6 2.719384 1_555
Al68 Al82 3.027943 1_455
Al68 Lu4 3.070724 1_555
Al68 Lu11 3.320906 1_555
Al69 Ti7 2.719384 1_555
Al69 Al9 2.818466 1_555
Al69 Al78 3.027943 1_565
Al69 Al76 3.039523 1_555
Al69 Lu3 3.070724 1_565
Al69 Lu10 3.320906 1_555
Al70 Ti4 2.719384 1_555
Al70 Al77 3.027943 1_565
Al70 Al80 3.039523 1_555
Al70 Lu0 3.070724 1_565
Al70 Lu2 3.320906 1_555
Al71 Ti3 2.719384 1_555
Al71 Al8 2.818474 1_555
Al71 Al75 3.027943 1_555
Al71 Lu10 3.070724 1_555
Al71 Lu3 3.320906 1_555
Al72 Ti4 2.719384 1_655
Al72 Al74 3.027943 1_555
Al72 Al81 3.039523 1_555
Al72 Lu11 3.070724 1_555
Al72 Lu4 3.320906 1_655
Al73 Ti5 2.719384 1_655
Al73 Al8 2.752230 1_555
Al73 Al76 3.027943 1_545
Al73 Al78 3.039523 1_555
Al73 Lu1 3.070724 1_555
Al73 Lu5 3.320906 1_655
Al74 Ti2 2.719384 1_565
Al74 Lu11 3.070724 1_555
Al74 Lu6 3.320906 1_565
Al75 Ti5 2.719384 1_555
Al75 Al9 2.752234 1_555
Al75 Al79 3.039523 1_555
Al75 Lu10 3.070724 1_555
Al75 Lu7 3.320906 1_555
Al76 Ti7 2.719384 1_555
Al76 Al9 2.818466 1_555
Al76 Lu1 3.070724 1_565
Al76 Lu9 3.320906 1_555
Al77 Ti6 2.719384 1_555
Al77 Lu0 3.070724 1_555
Al77 Lu8 3.320906 1_555
Al78 Ti5 2.719384 1_655
Al78 Al8 2.752230 1_555
Al78 Lu3 3.070724 1_555
Al78 Lu7 3.320906 1_655
Al79 Ti5 2.719384 1_555
Al79 Al9 2.752234 1_555
Al79 Lu9 3.070724 1_555
Al79 Lu5 3.320906 1_555
Al80 Ti4 2.719384 1_555
Al80 Lu6 3.070724 1_565
Al80 Lu4 3.320906 1_555
Al81 Ti4 2.719384 1_655
Al81 Lu8 3.070724 1_555
Al81 Lu2 3.320906 1_655
Al82 Ti2 2.719384 1_555
Al82 Al85 3.039523 1_555
Al82 Lu4 3.070724 1_655
Al82 Lu6 3.320906 1_555
Al83 Ti3 2.719384 1_565
Al83 Al84 3.039523 1_555
Al83 Lu7 3.070724 1_555
Al83 Lu3 3.320906 1_565
Al84 Ti3 2.719384 1_565
Al84 Lu5 3.070724 1_555
Al84 Lu1 3.320906 1_565
Al85 Ti2 2.719384 1_555
Al85 Lu2 3.070724 1_655
Al85 Lu0 3.320906 1_555
