# generated using pymatgen
data_LiCuP4(RuO7)2
_symmetry_space_group_name_H-M   'P 1'
_cell_length_a   4.94709175
_cell_length_b   6.82176858
_cell_length_c   8.44187178
_cell_angle_alpha   93.20886741
_cell_angle_beta   92.01202503
_cell_angle_gamma   107.10932110
_symmetry_Int_Tables_number   1
_chemical_formula_structural   LiCuP4(RuO7)2
_chemical_formula_sum   'Li1 Cu1 P4 Ru2 O14'
_cell_volume   271.46325002
_cell_formula_units_Z   1
loop_
 _symmetry_equiv_pos_site_id
 _symmetry_equiv_pos_as_xyz
  1  'x, y, z'
loop_
 _atom_site_type_symbol
 _atom_site_label
 _atom_site_symmetry_multiplicity
 _atom_site_fract_x
 _atom_site_fract_y
 _atom_site_fract_z
 _atom_site_occupancy
  Li  Li0  1  0.46241400  0.20431100  0.82813100  1
  Cu  Cu0  1  0.98525100  0.00430900  0.48807200  1
  P  P0  1  0.39779300  0.75556600  0.80783300  1
  P  P1  1  0.61176900  0.24916300  0.19154200  1
  P  P2  1  0.02361100  0.65796700  0.26851800  1
  P  P3  1  0.96993500  0.34671700  0.72799900  1
  Ru  Ru0  1  0.49554300  0.50304500  0.49642000  1
  Ru  Ru1  1  0.99541400  0.99915200  0.00403200  1
  O  O0  1  0.13988700  0.83207000  0.16282400  1
  O  O1  1  0.85626700  0.17557100  0.83914000  1
  O  O2  1  0.49060500  0.75540800  0.63591100  1
  O  O3  1  0.50476300  0.24861300  0.36037700  1
  O  O4  1  0.19322100  0.52636700  0.83495700  1
  O  O5  1  0.79781300  0.47941200  0.15939300  1
  O  O6  1  0.22077500  0.90767000  0.82373600  1
  O  O7  1  0.80087100  0.10647700  0.18146100  1
  O  O8  1  0.25495000  0.57085700  0.32510100  1
  O  O9  1  0.71459200  0.41422600  0.67678900  1
  O  O10  1  0.63067900  0.77829000  0.93696500  1
  O  O11  1  0.37993400  0.21549200  0.05640600  1
  O  O12  1  0.13835900  0.28017600  0.59237800  1
  O  O13  1  0.85222000  0.72062400  0.40670400  1
loop_
_geom_bond_atom_site_label_1
_geom_bond_atom_site_label_2
_geom_bond_distance
_geom_bond_site_symmetry_2
Li0 O11 1.985692 1_556
Li0 O1 2.014333 1_555
Li0 O6 2.022507 1_545
Li0 O9 2.122464 1_555
Cu0 O13 1.928764 1_545
Cu0 O12 1.954369 1_655
O0 P2 1.513376 1_555
O0 Ru1 2.046950 1_455
O1 P3 1.527412 1_555
O1 Ru1 2.113674 1_546
O2 P0 1.537571 1_555
O2 Ru0 2.037362 1_555
O3 P1 1.537559 1_555
O3 Ru0 2.039781 1_555
O4 P3 1.595911 1_455
O4 P0 1.626843 1_555
O5 P2 1.606749 1_655
O5 P1 1.613235 1_555
O6 P0 1.545600 1_555
O6 Ru1 2.090744 1_456
O7 P1 1.536869 1_555
O7 Ru1 2.024562 1_545
O8 P2 1.511495 1_555
O8 Ru0 2.000075 1_555
O9 P3 1.523451 1_555
O9 Ru0 2.057584 1_555
O10 P0 1.525629 1_555
O10 Ru1 2.019789 1_556
O11 P1 1.547053 1_555
O11 Ru1 2.051379 1_445
O12 P3 1.562822 1_455
O12 Ru0 2.178931 1_555
O13 P2 1.577757 1_655
O13 Ru0 2.137491 1_555
