# generated using pymatgen
data_MgH6CO6
_symmetry_space_group_name_H-M   'P 1'
_cell_length_a   5.43995600
_cell_length_b   7.79627600
_cell_length_c   14.39777404
_cell_angle_alpha   57.70546763
_cell_angle_beta   90.00000000
_cell_angle_gamma   90.00000000
_symmetry_Int_Tables_number   1
_chemical_formula_structural   MgH6CO6
_chemical_formula_sum   'Mg4 H24 C4 O24'
_cell_volume   516.17314088
_cell_formula_units_Z   4
loop_
 _symmetry_equiv_pos_site_id
 _symmetry_equiv_pos_as_xyz
  1  'x, y, z'
loop_
 _atom_site_type_symbol
 _atom_site_label
 _atom_site_symmetry_multiplicity
 _atom_site_fract_x
 _atom_site_fract_y
 _atom_site_fract_z
 _atom_site_occupancy
  Mg  Mg0  1  0.91103900  0.40171600  0.85080900  1
  Mg  Mg1  1  0.58896100  0.40171600  0.35080900  1
  Mg  Mg2  1  0.08896100  0.59828400  0.14919100  1
  Mg  Mg3  1  0.41103900  0.59828400  0.64919100  1
  H  H0  1  0.82902200  0.67856500  0.90876200  1
  H  H1  1  0.67097800  0.67856500  0.40876200  1
  H  H2  1  0.17097800  0.32143500  0.09123800  1
  H  H3  1  0.32902200  0.32143500  0.59123800  1
  H  H4  1  0.06371300  0.74543100  0.83662100  1
  H  H5  1  0.43628700  0.74543100  0.33662100  1
  H  H6  1  0.93628700  0.25456900  0.16337900  1
  H  H7  1  0.56371300  0.25456900  0.66337900  1
  H  H8  1  0.84665300  0.99771800  0.91426300  1
  H  H9  1  0.65334700  0.99771800  0.41426300  1
  H  H10  1  0.15334700  0.00228200  0.08573700  1
  H  H11  1  0.34665300  0.00228200  0.58573700  1
  H  H12  1  0.88810000  0.13367500  0.78492200  1
  H  H13  1  0.61190000  0.13367500  0.28492200  1
  H  H14  1  0.11190000  0.86632500  0.21507800  1
  H  H15  1  0.38810000  0.86632500  0.71507800  1
  H  H16  1  0.69850500  0.98530600  0.18206700  1
  H  H17  1  0.80149500  0.98530600  0.68206700  1
  H  H18  1  0.30149500  0.01469400  0.81793300  1
  H  H19  1  0.19850500  0.01469400  0.31793300  1
  H  H20  1  0.61444200  0.19937900  0.08264700  1
  H  H21  1  0.88555800  0.19937900  0.58264700  1
  H  H22  1  0.38555800  0.80062100  0.91735300  1
  H  H23  1  0.11444200  0.80062100  0.41735300  1
  C  C0  1  0.86205200  0.65442400  0.58941800  1
  C  C1  1  0.63794800  0.65442400  0.08941800  1
  C  C2  1  0.13794800  0.34557600  0.41058200  1
  C  C3  1  0.36205200  0.34557600  0.91058200  1
  O  O0  1  0.90431200  0.67499000  0.84706000  1
  O  O1  1  0.59568800  0.67499000  0.34706000  1
  O  O2  1  0.09568800  0.32501000  0.15294000  1
  O  O3  1  0.40431200  0.32501000  0.65294000  1
  O  O4  1  0.90699800  0.13134700  0.85386000  1
  O  O5  1  0.59300200  0.13134700  0.35386000  1
  O  O6  1  0.09300200  0.86865300  0.14614000  1
  O  O7  1  0.40699800  0.86865300  0.64614000  1
  O  O8  1  0.58874000  0.32050300  0.94041700  1
  O  O9  1  0.91126000  0.32050300  0.44041700  1
  O  O10  1  0.41126000  0.67949700  0.05958300  1
  O  O11  1  0.08874000  0.67949700  0.55958300  1
  O  O12  1  0.79384100  0.55003100  0.69220100  1
  O  O13  1  0.70615900  0.55003100  0.19220100  1
  O  O14  1  0.20615900  0.44996900  0.30779900  1
  O  O15  1  0.29384100  0.44996900  0.80779900  1
  O  O16  1  0.18362700  0.26966000  0.98208100  1
  O  O17  1  0.31637300  0.26966000  0.48208100  1
  O  O18  1  0.81637300  0.73034000  0.01791900  1
  O  O19  1  0.68362700  0.73034000  0.51791900  1
  O  O20  1  0.65731000  0.12312600  0.16260700  1
  O  O21  1  0.84269000  0.12312600  0.66260700  1
  O  O22  1  0.34269000  0.87687400  0.83739300  1
  O  O23  1  0.15731000  0.87687400  0.33739300  1
loop_
_geom_bond_atom_site_label_1
_geom_bond_atom_site_label_2
_geom_bond_distance
_geom_bond_site_symmetry_2
Mg0 O12 2.033918 1_555
Mg0 O8 2.065566 1_555
Mg0 O4 2.084849 1_555
Mg0 O0 2.102495 1_555
Mg0 O15 2.147688 1_655
Mg0 O16 2.179864 1_655
Mg1 O13 2.033918 1_555
Mg1 O9 2.065566 1_555
Mg1 O5 2.084849 1_555
Mg1 O1 2.102495 1_555
Mg1 O14 2.147688 1_555
Mg1 O17 2.179864 1_555
Mg2 O14 2.033918 1_555
Mg2 O10 2.065566 1_555
Mg2 O6 2.084849 1_555
Mg2 O2 2.102495 1_555
Mg2 O13 2.147688 1_455
Mg2 O18 2.179864 1_455
Mg3 O15 2.033918 1_555
Mg3 O11 2.065566 1_555
Mg3 O7 2.084849 1_555
Mg3 O3 2.102495 1_555
Mg3 O12 2.147688 1_555
Mg3 O19 2.179864 1_555
H0 O0 0.992063 1_555
H1 O1 0.992063 1_555
H2 O2 0.992063 1_555
H3 O3 0.992063 1_555
H4 O0 0.993936 1_455
H5 O1 0.993936 1_555
H6 O2 0.993936 1_655
H7 O3 0.993936 1_555
H8 O4 0.990617 1_565
H9 O5 0.990617 1_565
H10 O6 0.990617 1_545
H11 O7 0.990617 1_545
H12 O4 0.988338 1_555
H13 O5 0.988338 1_555
H14 O6 0.988338 1_555
H15 O7 0.988338 1_555
H16 O20 0.980587 1_565
H17 O21 0.980587 1_565
H18 O22 0.980587 1_545
H19 O23 0.980587 1_545
H20 O20 1.000926 1_555
H21 O21 1.000926 1_555
H22 O22 1.000926 1_555
H23 O23 1.000926 1_555
C0 O11 1.285971 1_655
C0 O19 1.304259 1_555
C0 O12 1.305014 1_555
C1 O10 1.285971 1_555
C1 O18 1.304259 1_555
C1 O13 1.305014 1_555
C2 O9 1.285971 1_455
C2 O17 1.304259 1_555
C2 O14 1.305014 1_555
C3 O8 1.285971 1_555
C3 O16 1.304259 1_555
C3 O15 1.305014 1_555
