# generated using pymatgen
data_NaCaLaSeO6
_symmetry_space_group_name_H-M   'P 1'
_cell_length_a   5.66500588
_cell_length_b   5.66500588
_cell_length_c   5.66500588
_cell_angle_alpha   60.00000000
_cell_angle_beta   60.00000000
_cell_angle_gamma   60.00000000
_symmetry_Int_Tables_number   1
_chemical_formula_structural   NaCaLaSeO6
_chemical_formula_sum   'Na1 Ca1 La1 Se1 O6'
_cell_volume   128.55414849
_cell_formula_units_Z   1
loop_
 _symmetry_equiv_pos_site_id
 _symmetry_equiv_pos_as_xyz
  1  'x, y, z'
loop_
 _atom_site_type_symbol
 _atom_site_label
 _atom_site_symmetry_multiplicity
 _atom_site_fract_x
 _atom_site_fract_y
 _atom_site_fract_z
 _atom_site_occupancy
  Na  Na0  1  0.75000000  0.75000000  0.75000000  1
  Ca  Ca0  1  -0.00000000  0.00000000  0.00000000  1
  La  La0  1  0.25000000  0.25000000  0.25000000  1
  Se  Se0  1  0.50000000  0.50000000  0.50000000  1
  O  O0  1  0.72544327  0.27455673  0.27455673  1
  O  O1  1  0.27455673  0.72544327  0.72544327  1
  O  O2  1  0.72544327  0.27455673  0.72544327  1
  O  O3  1  0.27455673  0.72544327  0.27455673  1
  O  O4  1  0.72544327  0.72544327  0.27455673  1
  O  O5  1  0.27455673  0.27455673  0.72544327  1
loop_
_geom_bond_atom_site_label_1
_geom_bond_atom_site_label_2
_geom_bond_distance
_geom_bond_site_symmetry_2
Na0 O5 2.839327 1_655
Na0 O5 2.839327 1_565
Na0 O2 2.839327 1_555
Na0 O3 2.839327 1_556
Na0 O2 2.839327 1_565
Na0 O0 2.839327 1_556
Na0 O4 2.839327 1_555
Na0 O1 2.839327 1_555
Na0 O4 2.839327 1_556
Na0 O3 2.839327 1_655
Na0 O0 2.839327 1_565
Na0 O1 2.839327 1_655
Ca0 O3 2.199619 1_545
Ca0 O5 2.199619 1_554
Ca0 O2 2.199619 1_454
Ca0 O1 2.199619 1_544
Ca0 O0 2.199619 1_455
Ca0 O4 2.199619 1_445
La0 O5 2.839327 1_554
La0 O1 2.839327 1_545
La0 O0 2.839327 1_455
La0 O4 2.839327 1_545
La0 O3 2.839327 1_555
La0 O0 2.839327 1_555
La0 O4 2.839327 1_455
La0 O1 2.839327 1_554
La0 O3 2.839327 1_545
La0 O2 2.839327 1_455
La0 O2 2.839327 1_554
La0 O5 2.839327 1_555
O0 Se0 1.806145 1_555
O1 Se0 1.806145 1_555
O2 Se0 1.806145 1_555
O3 Se0 1.806145 1_555
O4 Se0 1.806145 1_555
O5 Se0 1.806145 1_555
