# generated using pymatgen
data_Ca3Ta2Mn2O12
_symmetry_space_group_name_H-M   'P 1'
_cell_length_a   7.76813500
_cell_length_b   5.32129300
_cell_length_c   5.51328397
_cell_angle_alpha   89.76099686
_cell_angle_beta   90.00000000
_cell_angle_gamma   90.00000000
_symmetry_Int_Tables_number   1
_chemical_formula_structural   Ca3Ta2Mn2O12
_chemical_formula_sum   'Ca3 Ta2 Mn2 O12'
_cell_volume   227.89800340
_cell_formula_units_Z   1
loop_
 _symmetry_equiv_pos_site_id
 _symmetry_equiv_pos_as_xyz
  1  'x, y, z'
loop_
 _atom_site_type_symbol
 _atom_site_label
 _atom_site_symmetry_multiplicity
 _atom_site_fract_x
 _atom_site_fract_y
 _atom_site_fract_z
 _atom_site_occupancy
  Ca  Ca0  1  0.50000000  0.98500700  0.96342500  1
  Ca  Ca1  1  0.00000000  0.48598200  0.55803000  1
  Ca  Ca2  1  0.00000000  0.01267100  0.03666500  1
  Ta  Ta0  1  0.25749500  0.99529800  0.49780600  1
  Ta  Ta1  1  0.74250500  0.99529800  0.49780600  1
  Mn  Mn0  1  0.25572600  0.49771200  0.00576800  1
  Mn  Mn1  1  0.74427400  0.49771200  0.00576800  1
  O  O0  1  0.78958800  0.21507200  0.79096900  1
  O  O1  1  0.71815700  0.71586500  0.72481500  1
  O  O2  1  0.71832300  0.79491000  0.20195000  1
  O  O3  1  0.20076800  0.28678900  0.28106100  1
  O  O4  1  0.00000000  0.92568400  0.48673200  1
  O  O5  1  0.79923200  0.28678900  0.28106100  1
  O  O6  1  0.28184300  0.71586500  0.72481500  1
  O  O7  1  0.21041200  0.21507200  0.79096900  1
  O  O8  1  0.50000000  0.41585100  0.02031900  1
  O  O9  1  0.28167700  0.79491000  0.20195000  1
  O  O10  1  0.00000000  0.57792800  0.97820300  1
  O  O11  1  0.50000000  0.07961000  0.51819800  1
loop_
_geom_bond_atom_site_label_1
_geom_bond_atom_site_label_2
_geom_bond_distance
_geom_bond_site_symmetry_2
Ca0 O8 2.315302 1_566
Ca0 O2 2.370194 1_556
Ca0 O9 2.370194 1_556
Ca0 O11 2.503694 1_565
Ca0 O1 2.582516 1_555
Ca0 O6 2.582516 1_555
Ca0 O0 2.730127 1_565
Ca0 O7 2.730127 1_565
Ca1 O10 2.369635 1_555
Ca1 O4 2.370955 1_555
Ca1 O3 2.429221 1_555
Ca1 O5 2.429221 1_455
Ca1 O7 2.526595 1_555
Ca1 O0 2.526595 1_455
Ca1 O6 2.672971 1_555
Ca1 O1 2.672971 1_455
Ca2 O10 2.337072 1_544
Ca2 O7 2.377892 1_554
Ca2 O0 2.377892 1_454
Ca2 O4 2.522253 1_545
Ca2 O3 2.528236 1_555
Ca2 O5 2.528236 1_455
Ca2 O9 2.636692 1_545
Ca2 O2 2.636692 1_445
Mn0 O9 1.930247 1_555
Mn0 O3 1.931687 1_555
Mn0 O6 1.942438 1_554
Mn0 O8 1.948488 1_555
Mn0 O7 1.950194 1_554
Mn0 O10 2.037399 1_554
Mn1 O2 1.930247 1_555
Mn1 O5 1.931687 1_555
Mn1 O1 1.942438 1_554
Mn1 O8 1.948488 1_555
Mn1 O0 1.950194 1_554
Mn1 O10 2.037399 1_654
O0 Ta1 2.032148 1_545
O1 Ta1 1.948761 1_555
O2 Ta1 1.961493 1_555
O3 Ta0 2.003155 1_545
O4 Ta0 2.035231 1_555
O4 Ta1 2.035231 1_455
O5 Ta1 2.003155 1_545
O6 Ta0 1.948761 1_555
O7 Ta0 2.032148 1_545
O9 Ta0 1.961493 1_555
O11 Ta1 1.939869 1_545
O11 Ta0 1.939869 1_545
