# generated using pymatgen
data_Gd3Sc2S7
_symmetry_space_group_name_H-M   'P 1'
_cell_length_a   6.52182793
_cell_length_b   6.52182793
_cell_length_c   11.45052235
_cell_angle_alpha   75.23232133
_cell_angle_beta   75.23232133
_cell_angle_gamma   33.63602299
_symmetry_Int_Tables_number   1
_chemical_formula_structural   Gd3Sc2S7
_chemical_formula_sum   'Gd3 Sc2 S7'
_cell_volume   260.03751363
_cell_formula_units_Z   1
loop_
 _symmetry_equiv_pos_site_id
 _symmetry_equiv_pos_as_xyz
  1  'x, y, z'
loop_
 _atom_site_type_symbol
 _atom_site_label
 _atom_site_symmetry_multiplicity
 _atom_site_fract_x
 _atom_site_fract_y
 _atom_site_fract_z
 _atom_site_occupancy
  Gd  Gd0  1  0.30514072  0.30514072  0.79665167  1
  Gd  Gd1  1  0.69485928  0.69485928  0.20334833  1
  Gd  Gd2  1  0.00000000  0.00000000  0.00000000  1
  Sc  Sc0  1  0.11181857  0.11181857  0.56979476  1
  Sc  Sc1  1  0.88818143  0.88818143  0.43020524  1
  S  S0  1  0.26477576  0.26477576  0.36358249  1
  S  S1  1  0.73522424  0.73522424  0.63641751  1
  S  S2  1  0.66296154  0.66296154  0.94530565  1
  S  S3  1  0.33703846  0.33703846  0.05469435  1
  S  S4  1  0.96963322  0.96963322  0.77476213  1
  S  S5  1  0.03036678  0.03036678  0.22523787  1
  S  S6  1  0.50000000  0.50000000  0.50000000  1
loop_
_geom_bond_atom_site_label_1
_geom_bond_atom_site_label_2
_geom_bond_distance
_geom_bond_site_symmetry_2
Gd0 S4 2.750909 1_455
Gd0 S4 2.750909 1_545
Gd0 S2 2.828452 1_545
Gd0 S2 2.828452 1_455
Gd0 S1 2.922692 1_455
Gd0 S1 2.922692 1_545
Gd0 S3 3.084758 1_556
Gd1 S5 2.750909 1_655
Gd1 S5 2.750909 1_565
Gd1 S3 2.828452 1_565
Gd1 S3 2.828452 1_655
Gd1 S0 2.922692 1_565
Gd1 S0 2.922692 1_655
Gd1 S2 3.084758 1_554
Gd2 S5 2.704859 1_555
Gd2 S4 2.704859 1_444
Gd2 S3 2.722912 1_455
Gd2 S2 2.722912 1_544
Gd2 S3 2.722912 1_545
Gd2 S2 2.722912 1_454
S0 Sc0 2.611720 1_555
S0 Sc1 2.672596 1_545
S0 Sc1 2.672596 1_455
S1 Sc1 2.611720 1_555
S1 Sc0 2.672596 1_565
S1 Sc0 2.672596 1_655
S4 Sc0 2.537904 1_665
S5 Sc1 2.537904 1_445
S6 Sc1 2.596696 1_455
S6 Sc1 2.596696 1_545
S6 Sc0 2.596696 1_565
S6 Sc0 2.596696 1_655
