# generated using pymatgen
data_Li4MnCo2O7
_symmetry_space_group_name_H-M   'P 1'
_cell_length_a   5.03553500
_cell_length_b   6.59198399
_cell_length_c   7.68877011
_cell_angle_alpha   85.93430193
_cell_angle_beta   76.99287163
_cell_angle_gamma   82.20679790
_symmetry_Int_Tables_number   1
_chemical_formula_structural   Li4MnCo2O7
_chemical_formula_sum   'Li8 Mn2 Co4 O14'
_cell_volume   246.16141836
_cell_formula_units_Z   2
loop_
 _symmetry_equiv_pos_site_id
 _symmetry_equiv_pos_as_xyz
  1  'x, y, z'
loop_
 _atom_site_type_symbol
 _atom_site_label
 _atom_site_symmetry_multiplicity
 _atom_site_fract_x
 _atom_site_fract_y
 _atom_site_fract_z
 _atom_site_occupancy
  Li  Li0  1  0.79038100  0.43443200  0.92418900  1
  Li  Li1  1  0.93171700  0.13889200  0.64240200  1
  Li  Li2  1  0.64601000  0.71518000  0.21396000  1
  Li  Li3  1  0.49196100  0.98995900  0.50477200  1
  Li  Li4  1  0.35322900  0.28876900  0.78423900  1
  Li  Li5  1  0.21632900  0.57448800  0.06445500  1
  Li  Li6  1  0.07307700  0.85269400  0.36526900  1
  Li  Li7  1  0.14236300  0.71605300  0.71550400  1
  Mn  Mn0  1  0.00415800  0.99257500  0.99316400  1
  Mn  Mn1  1  0.71044300  0.57976900  0.57591500  1
  Co  Co0  1  0.28125200  0.43787700  0.43709700  1
  Co  Co1  1  0.42718500  0.14114400  0.14532600  1
  Co  Co2  1  0.57113200  0.85522500  0.85548700  1
  Co  Co3  1  0.85460600  0.28754900  0.28641300  1
  O  O0  1  0.68266500  0.11989000  0.90394600  1
  O  O1  1  0.79925700  0.84273300  0.61724200  1
  O  O2  1  0.53492200  0.41578200  0.19044300  1
  O  O3  1  0.41316900  0.70049000  0.46816200  1
  O  O4  1  0.25331400  0.99425300  0.76867200  1
  O  O5  1  0.10203200  0.26813800  0.03860800  1
  O  O6  1  0.95661600  0.56612600  0.33483100  1
  O  O7  1  0.87968800  0.73910200  0.96142300  1
  O  O8  1  0.02909200  0.43286500  0.66061600  1
  O  O9  1  0.76011900  0.00989200  0.23510200  1
  O  O10  1  0.61274100  0.30614900  0.53428300  1
  O  O11  1  0.48909700  0.58642800  0.81194900  1
  O  O12  1  0.31225300  0.86642300  0.08899900  1
  O  O13  1  0.18119200  0.14712300  0.37753300  1
loop_
_geom_bond_atom_site_label_1
_geom_bond_atom_site_label_2
_geom_bond_distance
_geom_bond_site_symmetry_2
Li0 O11 2.026039 1_555
Li0 O8 2.110679 1_655
Li0 O5 2.111064 1_656
Li0 O2 2.163917 1_556
Li0 O7 2.168458 1_555
Li0 O0 2.237502 1_555
Li1 O8 2.083854 1_655
Li1 O10 2.115995 1_555
Li1 O0 2.122274 1_555
Li1 O13 2.140017 1_655
Li1 O4 2.152180 1_645
Li1 O1 2.181395 1_545
Li2 O7 2.039140 1_554
Li2 O3 2.043662 1_555
Li2 O6 2.093677 1_555
Li2 O9 2.126118 1_565
Li2 O2 2.153219 1_555
Li2 O12 2.208692 1_555
Li3 O1 2.039659 1_555
Li3 O3 2.051717 1_555
Li3 O4 2.112661 1_555
Li3 O13 2.141275 1_565
Li3 O9 2.211089 1_565
Li3 O10 2.288829 1_565
Li4 O10 2.072003 1_555
Li4 O5 2.083007 1_556
Li4 O4 2.088451 1_545
Li4 O8 2.149349 1_555
Li4 O11 2.202845 1_555
Li4 O0 2.208967 1_555
Li5 O12 2.077735 1_555
Li5 O11 2.114078 1_554
Li5 O7 2.159261 1_454
Li5 O2 2.169627 1_555
Li5 O6 2.194197 1_455
Li5 O5 2.207385 1_555
Li6 O6 2.095736 1_455
Li6 O13 2.099495 1_565
Li6 O1 2.112559 1_455
Li6 O3 2.143987 1_555
Li6 O9 2.163097 1_465
Li6 O12 2.195799 1_555
Li7 O7 2.051402 1_455
Li7 O3 2.075837 1_555
Li7 O4 2.080719 1_555
Li7 O1 2.088065 1_455
Li7 O11 2.101637 1_555
Li7 O8 2.120636 1_555
Mn0 O4 1.892027 1_555
Mn0 O7 1.911798 1_455
Mn0 O12 1.928531 1_556
Mn0 O0 1.960998 1_465
Mn0 O9 1.986598 1_466
Mn0 O5 2.018661 1_566
Mn1 O11 1.904015 1_555
Mn1 O1 1.912632 1_555
Mn1 O3 1.924110 1_555
Mn1 O8 1.973854 1_655
Mn1 O6 1.984886 1_555
Mn1 O10 1.997812 1_555
Co0 O8 1.894187 1_555
Co0 O3 1.984206 1_555
Co0 O6 2.028506 1_455
Co0 O2 2.036591 1_555
Co0 O10 2.043301 1_555
Co0 O13 2.151135 1_555
Co1 O13 1.929965 1_555
Co1 O0 2.008060 1_554
Co1 O9 2.019547 1_555
Co1 O2 2.032823 1_555
Co1 O5 2.047077 1_555
Co1 O12 2.076137 1_545
Co2 O1 1.931427 1_555
Co2 O11 1.940931 1_555
Co2 O7 1.955055 1_555
Co2 O4 1.960373 1_555
Co2 O12 1.966589 1_556
Co2 O0 1.987516 1_565
Co3 O2 1.981828 1_555
Co3 O13 2.016448 1_655
Co3 O10 2.019477 1_555
Co3 O5 2.030190 1_655
Co3 O9 2.038411 1_555
Co3 O6 2.052697 1_555
