# generated using pymatgen
data_Mg14MnAl
_symmetry_space_group_name_H-M   'P 1'
_cell_length_a   6.24041685
_cell_length_b   6.22100507
_cell_length_c   10.21692436
_cell_angle_alpha   90.00000000
_cell_angle_beta   90.00000000
_cell_angle_gamma   119.89715880
_symmetry_Int_Tables_number   1
_chemical_formula_structural   Mg14MnAl
_chemical_formula_sum   'Mg14 Mn1 Al1'
_cell_volume   343.85400884
_cell_formula_units_Z   1
loop_
 _symmetry_equiv_pos_site_id
 _symmetry_equiv_pos_as_xyz
  1  'x, y, z'
loop_
 _atom_site_type_symbol
 _atom_site_label
 _atom_site_symmetry_multiplicity
 _atom_site_fract_x
 _atom_site_fract_y
 _atom_site_fract_z
 _atom_site_occupancy
  Mg  Mg0  1  0.16714169  0.33357035  0.62500000  1
  Mg  Mg1  1  0.16762573  0.83381236  0.62500000  1
  Mg  Mg2  1  0.66882706  0.33505775  0.12500000  1
  Mg  Mg3  1  0.66566602  0.33241630  0.62500000  1
  Mg  Mg4  1  0.66882706  0.83376831  0.12500000  1
  Mg  Mg5  1  0.66566602  0.83324872  0.62500000  1
  Mg  Mg6  1  0.32941223  0.16333202  0.36497033  1
  Mg  Mg7  1  0.32941223  0.16333202  0.88502967  1
  Mg  Mg8  1  0.32941223  0.66608121  0.36497033  1
  Mg  Mg9  1  0.32941223  0.66608121  0.88502967  1
  Mg  Mg10  1  0.83666493  0.16833297  0.37207304  1
  Mg  Mg11  1  0.83666493  0.16833297  0.87792696  1
  Mg  Mg12  1  0.83839604  0.66919852  0.37035060  1
  Mg  Mg13  1  0.83839604  0.66919852  0.87964940  1
  Mn  Mn0  1  0.16389564  0.83194732  0.12500000  1
  Al  Al0  1  0.16457991  0.33228946  0.12500000  1
loop_
_geom_bond_atom_site_label_1
_geom_bond_atom_site_label_2
_geom_bond_distance
_geom_bond_site_symmetry_2
Mg0 Mg1 3.110504 1_555
Mg0 Mg1 3.110504 1_545
Mg0 Mg5 3.114584 1_555
Mg0 Mg3 3.114584 1_555
Mg0 Mg5 3.125845 1_445
Mg0 Mg3 3.125845 1_455
Mg0 Mg10 3.142326 1_455
Mg0 Mg11 3.142326 1_455
Mg0 Mg6 3.205339 1_555
Mg0 Mg7 3.205339 1_555
Mg0 Mg8 3.205345 1_555
Mg0 Mg9 3.205345 1_555
Mg1 Mg3 3.109728 1_565
Mg1 Mg5 3.109728 1_555
Mg1 Mg3 3.130691 1_455
Mg1 Mg5 3.130692 1_455
Mg1 Mg12 3.152998 1_455
Mg1 Mg13 3.152998 1_455
Mg1 Mg9 3.196312 1_555
Mg1 Mg8 3.196312 1_555
Mg1 Mg6 3.196318 1_565
Mg1 Mg7 3.196318 1_565
Mg2 Mg6 3.063164 1_555
Mg2 Mg7 3.063164 1_554
Mg2 Mn0 3.095096 1_655
Mg2 Mg4 3.102481 1_555
Mg2 Mg4 3.118524 1_545
Mg2 Mn0 3.145351 1_545
Mg3 Mg5 3.105324 1_545
Mg3 Mg5 3.115681 1_555
Mg3 Mg6 3.219828 1_555
Mg3 Mg7 3.219828 1_555
Mg4 Mg8 3.063164 1_555
Mg4 Mg9 3.063164 1_554
Mg4 Mn0 3.095096 1_655
Mg4 Mn0 3.145351 1_555
Mg5 Mg8 3.219828 1_555
Mg5 Mg9 3.219828 1_555
Mg6 Mn0 3.034012 1_545
Mg6 Mg8 3.093400 1_545
Mg6 Mg8 3.127605 1_555
Mg7 Mn0 3.034012 1_546
Mg7 Mg9 3.093400 1_545
Mg7 Mg9 3.127605 1_555
Mg8 Mn0 3.034005 1_555
Mg9 Mn0 3.034005 1_556
Mg10 Mg8 3.091425 1_655
Mg10 Mg6 3.091425 1_655
Mg10 Mg2 3.102895 1_555
Mg10 Mg4 3.102901 1_545
Mg10 Mg12 3.110566 1_555
Mg10 Mg12 3.110566 1_545
Mg10 Mg8 3.150912 1_545
Mg10 Mg6 3.150912 1_555
Mg10 Mg3 3.153458 1_555
Mg10 Mg5 3.153464 1_545
Mg11 Mg9 3.091425 1_655
Mg11 Mg7 3.091425 1_655
Mg11 Mg2 3.102895 1_556
Mg11 Mg4 3.102901 1_546
Mg11 Mg13 3.110566 1_555
Mg11 Mg13 3.110566 1_545
Mg11 Mg9 3.150912 1_545
Mg11 Mg7 3.150912 1_555
Mg11 Mg3 3.153458 1_555
Mg11 Mg5 3.153464 1_545
Mg12 Mn0 3.063427 1_655
Mg12 Mg6 3.074349 1_665
Mg12 Mg8 3.074349 1_655
Mg12 Mg4 3.087323 1_555
Mg12 Mg2 3.087329 1_555
Mg12 Mg6 3.167126 1_555
Mg12 Mg8 3.167127 1_555
Mg12 Mg5 3.173182 1_555
Mg12 Mg3 3.173188 1_555
Mg13 Mn0 3.063427 1_656
Mg13 Mg7 3.074349 1_665
Mg13 Mg9 3.074349 1_655
Mg13 Mg4 3.087323 1_556
Mg13 Mg2 3.087329 1_556
Mg13 Mg7 3.167126 1_555
Mg13 Mg9 3.167127 1_555
Mg13 Mg5 3.173182 1_555
Mg13 Mg3 3.173188 1_555
Al0 Mg7 3.041672 1_554
Al0 Mg6 3.041672 1_555
Al0 Mg8 3.041679 1_555
Al0 Mg9 3.041679 1_554
Al0 Mg11 3.085339 1_454
Al0 Mg10 3.085339 1_455
Al0 Mg4 3.102324 1_445
Al0 Mg2 3.102324 1_455
Al0 Mn0 3.110505 1_555
Al0 Mn0 3.110505 1_545
Al0 Mg4 3.138164 1_555
Al0 Mg2 3.138164 1_555
