# generated using pymatgen
data_Ca2LaMn3O9
_symmetry_space_group_name_H-M   'P 1'
_cell_length_a   5.43580100
_cell_length_b   7.73036300
_cell_length_c   16.36513900
_cell_angle_alpha   90.00000000
_cell_angle_beta   90.00000000
_cell_angle_gamma   90.00000000
_symmetry_Int_Tables_number   1
_chemical_formula_structural   Ca2LaMn3O9
_chemical_formula_sum   'Ca8 La4 Mn12 O36'
_cell_volume   687.67484064
_cell_formula_units_Z   4
loop_
 _symmetry_equiv_pos_site_id
 _symmetry_equiv_pos_as_xyz
  1  'x, y, z'
loop_
 _atom_site_type_symbol
 _atom_site_label
 _atom_site_symmetry_multiplicity
 _atom_site_fract_x
 _atom_site_fract_y
 _atom_site_fract_z
 _atom_site_occupancy
  Ca  Ca0  1  0.51082900  0.75000000  0.51350700  1
  Ca  Ca1  1  0.50503700  0.75000000  0.17789200  1
  Ca  Ca2  1  0.99496300  0.75000000  0.67789200  1
  Ca  Ca3  1  0.98917100  0.75000000  0.01350700  1
  Ca  Ca4  1  0.49496300  0.25000000  0.82210800  1
  Ca  Ca5  1  0.48917100  0.25000000  0.48649300  1
  Ca  Ca6  1  0.01082900  0.25000000  0.98649300  1
  Ca  Ca7  1  0.00503700  0.25000000  0.32210800  1
  La  La0  1  0.50425700  0.75000000  0.84071900  1
  La  La1  1  0.99574300  0.75000000  0.34071900  1
  La  La2  1  0.49574300  0.25000000  0.15928100  1
  La  La3  1  0.00425700  0.25000000  0.65928100  1
  Mn  Mn0  1  0.00076500  0.00118800  0.83519500  1
  Mn  Mn1  1  0.00000000  0.00000000  0.50000000  1
  Mn  Mn2  1  0.99923500  0.99881200  0.16480500  1
  Mn  Mn3  1  0.50000000  0.50000000  0.00000000  1
  Mn  Mn4  1  0.50076500  0.50118800  0.66480500  1
  Mn  Mn5  1  0.49923500  0.49881200  0.33519500  1
  Mn  Mn6  1  0.00076500  0.49881200  0.83519500  1
  Mn  Mn7  1  0.00000000  0.50000000  0.50000000  1
  Mn  Mn8  1  0.99923500  0.50118800  0.16480500  1
  Mn  Mn9  1  0.50000000  0.00000000  0.00000000  1
  Mn  Mn10  1  0.50076500  0.99881200  0.66480500  1
  Mn  Mn11  1  0.49923500  0.00118800  0.33519500  1
  O  O0  1  0.41798800  0.75000000  0.99363500  1
  O  O1  1  0.42713100  0.75000000  0.66356200  1
  O  O2  1  0.43775400  0.75000000  0.32827600  1
  O  O3  1  0.06224600  0.75000000  0.82827600  1
  O  O4  1  0.08201200  0.75000000  0.49363500  1
  O  O5  1  0.07286900  0.75000000  0.16356200  1
  O  O6  1  0.56224600  0.25000000  0.67172400  1
  O  O7  1  0.57286900  0.25000000  0.33643800  1
  O  O8  1  0.58201200  0.25000000  0.00636500  1
  O  O9  1  0.92713100  0.25000000  0.83643800  1
  O  O10  1  0.91798800  0.25000000  0.50636500  1
  O  O11  1  0.93775400  0.25000000  0.17172400  1
  O  O12  1  0.78471200  0.95621900  0.92857500  1
  O  O13  1  0.79175000  0.96050600  0.59592600  1
  O  O14  1  0.77704800  0.96738900  0.25988200  1
  O  O15  1  0.72295200  0.53261100  0.75988200  1
  O  O16  1  0.71528800  0.54378100  0.42857500  1
  O  O17  1  0.70825000  0.53949400  0.09592600  1
  O  O18  1  0.22295200  0.46738900  0.74011800  1
  O  O19  1  0.20825000  0.46050600  0.40407400  1
  O  O20  1  0.21528800  0.45621900  0.07142500  1
  O  O21  1  0.29175000  0.03949400  0.90407400  1
  O  O22  1  0.28471200  0.04378100  0.57142500  1
  O  O23  1  0.27704800  0.03261100  0.24011800  1
  O  O24  1  0.22295200  0.03261100  0.74011800  1
  O  O25  1  0.20825000  0.03949400  0.40407400  1
  O  O26  1  0.21528800  0.04378100  0.07142500  1
  O  O27  1  0.29175000  0.46050600  0.90407400  1
  O  O28  1  0.28471200  0.45621900  0.57142500  1
  O  O29  1  0.27704800  0.46738900  0.24011800  1
  O  O30  1  0.78471200  0.54378100  0.92857500  1
  O  O31  1  0.79175000  0.53949400  0.59592600  1
  O  O32  1  0.77704800  0.53261100  0.25988200  1
  O  O33  1  0.72295200  0.96738900  0.75988200  1
  O  O34  1  0.71528800  0.95621900  0.42857500  1
  O  O35  1  0.70825000  0.96050600  0.09592600  1
loop_
_geom_bond_atom_site_label_1
_geom_bond_atom_site_label_2
_geom_bond_distance
_geom_bond_site_symmetry_2
Ca0 O4 2.353540 1_555
Ca0 O34 2.389226 1_555
Ca0 O16 2.389226 1_555
Ca0 O1 2.497461 1_555
Ca0 O13 2.607517 1_555
Ca0 O31 2.607517 1_555
Ca0 O28 2.750771 1_555
Ca0 O22 2.750771 1_565
Ca1 O5 2.360856 1_555
Ca1 O35 2.380667 1_555
Ca1 O17 2.380667 1_555
Ca1 O2 2.488083 1_555
Ca1 O14 2.609729 1_555
Ca1 O32 2.609729 1_555
Ca1 O23 2.710301 1_565
Ca1 O29 2.710301 1_555
Ca2 O1 2.360856 1_655
Ca2 O31 2.380667 1_555
Ca2 O13 2.380667 1_555
Ca2 O3 2.488083 1_655
Ca2 O33 2.609729 1_555
Ca2 O15 2.609729 1_555
Ca2 O18 2.710301 1_655
Ca2 O24 2.710301 1_665
Ca3 O0 2.353540 1_654
Ca3 O12 2.389226 1_554
Ca3 O30 2.389226 1_554
Ca3 O5 2.497461 1_655
Ca3 O35 2.607517 1_555
Ca3 O17 2.607517 1_555
Ca3 O20 2.750771 1_655
Ca3 O26 2.750771 1_665
Ca4 O9 2.360856 1_555
Ca4 O27 2.380667 1_555
Ca4 O21 2.380667 1_555
Ca4 O6 2.488083 1_555
Ca4 O24 2.609729 1_555
Ca4 O18 2.609729 1_555
Ca4 O15 2.710301 1_555
Ca4 O33 2.710301 1_545
Ca5 O10 2.353540 1_555
Ca5 O28 2.389226 1_555
Ca5 O22 2.389226 1_555
Ca5 O7 2.497461 1_555
Ca5 O19 2.607517 1_555
Ca5 O25 2.607517 1_555
Ca5 O16 2.750771 1_555
Ca5 O34 2.750771 1_545
Ca6 O8 2.353540 1_456
Ca6 O26 2.389226 1_556
Ca6 O20 2.389226 1_556
Ca6 O9 2.497461 1_455
Ca6 O27 2.607517 1_555
Ca6 O21 2.607517 1_555
Ca6 O30 2.750771 1_455
Ca6 O12 2.750771 1_445
Ca7 O7 2.360856 1_455
Ca7 O19 2.380667 1_555
Ca7 O25 2.380667 1_555
Ca7 O11 2.488083 1_455
Ca7 O23 2.609729 1_555
Ca7 O29 2.609729 1_555
Ca7 O32 2.710301 1_455
Ca7 O14 2.710301 1_445
La0 O3 2.411297 1_555
La0 O33 2.446908 1_555
La0 O15 2.446908 1_555
La0 O0 2.546050 1_555
La0 O12 2.632983 1_555
La0 O30 2.632983 1_555
La0 O21 2.723511 1_565
La0 O27 2.723511 1_555
La0 O1 2.929355 1_555
La0 O3 3.039945 1_655
La0 O24 3.133930 1_565
La0 O18 3.133930 1_555
La1 O2 2.411297 1_655
La1 O14 2.446908 1_555
La1 O32 2.446908 1_555
La1 O4 2.546050 1_655
La1 O34 2.632983 1_555
La1 O16 2.632983 1_555
La1 O25 2.723511 1_665
La1 O19 2.723511 1_655
La1 O5 2.929355 1_655
La1 O2 3.039945 1_555
La1 O23 3.133930 1_665
La1 O29 3.133930 1_655
La2 O11 2.411297 1_555
La2 O23 2.446908 1_555
La2 O29 2.446908 1_555
La2 O8 2.546050 1_555
La2 O26 2.632983 1_555
La2 O20 2.632983 1_555
La2 O17 2.723511 1_555
La2 O35 2.723511 1_545
La2 O7 2.929355 1_555
La2 O11 3.039945 1_455
La2 O32 3.133930 1_555
La2 O14 3.133930 1_545
La3 O6 2.411297 1_455
La3 O18 2.446908 1_555
La3 O24 2.446908 1_555
La3 O10 2.546050 1_455
La3 O28 2.632983 1_555
La3 O22 2.632983 1_555
La3 O13 2.723511 1_445
La3 O31 2.723511 1_455
La3 O9 2.929355 1_455
La3 O6 3.039945 1_555
La3 O15 3.133930 1_455
La3 O33 3.133930 1_445
Mn0 O12 1.958426 1_445
Mn0 O9 1.964718 1_455
Mn0 O21 1.964736 1_555
Mn0 O33 1.966686 1_445
Mn0 O3 1.973575 1_545
Mn0 O24 1.984610 1_555
Mn1 O13 1.959350 1_445
Mn1 O25 1.959350 1_555
Mn1 O22 1.968758 1_555
Mn1 O34 1.968758 1_445
Mn1 O4 1.986075 1_545
Mn1 O10 1.986075 1_455
Mn2 O26 1.958426 1_665
Mn2 O5 1.964718 1_655
Mn2 O35 1.964736 1_555
Mn2 O23 1.966686 1_665
Mn2 O11 1.973575 1_565
Mn2 O14 1.984610 1_555
Mn3 O17 1.959350 1_555
Mn3 O27 1.959350 1_554
Mn3 O20 1.968758 1_555
Mn3 O30 1.968758 1_554
Mn3 O8 1.986075 1_555
Mn3 O0 1.986075 1_554
Mn4 O28 1.958426 1_555
Mn4 O1 1.964718 1_555
Mn4 O31 1.964736 1_555
Mn4 O18 1.966686 1_555
Mn4 O6 1.973575 1_555
Mn4 O15 1.984610 1_555
Mn5 O16 1.958426 1_555
Mn5 O7 1.964718 1_555
Mn5 O19 1.964736 1_555
Mn5 O32 1.966686 1_555
Mn5 O2 1.973575 1_555
Mn5 O29 1.984610 1_555
Mn6 O30 1.958426 1_455
Mn6 O9 1.964718 1_455
Mn6 O27 1.964736 1_555
Mn6 O15 1.966686 1_455
Mn6 O3 1.973575 1_555
Mn6 O18 1.984610 1_555
Mn7 O31 1.959350 1_455
Mn7 O19 1.959350 1_555
Mn7 O28 1.968758 1_555
Mn7 O16 1.968758 1_455
Mn7 O4 1.986075 1_555
Mn7 O10 1.986075 1_455
Mn8 O20 1.958426 1_655
Mn8 O5 1.964718 1_655
Mn8 O17 1.964736 1_555
Mn8 O29 1.966686 1_655
Mn8 O11 1.973575 1_555
Mn8 O32 1.984610 1_555
Mn9 O35 1.959350 1_545
Mn9 O21 1.959350 1_554
Mn9 O26 1.968758 1_555
Mn9 O12 1.968758 1_544
Mn9 O8 1.986075 1_555
Mn9 O0 1.986075 1_544
Mn10 O22 1.958426 1_565
Mn10 O1 1.964718 1_555
Mn10 O13 1.964736 1_555
Mn10 O24 1.966686 1_565
Mn10 O6 1.973575 1_565
Mn10 O33 1.984610 1_555
Mn11 O34 1.958426 1_545
Mn11 O7 1.964718 1_555
Mn11 O25 1.964736 1_555
Mn11 O14 1.966686 1_545
Mn11 O2 1.973575 1_545
Mn11 O23 1.984610 1_555
