# generated using pymatgen
data_Ca6Al7O16F
_symmetry_space_group_name_H-M   'P 1'
_cell_length_a   10.45811037
_cell_length_b   10.45811037
_cell_length_c   10.45811037
_cell_angle_alpha   108.80940951
_cell_angle_beta   108.80940951
_cell_angle_gamma   110.80310901
_symmetry_Int_Tables_number   1
_chemical_formula_structural   Ca6Al7O16F
_chemical_formula_sum   'Ca12 Al14 O32 F2'
_cell_volume   880.15925790
_cell_formula_units_Z   2
loop_
 _symmetry_equiv_pos_site_id
 _symmetry_equiv_pos_as_xyz
  1  'x, y, z'
loop_
 _atom_site_type_symbol
 _atom_site_label
 _atom_site_symmetry_multiplicity
 _atom_site_fract_x
 _atom_site_fract_y
 _atom_site_fract_z
 _atom_site_occupancy
  Ca  Ca0  1  0.12500000  0.50878300  0.88378300  1
  Ca  Ca1  1  0.62500000  0.24121700  0.11621700  1
  Ca  Ca2  1  0.62500000  0.76293300  0.63793300  1
  Ca  Ca3  1  0.12500000  0.98706700  0.36206700  1
  Ca  Ca4  1  0.23706700  0.87500000  0.86206700  1
  Ca  Ca5  1  0.01293300  0.37500000  0.13793300  1
  Ca  Ca6  1  0.49121700  0.37500000  0.61621700  1
  Ca  Ca7  1  0.75878300  0.87500000  0.38378300  1
  Ca  Ca8  1  0.30464900  0.30464900  0.00000000  1
  Ca  Ca9  1  0.94535100  0.44535100  0.50000000  1
  Ca  Ca10  1  0.55464900  0.05464900  0.50000000  1
  Ca  Ca11  1  0.69535100  0.69535100  0.00000000  1
  Al  Al0  1  0.12500000  0.24782000  0.62282000  1
  Al  Al1  1  0.62500000  0.50218000  0.37718000  1
  Al  Al2  1  0.49782000  0.87500000  0.12282000  1
  Al  Al3  1  0.75218000  0.37500000  0.87718000  1
  Al  Al4  1  0.00000000  0.00000000  0.00000000  1
  Al  Al5  1  0.25000000  0.75000000  0.50000000  1
  Al  Al6  1  0.91337700  0.15871600  0.78885500  1
  Al  Al7  1  0.33662300  0.62547800  0.74533800  1
  Al  Al8  1  0.36986100  0.12452200  0.21114500  1
  Al  Al9  1  0.88013900  0.59128400  0.25466200  1
  Al  Al10  1  0.84128400  0.63013900  0.75466200  1
  Al  Al11  1  0.40871600  0.66337700  0.28885500  1
  Al  Al12  1  0.37452200  0.11986100  0.71114500  1
  Al  Al13  1  0.87547800  0.08662300  0.24533800  1
  O  O0  1  0.24243200  0.49855800  0.12059900  1
  O  O1  1  0.00756800  0.62816700  0.75612600  1
  O  O2  1  0.37795900  0.12183300  0.87940100  1
  O  O3  1  0.87204100  0.25144200  0.24387400  1
  O  O4  1  0.50144200  0.62204100  0.74387400  1
  O  O5  1  0.74855800  0.99243200  0.62059900  1
  O  O6  1  0.37183300  0.12795900  0.37940100  1
  O  O7  1  0.87816700  0.75756800  0.25612600  1
  O  O8  1  0.98556200  0.14616100  0.96004600  1
  O  O9  1  0.26443800  0.72448400  0.66060000  1
  O  O10  1  0.18611600  0.02551600  0.03995400  1
  O  O11  1  0.06388400  0.60383900  0.33940000  1
  O  O12  1  0.75973100  0.53198300  0.84469900  1
  O  O13  1  0.49026900  0.83496800  0.27225200  1
  O  O14  1  0.56271600  0.21801700  0.72774800  1
  O  O15  1  0.68728400  0.91503200  0.15530100  1
  O  O16  1  0.16503200  0.43728400  0.65530100  1
  O  O17  1  0.46801700  0.31271600  0.22774800  1
  O  O18  1  0.08496800  0.24026900  0.77225200  1
  O  O19  1  0.78198300  0.50973100  0.34469900  1
  O  O20  1  0.27551600  0.93611600  0.53995400  1
  O  O21  1  0.85383900  0.81388400  0.83940000  1
  O  O22  1  0.39616100  0.73556200  0.46004600  1
  O  O23  1  0.97448400  0.01443800  0.16060000  1
  O  O24  1  0.46278200  0.02990400  0.13411700  1
  O  O25  1  0.89578800  0.32866500  0.86588300  1
  O  O26  1  0.35421200  0.72009600  0.93287700  1
  O  O27  1  0.78721800  0.42133500  0.06712300  1
  O  O28  1  0.57866500  0.64578800  0.36588300  1
  O  O29  1  0.27990400  0.21278200  0.63411700  1
  O  O30  1  0.67133500  0.53721800  0.56712300  1
  O  O31  1  0.97009600  0.10421200  0.43287700  1
  F  F0  1  0.75000000  0.25000000  0.50000000  1
  F  F1  1  0.50000000  0.50000000  0.00000000  1
loop_
_geom_bond_atom_site_label_1
_geom_bond_atom_site_label_2
_geom_bond_distance
_geom_bond_site_symmetry_2
Ca0 O25 2.367573 1_455
Ca0 O26 2.367578 1_555
Ca0 O1 2.440531 1_555
Ca0 O0 2.440531 1_556
Ca0 O16 2.481805 1_555
Ca0 O18 2.481805 1_555
Ca1 O27 2.367573 1_555
Ca1 O24 2.367580 1_555
Ca1 O3 2.440531 1_555
Ca1 O2 2.440531 1_554
Ca1 O19 2.481805 1_555
Ca1 O17 2.481805 1_555
Ca2 O21 2.359956 1_555
Ca2 O22 2.359956 1_555
Ca2 O4 2.385760 1_555
Ca2 O5 2.385760 1_555
Ca2 O30 2.504414 1_555
Ca2 O28 2.504414 1_555
Ca3 O20 2.359949 1_555
Ca3 O23 2.359949 1_465
Ca3 O6 2.385760 1_565
Ca3 O7 2.385760 1_455
Ca3 O31 2.504405 1_465
Ca3 O29 2.504415 1_565
Ca4 O9 2.359949 1_555
Ca4 O10 2.359949 1_566
Ca4 O2 2.385760 1_565
Ca4 O1 2.385760 1_555
Ca4 O26 2.504405 1_555
Ca4 O24 2.504415 1_566
Ca5 O11 2.359956 1_555
Ca5 O8 2.359956 1_454
Ca5 O0 2.385760 1_555
Ca5 O3 2.385760 1_455
Ca5 O27 2.504414 1_455
Ca5 O25 2.504414 1_454
Ca6 O30 2.367573 1_555
Ca6 O29 2.367580 1_555
Ca6 O4 2.440531 1_555
Ca6 O6 2.440531 1_555
Ca6 O12 2.481805 1_555
Ca6 O14 2.481805 1_555
Ca7 O28 2.367573 1_555
Ca7 O31 2.367578 1_565
Ca7 O7 2.440531 1_555
Ca7 O5 2.440531 1_555
Ca7 O15 2.481805 1_555
Ca7 O13 2.481805 1_555
Ca8 F1 2.320121 1_555
Ca8 O17 2.396482 1_555
Ca8 O18 2.396482 1_554
Ca8 O2 2.437974 1_554
Ca8 O0 2.437974 1_555
Ca9 F0 2.320121 1_555
Ca9 O19 2.396482 1_555
Ca9 O16 2.396482 1_655
Ca9 O1 2.437974 1_655
Ca9 O3 2.437974 1_555
Ca10 F0 2.320121 1_555
Ca10 O13 2.396482 1_545
Ca10 O14 2.396482 1_555
Ca10 O5 2.437974 1_545
Ca10 O6 2.437974 1_555
Ca11 F1 2.320121 1_555
Ca11 O12 2.396482 1_554
Ca11 O15 2.396482 1_555
Ca11 O7 2.437974 1_555
Ca11 O4 2.437974 1_554
Al0 O29 1.760339 1_555
Al0 O31 1.760347 1_455
Al0 O18 1.761187 1_555
Al0 O16 1.761187 1_555
Al1 O30 1.760349 1_555
Al1 O28 1.760349 1_555
Al1 O19 1.761187 1_555
Al1 O17 1.761187 1_555
Al2 O24 1.760339 1_565
Al2 O26 1.760347 1_554
Al2 O15 1.761187 1_555
Al2 O13 1.761187 1_555
Al3 O25 1.760349 1_555
Al3 O27 1.760349 1_556
Al3 O14 1.761187 1_555
Al3 O12 1.761187 1_555
Al4 O8 1.751866 1_454
Al4 O21 1.751874 1_444
Al4 O10 1.751876 1_555
Al4 O23 1.751876 1_455
Al5 O22 1.751866 1_555
Al5 O11 1.751874 1_555
Al5 O9 1.751876 1_555
Al5 O20 1.751876 1_555
Al6 O5 1.741647 1_545
Al6 O8 1.772820 1_555
Al6 O18 1.785254 1_655
Al6 O25 1.801735 1_555
Al7 O4 1.741644 1_555
Al7 O9 1.772809 1_555
Al7 O16 1.785256 1_555
Al7 O26 1.801746 1_555
Al8 O6 1.741647 1_555
Al8 O10 1.772815 1_555
Al8 O17 1.785254 1_555
Al8 O24 1.801741 1_555
Al9 O7 1.741651 1_555
Al9 O11 1.772808 1_655
Al9 O19 1.785245 1_555
Al9 O27 1.801741 1_555
Al10 O1 1.741651 1_655
Al10 O21 1.772808 1_555
Al10 O12 1.785245 1_555
Al10 O30 1.801741 1_555
Al11 O0 1.741647 1_555
Al11 O22 1.772820 1_555
Al11 O13 1.785254 1_555
Al11 O28 1.801735 1_555
Al12 O2 1.741647 1_555
Al12 O20 1.772815 1_545
Al12 O14 1.785254 1_555
Al12 O29 1.801741 1_555
Al13 O3 1.741644 1_555
Al13 O23 1.772809 1_555
Al13 O15 1.785256 1_545
Al13 O31 1.801746 1_555
