# generated using pymatgen
data_Li10Zn(PS4)4
_symmetry_space_group_name_H-M   'P 1'
_cell_length_a   6.15632200
_cell_length_b   7.91832915
_cell_length_c   12.99650718
_cell_angle_alpha   90.50355556
_cell_angle_beta   90.39617329
_cell_angle_gamma   90.11209774
_symmetry_Int_Tables_number   1
_chemical_formula_structural   Li10Zn(PS4)4
_chemical_formula_sum   'Li10 Zn1 P4 S16'
_cell_volume   633.51002255
_cell_formula_units_Z   1
loop_
 _symmetry_equiv_pos_site_id
 _symmetry_equiv_pos_as_xyz
  1  'x, y, z'
loop_
 _atom_site_type_symbol
 _atom_site_label
 _atom_site_symmetry_multiplicity
 _atom_site_fract_x
 _atom_site_fract_y
 _atom_site_fract_z
 _atom_site_occupancy
  Li  Li0  1  0.00193600  0.25414900  0.83756200  1
  Li  Li1  1  0.50108300  0.26326600  0.65239700  1
  Li  Li2  1  0.50899900  0.25989800  0.15085400  1
  Li  Li3  1  0.50193500  0.74590700  0.65191100  1
  Li  Li4  1  0.50297400  0.74922100  0.15887900  1
  Li  Li5  1  0.00734500  0.76044800  0.83347500  1
  Li  Li6  1  0.93682200  0.67348400  0.48281200  1
  Li  Li7  1  0.51083000  0.00497500  0.92178200  1
  Li  Li8  1  0.51315900  0.97739700  0.41742000  1
  Li  Li9  1  0.01520900  0.52215500  0.07777000  1
  Zn  Zn0  1  0.01158500  0.23700500  0.34135200  1
  P  P0  1  0.00166600  0.01623000  0.58774400  1
  P  P1  1  0.00178400  0.99857000  0.08954900  1
  P  P2  1  0.49952100  0.50620700  0.90707600  1
  P  P3  1  0.51323900  0.49241800  0.40232200  1
  S  S0  1  0.10823700  0.00898000  0.93951400  1
  S  S1  1  0.10121600  0.99213800  0.43293500  1
  S  S2  1  0.66488400  0.00625400  0.59062700  1
  S  S3  1  0.66692400  0.00119500  0.09337100  1
  S  S4  1  0.10639300  0.23092300  0.65496800  1
  S  S5  1  0.11054800  0.22351900  0.16241800  1
  S  S6  1  0.60572700  0.28970600  0.83419300  1
  S  S7  1  0.62263300  0.26616100  0.33322900  1
  S  S8  1  0.16489900  0.50862600  0.90468200  1
  S  S9  1  0.18088300  0.49981200  0.37308600  1
  S  S10  1  0.61748100  0.49924200  0.55125500  1
  S  S11  1  0.61256900  0.50771000  0.05668500  1
  S  S12  1  0.60932000  0.71982100  0.83358800  1
  S  S13  1  0.65289700  0.69575500  0.33388100  1
  S  S14  1  0.10622400  0.79090800  0.64767300  1
  S  S15  1  0.11059500  0.79792000  0.16931400  1
loop_
_geom_bond_atom_site_label_1
_geom_bond_atom_site_label_2
_geom_bond_distance
_geom_bond_site_symmetry_2
Li0 S8 2.403521 1_555
Li0 S0 2.447631 1_555
Li0 S6 2.456067 1_455
Li0 S4 2.468357 1_555
Li1 S10 2.404947 1_555
Li1 S2 2.406977 1_555
Li1 S4 2.443289 1_555
Li1 S6 2.451733 1_555
Li2 S3 2.385507 1_555
Li2 S11 2.408933 1_555
Li2 S7 2.466729 1_555
Li2 S5 2.475042 1_555
Li3 S2 2.433593 1_565
Li3 S10 2.450635 1_555
Li3 S12 2.458118 1_555
Li3 S14 2.463046 1_555
Li4 S3 2.399650 1_565
Li4 S11 2.418507 1_555
Li4 S15 2.451433 1_555
Li4 S13 2.488675 1_555
Li5 S8 2.408509 1_555
Li5 S0 2.468526 1_565
Li5 S12 2.470785 1_455
Li5 S14 2.507961 1_555
Li6 S9 2.487085 1_655
Li6 S14 2.544259 1_655
Li6 S10 2.568073 1_555
Li6 S13 2.606390 1_555
Li6 S1 2.799799 1_655
Li7 S3 2.422634 1_556
Li7 S0 2.491007 1_555
Li7 S12 2.597929 1_545
Li7 S6 2.601826 1_555
Li8 S2 2.439903 1_565
Li8 S1 2.548268 1_555
Li8 S13 2.621108 1_555
Li8 S7 2.632076 1_565
Li9 S8 2.438434 1_554
Li9 S11 2.494289 1_455
Li9 S15 2.543246 1_555
Li9 S5 2.681194 1_555
P0 S4 2.007695 1_555
P0 S14 2.055782 1_545
P0 S2 2.075298 1_455
P0 S1 2.114428 1_545
P1 S15 2.017733 1_555
P1 S3 2.062589 1_465
P1 S0 2.063688 1_564
P1 S5 2.115394 1_565
P2 S8 2.060190 1_555
P2 S11 2.060587 1_556
P2 S6 2.061082 1_555
P2 S12 2.064708 1_555
P3 S10 2.035237 1_555
P3 S13 2.037926 1_555
P3 S9 2.079518 1_555
P3 S7 2.110558 1_555
S1 Zn0 2.348690 1_565
S5 Zn0 2.409585 1_555
S7 Zn0 2.407745 1_655
S9 Zn0 2.357414 1_555
