# generated using pymatgen
data_Sm3Al11
_symmetry_space_group_name_H-M   'P 1'
_cell_length_a   8.40613051
_cell_length_b   8.40613051
_cell_length_c   8.40613051
_cell_angle_alpha   150.09075917
_cell_angle_beta   107.99163094
_cell_angle_gamma   79.88092885
_symmetry_Int_Tables_number   1
_chemical_formula_structural   Sm3Al11
_chemical_formula_sum   'Sm3 Al11'
_cell_volume   276.34615006
_cell_formula_units_Z   1
loop_
 _symmetry_equiv_pos_site_id
 _symmetry_equiv_pos_as_xyz
  1  'x, y, z'
loop_
 _atom_site_type_symbol
 _atom_site_label
 _atom_site_symmetry_multiplicity
 _atom_site_fract_x
 _atom_site_fract_y
 _atom_site_fract_z
 _atom_site_occupancy
  Sm  Sm0  1  -0.00000000  0.00000000  -0.00000000  1
  Sm  Sm1  1  0.31631557  0.31631557  -0.00000000  1
  Sm  Sm2  1  0.68368443  0.68368443  -0.00000000  1
  Al  Al0  1  0.50000000  0.00000000  0.50000000  1
  Al  Al1  1  0.28700880  0.50000000  0.78700880  1
  Al  Al2  1  0.71299120  0.50000000  0.21299120  1
  Al  Al3  1  0.96597388  0.33430337  0.63166851  1
  Al  Al4  1  0.03402612  0.66569663  0.36833149  1
  Al  Al5  1  0.70263486  0.33430337  0.36833149  1
  Al  Al6  1  0.29736514  0.66569663  0.63166851  1
  Al  Al7  1  0.86000096  0.13535954  0.72464142  1
  Al  Al8  1  0.13999904  0.86464046  0.27535858  1
  Al  Al9  1  0.41071811  0.13535954  0.27535858  1
  Al  Al10  1  0.58928189  0.86464046  0.72464142  1
loop_
_geom_bond_atom_site_label_1
_geom_bond_atom_site_label_2
_geom_bond_distance
_geom_bond_site_symmetry_2
Al0 Al10 2.823707 1_545
Al0 Al9 2.823707 1_555
Al0 Al8 2.823707 1_545
Al0 Al7 2.823707 1_555
Al0 Al1 3.022675 1_555
Al0 Al2 3.022675 1_556
Al0 Al2 3.022675 1_545
Al0 Al1 3.022675 1_544
Al0 Sm2 3.211182 1_556
Al0 Sm1 3.211182 1_545
Al0 Sm2 3.211182 1_545
Al0 Sm1 3.211182 1_556
Al1 Al3 2.630346 1_455
Al1 Al6 2.630362 1_555
Al1 Al9 2.786249 1_555
Al1 Al9 2.786250 1_566
Al1 Al8 2.786250 1_545
Al1 Al8 2.786250 1_556
Al1 Sm2 3.168137 1_556
Al1 Sm1 3.168137 1_556
Al1 Sm0 3.570903 1_555
Al1 Sm0 3.570903 1_566
Al2 Al4 2.630346 1_655
Al2 Al5 2.630362 1_555
Al2 Al7 2.786250 1_554
Al2 Al7 2.786250 1_565
Al2 Sm2 3.168137 1_555
Al2 Sm1 3.168137 1_555
Al2 Sm0 3.570903 1_655
Al2 Sm0 3.570903 1_666
Al3 Al5 2.602568 1_555
Al3 Al8 2.622040 1_645
Al3 Al8 2.622047 1_656
Al3 Al7 2.724073 1_555
Al3 Sm2 3.188792 1_545
Al3 Sm2 3.188798 1_556
Al3 Sm0 3.310701 1_655
Al3 Sm0 3.310707 1_666
Al4 Al6 2.602568 1_555
Al4 Al7 2.622040 1_465
Al4 Al7 2.622047 1_454
Al4 Al8 2.724073 1_555
Al4 Sm1 3.188792 1_566
Al4 Sm1 3.188798 1_555
Al4 Sm0 3.310701 1_566
Al4 Sm0 3.310707 1_555
Al5 Al9 2.724064 1_555
Al5 Sm2 3.188783 1_556
Al5 Sm2 3.188783 1_545
Al5 Sm0 3.310708 1_655
Al5 Sm0 3.310708 1_666
Al6 Al9 2.622051 1_555
Al6 Al9 2.622051 1_566
Al6 Sm1 3.188783 1_566
Al6 Sm1 3.188783 1_555
Al6 Sm0 3.310708 1_566
Al6 Sm0 3.310708 1_555
Al7 Sm2 3.165846 1_545
Al7 Sm2 3.165846 1_556
Al7 Sm0 3.232675 1_656
Al7 Sm1 3.584221 1_656
Al8 Sm1 3.165846 1_555
Al8 Sm1 3.165846 1_566
Al8 Sm0 3.232675 1_565
Al8 Sm2 3.584221 1_455
Al9 Sm2 3.165846 1_556
Al9 Sm2 3.165846 1_545
Al9 Sm0 3.232675 1_555
Al9 Sm1 3.584221 1_555
Al10 Al5 2.622051 1_555
Al10 Al5 2.622051 1_566
Al10 Al6 2.724064 1_555
Al10 Al2 2.786249 1_555
Al10 Al2 2.786250 1_566
Al10 Sm1 3.165846 1_555
Al10 Sm1 3.165846 1_566
Al10 Sm0 3.232675 1_666
Al10 Sm2 3.584221 1_556
