# generated using pymatgen
data_Cs2MnOF5
_symmetry_space_group_name_H-M   'P 1'
_cell_length_a   4.17152600
_cell_length_b   6.76463109
_cell_length_c   6.76463109
_cell_angle_alpha   94.87562607
_cell_angle_beta   90.00000000
_cell_angle_gamma   90.00000000
_symmetry_Int_Tables_number   1
_chemical_formula_structural   Cs2MnOF5
_chemical_formula_sum   'Cs2 Mn1 O1 F5'
_cell_volume   190.19927765
_cell_formula_units_Z   1
loop_
 _symmetry_equiv_pos_site_id
 _symmetry_equiv_pos_as_xyz
  1  'x, y, z'
loop_
 _atom_site_type_symbol
 _atom_site_label
 _atom_site_symmetry_multiplicity
 _atom_site_fract_x
 _atom_site_fract_y
 _atom_site_fract_z
 _atom_site_occupancy
  Cs  Cs0  1  0.49348500  0.50000000  0.00000000  1
  Cs  Cs1  1  0.49348500  0.00000000  0.50000000  1
  Mn  Mn0  1  0.99393300  0.00000000  0.00000000  1
  O  O0  1  0.68646700  0.50000000  0.50000000  1
  F  F0  1  0.49387200  0.00000000  0.00000000  1
  F  F1  1  0.99358900  0.18843000  0.81157000  1
  F  F2  1  0.99358900  0.81157000  0.18843000  1
  F  F3  1  0.99369100  0.79597800  0.79597800  1
  F  F4  1  0.99369100  0.20402200  0.20402200  1
loop_
_geom_bond_atom_site_label_1
_geom_bond_atom_site_label_2
_geom_bond_distance
_geom_bond_site_symmetry_2
Cs0 F1 3.155771 1_454
Cs0 F2 3.155771 1_455
Cs0 F2 3.156345 1_555
Cs0 F1 3.156345 1_554
Cs0 F3 3.275675 1_454
Cs0 F4 3.275675 1_455
Cs0 F3 3.276769 1_554
Cs0 F4 3.276769 1_555
Cs0 F0 3.382316 1_565
Cs0 F0 3.382316 1_555
Cs0 O0 3.476799 1_555
Cs0 O0 3.476799 1_554
Cs1 F2 3.155771 1_445
Cs1 F1 3.155771 1_455
Cs1 F2 3.156345 1_545
Cs1 F1 3.156345 1_555
Cs1 F3 3.275675 1_445
Cs1 F4 3.275675 1_455
Cs1 F3 3.276769 1_545
Cs1 F4 3.276769 1_555
Cs1 F0 3.382316 1_555
Cs1 F0 3.382316 1_556
Cs1 O0 3.476799 1_545
Cs1 O0 3.476799 1_555
F0 Mn0 2.085509 1_455
F0 Mn0 2.086017 1_555
F1 Mn0 1.877685 1_556
F2 Mn0 1.877685 1_565
F3 Mn0 1.867017 1_566
F4 Mn0 1.867017 1_555
