# generated using pymatgen
data_Na3Y(CO4)3
_symmetry_space_group_name_H-M   'P 1'
_cell_length_a   6.26988700
_cell_length_b   10.00812000
_cell_length_c   17.77870100
_cell_angle_alpha   90.00000000
_cell_angle_beta   90.00000000
_cell_angle_gamma   90.00000000
_symmetry_Int_Tables_number   1
_chemical_formula_structural   Na3Y(CO4)3
_chemical_formula_sum   'Na12 Y4 C12 O48'
_cell_volume   1115.60960279
_cell_formula_units_Z   4
loop_
 _symmetry_equiv_pos_site_id
 _symmetry_equiv_pos_as_xyz
  1  'x, y, z'
loop_
 _atom_site_type_symbol
 _atom_site_label
 _atom_site_symmetry_multiplicity
 _atom_site_fract_x
 _atom_site_fract_y
 _atom_site_fract_z
 _atom_site_occupancy
  Na  Na0  1  0.00511200  0.98323500  0.08092300  1
  Na  Na1  1  0.50511200  0.01676500  0.91907700  1
  Na  Na2  1  0.00511200  0.51676500  0.58092300  1
  Na  Na3  1  0.50511200  0.48323500  0.41907700  1
  Na  Na4  1  0.00833100  0.64164400  0.36378200  1
  Na  Na5  1  0.50833100  0.35835600  0.63621800  1
  Na  Na6  1  0.00833100  0.85835600  0.86378200  1
  Na  Na7  1  0.50833100  0.14164400  0.13621800  1
  Na  Na8  1  0.99097300  0.37556100  0.04297100  1
  Na  Na9  1  0.49097300  0.62443900  0.95702900  1
  Na  Na10  1  0.99097300  0.12443900  0.54297100  1
  Na  Na11  1  0.49097300  0.87556100  0.45702900  1
  Y  Y0  1  0.63896200  0.67559900  0.16683700  1
  Y  Y1  1  0.13896200  0.32440100  0.83316300  1
  Y  Y2  1  0.63896200  0.82440100  0.66683700  1
  Y  Y3  1  0.13896200  0.17559900  0.33316300  1
  C  C0  1  0.98978600  0.93848700  0.39880500  1
  C  C1  1  0.48978600  0.06151300  0.60119500  1
  C  C2  1  0.98978600  0.56151300  0.89880500  1
  C  C3  1  0.48978600  0.43848700  0.10119500  1
  C  C4  1  0.48800200  0.88346000  0.07563200  1
  C  C5  1  0.98800200  0.11654000  0.92436800  1
  C  C6  1  0.48800200  0.61654000  0.57563200  1
  C  C7  1  0.98800200  0.38346000  0.42436800  1
  C  C8  1  0.48903000  0.70454600  0.31178100  1
  C  C9  1  0.98903000  0.29545400  0.68821900  1
  C  C10  1  0.48903000  0.79545400  0.81178100  1
  C  C11  1  0.98903000  0.20454600  0.18821900  1
  O  O0  1  0.42881400  0.48692200  0.16549700  1
  O  O1  1  0.92881400  0.51307800  0.83450300  1
  O  O2  1  0.42881400  0.01307800  0.66549700  1
  O  O3  1  0.92881400  0.98692200  0.33450300  1
  O  O4  1  0.42425400  0.77538800  0.25521200  1
  O  O5  1  0.92425400  0.22461200  0.74478800  1
  O  O6  1  0.42425400  0.72461200  0.75521200  1
  O  O7  1  0.92425400  0.27538800  0.24478800  1
  O  O8  1  0.44957500  0.75748400  0.06272200  1
  O  O9  1  0.94957500  0.24251600  0.93727800  1
  O  O10  1  0.44957500  0.74251600  0.56272200  1
  O  O11  1  0.94957500  0.25748400  0.43727800  1
  O  O12  1  0.89146800  0.84053400  0.42905800  1
  O  O13  1  0.39146800  0.15946600  0.57094200  1
  O  O14  1  0.89146800  0.65946600  0.92905800  1
  O  O15  1  0.39146800  0.34053400  0.07094200  1
  O  O16  1  0.65340000  0.49669200  0.06861000  1
  O  O17  1  0.15340000  0.50330800  0.93139000  1
  O  O18  1  0.65340000  0.00330800  0.56861000  1
  O  O19  1  0.15340000  0.99669200  0.43139000  1
  O  O20  1  0.10551500  0.68118300  0.16804000  1
  O  O21  1  0.60551500  0.31881700  0.83196000  1
  O  O22  1  0.10551500  0.81881700  0.66804000  1
  O  O23  1  0.60551500  0.18118300  0.33196000  1
  O  O24  1  0.63712200  0.90949300  0.12495700  1
  O  O25  1  0.13712200  0.09050700  0.87504300  1
  O  O26  1  0.63712200  0.59050700  0.62495700  1
  O  O27  1  0.13712200  0.40949300  0.37504300  1
  O  O28  1  0.99235800  0.59128500  0.20707300  1
  O  O29  1  0.49235800  0.40871500  0.79292700  1
  O  O30  1  0.99235800  0.90871500  0.70707300  1
  O  O31  1  0.49235800  0.09128500  0.29292700  1
  O  O32  1  0.38225600  0.97699600  0.04356500  1
  O  O33  1  0.88225600  0.02300400  0.95643500  1
  O  O34  1  0.38225600  0.52300400  0.54356500  1
  O  O35  1  0.88225600  0.47699600  0.45643500  1
  O  O36  1  0.66260300  0.63362900  0.30102300  1
  O  O37  1  0.16260300  0.36637100  0.69897700  1
  O  O38  1  0.66260300  0.86637100  0.80102300  1
  O  O39  1  0.16260300  0.13362900  0.19897700  1
  O  O40  1  0.38832100  0.69989700  0.37426600  1
  O  O41  1  0.88832100  0.30010300  0.62573400  1
  O  O42  1  0.38832100  0.80010300  0.87426600  1
  O  O43  1  0.88832100  0.19989700  0.12573400  1
  O  O44  1  0.98181900  0.74838600  0.11844800  1
  O  O45  1  0.48181900  0.25161400  0.88155200  1
  O  O46  1  0.98181900  0.75161400  0.61844800  1
  O  O47  1  0.48181900  0.24838600  0.38155200  1
loop_
_geom_bond_atom_site_label_1
_geom_bond_atom_site_label_2
_geom_bond_distance
_geom_bond_site_symmetry_2
Na0 O33 2.377010 1_464
Na0 O43 2.423383 1_465
Na0 O44 2.447607 1_455
Na0 O32 2.456949 1_555
Na0 O24 2.545777 1_455
Na0 O39 2.765091 1_565
Na1 O32 2.377010 1_546
Na1 O42 2.423383 1_545
Na1 O45 2.447607 1_555
Na1 O33 2.456949 1_555
Na1 O25 2.545777 1_555
Na1 O38 2.765091 1_545
Na2 O35 2.377010 1_455
Na2 O41 2.423383 1_455
Na2 O46 2.447607 1_455
Na2 O34 2.456949 1_555
Na2 O26 2.545777 1_455
Na2 O37 2.765091 1_555
Na3 O34 2.377010 1_555
Na3 O40 2.423383 1_555
Na3 O47 2.447607 1_555
Na3 O35 2.456949 1_555
Na3 O27 2.545777 1_555
Na3 O36 2.765091 1_555
Na4 O12 2.417817 1_455
Na4 O36 2.439304 1_455
Na4 O40 2.459861 1_555
Na4 O35 2.460404 1_455
Na4 O27 2.467856 1_555
Na4 O28 2.833073 1_455
Na5 O13 2.417817 1_555
Na5 O37 2.439304 1_555
Na5 O41 2.459861 1_555
Na5 O34 2.460404 1_555
Na5 O26 2.467856 1_555
Na5 O29 2.833073 1_555
Na6 O14 2.417817 1_455
Na6 O38 2.439304 1_455
Na6 O42 2.459861 1_555
Na6 O33 2.460404 1_465
Na6 O25 2.467856 1_565
Na6 O30 2.833073 1_455
Na7 O15 2.417817 1_555
Na7 O39 2.439304 1_555
Na7 O43 2.459861 1_555
Na7 O32 2.460404 1_545
Na7 O24 2.467856 1_545
Na7 O31 2.833073 1_555
Na8 O9 2.317607 1_554
Na8 O43 2.381200 1_555
Na8 O16 2.481370 1_555
Na8 O17 2.570417 1_654
Na8 O15 2.583718 1_655
Na9 O8 2.317607 1_556
Na9 O42 2.381200 1_555
Na9 O17 2.481370 1_555
Na9 O16 2.570417 1_556
Na9 O14 2.583718 1_555
Na10 O11 2.317607 1_555
Na10 O41 2.381200 1_555
Na10 O18 2.481370 1_555
Na10 O19 2.570417 1_645
Na10 O13 2.583718 1_655
Na11 O10 2.317607 1_555
Na11 O40 2.381200 1_555
Na11 O19 2.481370 1_555
Na11 O18 2.570417 1_565
Na11 O12 2.583718 1_555
C0 O12 1.276844 1_555
C0 O3 1.299246 1_555
C0 O19 1.314265 1_655
C1 O13 1.276844 1_555
C1 O2 1.299246 1_555
C1 O18 1.314265 1_555
C2 O14 1.276844 1_555
C2 O1 1.299246 1_555
C2 O17 1.314265 1_655
C3 O15 1.276844 1_555
C3 O0 1.299246 1_555
C3 O16 1.314265 1_555
C4 O32 1.280990 1_555
C4 O8 1.303957 1_555
C4 O24 1.308074 1_555
C5 O33 1.280990 1_555
C5 O9 1.303957 1_555
C5 O25 1.308074 1_655
C6 O34 1.280990 1_555
C6 O10 1.303957 1_555
C6 O26 1.308074 1_555
C7 O35 1.280990 1_555
C7 O11 1.303957 1_555
C7 O27 1.308074 1_655
C8 O40 1.278662 1_555
C8 O4 1.295802 1_555
C8 O36 1.313271 1_555
C9 O41 1.278662 1_555
C9 O5 1.295802 1_555
C9 O37 1.313271 1_655
C10 O42 1.278662 1_555
C10 O6 1.295802 1_555
C10 O38 1.313271 1_555
C11 O43 1.278662 1_555
C11 O7 1.295802 1_555
C11 O39 1.313271 1_655
O0 Y0 2.302680 1_555
O1 Y1 2.302680 1_655
O2 Y2 2.302680 1_545
O3 Y3 2.302680 1_665
O4 Y0 2.297453 1_555
O5 Y1 2.297453 1_655
O6 Y2 2.297453 1_555
O7 Y3 2.297453 1_655
O8 Y0 2.346895 1_555
O9 Y1 2.346895 1_655
O10 Y2 2.346895 1_555
O11 Y3 2.346895 1_655
O16 Y0 2.502778 1_555
O17 Y1 2.502778 1_555
O18 Y2 2.502778 1_545
O19 Y3 2.502778 1_565
O20 O28 1.339559 1_455
O20 O44 1.353223 1_455
O21 O29 1.339559 1_555
O21 O45 1.353223 1_555
O22 O30 1.339559 1_455
O22 O46 1.353223 1_455
O23 O31 1.339559 1_555
O23 O47 1.353223 1_555
O24 Y0 2.456430 1_555
O25 Y1 2.456430 1_555
O26 Y2 2.456430 1_555
O27 Y3 2.456430 1_555
O28 Y0 2.476554 1_555
O29 Y1 2.476554 1_555
O30 Y2 2.476554 1_555
O31 Y3 2.476554 1_555
O36 Y0 2.426880 1_555
O37 Y1 2.426880 1_555
O38 Y2 2.426880 1_555
O39 Y3 2.426880 1_555
O44 Y0 2.427316 1_555
O45 Y1 2.427316 1_555
O46 Y2 2.427316 1_555
O47 Y3 2.427316 1_555
