# generated using pymatgen
data_LiCuPO4
_symmetry_space_group_name_H-M   'P 1'
_cell_length_a   18.61706900
_cell_length_b   5.65504000
_cell_length_c   8.47203400
_cell_angle_alpha   90.00000000
_cell_angle_beta   90.00000000
_cell_angle_gamma   90.00000000
_symmetry_Int_Tables_number   1
_chemical_formula_structural   LiCuPO4
_chemical_formula_sum   'Li12 Cu12 P12 O48'
_cell_volume   891.93802593
_cell_formula_units_Z   12
loop_
 _symmetry_equiv_pos_site_id
 _symmetry_equiv_pos_as_xyz
  1  'x, y, z'
loop_
 _atom_site_type_symbol
 _atom_site_label
 _atom_site_symmetry_multiplicity
 _atom_site_fract_x
 _atom_site_fract_y
 _atom_site_fract_z
 _atom_site_occupancy
  Li  Li0  1  0.00020800  0.17331600  0.73922600  1
  Li  Li1  1  0.17938000  0.81659200  0.22804000  1
  Li  Li2  1  0.15517700  0.21406700  0.76004100  1
  Li  Li3  1  0.34482300  0.71406700  0.26004100  1
  Li  Li4  1  0.32062000  0.31659200  0.72804000  1
  Li  Li5  1  0.49979200  0.67331600  0.23922600  1
  Li  Li6  1  0.50020800  0.17331600  0.76077400  1
  Li  Li7  1  0.67938000  0.81659200  0.27196000  1
  Li  Li8  1  0.65517600  0.21406700  0.73995900  1
  Li  Li9  1  0.84482400  0.71406700  0.23995900  1
  Li  Li10  1  0.82062000  0.31659200  0.77196000  1
  Li  Li11  1  0.99979200  0.67331600  0.26077400  1
  Cu  Cu0  1  0.06878800  0.32526400  0.02702600  1
  Cu  Cu1  1  0.10302400  0.66018200  0.51161800  1
  Cu  Cu2  1  0.23322100  0.25891200  0.46056500  1
  Cu  Cu3  1  0.26677900  0.75891200  0.96056500  1
  Cu  Cu4  1  0.39697600  0.16018200  0.01161800  1
  Cu  Cu5  1  0.43121200  0.82526400  0.52702600  1
  Cu  Cu6  1  0.56878800  0.32526400  0.47297400  1
  Cu  Cu7  1  0.60302400  0.66018200  0.98838200  1
  Cu  Cu8  1  0.73322100  0.25891200  0.03943500  1
  Cu  Cu9  1  0.76677900  0.75891200  0.53943500  1
  Cu  Cu10  1  0.89697600  0.16018200  0.48838200  1
  Cu  Cu11  1  0.93121200  0.82526400  0.97297400  1
  P  P0  1  0.06877700  0.17393600  0.39905300  1
  P  P1  1  0.09241200  0.75983800  0.89758900  1
  P  P2  1  0.23991200  0.27143100  0.09308300  1
  P  P3  1  0.26008800  0.77143100  0.59308300  1
  P  P4  1  0.40758800  0.25983800  0.39758900  1
  P  P5  1  0.43122300  0.67393600  0.89905300  1
  P  P6  1  0.56877700  0.17393600  0.10094700  1
  P  P7  1  0.59241200  0.75983800  0.60241100  1
  P  P8  1  0.73991200  0.27143100  0.40691700  1
  P  P9  1  0.76008800  0.77143100  0.90691700  1
  P  P10  1  0.90758800  0.25983800  0.10241100  1
  P  P11  1  0.93122300  0.67393600  0.60094700  1
  O  O0  1  0.00022200  0.15642400  0.49872400  1
  O  O1  1  0.03208200  0.78784700  0.02631400  1
  O  O2  1  0.08761000  0.95046000  0.77062900  1
  O  O3  1  0.08322100  0.50811200  0.82076600  1
  O  O4  1  0.06220600  0.33911500  0.25569500  1
  O  O5  1  0.09551900  0.92542100  0.35023500  1
  O  O6  1  0.12697700  0.29318100  0.51165200  1
  O  O7  1  0.16327000  0.77722900  0.99486800  1
  O  O8  1  0.16915600  0.26565800  0.00054200  1
  O  O9  1  0.20574400  0.66190400  0.46966100  1
  O  O10  1  0.23690500  0.02429100  0.64295100  1
  O  O11  1  0.26162000  0.61066000  0.74001000  1
  O  O12  1  0.23838000  0.11066000  0.24001000  1
  O  O13  1  0.26309500  0.52429100  0.14295100  1
  O  O14  1  0.29425600  0.16190400  0.96966100  1
  O  O15  1  0.33084400  0.76565800  0.50054200  1
  O  O16  1  0.33673000  0.27722900  0.49486800  1
  O  O17  1  0.37302300  0.79318100  0.01165200  1
  O  O18  1  0.40448100  0.42542100  0.85023500  1
  O  O19  1  0.43779400  0.83911500  0.75569500  1
  O  O20  1  0.41677900  0.00811200  0.32076600  1
  O  O21  1  0.41239000  0.45046000  0.27062900  1
  O  O22  1  0.46791800  0.28784700  0.52631400  1
  O  O23  1  0.49977800  0.65642400  0.99872400  1
  O  O24  1  0.50022200  0.15642400  0.00127600  1
  O  O25  1  0.53208200  0.78784700  0.47368600  1
  O  O26  1  0.58761000  0.95046000  0.72937100  1
  O  O27  1  0.58322100  0.50811200  0.67923400  1
  O  O28  1  0.56220600  0.33911500  0.24430500  1
  O  O29  1  0.59551900  0.92542100  0.14976500  1
  O  O30  1  0.62697700  0.29318100  0.98834800  1
  O  O31  1  0.66327000  0.77722900  0.50513200  1
  O  O32  1  0.66915600  0.26565800  0.49945800  1
  O  O33  1  0.70574400  0.66190400  0.03033900  1
  O  O34  1  0.73690500  0.02429100  0.85704900  1
  O  O35  1  0.76162000  0.61066000  0.75999000  1
  O  O36  1  0.73838000  0.11066000  0.25999000  1
  O  O37  1  0.76309500  0.52429100  0.35704900  1
  O  O38  1  0.79425600  0.16190400  0.53033900  1
  O  O39  1  0.83084400  0.76565800  0.99945800  1
  O  O40  1  0.83673000  0.27722900  0.00513200  1
  O  O41  1  0.87302300  0.79318100  0.48834800  1
  O  O42  1  0.90448100  0.42542100  0.64976500  1
  O  O43  1  0.93779400  0.83911500  0.74430500  1
  O  O44  1  0.91677900  0.00811200  0.17923400  1
  O  O45  1  0.91239000  0.45046000  0.22937100  1
  O  O46  1  0.96791800  0.28784700  0.97368600  1
  O  O47  1  0.99977800  0.65642400  0.50127600  1
loop_
_geom_bond_atom_site_label_1
_geom_bond_atom_site_label_2
_geom_bond_distance
_geom_bond_site_symmetry_2
Li0 O0 2.039779 1_555
Li0 O2 2.075263 1_545
Li0 O46 2.174042 1_455
Li0 O43 2.218967 1_445
Li0 O42 2.404794 1_455
Li0 O3 2.539722 1_555
Li1 O5 1.971793 1_555
Li1 O12 1.995555 1_565
Li1 O7 2.010440 1_554
Li1 O9 2.279565 1_555
Li1 O13 2.383484 1_555
Li2 O2 1.952580 1_545
Li2 O8 2.074701 1_556
Li2 O10 2.109705 1_555
Li2 O3 2.196418 1_555
Li2 O6 2.214524 1_555
Li3 O21 1.952580 1_555
Li3 O15 2.074701 1_555
Li3 O13 2.109705 1_555
Li3 O20 2.196418 1_565
Li3 O17 2.214524 1_555
Li4 O18 1.971793 1_555
Li4 O11 1.995555 1_555
Li4 O16 2.010440 1_555
Li4 O14 2.279565 1_555
Li4 O10 2.383484 1_555
Li5 O23 2.039779 1_554
Li5 O21 2.075263 1_555
Li5 O25 2.174042 1_555
Li5 O28 2.218967 1_555
Li5 O29 2.404794 1_555
Li5 O20 2.539722 1_565
Li6 O24 2.039779 1_556
Li6 O26 2.075263 1_545
Li6 O22 2.174042 1_555
Li6 O19 2.218967 1_545
Li6 O18 2.404794 1_555
Li6 O27 2.539722 1_555
Li7 O29 1.971793 1_555
Li7 O36 1.995555 1_565
Li7 O31 2.010440 1_555
Li7 O33 2.279565 1_555
Li7 O37 2.383484 1_555
Li8 O26 1.952568 1_545
Li8 O32 2.074704 1_555
Li8 O34 2.109718 1_555
Li8 O27 2.196407 1_555
Li8 O30 2.214520 1_555
Li9 O45 1.952568 1_555
Li9 O39 2.074704 1_554
Li9 O37 2.109718 1_555
Li9 O44 2.196407 1_565
Li9 O41 2.214520 1_555
Li10 O42 1.971793 1_555
Li10 O35 1.995555 1_555
Li10 O40 2.010440 1_556
Li10 O38 2.279565 1_555
Li10 O34 2.383484 1_555
Li11 O47 2.039779 1_555
Li11 O45 2.075263 1_555
Li11 O1 2.174042 1_655
Li11 O4 2.218967 1_655
Li11 O5 2.404794 1_655
Li11 O44 2.539722 1_565
Cu0 O8 1.911929 1_555
Cu0 O4 1.942743 1_555
Cu0 O46 1.943066 1_454
Cu0 O3 2.048154 1_554
Cu1 O47 1.924251 1_455
Cu1 O9 1.945125 1_555
Cu1 O5 2.034376 1_555
Cu1 O6 2.122773 1_555
Cu2 O16 1.951576 1_555
Cu2 O6 2.034005 1_555
Cu2 O10 2.037808 1_555
Cu2 O12 2.050260 1_555
Cu2 O9 2.336913 1_555
Cu3 O7 1.951576 1_555
Cu3 O17 2.034005 1_556
Cu3 O13 2.037808 1_556
Cu3 O11 2.050260 1_555
Cu3 O14 2.336913 1_565
Cu4 O24 1.924251 1_555
Cu4 O14 1.945125 1_554
Cu4 O18 2.034376 1_554
Cu4 O17 2.122773 1_545
Cu5 O15 1.911929 1_555
Cu5 O19 1.942743 1_555
Cu5 O25 1.943066 1_555
Cu5 O20 2.048154 1_565
Cu6 O32 1.911929 1_555
Cu6 O28 1.942743 1_555
Cu6 O22 1.943066 1_555
Cu6 O27 2.048154 1_555
Cu7 O23 1.924251 1_555
Cu7 O33 1.945125 1_556
Cu7 O29 2.034376 1_556
Cu7 O30 2.122773 1_555
Cu8 O40 1.951576 1_555
Cu8 O30 2.034005 1_554
Cu8 O34 2.037808 1_554
Cu8 O36 2.050260 1_555
Cu8 O33 2.336913 1_555
Cu9 O31 1.951576 1_555
Cu9 O41 2.034005 1_555
Cu9 O37 2.037808 1_555
Cu9 O35 2.050260 1_555
Cu9 O38 2.336913 1_565
Cu10 O0 1.924251 1_655
Cu10 O38 1.945125 1_555
Cu10 O42 2.034376 1_555
Cu10 O41 2.122773 1_545
Cu11 O39 1.911929 1_555
Cu11 O43 1.942743 1_555
Cu11 O1 1.943066 1_656
Cu11 O44 2.048154 1_566
O0 P0 1.533548 1_555
O1 P1 1.573506 1_554
O2 P1 1.525437 1_555
O3 P1 1.574577 1_555
O4 P0 1.537072 1_555
O5 P0 1.547243 1_565
O6 P0 1.593341 1_555
O7 P1 1.558558 1_555
O8 P2 1.533276 1_555
O9 P3 1.581320 1_555
O10 P3 1.552250 1_545
O11 P3 1.541704 1_555
O12 P2 1.541704 1_555
O13 P2 1.552250 1_555
O14 P2 1.581320 1_556
O15 P3 1.533276 1_555
O16 P4 1.558558 1_555
O17 P5 1.593341 1_554
O18 P5 1.547243 1_555
O19 P5 1.537072 1_555
O20 P4 1.574577 1_555
O21 P4 1.525437 1_555
O22 P4 1.573506 1_555
O23 P5 1.533548 1_555
O24 P6 1.533548 1_555
O25 P7 1.573506 1_555
O26 P7 1.525437 1_555
O27 P7 1.574577 1_555
O28 P6 1.537072 1_555
O29 P6 1.547243 1_565
O30 P6 1.593341 1_556
O31 P7 1.558558 1_555
O32 P8 1.533276 1_555
O33 P9 1.581320 1_554
O34 P9 1.552250 1_545
O35 P9 1.541704 1_555
O36 P8 1.541704 1_555
O37 P8 1.552250 1_555
O38 P8 1.581320 1_555
O39 P9 1.533276 1_555
O40 P10 1.558558 1_555
O41 P11 1.593341 1_555
O42 P11 1.547243 1_555
O43 P11 1.537072 1_555
O44 P10 1.574577 1_555
O45 P10 1.525437 1_555
O46 P10 1.573506 1_556
O47 P11 1.533548 1_555
