# generated using pymatgen
data_BaMg6NbO8
_symmetry_space_group_name_H-M   'P 1'
_cell_length_a   9.13643655
_cell_length_b   4.69142314
_cell_length_c   4.69142314
_cell_angle_alpha   90.00000000
_cell_angle_beta   90.00000000
_cell_angle_gamma   90.00000000
_symmetry_Int_Tables_number   1
_chemical_formula_structural   BaMg6NbO8
_chemical_formula_sum   'Ba1 Mg6 Nb1 O8'
_cell_volume   201.08795328
_cell_formula_units_Z   1
loop_
 _symmetry_equiv_pos_site_id
 _symmetry_equiv_pos_as_xyz
  1  'x, y, z'
loop_
 _atom_site_type_symbol
 _atom_site_label
 _atom_site_symmetry_multiplicity
 _atom_site_fract_x
 _atom_site_fract_y
 _atom_site_fract_z
 _atom_site_occupancy
  Ba  Ba0  1  0.00000000  0.00000000  0.00000000  1
  Mg  Mg0  1  0.00000000  0.50000000  0.50000000  1
  Mg  Mg1  1  0.50000000  0.50000000  0.50000000  1
  Mg  Mg2  1  0.25938796  -0.00000000  0.50000000  1
  Mg  Mg3  1  0.74061204  0.00000000  0.50000000  1
  Mg  Mg4  1  0.25938796  0.50000000  0.00000000  1
  Mg  Mg5  1  0.74061204  0.50000000  -0.00000000  1
  Nb  Nb0  1  0.50000000  0.00000000  0.00000000  1
  O  O0  1  0.27221923  0.00000000  -0.00000000  1
  O  O1  1  0.72778077  -0.00000000  0.00000000  1
  O  O2  1  0.25269711  0.50000000  0.50000000  1
  O  O3  1  0.74730289  0.50000000  0.50000000  1
  O  O4  1  0.00000000  0.00000000  0.50000000  1
  O  O5  1  0.50000000  0.00000000  0.50000000  1
  O  O6  1  0.00000000  0.50000000  0.00000000  1
  O  O7  1  0.50000000  0.50000000  0.00000000  1
loop_
_geom_bond_atom_site_label_1
_geom_bond_atom_site_label_2
_geom_bond_distance
_geom_bond_site_symmetry_2
Ba0 O6 2.345712 1_555
Ba0 O4 2.345712 1_555
Ba0 O4 2.345712 1_554
Ba0 O6 2.345712 1_545
Ba0 O0 2.487114 1_555
Ba0 O1 2.487114 1_455
Mg0 O3 2.308751 1_455
Mg0 O2 2.308751 1_555
Mg0 O6 2.345712 1_556
Mg0 O6 2.345712 1_555
Mg0 O4 2.345712 1_555
Mg0 O4 2.345712 1_565
Mg1 O2 2.259467 1_555
Mg1 O3 2.259467 1_555
Mg1 O5 2.345712 1_555
Mg1 O5 2.345712 1_565
Mg1 O7 2.345712 1_555
Mg1 O7 2.345712 1_556
Mg2 O5 2.198337 1_555
Mg2 O2 2.346508 1_545
Mg2 O2 2.346508 1_555
Mg2 O0 2.348639 1_555
Mg2 O0 2.348639 1_556
Mg2 O4 2.369882 1_555
Mg3 O5 2.198337 1_555
Mg3 O3 2.346508 1_555
Mg3 O3 2.346508 1_545
Mg3 O1 2.348639 1_555
Mg3 O1 2.348639 1_556
Mg3 O4 2.369882 1_655
Mg4 O7 2.198337 1_555
Mg4 O2 2.346508 1_554
Mg4 O2 2.346508 1_555
Mg4 O0 2.348639 1_555
Mg4 O0 2.348639 1_565
Mg4 O6 2.369882 1_555
Mg5 O7 2.198337 1_555
Mg5 O3 2.346508 1_555
Mg5 O3 2.346508 1_554
Mg5 O1 2.348639 1_555
Mg5 O1 2.348639 1_565
Mg5 O6 2.369882 1_655
Nb0 O1 2.081105 1_555
Nb0 O0 2.081105 1_555
Nb0 O5 2.345712 1_555
Nb0 O7 2.345712 1_545
Nb0 O7 2.345712 1_555
Nb0 O5 2.345712 1_554
