# generated using pymatgen
data_Li9Mn2Co5O16
_symmetry_space_group_name_H-M   'P 1'
_cell_length_a   5.86603400
_cell_length_b   5.87714617
_cell_length_c   10.11109076
_cell_angle_alpha   88.90525237
_cell_angle_beta   106.73492451
_cell_angle_gamma   119.75796246
_symmetry_Int_Tables_number   1
_chemical_formula_structural   Li9Mn2Co5O16
_chemical_formula_sum   'Li9 Mn2 Co5 O16'
_cell_volume   286.56883564
_cell_formula_units_Z   1
loop_
 _symmetry_equiv_pos_site_id
 _symmetry_equiv_pos_as_xyz
  1  'x, y, z'
loop_
 _atom_site_type_symbol
 _atom_site_label
 _atom_site_symmetry_multiplicity
 _atom_site_fract_x
 _atom_site_fract_y
 _atom_site_fract_z
 _atom_site_occupancy
  Li  Li0  1  0.50000000  0.50000000  0.00000000  1
  Li  Li1  1  0.49397600  0.24580100  0.24522400  1
  Li  Li2  1  0.50000000  0.00000000  0.50000000  1
  Li  Li3  1  0.50000000  0.00000000  0.00000000  1
  Li  Li4  1  0.48120600  0.73180100  0.23780300  1
  Li  Li5  1  0.50000000  0.50000000  0.50000000  1
  Li  Li6  1  0.51879400  0.26819900  0.76219700  1
  Li  Li7  1  0.50602400  0.75419900  0.75477600  1
  Li  Li8  1  0.00000000  0.50000000  0.00000000  1
  Mn  Mn0  1  0.00000000  0.00000000  0.00000000  1
  Mn  Mn1  1  0.00000000  0.50000000  0.50000000  1
  Co  Co0  1  0.99674500  0.74166300  0.24599100  1
  Co  Co1  1  0.00325500  0.25833700  0.75400900  1
  Co  Co2  1  0.99524200  0.25092300  0.24271000  1
  Co  Co3  1  0.00000000  0.00000000  0.50000000  1
  Co  Co4  1  0.00475800  0.74907700  0.75729000  1
  O  O0  1  0.23616200  0.11945400  0.88063700  1
  O  O1  1  0.22355900  0.87372200  0.12512800  1
  O  O2  1  0.23159000  0.61263500  0.37829300  1
  O  O3  1  0.22945400  0.62551500  0.86220600  1
  O  O4  1  0.22864900  0.34278700  0.11945400  1
  O  O5  1  0.20337900  0.10222000  0.37146700  1
  O  O6  1  0.21756400  0.85465800  0.60827100  1
  O  O7  1  0.23473100  0.38717000  0.62366200  1
  O  O8  1  0.76383800  0.88054600  0.11936300  1
  O  O9  1  0.76526900  0.61283000  0.37633800  1
  O  O10  1  0.76841000  0.38736500  0.62170700  1
  O  O11  1  0.77054600  0.37448500  0.13779400  1
  O  O12  1  0.78243600  0.14534200  0.39172900  1
  O  O13  1  0.79662100  0.89778000  0.62853300  1
  O  O14  1  0.77135100  0.65721300  0.88054600  1
  O  O15  1  0.77644100  0.12627800  0.87487200  1
loop_
_geom_bond_atom_site_label_1
_geom_bond_atom_site_label_2
_geom_bond_distance
_geom_bond_site_symmetry_2
Li0 O8 2.108394 1_555
Li0 O0 2.108394 1_554
Li0 O14 2.109685 1_554
Li0 O4 2.109685 1_555
Li0 O11 2.203057 1_555
Li0 O3 2.203057 1_554
Li1 O4 2.019311 1_555
Li1 O11 2.037020 1_555
Li1 O1 2.078825 1_545
Li1 O9 2.104692 1_555
Li1 O12 2.218326 1_555
Li1 O5 2.243044 1_555
Li2 O6 2.068079 1_545
Li2 O12 2.068079 1_555
Li2 O2 2.146927 1_545
Li2 O10 2.146927 1_555
Li2 O5 2.187013 1_555
Li2 O13 2.187013 1_545
Li3 O8 2.077329 1_545
Li3 O0 2.077329 1_554
Li3 O3 2.163395 1_544
Li3 O11 2.163395 1_555
Li3 O1 2.175331 1_545
Li3 O15 2.175331 1_554
Li4 O1 2.121636 1_555
Li4 O4 2.138968 1_555
Li4 O8 2.147500 1_555
Li4 O2 2.189571 1_555
Li4 O9 2.236644 1_555
Li4 O12 2.397762 1_565
Li5 O10 2.078295 1_555
Li5 O2 2.078295 1_555
Li5 O9 2.118723 1_555
Li5 O7 2.118723 1_555
Li5 O5 2.226606 1_555
Li5 O13 2.226606 1_555
Li6 O15 2.121636 1_555
Li6 O14 2.138968 1_555
Li6 O0 2.147500 1_555
Li6 O10 2.189571 1_555
Li6 O7 2.236644 1_555
Li6 O6 2.397762 1_545
Li7 O14 2.019311 1_555
Li7 O3 2.037020 1_555
Li7 O15 2.078825 1_565
Li7 O7 2.104692 1_555
Li7 O6 2.218326 1_555
Li7 O13 2.243044 1_555
Li8 O3 2.086154 1_554
Li8 O11 2.086154 1_455
Li8 O4 2.089527 1_555
Li8 O14 2.089527 1_454
Li8 O1 2.106209 1_555
Li8 O15 2.106209 1_454
Mn0 O14 1.947861 1_444
Mn0 O4 1.947861 1_555
Mn0 O8 1.957968 1_445
Mn0 O0 1.957968 1_554
Mn0 O15 1.961127 1_454
Mn0 O1 1.961127 1_545
Mn1 O9 1.944813 1_455
Mn1 O7 1.944813 1_555
Mn1 O12 1.952890 1_455
Mn1 O6 1.952890 1_555
Mn1 O2 1.958836 1_555
Mn1 O10 1.958836 1_455
Co0 O1 1.934185 1_655
Co0 O11 2.006511 1_555
Co0 O9 2.031236 1_555
Co0 O2 2.049222 1_655
Co0 O8 2.057142 1_555
Co0 O5 2.058297 1_665
Co1 O15 1.934185 1_455
Co1 O3 2.006511 1_555
Co1 O7 2.031236 1_555
Co1 O10 2.049222 1_455
Co1 O0 2.057142 1_555
Co1 O13 2.058297 1_445
Co2 O11 1.872299 1_555
Co2 O4 1.985553 1_655
Co2 O5 2.012392 1_655
Co2 O8 2.081339 1_545
Co2 O2 2.100423 1_655
Co2 O12 2.119476 1_555
Co3 O13 1.903891 1_445
Co3 O5 1.903891 1_555
Co3 O6 1.949031 1_545
Co3 O12 1.949031 1_455
Co3 O9 2.155010 1_445
Co3 O7 2.155010 1_555
Co4 O3 1.872299 1_555
Co4 O14 1.985553 1_455
Co4 O13 2.012392 1_455
Co4 O0 2.081339 1_565
Co4 O10 2.100423 1_455
Co4 O6 2.119476 1_555
