# generated using pymatgen
data_DyOF
_symmetry_space_group_name_H-M   'P 1'
_cell_length_a   6.65894551
_cell_length_b   6.65894551
_cell_length_c   6.65894499
_cell_angle_alpha   33.04933727
_cell_angle_beta   33.04933727
_cell_angle_gamma   33.04934269
_symmetry_Int_Tables_number   1
_chemical_formula_structural   DyOF
_chemical_formula_sum   'Dy2 O2 F2'
_cell_volume   78.15688092
_cell_formula_units_Z   2
loop_
 _symmetry_equiv_pos_site_id
 _symmetry_equiv_pos_as_xyz
  1  'x, y, z'
loop_
 _atom_site_type_symbol
 _atom_site_label
 _atom_site_symmetry_multiplicity
 _atom_site_fract_x
 _atom_site_fract_y
 _atom_site_fract_z
 _atom_site_occupancy
  Dy  Dy0  1  0.25854970  0.25854970  0.25854970  1
  Dy  Dy1  1  0.74145030  0.74145030  0.74145030  1
  O  O0  1  0.37861725  0.37861725  0.37861725  1
  O  O1  1  0.62138275  0.62138275  0.62138275  1
  F  F0  1  0.13042308  0.13042308  0.13042308  1
  F  F1  1  0.86957692  0.86957692  0.86957692  1
loop_
_geom_bond_atom_site_label_1
_geom_bond_atom_site_label_2
_geom_bond_distance
_geom_bond_site_symmetry_2
Dy0 O1 2.256715 1_554
Dy0 O1 2.256716 1_455
Dy0 O1 2.256716 1_545
Dy0 O0 2.265518 1_555
Dy0 F0 2.417582 1_555
Dy0 F1 2.425924 1_445
Dy0 F1 2.425925 1_454
Dy0 F1 2.425925 1_544
Dy1 O0 2.256715 1_556
Dy1 O0 2.256716 1_655
Dy1 O0 2.256716 1_565
Dy1 O1 2.265518 1_555
Dy1 F1 2.417582 1_555
Dy1 F0 2.425924 1_665
Dy1 F0 2.425925 1_656
Dy1 F0 2.425925 1_566
