# generated using pymatgen
data_Li2V3CoO8
_symmetry_space_group_name_H-M   'P 1'
_cell_length_a   5.92939391
_cell_length_b   5.94078367
_cell_length_c   10.27594203
_cell_angle_alpha   106.62503205
_cell_angle_beta   89.94633267
_cell_angle_gamma   60.02824269
_symmetry_Int_Tables_number   1
_chemical_formula_structural   Li2V3CoO8
_chemical_formula_sum   'Li4 V6 Co2 O16'
_cell_volume   295.91140915
_cell_formula_units_Z   2
loop_
 _symmetry_equiv_pos_site_id
 _symmetry_equiv_pos_as_xyz
  1  'x, y, z'
loop_
 _atom_site_type_symbol
 _atom_site_label
 _atom_site_symmetry_multiplicity
 _atom_site_fract_x
 _atom_site_fract_y
 _atom_site_fract_z
 _atom_site_occupancy
  Li  Li0  1  0.32463100  0.36156500  0.55954500  1
  Li  Li1  1  0.81317900  0.36297700  0.06060900  1
  Li  Li2  1  0.75317700  0.50277300  0.75035700  1
  Li  Li3  1  0.24389900  0.50329600  0.25051600  1
  V  V0  1  0.76393200  0.00101800  0.75245700  1
  V  V1  1  0.24129700  0.00631800  0.24571700  1
  V  V2  1  0.99593300  0.99907900  0.50313400  1
  V  V3  1  0.50579300  0.00035300  0.00362600  1
  V  V4  1  0.25336700  0.00461600  0.74547600  1
  V  V5  1  0.73646800  0.99886500  0.25268400  1
  Co  Co0  1  0.18185800  0.63847900  0.93974900  1
  Co  Co1  1  0.67990500  0.63883900  0.44267800  1
  O  O0  1  0.12028400  0.77413800  0.62947800  1
  O  O1  1  0.60547900  0.77433000  0.12931300  1
  O  O2  1  0.39443500  0.22442500  0.87000200  1
  O  O3  1  0.88060400  0.22435800  0.37015700  1
  O  O4  1  0.67715000  0.21301200  0.61843100  1
  O  O5  1  0.15163800  0.21093400  0.13199300  1
  O  O6  1  0.88504100  0.21162900  0.85499900  1
  O  O7  1  0.40207500  0.21313300  0.35436700  1
  O  O8  1  0.13717900  0.21134600  0.63260900  1
  O  O9  1  0.60924200  0.21362700  0.11781700  1
  O  O10  1  0.37437700  0.79218900  0.87415700  1
  O  O11  1  0.87786600  0.77867500  0.37509400  1
  O  O12  1  0.62254100  0.78443000  0.64241700  1
  O  O13  1  0.09202900  0.78471100  0.14365300  1
  O  O14  1  0.84241600  0.77813800  0.87397600  1
  O  O15  1  0.33420600  0.79274100  0.37498700  1
loop_
_geom_bond_atom_site_label_1
_geom_bond_atom_site_label_2
_geom_bond_distance
_geom_bond_site_symmetry_2
Li0 O7 1.990862 1_555
Li0 O8 1.992081 1_555
Li0 O4 1.994715 1_555
Li0 O0 2.003802 1_555
Li1 O5 1.988003 1_655
Li1 O9 1.991013 1_555
Li1 O6 1.995633 1_554
Li1 O1 1.997799 1_555
Li2 O14 2.060773 1_555
Li2 O12 2.097313 1_555
Li2 O4 2.108416 1_555
Li2 O6 2.115136 1_555
Li2 O8 2.122080 1_655
Li2 O10 2.122243 1_555
Li3 O11 2.067472 1_455
Li3 O13 2.088044 1_555
Li3 O7 2.104545 1_555
Li3 O9 2.107261 1_555
Li3 O5 2.130599 1_555
Li3 O15 2.131250 1_555
Co0 O14 1.962409 1_455
Co0 O13 1.980583 1_556
Co0 O10 1.995865 1_555
Co0 O2 2.011156 1_555
Co1 O12 1.940487 1_555
Co1 O11 1.962931 1_555
Co1 O15 2.003865 1_555
Co1 O3 2.013760 1_555
O0 V2 2.006266 1_455
O0 V0 2.013230 1_465
O0 V4 2.016350 1_565
O1 V3 2.005308 1_565
O1 V5 2.014721 1_555
O1 V1 2.017790 1_565
O2 V4 2.044375 1_555
O2 V0 2.047660 1_555
O2 V3 2.064661 1_556
O3 V1 2.041121 1_655
O3 V5 2.050039 1_545
O3 V2 2.063923 1_545
O4 V2 1.823657 1_545
O4 V0 2.023373 1_555
O5 V1 1.815014 1_555
O5 V3 2.034815 1_555
O6 V0 1.826528 1_555
O6 V4 2.017066 1_655
O7 V5 1.832136 1_545
O7 V1 2.013019 1_555
O8 V4 1.816399 1_555
O8 V2 2.039373 1_445
O9 V3 1.812626 1_555
O9 V5 2.041973 1_545
O10 V4 1.976839 1_565
O10 V3 1.982374 1_566
O11 V5 1.960623 1_555
O11 V2 1.966593 1_555
O12 V0 1.970816 1_565
O12 V4 1.991557 1_565
O13 V5 1.954138 1_455
O13 V1 1.998103 1_565
O14 V3 1.964060 1_566
O14 V0 1.964842 1_565
O15 V2 1.968381 1_455
O15 V1 1.986296 1_565
