# generated using pymatgen
data_FeCu6(SnS4)2
_symmetry_space_group_name_H-M   'P 1'
_cell_length_a   7.77306700
_cell_length_b   7.77306700
_cell_length_c   5.45241000
_cell_angle_alpha   90.00000000
_cell_angle_beta   90.00000000
_cell_angle_gamma   90.00000000
_symmetry_Int_Tables_number   1
_chemical_formula_structural   FeCu6(SnS4)2
_chemical_formula_sum   'Fe1 Cu6 Sn2 S8'
_cell_volume   329.43772327
_cell_formula_units_Z   1
loop_
 _symmetry_equiv_pos_site_id
 _symmetry_equiv_pos_as_xyz
  1  'x, y, z'
loop_
 _atom_site_type_symbol
 _atom_site_label
 _atom_site_symmetry_multiplicity
 _atom_site_fract_x
 _atom_site_fract_y
 _atom_site_fract_z
 _atom_site_occupancy
  Fe  Fe0  1  0.50000000  0.50000000  0.00000000  1
  Cu  Cu0  1  0.75920700  0.24079300  0.50000000  1
  Cu  Cu1  1  0.24079300  0.24079300  0.50000000  1
  Cu  Cu2  1  0.24079300  0.75920700  0.50000000  1
  Cu  Cu3  1  0.75920700  0.75920700  0.50000000  1
  Cu  Cu4  1  0.00000000  0.50000000  0.97268100  1
  Cu  Cu5  1  0.50000000  0.00000000  0.02731900  1
  Sn  Sn0  1  0.00000000  0.00000000  0.00000000  1
  Sn  Sn1  1  0.50000000  0.50000000  0.50000000  1
  S  S0  1  0.00000000  0.26033900  0.73750900  1
  S  S1  1  0.26033900  0.00000000  0.26249100  1
  S  S2  1  0.00000000  0.73966100  0.73750900  1
  S  S3  1  0.73966100  0.00000000  0.26249100  1
  S  S4  1  0.50000000  0.23545400  0.77071100  1
  S  S5  1  0.23545400  0.50000000  0.22928900  1
  S  S6  1  0.50000000  0.76454600  0.77071100  1
  S  S7  1  0.76454600  0.50000000  0.22928900  1
loop_
_geom_bond_atom_site_label_1
_geom_bond_atom_site_label_2
_geom_bond_distance
_geom_bond_site_symmetry_2
Fe0 S7 2.406544 1_555
Fe0 S5 2.406544 1_555
Fe0 S6 2.406544 1_554
Fe0 S4 2.406544 1_554
Fe0 Sn1 2.726205 1_555
Fe0 Sn1 2.726205 1_554
Cu0 S3 2.281088 1_555
Cu0 S0 2.281088 1_655
Cu0 S4 2.497986 1_555
Cu0 S7 2.497986 1_555
Cu0 Sn1 2.849405 1_555
Cu1 S0 2.281088 1_555
Cu1 S1 2.281088 1_555
Cu1 S4 2.497986 1_555
Cu1 S5 2.497986 1_555
Cu1 Sn1 2.849405 1_555
Cu2 S2 2.281088 1_555
Cu2 S1 2.281088 1_565
Cu2 S5 2.497986 1_555
Cu2 S6 2.497986 1_555
Cu2 Sn1 2.849405 1_555
Cu3 S3 2.281088 1_565
Cu3 S2 2.281088 1_655
Cu3 S6 2.497986 1_555
Cu3 S7 2.497986 1_555
Cu3 Sn1 2.849405 1_555
Cu4 S2 2.261543 1_555
Cu4 S0 2.261543 1_555
Cu4 S5 2.303736 1_556
Cu4 S7 2.303736 1_456
Cu5 S3 2.261543 1_555
Cu5 S1 2.261543 1_555
Cu5 S4 2.303736 1_554
Cu5 S6 2.303736 1_544
S0 Sn0 2.478598 1_556
S1 Sn0 2.478598 1_555
S2 Sn0 2.478598 1_566
S3 Sn0 2.478598 1_655
S4 Sn1 2.531238 1_555
S5 Sn1 2.531238 1_555
S6 Sn1 2.531238 1_555
S7 Sn1 2.531238 1_555
