# generated using pymatgen
data_ZnCo3P3O13
_symmetry_space_group_name_H-M   'P 1'
_cell_length_a   6.29419000
_cell_length_b   7.49787500
_cell_length_c   10.04703078
_cell_angle_alpha   79.63642915
_cell_angle_beta   90.00000000
_cell_angle_gamma   90.00000000
_symmetry_Int_Tables_number   1
_chemical_formula_structural   ZnCo3P3O13
_chemical_formula_sum   'Zn2 Co6 P6 O26'
_cell_volume   466.41476357
_cell_formula_units_Z   2
loop_
 _symmetry_equiv_pos_site_id
 _symmetry_equiv_pos_as_xyz
  1  'x, y, z'
loop_
 _atom_site_type_symbol
 _atom_site_label
 _atom_site_symmetry_multiplicity
 _atom_site_fract_x
 _atom_site_fract_y
 _atom_site_fract_z
 _atom_site_occupancy
  Zn  Zn0  1  0.75000000  0.37171100  0.17807300  1
  Zn  Zn1  1  0.25000000  0.62828900  0.82192700  1
  Co  Co0  1  0.25000000  0.64884500  0.20288400  1
  Co  Co1  1  0.75000000  0.35115500  0.79711600  1
  Co  Co2  1  0.25000000  0.20866400  0.43167800  1
  Co  Co3  1  0.50000000  0.00000000  0.00000000  1
  Co  Co4  1  0.75000000  0.79133600  0.56832200  1
  Co  Co5  1  0.00000000  0.00000000  0.00000000  1
  P  P0  1  0.25000000  0.77658200  0.49714400  1
  P  P1  1  0.75000000  0.22341800  0.50285600  1
  P  P2  1  0.25000000  0.26555100  0.76057100  1
  P  P3  1  0.75000000  0.73444900  0.23942900  1
  P  P4  1  0.75000000  0.68260000  0.88927200  1
  P  P5  1  0.25000000  0.31740000  0.11072800  1
  O  O0  1  0.75000000  0.63138300  0.74661400  1
  O  O1  1  0.55870000  0.25402600  0.40500600  1
  O  O2  1  0.25000000  0.21680600  0.62102000  1
  O  O3  1  0.54163000  0.78974900  0.90322500  1
  O  O4  1  0.75000000  0.35165300  0.60534500  1
  O  O5  1  0.75000000  0.12370800  0.90577000  1
  O  O6  1  0.25000000  0.64834700  0.39465500  1
  O  O7  1  0.04163000  0.21025100  0.09677500  1
  O  O8  1  0.25000000  0.97373300  0.41262000  1
  O  O9  1  0.75000000  0.02626700  0.58738000  1
  O  O10  1  0.06138800  0.38817800  0.78860400  1
  O  O11  1  0.25000000  0.87629200  0.09423000  1
  O  O12  1  0.56138800  0.61182200  0.21139600  1
  O  O13  1  0.75000000  0.48962700  0.97735400  1
  O  O14  1  0.75000000  0.78319400  0.37898000  1
  O  O15  1  0.45837000  0.21025100  0.09677500  1
  O  O16  1  0.94130000  0.25402600  0.40500600  1
  O  O17  1  0.44130000  0.74597400  0.59499400  1
  O  O18  1  0.43861200  0.38817800  0.78860400  1
  O  O19  1  0.25000000  0.36861700  0.25338600  1
  O  O20  1  0.75000000  0.91222600  0.13124000  1
  O  O21  1  0.25000000  0.08777400  0.86876000  1
  O  O22  1  0.93861200  0.61182200  0.21139600  1
  O  O23  1  0.95837000  0.78974900  0.90322500  1
  O  O24  1  0.05870000  0.74597400  0.59499400  1
  O  O25  1  0.25000000  0.51037300  0.02264600  1
loop_
_geom_bond_atom_site_label_1
_geom_bond_atom_site_label_2
_geom_bond_distance
_geom_bond_site_symmetry_2
Co0 O11 1.852074 1_555
Co0 O6 1.926061 1_555
Co0 O12 1.979186 1_555
Co0 O22 1.979186 1_455
Co0 O19 2.070885 1_555
Co0 O25 2.243568 1_555
Co1 O5 1.852074 1_555
Co1 O4 1.926061 1_555
Co1 O18 1.979186 1_555
Co1 O10 1.979186 1_655
Co1 O0 2.070885 1_555
Co1 O13 2.243568 1_555
Co2 O8 1.805779 1_545
Co2 O2 1.914249 1_555
Co2 O19 1.968292 1_555
Co2 O16 1.982426 1_455
Co2 O1 1.982426 1_555
Co3 O5 1.979079 1_554
Co3 O11 1.979079 1_545
Co3 O15 2.012623 1_555
Co3 O3 2.012623 1_544
Co3 O21 2.082208 1_554
Co3 O20 2.082208 1_545
Co4 O9 1.805779 1_565
Co4 O14 1.914249 1_555
Co4 O0 1.968292 1_555
Co4 O24 1.982426 1_655
Co4 O17 1.982426 1_555
Co5 O5 1.979079 1_454
Co5 O11 1.979079 1_545
Co5 O7 2.012623 1_555
Co5 O23 2.012623 1_444
Co5 O21 2.082208 1_554
Co5 O20 2.082208 1_445
O0 P4 1.549135 1_555
O1 P1 1.545247 1_555
O1 Zn0 2.589013 1_555
O2 P2 1.511210 1_555
O3 P4 1.557464 1_555
O3 Zn1 2.420297 1_555
O4 P1 1.530025 1_555
O6 P0 1.530025 1_555
O7 P5 1.557464 1_555
O7 Zn0 2.420297 1_455
O8 P0 1.566727 1_555
O9 P1 1.566727 1_555
O10 P2 1.557953 1_555
O10 Zn1 2.231470 1_555
O12 P3 1.557953 1_555
O12 Zn0 2.231470 1_555
O13 P4 1.554334 1_555
O13 Zn0 2.051093 1_556
O14 P3 1.511210 1_555
O15 P5 1.557464 1_555
O15 Zn0 2.420297 1_555
O16 P1 1.545247 1_555
O16 Zn0 2.589013 1_555
O17 P0 1.545247 1_555
O17 Zn1 2.589013 1_555
O18 P2 1.557953 1_555
O18 Zn1 2.231470 1_555
O19 P5 1.549135 1_555
O20 P3 1.561085 1_555
O21 P2 1.561085 1_555
O22 P3 1.557953 1_555
O22 Zn0 2.231470 1_555
O23 P4 1.557464 1_555
O23 Zn1 2.420297 1_655
O24 P0 1.545247 1_555
O24 Zn1 2.589013 1_555
O25 P5 1.554334 1_555
O25 Zn1 2.051093 1_554
