# generated using pymatgen
data_DyVSb3
_symmetry_space_group_name_H-M   'P 1'
_cell_length_a   6.18276789
_cell_length_b   6.15142012
_cell_length_c   12.75363310
_cell_angle_alpha   90.00015439
_cell_angle_beta   89.99970565
_cell_angle_gamma   89.99836354
_symmetry_Int_Tables_number   1
_chemical_formula_structural   DyVSb3
_chemical_formula_sum   'Dy4 V4 Sb12'
_cell_volume   485.05641252
_cell_formula_units_Z   4
loop_
 _symmetry_equiv_pos_site_id
 _symmetry_equiv_pos_as_xyz
  1  'x, y, z'
loop_
 _atom_site_type_symbol
 _atom_site_label
 _atom_site_symmetry_multiplicity
 _atom_site_fract_x
 _atom_site_fract_y
 _atom_site_fract_z
 _atom_site_occupancy
  Dy  Dy0  1  0.75000534  0.49604938  0.31366635  1
  Dy  Dy1  1  0.25000976  0.50396239  0.68627041  1
  Dy  Dy2  1  0.25000152  0.00395032  0.31366301  1
  Dy  Dy3  1  0.75000077  0.99603533  0.68627043  1
  V  V0  1  0.50001807  0.24999343  0.90111955  1
  V  V1  1  -0.00000383  0.74997912  0.09898449  1
  V  V2  1  0.49999971  0.75000394  0.09901621  1
  V  V3  1  -0.00001478  0.24999916  0.90112881  1
  Sb  Sb0  1  0.74999961  0.39125280  0.06660495  1
  Sb  Sb1  1  0.25000907  0.60876577  0.93340113  1
  Sb  Sb2  1  0.24999233  0.10875599  0.06661271  1
  Sb  Sb3  1  0.74998943  0.89123060  0.93340020  1
  Sb  Sb4  1  0.74998956  0.00737263  0.22813977  1
  Sb  Sb5  1  0.24999587  0.99270210  0.77186524  1
  Sb  Sb6  1  0.24999460  0.49263101  0.22814501  1
  Sb  Sb7  1  0.75000182  0.50730646  0.77186874  1
  Sb  Sb8  1  0.50000462  0.25000464  0.50257532  1
  Sb  Sb9  1  0.00000166  0.75000053  0.49734586  1
  Sb  Sb10  1  0.50000389  0.75000483  0.49733849  1
  Sb  Sb11  1  0.00000095  0.24999956  0.50258332  1
loop_
_geom_bond_atom_site_label_1
_geom_bond_atom_site_label_2
_geom_bond_distance
_geom_bond_site_symmetry_2
Dy0 Sb4 3.197834 1_555
Dy0 Sb10 3.211957 1_555
Dy0 Sb9 3.212052 1_655
Dy0 Sb0 3.216197 1_555
Dy0 Sb8 3.238002 1_555
Dy0 Sb11 3.238048 1_655
Dy0 Sb6 3.278154 1_655
Dy0 Sb6 3.278291 1_555
Dy0 Sb4 3.329133 1_565
Dy1 Sb5 3.198495 1_555
Dy1 Sb8 3.212158 1_555
Dy1 Sb11 3.212195 1_555
Dy1 Sb1 3.217071 1_555
Dy1 Sb9 3.238123 1_555
Dy1 Sb10 3.238194 1_555
Dy1 Sb7 3.278506 1_555
Dy1 Sb7 3.278586 1_455
Dy1 Sb5 3.329052 1_545
Dy2 Sb6 3.197825 1_555
Dy2 Sb10 3.211979 1_545
Dy2 Sb9 3.212084 1_545
Dy2 Sb2 3.216073 1_555
Dy2 Sb8 3.238074 1_555
Dy2 Sb11 3.238075 1_555
Dy2 Sb4 3.278156 1_555
Dy2 Sb4 3.278305 1_455
Dy2 Sb6 3.329068 1_545
Dy3 Sb7 3.198453 1_555
Dy3 Sb11 3.212168 1_665
Dy3 Sb8 3.212214 1_565
Dy3 Sb3 3.217065 1_555
Dy3 Sb9 3.238075 1_655
Dy3 Sb10 3.238174 1_555
Dy3 Sb5 3.278507 1_655
Dy3 Sb5 3.278555 1_555
Dy3 Sb7 3.329124 1_565
Sb0 V1 2.725665 1_655
Sb0 V2 2.725787 1_555
Sb0 V3 2.756384 1_654
Sb0 V0 2.756512 1_554
Sb0 Sb4 3.133770 1_555
Sb1 V0 2.725675 1_555
Sb1 V3 2.725754 1_555
Sb1 V1 2.757448 1_556
Sb1 V2 2.757769 1_556
Sb1 Sb5 3.134040 1_555
Sb2 V2 2.725807 1_545
Sb2 V1 2.725899 1_545
Sb2 V3 2.756530 1_554
Sb2 V0 2.756690 1_554
Sb2 Sb6 3.133717 1_555
Sb3 V0 2.725498 1_565
Sb3 V3 2.725663 1_665
Sb3 V1 2.757525 1_656
Sb3 V2 2.757744 1_556
Sb3 Sb7 3.133938 1_555
Sb4 V2 2.758174 1_545
Sb4 V1 2.758501 1_645
Sb5 V3 2.758999 1_565
Sb5 V0 2.759009 1_565
Sb6 V2 2.758277 1_555
Sb6 V1 2.758367 1_555
Sb7 V0 2.758921 1_555
Sb7 V3 2.758929 1_655
Sb10 Sb8 3.076434 1_565
Sb10 Sb8 3.076436 1_555
Sb10 Sb9 3.091370 1_655
Sb10 Sb9 3.091398 1_555
Sb11 Sb9 3.076429 1_545
Sb11 Sb9 3.076441 1_555
Sb11 Sb8 3.091361 1_455
Sb11 Sb8 3.091407 1_555
