# generated using pymatgen
data_LiAl2V4O8
_symmetry_space_group_name_H-M   'P 1'
_cell_length_a   5.94647321
_cell_length_b   5.90186785
_cell_length_c   6.02200449
_cell_angle_alpha   88.99561818
_cell_angle_beta   119.56762462
_cell_angle_gamma   120.22089354
_symmetry_Int_Tables_number   1
_chemical_formula_structural   LiAl2V4O8
_chemical_formula_sum   'Li1 Al2 V4 O8'
_cell_volume   151.16056944
_cell_formula_units_Z   1
loop_
 _symmetry_equiv_pos_site_id
 _symmetry_equiv_pos_as_xyz
  1  'x, y, z'
loop_
 _atom_site_type_symbol
 _atom_site_label
 _atom_site_symmetry_multiplicity
 _atom_site_fract_x
 _atom_site_fract_y
 _atom_site_fract_z
 _atom_site_occupancy
  Li  Li0  1  0.50000300  0.49999900  0.00000300  1
  Al  Al0  1  0.99999800  0.99999900  0.99999700  1
  Al  Al1  1  0.50000600  0.00000100  0.00000100  1
  V  V0  1  0.49999200  0.99998600  0.49999200  1
  V  V1  1  0.50000600  0.49999000  0.50001000  1
  V  V2  1  0.00002100  0.50001400  0.00002000  1
  V  V3  1  0.99999800  0.49999300  0.50000700  1
  O  O0  1  0.99868700  0.75470100  0.21566000  1
  O  O1  1  0.52652300  0.77335200  0.78004400  1
  O  O2  1  0.47129300  0.75427100  0.21524100  1
  O  O3  1  0.02737500  0.77436400  0.78072900  1
  O  O4  1  0.52873300  0.24572400  0.78476200  1
  O  O5  1  0.47347400  0.22663500  0.21995200  1
  O  O6  1  0.97264300  0.22564200  0.21928800  1
  O  O7  1  0.00129600  0.24529500  0.78433900  1
loop_
_geom_bond_atom_site_label_1
_geom_bond_atom_site_label_2
_geom_bond_distance
_geom_bond_site_symmetry_2
Li0 O1 2.063312 1_554
Li0 O5 2.063319 1_555
Li0 O2 2.122667 1_555
Li0 O4 2.122780 1_554
Li0 O0 2.126092 1_555
Li0 O7 2.126190 1_554
Al0 O7 1.927497 1_665
Al0 O0 1.927522 1_556
Al0 O3 2.008834 1_655
Al0 O6 2.008869 1_566
Al0 O1 2.015247 1_555
Al0 O5 2.015253 1_666
Al1 O4 1.927595 1_554
Al1 O2 1.927624 1_545
Al1 O3 2.011794 1_544
Al1 O6 2.011818 1_555
Al1 O5 2.012257 1_555
Al1 O1 2.012280 1_544
O0 V2 2.009075 1_655
O0 V0 2.149222 1_655
O0 V3 2.258388 1_555
O1 V0 2.128128 1_555
O1 V1 2.246874 1_555
O1 V3 2.247050 1_455
O2 V2 2.008826 1_555
O2 V0 2.149842 1_555
O2 V1 2.258522 1_555
O3 V2 2.064945 1_556
O3 V3 2.250656 1_455
O3 V1 2.250863 1_455
O4 V2 2.008897 1_656
O4 V0 2.149855 1_545
O4 V1 2.258391 1_555
O5 V0 2.128132 1_545
O5 V1 2.246891 1_555
O5 V3 2.247054 1_555
O6 V2 2.064948 1_655
O6 V3 2.250647 1_555
O6 V1 2.250836 1_655
O7 V2 2.009137 1_556
O7 V0 2.149228 1_445
O7 V3 2.258285 1_455
