# generated using pymatgen
data_Pm3Hf
_symmetry_space_group_name_H-M   'P 1'
_cell_length_a   4.97263600
_cell_length_b   4.97263600
_cell_length_c   4.97263600
_cell_angle_alpha   90.00000000
_cell_angle_beta   90.00000000
_cell_angle_gamma   90.00000000
_symmetry_Int_Tables_number   1
_chemical_formula_structural   Pm3Hf
_chemical_formula_sum   'Pm3 Hf1'
_cell_volume   122.95891134
_cell_formula_units_Z   1
loop_
 _symmetry_equiv_pos_site_id
 _symmetry_equiv_pos_as_xyz
  1  'x, y, z'
loop_
 _atom_site_type_symbol
 _atom_site_label
 _atom_site_symmetry_multiplicity
 _atom_site_fract_x
 _atom_site_fract_y
 _atom_site_fract_z
 _atom_site_occupancy
  Pm  Pm0  1  0.50000000  0.00000000  0.50000000  1
  Pm  Pm1  1  0.00000000  0.50000000  0.50000000  1
  Pm  Pm2  1  0.50000000  0.50000000  0.00000000  1
  Hf  Hf0  1  0.00000000  0.00000000  0.00000000  1
loop_
_geom_bond_atom_site_label_1
_geom_bond_atom_site_label_2
_geom_bond_distance
_geom_bond_site_symmetry_2
Pm0 Pm2 3.516185 1_556
Pm0 Pm2 3.516185 1_555
Pm0 Pm1 3.516185 1_545
Pm0 Pm1 3.516185 1_555
Pm0 Pm1 3.516185 1_645
Pm0 Pm1 3.516185 1_655
Pm0 Pm2 3.516185 1_546
Pm0 Pm2 3.516185 1_545
Pm1 Pm2 3.516185 1_455
Pm1 Pm2 3.516185 1_556
Pm1 Pm2 3.516185 1_555
Pm1 Pm2 3.516185 1_456
Hf0 Pm2 3.516185 1_455
Hf0 Pm1 3.516185 1_544
Hf0 Pm1 3.516185 1_545
Hf0 Pm0 3.516185 1_455
Hf0 Pm1 3.516185 1_555
Hf0 Pm2 3.516185 1_555
Hf0 Pm0 3.516185 1_554
Hf0 Pm0 3.516185 1_555
Hf0 Pm2 3.516185 1_545
Hf0 Pm0 3.516185 1_454
Hf0 Pm2 3.516185 1_445
Hf0 Pm1 3.516185 1_554
