# generated using pymatgen
data_Ca8TiMn7O20
_symmetry_space_group_name_H-M   'P 1'
_cell_length_a   11.03649078
_cell_length_b   15.45356835
_cell_length_c   11.18800990
_cell_angle_alpha   90.09003678
_cell_angle_beta   92.14380139
_cell_angle_gamma   90.44968769
_symmetry_Int_Tables_number   1
_chemical_formula_structural   Ca8TiMn7O20
_chemical_formula_sum   'Ca32 Ti4 Mn28 O80'
_cell_volume   1906.75290602
_cell_formula_units_Z   4
loop_
 _symmetry_equiv_pos_site_id
 _symmetry_equiv_pos_as_xyz
  1  'x, y, z'
loop_
 _atom_site_type_symbol
 _atom_site_label
 _atom_site_symmetry_multiplicity
 _atom_site_fract_x
 _atom_site_fract_y
 _atom_site_fract_z
 _atom_site_occupancy
  Ca  Ca0  1  0.99540249  0.11071899  0.52357557  1
  Ca  Ca1  1  0.98242892  0.12260077  0.02236248  1
  Ca  Ca2  1  0.99380205  0.61411534  0.51884210  1
  Ca  Ca3  1  0.98734405  0.61445532  0.01847935  1
  Ca  Ca4  1  0.54273221  0.13037679  0.47658503  1
  Ca  Ca5  1  0.54618067  0.12192508  0.98168526  1
  Ca  Ca6  1  0.54556927  0.62884699  0.47979977  1
  Ca  Ca7  1  0.54917521  0.62830607  0.97684282  1
  Ca  Ca8  1  0.51797092  0.37211106  0.99625491  1
  Ca  Ca9  1  0.51687290  0.37307441  0.48218070  1
  Ca  Ca10  1  0.52637350  0.87179145  0.98435712  1
  Ca  Ca11  1  0.51752649  0.87099011  0.47568767  1
  Ca  Ca12  1  0.96038408  0.38375342  0.00946518  1
  Ca  Ca13  1  0.95812203  0.38683357  0.51108153  1
  Ca  Ca14  1  0.95690709  0.87921454  0.00732299  1
  Ca  Ca15  1  0.95378799  0.88046456  0.51514636  1
  Ca  Ca16  1  0.24634366  0.39441598  0.25985642  1
  Ca  Ca17  1  0.23891013  0.39858869  0.75645861  1
  Ca  Ca18  1  0.24387157  0.88496835  0.27968455  1
  Ca  Ca19  1  0.23720489  0.89400066  0.75018673  1
  Ca  Ca20  1  0.75725058  0.37595254  0.25565112  1
  Ca  Ca21  1  0.76516653  0.37792618  0.76462561  1
  Ca  Ca22  1  0.74399292  0.86998643  0.25334974  1
  Ca  Ca23  1  0.74716220  0.86924316  0.75381349  1
  Ca  Ca24  1  0.22631500  0.12576909  0.23910916  1
  Ca  Ca25  1  0.22395682  0.11711415  0.73643052  1
  Ca  Ca26  1  0.22531663  0.61948271  0.24953500  1
  Ca  Ca27  1  0.22594598  0.61832363  0.74132159  1
  Ca  Ca28  1  0.77378534  0.11843084  0.25213114  1
  Ca  Ca29  1  0.77643780  0.12229573  0.75267798  1
  Ca  Ca30  1  0.78009524  0.62232319  0.25509276  1
  Ca  Ca31  1  0.78344391  0.62333998  0.75514599  1
  Ti  Ti0  1  0.99278903  0.99227632  0.26874372  1
  Ti  Ti1  1  0.24360152  0.97492281  0.02597157  1
  Ti  Ti2  1  0.26269991  0.24592491  0.94673940  1
  Ti  Ti3  1  0.99454650  0.25299306  0.27875706  1
  Mn  Mn0  1  0.99163223  0.99653159  0.75877871  1
  Mn  Mn1  1  0.99543626  0.49657823  0.26163153  1
  Mn  Mn2  1  0.99777815  0.49724234  0.76016071  1
  Mn  Mn3  1  0.50260264  0.99584057  0.22856952  1
  Mn  Mn4  1  0.50264783  0.98720901  0.72363051  1
  Mn  Mn5  1  0.50532746  0.49498273  0.23307025  1
  Mn  Mn6  1  0.50576217  0.48872361  0.73298902  1
  Mn  Mn7  1  0.24256268  0.00337021  0.51288387  1
  Mn  Mn8  1  0.23640620  0.50982727  0.02351162  1
  Mn  Mn9  1  0.24429240  0.50160460  0.51622775  1
  Mn  Mn10  1  0.74940346  0.00023361  0.99529557  1
  Mn  Mn11  1  0.74053059  0.00196013  0.49869939  1
  Mn  Mn12  1  0.74451789  0.50111220  0.99876039  1
  Mn  Mn13  1  0.74395260  0.50229587  0.50014116  1
  Mn  Mn14  1  0.27090808  0.24662648  0.45711526  1
  Mn  Mn15  1  0.27361643  0.73830260  0.95158123  1
  Mn  Mn16  1  0.27195722  0.74132547  0.46357807  1
  Mn  Mn17  1  0.75430154  0.24701108  0.00381436  1
  Mn  Mn18  1  0.75368198  0.24897751  0.50498162  1
  Mn  Mn19  1  0.75814399  0.74778480  0.00360834  1
  Mn  Mn20  1  0.75545778  0.74797052  0.50368384  1
  Mn  Mn21  1  0.99305505  0.25387463  0.76537623  1
  Mn  Mn22  1  0.99711763  0.75156490  0.26885037  1
  Mn  Mn23  1  0.00148705  0.75497974  0.76608207  1
  Mn  Mn24  1  0.51385597  0.24788116  0.24725627  1
  Mn  Mn25  1  0.50422652  0.25235269  0.75620373  1
  Mn  Mn26  1  0.50758240  0.74530395  0.24530693  1
  Mn  Mn27  1  0.50774637  0.74616922  0.74668852  1
  O  O0  1  0.59337284  0.25139754  0.09339125  1
  O  O1  1  0.55763577  0.25275615  0.59223220  1
  O  O2  1  0.59292892  0.75548024  0.09197034  1
  O  O3  1  0.58807603  0.75746609  0.59123463  1
  O  O4  1  0.39791129  0.18643895  0.34550034  1
  O  O5  1  0.39038786  0.18793026  0.87414130  1
  O  O6  1  0.39881107  0.68119703  0.35346541  1
  O  O7  1  0.40081324  0.67573369  0.84931513  1
  O  O8  1  0.93414409  0.23382697  0.42346330  1
  O  O9  1  0.90326816  0.23818964  0.91926132  1
  O  O10  1  0.90685698  0.73519953  0.42270387  1
  O  O11  1  0.91011405  0.73702031  0.92121777  1
  O  O12  1  0.16273498  0.26020281  0.29690192  1
  O  O13  1  0.17233726  0.25675528  0.80339026  1
  O  O14  1  0.16639454  0.75230363  0.30844092  1
  O  O15  1  0.17479905  0.75615013  0.79334608  1
  O  O16  1  0.66301531  0.22588063  0.35133027  1
  O  O17  1  0.65603012  0.22639620  0.85612586  1
  O  O18  1  0.65818089  0.72880058  0.35319585  1
  O  O19  1  0.65981945  0.72917245  0.85349606  1
  O  O20  1  0.86552527  0.26583781  0.15415917  1
  O  O21  1  0.85510318  0.27296408  0.65344553  1
  O  O22  1  0.85915260  0.77369040  0.15256588  1
  O  O23  1  0.85945871  0.77446868  0.65209863  1
  O  O24  1  0.34655811  0.51297708  0.16217135  1
  O  O25  1  0.35078226  0.51078652  0.66245816  1
  O  O26  1  0.35292193  0.03382750  0.12767159  1
  O  O27  1  0.34695939  0.01291187  0.65605599  1
  O  O28  1  0.84773333  0.48435739  0.14209472  1
  O  O29  1  0.84970809  0.48349365  0.64309972  1
  O  O30  1  0.86483669  0.97932881  0.15697147  1
  O  O31  1  0.83884221  0.98036478  0.64358538  1
  O  O32  1  0.16225922  0.00895697  0.35695757  1
  O  O33  1  0.19656656  0.01206933  0.87805955  1
  O  O34  1  0.15754961  0.50559760  0.36713879  1
  O  O35  1  0.16047156  0.50688447  0.86954805  1
  O  O36  1  0.63897662  0.02379530  0.34746937  1
  O  O37  1  0.62493000  0.02204152  0.83466966  1
  O  O38  1  0.63364485  0.52412366  0.34850437  1
  O  O39  1  0.63492922  0.52152338  0.84272988  1
  O  O40  1  0.89369040  0.01390239  0.40046622  1
  O  O41  1  0.89642595  0.01702174  0.89966908  1
  O  O42  1  0.88779130  0.51821426  0.39718334  1
  O  O43  1  0.88929302  0.51366015  0.89451313  1
  O  O44  1  0.09748050  0.46952713  0.12573250  1
  O  O45  1  0.09922290  0.47407359  0.62509446  1
  O  O46  1  0.10997088  0.96401493  0.11731386  1
  O  O47  1  0.09524342  0.97740724  0.62272400  1
  O  O48  1  0.59150787  0.49779794  0.08320558  1
  O  O49  1  0.58988089  0.49471896  0.58490983  1
  O  O50  1  0.60074374  0.99088226  0.08295457  1
  O  O51  1  0.58450812  0.99502486  0.57540735  1
  O  O52  1  0.97868397  0.37617789  0.30081481  1
  O  O53  1  0.99397829  0.37422020  0.80067147  1
  O  O54  1  0.00242111  0.87432232  0.30625701  1
  O  O55  1  0.00834677  0.87759996  0.80554564  1
  O  O56  1  0.47355810  0.37244109  0.27361494  1
  O  O57  1  0.45806179  0.37816687  0.79641565  1
  O  O58  1  0.46066859  0.87209946  0.27499440  1
  O  O59  1  0.46315517  0.87323626  0.78360448  1
  O  O60  1  0.00237833  0.12397580  0.23382733  1
  O  O61  1  0.00230191  0.12792405  0.73017177  1
  O  O62  1  0.99943796  0.62728587  0.22727119  1
  O  O63  1  0.00155239  0.62983707  0.72852696  1
  O  O64  1  0.18156542  0.17736693  0.04459638  1
  O  O65  1  0.21146293  0.13392778  0.53132291  1
  O  O66  1  0.20578517  0.63644836  0.04020974  1
  O  O67  1  0.21225629  0.63072909  0.53590255  1
  O  O68  1  0.75732808  0.12258226  0.04049617  1
  O  O69  1  0.75355925  0.12566243  0.54157607  1
  O  O70  1  0.75768947  0.62662096  0.03813312  1
  O  O71  1  0.75269057  0.62498245  0.54270957  1
  O  O72  1  0.29931342  0.37821900  0.48627128  1
  O  O73  1  0.29835201  0.35478094  0.00436186  1
  O  O74  1  0.29569336  0.87670345  0.49027419  1
  O  O75  1  0.30456512  0.86537387  0.00641850  1
  O  O76  1  0.74188217  0.37467292  0.46525809  1
  O  O77  1  0.74148815  0.37281268  0.97315032  1
  O  O78  1  0.74087219  0.87617595  0.46341971  1
  O  O79  1  0.74619512  0.87508016  0.96348424  1
loop_
_geom_bond_atom_site_label_1
_geom_bond_atom_site_label_2
_geom_bond_distance
_geom_bond_site_symmetry_2
Ca0 O40 2.290673 1_555
Ca0 O8 2.302431 1_555
Ca0 O61 2.324574 1_655
Ca0 O65 2.406915 1_655
Ca0 O47 2.576861 1_645
Ca0 O69 2.695873 1_555
Ca1 O9 2.289134 1_554
Ca1 O41 2.306170 1_554
Ca1 O64 2.353207 1_655
Ca1 O60 2.367925 1_655
Ca1 O68 2.500144 1_555
Ca1 O20 2.985883 1_555
Ca2 O42 2.294598 1_555
Ca2 O10 2.352933 1_555
Ca2 O63 2.356422 1_655
Ca2 O67 2.422977 1_655
Ca2 O71 2.690835 1_555
Ca2 O45 2.719277 1_655
Ca2 O29 2.942811 1_555
Ca3 O43 2.318477 1_554
Ca3 O11 2.336774 1_554
Ca3 O62 2.342790 1_555
Ca3 O66 2.435101 1_655
Ca3 O70 2.560633 1_555
Ca3 O44 2.806330 1_655
Ca3 O28 2.906610 1_555
Ca3 O35 3.077334 1_654
Ca4 O1 2.291128 1_555
Ca4 O4 2.303562 1_555
Ca4 O51 2.407143 1_545
Ca4 O69 2.413341 1_555
Ca4 O16 2.453402 1_555
Ca4 O36 2.462232 1_555
Ca5 O5 2.306750 1_555
Ca5 O50 2.392190 1_546
Ca5 O68 2.397572 1_556
Ca5 O0 2.400733 1_556
Ca5 O37 2.442001 1_555
Ca5 O17 2.480609 1_555
Ca5 O26 3.048347 1_556
Ca6 O6 2.264632 1_555
Ca6 O71 2.367733 1_555
Ca6 O3 2.378843 1_555
Ca6 O38 2.417797 1_555
Ca6 O49 2.428774 1_555
Ca6 O18 2.458724 1_555
Ca7 O7 2.258603 1_555
Ca7 O70 2.376898 1_556
Ca7 O48 2.383828 1_556
Ca7 O2 2.384375 1_556
Ca7 O19 2.434790 1_555
Ca7 O39 2.448088 1_555
Ca8 O48 2.299532 1_556
Ca8 O0 2.305767 1_556
Ca8 O57 2.309929 1_555
Ca8 O73 2.441556 1_556
Ca8 O77 2.489892 1_555
Ca9 O1 2.270339 1_555
Ca9 O49 2.324685 1_555
Ca9 O56 2.364306 1_555
Ca9 O72 2.405176 1_555
Ca9 O76 2.497504 1_555
Ca10 O50 2.275896 1_556
Ca10 O2 2.276225 1_556
Ca10 O59 2.327031 1_555
Ca10 O79 2.446093 1_555
Ca10 O75 2.470802 1_556
Ca11 O3 2.304005 1_555
Ca11 O58 2.308804 1_555
Ca11 O51 2.318311 1_555
Ca11 O74 2.462040 1_555
Ca11 O78 2.474570 1_555
Ca12 O44 2.356749 1_655
Ca12 O53 2.383395 1_554
Ca12 O77 2.439240 1_554
Ca12 O43 2.501419 1_554
Ca12 O28 2.515101 1_555
Ca12 O9 2.529627 1_554
Ca12 O20 2.672686 1_555
Ca13 O52 2.377398 1_555
Ca13 O45 2.383850 1_655
Ca13 O76 2.427919 1_555
Ca13 O29 2.449047 1_555
Ca13 O42 2.511435 1_555
Ca13 O8 2.566184 1_555
Ca13 O21 2.653113 1_555
Ca14 O55 2.348425 1_654
Ca14 O79 2.359009 1_554
Ca14 O46 2.426932 1_655
Ca14 O11 2.441650 1_554
Ca14 O30 2.524502 1_555
Ca14 O41 2.530157 1_564
Ca14 O22 2.564302 1_555
Ca15 O78 2.399326 1_555
Ca15 O54 2.419273 1_655
Ca15 O47 2.438696 1_655
Ca15 O23 2.493006 1_555
Ca15 O31 2.493544 1_555
Ca15 O40 2.510867 1_565
Ca15 O10 2.512315 1_555
Ca16 O12 2.307876 1_555
Ca16 O34 2.336881 1_555
Ca16 O24 2.416516 1_555
Ca16 O44 2.479762 1_555
Ca16 O56 2.532188 1_555
Ca16 O72 2.591267 1_555
Ca16 O73 2.999712 1_555
Ca17 O35 2.291088 1_555
Ca17 O13 2.372100 1_555
Ca17 O25 2.388720 1_555
Ca17 O45 2.400330 1_555
Ca17 O57 2.465951 1_555
Ca17 O53 2.788972 1_455
Ca17 O73 2.908260 1_556
Ca18 O14 2.243409 1_555
Ca18 O32 2.304377 1_565
Ca18 O58 2.405004 1_555
Ca18 O74 2.407448 1_555
Ca18 O46 2.609709 1_555
Ca18 O54 2.696102 1_555
Ca19 O15 2.291443 1_555
Ca19 O33 2.372686 1_565
Ca19 O27 2.453511 1_565
Ca19 O47 2.453571 1_555
Ca19 O59 2.530705 1_555
Ca19 O55 2.633427 1_555
Ca19 O75 2.969206 1_556
Ca19 O74 3.014090 1_555
Ca20 O28 2.343737 1_555
Ca20 O76 2.357633 1_555
Ca20 O20 2.395899 1_555
Ca20 O52 2.476933 1_555
Ca20 O16 2.767528 1_555
Ca20 O38 2.886313 1_555
Ca21 O21 2.296690 1_555
Ca21 O29 2.336366 1_555
Ca21 O77 2.358640 1_555
Ca21 O53 2.543443 1_555
Ca21 O39 2.809251 1_555
Ca21 O17 2.835088 1_555
Ca21 O43 2.860877 1_555
Ca22 O22 2.287548 1_555
Ca22 O78 2.353610 1_555
Ca22 O30 2.423748 1_555
Ca22 O18 2.638093 1_555
Ca22 O54 2.891391 1_655
Ca23 O23 2.259394 1_555
Ca23 O79 2.347817 1_555
Ca23 O31 2.359292 1_555
Ca23 O19 2.629395 1_555
Ca23 O55 2.920603 1_655
Ca24 O12 2.297605 1_555
Ca24 O64 2.355172 1_555
Ca24 O32 2.356692 1_555
Ca24 O26 2.383597 1_555
Ca24 O4 2.383775 1_555
Ca24 O60 2.469907 1_555
Ca25 O33 2.296420 1_555
Ca25 O65 2.308928 1_555
Ca25 O27 2.316380 1_555
Ca25 O13 2.364041 1_555
Ca25 O61 2.451692 1_555
Ca25 O5 2.587803 1_555
Ca25 O47 2.847014 1_545
Ca26 O14 2.262514 1_555
Ca26 O34 2.334132 1_555
Ca26 O66 2.359005 1_555
Ca26 O24 2.362656 1_555
Ca26 O6 2.393579 1_555
Ca26 O62 2.499906 1_455
Ca27 O15 2.287685 1_555
Ca27 O67 2.305928 1_555
Ca27 O25 2.358107 1_555
Ca27 O35 2.368917 1_555
Ca27 O7 2.401422 1_555
Ca27 O63 2.483095 1_555
Ca27 O45 2.902078 1_555
Ca28 O36 2.362114 1_555
Ca28 O16 2.368769 1_555
Ca28 O68 2.368954 1_555
Ca28 O60 2.539574 1_655
Ca28 O30 2.621241 1_545
Ca28 O40 2.644311 1_555
Ca28 O20 2.733200 1_555
Ca29 O69 2.366556 1_555
Ca29 O17 2.415823 1_555
Ca29 O37 2.473114 1_555
Ca29 O61 2.515628 1_655
Ca29 O31 2.617816 1_545
Ca29 O41 2.642745 1_555
Ca29 O21 2.730588 1_555
Ca29 O9 2.897485 1_555
Ca30 O18 2.421189 1_555
Ca30 O70 2.431754 1_555
Ca30 O62 2.452845 1_555
Ca30 O38 2.469899 1_555
Ca30 O42 2.534763 1_555
Ca30 O28 2.605440 1_555
Ca30 O22 2.756813 1_555
Ca30 O10 2.876037 1_555
Ca31 O71 2.388454 1_555
Ca31 O19 2.426685 1_555
Ca31 O63 2.437845 1_655
Ca31 O39 2.491381 1_555
Ca31 O43 2.563567 1_555
Ca31 O29 2.619471 1_555
Ca31 O23 2.745452 1_555
Ca31 O11 2.872227 1_555
Mn0 O55 1.920121 1_655
Mn0 O41 1.953602 1_565
Mn0 O47 1.961147 1_655
Mn0 O61 2.059191 1_665
Mn0 O31 2.096821 1_555
Mn0 O33 2.592060 1_665
Mn1 O52 1.921322 1_555
Mn1 O44 1.971888 1_655
Mn1 O42 1.990619 1_555
Mn1 O62 2.057191 1_555
Mn1 O28 2.076732 1_555
Mn1 O34 2.109852 1_655
Mn2 O45 1.948420 1_655
Mn2 O53 1.955597 1_555
Mn2 O43 1.973707 1_555
Mn2 O29 2.065061 1_555
Mn2 O63 2.080310 1_655
Mn2 O35 2.138885 1_655
Mn3 O50 1.991502 1_555
Mn3 O36 2.014867 1_565
Mn3 O58 2.036627 1_555
Mn3 O26 2.055634 1_565
Mn4 O37 1.874959 1_565
Mn4 O27 1.896367 1_565
Mn4 O51 1.921419 1_555
Mn4 O59 1.938007 1_555
Mn5 O24 1.918666 1_555
Mn5 O38 1.930697 1_555
Mn5 O48 1.958753 1_555
Mn5 O56 1.979646 1_555
Mn6 O25 1.890379 1_555
Mn6 O39 1.911104 1_555
Mn6 O57 1.928031 1_555
Mn6 O49 1.931155 1_555
Mn7 O32 1.929307 1_555
Mn7 O27 1.942565 1_555
Mn7 O65 2.060548 1_555
Mn7 O74 2.065673 1_545
Mn7 O47 2.110796 1_545
Mn8 O35 1.887516 1_554
Mn8 O24 1.935103 1_555
Mn8 O66 1.997981 1_555
Mn8 O44 2.040855 1_555
Mn8 O73 2.507841 1_555
Mn9 O34 1.893234 1_555
Mn9 O25 1.982622 1_555
Mn9 O72 2.036700 1_555
Mn9 O67 2.042238 1_555
Mn9 O45 2.089200 1_555
Mn10 O50 1.947218 1_546
Mn10 O68 1.956863 1_556
Mn10 O79 1.965797 1_545
Mn10 O41 1.992221 1_555
Mn10 O30 2.198897 1_546
Mn10 O37 2.248277 1_555
Mn11 O31 1.947312 1_545
Mn11 O51 1.954749 1_545
Mn11 O69 1.973021 1_555
Mn11 O78 1.982937 1_545
Mn11 O36 2.024511 1_555
Mn11 O40 2.057653 1_555
Mn12 O28 1.950783 1_556
Mn12 O48 1.965977 1_556
Mn12 O70 1.991271 1_556
Mn12 O77 2.002677 1_555
Mn12 O43 2.021427 1_555
Mn12 O39 2.111740 1_555
Mn13 O71 1.954887 1_555
Mn13 O29 1.967735 1_555
Mn13 O49 1.980513 1_555
Mn13 O76 2.009660 1_555
Mn13 O42 2.009730 1_555
Mn13 O38 2.080326 1_555
Mn14 O65 2.044562 1_555
Mn14 O72 2.078549 1_555
Mn14 O12 2.127735 1_555
Mn14 O4 2.130006 1_555
Mn15 O66 2.015716 1_556
Mn15 O15 2.064309 1_555
Mn15 O75 2.078272 1_556
Mn15 O7 2.086307 1_555
Mn16 O67 2.009103 1_555
Mn16 O14 2.061896 1_555
Mn16 O6 2.118256 1_555
Mn16 O74 2.125601 1_555
Mn17 O9 1.932846 1_554
Mn17 O17 1.966433 1_554
Mn17 O68 1.967087 1_555
Mn17 O77 1.979883 1_554
Mn17 O20 2.063772 1_555
Mn17 O0 2.073236 1_555
Mn18 O69 1.949772 1_555
Mn18 O16 1.986856 1_555
Mn18 O76 1.997476 1_555
Mn18 O21 2.000434 1_555
Mn18 O8 2.235151 1_555
Mn18 O1 2.407811 1_555
Mn19 O70 1.912440 1_555
Mn19 O11 1.951917 1_554
Mn19 O19 1.984467 1_554
Mn19 O22 2.008048 1_555
Mn19 O79 2.022641 1_554
Mn19 O2 2.110480 1_555
Mn20 O10 1.941553 1_555
Mn20 O71 1.951041 1_555
Mn20 O18 1.983252 1_555
Mn20 O23 2.022420 1_555
Mn20 O78 2.038751 1_555
Mn20 O3 2.129017 1_555
Mn21 O53 1.900492 1_555
Mn21 O21 1.959291 1_555
Mn21 O61 1.989392 1_655
Mn21 O13 2.008359 1_655
Mn21 O9 2.032245 1_555
Mn22 O14 1.903765 1_655
Mn22 O54 1.941974 1_655
Mn22 O62 1.975966 1_555
Mn22 O22 1.997327 1_555
Mn22 O10 2.035908 1_555
Mn23 O15 1.925564 1_555
Mn23 O55 1.945253 1_555
Mn23 O63 1.978384 1_555
Mn23 O23 2.008250 1_455
Mn23 O11 2.057804 1_455
Mn24 O4 1.958715 1_555
Mn24 O0 1.961900 1_555
Mn24 O56 2.002862 1_555
Mn24 O16 2.011954 1_555
Mn25 O1 1.947772 1_555
Mn25 O17 2.022224 1_555
Mn25 O57 2.066919 1_555
Mn25 O5 2.102187 1_555
Mn26 O2 1.993595 1_555
Mn26 O6 1.995146 1_555
Mn26 O18 2.035208 1_555
Mn26 O58 2.060233 1_555
Mn27 O3 1.988776 1_555
Mn27 O7 1.995259 1_555
Mn27 O19 2.042464 1_555
Mn27 O59 2.072795 1_555
O5 Ti2 1.884682 1_555
O8 Ti3 1.797875 1_555
O12 Ti3 1.862158 1_455
O13 Ti2 1.865085 1_555
O20 Ti3 1.966482 1_555
O26 Ti1 1.858961 1_545
O30 Ti0 1.860275 1_555
O32 Ti0 2.095771 1_445
O33 Ti1 1.811322 1_546
O40 Ti0 1.898546 1_545
O46 Ti1 1.832279 1_555
O46 Ti0 2.214516 1_455
O52 Ti3 1.929353 1_555
O54 Ti0 1.874085 1_455
O60 Ti3 2.058666 1_455
O60 Ti0 2.075612 1_445
O64 Ti2 1.784663 1_554
O73 Ti2 1.835076 1_554
O75 Ti1 1.842352 1_555
