# generated using pymatgen
data_Sr2La4Mg2RuO12
_symmetry_space_group_name_H-M   'P 1'
_cell_length_a   19.22965989
_cell_length_b   19.22965989
_cell_length_c   19.22965989
_cell_angle_alpha   168.31987336
_cell_angle_beta   168.31987336
_cell_angle_gamma   16.54705108
_symmetry_Int_Tables_number   1
_chemical_formula_structural   Sr2La4Mg2RuO12
_chemical_formula_sum   'Sr2 La4 Mg2 Ru1 O12'
_cell_volume   291.41805367
_cell_formula_units_Z   1
loop_
 _symmetry_equiv_pos_site_id
 _symmetry_equiv_pos_as_xyz
  1  'x, y, z'
loop_
 _atom_site_type_symbol
 _atom_site_label
 _atom_site_symmetry_multiplicity
 _atom_site_fract_x
 _atom_site_fract_y
 _atom_site_fract_z
 _atom_site_occupancy
  Sr  Sr0  1  0.54847100  0.54847100  0.00000000  1
  Sr  Sr1  1  0.45152900  0.45152900  0.00000000  1
  La  La0  1  0.21254600  0.21254600  0.00000000  1
  La  La1  1  0.87883800  0.87883800  0.00000000  1
  La  La2  1  0.78745400  0.78745400  0.00000000  1
  La  La3  1  0.12116200  0.12116200  0.00000000  1
  Mg  Mg0  1  0.66637900  0.66637900  0.00000000  1
  Mg  Mg1  1  0.33362100  0.33362100  0.00000000  1
  Ru  Ru0  1  0.00000000  0.00000000  0.00000000  1
  O  O0  1  0.27373900  0.27373900  0.00000000  1
  O  O1  1  0.94429100  0.94429100  0.00000000  1
  O  O2  1  0.60982000  0.60982000  0.00000000  1
  O  O3  1  0.72626100  0.72626100  0.00000000  1
  O  O4  1  0.39018000  0.39018000  0.00000000  1
  O  O5  1  0.05570900  0.05570900  0.00000000  1
  O  O6  1  0.66680700  0.16680700  0.50000000  1
  O  O7  1  0.33319300  0.83319300  0.50000000  1
  O  O8  1  0.00000000  0.50000000  0.50000000  1
  O  O9  1  0.83319300  0.33319300  0.50000000  1
  O  O10  1  0.50000000  0.00000000  0.50000000  1
  O  O11  1  0.16680700  0.66680700  0.50000000  1
loop_
_geom_bond_atom_site_label_1
_geom_bond_atom_site_label_2
_geom_bond_distance
_geom_bond_site_symmetry_2
La0 O0 2.328947 1_555
La0 O6 2.618936 1_454
La0 O11 2.618936 1_544
La0 O11 2.618936 1_555
La0 O6 2.618936 1_555
La0 O3 2.815930 1_545
La0 O3 2.815930 1_455
La0 O3 2.815930 1_556
La0 O3 2.815930 1_444
La1 O1 2.491079 1_555
La1 O7 2.616559 1_655
La1 O9 2.616559 1_565
La1 O9 2.616559 1_554
La1 O7 2.616559 1_554
La1 O4 2.800595 1_666
La1 O4 2.800595 1_655
La1 O4 2.800595 1_565
La1 O4 2.800595 1_554
La2 O3 2.328947 1_555
La2 O7 2.618936 1_655
La2 O9 2.618936 1_565
La2 O7 2.618936 1_554
La2 O9 2.618936 1_554
La2 O0 2.815930 1_565
La2 O0 2.815930 1_655
La2 O0 2.815930 1_554
La2 O0 2.815930 1_666
La3 O5 2.491079 1_555
La3 O11 2.616559 1_544
La3 O6 2.616559 1_555
La3 O6 2.616559 1_454
La3 O11 2.616559 1_555
La3 O2 2.800595 1_444
La3 O2 2.800595 1_545
La3 O2 2.800595 1_455
La3 O2 2.800595 1_556
Mg0 O11 1.956723 1_655
Mg0 O6 1.956723 1_554
Mg0 O6 1.956723 1_565
Mg0 O11 1.956723 1_554
Mg0 O2 2.152582 1_555
Mg0 O3 2.279052 1_555
Mg1 O9 1.956723 1_454
Mg1 O7 1.956723 1_544
Mg1 O9 1.956723 1_555
Mg1 O7 1.956723 1_555
Mg1 O4 2.152582 1_555
Mg1 O0 2.279052 1_555
O1 Ru0 2.120232 1_665
O1 Sr1 2.780806 1_655
O1 Sr1 2.780806 1_666
O1 Sr1 2.780806 1_554
O1 Sr1 2.780806 1_565
O2 Sr0 2.334885 1_555
O4 Sr1 2.334885 1_555
O5 Ru0 2.120232 1_555
O5 Sr0 2.780806 1_444
O5 Sr0 2.780806 1_545
O5 Sr0 2.780806 1_455
O5 Sr0 2.780806 1_556
O8 Ru0 1.956655 1_566
O8 Ru0 1.956655 1_555
O8 Sr0 2.689171 1_455
O8 Sr0 2.689171 1_556
O8 Sr1 2.689171 1_556
O8 Sr1 2.689171 1_455
O10 Ru0 1.956655 1_656
O10 Ru0 1.956655 1_555
O10 Sr0 2.689171 1_545
O10 Sr0 2.689171 1_556
O10 Sr1 2.689171 1_556
O10 Sr1 2.689171 1_545
