# generated using pymatgen
data_Ba2Si3GeO10
_symmetry_space_group_name_H-M   'P 1'
_cell_length_a   4.74106705
_cell_length_b   7.87397519
_cell_length_c   13.85494600
_cell_angle_alpha   90.00000000
_cell_angle_beta   90.00000000
_cell_angle_gamma   90.02045534
_symmetry_Int_Tables_number   1
_chemical_formula_structural   Ba2Si3GeO10
_chemical_formula_sum   'Ba4 Si6 Ge2 O20'
_cell_volume   517.21956961
_cell_formula_units_Z   2
loop_
 _symmetry_equiv_pos_site_id
 _symmetry_equiv_pos_as_xyz
  1  'x, y, z'
loop_
 _atom_site_type_symbol
 _atom_site_label
 _atom_site_symmetry_multiplicity
 _atom_site_fract_x
 _atom_site_fract_y
 _atom_site_fract_z
 _atom_site_occupancy
  Ba  Ba0  1  0.21487700  0.25061000  0.54476900  1
  Ba  Ba1  1  0.28512300  0.24939000  0.04476900  1
  Ba  Ba2  1  0.77960800  0.75527300  0.45723200  1
  Ba  Ba3  1  0.72039200  0.74472700  0.95723200  1
  Si  Si0  1  0.85374200  0.55026900  0.18033000  1
  Si  Si1  1  0.64625800  0.94973100  0.68033000  1
  Si  Si2  1  0.85472900  0.95374200  0.18317000  1
  Si  Si3  1  0.64527100  0.54625800  0.68317000  1
  Si  Si4  1  0.14498300  0.45857400  0.81653000  1
  Si  Si5  1  0.35501700  0.04142600  0.31653000  1
  Ge  Ge0  1  0.14953700  0.04370100  0.81738700  1
  Ge  Ge1  1  0.35046300  0.45629900  0.31738700  1
  O  O0  1  0.34528500  0.04676800  0.70776000  1
  O  O1  1  0.15471500  0.45323200  0.20776000  1
  O  O2  1  0.67546000  0.55323200  0.28316900  1
  O  O3  1  0.82454000  0.94676800  0.78316900  1
  O  O4  1  0.65274900  0.95066800  0.28073600  1
  O  O5  1  0.84725100  0.54933200  0.78073600  1
  O  O6  1  0.34659800  0.45614500  0.71895000  1
  O  O7  1  0.15340200  0.04385500  0.21895000  1
  O  O8  1  0.26763900  0.95308500  0.92176200  1
  O  O9  1  0.23236100  0.54691500  0.42176200  1
  O  O10  1  0.72769500  0.46240300  0.08624000  1
  O  O11  1  0.77230500  0.03759700  0.58624000  1
  O  O12  1  0.74011900  0.04469600  0.08843400  1
  O  O13  1  0.75988100  0.45530400  0.58843400  1
  O  O14  1  0.26159300  0.54876800  0.91148500  1
  O  O15  1  0.23840700  0.95123200  0.41148500  1
  O  O16  1  0.06749600  0.25929700  0.84452000  1
  O  O17  1  0.43250400  0.24070300  0.34452000  1
  O  O18  1  0.92509500  0.75220700  0.15752600  1
  O  O19  1  0.57490500  0.74779300  0.65752600  1
loop_
_geom_bond_atom_site_label_1
_geom_bond_atom_site_label_2
_geom_bond_distance
_geom_bond_site_symmetry_2
Ba0 O11 2.746550 1_455
Ba0 O13 2.760363 1_455
Ba0 O0 2.838795 1_555
Ba0 O9 2.890427 1_555
Ba0 O17 2.961120 1_555
Ba0 O6 2.971916 1_555
Ba0 O15 2.996592 1_545
Ba0 O13 3.104403 1_555
Ba0 O11 3.182910 1_555
Ba1 O10 2.746550 1_555
Ba1 O12 2.760363 1_555
Ba1 O1 2.838795 1_555
Ba1 O8 2.890427 1_544
Ba1 O16 2.961120 1_554
Ba1 O7 2.971916 1_555
Ba1 O14 2.996592 1_554
Ba1 O12 3.104403 1_455
Ba1 O10 3.182910 1_455
Ba2 O15 2.740728 1_655
Ba2 O9 2.746491 1_655
Ba2 O11 2.852688 1_565
Ba2 O2 2.930884 1_555
Ba2 O19 2.940458 1_555
Ba2 O4 2.951134 1_555
Ba2 O13 2.981908 1_555
Ba2 O15 3.060886 1_555
Ba2 O9 3.108322 1_555
Ba3 O14 2.740728 1_555
Ba3 O8 2.746491 1_555
Ba3 O10 2.852688 1_556
Ba3 O3 2.930884 1_555
Ba3 O18 2.940458 1_556
Ba3 O5 2.951134 1_555
Ba3 O12 2.981908 1_566
Ba3 O14 3.060886 1_655
Ba3 O8 3.108322 1_655
Ge0 O8 1.707084 1_545
Ge0 O0 1.780123 1_555
Ge0 O16 1.781831 1_555
Ge0 O3 1.783433 1_445
Ge1 O9 1.707084 1_555
Ge1 O1 1.780123 1_555
Ge1 O17 1.781831 1_555
Ge1 O2 1.783433 1_555
O0 Si1 1.662873 1_545
O1 Si0 1.662873 1_455
O2 Si0 1.656846 1_555
O3 Si1 1.656846 1_555
O4 Si2 1.656760 1_555
O4 Si5 1.658274 1_565
O5 Si3 1.656760 1_555
O5 Si4 1.658274 1_655
O6 Si4 1.655862 1_555
O6 Si3 1.659405 1_555
O7 Si5 1.655862 1_555
O7 Si2 1.659405 1_445
O10 Si0 1.592135 1_555
O11 Si1 1.592135 1_545
O12 Si2 1.590991 1_545
O13 Si3 1.590991 1_555
O14 Si4 1.593903 1_555
O15 Si5 1.593903 1_565
O16 Si4 1.657414 1_555
O17 Si5 1.657414 1_555
O18 Si0 1.655945 1_555
O18 Si2 1.660151 1_555
O19 Si1 1.655945 1_555
O19 Si3 1.660151 1_555
