# generated using pymatgen
data_Rb2Hg3(GeS4)2
_symmetry_space_group_name_H-M   'P 1'
_cell_length_a   6.52644700
_cell_length_b   10.16372700
_cell_length_c   13.47110309
_cell_angle_alpha   82.14866799
_cell_angle_beta   90.00000000
_cell_angle_gamma   90.00000000
_symmetry_Int_Tables_number   1
_chemical_formula_structural   Rb2Hg3(GeS4)2
_chemical_formula_sum   'Rb4 Hg6 Ge4 S16'
_cell_volume   885.20248553
_cell_formula_units_Z   2
loop_
 _symmetry_equiv_pos_site_id
 _symmetry_equiv_pos_as_xyz
  1  'x, y, z'
loop_
 _atom_site_type_symbol
 _atom_site_label
 _atom_site_symmetry_multiplicity
 _atom_site_fract_x
 _atom_site_fract_y
 _atom_site_fract_z
 _atom_site_occupancy
  Rb  Rb0  1  0.16373500  0.22020200  0.69261200  1
  Rb  Rb1  1  0.83626500  0.77979800  0.30738800  1
  Rb  Rb2  1  0.66373500  0.77979800  0.80738800  1
  Rb  Rb3  1  0.33626500  0.22020200  0.19261200  1
  Hg  Hg0  1  0.20585300  0.50205600  0.88220700  1
  Hg  Hg1  1  0.79414700  0.49794400  0.11779300  1
  Hg  Hg2  1  0.70585300  0.49794400  0.61779300  1
  Hg  Hg3  1  0.29414700  0.50205600  0.38220700  1
  Hg  Hg4  1  0.50000000  0.00000000  0.50000000  1
  Hg  Hg5  1  0.00000000  0.00000000  0.00000000  1
  Ge  Ge0  1  0.18399200  0.71746200  0.57506100  1
  Ge  Ge1  1  0.81600800  0.28253800  0.42493900  1
  Ge  Ge2  1  0.68399200  0.28253800  0.92493900  1
  Ge  Ge3  1  0.31600800  0.71746200  0.07506100  1
  S  S0  1  0.84006300  0.72674600  0.57393100  1
  S  S1  1  0.15993700  0.27325400  0.42606900  1
  S  S2  1  0.34006300  0.27325400  0.92606900  1
  S  S3  1  0.65993700  0.72674600  0.07393100  1
  S  S4  1  0.30705100  0.54196300  0.67136700  1
  S  S5  1  0.69294900  0.45803700  0.32863300  1
  S  S6  1  0.80705100  0.45803700  0.82863300  1
  S  S7  1  0.19294900  0.54196300  0.17136700  1
  S  S8  1  0.28306300  0.90890300  0.63397700  1
  S  S9  1  0.71693700  0.09109700  0.36602300  1
  S  S10  1  0.78306300  0.09109700  0.86602300  1
  S  S11  1  0.21693700  0.90890300  0.13397700  1
  S  S12  1  0.19543000  0.73587900  0.91716600  1
  S  S13  1  0.80457000  0.26412100  0.08283400  1
  S  S14  1  0.69543000  0.26412100  0.58283400  1
  S  S15  1  0.30457000  0.73587900  0.41716600  1
loop_
_geom_bond_atom_site_label_1
_geom_bond_atom_site_label_2
_geom_bond_distance
_geom_bond_site_symmetry_2
Rb0 S4 3.375778 1_555
Rb0 S14 3.398122 1_455
Rb0 S8 3.453090 1_545
Rb0 S2 3.459611 1_555
Rb0 S10 3.537494 1_455
Rb0 S1 3.557389 1_555
Rb0 S14 3.774559 1_555
Rb1 S5 3.375778 1_555
Rb1 S15 3.398122 1_655
Rb1 S9 3.453090 1_565
Rb1 S3 3.459611 1_555
Rb1 S11 3.537494 1_655
Rb1 S0 3.557389 1_555
Rb1 S15 3.774559 1_555
Rb2 S6 3.375778 1_555
Rb2 S12 3.398122 1_555
Rb2 S10 3.453090 1_565
Rb2 S0 3.459611 1_555
Rb2 S8 3.537494 1_555
Rb2 S3 3.557389 1_556
Rb2 S12 3.774559 1_655
Rb3 S7 3.375778 1_555
Rb3 S13 3.398122 1_555
Rb3 S11 3.453090 1_545
Rb3 S1 3.459611 1_555
Rb3 S9 3.537494 1_555
Rb3 S2 3.557389 1_554
Rb3 S13 3.774559 1_455
Hg0 S2 2.479680 1_555
Hg0 S12 2.485959 1_555
Hg0 S6 2.753832 1_455
Hg0 S4 2.890155 1_555
Hg1 S3 2.479680 1_555
Hg1 S13 2.485959 1_555
Hg1 S7 2.753832 1_655
Hg1 S5 2.890155 1_555
Hg2 S0 2.479680 1_555
Hg2 S14 2.485959 1_555
Hg2 S4 2.753832 1_555
Hg2 S6 2.890155 1_555
Hg3 S1 2.479680 1_555
Hg3 S15 2.485959 1_555
Hg3 S5 2.753832 1_555
Hg3 S7 2.890155 1_555
Hg4 S9 2.379634 1_555
Hg4 S8 2.379634 1_545
Hg5 S11 2.379634 1_545
Hg5 S10 2.379634 1_454
Ge0 S4 2.208525 1_555
Ge0 S0 2.246581 1_455
Ge0 S15 2.251613 1_555
Ge0 S8 2.292561 1_555
Ge1 S5 2.208525 1_555
Ge1 S1 2.246581 1_655
Ge1 S14 2.251613 1_555
Ge1 S9 2.292561 1_555
Ge2 S6 2.208525 1_555
Ge2 S2 2.246581 1_555
Ge2 S13 2.251613 1_556
Ge2 S10 2.292561 1_555
Ge3 S7 2.208525 1_555
Ge3 S3 2.246581 1_555
Ge3 S12 2.251613 1_554
Ge3 S11 2.292561 1_555
