# generated using pymatgen
data_CaCoN2
_symmetry_space_group_name_H-M   'P 1'
_cell_length_a   8.33822200
_cell_length_b   8.70609600
_cell_length_c   11.77061500
_cell_angle_alpha   90.00000000
_cell_angle_beta   90.00000000
_cell_angle_gamma   90.00000000
_symmetry_Int_Tables_number   1
_chemical_formula_structural   CaCoN2
_chemical_formula_sum   'Ca8 Co8 N16'
_cell_volume   854.46850626
_cell_formula_units_Z   8
loop_
 _symmetry_equiv_pos_site_id
 _symmetry_equiv_pos_as_xyz
  1  'x, y, z'
loop_
 _atom_site_type_symbol
 _atom_site_label
 _atom_site_symmetry_multiplicity
 _atom_site_fract_x
 _atom_site_fract_y
 _atom_site_fract_z
 _atom_site_occupancy
  Ca  Ca0  1  0.61371000  0.92080600  0.67870000  1
  Ca  Ca1  1  0.11822800  0.05067500  0.66909700  1
  Ca  Ca2  1  0.61822800  0.55067500  0.83090300  1
  Ca  Ca3  1  0.11371000  0.42080600  0.82130000  1
  Ca  Ca4  1  0.38177200  0.05067500  0.16909700  1
  Ca  Ca5  1  0.88177200  0.55067500  0.33090300  1
  Ca  Ca6  1  0.88629000  0.92080600  0.17870000  1
  Ca  Ca7  1  0.38629000  0.42080600  0.32130000  1
  Co  Co0  1  0.15198600  0.34093400  0.51448300  1
  Co  Co1  1  0.85543500  0.65495200  0.00772300  1
  Co  Co2  1  0.84801400  0.84093400  0.48551700  1
  Co  Co3  1  0.34801400  0.34093400  0.01448300  1
  Co  Co4  1  0.35543500  0.15495200  0.49227700  1
  Co  Co5  1  0.14456500  0.15495200  0.99227700  1
  Co  Co6  1  0.65198600  0.84093400  0.98551700  1
  Co  Co7  1  0.64456500  0.65495200  0.50772300  1
  N  N0  1  0.09999200  0.07365300  0.11199100  1
  N  N1  1  0.12177700  0.44134500  0.39988800  1
  N  N2  1  0.37822300  0.44134500  0.89988800  1
  N  N3  1  0.61243100  0.63688800  0.64130600  1
  N  N4  1  0.11243100  0.13688800  0.85869400  1
  N  N5  1  0.87822300  0.94134500  0.60011200  1
  N  N6  1  0.59999200  0.57365300  0.38800900  1
  N  N7  1  0.90000800  0.57365300  0.88800900  1
  N  N8  1  0.40000800  0.07365300  0.61199100  1
  N  N9  1  0.42629600  0.32321500  0.13939200  1
  N  N10  1  0.38756900  0.13688800  0.35869400  1
  N  N11  1  0.57370400  0.82321500  0.86060800  1
  N  N12  1  0.62177700  0.94134500  0.10011200  1
  N  N13  1  0.92629600  0.82321500  0.36060800  1
  N  N14  1  0.88756900  0.63688800  0.14130600  1
  N  N15  1  0.07370400  0.32321500  0.63939200  1
loop_
_geom_bond_atom_site_label_1
_geom_bond_atom_site_label_2
_geom_bond_distance
_geom_bond_site_symmetry_2
Ca0 N11 2.327609 1_555
Ca0 N8 2.358487 1_565
Ca0 N5 2.398371 1_555
Ca0 N3 2.510722 1_555
Ca1 N4 2.355010 1_555
Ca1 N5 2.360126 1_445
Ca1 N15 2.426946 1_555
Ca1 N8 2.451977 1_555
Ca2 N3 2.355010 1_555
Ca2 N2 2.360126 1_555
Ca2 N11 2.426946 1_555
Ca2 N7 2.451977 1_555
Ca3 N15 2.327609 1_555
Ca3 N7 2.358487 1_455
Ca3 N2 2.398371 1_555
Ca3 N4 2.510722 1_555
Ca4 N10 2.355010 1_555
Ca4 N12 2.360126 1_545
Ca4 N9 2.426946 1_555
Ca4 N0 2.451977 1_555
Ca5 N14 2.355010 1_555
Ca5 N1 2.360126 1_655
Ca5 N13 2.426946 1_555
Ca5 N6 2.451977 1_555
Ca6 N13 2.327609 1_555
Ca6 N0 2.358487 1_665
Ca6 N12 2.398371 1_555
Ca6 N14 2.510722 1_555
Ca7 N9 2.327609 1_555
Ca7 N6 2.358487 1_555
Ca7 N1 2.398371 1_555
Ca7 N10 2.510722 1_555
Co0 N15 1.616016 1_555
Co0 N1 1.626978 1_555
Co1 N14 1.602755 1_555
Co1 N7 1.620090 1_554
Co2 N13 1.616016 1_555
Co2 N5 1.626978 1_555
Co3 N9 1.616016 1_555
Co3 N2 1.626978 1_554
Co4 N10 1.602755 1_555
Co4 N8 1.620090 1_555
Co5 N4 1.602755 1_555
Co5 N0 1.620090 1_556
Co6 N11 1.616016 1_555
Co6 N12 1.626978 1_556
Co7 N3 1.602755 1_555
Co7 N6 1.620090 1_555
