# generated using pymatgen
data_BaEu2O4
_symmetry_space_group_name_H-M   'P 1'
_cell_length_a   3.55807181
_cell_length_b   10.52052298
_cell_length_c   12.34841615
_cell_angle_alpha   90.09366490
_cell_angle_beta   90.00000000
_cell_angle_gamma   90.00000000
_symmetry_Int_Tables_number   1
_chemical_formula_structural   BaEu2O4
_chemical_formula_sum   'Ba4 Eu8 O16'
_cell_volume   462.23488101
_cell_formula_units_Z   4
loop_
 _symmetry_equiv_pos_site_id
 _symmetry_equiv_pos_as_xyz
  1  'x, y, z'
loop_
 _atom_site_type_symbol
 _atom_site_label
 _atom_site_symmetry_multiplicity
 _atom_site_fract_x
 _atom_site_fract_y
 _atom_site_fract_z
 _atom_site_occupancy
  Ba  Ba0  1  0.25000000  0.74698329  0.85133738  1
  Ba  Ba1  1  0.25000000  0.24805645  0.64867243  1
  Ba  Ba2  1  0.75000000  0.25207365  0.14837090  1
  Ba  Ba3  1  0.75000000  0.75225510  0.35124831  1
  Eu  Eu0  1  0.25000000  0.57714162  0.10928223  1
  Eu  Eu1  1  0.25000000  0.07883278  0.39027513  1
  Eu  Eu2  1  0.75000000  0.42117891  0.88999119  1
  Eu  Eu3  1  0.75000000  0.92189849  0.60994383  1
  Eu  Eu4  1  0.25000000  0.07562491  0.88787219  1
  Eu  Eu5  1  0.25000000  0.57570369  0.61294751  1
  Eu  Eu6  1  0.75000000  0.92397836  0.11261039  1
  Eu  Eu7  1  0.75000000  0.42457911  0.38741203  1
  O  O0  1  0.25000000  0.79108379  0.16962099  1
  O  O1  1  0.25000000  0.29256042  0.32968684  1
  O  O2  1  0.75000000  0.21004738  0.83100930  1
  O  O3  1  0.75000000  0.70826550  0.67060511  1
  O  O4  1  0.25000000  0.88047248  0.48529360  1
  O  O5  1  0.25000000  0.37859033  0.01372425  1
  O  O6  1  0.75000000  0.12052993  0.51500359  1
  O  O7  1  0.75000000  0.61723408  0.98330198  1
  O  O8  1  0.25000000  0.98242170  0.71567097  1
  O  O9  1  0.25000000  0.48203407  0.78592064  1
  O  O10  1  0.75000000  0.01945521  0.28422388  1
  O  O11  1  0.75000000  0.51911526  0.21547497  1
  O  O12  1  0.25000000  0.57034931  0.42540801  1
  O  O13  1  0.25000000  0.06922253  0.07500558  1
  O  O14  1  0.75000000  0.43014755  0.57495673  1
  O  O15  1  0.75000000  0.93016213  0.92513204  1
loop_
_geom_bond_atom_site_label_1
_geom_bond_atom_site_label_2
_geom_bond_distance
_geom_bond_site_symmetry_2
Ba0 O7 2.773264 1_455
Ba0 O7 2.773264 1_555
Ba0 O15 2.775510 1_455
Ba0 O15 2.775510 1_555
Ba0 O3 2.882474 1_455
Ba0 O3 2.882474 1_555
Ba0 O9 2.900826 1_555
Ba0 O8 2.992539 1_555
Ba1 O14 2.769323 1_555
Ba1 O14 2.769323 1_455
Ba1 O6 2.771681 1_455
Ba1 O6 2.771681 1_555
Ba1 O2 2.897825 1_455
Ba1 O2 2.897825 1_555
Ba1 O8 2.915803 1_545
Ba1 O9 2.986304 1_555
Ba2 O13 2.771388 1_555
Ba2 O13 2.771388 1_655
Ba2 O5 2.776383 1_555
Ba2 O5 2.776383 1_655
Ba2 O1 2.890716 1_655
Ba2 O1 2.890716 1_555
Ba2 O11 2.927771 1_555
Ba2 O10 2.969306 1_555
Ba3 O12 2.769787 1_555
Ba3 O12 2.769787 1_655
Ba3 O4 2.777963 1_555
Ba3 O4 2.777963 1_655
Ba3 O0 2.892236 1_555
Ba3 O0 2.892236 1_655
Ba3 O10 2.931689 1_565
Ba3 O11 2.968753 1_555
Eu0 O11 2.293425 1_555
Eu0 O11 2.293425 1_455
Eu0 O0 2.369747 1_555
Eu0 O5 2.397429 1_555
Eu0 O7 2.401060 1_554
Eu0 O7 2.401060 1_454
Eu1 O10 2.295100 1_455
Eu1 O10 2.295100 1_555
Eu1 O1 2.370892 1_555
Eu1 O6 2.393201 1_555
Eu1 O6 2.393201 1_455
Eu1 O4 2.395759 1_545
Eu2 O9 2.286711 1_555
Eu2 O9 2.286711 1_655
Eu2 O2 2.336444 1_555
Eu2 O7 2.360978 1_555
Eu2 O5 2.387982 1_656
Eu2 O5 2.387982 1_556
Eu3 O8 2.296122 1_555
Eu3 O8 2.296122 1_655
Eu3 O3 2.370233 1_555
Eu3 O4 2.392061 1_555
Eu3 O4 2.392061 1_655
Eu3 O6 2.397773 1_565
Eu4 O13 2.311892 1_556
Eu4 O8 2.340146 1_545
Eu4 O2 2.379328 1_455
Eu4 O2 2.379328 1_555
Eu4 O15 2.391844 1_445
Eu4 O15 2.391844 1_545
Eu5 O12 2.316409 1_555
Eu5 O9 2.353775 1_555
Eu5 O3 2.369304 1_455
Eu5 O3 2.369304 1_555
Eu5 O14 2.393253 1_455
Eu5 O14 2.393253 1_555
Eu6 O15 2.316081 1_554
Eu6 O10 2.343675 1_565
Eu6 O0 2.370344 1_555
Eu6 O0 2.370344 1_655
Eu6 O13 2.391200 1_565
Eu6 O13 2.391200 1_665
Eu7 O14 2.316525 1_555
Eu7 O11 2.346027 1_555
Eu7 O1 2.366199 1_555
Eu7 O1 2.366199 1_655
Eu7 O12 2.394707 1_555
Eu7 O12 2.394707 1_655
