# generated using pymatgen
data_Na6Al3Fe3(TeO6)4
_symmetry_space_group_name_H-M   'P 1'
_cell_length_a   10.67945305
_cell_length_b   10.67945806
_cell_length_c   10.67945806
_cell_angle_alpha   109.47122861
_cell_angle_beta   109.47122615
_cell_angle_gamma   109.47122615
_symmetry_Int_Tables_number   1
_chemical_formula_structural   Na6Al3Fe3(TeO6)4
_chemical_formula_sum   'Na12 Al6 Fe6 Te8 O48'
_cell_volume   937.61694470
_cell_formula_units_Z   2
loop_
 _symmetry_equiv_pos_site_id
 _symmetry_equiv_pos_as_xyz
  1  'x, y, z'
loop_
 _atom_site_type_symbol
 _atom_site_label
 _atom_site_symmetry_multiplicity
 _atom_site_fract_x
 _atom_site_fract_y
 _atom_site_fract_z
 _atom_site_occupancy
  Na  Na0  1  0.12581509  0.37581510  0.75000006  1
  Na  Na1  1  0.37418491  0.12418497  0.25000000  1
  Na  Na2  1  0.25000000  0.37418487  0.12418487  1
  Na  Na3  1  0.75000000  0.12581505  0.37581505  1
  Na  Na4  1  0.12418491  0.24999992  0.37418483  1
  Na  Na5  1  0.37581509  0.74999991  0.12581501  1
  Na  Na6  1  0.87581509  0.62581501  0.24999991  1
  Na  Na7  1  0.62418491  0.87418483  0.74999992  1
  Na  Na8  1  0.75000000  0.62418487  0.87418487  1
  Na  Na9  1  0.25000000  0.87581505  0.62581505  1
  Na  Na10  1  0.87418491  0.75000000  0.62418497  1
  Na  Na11  1  0.62581509  0.25000006  0.87581510  1
  Al  Al0  1  0.12499999  0.87500002  0.25000006  1
  Al  Al1  1  0.37500001  0.62500007  0.75000004  1
  Al  Al2  1  0.75000000  0.37499992  0.62499992  1
  Al  Al3  1  0.25000000  0.12499992  0.87499992  1
  Al  Al4  1  0.62499999  0.75000006  0.37500002  1
  Al  Al5  1  0.87500001  0.25000004  0.12500007  1
  Fe  Fe0  1  0.87500026  0.12500010  0.75000022  1
  Fe  Fe1  1  0.62499974  0.37499995  0.24999984  1
  Fe  Fe2  1  0.25000000  0.62499992  0.37499992  1
  Fe  Fe3  1  0.75000000  0.87499992  0.12499992  1
  Fe  Fe4  1  0.37500026  0.25000022  0.62500010  1
  Fe  Fe5  1  0.12499974  0.74999984  0.87499995  1
  Te  Te0  1  0.50219641  0.49999999  0.99999993  1
  Te  Te1  1  0.99999999  0.50219639  0.50000000  1
  Te  Te2  1  -0.00219641  -0.00219647  -0.00219641  1
  Te  Te3  1  0.50000001  0.00000001  0.50219641  1
  Te  Te4  1  0.00219641  0.49999993  0.99999999  1
  Te  Te5  1  0.49780359  0.49780359  0.49780353  1
  Te  Te6  1  0.00000001  0.00219641  0.50000001  1
  Te  Te7  1  0.49999999  1.00000000  0.00219639  1
  O  O0  1  0.38923870  0.57478806  0.89498135  1
  O  O1  1  0.17980675  0.49425747  0.60501893  1
  O  O2  1  0.11076130  0.00574265  0.18554936  1
  O  O3  1  0.32019325  0.92521218  0.31445072  1
  O  O4  1  0.18554933  0.11076131  0.00574269  1
  O  O5  1  0.31445067  0.32019336  0.92521198  1
  O  O6  1  0.89498107  0.38923860  0.57478771  1
  O  O7  1  0.60501893  0.17980664  0.49425753  1
  O  O8  1  0.92521210  0.31445071  0.32019324  1
  O  O9  1  0.00574262  0.18554929  0.11076144  1
  O  O10  1  0.49425738  0.60501882  0.17980667  1
  O  O11  1  0.57478790  0.89498115  0.38923862  1
  O  O12  1  0.61690873  0.42191223  0.09613278  1
  O  O13  1  0.82577881  0.52077514  0.40386627  1
  O  O14  1  0.88309127  0.97922405  0.80500251  1
  O  O15  1  0.67422119  0.07808745  0.69499733  1
  O  O16  1  0.80500289  0.88309162  0.97922454  1
  O  O17  1  0.69499711  0.67422066  0.07808773  1
  O  O18  1  0.09613366  0.61690923  0.42191248  1
  O  O19  1  0.40386634  0.82577882  0.52077557  1
  O  O20  1  0.07808745  0.69499729  0.67422111  1
  O  O21  1  0.97922403  0.80500232  0.88309158  1
  O  O22  1  0.52077597  0.40386754  0.82577928  1
  O  O23  1  0.42191255  0.09613365  0.61690884  1
  O  O24  1  0.81445067  0.42521198  0.82019336  1
  O  O25  1  0.68554933  0.50574269  0.61076131  1
  O  O26  1  0.10501893  0.99425753  0.67980664  1
  O  O27  1  0.39498107  0.07478771  0.88923860  1
  O  O28  1  0.07478790  0.88923862  0.39498115  1
  O  O29  1  0.99425738  0.67980667  0.10501882  1
  O  O30  1  0.50574262  0.61076144  0.68554929  1
  O  O31  1  0.42521210  0.82019324  0.81445071  1
  O  O32  1  0.61076130  0.68554936  0.50574265  1
  O  O33  1  0.82019325  0.81445072  0.42521218  1
  O  O34  1  0.88923870  0.39498135  0.07478806  1
  O  O35  1  0.67980675  0.10501893  0.99425747  1
  O  O36  1  0.19499711  0.57808773  0.17422066  1
  O  O37  1  0.30500289  0.47922454  0.38309162  1
  O  O38  1  0.90386634  0.02077557  0.32577882  1
  O  O39  1  0.59613366  0.92191248  0.11690923  1
  O  O40  1  0.92191255  0.11690884  0.59613365  1
  O  O41  1  0.02077597  0.32577928  0.90386754  1
  O  O42  1  0.47922403  0.38309158  0.30500232  1
  O  O43  1  0.57808745  0.17422111  0.19499729  1
  O  O44  1  0.38309127  0.30500251  0.47922405  1
  O  O45  1  0.17422119  0.19499733  0.57808745  1
  O  O46  1  0.11690873  0.59613278  0.92191223  1
  O  O47  1  0.32577881  0.90386627  0.02077514  1
loop_
_geom_bond_atom_site_label_1
_geom_bond_atom_site_label_2
_geom_bond_distance
_geom_bond_site_symmetry_2
Na0 O40 2.378795 1_455
Na0 O41 2.378800 1_555
Na0 O0 2.396733 1_555
Na0 O1 2.396733 1_555
Na0 O46 2.510279 1_555
Na0 O45 2.510281 1_555
Na0 O5 2.634042 1_555
Na0 O6 2.634046 1_455
Na1 O43 2.378788 1_555
Na1 O42 2.378803 1_555
Na1 O2 2.396733 1_555
Na1 O3 2.396733 1_545
Na1 O44 2.510274 1_555
Na1 O47 2.510287 1_545
Na1 O4 2.634042 1_555
Na1 O7 2.634046 1_555
Na2 O36 2.378793 1_555
Na2 O37 2.378803 1_555
Na2 O5 2.396734 1_554
Na2 O4 2.396734 1_555
Na2 O42 2.510271 1_555
Na2 O41 2.510276 1_554
Na2 O10 2.634044 1_555
Na2 O9 2.634044 1_555
Na3 O39 2.378792 1_545
Na3 O38 2.378792 1_555
Na3 O7 2.396733 1_555
Na3 O6 2.396733 1_555
Na3 O43 2.510280 1_555
Na3 O40 2.510286 1_555
Na3 O11 2.634045 1_545
Na3 O8 2.634045 1_555
Na4 O45 2.378789 1_555
Na4 O44 2.378799 1_555
Na4 O9 2.396732 1_555
Na4 O8 2.396733 1_455
Na4 O37 2.510278 1_555
Na4 O38 2.510283 1_455
Na4 O2 2.634042 1_555
Na4 O1 2.634046 1_555
Na5 O46 2.378796 1_554
Na5 O47 2.378796 1_555
Na5 O10 2.396732 1_555
Na5 O11 2.396733 1_555
Na5 O36 2.510276 1_555
Na5 O39 2.510283 1_555
Na5 O0 2.634042 1_554
Na5 O3 2.634046 1_555
Na6 O12 2.378796 1_555
Na6 O13 2.378796 1_555
Na6 O29 2.396732 1_555
Na6 O28 2.396733 1_655
Na6 O17 2.510276 1_555
Na6 O18 2.510283 1_655
Na6 O34 2.634042 1_555
Na6 O33 2.634046 1_555
Na7 O15 2.378789 1_565
Na7 O14 2.378799 1_555
Na7 O30 2.396732 1_555
Na7 O31 2.396733 1_555
Na7 O16 2.510278 1_555
Na7 O19 2.510283 1_555
Na7 O32 2.634042 1_555
Na7 O35 2.634046 1_565
Na8 O17 2.378793 1_556
Na8 O16 2.378803 1_555
Na8 O25 2.396734 1_555
Na8 O24 2.396734 1_555
Na8 O21 2.510271 1_555
Na8 O22 2.510276 1_555
Na8 O29 2.634044 1_556
Na8 O30 2.634044 1_555
Na9 O19 2.378792 1_555
Na9 O18 2.378792 1_555
Na9 O26 2.396733 1_555
Na9 O27 2.396733 1_565
Na9 O20 2.510280 1_555
Na9 O23 2.510286 1_565
Na9 O28 2.634045 1_555
Na9 O31 2.634045 1_555
Na10 O20 2.378788 1_655
Na10 O21 2.378803 1_555
Na10 O32 2.396733 1_555
Na10 O33 2.396733 1_555
Na10 O14 2.510274 1_555
Na10 O13 2.510287 1_555
Na10 O25 2.634042 1_555
Na10 O26 2.634046 1_655
Na11 O23 2.378795 1_555
Na11 O22 2.378800 1_555
Na11 O34 2.396733 1_556
Na11 O35 2.396733 1_555
Na11 O12 2.510279 1_556
Na11 O15 2.510281 1_555
Na11 O24 2.634042 1_555
Na11 O27 2.634046 1_555
Al0 O3 1.777323 1_555
Al0 O28 1.777324 1_555
Al0 O29 1.777325 1_455
Al0 O2 1.777326 1_565
Al1 O1 1.777323 1_555
Al1 O31 1.777324 1_555
Al1 O30 1.777325 1_555
Al1 O0 1.777325 1_555
Al2 O7 1.777324 1_555
Al2 O6 1.777324 1_555
Al2 O24 1.777326 1_555
Al2 O25 1.777326 1_555
Al3 O27 1.777324 1_555
Al3 O26 1.777324 1_545
Al3 O4 1.777326 1_556
Al3 O5 1.777326 1_555
Al4 O33 1.777323 1_555
Al4 O11 1.777324 1_555
Al4 O10 1.777325 1_555
Al4 O32 1.777326 1_555
Al5 O35 1.777323 1_554
Al5 O8 1.777324 1_555
Al5 O9 1.777325 1_655
Al5 O34 1.777325 1_555
Fe0 O14 1.855165 1_545
Fe0 O40 1.855166 1_555
Fe0 O15 1.855167 1_555
Fe0 O41 1.855170 1_655
Fe1 O42 1.855164 1_555
Fe1 O13 1.855166 1_555
Fe1 O43 1.855167 1_555
Fe1 O12 1.855171 1_555
Fe2 O37 1.855164 1_555
Fe2 O19 1.855166 1_555
Fe2 O18 1.855166 1_555
Fe2 O36 1.855171 1_555
Fe3 O16 1.855164 1_554
Fe3 O39 1.855166 1_555
Fe3 O38 1.855166 1_565
Fe3 O17 1.855171 1_555
Fe4 O44 1.855165 1_555
Fe4 O23 1.855166 1_555
Fe4 O45 1.855167 1_555
Fe4 O22 1.855170 1_555
Fe5 O21 1.855164 1_455
Fe5 O47 1.855166 1_556
Fe5 O20 1.855167 1_555
Fe5 O46 1.855171 1_555
O0 Te0 1.920556 1_555
O1 Te1 1.920557 1_455
O2 Te2 1.920556 1_555
O3 Te3 1.920557 1_565
O4 Te2 1.920556 1_555
O5 Te0 1.920556 1_555
O6 Te1 1.920556 1_555
O7 Te3 1.920556 1_555
O8 Te1 1.920557 1_555
O9 Te2 1.920557 1_555
O10 Te0 1.920557 1_554
O11 Te3 1.920557 1_565
O12 Te0 1.914058 1_554
O13 Te1 1.914060 1_555
O14 Te2 1.914066 1_666
O15 Te3 1.914066 1_555
O16 Te2 1.914063 1_666
O17 Te0 1.914061 1_554
O18 Te1 1.914063 1_455
O19 Te3 1.914063 1_565
O20 Te1 1.914066 1_455
O21 Te2 1.914066 1_666
O22 Te0 1.914058 1_555
O23 Te3 1.914060 1_555
O24 Te4 1.920556 1_655
O25 Te5 1.920556 1_555
O26 Te6 1.920556 1_565
O27 Te7 1.920556 1_546
O28 Te6 1.920557 1_565
O29 Te4 1.920557 1_654
O30 Te5 1.920557 1_555
O31 Te7 1.920557 1_556
O32 Te5 1.920556 1_555
O33 Te6 1.920557 1_665
O34 Te4 1.920556 1_654
O35 Te7 1.920557 1_546
O36 Te4 1.914061 1_554
O37 Te5 1.914063 1_555
O38 Te6 1.914063 1_655
O39 Te7 1.914063 1_555
O40 Te6 1.914060 1_655
O41 Te4 1.914058 1_555
O42 Te5 1.914066 1_555
O43 Te7 1.914066 1_545
O44 Te5 1.914066 1_555
O45 Te6 1.914066 1_555
O46 Te4 1.914058 1_555
O47 Te7 1.914060 1_555
