# generated using pymatgen
data_Li9Mn2Co5O16
_symmetry_space_group_name_H-M   'P 1'
_cell_length_a   5.71341000
_cell_length_b   5.91754094
_cell_length_c   10.11328902
_cell_angle_alpha   88.49417735
_cell_angle_beta   106.38828494
_cell_angle_gamma   118.61676752
_symmetry_Int_Tables_number   1
_chemical_formula_structural   Li9Mn2Co5O16
_chemical_formula_sum   'Li9 Mn2 Co5 O16'
_cell_volume   285.54484847
_cell_formula_units_Z   1
loop_
 _symmetry_equiv_pos_site_id
 _symmetry_equiv_pos_as_xyz
  1  'x, y, z'
loop_
 _atom_site_type_symbol
 _atom_site_label
 _atom_site_symmetry_multiplicity
 _atom_site_fract_x
 _atom_site_fract_y
 _atom_site_fract_z
 _atom_site_occupancy
  Li  Li0  1  0.50032100  0.25283600  0.24639200  1
  Li  Li1  1  0.00207700  0.75201000  0.75470500  1
  Li  Li2  1  0.99340800  0.74498700  0.24690800  1
  Li  Li3  1  0.49504700  0.24615400  0.75013400  1
  Li  Li4  1  0.50495300  0.75384600  0.24986600  1
  Li  Li5  1  0.00659200  0.25501300  0.75309200  1
  Li  Li6  1  0.99792300  0.24799000  0.24529500  1
  Li  Li7  1  0.49967900  0.74716400  0.75360800  1
  Li  Li8  1  0.50000000  0.50000000  0.00000000  1
  Mn  Mn0  1  0.00000000  0.00000000  0.00000000  1
  Mn  Mn1  1  0.00000000  0.50000000  0.50000000  1
  Co  Co0  1  0.50000000  0.50000000  0.50000000  1
  Co  Co1  1  0.00000000  0.00000000  0.50000000  1
  Co  Co2  1  0.00000000  0.50000000  0.00000000  1
  Co  Co3  1  0.50000000  0.00000000  0.50000000  1
  Co  Co4  1  0.50000000  0.00000000  0.00000000  1
  O  O0  1  0.25041100  0.88880000  0.11533000  1
  O  O1  1  0.74966200  0.39216100  0.61643700  1
  O  O2  1  0.78050400  0.39318800  0.11124700  1
  O  O3  1  0.26513600  0.89214600  0.61664200  1
  O  O4  1  0.21478100  0.34181900  0.10620800  1
  O  O5  1  0.74104300  0.87993800  0.61171700  1
  O  O6  1  0.74425600  0.89190000  0.11144700  1
  O  O7  1  0.23931200  0.37724200  0.61943100  1
  O  O8  1  0.76068800  0.62275800  0.38056900  1
  O  O9  1  0.25574400  0.10810000  0.88855300  1
  O  O10  1  0.25895700  0.12006200  0.38828300  1
  O  O11  1  0.78521900  0.65818100  0.89379200  1
  O  O12  1  0.73486400  0.10785400  0.38335800  1
  O  O13  1  0.21949600  0.60681200  0.88875300  1
  O  O14  1  0.25033800  0.60783900  0.38356300  1
  O  O15  1  0.74958900  0.11120000  0.88467000  1
loop_
_geom_bond_atom_site_label_1
_geom_bond_atom_site_label_2
_geom_bond_distance
_geom_bond_site_symmetry_2
Li0 O4 2.104088 1_555
Li0 O12 2.107571 1_555
Li0 O0 2.138207 1_545
Li0 O10 2.144225 1_555
Li0 O8 2.178049 1_555
Li0 O2 2.240937 1_555
Li1 O11 2.026187 1_455
Li1 O13 2.032251 1_555
Li1 O9 2.119087 1_565
Li1 O1 2.155570 1_455
Li1 O5 2.166895 1_455
Li1 O3 2.196726 1_555
Li2 O8 2.039583 1_555
Li2 O2 2.116245 1_555
Li2 O0 2.120642 1_655
Li2 O14 2.158930 1_655
Li2 O6 2.163642 1_555
Li2 O10 2.233702 1_665
Li3 O7 2.103763 1_555
Li3 O9 2.108640 1_555
Li3 O3 2.109161 1_545
Li3 O1 2.129671 1_555
Li3 O15 2.131386 1_555
Li3 O11 2.399805 1_555
Li4 O8 2.103763 1_555
Li4 O6 2.108640 1_555
Li4 O12 2.109161 1_565
Li4 O14 2.129671 1_555
Li4 O0 2.131386 1_555
Li4 O4 2.399805 1_555
Li5 O7 2.039583 1_555
Li5 O13 2.116245 1_555
Li5 O15 2.120642 1_455
Li5 O1 2.158930 1_455
Li5 O9 2.163642 1_555
Li5 O5 2.233702 1_445
Li6 O4 2.026187 1_655
Li6 O2 2.032251 1_555
Li6 O6 2.119087 1_545
Li6 O14 2.155570 1_655
Li6 O10 2.166895 1_655
Li6 O12 2.196726 1_555
Li7 O11 2.104088 1_555
Li7 O3 2.107571 1_555
Li7 O15 2.138207 1_565
Li7 O5 2.144225 1_555
Li7 O7 2.178049 1_555
Li7 O13 2.240937 1_555
Li8 O13 2.036962 1_554
Li8 O2 2.036962 1_555
Li8 O4 2.039395 1_555
Li8 O11 2.039395 1_554
Li8 O6 2.178465 1_555
Li8 O9 2.178465 1_554
Mn0 O4 1.934879 1_555
Mn0 O11 1.934879 1_444
Mn0 O0 1.939109 1_545
Mn0 O15 1.939109 1_454
Mn0 O6 1.952088 1_445
Mn0 O9 1.952088 1_554
Mn1 O8 1.956896 1_455
Mn1 O7 1.956896 1_555
Mn1 O14 1.968807 1_555
Mn1 O1 1.968807 1_455
Mn1 O3 2.199873 1_555
Mn1 O12 2.199873 1_455
Co0 O1 1.926955 1_555
Co0 O14 1.926955 1_555
Co0 O8 2.034102 1_555
Co0 O7 2.034102 1_555
Co0 O5 2.125444 1_555
Co0 O10 2.125444 1_555
Co1 O5 1.965823 1_445
Co1 O10 1.965823 1_555
Co1 O12 1.992929 1_455
Co1 O3 1.992929 1_545
Co1 O7 2.144242 1_555
Co1 O8 2.144242 1_445
Co2 O13 1.799306 1_554
Co2 O2 1.799306 1_455
Co2 O4 1.959442 1_555
Co2 O11 1.959442 1_454
Co2 O15 2.178768 1_454
Co2 O0 2.178768 1_555
Co3 O3 1.905989 1_545
Co3 O12 1.905989 1_555
Co3 O10 1.922222 1_555
Co3 O5 1.922222 1_545
Co3 O14 2.198091 1_545
Co3 O1 2.198091 1_555
Co4 O6 1.885925 1_545
Co4 O9 1.885925 1_554
Co4 O15 1.956085 1_554
Co4 O0 1.956085 1_545
Co4 O13 2.189986 1_544
Co4 O2 2.189986 1_555
