# generated using pymatgen
data_CaNd2BeO5
_symmetry_space_group_name_H-M   'P 1'
_cell_length_a   6.53092200
_cell_length_b   7.21060300
_cell_length_c   9.52218200
_cell_angle_alpha   90.00000000
_cell_angle_beta   90.00000000
_cell_angle_gamma   90.00000000
_symmetry_Int_Tables_number   1
_chemical_formula_structural   CaNd2BeO5
_chemical_formula_sum   'Ca4 Nd8 Be4 O20'
_cell_volume   448.41750699
_cell_formula_units_Z   4
loop_
 _symmetry_equiv_pos_site_id
 _symmetry_equiv_pos_as_xyz
  1  'x, y, z'
loop_
 _atom_site_type_symbol
 _atom_site_label
 _atom_site_symmetry_multiplicity
 _atom_site_fract_x
 _atom_site_fract_y
 _atom_site_fract_z
 _atom_site_occupancy
  Ca  Ca0  1  0.57832400  0.97954500  0.67573400  1
  Ca  Ca1  1  0.42167600  0.47954500  0.32426600  1
  Ca  Ca2  1  0.07832400  0.47954500  0.82426600  1
  Ca  Ca3  1  0.92167600  0.97954500  0.17573400  1
  Nd  Nd0  1  0.09764100  0.74565500  0.52369200  1
  Nd  Nd1  1  0.40235900  0.74565500  0.02369200  1
  Nd  Nd2  1  0.90235900  0.24565500  0.47630800  1
  Nd  Nd3  1  0.59764100  0.24565500  0.97630800  1
  Nd  Nd4  1  0.92694000  0.52721100  0.17211200  1
  Nd  Nd5  1  0.07306000  0.02721100  0.82788800  1
  Nd  Nd6  1  0.42694000  0.02721100  0.32788800  1
  Nd  Nd7  1  0.57306000  0.52721100  0.67211200  1
  Be  Be0  1  0.69294500  0.74851300  0.39658800  1
  Be  Be1  1  0.80705500  0.74851300  0.89658800  1
  Be  Be2  1  0.30705500  0.24851300  0.60341200  1
  Be  Be3  1  0.19294500  0.24851300  0.10341200  1
  O  O0  1  0.16699700  0.74901500  0.27415200  1
  O  O1  1  0.33300300  0.74901500  0.77415200  1
  O  O2  1  0.83300300  0.24901500  0.72584800  1
  O  O3  1  0.66699700  0.24901500  0.22584800  1
  O  O4  1  0.01945000  0.75048300  0.98882100  1
  O  O5  1  0.48055000  0.75048300  0.48882100  1
  O  O6  1  0.98055000  0.25048300  0.01117900  1
  O  O7  1  0.51945000  0.25048300  0.51117900  1
  O  O8  1  0.64041800  0.75032700  0.22325400  1
  O  O9  1  0.85958200  0.75032700  0.72325400  1
  O  O10  1  0.35958200  0.25032700  0.77674600  1
  O  O11  1  0.14041800  0.25032700  0.27674600  1
  O  O12  1  0.31221400  0.05717600  0.07073000  1
  O  O13  1  0.19305700  0.44207500  0.57282500  1
  O  O14  1  0.68778600  0.55717600  0.92927000  1
  O  O15  1  0.80694300  0.94207500  0.42717500  1
  O  O16  1  0.69305700  0.94207500  0.92717500  1
  O  O17  1  0.81221400  0.55717600  0.42927000  1
  O  O18  1  0.30694300  0.44207500  0.07282500  1
  O  O19  1  0.18778600  0.05717600  0.57073000  1
loop_
_geom_bond_atom_site_label_1
_geom_bond_atom_site_label_2
_geom_bond_distance
_geom_bond_site_symmetry_2
Ca0 O1 2.491651 1_555
Ca0 O5 2.510685 1_555
Ca0 O9 2.512092 1_555
Ca0 O16 2.523288 1_555
Ca0 O7 2.533721 1_565
Ca0 O2 2.601856 1_565
Ca0 O10 2.603514 1_565
Ca0 O19 2.796157 1_565
Ca0 O15 2.811437 1_555
Ca1 O3 2.491651 1_555
Ca1 O7 2.510685 1_555
Ca1 O11 2.512092 1_555
Ca1 O18 2.523288 1_555
Ca1 O5 2.533721 1_555
Ca1 O0 2.601856 1_555
Ca1 O8 2.603514 1_555
Ca1 O17 2.796157 1_555
Ca1 O13 2.811437 1_555
Ca2 O2 2.491651 1_455
Ca2 O6 2.510685 1_456
Ca2 O10 2.512092 1_555
Ca2 O13 2.523288 1_555
Ca2 O4 2.533721 1_555
Ca2 O1 2.601856 1_555
Ca2 O9 2.603514 1_455
Ca2 O14 2.796157 1_455
Ca2 O18 2.811437 1_556
Ca3 O0 2.491651 1_655
Ca3 O4 2.510685 1_654
Ca3 O8 2.512092 1_555
Ca3 O15 2.523288 1_555
Ca3 O6 2.533721 1_565
Ca3 O3 2.601856 1_565
Ca3 O11 2.603514 1_665
Ca3 O12 2.796157 1_665
Ca3 O16 2.811437 1_554
Nd0 O13 2.323555 1_555
Nd0 O19 2.364927 1_565
Nd0 O0 2.419074 1_555
Nd0 O9 2.455479 1_455
Nd0 O17 2.475938 1_455
Nd0 O5 2.522937 1_555
Nd0 O15 2.540666 1_455
Nd0 O1 2.837469 1_555
Nd1 O18 2.323555 1_555
Nd1 O12 2.364927 1_565
Nd1 O1 2.419074 1_554
Nd1 O8 2.455479 1_555
Nd1 O14 2.475938 1_554
Nd1 O4 2.522937 1_554
Nd1 O16 2.540666 1_554
Nd1 O0 2.837469 1_555
Nd2 O15 2.323555 1_545
Nd2 O17 2.364927 1_555
Nd2 O2 2.419074 1_555
Nd2 O11 2.455479 1_655
Nd2 O19 2.475938 1_655
Nd2 O7 2.522937 1_555
Nd2 O13 2.540666 1_655
Nd2 O3 2.837469 1_555
Nd3 O16 2.323555 1_545
Nd3 O14 2.364927 1_555
Nd3 O3 2.419074 1_556
Nd3 O10 2.455479 1_555
Nd3 O12 2.475938 1_556
Nd3 O6 2.522937 1_556
Nd3 O18 2.540666 1_556
Nd3 O2 2.837469 1_555
Nd4 O0 2.441303 1_655
Nd4 O4 2.450116 1_654
Nd4 O8 2.515349 1_555
Nd4 O6 2.540170 1_555
Nd4 O17 2.569872 1_555
Nd4 O11 2.631071 1_655
Nd4 O3 2.677270 1_555
Nd4 O18 2.725779 1_655
Nd4 O14 2.798809 1_554
Nd5 O2 2.441303 1_455
Nd5 O6 2.450116 1_456
Nd5 O10 2.515349 1_555
Nd5 O4 2.540170 1_545
Nd5 O19 2.569872 1_555
Nd5 O9 2.631071 1_445
Nd5 O1 2.677270 1_545
Nd5 O16 2.725779 1_445
Nd5 O12 2.798809 1_556
Nd6 O3 2.441303 1_555
Nd6 O7 2.450116 1_555
Nd6 O11 2.515349 1_555
Nd6 O5 2.540170 1_545
Nd6 O12 2.569872 1_555
Nd6 O8 2.631071 1_545
Nd6 O0 2.677270 1_545
Nd6 O15 2.725779 1_545
Nd6 O19 2.798809 1_555
Nd7 O1 2.441303 1_555
Nd7 O5 2.450116 1_555
Nd7 O9 2.515349 1_555
Nd7 O7 2.540170 1_555
Nd7 O14 2.569872 1_555
Nd7 O10 2.631071 1_555
Nd7 O2 2.677270 1_555
Nd7 O13 2.725779 1_555
Nd7 O17 2.798809 1_555
Be0 O15 1.608447 1_555
Be0 O17 1.614633 1_555
Be0 O5 1.641854 1_555
Be0 O8 1.685842 1_555
Be1 O16 1.608447 1_555
Be1 O14 1.614633 1_555
Be1 O4 1.641854 1_655
Be1 O9 1.685842 1_555
Be2 O13 1.608447 1_555
Be2 O19 1.614633 1_555
Be2 O7 1.641854 1_555
Be2 O10 1.685842 1_555
Be3 O18 1.608447 1_555
Be3 O12 1.614633 1_555
Be3 O6 1.641854 1_455
Be3 O11 1.685842 1_555
