# generated using pymatgen
data_Ba4GeN4
_symmetry_space_group_name_H-M   'P 1'
_cell_length_a   7.37035396
_cell_length_b   7.03870420
_cell_length_c   9.21744360
_cell_angle_alpha   73.99511635
_cell_angle_beta   81.21442426
_cell_angle_gamma   58.55573874
_symmetry_Int_Tables_number   1
_chemical_formula_structural   Ba4GeN4
_chemical_formula_sum   'Ba8 Ge2 N8'
_cell_volume   392.12215737
_cell_formula_units_Z   2
loop_
 _symmetry_equiv_pos_site_id
 _symmetry_equiv_pos_as_xyz
  1  'x, y, z'
loop_
 _atom_site_type_symbol
 _atom_site_label
 _atom_site_symmetry_multiplicity
 _atom_site_fract_x
 _atom_site_fract_y
 _atom_site_fract_z
 _atom_site_occupancy
  Ba  Ba0  1  0.76748400  0.65764300  0.12939600  1
  Ba  Ba1  1  0.23251600  0.34235700  0.87060400  1
  Ba  Ba2  1  0.72679300  0.24767300  0.94393400  1
  Ba  Ba3  1  0.27320700  0.75232700  0.05606600  1
  Ba  Ba4  1  0.70719800  0.56037600  0.54410200  1
  Ba  Ba5  1  0.29280200  0.43962400  0.45589800  1
  Ba  Ba6  1  0.17216400  0.93972000  0.63351700  1
  Ba  Ba7  1  0.82783600  0.06028000  0.36648300  1
  Ge  Ge0  1  0.76534300  0.87115100  0.75385500  1
  Ge  Ge1  1  0.23465700  0.12884900  0.24614500  1
  N  N0  1  0.96954000  0.68809800  0.61733000  1
  N  N1  1  0.03046000  0.31190200  0.38267000  1
  N  N2  1  0.96235800  0.80883200  0.90897600  1
  N  N3  1  0.03764200  0.19116800  0.09102400  1
  N  N4  1  0.55294100  0.78740400  0.83695400  1
  N  N5  1  0.44705900  0.21259600  0.16304600  1
  N  N6  1  0.34105900  0.81012400  0.34847100  1
  N  N7  1  0.65894100  0.18987600  0.65152900  1
loop_
_geom_bond_atom_site_label_1
_geom_bond_atom_site_label_2
_geom_bond_distance
_geom_bond_site_symmetry_2
Ba0 N2 2.614244 1_554
Ba0 N1 2.908125 1_655
Ba0 N3 2.911115 1_655
Ba0 N4 3.006368 1_554
Ba0 N6 3.293087 1_555
Ba0 N5 3.428001 1_565
Ba1 N3 2.614244 1_556
Ba1 N0 2.908125 1_455
Ba1 N2 2.911115 1_455
Ba1 N5 3.006368 1_556
Ba1 N7 3.293087 1_555
Ba1 N4 3.428001 1_545
Ba2 N3 2.635558 1_656
Ba2 N5 2.715668 1_556
Ba2 N2 2.728001 1_545
Ba2 N7 2.984706 1_555
Ba2 N4 3.207500 1_555
Ba3 N2 2.635558 1_454
Ba3 N4 2.715668 1_554
Ba3 N3 2.728001 1_565
Ba3 N6 2.984706 1_555
Ba3 N5 3.207500 1_555
Ba4 N1 2.637049 1_655
Ba4 N7 2.709982 1_555
Ba4 N0 2.747598 1_555
Ba4 N6 2.900548 1_555
Ba4 N4 3.267759 1_555
Ba5 N0 2.637049 1_455
Ba5 N6 2.709982 1_555
Ba5 N1 2.747598 1_555
Ba5 N7 2.900548 1_555
Ba5 N5 3.267759 1_555
Ba6 N1 2.800460 1_565
Ba6 N0 2.891831 1_455
Ba6 N6 2.902184 1_555
Ba6 N2 2.946812 1_455
Ba6 N4 3.146690 1_555
Ba6 N7 3.233662 1_465
Ba7 N0 2.800460 1_545
Ba7 N1 2.891831 1_655
Ba7 N7 2.902184 1_555
Ba7 N3 2.946812 1_655
Ba7 N5 3.146690 1_555
Ba7 N6 3.233662 1_645
Ge0 N4 1.931946 1_555
Ge0 N7 1.939342 1_565
Ge0 N0 1.949654 1_555
Ge0 N2 1.992266 1_555
Ge1 N5 1.931946 1_555
Ge1 N6 1.939342 1_545
Ge1 N1 1.949654 1_555
Ge1 N3 1.992266 1_555
