# generated using pymatgen
data_MgGa
_symmetry_space_group_name_H-M   'P 1'
_cell_length_a   3.25059700
_cell_length_b   4.83070000
_cell_length_c   5.13409200
_cell_angle_alpha   90.00000000
_cell_angle_beta   90.00000000
_cell_angle_gamma   90.00000000
_symmetry_Int_Tables_number   1
_chemical_formula_structural   MgGa
_chemical_formula_sum   'Mg2 Ga2'
_cell_volume   80.61889558
_cell_formula_units_Z   2
loop_
 _symmetry_equiv_pos_site_id
 _symmetry_equiv_pos_as_xyz
  1  'x, y, z'
loop_
 _atom_site_type_symbol
 _atom_site_label
 _atom_site_symmetry_multiplicity
 _atom_site_fract_x
 _atom_site_fract_y
 _atom_site_fract_z
 _atom_site_occupancy
  Mg  Mg0  1  0.50000000  0.59254100  0.00000000  1
  Mg  Mg1  1  0.00000000  0.40745900  0.50000000  1
  Ga  Ga0  1  0.00000000  0.08250400  0.00000000  1
  Ga  Ga1  1  0.50000000  0.91749600  0.50000000  1
loop_
_geom_bond_atom_site_label_1
_geom_bond_atom_site_label_2
_geom_bond_distance
_geom_bond_site_symmetry_2
Ga0 Mg0 2.871174 1_445
Ga0 Mg0 2.871174 1_545
Ga0 Mg0 2.951624 1_455
Ga0 Mg0 2.951624 1_555
Ga0 Mg1 3.008965 1_555
Ga0 Mg1 3.008965 1_554
Ga1 Mg1 2.871174 1_565
Ga1 Mg1 2.871174 1_665
Ga1 Mg1 2.951624 1_555
Ga1 Mg1 2.951624 1_655
Ga1 Mg0 3.008965 1_556
Ga1 Mg0 3.008965 1_555
