# generated using pymatgen
data_CsLiMg6O7
_symmetry_space_group_name_H-M   'P 1'
_cell_length_a   4.15242200
_cell_length_b   4.15242200
_cell_length_c   12.13125700
_cell_angle_alpha   90.00000000
_cell_angle_beta   90.00000000
_cell_angle_gamma   90.00000000
_symmetry_Int_Tables_number   1
_chemical_formula_structural   CsLiMg6O7
_chemical_formula_sum   'Cs1 Li1 Mg6 O7'
_cell_volume   209.17451465
_cell_formula_units_Z   1
loop_
 _symmetry_equiv_pos_site_id
 _symmetry_equiv_pos_as_xyz
  1  'x, y, z'
loop_
 _atom_site_type_symbol
 _atom_site_label
 _atom_site_symmetry_multiplicity
 _atom_site_fract_x
 _atom_site_fract_y
 _atom_site_fract_z
 _atom_site_occupancy
  Cs  Cs0  1  0.50000000  0.50000000  0.95713400  1
  Li  Li0  1  0.00000000  0.00000000  0.10042600  1
  Mg  Mg0  1  0.00000000  0.00000000  0.49449900  1
  Mg  Mg1  1  0.50000000  0.50000000  0.47646200  1
  Mg  Mg2  1  0.00000000  0.50000000  0.27083400  1
  Mg  Mg3  1  0.00000000  0.50000000  0.66316500  1
  Mg  Mg4  1  0.50000000  0.00000000  0.27083400  1
  Mg  Mg5  1  0.50000000  0.00000000  0.66316500  1
  O  O0  1  0.00000000  0.00000000  0.67138100  1
  O  O1  1  0.50000000  0.50000000  0.30972000  1
  O  O2  1  0.50000000  0.50000000  0.67205700  1
  O  O3  1  0.00000000  0.50000000  0.11317300  1
  O  O4  1  0.00000000  0.50000000  0.48698800  1
  O  O5  1  0.50000000  0.00000000  0.11317300  1
  O  O6  1  0.50000000  0.00000000  0.48698800  1
loop_
_geom_bond_atom_site_label_1
_geom_bond_atom_site_label_2
_geom_bond_distance
_geom_bond_site_symmetry_2
Cs0 O3 2.809610 1_556
Cs0 O3 2.809610 1_656
Cs0 O5 2.809610 1_556
Cs0 O5 2.809610 1_566
Cs0 O2 3.458342 1_555
Li0 O3 2.081962 1_545
Li0 O3 2.081962 1_555
Li0 O5 2.081962 1_555
Li0 O5 2.081962 1_455
Mg0 O4 2.078209 1_555
Mg0 O6 2.078209 1_455
Mg0 O4 2.078209 1_545
Mg0 O6 2.078209 1_555
Mg0 O0 2.145801 1_555
Mg1 O1 2.022790 1_555
Mg1 O6 2.080134 1_565
Mg1 O4 2.080134 1_555
Mg1 O4 2.080134 1_655
Mg1 O6 2.080134 1_555
Mg1 O2 2.372813 1_555
Mg2 O3 1.912626 1_555
Mg2 O1 2.129128 1_555
Mg2 O1 2.129128 1_455
Mg2 O4 2.622220 1_555
Mg3 O0 2.078602 1_565
Mg3 O0 2.078602 1_555
Mg3 O2 2.079011 1_455
Mg3 O2 2.079011 1_555
Mg3 O4 2.137248 1_555
Mg4 O5 1.912626 1_555
Mg4 O1 2.129128 1_555
Mg4 O1 2.129128 1_545
Mg4 O6 2.622220 1_555
Mg5 O0 2.078602 1_655
Mg5 O0 2.078602 1_555
Mg5 O2 2.079011 1_555
Mg5 O2 2.079011 1_545
Mg5 O6 2.137248 1_555
