# generated using pymatgen
data_Sr3Fe2O5
_symmetry_space_group_name_H-M   'P 1'
_cell_length_a   3.54915569
_cell_length_b   3.92375165
_cell_length_c   10.63991666
_cell_angle_alpha   100.62000281
_cell_angle_beta   99.60882622
_cell_angle_gamma   90.00330367
_symmetry_Int_Tables_number   1
_chemical_formula_structural   Sr3Fe2O5
_chemical_formula_sum   'Sr3 Fe2 O5'
_cell_volume   143.51769195
_cell_formula_units_Z   1
loop_
 _symmetry_equiv_pos_site_id
 _symmetry_equiv_pos_as_xyz
  1  'x, y, z'
loop_
 _atom_site_type_symbol
 _atom_site_label
 _atom_site_symmetry_multiplicity
 _atom_site_fract_x
 _atom_site_fract_y
 _atom_site_fract_z
 _atom_site_occupancy
  Sr  Sr0  1  0.31386789  0.31376967  0.62773522  1
  Sr  Sr1  1  0.68607019  0.68617451  0.37212897  1
  Sr  Sr2  1  0.50005267  0.50004051  0.00010062  1
  Fe  Fe0  1  0.09614443  0.09682181  0.19228401  1
  Fe  Fe1  1  0.90385385  0.90318004  0.80770942  1
  O  O0  1  0.19153765  0.19152767  0.38289371  1
  O  O1  1  0.80842212  0.80839662  0.61699002  1
  O  O2  1  0.09489591  0.59539279  0.18986674  1
  O  O3  1  0.90513316  0.40464926  0.81018037  1
  O  O4  1  0.00002613  0.00004812  0.00010891  1
loop_
_geom_bond_atom_site_label_1
_geom_bond_atom_site_label_2
_geom_bond_distance
_geom_bond_site_symmetry_2
Fe0 O2 1.961167 1_555
Fe0 O2 1.962901 1_545
Fe0 O0 1.964374 1_555
Fe0 O4 1.980507 1_555
Fe1 O3 1.961122 1_555
Fe1 O3 1.962960 1_565
Fe1 O1 1.965504 1_555
Fe1 O4 1.982820 1_666
O0 Sr0 2.523271 1_555
O0 Sr1 2.647521 1_545
O0 Sr1 2.647525 1_555
O0 Sr1 2.647752 1_445
O0 Sr1 2.648059 1_455
O1 Sr1 2.523473 1_555
O1 Sr0 2.647459 1_555
O1 Sr0 2.647627 1_565
O1 Sr0 2.647801 1_665
O1 Sr0 2.647936 1_655
O2 Sr1 2.583960 1_555
O2 Sr1 2.584139 1_455
O2 Sr2 2.640504 1_455
O2 Sr2 2.641091 1_555
O3 Sr0 2.585329 1_555
O3 Sr0 2.585511 1_655
O3 Sr2 2.641678 1_656
O3 Sr2 2.642269 1_556
O4 Sr2 2.645250 1_445
O4 Sr2 2.645376 1_555
O4 Sr2 2.645382 1_455
O4 Sr2 2.645548 1_545
