# generated using pymatgen
data_Mg2ReN3
_symmetry_space_group_name_H-M   'P 1'
_cell_length_a   5.55589420
_cell_length_b   5.55589420
_cell_length_c   14.79162154
_cell_angle_alpha   87.32784502
_cell_angle_beta   87.32784502
_cell_angle_gamma   136.55928233
_symmetry_Int_Tables_number   1
_chemical_formula_structural   Mg2ReN3
_chemical_formula_sum   'Mg8 Re4 N12'
_cell_volume   311.44985434
_cell_formula_units_Z   4
loop_
 _symmetry_equiv_pos_site_id
 _symmetry_equiv_pos_as_xyz
  1  'x, y, z'
loop_
 _atom_site_type_symbol
 _atom_site_label
 _atom_site_symmetry_multiplicity
 _atom_site_fract_x
 _atom_site_fract_y
 _atom_site_fract_z
 _atom_site_occupancy
  Mg  Mg0  1  0.89599100  0.44492100  0.15306200  1
  Mg  Mg1  1  0.55507900  0.10400900  0.34693800  1
  Mg  Mg2  1  0.10400900  0.55507900  0.84693800  1
  Mg  Mg3  1  0.44492100  0.89599100  0.65306200  1
  Mg  Mg4  1  0.86856600  0.66385600  0.47177700  1
  Mg  Mg5  1  0.33614400  0.13143400  0.02822300  1
  Mg  Mg6  1  0.13143400  0.33614400  0.52822300  1
  Mg  Mg7  1  0.66385600  0.86856600  0.97177700  1
  Re  Re0  1  0.23553300  0.35510300  0.33202900  1
  Re  Re1  1  0.64489700  0.76446700  0.16797100  1
  Re  Re2  1  0.76446700  0.64489700  0.66797100  1
  Re  Re3  1  0.35510300  0.23553300  0.83202900  1
  N  N0  1  0.58086300  0.41913700  0.25000000  1
  N  N1  1  0.41913700  0.58086300  0.75000000  1
  N  N2  1  0.11734400  0.54799600  0.39407400  1
  N  N3  1  0.45200400  0.88265600  0.10592600  1
  N  N4  1  0.88265600  0.45200400  0.60592600  1
  N  N5  1  0.54799600  0.11734400  0.89407400  1
  N  N6  1  0.21717800  0.33950700  0.93231200  1
  N  N7  1  0.66049300  0.78282200  0.56768800  1
  N  N8  1  0.78282200  0.66049300  0.06768800  1
  N  N9  1  0.33950700  0.21717800  0.43231200  1
  N  N10  1  0.89050200  0.10949800  0.25000000  1
  N  N11  1  0.10949800  0.89050200  0.75000000  1
loop_
_geom_bond_atom_site_label_1
_geom_bond_atom_site_label_2
_geom_bond_distance
_geom_bond_site_symmetry_2
Mg0 N8 2.109762 1_555
Mg0 N0 2.127068 1_555
Mg0 N3 2.162119 1_655
Mg0 N10 2.279049 1_555
Mg0 N3 2.345817 1_545
Mg1 N9 2.109762 1_555
Mg1 N0 2.127068 1_555
Mg1 N2 2.162119 1_545
Mg1 N10 2.279049 1_555
Mg1 N2 2.345817 1_655
Mg2 N6 2.109762 1_555
Mg2 N1 2.127068 1_555
Mg2 N5 2.162119 1_455
Mg2 N11 2.279049 1_555
Mg2 N5 2.345817 1_565
Mg3 N7 2.109762 1_555
Mg3 N1 2.127068 1_555
Mg3 N4 2.162119 1_565
Mg3 N11 2.279049 1_555
Mg3 N4 2.345817 1_455
Mg4 N9 2.155698 1_665
Mg4 N7 2.197735 1_555
Mg4 N9 2.200354 1_555
Mg4 N2 2.204244 1_655
Mg4 N4 2.293340 1_555
Mg5 N8 2.155698 1_445
Mg5 N6 2.197735 1_554
Mg5 N8 2.200354 1_555
Mg5 N3 2.204244 1_545
Mg5 N5 2.293340 1_554
Mg6 N7 2.155698 1_445
Mg6 N9 2.197735 1_555
Mg6 N7 2.200354 1_555
Mg6 N4 2.204244 1_455
Mg6 N2 2.293340 1_555
Mg7 N6 2.155698 1_665
Mg7 N8 2.197735 1_556
Mg7 N6 2.200354 1_555
Mg7 N5 2.204244 1_565
Mg7 N3 2.293340 1_556
N0 Re0 2.007816 1_555
N0 Re1 2.007816 1_555
N1 Re2 2.007816 1_555
N1 Re3 2.007816 1_555
N2 Re0 1.865318 1_555
N3 Re1 1.865318 1_555
N4 Re2 1.865318 1_555
N5 Re3 1.865318 1_555
N6 Re3 1.933383 1_555
N7 Re2 1.933383 1_555
N8 Re1 1.933383 1_555
N9 Re0 1.933383 1_555
N10 Re1 1.892512 1_545
N10 Re0 1.892512 1_655
N11 Re3 1.892512 1_565
N11 Re2 1.892512 1_455
