# generated using pymatgen
data_Er2Pt2O5
_symmetry_space_group_name_H-M   'P 1'
_cell_length_a   3.75738200
_cell_length_b   3.75738200
_cell_length_c   9.00617400
_cell_angle_alpha   90.00000000
_cell_angle_beta   90.00000000
_cell_angle_gamma   90.00000000
_symmetry_Int_Tables_number   1
_chemical_formula_structural   Er2Pt2O5
_chemical_formula_sum   'Er2 Pt2 O5'
_cell_volume   127.14843948
_cell_formula_units_Z   1
loop_
 _symmetry_equiv_pos_site_id
 _symmetry_equiv_pos_as_xyz
  1  'x, y, z'
loop_
 _atom_site_type_symbol
 _atom_site_label
 _atom_site_symmetry_multiplicity
 _atom_site_fract_x
 _atom_site_fract_y
 _atom_site_fract_z
 _atom_site_occupancy
  Er  Er0  1  0.50000000  0.50000000  0.25965000  1
  Er  Er1  1  0.50000000  0.50000000  0.74035000  1
  Pt  Pt0  1  0.00000000  0.00000000  0.00000000  1
  Pt  Pt1  1  0.00000000  0.00000000  0.50000000  1
  O  O0  1  0.50000000  0.00000000  0.13511500  1
  O  O1  1  0.50000000  0.00000000  0.86488500  1
  O  O2  1  0.50000000  0.50000000  0.50000000  1
  O  O3  1  0.00000000  0.50000000  0.13511500  1
  O  O4  1  0.00000000  0.50000000  0.86488500  1
loop_
_geom_bond_atom_site_label_1
_geom_bond_atom_site_label_2
_geom_bond_distance
_geom_bond_site_symmetry_2
Er0 O2 2.164634 1_555
Er0 O3 2.188020 1_655
Er0 O0 2.188020 1_565
Er0 O3 2.188020 1_555
Er0 O0 2.188020 1_555
Er1 O2 2.164634 1_555
Er1 O4 2.188020 1_555
Er1 O1 2.188020 1_555
Er1 O4 2.188020 1_655
Er1 O1 2.188020 1_565
O0 Pt0 2.238359 1_555
O0 Pt0 2.238359 1_655
O1 Pt0 2.238359 1_656
O1 Pt0 2.238359 1_556
O2 Pt1 2.656870 1_555
O2 Pt1 2.656870 1_565
O2 Pt1 2.656870 1_665
O2 Pt1 2.656870 1_655
O3 Pt0 2.238359 1_555
O3 Pt0 2.238359 1_565
O4 Pt0 2.238359 1_556
O4 Pt0 2.238359 1_566
