# generated using pymatgen
data_Ca3GdAl8
_symmetry_space_group_name_H-M   'P 1'
_cell_length_a   9.75089086
_cell_length_b   9.75089086
_cell_length_c   9.75089020
_cell_angle_alpha   33.83490351
_cell_angle_beta   33.83490351
_cell_angle_gamma   33.83490358
_symmetry_Int_Tables_number   1
_chemical_formula_structural   Ca3GdAl8
_chemical_formula_sum   'Ca3 Gd1 Al8'
_cell_volume   256.13914089
_cell_formula_units_Z   1
loop_
 _symmetry_equiv_pos_site_id
 _symmetry_equiv_pos_as_xyz
  1  'x, y, z'
loop_
 _atom_site_type_symbol
 _atom_site_label
 _atom_site_symmetry_multiplicity
 _atom_site_fract_x
 _atom_site_fract_y
 _atom_site_fract_z
 _atom_site_occupancy
  Ca  Ca0  1  0.62496300  0.62496300  0.62496300  1
  Ca  Ca1  1  0.00011900  0.00011900  0.00011900  1
  Ca  Ca2  1  0.50000600  0.50000600  0.50000600  1
  Gd  Gd0  1  0.12497100  0.12497100  0.12497100  1
  Al  Al0  1  0.56264500  0.56264500  0.06293900  1
  Al  Al1  1  0.06257200  0.06257200  0.56161900  1
  Al  Al2  1  0.56264500  0.06293900  0.56264500  1
  Al  Al3  1  0.06257200  0.56161900  0.06257200  1
  Al  Al4  1  0.81239900  0.81239900  0.81239900  1
  Al  Al5  1  0.31255100  0.31255100  0.31255100  1
  Al  Al6  1  0.06293900  0.56264500  0.56264500  1
  Al  Al7  1  0.56161900  0.06257200  0.06257200  1
loop_
_geom_bond_atom_site_label_1
_geom_bond_atom_site_label_2
_geom_bond_distance
_geom_bond_site_symmetry_2
Ca0 Ca2 3.442799 1_555
Ca0 Ca1 3.473123 1_566
Ca0 Ca1 3.473123 1_656
Ca0 Ca1 3.473123 1_665
Ca1 Gd0 3.439906 1_555
Ca2 Gd0 3.472019 1_655
Ca2 Gd0 3.472019 1_565
Ca2 Gd0 3.472019 1_556
Al0 Al4 2.813360 1_554
Al0 Al5 2.824258 1_555
Al0 Al6 2.835778 1_555
Al0 Al2 2.835778 1_555
Al0 Al2 2.839115 1_564
Al0 Al6 2.839115 1_654
Al0 Ca2 3.298474 1_555
Al0 Ca0 3.311800 1_554
Al0 Gd0 3.315209 1_565
Al0 Gd0 3.315209 1_655
Al0 Ca1 3.320864 1_565
Al0 Ca1 3.320864 1_655
Al1 Al4 2.819082 1_445
Al1 Al5 2.825358 1_555
Al1 Al3 2.832039 1_555
Al1 Al7 2.832039 1_555
Al1 Al7 2.842855 1_456
Al1 Al3 2.842855 1_546
Al1 Gd0 3.297889 1_555
Al1 Ca1 3.314896 1_556
Al1 Ca2 3.315500 1_545
Al1 Ca2 3.315500 1_455
Al1 Ca0 3.322078 1_545
Al1 Ca0 3.322078 1_455
Al2 Al4 2.813360 1_545
Al2 Al5 2.824258 1_555
Al2 Al6 2.835779 1_555
Al2 Al6 2.839115 1_645
Al2 Ca2 3.298474 1_555
Al2 Ca0 3.311800 1_545
Al2 Gd0 3.315208 1_556
Al2 Gd0 3.315209 1_655
Al2 Ca1 3.320864 1_655
Al2 Ca1 3.320864 1_556
Al3 Al4 2.819082 1_454
Al3 Al5 2.825358 1_555
Al3 Al7 2.832039 1_555
Al3 Al7 2.842855 1_465
Al3 Gd0 3.297889 1_555
Al3 Ca1 3.314896 1_565
Al3 Ca2 3.315500 1_554
Al3 Ca2 3.315500 1_455
Al3 Ca0 3.322078 1_455
Al3 Ca0 3.322078 1_554
Al4 Al6 2.813360 1_655
Al4 Al7 2.819082 1_566
Al4 Gd0 3.325959 1_665
Al4 Gd0 3.325960 1_566
Al4 Gd0 3.325960 1_656
Al4 Ca2 3.326811 1_556
Al4 Ca2 3.326811 1_565
Al4 Ca2 3.326811 1_655
Al5 Al6 2.824258 1_555
Al5 Al7 2.825358 1_555
Al5 Ca1 3.326625 1_556
Al5 Ca1 3.326625 1_655
Al5 Ca1 3.326625 1_565
Al5 Ca0 3.326720 1_554
Al5 Ca0 3.326721 1_455
Al5 Ca0 3.326721 1_545
Al6 Ca2 3.298474 1_555
Al6 Ca0 3.311800 1_455
Al6 Gd0 3.315208 1_556
Al6 Gd0 3.315209 1_565
Al6 Ca1 3.320864 1_565
Al6 Ca1 3.320864 1_556
Al7 Gd0 3.297889 1_555
Al7 Ca1 3.314896 1_655
Al7 Ca2 3.315500 1_554
Al7 Ca2 3.315500 1_545
Al7 Ca0 3.322078 1_545
Al7 Ca0 3.322078 1_554
