# generated using pymatgen
data_Ca4As3H9O16
_symmetry_space_group_name_H-M   'P 1'
_cell_length_a   10.18617317
_cell_length_b   5.80883735
_cell_length_c   22.78852965
_cell_angle_alpha   83.03598080
_cell_angle_beta   90.00000000
_cell_angle_gamma   90.00000000
_symmetry_Int_Tables_number   1
_chemical_formula_structural   Ca4As3H9O16
_chemical_formula_sum   'Ca16 As12 H36 O64'
_cell_volume   1338.44548124
_cell_formula_units_Z   4
loop_
 _symmetry_equiv_pos_site_id
 _symmetry_equiv_pos_as_xyz
  1  'x, y, z'
loop_
 _atom_site_type_symbol
 _atom_site_label
 _atom_site_symmetry_multiplicity
 _atom_site_fract_x
 _atom_site_fract_y
 _atom_site_fract_z
 _atom_site_occupancy
  Ca  Ca0  1  0.22647981  0.32843733  0.50221474  1
  Ca  Ca1  1  0.72647981  0.67156267  0.99778526  1
  Ca  Ca2  1  0.77352019  0.67156267  0.49778526  1
  Ca  Ca3  1  0.27352019  0.32843733  0.00221474  1
  Ca  Ca4  1  0.35436559  0.99730843  0.64145613  1
  Ca  Ca5  1  0.85436559  0.00269157  0.85854387  1
  Ca  Ca6  1  0.64563441  0.00269157  0.35854387  1
  Ca  Ca7  1  0.14563441  0.99730843  0.14145613  1
  Ca  Ca8  1  0.81862671  0.11384110  0.60776283  1
  Ca  Ca9  1  0.31862671  0.88615890  0.89223717  1
  Ca  Ca10  1  0.18137329  0.88615890  0.39223717  1
  Ca  Ca11  1  0.68137329  0.11384110  0.10776283  1
  Ca  Ca12  1  0.86431732  0.55977972  0.74392501  1
  Ca  Ca13  1  0.36431732  0.44022028  0.75607499  1
  Ca  Ca14  1  0.13568268  0.44022028  0.25607499  1
  Ca  Ca15  1  0.63568268  0.55977972  0.24392501  1
  As  As0  1  0.05053919  0.12809998  0.71447530  1
  As  As1  1  0.55053919  0.87190002  0.78552470  1
  As  As2  1  0.94946081  0.87190002  0.28552470  1
  As  As3  1  0.44946081  0.12809998  0.21447530  1
  As  As4  1  0.50265252  0.46196471  0.59696843  1
  As  As5  1  0.00265252  0.53803529  0.90303157  1
  As  As6  1  0.49734748  0.53803529  0.40303157  1
  As  As7  1  0.99734748  0.46196471  0.09696843  1
  As  As8  1  0.08418028  0.77100208  0.54977152  1
  As  As9  1  0.58418028  0.22899792  0.95022848  1
  As  As10  1  0.91581972  0.22899792  0.45022848  1
  As  As11  1  0.41581972  0.77100208  0.04977152  1
  H  H0  1  0.62316363  0.09811265  0.51006337  1
  H  H1  1  0.12316363  0.90188735  0.98993663  1
  H  H2  1  0.37683637  0.90188735  0.48993663  1
  H  H3  1  0.87683637  0.09811265  0.01006337  1
  H  H4  1  0.57108120  0.89682403  0.55677528  1
  H  H5  1  0.07108120  0.10317597  0.94322472  1
  H  H6  1  0.42891880  0.10317597  0.44322472  1
  H  H7  1  0.92891880  0.89682403  0.05677528  1
  H  H8  1  0.63838483  0.76316356  0.68048015  1
  H  H9  1  0.13838483  0.23683644  0.81951985  1
  H  H10  1  0.36161517  0.23683644  0.31951985  1
  H  H11  1  0.86161517  0.76316356  0.18048015  1
  H  H12  1  0.71458842  0.63908261  0.63219982  1
  H  H13  1  0.21458842  0.36091739  0.86780018  1
  H  H14  1  0.28541158  0.36091739  0.36780018  1
  H  H15  1  0.78541158  0.63908261  0.13219982  1
  H  H16  1  0.63184622  0.26732840  0.69273974  1
  H  H17  1  0.13184622  0.73267160  0.80726026  1
  H  H18  1  0.36815378  0.73267160  0.30726026  1
  H  H19  1  0.86815378  0.26732840  0.19273974  1
  H  H20  1  0.73155070  0.09788909  0.73108053  1
  H  H21  1  0.23155070  0.90211091  0.76891947  1
  H  H22  1  0.26844930  0.90211091  0.26891947  1
  H  H23  1  0.76844930  0.09788909  0.23108053  1
  H  H24  1  0.64281172  0.27493135  0.80736843  1
  H  H25  1  0.14281172  0.72506865  0.69263157  1
  H  H26  1  0.35718828  0.72506865  0.19263157  1
  H  H27  1  0.85718828  0.27493135  0.30736843  1
  H  H28  1  0.71364707  0.41738047  0.85183041  1
  H  H29  1  0.21364707  0.58261953  0.64816959  1
  H  H30  1  0.28635293  0.58261953  0.14816959  1
  H  H31  1  0.78635293  0.41738047  0.35183041  1
  H  H32  1  0.06785048  0.42628583  0.61844917  1
  H  H33  1  0.56785048  0.57371417  0.88155083  1
  H  H34  1  0.93214952  0.57371417  0.38155083  1
  H  H35  1  0.43214952  0.42628583  0.11844917  1
  O  O0  1  0.21767213  0.14239985  0.71396055  1
  O  O1  1  0.71767213  0.85760015  0.78603945  1
  O  O2  1  0.78232787  0.85760015  0.28603945  1
  O  O3  1  0.28232787  0.14239985  0.21396055  1
  O  O4  1  0.00174314  0.86041309  0.70163114  1
  O  O5  1  0.50174314  0.13958691  0.79836886  1
  O  O6  1  0.99825686  0.13958691  0.29836886  1
  O  O7  1  0.49825686  0.86041309  0.20163114  1
  O  O8  1  0.98110195  0.32551522  0.66163707  1
  O  O9  1  0.48110195  0.67448478  0.83836293  1
  O  O10  1  0.01889805  0.67448478  0.33836293  1
  O  O11  1  0.51889805  0.32551522  0.16163707  1
  O  O12  1  0.99409009  0.20376447  0.77975262  1
  O  O13  1  0.49409009  0.79623553  0.72024738  1
  O  O14  1  0.00590991  0.79623553  0.22024738  1
  O  O15  1  0.50590991  0.20376447  0.27975262  1
  O  O16  1  0.66723118  0.45929002  0.58247952  1
  O  O17  1  0.16723118  0.54070998  0.91752048  1
  O  O18  1  0.33276882  0.54070998  0.41752048  1
  O  O19  1  0.83276882  0.45929002  0.08247952  1
  O  O20  1  0.45068707  0.74071801  0.58413840  1
  O  O21  1  0.95068707  0.25928199  0.91586160  1
  O  O22  1  0.54931293  0.25928199  0.41586160  1
  O  O23  1  0.04931293  0.74071801  0.08413840  1
  O  O24  1  0.47909082  0.33872701  0.66856472  1
  O  O25  1  0.97909082  0.66127299  0.83143528  1
  O  O26  1  0.52090918  0.66127299  0.33143528  1
  O  O27  1  0.02090918  0.33872701  0.16856472  1
  O  O28  1  0.41606938  0.28437430  0.55807181  1
  O  O29  1  0.91606938  0.71562570  0.94192819  1
  O  O30  1  0.58393062  0.71562570  0.44192819  1
  O  O31  1  0.08393062  0.28437430  0.05807181  1
  O  O32  1  0.88721371  0.30242083  0.51840447  1
  O  O33  1  0.38721371  0.69757917  0.98159553  1
  O  O34  1  0.11278629  0.69757917  0.48159553  1
  O  O35  1  0.61278629  0.30242083  0.01840447  1
  O  O36  1  0.17572521  0.98886129  0.57010258  1
  O  O37  1  0.67572521  0.01113871  0.92989742  1
  O  O38  1  0.82427479  0.01113871  0.42989742  1
  O  O39  1  0.32427479  0.98886129  0.07010258  1
  O  O40  1  0.92398945  0.80453377  0.56377834  1
  O  O41  1  0.42398945  0.19546623  0.93622166  1
  O  O42  1  0.07601055  0.19546623  0.43622166  1
  O  O43  1  0.57601055  0.80453377  0.06377834  1
  O  O44  1  0.14016534  0.50831766  0.58949354  1
  O  O45  1  0.64016534  0.49168234  0.91050646  1
  O  O46  1  0.85983466  0.49168234  0.41050646  1
  O  O47  1  0.35983466  0.50831766  0.08949354  1
  O  O48  1  0.65277472  0.98020450  0.54116330  1
  O  O49  1  0.15277472  0.01979550  0.95883670  1
  O  O50  1  0.34722528  0.01979550  0.45883670  1
  O  O51  1  0.84722528  0.98020450  0.04116330  1
  O  O52  1  0.72609513  0.74891290  0.66220027  1
  O  O53  1  0.22609513  0.25108710  0.83779973  1
  O  O54  1  0.27390487  0.25108710  0.33779973  1
  O  O55  1  0.77390487  0.74891290  0.16220027  1
  O  O56  1  0.72683289  0.23108090  0.69984722  1
  O  O57  1  0.22683289  0.76891910  0.80015278  1
  O  O58  1  0.27316711  0.76891910  0.30015278  1
  O  O59  1  0.77316711  0.23108090  0.19984722  1
  O  O60  1  0.73036939  0.34078109  0.81610238  1
  O  O61  1  0.23036939  0.65921891  0.68389762  1
  O  O62  1  0.26963061  0.65921891  0.18389762  1
  O  O63  1  0.76963061  0.34078109  0.31610238  1
loop_
_geom_bond_atom_site_label_1
_geom_bond_atom_site_label_2
_geom_bond_distance
_geom_bond_site_symmetry_2
Ca0 O28 2.310040 1_555
Ca0 O42 2.342894 1_555
Ca0 O36 2.410729 1_545
Ca0 O18 2.416743 1_555
Ca0 O34 2.432205 1_555
Ca0 O50 2.476689 1_555
Ca0 O44 2.514901 1_555
Ca1 O29 2.310040 1_555
Ca1 O43 2.342894 1_556
Ca1 O37 2.410729 1_565
Ca1 O19 2.416743 1_556
Ca1 O35 2.432205 1_556
Ca1 O51 2.476689 1_556
Ca1 O45 2.514901 1_555
Ca2 O30 2.310040 1_555
Ca2 O40 2.342894 1_555
Ca2 O38 2.410729 1_565
Ca2 O16 2.416743 1_555
Ca2 O32 2.432205 1_555
Ca2 O48 2.476689 1_555
Ca2 O46 2.514901 1_555
Ca3 O31 2.310040 1_555
Ca3 O41 2.342894 1_554
Ca3 O39 2.410729 1_545
Ca3 O17 2.416743 1_554
Ca3 O33 2.432205 1_554
Ca3 O49 2.476689 1_554
Ca3 O47 2.514901 1_555
Ca4 O20 2.315694 1_555
Ca4 O0 2.390971 1_565
Ca4 O61 2.434554 1_555
Ca4 O36 2.444778 1_555
Ca4 O28 2.453177 1_565
Ca4 O13 2.470888 1_555
Ca4 O24 2.495214 1_565
Ca5 O21 2.315694 1_555
Ca5 O1 2.390971 1_545
Ca5 O60 2.434554 1_555
Ca5 O37 2.444778 1_555
Ca5 O29 2.453177 1_545
Ca5 O12 2.470888 1_555
Ca5 O25 2.495214 1_545
Ca6 O22 2.315694 1_555
Ca6 O2 2.390971 1_545
Ca6 O63 2.434554 1_555
Ca6 O38 2.444778 1_555
Ca6 O30 2.453177 1_545
Ca6 O15 2.470888 1_555
Ca6 O26 2.495214 1_545
Ca7 O23 2.315694 1_555
Ca7 O3 2.390971 1_565
Ca7 O62 2.434554 1_555
Ca7 O39 2.444778 1_555
Ca7 O31 2.453177 1_565
Ca7 O14 2.470888 1_555
Ca7 O27 2.495214 1_565
Ca8 O32 2.300836 1_555
Ca8 O40 2.412766 1_545
Ca8 O48 2.458818 1_545
Ca8 O56 2.467426 1_555
Ca8 O8 2.474720 1_555
Ca8 O52 2.506641 1_545
Ca8 O16 2.540960 1_555
Ca9 O33 2.300836 1_555
Ca9 O41 2.412766 1_565
Ca9 O49 2.458818 1_565
Ca9 O57 2.467426 1_555
Ca9 O9 2.474720 1_555
Ca9 O53 2.506641 1_565
Ca9 O17 2.540960 1_555
Ca10 O34 2.300836 1_555
Ca10 O42 2.412766 1_565
Ca10 O50 2.458818 1_565
Ca10 O58 2.467426 1_555
Ca10 O10 2.474720 1_555
Ca10 O54 2.506641 1_565
Ca10 O18 2.540960 1_555
Ca11 O35 2.300836 1_555
Ca11 O43 2.412766 1_545
Ca11 O51 2.458818 1_545
Ca11 O59 2.467426 1_555
Ca11 O11 2.474720 1_555
Ca11 O55 2.506641 1_545
Ca11 O19 2.540960 1_555
Ca12 O4 2.351600 1_655
Ca12 O60 2.382849 1_555
Ca12 O25 2.444675 1_555
Ca12 O52 2.482273 1_555
Ca12 O12 2.506256 1_555
Ca12 O1 2.558877 1_555
Ca12 O56 2.660998 1_555
Ca12 O8 2.720691 1_555
Ca13 O5 2.351600 1_555
Ca13 O61 2.382849 1_555
Ca13 O24 2.444675 1_555
Ca13 O53 2.482273 1_555
Ca13 O13 2.506256 1_555
Ca13 O0 2.558877 1_555
Ca13 O57 2.660998 1_555
Ca13 O9 2.720691 1_555
Ca14 O6 2.351600 1_455
Ca14 O62 2.382849 1_555
Ca14 O27 2.444675 1_555
Ca14 O54 2.482273 1_555
Ca14 O14 2.506256 1_555
Ca14 O3 2.558877 1_555
Ca14 O58 2.660998 1_555
Ca14 O10 2.720691 1_555
Ca15 O7 2.351600 1_555
Ca15 O63 2.382849 1_555
Ca15 O26 2.444675 1_555
Ca15 O55 2.482273 1_555
Ca15 O15 2.506256 1_555
Ca15 O2 2.558877 1_555
Ca15 O59 2.660998 1_555
Ca15 O11 2.720691 1_555
As0 O4 1.691438 1_545
As0 O12 1.701537 1_455
As0 O0 1.704441 1_555
As0 O8 1.711826 1_455
As1 O5 1.691438 1_565
As1 O13 1.701537 1_555
As1 O1 1.704441 1_555
As1 O9 1.711826 1_555
As2 O6 1.691438 1_565
As2 O14 1.701537 1_655
As2 O2 1.704441 1_555
As2 O10 1.711826 1_655
As3 O7 1.691438 1_545
As3 O15 1.701537 1_555
As3 O3 1.704441 1_555
As3 O11 1.711826 1_555
As4 O28 1.688034 1_555
As4 O20 1.694929 1_555
As4 O16 1.709067 1_555
As4 O24 1.717229 1_555
As5 O29 1.688034 1_455
As5 O21 1.694929 1_455
As5 O17 1.709067 1_555
As5 O25 1.717229 1_455
As6 O30 1.688034 1_555
As6 O22 1.694929 1_555
As6 O18 1.709067 1_555
As6 O26 1.717229 1_555
As7 O31 1.688034 1_655
As7 O23 1.694929 1_655
As7 O19 1.709067 1_555
As7 O27 1.717229 1_655
As8 O40 1.678526 1_455
As8 O36 1.681635 1_555
As8 O34 1.685603 1_555
As8 O44 1.771444 1_555
As9 O41 1.678526 1_555
As9 O37 1.681635 1_555
As9 O35 1.685603 1_556
As9 O45 1.771444 1_555
As10 O42 1.678526 1_655
As10 O38 1.681635 1_555
As10 O32 1.685603 1_555
As10 O46 1.771444 1_555
As11 O43 1.678526 1_555
As11 O39 1.681635 1_555
As11 O33 1.685603 1_554
As11 O47 1.771444 1_555
H0 O48 0.971934 1_545
H1 O49 0.971934 1_565
H2 O50 0.971934 1_565
H3 O51 0.971934 1_545
H4 O48 1.005904 1_555
H4 O20 1.605597 1_555
H5 O49 1.005904 1_555
H5 O21 1.605597 1_455
H6 O50 1.005904 1_555
H6 O22 1.605597 1_555
H7 O51 1.005904 1_555
H7 O23 1.605597 1_655
H8 O52 0.993462 1_555
H8 O13 1.749495 1_555
H9 O53 0.993462 1_555
H9 O12 1.749495 1_455
H10 O54 0.993462 1_555
H10 O15 1.749495 1_555
H11 O55 0.993462 1_555
H11 O14 1.749495 1_655
H12 O52 0.996961 1_555
H12 O16 1.701235 1_555
H13 O53 0.996961 1_555
H13 O17 1.701235 1_555
H14 O54 0.996961 1_555
H14 O18 1.701235 1_555
H15 O55 0.996961 1_555
H15 O19 1.701235 1_555
H16 O56 0.999226 1_555
H16 O24 1.685593 1_555
H17 O57 0.999226 1_555
H17 O25 1.685593 1_455
H18 O58 0.999226 1_555
H18 O26 1.685593 1_555
H19 O59 0.999226 1_555
H19 O27 1.685593 1_655
H20 O56 0.986901 1_555
H20 O1 1.764346 1_545
H21 O57 0.986901 1_555
H21 O0 1.764346 1_565
H22 O58 0.986901 1_555
H22 O3 1.764346 1_565
H23 O59 0.986901 1_555
H23 O2 1.764346 1_545
H24 O60 0.999918 1_555
H24 O5 1.662553 1_555
H25 O61 0.999918 1_555
H25 O4 1.662553 1_555
H26 O62 0.999918 1_555
H26 O7 1.662553 1_555
H27 O63 0.999918 1_555
H27 O6 1.662553 1_555
H28 O60 0.988813 1_555
H28 O45 1.635367 1_555
H29 O61 0.988813 1_555
H29 O44 1.635367 1_555
H30 O62 0.988813 1_555
H30 O47 1.635367 1_555
H31 O63 0.988813 1_555
H31 O46 1.635367 1_555
H32 O44 1.062460 1_555
H32 O8 1.397278 1_455
H33 O45 1.062460 1_555
H33 O9 1.397278 1_555
H34 O46 1.062460 1_555
H34 O10 1.397278 1_655
H35 O47 1.062460 1_555
H35 O11 1.397278 1_555
