# generated using pymatgen
data_HfAlPd
_symmetry_space_group_name_H-M   'P 1'
_cell_length_a   5.29147330
_cell_length_b   5.29147330
_cell_length_c   8.40705300
_cell_angle_alpha   90.00000000
_cell_angle_beta   90.00000000
_cell_angle_gamma   119.25912398
_symmetry_Int_Tables_number   1
_chemical_formula_structural   HfAlPd
_chemical_formula_sum   'Hf4 Al4 Pd4'
_cell_volume   205.36277042
_cell_formula_units_Z   4
loop_
 _symmetry_equiv_pos_site_id
 _symmetry_equiv_pos_as_xyz
  1  'x, y, z'
loop_
 _atom_site_type_symbol
 _atom_site_label
 _atom_site_symmetry_multiplicity
 _atom_site_fract_x
 _atom_site_fract_y
 _atom_site_fract_z
 _atom_site_occupancy
  Hf  Hf0  1  0.66757500  0.33242500  0.30202000  1
  Hf  Hf1  1  0.33522700  0.66477300  0.18267900  1
  Hf  Hf2  1  0.33522700  0.66477300  0.81732100  1
  Hf  Hf3  1  0.66757500  0.33242500  0.69798000  1
  Al  Al0  1  0.00283800  0.99716200  0.24591200  1
  Al  Al1  1  0.00283800  0.99716200  0.75408800  1
  Al  Al2  1  0.65244400  0.82909800  0.50000000  1
  Al  Al3  1  0.17090200  0.34755600  0.50000000  1
  Pd  Pd0  1  0.16712700  0.83287300  0.50000000  1
  Pd  Pd1  1  0.33669900  0.16962200  0.00000000  1
  Pd  Pd2  1  0.83037800  0.66330100  0.00000000  1
  Pd  Pd3  1  0.83132900  0.16867100  0.00000000  1
loop_
_geom_bond_atom_site_label_1
_geom_bond_atom_site_label_2
_geom_bond_distance
_geom_bond_site_symmetry_2
Hf0 Pd3 2.946626 1_555
Hf0 Pd2 2.963132 1_555
Hf0 Pd1 2.963132 1_555
Hf0 Pd0 3.150812 1_545
Hf0 Pd0 3.150812 1_655
Hf0 Hf1 3.196128 1_555
Hf0 Hf1 3.241479 1_655
Hf0 Hf1 3.241479 1_545
Hf1 Pd2 3.040309 1_555
Hf1 Pd1 3.040309 1_555
Hf1 Hf2 3.071584 1_554
Hf1 Pd0 3.077764 1_555
Hf1 Pd1 3.078105 1_565
Hf1 Pd2 3.078105 1_455
Hf1 Pd3 3.084996 1_455
Hf1 Pd3 3.084996 1_565
Hf2 Pd2 3.040309 1_556
Hf2 Pd1 3.040309 1_556
Hf2 Pd0 3.077764 1_555
Hf2 Pd1 3.078105 1_566
Hf2 Pd2 3.078105 1_456
Hf2 Pd3 3.084996 1_566
Hf2 Pd3 3.084996 1_456
Hf2 Hf3 3.196128 1_555
Hf2 Hf3 3.241479 1_455
Hf2 Hf3 3.241479 1_565
Hf3 Pd3 2.946626 1_556
Hf3 Pd2 2.963132 1_556
Hf3 Pd1 2.963132 1_556
Hf3 Pd0 3.150812 1_655
Hf3 Pd0 3.150812 1_545
Al0 Pd2 2.579132 1_455
Al0 Pd1 2.579132 1_565
Al0 Pd3 2.593544 1_465
Al0 Pd0 2.610225 1_555
Al0 Al3 2.679517 1_565
Al0 Al2 2.679517 1_455
Al0 Hf1 3.081150 1_555
Al0 Hf0 3.097315 1_465
Al0 Hf0 3.105204 1_455
Al0 Hf0 3.105204 1_565
Al0 Hf1 3.127622 1_565
Al0 Hf1 3.127622 1_455
Al1 Pd2 2.579132 1_456
Al1 Pd1 2.579132 1_566
Al1 Pd3 2.593544 1_466
Al1 Pd0 2.610225 1_555
Al1 Al3 2.679517 1_565
Al1 Al2 2.679517 1_455
Al1 Hf2 3.081150 1_555
Al1 Hf3 3.097315 1_465
Al1 Hf3 3.105204 1_455
Al1 Hf3 3.105204 1_565
Al1 Hf2 3.127622 1_565
Al1 Hf2 3.127622 1_455
Al2 Al3 2.576547 1_555
Al2 Pd0 2.577864 1_555
Al2 Pd0 2.713724 1_655
Al2 Al3 2.774071 1_665
Al2 Hf1 3.043627 1_555
Al2 Hf2 3.043627 1_555
Al2 Hf3 3.108323 1_565
Al2 Hf0 3.108323 1_565
Al2 Hf0 3.144758 1_555
Al2 Hf3 3.144758 1_555
Al3 Pd0 2.577864 1_555
Al3 Pd0 2.713724 1_545
Al3 Hf1 3.043627 1_555
Al3 Hf2 3.043627 1_555
Al3 Hf0 3.108323 1_455
Al3 Hf3 3.108323 1_455
Al3 Hf0 3.144758 1_555
Al3 Hf3 3.144758 1_555
Pd1 Pd3 2.619785 1_555
Pd1 Pd2 2.641488 1_555
Pd1 Pd3 2.671696 1_455
Pd1 Pd2 2.709130 1_445
Pd2 Pd3 2.619785 1_555
Pd2 Pd3 2.671696 1_565
