# generated using pymatgen
data_Ho(BrO6)3
_symmetry_space_group_name_H-M   'P 1'
_cell_length_a   6.61124900
_cell_length_b   12.85325677
_cell_length_c   12.85325677
_cell_angle_alpha   128.53272590
_cell_angle_beta   90.00000000
_cell_angle_gamma   90.00000000
_symmetry_Int_Tables_number   1
_chemical_formula_structural   Ho(BrO6)3
_chemical_formula_sum   'Ho2 Br6 O36'
_cell_volume   854.39130804
_cell_formula_units_Z   2
loop_
 _symmetry_equiv_pos_site_id
 _symmetry_equiv_pos_as_xyz
  1  'x, y, z'
loop_
 _atom_site_type_symbol
 _atom_site_label
 _atom_site_symmetry_multiplicity
 _atom_site_fract_x
 _atom_site_fract_y
 _atom_site_fract_z
 _atom_site_occupancy
  Ho  Ho0  1  0.51534100  0.34883900  0.65116100  1
  Ho  Ho1  1  0.01534100  0.65116100  0.34883900  1
  Br  Br0  1  0.33125300  0.17983700  0.32405400  1
  Br  Br1  1  0.83125300  0.32405400  0.17983700  1
  Br  Br2  1  0.83125300  0.82016300  0.67594600  1
  Br  Br3  1  0.33125300  0.67594600  0.82016300  1
  Br  Br4  1  0.33784600  0.10127300  0.89872700  1
  Br  Br5  1  0.83784600  0.89872700  0.10127300  1
  O  O0  1  0.88909200  0.26440400  0.73559600  1
  O  O1  1  0.38909200  0.73559600  0.26440400  1
  O  O2  1  0.78977700  0.29648100  0.50623400  1
  O  O3  1  0.28977700  0.50623400  0.29648100  1
  O  O4  1  0.28977700  0.70351900  0.49376600  1
  O  O5  1  0.78977700  0.49376600  0.70351900  1
  O  O6  1  0.35389500  0.18910200  0.46606300  1
  O  O7  1  0.85389500  0.46606300  0.18910200  1
  O  O8  1  0.85389500  0.81089800  0.53393700  1
  O  O9  1  0.35389500  0.53393700  0.81089800  1
  O  O10  1  0.29073500  0.06793300  0.65059300  1
  O  O11  1  0.79073500  0.65059300  0.06793300  1
  O  O12  1  0.79073500  0.93206700  0.34940700  1
  O  O13  1  0.29073500  0.34940700  0.93206700  1
  O  O14  1  0.23629400  0.32873800  0.38432100  1
  O  O15  1  0.73629400  0.38432100  0.32873800  1
  O  O16  1  0.73629400  0.67126200  0.61567900  1
  O  O17  1  0.23629400  0.61567900  0.67126200  1
  O  O18  1  0.89029200  0.41082400  0.58917600  1
  O  O19  1  0.97014000  0.55391400  0.44608600  1
  O  O20  1  0.47014000  0.44608600  0.55391400  1
  O  O21  1  0.39029200  0.58917600  0.41082400  1
  O  O22  1  0.79404300  0.18172000  0.62045800  1
  O  O23  1  0.91181700  0.61750000  0.11536000  1
  O  O24  1  0.41181700  0.11536000  0.61750000  1
  O  O25  1  0.29404300  0.62045800  0.18172000  1
  O  O26  1  0.91181700  0.88464000  0.38250000  1
  O  O27  1  0.79404300  0.37954200  0.81828000  1
  O  O28  1  0.29404300  0.81828000  0.37954200  1
  O  O29  1  0.41181700  0.38250000  0.88464000  1
  O  O30  1  0.14921000  0.07133200  0.23213300  1
  O  O31  1  0.64921000  0.23213300  0.07133200  1
  O  O32  1  0.14921000  0.76786700  0.92866800  1
  O  O33  1  0.64921000  0.92866800  0.76786700  1
  O  O34  1  0.07824200  0.09970300  0.90029700  1
  O  O35  1  0.57824200  0.90029700  0.09970300  1
loop_
_geom_bond_atom_site_label_1
_geom_bond_atom_site_label_2
_geom_bond_distance
_geom_bond_site_symmetry_2
Ho0 O9 2.220117 1_555
Ho0 O6 2.220117 1_555
Ho0 O20 2.271690 1_555
Ho0 O2 2.377580 1_555
Ho0 O5 2.377580 1_555
Ho0 O22 2.666205 1_555
Ho0 O27 2.666205 1_555
Ho0 O24 2.836149 1_555
Ho0 O29 2.836149 1_555
Ho1 O7 2.220117 1_455
Ho1 O8 2.220117 1_455
Ho1 O19 2.271690 1_455
Ho1 O4 2.377580 1_555
Ho1 O3 2.377580 1_555
Ho1 O25 2.666205 1_555
Ho1 O28 2.666205 1_555
Ho1 O23 2.836149 1_455
Ho1 O26 2.836149 1_455
Br0 O30 1.654223 1_555
Br0 O14 1.676284 1_555
Br0 O6 1.759946 1_555
Br1 O31 1.654223 1_555
Br1 O15 1.676284 1_555
Br1 O7 1.759946 1_555
Br2 O33 1.654223 1_555
Br2 O16 1.676284 1_555
Br2 O8 1.759946 1_555
Br3 O32 1.654223 1_555
Br3 O17 1.676284 1_555
Br3 O9 1.759946 1_555
Br4 O34 1.716692 1_555
Br5 O35 1.716692 1_555
O0 O22 1.324717 1_555
O0 O27 1.324717 1_555
O1 O25 1.324717 1_555
O1 O28 1.324717 1_555
O10 O24 1.231418 1_555
O11 O23 1.231418 1_555
O12 O26 1.231418 1_555
O13 O29 1.231418 1_555
O18 O2 1.336404 1_555
O18 O5 1.336404 1_555
O21 O3 1.336404 1_555
O21 O4 1.336404 1_555
