# generated using pymatgen
data_Ca3Os3N5
_symmetry_space_group_name_H-M   'P 1'
_cell_length_a   6.03859390
_cell_length_b   6.76041113
_cell_length_c   8.21372577
_cell_angle_alpha   99.16799299
_cell_angle_beta   107.72377985
_cell_angle_gamma   91.72170357
_symmetry_Int_Tables_number   1
_chemical_formula_structural   Ca3Os3N5
_chemical_formula_sum   'Ca6 Os6 N10'
_cell_volume   314.21439620
_cell_formula_units_Z   2
loop_
 _symmetry_equiv_pos_site_id
 _symmetry_equiv_pos_as_xyz
  1  'x, y, z'
loop_
 _atom_site_type_symbol
 _atom_site_label
 _atom_site_symmetry_multiplicity
 _atom_site_fract_x
 _atom_site_fract_y
 _atom_site_fract_z
 _atom_site_occupancy
  Ca  Ca0  1  0.79069400  0.49189100  0.60557600  1
  Ca  Ca1  1  0.20930600  0.50810900  0.39442400  1
  Ca  Ca2  1  0.63918200  0.89508100  0.84407300  1
  Ca  Ca3  1  0.36081800  0.10491900  0.15592700  1
  Ca  Ca4  1  0.63605600  0.66264400  0.17814000  1
  Ca  Ca5  1  0.36394400  0.33735600  0.82186000  1
  Os  Os0  1  0.92225200  0.32589900  0.00231600  1
  Os  Os1  1  0.07774800  0.67410100  0.99768400  1
  Os  Os2  1  0.70974000  0.00492500  0.49544100  1
  Os  Os3  1  0.29026000  0.99507500  0.50455900  1
  Os  Os4  1  0.10434500  0.89611000  0.75336900  1
  Os  Os5  1  0.89565500  0.10389000  0.24663100  1
  N  N0  1  0.04257500  0.11543900  0.88886100  1
  N  N1  1  0.95742500  0.88456100  0.11113900  1
  N  N2  1  0.99493200  0.78857100  0.49978200  1
  N  N3  1  0.00506800  0.21142900  0.50021800  1
  N  N4  1  0.73293500  0.53368400  0.88811500  1
  N  N5  1  0.26706500  0.46631600  0.11188500  1
  N  N6  1  0.50905100  0.77833600  0.51343000  1
  N  N7  1  0.49094900  0.22166400  0.48657000  1
  N  N8  1  0.34244300  0.78268800  0.94020800  1
  N  N9  1  0.65755700  0.21731200  0.05979200  1
loop_
_geom_bond_atom_site_label_1
_geom_bond_atom_site_label_2
_geom_bond_distance
_geom_bond_site_symmetry_2
Ca0 N7 2.392511 1_555
Ca0 N4 2.424236 1_555
Ca0 N3 2.515219 1_655
Ca0 N6 2.663927 1_555
Ca0 N2 2.712591 1_555
Ca1 N6 2.392511 1_555
Ca1 N5 2.424236 1_555
Ca1 N2 2.515219 1_455
Ca1 N7 2.663927 1_555
Ca1 N3 2.712591 1_555
Ca2 N8 2.320034 1_555
Ca2 N1 2.449759 1_556
Ca2 N9 2.555988 1_566
Ca2 N6 2.568340 1_555
Ca2 N4 2.580818 1_555
Ca2 N0 2.711090 1_665
Ca3 N9 2.320034 1_555
Ca3 N0 2.449759 1_554
Ca3 N8 2.555988 1_544
Ca3 N7 2.568340 1_555
Ca3 N5 2.580818 1_555
Ca3 N1 2.711090 1_445
Ca4 N5 2.424133 1_555
Ca4 N8 2.470558 1_554
Ca4 N4 2.644707 1_554
Ca4 N1 2.656689 1_555
Ca4 N2 2.843804 1_555
Ca4 N9 3.032066 1_555
Ca4 N6 3.069194 1_555
Ca5 N4 2.424133 1_555
Ca5 N9 2.470558 1_556
Ca5 N5 2.644707 1_556
Ca5 N0 2.656689 1_555
Ca5 N3 2.843804 1_555
Ca5 N8 3.032066 1_555
Ca5 N7 3.069194 1_555
N0 Os4 1.826573 1_545
N0 Os0 1.863478 1_456
N1 Os5 1.826573 1_565
N1 Os1 1.863478 1_654
N2 Os4 1.988522 1_655
N2 Os3 2.218385 1_655
N2 Os2 2.288453 1_565
N3 Os5 1.988522 1_455
N3 Os2 2.218385 1_455
N3 Os3 2.288453 1_545
N4 Os0 2.005863 1_556
N4 Os1 2.124764 1_655
N5 Os1 2.005863 1_554
N5 Os0 2.124764 1_455
N6 Os2 1.976512 1_565
N6 Os3 1.997380 1_555
N7 Os3 1.976512 1_545
N7 Os2 1.997380 1_555
N8 Os1 1.953449 1_555
N8 Os4 2.026840 1_555
N9 Os0 1.953449 1_555
N9 Os5 2.026840 1_555
