# generated using pymatgen
data_Ba4NbFeO8
_symmetry_space_group_name_H-M   'P 1'
_cell_length_a   6.05570358
_cell_length_b   7.59024912
_cell_length_c   21.06481822
_cell_angle_alpha   82.04453938
_cell_angle_beta   90.00000000
_cell_angle_gamma   90.00000000
_symmetry_Int_Tables_number   1
_chemical_formula_structural   Ba4NbFeO8
_chemical_formula_sum   'Ba16 Nb4 Fe4 O32'
_cell_volume   958.91131487
_cell_formula_units_Z   4
loop_
 _symmetry_equiv_pos_site_id
 _symmetry_equiv_pos_as_xyz
  1  'x, y, z'
loop_
 _atom_site_type_symbol
 _atom_site_label
 _atom_site_symmetry_multiplicity
 _atom_site_fract_x
 _atom_site_fract_y
 _atom_site_fract_z
 _atom_site_occupancy
  Ba  Ba0  1  0.76216524  0.03366308  0.09674338  1
  Ba  Ba1  1  0.26216524  0.96633692  0.40325662  1
  Ba  Ba2  1  0.23783476  0.96633692  0.90325662  1
  Ba  Ba3  1  0.73783476  0.03366308  0.59674338  1
  Ba  Ba4  1  0.75666973  0.51258881  0.13766139  1
  Ba  Ba5  1  0.25666973  0.48741119  0.36233861  1
  Ba  Ba6  1  0.24333027  0.48741119  0.86233861  1
  Ba  Ba7  1  0.74333027  0.51258881  0.63766139  1
  Ba  Ba8  1  0.27282073  0.29858061  0.04765773  1
  Ba  Ba9  1  0.77282073  0.70141939  0.45234227  1
  Ba  Ba10  1  0.72717927  0.70141939  0.95234227  1
  Ba  Ba11  1  0.22717927  0.29858061  0.54765773  1
  Ba  Ba12  1  0.27564915  0.85093887  0.21145068  1
  Ba  Ba13  1  0.77564915  0.14906113  0.28854932  1
  Ba  Ba14  1  0.72435085  0.14906113  0.78854932  1
  Ba  Ba15  1  0.22435085  0.85093887  0.71145068  1
  Nb  Nb0  1  0.26337283  0.34327685  0.21210505  1
  Nb  Nb1  1  0.76337283  0.65672315  0.28789495  1
  Nb  Nb2  1  0.73662717  0.65672315  0.78789495  1
  Nb  Nb3  1  0.23662717  0.34327685  0.71210505  1
  Fe  Fe0  1  0.22329921  0.73396478  0.05931736  1
  Fe  Fe1  1  0.72329921  0.26603522  0.44068264  1
  Fe  Fe2  1  0.77670079  0.26603522  0.94068264  1
  Fe  Fe3  1  0.27670079  0.73396478  0.55931736  1
  O  O0  1  0.50110893  0.49918200  0.25181500  1
  O  O1  1  0.00110893  0.50081800  0.24818500  1
  O  O2  1  0.49889107  0.50081800  0.74818500  1
  O  O3  1  -0.00110893  0.49918200  0.75181500  1
  O  O4  1  0.49536847  0.21295816  0.17721571  1
  O  O5  1  0.99536847  0.78704184  0.32278429  1
  O  O6  1  0.50463153  0.78704184  0.82278429  1
  O  O7  1  0.00463153  0.21295816  0.67721571  1
  O  O8  1  0.24134884  0.18815894  0.29285845  1
  O  O9  1  0.74134884  0.81184106  0.20714155  1
  O  O10  1  0.75865116  0.81184106  0.70714155  1
  O  O11  1  0.25865116  0.18815894  0.79285845  1
  O  O12  1  0.03109466  0.22277999  0.16938069  1
  O  O13  1  0.53109466  0.77722001  0.33061931  1
  O  O14  1  0.96890534  0.77722001  0.83061931  1
  O  O15  1  0.46890534  0.22277999  0.66938069  1
  O  O16  1  0.27312448  0.55038501  0.13185547  1
  O  O17  1  0.77312448  0.44961499  0.36814453  1
  O  O18  1  0.72687552  0.44961499  0.86814453  1
  O  O19  1  0.22687552  0.55038501  0.63185547  1
  O  O20  1  0.34425878  0.94189724  0.08086212  1
  O  O21  1  0.84425878  0.05810276  0.41913788  1
  O  O22  1  0.65574122  0.05810276  0.91913788  1
  O  O23  1  0.15574122  0.94189724  0.58086212  1
  O  O24  1  0.30148451  0.65362128  0.98128359  1
  O  O25  1  0.80148451  0.34637872  0.51871641  1
  O  O26  1  0.69851549  0.34637872  0.01871641  1
  O  O27  1  0.19851549  0.65362128  0.48128359  1
  O  O28  1  0.91826387  0.76130653  0.05474160  1
  O  O29  1  0.41826387  0.23869347  0.44525840  1
  O  O30  1  0.08173613  0.23869347  0.94525840  1
  O  O31  1  0.58173613  0.76130653  0.55474160  1
loop_
_geom_bond_atom_site_label_1
_geom_bond_atom_site_label_2
_geom_bond_distance
_geom_bond_site_symmetry_2
Ba0 O28 2.540904 1_545
Ba0 O20 2.658212 1_545
Ba0 O9 2.678600 1_545
Ba0 O26 2.721046 1_555
Ba0 O12 2.768004 1_655
Ba0 O4 2.823895 1_555
Ba1 O29 2.540904 1_565
Ba1 O21 2.658212 1_465
Ba1 O8 2.678600 1_565
Ba1 O27 2.721046 1_555
Ba1 O13 2.768004 1_555
Ba1 O5 2.823895 1_455
Ba2 O30 2.540904 1_565
Ba2 O22 2.658212 1_565
Ba2 O11 2.678600 1_565
Ba2 O24 2.721046 1_555
Ba2 O14 2.768004 1_455
Ba2 O6 2.823895 1_555
Ba3 O31 2.540904 1_545
Ba3 O23 2.658212 1_645
Ba3 O10 2.678600 1_545
Ba3 O25 2.721046 1_555
Ba3 O15 2.768004 1_555
Ba3 O7 2.823895 1_655
Ba4 O28 2.580632 1_555
Ba4 O1 2.749887 1_655
Ba4 O12 2.764068 1_655
Ba4 O4 2.801050 1_555
Ba4 O0 2.849546 1_555
Ba4 O9 2.868826 1_555
Ba4 O16 2.943118 1_555
Ba4 O26 2.977980 1_555
Ba4 O16 3.141462 1_655
Ba5 O29 2.580632 1_555
Ba5 O0 2.749887 1_555
Ba5 O13 2.764068 1_555
Ba5 O5 2.801050 1_455
Ba5 O1 2.849546 1_555
Ba5 O8 2.868826 1_555
Ba5 O17 2.943118 1_455
Ba5 O27 2.977980 1_555
Ba5 O17 3.141462 1_555
Ba6 O30 2.580632 1_555
Ba6 O3 2.749887 1_555
Ba6 O14 2.764068 1_455
Ba6 O6 2.801050 1_555
Ba6 O2 2.849546 1_555
Ba6 O11 2.868826 1_555
Ba6 O18 2.943118 1_555
Ba6 O24 2.977980 1_555
Ba6 O18 3.141462 1_455
Ba7 O31 2.580632 1_555
Ba7 O2 2.749887 1_555
Ba7 O15 2.764068 1_555
Ba7 O7 2.801050 1_655
Ba7 O3 2.849546 1_655
Ba7 O10 2.868826 1_555
Ba7 O19 2.943118 1_655
Ba7 O25 2.977980 1_555
Ba7 O19 3.141462 1_555
Ba8 O30 2.543576 1_554
Ba8 O26 2.662243 1_555
Ba8 O20 2.735281 1_545
Ba8 O16 2.781534 1_555
Ba8 O24 2.864301 1_554
Ba8 O12 2.939372 1_555
Ba8 O4 3.032446 1_555
Ba9 O31 2.543576 1_555
Ba9 O27 2.662243 1_655
Ba9 O21 2.735281 1_565
Ba9 O17 2.781534 1_555
Ba9 O25 2.864301 1_555
Ba9 O13 2.939372 1_555
Ba9 O5 3.032446 1_555
Ba10 O28 2.543576 1_556
Ba10 O24 2.662243 1_555
Ba10 O22 2.735281 1_565
Ba10 O18 2.781534 1_555
Ba10 O26 2.864301 1_556
Ba10 O14 2.939372 1_555
Ba10 O6 3.032446 1_555
Ba11 O29 2.543576 1_555
Ba11 O25 2.662243 1_455
Ba11 O23 2.735281 1_545
Ba11 O19 2.781534 1_555
Ba11 O27 2.864301 1_555
Ba11 O15 2.939372 1_555
Ba11 O7 3.032446 1_555
Ba12 O20 2.773194 1_555
Ba12 O9 2.838477 1_555
Ba12 O5 2.881190 1_455
Ba12 O13 2.935750 1_555
Ba12 O16 3.012377 1_555
Ba12 O0 3.014488 1_555
Ba12 O4 3.048346 1_565
Ba12 O1 3.139411 1_555
Ba12 O12 3.201870 1_565
Ba12 O9 3.251560 1_455
Ba12 O8 3.278761 1_565
Ba13 O21 2.773194 1_555
Ba13 O8 2.838477 1_655
Ba13 O4 2.881190 1_555
Ba13 O12 2.935750 1_655
Ba13 O17 3.012377 1_555
Ba13 O1 3.014488 1_655
Ba13 O5 3.048346 1_545
Ba13 O0 3.139411 1_555
Ba13 O13 3.201870 1_545
Ba13 O8 3.251560 1_555
Ba13 O9 3.278761 1_545
Ba14 O22 2.773194 1_555
Ba14 O11 2.838477 1_555
Ba14 O7 2.881190 1_655
Ba14 O15 2.935750 1_555
Ba14 O18 3.012377 1_555
Ba14 O2 3.014488 1_555
Ba14 O6 3.048346 1_545
Ba14 O3 3.139411 1_655
Ba14 O14 3.201870 1_545
Ba14 O11 3.251560 1_655
Ba14 O10 3.278761 1_545
Ba15 O23 2.773194 1_555
Ba15 O10 2.838477 1_455
Ba15 O6 2.881190 1_555
Ba15 O14 2.935750 1_455
Ba15 O19 3.012377 1_555
Ba15 O3 3.014488 1_555
Ba15 O7 3.048346 1_565
Ba15 O2 3.139411 1_555
Ba15 O15 3.201870 1_565
Ba15 O10 3.251560 1_555
Ba15 O11 3.278761 1_565
Nb0 O4 1.921853 1_555
Nb0 O8 1.934741 1_555
Nb0 O12 1.962868 1_555
Nb0 O0 2.108711 1_555
Nb0 O16 2.143991 1_555
Nb0 O1 2.186648 1_555
Nb1 O5 1.921853 1_555
Nb1 O9 1.934741 1_555
Nb1 O13 1.962868 1_555
Nb1 O1 2.108711 1_655
Nb1 O17 2.143991 1_555
Nb1 O0 2.186648 1_555
Nb2 O6 1.921853 1_555
Nb2 O10 1.934741 1_555
Nb2 O14 1.962868 1_555
Nb2 O2 2.108711 1_555
Nb2 O18 2.143991 1_555
Nb2 O3 2.186648 1_655
Nb3 O7 1.921853 1_555
Nb3 O11 1.934741 1_555
Nb3 O15 1.962868 1_555
Nb3 O3 2.108711 1_555
Nb3 O19 2.143991 1_555
Nb3 O2 2.186648 1_555
Fe0 O20 1.852481 1_555
Fe0 O28 1.859834 1_455
Fe0 O24 1.890901 1_554
Fe0 O16 1.943728 1_555
Fe1 O21 1.852481 1_555
Fe1 O29 1.859834 1_555
Fe1 O25 1.890901 1_555
Fe1 O17 1.943728 1_555
Fe2 O22 1.852481 1_555
Fe2 O30 1.859834 1_655
Fe2 O26 1.890901 1_556
Fe2 O18 1.943728 1_555
Fe3 O23 1.852481 1_555
Fe3 O31 1.859834 1_555
Fe3 O27 1.890901 1_555
Fe3 O19 1.943728 1_555
