# generated using pymatgen
data_CaV2O2
_symmetry_space_group_name_H-M   'P 1'
_cell_length_a   8.33327838
_cell_length_b   8.33327838
_cell_length_c   8.33327838
_cell_angle_alpha   117.93507556
_cell_angle_beta   117.93507556
_cell_angle_gamma   93.61538422
_symmetry_Int_Tables_number   1
_chemical_formula_structural   CaV2O2
_chemical_formula_sum   'Ca4 V8 O8'
_cell_volume   421.06202290
_cell_formula_units_Z   4
loop_
 _symmetry_equiv_pos_site_id
 _symmetry_equiv_pos_as_xyz
  1  'x, y, z'
loop_
 _atom_site_type_symbol
 _atom_site_label
 _atom_site_symmetry_multiplicity
 _atom_site_fract_x
 _atom_site_fract_y
 _atom_site_fract_z
 _atom_site_occupancy
  Ca  Ca0  1  0.87500000  0.12500000  0.25000000  1
  Ca  Ca1  1  0.87500000  0.62500000  0.75000000  1
  Ca  Ca2  1  0.37500000  0.12500000  0.25000000  1
  Ca  Ca3  1  0.87500000  0.12500000  0.75000000  1
  V  V0  1  0.55645100  0.36957500  0.81312500  1
  V  V1  1  0.55645100  0.74332600  0.18687500  1
  V  V2  1  0.49332600  0.80645100  0.68687500  1
  V  V3  1  0.19354900  0.50667400  0.31312500  1
  V  V4  1  0.19354900  0.88042500  0.68687500  1
  V  V5  1  0.11957500  0.80645100  0.31312500  1
  V  V6  1  0.25667400  0.44354900  0.81312500  1
  V  V7  1  0.63042500  0.44354900  0.18687500  1
  O  O0  1  0.66989400  0.34304700  0.67315400  1
  O  O1  1  0.66989400  0.99674000  0.32684600  1
  O  O2  1  0.74674000  0.91989400  0.82684600  1
  O  O3  1  0.08010600  0.25326000  0.17315400  1
  O  O4  1  0.08010600  0.90695300  0.82684600  1
  O  O5  1  0.09304700  0.91989400  0.17315400  1
  O  O6  1  0.00326000  0.33010600  0.67315400  1
  O  O7  1  0.65695300  0.33010600  0.32684600  1
loop_
_geom_bond_atom_site_label_1
_geom_bond_atom_site_label_2
_geom_bond_distance
_geom_bond_site_symmetry_2
Ca0 O1 2.431106 1_545
Ca0 O3 2.431106 1_655
Ca0 O5 2.662614 1_645
Ca0 O7 2.662614 1_555
Ca0 O6 2.662621 1_655
Ca0 O2 2.662621 1_544
Ca1 O0 2.431112 1_555
Ca1 O4 2.431112 1_655
Ca1 O5 2.662621 1_656
Ca1 O7 2.662621 1_555
Ca1 O2 2.662621 1_555
Ca1 O6 2.662621 1_655
Ca2 O7 2.431112 1_555
Ca2 O5 2.431112 1_545
Ca2 O0 2.662621 1_555
Ca2 O4 2.662621 1_544
Ca2 O1 2.662621 1_545
Ca2 O3 2.662621 1_555
Ca3 O2 2.431106 1_545
Ca3 O6 2.431106 1_655
Ca3 O4 2.662614 1_645
Ca3 O0 2.662614 1_555
Ca3 O3 2.662621 1_656
Ca3 O1 2.662621 1_545
O0 V0 1.766633 1_555
O1 V1 1.766633 1_555
O2 V2 1.766633 1_555
O3 V3 1.766633 1_555
O4 V4 1.766633 1_555
O5 V5 1.766633 1_555
O6 V6 1.766633 1_555
O7 V7 1.766633 1_555
