# generated using pymatgen
data_Te16(Mo3Ru)3
_symmetry_space_group_name_H-M   'P 1'
_cell_length_a   7.10556607
_cell_length_b   9.82179111
_cell_length_c   10.45902513
_cell_angle_alpha   90.60750542
_cell_angle_beta   91.48372058
_cell_angle_gamma   94.75685174
_symmetry_Int_Tables_number   1
_chemical_formula_structural   Te16(Mo3Ru)3
_chemical_formula_sum   'Te16 Mo9 Ru3'
_cell_volume   727.11132222
_cell_formula_units_Z   1
loop_
 _symmetry_equiv_pos_site_id
 _symmetry_equiv_pos_as_xyz
  1  'x, y, z'
loop_
 _atom_site_type_symbol
 _atom_site_label
 _atom_site_symmetry_multiplicity
 _atom_site_fract_x
 _atom_site_fract_y
 _atom_site_fract_z
 _atom_site_occupancy
  Te  Te0  1  0.77923314  0.78220470  0.00160433  1
  Te  Te1  1  0.78239821  0.29245865  0.50264544  1
  Te  Te2  1  0.20509921  0.20723431  0.99396122  1
  Te  Te3  1  0.21497043  0.70691292  0.48796135  1
  Te  Te4  1  0.60688759  0.57878649  0.70622379  1
  Te  Te5  1  0.60709325  0.08237676  0.20097799  1
  Te  Te6  1  0.88498224  0.44617447  0.16885891  1
  Te  Te7  1  0.89199357  0.94365800  0.67942125  1
  Te  Te8  1  0.26409288  0.74868218  0.12545464  1
  Te  Te9  1  0.26844342  0.25005805  0.62637449  1
  Te  Te10  1  0.38286946  0.42405266  0.30817307  1
  Te  Te11  1  0.39463287  0.92438658  0.80822858  1
  Te  Te12  1  0.11197035  0.55639081  0.82170433  1
  Te  Te13  1  0.11839247  0.05748714  0.32249059  1
  Te  Te14  1  0.73688024  0.25331573  0.87270019  1
  Te  Te15  1  0.73471601  0.74613635  0.37257014  1
  Mo  Mo0  1  0.75011222  0.02004538  0.43957562  1
  Mo  Mo1  1  0.58500730  0.60008045  0.15068052  1
  Mo  Mo2  1  0.59279999  0.10521863  0.65012246  1
  Mo  Mo3  1  0.54675786  0.33218475  0.08026192  1
  Mo  Mo4  1  0.55274583  0.83041113  0.58230001  1
  Mo  Mo5  1  0.24991632  0.47640716  0.06480108  1
  Mo  Mo6  1  0.26111278  0.97862568  0.56323428  1
  Mo  Mo7  1  0.41016659  0.39569024  0.85352040  1
  Mo  Mo8  1  0.41414572  0.89758162  0.34803931  1
  Ru  Ru0  1  0.44645728  0.66894538  0.91794554  1
  Ru  Ru1  1  0.44960996  0.17277579  0.41674198  1
  Ru  Ru2  1  0.75651281  0.52171997  0.93342455  1
loop_
_geom_bond_atom_site_label_1
_geom_bond_atom_site_label_2
_geom_bond_distance
_geom_bond_site_symmetry_2
Mo0 Mo2 2.653693 1_555
Mo0 Ru1 2.716425 1_555
Mo0 Mo4 2.719979 1_545
Mo0 Mo8 2.728224 1_545
Mo0 Te1 2.738514 1_555
Mo0 Te5 2.763926 1_555
Mo0 Te15 2.765490 1_545
Mo0 Te7 2.811846 1_545
Mo0 Te13 2.915238 1_655
Mo1 Te0 2.701223 1_555
Mo1 Mo5 2.708858 1_555
Mo1 Mo3 2.714690 1_555
Mo1 Ru0 2.715358 1_554
Mo1 Te6 2.717340 1_555
Mo1 Ru2 2.739086 1_554
Mo1 Te10 2.745264 1_555
Mo1 Te8 2.815763 1_555
Mo1 Te15 2.850230 1_555
Mo2 Mo6 2.702878 1_545
Mo2 Te1 2.707960 1_555
Mo2 Ru1 2.729712 1_555
Mo2 Te11 2.764022 1_545
Mo2 Te7 2.769041 1_545
Mo2 Mo4 2.773243 1_545
Mo2 Te9 2.814050 1_555
Mo2 Te14 2.853249 1_555
Mo3 Mo5 2.638987 1_555
Mo3 Mo7 2.639621 1_554
Mo3 Te6 2.702642 1_555
Mo3 Te14 2.725366 1_554
Mo3 Te2 2.753789 1_554
Mo3 Ru2 2.786474 1_554
Mo3 Te5 2.830190 1_555
Mo3 Te10 2.850411 1_555
Mo4 Mo6 2.634024 1_555
Mo4 Mo8 2.724959 1_555
Mo4 Te15 2.730315 1_555
Mo4 Te7 2.735745 1_555
Mo4 Te3 2.752165 1_555
Mo4 Te11 2.821543 1_555
Mo4 Te4 2.852292 1_555
Mo5 Mo7 2.655395 1_554
Mo5 Te2 2.728817 1_554
Mo5 Te8 2.734980 1_555
Mo5 Te10 2.760420 1_555
Mo5 Ru0 2.760491 1_554
Mo5 Te6 2.832302 1_455
Mo5 Te12 2.843149 1_554
Mo6 Mo8 2.667229 1_555
Mo6 Te9 2.735686 1_565
Mo6 Ru1 2.742694 1_565
Mo6 Te3 2.765187 1_555
Mo6 Te11 2.781488 1_555
Mo6 Te13 2.829807 1_565
Mo6 Te7 2.915178 1_455
Mo7 Te4 2.704556 1_555
Mo7 Te2 2.725448 1_555
Mo7 Ru0 2.749815 1_555
Mo7 Te12 2.760582 1_555
Mo7 Ru2 2.766484 1_555
Mo7 Te14 2.811624 1_555
Mo7 Te9 2.875633 1_555
Mo8 Te5 2.701007 1_565
Mo8 Te3 2.716147 1_555
Mo8 Te13 2.735244 1_565
Mo8 Ru1 2.778844 1_565
Mo8 Te15 2.829607 1_555
Mo8 Te8 2.869827 1_555
Ru0 Te0 2.651446 1_556
Ru0 Te4 2.691426 1_555
Ru0 Te8 2.698284 1_556
Ru0 Te12 2.702010 1_555
Ru0 Ru2 2.736015 1_555
Ru0 Te11 2.817687 1_555
Ru1 Te1 2.680890 1_555
Ru1 Te13 2.684595 1_555
Ru1 Te9 2.704346 1_555
Ru1 Te5 2.717754 1_555
Ru1 Te10 2.798381 1_555
Ru2 Te0 2.639500 1_556
Ru2 Te4 2.662241 1_555
Ru2 Te14 2.696545 1_555
Ru2 Te6 2.735325 1_556
Ru2 Te12 2.806998 1_655
