# generated using pymatgen
data_LaMg6Nb
_symmetry_space_group_name_H-M   'P 1'
_cell_length_a   5.18275800
_cell_length_b   6.14173500
_cell_length_c   11.89459000
_cell_angle_alpha   90.00000000
_cell_angle_beta   90.00000000
_cell_angle_gamma   90.00000000
_symmetry_Int_Tables_number   1
_chemical_formula_structural   LaMg6Nb
_chemical_formula_sum   'La2 Mg12 Nb2'
_cell_volume   378.61819545
_cell_formula_units_Z   2
loop_
 _symmetry_equiv_pos_site_id
 _symmetry_equiv_pos_as_xyz
  1  'x, y, z'
loop_
 _atom_site_type_symbol
 _atom_site_label
 _atom_site_symmetry_multiplicity
 _atom_site_fract_x
 _atom_site_fract_y
 _atom_site_fract_z
 _atom_site_occupancy
  La  La0  1  0.50000000  0.00000000  0.17339700  1
  La  La1  1  0.50000000  0.50000000  0.67339700  1
  Mg  Mg0  1  0.50000000  0.25033700  0.42079100  1
  Mg  Mg1  1  0.50000000  0.74966300  0.42079100  1
  Mg  Mg2  1  0.00000000  0.73519700  0.08200300  1
  Mg  Mg3  1  0.00000000  0.26480300  0.08200300  1
  Mg  Mg4  1  0.00000000  0.00000000  0.34126900  1
  Mg  Mg5  1  0.00000000  0.50000000  0.31529400  1
  Mg  Mg6  1  0.50000000  0.75033700  0.92079100  1
  Mg  Mg7  1  0.50000000  0.24966300  0.92079100  1
  Mg  Mg8  1  0.00000000  0.23519700  0.58200300  1
  Mg  Mg9  1  0.00000000  0.76480300  0.58200300  1
  Mg  Mg10  1  0.00000000  0.50000000  0.84126900  1
  Mg  Mg11  1  0.00000000  0.00000000  0.81529400  1
  Nb  Nb0  1  0.50000000  0.50000000  0.16444800  1
  Nb  Nb1  1  0.50000000  0.00000000  0.66444800  1
loop_
_geom_bond_atom_site_label_1
_geom_bond_atom_site_label_2
_geom_bond_distance
_geom_bond_site_symmetry_2
La0 Nb0 3.072712 1_555
La0 Nb0 3.072712 1_545
La0 Mg2 3.246850 1_545
La0 Mg3 3.246850 1_655
La0 Mg3 3.246850 1_555
La0 Mg2 3.246850 1_645
La0 Mg4 3.271442 1_655
La0 Mg4 3.271442 1_555
La0 Mg0 3.320107 1_555
La0 Mg1 3.320107 1_545
La0 Mg7 3.373291 1_554
La0 Mg6 3.373291 1_544
La1 Nb1 3.072712 1_565
La1 Nb1 3.072712 1_555
La1 Mg9 3.246850 1_555
La1 Mg8 3.246850 1_655
La1 Mg9 3.246850 1_655
La1 Mg8 3.246850 1_555
La1 Mg10 3.271442 1_555
La1 Mg10 3.271442 1_655
La1 Mg6 3.320107 1_555
La1 Mg7 3.320107 1_555
La1 Mg1 3.373291 1_555
La1 Mg0 3.373291 1_555
Mg0 Mg1 3.066728 1_555
Mg0 Mg1 3.075007 1_545
Mg0 Mg4 3.158141 1_555
Mg0 Mg4 3.158141 1_655
Mg0 Mg8 3.225041 1_655
Mg0 Mg8 3.225041 1_555
Mg0 Mg5 3.262067 1_555
Mg0 Mg5 3.262067 1_655
Mg0 Nb1 3.280774 1_555
Mg0 Nb0 3.412944 1_555
Mg1 Mg4 3.158141 1_665
Mg1 Mg4 3.158141 1_565
Mg1 Mg9 3.225041 1_555
Mg1 Mg9 3.225041 1_655
Mg1 Mg5 3.262067 1_655
Mg1 Mg5 3.262067 1_555
Mg1 Nb1 3.280774 1_565
Mg1 Nb0 3.412944 1_555
Mg2 Mg3 2.889035 1_555
Mg2 Nb0 3.124668 1_455
Mg2 Nb0 3.124668 1_555
Mg2 Mg5 3.128371 1_555
Mg2 Mg6 3.225041 1_454
Mg2 Mg6 3.225041 1_554
Mg2 Mg3 3.252700 1_565
Mg2 Mg4 3.486434 1_565
Mg3 Nb0 3.124668 1_455
Mg3 Nb0 3.124668 1_555
Mg3 Mg5 3.128371 1_555
Mg3 Mg7 3.225041 1_454
Mg3 Mg7 3.225041 1_554
Mg3 Mg4 3.486434 1_555
Mg4 Mg5 3.086371 1_555
Mg4 Mg5 3.086371 1_545
Mg4 Mg8 3.207160 1_555
Mg4 Mg9 3.207160 1_545
Mg5 Nb0 3.151917 1_455
Mg5 Nb0 3.151917 1_555
Mg6 Mg7 3.066728 1_565
Mg6 Mg7 3.075007 1_555
Mg6 Nb0 3.280774 1_556
Mg6 Nb1 3.412944 1_565
Mg7 Nb0 3.280774 1_556
Mg7 Nb1 3.412944 1_555
Mg8 Mg9 2.889035 1_545
Mg8 Nb1 3.124668 1_555
Mg8 Nb1 3.124668 1_455
Mg8 Mg9 3.252700 1_555
Mg9 Nb1 3.124668 1_465
Mg9 Nb1 3.124668 1_565
Mg10 Mg11 3.086371 1_555
Mg10 Mg11 3.086371 1_565
Mg10 Mg6 3.158141 1_455
Mg10 Mg6 3.158141 1_555
Mg10 Mg7 3.158141 1_555
Mg10 Mg7 3.158141 1_455
Mg10 Mg3 3.207160 1_556
Mg10 Mg2 3.207160 1_556
Mg10 Mg9 3.486434 1_555
Mg10 Mg8 3.486434 1_555
Mg11 Mg9 3.128371 1_545
Mg11 Mg8 3.128371 1_555
Mg11 Nb1 3.151917 1_555
Mg11 Nb1 3.151917 1_455
Mg11 Mg7 3.262067 1_555
Mg11 Mg7 3.262067 1_455
Mg11 Mg6 3.262067 1_545
Mg11 Mg6 3.262067 1_445
