# generated using pymatgen
data_Cs2SiS3
_symmetry_space_group_name_H-M   'P 1'
_cell_length_a   7.21465422
_cell_length_b   7.78029072
_cell_length_c   8.98101248
_cell_angle_alpha   72.83695020
_cell_angle_beta   66.31791450
_cell_angle_gamma   62.37715591
_symmetry_Int_Tables_number   1
_chemical_formula_structural   Cs2SiS3
_chemical_formula_sum   'Cs4 Si2 S6'
_cell_volume   405.35016106
_cell_formula_units_Z   2
loop_
 _symmetry_equiv_pos_site_id
 _symmetry_equiv_pos_as_xyz
  1  'x, y, z'
loop_
 _atom_site_type_symbol
 _atom_site_label
 _atom_site_symmetry_multiplicity
 _atom_site_fract_x
 _atom_site_fract_y
 _atom_site_fract_z
 _atom_site_occupancy
  Cs  Cs0  1  0.92121170  0.29981874  0.85775585  1
  Cs  Cs1  1  0.07878830  0.70018126  0.14224415  1
  Cs  Cs2  1  0.69933739  0.91500541  0.68631881  1
  Cs  Cs3  1  0.30066261  0.08499459  0.31368119  1
  Si  Si0  1  0.61173124  0.44958364  0.32695587  1
  Si  Si1  1  0.38826876  0.55041636  0.67304413  1
  S  S0  1  0.72340929  0.50000000  0.50000000  1
  S  S1  1  0.27659071  0.50000000  0.50000000  1
  S  S2  1  0.60951247  0.65952788  0.12144818  1
  S  S3  1  0.39048753  0.34047212  0.87855182  1
  S  S4  1  0.77944985  0.16054263  0.28055767  1
  S  S5  1  0.22055015  0.83945737  0.71944233  1
loop_
_geom_bond_atom_site_label_1
_geom_bond_atom_site_label_2
_geom_bond_distance
_geom_bond_site_symmetry_2
Cs0 S4 3.481146 1_556
Cs0 S2 3.506472 1_556
Cs0 S5 3.511961 1_645
Cs0 S3 3.624008 1_555
Cs0 S3 3.624015 1_655
Cs0 S0 3.668062 1_555
Cs0 S1 3.668070 1_655
Cs1 S5 3.481146 1_554
Cs1 S3 3.506472 1_554
Cs1 S4 3.511961 1_465
Cs1 S2 3.624008 1_555
Cs1 S2 3.624015 1_455
Cs1 S1 3.668062 1_555
Cs1 S0 3.668070 1_455
Cs2 S3 3.513719 1_565
Cs2 S4 3.533632 1_565
Cs2 S5 3.649678 1_555
Cs2 S5 3.649686 1_655
Cs2 S2 3.770710 1_556
Cs2 S0 3.961193 1_555
Cs2 S1 3.961197 1_655
Cs3 S2 3.513719 1_545
Cs3 S5 3.533632 1_545
Cs3 S4 3.649678 1_555
Cs3 S4 3.649686 1_455
Cs3 S3 3.770710 1_554
Cs3 S1 3.961193 1_555
Cs3 S0 3.961197 1_455
S0 Si0 2.208406 1_555
S0 Si1 2.208417 1_555
S1 Si1 2.208406 1_555
S1 Si0 2.208417 1_555
S2 Si0 2.072451 1_555
S3 Si1 2.072451 1_555
S4 Si0 2.078391 1_555
S5 Si1 2.078391 1_555
