# generated using pymatgen
data_Ce(MnCo2)4
_symmetry_space_group_name_H-M   'P 1'
_cell_length_a   4.55771600
_cell_length_b   6.35324928
_cell_length_c   6.35324928
_cell_angle_alpha   82.60784815
_cell_angle_beta   68.98012734
_cell_angle_gamma   68.98012734
_symmetry_Int_Tables_number   1
_chemical_formula_structural   Ce(MnCo2)4
_chemical_formula_sum   'Ce1 Mn4 Co8'
_cell_volume   160.29752690
_cell_formula_units_Z   1
loop_
 _symmetry_equiv_pos_site_id
 _symmetry_equiv_pos_as_xyz
  1  'x, y, z'
loop_
 _atom_site_type_symbol
 _atom_site_label
 _atom_site_symmetry_multiplicity
 _atom_site_fract_x
 _atom_site_fract_y
 _atom_site_fract_z
 _atom_site_occupancy
  Ce  Ce0  1  0.00000000  0.00000000  0.00000000  1
  Mn  Mn0  1  0.00000000  0.00000000  0.50000000  1
  Mn  Mn1  1  0.50000000  0.00000000  0.50000000  1
  Mn  Mn2  1  0.50000000  0.50000000  0.00000000  1
  Mn  Mn3  1  0.00000000  0.50000000  0.00000000  1
  Co  Co0  1  0.00000000  0.35751500  0.64248500  1
  Co  Co1  1  0.00000000  0.64248500  0.35751500  1
  Co  Co2  1  0.64248500  0.35751500  0.35751500  1
  Co  Co3  1  0.35751500  0.64248500  0.64248500  1
  Co  Co4  1  0.50000000  0.77207900  0.22792100  1
  Co  Co5  1  0.50000000  0.22792100  0.77207900  1
  Co  Co6  1  0.72792100  0.77207900  0.77207900  1
  Co  Co7  1  0.27207900  0.22792100  0.22792100  1
loop_
_geom_bond_atom_site_label_1
_geom_bond_atom_site_label_2
_geom_bond_distance
_geom_bond_site_symmetry_2
Ce0 Co4 2.974437 1_445
Ce0 Co5 2.974437 1_454
Ce0 Co4 2.974437 1_545
Ce0 Co6 2.974437 1_444
Ce0 Co5 2.974437 1_554
Ce0 Co7 2.974437 1_555
Ce0 Co7 2.974437 1_455
Ce0 Co6 2.974437 1_544
Ce0 Co0 2.998465 1_554
Ce0 Co1 2.998465 1_545
Ce0 Co3 2.998465 1_544
Ce0 Co2 2.998465 1_455
Ce0 Mn0 3.176625 1_554
Ce0 Mn3 3.176625 1_555
Ce0 Mn1 3.176625 1_455
Ce0 Mn0 3.176625 1_555
Ce0 Mn2 3.176625 1_455
Ce0 Mn1 3.176625 1_554
Ce0 Mn2 3.176625 1_545
Ce0 Mn3 3.176625 1_545
Mn0 Mn1 2.278858 1_555
Mn0 Mn1 2.278858 1_455
Mn2 Mn3 2.278858 1_655
Mn2 Mn3 2.278858 1_555
Co0 Co1 2.390033 1_555
Co0 Co5 2.524786 1_455
Co0 Co5 2.524786 1_555
Co0 Mn0 2.551025 1_555
Co0 Mn3 2.551025 1_556
Co0 Mn2 2.551025 1_456
Co0 Mn1 2.551025 1_555
Co0 Co7 2.575890 1_555
Co0 Co6 2.575890 1_455
Co0 Co2 2.837133 1_455
Co0 Co3 2.837133 1_555
Co0 Co2 2.837133 1_555
Co0 Co3 2.837133 1_455
Co1 Co4 2.524786 1_455
Co1 Co4 2.524786 1_555
Co1 Mn0 2.551025 1_565
Co1 Mn2 2.551025 1_555
Co1 Mn1 2.551025 1_465
Co1 Mn3 2.551025 1_555
Co1 Co7 2.575890 1_555
Co1 Co6 2.575890 1_455
Co1 Co2 2.837133 1_455
Co1 Co3 2.837133 1_555
Co1 Co2 2.837133 1_555
Co1 Co3 2.837133 1_455
Co2 Co3 2.390033 1_555
Co2 Co7 2.524786 1_655
Co2 Co7 2.524786 1_555
Co2 Mn3 2.551025 1_655
Co2 Mn2 2.551025 1_555
Co2 Mn0 2.551025 1_655
Co2 Mn1 2.551025 1_555
Co2 Co5 2.575890 1_555
Co2 Co4 2.575890 1_555
Co3 Co6 2.524786 1_455
Co3 Co6 2.524786 1_555
Co3 Mn0 2.551025 1_565
Co3 Mn2 2.551025 1_556
Co3 Mn1 2.551025 1_565
Co3 Mn3 2.551025 1_556
Co3 Co5 2.575890 1_555
Co3 Co4 2.575890 1_555
Co4 Mn1 2.393514 1_565
Co4 Mn0 2.393514 1_565
Co4 Mn3 2.393514 1_655
Co4 Mn2 2.393514 1_555
Co4 Co7 2.703361 1_565
Co4 Co6 2.703361 1_554
Co5 Mn3 2.393514 1_556
Co5 Mn0 2.393514 1_655
Co5 Mn1 2.393514 1_555
Co5 Mn2 2.393514 1_556
Co5 Co7 2.703361 1_556
Co5 Co6 2.703361 1_545
Co6 Mn2 2.393514 1_556
Co6 Mn3 2.393514 1_656
Co6 Mn0 2.393514 1_665
Co6 Mn1 2.393514 1_565
Co7 Mn1 2.393514 1_555
Co7 Mn2 2.393514 1_555
Co7 Mn3 2.393514 1_555
Co7 Mn0 2.393514 1_555
