# generated using pymatgen
data_MnZnSe4
_symmetry_space_group_name_H-M   'P 1'
_cell_length_a   6.38744200
_cell_length_b   6.39114400
_cell_length_c   6.39122078
_cell_angle_alpha   89.83413372
_cell_angle_beta   90.00000000
_cell_angle_gamma   90.00000000
_symmetry_Int_Tables_number   1
_chemical_formula_structural   MnZnSe4
_chemical_formula_sum   'Mn2 Zn2 Se8'
_cell_volume   260.90810645
_cell_formula_units_Z   2
loop_
 _symmetry_equiv_pos_site_id
 _symmetry_equiv_pos_as_xyz
  1  'x, y, z'
loop_
 _atom_site_type_symbol
 _atom_site_label
 _atom_site_symmetry_multiplicity
 _atom_site_fract_x
 _atom_site_fract_y
 _atom_site_fract_z
 _atom_site_occupancy
  Mn  Mn0  1  0.50000000  0.00000000  0.50000000  1
  Mn  Mn1  1  0.00000000  0.50000000  0.50000000  1
  Zn  Zn0  1  0.50000000  0.50000000  0.00000000  1
  Zn  Zn1  1  0.00000000  0.00000000  0.00000000  1
  Se  Se0  1  0.89130000  0.60863300  0.89074300  1
  Se  Se1  1  0.39130000  0.89136700  0.10925700  1
  Se  Se2  1  0.10958200  0.10946100  0.60912800  1
  Se  Se3  1  0.60958200  0.39053900  0.39087200  1
  Se  Se4  1  0.10870000  0.39136700  0.10925700  1
  Se  Se5  1  0.60870000  0.10863300  0.89074300  1
  Se  Se6  1  0.89041800  0.89053900  0.39087200  1
  Se  Se7  1  0.39041800  0.60946100  0.60912800  1
loop_
_geom_bond_atom_site_label_1
_geom_bond_atom_site_label_2
_geom_bond_distance
_geom_bond_site_symmetry_2
Mn0 Se3 2.682587 1_555
Mn0 Se7 2.682587 1_545
Mn0 Se6 2.682833 1_545
Mn0 Se2 2.682833 1_555
Mn0 Se5 2.685290 1_555
Mn0 Se1 2.685290 1_545
Mn1 Se6 2.682587 1_455
Mn1 Se2 2.682587 1_555
Mn1 Se7 2.682833 1_555
Mn1 Se3 2.682833 1_455
Mn1 Se0 2.685290 1_455
Mn1 Se4 2.685290 1_555
Se0 Se4 2.407411 1_656
Se0 Zn0 2.685864 1_556
Se0 Zn1 2.690019 1_666
Se1 Se5 2.407411 1_564
Se1 Zn1 2.685864 1_565
Se1 Zn0 2.690019 1_555
Se2 Se6 2.423732 1_445
Se2 Zn1 2.685139 1_556
Se3 Se7 2.423732 1_555
Se3 Zn0 2.685139 1_555
Se4 Zn0 2.685864 1_555
Se4 Zn1 2.690019 1_555
Se5 Zn1 2.685864 1_656
Se5 Zn0 2.690019 1_556
Se6 Zn1 2.685139 1_665
Se7 Zn0 2.685139 1_556
