# generated using pymatgen
data_K3Hg11
_symmetry_space_group_name_H-M   'P 1'
_cell_length_a   5.09402561
_cell_length_b   9.63489746
_cell_length_c   9.63489719
_cell_angle_alpha   69.98119239
_cell_angle_beta   74.67150109
_cell_angle_gamma   74.67150122
_symmetry_Int_Tables_number   1
_chemical_formula_structural   K3Hg11
_chemical_formula_sum   'K3 Hg11'
_cell_volume   420.54633382
_cell_formula_units_Z   1
loop_
 _symmetry_equiv_pos_site_id
 _symmetry_equiv_pos_as_xyz
  1  'x, y, z'
loop_
 _atom_site_type_symbol
 _atom_site_label
 _atom_site_symmetry_multiplicity
 _atom_site_fract_x
 _atom_site_fract_y
 _atom_site_fract_z
 _atom_site_occupancy
  K  K0  1  0.69257097  0.30742903  0.30742903  1
  K  K1  1  0.30742903  0.69257097  0.69257097  1
  K  K2  1  -0.00000000  -0.00000000  0.00000000  1
  Hg  Hg0  1  0.86251644  0.42191149  0.85305564  1
  Hg  Hg1  1  0.66495461  0.96990256  0.70018822  1
  Hg  Hg2  1  0.33504539  0.03009744  0.29981178  1
  Hg  Hg3  1  0.33504539  0.29981178  0.03009744  1
  Hg  Hg4  1  0.66495461  0.70018822  0.96990256  1
  Hg  Hg5  1  0.50000000  0.69987006  0.30012994  1
  Hg  Hg6  1  0.50000000  0.30012994  0.69987006  1
  Hg  Hg7  1  -0.00000000  0.50000000  0.50000000  1
  Hg  Hg8  1  0.13748356  0.57808851  0.14694436  1
  Hg  Hg9  1  0.13748356  0.14694436  0.57808851  1
  Hg  Hg10  1  0.86251644  0.85305564  0.42191149  1
loop_
_geom_bond_atom_site_label_1
_geom_bond_atom_site_label_2
_geom_bond_distance
_geom_bond_site_symmetry_2
Hg0 Hg3 3.063891 1_656
Hg0 Hg3 3.063891 1_556
Hg0 Hg4 3.083816 1_555
Hg0 Hg7 3.145566 1_655
Hg0 Hg6 3.276826 1_555
Hg0 Hg6 3.276826 1_655
Hg0 K1 3.583182 1_655
Hg0 K1 3.583182 1_555
Hg0 K2 3.754784 1_656
Hg0 K0 4.040617 1_556
Hg1 Hg4 2.980373 1_555
Hg1 Hg9 3.063891 1_665
Hg1 Hg9 3.063891 1_565
Hg1 Hg6 3.067656 1_565
Hg1 Hg10 3.083816 1_555
Hg1 K1 3.638695 1_555
Hg1 K1 3.638695 1_655
Hg1 K2 3.844885 1_666
Hg1 K2 3.844885 1_566
Hg2 Hg3 2.980373 1_555
Hg2 Hg5 3.067656 1_545
Hg2 Hg9 3.083816 1_555
Hg2 K0 3.638695 1_555
Hg2 K0 3.638695 1_455
Hg2 K2 3.844885 1_555
Hg2 K2 3.844885 1_655
Hg3 Hg6 3.067656 1_554
Hg3 Hg8 3.083816 1_555
Hg3 K0 3.638694 1_555
Hg3 K0 3.638695 1_455
Hg3 K2 3.844885 1_555
Hg3 K2 3.844885 1_655
Hg4 Hg8 3.063891 1_656
Hg4 Hg8 3.063891 1_556
Hg4 Hg5 3.067656 1_556
Hg4 K1 3.638694 1_555
Hg4 K1 3.638695 1_655
Hg4 K2 3.844885 1_666
Hg4 K2 3.844885 1_566
Hg5 Hg8 3.276826 1_555
Hg5 Hg8 3.276826 1_655
Hg5 Hg7 3.371220 1_655
Hg5 Hg7 3.371220 1_555
Hg5 K1 3.627332 1_555
Hg5 K0 3.627332 1_555
Hg6 Hg9 3.276826 1_555
Hg6 Hg9 3.276826 1_655
Hg6 Hg7 3.371220 1_555
Hg6 Hg7 3.371220 1_655
Hg6 K0 3.627332 1_555
Hg6 K1 3.627332 1_555
Hg7 Hg8 3.145566 1_555
Hg7 Hg9 3.145566 1_555
Hg7 K0 3.842780 1_455
Hg7 K1 3.842780 1_555
Hg7 K1 3.842781 1_455
Hg7 K0 3.842781 1_555
Hg8 K0 3.583182 1_455
Hg8 K0 3.583182 1_555
Hg8 K2 3.754784 1_565
Hg8 K1 4.040617 1_554
Hg9 K0 3.583182 1_455
Hg9 K0 3.583182 1_555
Hg9 K2 3.754784 1_556
Hg9 K1 4.040617 1_545
Hg10 Hg2 3.063891 1_665
Hg10 Hg2 3.063891 1_565
Hg10 Hg7 3.145566 1_655
Hg10 Hg5 3.276826 1_555
Hg10 Hg5 3.276826 1_655
Hg10 K1 3.583182 1_655
Hg10 K1 3.583182 1_555
Hg10 K2 3.754784 1_665
Hg10 K0 4.040617 1_565
