# generated using pymatgen
data_Cd4AsPI3
_symmetry_space_group_name_H-M   'P 1'
_cell_length_a   13.18286700
_cell_length_b   13.18286700
_cell_length_c   13.18286700
_cell_angle_alpha   90.00000000
_cell_angle_beta   90.00000000
_cell_angle_gamma   90.00000000
_symmetry_Int_Tables_number   1
_chemical_formula_structural   Cd4AsPI3
_chemical_formula_sum   'Cd32 As8 P8 I24'
_cell_volume   2291.02385738
_cell_formula_units_Z   8
loop_
 _symmetry_equiv_pos_site_id
 _symmetry_equiv_pos_as_xyz
  1  'x, y, z'
loop_
 _atom_site_type_symbol
 _atom_site_label
 _atom_site_symmetry_multiplicity
 _atom_site_fract_x
 _atom_site_fract_y
 _atom_site_fract_z
 _atom_site_occupancy
  Cd  Cd0  1  0.21618200  0.21618200  0.21618200  1
  Cd  Cd1  1  0.78381800  0.78381800  0.78381800  1
  Cd  Cd2  1  0.28381800  0.78381800  0.71618200  1
  Cd  Cd3  1  0.78381800  0.71618200  0.28381800  1
  Cd  Cd4  1  0.71618200  0.21618200  0.28381800  1
  Cd  Cd5  1  0.21618200  0.28381800  0.71618200  1
  Cd  Cd6  1  0.71618200  0.28381800  0.78381800  1
  Cd  Cd7  1  0.28381800  0.71618200  0.21618200  1
  Cd  Cd8  1  0.01289800  0.26742700  0.03510500  1
  Cd  Cd9  1  0.98710200  0.73257300  0.96489500  1
  Cd  Cd10  1  0.48710200  0.73257300  0.53510500  1
  Cd  Cd11  1  0.98710200  0.76742700  0.46489500  1
  Cd  Cd12  1  0.03510500  0.01289800  0.26742700  1
  Cd  Cd13  1  0.51289800  0.26742700  0.46489500  1
  Cd  Cd14  1  0.01289800  0.23257300  0.53510500  1
  Cd  Cd15  1  0.96489500  0.98710200  0.73257300  1
  Cd  Cd16  1  0.51289800  0.23257300  0.96489500  1
  Cd  Cd17  1  0.53510500  0.48710200  0.73257300  1
  Cd  Cd18  1  0.48710200  0.76742700  0.03510500  1
  Cd  Cd19  1  0.46489500  0.51289800  0.26742700  1
  Cd  Cd20  1  0.46489500  0.98710200  0.76742700  1
  Cd  Cd21  1  0.53510500  0.01289800  0.23257300  1
  Cd  Cd22  1  0.96489500  0.51289800  0.23257300  1
  Cd  Cd23  1  0.03510500  0.48710200  0.76742700  1
  Cd  Cd24  1  0.26742700  0.03510500  0.01289800  1
  Cd  Cd25  1  0.73257300  0.96489500  0.98710200  1
  Cd  Cd26  1  0.76742700  0.46489500  0.98710200  1
  Cd  Cd27  1  0.23257300  0.53510500  0.01289800  1
  Cd  Cd28  1  0.23257300  0.96489500  0.51289800  1
  Cd  Cd29  1  0.76742700  0.03510500  0.48710200  1
  Cd  Cd30  1  0.73257300  0.53510500  0.48710200  1
  Cd  Cd31  1  0.26742700  0.46489500  0.51289800  1
  As  As0  1  0.10200200  0.10200200  0.10200200  1
  As  As1  1  0.89799800  0.89799800  0.89799800  1
  As  As2  1  0.39799800  0.89799800  0.60200200  1
  As  As3  1  0.89799800  0.60200200  0.39799800  1
  As  As4  1  0.60200200  0.10200200  0.39799800  1
  As  As5  1  0.10200200  0.39799800  0.60200200  1
  As  As6  1  0.60200200  0.39799800  0.89799800  1
  As  As7  1  0.39799800  0.60200200  0.10200200  1
  P  P0  1  0.45180000  0.45180000  0.45180000  1
  P  P1  1  0.54820000  0.54820000  0.54820000  1
  P  P2  1  0.04820000  0.54820000  0.95180000  1
  P  P3  1  0.54820000  0.95180000  0.04820000  1
  P  P4  1  0.95180000  0.45180000  0.04820000  1
  P  P5  1  0.45180000  0.04820000  0.95180000  1
  P  P6  1  0.95180000  0.04820000  0.54820000  1
  P  P7  1  0.04820000  0.95180000  0.45180000  1
  I  I0  1  0.18450600  0.43486000  0.25301600  1
  I  I1  1  0.81549400  0.56514000  0.74698400  1
  I  I2  1  0.31549400  0.56514000  0.75301600  1
  I  I3  1  0.81549400  0.93486000  0.24698400  1
  I  I4  1  0.25301600  0.18450600  0.43486000  1
  I  I5  1  0.68450600  0.43486000  0.24698400  1
  I  I6  1  0.18450600  0.06514000  0.75301600  1
  I  I7  1  0.74698400  0.81549400  0.56514000  1
  I  I8  1  0.68450600  0.06514000  0.74698400  1
  I  I9  1  0.75301600  0.31549400  0.56514000  1
  I  I10  1  0.31549400  0.93486000  0.25301600  1
  I  I11  1  0.24698400  0.68450600  0.43486000  1
  I  I12  1  0.24698400  0.81549400  0.93486000  1
  I  I13  1  0.75301600  0.18450600  0.06514000  1
  I  I14  1  0.74698400  0.68450600  0.06514000  1
  I  I15  1  0.25301600  0.31549400  0.93486000  1
  I  I16  1  0.43486000  0.25301600  0.18450600  1
  I  I17  1  0.56514000  0.74698400  0.81549400  1
  I  I18  1  0.93486000  0.24698400  0.81549400  1
  I  I19  1  0.06514000  0.75301600  0.18450600  1
  I  I20  1  0.06514000  0.74698400  0.68450600  1
  I  I21  1  0.93486000  0.25301600  0.31549400  1
  I  I22  1  0.56514000  0.75301600  0.31549400  1
  I  I23  1  0.43486000  0.24698400  0.68450600  1
loop_
_geom_bond_atom_site_label_1
_geom_bond_atom_site_label_2
_geom_bond_distance
_geom_bond_site_symmetry_2
Cd0 I4 2.953085 1_555
Cd0 I16 2.953085 1_555
Cd0 I0 2.953085 1_555
Cd1 I1 2.953085 1_555
Cd1 I7 2.953085 1_555
Cd1 I17 2.953085 1_555
Cd2 I20 2.953085 1_555
Cd2 I12 2.953085 1_555
Cd2 I2 2.953085 1_555
Cd3 I14 2.953085 1_555
Cd3 I22 2.953085 1_555
Cd3 I3 2.953085 1_555
Cd4 I13 2.953085 1_555
Cd4 I5 2.953085 1_555
Cd4 I21 2.953085 1_555
Cd5 I23 2.953085 1_555
Cd5 I6 2.953085 1_555
Cd5 I15 2.953085 1_555
Cd6 I8 2.953085 1_555
Cd6 I9 2.953085 1_555
Cd6 I18 2.953085 1_555
Cd7 I11 2.953085 1_555
Cd7 I19 2.953085 1_555
Cd7 I10 2.953085 1_555
Cd8 P4 2.566357 1_455
Cd8 I18 3.084251 1_454
Cd9 P2 2.566357 1_655
Cd9 I19 3.084251 1_656
Cd10 P1 2.566357 1_555
Cd10 I22 3.084251 1_555
Cd11 P7 2.566357 1_655
Cd11 I20 3.084251 1_655
Cd12 P7 2.566357 1_545
Cd12 I3 3.084251 1_445
Cd13 P0 2.566357 1_555
Cd13 I23 3.084251 1_555
Cd14 P6 2.566357 1_455
Cd14 I21 3.084251 1_455
Cd15 P6 2.566357 1_565
Cd15 I6 3.084251 1_665
Cd16 P5 2.566357 1_555
Cd16 I16 3.084251 1_556
Cd17 P1 2.566357 1_555
Cd17 I2 3.084251 1_555
Cd18 P3 2.566357 1_555
Cd18 I17 3.084251 1_554
Cd19 P0 2.566357 1_555
Cd19 I5 3.084251 1_555
Cd20 P5 2.566357 1_565
Cd20 I8 3.084251 1_565
Cd21 P3 2.566357 1_545
Cd21 I10 3.084251 1_545
Cd22 P4 2.566357 1_555
Cd22 I0 3.084251 1_655
Cd23 P2 2.566357 1_555
Cd23 I1 3.084251 1_455
Cd24 P5 2.566357 1_554
Cd24 I12 3.084251 1_544
Cd25 P3 2.566357 1_556
Cd25 I13 3.084251 1_566
Cd26 P4 2.566357 1_556
Cd26 I14 3.084251 1_556
Cd27 P2 2.566357 1_554
Cd27 I15 3.084251 1_554
Cd28 P7 2.566357 1_555
Cd28 I4 3.084251 1_565
Cd29 P6 2.566357 1_555
Cd29 I7 3.084251 1_545
Cd30 P1 2.566357 1_555
Cd30 I9 3.084251 1_555
Cd31 P0 2.566357 1_555
Cd31 I11 3.084251 1_555
As0 Cd0 2.607117 1_555
As0 Cd24 2.629318 1_555
As0 Cd8 2.629318 1_555
As0 Cd12 2.629318 1_555
As1 Cd1 2.607117 1_555
As1 Cd15 2.629318 1_555
As1 Cd9 2.629318 1_555
As1 Cd25 2.629318 1_555
As2 Cd2 2.607117 1_555
As2 Cd10 2.629318 1_555
As2 Cd20 2.629318 1_555
As2 Cd28 2.629318 1_555
As3 Cd3 2.607117 1_555
As3 Cd30 2.629318 1_555
As3 Cd11 2.629318 1_555
As3 Cd22 2.629318 1_555
As4 Cd4 2.607117 1_555
As4 Cd29 2.629318 1_555
As4 Cd21 2.629318 1_555
As4 Cd13 2.629318 1_555
As5 Cd5 2.607117 1_555
As5 Cd23 2.629318 1_555
As5 Cd14 2.629318 1_555
As5 Cd31 2.629318 1_555
As6 Cd6 2.607117 1_555
As6 Cd17 2.629318 1_555
As6 Cd26 2.629318 1_555
As6 Cd16 2.629318 1_555
As7 Cd7 2.607117 1_555
As7 Cd18 2.629318 1_555
As7 Cd27 2.629318 1_555
As7 Cd19 2.629318 1_555
P0 P1 2.201139 1_555
P2 P4 2.201139 1_456
P3 P5 2.201139 1_564
P6 P7 2.201139 1_645
