# generated using pymatgen
data_Mg14SnCO16
_symmetry_space_group_name_H-M   'P 1'
_cell_length_a   8.58072077
_cell_length_b   8.79913454
_cell_length_c   4.28428088
_cell_angle_alpha   90.00000000
_cell_angle_beta   90.00000000
_cell_angle_gamma   90.00000000
_symmetry_Int_Tables_number   1
_chemical_formula_structural   Mg14SnCO16
_chemical_formula_sum   'Mg14 Sn1 C1 O16'
_cell_volume   323.47570157
_cell_formula_units_Z   1
loop_
 _symmetry_equiv_pos_site_id
 _symmetry_equiv_pos_as_xyz
  1  'x, y, z'
loop_
 _atom_site_type_symbol
 _atom_site_label
 _atom_site_symmetry_multiplicity
 _atom_site_fract_x
 _atom_site_fract_y
 _atom_site_fract_z
 _atom_site_occupancy
  Mg  Mg0  1  0.50000000  -0.00000000  -0.00000000  1
  Mg  Mg1  1  0.50000000  0.50000000  -0.00000000  1
  Mg  Mg2  1  0.00000000  0.26909988  0.50000000  1
  Mg  Mg3  1  0.00000000  0.73090012  0.50000000  1
  Mg  Mg4  1  0.50000000  0.25476483  0.50000000  1
  Mg  Mg5  1  0.50000000  0.74523517  0.50000000  1
  Mg  Mg6  1  0.25990580  -0.00000000  0.50000000  1
  Mg  Mg7  1  0.24569255  0.50000000  0.50000000  1
  Mg  Mg8  1  0.74009420  -0.00000000  0.50000000  1
  Mg  Mg9  1  0.75430745  0.50000000  0.50000000  1
  Mg  Mg10  1  0.25077468  0.26098842  0.00000000  1
  Mg  Mg11  1  0.25077468  0.73901158  0.00000000  1
  Mg  Mg12  1  0.74922532  0.26098842  -0.00000000  1
  Mg  Mg13  1  0.74922532  0.73901158  -0.00000000  1
  Sn  Sn0  1  0.00000000  -0.00000000  -0.00000000  1
  C  C0  1  0.00000000  0.50000000  -0.00000000  1
  O  O0  1  0.26221288  -0.00000000  0.00000000  1
  O  O1  1  0.26052336  0.50000000  -0.00000000  1
  O  O2  1  0.73778712  -0.00000000  -0.00000000  1
  O  O3  1  0.73947664  0.50000000  0.00000000  1
  O  O4  1  0.24886426  0.25070658  0.50000000  1
  O  O5  1  0.24886426  0.74929342  0.50000000  1
  O  O6  1  0.75113574  0.25070658  0.50000000  1
  O  O7  1  0.75113574  0.74929342  0.50000000  1
  O  O8  1  0.00000000  -0.00000000  0.50000000  1
  O  O9  1  0.00000000  0.50000000  0.50000000  1
  O  O10  1  0.50000000  -0.00000000  0.50000000  1
  O  O11  1  0.50000000  0.50000000  0.50000000  1
  O  O12  1  0.00000000  0.23866624  0.00000000  1
  O  O13  1  0.00000000  0.76133376  -0.00000000  1
  O  O14  1  0.50000000  0.25134449  -0.00000000  1
  O  O15  1  0.50000000  0.74865551  0.00000000  1
loop_
_geom_bond_atom_site_label_1
_geom_bond_atom_site_label_2
_geom_bond_distance
_geom_bond_site_symmetry_2
Mg0 O0 2.040385 1_555
Mg0 O2 2.040385 1_555
Mg0 O10 2.142140 1_555
Mg0 O10 2.142140 1_554
Mg0 O14 2.211614 1_555
Mg0 O15 2.211614 1_545
Mg1 O3 2.054882 1_555
Mg1 O1 2.054882 1_555
Mg1 O11 2.142140 1_554
Mg1 O11 2.142140 1_555
Mg1 O15 2.187953 1_555
Mg1 O14 2.187953 1_555
Mg2 O9 2.031721 1_555
Mg2 O6 2.141559 1_455
Mg2 O4 2.141559 1_555
Mg2 O12 2.158814 1_556
Mg2 O12 2.158814 1_555
Mg2 O8 2.367846 1_555
Mg3 O9 2.031721 1_555
Mg3 O7 2.141559 1_455
Mg3 O5 2.141559 1_555
Mg3 O13 2.158814 1_555
Mg3 O13 2.158814 1_556
Mg3 O8 2.367846 1_565
Mg4 O14 2.142352 1_555
Mg4 O14 2.142352 1_556
Mg4 O4 2.155222 1_555
Mg4 O6 2.155222 1_555
Mg4 O11 2.157857 1_555
Mg4 O10 2.241710 1_555
Mg5 O15 2.142352 1_556
Mg5 O15 2.142352 1_555
Mg5 O5 2.155222 1_555
Mg5 O7 2.155222 1_555
Mg5 O11 2.157857 1_555
Mg5 O10 2.241710 1_565
Mg6 O10 2.060181 1_555
Mg6 O0 2.142232 1_555
Mg6 O0 2.142232 1_556
Mg6 O5 2.208035 1_545
Mg6 O4 2.208035 1_555
Mg6 O8 2.230179 1_555
Mg7 O9 2.108219 1_555
Mg7 O1 2.145917 1_555
Mg7 O1 2.145917 1_556
Mg7 O11 2.182141 1_555
Mg7 O5 2.193735 1_555
Mg7 O4 2.193735 1_555
Mg8 O10 2.060181 1_555
Mg8 O2 2.142232 1_555
Mg8 O2 2.142232 1_556
Mg8 O6 2.208035 1_555
Mg8 O7 2.208035 1_545
Mg8 O8 2.230179 1_655
Mg9 O9 2.108219 1_655
Mg9 O3 2.145917 1_556
Mg9 O3 2.145917 1_555
Mg9 O11 2.182141 1_555
Mg9 O6 2.193735 1_555
Mg9 O7 2.193735 1_555
Mg10 O1 2.104758 1_555
Mg10 O14 2.140216 1_555
Mg10 O4 2.144113 1_554
Mg10 O4 2.144113 1_555
Mg10 O12 2.160773 1_555
Mg10 O0 2.298569 1_555
Mg11 O1 2.104758 1_555
Mg11 O15 2.140216 1_555
Mg11 O5 2.144113 1_555
Mg11 O5 2.144113 1_554
Mg11 O13 2.160773 1_555
Mg11 O0 2.298569 1_565
Mg12 O3 2.104758 1_555
Mg12 O14 2.140216 1_555
Mg12 O6 2.144113 1_555
Mg12 O6 2.144113 1_554
Mg12 O12 2.160773 1_655
Mg12 O2 2.298569 1_555
Mg13 O3 2.104758 1_555
Mg13 O15 2.140216 1_555
Mg13 O7 2.144113 1_555
Mg13 O7 2.144113 1_554
Mg13 O13 2.160773 1_655
Mg13 O2 2.298569 1_565
O0 Sn0 2.249976 1_555
O2 Sn0 2.249976 1_655
O8 Sn0 2.142140 1_556
O8 Sn0 2.142140 1_555
O12 Sn0 2.100056 1_555
O13 Sn0 2.100056 1_565
