# generated using pymatgen
data_Y(NiO2)2
_symmetry_space_group_name_H-M   'P 1'
_cell_length_a   6.20701020
_cell_length_b   6.20701020
_cell_length_c   6.20701020
_cell_angle_alpha   60.00000000
_cell_angle_beta   60.00000000
_cell_angle_gamma   60.00000000
_symmetry_Int_Tables_number   1
_chemical_formula_structural   Y(NiO2)2
_chemical_formula_sum   'Y2 Ni4 O8'
_cell_volume   169.09562777
_cell_formula_units_Z   2
loop_
 _symmetry_equiv_pos_site_id
 _symmetry_equiv_pos_as_xyz
  1  'x, y, z'
loop_
 _atom_site_type_symbol
 _atom_site_label
 _atom_site_symmetry_multiplicity
 _atom_site_fract_x
 _atom_site_fract_y
 _atom_site_fract_z
 _atom_site_occupancy
  Y  Y0  1  0.75000000  0.75000000  0.75000000  1
  Y  Y1  1  0.50000000  0.50000000  0.50000000  1
  Ni  Ni0  1  0.12500000  0.12500000  0.62500000  1
  Ni  Ni1  1  0.12500000  0.12500000  0.12500000  1
  Ni  Ni2  1  0.12500000  0.62500000  0.12500000  1
  Ni  Ni3  1  0.62500000  0.12500000  0.12500000  1
  O  O0  1  0.89151300  0.32546200  0.89151300  1
  O  O1  1  0.92453800  0.35848700  0.35848700  1
  O  O2  1  0.35848700  0.35848700  0.92453800  1
  O  O3  1  0.35848700  0.35848700  0.35848700  1
  O  O4  1  0.32546200  0.89151300  0.89151300  1
  O  O5  1  0.35848700  0.92453800  0.35848700  1
  O  O6  1  0.89151300  0.89151300  0.32546200  1
  O  O7  1  0.89151300  0.89151300  0.89151300  1
loop_
_geom_bond_atom_site_label_1
_geom_bond_atom_site_label_2
_geom_bond_distance
_geom_bond_site_symmetry_2
Ni0 O3 2.059784 1_555
Ni0 O7 2.059784 1_445
Ni0 O0 2.059788 1_455
Ni0 O4 2.059788 1_545
Ni0 O5 2.059788 1_545
Ni0 O1 2.059788 1_455
Ni1 O2 2.059783 1_554
Ni1 O6 2.059783 1_445
Ni1 O0 2.059783 1_454
Ni1 O5 2.059783 1_545
Ni1 O1 2.059783 1_455
Ni1 O4 2.059783 1_544
Ni2 O3 2.059784 1_555
Ni2 O7 2.059784 1_454
Ni2 O2 2.059788 1_554
Ni2 O6 2.059788 1_455
Ni2 O4 2.059788 1_554
Ni2 O1 2.059788 1_455
Ni3 O7 2.059784 1_544
Ni3 O3 2.059784 1_555
Ni3 O6 2.059788 1_545
Ni3 O2 2.059788 1_554
Ni3 O0 2.059788 1_554
Ni3 O5 2.059788 1_545
O0 Y0 2.151560 1_555
O1 Y1 2.151560 1_555
O2 Y1 2.151560 1_555
O3 Y1 2.151565 1_555
O4 Y0 2.151560 1_555
O5 Y1 2.151560 1_555
O6 Y0 2.151560 1_555
O7 Y0 2.151565 1_555
