# generated using pymatgen
data_Sr6Mg(Te4O11)2
_symmetry_space_group_name_H-M   'P 1'
_cell_length_a   7.68189599
_cell_length_b   9.60767580
_cell_length_c   9.48297898
_cell_angle_alpha   99.04221130
_cell_angle_beta   106.25463171
_cell_angle_gamma   99.07974647
_symmetry_Int_Tables_number   1
_chemical_formula_structural   Sr6Mg(Te4O11)2
_chemical_formula_sum   'Sr6 Mg1 Te8 O22'
_cell_volume   648.36087897
_cell_formula_units_Z   1
loop_
 _symmetry_equiv_pos_site_id
 _symmetry_equiv_pos_as_xyz
  1  'x, y, z'
loop_
 _atom_site_type_symbol
 _atom_site_label
 _atom_site_symmetry_multiplicity
 _atom_site_fract_x
 _atom_site_fract_y
 _atom_site_fract_z
 _atom_site_occupancy
  Sr  Sr0  1  0.29580239  0.02915627  0.10785230  1
  Sr  Sr1  1  0.70137187  0.96538567  0.88604452  1
  Sr  Sr2  1  0.88944397  0.08691062  0.32116568  1
  Sr  Sr3  1  0.14478483  0.94023837  0.68335496  1
  Sr  Sr4  1  0.31628914  0.54274502  0.66297680  1
  Sr  Sr5  1  0.74496092  0.46284058  0.38868453  1
  Mg  Mg0  1  0.31116019  0.38603414  0.31685396  1
  Te  Te0  1  0.97012114  0.38706284  0.11610774  1
  Te  Te1  1  0.94277936  0.65670621  0.80935215  1
  Te  Te2  1  0.96727019  0.23734396  0.77048266  1
  Te  Te3  1  0.01129800  0.75460848  0.23771661  1
  Te  Te4  1  0.50745438  0.70635950  0.06537393  1
  Te  Te5  1  0.50072639  0.30660731  0.96530848  1
  Te  Te6  1  0.51160750  0.80039746  0.46204346  1
  Te  Te7  1  0.45675771  0.17681212  0.50147870  1
  O  O0  1  0.97834192  0.53787058  0.64328426  1
  O  O1  1  0.05956010  0.43878201  0.34172667  1
  O  O2  1  0.46452171  0.59820073  0.39232139  1
  O  O3  1  0.49350414  0.38372255  0.53819628  1
  O  O4  1  0.80050429  0.20831202  0.09837365  1
  O  O5  1  0.18986613  0.77111994  0.88025289  1
  O  O6  1  0.70114445  0.15322983  0.70424079  1
  O  O7  1  0.31728415  0.84696809  0.30695837  1
  O  O8  1  0.39799915  0.80621175  0.61481721  1
  O  O9  1  0.61740249  0.17220261  0.38310612  1
  O  O10  1  0.02446425  0.15730331  0.59856389  1
  O  O11  1  0.99643390  0.86960428  0.41032298  1
  O  O12  1  0.44932048  0.33139012  0.15433151  1
  O  O13  1  0.57174935  0.68407189  0.88750652  1
  O  O14  1  0.58328270  0.90925854  0.11987954  1
  O  O15  1  0.41592788  0.10313231  0.89590510  1
  O  O16  1  0.97478057  0.88576831  0.10893039  1
  O  O17  1  0.02442732  0.09066675  0.87867829  1
  O  O18  1  0.23829844  0.17529298  0.32878504  1
  O  O19  1  0.82956497  0.78593225  0.70270641  1
  O  O20  1  0.72755937  0.65732255  0.19615215  1
  O  O21  1  0.29723425  0.37299904  0.84655407  1
loop_
_geom_bond_atom_site_label_1
_geom_bond_atom_site_label_2
_geom_bond_distance
_geom_bond_site_symmetry_2
Mg0 O18 2.043380 1_555
Mg0 O2 2.089690 1_555
Mg0 O1 2.138885 1_555
Mg0 O12 2.148156 1_555
Mg0 O3 2.178729 1_555
O0 Te1 1.905877 1_555
O0 Sr5 2.486938 1_555
O0 Sr4 2.542470 1_655
O1 Te0 2.007921 1_455
O1 Sr5 2.615082 1_455
O1 Sr4 3.037462 1_555
O2 Te6 1.892737 1_555
O2 Sr5 2.691702 1_555
O2 Sr4 3.168997 1_555
O3 Te7 1.924338 1_555
O3 Sr4 2.564705 1_555
O3 Sr5 2.779903 1_555
O4 Te0 1.937967 1_555
O4 Sr2 2.551256 1_555
O4 Sr1 2.680486 1_544
O4 Te5 2.687295 1_554
O5 Te1 1.912564 1_455
O5 Sr3 2.648698 1_555
O5 Sr0 2.857409 1_566
O5 Sr4 3.220954 1_555
O6 Te2 1.956308 1_555
O6 Te7 2.350171 1_555
O6 Sr1 2.684538 1_545
O7 Te6 1.944242 1_555
O7 Te3 2.244589 1_555
O7 Sr0 2.758934 1_565
O8 Te6 1.887169 1_555
O8 Sr4 2.651873 1_555
O8 Sr3 2.664479 1_555
O8 Sr1 2.944227 1_555
O9 Te7 1.887334 1_555
O9 Sr2 2.541681 1_555
O9 Sr5 2.796639 1_555
O9 Sr0 2.999377 1_555
O10 Te2 1.885694 1_455
O10 Sr2 2.478917 1_455
O10 Sr3 2.563109 1_545
O11 Te3 1.867864 1_655
O11 Sr3 2.452509 1_655
O11 Sr2 2.541002 1_565
O12 Te5 1.928077 1_554
O12 Sr5 2.660594 1_555
O12 Sr0 2.871027 1_555
O13 Te4 1.876438 1_556
O13 Sr4 2.477790 1_555
O13 Sr1 2.732539 1_555
O14 Te4 1.887573 1_555
O14 Sr0 2.630623 1_565
O14 Sr2 2.698882 1_565
O14 Sr1 2.716315 1_554
O15 Te5 1.906008 1_555
O15 Sr3 2.545545 1_545
O15 Sr0 2.583923 1_556
O15 Sr1 2.749572 1_545
O16 Te3 1.887243 1_655
O16 Sr0 2.631669 1_665
O16 Sr1 2.827349 1_554
O16 Sr2 2.851472 1_565
O17 Te2 1.904992 1_455
O17 Sr1 2.606357 1_445
O17 Sr3 2.629346 1_545
O17 Sr0 2.770276 1_556
O18 Te7 1.986112 1_555
O18 Sr0 2.518954 1_555
O18 Sr2 2.657450 1_455
O19 Te1 1.887780 1_555
O19 Sr3 2.701182 1_655
O19 Sr1 2.741755 1_555
O20 Te4 1.969788 1_555
O20 Te3 2.130757 1_655
O20 Sr5 2.803076 1_555
O21 Te5 1.916690 1_555
O21 Te2 2.506427 1_455
O21 Sr4 2.582914 1_555
