# generated using pymatgen
data_Mg5Si6
_symmetry_space_group_name_H-M   'P 1'
_cell_length_a   5.26923900
_cell_length_b   5.40941296
_cell_length_c   13.94941074
_cell_angle_alpha   92.02822772
_cell_angle_beta   94.35540635
_cell_angle_gamma   90.91512321
_symmetry_Int_Tables_number   1
_chemical_formula_structural   Mg5Si6
_chemical_formula_sum   'Mg10 Si12'
_cell_volume   396.14081952
_cell_formula_units_Z   2
loop_
 _symmetry_equiv_pos_site_id
 _symmetry_equiv_pos_as_xyz
  1  'x, y, z'
loop_
 _atom_site_type_symbol
 _atom_site_label
 _atom_site_symmetry_multiplicity
 _atom_site_fract_x
 _atom_site_fract_y
 _atom_site_fract_z
 _atom_site_occupancy
  Mg  Mg0  1  0.88815300  0.80415600  0.00062000  1
  Mg  Mg1  1  0.17362700  0.41018700  0.54684800  1
  Mg  Mg2  1  0.57694000  0.70517200  0.66070600  1
  Mg  Mg3  1  0.02165200  0.55566100  0.33358300  1
  Mg  Mg4  1  0.40708300  0.96287100  0.10545200  1
  Mg  Mg5  1  0.07562200  0.55850100  0.76318500  1
  Mg  Mg6  1  0.87081000  0.02005900  0.43369900  1
  Mg  Mg7  1  0.94324400  0.03142800  0.21692700  1
  Mg  Mg8  1  0.25211900  0.36937000  0.96183400  1
  Mg  Mg9  1  0.83989300  0.06063800  0.81654200  1
  Si  Si0  1  0.76206200  0.28150300  0.01308500  1
  Si  Si1  1  0.07518100  0.50778700  0.13926700  1
  Si  Si2  1  0.68047300  0.50841300  0.46676300  1
  Si  Si3  1  0.05973200  0.90809900  0.62989800  1
  Si  Si4  1  0.34276800  0.86462100  0.90322100  1
  Si  Si5  1  0.58341700  0.49811300  0.17349200  1
  Si  Si6  1  0.48257200  0.85354500  0.30939500  1
  Si  Si7  1  0.66600700  0.20490100  0.59975400  1
  Si  Si8  1  0.63344300  0.53854600  0.85187500  1
  Si  Si9  1  0.36738600  0.91469700  0.49073400  1
  Si  Si10  1  0.46401000  0.29922400  0.32265000  1
  Si  Si11  1  0.33380600  0.13524700  0.75684000  1
loop_
_geom_bond_atom_site_label_1
_geom_bond_atom_site_label_2
_geom_bond_distance
_geom_bond_site_symmetry_2
Mg0 Si0 2.679518 1_565
Mg0 Si1 2.694878 1_655
Mg0 Si8 2.734105 1_554
Mg0 Si4 2.862167 1_654
Mg0 Si0 2.908149 1_555
Mg0 Mg9 2.957592 1_564
Mg0 Mg4 3.095342 1_655
Mg0 Si4 3.111254 1_554
Mg0 Mg8 3.116728 1_654
Mg0 Mg4 3.137645 1_555
Mg0 Mg7 3.208291 1_565
Mg1 Si2 2.815666 1_455
Mg1 Si7 2.892801 1_555
Mg1 Si3 2.982133 1_555
Mg1 Si9 2.983190 1_545
Mg1 Si2 3.018737 1_555
Mg1 Si7 3.032354 1_455
Mg1 Si9 3.047403 1_555
Mg1 Si3 3.058628 1_545
Mg2 Si9 2.821007 1_555
Mg2 Si3 2.823398 1_655
Mg2 Si8 2.840854 1_555
Mg2 Si7 2.864411 1_555
Mg2 Si7 2.904041 1_565
Mg2 Si3 2.961072 1_555
Mg2 Si2 2.964539 1_555
Mg2 Si11 2.997885 1_565
Mg2 Mg9 3.082893 1_565
Mg3 Si2 2.697185 1_455
Mg3 Si10 2.742783 1_555
Mg3 Si1 2.750038 1_555
Mg3 Si6 2.940560 1_555
Mg3 Si5 3.092056 1_455
Mg4 Si4 2.845749 1_554
Mg4 Si5 2.862560 1_555
Mg4 Si0 2.924022 1_565
Mg4 Si6 2.925074 1_555
Mg4 Mg7 3.015708 1_465
Mg4 Si1 3.067763 1_555
Mg4 Mg8 3.104233 1_564
Mg4 Si5 3.119739 1_565
Mg4 Mg7 3.129789 1_565
Mg5 Si11 2.684048 1_555
Mg5 Si3 2.696395 1_555
Mg5 Si8 2.722157 1_455
Mg5 Si4 2.796136 1_555
Mg5 Mg9 3.086311 1_455
Mg5 Mg9 3.095160 1_465
Mg5 Si8 3.106277 1_555
Mg6 Si6 2.700882 1_545
Mg6 Si9 2.750972 1_645
Mg6 Si7 2.789286 1_555
Mg6 Si2 2.875042 1_555
Mg6 Si9 2.880763 1_545
Mg6 Si3 2.927618 1_645
Mg6 Si2 2.991778 1_545
Mg6 Si10 3.006563 1_555
Mg7 Si1 2.924321 1_655
Mg7 Si6 2.995116 1_545
Mg7 Si1 3.104921 1_645
Mg7 Si6 3.206904 1_645
Mg7 Si5 3.228268 1_555
Mg8 Si0 2.769508 1_456
Mg8 Si0 2.780312 1_556
Mg8 Si8 2.781401 1_555
Mg8 Si1 2.792406 1_556
Mg8 Si4 2.871806 1_555
Mg8 Si4 2.880046 1_545
Mg8 Mg9 3.254343 1_455
Mg9 Si11 2.772826 1_555
Mg9 Si11 2.819422 1_655
Mg9 Si8 2.861932 1_555
Mg9 Si0 3.011126 1_556
Mg9 Si3 3.022890 1_645
Mg9 Si4 3.049825 1_645
Mg9 Si8 3.079660 1_545
Mg9 Si4 3.151350 1_545
Mg9 Si7 3.219085 1_555
Si0 Si1 2.580808 1_655
Si0 Si5 2.726791 1_555
Si0 Si8 2.733065 1_554
Si1 Si5 2.670287 1_455
Si1 Si5 2.685981 1_555
Si2 Si7 2.525080 1_555
Si2 Si9 2.794842 1_555
Si3 Si9 2.622739 1_555
Si3 Si7 2.660883 1_465
Si4 Si8 2.476624 1_555
Si5 Si6 2.738726 1_555
Si6 Si9 2.656486 1_555
Si7 Si9 2.577146 1_545
Si10 Si6 2.415519 1_545
Si10 Si2 2.464186 1_555
Si10 Si5 2.493634 1_555
Si11 Si3 2.476268 1_545
Si11 Si4 2.552242 1_545
Si11 Si8 2.894306 1_555
Si11 Si7 2.937278 1_555
