# generated using pymatgen
data_Cr(GeO3)2
_symmetry_space_group_name_H-M   'P 1'
_cell_length_a   8.96791400
_cell_length_b   5.41001700
_cell_length_c   10.15100980
_cell_angle_alpha   74.98355393
_cell_angle_beta   90.00000000
_cell_angle_gamma   90.00000000
_symmetry_Int_Tables_number   1
_chemical_formula_structural   Cr(GeO3)2
_chemical_formula_sum   'Cr4 Ge8 O24'
_cell_volume   475.67427887
_cell_formula_units_Z   4
loop_
 _symmetry_equiv_pos_site_id
 _symmetry_equiv_pos_as_xyz
  1  'x, y, z'
loop_
 _atom_site_type_symbol
 _atom_site_label
 _atom_site_symmetry_multiplicity
 _atom_site_fract_x
 _atom_site_fract_y
 _atom_site_fract_z
 _atom_site_occupancy
  Cr  Cr0  1  0.34100000  0.72206800  0.23698200  1
  Cr  Cr1  1  0.84100000  0.77793200  0.76301800  1
  Cr  Cr2  1  0.65900000  0.27793200  0.76301800  1
  Cr  Cr3  1  0.15900000  0.22206800  0.23698200  1
  Ge  Ge0  1  0.66455700  0.80462000  0.05364200  1
  Ge  Ge1  1  0.16455700  0.69538000  0.94635800  1
  Ge  Ge2  1  0.33544300  0.19538000  0.94635800  1
  Ge  Ge3  1  0.83544300  0.30462000  0.05364200  1
  Ge  Ge4  1  0.65201400  0.61946200  0.47595600  1
  Ge  Ge5  1  0.15201400  0.88053800  0.52404400  1
  Ge  Ge6  1  0.34798600  0.38053800  0.52404400  1
  Ge  Ge7  1  0.84798600  0.11946200  0.47595600  1
  O  O0  1  0.72090300  0.93799600  0.40753400  1
  O  O1  1  0.22090300  0.56200400  0.59246600  1
  O  O2  1  0.27909700  0.06200400  0.59246600  1
  O  O3  1  0.77909700  0.43799600  0.40753400  1
  O  O4  1  0.69968800  0.07143700  0.11635900  1
  O  O5  1  0.19968800  0.42856300  0.88364100  1
  O  O6  1  0.30031200  0.92856300  0.88364100  1
  O  O7  1  0.80031200  0.57143700  0.11635900  1
  O  O8  1  0.03549800  0.18297500  0.40622300  1
  O  O9  1  0.53549800  0.31702500  0.59377700  1
  O  O10  1  0.96450200  0.81702500  0.59377700  1
  O  O11  1  0.46450200  0.68297500  0.40622300  1
  O  O12  1  0.01141500  0.19316800  0.11906500  1
  O  O13  1  0.51141500  0.30683200  0.88093500  1
  O  O14  1  0.98858500  0.80683200  0.88093500  1
  O  O15  1  0.48858500  0.69316800  0.11906500  1
  O  O16  1  0.67618600  0.89204400  0.87119900  1
  O  O17  1  0.17618600  0.60795600  0.12880100  1
  O  O18  1  0.32381400  0.10795600  0.12880100  1
  O  O19  1  0.82381400  0.39204400  0.87119900  1
  O  O20  1  0.70264700  0.60740200  0.66222500  1
  O  O21  1  0.20264700  0.89259800  0.33777500  1
  O  O22  1  0.29735300  0.39259800  0.33777500  1
  O  O23  1  0.79735300  0.10740200  0.66222500  1
loop_
_geom_bond_atom_site_label_1
_geom_bond_atom_site_label_2
_geom_bond_distance
_geom_bond_site_symmetry_2
Cr0 O15 1.818215 1_555
Cr0 O22 1.852594 1_555
Cr0 O21 1.981550 1_555
Cr0 O11 2.008616 1_555
Cr0 O17 2.030503 1_555
Cr0 O18 2.097623 1_565
Cr1 O14 1.818215 1_555
Cr1 O23 1.852594 1_565
Cr1 O20 1.981550 1_555
Cr1 O10 2.008616 1_555
Cr1 O16 2.030503 1_555
Cr1 O19 2.097623 1_555
Cr2 O13 1.818215 1_555
Cr2 O20 1.852594 1_555
Cr2 O23 1.981550 1_555
Cr2 O9 2.008616 1_555
Cr2 O19 2.030503 1_555
Cr2 O16 2.097623 1_545
Cr3 O12 1.818215 1_555
Cr3 O21 1.852594 1_545
Cr3 O22 1.981550 1_555
Cr3 O8 2.008616 1_555
Cr3 O18 2.030503 1_555
Cr3 O17 2.097623 1_555
Ge0 O7 1.750066 1_555
Ge0 O4 1.750550 1_565
Ge0 O15 1.757130 1_555
Ge0 O16 1.791789 1_554
Ge1 O6 1.750066 1_555
Ge1 O5 1.750550 1_555
Ge1 O14 1.757130 1_455
Ge1 O17 1.791789 1_556
Ge2 O5 1.750066 1_555
Ge2 O6 1.750550 1_545
Ge2 O13 1.757130 1_555
Ge2 O18 1.791789 1_556
Ge3 O4 1.750066 1_555
Ge3 O7 1.750550 1_555
Ge3 O12 1.757130 1_655
Ge3 O19 1.791789 1_554
Ge4 O3 1.760224 1_555
Ge4 O0 1.792628 1_555
Ge4 O11 1.822318 1_555
Ge4 O20 1.929172 1_555
Ge4 O9 2.045806 1_555
Ge5 O2 1.760224 1_565
Ge5 O1 1.792628 1_555
Ge5 O10 1.822318 1_455
Ge5 O21 1.929172 1_555
Ge5 O8 2.045806 1_565
Ge6 O1 1.760224 1_555
Ge6 O2 1.792628 1_555
Ge6 O9 1.822318 1_555
Ge6 O22 1.929172 1_555
Ge6 O11 2.045806 1_555
Ge7 O0 1.760224 1_545
Ge7 O3 1.792628 1_555
Ge7 O8 1.822318 1_655
Ge7 O23 1.929172 1_555
Ge7 O10 2.045806 1_545
