# generated using pymatgen
data_Sm2In8Pd
_symmetry_space_group_name_H-M   'P 1'
_cell_length_a   4.68464403
_cell_length_b   4.68464403
_cell_length_c   12.14789817
_cell_angle_alpha   90.00000000
_cell_angle_beta   90.00000000
_cell_angle_gamma   90.00000000
_symmetry_Int_Tables_number   1
_chemical_formula_structural   Sm2In8Pd
_chemical_formula_sum   'Sm2 In8 Pd1'
_cell_volume   266.59643318
_cell_formula_units_Z   1
loop_
 _symmetry_equiv_pos_site_id
 _symmetry_equiv_pos_as_xyz
  1  'x, y, z'
loop_
 _atom_site_type_symbol
 _atom_site_label
 _atom_site_symmetry_multiplicity
 _atom_site_fract_x
 _atom_site_fract_y
 _atom_site_fract_z
 _atom_site_occupancy
  Sm  Sm0  1  -0.00000000  0.00000000  0.68975242  1
  Sm  Sm1  1  0.00000000  -0.00000000  0.31024758  1
  In  In0  1  0.50000000  0.00000000  0.87607166  1
  In  In1  1  -0.00000000  0.50000000  0.87607166  1
  In  In2  1  0.50000000  -0.00000000  0.12392834  1
  In  In3  1  0.00000000  0.50000000  0.12392834  1
  In  In4  1  0.50000000  -0.00000000  0.50000000  1
  In  In5  1  0.00000000  0.50000000  0.50000000  1
  In  In6  1  0.50000000  0.50000000  0.69356090  1
  In  In7  1  0.50000000  0.50000000  0.30643910  1
  Pd  Pd0  1  0.00000000  -0.00000000  0.00000000  1
loop_
_geom_bond_atom_site_label_1
_geom_bond_atom_site_label_2
_geom_bond_distance
_geom_bond_site_symmetry_2
In0 Pd0 2.784405 1_556
In0 Pd0 2.784405 1_656
In0 In6 3.225229 1_555
In0 In6 3.225229 1_545
In0 Sm0 3.257206 1_555
In0 Sm0 3.257206 1_655
In1 Pd0 2.784405 1_556
In1 Pd0 2.784405 1_566
In1 In6 3.225229 1_455
In1 In6 3.225229 1_555
In1 Sm0 3.257206 1_565
In1 Sm0 3.257206 1_555
In2 Pd0 2.784405 1_655
In2 Pd0 2.784405 1_555
In2 In7 3.225229 1_555
In2 In7 3.225229 1_545
In2 Sm1 3.257206 1_655
In2 Sm1 3.257206 1_555
In3 Pd0 2.784405 1_555
In3 Pd0 2.784405 1_565
In3 In7 3.225229 1_455
In3 In7 3.225229 1_555
In3 Sm1 3.257206 1_565
In3 Sm1 3.257206 1_555
In4 Sm1 3.286324 1_655
In4 Sm1 3.286324 1_555
In4 Sm0 3.286324 1_555
In4 Sm0 3.286324 1_655
In4 In5 3.312544 1_545
In4 In5 3.312544 1_655
In4 In5 3.312544 1_555
In4 In5 3.312544 1_645
In4 In7 3.318939 1_545
In4 In7 3.318939 1_555
In4 In6 3.318939 1_555
In4 In6 3.318939 1_545
In5 Sm1 3.286324 1_565
In5 Sm1 3.286324 1_555
In5 Sm0 3.286324 1_565
In5 Sm0 3.286324 1_555
In5 In7 3.318939 1_455
In5 In7 3.318939 1_555
In5 In6 3.318939 1_555
In5 In6 3.318939 1_455
In6 Sm0 3.312867 1_655
In6 Sm0 3.312867 1_565
In6 Sm0 3.312867 1_555
In6 Sm0 3.312867 1_665
In7 Sm1 3.312867 1_655
In7 Sm1 3.312867 1_565
In7 Sm1 3.312867 1_665
In7 Sm1 3.312867 1_555
