# generated using pymatgen
data_Sr10Cu5Mo3(WO15)2
_symmetry_space_group_name_H-M   'P 1'
_cell_length_a   5.49492506
_cell_length_b   5.75274861
_cell_length_c   23.22004494
_cell_angle_alpha   92.75299417
_cell_angle_beta   96.80947459
_cell_angle_gamma   61.46260172
_symmetry_Int_Tables_number   1
_chemical_formula_structural   Sr10Cu5Mo3(WO15)2
_chemical_formula_sum   'Sr10 Cu5 Mo3 W2 O30'
_cell_volume   640.24930669
_cell_formula_units_Z   1
loop_
 _symmetry_equiv_pos_site_id
 _symmetry_equiv_pos_as_xyz
  1  'x, y, z'
loop_
 _atom_site_type_symbol
 _atom_site_label
 _atom_site_symmetry_multiplicity
 _atom_site_fract_x
 _atom_site_fract_y
 _atom_site_fract_z
 _atom_site_occupancy
  Sr  Sr0  1  0.34992200  0.35007000  0.05006200  1
  Sr  Sr1  1  0.54999400  0.54991900  0.64993500  1
  Sr  Sr2  1  0.75022200  0.75004100  0.25034600  1
  Sr  Sr3  1  0.94979100  0.94990500  0.84949400  1
  Sr  Sr4  1  0.14999500  0.15006100  0.45014000  1
  Sr  Sr5  1  0.64977800  0.64995900  0.94965400  1
  Sr  Sr6  1  0.85000600  0.85008100  0.55006500  1
  Sr  Sr7  1  0.05007800  0.04993000  0.14993800  1
  Sr  Sr8  1  0.25000500  0.24993900  0.74986000  1
  Sr  Sr9  1  0.45020900  0.45009500  0.35050600  1
  Cu  Cu0  1  0.70000000  0.70000000  0.10000000  1
  Cu  Cu1  1  0.90006600  0.89989400  0.69997400  1
  Cu  Cu2  1  0.10014000  0.09972200  0.30048300  1
  Cu  Cu3  1  0.29986000  0.30027800  0.89951700  1
  Cu  Cu4  1  0.49993400  0.50010600  0.50002600  1
  Mo  Mo0  1  0.79984500  0.80026100  0.39997200  1
  Mo  Mo1  1  0.20000000  0.20000000  0.60000000  1
  Mo  Mo2  1  0.60015500  0.59973900  0.80002800  1
  W  W0  1  0.99924700  0.00107200  0.99972700  1
  W  W1  1  0.40075300  0.39892800  0.20027300  1
  O  O0  1  0.86209800  0.32166700  0.04589100  1
  O  O1  1  0.06225000  0.52137900  0.64593400  1
  O  O2  1  0.26239700  0.72124100  0.24597900  1
  O  O3  1  0.46270500  0.92051800  0.84585200  1
  O  O4  1  0.66207600  0.12161800  0.44588900  1
  O  O5  1  0.13760300  0.67875900  0.95402100  1
  O  O6  1  0.33775000  0.87862100  0.55406600  1
  O  O7  1  0.53790200  0.07833300  0.15410900  1
  O  O8  1  0.73792400  0.27838200  0.75411200  1
  O  O9  1  0.93729500  0.47948200  0.35414800  1
  O  O10  1  0.48399900  0.57471200  0.14171900  1
  O  O11  1  0.88454300  0.97485700  0.34178400  1
  O  O12  1  0.28422400  0.37478500  0.54175400  1
  O  O13  1  0.68442600  0.77465300  0.74177000  1
  O  O14  1  0.08410300  0.17517100  0.94156300  1
  O  O15  1  0.91600100  0.82528800  0.05828100  1
  O  O16  1  0.31589700  0.22482900  0.25843700  1
  O  O17  1  0.71557400  0.62534700  0.45823000  1
  O  O18  1  0.11577600  0.02521500  0.65824600  1
  O  O19  1  0.51545700  0.42514300  0.85821600  1
  O  O20  1  0.62791300  0.12088500  0.95972000  1
  O  O21  1  0.02808300  0.52014200  0.15990700  1
  O  O22  1  0.42837300  0.92077200  0.35980700  1
  O  O23  1  0.82842400  0.32045600  0.55983300  1
  O  O24  1  0.22843600  0.72032400  0.75981800  1
  O  O25  1  0.37191700  0.87985800  0.04009300  1
  O  O26  1  0.77208700  0.27911500  0.24028000  1
  O  O27  1  0.17156400  0.67967600  0.44018200  1
  O  O28  1  0.57157600  0.07954400  0.64016700  1
  O  O29  1  0.97162700  0.47922800  0.84019300  1
loop_
_geom_bond_atom_site_label_1
_geom_bond_atom_site_label_2
_geom_bond_distance
_geom_bond_site_symmetry_2
Cu0 O25 2.004235 1_555
Cu0 O21 2.004235 1_655
Cu0 O10 2.005926 1_555
Cu0 O15 2.005926 1_555
Cu0 O7 2.293325 1_565
Cu0 O0 2.293325 1_555
Cu1 O28 2.003950 1_565
Cu1 O24 2.004043 1_655
Cu1 O18 2.004859 1_665
Cu1 O13 2.005139 1_555
Cu1 O1 2.293219 1_655
Cu1 O8 2.294351 1_565
Cu2 O22 1.995830 1_545
Cu2 O11 1.996959 1_445
Cu2 O26 2.008037 1_455
Cu2 O16 2.008477 1_555
Cu2 O9 2.293757 1_455
Cu2 O2 2.298993 1_545
Cu3 O29 1.995830 1_455
Cu3 O19 1.996959 1_555
Cu3 O20 2.008037 1_555
Cu3 O14 2.008477 1_555
Cu3 O3 2.293757 1_545
Cu3 O5 2.298993 1_555
Cu4 O23 2.003950 1_555
Cu4 O27 2.004043 1_555
Cu4 O12 2.004859 1_555
Cu4 O17 2.005139 1_555
Cu4 O6 2.293219 1_555
Cu4 O4 2.294339 1_555
Mo0 O22 1.943079 1_555
Mo0 O11 1.943478 1_555
Mo0 O9 1.943769 1_555
Mo0 O27 1.944533 1_655
Mo0 O17 1.944577 1_555
Mo0 O4 1.947404 1_565
Mo1 O28 1.943605 1_555
Mo1 O23 1.943605 1_455
Mo1 O12 1.943729 1_555
Mo1 O18 1.943729 1_555
Mo1 O1 1.947714 1_555
Mo1 O6 1.947714 1_545
Mo2 O29 1.943079 1_555
Mo2 O19 1.943478 1_555
Mo2 O3 1.943769 1_555
Mo2 O24 1.944533 1_555
Mo2 O13 1.944577 1_555
Mo2 O8 1.947392 1_555
O0 W0 1.947327 1_554
O0 Sr7 2.752417 1_655
O0 Sr0 2.752610 1_655
O0 Sr0 2.753269 1_555
O0 Sr5 2.757420 1_554
O1 Sr8 2.749264 1_555
O1 Sr6 2.751882 1_455
O1 Sr1 2.752765 1_455
O1 Sr1 2.752914 1_555
O2 W1 1.948786 1_555
O2 Sr2 2.752983 1_455
O2 Sr2 2.753436 1_555
O2 Sr7 2.755005 1_565
O2 Sr9 2.760556 1_555
O3 Sr5 2.744604 1_555
O3 Sr3 2.752575 1_555
O3 Sr3 2.753024 1_455
O3 Sr8 2.756308 1_565
O4 Sr9 2.742277 1_555
O4 Sr4 2.752935 1_555
O4 Sr4 2.753097 1_655
O4 Sr6 2.754500 1_545
O5 W0 1.948786 1_465
O5 Sr5 2.752983 1_555
O5 Sr5 2.753436 1_455
O5 Sr0 2.755005 1_556
O5 Sr3 2.760556 1_455
O6 Sr4 2.749264 1_565
O6 Sr1 2.751882 1_555
O6 Sr6 2.752765 1_555
O6 Sr6 2.752914 1_455
O7 W1 1.947327 1_555
O7 Sr0 2.752417 1_555
O7 Sr7 2.752610 1_555
O7 Sr7 2.753269 1_655
O7 Sr2 2.757420 1_545
O8 Sr3 2.742259 1_545
O8 Sr8 2.752939 1_655
O8 Sr8 2.753095 1_555
O8 Sr1 2.754520 1_555
O9 Sr2 2.744604 1_555
O9 Sr9 2.752575 1_555
O9 Sr9 2.753024 1_655
O9 Sr4 2.756308 1_655
O10 W1 1.949863 1_555
O10 Sr0 2.648791 1_555
O10 Sr7 2.650475 1_565
O11 Sr2 2.646137 1_555
O11 Sr9 2.653022 1_565
O12 Sr4 2.648667 1_555
O12 Sr6 2.651699 1_455
O13 Sr8 2.651466 1_565
O13 Sr1 2.652998 1_555
O14 W0 1.941656 1_455
O14 Sr5 2.649538 1_455
O14 Sr3 2.658566 1_445
O15 W0 1.949863 1_564
O15 Sr7 2.648791 1_665
O15 Sr0 2.650475 1_655
O16 W1 1.941656 1_555
O16 Sr2 2.649538 1_545
O16 Sr9 2.658566 1_555
O17 Sr4 2.651466 1_655
O17 Sr6 2.652998 1_555
O18 Sr8 2.648667 1_555
O18 Sr1 2.651699 1_545
O19 Sr5 2.646137 1_555
O19 Sr3 2.653022 1_545
O20 W0 1.941584 1_555
O20 Sr0 2.653700 1_556
O20 Sr5 2.653908 1_545
O21 W1 1.949744 1_555
O21 Sr7 2.649414 1_555
O21 Sr2 2.656030 1_455
O22 Sr9 2.651822 1_555
O22 Sr4 2.654554 1_565
O23 Sr1 2.650387 1_555
O23 Sr6 2.651128 1_545
O24 Sr3 2.642782 1_455
O24 Sr8 2.651404 1_555
O25 W0 1.949744 1_464
O25 Sr0 2.649414 1_565
O25 Sr5 2.656030 1_554
O26 W1 1.941584 1_555
O26 Sr7 2.653700 1_655
O26 Sr2 2.653908 1_555
O27 Sr9 2.642782 1_555
O27 Sr4 2.651404 1_565
O28 Sr6 2.650387 1_545
O28 Sr1 2.651128 1_555
O29 Sr3 2.651822 1_555
O29 Sr8 2.654554 1_655
