# generated using pymatgen
data_KMg2AlFeSi3(HO6)2
_symmetry_space_group_name_H-M   'P 1'
_cell_length_a   5.37926654
_cell_length_b   18.62923218
_cell_length_c   10.69506866
_cell_angle_alpha   90.45808036
_cell_angle_beta   80.03118478
_cell_angle_gamma   90.04836561
_symmetry_Int_Tables_number   1
_chemical_formula_structural   KMg2AlFeSi3(HO6)2
_chemical_formula_sum   'K4 Mg8 Al4 Fe4 Si12 H8 O48'
_cell_volume   1055.55464960
_cell_formula_units_Z   4
loop_
 _symmetry_equiv_pos_site_id
 _symmetry_equiv_pos_as_xyz
  1  'x, y, z'
loop_
 _atom_site_type_symbol
 _atom_site_label
 _atom_site_symmetry_multiplicity
 _atom_site_fract_x
 _atom_site_fract_y
 _atom_site_fract_z
 _atom_site_occupancy
  K  K0  1  0.99424000  0.24877100  0.02407500  1
  K  K1  1  0.49442600  0.49871700  0.02421500  1
  K  K2  1  0.99433900  0.74926600  0.02414800  1
  K  K3  1  0.49427300  0.99924900  0.02402700  1
  Mg  Mg0  1  0.50415200  0.08441900  0.49484000  1
  Mg  Mg1  1  0.00420800  0.33423200  0.49486300  1
  Mg  Mg2  1  0.50401000  0.58431800  0.49476000  1
  Mg  Mg3  1  0.00413700  0.83449600  0.49477600  1
  Mg  Mg4  1  0.00350900  0.16623500  0.49511100  1
  Mg  Mg5  1  0.50361200  0.41623500  0.49502400  1
  Mg  Mg6  1  0.00341200  0.66636500  0.49509900  1
  Mg  Mg7  1  0.50346500  0.91638600  0.49512100  1
  Al  Al0  1  0.42468900  0.16633700  0.23334600  1
  Al  Al1  1  0.92489100  0.41625300  0.23334700  1
  Al  Al2  1  0.42476900  0.66639400  0.23337800  1
  Al  Al3  1  0.92472200  0.91646000  0.23330100  1
  Fe  Fe0  1  0.99543200  0.49911300  0.49362600  1
  Fe  Fe1  1  0.49544100  0.74928600  0.49371400  1
  Fe  Fe2  1  0.49573000  0.24915400  0.49372100  1
  Fe  Fe3  1  0.99556000  0.99926200  0.49366800  1
  Si  Si0  1  0.92587200  0.08391200  0.22918900  1
  Si  Si1  1  0.42604200  0.33378700  0.22918600  1
  Si  Si2  1  0.92596200  0.58385300  0.22927900  1
  Si  Si3  1  0.42590900  0.83396400  0.22923500  1
  Si  Si4  1  0.07693900  0.08321200  0.76298100  1
  Si  Si5  1  0.57686000  0.33316800  0.76292300  1
  Si  Si6  1  0.07680700  0.58319000  0.76289200  1
  Si  Si7  1  0.57700400  0.83325300  0.76293400  1
  Si  Si8  1  0.57927000  0.16572400  0.76301200  1
  Si  Si9  1  0.07920700  0.41569000  0.76290300  1
  Si  Si10  1  0.57918200  0.66575100  0.76293400  1
  Si  Si11  1  0.07932100  0.91578900  0.76301400  1
  H  H0  1  0.39188000  0.00125700  0.31093900  1
  H  H1  1  0.89185400  0.25104600  0.31091400  1
  H  H2  1  0.39224000  0.50097200  0.31078900  1
  H  H3  1  0.89190800  0.75120500  0.31098900  1
  H  H4  1  0.60557900  0.00169500  0.69285800  1
  H  H5  1  0.10557900  0.25153600  0.69287200  1
  H  H6  1  0.60546200  0.50166400  0.69269600  1
  H  H7  1  0.10586700  0.75179100  0.69273500  1
  O  O0  1  0.87452700  0.25006200  0.40246400  1
  O  O1  1  0.37462400  0.50004400  0.40233900  1
  O  O2  1  0.87440600  0.75025500  0.40252900  1
  O  O3  1  0.37441600  0.00024400  0.40248900  1
  O  O4  1  0.61727900  0.00148700  0.60165600  1
  O  O5  1  0.11730900  0.25131900  0.60166600  1
  O  O6  1  0.61717400  0.50137600  0.60151200  1
  O  O7  1  0.11724200  0.75152200  0.60156400  1
  O  O8  1  0.36508400  0.16464900  0.40030600  1
  O  O9  1  0.86540800  0.41453100  0.40033600  1
  O  O10  1  0.36511400  0.66468500  0.40038000  1
  O  O11  1  0.86500100  0.91475100  0.40028400  1
  O  O12  1  0.86827000  0.08643500  0.38698800  1
  O  O13  1  0.36838700  0.33629200  0.38699100  1
  O  O14  1  0.86841600  0.58640500  0.38714000  1
  O  O15  1  0.36837000  0.83655000  0.38706400  1
  O  O16  1  0.12692700  0.08454500  0.60992000  1
  O  O17  1  0.62692600  0.33445900  0.60987300  1
  O  O18  1  0.12675200  0.58451900  0.60982600  1
  O  O19  1  0.62697000  0.83465600  0.60987300  1
  O  O20  1  0.63713600  0.16315400  0.61031300  1
  O  O21  1  0.13707600  0.41308200  0.61021300  1
  O  O22  1  0.63703800  0.66319600  0.61023000  1
  O  O23  1  0.13714500  0.91327500  0.61031000  1
  O  O24  1  0.01920700  0.00329600  0.17742600  1
  O  O25  1  0.51930200  0.25313900  0.17742500  1
  O  O26  1  0.01890400  0.50316400  0.17764800  1
  O  O27  1  0.51884300  0.75330100  0.17761700  1
  O  O28  1  0.55328800  0.24968200  0.81923800  1
  O  O29  1  0.05328200  0.49967900  0.81910600  1
  O  O30  1  0.55332600  0.74974100  0.81915900  1
  O  O31  1  0.05332000  0.99973900  0.81932000  1
  O  O32  1  0.14902300  0.14154500  0.17366400  1
  O  O33  1  0.64927300  0.39138000  0.17370300  1
  O  O34  1  0.14916600  0.64145500  0.17374500  1
  O  O35  1  0.64910700  0.89158100  0.17362600  1
  O  O36  1  0.66872500  0.10478100  0.17353000  1
  O  O37  1  0.16899900  0.35471300  0.17349400  1
  O  O38  1  0.66884100  0.60479600  0.17369200  1
  O  O39  1  0.16880600  0.85489300  0.17360000  1
  O  O40  1  0.30959800  0.12389900  0.82101800  1
  O  O41  1  0.80946900  0.37389600  0.82092700  1
  O  O42  1  0.30943300  0.62393100  0.82090400  1
  O  O43  1  0.80968200  0.87392700  0.82101400  1
  O  O44  1  0.80896200  0.12564400  0.82364800  1
  O  O45  1  0.30884600  0.37559300  0.82356100  1
  O  O46  1  0.80881800  0.62562900  0.82358800  1
  O  O47  1  0.30902000  0.87569200  0.82364400  1
loop_
_geom_bond_atom_site_label_1
_geom_bond_atom_site_label_2
_geom_bond_distance
_geom_bond_site_symmetry_2
K0 O32 2.785334 1_655
K0 O25 2.787669 1_555
K0 O37 2.792709 1_655
K1 O33 2.786283 1_555
K1 O26 2.790648 1_555
K1 O38 2.794085 1_555
K2 O39 2.788131 1_655
K2 O27 2.790512 1_555
K2 O34 2.793361 1_655
K3 O36 2.787197 1_565
K3 O24 2.788311 1_565
K3 O35 2.791462 1_555
Mg0 O8 2.025750 1_555
Mg0 O3 2.033131 1_555
Mg0 O4 2.081541 1_555
Mg0 O12 2.094453 1_555
Mg0 O20 2.112700 1_555
Mg0 O16 2.183515 1_555
Mg1 O9 2.026004 1_455
Mg1 O0 2.033210 1_455
Mg1 O5 2.081138 1_555
Mg1 O13 2.094830 1_555
Mg1 O21 2.113065 1_555
Mg1 O17 2.183464 1_455
Mg2 O10 2.026287 1_555
Mg2 O1 2.034147 1_555
Mg2 O6 2.081343 1_555
Mg2 O14 2.094820 1_555
Mg2 O22 2.114620 1_555
Mg2 O18 2.183599 1_555
Mg3 O11 2.026007 1_455
Mg3 O2 2.033464 1_455
Mg3 O7 2.081898 1_555
Mg3 O15 2.094406 1_555
Mg3 O23 2.113737 1_555
Mg3 O19 2.183327 1_455
Mg4 O8 2.031953 1_555
Mg4 O0 2.041203 1_455
Mg4 O12 2.082888 1_455
Mg4 O5 2.096868 1_555
Mg4 O20 2.136750 1_455
Mg4 O16 2.139683 1_555
Mg5 O9 2.032599 1_555
Mg5 O1 2.041182 1_555
Mg5 O13 2.084158 1_555
Mg5 O6 2.096752 1_555
Mg5 O21 2.137454 1_555
Mg5 O17 2.140872 1_555
Mg6 O10 2.032263 1_555
Mg6 O2 2.041707 1_455
Mg6 O14 2.083354 1_455
Mg6 O7 2.097386 1_555
Mg6 O22 2.136488 1_455
Mg6 O18 2.141038 1_555
Mg7 O11 2.031895 1_555
Mg7 O3 2.041712 1_565
Mg7 O15 2.082589 1_555
Mg7 O4 2.097009 1_565
Mg7 O23 2.136474 1_555
Mg7 O19 2.140022 1_555
Al0 O8 1.759258 1_555
Al0 O25 1.772083 1_555
Al0 O32 1.772433 1_555
Al0 O36 1.774148 1_555
Al1 O9 1.759576 1_555
Al1 O33 1.772385 1_555
Al1 O26 1.772510 1_655
Al1 O37 1.774308 1_655
Al2 O10 1.759712 1_555
Al2 O34 1.772571 1_555
Al2 O27 1.772711 1_555
Al2 O38 1.774468 1_555
Al3 O11 1.759515 1_555
Al3 O24 1.772361 1_665
Al3 O35 1.772566 1_555
Al3 O39 1.774176 1_655
Fe0 O9 2.045027 1_555
Fe0 O1 2.103544 1_655
Fe0 O6 2.158670 1_555
Fe0 O14 2.170079 1_555
Fe0 O18 2.201215 1_655
Fe0 O21 2.250978 1_655
Fe1 O10 2.046248 1_555
Fe1 O2 2.102143 1_555
Fe1 O7 2.158249 1_555
Fe1 O15 2.170833 1_555
Fe1 O19 2.200934 1_555
Fe1 O22 2.251187 1_555
Fe2 O8 2.046080 1_555
Fe2 O0 2.101555 1_555
Fe2 O5 2.159621 1_555
Fe2 O13 2.170163 1_555
Fe2 O17 2.199270 1_555
Fe2 O20 2.250040 1_555
Fe3 O11 2.045786 1_555
Fe3 O3 2.101605 1_665
Fe3 O4 2.159169 1_565
Fe3 O12 2.170224 1_565
Fe3 O16 2.200018 1_665
Fe3 O23 2.250616 1_655
H0 O3 0.967641 1_555
H1 O0 0.967684 1_555
H2 O1 0.967535 1_555
H3 O2 0.967487 1_555
H4 O4 0.966483 1_555
H5 O5 0.966507 1_555
H6 O6 0.966279 1_555
H7 O7 0.966341 1_555
O12 Si0 1.662575 1_555
O13 Si1 1.662635 1_555
O14 Si2 1.663235 1_555
O15 Si3 1.662911 1_555
O16 Si4 1.612737 1_555
O17 Si5 1.612599 1_555
O18 Si6 1.612790 1_555
O19 Si7 1.612769 1_555
O20 Si8 1.609055 1_555
O21 Si9 1.608976 1_555
O22 Si10 1.609100 1_555
O23 Si11 1.609081 1_555
O24 Si0 1.644917 1_455
O25 Si1 1.645354 1_555
O26 Si2 1.645243 1_455
O27 Si3 1.644753 1_555
O28 Si8 1.668443 1_555
O28 Si5 1.669112 1_555
O29 Si9 1.668892 1_555
O29 Si6 1.669161 1_555
O30 Si10 1.668981 1_555
O30 Si7 1.669231 1_555
O31 Si11 1.668595 1_555
O31 Si4 1.668980 1_565
O32 Si0 1.645461 1_455
O33 Si1 1.645152 1_555
O34 Si2 1.645296 1_455
O35 Si3 1.645650 1_555
O36 Si0 1.645786 1_555
O37 Si1 1.645715 1_555
O38 Si2 1.645599 1_555
O39 Si3 1.645710 1_555
O40 Si4 1.669123 1_555
O40 Si8 1.670497 1_555
O41 Si5 1.669073 1_555
O41 Si9 1.670555 1_655
O42 Si6 1.669299 1_555
O42 Si10 1.670699 1_555
O43 Si7 1.669326 1_555
O43 Si11 1.670663 1_655
O44 Si8 1.670756 1_555
O44 Si4 1.671441 1_655
O45 Si9 1.670791 1_555
O45 Si5 1.671465 1_555
O46 Si10 1.670966 1_555
O46 Si6 1.671627 1_655
O47 Si11 1.670896 1_555
O47 Si7 1.671641 1_555
