# generated using pymatgen
data_TbGaCo4
_symmetry_space_group_name_H-M   'P 1'
_cell_length_a   8.66924833
_cell_length_b   8.66925550
_cell_length_c   3.97083356
_cell_angle_alpha   89.99999914
_cell_angle_beta   89.99999997
_cell_angle_gamma   120.00008232
_symmetry_Int_Tables_number   1
_chemical_formula_structural   TbGaCo4
_chemical_formula_sum   'Tb3 Ga3 Co12'
_cell_volume   258.44920549
_cell_formula_units_Z   3
loop_
 _symmetry_equiv_pos_site_id
 _symmetry_equiv_pos_as_xyz
  1  'x, y, z'
loop_
 _atom_site_type_symbol
 _atom_site_label
 _atom_site_symmetry_multiplicity
 _atom_site_fract_x
 _atom_site_fract_y
 _atom_site_fract_z
 _atom_site_occupancy
  Tb  Tb0  1  0.33333025  0.66665059  0.00000002  1
  Tb  Tb1  1  0.66666221  0.33333111  -0.00000003  1
  Tb  Tb2  1  -0.00000661  0.00001180  -0.00000000  1
  Ga  Ga0  1  0.49999923  0.00001547  0.49999998  1
  Ga  Ga1  1  -0.00001107  0.50001396  0.50000000  1
  Ga  Ga2  1  0.50002010  0.50000617  0.50000003  1
  Co  Co0  1  0.31754740  -0.00000329  -0.00000001  1
  Co  Co1  1  0.68243759  -0.00000338  -0.00000005  1
  Co  Co2  1  0.00000275  0.31756819  0.00000005  1
  Co  Co3  1  0.00001736  0.68245079  0.00000000  1
  Co  Co4  1  0.68244976  0.68243251  0.00000004  1
  Co  Co5  1  0.31756846  0.31754413  -0.00000001  1
  Co  Co6  1  0.16295187  0.32590160  0.50000005  1
  Co  Co7  1  0.83705332  0.67409561  0.50000001  1
  Co  Co8  1  0.67408998  0.83704812  0.49999993  1
  Co  Co9  1  0.32589826  0.16293834  0.50000002  1
  Co  Co10  1  0.16295093  0.83705488  0.50000000  1
  Co  Co11  1  0.83703822  0.16294339  0.49999997  1
loop_
_geom_bond_atom_site_label_1
_geom_bond_atom_site_label_2
_geom_bond_distance
_geom_bond_site_symmetry_2
Ga0 Tb1 3.194402 1_555
Ga0 Tb1 3.194402 1_556
Ga0 Tb0 3.194691 1_545
Ga0 Tb0 3.194692 1_546
Ga1 Tb1 3.194465 1_456
Ga1 Tb1 3.194466 1_455
Ga1 Tb0 3.194551 1_555
Ga1 Tb0 3.194551 1_556
Ga2 Tb1 3.194412 1_556
Ga2 Tb1 3.194413 1_555
Ga2 Tb0 3.194513 1_556
Ga2 Tb0 3.194513 1_555
Co0 Co9 2.416660 1_554
Co0 Co9 2.416660 1_555
Co0 Co10 2.416672 1_544
Co0 Co10 2.416672 1_545
Co0 Ga0 2.538397 1_555
Co0 Ga0 2.538397 1_554
Co0 Tb2 2.753020 1_555
Co0 Tb1 2.960530 1_555
Co0 Tb0 2.960648 1_545
Co1 Co11 2.416695 1_554
Co1 Co11 2.416695 1_555
Co1 Co8 2.416701 1_545
Co1 Co8 2.416701 1_544
Co1 Ga0 2.538426 1_554
Co1 Ga0 2.538426 1_555
Co1 Tb2 2.752904 1_655
Co1 Tb1 2.960512 1_555
Co1 Tb0 2.960542 1_545
Co2 Co6 2.416736 1_554
Co2 Co6 2.416736 1_555
Co2 Ga1 2.538453 1_555
Co2 Ga1 2.538454 1_554
Co2 Tb2 2.752937 1_555
Co2 Tb0 2.960352 1_555
Co2 Tb1 2.960505 1_455
Co3 Co7 2.416760 1_454
Co3 Co7 2.416760 1_455
Co3 Ga1 2.538291 1_555
Co3 Ga1 2.538291 1_554
Co3 Tb2 2.753121 1_565
Co3 Tb0 2.960438 1_555
Co3 Tb1 2.960636 1_455
Co4 Co7 2.416685 1_555
Co4 Co7 2.416686 1_554
Co4 Co8 2.416806 1_555
Co4 Co8 2.416807 1_554
Co4 Ga2 2.538318 1_555
Co4 Ga2 2.538319 1_554
Co4 Tb2 2.753017 1_665
Co4 Tb1 2.960390 1_555
Co4 Tb0 2.960567 1_555
Co5 Co9 2.416678 1_554
Co5 Co9 2.416678 1_555
Co5 Co6 2.416804 1_554
Co5 Co6 2.416805 1_555
Co5 Ga2 2.538474 1_554
Co5 Ga2 2.538474 1_555
Co5 Tb2 2.752950 1_555
Co5 Tb1 2.960323 1_555
Co5 Tb0 2.960537 1_555
Co6 Co9 2.446863 1_555
Co6 Ga2 2.531096 1_555
Co6 Ga1 2.531154 1_555
Co6 Tb2 3.150917 1_556
Co6 Tb2 3.150917 1_555
Co6 Tb0 3.238307 1_556
Co6 Tb0 3.238307 1_555
Co7 Co8 2.446910 1_555
Co7 Ga1 2.530718 1_655
Co7 Ga2 2.530833 1_555
Co7 Tb2 3.151071 1_665
Co7 Tb2 3.151071 1_666
Co7 Tb1 3.238399 1_556
Co7 Tb1 3.238399 1_555
Co8 Ga2 2.530897 1_555
Co8 Ga0 2.531023 1_565
Co8 Tb2 3.150995 1_665
Co8 Tb2 3.150995 1_666
Co8 Tb0 3.238369 1_555
Co8 Tb0 3.238369 1_556
Co9 Ga0 2.530770 1_555
Co9 Ga2 2.531098 1_555
Co9 Tb2 3.151003 1_556
Co9 Tb2 3.151004 1_555
Co9 Tb1 3.238394 1_556
Co9 Tb1 3.238394 1_555
Co10 Co3 2.416667 1_556
Co10 Co3 2.416668 1_555
Co10 Co9 2.446664 1_565
Co10 Co7 2.446769 1_455
Co10 Ga1 2.530891 1_555
Co10 Ga0 2.530945 1_565
Co10 Tb2 3.151063 1_565
Co10 Tb2 3.151063 1_566
Co10 Tb0 3.238514 1_555
Co10 Tb0 3.238514 1_556
Co11 Co2 2.416797 1_655
Co11 Co2 2.416797 1_656
Co11 Co8 2.446753 1_545
Co11 Co6 2.446889 1_655
Co11 Ga0 2.530880 1_555
Co11 Ga1 2.531118 1_655
Co11 Tb2 3.150901 1_655
Co11 Tb2 3.150901 1_656
Co11 Tb1 3.238396 1_555
Co11 Tb1 3.238396 1_556
