# generated using pymatgen
data_Li9Co7O16
_symmetry_space_group_name_H-M   'P 1'
_cell_length_a   10.29988475
_cell_length_b   10.29988475
_cell_length_c   9.85682149
_cell_angle_alpha   73.20746069
_cell_angle_beta   73.20746069
_cell_angle_gamma   16.35235793
_symmetry_Int_Tables_number   1
_chemical_formula_structural   Li9Co7O16
_chemical_formula_sum   'Li9 Co7 O16'
_cell_volume   281.58710694
_cell_formula_units_Z   1
loop_
 _symmetry_equiv_pos_site_id
 _symmetry_equiv_pos_as_xyz
  1  'x, y, z'
loop_
 _atom_site_type_symbol
 _atom_site_label
 _atom_site_symmetry_multiplicity
 _atom_site_fract_x
 _atom_site_fract_y
 _atom_site_fract_z
 _atom_site_occupancy
  Li  Li0  1  0.93809300  0.93809300  0.80768200  1
  Li  Li1  1  0.06190700  0.06190700  0.19231800  1
  Li  Li2  1  0.18740300  0.18740300  0.55834100  1
  Li  Li3  1  0.55881300  0.55881300  0.68037600  1
  Li  Li4  1  0.68785800  0.68785800  0.06040900  1
  Li  Li5  1  0.81259700  0.81259700  0.44165900  1
  Li  Li6  1  0.31214200  0.31214200  0.93959100  1
  Li  Li7  1  0.44118700  0.44118700  0.31962400  1
  Li  Li8  1  0.00000000  0.00000000  0.50000000  1
  Co  Co0  1  0.37854900  0.37854900  0.62422000  1
  Co  Co1  1  0.62145100  0.62145100  0.37578000  1
  Co  Co2  1  0.50000000  0.50000000  0.00000000  1
  Co  Co3  1  0.74908300  0.74908300  0.74540100  1
  Co  Co4  1  0.87572300  0.87572300  0.12522400  1
  Co  Co5  1  0.12427700  0.12427700  0.87477600  1
  Co  Co6  1  0.25091700  0.25091700  0.25459900  1
  O  O0  1  0.84393600  0.84393600  0.76134200  1
  O  O1  1  0.96635300  0.96635300  0.15135900  1
  O  O2  1  0.09820500  0.09820600  0.50771300  1
  O  O3  1  0.46080800  0.46080800  0.65697200  1
  O  O4  1  0.58995200  0.58995200  0.02228900  1
  O  O5  1  0.71529200  0.71529200  0.39832600  1
  O  O6  1  0.21593800  0.21593800  0.90162400  1
  O  O7  1  0.34090500  0.34090500  0.27809000  1
  O  O8  1  0.03364700  0.03364700  0.84864100  1
  O  O9  1  0.15606400  0.15606400  0.23865800  1
  O  O10  1  0.28470800  0.28470800  0.60167400  1
  O  O11  1  0.65909500  0.65909500  0.72191000  1
  O  O12  1  0.78406200  0.78406200  0.09837600  1
  O  O13  1  0.90179500  0.90179500  0.49228700  1
  O  O14  1  0.41004800  0.41004800  0.97771100  1
  O  O15  1  0.53919200  0.53919200  0.34302800  1
loop_
_geom_bond_atom_site_label_1
_geom_bond_atom_site_label_2
_geom_bond_distance
_geom_bond_site_symmetry_2
Li0 O3 2.040921 1_655
Li0 O3 2.040921 1_565
Li0 O0 2.099179 1_555
Li0 O8 2.101992 1_665
Li0 O14 2.173029 1_565
Li0 O14 2.173029 1_655
Li1 O15 2.040921 1_455
Li1 O15 2.040921 1_545
Li1 O9 2.099179 1_555
Li1 O1 2.101992 1_445
Li1 O4 2.173029 1_545
Li1 O4 2.173029 1_455
Li2 O2 2.021579 1_555
Li2 O5 2.105515 1_455
Li2 O5 2.105515 1_545
Li2 O11 2.129565 1_545
Li2 O11 2.129565 1_455
Li2 O10 2.147960 1_555
Li3 O3 2.077442 1_555
Li3 O8 2.159403 1_655
Li3 O8 2.159403 1_565
Li3 O11 2.199416 1_555
Li3 O2 2.211193 1_655
Li3 O2 2.211195 1_565
Li4 O6 2.097620 1_564
Li4 O6 2.097620 1_654
Li4 O12 2.101572 1_555
Li4 O4 2.136453 1_555
Li4 O9 2.233388 1_565
Li4 O9 2.233388 1_655
Li5 O13 2.021589 1_555
Li5 O10 2.105515 1_655
Li5 O10 2.105515 1_565
Li5 O7 2.129565 1_655
Li5 O7 2.129565 1_565
Li5 O5 2.147960 1_555
Li6 O12 2.097620 1_456
Li6 O12 2.097620 1_546
Li6 O6 2.101572 1_555
Li6 O14 2.136453 1_555
Li6 O0 2.233388 1_545
Li6 O0 2.233388 1_455
Li7 O15 2.077442 1_555
Li7 O1 2.159403 1_545
Li7 O1 2.159403 1_455
Li7 O7 2.199416 1_555
Li7 O13 2.211193 1_545
Li7 O13 2.211193 1_455
Li8 O13 2.025933 1_445
Li8 O2 2.025943 1_555
Li8 O3 2.111046 1_455
Li8 O15 2.111046 1_545
Li8 O15 2.111046 1_455
Li8 O3 2.111046 1_545
Co0 O3 1.798226 1_555
Co0 O13 1.923980 1_455
Co0 O13 1.923980 1_545
Co0 O0 1.978324 1_545
Co0 O0 1.978324 1_455
Co0 O10 1.989703 1_555
Co1 O15 1.798226 1_555
Co1 O2 1.923978 1_655
Co1 O2 1.923980 1_565
Co1 O9 1.978324 1_655
Co1 O9 1.978324 1_565
Co1 O5 1.989703 1_555
Co2 O14 1.909875 1_554
Co2 O4 1.909875 1_555
Co2 O1 2.060272 1_545
Co2 O1 2.060272 1_455
Co2 O8 2.060272 1_654
Co2 O8 2.060272 1_564
Co3 O11 1.915319 1_555
Co3 O0 1.985646 1_555
Co3 O10 2.019816 1_565
Co3 O10 2.019816 1_655
Co3 O6 2.089530 1_655
Co3 O6 2.089530 1_565
Co4 O1 1.938889 1_555
Co4 O12 1.962633 1_555
Co4 O14 2.038542 1_654
Co4 O14 2.038542 1_564
Co4 O7 2.072594 1_565
Co4 O7 2.072594 1_655
Co5 O8 1.938889 1_555
Co5 O6 1.962633 1_555
Co5 O4 2.038542 1_546
Co5 O4 2.038542 1_456
Co5 O11 2.072594 1_545
Co5 O11 2.072594 1_455
Co6 O7 1.915319 1_555
Co6 O9 1.985646 1_555
Co6 O5 2.019816 1_455
Co6 O5 2.019816 1_545
Co6 O12 2.089530 1_455
Co6 O12 2.089530 1_545
