# generated using pymatgen
data_Sn2Pb5N6
_symmetry_space_group_name_H-M   'P 1'
_cell_length_a   6.38990675
_cell_length_b   7.19622092
_cell_length_c   14.52640478
_cell_angle_alpha   90.00000128
_cell_angle_beta   96.67378922
_cell_angle_gamma   124.26995984
_symmetry_Int_Tables_number   1
_chemical_formula_structural   Sn2Pb5N6
_chemical_formula_sum   'Sn4 Pb10 N12'
_cell_volume   546.52062204
_cell_formula_units_Z   2
loop_
 _symmetry_equiv_pos_site_id
 _symmetry_equiv_pos_as_xyz
  1  'x, y, z'
loop_
 _atom_site_type_symbol
 _atom_site_label
 _atom_site_symmetry_multiplicity
 _atom_site_fract_x
 _atom_site_fract_y
 _atom_site_fract_z
 _atom_site_occupancy
  Sn  Sn0  1  0.52081400  0.89271500  0.58636200  1
  Sn  Sn1  1  0.47918600  0.37190100  0.91363800  1
  Sn  Sn2  1  0.47918600  0.10728500  0.41363800  1
  Sn  Sn3  1  0.52081400  0.62809900  0.08636200  1
  Pb  Pb0  1  0.15424400  0.78677900  0.96082500  1
  Pb  Pb1  1  0.84575600  0.63253500  0.53917500  1
  Pb  Pb2  1  0.84575600  0.21322100  0.03917500  1
  Pb  Pb3  1  0.15424400  0.36746500  0.46082500  1
  Pb  Pb4  1  0.24065400  0.11429600  0.68612600  1
  Pb  Pb5  1  0.75934600  0.87364300  0.81387400  1
  Pb  Pb6  1  0.75934600  0.88570400  0.31387400  1
  Pb  Pb7  1  0.24065400  0.12635700  0.18612600  1
  Pb  Pb8  1  0.00000000  0.47433800  0.75000000  1
  Pb  Pb9  1  0.00000000  0.52566200  0.25000000  1
  N  N0  1  0.77964100  0.83367400  0.64985000  1
  N  N1  1  0.22035900  0.05403400  0.85015000  1
  N  N2  1  0.22035900  0.16632600  0.35015000  1
  N  N3  1  0.77964100  0.94596600  0.14985000  1
  N  N4  1  0.20257500  0.77442200  0.65737000  1
  N  N5  1  0.79742500  0.57184800  0.84263000  1
  N  N6  1  0.79742500  0.22557800  0.34263000  1
  N  N7  1  0.20257500  0.42815200  0.15737000  1
  N  N8  1  0.62966200  0.22538100  0.55654300  1
  N  N9  1  0.37033800  0.59571900  0.94345700  1
  N  N10  1  0.37033800  0.77461900  0.44345700  1
  N  N11  1  0.62966200  0.40428100  0.05654300  1
loop_
_geom_bond_atom_site_label_1
_geom_bond_atom_site_label_2
_geom_bond_distance
_geom_bond_site_symmetry_2
N0 Sn0 2.050174 1_555
N0 Pb1 2.388478 1_555
N0 Pb5 2.427042 1_555
N0 Pb4 2.444036 1_665
N1 Sn1 2.050169 1_555
N1 Pb0 2.388483 1_545
N1 Pb4 2.427040 1_555
N1 Pb5 2.444036 1_445
N2 Sn2 2.050174 1_555
N2 Pb3 2.388478 1_555
N2 Pb7 2.427042 1_555
N2 Pb6 2.444036 1_445
N3 Sn3 2.050169 1_555
N3 Pb2 2.388483 1_565
N3 Pb6 2.427040 1_555
N3 Pb7 2.444036 1_665
N4 Sn0 2.112312 1_555
N4 Pb8 2.325142 1_555
N4 Pb4 2.349859 1_565
N4 Pb1 2.378514 1_455
N5 Sn1 2.112313 1_555
N5 Pb8 2.325147 1_655
N5 Pb5 2.349859 1_555
N5 Pb0 2.378514 1_655
N6 Sn2 2.112312 1_555
N6 Pb9 2.325142 1_655
N6 Pb6 2.349859 1_545
N6 Pb3 2.378514 1_655
N7 Sn3 2.112313 1_555
N7 Pb9 2.325147 1_555
N7 Pb7 2.349859 1_555
N7 Pb2 2.378514 1_455
N8 Sn2 2.138203 1_555
N8 Sn0 2.144108 1_545
N8 Pb1 2.465712 1_555
N9 Sn3 2.138203 1_556
N9 Sn1 2.144108 1_555
N9 Pb0 2.465712 1_555
N10 Sn0 2.138203 1_555
N10 Sn2 2.144108 1_565
N10 Pb3 2.465712 1_555
N11 Sn1 2.138203 1_554
N11 Sn3 2.144108 1_555
N11 Pb2 2.465712 1_555
