# generated using pymatgen
data_La(Tl3Te2)3
_symmetry_space_group_name_H-M   'P 1'
_cell_length_a   9.28598549
_cell_length_b   9.28598549
_cell_length_c   9.28598549
_cell_angle_alpha   121.75558924
_cell_angle_beta   121.75558924
_cell_angle_gamma   86.98520930
_symmetry_Int_Tables_number   1
_chemical_formula_structural   La(Tl3Te2)3
_chemical_formula_sum   'La1 Tl9 Te6'
_cell_volume   550.34578396
_cell_formula_units_Z   1
loop_
 _symmetry_equiv_pos_site_id
 _symmetry_equiv_pos_as_xyz
  1  'x, y, z'
loop_
 _atom_site_type_symbol
 _atom_site_label
 _atom_site_symmetry_multiplicity
 _atom_site_fract_x
 _atom_site_fract_y
 _atom_site_fract_z
 _atom_site_occupancy
  La  La0  1  -0.00000000  0.00000000  -0.00000000  1
  Tl  Tl0  1  0.80271797  0.00715716  0.49254137  1
  Tl  Tl1  1  0.51461579  0.31017660  0.50745863  1
  Tl  Tl2  1  0.31017660  0.80271797  0.79556081  1
  Tl  Tl3  1  0.00715716  0.51461579  0.20443919  1
  Tl  Tl4  1  0.19728203  0.99284284  0.50745863  1
  Tl  Tl5  1  0.48538421  0.68982340  0.49254137  1
  Tl  Tl6  1  0.68982340  0.19728203  0.20443919  1
  Tl  Tl7  1  0.99284284  0.48538421  0.79556081  1
  Tl  Tl8  1  0.50000000  0.50000000  -0.00000000  1
  Te  Te0  1  0.84676603  0.67191617  0.51868220  1
  Te  Te1  1  0.15323397  0.32808383  0.48131780  1
  Te  Te2  1  0.32808383  0.84676603  0.17484787  1
  Te  Te3  1  0.67191617  0.15323397  0.82515213  1
  Te  Te4  1  0.76063412  0.76063412  -0.00000000  1
  Te  Te5  1  0.23936588  0.23936588  -0.00000000  1
loop_
_geom_bond_atom_site_label_1
_geom_bond_atom_site_label_2
_geom_bond_distance
_geom_bond_site_symmetry_2
La0 Te5 3.225044 1_555
La0 Te4 3.225044 1_445
La0 Te3 3.272875 1_454
La0 Te2 3.272875 1_545
La0 Te0 3.272879 1_444
La0 Te1 3.272879 1_555
Te0 Tl5 3.236392 1_555
Te0 Tl0 3.236392 1_565
Te0 Tl7 3.495757 1_555
Te0 Tl2 3.495757 1_655
Te0 Tl8 3.498281 1_555
Te0 Tl3 3.567389 1_655
Te0 Tl6 3.567389 1_555
Te1 Tl1 3.236392 1_555
Te1 Tl4 3.236392 1_545
Te1 Tl3 3.495757 1_555
Te1 Tl6 3.495757 1_455
Te1 Tl8 3.498281 1_556
Te1 Tl7 3.567389 1_455
Te1 Tl2 3.567389 1_555
Te2 Tl2 3.236373 1_554
Te2 Tl7 3.236391 1_454
Te2 Tl1 3.495757 1_565
Te2 Tl4 3.495773 1_555
Te2 Tl8 3.498277 1_555
Te2 Tl0 3.567388 1_565
Te2 Tl5 3.567404 1_555
Te3 Tl6 3.236373 1_556
Te3 Tl3 3.236391 1_656
Te3 Tl5 3.495757 1_545
Te3 Tl0 3.495773 1_555
Te3 Tl8 3.498277 1_556
Te3 Tl4 3.567388 1_545
Te3 Tl1 3.567404 1_555
Te4 Tl8 3.511597 1_555
Te5 Tl8 3.511597 1_555
