# generated using pymatgen
data_K2La2Sb2S9
_symmetry_space_group_name_H-M   'P 1'
_cell_length_a   4.13578100
_cell_length_b   11.32786200
_cell_length_c   17.07950900
_cell_angle_alpha   90.00000000
_cell_angle_beta   90.00000000
_cell_angle_gamma   90.00000000
_symmetry_Int_Tables_number   1
_chemical_formula_structural   K2La2Sb2S9
_chemical_formula_sum   'K4 La4 Sb4 S18'
_cell_volume   800.16742070
_cell_formula_units_Z   2
loop_
 _symmetry_equiv_pos_site_id
 _symmetry_equiv_pos_as_xyz
  1  'x, y, z'
loop_
 _atom_site_type_symbol
 _atom_site_label
 _atom_site_symmetry_multiplicity
 _atom_site_fract_x
 _atom_site_fract_y
 _atom_site_fract_z
 _atom_site_occupancy
  K  K0  1  0.50000000  0.71832100  0.05745000  1
  K  K1  1  0.50000000  0.28167900  0.94255000  1
  K  K2  1  0.50000000  0.21832100  0.44255000  1
  K  K3  1  0.50000000  0.78167900  0.55745000  1
  La  La0  1  0.50000000  0.88353600  0.29470400  1
  La  La1  1  0.50000000  0.11646400  0.70529600  1
  La  La2  1  0.50000000  0.38353600  0.20529600  1
  La  La3  1  0.50000000  0.61646400  0.79470400  1
  Sb  Sb0  1  0.00000000  0.55249000  0.38377500  1
  Sb  Sb1  1  0.00000000  0.44751000  0.61622500  1
  Sb  Sb2  1  0.00000000  0.05249000  0.11622500  1
  Sb  Sb3  1  0.00000000  0.94751000  0.88377500  1
  S  S0  1  0.00000000  0.85047700  0.17248300  1
  S  S1  1  0.00000000  0.14952300  0.82751700  1
  S  S2  1  0.00000000  0.35047700  0.32751700  1
  S  S3  1  0.00000000  0.64952300  0.67248300  1
  S  S4  1  0.00000000  0.82883700  0.41186000  1
  S  S5  1  0.00000000  0.17116300  0.58814000  1
  S  S6  1  0.00000000  0.32883700  0.08814000  1
  S  S7  1  0.00000000  0.67116300  0.91186000  1
  S  S8  1  0.50000000  0.50000000  0.50000000  1
  S  S9  1  0.50000000  0.00000000  0.00000000  1
  S  S10  1  0.00000000  0.50847700  0.12082300  1
  S  S11  1  0.00000000  0.49152300  0.87917700  1
  S  S12  1  0.00000000  0.00847700  0.37917700  1
  S  S13  1  0.00000000  0.99152300  0.62082300  1
  S  S14  1  0.50000000  0.61407500  0.28819900  1
  S  S15  1  0.50000000  0.38592500  0.71180100  1
  S  S16  1  0.50000000  0.11407500  0.21180100  1
  S  S17  1  0.50000000  0.88592500  0.78819900  1
loop_
_geom_bond_atom_site_label_1
_geom_bond_atom_site_label_2
_geom_bond_distance
_geom_bond_site_symmetry_2
K0 S0 3.221395 1_655
K0 S0 3.221395 1_555
K0 S7 3.277918 1_554
K0 S7 3.277918 1_654
K0 S10 3.331403 1_555
K0 S10 3.331403 1_655
K0 S9 3.338282 1_565
K1 S1 3.221395 1_555
K1 S1 3.221395 1_655
K1 S6 3.277918 1_656
K1 S6 3.277918 1_556
K1 S11 3.331403 1_555
K1 S11 3.331403 1_655
K1 S9 3.338282 1_556
K2 S2 3.221395 1_555
K2 S2 3.221395 1_655
K2 S5 3.277918 1_555
K2 S5 3.277918 1_655
K2 S12 3.331403 1_655
K2 S12 3.331403 1_555
K2 S8 3.338282 1_555
K3 S3 3.221395 1_655
K3 S3 3.221395 1_555
K3 S4 3.277918 1_555
K3 S4 3.277918 1_655
K3 S13 3.331403 1_655
K3 S13 3.331403 1_555
K3 S8 3.338282 1_555
La0 S12 2.891511 1_565
La0 S12 2.891511 1_665
La0 S4 2.943463 1_555
La0 S4 2.943463 1_655
La0 S0 2.962088 1_555
La0 S0 2.962088 1_655
La0 S16 2.970673 1_565
La0 S14 3.054438 1_555
La1 S13 2.891511 1_545
La1 S13 2.891511 1_645
La1 S5 2.943463 1_555
La1 S5 2.943463 1_655
La1 S1 2.962088 1_655
La1 S1 2.962088 1_555
La1 S17 2.970673 1_545
La1 S15 3.054438 1_555
La2 S10 2.891511 1_555
La2 S10 2.891511 1_655
La2 S6 2.943463 1_655
La2 S6 2.943463 1_555
La2 S2 2.962088 1_555
La2 S2 2.962088 1_655
La2 S14 2.970673 1_555
La2 S16 3.054438 1_555
La3 S11 2.891511 1_655
La3 S11 2.891511 1_555
La3 S7 2.943463 1_555
La3 S7 2.943463 1_655
La3 S3 2.962088 1_555
La3 S3 2.962088 1_655
La3 S15 2.970673 1_555
La3 S17 3.054438 1_555
S0 Sb2 2.481917 1_565
S1 Sb3 2.481917 1_545
S2 Sb0 2.481917 1_555
S3 Sb1 2.481917 1_555
S4 Sb0 3.166958 1_555
S5 Sb1 3.166958 1_555
S6 Sb2 3.166958 1_555
S7 Sb3 3.166958 1_555
S8 Sb0 2.927491 1_555
S8 Sb1 2.927491 1_555
S8 Sb0 2.927491 1_655
S8 Sb1 2.927491 1_655
S9 Sb2 2.927491 1_555
S9 Sb3 2.927491 1_644
S9 Sb2 2.927491 1_655
S9 Sb3 2.927491 1_544
S10 S6 2.110111 1_555
S11 S7 2.110111 1_555
S12 S4 2.110111 1_545
S13 S5 2.110111 1_565
S14 Sb0 2.725354 1_655
S14 Sb0 2.725354 1_555
S15 Sb1 2.725354 1_655
S15 Sb1 2.725354 1_555
S16 Sb2 2.725354 1_555
S16 Sb2 2.725354 1_655
S17 Sb3 2.725354 1_555
S17 Sb3 2.725354 1_655
