# generated using pymatgen
data_Ba2AlCr3O7
_symmetry_space_group_name_H-M   'P 1'
_cell_length_a   3.82627000
_cell_length_b   3.96811500
_cell_length_c   11.57688900
_cell_angle_alpha   90.00000000
_cell_angle_beta   90.00000000
_cell_angle_gamma   90.00000000
_symmetry_Int_Tables_number   1
_chemical_formula_structural   Ba2AlCr3O7
_chemical_formula_sum   'Ba2 Al1 Cr3 O7'
_cell_volume   175.77282467
_cell_formula_units_Z   1
loop_
 _symmetry_equiv_pos_site_id
 _symmetry_equiv_pos_as_xyz
  1  'x, y, z'
loop_
 _atom_site_type_symbol
 _atom_site_label
 _atom_site_symmetry_multiplicity
 _atom_site_fract_x
 _atom_site_fract_y
 _atom_site_fract_z
 _atom_site_occupancy
  Ba  Ba0  1  0.50000000  0.50000000  0.31486000  1
  Ba  Ba1  1  0.50000000  0.50000000  0.68514000  1
  Al  Al0  1  0.50000000  0.50000000  0.00000000  1
  Cr  Cr0  1  0.00000000  0.00000000  0.13925100  1
  Cr  Cr1  1  0.00000000  0.00000000  0.86074900  1
  Cr  Cr2  1  0.00000000  0.00000000  0.50000000  1
  O  O0  1  0.00000000  0.50000000  0.50000000  1
  O  O1  1  0.50000000  0.00000000  0.10703900  1
  O  O2  1  0.50000000  0.00000000  0.89296100  1
  O  O3  1  0.00000000  0.50000000  0.10738400  1
  O  O4  1  0.00000000  0.50000000  0.89261600  1
  O  O5  1  0.00000000  0.00000000  0.32022000  1
  O  O6  1  0.00000000  0.00000000  0.67978000  1
loop_
_geom_bond_atom_site_label_1
_geom_bond_atom_site_label_2
_geom_bond_distance
_geom_bond_site_symmetry_2
Ba0 O5 2.756886 1_655
Ba0 O5 2.756886 1_565
Ba0 O5 2.756886 1_665
Ba0 O5 2.756886 1_555
Ba0 O0 2.872980 1_555
Ba0 O0 2.872980 1_655
Ba0 O3 3.070723 1_555
Ba0 O3 3.070723 1_655
Ba0 O1 3.118483 1_555
Ba0 O1 3.118483 1_565
Ba1 O6 2.756886 1_665
Ba1 O6 2.756886 1_555
Ba1 O6 2.756886 1_655
Ba1 O6 2.756886 1_565
Ba1 O0 2.872980 1_555
Ba1 O0 2.872980 1_655
Ba1 O4 3.070723 1_655
Ba1 O4 3.070723 1_555
Ba1 O2 3.118483 1_555
Ba1 O2 3.118483 1_565
Al0 O4 2.281570 1_654
Al0 O3 2.281570 1_555
Al0 O4 2.281570 1_554
Al0 O3 2.281570 1_655
Al0 O1 2.339241 1_555
Al0 O2 2.339241 1_564
Al0 O1 2.339241 1_565
Al0 O2 2.339241 1_554
Cr0 O1 1.949141 1_455
Cr0 O1 1.949141 1_555
Cr0 O3 2.018065 1_555
Cr0 O3 2.018065 1_545
Cr0 O5 2.095058 1_555
Cr1 O2 1.949141 1_455
Cr1 O2 1.949141 1_555
Cr1 O4 2.018065 1_555
Cr1 O4 2.018065 1_545
Cr1 O6 2.095058 1_555
Cr2 O0 1.984058 1_545
Cr2 O0 1.984058 1_555
Cr2 O5 2.081293 1_555
Cr2 O6 2.081293 1_555
