# generated using pymatgen
data_Li9Mn2Co5O16
_symmetry_space_group_name_H-M   'P 1'
_cell_length_a   19.31409866
_cell_length_b   19.31409866
_cell_length_c   5.18226634
_cell_angle_alpha   88.41600811
_cell_angle_beta   88.41600811
_cell_angle_gamma   8.55319050
_symmetry_Int_Tables_number   1
_chemical_formula_structural   Li9Mn2Co5O16
_chemical_formula_sum   'Li9 Mn2 Co5 O16'
_cell_volume   287.40411566
_cell_formula_units_Z   1
loop_
 _symmetry_equiv_pos_site_id
 _symmetry_equiv_pos_as_xyz
  1  'x, y, z'
loop_
 _atom_site_type_symbol
 _atom_site_label
 _atom_site_symmetry_multiplicity
 _atom_site_fract_x
 _atom_site_fract_y
 _atom_site_fract_z
 _atom_site_occupancy
  Li  Li0  1  0.43727000  0.43727000  0.18466000  1
  Li  Li1  1  0.30815900  0.30815900  0.57534000  1
  Li  Li2  1  0.18980300  0.18980300  0.93182300  1
  Li  Li3  1  0.06343800  0.06343800  0.31207200  1
  Li  Li4  1  0.93770100  0.93770100  0.69048600  1
  Li  Li5  1  0.80901300  0.80901300  0.07288500  1
  Li  Li6  1  0.68989000  0.68989000  0.42520300  1
  Li  Li7  1  0.56445600  0.56445600  0.81313400  1
  Li  Li8  1  0.74954900  0.74954900  0.75032400  1
  Mn  Mn0  1  0.00044100  0.00044100  0.99948400  1
  Mn  Mn1  1  0.87468100  0.87468100  0.37831800  1
  Co  Co0  1  0.62541000  0.62541000  0.12245200  1
  Co  Co1  1  0.50029700  0.50029700  0.49931700  1
  Co  Co2  1  0.37415200  0.37415200  0.87796600  1
  Co  Co3  1  0.24968500  0.24968500  0.24951000  1
  Co  Co4  1  0.12596800  0.12596800  0.62227100  1
  O  O0  1  0.47143900  0.47143900  0.86566800  1
  O  O1  1  0.34688900  0.34688900  0.23099900  1
  O  O2  1  0.22300800  0.22300800  0.53953700  1
  O  O3  1  0.09600600  0.09600600  0.97182500  1
  O  O4  1  0.97206900  0.97206900  0.36870700  1
  O  O5  1  0.84474700  0.84474700  0.73795300  1
  O  O6  1  0.72252400  0.72252400  0.10901900  1
  O  O7  1  0.59574700  0.59574700  0.47246300  1
  O  O8  1  0.40331100  0.40331100  0.52153800  1
  O  O9  1  0.27680000  0.27680000  0.95640700  1
  O  O10  1  0.15359600  0.15359600  0.27220700  1
  O  O11  1  0.02793400  0.02793400  0.63111000  1
  O  O12  1  0.90445600  0.90445600  0.01482100  1
  O  O13  1  0.77729600  0.77729600  0.38981300  1
  O  O14  1  0.65538300  0.65538300  0.77784900  1
  O  O15  1  0.52888000  0.52888000  0.13484100  1
loop_
_geom_bond_atom_site_label_1
_geom_bond_atom_site_label_2
_geom_bond_distance
_geom_bond_site_symmetry_2
Li0 O0 2.084354 1_554
Li0 O12 2.123319 1_545
Li0 O12 2.123319 1_455
Li0 O8 2.152293 1_555
Li0 O4 2.202696 1_545
Li0 O4 2.202696 1_455
Li1 O13 2.115550 1_545
Li1 O13 2.115550 1_455
Li1 O5 2.199270 1_455
Li1 O5 2.199270 1_545
Li1 O9 2.286206 1_555
Li1 O1 2.294016 1_555
Li2 O14 2.127843 1_455
Li2 O14 2.127843 1_545
Li2 O6 2.137872 1_546
Li2 O6 2.137872 1_456
Li2 O10 2.218197 1_556
Li2 O2 2.371643 1_555
Li3 O7 2.090829 1_455
Li3 O7 2.090829 1_545
Li3 O11 2.116272 1_555
Li3 O3 2.135483 1_554
Li3 O15 2.181246 1_455
Li3 O15 2.181246 1_545
Li4 O12 2.084637 1_556
Li4 O4 2.100230 1_555
Li4 O0 2.157075 1_655
Li4 O0 2.157075 1_565
Li4 O8 2.158740 1_565
Li4 O8 2.158740 1_655
Li5 O9 2.005002 1_564
Li5 O9 2.005002 1_654
Li5 O13 2.019640 1_555
Li5 O5 2.185170 1_554
Li5 O1 2.222787 1_655
Li5 O1 2.222787 1_565
Li6 O2 2.023575 1_565
Li6 O2 2.023575 1_655
Li6 O6 2.037378 1_555
Li6 O10 2.172346 1_655
Li6 O10 2.172346 1_565
Li6 O14 2.229790 1_555
Li7 O3 2.069574 1_655
Li7 O3 2.069574 1_565
Li7 O7 2.109905 1_555
Li7 O15 2.128573 1_556
Li7 O11 2.239869 1_655
Li7 O11 2.239869 1_565
Li8 O2 2.091605 1_565
Li8 O2 2.091605 1_655
Li8 O9 2.092619 1_655
Li8 O9 2.092619 1_565
Li8 O6 2.105179 1_556
Li8 O13 2.126525 1_555
Mn0 O15 1.951702 1_456
Mn0 O15 1.951702 1_546
Mn0 O0 1.961208 1_545
Mn0 O0 1.961208 1_455
Mn0 O11 2.157273 1_555
Mn0 O4 2.177076 1_446
Mn1 O1 1.961804 1_655
Mn1 O1 1.961804 1_565
Mn1 O8 1.971527 1_565
Mn1 O8 1.971527 1_655
Mn1 O5 2.164236 1_555
Mn1 O12 2.178116 1_555
Co0 O10 1.975409 1_565
Co0 O10 1.975409 1_655
Co0 O3 2.003911 1_654
Co0 O3 2.003911 1_564
Co0 O14 2.099503 1_554
Co0 O7 2.116783 1_555
Co1 O11 1.927316 1_565
Co1 O11 1.927316 1_655
Co1 O4 1.937961 1_455
Co1 O4 1.937961 1_545
Co1 O15 2.159767 1_555
Co1 O0 2.173276 1_555
Co2 O5 1.982284 1_455
Co2 O5 1.982284 1_545
Co2 O12 1.996485 1_546
Co2 O12 1.996485 1_456
Co2 O1 2.084104 1_556
Co2 O8 2.135043 1_555
Co3 O2 1.797044 1_555
Co3 O9 1.819388 1_554
Co3 O6 1.934261 1_545
Co3 O6 1.934261 1_455
Co3 O13 1.943493 1_455
Co3 O13 1.943493 1_545
Co4 O14 2.014687 1_545
Co4 O14 2.014687 1_455
Co4 O7 2.020501 1_545
Co4 O7 2.020501 1_455
Co4 O10 2.077652 1_555
Co4 O3 2.120762 1_555
