# generated using pymatgen
data_Al2P2H6NO11
_symmetry_space_group_name_H-M   'P 1'
_cell_length_a   9.60261000
_cell_length_b   9.70064100
_cell_length_c   9.95465900
_cell_angle_alpha   90.00000000
_cell_angle_beta   90.00000000
_cell_angle_gamma   90.00000000
_symmetry_Int_Tables_number   1
_chemical_formula_structural   Al2P2H6NO11
_chemical_formula_sum   'Al8 P8 H24 N4 O44'
_cell_volume   927.29114183
_cell_formula_units_Z   4
loop_
 _symmetry_equiv_pos_site_id
 _symmetry_equiv_pos_as_xyz
  1  'x, y, z'
loop_
 _atom_site_type_symbol
 _atom_site_label
 _atom_site_symmetry_multiplicity
 _atom_site_fract_x
 _atom_site_fract_y
 _atom_site_fract_z
 _atom_site_occupancy
  Al  Al0  1  0.14742600  0.51200200  0.18249800  1
  Al  Al1  1  0.35257400  0.48799800  0.68249800  1
  Al  Al2  1  0.85257400  0.01200200  0.31750200  1
  Al  Al3  1  0.64742600  0.98799800  0.81750200  1
  Al  Al4  1  0.39751000  0.25651300  0.13726000  1
  Al  Al5  1  0.10249000  0.74348700  0.63726000  1
  Al  Al6  1  0.60249000  0.75651300  0.36274000  1
  Al  Al7  1  0.89751000  0.24348700  0.86274000  1
  P  P0  1  0.41711200  0.47942000  0.36162400  1
  P  P1  1  0.08288800  0.52058000  0.86162400  1
  P  P2  1  0.58288800  0.97942000  0.13837600  1
  P  P3  1  0.91711200  0.02058000  0.63837600  1
  P  P4  1  0.07642700  0.19987000  0.14297100  1
  P  P5  1  0.42357300  0.80013000  0.64297100  1
  P  P6  1  0.92357300  0.69987000  0.35702900  1
  P  P7  1  0.57642700  0.30013000  0.85702900  1
  H  H0  1  0.46984100  0.21986100  0.43817300  1
  H  H1  1  0.03015900  0.78013900  0.93817300  1
  H  H2  1  0.53015900  0.71986100  0.06182700  1
  H  H3  1  0.96984100  0.28013900  0.56182700  1
  H  H4  1  0.32951900  0.24126900  0.59746200  1
  H  H5  1  0.17048100  0.75873100  0.09746200  1
  H  H6  1  0.67048100  0.74126900  0.90253800  1
  H  H7  1  0.82951900  0.25873100  0.40253800  1
  H  H8  1  0.48383900  0.04959700  0.47648600  1
  H  H9  1  0.01616100  0.95040300  0.97648600  1
  H  H10  1  0.51616100  0.54959700  0.02351400  1
  H  H11  1  0.98383900  0.45040300  0.52351400  1
  H  H12  1  0.02658200  0.33550000  0.40221300  1
  H  H13  1  0.47341800  0.66450000  0.90221300  1
  H  H14  1  0.97341800  0.83550000  0.09778700  1
  H  H15  1  0.52658200  0.16450000  0.59778700  1
  H  H16  1  0.12438700  0.34753500  0.54540500  1
  H  H17  1  0.37561300  0.65246500  0.04540500  1
  H  H18  1  0.87561300  0.84753500  0.95459500  1
  H  H19  1  0.62438700  0.15246500  0.45459500  1
  H  H20  1  0.21230100  0.56873000  0.49259600  1
  H  H21  1  0.28769900  0.43127000  0.99259600  1
  H  H22  1  0.78769900  0.06873000  0.00740400  1
  H  H23  1  0.71230100  0.93127000  0.50740400  1
  N  N0  1  0.02247100  0.35370300  0.50543000  1
  N  N1  1  0.47752900  0.64629700  0.00543000  1
  N  N2  1  0.97752900  0.85370300  0.99457000  1
  N  N3  1  0.52247100  0.14629700  0.49457000  1
  O  O0  1  0.26056700  0.51285500  0.33931700  1
  O  O1  1  0.23943300  0.48714500  0.83931700  1
  O  O2  1  0.73943300  0.01285500  0.16068300  1
  O  O3  1  0.76056700  0.98714500  0.66068300  1
  O  O4  1  0.29311000  0.09336800  0.75740600  1
  O  O5  1  0.20689000  0.90663200  0.25740600  1
  O  O6  1  0.70689000  0.59336800  0.74259400  1
  O  O7  1  0.79311000  0.40663200  0.24259400  1
  O  O8  1  0.99941400  0.08813600  0.22122400  1
  O  O9  1  0.50058600  0.91186400  0.72122400  1
  O  O10  1  0.00058600  0.58813600  0.27877600  1
  O  O11  1  0.49941400  0.41186400  0.77877600  1
  O  O12  1  0.05998500  0.33929500  0.21981100  1
  O  O13  1  0.44001500  0.66070500  0.71981100  1
  O  O14  1  0.94001500  0.83929500  0.28018900  1
  O  O15  1  0.55998500  0.16070500  0.78018900  1
  O  O16  1  0.48707100  0.09315200  0.19082100  1
  O  O17  1  0.01292900  0.90684800  0.69082100  1
  O  O18  1  0.51292900  0.59315200  0.30917900  1
  O  O19  1  0.98707100  0.40684800  0.80917900  1
  O  O20  1  0.05611900  0.54059700  0.01434700  1
  O  O21  1  0.44388100  0.45940300  0.51434700  1
  O  O22  1  0.94388100  0.04059700  0.48565300  1
  O  O23  1  0.55611900  0.95940300  0.98565300  1
  O  O24  1  0.01898900  0.21147200  0.99887100  1
  O  O25  1  0.48101100  0.78852800  0.49887100  1
  O  O26  1  0.98101100  0.71147200  0.50112900  1
  O  O27  1  0.51898900  0.28852800  0.00112900  1
  O  O28  1  0.22978400  0.68513200  0.12950600  1
  O  O29  1  0.27021600  0.31486800  0.62950600  1
  O  O30  1  0.77021600  0.18513200  0.37049400  1
  O  O31  1  0.72978400  0.81486800  0.87049400  1
  O  O32  1  0.45047200  0.33824300  0.29434700  1
  O  O33  1  0.04952800  0.66175700  0.79434700  1
  O  O34  1  0.54952800  0.83824300  0.20565300  1
  O  O35  1  0.95047200  0.16175700  0.70565300  1
  O  O36  1  0.29538700  0.41740400  0.09138200  1
  O  O37  1  0.20461300  0.58259600  0.59138200  1
  O  O38  1  0.70461300  0.91740400  0.40861800  1
  O  O39  1  0.79538700  0.08259600  0.90861800  1
  O  O40  1  0.23295500  0.15889000  0.13709100  1
  O  O41  1  0.26704500  0.84111000  0.63709100  1
  O  O42  1  0.76704500  0.65889000  0.36290900  1
  O  O43  1  0.73295500  0.34111000  0.86290900  1
loop_
_geom_bond_atom_site_label_1
_geom_bond_atom_site_label_2
_geom_bond_distance
_geom_bond_site_symmetry_2
Al0 O10 1.858022 1_555
Al0 O0 1.901949 1_555
Al0 O20 1.909867 1_555
Al0 O12 1.910460 1_555
Al0 O36 1.919247 1_555
Al0 O28 1.929857 1_555
Al1 O11 1.858022 1_555
Al1 O1 1.901949 1_555
Al1 O21 1.909867 1_555
Al1 O13 1.910460 1_555
Al1 O37 1.919247 1_555
Al1 O29 1.929857 1_555
Al2 O8 1.858022 1_555
Al2 O2 1.901949 1_555
Al2 O22 1.909867 1_555
Al2 O14 1.910460 1_545
Al2 O38 1.919247 1_545
Al2 O30 1.929857 1_555
Al3 O9 1.858022 1_555
Al3 O3 1.901949 1_555
Al3 O23 1.909867 1_555
Al3 O15 1.910460 1_565
Al3 O39 1.919247 1_565
Al3 O31 1.929857 1_555
Al4 O27 1.814830 1_555
Al4 O32 1.825524 1_555
Al4 O40 1.842205 1_555
Al4 O16 1.880215 1_555
Al4 O36 1.898992 1_555
Al5 O26 1.814830 1_455
Al5 O33 1.825524 1_555
Al5 O41 1.842205 1_555
Al5 O17 1.880215 1_555
Al5 O37 1.898992 1_555
Al6 O25 1.814830 1_555
Al6 O34 1.825524 1_555
Al6 O42 1.842205 1_555
Al6 O18 1.880215 1_555
Al6 O38 1.898992 1_555
Al7 O24 1.814830 1_655
Al7 O35 1.825524 1_555
Al7 O43 1.842205 1_555
Al7 O19 1.880215 1_555
Al7 O39 1.898992 1_555
H0 N3 1.039158 1_555
H1 N2 1.039158 1_455
H2 N1 1.039158 1_555
H3 N0 1.039158 1_655
H4 O29 0.967356 1_555
H5 O28 0.967356 1_555
H6 O31 0.967356 1_555
H7 O30 0.967356 1_555
H8 N3 1.024678 1_555
H9 N2 1.024678 1_455
H10 N1 1.024678 1_555
H11 N0 1.024678 1_655
H12 N0 1.043300 1_555
H13 N1 1.043300 1_556
H14 N2 1.043300 1_554
H15 N3 1.043300 1_555
H16 N0 1.058163 1_555
H16 O29 1.662007 1_555
H17 N1 1.058163 1_555
H17 O28 1.662007 1_555
H18 N2 1.058163 1_555
H18 O31 1.662007 1_555
H19 N3 1.058163 1_555
H19 O30 1.662007 1_555
H20 O37 0.995279 1_555
H20 O0 1.684278 1_555
H21 O36 0.995279 1_556
H21 O1 1.684278 1_555
H22 O39 0.995279 1_554
H22 O2 1.684278 1_555
H23 O38 0.995279 1_555
H23 O3 1.684278 1_555
O0 P0 1.553782 1_555
O1 P1 1.553782 1_555
O2 P2 1.553782 1_545
O3 P3 1.553782 1_565
O8 P4 1.525953 1_655
O9 P5 1.525953 1_555
O10 P6 1.525953 1_455
O11 P7 1.525953 1_555
O12 P4 1.561830 1_555
O13 P5 1.561830 1_555
O14 P6 1.561830 1_555
O15 P7 1.561830 1_555
O16 P2 1.528510 1_545
O17 P3 1.528510 1_465
O18 P0 1.528510 1_555
O19 P1 1.528510 1_655
O20 P1 1.554062 1_554
O21 P0 1.554062 1_555
O22 P3 1.554062 1_555
O23 P2 1.554062 1_556
O24 P4 1.540965 1_556
O25 P5 1.540965 1_555
O26 P6 1.540965 1_555
O27 P7 1.540965 1_554
O32 P0 1.557785 1_555
O33 P1 1.557785 1_555
O34 P2 1.557785 1_555
O35 P3 1.557785 1_555
O40 P4 1.555860 1_555
O41 P5 1.555860 1_555
O42 P6 1.555860 1_555
O43 P7 1.555860 1_555
