# generated using pymatgen
data_La3Pt2
_symmetry_space_group_name_H-M   'P 1'
_cell_length_a   7.83795313
_cell_length_b   7.83795459
_cell_length_c   7.83795355
_cell_angle_alpha   71.33502218
_cell_angle_beta   71.33502172
_cell_angle_gamma   71.33502031
_symmetry_Int_Tables_number   1
_chemical_formula_structural   La3Pt2
_chemical_formula_sum   'La9 Pt6'
_cell_volume   419.30132124
_cell_formula_units_Z   3
loop_
 _symmetry_equiv_pos_site_id
 _symmetry_equiv_pos_as_xyz
  1  'x, y, z'
loop_
 _atom_site_type_symbol
 _atom_site_label
 _atom_site_symmetry_multiplicity
 _atom_site_fract_x
 _atom_site_fract_y
 _atom_site_fract_z
 _atom_site_occupancy
  La  La0  1  -0.00000000  -0.00000000  -0.00000000  1
  La  La1  1  0.80058651  0.80058651  0.80058651  1
  La  La2  1  0.19941349  0.19941349  0.19941349  1
  La  La3  1  0.32841484  0.60673642  0.83844473  1
  La  La4  1  0.83844473  0.32841384  0.60673642  1
  La  La5  1  0.60673642  0.83844473  0.32841384  1
  La  La6  1  0.67158516  0.39326358  0.16155527  1
  La  La7  1  0.16155527  0.67158616  0.39326358  1
  La  La8  1  0.39326358  0.16155527  0.67158616  1
  Pt  Pt0  1  0.16760421  0.95840469  0.58876541  1
  Pt  Pt1  1  0.58876541  0.16760421  0.95840469  1
  Pt  Pt2  1  0.95840469  0.58876541  0.16760421  1
  Pt  Pt3  1  0.83239579  0.04159531  0.41123459  1
  Pt  Pt4  1  0.41123459  0.83239579  0.04159531  1
  Pt  Pt5  1  0.04159531  0.41123459  0.83239579  1
loop_
_geom_bond_atom_site_label_1
_geom_bond_atom_site_label_2
_geom_bond_distance
_geom_bond_site_symmetry_2
La0 Pt1 3.147942 1_454
La0 Pt4 3.147942 1_545
La0 Pt0 3.147943 1_544
La0 Pt3 3.147943 1_455
La0 Pt2 3.147943 1_445
La0 Pt5 3.147943 1_554
La1 Pt4 3.011340 1_556
La1 Pt3 3.011340 1_565
La1 Pt5 3.011341 1_655
La1 Pt0 3.235410 1_655
La1 Pt2 3.235410 1_556
La1 Pt1 3.235410 1_565
La2 Pt1 3.011340 1_554
La2 Pt0 3.011340 1_545
La2 Pt2 3.011341 1_455
La2 Pt3 3.235410 1_455
La2 Pt5 3.235410 1_554
La2 Pt4 3.235410 1_545
La3 Pt0 2.986374 1_555
La3 Pt4 3.046992 1_556
La3 Pt5 3.118298 1_555
La3 Pt2 3.213474 1_456
La3 Pt1 3.399402 1_555
La4 Pt1 2.986371 1_555
La4 Pt5 3.046996 1_655
La4 Pt3 3.118292 1_555
La4 Pt0 3.213469 1_645
La4 Pt2 3.399405 1_555
La5 Pt2 2.986371 1_555
La5 Pt3 3.046996 1_565
La5 Pt4 3.118291 1_555
La5 Pt1 3.213469 1_564
La5 Pt0 3.399405 1_555
La6 Pt3 2.986374 1_555
La6 Pt1 3.046992 1_554
La6 Pt2 3.118298 1_555
La6 Pt5 3.213474 1_654
La6 Pt4 3.399402 1_555
La7 Pt4 2.986371 1_555
La7 Pt2 3.046996 1_455
La7 Pt0 3.118292 1_555
La7 Pt3 3.213469 1_465
La7 Pt5 3.399405 1_555
La8 Pt5 2.986371 1_555
La8 Pt0 3.046996 1_545
La8 Pt1 3.118291 1_555
La8 Pt4 3.213469 1_546
La8 Pt3 3.399405 1_555
