# generated using pymatgen
data_Ta6TeSe2
_symmetry_space_group_name_H-M   'P 1'
_cell_length_a   7.61178076
_cell_length_b   7.61178076
_cell_length_c   10.81172797
_cell_angle_alpha   88.89307001
_cell_angle_beta   88.89307001
_cell_angle_gamma   36.76087069
_symmetry_Int_Tables_number   1
_chemical_formula_structural   Ta6TeSe2
_chemical_formula_sum   'Ta12 Te2 Se4'
_cell_volume   374.82178910
_cell_formula_units_Z   2
loop_
 _symmetry_equiv_pos_site_id
 _symmetry_equiv_pos_as_xyz
  1  'x, y, z'
loop_
 _atom_site_type_symbol
 _atom_site_label
 _atom_site_symmetry_multiplicity
 _atom_site_fract_x
 _atom_site_fract_y
 _atom_site_fract_z
 _atom_site_occupancy
  Ta  Ta0  1  0.41308752  0.41308752  0.22148804  1
  Ta  Ta1  1  0.08105208  0.08105208  0.21737196  1
  Ta  Ta2  1  0.74821384  0.74821384  0.21943197  1
  Ta  Ta3  1  0.91894792  0.91894792  0.78262804  1
  Ta  Ta4  1  0.58691248  0.58691248  0.77851196  1
  Ta  Ta5  1  0.25178616  0.25178616  0.78056803  1
  Ta  Ta6  1  0.41753407  0.41753407  0.93164166  1
  Ta  Ta7  1  0.08390906  0.08390906  0.92564286  1
  Ta  Ta8  1  0.75130265  0.75130265  0.92987936  1
  Ta  Ta9  1  0.91609094  0.91609094  0.07435714  1
  Ta  Ta10  1  0.58246593  0.58246593  0.06835834  1
  Ta  Ta11  1  0.24869735  0.24869735  0.07012064  1
  Te  Te0  1  0.08758570  0.08758570  0.63334519  1
  Te  Te1  1  0.91241430  0.91241430  0.36665481  1
  Se  Se0  1  0.75564923  0.75564923  0.66855376  1
  Se  Se1  1  0.41955284  0.41955284  0.67240657  1
  Se  Se2  1  0.58044716  0.58044716  0.32759343  1
  Se  Se3  1  0.24435077  0.24435077  0.33144624  1
loop_
_geom_bond_atom_site_label_1
_geom_bond_atom_site_label_2
_geom_bond_distance
_geom_bond_site_symmetry_2
Ta0 Te1 2.867700 1_455
Ta0 Te1 2.867700 1_545
Ta0 Ta9 2.879307 1_455
Ta0 Ta9 2.879307 1_545
Ta1 Ta9 2.867128 1_445
Ta1 Te1 2.894901 1_445
Ta2 Ta9 2.861372 1_555
Ta2 Te1 2.883510 1_555
Ta3 Ta7 2.867128 1_665
Ta3 Te0 2.894901 1_665
Ta4 Te0 2.867700 1_565
Ta4 Te0 2.867700 1_655
Ta4 Ta7 2.879307 1_565
Ta4 Ta7 2.879307 1_655
Ta5 Ta7 2.861372 1_555
Ta5 Te0 2.883510 1_555
Ta6 Ta9 2.853220 1_546
Ta6 Ta9 2.853220 1_456
Ta7 Ta9 2.881748 1_446
Ta7 Te0 3.159608 1_555
Ta8 Ta9 2.873859 1_556
Ta9 Te1 3.159608 1_555
Ta10 Ta7 2.853220 1_654
Ta10 Ta7 2.853220 1_564
Ta11 Ta7 2.873859 1_554
Se0 Ta3 2.684257 1_555
Se0 Ta5 2.688482 1_655
Se0 Ta5 2.688482 1_565
Se0 Ta4 2.690325 1_555
Se0 Ta8 2.824801 1_555
Se1 Ta5 2.669551 1_555
Se1 Ta3 2.679674 1_455
Se1 Ta3 2.679674 1_545
Se1 Ta4 2.697194 1_555
Se1 Ta6 2.802337 1_555
Se2 Ta2 2.669551 1_555
Se2 Ta1 2.679674 1_565
Se2 Ta1 2.679674 1_655
Se2 Ta0 2.697194 1_555
Se2 Ta10 2.802337 1_555
Se3 Ta1 2.684257 1_555
Se3 Ta2 2.688482 1_545
Se3 Ta2 2.688482 1_455
Se3 Ta0 2.690325 1_555
Se3 Ta11 2.824801 1_555
