# generated using pymatgen
data_K5U4VS4O33
_symmetry_space_group_name_H-M   'P 1'
_cell_length_a   15.16765600
_cell_length_b   15.16765600
_cell_length_c   7.10300400
_cell_angle_alpha   90.00000000
_cell_angle_beta   90.00000000
_cell_angle_gamma   90.00000000
_symmetry_Int_Tables_number   1
_chemical_formula_structural   K5U4VS4O33
_chemical_formula_sum   'K10 U8 V2 S8 O66'
_cell_volume   1634.10139219
_cell_formula_units_Z   2
loop_
 _symmetry_equiv_pos_site_id
 _symmetry_equiv_pos_as_xyz
  1  'x, y, z'
loop_
 _atom_site_type_symbol
 _atom_site_label
 _atom_site_symmetry_multiplicity
 _atom_site_fract_x
 _atom_site_fract_y
 _atom_site_fract_z
 _atom_site_occupancy
  K  K0  1  0.37865400  0.80288300  0.37718600  1
  K  K1  1  0.62134600  0.19711700  0.37718600  1
  K  K2  1  0.87865400  0.30288300  0.62281400  1
  K  K3  1  0.12134600  0.69711700  0.62281400  1
  K  K4  1  0.19711700  0.37865400  0.62281400  1
  K  K5  1  0.80288300  0.62134600  0.62281400  1
  K  K6  1  0.69711700  0.87865400  0.37718600  1
  K  K7  1  0.30288300  0.12134600  0.37718600  1
  K  K8  1  0.50000000  0.50000000  0.00000000  1
  K  K9  1  0.00000000  0.00000000  0.00000000  1
  U  U0  1  0.19059500  0.56719600  0.12571800  1
  U  U1  1  0.80940500  0.43280400  0.12571800  1
  U  U2  1  0.69059500  0.06719600  0.87428200  1
  U  U3  1  0.30940500  0.93280400  0.87428200  1
  U  U4  1  0.43280400  0.19059500  0.87428200  1
  U  U5  1  0.56719600  0.80940500  0.87428200  1
  U  U6  1  0.93280400  0.69059500  0.12571800  1
  U  U7  1  0.06719600  0.30940500  0.12571800  1
  V  V0  1  0.00000000  0.50000000  0.31196000  1
  V  V1  1  0.50000000  0.00000000  0.68804000  1
  S  S0  1  0.70018100  0.64254300  0.12411300  1
  S  S1  1  0.29981900  0.35745700  0.12411300  1
  S  S2  1  0.20018100  0.14254300  0.87588700  1
  S  S3  1  0.79981900  0.85745700  0.87588700  1
  S  S4  1  0.35745700  0.70018100  0.87588700  1
  S  S5  1  0.64254300  0.29981900  0.87588700  1
  S  S6  1  0.85745700  0.20018100  0.12411300  1
  S  S7  1  0.14254300  0.79981900  0.12411300  1
  O  O0  1  0.69441000  0.54442600  0.15101600  1
  O  O1  1  0.30559000  0.45557400  0.15101600  1
  O  O2  1  0.19441000  0.04442600  0.84898400  1
  O  O3  1  0.80559000  0.95557400  0.84898400  1
  O  O4  1  0.45557400  0.69441000  0.84898400  1
  O  O5  1  0.54442600  0.30559000  0.84898400  1
  O  O6  1  0.95557400  0.19441000  0.15101600  1
  O  O7  1  0.04442600  0.80559000  0.15101600  1
  O  O8  1  0.16208200  0.53977800  0.88410900  1
  O  O9  1  0.83791800  0.46022200  0.88410900  1
  O  O10  1  0.66208200  0.03977800  0.11589100  1
  O  O11  1  0.33791800  0.96022200  0.11589100  1
  O  O12  1  0.46022200  0.16208200  0.11589100  1
  O  O13  1  0.53977800  0.83791800  0.11589100  1
  O  O14  1  0.96022200  0.66208200  0.88410900  1
  O  O15  1  0.03977800  0.33791800  0.88410900  1
  O  O16  1  0.49718000  0.63819300  0.38520100  1
  O  O17  1  0.50282000  0.36180700  0.38520100  1
  O  O18  1  0.99718000  0.13819300  0.61479900  1
  O  O19  1  0.00282000  0.86180700  0.61479900  1
  O  O20  1  0.36180700  0.49718000  0.61479900  1
  O  O21  1  0.63819300  0.50282000  0.61479900  1
  O  O22  1  0.86180700  0.99718000  0.38520100  1
  O  O23  1  0.13819300  0.00282000  0.38520100  1
  O  O24  1  0.22330400  0.59704600  0.36399600  1
  O  O25  1  0.77669600  0.40295400  0.36399600  1
  O  O26  1  0.72330400  0.09704600  0.63600400  1
  O  O27  1  0.27669600  0.90295400  0.63600400  1
  O  O28  1  0.40295400  0.22330400  0.63600400  1
  O  O29  1  0.59704600  0.77669600  0.63600400  1
  O  O30  1  0.90295400  0.72330400  0.36399600  1
  O  O31  1  0.09704600  0.27669600  0.36399600  1
  O  O32  1  0.62647800  0.66736900  0.99409700  1
  O  O33  1  0.37352200  0.33263100  0.99409700  1
  O  O34  1  0.12647800  0.16736900  0.00590300  1
  O  O35  1  0.87352200  0.83263100  0.00590300  1
  O  O36  1  0.33263100  0.62647800  0.00590300  1
  O  O37  1  0.66736900  0.37352200  0.00590300  1
  O  O38  1  0.83263100  0.12647800  0.99409700  1
  O  O39  1  0.16736900  0.87352200  0.99409700  1
  O  O40  1  0.78565300  0.66127900  0.02259000  1
  O  O41  1  0.21434700  0.33872100  0.02259000  1
  O  O42  1  0.28565300  0.16127900  0.97741000  1
  O  O43  1  0.71434700  0.83872100  0.97741000  1
  O  O44  1  0.33872100  0.78565300  0.97741000  1
  O  O45  1  0.66127900  0.21434700  0.97741000  1
  O  O46  1  0.83872100  0.28565300  0.02259000  1
  O  O47  1  0.16127900  0.71434700  0.02259000  1
  O  O48  1  0.10834900  0.45132400  0.23007400  1
  O  O49  1  0.89165100  0.54867600  0.23007400  1
  O  O50  1  0.60834900  0.95132400  0.76992600  1
  O  O51  1  0.39165100  0.04867600  0.76992600  1
  O  O52  1  0.54867600  0.10834900  0.76992600  1
  O  O53  1  0.45132400  0.89165100  0.76992600  1
  O  O54  1  0.04867600  0.60834900  0.23007400  1
  O  O55  1  0.95132400  0.39165100  0.23007400  1
  O  O56  1  0.69621600  0.68899900  0.30396700  1
  O  O57  1  0.30378400  0.31100100  0.30396700  1
  O  O58  1  0.19621600  0.18899900  0.69603300  1
  O  O59  1  0.80378400  0.81100100  0.69603300  1
  O  O60  1  0.31100100  0.69621600  0.69603300  1
  O  O61  1  0.68899900  0.30378400  0.69603300  1
  O  O62  1  0.81100100  0.19621600  0.30396700  1
  O  O63  1  0.18899900  0.80378400  0.30396700  1
  O  O64  1  0.00000000  0.50000000  0.54202200  1
  O  O65  1  0.50000000  0.00000000  0.45797800  1
loop_
_geom_bond_atom_site_label_1
_geom_bond_atom_site_label_2
_geom_bond_distance
_geom_bond_site_symmetry_2
K0 O27 2.841664 1_555
K0 O44 2.915227 1_554
K0 O63 2.923289 1_555
K0 O60 2.966431 1_555
K0 O16 3.078149 1_555
K0 O11 3.085714 1_555
K0 O13 3.114412 1_555
K0 O53 3.287822 1_555
K1 O26 2.841664 1_555
K1 O45 2.915227 1_554
K1 O62 2.923289 1_555
K1 O61 2.966431 1_555
K1 O17 3.078149 1_555
K1 O10 3.085714 1_555
K1 O12 3.114412 1_555
K1 O52 3.287822 1_555
K2 O25 2.841664 1_555
K2 O46 2.915227 1_556
K2 O61 2.923289 1_555
K2 O62 2.966431 1_555
K2 O18 3.078149 1_555
K2 O9 3.085714 1_555
K2 O15 3.114412 1_655
K2 O55 3.287822 1_555
K3 O24 2.841664 1_555
K3 O47 2.915227 1_556
K3 O60 2.923289 1_555
K3 O63 2.966431 1_555
K3 O19 3.078149 1_555
K3 O8 3.085714 1_555
K3 O14 3.114412 1_455
K3 O54 3.287822 1_555
K4 O31 2.841664 1_555
K4 O41 2.915227 1_556
K4 O58 2.923289 1_555
K4 O57 2.966431 1_555
K4 O20 3.078149 1_555
K4 O15 3.085714 1_555
K4 O8 3.114412 1_555
K4 O48 3.287822 1_555
K5 O30 2.841664 1_555
K5 O40 2.915227 1_556
K5 O59 2.923289 1_555
K5 O56 2.966431 1_555
K5 O21 3.078149 1_555
K5 O14 3.085714 1_555
K5 O9 3.114412 1_555
K5 O49 3.287822 1_555
K6 O29 2.841664 1_555
K6 O43 2.915227 1_554
K6 O56 2.923289 1_555
K6 O59 2.966431 1_555
K6 O22 3.078149 1_555
K6 O13 3.085714 1_555
K6 O10 3.114412 1_565
K6 O50 3.287822 1_555
K7 O28 2.841664 1_555
K7 O42 2.915227 1_554
K7 O57 2.923289 1_555
K7 O58 2.966431 1_555
K7 O23 3.078149 1_555
K7 O12 3.085714 1_555
K7 O11 3.114412 1_545
K7 O51 3.287822 1_555
K8 O37 3.182198 1_555
K8 O32 3.182198 1_554
K8 O33 3.182198 1_554
K8 O36 3.182198 1_555
K8 O0 3.209325 1_555
K8 O4 3.209325 1_554
K8 O1 3.209325 1_555
K8 O5 3.209325 1_554
K8 O21 3.446951 1_554
K8 O20 3.446951 1_554
K8 O17 3.446951 1_555
K8 O16 3.446951 1_555
K9 O39 3.182198 1_544
K9 O35 3.182198 1_445
K9 O38 3.182198 1_454
K9 O34 3.182198 1_555
K9 O3 3.209325 1_444
K9 O6 3.209325 1_455
K9 O7 3.209325 1_545
K9 O2 3.209325 1_554
K9 O19 3.446951 1_544
K9 O18 3.446951 1_454
K9 O23 3.446951 1_555
K9 O22 3.446951 1_445
O0 S0 1.502974 1_555
O0 U1 2.437404 1_555
O1 S1 1.502974 1_555
O1 U0 2.437404 1_555
O2 S2 1.502974 1_555
O2 U3 2.437404 1_545
O3 S3 1.502974 1_555
O3 U2 2.437404 1_565
O4 S4 1.502974 1_555
O4 U5 2.437404 1_555
O5 S5 1.502974 1_555
O5 U4 2.437404 1_555
O6 S6 1.502974 1_555
O6 U7 2.437404 1_655
O7 S7 1.502974 1_555
O7 U6 2.437404 1_455
O8 U0 1.818007 1_556
O9 U1 1.818007 1_556
O10 U2 1.818007 1_554
O11 U3 1.818007 1_554
O12 U4 1.818007 1_554
O13 U5 1.818007 1_554
O14 U6 1.818007 1_556
O15 U7 1.818007 1_556
O24 U0 1.820890 1_555
O25 U1 1.820890 1_555
O26 U2 1.820890 1_555
O27 U3 1.820890 1_555
O28 U4 1.820890 1_555
O29 U5 1.820890 1_555
O30 U6 1.820890 1_555
O31 U7 1.820890 1_555
O32 S0 1.498117 1_556
O32 U5 2.484758 1_555
O33 S1 1.498117 1_556
O33 U4 2.484758 1_555
O34 S2 1.498117 1_554
O34 U7 2.484758 1_555
O35 S3 1.498117 1_554
O35 U6 2.484758 1_555
O36 S4 1.498117 1_554
O36 U0 2.484758 1_555
O37 S5 1.498117 1_554
O37 U1 2.484758 1_555
O38 S6 1.498117 1_556
O38 U2 2.484758 1_555
O39 S7 1.498117 1_556
O39 U3 2.484758 1_555
O40 S0 1.510447 1_555
O40 U6 2.390782 1_555
O41 S1 1.510447 1_555
O41 U7 2.390782 1_555
O42 S2 1.510447 1_555
O42 U4 2.390782 1_555
O43 S3 1.510447 1_555
O43 U5 2.390782 1_555
O44 S4 1.510447 1_555
O44 U3 2.390782 1_555
O45 S5 1.510447 1_555
O45 U2 2.390782 1_555
O46 S6 1.510447 1_555
O46 U1 2.390782 1_555
O47 S7 1.510447 1_555
O47 U0 2.390782 1_555
O48 V0 1.893186 1_555
O48 U0 2.279138 1_555
O48 U7 2.360646 1_555
O49 V0 1.893186 1_655
O49 U1 2.279138 1_555
O49 U6 2.360646 1_555
O50 V1 1.893186 1_565
O50 U2 2.279138 1_565
O50 U5 2.360646 1_555
O51 V1 1.893186 1_555
O51 U3 2.279138 1_545
O51 U4 2.360646 1_555
O52 V1 1.893186 1_555
O52 U4 2.279138 1_555
O52 U2 2.360646 1_555
O53 V1 1.893186 1_565
O53 U5 2.279138 1_555
O53 U3 2.360646 1_555
O54 V0 1.893186 1_555
O54 U6 2.279138 1_455
O54 U0 2.360646 1_555
O55 V0 1.893186 1_655
O55 U7 2.279138 1_655
O55 U1 2.360646 1_555
O56 S0 1.460183 1_555
O57 S1 1.460183 1_555
O58 S2 1.460183 1_555
O59 S3 1.460183 1_555
O60 S4 1.460183 1_555
O61 S5 1.460183 1_555
O62 S6 1.460183 1_555
O63 S7 1.460183 1_555
O64 V0 1.634131 1_555
O65 V1 1.634131 1_555
