# generated using pymatgen
data_Ho3Mn3Ga2Si
_symmetry_space_group_name_H-M   'P 1'
_cell_length_a   6.92424742
_cell_length_b   6.92424742
_cell_length_c   4.14517000
_cell_angle_alpha   90.00000000
_cell_angle_beta   90.00000000
_cell_angle_gamma   119.99999446
_symmetry_Int_Tables_number   1
_chemical_formula_structural   Ho3Mn3Ga2Si
_chemical_formula_sum   'Ho3 Mn3 Ga2 Si1'
_cell_volume   172.11477681
_cell_formula_units_Z   1
loop_
 _symmetry_equiv_pos_site_id
 _symmetry_equiv_pos_as_xyz
  1  'x, y, z'
loop_
 _atom_site_type_symbol
 _atom_site_label
 _atom_site_symmetry_multiplicity
 _atom_site_fract_x
 _atom_site_fract_y
 _atom_site_fract_z
 _atom_site_occupancy
  Ho  Ho0  1  0.00411800  0.42658300  0.50000000  1
  Ho  Ho1  1  0.57341700  0.57753400  0.50000000  1
  Ho  Ho2  1  0.42246600  0.99588200  0.50000000  1
  Mn  Mn0  1  0.01085500  0.77276200  0.00000000  1
  Mn  Mn1  1  0.22723800  0.23809300  0.00000000  1
  Mn  Mn2  1  0.76190700  0.98914500  0.00000000  1
  Ga  Ga0  1  0.00000000  0.00000000  0.50000000  1
  Ga  Ga1  1  0.66666700  0.33333300  0.00000000  1
  Si  Si0  1  0.33333300  0.66666700  0.00000000  1
loop_
_geom_bond_atom_site_label_1
_geom_bond_atom_site_label_2
_geom_bond_distance
_geom_bond_site_symmetry_2
Ho0 Si0 2.909649 1_556
Ho0 Si0 2.909649 1_555
Ho0 Mn0 3.151462 1_556
Ho0 Mn0 3.151462 1_555
Ho0 Mn1 3.225250 1_555
Ho0 Mn1 3.225250 1_556
Ho0 Mn2 3.347070 1_445
Ho0 Mn2 3.347070 1_446
Ho1 Si0 2.909655 1_556
Ho1 Si0 2.909655 1_555
Ho1 Mn1 3.151460 1_555
Ho1 Mn1 3.151460 1_556
Ho1 Mn2 3.225255 1_555
Ho1 Mn2 3.225255 1_556
Ho1 Mn0 3.347070 1_655
Ho1 Mn0 3.347070 1_656
Ho2 Si0 2.909646 1_556
Ho2 Si0 2.909646 1_555
Ho2 Mn2 3.151457 1_555
Ho2 Mn2 3.151457 1_556
Ho2 Mn0 3.225255 1_556
Ho2 Mn0 3.225255 1_555
Ho2 Mn1 3.347074 1_566
Ho2 Mn1 3.347074 1_565
Mn0 Si0 2.676931 1_555
Mn0 Mn2 2.792669 1_455
Mn0 Mn1 2.792669 1_565
Mn1 Si0 2.676938 1_555
Mn1 Mn2 2.792669 1_445
Mn2 Si0 2.676937 1_555
Ga0 Mn0 2.625885 1_545
Ga0 Mn0 2.625885 1_546
Ga0 Mn2 2.625885 1_446
Ga0 Mn2 2.625885 1_445
Ga0 Mn1 2.625886 1_555
Ga0 Mn1 2.625886 1_556
Ga0 Ho0 2.939613 1_555
Ga0 Ho1 2.939617 1_445
Ga0 Ho2 2.939620 1_545
Ga1 Mn2 2.772437 1_545
Ga1 Mn0 2.772442 1_655
Ga1 Mn1 2.772444 1_555
Ga1 Ho1 2.943380 1_554
Ga1 Ho1 2.943380 1_555
Ga1 Ho0 2.943380 1_655
Ga1 Ho0 2.943380 1_654
Ga1 Ho2 2.943380 1_545
Ga1 Ho2 2.943380 1_544
