# generated using pymatgen
data_Pm2Se3
_symmetry_space_group_name_H-M   'P 1'
_cell_length_a   4.14222663
_cell_length_b   11.15556057
_cell_length_c   11.41260667
_cell_angle_alpha   90.00000000
_cell_angle_beta   90.00000000
_cell_angle_gamma   90.00000000
_symmetry_Int_Tables_number   1
_chemical_formula_structural   Pm2Se3
_chemical_formula_sum   'Pm8 Se12'
_cell_volume   527.36354460
_cell_formula_units_Z   4
loop_
 _symmetry_equiv_pos_site_id
 _symmetry_equiv_pos_as_xyz
  1  'x, y, z'
loop_
 _atom_site_type_symbol
 _atom_site_label
 _atom_site_symmetry_multiplicity
 _atom_site_fract_x
 _atom_site_fract_y
 _atom_site_fract_z
 _atom_site_occupancy
  Pm  Pm0  1  0.25000000  0.99696320  0.69327434  1
  Pm  Pm1  1  0.75000000  0.00303680  0.30672566  1
  Pm  Pm2  1  0.75000000  0.49696320  0.80672566  1
  Pm  Pm3  1  0.25000000  0.50303680  0.19327434  1
  Pm  Pm4  1  0.25000000  0.31294223  0.51135517  1
  Pm  Pm5  1  0.75000000  0.68705777  0.48864483  1
  Pm  Pm6  1  0.75000000  0.81294223  0.98864483  1
  Pm  Pm7  1  0.25000000  0.18705777  0.01135517  1
  Se  Se0  1  0.75000000  0.05568677  0.88025463  1
  Se  Se1  1  0.25000000  0.94431323  0.11974537  1
  Se  Se2  1  0.25000000  0.55568677  0.61974537  1
  Se  Se3  1  0.75000000  0.44431323  0.38025463  1
  Se  Se4  1  0.25000000  0.87424116  0.45457716  1
  Se  Se5  1  0.75000000  0.12575884  0.54542284  1
  Se  Se6  1  0.75000000  0.37424116  0.04542284  1
  Se  Se7  1  0.25000000  0.62575884  0.95457716  1
  Se  Se8  1  0.25000000  0.30197875  0.77244526  1
  Se  Se9  1  0.75000000  0.69802125  0.22755474  1
  Se  Se10  1  0.75000000  0.80197875  0.72755474  1
  Se  Se11  1  0.25000000  0.19802125  0.27244526  1
loop_
_geom_bond_atom_site_label_1
_geom_bond_atom_site_label_2
_geom_bond_distance
_geom_bond_site_symmetry_2
Pm0 Se10 3.028844 1_555
Pm0 Se10 3.028844 1_455
Pm0 Se5 3.033330 1_465
Pm0 Se5 3.033330 1_565
Pm0 Se0 3.045050 1_565
Pm0 Se0 3.045050 1_465
Pm0 Se4 3.048817 1_555
Pm0 Se8 3.520542 1_565
Pm1 Se11 3.028844 1_555
Pm1 Se11 3.028844 1_655
Pm1 Se4 3.033330 1_645
Pm1 Se4 3.033330 1_545
Pm1 Se1 3.045050 1_645
Pm1 Se1 3.045050 1_545
Pm1 Se5 3.048817 1_555
Pm1 Se9 3.520542 1_545
Pm2 Se8 3.028844 1_655
Pm2 Se8 3.028844 1_555
Pm2 Se7 3.033330 1_655
Pm2 Se7 3.033330 1_555
Pm2 Se2 3.045050 1_655
Pm2 Se2 3.045050 1_555
Pm2 Se6 3.048817 1_556
Pm2 Se10 3.520542 1_555
Pm3 Se9 3.028844 1_555
Pm3 Se9 3.028844 1_455
Pm3 Se6 3.033330 1_555
Pm3 Se6 3.033330 1_455
Pm3 Se3 3.045050 1_555
Pm3 Se3 3.045050 1_455
Pm3 Se7 3.048817 1_554
Pm3 Se11 3.520542 1_555
Pm4 Se3 2.945482 1_555
Pm4 Se3 2.945482 1_455
Pm4 Se5 2.966646 1_555
Pm4 Se5 2.966646 1_455
Pm4 Se2 2.977114 1_555
Pm4 Se8 2.982227 1_555
Pm4 Se11 3.012940 1_555
Pm5 Se2 2.945482 1_555
Pm5 Se2 2.945482 1_655
Pm5 Se4 2.966646 1_655
Pm5 Se4 2.966646 1_555
Pm5 Se3 2.977114 1_555
Pm5 Se9 2.982227 1_555
Pm5 Se10 3.012940 1_555
Pm6 Se1 2.945482 1_556
Pm6 Se1 2.945482 1_656
Pm6 Se7 2.966646 1_655
Pm6 Se7 2.966646 1_555
Pm6 Se0 2.977114 1_565
Pm6 Se10 2.982227 1_555
Pm6 Se9 3.012940 1_556
Pm7 Se0 2.945482 1_554
Pm7 Se0 2.945482 1_454
Pm7 Se6 2.966646 1_555
Pm7 Se6 2.966646 1_455
Pm7 Se1 2.977114 1_545
Pm7 Se11 2.982227 1_555
Pm7 Se8 3.012940 1_554
