# generated using pymatgen
data_Mg6AlB
_symmetry_space_group_name_H-M   'P 1'
_cell_length_a   4.74650200
_cell_length_b   6.21012700
_cell_length_c   10.47104500
_cell_angle_alpha   90.00000000
_cell_angle_beta   90.00000000
_cell_angle_gamma   90.00000000
_symmetry_Int_Tables_number   1
_chemical_formula_structural   Mg6AlB
_chemical_formula_sum   'Mg12 Al2 B2'
_cell_volume   308.64850378
_cell_formula_units_Z   2
loop_
 _symmetry_equiv_pos_site_id
 _symmetry_equiv_pos_as_xyz
  1  'x, y, z'
loop_
 _atom_site_type_symbol
 _atom_site_label
 _atom_site_symmetry_multiplicity
 _atom_site_fract_x
 _atom_site_fract_y
 _atom_site_fract_z
 _atom_site_occupancy
  Mg  Mg0  1  0.50000000  0.24988100  0.58368100  1
  Mg  Mg1  1  0.50000000  0.75011900  0.58368100  1
  Mg  Mg2  1  0.00000000  0.24239200  0.41153700  1
  Mg  Mg3  1  0.00000000  0.75760800  0.41153700  1
  Mg  Mg4  1  0.00000000  0.00000000  0.66935300  1
  Mg  Mg5  1  0.00000000  0.00000000  0.17445200  1
  Mg  Mg6  1  0.50000000  0.74988100  0.08368100  1
  Mg  Mg7  1  0.50000000  0.25011900  0.08368100  1
  Mg  Mg8  1  0.00000000  0.74239200  0.91153700  1
  Mg  Mg9  1  0.00000000  0.25760800  0.91153700  1
  Mg  Mg10  1  0.00000000  0.50000000  0.16935300  1
  Mg  Mg11  1  0.00000000  0.50000000  0.67445200  1
  Al  Al0  1  0.50000000  0.00000000  0.83316200  1
  Al  Al1  1  0.50000000  0.50000000  0.33316200  1
  B  B0  1  0.50000000  0.00000000  0.33260100  1
  B  B1  1  0.50000000  0.50000000  0.83260100  1
loop_
_geom_bond_atom_site_label_1
_geom_bond_atom_site_label_2
_geom_bond_distance
_geom_bond_site_symmetry_2
Mg0 Mg4 2.974076 1_555
Mg0 Mg4 2.974076 1_655
Mg0 Mg2 2.980535 1_655
Mg0 Mg2 2.980535 1_555
Mg0 Mg11 2.991381 1_555
Mg0 Mg11 2.991381 1_655
Mg0 Mg1 3.103585 1_545
Mg0 Mg1 3.106542 1_555
Mg1 Mg4 2.974076 1_665
Mg1 Mg4 2.974076 1_565
Mg1 Mg3 2.980535 1_555
Mg1 Mg3 2.980535 1_655
Mg1 Mg11 2.991381 1_555
Mg1 Mg11 2.991381 1_655
Mg2 Mg5 2.903244 1_555
Mg2 Mg3 3.010570 1_545
Mg2 Mg4 3.090912 1_555
Mg2 Mg3 3.199557 1_555
Mg3 Mg5 2.903244 1_565
Mg3 Mg4 3.090912 1_565
Mg4 Mg9 2.998363 1_555
Mg4 Mg8 2.998363 1_545
Mg5 Mg7 2.991381 1_455
Mg5 Mg6 2.991381 1_545
Mg5 Mg7 2.991381 1_555
Mg5 Mg6 2.991381 1_445
Mg5 Mg9 3.184065 1_554
Mg5 Mg8 3.184065 1_544
Mg6 Mg8 2.980535 1_654
Mg6 Mg8 2.980535 1_554
Mg6 Mg7 3.103585 1_555
Mg6 Mg7 3.106542 1_565
Mg7 Mg9 2.980535 1_554
Mg7 Mg9 2.980535 1_654
Mg8 Mg9 3.010570 1_555
Mg8 Mg9 3.199557 1_565
Mg10 Mg7 2.974076 1_455
Mg10 Mg7 2.974076 1_555
Mg10 Mg6 2.974076 1_455
Mg10 Mg6 2.974076 1_555
Mg10 Mg2 2.998363 1_555
Mg10 Mg3 2.998363 1_555
Mg10 Mg8 3.090912 1_554
Mg10 Mg9 3.090912 1_554
Mg10 Mg5 3.105523 1_565
Mg10 Mg5 3.105523 1_555
Mg11 Mg8 2.903244 1_555
Mg11 Mg9 2.903244 1_555
Mg11 Mg4 3.105523 1_565
Mg11 Mg4 3.105523 1_555
Mg11 Mg3 3.184065 1_555
Mg11 Mg2 3.184065 1_555
Al0 Mg4 2.928209 1_555
Al0 Mg4 2.928209 1_655
Al0 Mg9 2.977433 1_655
Al0 Mg9 2.977433 1_555
Al0 Mg8 2.977433 1_645
Al0 Mg8 2.977433 1_545
Al0 Mg1 3.038472 1_545
Al0 Mg0 3.038472 1_555
Al0 Mg6 3.048574 1_546
Al0 Mg7 3.048574 1_556
Al1 Mg10 2.928209 1_655
Al1 Mg10 2.928209 1_555
Al1 Mg3 2.977433 1_555
Al1 Mg2 2.977433 1_655
Al1 Mg3 2.977433 1_655
Al1 Mg2 2.977433 1_555
Al1 Mg7 3.038472 1_555
Al1 Mg6 3.038472 1_555
Al1 Mg0 3.048574 1_555
Al1 Mg1 3.048574 1_555
B0 Mg5 2.893891 1_655
B0 Mg5 2.893891 1_555
B0 Mg2 2.929399 1_555
B0 Mg2 2.929399 1_655
B0 Mg3 2.929399 1_545
B0 Mg3 2.929399 1_645
B0 Mg6 3.034179 1_545
B0 Mg7 3.034179 1_555
B0 Mg1 3.052879 1_545
B0 Mg0 3.052879 1_555
B1 Mg11 2.893891 1_555
B1 Mg11 2.893891 1_655
B1 Mg8 2.929399 1_655
B1 Mg8 2.929399 1_555
B1 Mg9 2.929399 1_655
B1 Mg9 2.929399 1_555
B1 Mg1 3.034179 1_555
B1 Mg0 3.034179 1_555
B1 Mg7 3.052879 1_556
B1 Mg6 3.052879 1_556
