# generated using pymatgen
data_Mg2TaMnO6
_symmetry_space_group_name_H-M   'P 1'
_cell_length_a   5.23413861
_cell_length_b   10.99185954
_cell_length_c   7.52116400
_cell_angle_alpha   90.00081327
_cell_angle_beta   90.00011008
_cell_angle_gamma   85.20313701
_symmetry_Int_Tables_number   1
_chemical_formula_structural   Mg2TaMnO6
_chemical_formula_sum   'Mg8 Ta4 Mn4 O24'
_cell_volume   431.19889105
_cell_formula_units_Z   4
loop_
 _symmetry_equiv_pos_site_id
 _symmetry_equiv_pos_as_xyz
  1  'x, y, z'
loop_
 _atom_site_type_symbol
 _atom_site_label
 _atom_site_symmetry_multiplicity
 _atom_site_fract_x
 _atom_site_fract_y
 _atom_site_fract_z
 _atom_site_occupancy
  Mg  Mg0  1  0.01993900  0.47450200  0.25005100  1
  Mg  Mg1  1  0.01990200  0.97448400  0.24998800  1
  Mg  Mg2  1  0.98007700  0.02549900  0.74998700  1
  Mg  Mg3  1  0.98011100  0.52552700  0.75005800  1
  Mg  Mg4  1  0.50039100  0.21867100  0.25004000  1
  Mg  Mg5  1  0.50037600  0.71863500  0.24997000  1
  Mg  Mg6  1  0.49961100  0.28132300  0.74996600  1
  Mg  Mg7  1  0.49965700  0.78136000  0.75003700  1
  Ta  Ta0  1  0.99996600  0.25001200  0.00000800  1
  Ta  Ta1  1  0.99998500  0.75002500  0.00002800  1
  Ta  Ta2  1  0.00008600  0.24997000  0.50001900  1
  Ta  Ta3  1  0.00010400  0.74997900  0.50000000  1
  Mn  Mn0  1  0.49983000  0.49991500  0.99988400  1
  Mn  Mn1  1  0.50025000  0.49996600  0.50005200  1
  Mn  Mn2  1  0.49972300  0.00014900  0.00002900  1
  Mn  Mn3  1  0.50006600  0.99993500  0.49978800  1
  O  O0  1  0.13774400  0.22290700  0.74999200  1
  O  O1  1  0.13775900  0.72294900  0.75006900  1
  O  O2  1  0.86231800  0.27706700  0.25007100  1
  O  O3  1  0.86228600  0.77703900  0.24999100  1
  O  O4  1  0.62968100  0.03383500  0.24995900  1
  O  O5  1  0.62972600  0.53379700  0.24997400  1
  O  O6  1  0.37030100  0.46616000  0.74998000  1
  O  O7  1  0.37029000  0.96620300  0.74996300  1
  O  O8  1  0.82335800  0.41161800  0.56418100  1
  O  O9  1  0.82334300  0.91158200  0.56421400  1
  O  O10  1  0.17666800  0.08844300  0.43578200  1
  O  O11  1  0.17667700  0.58848200  0.43571900  1
  O  O12  1  0.82327700  0.41157000  0.93575400  1
  O  O13  1  0.82320300  0.91160200  0.93583700  1
  O  O14  1  0.17651200  0.08845600  0.06425900  1
  O  O15  1  0.17659500  0.58841600  0.06418400  1
  O  O16  1  0.30214500  0.33303000  0.42926600  1
  O  O17  1  0.30216400  0.83304600  0.42922300  1
  O  O18  1  0.69786600  0.16694600  0.92925900  1
  O  O19  1  0.69791000  0.66694300  0.92927200  1
  O  O20  1  0.69803900  0.16691500  0.57076200  1
  O  O21  1  0.69805000  0.66690700  0.57079400  1
  O  O22  1  0.30202100  0.33306500  0.07079500  1
  O  O23  1  0.30199300  0.83307000  0.07079500  1
loop_
_geom_bond_atom_site_label_1
_geom_bond_atom_site_label_2
_geom_bond_distance
_geom_bond_site_symmetry_2
Mg0 O11 2.089154 1_555
Mg0 O15 2.089532 1_555
Mg0 O5 2.091333 1_455
Mg0 O2 2.385321 1_455
Mg0 O22 2.455730 1_555
Mg0 O16 2.456162 1_555
Mg0 O8 2.690254 1_455
Mg0 O12 2.691660 1_454
Mg1 O14 2.089135 1_565
Mg1 O10 2.089707 1_565
Mg1 O4 2.091515 1_465
Mg1 O3 2.385413 1_455
Mg1 O23 2.455349 1_555
Mg1 O17 2.456188 1_555
Mg1 O13 2.690615 1_454
Mg1 O9 2.690899 1_455
Mg2 O9 2.089235 1_545
Mg2 O13 2.089834 1_545
Mg2 O7 2.091336 1_645
Mg2 O0 2.385144 1_655
Mg2 O20 2.455363 1_555
Mg2 O18 2.456231 1_555
Mg2 O10 2.690961 1_655
Mg2 O14 2.691095 1_656
Mg3 O12 2.089383 1_555
Mg3 O8 2.089747 1_555
Mg3 O6 2.091401 1_655
Mg3 O1 2.385246 1_655
Mg3 O21 2.455359 1_555
Mg3 O19 2.455764 1_555
Mg3 O15 2.690018 1_656
Mg3 O11 2.691829 1_655
Mg4 O2 2.050375 1_555
Mg4 O16 2.062932 1_555
Mg4 O22 2.063558 1_555
Mg4 O4 2.087050 1_555
Mg4 O18 2.667237 1_554
Mg4 O20 2.667244 1_555
Mg5 O3 2.050325 1_555
Mg5 O17 2.063309 1_555
Mg5 O23 2.063500 1_555
Mg5 O5 2.087147 1_555
Mg5 O19 2.666721 1_554
Mg5 O21 2.667932 1_555
Mg6 O0 2.050162 1_555
Mg6 O18 2.063416 1_555
Mg6 O20 2.063560 1_555
Mg6 O6 2.087086 1_555
Mg6 O16 2.666644 1_555
Mg6 O22 2.667820 1_556
Mg7 O1 2.050295 1_555
Mg7 O19 2.063375 1_555
Mg7 O21 2.063950 1_555
Mg7 O7 2.087221 1_555
Mg7 O23 2.667417 1_556
Mg7 O17 2.667430 1_555
Mn0 O12 1.940826 1_555
Mn0 O15 1.940956 1_556
Mn0 O6 2.042581 1_555
Mn0 O5 2.044828 1_556
Mn0 O22 2.244447 1_556
Mn0 O19 2.246340 1_555
Mn1 O8 1.939370 1_555
Mn1 O11 1.942562 1_555
Mn1 O6 2.043640 1_555
Mn1 O5 2.043876 1_555
Mn1 O21 2.244964 1_555
Mn1 O16 2.245841 1_555
Mn2 O14 1.939809 1_555
Mn2 O13 1.942035 1_544
Mn2 O4 2.043382 1_555
Mn2 O7 2.043968 1_544
Mn2 O18 2.244624 1_554
Mn2 O23 2.246124 1_545
Mn3 O9 1.940684 1_555
Mn3 O10 1.941153 1_565
Mn3 O4 2.042565 1_565
Mn3 O7 2.044864 1_555
Mn3 O17 2.244442 1_555
Mn3 O20 2.246224 1_565
O0 Ta2 2.026459 1_555
O0 Ta0 2.027023 1_456
O1 Ta1 2.026581 1_456
O1 Ta3 2.027081 1_555
O2 Ta2 2.026526 1_655
O2 Ta0 2.027053 1_555
O3 Ta1 2.026394 1_555
O3 Ta3 2.026994 1_655
O8 Ta2 1.992659 1_655
O9 Ta3 1.992400 1_655
O10 Ta2 1.991364 1_555
O11 Ta3 1.991145 1_555
O12 Ta0 1.991915 1_556
O13 Ta1 1.992168 1_556
O14 Ta0 1.991599 1_455
O15 Ta1 1.992054 1_455
O16 Ta2 1.964120 1_555
O17 Ta3 1.964214 1_555
O18 Ta0 1.964319 1_556
O19 Ta1 1.964316 1_556
O20 Ta2 1.964017 1_655
O21 Ta3 1.964251 1_655
O22 Ta0 1.964122 1_455
O23 Ta1 1.963827 1_455
