# generated using pymatgen
data_Rb3TmV2O8
_symmetry_space_group_name_H-M   'P 1'
_cell_length_a   6.03389941
_cell_length_b   6.03389941
_cell_length_c   7.88732600
_cell_angle_alpha   90.00000000
_cell_angle_beta   90.00000000
_cell_angle_gamma   119.99999351
_symmetry_Int_Tables_number   1
_chemical_formula_structural   Rb3TmV2O8
_chemical_formula_sum   'Rb3 Tm1 V2 O8'
_cell_volume   248.68900402
_cell_formula_units_Z   1
loop_
 _symmetry_equiv_pos_site_id
 _symmetry_equiv_pos_as_xyz
  1  'x, y, z'
loop_
 _atom_site_type_symbol
 _atom_site_label
 _atom_site_symmetry_multiplicity
 _atom_site_fract_x
 _atom_site_fract_y
 _atom_site_fract_z
 _atom_site_occupancy
  Rb  Rb0  1  0.66666700  0.33333300  0.30686200  1
  Rb  Rb1  1  0.33333300  0.66666700  0.69313800  1
  Rb  Rb2  1  0.00000000  0.00000000  0.00000000  1
  Tm  Tm0  1  0.00000000  0.00000000  0.50000000  1
  V  V0  1  0.66666700  0.33333300  0.74380100  1
  V  V1  1  0.33333300  0.66666700  0.25619900  1
  O  O0  1  0.66666700  0.33333300  0.95734900  1
  O  O1  1  0.33333300  0.66666700  0.04265100  1
  O  O2  1  0.82585000  0.65169900  0.66684600  1
  O  O3  1  0.17415000  0.34830100  0.33315400  1
  O  O4  1  0.82585000  0.17415000  0.66684600  1
  O  O5  1  0.17415000  0.82585000  0.33315400  1
  O  O6  1  0.34830100  0.17415000  0.66684600  1
  O  O7  1  0.65169900  0.82585000  0.33315400  1
loop_
_geom_bond_atom_site_label_1
_geom_bond_atom_site_label_2
_geom_bond_distance
_geom_bond_site_symmetry_2
O0 V0 1.684323 1_555
O0 Rb0 2.756723 1_556
O0 Rb2 3.499875 1_656
O0 Rb2 3.499880 1_666
O0 Rb2 3.499880 1_556
O1 V1 1.684323 1_555
O1 Rb1 2.756723 1_554
O1 Rb2 3.499875 1_565
O1 Rb2 3.499880 1_665
O1 Rb2 3.499880 1_555
O2 V0 1.770892 1_555
O2 Tm0 2.245965 1_665
O2 Rb1 3.025074 1_655
O2 Rb1 3.025086 1_555
O2 Rb2 3.196461 1_666
O2 Rb0 3.290796 1_555
O3 V1 1.770892 1_555
O3 Tm0 2.245965 1_555
O3 Rb0 3.025074 1_455
O3 Rb0 3.025086 1_555
O3 Rb2 3.196461 1_555
O3 Rb1 3.290796 1_555
O4 V0 1.770892 1_555
O4 Tm0 2.245960 1_655
O4 Rb1 3.025080 1_655
O4 Rb1 3.025080 1_545
O4 Rb2 3.196458 1_656
O4 Rb0 3.290796 1_555
O5 V1 1.770892 1_555
O5 Tm0 2.245960 1_565
O5 Rb0 3.025080 1_565
O5 Rb0 3.025080 1_455
O5 Rb2 3.196458 1_565
O5 Rb1 3.290796 1_555
O6 V0 1.770892 1_555
O6 Tm0 2.245965 1_555
O6 Rb1 3.025074 1_545
O6 Rb1 3.025086 1_555
O6 Rb2 3.196461 1_556
O6 Rb0 3.290796 1_555
O7 V1 1.770892 1_555
O7 Tm0 2.245965 1_665
O7 Rb0 3.025074 1_565
O7 Rb0 3.025086 1_555
O7 Rb2 3.196461 1_665
O7 Rb1 3.290796 1_555
