# generated using pymatgen
data_U3(Al3Co)4
_symmetry_space_group_name_H-M   'P 1'
_cell_length_a   8.57145184
_cell_length_b   8.57145184
_cell_length_c   9.32295600
_cell_angle_alpha   90.00000000
_cell_angle_beta   90.00000000
_cell_angle_gamma   119.99999880
_symmetry_Int_Tables_number   1
_chemical_formula_structural   U3(Al3Co)4
_chemical_formula_sum   'U6 Al24 Co8'
_cell_volume   593.18894768
_cell_formula_units_Z   2
loop_
 _symmetry_equiv_pos_site_id
 _symmetry_equiv_pos_as_xyz
  1  'x, y, z'
loop_
 _atom_site_type_symbol
 _atom_site_label
 _atom_site_symmetry_multiplicity
 _atom_site_fract_x
 _atom_site_fract_y
 _atom_site_fract_z
 _atom_site_occupancy
  U  U0  1  0.79324300  0.20675700  0.75000000  1
  U  U1  1  0.20675700  0.79324300  0.25000000  1
  U  U2  1  0.41351400  0.20675700  0.75000000  1
  U  U3  1  0.58648600  0.79324300  0.25000000  1
  U  U4  1  0.79324300  0.58648600  0.75000000  1
  U  U5  1  0.20675700  0.41351400  0.25000000  1
  Al  Al0  1  0.44010000  0.55990000  0.75000000  1
  Al  Al1  1  0.55990000  0.44010000  0.25000000  1
  Al  Al2  1  0.11980100  0.55990000  0.75000000  1
  Al  Al3  1  0.88019900  0.44010000  0.25000000  1
  Al  Al4  1  0.44010000  0.88019900  0.75000000  1
  Al  Al5  1  0.55990000  0.11980100  0.25000000  1
  Al  Al6  1  0.84053600  0.15946400  0.42178100  1
  Al  Al7  1  0.15946400  0.84053600  0.57821900  1
  Al  Al8  1  0.31892800  0.15946400  0.42178100  1
  Al  Al9  1  0.15946400  0.84053600  0.92178100  1
  Al  Al10  1  0.68107200  0.84053600  0.57821900  1
  Al  Al11  1  0.84053600  0.15946400  0.07821900  1
  Al  Al12  1  0.84053600  0.68107200  0.42178100  1
  Al  Al13  1  0.68107200  0.84053600  0.92178100  1
  Al  Al14  1  0.15946400  0.31892800  0.57821900  1
  Al  Al15  1  0.31892800  0.15946400  0.07821900  1
  Al  Al16  1  0.15946400  0.31892800  0.92178100  1
  Al  Al17  1  0.84053600  0.68107200  0.07821900  1
  Al  Al18  1  0.66666700  0.33333300  0.99557000  1
  Al  Al19  1  0.33333300  0.66666700  0.00443000  1
  Al  Al20  1  0.33333300  0.66666700  0.49557000  1
  Al  Al21  1  0.66666700  0.33333300  0.50443000  1
  Al  Al22  1  0.00000000  0.00000000  0.75000000  1
  Al  Al23  1  0.00000000  0.00000000  0.25000000  1
  Co  Co0  1  0.50000000  0.50000000  0.00000000  1
  Co  Co1  1  0.00000000  0.50000000  0.00000000  1
  Co  Co2  1  0.50000000  0.50000000  0.50000000  1
  Co  Co3  1  0.50000000  0.00000000  0.00000000  1
  Co  Co4  1  0.00000000  0.50000000  0.50000000  1
  Co  Co5  1  0.50000000  0.00000000  0.50000000  1
  Co  Co6  1  0.00000000  0.00000000  0.00000000  1
  Co  Co7  1  0.00000000  0.00000000  0.50000000  1
loop_
_geom_bond_atom_site_label_1
_geom_bond_atom_site_label_2
_geom_bond_distance
_geom_bond_site_symmetry_2
U0 U4 3.254829 1_555
U0 U2 3.254829 1_555
U1 U3 3.254829 1_555
U1 U5 3.254829 1_555
U2 U4 3.254829 1_555
U3 U5 3.254829 1_555
Al0 Co2 2.494629 1_555
Al0 Co0 2.494629 1_556
Al0 Al4 2.745427 1_555
Al0 Al2 2.745427 1_555
Al0 Al14 2.765653 1_555
Al0 Al16 2.765653 1_555
Al0 Al13 2.765653 1_555
Al0 Al10 2.765653 1_555
Al0 Al19 2.852904 1_556
Al0 Al20 2.852904 1_555
Al0 U2 2.919685 1_555
Al0 U4 2.919685 1_555
Al1 Co2 2.494629 1_555
Al1 Co0 2.494629 1_555
Al1 Al5 2.745427 1_555
Al1 Al3 2.745427 1_555
Al1 Al17 2.765653 1_555
Al1 Al12 2.765653 1_555
Al1 Al15 2.765653 1_555
Al1 Al8 2.765653 1_555
Al1 Al21 2.852904 1_555
Al1 Al18 2.852904 1_554
Al1 U5 2.919685 1_555
Al1 U3 2.919685 1_555
Al2 Co1 2.494632 1_556
Al2 Co4 2.494632 1_555
Al2 Al4 2.745428 1_555
Al2 Al7 2.765655 1_555
Al2 Al9 2.765655 1_555
Al2 Al20 2.852896 1_555
Al2 U0 2.919689 1_455
Al2 U4 2.919694 1_455
Al3 Co1 2.494632 1_655
Al3 Co4 2.494632 1_655
Al3 Al5 2.745428 1_555
Al3 Al6 2.765655 1_555
Al3 U1 2.919689 1_655
Al3 U5 2.919694 1_655
Al4 Co3 2.494632 1_566
Al4 Co5 2.494632 1_565
Al4 Al7 2.765655 1_555
Al4 Al9 2.765655 1_555
Al4 U0 2.919689 1_565
Al4 U2 2.919694 1_565
Al5 Co5 2.494632 1_555
Al5 Co3 2.494632 1_555
Al5 Al8 2.765648 1_555
Al5 Al6 2.765655 1_555
Al5 U1 2.919689 1_545
Al5 U3 2.919694 1_545
Al6 Co7 2.477200 1_655
Al6 Co5 2.632544 1_555
Al6 Co4 2.632544 1_655
Al6 U0 3.139490 1_555
Al6 U3 3.213216 1_545
Al6 U5 3.213216 1_655
Al7 Co7 2.477200 1_565
Al7 Co4 2.632544 1_555
Al7 Co5 2.632544 1_565
Al7 U1 3.139490 1_555
Al7 U4 3.213216 1_455
Al7 U2 3.213216 1_565
Al8 Co7 2.477200 1_555
Al8 Co5 2.632544 1_555
Al8 Co2 2.632544 1_555
Al8 U2 3.139490 1_555
Al8 U5 3.213216 1_555
Al8 U1 3.213216 1_545
Al9 Co6 2.477200 1_566
Al9 Co1 2.632544 1_556
Al9 Co3 2.632544 1_566
Al9 U1 3.139490 1_556
Al9 U4 3.213216 1_455
Al9 U2 3.213216 1_565
Al10 Co7 2.477200 1_665
Al10 Co5 2.632544 1_565
Al10 Co2 2.632544 1_555
Al10 Al4 2.765648 1_555
Al10 U3 3.139490 1_555
Al10 U4 3.213216 1_555
Al10 U0 3.213216 1_565
Al11 Co6 2.477200 1_655
Al11 Co3 2.632544 1_555
Al11 Co1 2.632544 1_655
Al11 Al3 2.765655 1_555
Al11 Al5 2.765655 1_555
Al11 U0 3.139490 1_554
Al11 U3 3.213216 1_545
Al11 U5 3.213216 1_655
Al12 Co7 2.477200 1_665
Al12 Co4 2.632544 1_655
Al12 Co2 2.632544 1_555
Al12 Al3 2.765648 1_555
Al12 U4 3.139490 1_555
Al12 U3 3.213216 1_555
Al12 U1 3.213216 1_655
Al13 Co6 2.477200 1_666
Al13 Co3 2.632544 1_566
Al13 Co0 2.632544 1_556
Al13 Al4 2.765648 1_555
Al13 U3 3.139490 1_556
Al13 U4 3.213216 1_555
Al13 U0 3.213216 1_565
Al14 Co7 2.477200 1_555
Al14 Co4 2.632544 1_555
Al14 Co2 2.632544 1_555
Al14 Al2 2.765648 1_555
Al14 U5 3.139490 1_555
Al14 U2 3.213216 1_555
Al14 U0 3.213216 1_455
Al15 Co6 2.477200 1_555
Al15 Co3 2.632544 1_555
Al15 Co0 2.632544 1_555
Al15 Al5 2.765648 1_555
Al15 U2 3.139490 1_554
Al15 U5 3.213216 1_555
Al15 U1 3.213216 1_545
Al16 Co6 2.477200 1_556
Al16 Co1 2.632544 1_556
Al16 Co0 2.632544 1_556
Al16 Al2 2.765648 1_555
Al16 U5 3.139490 1_556
Al16 U2 3.213216 1_555
Al16 U0 3.213216 1_455
Al17 Co6 2.477200 1_665
Al17 Co1 2.632544 1_655
Al17 Co0 2.632544 1_555
Al17 Al3 2.765648 1_555
Al17 U4 3.139490 1_554
Al17 U3 3.213216 1_555
Al17 U1 3.213216 1_655
Al18 Co1 2.474707 1_656
Al18 Co3 2.474707 1_556
Al18 Co0 2.474715 1_556
Al18 Al3 2.852896 1_556
Al18 Al5 2.852896 1_556
Al18 U0 2.961893 1_555
Al18 U4 2.961898 1_555
Al18 U2 2.961898 1_555
Al19 Co3 2.474707 1_565
Al19 Co1 2.474707 1_555
Al19 Co0 2.474715 1_555
Al19 Al4 2.852896 1_554
Al19 Al2 2.852896 1_554
Al19 U1 2.961893 1_555
Al19 U3 2.961898 1_555
Al19 U5 2.961898 1_555
Al20 Co4 2.474707 1_555
Al20 Co5 2.474707 1_565
Al20 Co2 2.474715 1_555
Al20 Al4 2.852896 1_555
Al20 U1 2.961893 1_555
Al20 U3 2.961898 1_555
Al20 U5 2.961898 1_555
Al21 Co5 2.474707 1_555
Al21 Co4 2.474707 1_655
Al21 Co2 2.474715 1_555
Al21 Al3 2.852896 1_555
Al21 Al5 2.852896 1_555
Al21 U0 2.961893 1_555
Al21 U4 2.961898 1_555
Al21 U2 2.961898 1_555
Al22 Co6 2.330739 1_556
Al22 Co7 2.330739 1_555
Al22 U0 3.069554 1_455
Al22 U2 3.069554 1_555
Al22 U4 3.069554 1_445
Al23 Co7 2.330739 1_555
Al23 Co6 2.330739 1_555
Al23 U1 3.069554 1_545
Al23 U5 3.069554 1_555
Al23 U3 3.069554 1_445
Co0 U5 3.230536 1_555
Co0 U3 3.230536 1_555
Co0 U2 3.230536 1_554
Co0 U4 3.230536 1_554
Co1 U4 3.230536 1_454
Co1 U5 3.230536 1_555
Co1 U0 3.230536 1_454
Co1 U1 3.230536 1_555
Co2 U5 3.230536 1_555
Co2 U4 3.230536 1_555
Co2 U2 3.230536 1_555
Co2 U3 3.230536 1_555
Co3 U3 3.230536 1_545
Co3 U2 3.230536 1_554
Co3 U1 3.230536 1_545
Co3 U0 3.230536 1_554
Co4 U4 3.230536 1_455
Co4 U5 3.230536 1_555
Co4 U1 3.230536 1_555
Co4 U0 3.230536 1_455
Co5 U3 3.230536 1_545
Co5 U2 3.230536 1_555
Co5 U0 3.230536 1_555
Co5 U1 3.230536 1_545
