# generated using pymatgen
data_LiYMg14O16
_symmetry_space_group_name_H-M   'P 1'
_cell_length_a   8.63092100
_cell_length_b   8.63092100
_cell_length_c   4.32039200
_cell_angle_alpha   90.00000000
_cell_angle_beta   90.00000000
_cell_angle_gamma   90.00000000
_symmetry_Int_Tables_number   1
_chemical_formula_structural   LiYMg14O16
_chemical_formula_sum   'Li1 Y1 Mg14 O16'
_cell_volume   321.83808555
_cell_formula_units_Z   1
loop_
 _symmetry_equiv_pos_site_id
 _symmetry_equiv_pos_as_xyz
  1  'x, y, z'
loop_
 _atom_site_type_symbol
 _atom_site_label
 _atom_site_symmetry_multiplicity
 _atom_site_fract_x
 _atom_site_fract_y
 _atom_site_fract_z
 _atom_site_occupancy
  Li  Li0  1  0.50000000  0.50000000  0.00000000  1
  Y  Y0  1  0.00000000  0.00000000  0.00000000  1
  Mg  Mg0  1  0.50000000  0.00000000  0.00000000  1
  Mg  Mg1  1  0.00000000  0.50000000  0.00000000  1
  Mg  Mg2  1  0.26480900  0.00000000  0.50000000  1
  Mg  Mg3  1  0.73519100  0.00000000  0.50000000  1
  Mg  Mg4  1  0.25856800  0.50000000  0.50000000  1
  Mg  Mg5  1  0.74143200  0.50000000  0.50000000  1
  Mg  Mg6  1  0.00000000  0.26480900  0.50000000  1
  Mg  Mg7  1  0.50000000  0.25856800  0.50000000  1
  Mg  Mg8  1  0.00000000  0.73519100  0.50000000  1
  Mg  Mg9  1  0.50000000  0.74143200  0.50000000  1
  Mg  Mg10  1  0.26180500  0.26180500  0.00000000  1
  Mg  Mg11  1  0.73819500  0.26180500  0.00000000  1
  Mg  Mg12  1  0.26180500  0.73819500  0.00000000  1
  Mg  Mg13  1  0.73819500  0.73819500  0.00000000  1
  O  O0  1  0.00000000  0.25850600  0.00000000  1
  O  O1  1  0.50000000  0.24278200  0.00000000  1
  O  O2  1  0.00000000  0.74149400  0.00000000  1
  O  O3  1  0.50000000  0.75721800  0.00000000  1
  O  O4  1  0.24807400  0.24807400  0.50000000  1
  O  O5  1  0.75192600  0.24807400  0.50000000  1
  O  O6  1  0.24807400  0.75192600  0.50000000  1
  O  O7  1  0.75192600  0.75192600  0.50000000  1
  O  O8  1  0.00000000  0.00000000  0.50000000  1
  O  O9  1  0.50000000  0.00000000  0.50000000  1
  O  O10  1  0.00000000  0.50000000  0.50000000  1
  O  O11  1  0.50000000  0.50000000  0.50000000  1
  O  O12  1  0.25850600  0.00000000  0.00000000  1
  O  O13  1  0.74149400  0.00000000  0.00000000  1
  O  O14  1  0.24278200  0.50000000  0.00000000  1
  O  O15  1  0.75721800  0.50000000  0.00000000  1
loop_
_geom_bond_atom_site_label_1
_geom_bond_atom_site_label_2
_geom_bond_distance
_geom_bond_site_symmetry_2
Li0 O11 2.160196 1_554
Li0 O11 2.160196 1_555
Li0 O3 2.220028 1_555
Li0 O15 2.220028 1_555
Li0 O14 2.220028 1_555
Li0 O1 2.220028 1_555
Mg0 O13 2.084316 1_555
Mg0 O12 2.084316 1_555
Mg0 O1 2.095432 1_555
Mg0 O3 2.095432 1_545
Mg0 O9 2.160196 1_554
Mg0 O9 2.160196 1_555
Mg1 O2 2.084316 1_555
Mg1 O0 2.084316 1_555
Mg1 O14 2.095432 1_555
Mg1 O15 2.095432 1_455
Mg1 O10 2.160196 1_555
Mg1 O10 2.160196 1_554
Mg2 O9 2.029915 1_555
Mg2 O4 2.145973 1_555
Mg2 O6 2.145973 1_545
Mg2 O12 2.160881 1_555
Mg2 O12 2.160881 1_556
Mg2 O8 2.285546 1_555
Mg3 O9 2.029915 1_555
Mg3 O5 2.145973 1_555
Mg3 O7 2.145973 1_545
Mg3 O13 2.160881 1_555
Mg3 O13 2.160881 1_556
Mg3 O8 2.285546 1_655
Mg4 O11 2.083781 1_555
Mg4 O14 2.164488 1_555
Mg4 O14 2.164488 1_556
Mg4 O4 2.176239 1_555
Mg4 O6 2.176239 1_555
Mg4 O10 2.231680 1_555
Mg5 O11 2.083781 1_555
Mg5 O15 2.164488 1_556
Mg5 O15 2.164488 1_555
Mg5 O5 2.176239 1_555
Mg5 O7 2.176239 1_555
Mg5 O10 2.231680 1_655
Mg6 O10 2.029915 1_555
Mg6 O4 2.145973 1_555
Mg6 O5 2.145973 1_455
Mg6 O0 2.160881 1_555
Mg6 O0 2.160881 1_556
Mg6 O8 2.285546 1_555
Mg7 O11 2.083781 1_555
Mg7 O1 2.164488 1_556
Mg7 O1 2.164488 1_555
Mg7 O4 2.176239 1_555
Mg7 O5 2.176239 1_555
Mg7 O9 2.231680 1_555
Mg8 O10 2.029915 1_555
Mg8 O6 2.145973 1_555
Mg8 O7 2.145973 1_455
Mg8 O2 2.160881 1_555
Mg8 O2 2.160881 1_556
Mg8 O8 2.285546 1_565
Mg9 O11 2.083781 1_555
Mg9 O3 2.164488 1_556
Mg9 O3 2.164488 1_555
Mg9 O6 2.176239 1_555
Mg9 O7 2.176239 1_555
Mg9 O9 2.231680 1_565
Mg10 O1 2.062388 1_555
Mg10 O14 2.062388 1_555
Mg10 O4 2.166688 1_554
Mg10 O4 2.166688 1_555
Mg10 O12 2.259798 1_555
Mg10 O0 2.259798 1_555
Mg11 O15 2.062388 1_555
Mg11 O1 2.062388 1_555
Mg11 O5 2.166688 1_554
Mg11 O5 2.166688 1_555
Mg11 O0 2.259798 1_655
Mg11 O13 2.259798 1_555
Mg12 O3 2.062388 1_555
Mg12 O14 2.062388 1_555
Mg12 O6 2.166688 1_555
Mg12 O6 2.166688 1_554
Mg12 O12 2.259798 1_565
Mg12 O2 2.259798 1_555
Mg13 O3 2.062388 1_555
Mg13 O15 2.062388 1_555
Mg13 O7 2.166688 1_555
Mg13 O7 2.166688 1_554
Mg13 O2 2.259798 1_655
Mg13 O13 2.259798 1_565
O0 Y0 2.231145 1_555
O2 Y0 2.231145 1_565
O8 Y0 2.160196 1_555
O8 Y0 2.160196 1_556
O12 Y0 2.231145 1_555
O13 Y0 2.231145 1_655
