# generated using pymatgen
data_Sr2HfFeO6
_symmetry_space_group_name_H-M   'P 1'
_cell_length_a   5.70381955
_cell_length_b   9.81338468
_cell_length_c   5.66406099
_cell_angle_alpha   106.87375987
_cell_angle_beta   119.87597191
_cell_angle_gamma   73.21220912
_symmetry_Int_Tables_number   1
_chemical_formula_structural   Sr2HfFeO6
_chemical_formula_sum   'Sr4 Hf2 Fe2 O12'
_cell_volume   259.06547073
_cell_formula_units_Z   2
loop_
 _symmetry_equiv_pos_site_id
 _symmetry_equiv_pos_as_xyz
  1  'x, y, z'
loop_
 _atom_site_type_symbol
 _atom_site_label
 _atom_site_symmetry_multiplicity
 _atom_site_fract_x
 _atom_site_fract_y
 _atom_site_fract_z
 _atom_site_occupancy
  Sr  Sr0  1  0.61575200  0.12546700  0.37093600  1
  Sr  Sr1  1  0.13234700  0.62503900  0.87864200  1
  Sr  Sr2  1  0.86768900  0.37492400  0.12135300  1
  Sr  Sr3  1  0.38424700  0.87449500  0.62907100  1
  Hf  Hf0  1  0.23860700  0.25009000  0.74463300  1
  Hf  Hf1  1  0.76137000  0.74995700  0.25535600  1
  Fe  Fe0  1  0.50006300  0.50006000  0.49997900  1
  Fe  Fe1  1  0.99981100  0.00011900  0.99998000  1
  O  O0  1  0.59815600  0.11448900  0.85712200  1
  O  O1  1  0.16933000  0.63053800  0.39940600  1
  O  O2  1  0.83067600  0.36944100  0.60058300  1
  O  O3  1  0.40182500  0.88547500  0.14287800  1
  O  O4  1  0.34903700  0.38235400  0.11960300  1
  O  O5  1  0.90794400  0.87439900  0.65243000  1
  O  O6  1  0.09207900  0.12558300  0.34762700  1
  O  O7  1  0.65099500  0.61761300  0.88041900  1
  O  O8  1  0.09137200  0.12639300  0.87188000  1
  O  O9  1  0.65170300  0.61757000  0.38533900  1
  O  O10  1  0.34833900  0.38240200  0.61464900  1
  O  O11  1  0.90865800  0.87359300  0.12811400  1
loop_
_geom_bond_atom_site_label_1
_geom_bond_atom_site_label_2
_geom_bond_distance
_geom_bond_site_symmetry_2
Hf0 O0 1.999134 1_555
Hf0 O10 2.025631 1_555
Hf0 O4 2.032580 1_556
Hf0 O6 2.090565 1_555
Hf0 O8 2.097146 1_555
Hf0 O2 2.130863 1_455
Hf1 O3 1.998742 1_555
Hf1 O9 2.025992 1_555
Hf1 O7 2.032790 1_554
Hf1 O5 2.090599 1_555
Hf1 O11 2.096874 1_555
Hf1 O1 2.131216 1_655
Fe0 O1 1.865534 1_555
Fe0 O2 1.865751 1_555
Fe0 O7 1.999427 1_555
Fe0 O4 1.999791 1_555
Fe0 O9 2.017398 1_555
Fe0 O10 2.019024 1_555
Fe1 O6 1.898601 1_656
Fe1 O5 1.899405 1_545
Fe1 O8 1.899483 1_655
Fe1 O11 1.900184 1_546
Fe1 O0 2.087595 1_555
Fe1 O3 2.090025 1_646
O0 Sr3 2.650969 1_545
O0 Sr0 2.832775 1_556
O0 Sr0 2.838809 1_555
O0 Sr2 2.981974 1_556
O1 Sr3 2.687942 1_555
O1 Sr1 2.835855 1_554
O1 Sr1 2.842103 1_555
O1 Sr2 3.038568 1_455
O2 Sr0 2.688108 1_555
O2 Sr2 2.835855 1_556
O2 Sr2 2.842115 1_555
O2 Sr1 3.038529 1_655
O3 Sr0 2.651001 1_565
O3 Sr3 2.832778 1_554
O3 Sr3 2.838801 1_555
O3 Sr1 2.981822 1_554
O4 Sr1 2.751043 1_554
O4 Sr2 2.772449 1_455
O4 Sr0 2.899383 1_555
O4 Sr2 2.933180 1_555
O5 Sr1 2.764985 1_655
O5 Sr3 2.785294 1_655
O5 Sr3 2.923154 1_555
O5 Sr0 2.941323 1_565
O6 Sr2 2.764993 1_455
O6 Sr0 2.785338 1_455
O6 Sr0 2.923094 1_555
O6 Sr3 2.941336 1_545
O7 Sr2 2.750996 1_556
O7 Sr1 2.772537 1_655
O7 Sr3 2.899387 1_555
O7 Sr1 2.933092 1_555
O8 Sr2 2.751493 1_456
O8 Sr0 2.782287 1_455
O8 Sr0 2.917623 1_556
O8 Sr3 2.953379 1_545
O9 Sr2 2.738082 1_555
O9 Sr1 2.773824 1_655
O9 Sr3 2.906136 1_555
O9 Sr1 2.923050 1_554
O10 Sr1 2.738067 1_555
O10 Sr2 2.773823 1_455
O10 Sr0 2.906015 1_555
O10 Sr2 2.923053 1_556
O11 Sr1 2.751642 1_654
O11 Sr3 2.782246 1_655
O11 Sr3 2.917688 1_554
O11 Sr0 2.953388 1_565
