# generated using pymatgen
data_Ce(As3Os)4
_symmetry_space_group_name_H-M   'P 1'
_cell_length_a   7.41105819
_cell_length_b   7.41104826
_cell_length_c   7.41105878
_cell_angle_alpha   109.47117913
_cell_angle_beta   109.47122389
_cell_angle_gamma   109.47118551
_symmetry_Int_Tables_number   1
_chemical_formula_structural   Ce(As3Os)4
_chemical_formula_sum   'Ce1 As12 Os4'
_cell_volume   313.34201000
_cell_formula_units_Z   1
loop_
 _symmetry_equiv_pos_site_id
 _symmetry_equiv_pos_as_xyz
  1  'x, y, z'
loop_
 _atom_site_type_symbol
 _atom_site_label
 _atom_site_symmetry_multiplicity
 _atom_site_fract_x
 _atom_site_fract_y
 _atom_site_fract_z
 _atom_site_occupancy
  Ce  Ce0  1  0.00000000  0.00000000  0.00000000  1
  As  As0  1  0.34720776  0.19858986  0.85138311  1
  As  As1  1  0.65279224  0.80141014  0.14861689  1
  As  As2  1  0.65279324  0.50417435  0.85138311  1
  As  As3  1  0.34720676  0.49582565  0.14861689  1
  As  As4  1  0.19858986  0.85138211  0.34720576  1
  As  As5  1  0.80141014  0.14861789  0.65279424  1
  As  As6  1  0.50417435  0.85138311  0.65279324  1
  As  As7  1  0.49582565  0.14861689  0.34720676  1
  As  As8  1  0.85138311  0.34720676  0.19858886  1
  As  As9  1  0.14861689  0.65279324  0.80141114  1
  As  As10  1  0.85138311  0.65279224  0.50417435  1
  As  As11  1  0.14861689  0.34720776  0.49582565  1
  Os  Os0  1  0.00000000  0.00000000  0.50000000  1
  Os  Os1  1  0.50000000  0.00000000  0.00000000  1
  Os  Os2  1  0.00000000  0.50000000  0.00000000  1
  Os  Os3  1  0.50000000  0.50000000  0.50000000  1
loop_
_geom_bond_atom_site_label_1
_geom_bond_atom_site_label_2
_geom_bond_distance
_geom_bond_site_symmetry_2
As0 Os1 2.453904 1_556
As0 Os0 2.453916 1_555
As0 As3 2.543606 1_556
As0 As2 2.615059 1_555
As0 Ce0 3.231992 1_556
As1 Os1 2.453904 1_565
As1 Os0 2.453916 1_665
As1 As2 2.543606 1_554
As1 As3 2.615059 1_555
As1 Ce0 3.231992 1_665
As2 Os2 2.453902 1_656
As2 Os3 2.453918 1_555
As2 Ce0 3.231996 1_666
As3 Os2 2.453902 1_555
As3 Os3 2.453918 1_555
As3 Ce0 3.231996 1_555
As4 Os2 2.453904 1_555
As4 Os0 2.453917 1_565
As4 As7 2.543602 1_565
As4 As6 2.615064 1_555
As4 Ce0 3.231984 1_565
As5 Os2 2.453904 1_656
As5 Os0 2.453917 1_655
As5 As6 2.543602 1_545
As5 As7 2.615064 1_555
As5 Ce0 3.231984 1_656
As6 Os1 2.453903 1_566
As6 Os3 2.453915 1_555
As6 Ce0 3.231999 1_666
As7 Os1 2.453903 1_555
As7 Os3 2.453915 1_555
As7 Ce0 3.231999 1_555
As8 Os2 2.453902 1_655
As8 Os1 2.453912 1_555
As8 Ce0 3.231982 1_655
As9 Os2 2.453902 1_556
As9 Os1 2.453912 1_566
As9 Ce0 3.231982 1_566
As10 Os0 2.453907 1_665
As10 Os3 2.453917 1_555
As10 As9 2.543602 1_655
As10 As8 2.615064 1_555
As10 Ce0 3.232001 1_666
As11 Os0 2.453907 1_555
As11 Os3 2.453917 1_555
As11 As8 2.543602 1_455
As11 As9 2.615064 1_555
As11 Ce0 3.232001 1_555
