# generated using pymatgen
data_Mg30CrSnO32
_symmetry_space_group_name_H-M   'P 1'
_cell_length_a   8.58766900
_cell_length_b   8.58766900
_cell_length_c   8.65704400
_cell_angle_alpha   90.00000000
_cell_angle_beta   90.00000000
_cell_angle_gamma   90.00000000
_symmetry_Int_Tables_number   1
_chemical_formula_structural   Mg30CrSnO32
_chemical_formula_sum   'Mg30 Cr1 Sn1 O32'
_cell_volume   638.44019041
_cell_formula_units_Z   1
loop_
 _symmetry_equiv_pos_site_id
 _symmetry_equiv_pos_as_xyz
  1  'x, y, z'
loop_
 _atom_site_type_symbol
 _atom_site_label
 _atom_site_symmetry_multiplicity
 _atom_site_fract_x
 _atom_site_fract_y
 _atom_site_fract_z
 _atom_site_occupancy
  Mg  Mg0  1  0.00000000  0.50000000  0.00000000  1
  Mg  Mg1  1  0.50000000  0.00000000  0.00000000  1
  Mg  Mg2  1  0.00000000  0.00000000  0.50000000  1
  Mg  Mg3  1  0.00000000  0.50000000  0.50000000  1
  Mg  Mg4  1  0.50000000  0.00000000  0.50000000  1
  Mg  Mg5  1  0.50000000  0.50000000  0.50000000  1
  Mg  Mg6  1  0.25331200  0.25331200  0.00000000  1
  Mg  Mg7  1  0.25331200  0.74668800  0.00000000  1
  Mg  Mg8  1  0.74668800  0.25331200  0.00000000  1
  Mg  Mg9  1  0.74668800  0.74668800  0.00000000  1
  Mg  Mg10  1  0.25037600  0.25037600  0.50000000  1
  Mg  Mg11  1  0.25037600  0.74962400  0.50000000  1
  Mg  Mg12  1  0.74962400  0.25037600  0.50000000  1
  Mg  Mg13  1  0.74962400  0.74962400  0.50000000  1
  Mg  Mg14  1  0.00000000  0.25422500  0.25451300  1
  Mg  Mg15  1  0.00000000  0.74577500  0.25451300  1
  Mg  Mg16  1  0.50000000  0.25082400  0.25196300  1
  Mg  Mg17  1  0.50000000  0.74917600  0.25196300  1
  Mg  Mg18  1  0.00000000  0.25422500  0.74548700  1
  Mg  Mg19  1  0.00000000  0.74577500  0.74548700  1
  Mg  Mg20  1  0.50000000  0.25082400  0.74803700  1
  Mg  Mg21  1  0.50000000  0.74917600  0.74803700  1
  Mg  Mg22  1  0.25422500  0.00000000  0.25451300  1
  Mg  Mg23  1  0.25082400  0.50000000  0.25196300  1
  Mg  Mg24  1  0.74577500  0.00000000  0.25451300  1
  Mg  Mg25  1  0.74917600  0.50000000  0.25196300  1
  Mg  Mg26  1  0.25422500  0.00000000  0.74548700  1
  Mg  Mg27  1  0.25082400  0.50000000  0.74803700  1
  Mg  Mg28  1  0.74577500  0.00000000  0.74548700  1
  Mg  Mg29  1  0.74917600  0.50000000  0.74803700  1
  Cr  Cr0  1  0.50000000  0.50000000  0.00000000  1
  Sn  Sn0  1  0.00000000  0.00000000  0.00000000  1
  O  O0  1  0.00000000  0.00000000  0.27012800  1
  O  O1  1  0.00000000  0.50000000  0.25275300  1
  O  O2  1  0.50000000  0.00000000  0.25275300  1
  O  O3  1  0.50000000  0.50000000  0.26482200  1
  O  O4  1  0.00000000  0.00000000  0.72987200  1
  O  O5  1  0.00000000  0.50000000  0.74724700  1
  O  O6  1  0.50000000  0.00000000  0.74724700  1
  O  O7  1  0.50000000  0.50000000  0.73517800  1
  O  O8  1  0.24952100  0.24952100  0.24879700  1
  O  O9  1  0.24952100  0.75047900  0.24879700  1
  O  O10  1  0.75047900  0.24952100  0.24879700  1
  O  O11  1  0.75047900  0.75047900  0.24879700  1
  O  O12  1  0.24952100  0.24952100  0.75120300  1
  O  O13  1  0.24952100  0.75047900  0.75120300  1
  O  O14  1  0.75047900  0.24952100  0.75120300  1
  O  O15  1  0.75047900  0.75047900  0.75120300  1
  O  O16  1  0.00000000  0.27016400  0.00000000  1
  O  O17  1  0.00000000  0.72983600  0.00000000  1
  O  O18  1  0.50000000  0.25186700  0.00000000  1
  O  O19  1  0.50000000  0.74813300  0.00000000  1
  O  O20  1  0.00000000  0.25287800  0.50000000  1
  O  O21  1  0.00000000  0.74712200  0.50000000  1
  O  O22  1  0.50000000  0.24816600  0.50000000  1
  O  O23  1  0.50000000  0.75183400  0.50000000  1
  O  O24  1  0.27016400  0.00000000  0.00000000  1
  O  O25  1  0.25186700  0.50000000  0.00000000  1
  O  O26  1  0.72983600  0.00000000  0.00000000  1
  O  O27  1  0.74813300  0.50000000  0.00000000  1
  O  O28  1  0.25287800  0.00000000  0.50000000  1
  O  O29  1  0.24816600  0.50000000  0.50000000  1
  O  O30  1  0.74712200  0.00000000  0.50000000  1
  O  O31  1  0.75183400  0.50000000  0.50000000  1
loop_
_geom_bond_atom_site_label_1
_geom_bond_atom_site_label_2
_geom_bond_distance
_geom_bond_site_symmetry_2
Mg0 O16 1.973755 1_555
Mg0 O17 1.973755 1_555
Mg0 O27 2.162950 1_455
Mg0 O25 2.162950 1_555
Mg0 O1 2.188094 1_555
Mg0 O5 2.188094 1_554
Mg1 O24 1.973755 1_555
Mg1 O26 1.973755 1_555
Mg1 O19 2.162950 1_545
Mg1 O18 2.162950 1_555
Mg1 O6 2.188094 1_554
Mg1 O2 2.188094 1_555
Mg2 O4 1.990012 1_555
Mg2 O0 1.990012 1_555
Mg2 O20 2.171633 1_555
Mg2 O28 2.171633 1_555
Mg2 O30 2.171633 1_455
Mg2 O21 2.171633 1_545
Mg3 O21 2.122202 1_555
Mg3 O20 2.122202 1_555
Mg3 O29 2.131167 1_555
Mg3 O31 2.131167 1_455
Mg3 O1 2.140428 1_555
Mg3 O5 2.140428 1_555
Mg4 O30 2.122202 1_555
Mg4 O28 2.122202 1_555
Mg4 O23 2.131167 1_545
Mg4 O22 2.131167 1_555
Mg4 O2 2.140428 1_555
Mg4 O6 2.140428 1_555
Mg5 O3 2.035946 1_555
Mg5 O7 2.035946 1_555
Mg5 O31 2.162667 1_555
Mg5 O22 2.162667 1_555
Mg5 O23 2.162667 1_555
Mg5 O29 2.162667 1_555
Mg6 O25 2.118511 1_555
Mg6 O18 2.118511 1_555
Mg6 O8 2.154339 1_555
Mg6 O12 2.154339 1_554
Mg6 O24 2.180168 1_555
Mg6 O16 2.180168 1_555
Mg7 O19 2.118511 1_555
Mg7 O25 2.118511 1_555
Mg7 O9 2.154339 1_555
Mg7 O13 2.154339 1_554
Mg7 O24 2.180168 1_565
Mg7 O17 2.180168 1_555
Mg8 O27 2.118511 1_555
Mg8 O18 2.118511 1_555
Mg8 O10 2.154339 1_555
Mg8 O14 2.154339 1_554
Mg8 O26 2.180168 1_555
Mg8 O16 2.180168 1_655
Mg9 O19 2.118511 1_555
Mg9 O27 2.118511 1_555
Mg9 O11 2.154339 1_555
Mg9 O15 2.154339 1_554
Mg9 O17 2.180168 1_655
Mg9 O26 2.180168 1_565
Mg10 O22 2.143772 1_555
Mg10 O29 2.143772 1_555
Mg10 O20 2.150254 1_555
Mg10 O28 2.150254 1_555
Mg10 O12 2.174700 1_555
Mg10 O8 2.174700 1_555
Mg11 O23 2.143772 1_555
Mg11 O29 2.143772 1_555
Mg11 O21 2.150254 1_555
Mg11 O28 2.150254 1_565
Mg11 O13 2.174700 1_555
Mg11 O9 2.174700 1_555
Mg12 O31 2.143772 1_555
Mg12 O22 2.143772 1_555
Mg12 O30 2.150254 1_555
Mg12 O20 2.150254 1_655
Mg12 O14 2.174700 1_555
Mg12 O10 2.174700 1_555
Mg13 O31 2.143772 1_555
Mg13 O23 2.143772 1_555
Mg13 O21 2.150254 1_655
Mg13 O30 2.150254 1_565
Mg13 O15 2.174700 1_555
Mg13 O11 2.174700 1_555
Mg14 O1 2.110689 1_555
Mg14 O20 2.125223 1_555
Mg14 O8 2.143756 1_555
Mg14 O10 2.143756 1_455
Mg14 O0 2.187381 1_555
Mg14 O16 2.207578 1_555
Mg15 O1 2.110689 1_555
Mg15 O21 2.125223 1_555
Mg15 O11 2.143756 1_455
Mg15 O9 2.143756 1_555
Mg15 O0 2.187381 1_565
Mg15 O17 2.207578 1_555
Mg16 O3 2.142735 1_555
Mg16 O22 2.147389 1_555
Mg16 O10 2.151234 1_555
Mg16 O8 2.151234 1_555
Mg16 O2 2.154004 1_555
Mg16 O18 2.181273 1_555
Mg17 O3 2.142735 1_555
Mg17 O23 2.147389 1_555
Mg17 O9 2.151234 1_555
Mg17 O11 2.151234 1_555
Mg17 O2 2.154004 1_565
Mg17 O19 2.181273 1_555
Mg18 O5 2.110689 1_555
Mg18 O20 2.125223 1_555
Mg18 O12 2.143756 1_555
Mg18 O14 2.143756 1_455
Mg18 O4 2.187381 1_555
Mg18 O16 2.207578 1_556
Mg19 O5 2.110689 1_555
Mg19 O21 2.125223 1_555
Mg19 O13 2.143756 1_555
Mg19 O15 2.143756 1_455
Mg19 O4 2.187381 1_565
Mg19 O17 2.207578 1_556
Mg20 O7 2.142735 1_555
Mg20 O22 2.147389 1_555
Mg20 O12 2.151234 1_555
Mg20 O14 2.151234 1_555
Mg20 O6 2.154004 1_555
Mg20 O18 2.181273 1_556
Mg21 O7 2.142735 1_555
Mg21 O23 2.147389 1_555
Mg21 O15 2.151234 1_555
Mg21 O13 2.151234 1_555
Mg21 O6 2.154004 1_565
Mg21 O19 2.181273 1_556
Mg22 O2 2.110689 1_555
Mg22 O28 2.125223 1_555
Mg22 O9 2.143756 1_545
Mg22 O8 2.143756 1_555
Mg22 O0 2.187381 1_555
Mg22 O24 2.207578 1_555
Mg23 O3 2.142735 1_555
Mg23 O29 2.147389 1_555
Mg23 O9 2.151234 1_555
Mg23 O8 2.151234 1_555
Mg23 O1 2.154004 1_555
Mg23 O25 2.181273 1_555
Mg24 O2 2.110689 1_555
Mg24 O30 2.125223 1_555
Mg24 O11 2.143756 1_545
Mg24 O10 2.143756 1_555
Mg24 O0 2.187381 1_655
Mg24 O26 2.207578 1_555
Mg25 O3 2.142735 1_555
Mg25 O31 2.147389 1_555
Mg25 O10 2.151234 1_555
Mg25 O11 2.151234 1_555
Mg25 O1 2.154004 1_655
Mg25 O27 2.181273 1_555
Mg26 O6 2.110689 1_555
Mg26 O28 2.125223 1_555
Mg26 O12 2.143756 1_555
Mg26 O13 2.143756 1_545
Mg26 O4 2.187381 1_555
Mg26 O24 2.207578 1_556
Mg27 O7 2.142735 1_555
Mg27 O29 2.147389 1_555
Mg27 O13 2.151234 1_555
Mg27 O12 2.151234 1_555
Mg27 O5 2.154004 1_555
Mg27 O25 2.181273 1_556
Mg28 O6 2.110689 1_555
Mg28 O30 2.125223 1_555
Mg28 O14 2.143756 1_555
Mg28 O15 2.143756 1_545
Mg28 O4 2.187381 1_655
Mg28 O26 2.207578 1_556
Mg29 O7 2.142735 1_555
Mg29 O31 2.147389 1_555
Mg29 O15 2.151234 1_555
Mg29 O14 2.151234 1_555
Mg29 O5 2.154004 1_655
Mg29 O27 2.181273 1_556
Cr0 O25 2.130884 1_555
Cr0 O18 2.130884 1_555
Cr0 O19 2.130884 1_555
Cr0 O27 2.130884 1_555
Cr0 O7 2.292576 1_554
Cr0 O3 2.292576 1_555
O0 Sn0 2.338510 1_555
O4 Sn0 2.338510 1_556
O16 Sn0 2.320079 1_555
O17 Sn0 2.320079 1_565
O24 Sn0 2.320079 1_555
O26 Sn0 2.320079 1_655
