# generated using pymatgen
data_Rb2Sn3(SbS5)2
_symmetry_space_group_name_H-M   'P 1'
_cell_length_a   13.68044800
_cell_length_b   7.05453800
_cell_length_c   12.09039848
_cell_angle_alpha   60.58665062
_cell_angle_beta   90.00000000
_cell_angle_gamma   90.00000000
_symmetry_Int_Tables_number   1
_chemical_formula_structural   Rb2Sn3(SbS5)2
_chemical_formula_sum   'Rb4 Sn6 Sb4 S20'
_cell_volume   1016.42943149
_cell_formula_units_Z   2
loop_
 _symmetry_equiv_pos_site_id
 _symmetry_equiv_pos_as_xyz
  1  'x, y, z'
loop_
 _atom_site_type_symbol
 _atom_site_label
 _atom_site_symmetry_multiplicity
 _atom_site_fract_x
 _atom_site_fract_y
 _atom_site_fract_z
 _atom_site_occupancy
  Rb  Rb0  1  0.33013900  0.45789000  0.16225200  1
  Rb  Rb1  1  0.16986100  0.45789000  0.66225200  1
  Rb  Rb2  1  0.66986100  0.54211000  0.83774800  1
  Rb  Rb3  1  0.83013900  0.54211000  0.33774800  1
  Sn  Sn0  1  0.00000000  0.50000000  0.00000000  1
  Sn  Sn1  1  0.50000000  0.50000000  0.50000000  1
  Sn  Sn2  1  0.05378000  0.10993800  0.34746600  1
  Sn  Sn3  1  0.44622000  0.10993800  0.84746600  1
  Sn  Sn4  1  0.94622000  0.89006200  0.65253400  1
  Sn  Sn5  1  0.55378000  0.89006200  0.15253400  1
  Sb  Sb0  1  0.14676500  0.00944300  0.09387700  1
  Sb  Sb1  1  0.35323500  0.00944300  0.59387700  1
  Sb  Sb2  1  0.85323500  0.99055700  0.90612300  1
  Sb  Sb3  1  0.64676500  0.99055700  0.40612300  1
  S  S0  1  0.17438000  0.40534500  0.96330300  1
  S  S1  1  0.32562000  0.40534500  0.46330300  1
  S  S2  1  0.82562000  0.59465500  0.03669700  1
  S  S3  1  0.67438000  0.59465500  0.53669700  1
  S  S4  1  0.97409200  0.07554600  0.12967000  1
  S  S5  1  0.52590800  0.07554600  0.62967000  1
  S  S6  1  0.02590800  0.92445400  0.87033000  1
  S  S7  1  0.47409200  0.92445400  0.37033000  1
  S  S8  1  0.94521500  0.50079400  0.79265100  1
  S  S9  1  0.55478500  0.50079400  0.29265100  1
  S  S10  1  0.05478500  0.49920600  0.20734900  1
  S  S11  1  0.44521500  0.49920600  0.70734900  1
  S  S12  1  0.19584800  0.93798100  0.31408400  1
  S  S13  1  0.30415200  0.93798100  0.81408400  1
  S  S14  1  0.80415200  0.06201900  0.68591600  1
  S  S15  1  0.69584800  0.06201900  0.18591600  1
  S  S16  1  0.89904600  0.92386400  0.44155800  1
  S  S17  1  0.60095400  0.92386400  0.94155800  1
  S  S18  1  0.10095400  0.07613600  0.55844200  1
  S  S19  1  0.39904600  0.07613600  0.05844200  1
loop_
_geom_bond_atom_site_label_1
_geom_bond_atom_site_label_2
_geom_bond_distance
_geom_bond_site_symmetry_2
Rb0 S0 3.367421 1_554
Rb0 S1 3.473377 1_555
Rb0 S9 3.534233 1_555
Rb0 S19 3.610638 1_555
Rb0 S12 3.685652 1_545
Rb0 S10 3.837755 1_555
Rb0 S7 3.881986 1_545
Rb0 S13 3.913252 1_554
Rb1 S1 3.367421 1_555
Rb1 S0 3.473377 1_555
Rb1 S8 3.534233 1_455
Rb1 S18 3.610638 1_555
Rb1 S13 3.685652 1_545
Rb1 S11 3.837755 1_555
Rb1 S6 3.881986 1_545
Rb1 S12 3.913252 1_555
Rb2 S2 3.367421 1_556
Rb2 S3 3.473377 1_555
Rb2 S11 3.534233 1_555
Rb2 S17 3.610638 1_555
Rb2 S14 3.685652 1_565
Rb2 S8 3.837755 1_555
Rb2 S5 3.881986 1_565
Rb2 S15 3.913252 1_556
Rb3 S3 3.367421 1_555
Rb3 S2 3.473377 1_555
Rb3 S10 3.534233 1_655
Rb3 S16 3.610638 1_555
Rb3 S15 3.685652 1_565
Rb3 S9 3.837755 1_555
Rb3 S4 3.881986 1_565
Rb3 S14 3.913252 1_555
S0 Sb0 2.470748 1_556
S0 Sn0 2.573870 1_556
S1 Sb1 2.470748 1_555
S1 Sn1 2.573870 1_555
S2 Sb2 2.470748 1_554
S2 Sn0 2.573870 1_655
S3 Sb3 2.470748 1_555
S3 Sn1 2.573870 1_555
S4 Sb0 2.486593 1_655
S4 Sn0 2.634122 1_655
S4 Sn2 2.967962 1_655
S5 Sb1 2.486593 1_555
S5 Sn1 2.634122 1_555
S5 Sn3 2.967962 1_555
S6 Sb2 2.486593 1_455
S6 Sn0 2.634122 1_556
S6 Sn4 2.967962 1_455
S7 Sb3 2.486593 1_555
S7 Sn1 2.634122 1_555
S7 Sn5 2.967962 1_555
S8 Sn4 2.416983 1_555
S8 Sn0 2.613938 1_656
S9 Sn5 2.416983 1_555
S9 Sn1 2.613938 1_555
S10 Sn2 2.416983 1_555
S10 Sn0 2.613938 1_555
S11 Sn3 2.416983 1_555
S11 Sn1 2.613938 1_555
S12 Sn2 2.427497 1_565
S12 Sb0 2.544608 1_565
S13 Sn3 2.427497 1_565
S13 Sb1 2.544608 1_565
S14 Sn4 2.427497 1_545
S14 Sb2 2.544608 1_545
S15 Sn5 2.427497 1_545
S15 Sb3 2.544608 1_545
S16 Sn2 2.455907 1_665
S16 Sn4 2.526345 1_555
S17 Sn3 2.455907 1_565
S17 Sn5 2.526345 1_556
S18 Sn4 2.455907 1_445
S18 Sn2 2.526345 1_555
S19 Sn5 2.455907 1_545
S19 Sn3 2.526345 1_554
