# generated using pymatgen
data_Sr3CaAg4
_symmetry_space_group_name_H-M   'P 1'
_cell_length_a   4.91693100
_cell_length_b   6.29612200
_cell_length_c   24.12201211
_cell_angle_alpha   89.99465094
_cell_angle_beta   90.00000000
_cell_angle_gamma   90.00000000
_symmetry_Int_Tables_number   1
_chemical_formula_structural   Sr3CaAg4
_chemical_formula_sum   'Sr9 Ca3 Ag12'
_cell_volume   746.75953698
_cell_formula_units_Z   3
loop_
 _symmetry_equiv_pos_site_id
 _symmetry_equiv_pos_as_xyz
  1  'x, y, z'
loop_
 _atom_site_type_symbol
 _atom_site_label
 _atom_site_symmetry_multiplicity
 _atom_site_fract_x
 _atom_site_fract_y
 _atom_site_fract_z
 _atom_site_occupancy
  Sr  Sr0  1  0.00000000  0.63420900  0.94237100  1
  Sr  Sr1  1  0.50000000  0.89593500  0.72491500  1
  Sr  Sr2  1  0.50000000  0.60465500  0.22604400  1
  Sr  Sr3  1  0.00000000  0.10461100  0.27427100  1
  Sr  Sr4  1  0.00000000  0.39491300  0.77282500  1
  Sr  Sr5  1  0.50000000  0.12841800  0.89462600  1
  Sr  Sr6  1  0.50000000  0.36699600  0.39565500  1
  Sr  Sr7  1  0.00000000  0.86798400  0.10585600  1
  Sr  Sr8  1  0.00000000  0.63289600  0.60421000  1
  Ca  Ca0  1  0.50000000  0.14051200  0.55825700  1
  Ca  Ca1  1  0.50000000  0.35829400  0.06041000  1
  Ca  Ca2  1  0.00000000  0.85927500  0.44160200  1
  Ag  Ag0  1  0.50000000  0.38244100  0.67595700  1
  Ag  Ag1  1  0.50000000  0.11747600  0.17643600  1
  Ag  Ag2  1  0.00000000  0.61721500  0.32406500  1
  Ag  Ag3  1  0.00000000  0.88685800  0.82153900  1
  Ag  Ag4  1  0.50000000  0.63859600  0.84492100  1
  Ag  Ag5  1  0.50000000  0.86008100  0.34867000  1
  Ag  Ag6  1  0.00000000  0.36071100  0.15153700  1
  Ag  Ag7  1  0.00000000  0.13951600  0.65111200  1
  Ag  Ag8  1  0.50000000  0.63392000  0.51065700  1
  Ag  Ag9  1  0.50000000  0.87520800  0.01379200  1
  Ag  Ag10  1  0.00000000  0.36574700  0.48927900  1
  Ag  Ag11  1  0.00000000  0.13353400  0.99099400  1
loop_
_geom_bond_atom_site_label_1
_geom_bond_atom_site_label_2
_geom_bond_distance
_geom_bond_site_symmetry_2
Ag0 Ag7 2.956810 1_555
Ag0 Ag7 2.956810 1_655
Ag0 Ca0 3.222084 1_555
Ag0 Sr1 3.282772 1_545
Ag0 Sr4 3.392667 1_555
Ag0 Sr4 3.392667 1_655
Ag0 Sr8 3.394908 1_555
Ag0 Sr8 3.394908 1_655
Ag0 Sr1 3.442066 1_555
Ag1 Ag6 2.958026 1_655
Ag1 Ag6 2.958026 1_555
Ag1 Ca1 3.182971 1_555
Ag1 Sr2 3.292599 1_555
Ag1 Sr7 3.377970 1_645
Ag1 Sr7 3.377970 1_545
Ag1 Sr3 3.408822 1_655
Ag1 Sr3 3.408822 1_555
Ag1 Sr2 3.443295 1_545
Ag2 Ag5 2.955449 1_555
Ag2 Ag5 2.955449 1_455
Ag2 Ca2 3.219010 1_555
Ag2 Sr3 3.295296 1_565
Ag2 Sr6 3.392289 1_555
Ag2 Sr6 3.392289 1_455
Ag2 Sr2 3.411895 1_455
Ag2 Sr2 3.411895 1_555
Ag2 Sr3 3.443786 1_555
Ag3 Ag4 2.967364 1_555
Ag3 Ag4 2.967364 1_455
Ag3 Sr4 3.312860 1_555
Ag3 Sr0 3.320396 1_555
Ag3 Sr5 3.386126 1_465
Ag3 Sr5 3.386126 1_565
Ag3 Sr1 3.388180 1_455
Ag3 Sr1 3.388180 1_555
Ag3 Sr4 3.407680 1_565
Ag4 Sr5 3.308955 1_565
Ag4 Sr1 3.317240 1_555
Ag4 Sr4 3.379788 1_655
Ag4 Sr4 3.379788 1_555
Ag4 Sr0 3.401551 1_655
Ag4 Sr0 3.401551 1_555
Ag4 Sr5 3.428514 1_555
Ag5 Sr6 3.304836 1_555
Ag5 Ca2 3.327060 1_555
Ag5 Ca2 3.327060 1_655
Ag5 Sr2 3.367025 1_555
Ag5 Sr6 3.386962 1_565
Ag5 Sr3 3.410961 1_565
Ag5 Sr3 3.410961 1_665
Ag6 Sr7 3.292254 1_545
Ag6 Ca1 3.297912 1_455
Ag6 Ca1 3.297912 1_555
Ag6 Sr3 3.371077 1_555
Ag6 Sr7 3.378500 1_555
Ag6 Sr2 3.410821 1_455
Ag6 Sr2 3.410821 1_555
Ag7 Sr8 3.305895 1_555
Ag7 Ca0 3.325810 1_455
Ag7 Ca0 3.325810 1_555
Ag7 Sr4 3.347604 1_555
Ag7 Sr8 3.384542 1_545
Ag7 Sr1 3.400721 1_445
Ag7 Sr1 3.400721 1_545
Ag8 Sr6 3.243572 1_555
Ag8 Ca2 3.291123 1_655
Ag8 Ca2 3.291123 1_555
Ag8 Ca0 3.311859 1_555
Ag8 Sr8 3.337173 1_655
Ag8 Sr8 3.337173 1_555
Ag8 Ca0 3.390043 1_565
Ag9 Ca1 3.242888 1_565
Ag9 Sr5 3.286888 1_564
Ag9 Sr7 3.313294 1_655
Ag9 Sr7 3.313294 1_555
Ag9 Sr0 3.363781 1_554
Ag9 Sr0 3.363781 1_654
Ag9 Ca1 3.443252 1_555
Ag10 Ag8 3.026715 1_455
Ag10 Ag8 3.026715 1_555
Ag10 Sr8 3.242842 1_555
Ag10 Ca0 3.289858 1_455
Ag10 Ca0 3.289858 1_555
Ag10 Ca2 3.313212 1_555
Ag10 Sr6 3.338335 1_555
Ag10 Sr6 3.338335 1_455
Ag10 Ca2 3.389962 1_545
Ag11 Ag9 2.998609 1_446
Ag11 Ag9 2.998609 1_546
Ag11 Sr7 3.235938 1_546
Ag11 Ca1 3.294062 1_556
Ag11 Ca1 3.294062 1_456
Ag11 Sr0 3.355577 1_545
Ag11 Sr0 3.363336 1_555
Ag11 Sr5 3.383611 1_455
Ag11 Sr5 3.383611 1_555
