# generated using pymatgen
data_Cs3InP2
_symmetry_space_group_name_H-M   'P 1'
_cell_length_a   9.76077191
_cell_length_b   12.99561632
_cell_length_c   15.97961884
_cell_angle_alpha   81.06012642
_cell_angle_beta   81.41061738
_cell_angle_gamma   70.54430420
_symmetry_Int_Tables_number   1
_chemical_formula_structural   Cs3InP2
_chemical_formula_sum   'Cs24 In8 P16'
_cell_volume   1877.61978945
_cell_formula_units_Z   8
loop_
 _symmetry_equiv_pos_site_id
 _symmetry_equiv_pos_as_xyz
  1  'x, y, z'
loop_
 _atom_site_type_symbol
 _atom_site_label
 _atom_site_symmetry_multiplicity
 _atom_site_fract_x
 _atom_site_fract_y
 _atom_site_fract_z
 _atom_site_occupancy
  Cs  Cs0  1  0.95723032  0.51479310  0.79917373  1
  Cs  Cs1  1  0.04276968  0.48520690  0.20082627  1
  Cs  Cs2  1  0.58795106  0.01608450  0.18943324  1
  Cs  Cs3  1  0.41204894  0.98391550  0.81056676  1
  Cs  Cs4  1  0.59469133  0.66579816  0.18047045  1
  Cs  Cs5  1  0.40530867  0.33420184  0.81952955  1
  Cs  Cs6  1  0.85208037  0.76605011  0.32459075  1
  Cs  Cs7  1  0.14791963  0.23394989  0.67540925  1
  Cs  Cs8  1  0.46206093  0.35215810  0.08599574  1
  Cs  Cs9  1  0.53793907  0.64784190  0.91400426  1
  Cs  Cs10  1  0.21414385  0.96252087  0.24800423  1
  Cs  Cs11  1  0.78585615  0.03747913  0.75199577  1
  Cs  Cs12  1  0.77907606  0.30841070  0.88432327  1
  Cs  Cs13  1  0.22092394  0.69158930  0.11567673  1
  Cs  Cs14  1  0.88717570  0.16650258  0.51622058  1
  Cs  Cs15  1  0.11282430  0.83349742  0.48377942  1
  Cs  Cs16  1  0.72966656  0.77092731  0.64535090  1
  Cs  Cs17  1  0.27033344  0.22907269  0.35464910  1
  Cs  Cs18  1  0.52351483  0.63440866  0.45862329  1
  Cs  Cs19  1  0.47648517  0.36559134  0.54137671  1
  Cs  Cs20  1  0.76101113  0.33065446  0.26527241  1
  Cs  Cs21  1  0.23898887  0.66934554  0.73472759  1
  Cs  Cs22  1  0.93733073  0.10071054  0.08488394  1
  Cs  Cs23  1  0.06266927  0.89928946  0.91511606  1
  In  In0  1  0.08326182  0.35572135  0.00940844  1
  In  In1  1  0.91673818  0.64427865  0.99059156  1
  In  In2  1  0.33640490  0.10581495  0.01270303  1
  In  In3  1  0.66359510  0.89418505  0.98729697  1
  In  In4  1  0.63960334  0.02339725  0.43800173  1
  In  In5  1  0.36039666  0.97660275  0.56199827  1
  In  In6  1  0.13565407  0.51371347  0.42718040  1
  In  In7  1  0.86434593  0.48628653  0.57281960  1
  P  P0  1  0.60686682  0.10904095  0.96125639  1
  P  P1  1  0.39313318  0.89095905  0.03874361  1
  P  P2  1  0.53461438  0.07911204  0.58631206  1
  P  P3  1  0.46538562  0.92088796  0.41368794  1
  P  P4  1  0.14396799  0.20780221  0.90172694  1
  P  P5  1  0.85603201  0.79219779  0.09827306  1
  P  P6  1  0.80876152  0.47557976  0.03882965  1
  P  P7  1  0.19123848  0.52442024  0.96117035  1
  P  P8  1  0.19863056  0.21868875  0.14103773  1
  P  P9  1  0.80136944  0.78131125  0.85896227  1
  P  P10  1  0.91106507  0.45114639  0.41743218  1
  P  P11  1  0.08893493  0.54885361  0.58256782  1
  P  P12  1  0.84877378  0.04263498  0.34100000  1
  P  P13  1  0.15122622  0.95736502  0.65900000  1
  P  P14  1  0.34190892  0.51773485  0.32076090  1
  P  P15  1  0.65809108  0.48226515  0.67923910  1
loop_
_geom_bond_atom_site_label_1
_geom_bond_atom_site_label_2
_geom_bond_distance
_geom_bond_site_symmetry_2
Cs0 P9 3.508232 1_555
Cs0 P11 3.521757 1_655
Cs0 P7 3.740457 1_655
Cs0 P15 3.888783 1_555
Cs0 P6 3.905558 1_556
Cs1 P8 3.508232 1_555
Cs1 P10 3.521757 1_455
Cs1 P6 3.740457 1_455
Cs1 P14 3.888783 1_555
Cs1 P7 3.905558 1_554
Cs2 P5 3.541392 1_545
Cs2 P0 3.656033 1_554
Cs2 In3 3.686024 1_544
Cs2 P3 3.759088 1_545
Cs2 In2 3.808420 1_555
Cs2 P12 3.892682 1_555
Cs2 P8 3.943461 1_555
Cs3 P4 3.541392 1_565
Cs3 P1 3.656033 1_556
Cs3 In2 3.686024 1_566
Cs3 P2 3.759088 1_565
Cs3 In3 3.808420 1_555
Cs3 P13 3.892682 1_555
Cs3 P9 3.943461 1_555
Cs4 P5 3.471377 1_555
Cs4 P6 3.533415 1_555
Cs4 P1 3.605286 1_555
Cs4 P14 3.871133 1_555
Cs5 P4 3.471377 1_555
Cs5 P7 3.533415 1_555
Cs5 P0 3.605286 1_555
Cs5 P15 3.871133 1_555
Cs6 P5 3.575044 1_555
Cs6 P12 3.633533 1_565
Cs6 P3 3.814210 1_555
Cs6 In6 3.839326 1_655
Cs6 In4 3.861472 1_565
Cs6 P10 4.009811 1_555
Cs7 P4 3.575044 1_555
Cs7 P13 3.633533 1_545
Cs7 P2 3.814210 1_555
Cs7 In7 3.839326 1_455
Cs7 In5 3.861472 1_545
Cs7 P11 4.009811 1_555
Cs8 P8 3.494993 1_555
Cs8 P7 3.496147 1_554
Cs8 P0 3.754205 1_554
Cs8 P6 4.131681 1_555
Cs9 P9 3.494993 1_555
Cs9 P6 3.496147 1_556
Cs9 P1 3.754205 1_556
Cs9 P7 4.131681 1_555
Cs10 P8 3.464131 1_565
Cs10 P12 3.526346 1_465
Cs10 P1 3.638402 1_555
Cs10 P3 3.731820 1_555
Cs11 P9 3.464131 1_545
Cs11 P13 3.526346 1_645
Cs11 P0 3.638402 1_555
Cs11 P2 3.731820 1_555
Cs12 P4 3.398936 1_655
Cs12 P0 3.513352 1_555
Cs12 P6 3.633088 1_556
Cs12 P15 3.783707 1_555
Cs13 P5 3.398936 1_455
Cs13 P1 3.513352 1_555
Cs13 P7 3.633088 1_554
Cs13 P14 3.783707 1_555
Cs14 P12 3.561990 1_555
Cs14 P13 3.794459 1_645
Cs14 P10 3.857412 1_555
Cs14 P2 3.929818 1_555
Cs15 P13 3.561990 1_555
Cs15 P12 3.794459 1_465
Cs15 P11 3.857412 1_555
Cs15 P3 3.929818 1_555
Cs16 P9 3.616518 1_555
Cs16 In7 3.793770 1_555
Cs16 P11 3.839251 1_655
Cs16 P2 3.851995 1_565
Cs16 In5 3.977380 1_555
Cs16 P15 3.981884 1_555
Cs17 P8 3.616518 1_555
Cs17 In6 3.793770 1_555
Cs17 P10 3.839251 1_455
Cs17 P3 3.851995 1_545
Cs17 In4 3.977380 1_555
Cs17 P14 3.981884 1_555
Cs18 P3 3.547077 1_555
Cs18 P10 3.762551 1_555
Cs18 P14 3.780128 1_555
Cs18 In7 3.815553 1_555
Cs18 P15 3.943307 1_555
Cs19 P2 3.547077 1_555
Cs19 P11 3.762551 1_555
Cs19 P15 3.780128 1_555
Cs19 In6 3.815553 1_555
Cs19 P14 3.943307 1_555
Cs20 P12 3.601961 1_555
Cs20 P10 3.779408 1_555
Cs20 P6 3.849759 1_555
Cs20 P14 4.048781 1_555
Cs21 P13 3.601961 1_555
Cs21 P11 3.779408 1_555
Cs21 P7 3.849759 1_555
Cs21 P15 4.048781 1_555
Cs22 P8 3.657458 1_655
Cs22 P4 3.662190 1_654
Cs22 P0 3.990376 1_554
Cs22 P12 4.060091 1_555
Cs23 P9 3.657458 1_455
Cs23 P5 3.662190 1_456
Cs23 P1 3.990376 1_556
Cs23 P13 4.060091 1_555
In0 P6 2.626266 1_455
In0 P4 2.640431 1_554
In0 P8 2.659153 1_555
In0 P7 2.698641 1_554
In1 P7 2.626266 1_655
In1 P5 2.640431 1_556
In1 P9 2.659153 1_555
In1 P6 2.698641 1_556
In2 P1 2.637014 1_545
In2 P8 2.638703 1_555
In2 P4 2.652480 1_554
In2 P0 2.657350 1_554
In3 P0 2.637014 1_565
In3 P9 2.638703 1_555
In3 P5 2.652480 1_556
In3 P1 2.657350 1_556
In4 P12 2.430604 1_555
In4 P2 2.550415 1_555
In4 P3 2.585464 1_545
In5 P13 2.430604 1_555
In5 P3 2.550415 1_555
In5 P2 2.585464 1_565
In6 P14 2.442830 1_555
In6 P11 2.541144 1_555
In6 P10 2.611459 1_455
In7 P15 2.442830 1_555
In7 P10 2.541144 1_555
In7 P11 2.611459 1_655
