# generated using pymatgen
data_YSiIr2
_symmetry_space_group_name_H-M   'P 1'
_cell_length_a   5.58158440
_cell_length_b   5.58158440
_cell_length_c   15.19617600
_cell_angle_alpha   90.00000000
_cell_angle_beta   90.00000000
_cell_angle_gamma   120.00000475
_symmetry_Int_Tables_number   1
_chemical_formula_structural   YSiIr2
_chemical_formula_sum   'Y6 Si6 Ir12'
_cell_volume   409.99628181
_cell_formula_units_Z   6
loop_
 _symmetry_equiv_pos_site_id
 _symmetry_equiv_pos_as_xyz
  1  'x, y, z'
loop_
 _atom_site_type_symbol
 _atom_site_label
 _atom_site_symmetry_multiplicity
 _atom_site_fract_x
 _atom_site_fract_y
 _atom_site_fract_z
 _atom_site_occupancy
  Y  Y0  1  0.33333300  0.66666700  0.53910100  1
  Y  Y1  1  0.66666700  0.33333300  0.46089900  1
  Y  Y2  1  0.66666700  0.33333300  0.03910100  1
  Y  Y3  1  0.33333300  0.66666700  0.96089900  1
  Y  Y4  1  0.33333300  0.66666700  0.75000000  1
  Y  Y5  1  0.66666700  0.33333300  0.25000000  1
  Si  Si0  1  0.00000000  0.00000000  0.25000000  1
  Si  Si1  1  0.00000000  0.00000000  0.75000000  1
  Si  Si2  1  0.33333300  0.66666700  0.25000000  1
  Si  Si3  1  0.66666700  0.33333300  0.75000000  1
  Si  Si4  1  0.00000000  0.00000000  0.00000000  1
  Si  Si5  1  0.00000000  0.00000000  0.50000000  1
  Ir  Ir0  1  0.16745600  0.33491200  0.13052300  1
  Ir  Ir1  1  0.83254400  0.66508800  0.86947700  1
  Ir  Ir2  1  0.66508800  0.83254400  0.13052300  1
  Ir  Ir3  1  0.83254400  0.66508800  0.63052300  1
  Ir  Ir4  1  0.33491200  0.16745600  0.86947700  1
  Ir  Ir5  1  0.16745600  0.33491200  0.36947700  1
  Ir  Ir6  1  0.16745600  0.83254400  0.13052300  1
  Ir  Ir7  1  0.33491200  0.16745600  0.63052300  1
  Ir  Ir8  1  0.83254400  0.16745600  0.86947700  1
  Ir  Ir9  1  0.66508800  0.83254400  0.36947700  1
  Ir  Ir10  1  0.83254400  0.16745600  0.63052300  1
  Ir  Ir11  1  0.16745600  0.83254400  0.36947700  1
loop_
_geom_bond_atom_site_label_1
_geom_bond_atom_site_label_2
_geom_bond_distance
_geom_bond_site_symmetry_2
Y0 Y4 3.204858 1_555
Y1 Y5 3.204858 1_555
Y2 Y5 3.204858 1_555
Y3 Y4 3.204858 1_555
Si0 Y5 3.222526 1_455
Si0 Y5 3.222531 1_555
Si0 Y5 3.222531 1_445
Si1 Y4 3.222526 1_545
Si1 Y4 3.222531 1_555
Si1 Y4 3.222531 1_445
Si2 Y5 3.222526 1_455
Si2 Y5 3.222526 1_565
Si2 Y5 3.222536 1_555
Si3 Y4 3.222526 1_545
Si3 Y4 3.222526 1_655
Si3 Y4 3.222536 1_555
Ir0 Si2 2.422401 1_555
Ir0 Si0 2.432530 1_555
Ir0 Si4 2.560254 1_555
Ir0 Ir2 2.777575 1_555
Ir0 Ir6 2.777575 1_555
Ir0 Ir2 2.804009 1_445
Ir0 Ir6 2.804009 1_545
Ir0 Y3 3.035763 1_554
Ir0 Y2 3.117470 1_455
Ir0 Y2 3.117475 1_555
Ir0 Y5 3.329406 1_455
Ir0 Y5 3.329411 1_555
Ir1 Si3 2.422401 1_555
Ir1 Si1 2.432530 1_665
Ir1 Si4 2.560254 1_666
Ir1 Ir4 2.777575 1_555
Ir1 Ir8 2.777575 1_555
Ir1 Ir4 2.804009 1_665
Ir1 Ir8 2.804009 1_565
Ir1 Y2 3.035763 1_556
Ir1 Y3 3.117470 1_655
Ir1 Y3 3.117475 1_555
Ir1 Y4 3.329406 1_655
Ir1 Y4 3.329411 1_555
Ir2 Si2 2.422401 1_555
Ir2 Si0 2.432530 1_665
Ir2 Si4 2.560254 1_665
Ir2 Ir6 2.777575 1_555
Ir2 Ir6 2.804009 1_655
Ir2 Y3 3.035763 1_554
Ir2 Y2 3.117470 1_565
Ir2 Y2 3.117475 1_555
Ir2 Y5 3.329406 1_565
Ir2 Y5 3.329411 1_555
Ir3 Si3 2.422401 1_555
Ir3 Si1 2.432530 1_665
Ir3 Si5 2.560254 1_665
Ir3 Ir7 2.777575 1_555
Ir3 Ir7 2.804009 1_665
Ir3 Y1 3.035763 1_555
Ir3 Y0 3.117470 1_655
Ir3 Y0 3.117475 1_555
Ir3 Y4 3.329406 1_655
Ir3 Y4 3.329411 1_555
Ir4 Si3 2.422401 1_555
Ir4 Si1 2.432530 1_555
Ir4 Si4 2.560254 1_556
Ir4 Ir8 2.777575 1_555
Ir4 Ir8 2.804009 1_455
Ir4 Y2 3.035763 1_556
Ir4 Y3 3.117470 1_545
Ir4 Y3 3.117475 1_555
Ir4 Y4 3.329406 1_545
Ir4 Y4 3.329411 1_555
Ir5 Si2 2.422401 1_555
Ir5 Si0 2.432530 1_555
Ir5 Si5 2.560254 1_555
Ir5 Ir9 2.777575 1_555
Ir5 Ir9 2.804009 1_445
Ir5 Y0 3.035763 1_555
Ir5 Y1 3.117470 1_455
Ir5 Y1 3.117475 1_555
Ir5 Y5 3.329406 1_455
Ir5 Y5 3.329411 1_555
Ir6 Si2 2.422398 1_555
Ir6 Si0 2.432530 1_565
Ir6 Si4 2.560254 1_565
Ir6 Y3 3.035760 1_554
Ir6 Y2 3.117473 1_455
Ir6 Y2 3.117473 1_565
Ir6 Y5 3.329408 1_455
Ir6 Y5 3.329408 1_565
Ir7 Si3 2.422401 1_555
Ir7 Si1 2.432530 1_555
Ir7 Si5 2.560254 1_555
Ir7 Y1 3.035763 1_555
Ir7 Y0 3.117470 1_545
Ir7 Y0 3.117475 1_555
Ir7 Y4 3.329406 1_545
Ir7 Y4 3.329411 1_555
Ir8 Si3 2.422398 1_555
Ir8 Si1 2.432530 1_655
Ir8 Si4 2.560254 1_656
Ir8 Y2 3.035760 1_556
Ir8 Y3 3.117473 1_545
Ir8 Y3 3.117473 1_655
Ir8 Y4 3.329408 1_545
Ir8 Y4 3.329408 1_655
Ir9 Si2 2.422401 1_555
Ir9 Si0 2.432530 1_665
Ir9 Si5 2.560254 1_665
Ir9 Y0 3.035763 1_555
Ir9 Y1 3.117470 1_565
Ir9 Y1 3.117475 1_555
Ir9 Y5 3.329406 1_565
Ir9 Y5 3.329411 1_555
Ir10 Si3 2.422398 1_555
Ir10 Si1 2.432530 1_655
Ir10 Si5 2.560254 1_655
Ir10 Ir7 2.777575 1_555
Ir10 Ir3 2.777575 1_555
Ir10 Ir3 2.804009 1_545
Ir10 Ir7 2.804009 1_655
Ir10 Y1 3.035760 1_555
Ir10 Y0 3.117473 1_545
Ir10 Y0 3.117473 1_655
Ir10 Y4 3.329408 1_545
Ir10 Y4 3.329408 1_655
Ir11 Si2 2.422398 1_555
Ir11 Si0 2.432530 1_565
Ir11 Si5 2.560254 1_565
Ir11 Ir5 2.777575 1_555
Ir11 Ir9 2.777575 1_555
Ir11 Ir9 2.804009 1_455
Ir11 Ir5 2.804009 1_565
Ir11 Y0 3.035760 1_555
Ir11 Y1 3.117473 1_455
Ir11 Y1 3.117473 1_565
Ir11 Y5 3.329408 1_455
Ir11 Y5 3.329408 1_565
