# generated using pymatgen
data_MgO
_symmetry_space_group_name_H-M   'P 1'
_cell_length_a   8.09245403
_cell_length_b   8.09245403
_cell_length_c   8.09245403
_cell_angle_alpha   150.25046149
_cell_angle_beta   135.49444166
_cell_angle_gamma   54.45196640
_symmetry_Int_Tables_number   1
_chemical_formula_structural   MgO
_chemical_formula_sum   'Mg8 O8'
_cell_volume   183.24431062
_cell_formula_units_Z   8
loop_
 _symmetry_equiv_pos_site_id
 _symmetry_equiv_pos_as_xyz
  1  'x, y, z'
loop_
 _atom_site_type_symbol
 _atom_site_label
 _atom_site_symmetry_multiplicity
 _atom_site_fract_x
 _atom_site_fract_y
 _atom_site_fract_z
 _atom_site_occupancy
  Mg  Mg0  1  0.73705356  0.07077674  0.66627582  1
  Mg  Mg1  1  0.26294644  0.92922326  0.33372418  1
  Mg  Mg2  1  0.59549908  0.42922326  0.16627582  1
  Mg  Mg3  1  0.40450092  0.57077674  0.83372418  1
  Mg  Mg4  1  0.02636676  0.69007738  0.33628837  1
  Mg  Mg5  1  0.97363324  0.30992262  0.66371163  1
  Mg  Mg6  1  0.64621099  0.80992262  0.83628837  1
  Mg  Mg7  1  0.35378901  0.19007738  0.16371163  1
  O  O0  1  0.02565802  0.19016232  0.83549670  1
  O  O1  1  0.97434198  0.80983768  0.16450330  1
  O  O2  1  0.64533437  0.30983768  0.33549670  1
  O  O3  1  0.35466563  0.69016232  0.66450330  1
  O  O4  1  0.74084357  0.57076606  0.17007751  1
  O  O5  1  0.25915643  0.42923394  0.82992249  1
  O  O6  1  0.59931145  0.92923394  0.67007751  1
  O  O7  1  0.40068855  0.07076606  0.32992249  1
loop_
_geom_bond_atom_site_label_1
_geom_bond_atom_site_label_2
_geom_bond_distance
_geom_bond_site_symmetry_2
Mg0 O0 2.006932 1_655
Mg0 O6 2.037191 1_545
Mg0 O7 2.061553 1_555
Mg0 O4 2.077520 1_545
Mg0 O4 2.077524 1_556
Mg1 O1 2.006932 1_455
Mg1 O7 2.037191 1_565
Mg1 O6 2.061553 1_555
Mg1 O5 2.077520 1_565
Mg1 O5 2.077524 1_554
Mg2 O2 2.006947 1_555
Mg2 O4 2.037184 1_555
Mg2 O5 2.061550 1_554
Mg2 O6 2.077522 1_544
Mg2 O6 2.077522 1_555
Mg3 O3 2.006947 1_555
Mg3 O5 2.037184 1_555
Mg3 O4 2.061550 1_556
Mg3 O7 2.077522 1_555
Mg3 O7 2.077522 1_566
Mg4 O4 1.996564 1_455
Mg4 O3 2.011666 1_555
Mg4 O1 2.019714 1_455
Mg4 O0 2.077393 1_554
Mg4 O0 2.077402 1_565
Mg5 O5 1.996564 1_655
Mg5 O2 2.011666 1_555
Mg5 O0 2.019714 1_655
Mg5 O1 2.077393 1_556
Mg5 O1 2.077402 1_545
Mg6 O6 1.996556 1_555
Mg6 O1 2.011672 1_556
Mg6 O3 2.019714 1_555
Mg6 O2 2.077397 1_555
Mg6 O2 2.077397 1_566
Mg7 O7 1.996556 1_555
Mg7 O0 2.011672 1_554
Mg7 O2 2.019714 1_555
Mg7 O3 2.077397 1_555
Mg7 O3 2.077397 1_544
