# generated using pymatgen
data_Lu4Co3
_symmetry_space_group_name_H-M   'P 1'
_cell_length_a   3.96636685
_cell_length_b   10.89725939
_cell_length_c   10.89740615
_cell_angle_alpha   60.00092950
_cell_angle_beta   89.99981497
_cell_angle_gamma   89.99952721
_symmetry_Int_Tables_number   1
_chemical_formula_structural   Lu4Co3
_chemical_formula_sum   'Lu12 Co9'
_cell_volume   407.91343069
_cell_formula_units_Z   3
loop_
 _symmetry_equiv_pos_site_id
 _symmetry_equiv_pos_as_xyz
  1  'x, y, z'
loop_
 _atom_site_type_symbol
 _atom_site_label
 _atom_site_symmetry_multiplicity
 _atom_site_fract_x
 _atom_site_fract_y
 _atom_site_fract_z
 _atom_site_occupancy
  Lu  Lu0  1  0.74928521  0.62004215  0.86630069  1
  Lu  Lu1  1  0.74928658  0.51365139  0.62003572  1
  Lu  Lu2  1  0.74928371  0.86630511  0.51365387  1
  Lu  Lu3  1  0.25071479  0.37995785  0.13369931  1
  Lu  Lu4  1  0.25071342  0.48634861  0.37996428  1
  Lu  Lu5  1  0.25071629  0.13369489  0.48634613  1
  Lu  Lu6  1  0.75018943  0.77609754  0.24764404  1
  Lu  Lu7  1  0.75020405  0.97625608  0.77610893  1
  Lu  Lu8  1  0.75019719  0.24763732  0.97624916  1
  Lu  Lu9  1  0.24981057  0.22390246  0.75235596  1
  Lu  Lu10  1  0.24979595  0.02374392  0.22389107  1
  Lu  Lu11  1  0.24980281  0.75236268  0.02375084  1
  Co  Co0  1  0.75096890  0.33333720  0.33334106  1
  Co  Co1  1  0.24903110  0.66666280  0.66665894  1
  Co  Co2  1  0.74870925  0.28362492  0.56092418  1
  Co  Co3  1  0.74869709  0.15545992  0.28362294  1
  Co  Co4  1  0.74871127  0.56092671  0.15546826  1
  Co  Co5  1  0.25129075  0.71637508  0.43907582  1
  Co  Co6  1  0.25130291  0.84454008  0.71637706  1
  Co  Co7  1  0.25128873  0.43907329  0.84453174  1
  Co  Co8  1  0.50000000  0.00000000  -0.00000000  1
loop_
_geom_bond_atom_site_label_1
_geom_bond_atom_site_label_2
_geom_bond_distance
_geom_bond_site_symmetry_2
Co0 Co2 2.258493 1_555
Co0 Co4 2.258543 1_555
Co0 Co3 2.258562 1_555
Co0 Lu4 2.795456 1_655
Co0 Lu5 2.795494 1_655
Co0 Lu3 2.795533 1_655
Co0 Lu4 2.796872 1_555
Co0 Lu5 2.796933 1_555
Co0 Lu3 2.796966 1_555
Co1 Co5 2.258493 1_555
Co1 Co7 2.258543 1_555
Co1 Co6 2.258562 1_555
Co1 Lu1 2.795456 1_455
Co1 Lu2 2.795494 1_455
Co1 Lu0 2.795533 1_455
Co1 Lu1 2.796872 1_555
Co1 Lu2 2.796933 1_555
Co1 Lu0 2.796966 1_555
Co2 Lu9 2.708041 1_555
Co2 Lu9 2.714434 1_655
Co2 Lu1 2.883216 1_555
Co2 Lu4 2.883445 1_555
Co2 Lu4 2.894375 1_655
Co2 Lu5 2.925617 1_555
Co2 Lu5 2.936368 1_655
Co2 Lu7 2.977196 1_545
Co3 Lu10 2.708133 1_555
Co3 Lu10 2.714489 1_655
Co3 Lu5 2.883396 1_555
Co3 Lu2 2.883404 1_545
Co3 Lu5 2.894399 1_655
Co3 Lu3 2.925519 1_555
Co3 Lu3 2.936369 1_655
Co3 Lu8 2.977279 1_554
Co4 Lu11 2.708090 1_555
Co4 Lu11 2.714442 1_655
Co4 Lu3 2.883531 1_555
Co4 Lu0 2.883572 1_554
Co4 Lu3 2.894418 1_655
Co4 Lu4 2.925560 1_555
Co4 Lu4 2.936308 1_655
Co4 Lu6 2.976940 1_555
Co5 Lu6 2.708041 1_555
Co5 Lu6 2.714434 1_455
Co5 Lu4 2.883216 1_555
Co5 Lu1 2.883445 1_555
Co5 Lu1 2.894375 1_455
Co5 Lu2 2.925617 1_555
Co5 Lu2 2.936368 1_455
Co5 Lu10 2.977196 1_565
Co6 Lu7 2.708133 1_555
Co6 Lu7 2.714489 1_455
Co6 Lu2 2.883396 1_555
Co6 Lu5 2.883404 1_565
Co6 Lu2 2.894399 1_455
Co6 Lu0 2.925519 1_555
Co6 Lu0 2.936369 1_455
Co6 Lu11 2.977279 1_556
Co7 Lu8 2.708090 1_555
Co7 Lu8 2.714442 1_455
Co7 Lu0 2.883531 1_555
Co7 Lu3 2.883572 1_556
Co7 Lu0 2.894418 1_455
Co7 Lu1 2.925560 1_555
Co7 Lu1 2.936308 1_455
Co7 Lu9 2.976940 1_555
Co8 Lu8 2.763273 1_554
Co8 Lu11 2.763273 1_545
Co8 Lu10 2.763303 1_555
Co8 Lu7 2.763303 1_544
Co8 Lu9 2.763409 1_554
Co8 Lu6 2.763409 1_545
