# generated using pymatgen
data_ErMgIn
_symmetry_space_group_name_H-M   'P 1'
_cell_length_a   7.43814747
_cell_length_b   7.43814747
_cell_length_c   4.63183170
_cell_angle_alpha   90.00000000
_cell_angle_beta   90.00000000
_cell_angle_gamma   120.00000451
_symmetry_Int_Tables_number   1
_chemical_formula_structural   ErMgIn
_chemical_formula_sum   'Er3 Mg3 In3'
_cell_volume   221.92843537
_cell_formula_units_Z   3
loop_
 _symmetry_equiv_pos_site_id
 _symmetry_equiv_pos_as_xyz
  1  'x, y, z'
loop_
 _atom_site_type_symbol
 _atom_site_label
 _atom_site_symmetry_multiplicity
 _atom_site_fract_x
 _atom_site_fract_y
 _atom_site_fract_z
 _atom_site_occupancy
  Er  Er0  1  0.56396091  -0.00000000  0.00000000  1
  Er  Er1  1  -0.00000000  0.56396091  0.00000000  1
  Er  Er2  1  0.43603909  0.43603909  -0.00000000  1
  Mg  Mg0  1  0.24173973  0.00000000  0.50000000  1
  Mg  Mg1  1  0.00000000  0.24173973  0.50000000  1
  Mg  Mg2  1  0.75826027  0.75826027  0.50000000  1
  In  In0  1  0.33333300  0.66666700  0.50000000  1
  In  In1  1  0.66666700  0.33333300  0.50000000  1
  In  In2  1  -0.00000000  -0.00000000  -0.00000000  1
loop_
_geom_bond_atom_site_label_1
_geom_bond_atom_site_label_2
_geom_bond_distance
_geom_bond_site_symmetry_2
Er0 In1 3.193790 1_554
Er0 In1 3.193790 1_555
Er0 In0 3.193791 1_544
Er0 In0 3.193791 1_545
Er0 In2 3.243323 1_655
Er0 Mg0 3.332833 1_555
Er0 Mg0 3.332833 1_554
Er0 Mg1 3.644716 1_654
Er0 Mg1 3.644716 1_655
Er0 Mg2 3.644716 1_544
Er0 Mg2 3.644716 1_545
Er0 Er1 3.809268 1_545
Er0 Er1 3.809268 1_655
Er0 Er2 3.809268 1_545
Er0 Er2 3.809268 1_555
Er1 In0 3.193790 1_554
Er1 In0 3.193790 1_555
Er1 In1 3.193791 1_455
Er1 In1 3.193791 1_454
Er1 In2 3.243323 1_565
Er1 Mg1 3.332833 1_555
Er1 Mg1 3.332833 1_554
Er1 Mg0 3.644716 1_565
Er1 Mg0 3.644716 1_564
Er1 Mg2 3.644716 1_455
Er1 Mg2 3.644716 1_454
Er1 Er2 3.809268 1_455
Er1 Er2 3.809268 1_555
Er2 In0 3.193795 1_554
Er2 In1 3.193795 1_554
Er2 In0 3.193795 1_555
Er2 In1 3.193795 1_555
Er2 In2 3.243323 1_555
Er2 Mg2 3.332833 1_555
Er2 Mg2 3.332833 1_554
Er2 Mg1 3.644716 1_554
Er2 Mg0 3.644716 1_555
Er2 Mg1 3.644716 1_555
Er2 Mg0 3.644716 1_554
Mg0 Mg2 3.114393 1_445
Mg0 Mg1 3.114393 1_555
Mg1 Mg2 3.114393 1_445
In0 Mg0 2.881082 1_565
In0 Mg1 2.881087 1_555
In0 Mg2 2.881090 1_555
In1 Mg1 2.881082 1_655
In1 Mg0 2.881087 1_555
In1 Mg2 2.881090 1_555
In2 Mg2 2.931998 1_444
In2 Mg2 2.931998 1_445
In2 Mg0 2.931998 1_555
In2 Mg0 2.931998 1_554
In2 Mg1 2.931998 1_554
In2 Mg1 2.931998 1_555
