# generated using pymatgen
data_Cd2Fe3Cu10(SnSe4)5
_symmetry_space_group_name_H-M   'P 1'
_cell_length_a   21.38460773
_cell_length_b   21.01655699
_cell_length_c   7.03473807
_cell_angle_alpha   83.42033086
_cell_angle_beta   77.50525015
_cell_angle_gamma   19.07441899
_symmetry_Int_Tables_number   1
_chemical_formula_structural   Cd2Fe3Cu10(SnSe4)5
_chemical_formula_sum   'Cd2 Fe3 Cu10 Sn5 Se20'
_cell_volume   967.87735707
_cell_formula_units_Z   1
loop_
 _symmetry_equiv_pos_site_id
 _symmetry_equiv_pos_as_xyz
  1  'x, y, z'
loop_
 _atom_site_type_symbol
 _atom_site_label
 _atom_site_symmetry_multiplicity
 _atom_site_fract_x
 _atom_site_fract_y
 _atom_site_fract_z
 _atom_site_occupancy
  Cd  Cd0  1  0.60130000  0.99931000  0.00069000  1
  Cd  Cd1  1  0.00069000  0.39870000  0.60130000  1
  Fe  Fe0  1  0.39964400  0.79881100  0.20118900  1
  Fe  Fe1  1  0.79881400  0.20118600  0.79881400  1
  Fe  Fe2  1  0.20118900  0.60035600  0.39964400  1
  Cu  Cu0  1  0.25019500  0.65024900  0.84970500  1
  Cu  Cu1  1  0.84970500  0.24985100  0.25019500  1
  Cu  Cu2  1  0.45091400  0.84594500  0.64899600  1
  Cu  Cu3  1  0.64899600  0.05414500  0.45091400  1
  Cu  Cu4  1  0.04987300  0.45012700  0.04987300  1
  Cu  Cu5  1  0.75014900  0.15029500  0.34975100  1
  Cu  Cu6  1  0.34975100  0.74980500  0.75014900  1
  Cu  Cu7  1  0.94585500  0.35100400  0.15405500  1
  Cu  Cu8  1  0.15405500  0.54908600  0.94585500  1
  Cu  Cu9  1  0.54987300  0.95012700  0.54987300  1
  Sn  Sn0  1  0.29999300  0.70000700  0.29999300  1
  Sn  Sn1  1  0.89608800  0.29986900  0.70013100  1
  Sn  Sn2  1  0.49905000  0.89642400  0.10357600  1
  Sn  Sn3  1  0.70013100  0.10391200  0.89608800  1
  Sn  Sn4  1  0.10357600  0.50095000  0.49905000  1
  Se  Se0  1  0.88791300  0.02027300  0.97972700  1
  Se  Se1  1  0.28829100  0.42113000  0.57887000  1
  Se  Se2  1  0.68858700  0.80771400  0.19228600  1
  Se  Se3  1  0.08898800  0.20676000  0.79324000  1
  Se  Se4  1  0.48700400  0.61969100  0.38030900  1
  Se  Se5  1  0.79324000  0.91101200  0.08898800  1
  Se  Se6  1  0.19228600  0.31141300  0.68858700  1
  Se  Se7  1  0.57887000  0.71170900  0.28829100  1
  Se  Se8  1  0.97972700  0.11208700  0.88791300  1
  Se  Se9  1  0.38030900  0.51299600  0.48700400  1
  Se  Se10  1  0.20283600  0.39856300  0.10940500  1
  Se  Se11  1  0.60143700  0.79716400  0.71080400  1
  Se  Se12  1  0.03654900  0.16181900  0.30163400  1
  Se  Se13  1  0.43503200  0.56496800  0.89906600  1
  Se  Se14  1  0.83818100  0.96345100  0.50000200  1
  Se  Se15  1  0.71080400  0.89059500  0.60143700  1
  Se  Se16  1  0.10940500  0.28919600  0.20283600  1
  Se  Se17  1  0.50000200  0.69836600  0.83818100  1
  Se  Se18  1  0.89906600  0.10093400  0.43503200  1
  Se  Se19  1  0.30163400  0.49999800  0.03654900  1
loop_
_geom_bond_atom_site_label_1
_geom_bond_atom_site_label_2
_geom_bond_distance
_geom_bond_site_symmetry_2
Cd0 Se10 2.665330 1_565
Cd0 Se15 2.665330 1_554
Cd0 Se5 2.668065 1_555
Cd0 Se2 2.674477 1_555
Cd1 Se11 2.665330 1_455
Cd1 Se16 2.665330 1_555
Cd1 Se3 2.668065 1_555
Cd1 Se6 2.674477 1_555
Fe0 Se17 2.425684 1_554
Fe0 Se12 2.425684 1_565
Fe0 Se4 2.426434 1_555
Fe0 Se7 2.431744 1_555
Fe1 Se18 2.430667 1_555
Fe1 Se13 2.430667 1_555
Fe1 Se0 2.439972 1_555
Fe1 Se8 2.439972 1_555
Fe2 Se19 2.425684 1_555
Fe2 Se14 2.425684 1_455
Fe2 Se9 2.426434 1_555
Fe2 Se1 2.431744 1_555
Cu0 Se9 2.452908 1_555
Cu0 Se13 2.452940 1_555
Cu0 Se0 2.452994 1_465
Cu0 Se19 2.453135 1_556
Cu1 Se4 2.452908 1_555
Cu1 Se18 2.452940 1_555
Cu1 Se8 2.452994 1_554
Cu1 Se12 2.453135 1_655
Cu2 Se3 2.421595 1_565
Cu2 Se11 2.422198 1_555
Cu2 Se7 2.435123 1_555
Cu2 Se17 2.448970 1_555
Cu3 Se5 2.421595 1_545
Cu3 Se15 2.422198 1_545
Cu3 Se1 2.435123 1_555
Cu3 Se14 2.448970 1_545
Cu4 Se2 2.408359 1_455
Cu4 Se6 2.408359 1_554
Cu4 Se10 2.416178 1_555
Cu4 Se16 2.416178 1_555
Cu5 Se9 2.452908 1_555
Cu5 Se18 2.452940 1_555
Cu5 Se0 2.452994 1_554
Cu5 Se14 2.453135 1_545
Cu6 Se4 2.452908 1_555
Cu6 Se13 2.452940 1_555
Cu6 Se8 2.452994 1_465
Cu6 Se17 2.453135 1_555
Cu7 Se3 2.421595 1_654
Cu7 Se16 2.422198 1_655
Cu7 Se7 2.435123 1_555
Cu7 Se12 2.448970 1_655
Cu8 Se5 2.421595 1_456
Cu8 Se10 2.422198 1_556
Cu8 Se1 2.435123 1_555
Cu8 Se19 2.448970 1_556
Cu9 Se6 2.408359 1_565
Cu9 Se2 2.408359 1_555
Cu9 Se11 2.416178 1_555
Cu9 Se15 2.416178 1_555
Se0 Sn3 2.646598 1_555
Se1 Sn4 2.636501 1_555
Se2 Sn2 2.614938 1_555
Se3 Sn1 2.625293 1_455
Se4 Sn0 2.676049 1_555
Se5 Sn3 2.625293 1_564
Se6 Sn4 2.614938 1_555
Se7 Sn2 2.636501 1_555
Se8 Sn1 2.646598 1_555
Se9 Sn0 2.676049 1_555
Se10 Sn4 2.617233 1_555
Se11 Sn2 2.617233 1_556
Se12 Sn1 2.654524 1_455
Se13 Sn0 2.677193 1_556
Se14 Sn3 2.654524 1_565
Se15 Sn4 2.617233 1_655
Se16 Sn2 2.617233 1_545
Se17 Sn1 2.654524 1_555
Se18 Sn0 2.677193 1_645
Se19 Sn3 2.654524 1_554
