# generated using pymatgen
data_Si2Ni3H4O9
_symmetry_space_group_name_H-M   'P 1'
_cell_length_a   5.28759854
_cell_length_b   5.28759854
_cell_length_c   7.20910540
_cell_angle_alpha   90.00000000
_cell_angle_beta   90.00000000
_cell_angle_gamma   120.00000631
_symmetry_Int_Tables_number   1
_chemical_formula_structural   Si2Ni3H4O9
_chemical_formula_sum   'Si2 Ni3 H4 O9'
_cell_volume   174.55364733
_cell_formula_units_Z   1
loop_
 _symmetry_equiv_pos_site_id
 _symmetry_equiv_pos_as_xyz
  1  'x, y, z'
loop_
 _atom_site_type_symbol
 _atom_site_label
 _atom_site_symmetry_multiplicity
 _atom_site_fract_x
 _atom_site_fract_y
 _atom_site_fract_z
 _atom_site_occupancy
  Si  Si0  1  0.33333300  0.66666700  0.10879947  1
  Si  Si1  1  0.66666700  0.33333300  0.10879947  1
  Ni  Ni0  1  0.33236306  -0.00000000  0.72772814  1
  Ni  Ni1  1  -0.00000000  0.33236306  0.72772814  1
  Ni  Ni2  1  0.66763694  0.66763694  0.72772814  1
  H  H0  1  0.65471043  0.00000000  0.45904509  1
  H  H1  1  0.00000000  0.65471043  0.45904509  1
  H  H2  1  0.34528957  0.34528957  0.45904509  1
  H  H3  1  -0.00000000  -0.00000000  0.01108672  1
  O  O0  1  0.33333300  0.66666700  0.88725233  1
  O  O1  1  0.66666700  0.33333300  0.88725233  1
  O  O2  1  0.66537514  0.00000000  0.59284540  1
  O  O3  1  0.00000000  0.66537514  0.59284540  1
  O  O4  1  0.33462486  0.33462486  0.59284540  1
  O  O5  1  0.48012816  0.48012816  0.19267029  1
  O  O6  1  0.51987184  0.00000000  0.19267029  1
  O  O7  1  0.00000000  0.51987184  0.19267029  1
  O  O8  1  -0.00000000  -0.00000000  0.87731290  1
loop_
_geom_bond_atom_site_label_1
_geom_bond_atom_site_label_2
_geom_bond_distance
_geom_bond_site_symmetry_2
Ni0 O2 2.011484 1_555
Ni0 O3 2.013741 1_545
Ni0 O4 2.013741 1_555
Ni0 O8 2.061880 1_555
Ni0 O0 2.106690 1_545
Ni0 O1 2.106692 1_555
Ni1 O3 2.011484 1_555
Ni1 O2 2.013741 1_455
Ni1 O4 2.013741 1_555
Ni1 O8 2.061880 1_555
Ni1 O1 2.106690 1_455
Ni1 O0 2.106692 1_555
Ni2 O4 2.011484 1_555
Ni2 O2 2.013741 1_565
Ni2 O3 2.013741 1_655
Ni2 O8 2.061880 1_665
Ni2 O0 2.106694 1_555
Ni2 O1 2.106694 1_555
H0 O2 0.966227 1_555
H1 O3 0.966227 1_555
H2 O4 0.966227 1_555
H3 O8 0.964390 1_554
O0 Si0 1.597157 1_556
O1 Si1 1.597157 1_556
O5 Si0 1.645151 1_555
O5 Si1 1.645151 1_555
O6 Si1 1.645147 1_555
O6 Si0 1.645147 1_545
O7 Si0 1.645147 1_555
O7 Si1 1.645147 1_455
