# generated using pymatgen
data_Ba5Y3I19
_symmetry_space_group_name_H-M   'P 1'
_cell_length_a   11.82552700
_cell_length_b   14.90082925
_cell_length_c   16.66359945
_cell_angle_alpha   86.87298529
_cell_angle_beta   109.94208547
_cell_angle_gamma   101.46042795
_symmetry_Int_Tables_number   1
_chemical_formula_structural   Ba5Y3I19
_chemical_formula_sum   'Ba10 Y6 I38'
_cell_volume   2704.91750492
_cell_formula_units_Z   2
loop_
 _symmetry_equiv_pos_site_id
 _symmetry_equiv_pos_as_xyz
  1  'x, y, z'
loop_
 _atom_site_type_symbol
 _atom_site_label
 _atom_site_symmetry_multiplicity
 _atom_site_fract_x
 _atom_site_fract_y
 _atom_site_fract_z
 _atom_site_occupancy
  Ba  Ba0  1  0.33598400  0.58573400  0.56615500  1
  Ba  Ba1  1  0.19606300  0.81068000  0.76140400  1
  Ba  Ba2  1  0.26217000  0.33292200  0.19918900  1
  Ba  Ba3  1  0.60852100  0.28220700  0.83202300  1
  Ba  Ba4  1  0.94121500  0.18966100  0.65031100  1
  Ba  Ba5  1  0.05878500  0.81033900  0.34968900  1
  Ba  Ba6  1  0.39147900  0.71779300  0.16797700  1
  Ba  Ba7  1  0.73783000  0.66707800  0.80081100  1
  Ba  Ba8  1  0.80393700  0.18932000  0.23859600  1
  Ba  Ba9  1  0.66401600  0.41426600  0.43384500  1
  Y  Y0  1  0.16411800  0.46226300  0.83134100  1
  Y  Y1  1  0.74312700  0.99954000  0.98390800  1
  Y  Y2  1  0.66628500  0.81479100  0.51990100  1
  Y  Y3  1  0.33371500  0.18520900  0.48009900  1
  Y  Y4  1  0.25687300  0.00046000  0.01609200  1
  Y  Y5  1  0.83588200  0.53773700  0.16865900  1
  I  I0  1  0.33899400  0.33684200  0.86043400  1
  I  I1  1  0.24189900  0.50351100  0.02470100  1
  I  I2  1  0.10501900  0.15304800  0.31730300  1
  I  I3  1  0.06572800  0.42795500  0.63791800  1
  I  I4  1  0.99715900  0.60583100  0.78961600  1
  I  I5  1  0.34868600  0.62259700  0.79513500  1
  I  I6  1  0.65930500  0.80539700  0.92627800  1
  I  I7  1  0.19932300  0.79372800  0.97194500  1
  I  I8  1  0.32618500  0.38917000  0.44857100  1
  I  I9  1  0.50000000  0.00000000  0.00000000  1
  I  I10  1  0.00000000  0.00000000  0.00000000  1
  I  I11  1  0.13408000  0.73095000  0.55857600  1
  I  I12  1  0.53582000  0.79151100  0.65612800  1
  I  I13  1  0.65386000  0.06255800  0.80093100  1
  I  I14  1  0.18360600  0.03702600  0.82285000  1
  I  I15  1  0.45838600  0.53175900  0.28796700  1
  I  I16  1  0.39217600  0.75126400  0.39907600  1
  I  I17  1  0.77272700  0.80920200  0.38170100  1
  I  I18  1  0.94160800  0.31134900  0.83005600  1
  I  I19  1  0.29847200  0.98173800  0.48847800  1
  I  I20  1  0.70152800  0.01826200  0.51152200  1
  I  I21  1  0.05839200  0.68865100  0.16994400  1
  I  I22  1  0.22727300  0.19079800  0.61829900  1
  I  I23  1  0.60782400  0.24873600  0.60092400  1
  I  I24  1  0.54161400  0.46824100  0.71203300  1
  I  I25  1  0.81639400  0.96297400  0.17715000  1
  I  I26  1  0.34614000  0.93744200  0.19906900  1
  I  I27  1  0.46418000  0.20848900  0.34387200  1
  I  I28  1  0.86592000  0.26905000  0.44142400  1
  I  I29  1  0.67381500  0.61083000  0.55142900  1
  I  I30  1  0.80067700  0.20627200  0.02805500  1
  I  I31  1  0.34069500  0.19460300  0.07372200  1
  I  I32  1  0.65131400  0.37740300  0.20486500  1
  I  I33  1  0.00284100  0.39416900  0.21038400  1
  I  I34  1  0.93427200  0.57204500  0.36208200  1
  I  I35  1  0.89498100  0.84695200  0.68269700  1
  I  I36  1  0.75810100  0.49648900  0.97529900  1
  I  I37  1  0.66100600  0.66315800  0.13956600  1
loop_
_geom_bond_atom_site_label_1
_geom_bond_atom_site_label_2
_geom_bond_distance
_geom_bond_site_symmetry_2
Ba0 I24 3.475990 1_555
Ba0 I11 3.495200 1_555
Ba0 I12 3.526967 1_555
Ba0 I8 3.573202 1_555
Ba0 I16 3.760087 1_555
Ba0 I5 3.832523 1_555
Ba0 I29 4.028072 1_555
Ba0 I3 4.060262 1_555
Ba1 I11 3.431352 1_555
Ba1 I7 3.491258 1_555
Ba1 I35 3.491573 1_455
Ba1 I5 3.546001 1_555
Ba1 I4 3.579874 1_455
Ba1 I14 3.622510 1_565
Ba2 I15 3.428655 1_555
Ba2 I33 3.434146 1_555
Ba2 I31 3.469363 1_555
Ba2 I27 3.507270 1_555
Ba2 I1 3.732732 1_555
Ba2 I2 3.801510 1_555
Ba2 I8 4.065284 1_555
Ba3 I24 3.390564 1_555
Ba3 I13 3.512825 1_555
Ba3 I30 3.559433 1_556
Ba3 I0 3.626056 1_555
Ba3 I36 3.838051 1_555
Ba3 I18 3.887367 1_555
Ba3 I23 3.907022 1_555
Ba4 I28 3.487608 1_555
Ba4 I18 3.583127 1_555
Ba4 I3 3.587273 1_655
Ba4 I22 3.596560 1_655
Ba4 I20 3.633407 1_555
Ba4 I23 4.010295 1_555
Ba4 I14 4.232135 1_655
Ba5 I11 3.487608 1_555
Ba5 I21 3.583127 1_555
Ba5 I34 3.587273 1_455
Ba5 I17 3.596560 1_455
Ba5 I19 3.633407 1_555
Ba5 I16 4.010295 1_555
Ba5 I25 4.232135 1_455
Ba6 I15 3.390564 1_555
Ba6 I26 3.512825 1_555
Ba6 I7 3.559433 1_554
Ba6 I37 3.626056 1_555
Ba6 I1 3.838051 1_555
Ba6 I21 3.887367 1_555
Ba6 I16 3.907022 1_555
Ba7 I24 3.428655 1_555
Ba7 I4 3.434146 1_555
Ba7 I6 3.469363 1_555
Ba7 I12 3.507270 1_555
Ba7 I36 3.732732 1_555
Ba7 I35 3.801510 1_555
Ba7 I29 4.065284 1_555
Ba8 I28 3.431352 1_555
Ba8 I30 3.491258 1_555
Ba8 I2 3.491573 1_655
Ba8 I32 3.546001 1_555
Ba8 I33 3.579874 1_655
Ba8 I25 3.622510 1_545
Ba9 I15 3.475990 1_555
Ba9 I28 3.495200 1_555
Ba9 I27 3.526967 1_555
Ba9 I29 3.573202 1_555
Ba9 I23 3.760087 1_555
Ba9 I32 3.832523 1_555
Ba9 I8 4.028072 1_555
Ba9 I34 4.060262 1_555
I0 Y0 2.959298 1_555
I1 Y0 3.094403 1_554
I2 Y3 3.086272 1_555
I3 Y0 3.064132 1_555
I4 Y0 3.088345 1_655
I5 Y0 3.082936 1_555
I6 Y1 2.964429 1_555
I7 Y4 3.092946 1_566
I8 Y3 3.069534 1_555
I9 Y1 2.978610 1_544
I9 Y4 2.978610 1_555
I10 Y4 2.955607 1_555
I10 Y1 2.955607 1_444
I12 Y2 3.121554 1_555
I13 Y1 3.029655 1_545
I14 Y4 3.083777 1_556
I16 Y2 3.161281 1_555
I17 Y2 2.989092 1_555
I18 Y0 3.097822 1_655
I19 Y3 2.979414 1_565
I20 Y2 2.979414 1_545
I21 Y5 3.097822 1_455
I22 Y3 2.989092 1_555
I23 Y3 3.161281 1_555
I25 Y1 3.083777 1_554
I26 Y4 3.029655 1_565
I27 Y3 3.121554 1_555
I29 Y2 3.069534 1_555
I30 Y1 3.092946 1_544
I31 Y4 2.964429 1_555
I32 Y5 3.082936 1_555
I33 Y5 3.088345 1_455
I34 Y5 3.064132 1_555
I35 Y2 3.086272 1_555
I36 Y5 3.094403 1_556
I37 Y5 2.959298 1_555
