# generated using pymatgen
data_Sm6Al43Cr4
_symmetry_space_group_name_H-M   'P 1'
_cell_length_a   10.99659266
_cell_length_b   10.99559237
_cell_length_c   17.67761270
_cell_angle_alpha   89.99998916
_cell_angle_beta   90.00002175
_cell_angle_gamma   120.00301037
_symmetry_Int_Tables_number   1
_chemical_formula_structural   Sm6Al43Cr4
_chemical_formula_sum   'Sm12 Al86 Cr8'
_cell_volume   1851.04868279
_cell_formula_units_Z   2
loop_
 _symmetry_equiv_pos_site_id
 _symmetry_equiv_pos_as_xyz
  1  'x, y, z'
loop_
 _atom_site_type_symbol
 _atom_site_label
 _atom_site_symmetry_multiplicity
 _atom_site_fract_x
 _atom_site_fract_y
 _atom_site_fract_z
 _atom_site_occupancy
  Sm  Sm0  1  0.52937544  1.00000000  0.59547325  1
  Sm  Sm1  1  0.47062627  0.47063058  0.59548282  1
  Sm  Sm2  1  0.99999568  0.52936942  0.59548282  1
  Sm  Sm3  1  0.47062456  0.00000000  0.40452675  1
  Sm  Sm4  1  0.52937373  0.52936942  0.40451718  1
  Sm  Sm5  1  0.00000432  0.47063058  0.40451718  1
  Sm  Sm6  1  0.47062398  0.00000000  0.09547675  1
  Sm  Sm7  1  0.52937509  0.52937123  0.09548714  1
  Sm  Sm8  1  0.00000386  0.47062877  0.09548714  1
  Sm  Sm9  1  0.52937602  1.00000000  0.90452325  1
  Sm  Sm10  1  0.47062491  0.47062877  0.90451286  1
  Sm  Sm11  1  0.99999614  0.52937123  0.90451286  1
  Al  Al0  1  0.15811344  0.38977344  0.66655415  1
  Al  Al1  1  0.23164176  0.84190581  0.66655543  1
  Al  Al2  1  0.61028736  0.76835225  0.66654735  1
  Al  Al3  1  0.76834000  0.61022656  0.66655415  1
  Al  Al4  1  0.38973595  0.15809419  0.66655543  1
  Al  Al5  1  0.84193511  0.23164775  0.66654735  1
  Al  Al6  1  0.84188656  0.61022656  0.33344585  1
  Al  Al7  1  0.76835824  0.15809419  0.33344457  1
  Al  Al8  1  0.38971264  0.23164775  0.33345265  1
  Al  Al9  1  0.23166000  0.38977344  0.33344585  1
  Al  Al10  1  0.61026405  0.84190581  0.33344457  1
  Al  Al11  1  0.15806489  0.76835225  0.33345265  1
  Al  Al12  1  0.84188585  0.61022592  0.16655457  1
  Al  Al13  1  0.76835823  0.15809491  0.16655576  1
  Al  Al14  1  0.38971328  0.23164762  0.16654775  1
  Al  Al15  1  0.23165993  0.38977408  0.16655457  1
  Al  Al16  1  0.61026332  0.84190509  0.16655576  1
  Al  Al17  1  0.15806566  0.76835238  0.16654775  1
  Al  Al18  1  0.15811415  0.38977408  0.83344543  1
  Al  Al19  1  0.23164177  0.84190509  0.83344424  1
  Al  Al20  1  0.61028672  0.76835238  0.83345225  1
  Al  Al21  1  0.76834007  0.61022592  0.83344543  1
  Al  Al22  1  0.38973668  0.15809491  0.83344424  1
  Al  Al23  1  0.84193434  0.23164762  0.83345225  1
  Al  Al24  1  0.15469448  0.00000000  0.11574365  1
  Al  Al25  1  0.84523869  0.84526232  0.11575997  1
  Al  Al26  1  0.99997637  0.15473768  0.11575997  1
  Al  Al27  1  0.84530552  1.00000000  0.88425635  1
  Al  Al28  1  0.15476131  0.15473768  0.88424003  1
  Al  Al29  1  0.00002363  0.84526232  0.88424003  1
  Al  Al30  1  0.84530885  1.00000000  0.61574196  1
  Al  Al31  1  0.15475809  0.15473434  0.61575827  1
  Al  Al32  1  0.00002376  0.84526566  0.61575827  1
  Al  Al33  1  0.15469115  0.00000000  0.38425804  1
  Al  Al34  1  0.84524191  0.84526566  0.38424173  1
  Al  Al35  1  0.99997624  0.15473434  0.38424173  1
  Al  Al36  1  0.24910657  0.00000000  0.53110316  1
  Al  Al37  1  0.75089865  0.75090124  0.53110442  1
  Al  Al38  1  0.99999741  0.24909876  0.53110442  1
  Al  Al39  1  0.75089343  1.00000000  0.46889684  1
  Al  Al40  1  0.24910135  0.24909876  0.46889558  1
  Al  Al41  1  0.00000259  0.75090124  0.46889558  1
  Al  Al42  1  0.75089078  1.00000000  0.03110314  1
  Al  Al43  1  0.24910399  0.24910129  0.03110446  1
  Al  Al44  1  0.00000270  0.75089871  0.03110446  1
  Al  Al45  1  0.24910922  0.00000000  0.96889686  1
  Al  Al46  1  0.75089601  0.75089871  0.96889554  1
  Al  Al47  1  0.99999730  0.24910129  0.96889554  1
  Al  Al48  1  0.14438960  0.59841264  0.75000006  1
  Al  Al49  1  0.45411287  0.85561604  0.75000006  1
  Al  Al50  1  0.40159910  0.54601807  0.75000001  1
  Al  Al51  1  0.54597695  0.40158736  0.75000006  1
  Al  Al52  1  0.59849683  0.14438396  0.75000006  1
  Al  Al53  1  0.85558102  0.45398193  0.75000001  1
  Al  Al54  1  0.85561040  0.40158736  0.24999994  1
  Al  Al55  1  0.54588713  0.14438396  0.24999994  1
  Al  Al56  1  0.59840090  0.45398193  0.24999999  1
  Al  Al57  1  0.45402305  0.59841264  0.24999994  1
  Al  Al58  1  0.40150317  0.85561604  0.24999994  1
  Al  Al59  1  0.14441898  0.54601807  0.24999999  1
  Al  Al60  1  0.24708782  0.49417565  0.50000000  1
  Al  Al61  1  0.24708926  0.75290077  0.50000810  1
  Al  Al62  1  0.50581151  0.75290077  0.49999190  1
  Al  Al63  1  0.75291218  0.50582435  0.50000000  1
  Al  Al64  1  0.49418849  0.24709923  0.50000810  1
  Al  Al65  1  0.75291074  0.24709923  0.49999190  1
  Al  Al66  1  0.75291210  0.50582420  0.00000000  1
  Al  Al67  1  0.75291074  0.24709934  0.00000822  1
  Al  Al68  1  0.49418860  0.24709934  0.99999178  1
  Al  Al69  1  0.24708790  0.49417580  -0.00000000  1
  Al  Al70  1  0.50581140  0.75290066  0.00000822  1
  Al  Al71  1  0.24708926  0.75290066  0.99999178  1
  Al  Al72  1  0.33336734  0.66671289  0.62843400  1
  Al  Al73  1  0.66665445  0.33328711  0.62843400  1
  Al  Al74  1  0.66663266  0.33328711  0.37156600  1
  Al  Al75  1  0.33334555  0.66671289  0.37156600  1
  Al  Al76  1  0.66663282  0.33328713  0.12843420  1
  Al  Al77  1  0.33334569  0.66671287  0.12843420  1
  Al  Al78  1  0.33336718  0.66671287  0.87156580  1
  Al  Al79  1  0.66665431  0.33328713  0.87156580  1
  Al  Al80  1  0.14457796  1.00000000  0.74999930  1
  Al  Al81  1  0.85554048  0.85541833  0.74999936  1
  Al  Al82  1  0.00012215  0.14458167  0.74999936  1
  Al  Al83  1  0.85542204  0.00000000  0.25000070  1
  Al  Al84  1  0.14445952  0.14458167  0.25000064  1
  Al  Al85  1  0.99987785  0.85541833  0.25000064  1
  Cr  Cr0  1  0.73408968  0.00000000  0.75002194  1
  Cr  Cr1  1  0.26566782  0.26569452  0.74998311  1
  Cr  Cr2  1  0.99997330  0.73430548  0.74998311  1
  Cr  Cr3  1  0.26591032  1.00000000  0.24997806  1
  Cr  Cr4  1  0.73433218  0.73430548  0.25001689  1
  Cr  Cr5  1  0.00002670  0.26569452  0.25001689  1
  Cr  Cr6  1  -0.00000000  -0.00000000  0.50000000  1
  Cr  Cr7  1  -0.00000000  -0.00000000  0.00000000  1
loop_
_geom_bond_atom_site_label_1
_geom_bond_atom_site_label_2
_geom_bond_distance
_geom_bond_site_symmetry_2
Sm0 Sm3 3.436749 1_565
Sm1 Sm4 3.437055 1_555
Sm2 Sm5 3.437055 1_655
Sm6 Sm9 3.436874 1_544
Sm10 Sm7 3.437211 1_556
Sm11 Sm8 3.437211 1_656
Al0 Cr1 2.655015 1_555
Al0 Al31 2.718714 1_555
Al0 Al72 2.751698 1_555
Al0 Al50 2.774203 1_555
Al0 Al82 2.789006 1_555
Al0 Al48 2.794274 1_555
Al0 Al38 2.908498 1_455
Al0 Al18 2.950239 1_555
Al0 Al5 3.010979 1_455
Al0 Sm2 3.102727 1_455
Al0 Al60 3.133786 1_555
Al0 Sm1 3.335167 1_555
Al1 Cr2 2.655287 1_455
Al1 Al32 2.718285 1_555
Al1 Al72 2.751615 1_555
Al1 Al48 2.774102 1_555
Al1 Al80 2.789047 1_555
Al1 Al49 2.795497 1_555
Al1 Al36 2.908319 1_565
Al1 Al19 2.950196 1_555
Al1 Al4 3.010801 1_565
Al1 Sm0 3.102947 1_555
Al1 Al61 3.133843 1_555
Al1 Sm2 3.335016 1_455
Al2 Cr0 2.655315 1_565
Al2 Al30 2.718499 1_555
Al2 Al72 2.751815 1_555
Al2 Al49 2.773888 1_555
Al2 Al81 2.790019 1_555
Al2 Al50 2.794373 1_555
Al2 Al37 2.908115 1_555
Al2 Al20 2.950480 1_555
Al2 Al3 3.010979 1_555
Al2 Sm1 3.102480 1_555
Al2 Al62 3.134086 1_555
Al2 Sm0 3.335341 1_555
Al3 Cr2 2.655015 1_555
Al3 Al32 2.718714 1_655
Al3 Al73 2.751698 1_555
Al3 Al53 2.774203 1_555
Al3 Al81 2.789006 1_555
Al3 Al51 2.794274 1_555
Al3 Al37 2.908498 1_555
Al3 Sm1 3.102727 1_555
Al3 Al63 3.133786 1_555
Al3 Sm2 3.335166 1_555
Al4 Cr1 2.655287 1_555
Al4 Al73 2.751615 1_555
Al4 Al51 2.774102 1_555
Al4 Al80 2.789047 1_545
Al4 Al52 2.795497 1_555
Al4 Sm0 3.102947 1_545
Al4 Al64 3.133843 1_555
Al4 Sm1 3.335016 1_555
Al5 Cr0 2.655315 1_555
Al5 Al73 2.751815 1_555
Al5 Al52 2.773888 1_555
Al5 Al82 2.790019 1_655
Al5 Al53 2.794373 1_555
Al5 Sm2 3.102480 1_555
Al5 Al65 3.134086 1_555
Al5 Sm0 3.335341 1_545
Al6 Cr4 2.655015 1_555
Al6 Al74 2.751698 1_555
Al6 Al85 2.789006 1_555
Al6 Sm5 3.102727 1_655
Al6 Al63 3.133786 1_555
Al6 Sm4 3.335167 1_555
Al7 Cr5 2.655287 1_655
Al7 Al74 2.751615 1_555
Al7 Al83 2.789047 1_555
Al7 Sm3 3.102947 1_555
Al7 Sm5 3.335016 1_655
Al8 Cr3 2.655315 1_545
Al8 Al84 2.790019 1_555
Al8 Al9 3.010979 1_555
Al8 Sm4 3.102480 1_555
Al8 Sm3 3.335341 1_555
Al9 Cr5 2.655015 1_555
Al9 Sm4 3.102727 1_555
Al9 Sm5 3.335166 1_555
Al10 Cr4 2.655287 1_555
Al10 Al34 2.718286 1_555
Al10 Al75 2.751615 1_555
Al10 Al57 2.774102 1_555
Al10 Al83 2.789047 1_565
Al10 Al58 2.795497 1_555
Al10 Al39 2.908319 1_555
Al10 Al16 2.950196 1_555
Al10 Al7 3.010801 1_565
Al10 Sm3 3.102947 1_565
Al10 Al62 3.133843 1_555
Al10 Sm4 3.335016 1_555
Al11 Cr3 2.655315 1_555
Al11 Al33 2.718499 1_565
Al11 Al75 2.751815 1_555
Al11 Al58 2.773888 1_555
Al11 Al85 2.790019 1_455
Al11 Al59 2.794373 1_555
Al11 Al41 2.908115 1_555
Al11 Al17 2.950480 1_555
Al11 Al6 3.010979 1_455
Al11 Sm5 3.102480 1_555
Al11 Al61 3.134086 1_555
Al11 Sm3 3.335341 1_565
Al12 Cr4 2.655343 1_555
Al12 Al25 2.718690 1_555
Al12 Al76 2.751692 1_555
Al12 Al56 2.774193 1_555
Al12 Al85 2.789019 1_555
Al12 Al54 2.794266 1_555
Al12 Al44 2.908502 1_655
Al12 Al6 2.950239 1_555
Al12 Al17 3.010993 1_655
Al12 Sm8 3.102712 1_655
Al12 Al66 3.133791 1_555
Al12 Sm7 3.335126 1_555
Al13 Cr5 2.655615 1_655
Al13 Al26 2.718266 1_555
Al13 Al76 2.751606 1_555
Al13 Al54 2.774092 1_555
Al13 Al83 2.789062 1_555
Al13 Al55 2.795491 1_555
Al13 Al42 2.908323 1_545
Al13 Al7 2.950196 1_555
Al13 Al16 3.010814 1_545
Al13 Sm6 3.102929 1_555
Al13 Al67 3.133844 1_555
Al13 Sm8 3.334970 1_655
Al14 Cr3 2.654879 1_545
Al14 Al24 2.718476 1_555
Al14 Al76 2.751811 1_555
Al14 Al55 2.773876 1_555
Al14 Al84 2.790034 1_555
Al14 Al56 2.794367 1_555
Al14 Al43 2.908116 1_555
Al14 Al8 2.950480 1_555
Al14 Al15 3.010993 1_555
Al14 Sm7 3.102469 1_555
Al14 Al68 3.134093 1_554
Al14 Sm6 3.335311 1_555
Al15 Cr5 2.655343 1_555
Al15 Al26 2.718690 1_455
Al15 Al77 2.751692 1_555
Al15 Al59 2.774193 1_555
Al15 Al84 2.789019 1_555
Al15 Al57 2.794266 1_555
Al15 Al43 2.908502 1_555
Al15 Al9 2.950239 1_555
Al15 Sm7 3.102712 1_555
Al15 Al69 3.133791 1_555
Al15 Sm8 3.335126 1_555
Al16 Cr4 2.655615 1_555
Al16 Al25 2.718266 1_555
Al16 Al77 2.751606 1_555
Al16 Al57 2.774092 1_555
Al16 Al83 2.789062 1_565
Al16 Al58 2.795491 1_555
Al16 Al42 2.908323 1_555
Al16 Sm6 3.102929 1_565
Al16 Al70 3.133844 1_555
Al16 Sm7 3.334970 1_555
Al17 Cr3 2.654879 1_555
Al17 Al24 2.718477 1_565
Al17 Al77 2.751811 1_555
Al17 Al58 2.773876 1_555
Al17 Al85 2.790034 1_455
Al17 Al59 2.794367 1_555
Al17 Al44 2.908116 1_555
Al17 Sm8 3.102469 1_555
Al17 Al71 3.134093 1_554
Al17 Sm6 3.335311 1_565
Al18 Cr1 2.655343 1_555
Al18 Al28 2.718690 1_555
Al18 Al78 2.751692 1_555
Al18 Al50 2.774193 1_555
Al18 Al82 2.789019 1_555
Al18 Al48 2.794266 1_555
Al18 Al47 2.908502 1_455
Al18 Al23 3.010993 1_455
Al18 Sm11 3.102712 1_455
Al18 Al69 3.133791 1_556
Al18 Sm10 3.335126 1_555
Al19 Cr2 2.655615 1_455
Al19 Al29 2.718266 1_555
Al19 Al78 2.751606 1_555
Al19 Al48 2.774092 1_555
Al19 Al80 2.789062 1_555
Al19 Al49 2.795491 1_555
Al19 Al45 2.908323 1_565
Al19 Al22 3.010814 1_565
Al19 Sm9 3.102929 1_555
Al19 Al71 3.133844 1_555
Al19 Sm11 3.334970 1_455
Al20 Cr0 2.654879 1_565
Al20 Al27 2.718476 1_555
Al20 Al78 2.751811 1_555
Al20 Al49 2.773876 1_555
Al20 Al81 2.790034 1_555
Al20 Al50 2.794367 1_555
Al20 Al46 2.908116 1_555
Al20 Al21 3.010993 1_555
Al20 Sm10 3.102469 1_555
Al20 Al70 3.134093 1_556
Al20 Sm9 3.335311 1_555
Al21 Cr2 2.655343 1_555
Al21 Al29 2.718690 1_655
Al21 Al79 2.751692 1_555
Al21 Al53 2.774193 1_555
Al21 Al81 2.789019 1_555
Al21 Al51 2.794266 1_555
Al21 Al46 2.908502 1_555
Al21 Al3 2.950239 1_555
Al21 Sm10 3.102712 1_555
Al21 Al66 3.133791 1_556
Al21 Sm11 3.335126 1_555
Al22 Cr1 2.655615 1_555
Al22 Al28 2.718266 1_555
Al22 Al79 2.751606 1_555
Al22 Al51 2.774092 1_555
Al22 Al80 2.789062 1_545
Al22 Al52 2.795491 1_555
Al22 Al45 2.908323 1_555
Al22 Al4 2.950196 1_555
Al22 Sm9 3.102929 1_545
Al22 Al68 3.133844 1_555
Al22 Sm10 3.334970 1_555
Al23 Cr0 2.654879 1_555
Al23 Al27 2.718477 1_545
Al23 Al79 2.751811 1_555
Al23 Al52 2.773876 1_555
Al23 Al82 2.790034 1_655
Al23 Al53 2.794367 1_555
Al23 Al47 2.908116 1_555
Al23 Al5 2.950480 1_555
Al23 Sm11 3.102469 1_555
Al23 Al67 3.134093 1_556
Al23 Sm9 3.335311 1_545
Al24 Cr7 2.660862 1_555
Al24 Cr3 2.669565 1_545
Al24 Al45 2.795826 1_554
Al24 Al44 2.823977 1_545
Al24 Al43 2.823977 1_555
Al24 Al85 2.889933 1_445
Al24 Al84 2.889933 1_555
Al24 Al25 2.946960 1_445
Al24 Al26 2.946960 1_455
Al24 Sm6 3.492573 1_555
Al25 Cr7 2.661373 1_665
Al25 Cr4 2.668439 1_555
Al25 Al46 2.795829 1_554
Al25 Al42 2.824234 1_555
Al25 Al44 2.824624 1_655
Al25 Al85 2.888885 1_555
Al25 Al83 2.889335 1_565
Al25 Al26 2.946878 1_565
Al25 Sm7 3.491698 1_555
Al26 Cr7 2.661373 1_655
Al26 Cr5 2.668439 1_655
Al26 Al47 2.795829 1_554
Al26 Al42 2.824234 1_545
Al26 Al43 2.824624 1_655
Al26 Al84 2.888885 1_655
Al26 Al83 2.889335 1_555
Al26 Sm8 3.491698 1_655
Al27 Cr7 2.660862 1_666
Al27 Cr0 2.669565 1_565
Al27 Al42 2.795826 1_556
Al27 Al47 2.823977 1_565
Al27 Al46 2.823977 1_555
Al27 Al82 2.889933 1_665
Al27 Al81 2.889933 1_555
Al27 Al28 2.946960 1_665
Al27 Al29 2.946960 1_655
Al27 Sm9 3.492573 1_555
Al28 Cr7 2.661373 1_556
Al28 Cr1 2.668439 1_555
Al28 Al43 2.795829 1_556
Al28 Al45 2.824234 1_555
Al28 Al47 2.824624 1_455
Al28 Al82 2.888885 1_555
Al28 Al80 2.889335 1_545
Al28 Al29 2.946878 1_545
Al28 Sm10 3.491698 1_555
Al29 Cr7 2.661373 1_566
Al29 Cr2 2.668439 1_455
Al29 Al44 2.795829 1_556
Al29 Al45 2.824234 1_565
Al29 Al46 2.824624 1_455
Al29 Al81 2.888885 1_455
Al29 Al80 2.889335 1_555
Al29 Sm11 3.491698 1_455
Al30 Cr6 2.660817 1_665
Al30 Cr0 2.670299 1_565
Al30 Al5 2.718499 1_565
Al30 Al39 2.795801 1_555
Al30 Al38 2.823939 1_565
Al30 Al37 2.823939 1_555
Al30 Al82 2.889926 1_665
Al30 Al81 2.889926 1_555
Al30 Al31 2.946897 1_665
Al30 Al32 2.946898 1_655
Al30 Sm0 3.492618 1_555
Al31 Cr6 2.661326 1_555
Al31 Cr1 2.667951 1_555
Al31 Al4 2.718286 1_555
Al31 Al40 2.795804 1_555
Al31 Al36 2.824194 1_555
Al31 Al38 2.824585 1_455
Al31 Al82 2.888881 1_555
Al31 Al80 2.889327 1_545
Al31 Al32 2.946814 1_545
Al31 Sm1 3.491756 1_555
Al32 Cr6 2.661326 1_565
Al32 Cr2 2.667951 1_455
Al32 Al41 2.795804 1_555
Al32 Al36 2.824194 1_565
Al32 Al37 2.824585 1_455
Al32 Al81 2.888881 1_455
Al32 Al80 2.889327 1_555
Al32 Sm2 3.491756 1_455
Al33 Cr6 2.660817 1_555
Al33 Cr3 2.670299 1_545
Al33 Al8 2.718499 1_555
Al33 Al36 2.795801 1_555
Al33 Al41 2.823939 1_545
Al33 Al40 2.823939 1_555
Al33 Al85 2.889926 1_445
Al33 Al84 2.889926 1_555
Al33 Al34 2.946897 1_445
Al33 Al35 2.946898 1_455
Al33 Sm3 3.492618 1_555
Al34 Cr6 2.661326 1_665
Al34 Cr4 2.667951 1_555
Al34 Al6 2.718714 1_555
Al34 Al37 2.795804 1_555
Al34 Al39 2.824194 1_555
Al34 Al41 2.824585 1_655
Al34 Al85 2.888881 1_555
Al34 Al83 2.889327 1_565
Al34 Al35 2.946814 1_565
Al34 Sm4 3.491756 1_555
Al35 Cr6 2.661326 1_655
Al35 Cr5 2.667951 1_655
Al35 Al7 2.718285 1_555
Al35 Al9 2.718714 1_655
Al35 Al38 2.795804 1_555
Al35 Al39 2.824194 1_545
Al35 Al40 2.824585 1_655
Al35 Al84 2.888881 1_655
Al35 Al83 2.889327 1_555
Al35 Sm5 3.491756 1_655
Al36 Al64 2.761245 1_555
Al36 Al61 2.761245 1_545
Al36 Cr6 2.793959 1_555
Al36 Al4 2.908319 1_555
Al36 Al41 2.951527 1_545
Al36 Al40 2.951527 1_555
Al36 Sm0 3.285358 1_545
Al36 Sm3 3.307648 1_555
Al37 Al63 2.761207 1_555
Al37 Al62 2.761508 1_555
Al37 Cr6 2.793649 1_665
Al37 Al39 2.951527 1_555
Al37 Al41 2.951794 1_655
Al37 Sm1 3.285174 1_555
Al37 Sm4 3.307698 1_555
Al38 Al60 2.761207 1_655
Al38 Al65 2.761508 1_555
Al38 Cr6 2.793649 1_655
Al38 Al5 2.908115 1_555
Al38 Al39 2.951527 1_545
Al38 Al40 2.951794 1_655
Al38 Sm2 3.285174 1_555
Al38 Sm5 3.307698 1_655
Al39 Al62 2.761245 1_555
Al39 Al65 2.761245 1_565
Al39 Cr6 2.793959 1_665
Al39 Al7 2.908319 1_565
Al39 Sm3 3.285358 1_565
Al39 Sm0 3.307648 1_555
Al40 Al60 2.761207 1_555
Al40 Al64 2.761508 1_555
Al40 Cr6 2.793649 1_555
Al40 Al8 2.908115 1_555
Al40 Al9 2.908498 1_555
Al40 Sm4 3.285174 1_555
Al40 Sm1 3.307698 1_555
Al41 Al63 2.761207 1_455
Al41 Al61 2.761508 1_555
Al41 Cr6 2.793649 1_565
Al41 Al6 2.908498 1_455
Al41 Sm5 3.285174 1_555
Al41 Sm2 3.307698 1_455
Al42 Al70 2.761231 1_555
Al42 Al67 2.761231 1_565
Al42 Cr7 2.793987 1_665
Al42 Al47 2.951554 1_564
Al42 Al46 2.951554 1_554
Al42 Sm6 3.285359 1_565
Al42 Sm9 3.307662 1_554
Al43 Al69 2.761195 1_555
Al43 Al68 2.761495 1_554
Al43 Cr7 2.793677 1_555
Al43 Al45 2.951554 1_554
Al43 Al47 2.951821 1_454
Al43 Sm7 3.285189 1_555
Al43 Sm10 3.307717 1_554
Al44 Al66 2.761195 1_455
Al44 Al71 2.761495 1_554
Al44 Cr7 2.793677 1_565
Al44 Al45 2.951554 1_564
Al44 Al46 2.951821 1_454
Al44 Sm8 3.285189 1_555
Al44 Sm11 3.307717 1_454
Al45 Al68 2.761231 1_555
Al45 Al71 2.761231 1_545
Al45 Cr7 2.793987 1_556
Al45 Sm9 3.285359 1_545
Al45 Sm6 3.307662 1_556
Al46 Al66 2.761195 1_556
Al46 Al70 2.761495 1_556
Al46 Cr7 2.793677 1_666
Al46 Sm10 3.285189 1_555
Al46 Sm7 3.307717 1_556
Al47 Al69 2.761195 1_656
Al47 Al67 2.761495 1_556
Al47 Cr7 2.793677 1_656
Al47 Sm11 3.285189 1_555
Al47 Sm8 3.307717 1_656
Al48 Cr2 2.669811 1_455
Al48 Al53 2.750336 1_455
Al48 Al78 2.817783 1_555
Al48 Al72 2.817789 1_555
Al48 Sm11 3.058212 1_455
Al48 Sm2 3.058283 1_455
Al49 Cr0 2.666663 1_565
Al49 Al52 2.749698 1_565
Al49 Al78 2.817329 1_555
Al49 Al72 2.817333 1_555
Al49 Sm9 3.058267 1_555
Al49 Sm0 3.058324 1_555
Al50 Cr1 2.669695 1_555
Al50 Al51 2.750335 1_555
Al50 Al78 2.817485 1_555
Al50 Al72 2.817486 1_555
Al50 Sm10 3.058305 1_555
Al50 Sm1 3.058372 1_555
Al51 Cr1 2.669811 1_555
Al51 Al79 2.817783 1_555
Al51 Al73 2.817789 1_555
Al51 Sm10 3.058212 1_555
Al51 Sm1 3.058283 1_555
Al52 Cr0 2.666663 1_555
Al52 Al79 2.817329 1_555
Al52 Al73 2.817333 1_555
Al52 Sm9 3.058267 1_545
Al52 Sm0 3.058324 1_545
Al53 Cr2 2.669695 1_555
Al53 Al79 2.817485 1_555
Al53 Al73 2.817486 1_555
Al53 Sm11 3.058305 1_555
Al53 Sm2 3.058372 1_555
Al54 Cr5 2.669811 1_655
Al54 Al59 2.750336 1_655
Al54 Al7 2.774102 1_555
Al54 Al6 2.794274 1_555
Al54 Al76 2.817783 1_555
Al54 Al74 2.817789 1_555
Al54 Sm8 3.058212 1_655
Al54 Sm5 3.058283 1_655
Al55 Cr3 2.666663 1_545
Al55 Al58 2.749698 1_545
Al55 Al8 2.773888 1_555
Al55 Al7 2.795497 1_555
Al55 Al76 2.817329 1_555
Al55 Al74 2.817333 1_555
Al55 Sm6 3.058267 1_555
Al55 Sm3 3.058324 1_555
Al56 Cr4 2.669695 1_555
Al56 Al57 2.750335 1_555
Al56 Al6 2.774203 1_555
Al56 Al8 2.794373 1_555
Al56 Al76 2.817485 1_555
Al56 Al74 2.817486 1_555
Al56 Sm7 3.058305 1_555
Al56 Sm4 3.058372 1_555
Al57 Cr4 2.669811 1_555
Al57 Al9 2.794274 1_555
Al57 Al77 2.817783 1_555
Al57 Al75 2.817789 1_555
Al57 Sm7 3.058212 1_555
Al57 Sm4 3.058283 1_555
Al58 Cr3 2.666663 1_555
Al58 Al77 2.817329 1_555
Al58 Al75 2.817333 1_555
Al58 Sm6 3.058267 1_565
Al58 Sm3 3.058324 1_565
Al59 Cr5 2.669695 1_555
Al59 Al9 2.774203 1_555
Al59 Al77 2.817485 1_555
Al59 Al75 2.817486 1_555
Al59 Sm8 3.058305 1_555
Al59 Sm5 3.058372 1_555
Al60 Al72 2.802492 1_555
Al60 Al75 2.802492 1_555
Al60 Al61 2.844828 1_555
Al60 Al62 2.844828 1_555
Al60 Sm5 3.097591 1_555
Al60 Sm1 3.097591 1_555
Al60 Al9 3.133786 1_555
Al60 Sm4 3.381329 1_555
Al60 Sm2 3.381329 1_455
Al61 Al72 2.802066 1_555
Al61 Al75 2.802177 1_555
Al61 Al62 2.845063 1_555
Al61 Sm2 3.097364 1_455
Al61 Sm3 3.097433 1_565
Al61 Sm0 3.381006 1_555
Al61 Sm5 3.381028 1_555
Al62 Al75 2.802066 1_555
Al62 Al72 2.802177 1_555
Al62 Sm4 3.097364 1_555
Al62 Sm0 3.097433 1_555
Al62 Sm3 3.381006 1_565
Al62 Sm1 3.381028 1_555
Al63 Al74 2.802492 1_555
Al63 Al73 2.802492 1_555
Al63 Al65 2.844828 1_555
Al63 Al64 2.844828 1_555
Al63 Sm2 3.097591 1_555
Al63 Sm4 3.097591 1_555
Al63 Sm1 3.381329 1_555
Al63 Sm5 3.381329 1_655
Al64 Al73 2.802066 1_555
Al64 Al74 2.802177 1_555
Al64 Al65 2.845063 1_555
Al64 Sm1 3.097364 1_555
Al64 Sm3 3.097433 1_555
Al64 Al8 3.134086 1_555
Al64 Sm0 3.381006 1_545
Al64 Sm4 3.381028 1_555
Al65 Al74 2.802066 1_555
Al65 Al73 2.802177 1_555
Al65 Sm5 3.097364 1_655
Al65 Sm0 3.097433 1_545
Al65 Al7 3.133843 1_555
Al65 Sm3 3.381006 1_555
Al65 Sm2 3.381028 1_555
Al66 Al79 2.802494 1_554
Al66 Al76 2.802494 1_555
Al66 Al68 2.844826 1_554
Al66 Al67 2.844826 1_555
Al66 Sm11 3.097631 1_554
Al66 Sm7 3.097631 1_555
Al66 Sm10 3.381372 1_554
Al66 Sm8 3.381372 1_655
Al67 Al76 2.802066 1_555
Al67 Al79 2.802181 1_554
Al67 Al68 2.845062 1_554
Al67 Sm8 3.097394 1_655
Al67 Sm9 3.097466 1_544
Al67 Sm6 3.381040 1_555
Al67 Sm11 3.381079 1_554
Al68 Al79 2.802066 1_555
Al68 Al76 2.802181 1_556
Al68 Sm10 3.097394 1_555
Al68 Sm6 3.097466 1_556
Al68 Sm9 3.381040 1_545
Al68 Sm7 3.381079 1_556
Al69 Al77 2.802494 1_555
Al69 Al78 2.802494 1_554
Al69 Al70 2.844826 1_555
Al69 Al71 2.844826 1_554
Al69 Sm8 3.097631 1_555
Al69 Sm10 3.097631 1_554
Al69 Sm7 3.381372 1_555
Al69 Sm11 3.381372 1_454
Al70 Al77 2.802066 1_555
Al70 Al78 2.802181 1_554
Al70 Al71 2.845062 1_554
Al70 Sm7 3.097394 1_555
Al70 Sm9 3.097466 1_554
Al70 Sm6 3.381040 1_565
Al70 Sm10 3.381079 1_554
Al71 Al78 2.802066 1_555
Al71 Al77 2.802181 1_556
Al71 Sm11 3.097394 1_455
Al71 Sm6 3.097466 1_566
Al71 Sm9 3.381040 1_555
Al71 Sm8 3.381079 1_556
Al72 Sm0 3.242780 1_555
Al72 Sm1 3.243552 1_555
Al72 Sm2 3.243826 1_455
Al73 Sm0 3.242780 1_545
Al73 Sm2 3.243552 1_555
Al73 Sm1 3.243826 1_555
Al74 Al8 2.751815 1_555
Al74 Sm3 3.242780 1_555
Al74 Sm4 3.243552 1_555
Al74 Sm5 3.243826 1_655
Al75 Al9 2.751698 1_555
Al75 Sm3 3.242780 1_565
Al75 Sm5 3.243552 1_555
Al75 Sm4 3.243826 1_555
Al76 Sm6 3.242770 1_555
Al76 Sm7 3.243546 1_555
Al76 Sm8 3.243809 1_655
Al77 Sm6 3.242770 1_565
Al77 Sm8 3.243546 1_555
Al77 Sm7 3.243809 1_555
Al78 Sm9 3.242770 1_555
Al78 Sm10 3.243546 1_555
Al78 Sm11 3.243809 1_455
Al79 Sm9 3.242770 1_545
Al79 Sm11 3.243546 1_555
Al79 Sm10 3.243809 1_555
Al80 Cr2 2.533291 1_455
Al80 Cr1 2.533291 1_565
Al80 Al81 2.752515 1_455
Al80 Al82 2.752515 1_565
Al81 Cr2 2.532063 1_555
Al81 Cr0 2.536614 1_565
Al81 Al82 2.753463 1_665
Al82 Cr1 2.532063 1_555
Al82 Cr0 2.536614 1_455
Al83 Cr5 2.533291 1_655
Al83 Cr4 2.533291 1_545
Al83 Al84 2.752515 1_655
Al83 Al85 2.752515 1_545
Al84 Cr5 2.532063 1_555
Al84 Cr3 2.536614 1_545
Al84 Al85 2.753463 1_445
Al84 Al9 2.789006 1_555
Al85 Cr4 2.532063 1_555
Al85 Cr3 2.536614 1_655
Cr0 Sm9 3.539382 1_545
Cr0 Sm0 3.540031 1_545
Cr1 Sm1 3.540872 1_555
Cr1 Sm10 3.541262 1_555
Cr2 Sm2 3.540872 1_555
Cr2 Sm11 3.541262 1_555
Cr3 Sm6 3.539382 1_565
Cr3 Sm3 3.540031 1_565
Cr4 Sm4 3.540872 1_555
Cr4 Sm7 3.541262 1_555
Cr5 Sm5 3.540872 1_555
Cr5 Sm8 3.541262 1_555
