# generated using pymatgen
data_NdSm(FeO3)4
_symmetry_space_group_name_H-M   'P 1'
_cell_length_a   5.37419427
_cell_length_b   5.37419427
_cell_length_c   7.61742050
_cell_angle_alpha   90.00000000
_cell_angle_beta   90.00000000
_cell_angle_gamma   90.04339194
_symmetry_Int_Tables_number   1
_chemical_formula_structural   NdSm(FeO3)4
_chemical_formula_sum   'Nd1 Sm1 Fe4 O12'
_cell_volume   220.00600204
_cell_formula_units_Z   1
loop_
 _symmetry_equiv_pos_site_id
 _symmetry_equiv_pos_as_xyz
  1  'x, y, z'
loop_
 _atom_site_type_symbol
 _atom_site_label
 _atom_site_symmetry_multiplicity
 _atom_site_fract_x
 _atom_site_fract_y
 _atom_site_fract_z
 _atom_site_occupancy
  Nd  Nd0  1  0.50000000  0.50000000  -0.00000000  1
  Sm  Sm0  1  -0.00000000  -0.00000000  0.50000000  1
  Fe  Fe0  1  -0.00000000  0.50000000  0.25034126  1
  Fe  Fe1  1  -0.00000000  0.50000000  0.74965874  1
  Fe  Fe2  1  0.50000000  -0.00000000  0.25034126  1
  Fe  Fe3  1  0.50000000  -0.00000000  0.74965874  1
  O  O0  1  0.23896042  0.23896042  0.25208572  1
  O  O1  1  0.23896042  0.23896042  0.74791428  1
  O  O2  1  0.76103958  0.76103958  0.74791428  1
  O  O3  1  0.76103958  0.76103958  0.25208572  1
  O  O4  1  0.74072227  0.25927773  0.75011206  1
  O  O5  1  0.74072227  0.25927773  0.24988794  1
  O  O6  1  0.25927773  0.74072227  0.24988794  1
  O  O7  1  0.25927773  0.74072227  0.75011206  1
  O  O8  1  -0.00000000  0.50000000  0.00000000  1
  O  O9  1  -0.00000000  0.50000000  0.50000000  1
  O  O10  1  0.50000000  -0.00000000  -0.00000000  1
  O  O11  1  0.50000000  -0.00000000  0.50000000  1
loop_
_geom_bond_atom_site_label_1
_geom_bond_atom_site_label_2
_geom_bond_distance
_geom_bond_site_symmetry_2
Nd0 O4 2.640665 1_554
Nd0 O7 2.640665 1_554
Nd0 O5 2.640665 1_555
Nd0 O6 2.640665 1_555
Nd0 O8 2.687097 1_655
Nd0 O10 2.687097 1_555
Nd0 O10 2.687097 1_565
Nd0 O8 2.687097 1_555
Nd0 O1 2.760522 1_554
Nd0 O2 2.760522 1_554
Nd0 O0 2.760522 1_555
Nd0 O3 2.760522 1_555
Fe0 O6 1.900658 1_555
Fe0 O5 1.900658 1_455
Fe0 O9 1.901756 1_555
Fe0 O0 1.902680 1_555
Fe0 O3 1.902680 1_455
Fe0 O8 1.906955 1_555
Fe1 O4 1.900658 1_455
Fe1 O7 1.900658 1_555
Fe1 O9 1.901756 1_555
Fe1 O1 1.902680 1_555
Fe1 O2 1.902680 1_455
Fe1 O8 1.906955 1_556
Fe2 O6 1.900658 1_545
Fe2 O5 1.900658 1_555
Fe2 O11 1.901756 1_555
Fe2 O0 1.902680 1_555
Fe2 O3 1.902680 1_545
Fe2 O10 1.906955 1_555
Fe3 O7 1.900658 1_545
Fe3 O4 1.900658 1_555
Fe3 O11 1.901756 1_555
Fe3 O2 1.902680 1_545
Fe3 O1 1.902680 1_555
Fe3 O10 1.906955 1_556
O0 Sm0 2.619590 1_555
O1 Sm0 2.619590 1_555
O2 Sm0 2.619590 1_665
O3 Sm0 2.619590 1_665
O4 Sm0 2.741521 1_655
O5 Sm0 2.741521 1_655
O6 Sm0 2.741521 1_565
O7 Sm0 2.741521 1_565
O9 Sm0 2.687097 1_555
O9 Sm0 2.687097 1_565
O11 Sm0 2.687097 1_555
O11 Sm0 2.687097 1_655
