# generated using pymatgen
data_Ba2LaCrO6
_symmetry_space_group_name_H-M   'P 1'
_cell_length_a   8.50827911
_cell_length_b   8.50827911
_cell_length_c   8.50827911
_cell_angle_alpha   90.00000000
_cell_angle_beta   90.00000000
_cell_angle_gamma   90.00000000
_symmetry_Int_Tables_number   1
_chemical_formula_structural   Ba2LaCrO6
_chemical_formula_sum   'Ba8 La4 Cr4 O24'
_cell_volume   615.92124552
_cell_formula_units_Z   4
loop_
 _symmetry_equiv_pos_site_id
 _symmetry_equiv_pos_as_xyz
  1  'x, y, z'
loop_
 _atom_site_type_symbol
 _atom_site_label
 _atom_site_symmetry_multiplicity
 _atom_site_fract_x
 _atom_site_fract_y
 _atom_site_fract_z
 _atom_site_occupancy
  Ba  Ba0  1  0.50000000  0.50000000  0.50000000  1
  Ba  Ba1  1  0.00000000  0.00000000  0.00000000  1
  Ba  Ba2  1  0.00000000  0.00000000  0.50000000  1
  Ba  Ba3  1  0.00000000  0.50000000  0.00000000  1
  Ba  Ba4  1  0.50000000  0.00000000  0.00000000  1
  Ba  Ba5  1  0.50000000  0.50000000  0.00000000  1
  Ba  Ba6  1  0.50000000  0.00000000  0.50000000  1
  Ba  Ba7  1  0.00000000  0.50000000  0.50000000  1
  La  La0  1  0.25000000  0.25000000  0.25000000  1
  La  La1  1  0.25000000  0.75000000  0.75000000  1
  La  La2  1  0.75000000  0.25000000  0.75000000  1
  La  La3  1  0.75000000  0.75000000  0.25000000  1
  Cr  Cr0  1  0.75000000  0.75000000  0.75000000  1
  Cr  Cr1  1  0.75000000  0.25000000  0.25000000  1
  Cr  Cr2  1  0.25000000  0.75000000  0.25000000  1
  Cr  Cr3  1  0.25000000  0.25000000  0.75000000  1
  O  O0  1  0.23682305  0.26214432  0.52626230  1
  O  O1  1  0.23682305  0.73785568  0.47373770  1
  O  O2  1  0.76317695  0.26214432  0.47373770  1
  O  O3  1  0.76317695  0.73785568  0.52626230  1
  O  O4  1  0.26214432  0.52626230  0.23682305  1
  O  O5  1  0.73785568  0.47373770  0.23682305  1
  O  O6  1  0.26214432  0.47373770  0.76317695  1
  O  O7  1  0.73785568  0.52626230  0.76317695  1
  O  O8  1  0.52626230  0.23682305  0.26214432  1
  O  O9  1  0.47373770  0.23682305  0.73785568  1
  O  O10  1  0.47373770  0.76317695  0.26214432  1
  O  O11  1  0.52626230  0.76317695  0.73785568  1
  O  O12  1  0.26317695  0.23785568  0.97373770  1
  O  O13  1  0.26317695  0.76214432  0.02626230  1
  O  O14  1  0.73682305  0.23785568  0.02626230  1
  O  O15  1  0.73682305  0.76214432  0.97373770  1
  O  O16  1  0.23785568  0.97373770  0.26317695  1
  O  O17  1  0.76214432  0.02626230  0.26317695  1
  O  O18  1  0.23785568  0.02626230  0.73682305  1
  O  O19  1  0.76214432  0.97373770  0.73682305  1
  O  O20  1  0.97373770  0.26317695  0.23785568  1
  O  O21  1  0.02626230  0.26317695  0.76214432  1
  O  O22  1  0.02626230  0.73682305  0.23785568  1
  O  O23  1  0.97373770  0.73682305  0.76214432  1
loop_
_geom_bond_atom_site_label_1
_geom_bond_atom_site_label_2
_geom_bond_distance
_geom_bond_site_symmetry_2
Ba0 O6 3.026450 1_555
Ba0 O5 3.026450 1_555
Ba0 O7 3.026450 1_555
Ba0 O4 3.026450 1_555
Ba0 O3 3.026450 1_555
Ba0 O11 3.026450 1_555
Ba0 O1 3.026450 1_555
Ba0 O8 3.026450 1_555
Ba0 O0 3.026450 1_555
Ba0 O9 3.026450 1_555
Ba0 O10 3.026450 1_555
Ba0 O2 3.026450 1_555
Ba1 O19 3.026450 1_444
Ba1 O18 3.026450 1_554
Ba1 O14 3.026450 1_455
Ba1 O22 3.026450 1_545
Ba1 O16 3.026450 1_545
Ba1 O21 3.026450 1_554
Ba1 O23 3.026450 1_444
Ba1 O12 3.026450 1_554
Ba1 O13 3.026450 1_545
Ba1 O15 3.026450 1_444
Ba1 O20 3.026450 1_455
Ba1 O17 3.026450 1_455
Ba2 O16 2.864527 1_545
Ba2 O17 2.864527 1_455
Ba2 O19 2.864527 1_445
Ba2 O18 2.864527 1_555
Ba2 O1 3.014075 1_545
Ba2 O0 3.014075 1_555
Ba2 O2 3.014075 1_455
Ba2 O3 3.014075 1_445
Ba2 O23 3.168365 1_445
Ba2 O22 3.168365 1_545
Ba2 O21 3.168365 1_555
Ba2 O20 3.168365 1_455
Ba3 O21 2.864527 1_554
Ba3 O20 2.864527 1_455
Ba3 O22 2.864527 1_555
Ba3 O23 2.864527 1_454
Ba3 O5 3.014075 1_455
Ba3 O4 3.014075 1_555
Ba3 O7 3.014075 1_454
Ba3 O6 3.014075 1_554
Ba3 O14 3.168365 1_455
Ba3 O13 3.168365 1_555
Ba3 O15 3.168365 1_454
Ba3 O12 3.168365 1_554
Ba4 O12 2.864527 1_554
Ba4 O13 2.864527 1_545
Ba4 O15 2.864527 1_544
Ba4 O14 2.864527 1_555
Ba4 O8 3.014075 1_555
Ba4 O9 3.014075 1_554
Ba4 O11 3.014075 1_544
Ba4 O10 3.014075 1_545
Ba4 O19 3.168365 1_544
Ba4 O17 3.168365 1_555
Ba4 O16 3.168365 1_545
Ba4 O18 3.168365 1_554
Ba5 O4 2.864527 1_555
Ba5 O5 2.864527 1_555
Ba5 O6 2.864527 1_554
Ba5 O7 2.864527 1_554
Ba5 O12 3.014075 1_554
Ba5 O13 3.014075 1_555
Ba5 O15 3.014075 1_554
Ba5 O14 3.014075 1_555
Ba5 O11 3.168365 1_554
Ba5 O9 3.168365 1_554
Ba5 O8 3.168365 1_555
Ba5 O10 3.168365 1_555
Ba6 O8 2.864527 1_555
Ba6 O9 2.864527 1_555
Ba6 O11 2.864527 1_545
Ba6 O10 2.864527 1_545
Ba6 O17 3.014075 1_555
Ba6 O16 3.014075 1_545
Ba6 O18 3.014075 1_555
Ba6 O19 3.014075 1_545
Ba6 O2 3.168365 1_555
Ba6 O3 3.168365 1_545
Ba6 O0 3.168365 1_555
Ba6 O1 3.168365 1_545
Ba7 O0 2.864527 1_555
Ba7 O1 2.864527 1_555
Ba7 O2 2.864527 1_455
Ba7 O3 2.864527 1_455
Ba7 O21 3.014075 1_555
Ba7 O20 3.014075 1_455
Ba7 O22 3.014075 1_555
Ba7 O23 3.014075 1_455
Ba7 O7 3.168365 1_455
Ba7 O4 3.168365 1_555
Ba7 O5 3.168365 1_455
Ba7 O6 3.168365 1_555
La0 O12 2.355456 1_554
La0 O0 2.355456 1_555
La0 O8 2.355456 1_555
La0 O20 2.355456 1_455
La0 O16 2.355456 1_545
La0 O4 2.355456 1_555
La1 O13 2.355456 1_556
La1 O18 2.355456 1_565
La1 O23 2.355456 1_455
La1 O11 2.355456 1_555
La1 O1 2.355456 1_555
La1 O6 2.355456 1_555
La2 O7 2.355456 1_555
La2 O21 2.355456 1_655
La2 O19 2.355456 1_545
La2 O14 2.355456 1_556
La2 O9 2.355456 1_555
La2 O2 2.355456 1_555
La3 O15 2.355456 1_554
La3 O17 2.355456 1_565
La3 O3 2.355456 1_555
La3 O22 2.355456 1_655
La3 O5 2.355456 1_555
La3 O10 2.355456 1_555
Cr0 O7 1.909719 1_555
Cr0 O19 1.909719 1_555
Cr0 O3 1.909719 1_555
Cr0 O11 1.909719 1_555
Cr0 O23 1.909719 1_555
Cr0 O15 1.909719 1_555
Cr1 O5 1.909719 1_555
Cr1 O2 1.909719 1_555
Cr1 O14 1.909719 1_555
Cr1 O17 1.909719 1_555
Cr1 O20 1.909719 1_555
Cr1 O8 1.909719 1_555
Cr2 O1 1.909719 1_555
Cr2 O10 1.909719 1_555
Cr2 O22 1.909719 1_555
Cr2 O13 1.909719 1_555
Cr2 O16 1.909719 1_555
Cr2 O4 1.909719 1_555
Cr3 O6 1.909719 1_555
Cr3 O9 1.909719 1_555
Cr3 O21 1.909719 1_555
Cr3 O18 1.909719 1_555
Cr3 O12 1.909719 1_555
Cr3 O0 1.909719 1_555
