# generated using pymatgen
data_Mo4C3
_symmetry_space_group_name_H-M   'P 1'
_cell_length_a   9.87763844
_cell_length_b   9.87763844
_cell_length_c   9.87763810
_cell_angle_alpha   18.03861618
_cell_angle_beta   18.03861618
_cell_angle_gamma   18.03861995
_symmetry_Int_Tables_number   1
_chemical_formula_structural   Mo4C3
_chemical_formula_sum   'Mo4 C3'
_cell_volume   80.69122640
_cell_formula_units_Z   1
loop_
 _symmetry_equiv_pos_site_id
 _symmetry_equiv_pos_as_xyz
  1  'x, y, z'
loop_
 _atom_site_type_symbol
 _atom_site_label
 _atom_site_symmetry_multiplicity
 _atom_site_fract_x
 _atom_site_fract_y
 _atom_site_fract_z
 _atom_site_occupancy
  Mo  Mo0  1  0.87822300  0.87822300  0.87822300  1
  Mo  Mo1  1  0.12177700  0.12177700  0.12177700  1
  Mo  Mo2  1  0.37539700  0.37539700  0.37539700  1
  Mo  Mo3  1  0.62460300  0.62460300  0.62460300  1
  C  C0  1  0.25602300  0.25602300  0.25602300  1
  C  C1  1  0.50000000  0.50000000  0.50000000  1
  C  C2  1  0.74397700  0.74397700  0.74397700  1
loop_
_geom_bond_atom_site_label_1
_geom_bond_atom_site_label_2
_geom_bond_distance
_geom_bond_site_symmetry_2
C0 Mo3 2.062099 1_554
C0 Mo3 2.062099 1_455
C0 Mo3 2.062099 1_545
C0 Mo0 2.208274 1_445
C0 Mo0 2.208275 1_544
C0 Mo0 2.208275 1_454
C1 Mo0 2.215531 1_554
C1 Mo1 2.215531 1_556
C1 Mo1 2.215531 1_655
C1 Mo0 2.215531 1_545
C1 Mo1 2.215531 1_565
C1 Mo0 2.215531 1_455
C2 Mo2 2.062099 1_556
C2 Mo2 2.062099 1_655
C2 Mo2 2.062099 1_565
C2 Mo1 2.208274 1_665
C2 Mo1 2.208275 1_656
C2 Mo1 2.208275 1_566
