# generated using pymatgen
data_MnNiP2O7
_symmetry_space_group_name_H-M   'P 1'
_cell_length_a   4.54777589
_cell_length_b   6.59872199
_cell_length_c   8.48160140
_cell_angle_alpha   89.86783471
_cell_angle_beta   90.07423701
_cell_angle_gamma   102.68753363
_symmetry_Int_Tables_number   1
_chemical_formula_structural   MnNiP2O7
_chemical_formula_sum   'Mn2 Ni2 P4 O14'
_cell_volume   248.31295875
_cell_formula_units_Z   2
loop_
 _symmetry_equiv_pos_site_id
 _symmetry_equiv_pos_as_xyz
  1  'x, y, z'
loop_
 _atom_site_type_symbol
 _atom_site_label
 _atom_site_symmetry_multiplicity
 _atom_site_fract_x
 _atom_site_fract_y
 _atom_site_fract_z
 _atom_site_occupancy
  Mn  Mn0  1  0.53837100  0.71366800  0.69879100  1
  Mn  Mn1  1  0.53825800  0.21373500  0.19846700  1
  Ni  Ni0  1  0.53802600  0.71326800  0.32147000  1
  Ni  Ni1  1  0.53847400  0.21353800  0.82136700  1
  P  P0  1  0.12995400  0.49811700  0.99848300  1
  P  P1  1  0.12997100  0.99808500  0.49851000  1
  P  P2  1  0.94645900  0.92916400  0.99811600  1
  P  P3  1  0.94646000  0.42914800  0.49812300  1
  O  O0  1  0.03797300  0.71363000  0.95901400  1
  O  O1  1  0.03805800  0.21363500  0.45901600  1
  O  O2  1  0.30288600  0.50926300  0.15390100  1
  O  O3  1  0.30289700  0.00926100  0.65395100  1
  O  O4  1  0.77342700  0.41779100  0.65317200  1
  O  O5  1  0.77336000  0.91772800  0.15312300  1
  O  O6  1  0.32380600  0.46981400  0.85441100  1
  O  O7  1  0.32406900  0.96996800  0.35449400  1
  O  O8  1  0.75315700  0.45713800  0.35315500  1
  O  O9  1  0.75324600  0.95719500  0.85311000  1
  O  O10  1  0.25017700  0.08646900  0.00516000  1
  O  O11  1  0.25015200  0.58648500  0.50519700  1
  O  O12  1  0.82699900  0.33948100  0.00446300  1
  O  O13  1  0.82701800  0.83941700  0.50450300  1
loop_
_geom_bond_atom_site_label_1
_geom_bond_atom_site_label_2
_geom_bond_distance
_geom_bond_site_symmetry_2
Mn0 O9 2.137056 1_555
Mn0 O6 2.141827 1_555
Mn0 O11 2.153160 1_555
Mn0 O13 2.155930 1_555
Mn0 O3 2.451343 1_565
Mn0 O4 2.454727 1_555
Mn1 O8 2.138476 1_555
Mn1 O7 2.143082 1_545
Mn1 O10 2.151118 1_555
Mn1 O12 2.154309 1_555
Mn1 O2 2.450323 1_555
Mn1 O5 2.455247 1_545
Ni0 O2 2.085239 1_555
Ni0 O13 2.085743 1_555
Ni0 O11 2.088140 1_555
Ni0 O5 2.089319 1_555
Ni0 O8 2.146986 1_555
Ni0 O7 2.149746 1_555
Ni1 O12 2.084635 1_556
Ni1 O3 2.086050 1_555
Ni1 O4 2.087069 1_555
Ni1 O10 2.090090 1_556
Ni1 O9 2.147268 1_545
Ni1 O6 2.149312 1_555
O0 P0 1.602560 1_555
O0 P2 1.602666 1_455
O1 P1 1.602693 1_545
O1 P3 1.602717 1_455
O2 P0 1.527714 1_554
O3 P1 1.527856 1_545
O4 P3 1.526619 1_555
O5 P2 1.526430 1_554
O6 P0 1.543195 1_555
O7 P1 1.543184 1_555
O8 P3 1.544740 1_555
O9 P2 1.544819 1_555
O10 P2 1.535949 1_444
O11 P3 1.535972 1_455
O12 P0 1.537209 1_654
O13 P1 1.537308 1_655
