# generated using pymatgen
data_Ba3Li(AsO4)2
_symmetry_space_group_name_H-M   'P 1'
_cell_length_a   8.67609835
_cell_length_b   8.67609848
_cell_length_c   8.67609870
_cell_angle_alpha   39.53043878
_cell_angle_beta   39.53044369
_cell_angle_gamma   39.53043341
_symmetry_Int_Tables_number   1
_chemical_formula_structural   Ba3Li(AsO4)2
_chemical_formula_sum   'Ba3 Li1 As2 O8'
_cell_volume   238.17810895
_cell_formula_units_Z   1
loop_
 _symmetry_equiv_pos_site_id
 _symmetry_equiv_pos_as_xyz
  1  'x, y, z'
loop_
 _atom_site_type_symbol
 _atom_site_label
 _atom_site_symmetry_multiplicity
 _atom_site_fract_x
 _atom_site_fract_y
 _atom_site_fract_z
 _atom_site_occupancy
  Ba  Ba0  1  0.78726200  0.78726200  0.78726200  1
  Ba  Ba1  1  0.22095200  0.22095200  0.22095200  1
  Ba  Ba2  1  0.98662800  0.98662800  0.98662800  1
  Li  Li0  1  0.10158500  0.10158500  0.10158500  1
  As  As0  1  0.59603500  0.59603500  0.59603500  1
  As  As1  1  0.40352000  0.40352000  0.40352000  1
  O  O0  1  0.66784800  0.66784800  0.66784800  1
  O  O1  1  0.32296100  0.32296100  0.32296100  1
  O  O2  1  0.72956400  0.72956400  0.25111300  1
  O  O3  1  0.72956400  0.25111300  0.72956400  1
  O  O4  1  0.25111300  0.72956400  0.72956400  1
  O  O5  1  0.27663800  0.75802500  0.27663800  1
  O  O6  1  0.27663800  0.27663800  0.75802500  1
  O  O7  1  0.75802500  0.27663800  0.27663800  1
loop_
_geom_bond_atom_site_label_1
_geom_bond_atom_site_label_2
_geom_bond_distance
_geom_bond_site_symmetry_2
Ba0 O0 2.861390 1_555
Ba0 O6 2.962219 1_565
Ba0 O6 2.962219 1_655
Ba0 O7 2.962220 1_565
Ba0 O7 2.962220 1_556
Ba0 O5 2.962220 1_556
Ba0 O5 2.962220 1_655
Ba0 O4 3.296718 1_655
Ba0 O3 3.296718 1_565
Ba0 O2 3.296719 1_556
Ba1 O1 2.444333 1_555
Ba2 O3 2.664205 1_565
Ba2 O4 2.664205 1_655
Ba2 O2 2.664205 1_556
Li0 O5 1.757763 1_545
Li0 O7 1.757763 1_455
Li0 O6 1.757763 1_554
As0 O0 1.720778 1_555
As0 O3 1.736139 1_555
As0 O4 1.736139 1_555
As0 O2 1.736139 1_555
As1 O5 1.818569 1_555
As1 O7 1.818569 1_555
As1 O6 1.818570 1_555
As1 O1 1.930349 1_555
