# generated using pymatgen
data_Ba2HoCoCu2O7
_symmetry_space_group_name_H-M   'P 1'
_cell_length_a   3.84925100
_cell_length_b   3.91324600
_cell_length_c   11.82159700
_cell_angle_alpha   90.00000000
_cell_angle_beta   90.00000000
_cell_angle_gamma   90.00000000
_symmetry_Int_Tables_number   1
_chemical_formula_structural   Ba2HoCoCu2O7
_chemical_formula_sum   'Ba2 Ho1 Co1 Cu2 O7'
_cell_volume   178.06949677
_cell_formula_units_Z   1
loop_
 _symmetry_equiv_pos_site_id
 _symmetry_equiv_pos_as_xyz
  1  'x, y, z'
loop_
 _atom_site_type_symbol
 _atom_site_label
 _atom_site_symmetry_multiplicity
 _atom_site_fract_x
 _atom_site_fract_y
 _atom_site_fract_z
 _atom_site_occupancy
  Ba  Ba0  1  0.50000000  0.50000000  0.18435500  1
  Ba  Ba1  1  0.50000000  0.50000000  0.81564500  1
  Ho  Ho0  1  0.50000000  0.50000000  0.50000000  1
  Co  Co0  1  0.00000000  0.00000000  0.00000000  1
  Cu  Cu0  1  0.00000000  0.00000000  0.35945100  1
  Cu  Cu1  1  0.00000000  0.00000000  0.64054900  1
  O  O0  1  0.50000000  0.00000000  0.37931600  1
  O  O1  1  0.50000000  0.00000000  0.62068400  1
  O  O2  1  0.00000000  0.00000000  0.15313300  1
  O  O3  1  0.00000000  0.00000000  0.84686700  1
  O  O4  1  0.00000000  0.50000000  0.37922700  1
  O  O5  1  0.00000000  0.50000000  0.62077300  1
  O  O6  1  0.00000000  0.50000000  0.00000000  1
loop_
_geom_bond_atom_site_label_1
_geom_bond_atom_site_label_2
_geom_bond_distance
_geom_bond_site_symmetry_2
Ba0 O2 2.769258 1_555
Ba0 O2 2.769258 1_655
Ba0 O2 2.769258 1_565
Ba0 O2 2.769258 1_665
Ba0 O6 2.907549 1_555
Ba0 O6 2.907549 1_655
Ba0 O4 3.001868 1_655
Ba0 O4 3.001868 1_555
Ba0 O0 3.023284 1_555
Ba0 O0 3.023284 1_565
Ba1 O3 2.769258 1_555
Ba1 O3 2.769258 1_565
Ba1 O3 2.769258 1_655
Ba1 O3 2.769258 1_665
Ba1 O6 2.907549 1_556
Ba1 O6 2.907549 1_656
Ba1 O5 3.001868 1_555
Ba1 O5 3.001868 1_655
Ba1 O1 3.023284 1_565
Ba1 O1 3.023284 1_555
Ho0 O4 2.396371 1_555
Ho0 O5 2.396371 1_555
Ho0 O4 2.396371 1_655
Ho0 O5 2.396371 1_655
Ho0 O1 2.421525 1_555
Ho0 O0 2.421525 1_555
Ho0 O1 2.421525 1_565
Ho0 O0 2.421525 1_565
Co0 O3 1.810277 1_554
Co0 O2 1.810277 1_555
Co0 O6 1.956623 1_555
Co0 O6 1.956623 1_545
Cu0 O0 1.938900 1_555
Cu0 O0 1.938900 1_455
Cu0 O4 1.970540 1_555
Cu0 O4 1.970540 1_545
Cu0 O2 2.439008 1_555
Cu1 O1 1.938900 1_455
Cu1 O1 1.938900 1_555
Cu1 O5 1.970540 1_545
Cu1 O5 1.970540 1_555
Cu1 O3 2.439008 1_555
