# generated using pymatgen
data_DyReB4
_symmetry_space_group_name_H-M   'P 1'
_cell_length_a   3.62164800
_cell_length_b   5.97216200
_cell_length_c   11.56084800
_cell_angle_alpha   90.00000000
_cell_angle_beta   90.00000000
_cell_angle_gamma   90.00000000
_symmetry_Int_Tables_number   1
_chemical_formula_structural   DyReB4
_chemical_formula_sum   'Dy4 Re4 B16'
_cell_volume   250.05037404
_cell_formula_units_Z   4
loop_
 _symmetry_equiv_pos_site_id
 _symmetry_equiv_pos_as_xyz
  1  'x, y, z'
loop_
 _atom_site_type_symbol
 _atom_site_label
 _atom_site_symmetry_multiplicity
 _atom_site_fract_x
 _atom_site_fract_y
 _atom_site_fract_z
 _atom_site_occupancy
  Dy  Dy0  1  0.00000000  0.62600600  0.34970300  1
  Dy  Dy1  1  0.00000000  0.37399400  0.65029700  1
  Dy  Dy2  1  0.00000000  0.12600600  0.15029700  1
  Dy  Dy3  1  0.00000000  0.87399400  0.84970300  1
  Re  Re0  1  0.00000000  0.63257200  0.08743700  1
  Re  Re1  1  0.00000000  0.36742800  0.91256300  1
  Re  Re2  1  0.00000000  0.13257200  0.41256300  1
  Re  Re3  1  0.00000000  0.86742800  0.58743700  1
  B  B0  1  0.50000000  0.78736100  0.18470100  1
  B  B1  1  0.50000000  0.21263900  0.81529900  1
  B  B2  1  0.50000000  0.28736100  0.31529900  1
  B  B3  1  0.50000000  0.71263900  0.68470100  1
  B  B4  1  0.50000000  0.86376000  0.03143500  1
  B  B5  1  0.50000000  0.13624000  0.96856500  1
  B  B6  1  0.50000000  0.36376000  0.46856500  1
  B  B7  1  0.50000000  0.63624000  0.53143500  1
  B  B8  1  0.50000000  0.88626000  0.45284200  1
  B  B9  1  0.50000000  0.11374000  0.54715800  1
  B  B10  1  0.50000000  0.38626000  0.04715800  1
  B  B11  1  0.50000000  0.61374000  0.95284200  1
  B  B12  1  0.50000000  0.97743000  0.30801800  1
  B  B13  1  0.50000000  0.02257000  0.69198200  1
  B  B14  1  0.50000000  0.47743000  0.19198200  1
  B  B15  1  0.50000000  0.52257000  0.80801800  1
loop_
_geom_bond_atom_site_label_1
_geom_bond_atom_site_label_2
_geom_bond_distance
_geom_bond_site_symmetry_2
Dy0 Re0 3.032271 1_555
Dy0 Re2 3.035151 1_555
Dy0 Re3 3.103636 1_555
Dy0 Re2 3.111353 1_565
Dy1 Re1 3.032271 1_555
Dy1 Re3 3.035151 1_555
Dy1 Re2 3.103636 1_555
Dy1 Re3 3.111353 1_545
Dy2 Re2 3.032271 1_555
Dy2 Re0 3.035151 1_545
Dy2 Re1 3.103636 1_554
Dy2 Re0 3.111353 1_555
Dy3 Re3 3.032271 1_555
Dy3 Re1 3.035151 1_565
Dy3 Re0 3.103636 1_556
Dy3 Re1 3.111353 1_555
Re0 Re1 2.568006 1_554
Re2 Re3 2.568006 1_545
B0 B12 1.822355 1_555
B0 B4 1.829687 1_555
B0 B14 1.852871 1_555
B0 Re0 2.323369 1_655
B0 Re0 2.323369 1_555
B0 Dy2 2.743639 1_565
B0 Dy2 2.743639 1_665
B0 Dy0 2.801157 1_655
B0 Dy0 2.801157 1_555
B1 B13 1.822355 1_555
B1 B5 1.829687 1_555
B1 B15 1.852871 1_555
B1 Re1 2.323369 1_655
B1 Re1 2.323369 1_555
B1 Dy3 2.743639 1_645
B1 Dy3 2.743639 1_545
B1 Dy1 2.801157 1_655
B1 Dy1 2.801157 1_555
B2 B6 1.829687 1_555
B2 Re2 2.323369 1_655
B2 Re2 2.323369 1_555
B2 Dy0 2.743639 1_655
B2 Dy0 2.743639 1_555
B2 Dy2 2.801157 1_555
B2 Dy2 2.801157 1_655
B3 B7 1.829687 1_555
B3 Re3 2.323369 1_555
B3 Re3 2.323369 1_655
B3 Dy1 2.743639 1_555
B3 Dy1 2.743639 1_655
B3 Dy3 2.801157 1_555
B3 Dy3 2.801157 1_655
B4 B5 1.782238 1_564
B4 Re0 2.367395 1_555
B4 Re0 2.367395 1_655
B4 Dy2 2.760483 1_565
B4 Dy2 2.760483 1_665
B4 Dy3 2.774332 1_654
B4 Dy3 2.774332 1_554
B5 Re1 2.367395 1_655
B5 Re1 2.367395 1_555
B5 Dy3 2.760483 1_545
B5 Dy3 2.760483 1_645
B5 Dy2 2.774332 1_556
B5 Dy2 2.774332 1_656
B6 B9 1.747880 1_555
B6 B7 1.782238 1_555
B6 Re2 2.367395 1_655
B6 Re2 2.367395 1_555
B6 Dy0 2.760483 1_655
B6 Dy0 2.760483 1_555
B6 Dy1 2.774332 1_655
B6 Dy1 2.774332 1_555
B7 B8 1.747880 1_555
B7 Re3 2.367395 1_555
B7 Re3 2.367395 1_655
B7 Dy1 2.760483 1_555
B7 Dy1 2.760483 1_655
B7 Dy0 2.774332 1_555
B7 Dy0 2.774332 1_655
B8 B9 1.742000 1_565
B8 Re2 2.379035 1_565
B8 Re2 2.379035 1_665
B8 Re3 2.390182 1_555
B8 Re3 2.390182 1_655
B8 Dy0 2.667700 1_655
B8 Dy0 2.667700 1_555
B9 Re3 2.379035 1_645
B9 Re3 2.379035 1_545
B9 Re2 2.390182 1_655
B9 Re2 2.390182 1_555
B9 Dy1 2.667700 1_555
B9 Dy1 2.667700 1_655
B10 B11 1.742000 1_554
B10 B5 1.747880 1_554
B10 B14 1.760597 1_555
B10 Re0 2.379035 1_555
B10 Re0 2.379035 1_655
B10 Re1 2.390182 1_654
B10 Re1 2.390182 1_554
B10 Dy2 2.667700 1_555
B10 Dy2 2.667700 1_655
B11 B4 1.747880 1_556
B11 B15 1.760597 1_555
B11 Re1 2.379035 1_555
B11 Re1 2.379035 1_655
B11 Re0 2.390182 1_556
B11 Re0 2.390182 1_656
B11 Dy3 2.667700 1_555
B11 Dy3 2.667700 1_655
B12 B8 1.760597 1_555
B12 B2 1.852871 1_565
B12 Re2 2.366079 1_565
B12 Re2 2.366079 1_665
B12 Dy2 2.718670 1_665
B12 Dy2 2.718670 1_565
B12 Dy0 2.813560 1_655
B12 Dy0 2.813560 1_555
B13 B9 1.760597 1_555
B13 B3 1.852871 1_545
B13 Re3 2.366079 1_545
B13 Re3 2.366079 1_645
B13 Dy3 2.718670 1_545
B13 Dy3 2.718670 1_645
B13 Dy1 2.813560 1_655
B13 Dy1 2.813560 1_555
B14 B2 1.822355 1_555
B14 Re0 2.366079 1_655
B14 Re0 2.366079 1_555
B14 Dy0 2.718670 1_555
B14 Dy0 2.718670 1_655
B14 Dy2 2.813560 1_555
B14 Dy2 2.813560 1_655
B15 B3 1.822355 1_555
B15 Re1 2.366079 1_655
B15 Re1 2.366079 1_555
B15 Dy1 2.718670 1_655
B15 Dy1 2.718670 1_555
B15 Dy3 2.813560 1_555
B15 Dy3 2.813560 1_655
