# generated using pymatgen
data_Mg16Al12Sn
_symmetry_space_group_name_H-M   'P 1'
_cell_length_a   9.15112210
_cell_length_b   9.15112210
_cell_length_c   9.15112212
_cell_angle_alpha   109.43210681
_cell_angle_beta   109.43210681
_cell_angle_gamma   109.43210514
_symmetry_Int_Tables_number   1
_chemical_formula_structural   Mg16Al12Sn
_chemical_formula_sum   'Mg16 Al12 Sn1'
_cell_volume   590.78369888
_cell_formula_units_Z   1
loop_
 _symmetry_equiv_pos_site_id
 _symmetry_equiv_pos_as_xyz
  1  'x, y, z'
loop_
 _atom_site_type_symbol
 _atom_site_label
 _atom_site_symmetry_multiplicity
 _atom_site_fract_x
 _atom_site_fract_y
 _atom_site_fract_z
 _atom_site_occupancy
  Mg  Mg0  1  0.68402900  0.68402900  0.28568500  1
  Mg  Mg1  1  0.39838800  0.39838800  0.71035300  1
  Mg  Mg2  1  0.00213400  0.00213400  0.00213400  1
  Mg  Mg3  1  0.99949800  0.99949800  0.34593400  1
  Mg  Mg4  1  0.59902500  0.31730600  0.00089100  1
  Mg  Mg5  1  0.71035300  0.39838800  0.39838800  1
  Mg  Mg6  1  0.31730600  0.00089100  0.59902500  1
  Mg  Mg7  1  0.34593400  0.99949800  0.99949800  1
  Mg  Mg8  1  0.68402900  0.28568500  0.68402900  1
  Mg  Mg9  1  0.00089100  0.59902500  0.31730600  1
  Mg  Mg10  1  0.59902500  0.00089100  0.31730600  1
  Mg  Mg11  1  0.28568500  0.68402900  0.68402900  1
  Mg  Mg12  1  0.99949800  0.34593400  0.99949800  1
  Mg  Mg13  1  0.00089100  0.31730600  0.59902500  1
  Mg  Mg14  1  0.39838800  0.71035300  0.39838800  1
  Mg  Mg15  1  0.31730600  0.59902500  0.00089100  1
  Al  Al0  1  0.36256700  0.36256700  0.17567400  1
  Al  Al1  1  0.18420500  0.18420500  0.81553500  1
  Al  Al2  1  0.81672000  0.63190900  0.00472100  1
  Al  Al3  1  0.36256700  0.17567400  0.36256700  1
  Al  Al4  1  0.00472100  0.81672000  0.63190900  1
  Al  Al5  1  0.18420500  0.81553500  0.18420500  1
  Al  Al6  1  0.00472100  0.63190900  0.81672000  1
  Al  Al7  1  0.63190900  0.00472100  0.81672000  1
  Al  Al8  1  0.81553500  0.18420500  0.18420500  1
  Al  Al9  1  0.81672000  0.00472100  0.63190900  1
  Al  Al10  1  0.17567400  0.36256700  0.36256700  1
  Al  Al11  1  0.63190900  0.81672000  0.00472100  1
  Sn  Sn0  1  0.66613700  0.66613700  0.66613700  1
loop_
_geom_bond_atom_site_label_1
_geom_bond_atom_site_label_2
_geom_bond_distance
_geom_bond_site_symmetry_2
Mg0 Mg3 3.051031 1_555
Mg0 Mg15 3.123158 1_555
Mg0 Mg4 3.123158 1_555
Mg0 Mg14 3.162571 1_555
Mg0 Mg5 3.162571 1_555
Mg0 Mg10 3.192030 1_565
Mg0 Mg9 3.192030 1_655
Mg1 Sn0 3.081469 1_555
Mg1 Mg4 3.156197 1_556
Mg1 Mg15 3.156197 1_556
Mg1 Mg8 3.162571 1_555
Mg1 Mg11 3.162571 1_555
Mg1 Mg6 3.171047 1_555
Mg1 Mg13 3.171047 1_555
Mg2 Sn0 3.080682 1_444
Mg2 Mg7 3.162288 1_544
Mg2 Mg3 3.162288 1_445
Mg3 Mg6 3.048992 1_665
Mg4 Mg7 3.048992 1_544
Mg4 Mg5 3.171047 1_555
Mg4 Mg8 3.192030 1_554
Mg4 Mg6 3.192828 1_554
Mg4 Mg9 3.192828 1_655
Mg5 Sn0 3.081469 1_555
Mg5 Mg9 3.156197 1_655
Mg5 Mg8 3.162571 1_555
Mg6 Mg8 3.123159 1_555
Mg6 Mg9 3.192828 1_545
Mg10 Mg7 3.048992 1_544
Mg10 Mg8 3.123158 1_555
Mg10 Mg14 3.156197 1_545
Mg10 Mg5 3.171047 1_555
Mg10 Mg15 3.192828 1_545
Mg10 Mg13 3.192828 1_655
Mg11 Mg7 3.051031 1_555
Mg11 Mg9 3.123158 1_555
Mg11 Mg13 3.123159 1_555
Mg11 Mg14 3.162571 1_555
Mg11 Mg15 3.192030 1_556
Mg11 Mg6 3.192030 1_565
Mg12 Mg9 3.048992 1_656
Mg12 Mg15 3.048992 1_656
Mg12 Mg8 3.051031 1_555
Mg12 Mg2 3.162288 1_656
Mg13 Mg3 3.048992 1_445
Mg13 Mg5 3.156197 1_455
Mg13 Mg8 3.192030 1_455
Mg13 Mg15 3.192828 1_556
Mg14 Sn0 3.081469 1_555
Mg14 Mg6 3.156197 1_565
Mg14 Mg15 3.171047 1_555
Mg14 Mg9 3.171047 1_555
Al0 Al1 2.694178 1_554
Al0 Al10 2.792202 1_555
Al0 Al3 2.792202 1_555
Al0 Mg0 2.936324 1_555
Al0 Mg14 2.989267 1_555
Al0 Mg5 2.989267 1_555
Al0 Mg12 3.097968 1_454
Al0 Mg7 3.097968 1_544
Al0 Mg15 3.141739 1_555
Al0 Mg4 3.141739 1_555
Al0 Mg2 3.173487 1_555
Al1 Al9 2.749333 1_455
Al1 Al4 2.749333 1_545
Al1 Mg1 2.926467 1_555
Al1 Mg6 2.996172 1_555
Al1 Mg13 2.996172 1_555
Al1 Mg7 3.127549 1_545
Al1 Mg12 3.127549 1_455
Al1 Mg4 3.167856 1_556
Al1 Mg15 3.167856 1_556
Al1 Mg2 3.225991 1_556
Al2 Al5 2.749333 1_655
Al2 Al6 2.808756 1_654
Al2 Mg4 2.885930 1_555
Al2 Mg9 2.969163 1_655
Al2 Mg8 3.001254 1_554
Al2 Mg3 3.107310 1_555
Al2 Sn0 3.112756 1_554
Al2 Mg0 3.155856 1_555
Al2 Mg1 3.216066 1_554
Al2 Mg2 3.257763 1_665
Al3 Al5 2.694178 1_545
Al3 Mg8 2.936324 1_555
Al3 Mg1 2.989267 1_555
Al3 Mg5 2.989267 1_555
Al3 Mg7 3.097968 1_544
Al3 Mg3 3.097968 1_445
Al3 Mg10 3.141739 1_555
Al3 Mg6 3.141739 1_555
Al3 Mg2 3.173487 1_555
Al4 Al6 2.761097 1_555
Al4 Al9 2.808756 1_465
Al4 Mg9 2.885930 1_555
Al4 Mg6 2.969163 1_565
Al4 Mg0 3.001254 1_455
Al4 Mg7 3.107310 1_555
Al4 Sn0 3.112756 1_455
Al4 Mg11 3.155856 1_555
Al4 Mg5 3.216066 1_455
Al4 Mg2 3.257763 1_566
Al5 Al6 2.749333 1_554
Al5 Mg14 2.926467 1_555
Al5 Mg15 2.996172 1_555
Al5 Mg9 2.996172 1_555
Al5 Mg3 3.127549 1_455
Al5 Mg7 3.127549 1_554
Al5 Mg6 3.167856 1_565
Al5 Mg10 3.167856 1_565
Al5 Mg2 3.225991 1_565
Al6 Mg13 2.885930 1_555
Al6 Mg15 2.969163 1_556
Al6 Mg8 3.001254 1_455
Al6 Mg7 3.107310 1_555
Al6 Sn0 3.112756 1_455
Al6 Mg11 3.155856 1_555
Al6 Mg5 3.216066 1_455
Al6 Mg2 3.257763 1_566
Al7 Al8 2.749333 1_556
Al7 Al9 2.761097 1_555
Al7 Mg6 2.885930 1_555
Al7 Mg4 2.969163 1_556
Al7 Mg11 3.001254 1_545
Al7 Mg12 3.107310 1_555
Al7 Sn0 3.112756 1_545
Al7 Mg8 3.155856 1_555
Al7 Mg14 3.216066 1_545
Al7 Mg2 3.257763 1_656
Al8 Mg5 2.926467 1_555
Al8 Mg4 2.996172 1_555
Al8 Mg10 2.996172 1_555
Al8 Mg3 3.127549 1_545
Al8 Mg12 3.127549 1_554
Al8 Mg13 3.167856 1_655
Al8 Mg9 3.167856 1_655
Al8 Mg2 3.225991 1_655
Al9 Mg10 2.885930 1_555
Al9 Mg13 2.969163 1_655
Al9 Mg0 3.001254 1_545
Al9 Mg12 3.107310 1_555
Al9 Sn0 3.112756 1_545
Al9 Mg8 3.155856 1_555
Al9 Mg14 3.216066 1_545
Al9 Mg2 3.257763 1_656
Al10 Al8 2.694178 1_455
Al10 Al3 2.792202 1_555
Al10 Mg11 2.936324 1_555
Al10 Mg1 2.989267 1_555
Al10 Mg14 2.989267 1_555
Al10 Mg12 3.097968 1_454
Al10 Mg3 3.097968 1_445
Al10 Mg9 3.141739 1_555
Al10 Mg13 3.141739 1_555
Al10 Mg2 3.173487 1_555
Al11 Al8 2.749333 1_565
Al11 Al2 2.761097 1_555
Al11 Al7 2.808756 1_564
Al11 Mg15 2.885930 1_555
Al11 Mg10 2.969163 1_565
Al11 Mg11 3.001254 1_554
Al11 Mg3 3.107310 1_555
Al11 Sn0 3.112756 1_554
Al11 Mg0 3.155856 1_555
Al11 Mg1 3.216066 1_554
Al11 Mg2 3.257763 1_665
