# generated using pymatgen
data_Ca2AlPbF9
_symmetry_space_group_name_H-M   'P 1'
_cell_length_a   5.44306800
_cell_length_b   5.44634997
_cell_length_c   12.37174031
_cell_angle_alpha   91.46204461
_cell_angle_beta   101.05176261
_cell_angle_gamma   91.71511613
_symmetry_Int_Tables_number   1
_chemical_formula_structural   Ca2AlPbF9
_chemical_formula_sum   'Ca4 Al2 Pb2 F18'
_cell_volume   359.61279152
_cell_formula_units_Z   2
loop_
 _symmetry_equiv_pos_site_id
 _symmetry_equiv_pos_as_xyz
  1  'x, y, z'
loop_
 _atom_site_type_symbol
 _atom_site_label
 _atom_site_symmetry_multiplicity
 _atom_site_fract_x
 _atom_site_fract_y
 _atom_site_fract_z
 _atom_site_occupancy
  Ca  Ca0  1  0.95838200  0.24216500  0.38605300  1
  Ca  Ca1  1  0.04161800  0.75783500  0.61394700  1
  Ca  Ca2  1  0.55125200  0.26564800  0.61339200  1
  Ca  Ca3  1  0.44874800  0.73435200  0.38660800  1
  Al  Al0  1  0.79636100  0.79314600  0.18136800  1
  Al  Al1  1  0.20363900  0.20685400  0.81863200  1
  Pb  Pb0  1  0.72774900  0.71784100  0.89451600  1
  Pb  Pb1  1  0.27225100  0.28215900  0.10548400  1
  F  F0  1  0.15134700  0.95125200  0.90420100  1
  F  F1  1  0.84865300  0.04874800  0.09579900  1
  F  F2  1  0.25807500  0.45068800  0.72512700  1
  F  F3  1  0.74192500  0.54931200  0.27487300  1
  F  F4  1  0.62935200  0.99956400  0.26498500  1
  F  F5  1  0.37064800  0.00043600  0.73501500  1
  F  F6  1  0.95822200  0.59395400  0.09917700  1
  F  F7  1  0.04177800  0.40604600  0.90082300  1
  F  F8  1  0.08428400  0.89009200  0.27909300  1
  F  F9  1  0.91571600  0.10990800  0.72090700  1
  F  F10  1  0.49960500  0.70379000  0.09228700  1
  F  F11  1  0.50039500  0.29621000  0.90771300  1
  F  F12  1  0.74813200  0.99208100  0.49881800  1
  F  F13  1  0.25186800  0.00791900  0.50118200  1
  F  F14  1  0.74955900  0.48822500  0.49434900  1
  F  F15  1  0.25044100  0.51177500  0.50565100  1
  F  F16  1  0.74342100  0.61358100  0.70844200  1
  F  F17  1  0.25657900  0.38641900  0.29155800  1
loop_
_geom_bond_atom_site_label_1
_geom_bond_atom_site_label_2
_geom_bond_distance
_geom_bond_site_symmetry_2
Ca0 F17 2.305750 1_655
Ca0 F14 2.338033 1_555
Ca0 F13 2.355984 1_655
Ca0 F3 2.385905 1_555
Ca0 F15 2.391699 1_655
Ca0 F12 2.393094 1_545
Ca0 F4 2.434262 1_545
Ca0 F8 2.488856 1_645
Ca1 F16 2.305750 1_455
Ca1 F15 2.338033 1_555
Ca1 F12 2.355984 1_455
Ca1 F2 2.385905 1_555
Ca1 F14 2.391699 1_455
Ca1 F13 2.393094 1_565
Ca1 F5 2.434262 1_565
Ca1 F9 2.488856 1_465
Ca2 F16 2.316003 1_555
Ca2 F14 2.329359 1_555
Ca2 F13 2.334380 1_555
Ca2 F9 2.360266 1_555
Ca2 F15 2.374942 1_555
Ca2 F5 2.431021 1_555
Ca2 F12 2.438801 1_545
Ca2 F2 2.518728 1_555
Ca3 F17 2.316003 1_555
Ca3 F15 2.329359 1_555
Ca3 F12 2.334380 1_555
Ca3 F8 2.360266 1_555
Ca3 F14 2.374942 1_555
Ca3 F4 2.431021 1_555
Ca3 F13 2.438801 1_565
Ca3 F3 2.518728 1_555
Al0 F10 1.817578 1_555
Al0 F1 1.818426 1_565
Al0 F6 1.825240 1_555
Al0 F3 1.837356 1_555
Al0 F8 1.840667 1_655
Al0 F4 1.876904 1_555
Al1 F11 1.817578 1_555
Al1 F0 1.818426 1_545
Al1 F7 1.825240 1_555
Al1 F2 1.837356 1_555
Al1 F9 1.840667 1_455
Al1 F5 1.876904 1_555
F0 Pb0 2.580191 1_455
F1 Pb1 2.580191 1_655
F6 Pb1 2.437376 1_655
F6 Pb0 2.712956 1_554
F7 Pb0 2.437376 1_455
F7 Pb1 2.712956 1_556
F10 Pb1 2.599574 1_555
F11 Pb0 2.599574 1_555
F16 Pb0 2.375010 1_555
F17 Pb1 2.375010 1_555
