# generated using pymatgen
data_Zn3In2O6
_symmetry_space_group_name_H-M   'P 1'
_cell_length_a   14.30259942
_cell_length_b   14.30259942
_cell_length_c   14.30259914
_cell_angle_alpha   13.88129827
_cell_angle_beta   13.88129827
_cell_angle_gamma   13.88129588
_symmetry_Int_Tables_number   1
_chemical_formula_structural   Zn3In2O6
_chemical_formula_sum   'Zn3 In2 O6'
_cell_volume   146.55325756
_cell_formula_units_Z   1
loop_
 _symmetry_equiv_pos_site_id
 _symmetry_equiv_pos_as_xyz
  1  'x, y, z'
loop_
 _atom_site_type_symbol
 _atom_site_label
 _atom_site_symmetry_multiplicity
 _atom_site_fract_x
 _atom_site_fract_y
 _atom_site_fract_z
 _atom_site_occupancy
  Zn  Zn0  1  0.26264000  0.26264000  0.26264000  1
  Zn  Zn1  1  0.73843600  0.73843600  0.73843600  1
  Zn  Zn2  1  0.13122600  0.13122600  0.13122600  1
  In  In0  1  0.00069700  0.00069700  0.00069700  1
  In  In1  1  0.86316200  0.86316200  0.86316200  1
  O  O0  1  0.91505300  0.91505300  0.91505300  1
  O  O1  1  0.08397100  0.08397100  0.08397100  1
  O  O2  1  0.19414200  0.19414200  0.19414200  1
  O  O3  1  0.81042000  0.81042000  0.81042000  1
  O  O4  1  0.30897700  0.30897700  0.30897700  1
  O  O5  1  0.69132200  0.69132200  0.69132200  1
loop_
_geom_bond_atom_site_label_1
_geom_bond_atom_site_label_2
_geom_bond_distance
_geom_bond_site_symmetry_2
In0 O5 2.240334 1_454
In0 O5 2.240334 1_544
In0 O5 2.240334 1_445
In0 O4 2.261853 1_455
In0 O4 2.261853 1_545
In0 O4 2.261853 1_554
In1 O2 1.998221 1_566
In1 O2 1.998221 1_656
In1 O2 1.998221 1_665
In1 O0 2.204747 1_555
In1 O3 2.240904 1_555
O0 Zn0 2.085582 1_656
O0 Zn0 2.085582 1_566
O0 Zn0 2.085582 1_665
O1 Zn2 2.007772 1_555
O1 Zn1 2.061954 1_454
O1 Zn1 2.061954 1_544
O1 Zn1 2.061954 1_445
O3 Zn2 2.065476 1_656
O3 Zn2 2.065476 1_566
O3 Zn2 2.065476 1_665
O4 Zn0 1.968768 1_555
O5 Zn1 2.001781 1_555
