# generated using pymatgen
data_MgMnSiO5
_symmetry_space_group_name_H-M   'P 1'
_cell_length_a   6.40403193
_cell_length_b   6.93504856
_cell_length_c   8.31613766
_cell_angle_alpha   89.77567364
_cell_angle_beta   89.87691582
_cell_angle_gamma   65.25596349
_symmetry_Int_Tables_number   1
_chemical_formula_structural   MgMnSiO5
_chemical_formula_sum   'Mg4 Mn4 Si4 O20'
_cell_volume   335.42577089
_cell_formula_units_Z   4
loop_
 _symmetry_equiv_pos_site_id
 _symmetry_equiv_pos_as_xyz
  1  'x, y, z'
loop_
 _atom_site_type_symbol
 _atom_site_label
 _atom_site_symmetry_multiplicity
 _atom_site_fract_x
 _atom_site_fract_y
 _atom_site_fract_z
 _atom_site_occupancy
  Mg  Mg0  1  0.25076200  0.23836000  0.92089200  1
  Mg  Mg1  1  0.75080400  0.23832900  0.42089100  1
  Mg  Mg2  1  0.25174500  0.74236300  0.58057500  1
  Mg  Mg3  1  0.75176600  0.74232100  0.08057300  1
  Mn  Mn0  1  0.75015900  0.49402200  0.75073500  1
  Mn  Mn1  1  0.24972400  0.99413500  0.25037500  1
  Mn  Mn2  1  0.25017000  0.49396300  0.25074600  1
  Mn  Mn3  1  0.74967900  0.99399100  0.75037000  1
  Si  Si0  1  0.24981700  0.24350900  0.57097000  1
  Si  Si1  1  0.74982100  0.24351000  0.07097100  1
  Si  Si2  1  0.24937600  0.74418600  0.92985900  1
  Si  Si3  1  0.74938800  0.74418900  0.42986100  1
  O  O0  1  0.25029600  0.74345700  0.33882600  1
  O  O1  1  0.75028200  0.74346800  0.83881900  1
  O  O2  1  0.25008400  0.24440400  0.16265800  1
  O  O3  1  0.75006900  0.24441600  0.66265200  1
  O  O4  1  0.13383900  0.11821900  0.45989700  1
  O  O5  1  0.63382400  0.11824400  0.95989500  1
  O  O6  1  0.36899200  0.36680900  0.45951500  1
  O  O7  1  0.86896900  0.36682700  0.95951500  1
  O  O8  1  0.36383800  0.87231500  0.03964000  1
  O  O9  1  0.86382500  0.87234300  0.53963600  1
  O  O10  1  0.13106800  0.62154400  0.04242700  1
  O  O11  1  0.63104800  0.62156600  0.54242400  1
  O  O12  1  0.43183100  0.57561300  0.80353500  1
  O  O13  1  0.93187900  0.57560100  0.30357200  1
  O  O14  1  0.06953800  0.90935600  0.79980300  1
  O  O15  1  0.56956000  0.90932500  0.29977300  1
  O  O16  1  0.06876800  0.41195800  0.69811400  1
  O  O17  1  0.56881300  0.41195200  0.19815300  1
  O  O18  1  0.43025400  0.07656400  0.69988700  1
  O  O19  1  0.93027100  0.07654000  0.19986300  1
loop_
_geom_bond_atom_site_label_1
_geom_bond_atom_site_label_2
_geom_bond_distance
_geom_bond_site_symmetry_2
Mg0 O2 2.011118 1_556
Mg0 O18 2.210334 1_555
Mg0 O7 2.247295 1_455
Mg0 O16 2.248842 1_555
Mg0 O5 2.260011 1_555
Mg0 O8 2.527518 1_546
Mg0 O10 2.642603 1_556
Mg1 O3 2.011080 1_555
Mg1 O19 2.210430 1_555
Mg1 O6 2.247403 1_555
Mg1 O17 2.248618 1_555
Mg1 O4 2.259857 1_655
Mg1 O9 2.527194 1_545
Mg1 O11 2.642870 1_555
Mg2 O0 2.010429 1_555
Mg2 O14 2.214207 1_555
Mg2 O12 2.231866 1_555
Mg2 O11 2.235646 1_555
Mg2 O9 2.286170 1_455
Mg2 O4 2.589734 1_565
Mg2 O6 2.596320 1_555
Mg3 O1 2.010471 1_554
Mg3 O15 2.214036 1_555
Mg3 O13 2.232125 1_555
Mg3 O10 2.235646 1_655
Mg3 O8 2.286204 1_555
Mg3 O5 2.590114 1_564
Mg3 O7 2.595983 1_554
Mn0 O1 1.881562 1_555
Mn0 O3 1.882499 1_555
Mn0 O12 1.923865 1_555
Mn0 O16 1.924727 1_655
Mn0 O11 1.947846 1_555
Mn0 O7 1.950229 1_555
Mn1 O2 1.880946 1_565
Mn1 O0 1.883614 1_555
Mn1 O15 1.924374 1_555
Mn1 O19 1.926496 1_465
Mn1 O4 1.949063 1_565
Mn1 O8 1.951487 1_555
Mn2 O0 1.881863 1_555
Mn2 O2 1.882205 1_555
Mn2 O13 1.923644 1_455
Mn2 O17 1.924932 1_555
Mn2 O10 1.947967 1_555
Mn2 O6 1.950082 1_555
Mn3 O3 1.882021 1_565
Mn3 O1 1.882542 1_555
Mn3 O14 1.924745 1_655
Mn3 O18 1.926103 1_565
Mn3 O5 1.949383 1_565
Mn3 O9 1.951186 1_555
O4 Si0 1.645998 1_555
O5 Si1 1.645974 1_556
O6 Si0 1.646155 1_555
O7 Si1 1.646126 1_556
O8 Si2 1.647685 1_554
O9 Si3 1.647676 1_555
O10 Si2 1.644365 1_554
O11 Si3 1.644387 1_555
O12 Si2 1.642077 1_555
O13 Si3 1.642029 1_555
O14 Si2 1.643029 1_555
O15 Si3 1.643083 1_555
O16 Si0 1.642416 1_555
O17 Si1 1.642493 1_555
O18 Si0 1.643385 1_555
O19 Si1 1.643354 1_555
