# generated using pymatgen
data_GdSbS
_symmetry_space_group_name_H-M   'P 1'
_cell_length_a   4.12533803
_cell_length_b   4.10473218
_cell_length_c   17.51262900
_cell_angle_alpha   90.00000000
_cell_angle_beta   90.00000000
_cell_angle_gamma   90.05696506
_symmetry_Int_Tables_number   1
_chemical_formula_structural   GdSbS
_chemical_formula_sum   'Gd4 Sb4 S4'
_cell_volume   296.54834126
_cell_formula_units_Z   4
loop_
 _symmetry_equiv_pos_site_id
 _symmetry_equiv_pos_as_xyz
  1  'x, y, z'
loop_
 _atom_site_type_symbol
 _atom_site_label
 _atom_site_symmetry_multiplicity
 _atom_site_fract_x
 _atom_site_fract_y
 _atom_site_fract_z
 _atom_site_occupancy
  Gd  Gd0  1  0.77836600  0.25180600  0.15453900  1
  Gd  Gd1  1  0.72163400  0.24819400  0.65453900  1
  Gd  Gd2  1  0.22163400  0.74819400  0.84546100  1
  Gd  Gd3  1  0.27836600  0.75180600  0.34546100  1
  Sb  Sb0  1  0.75580200  0.74856500  0.49930100  1
  Sb  Sb1  1  0.74419800  0.75143500  0.99930100  1
  Sb  Sb2  1  0.24419800  0.25143500  0.50069900  1
  Sb  Sb3  1  0.25580200  0.24856500  0.00069900  1
  S  S0  1  0.78079000  0.24991300  0.31365600  1
  S  S1  1  0.71921000  0.25008700  0.81365600  1
  S  S2  1  0.21921000  0.75008700  0.68634400  1
  S  S3  1  0.28079000  0.74991300  0.18634400  1
loop_
_geom_bond_atom_site_label_1
_geom_bond_atom_site_label_2
_geom_bond_distance
_geom_bond_site_symmetry_2
Gd0 S0 2.786586 1_555
Gd0 S3 2.951678 1_555
Gd0 S3 2.959635 1_545
Gd0 S3 2.962792 1_655
Gd0 S3 2.976381 1_645
Gd0 Sb3 3.337349 1_655
Gd0 Sb1 3.408420 1_554
Gd0 Sb1 3.410085 1_544
Gd0 Sb3 3.450478 1_555
Gd1 S1 2.786586 1_555
Gd1 S2 2.951678 1_645
Gd1 S2 2.959635 1_655
Gd1 S2 2.962792 1_545
Gd1 S2 2.976381 1_555
Gd1 Sb2 3.337349 1_555
Gd1 Sb0 3.408420 1_545
Gd1 Sb0 3.410085 1_555
Gd1 Sb2 3.450478 1_655
Gd2 S2 2.786586 1_555
Gd2 S1 2.951678 1_555
Gd2 S1 2.959635 1_565
Gd2 S1 2.962792 1_455
Gd2 S1 2.976381 1_465
Gd2 Sb1 3.337349 1_455
Gd2 Sb3 3.408420 1_556
Gd2 Sb3 3.410085 1_566
Gd2 Sb1 3.450478 1_555
Gd3 S3 2.786586 1_555
Gd3 S0 2.951678 1_465
Gd3 S0 2.959635 1_455
Gd3 S0 2.962792 1_565
Gd3 S0 2.976381 1_555
Gd3 Sb0 3.337349 1_555
Gd3 Sb2 3.408420 1_565
Gd3 Sb2 3.410085 1_555
Gd3 Sb0 3.450478 1_455
Sb0 Sb2 2.869177 1_655
Sb0 Sb2 2.883131 1_665
Sb0 Sb2 2.934349 1_555
Sb0 Sb2 2.953699 1_565
Sb1 Sb3 2.869177 1_566
Sb1 Sb3 2.883131 1_556
Sb1 Sb3 2.934349 1_666
Sb1 Sb3 2.953699 1_656
