# generated using pymatgen
data_TeMoWSe2S
_symmetry_space_group_name_H-M   'P 1'
_cell_length_a   3.34657032
_cell_length_b   3.34657032
_cell_length_c   38.10739700
_cell_angle_alpha   90.00000000
_cell_angle_beta   90.00000000
_cell_angle_gamma   120.00000624
_symmetry_Int_Tables_number   1
_chemical_formula_structural   TeMoWSe2S
_chemical_formula_sum   'Te2 Mo2 W2 Se4 S2'
_cell_volume   369.60666818
_cell_formula_units_Z   2
loop_
 _symmetry_equiv_pos_site_id
 _symmetry_equiv_pos_as_xyz
  1  'x, y, z'
loop_
 _atom_site_type_symbol
 _atom_site_label
 _atom_site_symmetry_multiplicity
 _atom_site_fract_x
 _atom_site_fract_y
 _atom_site_fract_z
 _atom_site_occupancy
  Te  Te0  1  0.33333300  0.66666700  0.70762000  1
  Te  Te1  1  0.33333300  0.66666700  0.60750800  1
  Mo  Mo0  1  0.33333300  0.66666700  0.09393400  1
  Mo  Mo1  1  0.33333300  0.66666700  0.46961700  1
  W  W0  1  0.66666700  0.33333300  0.28179400  1
  W  W1  1  0.66666700  0.33333300  0.65757900  1
  Se  Se0  1  0.33333300  0.66666700  0.32575100  1
  Se  Se1  1  0.66666700  0.33333300  0.42589200  1
  Se  Se2  1  0.66666700  0.33333300  0.51337200  1
  Se  Se3  1  0.33333300  0.66666700  0.23781800  1
  S  S0  1  0.66666700  0.33333300  0.05413600  1
  S  S1  1  0.66666700  0.33333300  0.13372700  1
loop_
_geom_bond_atom_site_label_1
_geom_bond_atom_site_label_2
_geom_bond_distance
_geom_bond_site_symmetry_2
Te0 W1 2.714693 1_455
Te0 W1 2.714693 1_565
Te0 W1 2.714698 1_555
Te1 W1 2.715497 1_455
Te1 W1 2.715497 1_565
Te1 W1 2.715501 1_555
Mo0 S1 2.456148 1_455
Mo0 S1 2.456148 1_565
Mo0 S1 2.456152 1_555
Mo0 S0 2.456265 1_455
Mo0 S0 2.456265 1_565
Mo0 S0 2.456270 1_555
Mo1 Se1 2.551381 1_455
Mo1 Se1 2.551381 1_565
Mo1 Se1 2.551386 1_555
Mo1 Se2 2.552128 1_565
Mo1 Se2 2.552128 1_455
Mo1 Se2 2.552132 1_555
Se0 W0 2.557164 1_455
Se0 W0 2.557164 1_565
Se0 W0 2.557168 1_555
Se3 W0 2.557638 1_455
Se3 W0 2.557638 1_565
Se3 W0 2.557642 1_555
