# generated using pymatgen
data_Cs2TmCl5
_symmetry_space_group_name_H-M   'P 1'
_cell_length_a   7.42706316
_cell_length_b   9.47889983
_cell_length_c   15.25682295
_cell_angle_alpha   90.00000000
_cell_angle_beta   90.00000000
_cell_angle_gamma   90.00000000
_symmetry_Int_Tables_number   1
_chemical_formula_structural   Cs2TmCl5
_chemical_formula_sum   'Cs8 Tm4 Cl20'
_cell_volume   1074.08625113
_cell_formula_units_Z   4
loop_
 _symmetry_equiv_pos_site_id
 _symmetry_equiv_pos_as_xyz
  1  'x, y, z'
loop_
 _atom_site_type_symbol
 _atom_site_label
 _atom_site_symmetry_multiplicity
 _atom_site_fract_x
 _atom_site_fract_y
 _atom_site_fract_z
 _atom_site_occupancy
  Cs  Cs0  1  0.25000000  0.66575204  0.91625864  1
  Cs  Cs1  1  0.75000000  0.33424796  0.08374136  1
  Cs  Cs2  1  0.75000000  0.83424796  0.41625864  1
  Cs  Cs3  1  0.25000000  0.16575204  0.58374136  1
  Cs  Cs4  1  0.25000000  0.97233040  0.21109000  1
  Cs  Cs5  1  0.75000000  0.02766960  0.78891000  1
  Cs  Cs6  1  0.75000000  0.52766960  0.71109000  1
  Cs  Cs7  1  0.25000000  0.47233040  0.28891000  1
  Tm  Tm0  1  0.25000000  0.67866914  0.56513960  1
  Tm  Tm1  1  0.75000000  0.32133086  0.43486040  1
  Tm  Tm2  1  0.75000000  0.82133086  0.06513960  1
  Tm  Tm3  1  0.25000000  0.17866914  0.93486040  1
  Cl  Cl0  1  0.25000000  0.51929423  0.69990808  1
  Cl  Cl1  1  0.75000000  0.48070577  0.30009192  1
  Cl  Cl2  1  0.75000000  0.98070577  0.19990808  1
  Cl  Cl3  1  0.25000000  0.01929423  0.80009192  1
  Cl  Cl4  1  0.50251638  0.83494555  0.61860817  1
  Cl  Cl5  1  0.49748362  0.16505445  0.38139183  1
  Cl  Cl6  1  0.49748362  0.66505445  0.11860817  1
  Cl  Cl7  1  0.00251638  0.16505445  0.38139183  1
  Cl  Cl8  1  0.50251638  0.33494555  0.88139183  1
  Cl  Cl9  1  0.99748362  0.83494555  0.61860817  1
  Cl  Cl10  1  0.99748362  0.33494555  0.88139183  1
  Cl  Cl11  1  0.00251638  0.66505445  0.11860817  1
  Cl  Cl12  1  0.25000000  0.79141130  0.41003556  1
  Cl  Cl13  1  0.75000000  0.20858870  0.58996444  1
  Cl  Cl14  1  0.75000000  0.70858870  0.91003556  1
  Cl  Cl15  1  0.25000000  0.29141130  0.08996444  1
  Cl  Cl16  1  -0.00000000  0.50000000  0.50000000  1
  Cl  Cl17  1  -0.00000000  0.00000000  0.00000000  1
  Cl  Cl18  1  0.50000000  0.50000000  0.50000000  1
  Cl  Cl19  1  0.50000000  0.00000000  0.00000000  1
loop_
_geom_bond_atom_site_label_1
_geom_bond_atom_site_label_2
_geom_bond_distance
_geom_bond_site_symmetry_2
Cl0 Tm0 2.551454 1_555
Cl0 Cs0 3.580878 1_555
Cl0 Cs6 3.718296 1_555
Cl0 Cs6 3.718296 1_455
Cl0 Cs3 3.790996 1_555
Cl1 Tm1 2.551454 1_555
Cl1 Cs1 3.580878 1_555
Cl1 Cs7 3.718296 1_655
Cl1 Cs7 3.718296 1_555
Cl1 Cs2 3.790996 1_555
Cl2 Tm2 2.551454 1_555
Cl2 Cs2 3.580878 1_555
Cl2 Cs4 3.718296 1_655
Cl2 Cs4 3.718296 1_555
Cl2 Cs1 3.790996 1_565
Cl3 Tm3 2.551454 1_555
Cl3 Cs3 3.580878 1_555
Cl3 Cs5 3.718296 1_555
Cl3 Cs5 3.718296 1_455
Cl3 Cs0 3.790996 1_545
Cl4 Tm0 2.525298 1_555
Cl4 Cs2 3.592971 1_555
Cl4 Cs5 3.669707 1_565
Cl4 Cs3 3.692263 1_565
Cl4 Cs6 3.721941 1_555
Cl5 Tm1 2.525298 1_555
Cl5 Cs3 3.592971 1_555
Cl5 Cs4 3.669707 1_545
Cl5 Cs2 3.692263 1_545
Cl5 Cs7 3.721941 1_555
Cl6 Tm2 2.525298 1_555
Cl6 Cs0 3.592971 1_554
Cl6 Cs7 3.669707 1_555
Cl6 Cs1 3.692263 1_555
Cl6 Cs4 3.721941 1_555
Cl7 Tm1 2.525298 1_455
Cl7 Cs3 3.592971 1_555
Cl7 Cs4 3.669707 1_545
Cl7 Cs2 3.692263 1_445
Cl7 Cs7 3.721941 1_555
Cl8 Tm3 2.525298 1_555
Cl8 Cs1 3.592971 1_556
Cl8 Cs6 3.669707 1_555
Cl8 Cs0 3.692263 1_555
Cl8 Cs5 3.721941 1_555
Cl9 Tm0 2.525298 1_655
Cl9 Cs2 3.592971 1_555
Cl9 Cs5 3.669707 1_565
Cl9 Cs3 3.692263 1_665
Cl9 Cs6 3.721941 1_555
Cl10 Tm3 2.525298 1_655
Cl10 Cs1 3.592971 1_556
Cl10 Cs6 3.669707 1_555
Cl10 Cs0 3.692263 1_655
Cl10 Cs5 3.721941 1_555
Cl11 Tm2 2.525298 1_455
Cl11 Cs0 3.592971 1_554
Cl11 Cs7 3.669707 1_555
Cl11 Cs1 3.692263 1_455
Cl11 Cs4 3.721941 1_555
Cl12 Tm0 2.596514 1_555
Cl12 Cs4 3.486235 1_555
Cl12 Cs7 3.544417 1_555
Cl12 Cs2 3.736871 1_555
Cl12 Cs2 3.736871 1_455
Cl13 Tm1 2.596514 1_555
Cl13 Cs5 3.486235 1_555
Cl13 Cs6 3.544417 1_555
Cl13 Cs3 3.736871 1_655
Cl13 Cs3 3.736871 1_555
Cl14 Tm2 2.596514 1_556
Cl14 Cs6 3.486235 1_555
Cl14 Cs5 3.544417 1_565
Cl14 Cs0 3.736871 1_555
Cl14 Cs0 3.736871 1_655
Cl15 Tm3 2.596514 1_554
Cl15 Cs7 3.486235 1_555
Cl15 Cs4 3.544417 1_545
Cl15 Cs1 3.736871 1_455
Cl15 Cs1 3.736871 1_555
Cl16 Tm0 2.702499 1_555
Cl16 Tm1 2.702499 1_455
Cl16 Cs7 3.726713 1_555
Cl16 Cs6 3.726713 1_455
Cl16 Cs3 3.888194 1_555
Cl16 Cs2 3.888194 1_455
Cl17 Tm2 2.702499 1_445
Cl17 Tm3 2.702499 1_554
Cl17 Cs5 3.726713 1_454
Cl17 Cs4 3.726713 1_545
Cl17 Cs0 3.888194 1_544
Cl17 Cs1 3.888194 1_455
Cl18 Tm0 2.702499 1_555
Cl18 Tm1 2.702499 1_555
Cl18 Cs7 3.726713 1_555
Cl18 Cs6 3.726713 1_555
Cl18 Cs2 3.888194 1_555
Cl18 Cs3 3.888194 1_555
Cl19 Tm2 2.702499 1_545
Cl19 Tm3 2.702499 1_554
Cl19 Cs5 3.726713 1_554
Cl19 Cs4 3.726713 1_545
Cl19 Cs1 3.888194 1_555
Cl19 Cs0 3.888194 1_544
