# generated using pymatgen
data_FeCoSe2
_symmetry_space_group_name_H-M   'P 1'
_cell_length_a   3.58068100
_cell_length_b   3.58068100
_cell_length_c   5.23741400
_cell_angle_alpha   90.00000000
_cell_angle_beta   90.00000000
_cell_angle_gamma   120.00001852
_symmetry_Int_Tables_number   1
_chemical_formula_structural   FeCoSe2
_chemical_formula_sum   'Fe1 Co1 Se2'
_cell_volume   58.15388316
_cell_formula_units_Z   1
loop_
 _symmetry_equiv_pos_site_id
 _symmetry_equiv_pos_as_xyz
  1  'x, y, z'
loop_
 _atom_site_type_symbol
 _atom_site_label
 _atom_site_symmetry_multiplicity
 _atom_site_fract_x
 _atom_site_fract_y
 _atom_site_fract_z
 _atom_site_occupancy
  Fe  Fe0  1  0.00000000  0.00000000  0.00000000  1
  Co  Co0  1  0.00000000  0.00000000  0.50000000  1
  Se  Se0  1  0.33333300  0.66666700  0.24789900  1
  Se  Se1  1  0.66666700  0.33333300  0.75210100  1
loop_
_geom_bond_atom_site_label_1
_geom_bond_atom_site_label_2
_geom_bond_distance
_geom_bond_site_symmetry_2
Fe0 Se0 2.441201 1_545
Fe0 Se1 2.441201 1_454
Fe0 Se0 2.441203 1_445
Fe0 Se0 2.441203 1_555
Fe0 Se1 2.441203 1_444
Fe0 Se1 2.441203 1_554
Co0 Se1 2.452977 1_455
Co0 Se0 2.452977 1_545
Co0 Se1 2.452979 1_555
Co0 Se1 2.452979 1_445
Co0 Se0 2.452979 1_445
Co0 Se0 2.452979 1_555
