# generated using pymatgen
data_LiEr4Be4(SiO7)2
_symmetry_space_group_name_H-M   'P 1'
_cell_length_a   4.86687385
_cell_length_b   7.47008582
_cell_length_c   7.47008582
_cell_angle_alpha   87.22349688
_cell_angle_beta   87.00875813
_cell_angle_gamma   87.00875813
_symmetry_Int_Tables_number   1
_chemical_formula_structural   LiEr4Be4(SiO7)2
_chemical_formula_sum   'Li1 Er4 Be4 Si2 O14'
_cell_volume   270.55790120
_cell_formula_units_Z   1
loop_
 _symmetry_equiv_pos_site_id
 _symmetry_equiv_pos_as_xyz
  1  'x, y, z'
loop_
 _atom_site_type_symbol
 _atom_site_label
 _atom_site_symmetry_multiplicity
 _atom_site_fract_x
 _atom_site_fract_y
 _atom_site_fract_z
 _atom_site_occupancy
  Li  Li0  1  0.55842800  0.66455100  0.16455100  1
  Er  Er0  1  0.54125300  0.16300900  0.66300900  1
  Er  Er1  1  0.53991900  0.88866000  0.38866000  1
  Er  Er2  1  0.47517100  0.63337500  0.81039600  1
  Er  Er3  1  0.47517100  0.31039600  0.13337500  1
  Be  Be0  1  0.96785400  0.62538700  0.12538700  1
  Be  Be1  1  0.95860800  0.36208100  0.86208100  1
  Be  Be2  1  0.04410600  0.15109400  0.36917600  1
  Be  Be3  1  0.04410600  0.86917600  0.65109400  1
  Si  Si0  1  0.00967800  0.99199100  0.00902700  1
  Si  Si1  1  0.00967800  0.50902700  0.49199100  1
  O  O0  1  0.17815800  0.02187600  0.52187600  1
  O  O1  1  0.79266900  0.49949000  0.99949000  1
  O  O2  1  0.27155600  0.58438300  0.08438300  1
  O  O3  1  0.28689400  0.33982700  0.83982700  1
  O  O4  1  0.71731100  0.16257000  0.36000400  1
  O  O5  1  0.71731100  0.86000400  0.66257000  1
  O  O6  1  0.19868600  0.07412200  0.16386500  1
  O  O7  1  0.19870700  0.90047700  0.84518200  1
  O  O8  1  0.81051300  0.16143100  0.92398500  1
  O  O9  1  0.81051300  0.42398500  0.66143100  1
  O  O10  1  0.81065800  0.84032000  0.10187300  1
  O  O11  1  0.81065800  0.60187300  0.34032000  1
  O  O12  1  0.19870700  0.34518200  0.40047700  1
  O  O13  1  0.19868600  0.66386500  0.57412200  1
loop_
_geom_bond_atom_site_label_1
_geom_bond_atom_site_label_2
_geom_bond_distance
_geom_bond_site_symmetry_2
Li0 O2 1.695827 1_555
Li0 O11 1.870514 1_555
Li0 O10 1.870514 1_555
Li0 O1 2.047976 1_554
Er0 O3 2.202149 1_555
Er0 O5 2.378136 1_545
Er0 O4 2.378136 1_555
Er0 O8 2.404334 1_555
Er0 O9 2.404334 1_555
Er0 O0 2.417092 1_555
Er1 O0 2.193327 1_565
Er1 O4 2.258425 1_565
Er1 O5 2.258425 1_555
Er1 Li0 2.419395 1_555
Er1 O11 2.487334 1_555
Er1 O10 2.487334 1_555
Er1 O6 2.706069 1_565
Er1 O13 2.706069 1_555
Er2 O2 2.249126 1_556
Er2 O13 2.270392 1_555
Er2 O1 2.304976 1_555
Er2 O5 2.316360 1_555
Er2 O7 2.364869 1_555
Er2 O3 2.416289 1_555
Er2 O9 2.461946 1_555
Er3 O2 2.249126 1_555
Er3 O6 2.270392 1_555
Er3 O1 2.304976 1_554
Er3 O4 2.316360 1_555
Er3 O12 2.364869 1_555
Er3 O3 2.416289 1_554
Er3 O8 2.461946 1_554
Be0 O2 1.512266 1_655
Be0 O1 1.657989 1_554
Be0 O11 1.747144 1_555
Be0 O10 1.747144 1_555
Be1 O3 1.598511 1_655
Be1 O1 1.639663 1_555
Be1 O9 1.729384 1_555
Be1 O8 1.729384 1_555
Be2 O4 1.593177 1_455
Be2 O0 1.601193 1_555
Be2 O12 1.699397 1_555
Be2 O6 1.780076 1_555
Be3 O5 1.593177 1_455
Be3 O0 1.601193 1_565
Be3 O7 1.699397 1_555
Be3 O13 1.780076 1_555
O6 Si0 1.673060 1_545
O7 Si0 1.646093 1_556
O8 Si0 1.674374 1_646
O9 Si1 1.674374 1_655
O10 Si0 1.634382 1_655
O11 Si1 1.634382 1_655
O12 Si1 1.646093 1_555
O13 Si1 1.673060 1_555
