# generated using pymatgen
data_Ba2V3HO9
_symmetry_space_group_name_H-M   'P 1'
_cell_length_a   6.15184648
_cell_length_b   7.88986754
_cell_length_c   9.23717127
_cell_angle_alpha   112.98190457
_cell_angle_beta   90.00000000
_cell_angle_gamma   90.00000000
_symmetry_Int_Tables_number   1
_chemical_formula_structural   Ba2V3HO9
_chemical_formula_sum   'Ba4 V6 H2 O18'
_cell_volume   412.76082880
_cell_formula_units_Z   2
loop_
 _symmetry_equiv_pos_site_id
 _symmetry_equiv_pos_as_xyz
  1  'x, y, z'
loop_
 _atom_site_type_symbol
 _atom_site_label
 _atom_site_symmetry_multiplicity
 _atom_site_fract_x
 _atom_site_fract_y
 _atom_site_fract_z
 _atom_site_occupancy
  Ba  Ba0  1  0.75000000  0.32250594  0.41314483  1
  Ba  Ba1  1  0.25000000  0.67749406  0.58685517  1
  Ba  Ba2  1  0.75000000  0.73879341  0.24597350  1
  Ba  Ba3  1  0.25000000  0.26120659  0.75402650  1
  V  V0  1  0.50000000  0.00000000  0.00000000  1
  V  V1  1  -0.00000000  0.00000000  0.00000000  1
  V  V2  1  0.25000000  0.05006557  0.33361768  1
  V  V3  1  0.75000000  0.94993443  0.66638232  1
  V  V4  1  0.75000000  0.56427291  0.83060242  1
  V  V5  1  0.25000000  0.43572709  0.16939758  1
  H  H0  1  0.75000000  0.27581982  0.02298101  1
  H  H1  1  0.25000000  0.72418018  0.97701899  1
  O  O0  1  0.48812651  0.01002673  0.21916396  1
  O  O1  1  0.98812651  0.98997327  0.78083604  1
  O  O2  1  0.51187349  0.98997327  0.78083604  1
  O  O3  1  0.01187349  0.01002673  0.21916396  1
  O  O4  1  0.52942825  0.50312212  0.71067869  1
  O  O5  1  0.02942825  0.49687788  0.28932131  1
  O  O6  1  0.47057175  0.49687788  0.28932131  1
  O  O7  1  0.97057175  0.50312212  0.71067869  1
  O  O8  1  0.75000000  0.80839126  0.95380048  1
  O  O9  1  0.25000000  0.19160874  0.04619952  1
  O  O10  1  0.25000000  0.27306085  0.45908941  1
  O  O11  1  0.75000000  0.72693915  0.54091059  1
  O  O12  1  0.75000000  0.17535389  0.06232685  1
  O  O13  1  0.25000000  0.82464611  0.93767315  1
  O  O14  1  0.25000000  0.92230250  0.44340038  1
  O  O15  1  0.75000000  0.07769750  0.55659962  1
  O  O16  1  0.75000000  0.44546426  0.94924324  1
  O  O17  1  0.25000000  0.55453574  0.05075676  1
loop_
_geom_bond_atom_site_label_1
_geom_bond_atom_site_label_2
_geom_bond_distance
_geom_bond_site_symmetry_2
Ba0 O6 2.717483 1_555
Ba0 O5 2.717483 1_655
Ba0 O15 2.735926 1_555
Ba0 O4 2.892607 1_555
Ba0 O7 2.892607 1_555
Ba0 O3 2.904250 1_655
Ba0 O0 2.904250 1_555
Ba0 O11 2.938389 1_555
Ba0 O12 2.985177 1_555
Ba0 O10 3.150062 1_655
Ba0 O10 3.150062 1_555
Ba1 O7 2.717483 1_455
Ba1 O4 2.717483 1_555
Ba1 O14 2.735926 1_555
Ba1 O6 2.892607 1_555
Ba1 O5 2.892607 1_555
Ba1 O1 2.904250 1_455
Ba1 O2 2.904250 1_555
Ba1 O10 2.938389 1_555
Ba1 O13 2.985177 1_555
Ba1 O11 3.150062 1_455
Ba1 O11 3.150062 1_555
Ba2 O6 2.712038 1_555
Ba2 O5 2.712038 1_655
Ba2 O11 2.762244 1_555
Ba2 O3 2.765878 1_665
Ba2 O0 2.765878 1_565
Ba2 O16 2.813438 1_554
Ba2 O8 2.956787 1_554
Ba2 O15 3.064569 1_565
Ba3 O7 2.712038 1_455
Ba3 O4 2.712038 1_555
Ba3 O10 2.762244 1_555
Ba3 O1 2.765878 1_445
Ba3 O2 2.765878 1_545
Ba3 O17 2.813438 1_556
Ba3 O9 2.956787 1_556
Ba3 O14 3.064569 1_545
H0 O12 0.992658 1_555
H1 O13 0.992658 1_555
O0 V2 1.761452 1_555
O0 V0 1.996234 1_555
O1 V3 1.761452 1_555
O1 V1 1.996234 1_666
O2 V3 1.761452 1_555
O2 V0 1.996234 1_566
O3 V2 1.761452 1_555
O3 V1 1.996234 1_555
O4 V4 1.698174 1_555
O5 V5 1.698174 1_555
O6 V5 1.698174 1_555
O7 V4 1.698174 1_555
O8 V4 1.814712 1_555
O8 V1 2.080649 1_666
O8 V0 2.080649 1_566
O9 V5 1.814712 1_555
O9 V0 2.080649 1_555
O9 V1 2.080649 1_555
O10 V2 1.687143 1_555
O11 V3 1.687143 1_555
O12 V0 1.997227 1_555
O12 V1 1.997227 1_655
O13 V0 1.997227 1_566
O13 V1 1.997227 1_566
O14 V2 1.686040 1_565
O15 V3 1.686040 1_545
O16 V4 1.697612 1_555
O17 V5 1.697612 1_555
