# generated using pymatgen
data_Pr23Cd4Ru7
_symmetry_space_group_name_H-M   'P 1'
_cell_length_a   10.04929546
_cell_length_b   10.04929546
_cell_length_c   22.59618300
_cell_angle_alpha   90.00000000
_cell_angle_beta   90.00000000
_cell_angle_gamma   119.99999643
_symmetry_Int_Tables_number   1
_chemical_formula_structural   Pr23Cd4Ru7
_chemical_formula_sum   'Pr46 Cd8 Ru14'
_cell_volume   1976.22760153
_cell_formula_units_Z   2
loop_
 _symmetry_equiv_pos_site_id
 _symmetry_equiv_pos_as_xyz
  1  'x, y, z'
loop_
 _atom_site_type_symbol
 _atom_site_label
 _atom_site_symmetry_multiplicity
 _atom_site_fract_x
 _atom_site_fract_y
 _atom_site_fract_z
 _atom_site_occupancy
  Pr  Pr0  1  0.12630700  0.87369300  0.36446400  1
  Pr  Pr1  1  0.74738600  0.87369300  0.36446400  1
  Pr  Pr2  1  0.12630700  0.25261400  0.36446400  1
  Pr  Pr3  1  0.87369300  0.12630700  0.86446400  1
  Pr  Pr4  1  0.25261400  0.12630700  0.86446400  1
  Pr  Pr5  1  0.87369300  0.74738600  0.86446400  1
  Pr  Pr6  1  0.20501900  0.79498100  0.21799000  1
  Pr  Pr7  1  0.58996100  0.79498100  0.21799000  1
  Pr  Pr8  1  0.20501900  0.41003900  0.21799000  1
  Pr  Pr9  1  0.79498100  0.20501900  0.71799000  1
  Pr  Pr10  1  0.41003900  0.20501900  0.71799000  1
  Pr  Pr11  1  0.79498100  0.58996100  0.71799000  1
  Pr  Pr12  1  0.20715500  0.79284500  0.05250700  1
  Pr  Pr13  1  0.58569000  0.79284500  0.05250700  1
  Pr  Pr14  1  0.20715500  0.41431000  0.05250700  1
  Pr  Pr15  1  0.79284500  0.20715500  0.55250700  1
  Pr  Pr16  1  0.41431000  0.20715500  0.55250700  1
  Pr  Pr17  1  0.79284500  0.58569000  0.55250700  1
  Pr  Pr18  1  0.20716100  0.79283900  0.50916100  1
  Pr  Pr19  1  0.58567800  0.79283900  0.50916100  1
  Pr  Pr20  1  0.20716100  0.41432200  0.50916100  1
  Pr  Pr21  1  0.79283900  0.20716100  0.00916100  1
  Pr  Pr22  1  0.41432200  0.20716100  0.00916100  1
  Pr  Pr23  1  0.79283900  0.58567800  0.00916100  1
  Pr  Pr24  1  0.54129600  0.45870400  0.41451300  1
  Pr  Pr25  1  0.91740800  0.45870400  0.41451300  1
  Pr  Pr26  1  0.54129600  0.08259200  0.41451300  1
  Pr  Pr27  1  0.45870400  0.54129600  0.91451300  1
  Pr  Pr28  1  0.08259200  0.54129600  0.91451300  1
  Pr  Pr29  1  0.45870400  0.91740800  0.91451300  1
  Pr  Pr30  1  0.53997100  0.46002900  0.14525200  1
  Pr  Pr31  1  0.92005700  0.46002900  0.14525200  1
  Pr  Pr32  1  0.53997100  0.07994300  0.14525200  1
  Pr  Pr33  1  0.46002900  0.53997100  0.64525200  1
  Pr  Pr34  1  0.07994300  0.53997100  0.64525200  1
  Pr  Pr35  1  0.46002900  0.92005700  0.64525200  1
  Pr  Pr36  1  0.33333300  0.66666700  0.35317300  1
  Pr  Pr37  1  0.66666700  0.33333300  0.85317300  1
  Pr  Pr38  1  0.00000000  0.00000000  0.50069000  1
  Pr  Pr39  1  0.00000000  0.00000000  0.00069000  1
  Pr  Pr40  1  0.79302900  0.20697100  0.28040900  1
  Pr  Pr41  1  0.41394300  0.20697100  0.28040900  1
  Pr  Pr42  1  0.79302900  0.58605700  0.28040900  1
  Pr  Pr43  1  0.20697100  0.79302900  0.78040900  1
  Pr  Pr44  1  0.58605700  0.79302900  0.78040900  1
  Pr  Pr45  1  0.20697100  0.41394300  0.78040900  1
  Cd  Cd0  1  0.89428600  0.10571400  0.13713100  1
  Cd  Cd1  1  0.21142800  0.10571400  0.13713100  1
  Cd  Cd2  1  0.89428600  0.78857200  0.13713100  1
  Cd  Cd3  1  0.10571400  0.89428600  0.63713100  1
  Cd  Cd4  1  0.78857200  0.89428600  0.63713100  1
  Cd  Cd5  1  0.10571400  0.21142800  0.63713100  1
  Cd  Cd6  1  0.00000000  0.00000000  0.24934400  1
  Cd  Cd7  1  0.00000000  0.00000000  0.74934400  1
  Ru  Ru0  1  0.48310000  0.51690000  0.28916000  1
  Ru  Ru1  1  0.03380000  0.51690000  0.28916000  1
  Ru  Ru2  1  0.48310000  0.96620000  0.28916000  1
  Ru  Ru3  1  0.51690000  0.48310000  0.78916000  1
  Ru  Ru4  1  0.96620000  0.48310000  0.78916000  1
  Ru  Ru5  1  0.51690000  0.03380000  0.78916000  1
  Ru  Ru6  1  0.85373000  0.14627000  0.43891600  1
  Ru  Ru7  1  0.29254000  0.14627000  0.43891600  1
  Ru  Ru8  1  0.85373000  0.70746000  0.43891600  1
  Ru  Ru9  1  0.14627000  0.85373000  0.93891600  1
  Ru  Ru10  1  0.70746000  0.85373000  0.93891600  1
  Ru  Ru11  1  0.14627000  0.29254000  0.93891600  1
  Ru  Ru12  1  0.33333300  0.66666700  0.13178400  1
  Ru  Ru13  1  0.66666700  0.33333300  0.63178400  1
loop_
_geom_bond_atom_site_label_1
_geom_bond_atom_site_label_2
_geom_bond_distance
_geom_bond_site_symmetry_2
Pr0 Ru8 2.923736 1_455
Pr0 Ru7 2.923736 1_565
Pr0 Ru1 3.644493 1_555
Pr0 Ru2 3.644493 1_555
Pr1 Ru8 2.923736 1_555
Pr1 Ru6 2.923736 1_565
Pr1 Ru2 3.644493 1_555
Pr1 Ru0 3.644494 1_555
Pr2 Ru7 2.923736 1_555
Pr2 Ru6 2.923736 1_455
Pr2 Ru1 3.644493 1_555
Pr2 Ru0 3.644494 1_555
Pr3 Ru10 2.923736 1_545
Pr3 Ru11 2.923736 1_655
Pr3 Ru5 3.644493 1_555
Pr3 Ru4 3.644493 1_555
Pr4 Ru11 2.923736 1_555
Pr4 Ru9 2.923736 1_545
Pr4 Ru5 3.644493 1_555
Pr4 Ru3 3.644494 1_555
Pr5 Ru10 2.923736 1_555
Pr5 Ru9 2.923736 1_655
Pr5 Ru4 3.644493 1_555
Pr5 Ru3 3.644494 1_555
Pr6 Ru1 2.923659 1_555
Pr6 Ru2 2.923659 1_555
Pr6 Ru12 2.963542 1_555
Pr7 Ru2 2.923652 1_555
Pr7 Ru0 2.923660 1_555
Pr7 Ru12 2.963542 1_555
Pr8 Ru1 2.923652 1_555
Pr8 Ru0 2.923660 1_555
Pr8 Ru12 2.963542 1_555
Pr9 Ru5 2.923659 1_555
Pr9 Ru4 2.923659 1_555
Pr9 Ru13 2.963542 1_555
Pr10 Ru5 2.923652 1_555
Pr10 Ru3 2.923660 1_555
Pr10 Ru13 2.963542 1_555
Pr11 Ru4 2.923652 1_555
Pr11 Ru3 2.923660 1_555
Pr11 Ru13 2.963542 1_555
Pr12 Ru9 2.776896 1_554
Pr12 Ru12 2.834155 1_555
Pr13 Ru10 2.776896 1_554
Pr13 Ru12 2.834162 1_555
Pr14 Ru11 2.776896 1_554
Pr14 Ru12 2.834162 1_555
Pr15 Ru6 2.776896 1_555
Pr15 Ru13 2.834155 1_555
Pr16 Ru7 2.776896 1_555
Pr16 Ru13 2.834162 1_555
Pr17 Ru8 2.776896 1_555
Pr17 Ru13 2.834162 1_555
Pr18 Ru8 3.580923 1_455
Pr18 Ru7 3.580923 1_565
Pr19 Ru8 3.580923 1_555
Pr19 Ru6 3.580923 1_565
Pr20 Ru7 3.580923 1_555
Pr20 Ru6 3.580923 1_455
Pr21 Ru10 3.580923 1_544
Pr21 Ru11 3.580923 1_654
Pr22 Ru11 3.580923 1_554
Pr22 Ru9 3.580923 1_544
Pr23 Ru10 3.580923 1_554
Pr23 Ru9 3.580923 1_654
Pr24 Ru7 2.926150 1_555
Pr24 Ru8 2.926150 1_555
Pr24 Ru0 3.008177 1_555
Pr25 Ru8 2.926150 1_555
Pr25 Ru6 2.926150 1_555
Pr25 Ru1 3.008177 1_655
Pr26 Ru7 2.926150 1_555
Pr26 Ru6 2.926150 1_555
Pr26 Ru2 3.008177 1_545
Pr27 Ru11 2.926150 1_555
Pr27 Ru10 2.926150 1_555
Pr27 Ru3 3.008177 1_555
Pr28 Ru11 2.926150 1_555
Pr28 Ru9 2.926150 1_555
Pr28 Ru4 3.008177 1_455
Pr29 Ru10 2.926150 1_555
Pr29 Ru9 2.926150 1_555
Pr29 Ru5 3.008177 1_565
Pr30 Ru0 3.399103 1_555
Pr30 Ru12 3.609570 1_555
Pr31 Ru1 3.399105 1_655
Pr31 Ru12 3.609570 1_655
Pr32 Ru2 3.399105 1_545
Pr32 Ru12 3.609570 1_545
Pr33 Ru3 3.399103 1_555
Pr33 Ru13 3.609570 1_555
Pr34 Ru4 3.399105 1_455
Pr34 Ru13 3.609570 1_455
Pr35 Ru5 3.399105 1_565
Pr35 Ru13 3.609570 1_565
Pr36 Ru1 2.981228 1_555
Pr36 Ru2 2.981228 1_555
Pr36 Ru0 2.981236 1_555
Pr37 Ru5 2.981228 1_555
Pr37 Ru4 2.981228 1_555
Pr37 Ru3 2.981236 1_555
Pr38 Ru6 2.903502 1_455
Pr38 Ru8 2.903502 1_445
Pr38 Ru7 2.903502 1_555
Pr39 Ru9 2.903502 1_544
Pr39 Ru10 2.903502 1_444
Pr39 Ru11 2.903502 1_554
Pr40 Ru2 2.838671 1_545
Pr40 Ru1 2.838671 1_655
Pr41 Ru2 2.838664 1_545
Pr41 Ru0 2.838674 1_555
Pr42 Ru1 2.838664 1_655
Pr42 Ru0 2.838674 1_555
Pr43 Ru4 2.838671 1_455
Pr43 Ru5 2.838671 1_565
Pr44 Ru5 2.838664 1_565
Pr44 Ru3 2.838674 1_555
Pr45 Ru4 2.838664 1_455
Pr45 Ru3 2.838674 1_555
Cd0 Cd6 3.132884 1_655
Cd0 Cd2 3.187054 1_545
Cd0 Cd1 3.187054 1_655
Cd0 Pr21 3.388142 1_555
Cd0 Pr32 3.443342 1_555
Cd0 Pr31 3.443342 1_555
Cd0 Pr39 3.590396 1_655
Cd0 Pr7 3.590585 1_545
Cd0 Pr8 3.590585 1_655
Cd0 Pr13 3.661791 1_545
Cd0 Pr14 3.661791 1_655
Cd0 Pr40 3.686181 1_555
Cd1 Cd6 3.132884 1_555
Cd1 Cd2 3.187054 1_445
Cd1 Pr22 3.388142 1_555
Cd1 Pr32 3.443332 1_555
Cd1 Pr30 3.443337 1_555
Cd1 Pr39 3.590396 1_555
Cd1 Pr6 3.590581 1_545
Cd1 Pr8 3.590590 1_555
Cd1 Pr14 3.661791 1_555
Cd1 Pr12 3.661791 1_545
Cd1 Pr41 3.686186 1_555
Cd2 Cd6 3.132884 1_665
Cd2 Pr23 3.388142 1_555
Cd2 Pr31 3.443332 1_555
Cd2 Pr30 3.443337 1_555
Cd2 Pr39 3.590396 1_665
Cd2 Pr6 3.590581 1_655
Cd2 Pr7 3.590590 1_555
Cd2 Pr13 3.661791 1_555
Cd2 Pr12 3.661791 1_655
Cd2 Pr42 3.686186 1_555
Cd3 Cd7 3.132884 1_565
Cd3 Cd4 3.187054 1_455
Cd3 Cd5 3.187054 1_565
Cd3 Pr18 3.388142 1_555
Cd3 Pr34 3.443342 1_555
Cd3 Pr35 3.443342 1_555
Cd3 Pr38 3.590396 1_565
Cd3 Pr11 3.590585 1_455
Cd3 Pr10 3.590585 1_565
Cd3 Pr17 3.661791 1_455
Cd3 Pr16 3.661791 1_565
Cd3 Pr43 3.686181 1_555
Cd4 Cd7 3.132884 1_665
Cd4 Cd5 3.187054 1_665
Cd4 Pr19 3.388142 1_555
Cd4 Pr35 3.443332 1_555
Cd4 Pr33 3.443337 1_555
Cd4 Pr38 3.590396 1_665
Cd4 Pr9 3.590581 1_565
Cd4 Pr11 3.590590 1_555
Cd4 Pr17 3.661791 1_555
Cd4 Pr15 3.661791 1_565
Cd4 Pr44 3.686186 1_555
Cd5 Cd7 3.132884 1_555
Cd5 Pr20 3.388142 1_555
Cd5 Pr34 3.443332 1_555
Cd5 Pr33 3.443337 1_555
Cd5 Pr38 3.590396 1_555
Cd5 Pr9 3.590581 1_455
Cd5 Pr10 3.590590 1_555
Cd5 Pr16 3.661791 1_555
Cd5 Pr15 3.661791 1_455
Cd5 Pr45 3.686186 1_555
Cd6 Pr0 3.405871 1_545
Cd6 Pr2 3.405871 1_555
Cd6 Pr1 3.405871 1_445
Cd6 Pr6 3.638188 1_545
Cd6 Pr8 3.638196 1_555
Cd6 Pr7 3.638196 1_445
Cd6 Pr40 3.670265 1_455
Cd6 Pr41 3.670274 1_555
Cd6 Pr42 3.670274 1_445
Cd7 Pr3 3.405871 1_455
Cd7 Pr4 3.405871 1_555
Cd7 Pr5 3.405871 1_445
Cd7 Pr9 3.638188 1_455
Cd7 Pr10 3.638196 1_555
Cd7 Pr11 3.638196 1_445
Cd7 Pr43 3.670265 1_545
Cd7 Pr45 3.670274 1_555
Cd7 Pr44 3.670274 1_445
