# generated using pymatgen
data_NbFe(PbO3)2
_symmetry_space_group_name_H-M   'P 1'
_cell_length_a   4.05212100
_cell_length_b   4.05212100
_cell_length_c   8.12374300
_cell_angle_alpha   90.00000000
_cell_angle_beta   90.00000000
_cell_angle_gamma   90.00000000
_symmetry_Int_Tables_number   1
_chemical_formula_structural   NbFe(PbO3)2
_chemical_formula_sum   'Nb1 Fe1 Pb2 O6'
_cell_volume   133.38929782
_cell_formula_units_Z   1
loop_
 _symmetry_equiv_pos_site_id
 _symmetry_equiv_pos_as_xyz
  1  'x, y, z'
loop_
 _atom_site_type_symbol
 _atom_site_label
 _atom_site_symmetry_multiplicity
 _atom_site_fract_x
 _atom_site_fract_y
 _atom_site_fract_z
 _atom_site_occupancy
  Nb  Nb0  1  0.00000000  0.00000000  0.00000000  1
  Fe  Fe0  1  0.00000000  0.00000000  0.50000000  1
  Pb  Pb0  1  0.50000000  0.50000000  0.28225700  1
  Pb  Pb1  1  0.50000000  0.50000000  0.71774300  1
  O  O0  1  0.50000000  0.00000000  0.00000000  1
  O  O1  1  0.50000000  0.00000000  0.50000000  1
  O  O2  1  0.00000000  0.50000000  0.00000000  1
  O  O3  1  0.00000000  0.50000000  0.50000000  1
  O  O4  1  0.00000000  0.00000000  0.24880000  1
  O  O5  1  0.00000000  0.00000000  0.75120000  1
loop_
_geom_bond_atom_site_label_1
_geom_bond_atom_site_label_2
_geom_bond_distance
_geom_bond_site_symmetry_2
Nb0 O5 2.021187 1_554
Nb0 O4 2.021187 1_555
Nb0 O0 2.026060 1_455
Nb0 O0 2.026060 1_555
Nb0 O2 2.026060 1_545
Nb0 O2 2.026060 1_555
Fe0 O3 2.026060 1_555
Fe0 O1 2.026060 1_555
Fe0 O1 2.026060 1_455
Fe0 O3 2.026060 1_545
Fe0 O4 2.040684 1_555
Fe0 O5 2.040684 1_555
O1 Pb0 2.689589 1_555
O1 Pb0 2.689589 1_545
O1 Pb1 2.689589 1_555
O1 Pb1 2.689589 1_545
O3 Pb0 2.689589 1_555
O3 Pb1 2.689589 1_555
O3 Pb0 2.689589 1_455
O3 Pb1 2.689589 1_455
