# generated using pymatgen
data_NaHfMg6
_symmetry_space_group_name_H-M   'P 1'
_cell_length_a   5.17918800
_cell_length_b   6.45837700
_cell_length_c   11.17666900
_cell_angle_alpha   90.00000000
_cell_angle_beta   90.00000000
_cell_angle_gamma   90.00000000
_symmetry_Int_Tables_number   1
_chemical_formula_structural   NaHfMg6
_chemical_formula_sum   'Na2 Hf2 Mg12'
_cell_volume   373.85006288
_cell_formula_units_Z   2
loop_
 _symmetry_equiv_pos_site_id
 _symmetry_equiv_pos_as_xyz
  1  'x, y, z'
loop_
 _atom_site_type_symbol
 _atom_site_label
 _atom_site_symmetry_multiplicity
 _atom_site_fract_x
 _atom_site_fract_y
 _atom_site_fract_z
 _atom_site_occupancy
  Na  Na0  1  0.00000000  0.50000000  0.33615600  1
  Na  Na1  1  0.00000000  0.00000000  0.83615600  1
  Hf  Hf0  1  0.50000000  0.50000000  0.15811700  1
  Hf  Hf1  1  0.50000000  0.00000000  0.65811700  1
  Mg  Mg0  1  0.00000000  0.25752900  0.08613000  1
  Mg  Mg1  1  0.00000000  0.74247100  0.08613000  1
  Mg  Mg2  1  0.00000000  0.50000000  0.83384300  1
  Mg  Mg3  1  0.50000000  0.25012600  0.91769900  1
  Mg  Mg4  1  0.50000000  0.74987400  0.91769900  1
  Mg  Mg5  1  0.50000000  0.50000000  0.66422600  1
  Mg  Mg6  1  0.00000000  0.75752900  0.58613000  1
  Mg  Mg7  1  0.00000000  0.24247100  0.58613000  1
  Mg  Mg8  1  0.00000000  0.00000000  0.33384300  1
  Mg  Mg9  1  0.50000000  0.75012600  0.41769900  1
  Mg  Mg10  1  0.50000000  0.24987400  0.41769900  1
  Mg  Mg11  1  0.50000000  0.00000000  0.16422600  1
loop_
_geom_bond_atom_site_label_1
_geom_bond_atom_site_label_2
_geom_bond_distance
_geom_bond_site_symmetry_2
Hf0 Mg0 3.131389 1_555
Hf0 Mg1 3.131389 1_655
Hf0 Mg0 3.131389 1_655
Hf0 Mg1 3.131389 1_555
Hf0 Mg4 3.134429 1_554
Hf0 Mg3 3.134429 1_554
Hf0 Mg11 3.229910 1_555
Hf0 Mg11 3.229910 1_565
Hf0 Na0 3.265828 1_555
Hf0 Na0 3.265828 1_655
Hf0 Mg9 3.320672 1_555
Hf0 Mg10 3.320672 1_555
Hf1 Mg7 3.131389 1_555
Hf1 Mg7 3.131389 1_655
Hf1 Mg6 3.131389 1_645
Hf1 Mg6 3.131389 1_545
Hf1 Mg10 3.134429 1_555
Hf1 Mg9 3.134429 1_545
Hf1 Mg5 3.229910 1_545
Hf1 Mg5 3.229910 1_555
Hf1 Na1 3.265828 1_655
Hf1 Na1 3.265828 1_555
Hf1 Mg3 3.320672 1_555
Hf1 Mg4 3.320672 1_545
Mg0 Mg1 3.131938 1_555
Mg0 Mg11 3.199089 1_555
Mg0 Mg11 3.199089 1_455
Mg0 Mg3 3.201887 1_454
Mg0 Mg3 3.201887 1_554
Mg0 Na0 3.203319 1_555
Mg0 Mg2 3.225388 1_554
Mg0 Mg8 3.229780 1_555
Mg0 Na1 3.251468 1_554
Mg0 Mg1 3.326439 1_545
Mg1 Mg11 3.199089 1_465
Mg1 Mg11 3.199089 1_565
Mg1 Mg4 3.201887 1_454
Mg1 Mg4 3.201887 1_554
Mg1 Na0 3.203319 1_555
Mg1 Mg2 3.225388 1_554
Mg1 Mg8 3.229780 1_565
Mg1 Na1 3.251468 1_564
Mg2 Mg4 3.191972 1_555
Mg2 Mg4 3.191972 1_455
Mg2 Mg3 3.191972 1_455
Mg2 Mg3 3.191972 1_555
Mg2 Mg5 3.209342 1_455
Mg2 Mg5 3.209342 1_555
Mg2 Na1 3.229292 1_555
Mg2 Na1 3.229292 1_565
Mg2 Mg7 3.229780 1_555
Mg2 Mg6 3.229780 1_555
Mg3 Na1 3.185302 1_655
Mg3 Na1 3.185302 1_555
Mg3 Mg4 3.227561 1_555
Mg3 Mg4 3.230816 1_545
Mg3 Mg5 3.260381 1_555
Mg4 Na1 3.185302 1_665
Mg4 Na1 3.185302 1_565
Mg4 Mg5 3.260381 1_555
Mg5 Mg9 3.193979 1_555
Mg5 Mg6 3.199089 1_655
Mg5 Mg7 3.199089 1_555
Mg5 Mg7 3.199089 1_655
Mg5 Mg6 3.199089 1_555
Mg6 Mg7 3.131938 1_565
Mg6 Mg9 3.201887 1_555
Mg6 Mg9 3.201887 1_455
Mg6 Na1 3.203319 1_565
Mg6 Mg8 3.225388 1_565
Mg6 Na0 3.251468 1_555
Mg6 Mg7 3.326439 1_555
Mg7 Na1 3.203319 1_555
Mg7 Mg8 3.225388 1_555
Mg7 Na0 3.251468 1_555
Mg8 Mg9 3.191972 1_445
Mg8 Mg9 3.191972 1_545
Mg8 Na0 3.229292 1_545
Mg8 Na0 3.229292 1_555
Mg9 Na0 3.185302 1_555
Mg9 Na0 3.185302 1_655
Mg10 Na0 3.185302 1_555
Mg10 Na0 3.185302 1_655
Mg10 Mg8 3.191972 1_555
Mg10 Mg8 3.191972 1_655
Mg10 Mg5 3.193979 1_555
Mg10 Mg7 3.201887 1_555
Mg10 Mg7 3.201887 1_655
Mg10 Mg9 3.227561 1_545
Mg10 Mg9 3.230816 1_555
Mg10 Mg11 3.260381 1_555
Mg11 Mg3 3.193979 1_554
Mg11 Mg4 3.193979 1_544
Mg11 Mg8 3.209342 1_555
Mg11 Mg8 3.209342 1_655
Mg11 Mg9 3.260381 1_545
