# generated using pymatgen
data_K2Ce(CuS2)2
_symmetry_space_group_name_H-M   'P 1'
_cell_length_a   7.50343587
_cell_length_b   7.50343587
_cell_length_c   7.55380484
_cell_angle_alpha   70.80744022
_cell_angle_beta   70.80744022
_cell_angle_gamma   30.88058439
_symmetry_Int_Tables_number   1
_chemical_formula_structural   K2Ce(CuS2)2
_chemical_formula_sum   'K2 Ce1 Cu2 S4'
_cell_volume   205.19351856
_cell_formula_units_Z   1
loop_
 _symmetry_equiv_pos_site_id
 _symmetry_equiv_pos_as_xyz
  1  'x, y, z'
loop_
 _atom_site_type_symbol
 _atom_site_label
 _atom_site_symmetry_multiplicity
 _atom_site_fract_x
 _atom_site_fract_y
 _atom_site_fract_z
 _atom_site_occupancy
  K  K0  1  0.86325500  0.86325500  0.56264400  1
  K  K1  1  0.13674500  0.13674500  0.43735600  1
  Ce  Ce0  1  0.00000000  0.00000000  0.00000000  1
  Cu  Cu0  1  0.67928800  0.67928800  0.01417800  1
  Cu  Cu1  1  0.32071200  0.32071200  0.98582200  1
  S  S0  1  0.79915900  0.79915900  0.17214700  1
  S  S1  1  0.20084100  0.20084100  0.82785300  1
  S  S2  1  0.52128100  0.52128100  0.23534700  1
  S  S3  1  0.47871900  0.47871900  0.76465300  1
loop_
_geom_bond_atom_site_label_1
_geom_bond_atom_site_label_2
_geom_bond_distance
_geom_bond_site_symmetry_2
K0 S1 3.211411 1_565
K0 S1 3.211411 1_655
K0 S3 3.293514 1_565
K0 S3 3.293514 1_655
K0 S0 3.380248 1_555
K0 S2 3.387256 1_565
K0 S2 3.387256 1_655
K1 S0 3.211411 1_545
K1 S0 3.211411 1_455
K1 S2 3.293514 1_455
K1 S2 3.293514 1_545
K1 S1 3.380248 1_555
K1 S3 3.387256 1_545
K1 S3 3.387256 1_455
Ce0 S1 2.748515 1_554
Ce0 S0 2.748515 1_445
Ce0 S3 2.760287 1_544
Ce0 S3 2.760287 1_454
Ce0 S2 2.760287 1_545
Ce0 S2 2.760287 1_455
Cu0 S2 2.326054 1_555
Cu0 S1 2.401984 1_654
Cu0 S1 2.401984 1_564
Cu0 S0 2.416992 1_555
Cu1 S3 2.326054 1_555
Cu1 S0 2.401984 1_546
Cu1 S0 2.401984 1_456
Cu1 S1 2.416992 1_555
