# generated using pymatgen
data_Yb(Co2Ge)2
_symmetry_space_group_name_H-M   'P 1'
_cell_length_a   7.25171600
_cell_length_b   7.25171600
_cell_length_c   3.72967200
_cell_angle_alpha   90.00000000
_cell_angle_beta   90.00000000
_cell_angle_gamma   90.00000000
_symmetry_Int_Tables_number   1
_chemical_formula_structural   Yb(Co2Ge)2
_chemical_formula_sum   'Yb2 Co8 Ge4'
_cell_volume   196.13369718
_cell_formula_units_Z   2
loop_
 _symmetry_equiv_pos_site_id
 _symmetry_equiv_pos_as_xyz
  1  'x, y, z'
loop_
 _atom_site_type_symbol
 _atom_site_label
 _atom_site_symmetry_multiplicity
 _atom_site_fract_x
 _atom_site_fract_y
 _atom_site_fract_z
 _atom_site_occupancy
  Yb  Yb0  1  0.00000000  0.00000000  0.00000000  1
  Yb  Yb1  1  0.50000000  0.50000000  0.50000000  1
  Co  Co0  1  0.58309700  0.14448900  0.00000000  1
  Co  Co1  1  0.41690300  0.85551100  0.00000000  1
  Co  Co2  1  0.64448900  0.91690300  0.50000000  1
  Co  Co3  1  0.08309700  0.35551100  0.50000000  1
  Co  Co4  1  0.35551100  0.08309700  0.50000000  1
  Co  Co5  1  0.91690300  0.64448900  0.50000000  1
  Co  Co6  1  0.14448900  0.58309700  0.00000000  1
  Co  Co7  1  0.85551100  0.41690300  0.00000000  1
  Ge  Ge0  1  0.27867400  0.27867400  0.00000000  1
  Ge  Ge1  1  0.72132600  0.72132600  0.00000000  1
  Ge  Ge2  1  0.77867400  0.22132600  0.50000000  1
  Ge  Ge3  1  0.22132600  0.77867400  0.50000000  1
loop_
_geom_bond_atom_site_label_1
_geom_bond_atom_site_label_2
_geom_bond_distance
_geom_bond_site_symmetry_2
Co0 Ge2 2.408230 1_554
Co0 Ge2 2.408230 1_555
Co0 Ge0 2.412534 1_555
Co1 Ge3 2.408230 1_555
Co1 Ge3 2.408230 1_554
Co1 Ge1 2.412534 1_555
Co2 Ge1 2.408230 1_555
Co2 Ge1 2.408230 1_556
Co2 Ge2 2.412534 1_565
Co3 Ge0 2.408230 1_555
Co3 Ge0 2.408230 1_556
Co3 Ge2 2.412534 1_455
Co4 Ge0 2.408230 1_555
Co4 Ge0 2.408230 1_556
Co4 Ge3 2.412534 1_545
Co5 Ge1 2.408230 1_555
Co5 Ge1 2.408230 1_556
Co5 Ge3 2.412534 1_655
Co6 Ge3 2.408230 1_555
Co6 Ge3 2.408230 1_554
Co6 Ge0 2.412534 1_555
Co7 Ge2 2.408230 1_554
Co7 Ge2 2.408230 1_555
Co7 Ge1 2.412534 1_555
Ge0 Yb0 2.857934 1_555
Ge0 Yb1 2.937622 1_554
Ge0 Yb1 2.937622 1_555
Ge1 Yb0 2.857934 1_665
Ge1 Yb1 2.937622 1_554
Ge1 Yb1 2.937622 1_555
Ge2 Yb1 2.857934 1_555
Ge2 Yb0 2.937622 1_655
Ge2 Yb0 2.937622 1_656
Ge3 Yb1 2.857934 1_555
Ge3 Yb0 2.937622 1_566
Ge3 Yb0 2.937622 1_565
