# generated using pymatgen
data_Nb6SiSn
_symmetry_space_group_name_H-M   'P 1'
_cell_length_a   5.23696300
_cell_length_b   5.23696300
_cell_length_c   5.23696300
_cell_angle_alpha   90.00000000
_cell_angle_beta   90.00000000
_cell_angle_gamma   90.00000000
_symmetry_Int_Tables_number   1
_chemical_formula_structural   Nb6SiSn
_chemical_formula_sum   'Nb6 Si1 Sn1'
_cell_volume   143.62780277
_cell_formula_units_Z   1
loop_
 _symmetry_equiv_pos_site_id
 _symmetry_equiv_pos_as_xyz
  1  'x, y, z'
loop_
 _atom_site_type_symbol
 _atom_site_label
 _atom_site_symmetry_multiplicity
 _atom_site_fract_x
 _atom_site_fract_y
 _atom_site_fract_z
 _atom_site_occupancy
  Nb  Nb0  1  0.00000000  0.50000000  0.75874500  1
  Nb  Nb1  1  0.50000000  0.24125500  0.00000000  1
  Nb  Nb2  1  0.75874500  0.00000000  0.50000000  1
  Nb  Nb3  1  0.00000000  0.50000000  0.24125500  1
  Nb  Nb4  1  0.50000000  0.75874500  0.00000000  1
  Nb  Nb5  1  0.24125500  0.00000000  0.50000000  1
  Si  Si0  1  0.00000000  0.00000000  0.00000000  1
  Sn  Sn0  1  0.50000000  0.50000000  0.50000000  1
loop_
_geom_bond_atom_site_label_1
_geom_bond_atom_site_label_2
_geom_bond_distance
_geom_bond_site_symmetry_2
Nb0 Nb3 2.526887 1_556
Nb0 Nb3 2.710076 1_555
Nb0 Si0 2.907359 1_556
Nb0 Si0 2.907359 1_566
Nb0 Sn0 2.948317 1_555
Nb0 Sn0 2.948317 1_455
Nb1 Nb4 2.526887 1_545
Nb1 Nb4 2.710076 1_555
Nb1 Si0 2.907359 1_655
Nb1 Si0 2.907359 1_555
Nb1 Sn0 2.948317 1_555
Nb1 Sn0 2.948317 1_554
Nb2 Nb5 2.526887 1_655
Nb2 Nb5 2.710076 1_555
Nb2 Si0 2.907359 1_655
Nb2 Si0 2.907359 1_656
Nb2 Sn0 2.948317 1_545
Nb2 Sn0 2.948317 1_555
Nb3 Si0 2.907359 1_565
Nb3 Si0 2.907359 1_555
Nb3 Sn0 2.948317 1_555
Nb3 Sn0 2.948317 1_455
Nb4 Si0 2.907359 1_665
Nb4 Si0 2.907359 1_565
Nb4 Sn0 2.948317 1_555
Nb4 Sn0 2.948317 1_554
Nb5 Si0 2.907359 1_556
Nb5 Si0 2.907359 1_555
Nb5 Sn0 2.948317 1_545
Nb5 Sn0 2.948317 1_555
