# generated using pymatgen
data_KNbWO6
_symmetry_space_group_name_H-M   'P 1'
_cell_length_a   7.45641767
_cell_length_b   7.45641767
_cell_length_c   7.45641767
_cell_angle_alpha   120.11011374
_cell_angle_beta   120.06184874
_cell_angle_gamma   89.85114562
_symmetry_Int_Tables_number   1
_chemical_formula_structural   KNbWO6
_chemical_formula_sum   'K2 Nb2 W2 O12'
_cell_volume   292.75830185
_cell_formula_units_Z   2
loop_
 _symmetry_equiv_pos_site_id
 _symmetry_equiv_pos_as_xyz
  1  'x, y, z'
loop_
 _atom_site_type_symbol
 _atom_site_label
 _atom_site_symmetry_multiplicity
 _atom_site_fract_x
 _atom_site_fract_y
 _atom_site_fract_z
 _atom_site_occupancy
  K  K0  1  0.59491600  0.41687300  0.32195700  1
  K  K1  1  0.40508400  0.72704100  0.82195700  1
  Nb  Nb0  1  0.50000000  0.01027700  0.51027700  1
  Nb  Nb1  1  0.00000000  0.01027700  0.01027700  1
  W  W0  1  0.99568000  0.00397500  0.50829500  1
  W  W1  1  0.00432000  0.51261400  0.00829500  1
  O  O0  1  0.68474400  0.92644900  0.74170600  1
  O  O1  1  0.05838700  0.30676100  0.74837400  1
  O  O2  1  0.06126600  0.31426000  0.11875900  1
  O  O3  1  0.69252600  0.93271800  0.37104700  1
  O  O4  1  0.06167100  0.93271800  0.74019200  1
  O  O5  1  0.69550100  0.31426000  0.75299500  1
  O  O6  1  0.31525600  0.05696200  0.24170600  1
  O  O7  1  0.94161300  0.68998700  0.24837400  1
  O  O8  1  0.93832900  0.67852000  0.87104700  1
  O  O9  1  0.30449900  0.05749400  0.61875900  1
  O  O10  1  0.93873400  0.05749400  0.25299500  1
  O  O11  1  0.30747400  0.67852000  0.24019200  1
loop_
_geom_bond_atom_site_label_1
_geom_bond_atom_site_label_2
_geom_bond_distance
_geom_bond_site_symmetry_2
K0 O11 2.938386 1_555
K0 O8 2.938392 1_555
K0 O6 3.012657 1_555
K1 O3 2.938392 1_556
K1 O4 2.938392 1_555
K1 O0 3.012652 1_555
Nb0 O9 1.948384 1_555
Nb0 O5 1.948384 1_555
Nb0 O6 1.990539 1_555
Nb0 O0 1.990544 1_545
Nb0 O3 2.087931 1_545
Nb0 O11 2.087937 1_545
Nb1 O2 1.948384 1_555
Nb1 O10 1.948389 1_455
Nb1 O0 1.990537 1_444
Nb1 O6 1.990539 1_555
Nb1 O4 2.087931 1_544
Nb1 O8 2.087938 1_444
O1 W0 1.905854 1_455
O1 W1 2.017312 1_556
O2 W1 1.978585 1_555
O3 W0 1.892692 1_565
O4 W0 1.892692 1_465
O5 W1 1.978590 1_656
O7 W1 1.905856 1_655
O7 W0 2.017314 1_565
O8 W1 1.892692 1_656
O9 W0 1.978592 1_455
O10 W0 1.978590 1_555
O11 W1 1.892692 1_555
