# generated using pymatgen
data_NdNb3O9
_symmetry_space_group_name_H-M   'P 1'
_cell_length_a   11.80873161
_cell_length_b   5.66509002
_cell_length_c   8.90539385
_cell_angle_alpha   72.01424720
_cell_angle_beta   63.95603120
_cell_angle_gamma   45.64086641
_symmetry_Int_Tables_number   1
_chemical_formula_structural   NdNb3O9
_chemical_formula_sum   'Nd2 Nb6 O18'
_cell_volume   382.69052111
_cell_formula_units_Z   2
loop_
 _symmetry_equiv_pos_site_id
 _symmetry_equiv_pos_as_xyz
  1  'x, y, z'
loop_
 _atom_site_type_symbol
 _atom_site_label
 _atom_site_symmetry_multiplicity
 _atom_site_fract_x
 _atom_site_fract_y
 _atom_site_fract_z
 _atom_site_occupancy
  Nd  Nd0  1  0.34484200  0.95731300  0.00186700  1
  Nd  Nd1  1  0.65515800  0.04268700  0.99813300  1
  Nb  Nb0  1  0.24599400  0.47666700  0.26699000  1
  Nb  Nb1  1  0.07536600  0.53914000  0.75180600  1
  Nb  Nb2  1  0.59714600  0.45363900  0.25987500  1
  Nb  Nb3  1  0.40285400  0.54636100  0.74012500  1
  Nb  Nb4  1  0.92463400  0.46086000  0.24819400  1
  Nb  Nb5  1  0.75400600  0.52333300  0.73301000  1
  O  O0  1  0.09920700  0.99767900  0.23342000  1
  O  O1  1  0.09236700  0.49748700  0.22933800  1
  O  O2  1  0.42945900  0.01356500  0.21091300  1
  O  O3  1  0.35918300  0.50298500  0.00060000  1
  O  O4  1  0.17044000  0.48753300  0.50472900  1
  O  O5  1  0.24684500  0.99869000  0.76987100  1
  O  O6  1  0.41203900  0.53021600  0.24218500  1
  O  O7  1  0.25895000  0.45086100  0.77789300  1
  O  O8  1  0.50000000  0.50000000  0.50000000  1
  O  O9  1  0.75315500  0.00131000  0.23012900  1
  O  O10  1  0.64081700  0.49701500  0.99940000  1
  O  O11  1  0.57054100  0.98643500  0.78908700  1
  O  O12  1  0.74105000  0.54913900  0.22210700  1
  O  O13  1  0.58796100  0.46978400  0.75781500  1
  O  O14  1  0.00000000  0.50000000  0.00000000  1
  O  O15  1  0.82956000  0.51246700  0.49527100  1
  O  O16  1  0.90079300  0.00232100  0.76658000  1
  O  O17  1  0.90763300  0.50251300  0.77066200  1
loop_
_geom_bond_atom_site_label_1
_geom_bond_atom_site_label_2
_geom_bond_distance
_geom_bond_site_symmetry_2
Nd0 O3 2.461722 1_555
Nd0 O10 2.497957 1_554
Nd0 O6 2.583169 1_555
Nd0 O11 2.590024 1_554
Nd0 O0 2.613332 1_555
Nd0 O2 2.647787 1_565
Nd0 O5 2.661502 1_554
Nd0 O7 2.681726 1_564
Nd0 O13 2.781056 1_554
Nd0 O1 2.850284 1_565
Nd0 O14 2.925147 1_565
Nd0 O3 3.208368 1_565
Nd1 O10 2.461722 1_555
Nd1 O3 2.497957 1_556
Nd1 O13 2.583169 1_555
Nd1 O2 2.590024 1_556
Nd1 O16 2.613332 1_555
Nd1 O11 2.647787 1_545
Nd1 O9 2.661502 1_556
Nd1 O12 2.681726 1_546
Nd1 O6 2.781056 1_556
Nd1 O17 2.850284 1_545
Nd1 O14 2.925147 1_646
Nd1 O10 3.208368 1_545
Nb0 O4 1.904508 1_555
Nb0 O1 1.904725 1_555
Nb0 O2 1.933188 1_555
Nb0 O6 2.096545 1_555
Nb0 O0 2.135859 1_555
Nb0 O3 2.170816 1_555
Nb1 O16 1.887706 1_465
Nb1 O7 1.964262 1_555
Nb1 O4 1.989071 1_555
Nb1 O14 1.993097 1_556
Nb1 O17 2.062907 1_455
Nb1 O5 2.193849 1_545
Nb2 O9 1.849327 1_555
Nb2 O8 1.931107 1_555
Nb2 O6 1.981235 1_555
Nb2 O12 1.991183 1_555
Nb2 O10 2.117020 1_554
Nb2 O2 2.300873 1_565
Nb3 O5 1.849327 1_555
Nb3 O8 1.931107 1_555
Nb3 O13 1.981235 1_555
Nb3 O7 1.991183 1_555
Nb3 O3 2.117020 1_556
Nb3 O11 2.300873 1_545
Nb4 O0 1.887706 1_645
Nb4 O12 1.964262 1_555
Nb4 O15 1.989071 1_555
Nb4 O14 1.993097 1_655
Nb4 O1 2.062907 1_655
Nb4 O9 2.193849 1_565
Nb5 O15 1.904508 1_555
Nb5 O17 1.904725 1_555
Nb5 O11 1.933188 1_555
Nb5 O13 2.096545 1_555
Nb5 O16 2.135859 1_555
Nb5 O10 2.170816 1_555
