# generated using pymatgen
data_MgCo5(P2O7)4
_symmetry_space_group_name_H-M   'P 1'
_cell_length_a   7.36912350
_cell_length_b   7.80505503
_cell_length_c   10.18060752
_cell_angle_alpha   107.00914629
_cell_angle_beta   88.04875649
_cell_angle_gamma   94.84645360
_symmetry_Int_Tables_number   1
_chemical_formula_structural   MgCo5(P2O7)4
_chemical_formula_sum   'Mg1 Co5 P8 O28'
_cell_volume   557.91013328
_cell_formula_units_Z   1
loop_
 _symmetry_equiv_pos_site_id
 _symmetry_equiv_pos_as_xyz
  1  'x, y, z'
loop_
 _atom_site_type_symbol
 _atom_site_label
 _atom_site_symmetry_multiplicity
 _atom_site_fract_x
 _atom_site_fract_y
 _atom_site_fract_z
 _atom_site_occupancy
  Mg  Mg0  1  0.95280994  0.19869291  0.72471321  1
  Co  Co0  1  0.26737779  0.85644615  0.58557979  1
  Co  Co1  1  0.25065770  0.84413961  0.06135076  1
  Co  Co2  1  0.49438167  0.49798414  0.00195066  1
  Co  Co3  1  0.70864887  0.14840029  0.95743733  1
  Co  Co4  1  0.75238598  0.14784247  0.40307428  1
  P  P0  1  0.14798965  0.20571294  0.01963098  1
  P  P1  1  0.15837859  0.18313898  0.30043019  1
  P  P2  1  0.28877764  0.53535699  0.74115593  1
  P  P3  1  0.47504274  0.76676676  0.30776935  1
  P  P4  1  0.53716729  0.24466337  0.68883993  1
  P  P5  1  0.70342854  0.45654463  0.26054448  1
  P  P6  1  0.85736388  0.82848728  0.69516288  1
  P  P7  1  0.84041386  0.78083490  0.97483729  1
  O  O0  1  0.00846906  0.76919167  0.05951293  1
  O  O1  1  0.99545072  0.10727254  0.37544557  1
  O  O2  1  0.12293219  0.40563719  0.72533919  1
  O  O3  1  0.06029066  0.21565305  0.16699308  1
  O  O4  1  0.27933908  0.37179054  0.03361781  1
  O  O5  1  0.24872092  0.34999540  0.39193355  1
  O  O6  1  0.28455604  0.67622803  0.66404331  1
  O  O7  1  0.30251724  0.79529288  0.39954083  1
  O  O8  1  0.34286867  0.63230386  0.89368023  1
  O  O9  1  0.39651086  0.08959397  0.62997487  1
  O  O10  1  0.24707238  0.03043150  0.96704559  1
  O  O11  1  0.42085419  0.72067614  0.15325521  1
  O  O12  1  0.28323327  0.03122762  0.23375011  1
  O  O13  1  0.46266265  0.42487837  0.67438226  1
  O  O14  1  0.54424242  0.58931183  0.32513396  1
  O  O15  1  0.73815858  0.98655547  0.75746957  1
  O  O16  1  0.56736309  0.27894285  0.84446509  1
  O  O17  1  0.74076661  0.94946795  0.03489897  1
  O  O18  1  0.62180951  0.91804190  0.34931703  1
  O  O19  1  0.63630231  0.36607307  0.10820230  1
  O  O20  1  0.72364031  0.23058494  0.61132470  1
  O  O21  1  0.65967463  0.31057163  0.33515927  1
  O  O22  1  0.78515965  0.66819542  0.58896308  1
  O  O23  1  0.71481876  0.61016454  0.95849448  1
  O  O24  1  0.92786345  0.77256823  0.82759187  1
  O  O25  1  0.88663005  0.55149017  0.27266081  1
  O  O26  1  0.03557883  0.93698331  0.65426767  1
  O  O27  1  0.98750972  0.21169751  0.92855963  1
loop_
_geom_bond_atom_site_label_1
_geom_bond_atom_site_label_2
_geom_bond_distance
_geom_bond_site_symmetry_2
Mg0 O2 1.957795 1_655
Mg0 O27 2.071471 1_555
Mg0 O26 2.093437 1_645
Mg0 O20 2.149043 1_555
Mg0 O15 2.280206 1_545
Co0 O6 1.824011 1_555
Co0 O7 1.827749 1_555
Co0 O26 1.909148 1_555
Co0 O9 1.917484 1_565
Co1 O0 1.829542 1_555
Co1 O12 1.934018 1_565
Co1 O10 1.965086 1_564
Co1 O11 2.046623 1_555
Co1 O8 2.137499 1_554
Co2 O4 1.863466 1_555
Co2 O23 1.881085 1_554
Co2 O11 2.055070 1_555
Co2 O19 2.057770 1_555
Co2 O16 2.067761 1_554
Co2 O8 2.125638 1_554
Co3 O17 1.969745 1_546
Co3 O19 2.024404 1_556
Co3 O15 2.073446 1_545
Co3 O16 2.095546 1_555
Co3 O27 2.103724 1_555
Co4 O21 1.802933 1_555
Co4 O1 1.843125 1_555
Co4 O18 1.900628 1_545
Co4 O20 2.036743 1_555
O0 P7 1.556477 1_454
O1 P1 1.567609 1_655
O2 P2 1.501192 1_555
O3 P0 1.596476 1_555
O3 P1 1.652837 1_555
O4 P0 1.525388 1_555
O5 P1 1.480885 1_555
O6 P2 1.529258 1_555
O7 P3 1.544044 1_555
O8 P2 1.564090 1_555
O9 P4 1.518012 1_555
O10 P0 1.550821 1_556
O11 P3 1.565497 1_555
O12 P1 1.544048 1_555
O13 P4 1.599597 1_555
O13 P2 1.622357 1_555
O14 P3 1.574286 1_555
O14 P5 1.623732 1_555
O15 P6 1.543839 1_555
O16 P4 1.548301 1_555
O17 P7 1.518995 1_554
O18 P3 1.505297 1_555
O19 P5 1.581523 1_555
O20 P4 1.556933 1_555
O21 P5 1.551335 1_555
O22 P6 1.467176 1_555
O23 P7 1.526842 1_555
O24 P7 1.597263 1_555
O24 P6 1.645699 1_555
O25 P5 1.475054 1_555
O26 P6 1.611297 1_455
O27 P0 1.539377 1_656
