# generated using pymatgen
data_Li9Mn2Co5O16
_symmetry_space_group_name_H-M   'P 1'
_cell_length_a   2.89641200
_cell_length_b   9.80303100
_cell_length_c   10.30442269
_cell_angle_alpha   81.01917314
_cell_angle_beta   90.00000000
_cell_angle_gamma   90.00000000
_symmetry_Int_Tables_number   1
_chemical_formula_structural   Li9Mn2Co5O16
_chemical_formula_sum   'Li9 Mn2 Co5 O16'
_cell_volume   288.99298419
_cell_formula_units_Z   1
loop_
 _symmetry_equiv_pos_site_id
 _symmetry_equiv_pos_as_xyz
  1  'x, y, z'
loop_
 _atom_site_type_symbol
 _atom_site_label
 _atom_site_symmetry_multiplicity
 _atom_site_fract_x
 _atom_site_fract_y
 _atom_site_fract_z
 _atom_site_occupancy
  Li  Li0  1  0.50000000  0.26116800  0.87310600  1
  Li  Li1  1  0.50000000  0.74120800  0.62006400  1
  Li  Li2  1  0.50000000  0.25621700  0.37627200  1
  Li  Li3  1  0.00000000  0.26411400  0.60352400  1
  Li  Li4  1  0.00000000  0.73394900  0.38823800  1
  Li  Li5  1  0.00000000  0.25919300  0.12983200  1
  Li  Li6  1  0.50000000  0.73407200  0.12952700  1
  Li  Li7  1  0.00000000  0.74492000  0.87433100  1
  Li  Li8  1  0.50000000  0.50369400  0.50010400  1
  Mn  Mn0  1  0.00000000  0.00139100  0.99946400  1
  Mn  Mn1  1  0.00000000  0.50343600  0.74207100  1
  Co  Co0  1  0.00000000  0.99836800  0.50128300  1
  Co  Co1  1  0.00000000  0.49214500  0.27082800  1
  Co  Co2  1  0.50000000  0.99737000  0.25247500  1
  Co  Co3  1  0.50000000  0.50064300  0.00509600  1
  Co  Co4  1  0.50000000  0.00243400  0.74738200  1
  O  O0  1  0.50000000  0.11501100  0.04990700  1
  O  O1  1  0.50000000  0.61223800  0.80877300  1
  O  O2  1  0.50000000  0.11716600  0.55834800  1
  O  O3  1  0.00000000  0.10404800  0.82177000  1
  O  O4  1  0.00000000  0.61501000  0.58134200  1
  O  O5  1  0.00000000  0.10623700  0.30827400  1
  O  O6  1  0.50000000  0.62007500  0.30604500  1
  O  O7  1  0.00000000  0.61722500  0.05555700  1
  O  O8  1  0.50000000  0.38704300  0.69614300  1
  O  O9  1  0.50000000  0.88266500  0.44122600  1
  O  O10  1  0.50000000  0.38410000  0.18257900  1
  O  O11  1  0.00000000  0.37749400  0.42586900  1
  O  O12  1  0.00000000  0.89925600  0.17947800  1
  O  O13  1  0.00000000  0.39073500  0.92949600  1
  O  O14  1  0.50000000  0.88662800  0.95047700  1
  O  O15  1  0.00000000  0.89074700  0.69111700  1
loop_
_geom_bond_atom_site_label_1
_geom_bond_atom_site_label_2
_geom_bond_distance
_geom_bond_site_symmetry_2
Li0 O8 2.036001 1_555
Li0 O13 2.068487 1_555
Li0 O13 2.068487 1_655
Li0 O0 2.134709 1_556
Li0 O3 2.236936 1_555
Li0 O3 2.236936 1_655
Li1 O4 1.985219 1_555
Li1 O4 1.985219 1_655
Li1 O9 2.126292 1_555
Li1 O1 2.147584 1_555
Li1 O15 2.262171 1_655
Li1 O15 2.262171 1_555
Li2 O11 1.990384 1_655
Li2 O11 1.990384 1_555
Li2 O2 2.140028 1_555
Li2 O10 2.184954 1_555
Li2 O5 2.252009 1_555
Li2 O5 2.252009 1_655
Li3 O11 1.987795 1_555
Li3 O2 2.144413 1_555
Li3 O2 2.144413 1_455
Li3 O8 2.195321 1_455
Li3 O8 2.195321 1_555
Li3 O3 2.533377 1_555
Li4 O6 2.087093 1_455
Li4 O6 2.087093 1_555
Li4 O4 2.143486 1_555
Li4 O9 2.183879 1_555
Li4 O9 2.183879 1_455
Li4 O12 2.482974 1_555
Li5 O10 2.024803 1_455
Li5 O10 2.024803 1_555
Li5 O5 2.183687 1_555
Li5 O13 2.256827 1_554
Li5 O0 2.266445 1_455
Li5 O0 2.266445 1_555
Li6 O6 1.980576 1_555
Li6 O7 2.064686 1_655
Li6 O7 2.064686 1_555
Li6 O14 2.186127 1_554
Li6 O12 2.290109 1_655
Li6 O12 2.290109 1_555
Li7 O7 2.079533 1_556
Li7 O1 2.125973 1_455
Li7 O1 2.125973 1_555
Li7 O15 2.182938 1_555
Li7 O14 2.232276 1_455
Li7 O14 2.232276 1_555
Li8 O4 2.067376 1_555
Li8 O4 2.067376 1_655
Li8 O11 2.123306 1_655
Li8 O11 2.123306 1_555
Li8 O6 2.141966 1_555
Li8 O8 2.160357 1_555
Mn0 O0 1.946491 1_456
Mn0 O0 1.946491 1_556
Mn0 O3 1.946826 1_555
Mn0 O14 1.948099 1_445
Mn0 O14 1.948099 1_545
Mn0 O12 1.965561 1_546
Mn1 O4 1.836794 1_555
Mn1 O8 1.947244 1_555
Mn1 O8 1.947244 1_455
Mn1 O1 1.983988 1_555
Mn1 O1 1.983988 1_455
Mn1 O13 2.069876 1_555
Co0 O9 1.996479 1_455
Co0 O9 1.996479 1_555
Co0 O2 2.003277 1_465
Co0 O2 2.003277 1_565
Co0 O15 2.072481 1_555
Co0 O5 2.101688 1_565
Co1 O11 1.804152 1_555
Co1 O6 1.985912 1_555
Co1 O6 1.985912 1_455
Co1 O10 2.084891 1_555
Co1 O10 2.084891 1_455
Co1 O7 2.361122 1_555
Co2 O5 1.938673 1_565
Co2 O5 1.938673 1_665
Co2 O12 1.952960 1_655
Co2 O12 1.952960 1_555
Co2 O9 2.089139 1_555
Co2 O0 2.221581 1_565
Co3 O7 1.964516 1_655
Co3 O7 1.964516 1_555
Co3 O10 1.999410 1_555
Co3 O13 2.031519 1_654
Co3 O13 2.031519 1_554
Co3 O1 2.144372 1_554
Co4 O15 1.957133 1_545
Co4 O15 1.957133 1_645
Co4 O3 1.978766 1_655
Co4 O3 1.978766 1_555
Co4 O2 2.091713 1_555
Co4 O14 2.219630 1_545
