# generated using pymatgen
data_Ba2La2MgTi3O12
_symmetry_space_group_name_H-M   'P 1'
_cell_length_a   9.69228058
_cell_length_b   9.69228058
_cell_length_c   9.69228171
_cell_angle_alpha   34.12505833
_cell_angle_beta   34.12505833
_cell_angle_gamma   34.12505477
_symmetry_Int_Tables_number   1
_chemical_formula_structural   Ba2La2MgTi3O12
_chemical_formula_sum   'Ba2 La2 Mg1 Ti3 O12'
_cell_volume   255.48000368
_cell_formula_units_Z   1
loop_
 _symmetry_equiv_pos_site_id
 _symmetry_equiv_pos_as_xyz
  1  'x, y, z'
loop_
 _atom_site_type_symbol
 _atom_site_label
 _atom_site_symmetry_multiplicity
 _atom_site_fract_x
 _atom_site_fract_y
 _atom_site_fract_z
 _atom_site_occupancy
  Ba  Ba0  1  0.62447000  0.62447000  0.62447000  1
  Ba  Ba1  1  0.37553000  0.37553000  0.37553000  1
  La  La0  1  0.12622900  0.12622900  0.12622900  1
  La  La1  1  0.87377100  0.87377100  0.87377100  1
  Mg  Mg0  1  0.50000000  0.50000000  0.50000000  1
  Ti  Ti0  1  0.00000000  0.00000000  0.00000000  1
  Ti  Ti1  1  0.75295500  0.75295500  0.75295500  1
  Ti  Ti2  1  0.24704500  0.24704500  0.24704500  1
  O  O0  1  0.10878800  0.63587400  0.63587400  1
  O  O1  1  0.36665100  0.88241800  0.88241800  1
  O  O2  1  0.89121200  0.36412600  0.36412600  1
  O  O3  1  0.63334900  0.11758200  0.11758200  1
  O  O4  1  0.36412600  0.89121200  0.36412600  1
  O  O5  1  0.63587400  0.10878800  0.63587400  1
  O  O6  1  0.11758200  0.63334900  0.11758200  1
  O  O7  1  0.88241800  0.36665100  0.88241800  1
  O  O8  1  0.36412600  0.36412600  0.89121200  1
  O  O9  1  0.63587400  0.63587400  0.10878800  1
  O  O10  1  0.11758200  0.11758200  0.63334900  1
  O  O11  1  0.88241800  0.88241800  0.36665100  1
loop_
_geom_bond_atom_site_label_1
_geom_bond_atom_site_label_2
_geom_bond_distance
_geom_bond_site_symmetry_2
Ba0 O10 2.844684 1_565
Ba0 O10 2.844684 1_655
Ba0 O3 2.844684 1_556
Ba0 O6 2.844684 1_556
Ba0 O3 2.844684 1_565
Ba0 O6 2.844684 1_655
Ba0 O8 2.891109 1_555
Ba0 O2 2.891109 1_555
Ba0 O4 2.891109 1_555
Ba0 O11 2.899502 1_555
Ba0 O1 2.899503 1_555
Ba0 O7 2.899503 1_555
Ba1 O11 2.844684 1_545
Ba1 O11 2.844684 1_455
Ba1 O7 2.844684 1_554
Ba1 O1 2.844684 1_554
Ba1 O1 2.844684 1_545
Ba1 O7 2.844684 1_455
Ba1 O9 2.891109 1_555
Ba1 O0 2.891109 1_555
Ba1 O5 2.891109 1_555
Ba1 O10 2.899502 1_555
Ba1 O6 2.899503 1_555
Ba1 O3 2.899503 1_555
La0 O8 2.689346 1_554
La0 O2 2.689347 1_455
La0 O4 2.689347 1_545
La0 O11 2.758631 1_445
La0 O1 2.758632 1_544
La0 O7 2.758632 1_454
La0 O9 2.845303 1_455
La0 O9 2.845303 1_545
La0 O0 2.845303 1_554
La0 O5 2.845303 1_554
La0 O0 2.845303 1_545
La0 O5 2.845303 1_455
La1 O9 2.689346 1_556
La1 O0 2.689347 1_655
La1 O5 2.689347 1_565
La1 O10 2.758631 1_665
La1 O3 2.758632 1_566
La1 O6 2.758632 1_656
La1 O8 2.845303 1_565
La1 O8 2.845303 1_655
La1 O4 2.845303 1_556
La1 O2 2.845303 1_556
La1 O2 2.845303 1_565
La1 O4 2.845303 1_655
Mg0 O0 2.045147 1_555
Mg0 O5 2.045147 1_555
Mg0 O2 2.045147 1_555
Mg0 O4 2.045147 1_555
Mg0 O9 2.045148 1_555
Mg0 O8 2.045148 1_555
O0 Ti1 1.908592 1_455
O1 Ti0 1.991531 1_566
O1 Ti1 2.053725 1_555
O2 Ti2 1.908592 1_655
O3 Ti0 1.991531 1_655
O3 Ti2 2.053725 1_555
O4 Ti2 1.908592 1_565
O5 Ti1 1.908592 1_545
O6 Ti0 1.991531 1_565
O6 Ti2 2.053725 1_555
O7 Ti0 1.991531 1_656
O7 Ti1 2.053725 1_555
O8 Ti2 1.908592 1_556
O9 Ti1 1.908592 1_554
O10 Ti0 1.991531 1_556
O10 Ti2 2.053726 1_555
O11 Ti0 1.991531 1_665
O11 Ti1 2.053726 1_555
