# generated using pymatgen
data_Na5V3O12
_symmetry_space_group_name_H-M   'P 1'
_cell_length_a   5.65319495
_cell_length_b   5.65319495
_cell_length_c   21.30043400
_cell_angle_alpha   90.00000000
_cell_angle_beta   90.00000000
_cell_angle_gamma   118.38655159
_symmetry_Int_Tables_number   1
_chemical_formula_structural   Na5V3O12
_chemical_formula_sum   'Na10 V6 O24'
_cell_volume   598.88120165
_cell_formula_units_Z   2
loop_
 _symmetry_equiv_pos_site_id
 _symmetry_equiv_pos_as_xyz
  1  'x, y, z'
loop_
 _atom_site_type_symbol
 _atom_site_label
 _atom_site_symmetry_multiplicity
 _atom_site_fract_x
 _atom_site_fract_y
 _atom_site_fract_z
 _atom_site_occupancy
  Na  Na0  1  0.51532400  0.51532400  0.00000000  1
  Na  Na1  1  0.48467600  0.48467600  0.50000000  1
  Na  Na2  1  0.20492600  0.84638100  0.94275600  1
  Na  Na3  1  0.84638100  0.20492600  0.05724400  1
  Na  Na4  1  0.79507400  0.15361900  0.44275600  1
  Na  Na5  1  0.15361900  0.79507400  0.55724400  1
  Na  Na6  1  0.53722100  0.47557000  0.83265700  1
  Na  Na7  1  0.47557000  0.53722100  0.16734300  1
  Na  Na8  1  0.46277900  0.52443000  0.33265700  1
  Na  Na9  1  0.52443000  0.46277900  0.66734300  1
  V  V0  1  0.89465500  0.10534500  0.75000000  1
  V  V1  1  0.10534500  0.89465500  0.25000000  1
  V  V2  1  0.85166200  0.13549600  0.90284500  1
  V  V3  1  0.13549600  0.85166200  0.09715500  1
  V  V4  1  0.14833800  0.86450400  0.40284500  1
  V  V5  1  0.86450400  0.14833800  0.59715500  1
  O  O0  1  0.66597600  0.20599100  0.95584500  1
  O  O1  1  0.20599100  0.66597600  0.04415500  1
  O  O2  1  0.33402400  0.79400900  0.45584500  1
  O  O3  1  0.79400900  0.33402400  0.54415500  1
  O  O4  1  0.76593000  0.18944000  0.82195200  1
  O  O5  1  0.18944000  0.76593000  0.17804800  1
  O  O6  1  0.23407000  0.81056000  0.32195200  1
  O  O7  1  0.81056000  0.23407000  0.67804800  1
  O  O8  1  0.78458700  0.80784800  0.91393100  1
  O  O9  1  0.80784800  0.78458700  0.08606900  1
  O  O10  1  0.21541300  0.19215200  0.41393100  1
  O  O11  1  0.19215200  0.21541300  0.58606900  1
  O  O12  1  0.76632100  0.77187200  0.74547200  1
  O  O13  1  0.77187200  0.76632100  0.25452800  1
  O  O14  1  0.23367900  0.22812800  0.24547200  1
  O  O15  1  0.22812800  0.23367900  0.75452800  1
  O  O16  1  0.66160500  0.81068600  0.58368800  1
  O  O17  1  0.81068600  0.66160500  0.41631200  1
  O  O18  1  0.33839500  0.18931400  0.08368800  1
  O  O19  1  0.18931400  0.33839500  0.91631200  1
  O  O20  1  0.31198800  0.76861300  0.84066500  1
  O  O21  1  0.76861300  0.31198800  0.15933500  1
  O  O22  1  0.68801200  0.23138700  0.34066500  1
  O  O23  1  0.23138700  0.68801200  0.65933500  1
loop_
_geom_bond_atom_site_label_1
_geom_bond_atom_site_label_2
_geom_bond_distance
_geom_bond_site_symmetry_2
Na0 O18 2.412869 1_555
Na0 O19 2.412869 1_554
Na0 O9 2.453429 1_555
Na0 O8 2.453429 1_554
Na0 O1 2.466584 1_555
Na0 O0 2.466584 1_554
Na1 O16 2.412869 1_555
Na1 O17 2.412869 1_555
Na1 O11 2.453429 1_555
Na1 O10 2.453429 1_555
Na1 O3 2.466584 1_555
Na1 O2 2.466584 1_555
Na2 O20 2.354021 1_555
Na2 O8 2.361959 1_455
Na2 O1 2.389753 1_556
Na2 O0 2.442493 1_565
Na2 O19 2.880095 1_565
Na2 O19 2.886344 1_555
Na3 O21 2.354021 1_555
Na3 O9 2.361959 1_545
Na3 O0 2.389753 1_554
Na3 O1 2.442493 1_655
Na3 O18 2.880095 1_655
Na3 O18 2.886344 1_555
Na4 O22 2.354021 1_555
Na4 O10 2.361959 1_655
Na4 O3 2.389753 1_555
Na4 O2 2.442493 1_545
Na4 O17 2.880095 1_545
Na4 O17 2.886344 1_555
Na5 O23 2.354021 1_555
Na5 O11 2.361959 1_565
Na5 O2 2.389753 1_555
Na5 O3 2.442493 1_455
Na5 O16 2.880095 1_455
Na5 O16 2.886344 1_555
Na6 O15 2.328250 1_555
Na6 O12 2.422637 1_555
Na6 O8 2.446087 1_555
Na6 O19 2.488880 1_555
Na6 O4 2.515692 1_555
Na6 O20 2.529907 1_555
Na7 O14 2.328250 1_555
Na7 O13 2.422637 1_555
Na7 O9 2.446087 1_555
Na7 O18 2.488880 1_555
Na7 O5 2.515692 1_555
Na7 O21 2.529907 1_555
Na8 O13 2.328250 1_555
Na8 O14 2.422637 1_555
Na8 O10 2.446087 1_555
Na8 O17 2.488880 1_555
Na8 O6 2.515692 1_555
Na8 O22 2.529907 1_555
Na9 O12 2.328250 1_555
Na9 O15 2.422637 1_555
Na9 O11 2.446087 1_555
Na9 O16 2.488880 1_555
Na9 O7 2.515692 1_555
Na9 O23 2.529907 1_555
O0 V2 1.712590 1_555
O1 V3 1.712590 1_555
O2 V4 1.712590 1_555
O3 V5 1.712590 1_555
O4 V0 1.852945 1_555
O4 V2 1.854009 1_555
O5 V1 1.852945 1_555
O5 V3 1.854009 1_555
O6 V1 1.852945 1_555
O6 V4 1.854009 1_555
O7 V0 1.852945 1_555
O7 V5 1.854009 1_555
O8 V2 1.721215 1_565
O9 V3 1.721215 1_655
O10 V4 1.721215 1_545
O11 V5 1.721215 1_455
O12 V0 1.670068 1_565
O13 V1 1.670068 1_655
O14 V1 1.670068 1_545
O15 V0 1.670068 1_455
O16 V5 1.720379 1_565
O17 V4 1.720379 1_655
O18 V3 1.720379 1_545
O19 V2 1.720379 1_455
