# generated using pymatgen
data_CaLaFeNiO6
_symmetry_space_group_name_H-M   'P 1'
_cell_length_a   5.48763489
_cell_length_b   5.46673532
_cell_length_c   7.70808733
_cell_angle_alpha   89.77115480
_cell_angle_beta   90.30092848
_cell_angle_gamma   90.01370169
_symmetry_Int_Tables_number   1
_chemical_formula_structural   CaLaFeNiO6
_chemical_formula_sum   'Ca2 La2 Fe2 Ni2 O12'
_cell_volume   231.23332172
_cell_formula_units_Z   2
loop_
 _symmetry_equiv_pos_site_id
 _symmetry_equiv_pos_as_xyz
  1  'x, y, z'
loop_
 _atom_site_type_symbol
 _atom_site_label
 _atom_site_symmetry_multiplicity
 _atom_site_fract_x
 _atom_site_fract_y
 _atom_site_fract_z
 _atom_site_occupancy
  Ca  Ca0  1  0.54270800  0.50732700  0.24796800  1
  Ca  Ca1  1  0.95701400  0.01244400  0.75160000  1
  La  La0  1  0.03211200  0.99092600  0.24821900  1
  La  La1  1  0.46849900  0.49603300  0.75223900  1
  Fe  Fe0  1  0.99964600  0.49936300  0.50074300  1
  Fe  Fe1  1  0.50053100  0.99982100  0.00048000  1
  Ni  Ni0  1  0.49932700  0.00060500  0.49933100  1
  Ni  Ni1  1  0.00109900  0.49921300  0.99925800  1
  O  O0  1  0.01685700  0.58692900  0.73801900  1
  O  O1  1  0.48675800  0.07639500  0.24368700  1
  O  O2  1  0.22165300  0.20784500  0.95856300  1
  O  O3  1  0.27787500  0.69642800  0.45407800  1
  O  O4  1  0.20131700  0.22380100  0.54528000  1
  O  O5  1  0.29113600  0.72119900  0.03970200  1
  O  O6  1  0.51692400  0.93327200  0.75604700  1
  O  O7  1  0.97829000  0.42296700  0.26159300  1
  O  O8  1  0.72616800  0.29648700  0.54313100  1
  O  O9  1  0.77456500  0.78526100  0.03647700  1
  O  O10  1  0.71546400  0.27281900  0.96488800  1
  O  O11  1  0.79205600  0.77086400  0.45869200  1
loop_
_geom_bond_atom_site_label_1
_geom_bond_atom_site_label_2
_geom_bond_distance
_geom_bond_site_symmetry_2
Ca0 O1 2.375980 1_555
Ca0 O3 2.396429 1_555
Ca0 O5 2.410903 1_555
Ca0 O7 2.436149 1_555
Ca0 O11 2.565267 1_555
Ca0 O9 2.566324 1_555
Ca0 O10 2.710730 1_554
Ca0 O8 2.733841 1_555
Ca1 O0 2.352143 1_645
Ca1 O4 2.380859 1_655
Ca1 O2 2.404902 1_655
Ca1 O6 2.453820 1_545
Ca1 O10 2.555090 1_555
Ca1 O8 2.560796 1_555
Ca1 O9 2.714290 1_546
Ca1 O11 2.768181 1_545
La0 O7 2.383026 1_465
La0 O11 2.412622 1_455
La0 O9 2.432092 1_455
La0 O1 2.538590 1_565
La0 O5 2.611882 1_555
La0 O3 2.624274 1_555
La0 O2 2.734166 1_564
La0 O4 2.779626 1_565
La1 O6 2.405212 1_555
La1 O8 2.413723 1_555
La1 O10 2.444159 1_555
La1 O0 2.529610 1_555
La1 O2 2.616835 1_555
La1 O4 2.627305 1_555
La1 O5 2.723459 1_556
La1 O3 2.744366 1_555
Fe0 O0 1.894273 1_655
Fe0 O7 1.894755 1_555
Fe0 O8 1.894859 1_555
Fe0 O11 1.897050 1_555
Fe0 O4 1.898584 1_655
Fe0 O3 1.903425 1_655
Fe1 O10 1.921716 1_564
Fe1 O6 1.922913 1_554
Fe1 O1 1.924337 1_565
Fe1 O9 1.925631 1_555
Fe1 O5 1.931559 1_555
Fe1 O2 1.931945 1_564
Ni0 O1 2.012824 1_555
Ni0 O6 2.013111 1_545
Ni0 O11 2.065278 1_545
Ni0 O8 2.068545 1_555
Ni0 O4 2.073438 1_555
Ni0 O3 2.088732 1_545
Ni1 O10 2.013999 1_455
Ni1 O9 2.020213 1_456
Ni1 O5 2.024844 1_556
Ni1 O2 2.027137 1_555
Ni1 O7 2.067413 1_456
Ni1 O0 2.070341 1_555
