# generated using pymatgen
data_Y7Cu3(SiSe7)3
_symmetry_space_group_name_H-M   'P 1'
_cell_length_a   10.22019600
_cell_length_b   10.24461640
_cell_length_c   18.05160844
_cell_angle_alpha   89.98117388
_cell_angle_beta   90.23947889
_cell_angle_gamma   119.53428461
_symmetry_Int_Tables_number   1
_chemical_formula_structural   Y7Cu3(SiSe7)3
_chemical_formula_sum   'Y14 Cu6 Si6 Se42'
_cell_volume   1644.43162661
_cell_formula_units_Z   2
loop_
 _symmetry_equiv_pos_site_id
 _symmetry_equiv_pos_as_xyz
  1  'x, y, z'
loop_
 _atom_site_type_symbol
 _atom_site_label
 _atom_site_symmetry_multiplicity
 _atom_site_fract_x
 _atom_site_fract_y
 _atom_site_fract_z
 _atom_site_occupancy
  Y  Y0  1  0.63839100  0.77331000  0.69557000  1
  Y  Y1  1  0.64057500  0.77115700  0.35828400  1
  Y  Y2  1  0.64288200  0.77552900  0.02689700  1
  Y  Y3  1  0.13361800  0.36099900  0.69393200  1
  Y  Y4  1  0.12684600  0.35466900  0.02404200  1
  Y  Y5  1  0.77753400  0.13560300  0.52462500  1
  Y  Y6  1  0.77407400  0.13301800  0.19280400  1
  Y  Y7  1  0.36039500  0.22804600  0.85854600  1
  Y  Y8  1  0.35608800  0.22559400  0.52586700  1
  Y  Y9  1  0.36336100  0.22858000  0.19622900  1
  Y  Y10  1  0.22674100  0.86748600  0.35816200  1
  Y  Y11  1  0.22441700  0.86376200  0.02435800  1
  Y  Y12  1  0.86981400  0.64225900  0.85825900  1
  Y  Y13  1  0.87051800  0.64054400  0.52560800  1
  Cu  Cu0  1  0.00641600  0.99879400  0.67652300  1
  Cu  Cu1  1  0.00174700  0.00362500  0.34465200  1
  Cu  Cu2  1  0.99999800  0.00042700  0.00966500  1
  Cu  Cu3  1  0.99625300  0.00259900  0.84460700  1
  Cu  Cu4  1  0.99751300  0.99877100  0.50976500  1
  Cu  Cu5  1  0.99882100  0.99250300  0.17634100  1
  Si  Si0  1  0.66890500  0.33381000  0.72349300  1
  Si  Si1  1  0.66575100  0.33268500  0.38707400  1
  Si  Si2  1  0.66790300  0.33710700  0.05433500  1
  Si  Si3  1  0.33345000  0.66608200  0.88692100  1
  Si  Si4  1  0.33424600  0.67200800  0.55397000  1
  Si  Si5  1  0.33327700  0.66594100  0.22334500  1
  Se  Se0  1  0.26439800  0.15942200  0.68549600  1
  Se  Se1  1  0.25997700  0.16398800  0.34981000  1
  Se  Se2  1  0.26201600  0.16322000  0.01706000  1
  Se  Se3  1  0.09668200  0.57764300  0.93796100  1
  Se  Se4  1  0.09672800  0.57391300  0.60272800  1
  Se  Se5  1  0.10222100  0.58912000  0.26990400  1
  Se  Se6  1  0.89937200  0.73847400  0.68260700  1
  Se  Se7  1  0.90450100  0.74266400  0.35498400  1
  Se  Se8  1  0.90115300  0.73830200  0.01360400  1
  Se  Se9  1  0.74032100  0.83728100  0.85208600  1
  Se  Se10  1  0.73564800  0.83514200  0.51662500  1
  Se  Se11  1  0.73898900  0.83715600  0.18424700  1
  Se  Se12  1  0.41909000  0.51614700  0.94142300  1
  Se  Se13  1  0.41949500  0.51954300  0.60559400  1
  Se  Se14  1  0.42785400  0.52297600  0.26907900  1
  Se  Se15  1  0.09830900  0.26115100  0.85002800  1
  Se  Se16  1  0.09698700  0.25863800  0.52094000  1
  Se  Se17  1  0.09789700  0.25557700  0.17907800  1
  Se  Se18  1  0.90459900  0.42641000  0.76945200  1
  Se  Se19  1  0.90010800  0.41715200  0.43653100  1
  Se  Se20  1  0.90058400  0.41668000  0.10698800  1
  Se  Se21  1  0.33262700  0.66304100  0.76355000  1
  Se  Se22  1  0.33495300  0.67198900  0.42911600  1
  Se  Se23  1  0.33335300  0.66565600  0.09591100  1
  Se  Se24  1  0.51265500  0.10199400  0.76949500  1
  Se  Se25  1  0.51672000  0.09865200  0.43998000  1
  Se  Se26  1  0.51827600  0.09979500  0.10507600  1
  Se  Se27  1  0.66514100  0.33711000  0.92949400  1
  Se  Se28  1  0.66683400  0.33308200  0.59608300  1
  Se  Se29  1  0.66475700  0.33044800  0.26355100  1
  Se  Se30  1  0.83919300  0.09550900  0.67998200  1
  Se  Se31  1  0.83568400  0.09504800  0.35282700  1
  Se  Se32  1  0.83479700  0.09626300  0.02026100  1
  Se  Se33  1  0.16358700  0.90752800  0.85582900  1
  Se  Se34  1  0.16390800  0.90268600  0.51372800  1
  Se  Se35  1  0.16190400  0.89742300  0.18576100  1
  Se  Se36  1  0.47961500  0.89811900  0.93660900  1
  Se  Se37  1  0.48402400  0.90266200  0.60864900  1
  Se  Se38  1  0.48518700  0.90391100  0.27141100  1
  Se  Se39  1  0.58062900  0.48427900  0.77193800  1
  Se  Se40  1  0.57725500  0.48058300  0.43890500  1
  Se  Se41  1  0.57243300  0.47871800  0.10542700  1
loop_
_geom_bond_atom_site_label_1
_geom_bond_atom_site_label_2
_geom_bond_distance
_geom_bond_site_symmetry_2
Cu0 Se0 2.324869 1_565
Cu0 Se6 2.333571 1_455
Cu0 Se30 2.361533 1_465
Cu1 Se31 2.312747 1_455
Cu1 Se1 2.322991 1_555
Cu1 Se7 2.356169 1_445
Cu2 Se32 2.342705 1_555
Cu2 Se8 2.358550 1_545
Cu2 Se2 2.358894 1_655
Cu2 Y4 3.205875 1_655
Cu2 Y2 3.231831 1_545
Cu3 Se9 2.315964 1_545
Cu3 Se15 2.321424 1_655
Cu3 Se33 2.356590 1_645
Cu4 Se16 2.343513 1_665
Cu4 Se34 2.348483 1_655
Cu4 Se10 2.359579 1_555
Cu4 Y5 3.194350 1_565
Cu5 Se35 2.313837 1_655
Cu5 Se11 2.332694 1_555
Cu5 Se17 2.366531 1_665
Se0 Y3 2.966036 1_555
Se0 Y8 3.006007 1_555
Se0 Y7 3.242060 1_555
Se1 Y10 2.889241 1_545
Se1 Y9 2.928203 1_555
Se1 Y8 3.290533 1_555
Se2 Y11 2.900782 1_545
Se2 Y4 2.905854 1_555
Se2 Y7 3.000711 1_554
Se2 Y9 3.357298 1_555
Se3 Si3 2.319891 1_555
Se3 Y4 2.900952 1_556
Se3 Y11 2.990292 1_556
Se3 Y12 3.060875 1_455
Se4 Si4 2.299886 1_555
Se4 Y3 2.900631 1_555
Se4 Y13 3.045861 1_455
Se5 Si5 2.255231 1_555
Se5 Y10 2.949304 1_555
Se6 Y0 2.870580 1_555
Se6 Y13 2.971316 1_555
Se6 Y12 3.290776 1_555
Se7 Y1 2.853453 1_555
Se7 Y10 2.886382 1_655
Se7 Y13 3.217196 1_555
Se8 Y2 2.858012 1_555
Se8 Y11 2.900560 1_655
Se8 Y12 2.935642 1_554
Se9 Y12 2.891553 1_555
Se9 Y0 2.966639 1_555
Se9 Y2 3.279285 1_556
Se10 Y5 2.894744 1_565
Se10 Y13 2.933894 1_555
Se10 Y1 2.982252 1_555
Se10 Y0 3.350894 1_555
Se11 Y6 2.875360 1_565
Se11 Y2 2.966116 1_555
Se11 Y1 3.270064 1_555
Se12 Si3 2.326084 1_555
Se12 Y2 2.941817 1_556
Se12 Y4 3.007691 1_556
Se12 Y7 3.091792 1_555
Se13 Si4 2.324030 1_555
Se13 Y0 2.939396 1_555
Se13 Y3 3.012659 1_555
Se13 Y8 3.103361 1_555
Se14 Si5 2.269195 1_555
Se14 Y1 2.882327 1_555
Se14 Y9 3.048840 1_555
Se15 Y7 2.864531 1_555
Se15 Y3 2.959586 1_555
Se15 Y4 3.254092 1_556
Se16 Y8 2.831349 1_555
Se16 Y5 2.863071 1_455
Se16 Y3 3.255293 1_555
Se17 Y9 2.875053 1_555
Se17 Y6 2.915614 1_455
Se17 Y4 2.942697 1_555
Se18 Si0 2.263105 1_555
Se18 Y12 2.892799 1_555
Se18 Y3 3.059351 1_655
Se19 Si1 2.285164 1_555
Se19 Y13 2.933157 1_555
Se19 Y5 2.978092 1_555
Se20 Si2 2.300747 1_555
Se20 Y6 2.970833 1_555
Se20 Y4 3.077464 1_655
Se21 Si3 2.227196 1_555
Se21 Y3 3.011198 1_555
Se21 Y0 3.016332 1_555
Se22 Si4 2.253858 1_555
Se22 Y10 3.007496 1_555
Se22 Y1 3.054079 1_555
Se23 Si5 2.300395 1_555
Se23 Y11 3.039864 1_555
Se23 Y2 3.057436 1_555
Se23 Y4 3.104575 1_555
Se24 Si0 2.269481 1_555
Se24 Y7 2.945617 1_555
Se25 Si1 2.321802 1_555
Se25 Y5 2.924860 1_555
Se25 Y8 2.986228 1_555
Se25 Y10 3.101481 1_545
Se26 Si2 2.330878 1_555
Se26 Y6 2.923496 1_555
Se26 Y9 3.006252 1_555
Se26 Y11 3.129855 1_545
Se27 Si2 2.253640 1_556
Se27 Y7 3.020912 1_555
Se27 Y12 3.061825 1_555
Se28 Si0 2.299945 1_555
Se28 Y5 3.050795 1_555
Se28 Y8 3.069989 1_555
Se28 Y13 3.070568 1_555
Se29 Si1 2.229843 1_555
Se29 Y9 2.975680 1_555
Se29 Y6 3.035055 1_555
Se30 Y3 2.905324 1_655
Se30 Y0 2.917524 1_545
Se30 Y5 2.944552 1_555
Se31 Y1 2.911056 1_545
Se31 Y6 3.019562 1_555
Se31 Y5 3.225388 1_555
Se32 Y4 2.851328 1_655
Se32 Y2 2.881978 1_545
Se32 Y6 3.236582 1_555
Se33 Y7 2.884086 1_565
Se33 Y12 2.891112 1_455
Se33 Y11 3.178166 1_556
Se34 Y13 2.883605 1_455
Se34 Y8 2.905206 1_565
Se34 Y10 2.944918 1_555
Se35 Y9 2.982471 1_565
Se35 Y11 3.041300 1_555
Se35 Y10 3.225046 1_555
Se36 Si3 2.275099 1_555
Se36 Y11 2.926544 1_556
Se36 Y2 3.009965 1_556
Se37 Si4 2.307355 1_555
Se37 Y0 2.957384 1_555
Se37 Y5 3.157843 1_565
Se38 Si5 2.316297 1_555
Se38 Y10 2.937834 1_555
Se38 Y1 2.989659 1_555
Se38 Y6 3.072526 1_565
Se39 Si0 2.309445 1_555
Se39 Y7 2.933057 1_555
Se39 Y12 3.004979 1_555
Se39 Y0 3.049151 1_555
Se40 Si1 2.312614 1_555
Se40 Y8 2.933102 1_555
Se40 Y13 3.039486 1_555
Se40 Y1 3.082862 1_555
Se41 Si2 2.304624 1_555
Se41 Y9 2.906442 1_555
Se41 Y2 3.101805 1_555
