# generated using pymatgen
data_PbC2S2(N2Cl)2
_symmetry_space_group_name_H-M   'P 1'
_cell_length_a   4.70561900
_cell_length_b   15.10841300
_cell_length_c   19.69526100
_cell_angle_alpha   90.00000000
_cell_angle_beta   90.00000000
_cell_angle_gamma   90.00000000
_symmetry_Int_Tables_number   1
_chemical_formula_structural   PbC2S2(N2Cl)2
_chemical_formula_sum   'Pb4 C8 S8 N16 Cl8'
_cell_volume   1400.22345834
_cell_formula_units_Z   4
loop_
 _symmetry_equiv_pos_site_id
 _symmetry_equiv_pos_as_xyz
  1  'x, y, z'
loop_
 _atom_site_type_symbol
 _atom_site_label
 _atom_site_symmetry_multiplicity
 _atom_site_fract_x
 _atom_site_fract_y
 _atom_site_fract_z
 _atom_site_occupancy
  Pb  Pb0  1  0.25093900  0.30549000  0.59168500  1
  Pb  Pb1  1  0.74906200  0.80549000  0.40831500  1
  Pb  Pb2  1  0.75093800  0.80549000  0.90831500  1
  Pb  Pb3  1  0.24906100  0.30549000  0.09168500  1
  C  C0  1  0.66843300  0.98104900  0.62421200  1
  C  C1  1  0.33156700  0.48104900  0.37578800  1
  C  C2  1  0.16843300  0.48104900  0.87578800  1
  C  C3  1  0.83156700  0.98104900  0.12421200  1
  C  C4  1  0.88518300  0.58171100  0.65347200  1
  C  C5  1  0.11481700  0.08171100  0.34652800  1
  C  C6  1  0.38518300  0.08171100  0.84652800  1
  C  C7  1  0.61481700  0.58171100  0.15347200  1
  S  S0  1  0.76040400  0.05420700  0.67720000  1
  S  S1  1  0.23959600  0.55420700  0.32280000  1
  S  S2  1  0.26040400  0.55420700  0.82280000  1
  S  S3  1  0.73959600  0.05420700  0.17720000  1
  S  S4  1  0.74948100  0.42433900  0.60813400  1
  S  S5  1  0.25051900  0.92433900  0.39186600  1
  S  S6  1  0.24948100  0.92433900  0.89186600  1
  S  S7  1  0.75051900  0.42433900  0.10813400  1
  N  N0  1  0.59192700  0.95336300  0.55827100  1
  N  N1  1  0.40807300  0.45336300  0.44172900  1
  N  N2  1  0.09192700  0.45336300  0.94172900  1
  N  N3  1  0.90807300  0.95336300  0.05827100  1
  N  N4  1  0.60054600  0.89358800  0.60530600  1
  N  N5  1  0.39945400  0.39358800  0.39469400  1
  N  N6  1  0.10054600  0.39358800  0.89469400  1
  N  N7  1  0.89945400  0.89358800  0.10530600  1
  N  N8  1  0.71831800  0.51338500  0.65074300  1
  N  N9  1  0.28168200  0.01338500  0.34925700  1
  N  N10  1  0.21831800  0.01338500  0.84925700  1
  N  N11  1  0.78168200  0.51338500  0.15074300  1
  N  N12  1  0.02742600  0.64616100  0.65866500  1
  N  N13  1  0.97257400  0.14616100  0.34133500  1
  N  N14  1  0.52742600  0.14616100  0.84133500  1
  N  N15  1  0.47257400  0.64616100  0.15866500  1
  Cl  Cl0  1  0.22291300  0.24799300  0.70979700  1
  Cl  Cl1  1  0.77708700  0.74799300  0.29020300  1
  Cl  Cl2  1  0.72291300  0.74799300  0.79020300  1
  Cl  Cl3  1  0.27708700  0.24799300  0.20979700  1
  Cl  Cl4  1  0.74271000  0.23271400  0.53608500  1
  Cl  Cl5  1  0.25729000  0.73271400  0.46391500  1
  Cl  Cl6  1  0.24271000  0.73271400  0.96391500  1
  Cl  Cl7  1  0.75729000  0.23271400  0.03608500  1
loop_
_geom_bond_atom_site_label_1
_geom_bond_atom_site_label_2
_geom_bond_distance
_geom_bond_site_symmetry_2
Pb0 S4 2.971983 1_555
Pb0 S4 2.982826 1_455
Pb1 S5 2.971986 1_555
Pb1 S5 2.982822 1_655
Pb2 S6 2.971986 1_655
Pb2 S6 2.982822 1_555
Pb3 S7 2.971983 1_455
Pb3 S7 2.982826 1_555
C0 N4 1.409535 1_555
C0 N0 1.411120 1_555
C0 S0 1.580543 1_565
C1 N5 1.409535 1_555
C1 N1 1.411120 1_555
C1 S1 1.580543 1_555
C2 N6 1.409535 1_555
C2 N2 1.411120 1_555
C2 S2 1.580543 1_555
C3 N7 1.409535 1_555
C3 N3 1.411120 1_555
C3 S3 1.580543 1_565
C4 N12 1.186020 1_655
C4 N8 1.298103 1_555
C5 N13 1.186020 1_455
C5 N9 1.298103 1_555
C6 N14 1.186020 1_555
C6 N10 1.298103 1_555
C7 N15 1.186020 1_555
C7 N11 1.298103 1_555
N0 N4 1.294372 1_555
N1 N5 1.294372 1_555
N2 N6 1.294372 1_555
N3 N7 1.294372 1_555
N8 S4 1.592389 1_555
N9 S5 1.592389 1_545
N10 S6 1.592389 1_545
N11 S7 1.592389 1_555
Cl0 Pb0 2.486651 1_555
Cl1 Pb1 2.486651 1_555
Cl2 Pb2 2.486651 1_555
Cl3 Pb3 2.486651 1_555
Cl4 Pb0 2.786236 1_555
Cl4 Pb0 2.850884 1_655
Cl5 Pb1 2.786240 1_555
Cl5 Pb1 2.850880 1_455
Cl6 Pb2 2.786240 1_455
Cl6 Pb2 2.850880 1_555
Cl7 Pb3 2.786236 1_655
Cl7 Pb3 2.850884 1_555
