# generated using pymatgen
data_Dy2Al3Ge4
_symmetry_space_group_name_H-M   'P 1'
_cell_length_a   7.97884737
_cell_length_b   7.97884737
_cell_length_c   8.14698800
_cell_angle_alpha   90.00000000
_cell_angle_beta   90.00000000
_cell_angle_gamma   137.18755404
_symmetry_Int_Tables_number   1
_chemical_formula_structural   Dy2Al3Ge4
_chemical_formula_sum   'Dy4 Al6 Ge8'
_cell_volume   352.47733000
_cell_formula_units_Z   2
loop_
 _symmetry_equiv_pos_site_id
 _symmetry_equiv_pos_as_xyz
  1  'x, y, z'
loop_
 _atom_site_type_symbol
 _atom_site_label
 _atom_site_symmetry_multiplicity
 _atom_site_fract_x
 _atom_site_fract_y
 _atom_site_fract_z
 _atom_site_occupancy
  Dy  Dy0  1  0.61507000  0.38493000  0.92028700  1
  Dy  Dy1  1  0.38493000  0.61507000  0.07971300  1
  Dy  Dy2  1  0.88493000  0.11507000  0.42028700  1
  Dy  Dy3  1  0.11507000  0.88493000  0.57971300  1
  Al  Al0  1  0.50000000  0.50000000  0.50000000  1
  Al  Al1  1  0.00000000  0.00000000  0.00000000  1
  Al  Al2  1  0.53171000  0.96829000  0.75000000  1
  Al  Al3  1  0.96829000  0.53171000  0.25000000  1
  Al  Al4  1  0.46829000  0.03171000  0.25000000  1
  Al  Al5  1  0.03171000  0.46829000  0.75000000  1
  Ge  Ge0  1  0.70342300  0.79657700  0.75000000  1
  Ge  Ge1  1  0.79657700  0.70342300  0.25000000  1
  Ge  Ge2  1  0.29657700  0.20342300  0.25000000  1
  Ge  Ge3  1  0.20342300  0.29657700  0.75000000  1
  Ge  Ge4  1  0.68408700  0.31591300  0.55248100  1
  Ge  Ge5  1  0.31591300  0.68408700  0.44751900  1
  Ge  Ge6  1  0.81591300  0.18408700  0.05248100  1
  Ge  Ge7  1  0.18408700  0.81591300  0.94751900  1
loop_
_geom_bond_atom_site_label_1
_geom_bond_atom_site_label_2
_geom_bond_distance
_geom_bond_site_symmetry_2
Dy0 Ge7 3.095313 1_655
Dy0 Ge7 3.095313 1_545
Dy0 Ge0 3.132458 1_555
Dy0 Ge3 3.132458 1_555
Dy0 Ge4 3.167093 1_555
Dy0 Ge6 3.172309 1_556
Dy0 Ge1 3.220416 1_556
Dy0 Ge2 3.220416 1_556
Dy1 Ge6 3.095313 1_565
Dy1 Ge6 3.095313 1_455
Dy1 Ge1 3.132458 1_555
Dy1 Ge2 3.132458 1_555
Dy1 Ge5 3.167093 1_555
Dy1 Ge7 3.172309 1_554
Dy1 Ge3 3.220416 1_554
Dy1 Ge0 3.220416 1_554
Dy2 Ge5 3.095313 1_655
Dy2 Ge5 3.095313 1_545
Dy2 Ge1 3.132458 1_545
Dy2 Ge2 3.132458 1_655
Dy2 Ge6 3.167093 1_555
Dy2 Ge4 3.172309 1_555
Dy2 Ge3 3.220416 1_655
Dy2 Ge0 3.220416 1_545
Dy3 Ge4 3.095313 1_565
Dy3 Ge4 3.095313 1_455
Dy3 Ge0 3.132458 1_455
Dy3 Ge3 3.132458 1_565
Dy3 Ge7 3.167093 1_555
Dy3 Ge5 3.172309 1_555
Dy3 Ge2 3.220416 1_565
Dy3 Ge1 3.220416 1_455
Al0 Ge3 2.597551 1_555
Al0 Ge2 2.597551 1_555
Al0 Ge0 2.597551 1_555
Al0 Ge1 2.597551 1_555
Al0 Ge5 2.768176 1_555
Al0 Ge4 2.768176 1_555
Al1 Ge1 2.597551 1_445
Al1 Ge2 2.597551 1_555
Al1 Ge3 2.597551 1_554
Al1 Ge0 2.597551 1_444
Al1 Ge7 2.768176 1_544
Al1 Ge6 2.768176 1_455
Al2 Ge0 2.551118 1_555
Al2 Ge7 2.610200 1_555
Al2 Ge4 2.610200 1_565
Al2 Ge6 2.907081 1_566
Al2 Ge5 2.907081 1_555
Al2 Dy0 3.189686 1_565
Al2 Dy3 3.189686 1_555
Al3 Ge1 2.551118 1_555
Al3 Ge6 2.610200 1_555
Al3 Ge5 2.610200 1_655
Al3 Ge7 2.907081 1_654
Al3 Ge4 2.907081 1_555
Al3 Dy2 3.189686 1_555
Al3 Dy1 3.189686 1_655
Al4 Ge2 2.551118 1_555
Al4 Ge6 2.610200 1_555
Al4 Ge5 2.610200 1_545
Al4 Ge4 2.907081 1_555
Al4 Ge7 2.907081 1_544
Al4 Dy2 3.189686 1_555
Al4 Dy1 3.189686 1_545
Al5 Ge3 2.551118 1_555
Al5 Ge7 2.610200 1_555
Al5 Ge4 2.610200 1_455
Al5 Ge5 2.907081 1_555
Al5 Ge6 2.907081 1_456
Al5 Dy0 3.189686 1_455
Al5 Dy3 3.189686 1_555
Ge0 Ge3 2.912103 1_665
Ge0 Ge3 2.912103 1_555
Ge1 Ge2 2.912103 1_665
Ge1 Ge2 2.912103 1_555
