# generated using pymatgen
data_CaMn2Be3(SiO4)3
_symmetry_space_group_name_H-M   'P 1'
_cell_length_a   7.69123300
_cell_length_b   8.17530700
_cell_length_c   16.38163346
_cell_angle_alpha   60.03639652
_cell_angle_beta   90.00000000
_cell_angle_gamma   90.00000000
_symmetry_Int_Tables_number   1
_chemical_formula_structural   CaMn2Be3(SiO4)3
_chemical_formula_sum   'Ca4 Mn8 Be12 Si12 O48'
_cell_volume   892.37426592
_cell_formula_units_Z   4
loop_
 _symmetry_equiv_pos_site_id
 _symmetry_equiv_pos_as_xyz
  1  'x, y, z'
loop_
 _atom_site_type_symbol
 _atom_site_label
 _atom_site_symmetry_multiplicity
 _atom_site_fract_x
 _atom_site_fract_y
 _atom_site_fract_z
 _atom_site_occupancy
  Ca  Ca0  1  0.99976700  0.49756000  0.75157600  1
  Ca  Ca1  1  0.49976700  0.50244000  0.74842400  1
  Ca  Ca2  1  0.00023300  0.50244000  0.24842400  1
  Ca  Ca3  1  0.50023300  0.49756000  0.25157700  1
  Mn  Mn0  1  0.03586800  0.16815300  0.59061100  1
  Mn  Mn1  1  0.46413200  0.16815300  0.09061200  1
  Mn  Mn2  1  0.96413200  0.83184700  0.40938900  1
  Mn  Mn3  1  0.53586800  0.83184700  0.90938900  1
  Mn  Mn4  1  0.96052300  0.83345300  0.92829800  1
  Mn  Mn5  1  0.46052300  0.16654700  0.57170200  1
  Mn  Mn6  1  0.03947700  0.16654700  0.07170200  1
  Mn  Mn7  1  0.53947700  0.83345300  0.42829800  1
  Be  Be0  1  0.66350500  0.15555900  0.26419300  1
  Be  Be1  1  0.83626100  0.52834000  0.90850900  1
  Be  Be2  1  0.33626100  0.47166000  0.59149100  1
  Be  Be3  1  0.16373900  0.47166000  0.09149100  1
  Be  Be4  1  0.66373900  0.52834000  0.40851000  1
  Be  Be5  1  0.33750100  0.18150100  0.92112300  1
  Be  Be6  1  0.83750100  0.81849900  0.57887700  1
  Be  Be7  1  0.66249900  0.81849900  0.07887700  1
  Be  Be8  1  0.16249900  0.18150100  0.42112300  1
  Be  Be9  1  0.83649500  0.15555900  0.76419300  1
  Be  Be10  1  0.33649500  0.84444100  0.73580700  1
  Be  Be11  1  0.16350500  0.84444100  0.23580700  1
  Si  Si0  1  0.27399500  0.15337500  0.26625000  1
  Si  Si1  1  0.77399500  0.84662500  0.23375000  1
  Si  Si2  1  0.72600500  0.84662500  0.73375000  1
  Si  Si3  1  0.22600500  0.15337500  0.76625000  1
  Si  Si4  1  0.77515800  0.18579400  0.42348700  1
  Si  Si5  1  0.27515800  0.81420600  0.07651300  1
  Si  Si6  1  0.22484200  0.81420600  0.57651300  1
  Si  Si7  1  0.72484200  0.18579400  0.92348700  1
  Si  Si8  1  0.27200300  0.53238400  0.40726400  1
  Si  Si9  1  0.77200300  0.46761600  0.09273600  1
  Si  Si10  1  0.72799700  0.46761600  0.59273600  1
  Si  Si11  1  0.22799700  0.53238400  0.90726400  1
  O  O0  1  0.36351600  0.70180100  0.54527200  1
  O  O1  1  0.46880100  0.10847600  0.31431600  1
  O  O2  1  0.96880100  0.89152400  0.18568400  1
  O  O3  1  0.53119900  0.89152400  0.68568400  1
  O  O4  1  0.03119900  0.10847600  0.81431600  1
  O  O5  1  0.97042700  0.22740900  0.44911400  1
  O  O6  1  0.47042700  0.77259100  0.05088600  1
  O  O7  1  0.02957300  0.77259100  0.55088600  1
  O  O8  1  0.52957300  0.22740900  0.94911400  1
  O  O9  1  0.46823700  0.62464100  0.38677900  1
  O  O10  1  0.96823700  0.37535900  0.11322100  1
  O  O11  1  0.53176300  0.37535900  0.61322100  1
  O  O12  1  0.36560700  0.70834900  0.85054800  1
  O  O13  1  0.86560700  0.29165100  0.64945200  1
  O  O14  1  0.63439300  0.29165100  0.14945200  1
  O  O15  1  0.13439300  0.70834900  0.35054800  1
  O  O16  1  0.86351600  0.29819900  0.95472800  1
  O  O17  1  0.03176300  0.62464100  0.88677900  1
  O  O18  1  0.13648400  0.70180100  0.04527200  1
  O  O19  1  0.63648400  0.29819900  0.45472800  1
  O  O20  1  0.73753900  0.59162200  0.97781300  1
  O  O21  1  0.86672500  0.91265900  0.64721800  1
  O  O22  1  0.63327500  0.91265900  0.14721800  1
  O  O23  1  0.13327500  0.08734100  0.35278200  1
  O  O24  1  0.75919100  0.61745700  0.30635600  1
  O  O25  1  0.25919100  0.38254300  0.19364400  1
  O  O26  1  0.24080900  0.38254300  0.69364400  1
  O  O27  1  0.74080900  0.61745700  0.80635600  1
  O  O28  1  0.76199500  0.26878700  0.30927600  1
  O  O29  1  0.26199500  0.73121300  0.19072400  1
  O  O30  1  0.23800500  0.73121300  0.69072400  1
  O  O31  1  0.73800500  0.26878700  0.80927600  1
  O  O32  1  0.25853500  0.38762600  0.36489100  1
  O  O33  1  0.75853500  0.61237400  0.13510900  1
  O  O34  1  0.74146500  0.61237400  0.63510900  1
  O  O35  1  0.24146500  0.38762600  0.86489100  1
  O  O36  1  0.75285200  0.95094300  0.29725500  1
  O  O37  1  0.25285200  0.04905700  0.20274500  1
  O  O38  1  0.24714800  0.04905700  0.70274500  1
  O  O39  1  0.74714800  0.95094300  0.79725500  1
  O  O40  1  0.73660900  0.95649800  0.47887000  1
  O  O41  1  0.23660900  0.04350200  0.02113000  1
  O  O42  1  0.26339100  0.04350200  0.52113000  1
  O  O43  1  0.76339100  0.95649800  0.97887000  1
  O  O44  1  0.76246100  0.59162200  0.47781300  1
  O  O45  1  0.26246100  0.40837800  0.02218700  1
  O  O46  1  0.23753900  0.40837800  0.52218700  1
  O  O47  1  0.36672500  0.08734100  0.85278200  1
loop_
_geom_bond_atom_site_label_1
_geom_bond_atom_site_label_2
_geom_bond_distance
_geom_bond_site_symmetry_2
Ca0 O35 2.458203 1_655
Ca0 O30 2.469399 1_655
Ca0 O26 2.472482 1_655
Ca0 O27 2.571307 1_555
Ca0 O31 2.584338 1_555
Ca0 O34 2.584404 1_555
Ca1 O34 2.458203 1_555
Ca1 O31 2.469399 1_555
Ca1 O27 2.472482 1_555
Ca1 O26 2.571307 1_555
Ca1 O30 2.584338 1_555
Ca1 O35 2.584404 1_555
Ca2 O33 2.458203 1_455
Ca2 O28 2.469399 1_455
Ca2 O24 2.472482 1_455
Ca2 O25 2.571307 1_555
Ca2 O29 2.584338 1_555
Ca2 O32 2.584404 1_555
Ca3 O32 2.458193 1_555
Ca3 O29 2.469399 1_555
Ca3 O25 2.472491 1_555
Ca3 O24 2.571299 1_555
Ca3 O28 2.584337 1_555
Ca3 O33 2.584413 1_555
Mn0 O13 2.153009 1_455
Mn0 O5 2.176982 1_455
Mn0 O21 2.231671 1_445
Mn0 O38 2.275172 1_555
Mn0 O46 2.306588 1_555
Mn0 O42 2.560255 1_555
Mn1 O14 2.152998 1_555
Mn1 O8 2.176997 1_554
Mn1 O22 2.231671 1_545
Mn1 O37 2.275162 1_555
Mn1 O45 2.306589 1_555
Mn1 O41 2.560265 1_555
Mn2 O15 2.153009 1_655
Mn2 O7 2.176982 1_655
Mn2 O23 2.231671 1_665
Mn2 O36 2.275172 1_555
Mn2 O44 2.306588 1_555
Mn2 O40 2.560255 1_555
Mn3 O12 2.153009 1_555
Mn3 O6 2.176982 1_556
Mn3 O47 2.231671 1_565
Mn3 O39 2.275172 1_555
Mn3 O20 2.306588 1_555
Mn3 O43 2.560255 1_555
Mn4 O18 2.145169 1_656
Mn4 O4 2.154911 1_665
Mn4 O43 2.197613 1_555
Mn4 O17 2.199279 1_655
Mn4 O20 2.430237 1_555
Mn4 O39 2.482841 1_555
Mn5 O19 2.145169 1_555
Mn5 O3 2.154911 1_545
Mn5 O42 2.197613 1_555
Mn5 O11 2.199279 1_555
Mn5 O46 2.430237 1_555
Mn5 O38 2.482841 1_555
Mn6 O16 2.145169 1_454
Mn6 O2 2.154911 1_445
Mn6 O41 2.197613 1_555
Mn6 O10 2.199279 1_455
Mn6 O45 2.430237 1_555
Mn6 O37 2.482841 1_555
Mn7 O0 2.145169 1_555
Mn7 O1 2.154911 1_565
Mn7 O40 2.197613 1_555
Mn7 O9 2.199279 1_555
Mn7 O44 2.430237 1_555
Mn7 O36 2.482841 1_555
Be0 O36 1.630588 1_545
Be0 O28 1.630648 1_555
Be0 O14 1.652902 1_555
Be0 O1 1.658072 1_555
Be1 O27 1.628585 1_555
Be1 O20 1.649188 1_555
Be1 O17 1.651534 1_655
Be1 O16 1.653534 1_555
Be2 O26 1.628585 1_555
Be2 O46 1.649188 1_555
Be2 O11 1.651534 1_555
Be2 O0 1.653534 1_555
Be3 O25 1.628585 1_555
Be3 O45 1.649188 1_555
Be3 O10 1.651534 1_455
Be3 O18 1.653534 1_555
Be4 O24 1.628598 1_555
Be4 O44 1.649174 1_555
Be4 O9 1.651534 1_555
Be4 O19 1.653535 1_555
Be5 O35 1.638057 1_555
Be5 O8 1.644795 1_555
Be5 O41 1.647015 1_556
Be5 O47 1.660516 1_555
Be6 O34 1.638057 1_555
Be6 O7 1.644795 1_655
Be6 O40 1.647015 1_555
Be6 O21 1.660516 1_555
Be7 O33 1.638057 1_555
Be7 O6 1.644795 1_555
Be7 O43 1.647015 1_554
Be7 O22 1.660516 1_555
Be8 O32 1.638057 1_555
Be8 O5 1.644795 1_455
Be8 O42 1.647015 1_555
Be8 O23 1.660516 1_555
Be9 O39 1.630588 1_545
Be9 O31 1.630648 1_555
Be9 O13 1.652902 1_555
Be9 O4 1.658072 1_655
Be10 O38 1.630588 1_565
Be10 O30 1.630648 1_555
Be10 O12 1.652902 1_555
Be10 O3 1.658072 1_555
Be11 O37 1.630588 1_565
Be11 O29 1.630648 1_555
Be11 O15 1.652902 1_555
Be11 O2 1.658072 1_455
O0 Si6 1.647342 1_555
O1 Si0 1.646488 1_555
O2 Si1 1.646488 1_555
O3 Si2 1.646488 1_555
O4 Si3 1.646488 1_555
O5 Si4 1.640195 1_555
O6 Si5 1.640195 1_555
O7 Si6 1.640195 1_555
O8 Si7 1.640195 1_555
O9 Si8 1.645169 1_555
O10 Si9 1.645169 1_555
O11 Si10 1.645169 1_555
O12 Si11 1.648573 1_555
O13 Si10 1.648573 1_555
O14 Si9 1.648573 1_555
O15 Si8 1.648573 1_555
O16 Si7 1.647342 1_555
O17 Si11 1.645169 1_555
O18 Si5 1.647342 1_555
O19 Si4 1.647342 1_555
O20 Si9 1.654034 1_556
O21 Si2 1.645548 1_555
O22 Si1 1.645548 1_555
O23 Si0 1.645548 1_555
O24 Si1 1.646755 1_555
O25 Si0 1.646755 1_555
O26 Si3 1.646755 1_555
O27 Si2 1.646755 1_555
O28 Si4 1.644100 1_555
O29 Si5 1.644100 1_555
O30 Si6 1.644100 1_555
O31 Si7 1.644100 1_555
O32 Si8 1.647319 1_555
O33 Si9 1.647319 1_555
O34 Si10 1.647319 1_555
O35 Si11 1.647319 1_555
O36 Si1 1.649927 1_555
O37 Si0 1.649927 1_555
O38 Si3 1.649927 1_555
O39 Si2 1.649927 1_555
O40 Si4 1.651113 1_565
O41 Si5 1.651113 1_545
O42 Si6 1.651113 1_545
O43 Si7 1.651113 1_565
O44 Si10 1.654034 1_555
O45 Si11 1.654034 1_554
O46 Si8 1.654034 1_555
O47 Si3 1.645548 1_555
