# generated using pymatgen
data_KMg2(PO4)2
_symmetry_space_group_name_H-M   'P 1'
_cell_length_a   9.90423048
_cell_length_b   9.90423048
_cell_length_c   9.62901908
_cell_angle_alpha   60.94179651
_cell_angle_beta   60.94179651
_cell_angle_gamma   32.65234680
_symmetry_Int_Tables_number   1
_chemical_formula_structural   KMg2(PO4)2
_chemical_formula_sum   'K2 Mg4 P4 O16'
_cell_volume   439.53366686
_cell_formula_units_Z   2
loop_
 _symmetry_equiv_pos_site_id
 _symmetry_equiv_pos_as_xyz
  1  'x, y, z'
loop_
 _atom_site_type_symbol
 _atom_site_label
 _atom_site_symmetry_multiplicity
 _atom_site_fract_x
 _atom_site_fract_y
 _atom_site_fract_z
 _atom_site_occupancy
  K  K0  1  0.75434900  0.24565100  0.75000000  1
  K  K1  1  0.24565100  0.75434900  0.25000000  1
  Mg  Mg0  1  0.55457500  0.14302900  0.56587000  1
  Mg  Mg1  1  0.44542500  0.85697100  0.43413000  1
  Mg  Mg2  1  0.85697100  0.44542500  0.93413000  1
  Mg  Mg3  1  0.14302900  0.55457500  0.06587000  1
  P  P0  1  0.34395800  0.93258800  0.77927500  1
  P  P1  1  0.65604200  0.06741200  0.22072500  1
  P  P2  1  0.06741200  0.65604200  0.72072500  1
  P  P3  1  0.93258800  0.34395800  0.27927500  1
  O  O0  1  0.36089900  0.84748600  0.66634600  1
  O  O1  1  0.63910100  0.15251400  0.33365400  1
  O  O2  1  0.15251400  0.63910100  0.83365400  1
  O  O3  1  0.84748600  0.36089900  0.16634600  1
  O  O4  1  0.85019000  0.93519800  0.64141000  1
  O  O5  1  0.14981000  0.06480200  0.35859000  1
  O  O6  1  0.06480200  0.14981000  0.85859000  1
  O  O7  1  0.93519800  0.85019000  0.14141000  1
  O  O8  1  0.50718100  0.70558800  0.91220100  1
  O  O9  1  0.49281900  0.29441200  0.08779900  1
  O  O10  1  0.29441200  0.49281900  0.58779900  1
  O  O11  1  0.70558800  0.50718100  0.41220100  1
  O  O12  1  0.44383000  0.01998300  0.68229400  1
  O  O13  1  0.55617000  0.98001700  0.31770600  1
  O  O14  1  0.98001700  0.55617000  0.81770600  1
  O  O15  1  0.01998300  0.44383000  0.18229400  1
loop_
_geom_bond_atom_site_label_1
_geom_bond_atom_site_label_2
_geom_bond_distance
_geom_bond_site_symmetry_2
K0 O6 2.948362 1_655
K0 O4 2.948362 1_545
K0 O11 2.959343 1_555
K0 O9 2.959343 1_556
K0 O0 3.261200 1_555
K0 O2 3.261200 1_555
K0 O2 3.283538 1_645
K0 O0 3.283538 1_645
K1 O5 2.948362 1_565
K1 O7 2.948362 1_455
K1 O10 2.959343 1_555
K1 O8 2.959343 1_554
K1 O3 3.261200 1_555
K1 O1 3.261200 1_555
K1 O1 3.283538 1_465
K1 O3 3.283538 1_465
Mg0 O12 1.916852 1_555
Mg0 O4 1.950441 1_545
Mg0 O1 1.954339 1_555
Mg0 O10 1.958629 1_555
Mg1 O13 1.916852 1_555
Mg1 O5 1.950441 1_565
Mg1 O0 1.954339 1_555
Mg1 O11 1.958629 1_555
Mg2 O14 1.916852 1_555
Mg2 O6 1.950441 1_655
Mg2 O3 1.954339 1_556
Mg2 O8 1.958629 1_555
Mg3 O15 1.916852 1_555
Mg3 O7 1.950441 1_455
Mg3 O2 1.954339 1_554
Mg3 O9 1.958629 1_555
O0 P0 1.547886 1_555
O1 P1 1.547886 1_555
O2 P2 1.547886 1_555
O3 P3 1.547886 1_555
O4 P2 1.544218 1_655
O5 P3 1.544218 1_455
O6 P0 1.544218 1_545
O7 P1 1.544218 1_565
O8 P0 1.549419 1_555
O9 P1 1.549419 1_555
O10 P2 1.549419 1_555
O11 P3 1.549419 1_555
O12 P0 1.535901 1_545
O13 P1 1.535901 1_565
O14 P2 1.535901 1_655
O15 P3 1.535901 1_455
