# generated using pymatgen
data_KSm(FeO3)4
_symmetry_space_group_name_H-M   'P 1'
_cell_length_a   5.43780477
_cell_length_b   5.43780477
_cell_length_c   7.66360592
_cell_angle_alpha   90.00000000
_cell_angle_beta   90.00000000
_cell_angle_gamma   89.95357817
_symmetry_Int_Tables_number   1
_chemical_formula_structural   KSm(FeO3)4
_chemical_formula_sum   'K1 Sm1 Fe4 O12'
_cell_volume   226.61061211
_cell_formula_units_Z   1
loop_
 _symmetry_equiv_pos_site_id
 _symmetry_equiv_pos_as_xyz
  1  'x, y, z'
loop_
 _atom_site_type_symbol
 _atom_site_label
 _atom_site_symmetry_multiplicity
 _atom_site_fract_x
 _atom_site_fract_y
 _atom_site_fract_z
 _atom_site_occupancy
  K  K0  1  0.99780104  0.99780104  0.50000000  1
  Sm  Sm0  1  0.50819589  0.50819589  0.00000000  1
  Fe  Fe0  1  0.49903073  0.00152326  0.74604123  1
  Fe  Fe1  1  0.49903073  0.00152326  0.25395877  1
  Fe  Fe2  1  0.00152326  0.49903073  0.25395877  1
  Fe  Fe3  1  0.00152326  0.49903073  0.74604123  1
  O  O0  1  0.74071868  0.25875661  0.76773282  1
  O  O1  1  0.25875661  0.74071868  0.76773282  1
  O  O2  1  0.25875661  0.74071868  0.23226718  1
  O  O3  1  0.74071868  0.25875661  0.23226718  1
  O  O4  1  0.73559445  0.73559445  0.75306138  1
  O  O5  1  0.26487441  0.26487441  0.77953928  1
  O  O6  1  0.26487441  0.26487441  0.22046072  1
  O  O7  1  0.73559445  0.73559445  0.24693862  1
  O  O8  1  0.51231234  0.97456318  0.00000000  1
  O  O9  1  0.49302451  0.01070678  0.50000000  1
  O  O10  1  0.97456318  0.51231234  0.00000000  1
  O  O11  1  0.01070678  0.49302451  0.50000000  1
loop_
_geom_bond_atom_site_label_1
_geom_bond_atom_site_label_2
_geom_bond_distance
_geom_bond_site_symmetry_2
K0 O9 2.693900 1_665
K0 O11 2.693900 1_665
K0 O11 2.745716 1_655
K0 O9 2.745716 1_565
K0 O7 2.798284 1_555
K0 O4 2.798284 1_555
K0 O0 2.859126 1_565
K0 O1 2.859126 1_655
K0 O2 2.859126 1_655
K0 O3 2.859126 1_565
K0 O6 2.968347 1_665
K0 O5 2.968347 1_665
Fe0 O9 1.886506 1_555
Fe0 O0 1.927296 1_555
Fe0 O5 1.932616 1_555
Fe0 O4 1.935404 1_545
Fe0 O1 1.936246 1_545
Fe0 O8 1.953085 1_546
Fe1 O9 1.886506 1_555
Fe1 O3 1.927296 1_555
Fe1 O6 1.932616 1_555
Fe1 O7 1.935404 1_545
Fe1 O2 1.936246 1_545
Fe1 O8 1.953085 1_545
Fe2 O11 1.886506 1_555
Fe2 O2 1.927296 1_555
Fe2 O6 1.932616 1_555
Fe2 O7 1.935404 1_455
Fe2 O3 1.936246 1_455
Fe2 O10 1.953085 1_455
Fe3 O11 1.886506 1_555
Fe3 O1 1.927296 1_555
Fe3 O5 1.932616 1_555
Fe3 O4 1.935404 1_455
Fe3 O0 1.936246 1_455
Fe3 O10 1.953085 1_456
O0 Sm0 2.569865 1_556
O1 Sm0 2.569865 1_556
O2 Sm0 2.569865 1_555
O3 Sm0 2.569865 1_555
O4 Sm0 2.577191 1_556
O5 Sm0 2.521646 1_556
O6 Sm0 2.521646 1_555
O7 Sm0 2.577191 1_555
O8 Sm0 2.536131 1_555
O8 Sm0 2.901859 1_565
O10 Sm0 2.536131 1_555
O10 Sm0 2.901859 1_655
