# generated using pymatgen
data_Ca6Mg2ZnP6(H2O5)6
_symmetry_space_group_name_H-M   'P 1'
_cell_length_a   5.53087807
_cell_length_b   15.30105186
_cell_length_c   6.90215461
_cell_angle_alpha   86.36237809
_cell_angle_beta   97.15510901
_cell_angle_gamma   93.43901022
_symmetry_Int_Tables_number   1
_chemical_formula_structural   Ca6Mg2ZnP6(H2O5)6
_chemical_formula_sum   'Ca6 Mg2 Zn1 P6 H12 O30'
_cell_volume   577.60020812
_cell_formula_units_Z   1
loop_
 _symmetry_equiv_pos_site_id
 _symmetry_equiv_pos_as_xyz
  1  'x, y, z'
loop_
 _atom_site_type_symbol
 _atom_site_label
 _atom_site_symmetry_multiplicity
 _atom_site_fract_x
 _atom_site_fract_y
 _atom_site_fract_z
 _atom_site_occupancy
  Ca  Ca0  1  0.11615600  0.23402700  0.00640200  1
  Ca  Ca1  1  0.78303800  0.56766000  0.67339600  1
  Ca  Ca2  1  0.45044600  0.90061600  0.33845900  1
  Ca  Ca3  1  0.54955400  0.09938400  0.66154100  1
  Ca  Ca4  1  0.21696200  0.43234000  0.32660400  1
  Ca  Ca5  1  0.88384400  0.76597300  0.99359800  1
  Mg  Mg0  1  0.66668900  0.33338900  0.66660800  1
  Mg  Mg1  1  0.33331100  0.66661100  0.33339200  1
  Zn  Zn0  1  0.00000000  0.00000000  0.00000000  1
  P  P0  1  0.11411500  0.22113200  0.53593800  1
  P  P1  1  0.78102300  0.55450900  0.20260000  1
  P  P2  1  0.44655200  0.88712000  0.86889500  1
  P  P3  1  0.55344800  0.11288000  0.13110500  1
  P  P4  1  0.21897700  0.44549100  0.79740000  1
  P  P5  1  0.88588500  0.77886800  0.46406200  1
  H  H0  1  0.56657100  0.29133700  0.31294400  1
  H  H1  1  0.23333400  0.62465100  0.97948000  1
  H  H2  1  0.90126000  0.95746500  0.64688500  1
  H  H3  1  0.09874000  0.04253500  0.35311500  1
  H  H4  1  0.76666600  0.37534900  0.02052000  1
  H  H5  1  0.43342900  0.70866300  0.68705600  1
  H  H6  1  0.02498300  0.05749500  0.63055800  1
  H  H7  1  0.68950700  0.39071700  0.29592600  1
  H  H8  1  0.35622400  0.72385000  0.96250800  1
  H  H9  1  0.64377600  0.27615000  0.03749200  1
  H  H10  1  0.31049300  0.60928300  0.70407400  1
  H  H11  1  0.97501700  0.94250500  0.36944200  1
  O  O0  1  0.14962100  0.12364000  0.49386000  1
  O  O1  1  0.81676700  0.45728000  0.15992000  1
  O  O2  1  0.48435000  0.79028000  0.82460000  1
  O  O3  1  0.51565000  0.20972000  0.17540000  1
  O  O4  1  0.18323300  0.54272000  0.84008000  1
  O  O5  1  0.85037900  0.87636000  0.50614000  1
  O  O6  1  0.08729900  0.27929200  0.34608200  1
  O  O7  1  0.75416000  0.61289500  0.01296500  1
  O  O8  1  0.42062000  0.94627100  0.68067200  1
  O  O9  1  0.57938000  0.05372900  0.31932800  1
  O  O10  1  0.24584000  0.38710500  0.98703500  1
  O  O11  1  0.91270100  0.72070800  0.65391800  1
  O  O12  1  0.91244800  0.01625600  0.70604400  1
  O  O13  1  0.58124600  0.34955100  0.37430000  1
  O  O14  1  0.24796300  0.68282900  0.04081900  1
  O  O15  1  0.75203700  0.31717100  0.95918100  1
  O  O16  1  0.41875400  0.65044900  0.62570000  1
  O  O17  1  0.08755200  0.98374400  0.29395600  1
  O  O18  1  0.34780200  0.24708500  0.67899000  1
  O  O19  1  0.01453800  0.58046200  0.34605000  1
  O  O20  1  0.67693000  0.91244400  0.01646800  1
  O  O21  1  0.32307000  0.08755600  0.98353200  1
  O  O22  1  0.98546200  0.41953800  0.65394900  1
  O  O23  1  0.65219800  0.75291500  0.32101000  1
  O  O24  1  0.88686100  0.22278800  0.65105600  1
  O  O25  1  0.55366100  0.55616000  0.31780400  1
  O  O26  1  0.21865200  0.88676900  0.98433100  1
  O  O27  1  0.78134800  0.11323100  0.01566900  1
  O  O28  1  0.44633900  0.44384100  0.68219600  1
  O  O29  1  0.11313900  0.77721200  0.34894400  1
loop_
_geom_bond_atom_site_label_1
_geom_bond_atom_site_label_2
_geom_bond_distance
_geom_bond_site_symmetry_2
Ca0 O3 2.404694 1_555
Ca0 O10 2.408546 1_554
Ca0 O15 2.423165 1_454
Ca0 O6 2.512865 1_555
Ca0 O27 2.540335 1_455
Ca0 O21 2.599039 1_554
Ca0 O24 2.627912 1_454
Ca0 O18 2.724257 1_554
Ca1 O4 2.404113 1_655
Ca1 O11 2.408105 1_555
Ca1 O16 2.420861 1_555
Ca1 O7 2.511998 1_556
Ca1 O28 2.579010 1_555
Ca1 O22 2.605497 1_555
Ca1 O25 2.629951 1_555
Ca1 O19 2.723427 1_655
Ca2 O5 2.403400 1_555
Ca2 O9 2.407988 1_565
Ca2 O17 2.417408 1_555
Ca2 O8 2.532697 1_555
Ca2 O29 2.577737 1_555
Ca2 O23 2.595716 1_555
Ca2 O26 2.629701 1_554
Ca2 O20 2.675141 1_555
Ca3 O0 2.403400 1_555
Ca3 O8 2.407988 1_545
Ca3 O12 2.417408 1_555
Ca3 O9 2.532697 1_555
Ca3 O24 2.577737 1_555
Ca3 O18 2.595716 1_555
Ca3 O27 2.629701 1_556
Ca3 O21 2.675141 1_555
Ca4 O1 2.404113 1_455
Ca4 O6 2.408105 1_555
Ca4 O13 2.420861 1_555
Ca4 O10 2.511998 1_554
Ca4 O25 2.579020 1_555
Ca4 O19 2.605496 1_555
Ca4 O28 2.629953 1_555
Ca4 O22 2.723421 1_455
Ca5 O2 2.404694 1_555
Ca5 O7 2.408546 1_556
Ca5 O14 2.423165 1_656
Ca5 O11 2.512865 1_555
Ca5 O26 2.540335 1_655
Ca5 O20 2.599039 1_556
Ca5 O29 2.627912 1_656
Ca5 O23 2.724257 1_556
Mg0 O13 2.016979 1_555
Mg0 O15 2.018743 1_555
Mg0 O22 2.144446 1_555
Mg0 O18 2.146082 1_555
Mg0 O28 2.157760 1_555
Mg0 O24 2.158980 1_555
Mg1 O16 2.016979 1_555
Mg1 O14 2.018743 1_555
Mg1 O19 2.144445 1_555
Mg1 O23 2.146082 1_555
Mg1 O25 2.157747 1_555
Mg1 O29 2.158980 1_555
H0 O13 1.004972 1_555
H0 O3 1.606795 1_555
H1 O14 1.004424 1_556
H1 O4 1.618360 1_555
H2 O12 1.006683 1_565
H2 O5 1.614290 1_555
H3 O17 1.006683 1_545
H3 O0 1.614290 1_555
H4 O15 1.004424 1_554
H4 O1 1.618360 1_555
H5 O16 1.004972 1_555
H5 O2 1.606795 1_555
H6 O12 1.024193 1_455
H6 O0 1.531960 1_555
H7 O13 1.019862 1_555
H7 O1 1.539878 1_555
H8 O14 1.018401 1_556
H8 O2 1.549272 1_555
H9 O15 1.018401 1_554
H9 O3 1.549272 1_555
H10 O16 1.019862 1_555
H10 O4 1.539878 1_555
H11 O17 1.024193 1_655
H11 O5 1.531960 1_555
O0 P0 1.566046 1_555
O1 P1 1.563501 1_555
O2 P2 1.563119 1_555
O3 P3 1.563119 1_555
O4 P4 1.563501 1_555
O5 P5 1.566046 1_555
O6 P0 1.533156 1_555
O7 P1 1.533778 1_555
O8 P2 1.532142 1_555
O9 P3 1.532142 1_555
O10 P4 1.533778 1_555
O11 P5 1.533156 1_555
O12 Zn0 2.029427 1_656
O17 Zn0 2.029427 1_565
O18 P0 1.572704 1_555
O19 P1 1.573501 1_455
O20 P2 1.574400 1_554
O20 Zn0 2.178224 1_665
O21 P3 1.574400 1_556
O21 Zn0 2.178224 1_556
O22 P4 1.573505 1_655
O23 P5 1.572704 1_555
O24 P0 1.570658 1_655
O25 P1 1.571527 1_555
O26 P2 1.572421 1_555
O26 Zn0 2.187159 1_566
O27 P3 1.572421 1_555
O27 Zn0 2.187159 1_655
O28 P4 1.571526 1_555
O29 P5 1.570658 1_455
