# generated using pymatgen
data_Ba2CdGe10
_symmetry_space_group_name_H-M   'P 1'
_cell_length_a   11.02285270
_cell_length_b   11.02285270
_cell_length_c   10.95565461
_cell_angle_alpha   90.00000000
_cell_angle_beta   90.00000000
_cell_angle_gamma   90.01901073
_symmetry_Int_Tables_number   1
_chemical_formula_structural   Ba2CdGe10
_chemical_formula_sum   'Ba8 Cd4 Ge40'
_cell_volume   1331.14791483
_cell_formula_units_Z   4
loop_
 _symmetry_equiv_pos_site_id
 _symmetry_equiv_pos_as_xyz
  1  'x, y, z'
loop_
 _atom_site_type_symbol
 _atom_site_label
 _atom_site_symmetry_multiplicity
 _atom_site_fract_x
 _atom_site_fract_y
 _atom_site_fract_z
 _atom_site_occupancy
  Ba  Ba0  1  0.49936592  0.50043471  0.50000000  1
  Ba  Ba1  1  0.00043471  -0.00063408  -0.00000000  1
  Ba  Ba2  1  0.00301178  0.75524660  0.50000000  1
  Ba  Ba3  1  0.25524660  0.50301178  -0.00000000  1
  Ba  Ba4  1  0.49735437  0.99735437  0.75000000  1
  Ba  Ba5  1  0.00282451  0.24510522  0.50000000  1
  Ba  Ba6  1  0.74510522  0.50282451  -0.00000000  1
  Ba  Ba7  1  0.49735437  0.99735437  0.25000000  1
  Cd  Cd0  1  0.99979873  0.49979873  0.75000000  1
  Cd  Cd1  1  0.50008007  0.24957320  -0.00000000  1
  Cd  Cd2  1  0.74957320  0.00008007  0.50000000  1
  Cd  Cd3  1  0.99979873  0.49979873  0.25000000  1
  Ge  Ge0  1  0.19810406  0.49988316  0.61450028  1
  Ge  Ge1  1  0.50012034  0.62122058  0.82142400  1
  Ge  Ge2  1  0.37942568  0.82074083  0.50000000  1
  Ge  Ge3  1  0.80220993  0.49986294  0.38554493  1
  Ge  Ge4  1  0.50006454  0.38916722  0.20051013  1
  Ge  Ge5  1  0.61068878  0.19978459  0.50000000  1
  Ge  Ge6  1  0.80220993  0.49986294  0.61445507  1
  Ge  Ge7  1  0.50006454  0.38916722  0.79948987  1
  Ge  Ge8  1  0.19810406  0.49988316  0.38549972  1
  Ge  Ge9  1  0.50012034  0.62122058  0.17857600  1
  Ge  Ge10  1  0.61066285  0.79970587  0.50000000  1
  Ge  Ge11  1  0.37923904  0.17862701  0.50000000  1
  Ge  Ge12  1  0.99988316  0.69810406  0.11450028  1
  Ge  Ge13  1  0.12122058  0.00012034  0.32142400  1
  Ge  Ge14  1  0.32074083  0.87942568  -0.00000000  1
  Ge  Ge15  1  0.99986294  0.30220993  0.88554493  1
  Ge  Ge16  1  0.88916722  0.00006454  0.70051013  1
  Ge  Ge17  1  0.69978459  0.11068878  -0.00000000  1
  Ge  Ge18  1  0.99986294  0.30220993  0.11445507  1
  Ge  Ge19  1  0.88916722  0.00006454  0.29948987  1
  Ge  Ge20  1  0.99988316  0.69810406  0.88549972  1
  Ge  Ge21  1  0.12122058  0.00012034  0.67857600  1
  Ge  Ge22  1  0.29970587  0.11066285  -0.00000000  1
  Ge  Ge23  1  0.67862701  0.87923904  -0.00000000  1
  Ge  Ge24  1  0.32042708  0.68494273  0.68304540  1
  Ge  Ge25  1  0.68427994  0.31670559  0.31661878  1
  Ge  Ge26  1  0.68427994  0.31670559  0.68338122  1
  Ge  Ge27  1  0.32042708  0.68494273  0.31695460  1
  Ge  Ge28  1  0.68098296  0.68178018  0.31343636  1
  Ge  Ge29  1  0.31704081  0.31379651  0.67992321  1
  Ge  Ge30  1  0.31704081  0.31379651  0.32007679  1
  Ge  Ge31  1  0.68098296  0.68178018  0.68656364  1
  Ge  Ge32  1  0.18494273  0.82042708  0.18304540  1
  Ge  Ge33  1  0.81670559  0.18427994  0.81661878  1
  Ge  Ge34  1  0.81670559  0.18427994  0.18338122  1
  Ge  Ge35  1  0.18494273  0.82042708  0.81695460  1
  Ge  Ge36  1  0.18178018  0.18098296  0.81343636  1
  Ge  Ge37  1  0.81379651  0.81704081  0.17992321  1
  Ge  Ge38  1  0.81379651  0.81704081  0.82007679  1
  Ge  Ge39  1  0.18178018  0.18098296  0.18656364  1
loop_
_geom_bond_atom_site_label_1
_geom_bond_atom_site_label_2
_geom_bond_distance
_geom_bond_site_symmetry_2
Ba0 Ge24 3.471456 1_555
Ba0 Ge27 3.471456 1_555
Ba0 Ge29 3.486299 1_555
Ba0 Ge30 3.486299 1_555
Ba0 Ge28 3.489773 1_555
Ba0 Ge31 3.489773 1_555
Ba0 Ge4 3.502856 1_555
Ba0 Ge7 3.502856 1_555
Ba0 Ge26 3.506446 1_555
Ba0 Ge25 3.506446 1_555
Ba0 Ge10 3.519176 1_555
Ba0 Ge5 3.534290 1_555
Ba0 Ge8 3.549801 1_555
Ba0 Ge0 3.549801 1_555
Ba0 Ge3 3.565951 1_555
Ba0 Ge6 3.565951 1_555
Ba0 Ge1 3.764709 1_555
Ba0 Ge9 3.764709 1_555
Ba0 Ge2 3.770511 1_555
Ba0 Ge11 3.785913 1_555
Ba1 Ge35 3.471456 1_544
Ba1 Ge32 3.471456 1_545
Ba1 Ge38 3.486299 1_444
Ba1 Ge37 3.486299 1_445
Ba1 Ge39 3.489773 1_555
Ba1 Ge36 3.489773 1_554
Ba1 Ge16 3.502856 1_454
Ba1 Ge19 3.502856 1_455
Ba1 Ge34 3.506446 1_455
Ba1 Ge33 3.506446 1_454
Ba1 Ge22 3.519176 1_555
Ba1 Ge17 3.534290 1_455
Ba1 Ge12 3.549801 1_445
Ba1 Ge20 3.549801 1_444
Ba1 Ge18 3.565951 1_455
Ba1 Ge15 3.565951 1_454
Ba1 Ge13 3.764709 1_555
Ba1 Ge21 3.764709 1_554
Ba1 Ge14 3.770511 1_545
Ba1 Ge23 3.785913 1_445
Ba2 Ge21 3.578932 1_565
Ba2 Ge13 3.578932 1_565
Ba2 Ge19 3.699321 1_465
Ba2 Ge16 3.699321 1_465
Ba2 Ge0 3.758381 1_555
Ba2 Ge8 3.758381 1_555
Ba2 Ge6 3.793670 1_455
Ba2 Ge3 3.793670 1_455
Ba2 Cd2 3.884922 1_465
Ba2 Cd3 3.928278 1_455
Ba2 Cd0 3.928278 1_455
Ba3 Ge9 3.578932 1_555
Ba3 Ge1 3.578932 1_554
Ba3 Ge7 3.699321 1_554
Ba3 Ge4 3.699321 1_555
Ba3 Ge12 3.758381 1_455
Ba3 Ge20 3.758381 1_454
Ba3 Ge18 3.793670 1_455
Ba3 Ge15 3.793670 1_454
Ba3 Cd1 3.884922 1_555
Ba3 Cd3 3.928278 1_455
Ba3 Cd0 3.928278 1_454
Ba4 Ge14 3.602736 1_556
Ba4 Ge2 3.602736 1_555
Ba4 Ge11 3.631951 1_565
Ba4 Ge23 3.631951 1_556
Ba4 Ge22 3.716171 1_566
Ba4 Ge10 3.716171 1_555
Ba4 Ge5 3.746923 1_565
Ba4 Ge17 3.746923 1_566
Ba4 Cd2 3.902800 1_565
Ba4 Cd1 3.902800 1_566
Ba5 Ge21 3.581261 1_555
Ba5 Ge13 3.581261 1_555
Ba5 Ge19 3.699806 1_455
Ba5 Ge16 3.699806 1_455
Ba5 Ge8 3.753663 1_555
Ba5 Ge0 3.753663 1_555
Ba5 Ge6 3.788437 1_455
Ba5 Ge3 3.788437 1_455
Ba5 Cd2 3.883618 1_455
Ba5 Cd3 3.922320 1_455
Ba5 Cd0 3.922320 1_455
Ba6 Ge9 3.581261 1_555
Ba6 Ge1 3.581261 1_554
Ba6 Ge7 3.699806 1_554
Ba6 Ge4 3.699806 1_555
Ba6 Ge20 3.753663 1_554
Ba6 Ge12 3.753663 1_555
Ba6 Ge15 3.788437 1_554
Ba6 Ge18 3.788437 1_555
Ba6 Cd1 3.883618 1_555
Ba6 Cd0 3.922320 1_554
Ba6 Cd3 3.922320 1_555
Ba7 Ge14 3.602736 1_555
Ba7 Ge2 3.602736 1_555
Ba7 Ge11 3.631951 1_565
Ba7 Ge23 3.631951 1_555
Ba7 Ge22 3.716171 1_565
Ba7 Ge10 3.716171 1_555
Ba7 Ge5 3.746923 1_565
Ba7 Ge17 3.746923 1_565
Ba7 Cd2 3.902800 1_565
Ba7 Cd1 3.902800 1_565
Cd0 Ge6 2.636063 1_555
Cd0 Ge15 2.636063 1_555
Cd0 Ge0 2.642314 1_655
Cd0 Ge20 2.642314 1_555
Cd1 Ge17 2.681731 1_555
Cd1 Ge7 2.682024 1_554
Cd1 Ge4 2.682024 1_555
Cd1 Ge22 2.687123 1_555
Cd2 Ge5 2.681731 1_555
Cd2 Ge19 2.682024 1_555
Cd2 Ge16 2.682024 1_555
Cd2 Ge10 2.687123 1_545
Cd3 Ge3 2.636063 1_555
Cd3 Ge18 2.636063 1_555
Cd3 Ge8 2.642314 1_655
Cd3 Ge12 2.642314 1_555
Ge0 Ge8 2.508851 1_555
Ge0 Ge29 2.538058 1_555
Ge0 Ge24 2.557593 1_555
Ge1 Ge7 2.569153 1_555
Ge1 Ge31 2.569477 1_555
Ge1 Ge24 2.591511 1_555
Ge2 Ge24 2.585440 1_555
Ge2 Ge27 2.585440 1_555
Ge3 Ge6 2.507860 1_555
Ge4 Ge9 2.569153 1_555
Ge10 Ge28 2.543386 1_555
Ge10 Ge31 2.543386 1_555
Ge10 Ge2 2.559494 1_555
Ge11 Ge5 2.561797 1_555
Ge11 Ge30 2.564415 1_555
Ge11 Ge29 2.564415 1_555
Ge12 Ge20 2.508851 1_554
Ge12 Ge37 2.538058 1_555
Ge12 Ge32 2.557593 1_655
Ge13 Ge19 2.569153 1_455
Ge13 Ge39 2.569477 1_555
Ge13 Ge32 2.591511 1_545
Ge14 Ge22 2.559494 1_565
Ge14 Ge32 2.585440 1_555
Ge14 Ge35 2.585440 1_554
Ge15 Ge18 2.507860 1_556
Ge15 Ge33 2.516806 1_555
Ge15 Ge36 2.536237 1_655
Ge16 Ge33 2.525947 1_555
Ge16 Ge38 2.544625 1_545
Ge16 Ge21 2.569153 1_655
Ge17 Ge34 2.520846 1_555
Ge17 Ge33 2.520846 1_554
Ge17 Ge23 2.561797 1_545
Ge18 Ge34 2.516806 1_555
Ge18 Ge39 2.536237 1_655
Ge19 Ge34 2.525947 1_555
Ge19 Ge37 2.544625 1_545
Ge20 Ge38 2.538058 1_555
Ge20 Ge35 2.557593 1_655
Ge21 Ge36 2.569477 1_555
Ge21 Ge35 2.591511 1_545
Ge22 Ge39 2.543386 1_555
Ge22 Ge36 2.543386 1_554
Ge23 Ge37 2.564415 1_555
Ge23 Ge38 2.564415 1_554
Ge24 Ge35 2.571845 1_555
Ge25 Ge3 2.516806 1_555
Ge25 Ge5 2.520846 1_555
Ge25 Ge4 2.525947 1_555
Ge25 Ge34 2.528567 1_555
Ge26 Ge6 2.516806 1_555
Ge26 Ge5 2.520846 1_555
Ge26 Ge7 2.525947 1_555
Ge26 Ge33 2.528567 1_555
Ge27 Ge8 2.557593 1_555
Ge27 Ge32 2.571845 1_555
Ge27 Ge9 2.591511 1_555
Ge28 Ge3 2.536237 1_555
Ge28 Ge37 2.550357 1_555
Ge28 Ge9 2.569477 1_555
Ge29 Ge7 2.544625 1_555
Ge29 Ge36 2.550357 1_555
Ge30 Ge8 2.538058 1_555
Ge30 Ge4 2.544625 1_555
Ge30 Ge39 2.550357 1_555
Ge31 Ge6 2.536237 1_555
Ge31 Ge38 2.550357 1_555
