# generated using pymatgen
data_Li3Co2(SiO4)2
_symmetry_space_group_name_H-M   'P 1'
_cell_length_a   5.33016016
_cell_length_b   5.01294290
_cell_length_c   6.55717590
_cell_angle_alpha   89.69900900
_cell_angle_beta   89.20279068
_cell_angle_gamma   90.36278665
_symmetry_Int_Tables_number   1
_chemical_formula_structural   Li3Co2(SiO4)2
_chemical_formula_sum   'Li3 Co2 Si2 O8'
_cell_volume   175.18338252
_cell_formula_units_Z   1
loop_
 _symmetry_equiv_pos_site_id
 _symmetry_equiv_pos_as_xyz
  1  'x, y, z'
loop_
 _atom_site_type_symbol
 _atom_site_label
 _atom_site_symmetry_multiplicity
 _atom_site_fract_x
 _atom_site_fract_y
 _atom_site_fract_z
 _atom_site_occupancy
  Li  Li0  1  0.16284700  0.49194200  0.49366600  1
  Li  Li1  1  0.66304000  0.49465700  0.72402900  1
  Li  Li2  1  0.83668200  0.99561600  0.49251200  1
  Co  Co0  1  0.18764700  0.50373800  0.01108100  1
  Co  Co1  1  0.81577800  0.00232000  0.99742100  1
  Si  Si0  1  0.31943200  0.00712100  0.74434800  1
  Si  Si1  1  0.68444300  0.48180800  0.25549600  1
  O  O0  1  0.17243200  0.11215600  0.55043700  1
  O  O1  1  0.16980800  0.12898400  0.95348200  1
  O  O2  1  0.30598700  0.67154800  0.76855400  1
  O  O3  1  0.38245700  0.55848600  0.23304500  1
  O  O4  1  0.61711700  0.09730800  0.75657000  1
  O  O5  1  0.71499400  0.16071600  0.24755600  1
  O  O6  1  0.83264700  0.59870100  0.03749800  1
  O  O7  1  0.80366700  0.60526400  0.45978100  1
loop_
_geom_bond_atom_site_label_1
_geom_bond_atom_site_label_2
_geom_bond_distance
_geom_bond_site_symmetry_2
Li0 O0 1.939105 1_555
Li0 O7 2.015347 1_455
Li0 O3 2.082150 1_555
Li0 O2 2.165256 1_555
Li1 O7 1.954508 1_555
Li1 O4 2.015185 1_555
Li1 O2 2.121830 1_555
Li1 O6 2.317600 1_556
Li2 O0 1.922562 1_665
Li2 O5 1.925474 1_565
Li2 O7 1.976676 1_555
Li2 O4 2.141952 1_565
Co0 O3 1.820585 1_555
Co0 O2 1.893639 1_554
Co0 O1 1.920181 1_554
Co0 O6 1.959649 1_455
Co1 O5 1.898372 1_556
Co1 O4 1.971601 1_555
Co1 O1 2.003713 1_655
Co1 O6 2.041651 1_546
O0 Si0 1.591795 1_555
O1 Si0 1.695378 1_555
O2 Si0 1.689824 1_565
O3 Si1 1.665586 1_555
O4 Si0 1.650242 1_555
O5 Si1 1.619894 1_555
O6 Si1 1.721813 1_555
O7 Si1 1.615120 1_555
