# generated using pymatgen
data_SrMgCo(PO4)2
_symmetry_space_group_name_H-M   'P 1'
_cell_length_a   8.20375628
_cell_length_b   9.49078825
_cell_length_c   9.47325273
_cell_angle_alpha   116.94335876
_cell_angle_beta   96.81310331
_cell_angle_gamma   77.01408692
_symmetry_Int_Tables_number   1
_chemical_formula_structural   SrMgCo(PO4)2
_chemical_formula_sum   'Sr4 Mg4 Co4 P8 O32'
_cell_volume   640.59087086
_cell_formula_units_Z   4
loop_
 _symmetry_equiv_pos_site_id
 _symmetry_equiv_pos_as_xyz
  1  'x, y, z'
loop_
 _atom_site_type_symbol
 _atom_site_label
 _atom_site_symmetry_multiplicity
 _atom_site_fract_x
 _atom_site_fract_y
 _atom_site_fract_z
 _atom_site_occupancy
  Sr  Sr0  1  0.99789200  0.25131700  0.05211000  1
  Sr  Sr1  1  0.49809600  0.75277200  0.05344300  1
  Sr  Sr2  1  0.50184600  0.24889100  0.94782000  1
  Sr  Sr3  1  0.00186500  0.74765000  0.94693900  1
  Mg  Mg0  1  0.13809500  0.12706700  0.65506500  1
  Mg  Mg1  1  0.63725300  0.62592900  0.65540700  1
  Mg  Mg2  1  0.36206800  0.37271200  0.34472500  1
  Mg  Mg3  1  0.86277700  0.87404200  0.34436500  1
  Co  Co0  1  0.03713900  0.67470400  0.56347200  1
  Co  Co1  1  0.46210000  0.82522200  0.43630400  1
  Co  Co2  1  0.53692100  0.17316900  0.56288200  1
  Co  Co3  1  0.96376300  0.32697100  0.43772200  1
  P  P0  1  0.20926600  0.60186900  0.23801900  1
  P  P1  1  0.70868700  0.10246900  0.23737200  1
  P  P2  1  0.29092700  0.89796700  0.76206900  1
  P  P3  1  0.79133300  0.39755600  0.76253000  1
  P  P4  1  0.21614700  0.05903900  0.30405600  1
  P  P5  1  0.71782200  0.56001100  0.30367400  1
  P  P6  1  0.28361000  0.44108800  0.69603400  1
  P  P7  1  0.78223100  0.94004300  0.69631400  1
  O  O0  1  0.25174500  0.08113100  0.87856000  1
  O  O1  1  0.75148700  0.58076200  0.87855100  1
  O  O2  1  0.24827800  0.41878100  0.12149300  1
  O  O3  1  0.74875500  0.91910800  0.12156700  1
  O  O4  1  0.03831500  0.69140300  0.20391800  1
  O  O5  1  0.53689400  0.19052500  0.20254300  1
  O  O6  1  0.46212000  0.80855600  0.79613200  1
  O  O7  1  0.96294500  0.30900800  0.79699900  1
  O  O8  1  0.15133400  0.81434900  0.76590700  1
  O  O9  1  0.65201800  0.31340300  0.76551400  1
  O  O10  1  0.34893600  0.68520400  0.23378800  1
  O  O11  1  0.84795700  0.18654700  0.23438800  1
  O  O12  1  0.31006900  0.26710900  0.68877200  1
  O  O13  1  0.80973900  0.76686700  0.69099100  1
  O  O14  1  0.18980800  0.23316800  0.31164300  1
  O  O15  1  0.69030900  0.73330000  0.30910200  1
  O  O16  1  0.41414200  0.42284500  0.57720800  1
  O  O17  1  0.91197900  0.92076500  0.57621200  1
  O  O18  1  0.08539500  0.07730100  0.42269500  1
  O  O19  1  0.58828700  0.57892800  0.42378600  1
  O  O20  1  0.30780300  0.56261400  0.86717100  1
  O  O21  1  0.80730100  0.06259900  0.86679300  1
  O  O22  1  0.19192800  0.93757800  0.13289100  1
  O  O23  1  0.69270200  0.43754800  0.13307600  1
  O  O24  1  0.21481400  0.59664000  0.40173300  1
  O  O25  1  0.71244500  0.09737200  0.40102700  1
  O  O26  1  0.28544500  0.90358600  0.59840900  1
  O  O27  1  0.78737700  0.40262700  0.59890400  1
  O  O28  1  0.89929600  0.51586900  0.36449700  1
  O  O29  1  0.39725700  0.01480900  0.36505100  1
  O  O30  1  0.60085300  0.98393200  0.63542800  1
  O  O31  1  0.10243000  0.48527600  0.63492900  1
loop_
_geom_bond_atom_site_label_1
_geom_bond_atom_site_label_2
_geom_bond_distance
_geom_bond_site_symmetry_2
Mg0 O7 2.023244 1_455
Mg0 O18 2.044378 1_555
Mg0 O12 2.051874 1_555
Mg0 O26 2.053784 1_545
Mg0 O0 2.393207 1_555
Mg1 O6 2.021630 1_555
Mg1 O19 2.039435 1_555
Mg1 O13 2.057674 1_555
Mg1 O27 2.061587 1_555
Mg1 O1 2.387717 1_555
Mg1 O16 2.753869 1_555
Mg2 O5 2.023428 1_555
Mg2 O16 2.043973 1_555
Mg2 O14 2.051635 1_555
Mg2 O24 2.056343 1_555
Mg2 O2 2.391819 1_555
Mg3 O4 2.022724 1_655
Mg3 O17 2.042300 1_555
Mg3 O15 2.056842 1_555
Mg3 O25 2.062268 1_565
Mg3 O3 2.383799 1_555
Mg3 O18 2.751727 1_665
Co0 O24 2.009218 1_555
Co0 O8 2.034772 1_555
Co0 O13 2.132698 1_455
Co0 O31 2.135733 1_555
Co0 O28 2.188521 1_455
Co0 O17 2.284484 1_455
Co1 O26 2.005066 1_555
Co1 O10 2.032216 1_555
Co1 O29 2.135759 1_565
Co1 O15 2.136991 1_555
Co1 O30 2.192975 1_555
Co1 O19 2.289135 1_555
Co2 O25 2.000174 1_555
Co2 O9 2.041386 1_555
Co2 O12 2.120838 1_555
Co2 O30 2.140728 1_545
Co2 O29 2.189943 1_555
Co2 O16 2.305731 1_555
Co3 O27 2.001163 1_555
Co3 O11 2.048801 1_555
Co3 O14 2.116111 1_655
Co3 O28 2.142153 1_555
Co3 O31 2.182168 1_655
Co3 O18 2.301341 1_655
O0 P2 1.561294 1_545
O0 Sr0 2.557933 1_456
O0 Sr2 2.716125 1_555
O1 P3 1.560812 1_555
O1 Sr1 2.563631 1_556
O1 Sr3 2.713677 1_655
O2 P0 1.560776 1_555
O2 Sr2 2.556271 1_554
O2 Sr0 2.716186 1_455
O3 P1 1.561534 1_565
O3 Sr3 2.559934 1_654
O3 Sr1 2.712570 1_555
O4 P0 1.548856 1_555
O4 Sr3 2.689620 1_554
O5 P1 1.550409 1_555
O5 Sr2 2.680949 1_554
O6 P2 1.549723 1_555
O6 Sr1 2.690308 1_556
O7 P3 1.550106 1_555
O7 Sr0 2.680817 1_556
O8 P2 1.545008 1_555
O8 Sr3 2.583988 1_555
O9 P3 1.543790 1_555
O9 Sr2 2.584052 1_555
O10 P0 1.544981 1_555
O10 Sr1 2.582430 1_555
O11 P1 1.542980 1_555
O11 Sr0 2.584233 1_555
O12 P6 1.586766 1_555
O12 Sr2 2.805995 1_555
O13 P7 1.586100 1_555
O13 Sr3 2.785916 1_655
O14 P4 1.587000 1_555
O14 Sr0 2.810124 1_455
O15 P5 1.586740 1_555
O15 Sr1 2.784762 1_555
O16 P6 1.571588 1_555
O17 P7 1.572299 1_555
O18 P4 1.571538 1_555
O19 P5 1.572333 1_555
O20 P6 1.526450 1_555
O20 Sr1 2.556295 1_556
O20 Sr3 2.687164 1_555
O21 P7 1.526371 1_545
O21 Sr0 2.548047 1_556
O21 Sr2 2.688859 1_555
O22 P4 1.526487 1_565
O22 Sr3 2.552937 1_554
O22 Sr1 2.687734 1_555
O23 P5 1.526955 1_555
O23 Sr2 2.549069 1_554
O23 Sr0 2.686840 1_555
O24 P0 1.569020 1_555
O25 P1 1.569336 1_555
O26 P2 1.570315 1_555
O27 P3 1.568775 1_555
O28 P5 1.568075 1_555
O28 Sr0 2.939000 1_555
O29 P4 1.566350 1_555
O29 Sr1 2.930040 1_545
O30 P7 1.567105 1_555
O30 Sr2 2.941016 1_565
O31 P6 1.567140 1_555
O31 Sr3 2.933119 1_555
