# generated using pymatgen
data_CsAg2BiS3
_symmetry_space_group_name_H-M   'P 1'
_cell_length_a   8.30951200
_cell_length_b   7.06051300
_cell_length_c   13.61255324
_cell_angle_alpha   80.38427519
_cell_angle_beta   90.00000000
_cell_angle_gamma   90.00000000
_symmetry_Int_Tables_number   1
_chemical_formula_structural   CsAg2BiS3
_chemical_formula_sum   'Cs4 Ag8 Bi4 S12'
_cell_volume   787.41985309
_cell_formula_units_Z   4
loop_
 _symmetry_equiv_pos_site_id
 _symmetry_equiv_pos_as_xyz
  1  'x, y, z'
loop_
 _atom_site_type_symbol
 _atom_site_label
 _atom_site_symmetry_multiplicity
 _atom_site_fract_x
 _atom_site_fract_y
 _atom_site_fract_z
 _atom_site_occupancy
  Cs  Cs0  1  0.61490100  0.68487800  0.17928900  1
  Cs  Cs1  1  0.11490100  0.81512200  0.82071100  1
  Cs  Cs2  1  0.38509900  0.31512200  0.82071100  1
  Cs  Cs3  1  0.88509900  0.18487800  0.17928900  1
  Ag  Ag0  1  0.25189900  0.97028200  0.08702300  1
  Ag  Ag1  1  0.75189900  0.52971800  0.91297700  1
  Ag  Ag2  1  0.74810100  0.02971800  0.91297700  1
  Ag  Ag3  1  0.24810100  0.47028200  0.08702300  1
  Ag  Ag4  1  0.14017000  0.65100800  0.26820800  1
  Ag  Ag5  1  0.64017000  0.84899200  0.73179200  1
  Ag  Ag6  1  0.85983000  0.34899200  0.73179200  1
  Ag  Ag7  1  0.35983000  0.15100800  0.26820800  1
  Bi  Bi0  1  0.36802200  0.75680900  0.50134500  1
  Bi  Bi1  1  0.86802200  0.74319100  0.49865500  1
  Bi  Bi2  1  0.63197800  0.24319100  0.49865500  1
  Bi  Bi3  1  0.13197800  0.25680900  0.50134500  1
  S  S0  1  0.05379200  0.72247500  0.08970100  1
  S  S1  1  0.55379200  0.77752500  0.91029900  1
  S  S2  1  0.94620800  0.27752500  0.91029900  1
  S  S3  1  0.44620800  0.22247500  0.08970100  1
  S  S4  1  0.14400000  0.95134400  0.37770500  1
  S  S5  1  0.64400000  0.54865600  0.62229500  1
  S  S6  1  0.85600000  0.04865600  0.62229500  1
  S  S7  1  0.35600000  0.45134400  0.37770500  1
  S  S8  1  0.62808800  0.95579000  0.38255100  1
  S  S9  1  0.12808800  0.54421000  0.61744900  1
  S  S10  1  0.37191200  0.04421000  0.61744900  1
  S  S11  1  0.87191200  0.45579000  0.38255100  1
loop_
_geom_bond_atom_site_label_1
_geom_bond_atom_site_label_2
_geom_bond_distance
_geom_bond_site_symmetry_2
Cs0 S8 3.618653 1_555
Cs0 S7 3.626891 1_555
Cs0 S1 3.645979 1_554
Cs0 S11 3.652102 1_555
Cs0 S0 3.840565 1_655
Cs1 S9 3.618653 1_555
Cs1 S6 3.626891 1_465
Cs1 S0 3.645979 1_556
Cs1 S10 3.652102 1_565
Cs1 S1 3.840565 1_555
Cs2 S10 3.618653 1_555
Cs2 S5 3.626891 1_555
Cs2 S3 3.645979 1_556
Cs2 S9 3.652102 1_555
Cs2 S2 3.840565 1_455
Cs3 S11 3.618653 1_555
Cs3 S4 3.626891 1_645
Cs3 S2 3.645979 1_554
Cs3 S8 3.652102 1_545
Cs3 S3 3.840565 1_555
Ag0 S0 2.398158 1_555
Ag0 S3 2.408437 1_565
Ag1 S1 2.398158 1_555
Ag1 S2 2.408437 1_555
Ag2 S2 2.398158 1_555
Ag2 S1 2.408437 1_545
Ag3 S3 2.398158 1_555
Ag3 S0 2.408437 1_555
Ag4 S0 2.502950 1_555
Ag4 S7 2.592968 1_555
Ag4 S4 2.788416 1_555
Ag4 S11 2.928249 1_455
Ag5 S1 2.502950 1_555
Ag5 S6 2.592968 1_565
Ag5 S5 2.788416 1_555
Ag5 S10 2.928249 1_565
Ag6 S2 2.502950 1_555
Ag6 S5 2.592968 1_555
Ag6 S6 2.788416 1_555
Ag6 S9 2.928249 1_655
Ag7 S3 2.502950 1_555
Ag7 S4 2.592968 1_545
Ag7 S7 2.788416 1_555
Ag7 S8 2.928249 1_545
Bi0 S4 2.722530 1_555
Bi0 S10 2.772725 1_565
Bi0 S9 2.816644 1_555
Bi0 S8 2.915438 1_555
Bi0 S7 2.950739 1_555
Bi0 S5 3.053075 1_555
Bi1 S5 2.722530 1_555
Bi1 S11 2.772725 1_555
Bi1 S8 2.816644 1_555
Bi1 S9 2.915438 1_655
Bi1 S6 2.950739 1_565
Bi1 S4 3.053075 1_655
Bi2 S6 2.722530 1_555
Bi2 S8 2.772725 1_545
Bi2 S11 2.816644 1_555
Bi2 S10 2.915438 1_555
Bi2 S5 2.950739 1_555
Bi2 S7 3.053075 1_555
Bi3 S7 2.722530 1_555
Bi3 S9 2.772725 1_555
Bi3 S10 2.816644 1_555
Bi3 S11 2.915438 1_455
Bi3 S4 2.950739 1_545
Bi3 S6 3.053075 1_455
