# generated using pymatgen
data_PuRu2
_symmetry_space_group_name_H-M   'P 1'
_cell_length_a   5.21777347
_cell_length_b   5.21777347
_cell_length_c   5.21777347
_cell_angle_alpha   60.00000000
_cell_angle_beta   60.00000000
_cell_angle_gamma   60.00000000
_symmetry_Int_Tables_number   1
_chemical_formula_structural   PuRu2
_chemical_formula_sum   'Pu2 Ru4'
_cell_volume   100.44785376
_cell_formula_units_Z   2
loop_
 _symmetry_equiv_pos_site_id
 _symmetry_equiv_pos_as_xyz
  1  'x, y, z'
loop_
 _atom_site_type_symbol
 _atom_site_label
 _atom_site_symmetry_multiplicity
 _atom_site_fract_x
 _atom_site_fract_y
 _atom_site_fract_z
 _atom_site_occupancy
  Pu  Pu0  1  0.75000000  0.75000000  0.75000000  1
  Pu  Pu1  1  0.50000000  0.50000000  0.50000000  1
  Ru  Ru0  1  0.12500000  0.12500000  0.62500000  1
  Ru  Ru1  1  0.12500000  0.62500000  0.12500000  1
  Ru  Ru2  1  0.12500000  0.12500000  0.12500000  1
  Ru  Ru3  1  0.62500000  0.12500000  0.12500000  1
loop_
_geom_bond_atom_site_label_1
_geom_bond_atom_site_label_2
_geom_bond_distance
_geom_bond_site_symmetry_2
Pu0 Ru3 3.059191 1_556
Pu0 Ru1 3.059191 1_655
Pu0 Ru2 3.059191 1_566
Pu0 Ru3 3.059191 1_566
Pu0 Ru1 3.059191 1_556
Pu0 Ru2 3.059191 1_665
Pu0 Ru0 3.059191 1_655
Pu0 Ru2 3.059191 1_656
Pu0 Ru3 3.059191 1_565
Pu0 Ru1 3.059191 1_656
Pu0 Ru0 3.059191 1_565
Pu0 Ru0 3.059191 1_665
Pu1 Ru1 3.059191 1_655
Pu1 Ru3 3.059191 1_565
Pu1 Ru2 3.059191 1_655
Pu1 Ru2 3.059191 1_556
Pu1 Ru3 3.059191 1_555
Pu1 Ru1 3.059191 1_556
Pu1 Ru0 3.059191 1_655
Pu1 Ru1 3.059191 1_555
Pu1 Ru2 3.059191 1_565
Pu1 Ru3 3.059191 1_556
Pu1 Ru0 3.059191 1_555
Pu1 Ru0 3.059191 1_565
Ru0 Ru1 2.608887 1_546
Ru0 Ru3 2.608887 1_456
Ru0 Ru2 2.608887 1_556
Ru0 Ru3 2.608887 1_555
Ru0 Ru2 2.608887 1_555
Ru0 Ru1 2.608887 1_555
Ru1 Ru3 2.608887 1_465
Ru1 Ru3 2.608887 1_555
Ru1 Ru2 2.608887 1_555
Ru1 Ru2 2.608887 1_565
Ru2 Ru3 2.608887 1_555
Ru2 Ru3 2.608887 1_455
