# generated using pymatgen
data_Mg14NbCrO16
_symmetry_space_group_name_H-M   'P 1'
_cell_length_a   8.51144191
_cell_length_b   8.51144064
_cell_length_c   4.27259271
_cell_angle_alpha   90.00000000
_cell_angle_beta   90.00000000
_cell_angle_gamma   90.00000000
_symmetry_Int_Tables_number   1
_chemical_formula_structural   Mg14NbCrO16
_chemical_formula_sum   'Mg14 Nb1 Cr1 O16'
_cell_volume   309.52640903
_cell_formula_units_Z   1
loop_
 _symmetry_equiv_pos_site_id
 _symmetry_equiv_pos_as_xyz
  1  'x, y, z'
loop_
 _atom_site_type_symbol
 _atom_site_label
 _atom_site_symmetry_multiplicity
 _atom_site_fract_x
 _atom_site_fract_y
 _atom_site_fract_z
 _atom_site_occupancy
  Mg  Mg0  1  0.00000000  0.50000000  -0.00000000  1
  Mg  Mg1  1  0.50000000  -0.00000000  -0.00000000  1
  Mg  Mg2  1  0.00000000  0.25615296  0.50000000  1
  Mg  Mg3  1  0.00000000  0.74384704  0.50000000  1
  Mg  Mg4  1  0.50000000  0.24970665  0.50000000  1
  Mg  Mg5  1  0.50000000  0.75029335  0.50000000  1
  Mg  Mg6  1  0.25615315  -0.00000000  0.50000000  1
  Mg  Mg7  1  0.24970668  0.50000000  0.50000000  1
  Mg  Mg8  1  0.74384685  -0.00000000  0.50000000  1
  Mg  Mg9  1  0.75029332  0.50000000  0.50000000  1
  Mg  Mg10  1  0.25286628  0.25286633  -0.00000000  1
  Mg  Mg11  1  0.25286628  0.74713367  -0.00000000  1
  Mg  Mg12  1  0.74713372  0.25286633  0.00000000  1
  Mg  Mg13  1  0.74713372  0.74713367  0.00000000  1
  Nb  Nb0  1  0.00000000  -0.00000000  -0.00000000  1
  Cr  Cr0  1  0.50000000  0.50000000  -0.00000000  1
  O  O0  1  0.26184310  -0.00000000  0.00000000  1
  O  O1  1  0.24290770  0.50000000  -0.00000000  1
  O  O2  1  0.73815690  -0.00000000  -0.00000000  1
  O  O3  1  0.75709230  0.50000000  0.00000000  1
  O  O4  1  0.24995531  0.24995524  0.50000000  1
  O  O5  1  0.24995531  0.75004476  0.50000000  1
  O  O6  1  0.75004469  0.24995524  0.50000000  1
  O  O7  1  0.75004469  0.75004476  0.50000000  1
  O  O8  1  0.00000000  -0.00000000  0.50000000  1
  O  O9  1  0.00000000  0.50000000  0.50000000  1
  O  O10  1  0.50000000  -0.00000000  0.50000000  1
  O  O11  1  0.50000000  0.50000000  0.50000000  1
  O  O12  1  0.00000000  0.26184295  0.00000000  1
  O  O13  1  0.00000000  0.73815705  -0.00000000  1
  O  O14  1  0.50000000  0.24290789  -0.00000000  1
  O  O15  1  0.50000000  0.75709211  0.00000000  1
loop_
_geom_bond_atom_site_label_1
_geom_bond_atom_site_label_2
_geom_bond_distance
_geom_bond_site_symmetry_2
Mg0 O12 2.027060 1_555
Mg0 O13 2.027060 1_555
Mg0 O3 2.067495 1_455
Mg0 O1 2.067495 1_555
Mg0 O9 2.136296 1_554
Mg0 O9 2.136296 1_555
Mg1 O0 2.027059 1_555
Mg1 O2 2.027059 1_555
Mg1 O14 2.067496 1_555
Mg1 O15 2.067496 1_545
Mg1 O10 2.136296 1_555
Mg1 O10 2.136296 1_554
Mg2 O9 2.075490 1_555
Mg2 O4 2.128134 1_555
Mg2 O6 2.128134 1_455
Mg2 O12 2.136845 1_556
Mg2 O12 2.136845 1_555
Mg2 O8 2.180231 1_555
Mg3 O9 2.075490 1_555
Mg3 O5 2.128134 1_555
Mg3 O7 2.128134 1_455
Mg3 O13 2.136845 1_555
Mg3 O13 2.136845 1_556
Mg3 O8 2.180231 1_565
Mg4 O10 2.125363 1_555
Mg4 O6 2.128242 1_555
Mg4 O4 2.128242 1_555
Mg4 O11 2.130357 1_555
Mg4 O14 2.137080 1_556
Mg4 O14 2.137080 1_555
Mg5 O10 2.125363 1_565
Mg5 O5 2.128242 1_555
Mg5 O7 2.128242 1_555
Mg5 O11 2.130357 1_555
Mg5 O15 2.137080 1_555
Mg5 O15 2.137080 1_556
Mg6 O10 2.075488 1_555
Mg6 O4 2.128133 1_555
Mg6 O5 2.128133 1_545
Mg6 O0 2.136845 1_556
Mg6 O0 2.136845 1_555
Mg6 O8 2.180233 1_555
Mg7 O9 2.125364 1_555
Mg7 O4 2.128242 1_555
Mg7 O5 2.128242 1_555
Mg7 O11 2.130357 1_555
Mg7 O1 2.137080 1_556
Mg7 O1 2.137080 1_555
Mg8 O10 2.075488 1_555
Mg8 O6 2.128133 1_555
Mg8 O7 2.128133 1_545
Mg8 O2 2.136845 1_556
Mg8 O2 2.136845 1_555
Mg8 O8 2.180233 1_655
Mg9 O9 2.125364 1_655
Mg9 O6 2.128242 1_555
Mg9 O7 2.128242 1_555
Mg9 O11 2.130357 1_555
Mg9 O3 2.137080 1_555
Mg9 O3 2.137080 1_556
Mg10 O1 2.105171 1_555
Mg10 O14 2.105171 1_555
Mg10 O4 2.136584 1_554
Mg10 O4 2.136584 1_555
Mg10 O12 2.153612 1_555
Mg10 O0 2.153613 1_555
Mg11 O1 2.105171 1_555
Mg11 O15 2.105171 1_555
Mg11 O5 2.136584 1_554
Mg11 O5 2.136584 1_555
Mg11 O13 2.153612 1_555
Mg11 O0 2.153613 1_565
Mg12 O3 2.105171 1_555
Mg12 O14 2.105171 1_555
Mg12 O6 2.136584 1_555
Mg12 O6 2.136584 1_554
Mg12 O12 2.153612 1_655
Mg12 O2 2.153613 1_555
Mg13 O3 2.105171 1_555
Mg13 O15 2.105171 1_555
Mg13 O7 2.136584 1_554
Mg13 O7 2.136584 1_555
Mg13 O13 2.153612 1_655
Mg13 O2 2.153613 1_565
Nb0 O8 2.136296 1_554
Nb0 O8 2.136296 1_555
Nb0 O13 2.228661 1_545
Nb0 O12 2.228661 1_555
Nb0 O0 2.228662 1_555
Nb0 O2 2.228662 1_455
Cr0 O11 2.136296 1_554
Cr0 O11 2.136296 1_555
Cr0 O14 2.188224 1_555
Cr0 O15 2.188224 1_555
Cr0 O1 2.188226 1_555
Cr0 O3 2.188226 1_555
