# generated using pymatgen
data_V3(O2F)2
_symmetry_space_group_name_H-M   'P 1'
_cell_length_a   4.67691020
_cell_length_b   7.70373949
_cell_length_c   5.62561788
_cell_angle_alpha   94.11617735
_cell_angle_beta   89.95849137
_cell_angle_gamma   90.06757989
_symmetry_Int_Tables_number   1
_chemical_formula_structural   V3(O2F)2
_chemical_formula_sum   'V6 O8 F4'
_cell_volume   202.16630406
_cell_formula_units_Z   2
loop_
 _symmetry_equiv_pos_site_id
 _symmetry_equiv_pos_as_xyz
  1  'x, y, z'
loop_
 _atom_site_type_symbol
 _atom_site_label
 _atom_site_symmetry_multiplicity
 _atom_site_fract_x
 _atom_site_fract_y
 _atom_site_fract_z
 _atom_site_occupancy
  V  V0  1  0.50092700  0.33354800  0.83234900  1
  V  V1  1  0.99991600  0.33234500  0.33203400  1
  V  V2  1  0.44736000  0.98925000  0.50568900  1
  V  V3  1  0.02898800  0.00061200  0.00829100  1
  V  V4  1  0.55193800  0.67730100  0.16264300  1
  V  V5  1  0.97042400  0.66624400  0.66038100  1
  O  O0  1  0.81153900  0.43563700  0.63149300  1
  O  O1  1  0.68943000  0.44430600  0.13364100  1
  O  O2  1  0.31065400  0.22262600  0.53089800  1
  O  O3  1  0.19022500  0.23152700  0.03234800  1
  O  O4  1  0.79222200  0.77344900  0.96603600  1
  O  O5  1  0.69651900  0.77222000  0.45593700  1
  O  O6  1  0.30244900  0.89466300  0.21233800  1
  O  O7  1  0.20768700  0.89356800  0.70217000  1
  F  F0  1  0.79078700  0.09411400  0.30732800  1
  F  F1  1  0.70106000  0.09162900  0.79510600  1
  F  F2  1  0.29966200  0.57517600  0.87171100  1
  F  F3  1  0.20821200  0.57178400  0.35960800  1
loop_
_geom_bond_atom_site_label_1
_geom_bond_atom_site_label_2
_geom_bond_distance
_geom_bond_site_symmetry_2
O0 V5 1.921013 1_555
O0 V1 2.013572 1_555
O0 V0 2.031783 1_555
O1 V4 1.903268 1_555
O1 V0 2.042282 1_554
O1 V1 2.059543 1_555
O2 V2 1.904521 1_545
O2 V0 2.047036 1_555
O2 V1 2.054038 1_455
O3 V3 1.927150 1_555
O3 V1 2.012270 1_455
O3 V0 2.029052 1_554
O4 V4 1.774455 1_556
O4 V5 2.032005 1_555
O4 V3 2.069130 1_666
O5 V4 1.881901 1_555
O5 V5 1.941584 1_555
O5 V2 2.041711 1_555
O6 V2 1.881898 1_555
O6 V3 1.938724 1_565
O6 V4 2.044639 1_555
O7 V2 1.770531 1_555
O7 V3 2.034672 1_566
O7 V5 2.071269 1_455
F0 V1 2.074491 1_555
F0 V3 2.101236 1_655
F0 V2 2.145091 1_545
F1 V0 2.083527 1_555
F1 V3 2.099543 1_656
F1 V2 2.120619 1_545
F2 V0 2.084392 1_555
F2 V5 2.097989 1_455
F2 V4 2.122621 1_556
F3 V1 2.080975 1_455
F3 V5 2.109914 1_455
F3 V4 2.143940 1_555
