# generated using pymatgen
data_LaCd2Cu
_symmetry_space_group_name_H-M   'P 1'
_cell_length_a   5.05825866
_cell_length_b   5.05825866
_cell_length_c   5.05825866
_cell_angle_alpha   60.00000000
_cell_angle_beta   60.00000000
_cell_angle_gamma   60.00000000
_symmetry_Int_Tables_number   1
_chemical_formula_structural   LaCd2Cu
_chemical_formula_sum   'La1 Cd2 Cu1'
_cell_volume   91.51411909
_cell_formula_units_Z   1
loop_
 _symmetry_equiv_pos_site_id
 _symmetry_equiv_pos_as_xyz
  1  'x, y, z'
loop_
 _atom_site_type_symbol
 _atom_site_label
 _atom_site_symmetry_multiplicity
 _atom_site_fract_x
 _atom_site_fract_y
 _atom_site_fract_z
 _atom_site_occupancy
  La  La0  1  0.00000000  0.00000000  0.00000000  1
  Cd  Cd0  1  0.25000000  0.25000000  0.25000000  1
  Cd  Cd1  1  0.50000000  0.50000000  0.50000000  1
  Cu  Cu0  1  0.75000000  0.75000000  0.75000000  1
loop_
_geom_bond_atom_site_label_1
_geom_bond_atom_site_label_2
_geom_bond_distance
_geom_bond_site_symmetry_2
Cd0 La0 3.097538 1_565
Cd0 La0 3.097538 1_655
Cd0 Cd1 3.097538 1_545
Cd0 Cd1 3.097538 1_455
Cd0 La0 3.097538 1_555
Cd0 La0 3.097538 1_556
Cd0 Cd1 3.097538 1_555
Cd0 Cd1 3.097538 1_554
Cd1 Cu0 3.097538 1_455
Cd1 Cu0 3.097538 1_545
Cd1 Cu0 3.097538 1_554
Cd1 Cu0 3.097538 1_555
Cu0 La0 3.097538 1_566
Cu0 La0 3.097538 1_656
Cu0 La0 3.097538 1_666
Cu0 La0 3.097538 1_665
