# generated using pymatgen
data_CoH7C3NO6
_symmetry_space_group_name_H-M   'P 1'
_cell_length_a   7.36955762
_cell_length_b   7.45957347
_cell_length_c   8.20487873
_cell_angle_alpha   91.23403105
_cell_angle_beta   90.00000146
_cell_angle_gamma   119.60161841
_symmetry_Int_Tables_number   1
_chemical_formula_structural   CoH7C3NO6
_chemical_formula_sum   'Co2 H14 C6 N2 O12'
_cell_volume   392.06168560
_cell_formula_units_Z   2
loop_
 _symmetry_equiv_pos_site_id
 _symmetry_equiv_pos_as_xyz
  1  'x, y, z'
loop_
 _atom_site_type_symbol
 _atom_site_label
 _atom_site_symmetry_multiplicity
 _atom_site_fract_x
 _atom_site_fract_y
 _atom_site_fract_z
 _atom_site_occupancy
  Co  Co0  1  0.33429900  0.66696000  0.25034900  1
  Co  Co1  1  0.66734000  0.33304000  0.74965100  1
  H  H0  1  0.99869000  0.40920900  0.49863000  1
  H  H1  1  0.41001500  0.00000000  0.50000000  1
  H  H2  1  0.58948100  0.59079100  0.50137000  1
  H  H3  1  0.99813200  0.59002800  0.99897100  1
  H  H4  1  0.58828000  0.00000000  0.00000000  1
  H  H5  1  0.40810400  0.40997200  0.00102900  1
  H  H6  1  0.89440900  0.92020700  0.34491700  1
  H  H7  1  0.08400800  0.15129600  0.28142100  1
  H  H8  1  0.97420200  0.07979300  0.65508300  1
  H  H9  1  0.93271200  0.84870400  0.71857900  1
  H  H10  1  0.91866300  0.02758500  0.84541800  1
  H  H11  1  0.15300400  0.06740100  0.78103800  1
  H  H12  1  0.89107800  0.97241500  0.15458200  1
  H  H13  1  0.08560300  0.93259900  0.21896200  1
  C  C0  1  0.00147600  0.55880900  0.50153200  1
  C  C1  1  0.55982300  0.00000000  0.50000000  1
  C  C2  1  0.44266800  0.44119100  0.49846800  1
  C  C3  1  0.00026200  0.44278500  0.99926900  1
  C  C4  1  0.43815800  0.00000000  0.00000000  1
  C  C5  1  0.55747700  0.55721500  0.00073100  1
  N  N0  1  0.99152500  0.99576100  0.25000000  1
  N  N1  1  0.99576400  0.00423900  0.75000000  1
  O  O0  1  0.11278600  0.69137900  0.39831300  1
  O  O1  1  0.58490500  0.88630900  0.39545600  1
  O  O2  1  0.30574900  0.41410400  0.39126700  1
  O  O3  1  0.42140700  0.30862100  0.60168700  1
  O  O4  1  0.69859600  0.11369100  0.60454400  1
  O  O5  1  0.89164500  0.58589600  0.60873300  1
  O  O6  1  0.88722500  0.30397300  0.89502400  1
  O  O7  1  0.41206100  0.10723200  0.89376200  1
  O  O8  1  0.69266400  0.57805800  0.89617300  1
  O  O9  1  0.58325200  0.69602700  0.10497600  1
  O  O10  1  0.30482900  0.89276800  0.10623800  1
  O  O11  1  0.11460600  0.42194200  0.10382700  1
loop_
_geom_bond_atom_site_label_1
_geom_bond_atom_site_label_2
_geom_bond_distance
_geom_bond_site_symmetry_2
Co0 O11 2.095008 1_555
Co0 O1 2.106258 1_555
Co0 O9 2.110419 1_555
Co0 O0 2.110969 1_555
Co0 O2 2.154231 1_555
Co0 O10 2.174805 1_555
Co1 O8 2.095011 1_555
Co1 O4 2.106254 1_555
Co1 O6 2.110413 1_555
Co1 O3 2.110975 1_555
Co1 O5 2.154228 1_555
Co1 O7 2.174809 1_555
H6 N0 1.027998 1_555
H7 N0 1.040675 1_445
H8 N1 1.027998 1_555
H9 N1 1.040675 1_565
H10 N1 1.028585 1_555
H11 N1 1.041673 1_455
H12 N0 1.028585 1_555
H13 N0 1.041673 1_455
C0 H0 1.105693 1_455
C0 O0 1.265995 1_555
C0 O5 1.274178 1_455
C1 H1 1.104019 1_555
C1 O4 1.269931 1_555
C1 O1 1.269932 1_545
C2 H2 1.105690 1_555
C2 O3 1.265993 1_555
C2 O2 1.274183 1_555
C3 H3 1.106263 1_455
C3 O11 1.267047 1_556
C3 O6 1.267833 1_455
C4 H4 1.106333 1_555
C4 O7 1.272266 1_554
C4 O10 1.272266 1_545
C5 H5 1.106263 1_555
C5 O8 1.267047 1_554
C5 O9 1.267833 1_555
