# generated using pymatgen
data_GaFe4
_symmetry_space_group_name_H-M   'P 1'
_cell_length_a   20.31960962
_cell_length_b   20.11338454
_cell_length_c   5.08524082
_cell_angle_alpha   85.08643571
_cell_angle_beta   80.47492547
_cell_angle_gamma   14.43863882
_symmetry_Int_Tables_number   1
_chemical_formula_structural   GaFe4
_chemical_formula_sum   'Ga8 Fe32'
_cell_volume   486.98473888
_cell_formula_units_Z   8
loop_
 _symmetry_equiv_pos_site_id
 _symmetry_equiv_pos_as_xyz
  1  'x, y, z'
loop_
 _atom_site_type_symbol
 _atom_site_label
 _atom_site_symmetry_multiplicity
 _atom_site_fract_x
 _atom_site_fract_y
 _atom_site_fract_z
 _atom_site_occupancy
  Ga  Ga0_0  1  0.00000000  0.00000000  0.00000000  1
  Ga  Ga0_1  1  0.00000000  0.00000000  0.50000000  1
  Ga  Ga0_2  1  0.00000000  0.50000000  0.00000000  1
  Ga  Ga0_3  1  0.00000000  0.50000000  0.50000000  1
  Ga  Ga0_4  1  0.50000000  0.00000000  0.00000000  1
  Ga  Ga0_5  1  0.50000000  0.00000000  0.50000000  1
  Ga  Ga0_6  1  0.50000000  0.50000000  0.00000000  1
  Ga  Ga0_7  1  0.50000000  0.50000000  0.50000000  1
  Fe  Fe0_0  1  0.19918550  0.19918550  0.30081450  1
  Fe  Fe0_1  1  0.19918550  0.19918550  0.80081450  1
  Fe  Fe0_2  1  0.19918550  0.69918550  0.30081450  1
  Fe  Fe0_3  1  0.19918550  0.69918550  0.80081450  1
  Fe  Fe0_4  1  0.69918550  0.19918550  0.30081450  1
  Fe  Fe0_5  1  0.69918550  0.19918550  0.80081450  1
  Fe  Fe0_6  1  0.69918550  0.69918550  0.30081450  1
  Fe  Fe0_7  1  0.69918550  0.69918550  0.80081450  1
  Fe  Fe1_0  1  0.39994750  0.39994750  0.10005250  1
  Fe  Fe1_1  1  0.39994750  0.39994750  0.60005250  1
  Fe  Fe1_2  1  0.39994750  0.89994750  0.10005250  1
  Fe  Fe1_3  1  0.39994750  0.89994750  0.60005250  1
  Fe  Fe1_4  1  0.89994750  0.39994750  0.10005250  1
  Fe  Fe1_5  1  0.89994750  0.39994750  0.60005250  1
  Fe  Fe1_6  1  0.89994750  0.89994750  0.10005250  1
  Fe  Fe1_7  1  0.89994750  0.89994750  0.60005250  1
  Fe  Fe2_0  1  0.10005250  0.10005250  0.39994750  1
  Fe  Fe2_1  1  0.10005250  0.10005250  0.89994750  1
  Fe  Fe2_2  1  0.10005250  0.60005250  0.39994750  1
  Fe  Fe2_3  1  0.10005250  0.60005250  0.89994750  1
  Fe  Fe2_4  1  0.60005250  0.10005250  0.39994750  1
  Fe  Fe2_5  1  0.60005250  0.10005250  0.89994750  1
  Fe  Fe2_6  1  0.60005250  0.60005250  0.39994750  1
  Fe  Fe2_7  1  0.60005250  0.60005250  0.89994750  1
  Fe  Fe3_0  1  0.30081450  0.30081450  0.19918550  1
  Fe  Fe3_1  1  0.30081450  0.30081450  0.69918550  1
  Fe  Fe3_2  1  0.30081450  0.80081450  0.19918550  1
  Fe  Fe3_3  1  0.30081450  0.80081450  0.69918550  1
  Fe  Fe3_4  1  0.80081450  0.30081450  0.19918550  1
  Fe  Fe3_5  1  0.80081450  0.30081450  0.69918550  1
  Fe  Fe3_6  1  0.80081450  0.80081450  0.19918550  1
  Fe  Fe3_7  1  0.80081450  0.80081450  0.69918550  1
loop_
_geom_bond_atom_site_label_1
_geom_bond_atom_site_label_2
_geom_bond_distance
_geom_bond_site_symmetry_2
Ga0_0 Ga0_6 2.542620 1_455
Ga0_0 Ga0_1 2.542620 1_555
Ga0_0 Ga0_6 2.542620 1_545
Ga0_0 Ga0_1 2.542620 1_554
Ga0_1 Ga0_7 2.542620 1_545
Ga0_1 Ga0_7 2.542620 1_455
Ga0_2 Ga0_3 2.542620 1_555
Ga0_2 Ga0_4 2.542620 1_555
Ga0_2 Ga0_3 2.542620 1_554
Ga0_2 Ga0_4 2.542620 1_465
Ga0_3 Ga0_5 2.542620 1_555
Ga0_3 Ga0_5 2.542620 1_465
Ga0_4 Ga0_5 2.542620 1_554
Ga0_4 Ga0_5 2.542620 1_555
Ga0_6 Ga0_7 2.542620 1_555
Ga0_6 Ga0_7 2.542620 1_554
Fe0_0 Fe1_5 2.455266 1_455
Fe0_0 Fe1_2 2.455266 1_545
Fe0_0 Ga0_3 2.505603 1_555
Fe0_0 Ga0_4 2.505603 1_555
Fe0_0 Fe0_1 2.542620 1_554
Fe0_0 Fe0_1 2.542620 1_555
Fe0_0 Fe0_6 2.542620 1_545
Fe0_0 Fe0_6 2.542620 1_455
Fe0_1 Fe1_4 2.455266 1_456
Fe0_1 Fe1_3 2.455266 1_545
Fe0_1 Ga0_2 2.505603 1_556
Fe0_1 Ga0_5 2.505603 1_555
Fe0_1 Fe0_7 2.542620 1_455
Fe0_1 Fe0_7 2.542620 1_545
Fe0_2 Fe1_7 2.455266 1_455
Fe0_2 Fe1_0 2.455266 1_555
Fe0_2 Ga0_1 2.505603 1_565
Fe0_2 Ga0_6 2.505603 1_555
Fe0_2 Fe0_3 2.542620 1_555
Fe0_2 Fe0_4 2.542620 1_465
Fe0_2 Fe0_4 2.542620 1_555
Fe0_2 Fe0_3 2.542620 1_554
Fe0_3 Fe1_6 2.455266 1_456
Fe0_3 Fe1_1 2.455266 1_555
Fe0_3 Ga0_7 2.505603 1_555
Fe0_3 Ga0_0 2.505603 1_566
Fe0_3 Fe0_5 2.542620 1_555
Fe0_3 Fe0_5 2.542620 1_465
Fe0_4 Fe1_1 2.455266 1_555
Fe0_4 Fe1_6 2.455266 1_545
Fe0_4 Ga0_7 2.505603 1_555
Fe0_4 Ga0_0 2.505603 1_655
Fe0_4 Fe0_5 2.542620 1_555
Fe0_4 Fe0_5 2.542620 1_554
Fe0_5 Fe1_0 2.455266 1_556
Fe0_5 Fe1_7 2.455266 1_545
Fe0_5 Ga0_6 2.505603 1_556
Fe0_5 Ga0_1 2.505603 1_655
Fe0_6 Fe1_3 2.455266 1_555
Fe0_6 Fe1_4 2.455266 1_555
Fe0_6 Ga0_2 2.505603 1_655
Fe0_6 Ga0_5 2.505603 1_565
Fe0_6 Fe0_7 2.542620 1_555
Fe0_6 Fe0_7 2.542620 1_554
Fe0_7 Fe1_2 2.455266 1_556
Fe0_7 Fe1_5 2.455266 1_555
Fe0_7 Ga0_3 2.505603 1_655
Fe0_7 Ga0_4 2.505603 1_566
Fe1_0 Fe2_2 2.476175 1_555
Fe1_0 Fe2_5 2.476175 1_554
Fe1_0 Fe1_1 2.542620 1_554
Fe1_0 Fe1_6 2.542620 1_545
Fe1_0 Fe1_6 2.542620 1_455
Fe1_0 Fe1_1 2.542620 1_555
Fe1_1 Fe2_4 2.476175 1_555
Fe1_1 Fe2_3 2.476175 1_555
Fe1_1 Fe1_7 2.542620 1_455
Fe1_1 Fe1_7 2.542620 1_545
Fe1_2 Fe2_0 2.476175 1_565
Fe1_2 Fe2_7 2.476175 1_554
Fe1_2 Fe1_3 2.542620 1_554
Fe1_2 Fe1_4 2.542620 1_465
Fe1_2 Fe1_3 2.542620 1_555
Fe1_2 Fe1_4 2.542620 1_555
Fe1_3 Fe2_6 2.476175 1_555
Fe1_3 Fe2_1 2.476175 1_565
Fe1_3 Fe1_5 2.542620 1_555
Fe1_3 Fe1_5 2.542620 1_465
Fe1_4 Fe2_6 2.476175 1_555
Fe1_4 Fe2_1 2.476175 1_654
Fe1_4 Fe1_5 2.542620 1_555
Fe1_4 Fe1_5 2.542620 1_554
Fe1_5 Fe2_0 2.476175 1_655
Fe1_5 Fe2_7 2.476175 1_555
Fe1_6 Fe2_4 2.476175 1_565
Fe1_6 Fe2_3 2.476175 1_654
Fe1_6 Fe1_7 2.542620 1_555
Fe1_6 Fe1_7 2.542620 1_554
Fe1_7 Fe2_2 2.476175 1_655
Fe1_7 Fe2_5 2.476175 1_565
Fe2_0 Fe3_2 2.455266 1_545
Fe2_0 Fe3_5 2.455266 1_455
Fe2_0 Fe2_6 2.542620 1_455
Fe2_0 Fe2_1 2.542620 1_555
Fe2_0 Fe2_1 2.542620 1_554
Fe2_0 Fe2_6 2.542620 1_545
Fe2_1 Fe3_3 2.455266 1_545
Fe2_1 Fe3_4 2.455266 1_456
Fe2_1 Fe2_7 2.542620 1_455
Fe2_1 Fe2_7 2.542620 1_545
Fe2_2 Fe3_0 2.455266 1_555
Fe2_2 Fe3_7 2.455266 1_455
Fe2_2 Fe2_4 2.542620 1_465
Fe2_2 Fe2_3 2.542620 1_554
Fe2_2 Fe2_3 2.542620 1_555
Fe2_2 Fe2_4 2.542620 1_555
Fe2_3 Fe3_1 2.455266 1_555
Fe2_3 Fe3_6 2.455266 1_456
Fe2_3 Fe2_5 2.542620 1_555
Fe2_3 Fe2_5 2.542620 1_465
Fe2_4 Fe3_6 2.455266 1_545
Fe2_4 Fe3_1 2.455266 1_555
Fe2_4 Fe2_5 2.542620 1_555
Fe2_4 Fe2_5 2.542620 1_554
Fe2_5 Fe3_7 2.455266 1_545
Fe2_5 Fe3_0 2.455266 1_556
Fe2_6 Fe3_4 2.455266 1_555
Fe2_6 Fe3_3 2.455266 1_555
Fe2_6 Fe2_7 2.542620 1_555
Fe2_6 Fe2_7 2.542620 1_554
Fe2_7 Fe3_5 2.455266 1_555
Fe2_7 Fe3_2 2.455266 1_556
Fe3_0 Ga0_4 2.505603 1_555
Fe3_0 Ga0_3 2.505603 1_555
Fe3_0 Fe3_6 2.542620 1_455
Fe3_0 Fe3_6 2.542620 1_545
Fe3_0 Fe3_1 2.542620 1_555
Fe3_0 Fe3_1 2.542620 1_554
Fe3_1 Ga0_2 2.505603 1_556
Fe3_1 Ga0_5 2.505603 1_555
Fe3_1 Fe3_7 2.542620 1_455
Fe3_1 Fe3_7 2.542620 1_545
Fe3_2 Ga0_1 2.505603 1_565
Fe3_2 Ga0_6 2.505603 1_555
Fe3_2 Fe3_3 2.542620 1_555
Fe3_2 Fe3_4 2.542620 1_555
Fe3_2 Fe3_4 2.542620 1_465
Fe3_2 Fe3_3 2.542620 1_554
Fe3_3 Ga0_7 2.505603 1_555
Fe3_3 Ga0_0 2.505603 1_566
Fe3_3 Fe3_5 2.542620 1_555
Fe3_3 Fe3_5 2.542620 1_465
Fe3_4 Ga0_7 2.505603 1_555
Fe3_4 Ga0_0 2.505603 1_655
Fe3_4 Fe3_5 2.542620 1_554
Fe3_4 Fe3_5 2.542620 1_555
Fe3_5 Ga0_1 2.505603 1_655
Fe3_5 Ga0_6 2.505603 1_556
Fe3_6 Ga0_2 2.505603 1_655
Fe3_6 Ga0_5 2.505603 1_565
Fe3_6 Fe3_7 2.542620 1_555
Fe3_6 Fe3_7 2.542620 1_554
Fe3_7 Ga0_3 2.505603 1_655
Fe3_7 Ga0_4 2.505603 1_566
