# generated using pymatgen
data_SrNdFeO4
_symmetry_space_group_name_H-M   'P 1'
_cell_length_a   6.86282306
_cell_length_b   6.86282306
_cell_length_c   6.86282306
_cell_angle_alpha   146.95573063
_cell_angle_beta   146.95573063
_cell_angle_gamma   47.42933471
_symmetry_Int_Tables_number   1
_chemical_formula_structural   SrNdFeO4
_chemical_formula_sum   'Sr1 Nd1 Fe1 O4'
_cell_volume   95.73498527
_cell_formula_units_Z   1
loop_
 _symmetry_equiv_pos_site_id
 _symmetry_equiv_pos_as_xyz
  1  'x, y, z'
loop_
 _atom_site_type_symbol
 _atom_site_label
 _atom_site_symmetry_multiplicity
 _atom_site_fract_x
 _atom_site_fract_y
 _atom_site_fract_z
 _atom_site_occupancy
  Sr  Sr0  1  0.64512700  0.64512700  0.00000000  1
  Nd  Nd0  1  0.36120300  0.36120300  0.00000000  1
  Fe  Fe0  1  0.00483600  0.00483600  0.00000000  1
  O  O0  1  0.83349000  0.83349000  0.00000000  1
  O  O1  1  0.17284700  0.17284700  0.00000000  1
  O  O2  1  0.99124800  0.49124800  0.50000000  1
  O  O3  1  0.49124800  0.99124800  0.50000000  1
loop_
_geom_bond_atom_site_label_1
_geom_bond_atom_site_label_2
_geom_bond_distance
_geom_bond_site_symmetry_2
Nd0 O1 2.367004 1_555
Nd0 O3 2.545544 1_555
Nd0 O2 2.545544 1_555
Nd0 O2 2.545544 1_454
Nd0 O3 2.545544 1_544
Nd0 O0 2.781989 1_444
Nd0 O0 2.781989 1_545
Nd0 O0 2.781989 1_455
Nd0 O0 2.781989 1_556
Fe0 O2 1.959145 1_455
Fe0 O3 1.959145 1_545
Fe0 O2 1.959145 1_444
Fe0 O3 1.959145 1_444
Fe0 O1 2.111335 1_555
Fe0 O0 2.153245 1_445
O0 Sr0 2.367092 1_555
O1 Sr0 2.782000 1_455
O1 Sr0 2.782000 1_556
O1 Sr0 2.782000 1_444
O1 Sr0 2.782000 1_545
O2 Sr0 2.747445 1_656
O2 Sr0 2.747445 1_555
O3 Sr0 2.747445 1_566
O3 Sr0 2.747445 1_555
