# generated using pymatgen
data_Mg6VCd
_symmetry_space_group_name_H-M   'P 1'
_cell_length_a   5.00501100
_cell_length_b   6.23740900
_cell_length_c   10.87083800
_cell_angle_alpha   90.00000000
_cell_angle_beta   90.00000000
_cell_angle_gamma   90.00000000
_symmetry_Int_Tables_number   1
_chemical_formula_structural   Mg6VCd
_chemical_formula_sum   'Mg12 V2 Cd2'
_cell_volume   339.36908907
_cell_formula_units_Z   2
loop_
 _symmetry_equiv_pos_site_id
 _symmetry_equiv_pos_as_xyz
  1  'x, y, z'
loop_
 _atom_site_type_symbol
 _atom_site_label
 _atom_site_symmetry_multiplicity
 _atom_site_fract_x
 _atom_site_fract_y
 _atom_site_fract_z
 _atom_site_occupancy
  Mg  Mg0  1  0.50000000  0.24733500  0.41685000  1
  Mg  Mg1  1  0.50000000  0.75266500  0.41685000  1
  Mg  Mg2  1  0.00000000  0.75818400  0.08620400  1
  Mg  Mg3  1  0.00000000  0.24181600  0.08620400  1
  Mg  Mg4  1  0.00000000  0.00000000  0.32778200  1
  Mg  Mg5  1  0.00000000  0.50000000  0.33312000  1
  Mg  Mg6  1  0.50000000  0.74733500  0.91685000  1
  Mg  Mg7  1  0.50000000  0.25266500  0.91685000  1
  Mg  Mg8  1  0.00000000  0.25818400  0.58620400  1
  Mg  Mg9  1  0.00000000  0.74181600  0.58620400  1
  Mg  Mg10  1  0.00000000  0.50000000  0.82778200  1
  Mg  Mg11  1  0.00000000  0.00000000  0.83312000  1
  V  V0  1  0.50000000  0.00000000  0.16720200  1
  V  V1  1  0.50000000  0.50000000  0.66720200  1
  Cd  Cd0  1  0.50000000  0.50000000  0.16578300  1
  Cd  Cd1  1  0.50000000  0.00000000  0.66578300  1
loop_
_geom_bond_atom_site_label_1
_geom_bond_atom_site_label_2
_geom_bond_distance
_geom_bond_site_symmetry_2
Mg0 Mg1 3.085459 1_545
Mg0 Mg5 3.094305 1_555
Mg0 Mg5 3.094305 1_655
Mg0 Mg4 3.095165 1_655
Mg0 Mg4 3.095165 1_555
Mg0 Mg8 3.107486 1_655
Mg0 Mg8 3.107486 1_555
Mg0 V0 3.121726 1_555
Mg0 V1 3.144909 1_555
Mg0 Mg1 3.151950 1_555
Mg1 Mg5 3.094305 1_555
Mg1 Mg5 3.094305 1_655
Mg1 Mg4 3.095165 1_565
Mg1 Mg4 3.095165 1_665
Mg1 Mg9 3.107486 1_655
Mg1 Mg9 3.107486 1_555
Mg1 V0 3.121726 1_565
Mg1 V1 3.144909 1_555
Mg2 Mg3 3.016611 1_565
Mg2 Mg4 3.028478 1_565
Mg2 V0 3.051693 1_565
Mg2 V0 3.051693 1_465
Mg2 Mg6 3.107486 1_454
Mg2 Mg6 3.107486 1_554
Mg2 Mg5 3.130212 1_555
Mg2 Mg3 3.220798 1_555
Mg3 Mg4 3.028478 1_555
Mg3 V0 3.051693 1_555
Mg3 V0 3.051693 1_455
Mg3 Mg7 3.107486 1_454
Mg3 Mg7 3.107486 1_554
Mg3 Mg5 3.130212 1_555
Mg4 V0 3.051195 1_555
Mg4 V0 3.051195 1_455
Mg4 Mg5 3.119244 1_545
Mg4 Mg5 3.119244 1_555
Mg4 Mg8 3.238109 1_555
Mg4 Mg9 3.238109 1_545
Mg5 Mg8 3.137560 1_555
Mg5 Mg9 3.137560 1_555
Mg6 Mg7 3.085459 1_555
Mg6 V1 3.121726 1_555
Mg6 V0 3.144909 1_566
Mg6 Mg7 3.151950 1_565
Mg7 V1 3.121726 1_555
Mg7 V0 3.144909 1_556
Mg8 Mg9 3.016611 1_555
Mg8 V1 3.051693 1_555
Mg8 V1 3.051693 1_455
Mg8 Mg9 3.220798 1_545
Mg9 V1 3.051693 1_555
Mg9 V1 3.051693 1_455
Mg10 Mg9 3.028478 1_555
Mg10 Mg8 3.028478 1_555
Mg10 V1 3.051195 1_455
Mg10 V1 3.051195 1_555
Mg10 Mg6 3.095165 1_455
Mg10 Mg6 3.095165 1_555
Mg10 Mg7 3.095165 1_455
Mg10 Mg7 3.095165 1_555
Mg10 Mg11 3.119244 1_565
Mg10 Mg11 3.119244 1_555
Mg10 Mg3 3.238109 1_556
Mg10 Mg2 3.238109 1_556
Mg11 Mg6 3.094305 1_445
Mg11 Mg7 3.094305 1_455
Mg11 Mg6 3.094305 1_545
Mg11 Mg7 3.094305 1_555
Mg11 Mg9 3.130212 1_545
Mg11 Mg8 3.130212 1_555
Mg11 Mg3 3.137560 1_556
Mg11 Mg2 3.137560 1_546
Cd0 Mg5 3.093806 1_555
Cd0 Mg5 3.093806 1_655
Cd0 Mg2 3.099081 1_555
Cd0 Mg2 3.099081 1_655
Cd0 Mg3 3.099081 1_555
Cd0 Mg3 3.099081 1_655
Cd0 Mg6 3.114972 1_554
Cd0 Mg7 3.114972 1_554
Cd0 V0 3.118743 1_555
Cd0 V0 3.118743 1_565
Cd0 Mg1 3.151638 1_555
Cd0 Mg0 3.151638 1_555
Cd1 Mg11 3.093806 1_655
Cd1 Mg11 3.093806 1_555
Cd1 Mg9 3.099081 1_545
Cd1 Mg8 3.099081 1_555
Cd1 Mg9 3.099081 1_645
Cd1 Mg8 3.099081 1_655
Cd1 Mg1 3.114972 1_545
Cd1 Mg0 3.114972 1_555
Cd1 V1 3.118743 1_555
Cd1 V1 3.118743 1_545
Cd1 Mg6 3.151638 1_545
Cd1 Mg7 3.151638 1_555
