# generated using pymatgen
data_ThC2
_symmetry_space_group_name_H-M   'P 1'
_cell_length_a   5.80476100
_cell_length_b   5.80476100
_cell_length_c   5.80476100
_cell_angle_alpha   90.00000000
_cell_angle_beta   90.00000000
_cell_angle_gamma   90.00000000
_symmetry_Int_Tables_number   1
_chemical_formula_structural   ThC2
_chemical_formula_sum   'Th4 C8'
_cell_volume   195.59287464
_cell_formula_units_Z   4
loop_
 _symmetry_equiv_pos_site_id
 _symmetry_equiv_pos_as_xyz
  1  'x, y, z'
loop_
 _atom_site_type_symbol
 _atom_site_label
 _atom_site_symmetry_multiplicity
 _atom_site_fract_x
 _atom_site_fract_y
 _atom_site_fract_z
 _atom_site_occupancy
  Th  Th0  1  0.00000000  0.50000000  0.50000000  1
  Th  Th1  1  0.50000000  0.50000000  0.00000000  1
  Th  Th2  1  0.50000000  0.00000000  0.50000000  1
  Th  Th3  1  0.00000000  0.00000000  0.00000000  1
  C  C0  1  0.43290900  0.06709100  0.93290900  1
  C  C1  1  0.06709100  0.93290900  0.43290900  1
  C  C2  1  0.93290900  0.43290900  0.06709100  1
  C  C3  1  0.56709100  0.56709100  0.56709100  1
  C  C4  1  0.43290900  0.43290900  0.43290900  1
  C  C5  1  0.06709100  0.56709100  0.93290900  1
  C  C6  1  0.93290900  0.06709100  0.56709100  1
  C  C7  1  0.56709100  0.93290900  0.06709100  1
loop_
_geom_bond_atom_site_label_1
_geom_bond_atom_site_label_2
_geom_bond_distance
_geom_bond_site_symmetry_2
C0 C7 1.349085 1_546
C0 Th3 2.572581 1_556
C0 Th1 2.572581 1_556
C0 Th2 2.572581 1_555
C1 C6 1.349085 1_465
C1 Th2 2.572581 1_565
C1 Th3 2.572581 1_565
C1 Th0 2.572581 1_555
C2 C5 1.349085 1_654
C2 Th1 2.572581 1_555
C2 Th0 2.572581 1_655
C2 Th3 2.572581 1_655
C3 C4 1.349085 1_555
C3 Th2 2.572581 1_565
C3 Th0 2.572581 1_655
C3 Th1 2.572581 1_556
C4 Th1 2.572581 1_555
C4 Th2 2.572581 1_555
C4 Th0 2.572581 1_555
C5 Th3 2.572581 1_566
C5 Th1 2.572581 1_556
C5 Th0 2.572581 1_555
C6 Th3 2.572581 1_656
C6 Th0 2.572581 1_655
C6 Th2 2.572581 1_555
C7 Th1 2.572581 1_555
C7 Th2 2.572581 1_565
C7 Th3 2.572581 1_665
