# generated using pymatgen
data_K6OsN4
_symmetry_space_group_name_H-M   'P 1'
_cell_length_a   8.78007300
_cell_length_b   8.78007300
_cell_length_c   7.69801800
_cell_angle_alpha   90.00000000
_cell_angle_beta   90.00000000
_cell_angle_gamma   90.00000000
_symmetry_Int_Tables_number   1
_chemical_formula_structural   K6OsN4
_chemical_formula_sum   'K12 Os2 N8'
_cell_volume   593.43775877
_cell_formula_units_Z   2
loop_
 _symmetry_equiv_pos_site_id
 _symmetry_equiv_pos_as_xyz
  1  'x, y, z'
loop_
 _atom_site_type_symbol
 _atom_site_label
 _atom_site_symmetry_multiplicity
 _atom_site_fract_x
 _atom_site_fract_y
 _atom_site_fract_z
 _atom_site_occupancy
  K  K0  1  0.00000000  0.50000000  0.77008500  1
  K  K1  1  0.50000000  0.00000000  0.72991500  1
  K  K2  1  0.50000000  0.00000000  0.22991500  1
  K  K3  1  0.00000000  0.50000000  0.27008500  1
  K  K4  1  0.22570100  0.22570100  0.50000000  1
  K  K5  1  0.77429900  0.77429900  0.50000000  1
  K  K6  1  0.72570100  0.72570100  0.00000000  1
  K  K7  1  0.27429900  0.27429900  0.00000000  1
  K  K8  1  0.77429900  0.22570100  0.50000000  1
  K  K9  1  0.22570100  0.77429900  0.50000000  1
  K  K10  1  0.27429900  0.72570100  0.00000000  1
  K  K11  1  0.72570100  0.27429900  0.00000000  1
  Os  Os0  1  0.50000000  0.50000000  0.50000000  1
  Os  Os1  1  0.00000000  0.00000000  0.00000000  1
  N  N0  1  0.32722600  0.50000000  0.36756200  1
  N  N1  1  0.67277400  0.50000000  0.36756200  1
  N  N2  1  0.82722600  0.00000000  0.13243800  1
  N  N3  1  0.17277400  0.00000000  0.13243800  1
  N  N4  1  0.50000000  0.32722600  0.63243800  1
  N  N5  1  0.50000000  0.67277400  0.63243800  1
  N  N6  1  0.00000000  0.82722600  0.86756200  1
  N  N7  1  0.00000000  0.17277400  0.86756200  1
loop_
_geom_bond_atom_site_label_1
_geom_bond_atom_site_label_2
_geom_bond_distance
_geom_bond_site_symmetry_2
K0 N6 2.969443 1_555
K0 N7 2.969443 1_555
K1 N4 2.969443 1_555
K1 N5 2.969443 1_545
K2 N2 2.969443 1_555
K2 N3 2.969443 1_555
K3 N0 2.969443 1_555
K3 N1 2.969443 1_455
K4 N4 2.763008 1_555
K4 N0 2.763008 1_555
K5 N1 2.763008 1_555
K5 N5 2.763008 1_555
K6 N2 2.763008 1_565
K6 N6 2.763008 1_654
K7 N3 2.763008 1_555
K7 N7 2.763008 1_554
K8 N4 2.763008 1_555
K8 N1 2.763008 1_555
K9 N0 2.763008 1_555
K9 N5 2.763008 1_555
K10 N6 2.763008 1_554
K10 N3 2.763008 1_565
K11 N2 2.763008 1_555
K11 N7 2.763008 1_654
N0 Os0 1.827729 1_555
N1 Os0 1.827729 1_555
N2 Os1 1.827729 1_655
N3 Os1 1.827729 1_555
N4 Os0 1.827729 1_555
N5 Os0 1.827729 1_555
N6 Os1 1.827729 1_566
N7 Os1 1.827729 1_556
