# generated using pymatgen
data_Cu2Bi3Sb3O14
_symmetry_space_group_name_H-M   'P 1'
_cell_length_a   7.30316054
_cell_length_b   7.30316054
_cell_length_c   7.30316076
_cell_angle_alpha   62.00104283
_cell_angle_beta   62.00104283
_cell_angle_gamma   62.00104810
_symmetry_Int_Tables_number   1
_chemical_formula_structural   Cu2Bi3Sb3O14
_chemical_formula_sum   'Cu2 Bi3 Sb3 O14'
_cell_volume   287.76192468
_cell_formula_units_Z   1
loop_
 _symmetry_equiv_pos_site_id
 _symmetry_equiv_pos_as_xyz
  1  'x, y, z'
loop_
 _atom_site_type_symbol
 _atom_site_label
 _atom_site_symmetry_multiplicity
 _atom_site_fract_x
 _atom_site_fract_y
 _atom_site_fract_z
 _atom_site_occupancy
  Cu  Cu0  1  0.50000000  0.50000000  0.50000000  1
  Cu  Cu1  1  0.00000000  0.00000000  0.00000000  1
  Bi  Bi0  1  0.00000000  0.50000000  0.50000000  1
  Bi  Bi1  1  0.50000000  0.50000000  0.00000000  1
  Bi  Bi2  1  0.50000000  0.00000000  0.50000000  1
  Sb  Sb0  1  0.50000000  0.00000000  0.00000000  1
  Sb  Sb1  1  0.00000000  0.00000000  0.50000000  1
  Sb  Sb2  1  0.00000000  0.50000000  0.00000000  1
  O  O0  1  0.92949400  0.32191800  0.32191800  1
  O  O1  1  0.33603600  0.91626400  0.91626400  1
  O  O2  1  0.32191800  0.32191800  0.92949400  1
  O  O3  1  0.91626400  0.91626400  0.33603600  1
  O  O4  1  0.91626400  0.33603600  0.91626400  1
  O  O5  1  0.32191800  0.92949400  0.32191800  1
  O  O6  1  0.07050600  0.67808200  0.67808200  1
  O  O7  1  0.66396400  0.08373600  0.08373600  1
  O  O8  1  0.67808200  0.67808200  0.07050600  1
  O  O9  1  0.08373600  0.08373600  0.66396400  1
  O  O10  1  0.08373600  0.66396400  0.08373600  1
  O  O11  1  0.67808200  0.07050600  0.67808200  1
  O  O12  1  0.39059100  0.39059100  0.39059100  1
  O  O13  1  0.60940900  0.60940900  0.60940900  1
loop_
_geom_bond_atom_site_label_1
_geom_bond_atom_site_label_2
_geom_bond_distance
_geom_bond_site_symmetry_2
Cu0 O13 1.927096 1_555
Cu0 O12 1.927096 1_555
Cu0 O2 2.673813 1_555
Cu0 O8 2.673813 1_555
Cu0 O5 2.673813 1_555
Cu0 O0 2.673813 1_555
Cu0 O6 2.673813 1_555
Cu0 O11 2.673813 1_555
Cu1 O3 2.074513 1_445
Cu1 O9 2.074513 1_554
Cu1 O4 2.074513 1_454
Cu1 O1 2.074513 1_544
Cu1 O7 2.074513 1_455
Cu1 O10 2.074513 1_545
Bi0 O12 2.394433 1_555
Bi0 O13 2.394433 1_455
Bi0 O6 2.548280 1_555
Bi0 O0 2.548280 1_455
Bi0 O4 2.563948 1_455
Bi0 O10 2.563948 1_555
Bi0 O3 2.563948 1_455
Bi0 O9 2.563948 1_555
Bi1 O12 2.394433 1_555
Bi1 O13 2.394433 1_554
Bi1 O8 2.548280 1_555
Bi1 O2 2.548280 1_554
Bi1 O4 2.563948 1_554
Bi1 O1 2.563948 1_554
Bi1 O10 2.563948 1_555
Bi1 O7 2.563948 1_555
Bi2 O12 2.394433 1_555
Bi2 O13 2.394433 1_545
Bi2 O11 2.548280 1_555
Bi2 O5 2.548280 1_545
Bi2 O1 2.563948 1_545
Bi2 O7 2.563948 1_555
Bi2 O3 2.563948 1_545
Bi2 O9 2.563948 1_555
O0 Sb2 2.026124 1_655
O0 Sb1 2.026124 1_655
O1 Sb0 1.976890 1_566
O2 Sb2 2.026124 1_556
O2 Sb0 2.026124 1_556
O3 Sb1 1.976890 1_665
O4 Sb2 1.976890 1_656
O5 Sb0 2.026124 1_565
O5 Sb1 2.026124 1_565
O6 Sb2 2.026124 1_556
O6 Sb1 2.026124 1_565
O7 Sb0 1.976890 1_555
O8 Sb2 2.026124 1_655
O8 Sb0 2.026124 1_565
O9 Sb1 1.976890 1_555
O10 Sb2 1.976890 1_555
O11 Sb0 2.026124 1_556
O11 Sb1 2.026124 1_655
