# generated using pymatgen
data_CdSnPd2
_symmetry_space_group_name_H-M   'P 1'
_cell_length_a   10.91693179
_cell_length_b   10.91693179
_cell_length_c   10.91693179
_cell_angle_alpha   123.52116797
_cell_angle_beta   118.86516377
_cell_angle_gamma   87.99452283
_symmetry_Int_Tables_number   1
_chemical_formula_structural   CdSnPd2
_chemical_formula_sum   'Cd1 Sn1 Pd2'
_cell_volume   900.85807863
_cell_formula_units_Z   1
loop_
 _symmetry_equiv_pos_site_id
 _symmetry_equiv_pos_as_xyz
  1  'x, y, z'
loop_
 _atom_site_type_symbol
 _atom_site_label
 _atom_site_symmetry_multiplicity
 _atom_site_fract_x
 _atom_site_fract_y
 _atom_site_fract_z
 _atom_site_occupancy
  Cd  Cd0  1  0.00000000  0.00000000  0.00000000  1
  Sn  Sn0  1  0.00000000  0.50000000  0.50000000  1
  Pd  Pd0  1  0.00000000  0.26219700  0.26219700  1
  Pd  Pd1  1  0.00000000  0.73780300  0.73780300  1
loop_
_geom_bond_atom_site_label_1
_geom_bond_atom_site_label_2
_geom_bond_distance
_geom_bond_site_symmetry_2
Cd0 Pd1 2.708716 1_544
Cd0 Pd0 2.708716 1_555
Pd0 Sn0 2.456706 1_555
Pd1 Sn0 2.456706 1_555
