# generated using pymatgen
data_UHg3
_symmetry_space_group_name_H-M   'P 1'
_cell_length_a   6.34966818
_cell_length_b   6.34966818
_cell_length_c   21.73399400
_cell_angle_alpha   90.00000000
_cell_angle_beta   90.00000000
_cell_angle_gamma   120.00000186
_symmetry_Int_Tables_number   1
_chemical_formula_structural   UHg3
_chemical_formula_sum   'U8 Hg24'
_cell_volume   758.87846244
_cell_formula_units_Z   8
loop_
 _symmetry_equiv_pos_site_id
 _symmetry_equiv_pos_as_xyz
  1  'x, y, z'
loop_
 _atom_site_type_symbol
 _atom_site_label
 _atom_site_symmetry_multiplicity
 _atom_site_fract_x
 _atom_site_fract_y
 _atom_site_fract_z
 _atom_site_occupancy
  U  U0_0  1  0.16666650  0.33333350  0.25000000  1
  U  U0_1  1  0.16666650  0.33333350  0.75000000  1
  U  U0_2  1  0.16666650  0.83333350  0.25000000  1
  U  U0_3  1  0.16666650  0.83333350  0.75000000  1
  U  U0_4  1  0.66666650  0.33333350  0.25000000  1
  U  U0_5  1  0.66666650  0.33333350  0.75000000  1
  U  U0_6  1  0.66666650  0.83333350  0.25000000  1
  U  U0_7  1  0.66666650  0.83333350  0.75000000  1
  Hg  Hg0_0  1  0.16666650  0.33333350  0.00000000  1
  Hg  Hg0_1  1  0.16666650  0.33333350  0.50000000  1
  Hg  Hg0_2  1  0.16666650  0.83333350  0.00000000  1
  Hg  Hg0_3  1  0.16666650  0.83333350  0.50000000  1
  Hg  Hg0_4  1  0.66666650  0.33333350  0.00000000  1
  Hg  Hg0_5  1  0.66666650  0.33333350  0.50000000  1
  Hg  Hg0_6  1  0.66666650  0.83333350  0.00000000  1
  Hg  Hg0_7  1  0.66666650  0.83333350  0.50000000  1
  Hg  Hg1_0  1  0.00000000  0.00000000  0.37615950  1
  Hg  Hg1_1  1  0.00000000  0.00000000  0.87615950  1
  Hg  Hg1_2  1  0.00000000  0.50000000  0.37615950  1
  Hg  Hg1_3  1  0.00000000  0.50000000  0.87615950  1
  Hg  Hg1_4  1  0.50000000  0.00000000  0.37615950  1
  Hg  Hg1_5  1  0.50000000  0.00000000  0.87615950  1
  Hg  Hg1_6  1  0.50000000  0.50000000  0.37615950  1
  Hg  Hg1_7  1  0.50000000  0.50000000  0.87615950  1
  Hg  Hg2_0  1  0.00000000  0.00000000  0.12384050  1
  Hg  Hg2_1  1  0.00000000  0.00000000  0.62384050  1
  Hg  Hg2_2  1  0.00000000  0.50000000  0.12384050  1
  Hg  Hg2_3  1  0.00000000  0.50000000  0.62384050  1
  Hg  Hg2_4  1  0.50000000  0.00000000  0.12384050  1
  Hg  Hg2_5  1  0.50000000  0.00000000  0.62384050  1
  Hg  Hg2_6  1  0.50000000  0.50000000  0.12384050  1
  Hg  Hg2_7  1  0.50000000  0.50000000  0.62384050  1
loop_
_geom_bond_atom_site_label_1
_geom_bond_atom_site_label_2
_geom_bond_distance
_geom_bond_site_symmetry_2
U0_0 U0_6 3.174834 1_445
U0_0 U0_6 3.174834 1_555
U0_0 U0_4 3.174834 1_455
U0_0 U0_2 3.174834 1_545
U0_0 U0_4 3.174834 1_555
U0_0 U0_2 3.174834 1_555
U0_1 U0_7 3.174834 1_445
U0_1 U0_7 3.174834 1_555
U0_1 U0_5 3.174834 1_455
U0_1 U0_3 3.174834 1_545
U0_1 U0_5 3.174834 1_555
U0_1 U0_3 3.174834 1_555
U0_2 U0_4 3.174834 1_565
U0_2 U0_4 3.174834 1_455
U0_2 U0_6 3.174834 1_455
U0_2 U0_6 3.174834 1_555
U0_3 U0_5 3.174834 1_565
U0_3 U0_5 3.174834 1_455
U0_3 U0_7 3.174834 1_455
U0_3 U0_7 3.174834 1_555
U0_4 U0_6 3.174834 1_545
U0_4 U0_6 3.174834 1_555
U0_5 U0_7 3.174834 1_545
U0_5 U0_7 3.174834 1_555
Hg0_0 Hg0_6 3.174834 1_445
Hg0_0 Hg0_6 3.174834 1_555
Hg0_0 Hg0_4 3.174834 1_455
Hg0_0 Hg0_2 3.174834 1_545
Hg0_0 Hg0_2 3.174834 1_555
Hg0_0 Hg0_4 3.174834 1_555
Hg0_0 Hg2_2 3.256422 1_555
Hg0_0 Hg1_3 3.256422 1_554
Hg0_0 Hg2_6 3.256424 1_555
Hg0_0 Hg2_0 3.256424 1_555
Hg0_0 Hg1_1 3.256424 1_554
Hg0_0 Hg1_7 3.256424 1_554
Hg0_1 Hg0_7 3.174834 1_445
Hg0_1 Hg0_7 3.174834 1_555
Hg0_1 Hg0_3 3.174834 1_545
Hg0_1 Hg0_5 3.174834 1_455
Hg0_1 Hg0_3 3.174834 1_555
Hg0_1 Hg0_5 3.174834 1_555
Hg0_1 Hg2_3 3.256422 1_555
Hg0_1 Hg1_2 3.256422 1_555
Hg0_1 Hg2_7 3.256424 1_555
Hg0_1 Hg2_1 3.256424 1_555
Hg0_1 Hg1_6 3.256424 1_555
Hg0_1 Hg1_0 3.256424 1_555
Hg0_2 Hg0_4 3.174834 1_565
Hg0_2 Hg0_4 3.174834 1_455
Hg0_2 Hg0_6 3.174834 1_455
Hg0_2 Hg0_6 3.174834 1_555
Hg0_2 Hg2_0 3.256422 1_565
Hg0_2 Hg1_1 3.256422 1_564
Hg0_2 Hg2_4 3.256424 1_565
Hg0_2 Hg2_2 3.256424 1_555
Hg0_2 Hg1_5 3.256424 1_564
Hg0_2 Hg1_3 3.256424 1_554
Hg0_3 Hg0_5 3.174834 1_565
Hg0_3 Hg0_5 3.174834 1_455
Hg0_3 Hg0_7 3.174834 1_455
Hg0_3 Hg0_7 3.174834 1_555
Hg0_3 Hg2_1 3.256422 1_565
Hg0_3 Hg1_0 3.256422 1_565
Hg0_3 Hg2_5 3.256424 1_565
Hg0_3 Hg2_3 3.256424 1_555
Hg0_3 Hg1_4 3.256424 1_565
Hg0_3 Hg1_2 3.256424 1_555
Hg0_4 Hg0_6 3.174834 1_545
Hg0_4 Hg0_6 3.174834 1_555
Hg0_4 Hg2_6 3.256422 1_555
Hg0_4 Hg1_7 3.256422 1_554
Hg0_4 Hg2_4 3.256424 1_555
Hg0_4 Hg2_2 3.256424 1_655
Hg0_4 Hg1_5 3.256424 1_554
Hg0_4 Hg1_3 3.256424 1_654
Hg0_5 Hg0_7 3.174834 1_545
Hg0_5 Hg0_7 3.174834 1_555
Hg0_5 Hg2_7 3.256422 1_555
Hg0_5 Hg1_6 3.256422 1_555
Hg0_5 Hg2_3 3.256424 1_655
Hg0_5 Hg2_5 3.256424 1_555
Hg0_5 Hg1_4 3.256424 1_555
Hg0_5 Hg1_2 3.256424 1_655
Hg0_6 Hg2_4 3.256422 1_565
Hg0_6 Hg1_5 3.256422 1_564
Hg0_6 Hg2_0 3.256424 1_665
Hg0_6 Hg2_6 3.256424 1_555
Hg0_6 Hg1_1 3.256424 1_664
Hg0_6 Hg1_7 3.256424 1_554
Hg0_7 Hg2_5 3.256422 1_565
Hg0_7 Hg1_4 3.256422 1_565
Hg0_7 Hg2_1 3.256424 1_665
Hg0_7 Hg2_7 3.256424 1_555
Hg0_7 Hg1_0 3.256424 1_665
Hg0_7 Hg1_6 3.256424 1_555
Hg1_0 Hg1_6 3.174834 1_445
Hg1_0 Hg1_6 3.174834 1_555
Hg1_0 Hg1_4 3.174834 1_455
Hg1_0 Hg1_4 3.174834 1_555
Hg1_0 Hg1_2 3.174834 1_545
Hg1_0 Hg1_2 3.174834 1_555
Hg1_0 U0_2 3.298202 1_545
Hg1_0 U0_6 3.298204 1_445
Hg1_0 U0_0 3.298204 1_555
Hg1_1 Hg1_7 3.174834 1_555
Hg1_1 Hg1_7 3.174834 1_445
Hg1_1 Hg1_3 3.174834 1_555
Hg1_1 Hg1_3 3.174834 1_545
Hg1_1 Hg1_5 3.174834 1_455
Hg1_1 Hg1_5 3.174834 1_555
Hg1_1 U0_3 3.298202 1_545
Hg1_1 U0_7 3.298204 1_445
Hg1_1 U0_1 3.298204 1_555
Hg1_2 Hg1_4 3.174834 1_565
Hg1_2 Hg1_4 3.174834 1_455
Hg1_2 Hg1_6 3.174834 1_555
Hg1_2 Hg1_6 3.174834 1_455
Hg1_2 U0_0 3.298202 1_555
Hg1_2 U0_4 3.298204 1_455
Hg1_2 U0_2 3.298204 1_555
Hg1_3 Hg1_5 3.174834 1_565
Hg1_3 Hg1_5 3.174834 1_455
Hg1_3 Hg1_7 3.174834 1_455
Hg1_3 Hg1_7 3.174834 1_555
Hg1_3 U0_1 3.298202 1_555
Hg1_3 U0_5 3.298204 1_455
Hg1_3 U0_3 3.298204 1_555
Hg1_4 Hg1_6 3.174834 1_545
Hg1_4 Hg1_6 3.174834 1_555
Hg1_4 U0_6 3.298202 1_545
Hg1_4 U0_2 3.298204 1_545
Hg1_4 U0_4 3.298204 1_555
Hg1_5 Hg1_7 3.174834 1_555
Hg1_5 Hg1_7 3.174834 1_545
Hg1_5 U0_7 3.298202 1_545
Hg1_5 U0_3 3.298204 1_545
Hg1_5 U0_5 3.298204 1_555
Hg1_6 U0_4 3.298202 1_555
Hg1_6 U0_6 3.298204 1_555
Hg1_6 U0_0 3.298204 1_555
Hg1_7 U0_5 3.298202 1_555
Hg1_7 U0_7 3.298204 1_555
Hg1_7 U0_1 3.298204 1_555
Hg2_0 Hg2_6 3.174834 1_445
Hg2_0 Hg2_6 3.174834 1_555
Hg2_0 Hg2_4 3.174834 1_455
Hg2_0 Hg2_2 3.174834 1_555
Hg2_0 Hg2_4 3.174834 1_555
Hg2_0 Hg2_2 3.174834 1_545
Hg2_0 U0_2 3.298202 1_545
Hg2_0 U0_6 3.298204 1_445
Hg2_0 U0_0 3.298204 1_555
Hg2_1 Hg2_7 3.174834 1_445
Hg2_1 Hg2_7 3.174834 1_555
Hg2_1 Hg2_5 3.174834 1_555
Hg2_1 Hg2_5 3.174834 1_455
Hg2_1 Hg2_3 3.174834 1_555
Hg2_1 Hg2_3 3.174834 1_545
Hg2_1 U0_3 3.298202 1_545
Hg2_1 U0_1 3.298204 1_555
Hg2_1 U0_7 3.298204 1_445
Hg2_2 Hg2_4 3.174834 1_455
Hg2_2 Hg2_4 3.174834 1_565
Hg2_2 Hg2_6 3.174834 1_455
Hg2_2 Hg2_6 3.174834 1_555
Hg2_2 U0_0 3.298202 1_555
Hg2_2 U0_4 3.298204 1_455
Hg2_2 U0_2 3.298204 1_555
Hg2_3 Hg2_5 3.174834 1_455
Hg2_3 Hg2_5 3.174834 1_565
Hg2_3 Hg2_7 3.174834 1_555
Hg2_3 Hg2_7 3.174834 1_455
Hg2_3 U0_1 3.298202 1_555
Hg2_3 U0_3 3.298204 1_555
Hg2_3 U0_5 3.298204 1_455
Hg2_4 Hg2_6 3.174834 1_555
Hg2_4 Hg2_6 3.174834 1_545
Hg2_4 U0_6 3.298202 1_545
Hg2_4 U0_4 3.298204 1_555
Hg2_4 U0_2 3.298204 1_545
Hg2_5 Hg2_7 3.174834 1_545
Hg2_5 Hg2_7 3.174834 1_555
Hg2_5 U0_7 3.298202 1_545
Hg2_5 U0_5 3.298204 1_555
Hg2_5 U0_3 3.298204 1_545
Hg2_6 U0_4 3.298202 1_555
Hg2_6 U0_0 3.298204 1_555
Hg2_6 U0_6 3.298204 1_555
Hg2_7 U0_5 3.298202 1_555
Hg2_7 U0_1 3.298204 1_555
Hg2_7 U0_7 3.298204 1_555
