# generated using pymatgen
data_ZnNiAs2O7
_symmetry_space_group_name_H-M   'P 1'
_cell_length_a   8.50574070
_cell_length_b   7.17274175
_cell_length_c   9.54368293
_cell_angle_alpha   65.93942461
_cell_angle_beta   90.00000000
_cell_angle_gamma   90.00000000
_symmetry_Int_Tables_number   1
_chemical_formula_structural   ZnNiAs2O7
_chemical_formula_sum   'Zn4 Ni4 As8 O28'
_cell_volume   531.66586704
_cell_formula_units_Z   4
loop_
 _symmetry_equiv_pos_site_id
 _symmetry_equiv_pos_as_xyz
  1  'x, y, z'
loop_
 _atom_site_type_symbol
 _atom_site_label
 _atom_site_symmetry_multiplicity
 _atom_site_fract_x
 _atom_site_fract_y
 _atom_site_fract_z
 _atom_site_occupancy
  Zn  Zn0  1  0.06513377  0.73474755  0.88654330  1
  Zn  Zn1  1  0.56513377  0.26525245  0.61345670  1
  Zn  Zn2  1  0.93486623  0.26525245  0.11345670  1
  Zn  Zn3  1  0.43486623  0.73474755  0.38654330  1
  Ni  Ni0  1  0.93378329  0.19092746  0.67832758  1
  Ni  Ni1  1  0.43378329  0.80907254  0.82167242  1
  Ni  Ni2  1  0.06621671  0.80907254  0.32167242  1
  Ni  Ni3  1  0.56621671  0.19092746  0.17832758  1
  As  As0  1  0.76093491  0.54971232  0.76611839  1
  As  As1  1  0.26093491  0.45028768  0.73388161  1
  As  As2  1  0.23906509  0.45028768  0.23388161  1
  As  As3  1  0.73906509  0.54971232  0.26611839  1
  As  As4  1  0.72405837  0.97537681  0.96352036  1
  As  As5  1  0.22405837  0.02462319  0.53647964  1
  As  As6  1  0.27594163  0.02462319  0.03647964  1
  As  As7  1  0.77594163  0.97537681  0.46352036  1
  O  O0  1  0.73948195  0.13056296  0.05703101  1
  O  O1  1  0.23948195  0.86943704  0.44296899  1
  O  O2  1  0.26051805  0.86943704  0.94296899  1
  O  O3  1  0.76051805  0.13056296  0.55703101  1
  O  O4  1  0.58635134  0.61253756  0.81117093  1
  O  O5  1  0.08635134  0.38746244  0.68882907  1
  O  O6  1  0.41364866  0.38746244  0.18882907  1
  O  O7  1  0.91364866  0.61253756  0.31117093  1
  O  O8  1  0.90263710  0.52201484  0.89682227  1
  O  O9  1  0.40263710  0.47798516  0.60317773  1
  O  O10  1  0.09736290  0.47798516  0.10317773  1
  O  O11  1  0.59736290  0.52201484  0.39682227  1
  O  O12  1  0.83378203  0.73458809  0.59397242  1
  O  O13  1  0.33378203  0.26541191  0.90602758  1
  O  O14  1  0.16621797  0.26541191  0.40602758  1
  O  O15  1  0.66621797  0.73458809  0.09397242  1
  O  O16  1  0.92886770  0.02063885  0.34170817  1
  O  O17  1  0.42886770  0.97936115  0.15829183  1
  O  O18  1  0.07113230  0.97936115  0.65829183  1
  O  O19  1  0.57113230  0.02063885  0.84170817  1
  O  O20  1  0.74690341  0.34536625  0.22032868  1
  O  O21  1  0.24690341  0.65463375  0.27967132  1
  O  O22  1  0.25309659  0.65463375  0.77967132  1
  O  O23  1  0.75309659  0.34536625  0.72032868  1
  O  O24  1  0.60163860  0.95558414  0.38492124  1
  O  O25  1  0.10163860  0.04441586  0.11507876  1
  O  O26  1  0.39836140  0.04441586  0.61507876  1
  O  O27  1  0.89836140  0.95558414  0.88492124  1
loop_
_geom_bond_atom_site_label_1
_geom_bond_atom_site_label_2
_geom_bond_distance
_geom_bond_site_symmetry_2
Ni0 O5 1.948467 1_655
Ni0 O18 1.985152 1_645
Ni0 O3 2.026865 1_555
Ni0 O23 2.027767 1_555
Ni0 O27 2.028269 1_545
Ni1 O4 1.948467 1_555
Ni1 O19 1.985152 1_565
Ni1 O2 2.026865 1_555
Ni1 O22 2.027767 1_555
Ni1 O26 2.028269 1_565
Ni2 O7 1.948467 1_455
Ni2 O16 1.985152 1_465
Ni2 O1 2.026865 1_555
Ni2 O21 2.027767 1_555
Ni2 O25 2.028269 1_565
Ni3 O6 1.948467 1_555
Ni3 O17 1.985152 1_545
Ni3 O0 2.026865 1_555
Ni3 O20 2.027767 1_555
Ni3 O24 2.028269 1_545
As0 O4 1.658626 1_555
As0 O8 1.687039 1_555
As0 O23 1.692939 1_555
As0 O12 1.750736 1_555
As1 O5 1.658626 1_555
As1 O9 1.687039 1_555
As1 O22 1.692939 1_555
As1 O13 1.750736 1_555
As2 O6 1.658626 1_555
As2 O10 1.687039 1_555
As2 O21 1.692939 1_555
As2 O14 1.750736 1_555
As3 O7 1.658626 1_555
As3 O11 1.687039 1_555
As3 O20 1.692939 1_555
As3 O15 1.750736 1_555
As4 O19 1.685553 1_565
As4 O0 1.691944 1_566
As4 O27 1.693432 1_555
As4 O15 1.738291 1_556
As5 O18 1.685553 1_545
As5 O1 1.691944 1_545
As5 O26 1.693432 1_555
As5 O14 1.738291 1_555
As6 O17 1.685553 1_545
As6 O2 1.691944 1_544
As6 O25 1.693432 1_555
As6 O13 1.738291 1_554
As7 O16 1.685553 1_565
As7 O3 1.691944 1_565
As7 O24 1.693432 1_555
As7 O12 1.738291 1_555
O0 Zn2 2.099860 1_555
O1 Zn3 2.099860 1_555
O2 Zn0 2.099860 1_555
O3 Zn1 2.099860 1_555
O8 Zn0 2.031310 1_655
O8 Zn2 2.153298 1_556
O9 Zn1 2.031310 1_555
O9 Zn3 2.153298 1_555
O10 Zn2 2.031310 1_455
O10 Zn0 2.153298 1_554
O11 Zn3 2.031310 1_555
O11 Zn1 2.153298 1_555
O16 Zn2 2.170205 1_555
O17 Zn3 2.170205 1_555
O18 Zn0 2.170205 1_555
O19 Zn1 2.170205 1_555
O20 Zn2 2.098681 1_555
O21 Zn3 2.098681 1_555
O22 Zn0 2.098681 1_555
O23 Zn1 2.098681 1_555
O24 Zn3 2.121678 1_555
O25 Zn2 2.121678 1_455
O26 Zn1 2.121678 1_555
O27 Zn0 2.121678 1_655
