# generated using pymatgen
data_CsCr(MoO4)2
_symmetry_space_group_name_H-M   'P 1'
_cell_length_a   5.77638341
_cell_length_b   5.77638300
_cell_length_c   16.50369400
_cell_angle_alpha   89.99875020
_cell_angle_beta   89.99896732
_cell_angle_gamma   60.00040117
_symmetry_Int_Tables_number   1
_chemical_formula_structural   CsCr(MoO4)2
_chemical_formula_sum   'Cs2 Cr2 Mo4 O16'
_cell_volume   476.89804634
_cell_formula_units_Z   2
loop_
 _symmetry_equiv_pos_site_id
 _symmetry_equiv_pos_as_xyz
  1  'x, y, z'
loop_
 _atom_site_type_symbol
 _atom_site_label
 _atom_site_symmetry_multiplicity
 _atom_site_fract_x
 _atom_site_fract_y
 _atom_site_fract_z
 _atom_site_occupancy
  Cs  Cs0  1  0.00007300  0.99989900  0.99999100  1
  Cs  Cs1  1  0.00007500  0.99989900  0.50002900  1
  Cr  Cr0  1  0.00015600  0.00006100  0.24985000  1
  Cr  Cr1  1  0.99957600  0.99998400  0.75017900  1
  Mo  Mo0  1  0.33306600  0.33326500  0.85442600  1
  Mo  Mo1  1  0.66686000  0.66683600  0.14556900  1
  Mo  Mo2  1  0.66641700  0.66660500  0.64580900  1
  Mo  Mo3  1  0.33352800  0.33349000  0.35418500  1
  O  O0  1  0.33346800  0.33331200  0.46050100  1
  O  O1  1  0.33331900  0.33320400  0.96071700  1
  O  O2  1  0.66678600  0.66666200  0.03925300  1
  O  O3  1  0.66666300  0.66654400  0.53951400  1
  O  O4  1  0.16124400  0.67797900  0.32130200  1
  O  O5  1  0.16088600  0.67781800  0.82161200  1
  O  O6  1  0.83909400  0.32226500  0.17831900  1
  O  O7  1  0.83875900  0.32210600  0.67865700  1
  O  O8  1  0.67801400  0.16119200  0.32131800  1
  O  O9  1  0.67766700  0.16098600  0.82168100  1
  O  O10  1  0.32229600  0.83904500  0.17834700  1
  O  O11  1  0.32197200  0.83883600  0.67872100  1
  O  O12  1  0.16129100  0.16122000  0.32138900  1
  O  O13  1  0.16087900  0.16092000  0.82158900  1
  O  O14  1  0.83915500  0.83909000  0.17840900  1
  O  O15  1  0.83875700  0.83878200  0.67863200  1
loop_
_geom_bond_atom_site_label_1
_geom_bond_atom_site_label_2
_geom_bond_distance
_geom_bond_site_symmetry_2
Cs0 O14 3.355663 1_456
Cs0 O13 3.355671 1_565
Cs0 O9 3.355779 1_465
Cs0 O6 3.355952 1_466
Cs0 O10 3.356005 1_556
Cs0 O5 3.356006 1_555
Cs0 O2 3.396639 1_456
Cs0 O1 3.396810 1_565
Cs0 O1 3.397561 1_555
Cs0 O2 3.397607 1_556
Cs0 O1 3.397847 1_465
Cs0 O2 3.397857 1_466
Cs1 O7 3.359914 1_465
Cs1 O15 3.360041 1_455
Cs1 O11 3.360088 1_555
Cs1 O4 3.360659 1_555
Cs1 O8 3.360756 1_465
Cs1 O12 3.360821 1_565
Cs1 O3 3.397698 1_555
Cs1 O0 3.397833 1_555
Cs1 O0 3.397927 1_465
Cs1 O3 3.397981 1_465
Cs1 O3 3.398536 1_455
Cs1 O0 3.398864 1_565
Cr0 O14 1.996108 1_445
Cr0 O4 1.996632 1_545
Cr0 O8 1.997036 1_455
Cr0 O10 1.997369 1_545
Cr0 O6 1.997894 1_455
Cr0 O12 1.998364 1_555
Cr1 O9 1.996427 1_565
Cr1 O5 1.996786 1_655
Cr1 O13 1.996885 1_665
Cr1 O15 1.997340 1_555
Cr1 O7 1.997476 1_565
Cr1 O11 1.997964 1_655
Mo0 O1 1.754195 1_555
Mo0 O9 1.806589 1_555
Mo0 O5 1.806698 1_555
Mo0 O13 1.806721 1_555
Mo1 O2 1.754607 1_555
Mo1 O6 1.806467 1_555
Mo1 O10 1.806576 1_555
Mo1 O14 1.806817 1_555
Mo2 O3 1.754261 1_555
Mo2 O15 1.806580 1_555
Mo2 O7 1.806608 1_555
Mo2 O11 1.806671 1_555
Mo3 O0 1.754607 1_555
Mo3 O12 1.806399 1_555
Mo3 O8 1.806644 1_555
Mo3 O4 1.806734 1_555
