# generated using pymatgen
data_Pm3Dy
_symmetry_space_group_name_H-M   'P 1'
_cell_length_a   7.40048430
_cell_length_b   7.40048430
_cell_length_c   5.78450698
_cell_angle_alpha   90.00000000
_cell_angle_beta   90.00000000
_cell_angle_gamma   120.00000039
_symmetry_Int_Tables_number   1
_chemical_formula_structural   Pm3Dy
_chemical_formula_sum   'Pm6 Dy2'
_cell_volume   274.35776930
_cell_formula_units_Z   2
loop_
 _symmetry_equiv_pos_site_id
 _symmetry_equiv_pos_as_xyz
  1  'x, y, z'
loop_
 _atom_site_type_symbol
 _atom_site_label
 _atom_site_symmetry_multiplicity
 _atom_site_fract_x
 _atom_site_fract_y
 _atom_site_fract_z
 _atom_site_occupancy
  Pm  Pm0  1  0.16717391  0.33434781  0.25000000  1
  Pm  Pm1  1  0.66565219  0.83282609  0.25000000  1
  Pm  Pm2  1  0.16717391  0.83282609  0.25000000  1
  Pm  Pm3  1  0.83282609  0.66565219  0.75000000  1
  Pm  Pm4  1  0.33434781  0.16717391  0.75000000  1
  Pm  Pm5  1  0.83282609  0.16717391  0.75000000  1
  Dy  Dy0  1  0.33333300  0.66666700  0.75000000  1
  Dy  Dy1  1  0.66666700  0.33333300  0.25000000  1
loop_
_geom_bond_atom_site_label_1
_geom_bond_atom_site_label_2
_geom_bond_distance
_geom_bond_site_symmetry_2
Pm0 Pm4 3.599567 1_554
Pm0 Pm4 3.599567 1_555
Pm0 Pm5 3.599567 1_455
Pm0 Pm5 3.599567 1_454
Pm0 Pm1 3.688981 1_555
Pm0 Pm2 3.688981 1_555
Pm0 Pm1 3.711504 1_445
Pm0 Pm2 3.711504 1_545
Pm1 Pm3 3.599567 1_555
Pm1 Pm3 3.599567 1_554
Pm1 Pm5 3.599567 1_565
Pm1 Pm5 3.599567 1_564
Pm1 Pm2 3.688981 1_555
Pm1 Pm2 3.711504 1_655
Pm2 Pm3 3.599567 1_454
Pm2 Pm4 3.599567 1_565
Pm2 Pm3 3.599567 1_455
Pm2 Pm4 3.599567 1_564
Pm3 Pm4 3.688981 1_555
Pm3 Pm5 3.688981 1_555
Pm3 Pm4 3.711504 1_665
Pm3 Pm5 3.711504 1_565
Pm4 Pm5 3.688981 1_555
Pm4 Pm5 3.711504 1_455
Dy0 Pm2 3.591839 1_556
Dy0 Pm2 3.591839 1_555
Dy0 Pm1 3.591842 1_556
Dy0 Pm1 3.591842 1_555
Dy0 Pm0 3.591842 1_555
Dy0 Pm0 3.591842 1_556
Dy0 Pm3 3.700244 1_455
Dy0 Pm4 3.700244 1_565
Dy0 Pm5 3.700248 1_565
Dy0 Pm5 3.700248 1_455
Dy0 Pm3 3.700252 1_555
Dy0 Pm4 3.700252 1_555
Dy1 Pm5 3.591839 1_555
Dy1 Pm5 3.591839 1_554
Dy1 Pm3 3.591842 1_555
Dy1 Pm4 3.591842 1_555
Dy1 Pm3 3.591842 1_554
Dy1 Pm4 3.591842 1_554
Dy1 Pm0 3.700244 1_655
Dy1 Pm1 3.700244 1_545
Dy1 Pm2 3.700248 1_545
Dy1 Pm2 3.700248 1_655
Dy1 Pm1 3.700252 1_555
Dy1 Pm0 3.700252 1_555
