# generated using pymatgen
data_Sr2ZrVO6
_symmetry_space_group_name_H-M   'P 1'
_cell_length_a   8.07269447
_cell_length_b   9.90151977
_cell_length_c   8.14676000
_cell_angle_alpha   65.70811941
_cell_angle_beta   89.99957820
_cell_angle_gamma   65.94373348
_symmetry_Int_Tables_number   1
_chemical_formula_structural   Sr2ZrVO6
_chemical_formula_sum   'Sr8 Zr4 V4 O24'
_cell_volume   530.86649819
_cell_formula_units_Z   4
loop_
 _symmetry_equiv_pos_site_id
 _symmetry_equiv_pos_as_xyz
  1  'x, y, z'
loop_
 _atom_site_type_symbol
 _atom_site_label
 _atom_site_symmetry_multiplicity
 _atom_site_fract_x
 _atom_site_fract_y
 _atom_site_fract_z
 _atom_site_occupancy
  Sr  Sr0  1  0.12809300  0.24998600  0.62498300  1
  Sr  Sr1  1  0.62192000  0.25000900  0.12503300  1
  Sr  Sr2  1  0.37497200  0.75000200  0.37257600  1
  Sr  Sr3  1  0.87500500  0.74999200  0.87743200  1
  Sr  Sr4  1  0.12808200  0.24998500  0.12500600  1
  Sr  Sr5  1  0.62191000  0.25001100  0.62498100  1
  Sr  Sr6  1  0.37499400  0.74999500  0.87742300  1
  Sr  Sr7  1  0.87503700  0.75000100  0.37257200  1
  Zr  Zr0  1  0.74981100  0.50036600  0.74981500  1
  Zr  Zr1  1  0.25060100  0.49880700  0.25060100  1
  Zr  Zr2  1  0.00015100  0.99972000  0.50014200  1
  Zr  Zr3  1  0.49937800  0.00123700  0.99937800  1
  V  V0  1  0.50096200  0.99809200  0.50095400  1
  V  V1  1  0.24903800  0.50192200  0.74903900  1
  V  V2  1  0.99973700  0.00054100  0.99970500  1
  V  V3  1  0.75026600  0.49945100  0.25029500  1
  O  O0  1  0.75218900  0.49558900  0.49676200  1
  O  O1  1  0.24802500  0.50402500  0.99102000  1
  O  O2  1  0.99789900  0.00425600  0.24240000  1
  O  O3  1  0.50207500  0.99584800  0.74509700  1
  O  O4  1  0.75210000  0.49572500  0.00757000  1
  O  O5  1  0.24795100  0.50412400  0.50492800  1
  O  O6  1  0.99780500  0.00441700  0.75326900  1
  O  O7  1  0.50197600  0.99595500  0.25898400  1
  O  O8  1  0.01326100  0.49898400  0.75052200  1
  O  O9  1  0.50550100  0.50194000  0.24904400  1
  O  O10  1  0.26231500  0.00092500  0.49954000  1
  O  O11  1  0.75740100  0.99817800  0.00092000  1
  O  O12  1  0.24448600  0.99804000  0.00096000  1
  O  O13  1  0.73675800  0.00096700  0.49951200  1
  O  O14  1  0.48770000  0.49904800  0.75046600  1
  O  O15  1  0.99261700  0.50184100  0.24907700  1
  O  O16  1  0.88129400  0.23734600  0.88135600  1
  O  O17  1  0.37858400  0.24296800  0.37858700  1
  O  O18  1  0.12725200  0.74554500  0.62734300  1
  O  O19  1  0.63261700  0.73481900  0.13259800  1
  O  O20  1  0.37138600  0.25703200  0.87141100  1
  O  O21  1  0.86869300  0.26263500  0.36862500  1
  O  O22  1  0.62277300  0.75443300  0.62268500  1
  O  O23  1  0.11738400  0.76524500  0.11739200  1
loop_
_geom_bond_atom_site_label_1
_geom_bond_atom_site_label_2
_geom_bond_distance
_geom_bond_site_symmetry_2
O0 V3 1.992420 1_555
O0 Zr0 2.081377 1_555
O0 Sr5 2.846915 1_555
O0 Sr0 2.847320 1_655
O0 Sr2 2.879503 1_555
O0 Sr7 2.879677 1_555
O1 V1 1.980000 1_555
O1 Zr1 2.093913 1_556
O1 Sr6 2.831836 1_555
O1 Sr3 2.832359 1_455
O1 Sr1 2.860051 1_556
O1 Sr4 2.860545 1_556
O2 V2 1.992536 1_554
O2 Zr2 2.081608 1_645
O2 Sr4 2.847650 1_655
O2 Sr1 2.848174 1_555
O2 Sr2 2.878225 1_645
O2 Sr7 2.878411 1_545
O3 V0 1.979917 1_555
O3 Zr3 2.093969 1_565
O3 Sr6 2.831484 1_555
O3 Sr3 2.831537 1_555
O3 Sr0 2.860894 1_565
O3 Sr5 2.860995 1_565
O4 V3 1.992826 1_555
O4 Zr0 2.081301 1_554
O4 Sr1 2.847513 1_555
O4 Sr4 2.848146 1_655
O4 Sr6 2.878456 1_554
O4 Sr3 2.878754 1_554
O5 V1 1.979824 1_555
O5 Zr1 2.094039 1_555
O5 Sr2 2.831356 1_555
O5 Sr7 2.831506 1_455
O5 Sr5 2.860698 1_555
O5 Sr0 2.860918 1_555
O6 V2 1.992113 1_555
O6 Zr2 2.081643 1_645
O6 Sr0 2.846900 1_655
O6 Sr5 2.847252 1_555
O6 Sr6 2.879373 1_645
O6 Sr3 2.879520 1_545
O7 V0 1.980051 1_555
O7 Zr3 2.093867 1_564
O7 Sr2 2.831891 1_555
O7 Sr7 2.832558 1_555
O7 Sr4 2.860081 1_565
O7 Sr1 2.860665 1_565
O8 V1 1.915361 1_555
O8 Zr0 2.121203 1_455
O8 Sr4 2.862438 1_556
O8 Sr0 2.862715 1_555
O8 Sr3 2.888663 1_455
O8 Sr7 2.888890 1_455
O9 V3 1.965970 1_555
O9 Zr1 2.070530 1_555
O9 Sr2 2.842491 1_555
O9 Sr6 2.842651 1_554
O9 Sr5 2.878998 1_555
O9 Sr1 2.879006 1_555
O10 V0 1.915226 1_545
O10 Zr2 2.121256 1_545
O10 Sr0 2.862706 1_555
O10 Sr4 2.862905 1_555
O10 Sr2 2.888262 1_545
O10 Sr6 2.888277 1_545
O11 V2 1.965934 1_564
O11 Zr3 2.070741 1_564
O11 Sr7 2.843165 1_555
O11 Sr3 2.843298 1_554
O11 Sr1 2.878742 1_565
O11 Sr5 2.878747 1_564
O12 V2 1.965793 1_464
O12 Zr3 2.070730 1_564
O12 Sr6 2.842373 1_554
O12 Sr2 2.842572 1_555
O12 Sr0 2.879282 1_564
O12 Sr4 2.879333 1_565
O13 V0 1.915254 1_545
O13 Zr2 2.121282 1_645
O13 Sr1 2.862529 1_555
O13 Sr5 2.862705 1_555
O13 Sr7 2.888490 1_545
O13 Sr3 2.888612 1_545
O14 V1 1.915186 1_555
O14 Zr0 2.121288 1_555
O14 Sr5 2.862744 1_555
O14 Sr1 2.863038 1_556
O14 Sr2 2.888373 1_555
O14 Sr6 2.888416 1_555
O15 V3 1.966167 1_555
O15 Zr1 2.070525 1_655
O15 Sr3 2.843053 1_554
O15 Sr7 2.843117 1_555
O15 Sr0 2.878613 1_655
O15 Sr4 2.878708 1_655
O16 V2 1.911493 1_555
O16 Zr0 2.123101 1_555
O16 Sr1 2.886442 1_556
O16 Sr4 2.886600 1_656
O16 Sr5 2.886712 1_555
O16 Sr0 2.887126 1_655
O17 V0 1.976643 1_545
O17 Zr1 2.065136 1_555
O17 Sr5 2.849480 1_555
O17 Sr0 2.850155 1_555
O17 Sr1 2.850197 1_555
O17 Sr4 2.851217 1_555
O18 V1 1.966528 1_555
O18 Zr2 2.051704 1_555
O18 Sr6 2.880668 1_555
O18 Sr3 2.881010 1_455
O18 Sr2 2.881901 1_555
O18 Sr7 2.882167 1_455
O19 V3 1.899894 1_555
O19 Zr3 2.150530 1_564
O19 Sr3 2.855748 1_554
O19 Sr7 2.855896 1_555
O19 Sr2 2.856147 1_555
O19 Sr6 2.856163 1_554
O20 V1 1.976756 1_555
O20 Zr3 2.064781 1_555
O20 Sr0 2.849510 1_555
O20 Sr4 2.850256 1_556
O20 Sr5 2.850540 1_555
O20 Sr1 2.851603 1_556
O21 V3 1.911582 1_555
O21 Zr2 2.122253 1_645
O21 Sr1 2.886103 1_555
O21 Sr4 2.886190 1_655
O21 Sr0 2.886793 1_655
O21 Sr5 2.886933 1_555
O22 V0 1.966819 1_555
O22 Zr0 2.050832 1_555
O22 Sr2 2.881059 1_555
O22 Sr7 2.881243 1_555
O22 Sr6 2.882065 1_555
O22 Sr3 2.882208 1_555
O23 V2 1.899313 1_464
O23 Zr1 2.150691 1_555
O23 Sr7 2.855618 1_455
O23 Sr2 2.855654 1_555
O23 Sr6 2.855921 1_554
O23 Sr3 2.856013 1_454
