# generated using pymatgen
data_YAgGe
_symmetry_space_group_name_H-M   'P 1'
_cell_length_a   7.14144855
_cell_length_b   7.14144855
_cell_length_c   4.21060133
_cell_angle_alpha   90.00000000
_cell_angle_beta   90.00000000
_cell_angle_gamma   119.99999120
_symmetry_Int_Tables_number   1
_chemical_formula_structural   YAgGe
_chemical_formula_sum   'Y3 Ag3 Ge3'
_cell_volume   185.97193804
_cell_formula_units_Z   3
loop_
 _symmetry_equiv_pos_site_id
 _symmetry_equiv_pos_as_xyz
  1  'x, y, z'
loop_
 _atom_site_type_symbol
 _atom_site_label
 _atom_site_symmetry_multiplicity
 _atom_site_fract_x
 _atom_site_fract_y
 _atom_site_fract_z
 _atom_site_occupancy
  Y  Y0  1  0.58548420  -0.00000000  -0.00000000  1
  Y  Y1  1  -0.00000000  0.58548420  0.00000000  1
  Y  Y2  1  0.41451580  0.41451580  0.00000000  1
  Ag  Ag0  1  0.25071913  0.00000000  0.50000000  1
  Ag  Ag1  1  0.00000000  0.25071913  0.50000000  1
  Ag  Ag2  1  0.74928087  0.74928087  0.50000000  1
  Ge  Ge0  1  0.33333300  0.66666700  0.50000000  1
  Ge  Ge1  1  0.66666700  0.33333300  0.50000000  1
  Ge  Ge2  1  0.00000000  0.00000000  0.00000000  1
loop_
_geom_bond_atom_site_label_1
_geom_bond_atom_site_label_2
_geom_bond_distance
_geom_bond_site_symmetry_2
Ag0 Ge0 2.723822 1_545
Ag0 Ge1 2.723828 1_555
Ag0 Ge2 2.763725 1_556
Ag0 Ge2 2.763725 1_555
Ag0 Ag1 3.101233 1_555
Ag0 Ag2 3.101233 1_445
Ag0 Y0 3.185557 1_556
Ag0 Y0 3.185557 1_555
Ag0 Y2 3.331802 1_555
Ag0 Y2 3.331802 1_556
Ag0 Y1 3.331802 1_545
Ag0 Y1 3.331802 1_546
Ag1 Ge1 2.723822 1_455
Ag1 Ge0 2.723828 1_555
Ag1 Ge2 2.763725 1_556
Ag1 Ge2 2.763725 1_555
Ag1 Ag2 3.101233 1_445
Ag1 Y1 3.185557 1_556
Ag1 Y1 3.185557 1_555
Ag1 Y2 3.331802 1_555
Ag1 Y2 3.331802 1_556
Ag1 Y0 3.331802 1_456
Ag1 Y0 3.331802 1_455
Ag2 Ge0 2.723830 1_555
Ag2 Ge1 2.723830 1_555
Ag2 Ge2 2.763725 1_666
Ag2 Ge2 2.763725 1_665
Ag2 Y2 3.185557 1_556
Ag2 Y2 3.185557 1_555
Ag2 Y1 3.331802 1_656
Ag2 Y1 3.331802 1_655
Ag2 Y0 3.331802 1_566
Ag2 Y0 3.331802 1_565
Ge0 Y1 3.009151 1_556
Ge0 Y1 3.009151 1_555
Ge0 Y0 3.009153 1_566
Ge0 Y0 3.009153 1_565
Ge0 Y2 3.009156 1_555
Ge0 Y2 3.009156 1_556
Ge1 Y0 3.009151 1_556
Ge1 Y0 3.009151 1_555
Ge1 Y1 3.009153 1_656
Ge1 Y1 3.009153 1_655
Ge1 Y2 3.009156 1_555
Ge1 Y2 3.009156 1_556
Ge2 Y0 2.960243 1_455
Ge2 Y1 2.960243 1_545
Ge2 Y2 2.960244 1_555
