# generated using pymatgen
data_TbAlNi
_symmetry_space_group_name_H-M   'P 1'
_cell_length_a   6.93690090
_cell_length_b   6.93690191
_cell_length_c   3.88212196
_cell_angle_alpha   90.00000000
_cell_angle_beta   90.00000000
_cell_angle_gamma   120.00000007
_symmetry_Int_Tables_number   1
_chemical_formula_structural   TbAlNi
_chemical_formula_sum   'Tb3 Al3 Ni3'
_cell_volume   161.78224208
_cell_formula_units_Z   3
loop_
 _symmetry_equiv_pos_site_id
 _symmetry_equiv_pos_as_xyz
  1  'x, y, z'
loop_
 _atom_site_type_symbol
 _atom_site_label
 _atom_site_symmetry_multiplicity
 _atom_site_fract_x
 _atom_site_fract_y
 _atom_site_fract_z
 _atom_site_occupancy
  Tb  Tb0  1  0.58154717  0.00000000  0.50000000  1
  Tb  Tb1  1  0.41845283  0.41845283  0.50000000  1
  Tb  Tb2  1  -0.00000000  0.58154717  0.50000000  1
  Al  Al0  1  0.23201036  0.00000000  -0.00000000  1
  Al  Al1  1  0.76798964  0.76798964  -0.00000000  1
  Al  Al2  1  -0.00000000  0.23201036  0.00000000  1
  Ni  Ni0  1  -0.00000000  -0.00000000  0.50000000  1
  Ni  Ni1  1  0.33333300  0.66666700  0.00000000  1
  Ni  Ni2  1  0.66666700  0.33333300  0.00000000  1
loop_
_geom_bond_atom_site_label_1
_geom_bond_atom_site_label_2
_geom_bond_distance
_geom_bond_site_symmetry_2
Al0 Ni0 2.521506 1_555
Al0 Ni0 2.521506 1_554
Al0 Ni1 2.732394 1_545
Al0 Ni2 2.732398 1_555
Al0 Al1 2.787620 1_445
Al0 Al2 2.787620 1_555
Al0 Tb0 3.105946 1_555
Al0 Tb0 3.105946 1_554
Al0 Tb2 3.179974 1_545
Al0 Tb2 3.179974 1_544
Al0 Tb1 3.179974 1_554
Al0 Tb1 3.179974 1_555
Al1 Ni0 2.521506 1_665
Al1 Ni0 2.521506 1_664
Al1 Ni1 2.732400 1_555
Al1 Ni2 2.732401 1_555
Al1 Al2 2.787620 1_665
Al1 Tb1 3.105946 1_554
Al1 Tb1 3.105946 1_555
Al1 Tb2 3.179974 1_655
Al1 Tb2 3.179974 1_654
Al1 Tb0 3.179974 1_564
Al1 Tb0 3.179974 1_565
Al2 Ni0 2.521506 1_555
Al2 Ni0 2.521506 1_554
Al2 Ni2 2.732394 1_455
Al2 Ni1 2.732399 1_555
Al2 Tb2 3.105946 1_554
Al2 Tb2 3.105946 1_555
Al2 Tb1 3.179974 1_554
Al2 Tb1 3.179974 1_555
Al2 Tb0 3.179974 1_455
Al2 Tb0 3.179974 1_454
Ni0 Tb0 2.902766 1_455
Ni0 Tb1 2.902766 1_555
Ni0 Tb2 2.902766 1_545
Ni1 Tb2 2.845655 1_555
Ni1 Tb2 2.845655 1_554
Ni1 Tb0 2.845657 1_565
Ni1 Tb0 2.845657 1_564
Ni1 Tb1 2.845660 1_554
Ni1 Tb1 2.845660 1_555
Ni2 Tb0 2.845656 1_555
Ni2 Tb0 2.845656 1_554
Ni2 Tb2 2.845657 1_655
Ni2 Tb2 2.845657 1_654
Ni2 Tb1 2.845660 1_554
Ni2 Tb1 2.845660 1_555
