# generated using pymatgen
data_Tm6Mn4Al43
_symmetry_space_group_name_H-M   'P 1'
_cell_length_a   10.86095034
_cell_length_b   10.86095034
_cell_length_c   17.42807700
_cell_angle_alpha   90.00000000
_cell_angle_beta   90.00000000
_cell_angle_gamma   120.00000206
_symmetry_Int_Tables_number   1
_chemical_formula_structural   Tm6Mn4Al43
_chemical_formula_sum   'Tm12 Mn8 Al86'
_cell_volume   1780.39246878
_cell_formula_units_Z   2
loop_
 _symmetry_equiv_pos_site_id
 _symmetry_equiv_pos_as_xyz
  1  'x, y, z'
loop_
 _atom_site_type_symbol
 _atom_site_label
 _atom_site_symmetry_multiplicity
 _atom_site_fract_x
 _atom_site_fract_y
 _atom_site_fract_z
 _atom_site_occupancy
  Tm  Tm0  1  0.53191300  0.00000000  0.59496600  1
  Tm  Tm1  1  0.46808700  0.00000000  0.40503400  1
  Tm  Tm2  1  0.00000000  0.53191300  0.59496600  1
  Tm  Tm3  1  0.46808700  0.00000000  0.09496600  1
  Tm  Tm4  1  0.00000000  0.53191300  0.90503400  1
  Tm  Tm5  1  0.00000000  0.46808700  0.40503400  1
  Tm  Tm6  1  0.53191300  0.00000000  0.90503400  1
  Tm  Tm7  1  0.00000000  0.46808700  0.09496600  1
  Tm  Tm8  1  0.46808700  0.46808700  0.59496600  1
  Tm  Tm9  1  0.53191300  0.53191300  0.40503400  1
  Tm  Tm10  1  0.53191300  0.53191300  0.09496600  1
  Tm  Tm11  1  0.46808700  0.46808700  0.90503400  1
  Mn  Mn0  1  0.00000000  0.00000000  0.50000000  1
  Mn  Mn1  1  0.00000000  0.00000000  0.00000000  1
  Mn  Mn2  1  0.73205200  0.00000000  0.75000000  1
  Mn  Mn3  1  0.26794800  0.00000000  0.25000000  1
  Mn  Mn4  1  0.00000000  0.73205200  0.75000000  1
  Mn  Mn5  1  0.00000000  0.26794800  0.25000000  1
  Mn  Mn6  1  0.26794800  0.26794800  0.75000000  1
  Mn  Mn7  1  0.73205200  0.73205200  0.25000000  1
  Al  Al0  1  0.14511800  0.59767800  0.75000000  1
  Al  Al1  1  0.85488200  0.40232200  0.25000000  1
  Al  Al2  1  0.40232200  0.54744000  0.75000000  1
  Al  Al3  1  0.59767800  0.14511800  0.75000000  1
  Al  Al4  1  0.59767800  0.45256000  0.25000000  1
  Al  Al5  1  0.40232200  0.85488200  0.25000000  1
  Al  Al6  1  0.45256000  0.85488200  0.75000000  1
  Al  Al7  1  0.54744000  0.40232200  0.75000000  1
  Al  Al8  1  0.54744000  0.14511800  0.25000000  1
  Al  Al9  1  0.45256000  0.59767800  0.25000000  1
  Al  Al10  1  0.85488200  0.45256000  0.75000000  1
  Al  Al11  1  0.14511800  0.54744000  0.25000000  1
  Al  Al12  1  0.15693400  0.00000000  0.11541400  1
  Al  Al13  1  0.84306600  0.00000000  0.88458600  1
  Al  Al14  1  0.00000000  0.15693400  0.11541400  1
  Al  Al15  1  0.84306600  0.00000000  0.61541400  1
  Al  Al16  1  0.00000000  0.15693400  0.38458600  1
  Al  Al17  1  0.00000000  0.84306600  0.88458600  1
  Al  Al18  1  0.15693400  0.00000000  0.38458600  1
  Al  Al19  1  0.00000000  0.84306600  0.61541400  1
  Al  Al20  1  0.84306600  0.84306600  0.11541400  1
  Al  Al21  1  0.15693400  0.15693400  0.88458600  1
  Al  Al22  1  0.15693400  0.15693400  0.61541400  1
  Al  Al23  1  0.84306600  0.84306600  0.38458600  1
  Al  Al24  1  0.24669300  0.49338600  0.50000000  1
  Al  Al25  1  0.75330700  0.50661400  0.50000000  1
  Al  Al26  1  0.50661400  0.75330700  0.50000000  1
  Al  Al27  1  0.75330700  0.50661400  0.00000000  1
  Al  Al28  1  0.49338600  0.24669300  0.00000000  1
  Al  Al29  1  0.49338600  0.24669300  0.50000000  1
  Al  Al30  1  0.24669300  0.49338600  0.00000000  1
  Al  Al31  1  0.50661400  0.75330700  0.00000000  1
  Al  Al32  1  0.24669300  0.75330700  0.50000000  1
  Al  Al33  1  0.75330700  0.24669300  0.50000000  1
  Al  Al34  1  0.75330700  0.24669300  0.00000000  1
  Al  Al35  1  0.24669300  0.75330700  0.00000000  1
  Al  Al36  1  0.14607300  0.00000000  0.75000000  1
  Al  Al37  1  0.85392700  0.00000000  0.25000000  1
  Al  Al38  1  0.00000000  0.14607300  0.75000000  1
  Al  Al39  1  0.00000000  0.85392700  0.25000000  1
  Al  Al40  1  0.85392700  0.85392700  0.75000000  1
  Al  Al41  1  0.14607300  0.14607300  0.25000000  1
  Al  Al42  1  0.33333300  0.66666700  0.62667500  1
  Al  Al43  1  0.66666700  0.33333300  0.37332500  1
  Al  Al44  1  0.66666700  0.33333300  0.12667500  1
  Al  Al45  1  0.66666700  0.33333300  0.87332500  1
  Al  Al46  1  0.33333300  0.66666700  0.87332500  1
  Al  Al47  1  0.33333300  0.66666700  0.12667500  1
  Al  Al48  1  0.33333300  0.66666700  0.37332500  1
  Al  Al49  1  0.66666700  0.33333300  0.62667500  1
  Al  Al50  1  0.25262700  0.00000000  0.53053100  1
  Al  Al51  1  0.74737300  0.00000000  0.46946900  1
  Al  Al52  1  0.00000000  0.25262700  0.53053100  1
  Al  Al53  1  0.74737300  0.00000000  0.03053100  1
  Al  Al54  1  0.00000000  0.25262700  0.96946900  1
  Al  Al55  1  0.00000000  0.74737300  0.46946900  1
  Al  Al56  1  0.25262700  0.00000000  0.96946900  1
  Al  Al57  1  0.00000000  0.74737300  0.03053100  1
  Al  Al58  1  0.74737300  0.74737300  0.53053100  1
  Al  Al59  1  0.25262700  0.25262700  0.46946900  1
  Al  Al60  1  0.25262700  0.25262700  0.03053100  1
  Al  Al61  1  0.74737300  0.74737300  0.96946900  1
  Al  Al62  1  0.15831600  0.39190200  0.66507500  1
  Al  Al63  1  0.84168400  0.60809800  0.33492500  1
  Al  Al64  1  0.60809800  0.76641400  0.66507500  1
  Al  Al65  1  0.84168400  0.60809800  0.16507500  1
  Al  Al66  1  0.39190200  0.15831600  0.83492500  1
  Al  Al67  1  0.39190200  0.23358600  0.33492500  1
  Al  Al68  1  0.15831600  0.39190200  0.83492500  1
  Al  Al69  1  0.60809800  0.84168400  0.16507500  1
  Al  Al70  1  0.23358600  0.84168400  0.66507500  1
  Al  Al71  1  0.39190200  0.23358600  0.16507500  1
  Al  Al72  1  0.76641400  0.60809800  0.83492500  1
  Al  Al73  1  0.76641400  0.15831600  0.33492500  1
  Al  Al74  1  0.60809800  0.76641400  0.83492500  1
  Al  Al75  1  0.23358600  0.39190200  0.16507500  1
  Al  Al76  1  0.60809800  0.84168400  0.33492500  1
  Al  Al77  1  0.39190200  0.15831600  0.66507500  1
  Al  Al78  1  0.76641400  0.15831600  0.16507500  1
  Al  Al79  1  0.23358600  0.39190200  0.33492500  1
  Al  Al80  1  0.23358600  0.84168400  0.83492500  1
  Al  Al81  1  0.76641400  0.60809800  0.66507500  1
  Al  Al82  1  0.84168400  0.23358600  0.83492500  1
  Al  Al83  1  0.15831600  0.76641400  0.16507500  1
  Al  Al84  1  0.15831600  0.76641400  0.33492500  1
  Al  Al85  1  0.84168400  0.23358600  0.66507500  1
loop_
_geom_bond_atom_site_label_1
_geom_bond_atom_site_label_2
_geom_bond_distance
_geom_bond_site_symmetry_2
Tm0 Tm1 3.381957 1_555
Tm2 Tm5 3.381957 1_555
Tm3 Tm6 3.381957 1_554
Tm4 Tm7 3.381957 1_556
Tm8 Tm9 3.381957 1_555
Tm10 Tm11 3.381957 1_554
Mn2 Tm0 3.467777 1_555
Mn2 Tm6 3.467777 1_555
Mn3 Tm1 3.467777 1_555
Mn3 Tm3 3.467777 1_555
Mn4 Tm4 3.467777 1_555
Mn4 Tm2 3.467777 1_555
Mn5 Tm5 3.467777 1_555
Mn5 Tm7 3.467777 1_555
Mn6 Tm11 3.467777 1_555
Mn6 Tm8 3.467777 1_555
Mn7 Tm10 3.467777 1_555
Mn7 Tm9 3.467777 1_555
Al0 Mn4 2.629510 1_555
Al0 Al10 2.729919 1_455
Al0 Al62 2.743433 1_555
Al0 Al68 2.743433 1_555
Al0 Al80 2.755125 1_555
Al0 Al70 2.755125 1_555
Al0 Al42 2.797863 1_555
Al0 Al46 2.797863 1_555
Al0 Tm4 3.028046 1_555
Al0 Tm2 3.028046 1_555
Al1 Mn5 2.629510 1_655
Al1 Al11 2.729919 1_655
Al1 Al63 2.743433 1_555
Al1 Al65 2.743433 1_555
Al1 Al78 2.755125 1_555
Al1 Al73 2.755125 1_555
Al1 Al43 2.797863 1_555
Al1 Al44 2.797863 1_555
Al1 Tm5 3.028046 1_655
Al1 Tm7 3.028046 1_655
Al2 Mn6 2.629510 1_555
Al2 Al7 2.729919 1_555
Al2 Al64 2.743433 1_555
Al2 Al74 2.743433 1_555
Al2 Al62 2.755125 1_555
Al2 Al68 2.755125 1_555
Al2 Al46 2.797870 1_555
Al2 Al42 2.797870 1_555
Al2 Tm11 3.028046 1_555
Al2 Tm8 3.028046 1_555
Al3 Mn2 2.629510 1_555
Al3 Al6 2.729919 1_545
Al3 Al66 2.743433 1_555
Al3 Al77 2.743433 1_555
Al3 Al85 2.755125 1_555
Al3 Al82 2.755125 1_555
Al3 Al49 2.797863 1_555
Al3 Al45 2.797863 1_555
Al3 Tm0 3.028046 1_555
Al3 Tm6 3.028046 1_555
Al4 Mn7 2.629510 1_555
Al4 Al9 2.729919 1_555
Al4 Al67 2.743433 1_555
Al4 Al71 2.743433 1_555
Al4 Al63 2.755125 1_555
Al4 Al65 2.755125 1_555
Al4 Al44 2.797870 1_555
Al4 Al43 2.797870 1_555
Al4 Tm10 3.028046 1_555
Al4 Tm9 3.028046 1_555
Al5 Mn3 2.629510 1_565
Al5 Al8 2.729919 1_565
Al5 Al76 2.743433 1_555
Al5 Al69 2.743433 1_555
Al5 Al84 2.755125 1_555
Al5 Al83 2.755125 1_555
Al5 Tm3 3.028046 1_565
Al5 Tm1 3.028046 1_565
Al6 Mn2 2.629510 1_565
Al6 Al70 2.743433 1_555
Al6 Al80 2.743433 1_555
Al6 Al74 2.755125 1_555
Al6 Al64 2.755125 1_555
Al6 Tm6 3.028046 1_565
Al6 Tm0 3.028046 1_565
Al7 Mn6 2.629510 1_555
Al7 Al81 2.743433 1_555
Al7 Al72 2.743433 1_555
Al7 Al77 2.755125 1_555
Al7 Tm11 3.028046 1_555
Al7 Tm8 3.028046 1_555
Al8 Mn3 2.629510 1_555
Al8 Tm3 3.028046 1_555
Al8 Tm1 3.028046 1_555
Al9 Mn7 2.629510 1_555
Al9 Tm10 3.028046 1_555
Al9 Tm9 3.028046 1_555
Al10 Mn4 2.629510 1_655
Al10 Al85 2.743433 1_555
Al10 Al82 2.743433 1_555
Al10 Al72 2.755125 1_555
Al10 Al81 2.755125 1_555
Al10 Al49 2.797864 1_555
Al10 Al45 2.797864 1_555
Al10 Tm4 3.028046 1_655
Al10 Tm2 3.028046 1_655
Al11 Mn5 2.629510 1_555
Al11 Al84 2.743433 1_555
Al11 Al83 2.743433 1_555
Al11 Al75 2.755125 1_555
Al11 Al79 2.755125 1_555
Al11 Al47 2.797864 1_555
Al11 Al48 2.797864 1_555
Al11 Tm5 3.028046 1_555
Al11 Tm7 3.028046 1_555
Al12 Mn1 2.636487 1_555
Al12 Mn3 2.637324 1_555
Al12 Al71 2.687672 1_555
Al12 Al83 2.687673 1_545
Al12 Al56 2.747686 1_554
Al12 Al57 2.818736 1_545
Al12 Al60 2.818736 1_555
Al12 Al39 2.867008 1_545
Al12 Al41 2.867008 1_555
Al12 Al20 2.952198 1_445
Al12 Al14 2.952198 1_555
Al12 Tm3 3.398155 1_555
Al13 Mn1 2.636487 1_656
Al13 Mn2 2.637324 1_555
Al13 Al74 2.687672 1_545
Al13 Al82 2.687673 1_555
Al13 Al53 2.747686 1_556
Al13 Al54 2.818736 1_655
Al13 Al61 2.818736 1_545
Al13 Al38 2.867008 1_655
Al13 Al40 2.867008 1_545
Al13 Al21 2.952198 1_655
Al13 Al17 2.952198 1_645
Al13 Tm6 3.398155 1_555
Al14 Mn1 2.636487 1_555
Al14 Mn5 2.637324 1_555
Al14 Al75 2.687672 1_555
Al14 Al78 2.687673 1_455
Al14 Al54 2.747686 1_554
Al14 Al53 2.818736 1_455
Al14 Al60 2.818736 1_555
Al14 Al37 2.867008 1_455
Al14 Al41 2.867008 1_555
Al14 Al20 2.952198 1_445
Al14 Tm7 3.398155 1_555
Al15 Mn0 2.636487 1_655
Al15 Mn2 2.637324 1_555
Al15 Al64 2.687672 1_545
Al15 Al85 2.687673 1_555
Al15 Al51 2.747686 1_555
Al15 Al52 2.818736 1_655
Al15 Al58 2.818736 1_545
Al15 Al38 2.867008 1_655
Al15 Al40 2.867008 1_545
Al15 Al22 2.952198 1_655
Al15 Al19 2.952198 1_645
Al15 Tm0 3.398155 1_555
Al16 Mn0 2.636487 1_555
Al16 Mn5 2.637324 1_555
Al16 Al79 2.687672 1_555
Al16 Al73 2.687673 1_455
Al16 Al52 2.747686 1_555
Al16 Al51 2.818736 1_455
Al16 Al59 2.818736 1_555
Al16 Al37 2.867008 1_455
Al16 Al41 2.867008 1_555
Al16 Al23 2.952198 1_445
Al16 Al18 2.952198 1_555
Al16 Tm5 3.398155 1_555
Al17 Mn1 2.636487 1_566
Al17 Mn4 2.637324 1_555
Al17 Al72 2.687672 1_455
Al17 Al80 2.687673 1_555
Al17 Al57 2.747686 1_556
Al17 Al56 2.818736 1_565
Al17 Al61 2.818736 1_455
Al17 Al36 2.867008 1_565
Al17 Al40 2.867008 1_455
Al17 Al21 2.952198 1_565
Al17 Tm4 3.398155 1_555
Al18 Mn0 2.636487 1_555
Al18 Mn3 2.637324 1_555
Al18 Al67 2.687672 1_555
Al18 Al84 2.687673 1_545
Al18 Al50 2.747686 1_555
Al18 Al55 2.818736 1_545
Al18 Al59 2.818736 1_555
Al18 Al39 2.867008 1_545
Al18 Al41 2.867008 1_555
Al18 Al23 2.952198 1_445
Al18 Tm1 3.398155 1_555
Al19 Mn0 2.636487 1_565
Al19 Mn4 2.637324 1_555
Al19 Al81 2.687672 1_455
Al19 Al70 2.687673 1_555
Al19 Al55 2.747686 1_555
Al19 Al50 2.818736 1_565
Al19 Al58 2.818736 1_455
Al19 Al36 2.867008 1_565
Al19 Al40 2.867008 1_455
Al19 Al22 2.952198 1_565
Al19 Tm2 3.398155 1_555
Al20 Mn1 2.636487 1_665
Al20 Mn7 2.637324 1_555
Al20 Al69 2.687673 1_555
Al20 Al65 2.687673 1_555
Al20 Al61 2.747686 1_554
Al20 Al53 2.818736 1_565
Al20 Al57 2.818736 1_655
Al20 Al39 2.867008 1_655
Al20 Al37 2.867008 1_565
Al20 Tm10 3.398155 1_555
Al21 Mn1 2.636487 1_556
Al21 Mn6 2.637324 1_555
Al21 Al66 2.687673 1_555
Al21 Al68 2.687673 1_555
Al21 Al60 2.747686 1_556
Al21 Al56 2.818736 1_555
Al21 Al54 2.818736 1_555
Al21 Al38 2.867008 1_555
Al21 Al36 2.867008 1_555
Al21 Tm11 3.398155 1_555
Al22 Mn0 2.636487 1_555
Al22 Mn6 2.637324 1_555
Al22 Al62 2.687673 1_555
Al22 Al77 2.687673 1_555
Al22 Al59 2.747686 1_555
Al22 Al50 2.818736 1_555
Al22 Al52 2.818736 1_555
Al22 Al38 2.867008 1_555
Al22 Al36 2.867008 1_555
Al22 Tm8 3.398155 1_555
Al23 Mn0 2.636487 1_665
Al23 Mn7 2.637324 1_555
Al23 Al63 2.687673 1_555
Al23 Al76 2.687673 1_555
Al23 Al58 2.747686 1_555
Al23 Al51 2.818736 1_565
Al23 Al55 2.818736 1_655
Al23 Al39 2.867008 1_655
Al23 Al37 2.867008 1_565
Al23 Tm9 3.398155 1_555
Al24 Al52 2.700622 1_555
Al24 Al59 2.700622 1_555
Al24 Al48 2.744154 1_555
Al24 Al42 2.744154 1_555
Al24 Al26 2.822989 1_555
Al24 Al32 2.822989 1_555
Al24 Tm5 3.042586 1_555
Al24 Tm8 3.042586 1_555
Al24 Al62 3.058597 1_555
Al24 Al79 3.058597 1_555
Al24 Tm9 3.348769 1_555
Al24 Tm2 3.348769 1_555
Al25 Al55 2.700622 1_655
Al25 Al58 2.700622 1_555
Al25 Al49 2.744154 1_555
Al25 Al43 2.744154 1_555
Al25 Al29 2.822989 1_555
Al25 Al33 2.822989 1_555
Al25 Tm2 3.042586 1_655
Al25 Tm9 3.042586 1_555
Al25 Al63 3.058597 1_555
Al25 Al81 3.058597 1_555
Al25 Tm8 3.348769 1_555
Al25 Tm5 3.348769 1_655
Al26 Al51 2.700622 1_565
Al26 Al58 2.700622 1_555
Al26 Al48 2.744154 1_555
Al26 Al42 2.744154 1_555
Al26 Al32 2.822989 1_555
Al26 Tm0 3.042586 1_565
Al26 Tm9 3.042586 1_555
Al26 Al76 3.058597 1_555
Al26 Al64 3.058597 1_555
Al26 Tm8 3.348769 1_555
Al26 Tm1 3.348769 1_565
Al27 Al57 2.700622 1_655
Al27 Al61 2.700622 1_554
Al27 Al45 2.744154 1_554
Al27 Al44 2.744154 1_555
Al27 Al28 2.822989 1_555
Al27 Al34 2.822989 1_555
Al27 Tm4 3.042586 1_654
Al27 Tm10 3.042586 1_555
Al27 Al65 3.058597 1_555
Al27 Al72 3.058597 1_554
Al27 Tm11 3.348769 1_554
Al27 Tm7 3.348769 1_655
Al28 Al56 2.700622 1_554
Al28 Al60 2.700622 1_555
Al28 Al45 2.744154 1_554
Al28 Al44 2.744154 1_555
Al28 Al34 2.822989 1_555
Al28 Tm3 3.042586 1_555
Al28 Tm11 3.042586 1_554
Al28 Al66 3.058597 1_554
Al28 Al71 3.058597 1_555
Al28 Tm10 3.348769 1_555
Al28 Tm6 3.348769 1_554
Al29 Al50 2.700622 1_555
Al29 Al59 2.700622 1_555
Al29 Al49 2.744154 1_555
Al29 Al43 2.744154 1_555
Al29 Al33 2.822989 1_555
Al29 Tm1 3.042586 1_555
Al29 Tm8 3.042586 1_555
Al29 Al77 3.058597 1_555
Al29 Al67 3.058597 1_555
Al29 Tm9 3.348769 1_555
Al29 Tm0 3.348769 1_555
Al30 Al54 2.700622 1_554
Al30 Al60 2.700622 1_555
Al30 Al46 2.744154 1_554
Al30 Al47 2.744154 1_555
Al30 Al31 2.822989 1_555
Al30 Al35 2.822989 1_555
Al30 Tm7 3.042586 1_555
Al30 Tm11 3.042586 1_554
Al30 Al68 3.058597 1_554
Al30 Al75 3.058597 1_555
Al30 Tm10 3.348769 1_555
Al30 Tm4 3.348769 1_554
Al31 Al53 2.700622 1_565
Al31 Al61 2.700622 1_554
Al31 Al46 2.744154 1_554
Al31 Al47 2.744154 1_555
Al31 Al35 2.822989 1_555
Al31 Tm6 3.042586 1_564
Al31 Tm10 3.042586 1_555
Al31 Al69 3.058597 1_555
Al31 Al74 3.058597 1_554
Al31 Tm11 3.348769 1_554
Al31 Tm3 3.348769 1_565
Al32 Al55 2.700622 1_555
Al32 Al50 2.700622 1_565
Al32 Al48 2.744148 1_555
Al32 Al42 2.744148 1_555
Al32 Tm2 3.042586 1_555
Al32 Tm1 3.042586 1_565
Al32 Al70 3.058597 1_555
Al32 Al84 3.058597 1_555
Al32 Tm5 3.348769 1_555
Al32 Tm0 3.348769 1_565
Al33 Al51 2.700622 1_555
Al33 Al52 2.700622 1_655
Al33 Al49 2.744148 1_555
Al33 Al43 2.744148 1_555
Al33 Tm0 3.042586 1_555
Al33 Tm5 3.042586 1_655
Al33 Al85 3.058597 1_555
Al33 Al73 3.058597 1_555
Al33 Tm1 3.348769 1_555
Al33 Tm2 3.348769 1_655
Al34 Al53 2.700622 1_555
Al34 Al54 2.700622 1_654
Al34 Al45 2.744148 1_554
Al34 Al44 2.744148 1_555
Al34 Tm6 3.042586 1_554
Al34 Tm7 3.042586 1_655
Al34 Al82 3.058597 1_554
Al34 Al78 3.058597 1_555
Al34 Tm3 3.348769 1_555
Al34 Tm4 3.348769 1_654
Al35 Al57 2.700622 1_555
Al35 Al56 2.700622 1_564
Al35 Al47 2.744148 1_555
Al35 Al46 2.744148 1_554
Al35 Tm4 3.042586 1_554
Al35 Tm3 3.042586 1_565
Al35 Al80 3.058597 1_554
Al35 Al83 3.058597 1_555
Al35 Tm7 3.348769 1_555
Al35 Tm6 3.348769 1_564
Al36 Mn4 2.523704 1_545
Al36 Mn6 2.523704 1_555
Al36 Al40 2.747884 1_445
Al36 Al38 2.747884 1_555
Al36 Al66 2.772164 1_555
Al36 Al77 2.772164 1_555
Al36 Al70 2.772164 1_545
Al36 Al80 2.772164 1_545
Al37 Mn5 2.523704 1_655
Al37 Mn7 2.523704 1_545
Al37 Al41 2.747884 1_655
Al37 Al39 2.747884 1_645
Al37 Al76 2.772164 1_545
Al37 Al69 2.772164 1_545
Al37 Al73 2.772164 1_555
Al37 Al78 2.772164 1_555
Al38 Mn2 2.523704 1_455
Al38 Mn6 2.523704 1_555
Al38 Al40 2.747884 1_445
Al38 Al68 2.772164 1_555
Al38 Al62 2.772164 1_555
Al38 Al82 2.772164 1_455
Al38 Al85 2.772164 1_455
Al39 Mn3 2.523704 1_565
Al39 Mn7 2.523704 1_455
Al39 Al41 2.747884 1_565
Al39 Al63 2.772164 1_455
Al39 Al65 2.772164 1_455
Al39 Al84 2.772164 1_555
Al39 Al83 2.772164 1_555
Al40 Mn2 2.523705 1_565
Al40 Mn4 2.523705 1_655
Al40 Al64 2.772164 1_555
Al40 Al81 2.772164 1_555
Al40 Al72 2.772164 1_555
Al40 Al74 2.772164 1_555
Al41 Mn3 2.523705 1_555
Al41 Mn5 2.523705 1_555
Al41 Al71 2.772164 1_555
Al41 Al75 2.772164 1_555
Al41 Al79 2.772164 1_555
Al41 Al67 2.772164 1_555
Al42 Al70 2.700747 1_555
Al42 Al62 2.700756 1_555
Al42 Al64 2.700757 1_555
Al42 Al6 2.797864 1_555
Al42 Tm2 3.202425 1_555
Al42 Tm0 3.202427 1_565
Al42 Tm8 3.202435 1_555
Al43 Al73 2.700747 1_555
Al43 Al63 2.700756 1_555
Al43 Al67 2.700757 1_555
Al43 Al8 2.797864 1_555
Al43 Tm5 3.202425 1_655
Al43 Tm1 3.202427 1_555
Al43 Tm9 3.202435 1_555
Al44 Al78 2.700747 1_555
Al44 Al65 2.700756 1_555
Al44 Al71 2.700757 1_555
Al44 Al8 2.797864 1_555
Al44 Tm7 3.202425 1_655
Al44 Tm3 3.202427 1_555
Al44 Tm10 3.202435 1_555
Al45 Al82 2.700747 1_555
Al45 Al66 2.700756 1_555
Al45 Al72 2.700757 1_555
Al45 Al7 2.797870 1_555
Al45 Tm6 3.202425 1_555
Al45 Tm4 3.202427 1_655
Al45 Tm11 3.202435 1_555
Al46 Al80 2.700747 1_555
Al46 Al68 2.700756 1_555
Al46 Al74 2.700757 1_555
Al46 Al6 2.797864 1_555
Al46 Tm4 3.202425 1_555
Al46 Tm6 3.202427 1_565
Al46 Tm11 3.202435 1_555
Al47 Al83 2.700747 1_555
Al47 Al69 2.700756 1_555
Al47 Al75 2.700757 1_555
Al47 Al5 2.797863 1_555
Al47 Al9 2.797870 1_555
Al47 Tm3 3.202425 1_565
Al47 Tm7 3.202427 1_555
Al47 Tm10 3.202435 1_555
Al48 Al84 2.700747 1_555
Al48 Al76 2.700756 1_555
Al48 Al79 2.700757 1_555
Al48 Al5 2.797863 1_555
Al48 Al9 2.797870 1_555
Al48 Tm1 3.202425 1_565
Al48 Tm5 3.202427 1_555
Al48 Tm9 3.202435 1_555
Al49 Al85 2.700747 1_555
Al49 Al77 2.700756 1_555
Al49 Al81 2.700757 1_555
Al49 Al7 2.797870 1_555
Al49 Tm0 3.202425 1_555
Al49 Tm2 3.202427 1_655
Al49 Tm8 3.202435 1_555
Al50 Mn0 2.794888 1_555
Al50 Al77 2.853422 1_555
Al50 Al70 2.853422 1_545
Al50 Al55 2.942920 1_545
Al50 Al59 2.942920 1_555
Al50 Tm1 3.203090 1_555
Al50 Tm0 3.234510 1_555
Al51 Mn0 2.794888 1_655
Al51 Al76 2.853422 1_545
Al51 Al73 2.853422 1_555
Al51 Al52 2.942920 1_655
Al51 Al58 2.942920 1_545
Al51 Tm0 3.203090 1_555
Al51 Tm1 3.234510 1_555
Al52 Mn0 2.794888 1_555
Al52 Al62 2.853422 1_555
Al52 Al85 2.853422 1_455
Al52 Al59 2.942920 1_555
Al52 Tm5 3.203090 1_555
Al52 Tm2 3.234510 1_555
Al53 Mn1 2.794888 1_655
Al53 Al69 2.853422 1_545
Al53 Al78 2.853422 1_555
Al53 Al54 2.942920 1_654
Al53 Al61 2.942920 1_544
Al53 Tm6 3.203090 1_554
Al53 Tm3 3.234510 1_555
Al54 Mn1 2.794888 1_556
Al54 Al68 2.853422 1_555
Al54 Al82 2.853422 1_455
Al54 Al60 2.942920 1_556
Al54 Tm7 3.203090 1_556
Al54 Tm4 3.234510 1_555
Al55 Mn0 2.794888 1_565
Al55 Al63 2.853422 1_455
Al55 Al84 2.853422 1_555
Al55 Al58 2.942920 1_455
Al55 Tm2 3.203090 1_555
Al55 Tm5 3.234510 1_555
Al56 Mn1 2.794888 1_556
Al56 Al66 2.853422 1_555
Al56 Al80 2.853422 1_545
Al56 Al57 2.942920 1_546
Al56 Al60 2.942920 1_556
Al56 Tm3 3.203090 1_556
Al56 Tm6 3.234510 1_555
Al57 Mn1 2.794888 1_565
Al57 Al65 2.853422 1_455
Al57 Al83 2.853422 1_555
Al57 Al61 2.942920 1_454
Al57 Tm4 3.203090 1_554
Al57 Tm7 3.234510 1_555
Al58 Mn0 2.794888 1_665
Al58 Al81 2.853422 1_555
Al58 Al64 2.853422 1_555
Al58 Tm9 3.203090 1_555
Al58 Tm8 3.234510 1_555
Al59 Mn0 2.794888 1_555
Al59 Al79 2.853422 1_555
Al59 Al67 2.853422 1_555
Al59 Tm8 3.203090 1_555
Al59 Tm9 3.234510 1_555
Al60 Mn1 2.794888 1_555
Al60 Al71 2.853422 1_555
Al60 Al75 2.853422 1_555
Al60 Tm11 3.203090 1_554
Al60 Tm10 3.234510 1_555
Al61 Mn1 2.794888 1_666
Al61 Al72 2.853422 1_555
Al61 Al74 2.853422 1_555
Al61 Tm10 3.203090 1_556
Al61 Tm11 3.234510 1_555
Al62 Mn6 2.650251 1_555
Al62 Al68 2.960159 1_555
Al62 Al85 2.978196 1_455
Al62 Tm2 3.062122 1_555
Al62 Tm8 3.273072 1_555
Al63 Mn7 2.650251 1_555
Al63 Al65 2.960159 1_555
Al63 Al84 2.978196 1_655
Al63 Tm5 3.062122 1_655
Al63 Tm9 3.273072 1_555
Al64 Mn2 2.650251 1_565
Al64 Al74 2.960159 1_555
Al64 Al81 2.978196 1_555
Al64 Tm8 3.062122 1_555
Al64 Tm0 3.273072 1_565
Al65 Mn7 2.650251 1_555
Al65 Al83 2.978196 1_655
Al65 Tm7 3.062122 1_655
Al65 Tm10 3.273072 1_555
Al66 Mn6 2.650251 1_555
Al66 Al7 2.755125 1_555
Al66 Al77 2.960159 1_555
Al66 Al80 2.978196 1_545
Al66 Tm6 3.062122 1_555
Al66 Tm11 3.273072 1_555
Al67 Mn3 2.650251 1_555
Al67 Al8 2.755125 1_555
Al67 Al71 2.960159 1_555
Al67 Al79 2.978196 1_555
Al67 Tm9 3.062122 1_555
Al67 Tm1 3.273072 1_555
Al68 Mn6 2.650251 1_555
Al68 Al82 2.978196 1_455
Al68 Tm4 3.062122 1_555
Al68 Tm11 3.273072 1_555
Al69 Mn7 2.650251 1_555
Al69 Al9 2.755125 1_555
Al69 Al76 2.960159 1_555
Al69 Al78 2.978196 1_565
Al69 Tm3 3.062122 1_565
Al69 Tm10 3.273072 1_555
Al70 Mn4 2.650251 1_555
Al70 Al80 2.960159 1_555
Al70 Al77 2.978196 1_565
Al70 Tm0 3.062122 1_565
Al70 Tm2 3.273072 1_555
Al71 Mn3 2.650251 1_555
Al71 Al8 2.755125 1_555
Al71 Al75 2.978196 1_555
Al71 Tm10 3.062122 1_555
Al71 Tm3 3.273072 1_555
Al72 Mn4 2.650251 1_655
Al72 Al81 2.960159 1_555
Al72 Al74 2.978196 1_555
Al72 Tm11 3.062122 1_555
Al72 Tm4 3.273072 1_655
Al73 Mn5 2.650251 1_655
Al73 Al8 2.743433 1_555
Al73 Al78 2.960159 1_555
Al73 Al76 2.978196 1_545
Al73 Tm1 3.062122 1_555
Al73 Tm5 3.273072 1_655
Al74 Mn2 2.650251 1_565
Al74 Tm11 3.062122 1_555
Al74 Tm6 3.273072 1_565
Al75 Mn5 2.650251 1_555
Al75 Al9 2.743433 1_555
Al75 Al79 2.960159 1_555
Al75 Tm10 3.062122 1_555
Al75 Tm7 3.273072 1_555
Al76 Mn7 2.650251 1_555
Al76 Al9 2.755125 1_555
Al76 Tm1 3.062122 1_565
Al76 Tm9 3.273072 1_555
Al77 Mn6 2.650251 1_555
Al77 Tm0 3.062122 1_555
Al77 Tm8 3.273072 1_555
Al78 Mn5 2.650251 1_655
Al78 Al8 2.743433 1_555
Al78 Tm3 3.062122 1_555
Al78 Tm7 3.273072 1_655
Al79 Mn5 2.650251 1_555
Al79 Al9 2.743433 1_555
Al79 Tm9 3.062122 1_555
Al79 Tm5 3.273072 1_555
Al80 Mn4 2.650251 1_555
Al80 Tm6 3.062122 1_565
Al80 Tm4 3.273072 1_555
Al81 Mn4 2.650251 1_655
Al81 Tm8 3.062122 1_555
Al81 Tm2 3.273072 1_655
Al82 Mn2 2.650251 1_555
Al82 Al85 2.960159 1_555
Al82 Tm4 3.062122 1_655
Al82 Tm6 3.273072 1_555
Al83 Mn3 2.650251 1_565
Al83 Al84 2.960159 1_555
Al83 Tm7 3.062122 1_555
Al83 Tm3 3.273072 1_565
Al84 Mn3 2.650251 1_565
Al84 Tm5 3.062122 1_555
Al84 Tm1 3.273072 1_565
Al85 Mn2 2.650251 1_555
Al85 Tm2 3.062122 1_655
Al85 Tm0 3.273072 1_555
