# generated using pymatgen
data_Ba6MgNb2Ir(ClO6)2
_symmetry_space_group_name_H-M   'P 1'
_cell_length_a   6.14561168
_cell_length_b   6.14566495
_cell_length_c   15.57416083
_cell_angle_alpha   96.14563257
_cell_angle_beta   83.85454239
_cell_angle_gamma   122.29516093
_symmetry_Int_Tables_number   1
_chemical_formula_structural   Ba6MgNb2Ir(ClO6)2
_chemical_formula_sum   'Ba6 Mg1 Nb2 Ir1 Cl2 O12'
_cell_volume   493.49704742
_cell_formula_units_Z   1
loop_
 _symmetry_equiv_pos_site_id
 _symmetry_equiv_pos_as_xyz
  1  'x, y, z'
loop_
 _atom_site_type_symbol
 _atom_site_label
 _atom_site_symmetry_multiplicity
 _atom_site_fract_x
 _atom_site_fract_y
 _atom_site_fract_z
 _atom_site_occupancy
  Ba  Ba0  1  0.33454700  0.66543200  0.37107000  1
  Ba  Ba1  1  0.33866200  0.66136200  0.78534400  1
  Ba  Ba2  1  0.69481900  0.30521000  0.64232800  1
  Ba  Ba3  1  0.63269900  0.36732200  0.91572100  1
  Ba  Ba4  1  0.27586700  0.72415000  0.03228000  1
  Ba  Ba5  1  0.71731000  0.28265900  0.23788000  1
  Mg  Mg0  1  0.46559600  0.53438300  0.16152800  1
  Nb  Nb0  1  0.99100900  0.00900700  0.81600400  1
  Nb  Nb1  1  0.02582400  0.97415800  0.17722800  1
  Ir  Ir0  1  0.98577700  0.01420700  0.00219800  1
  Cl  Cl0  1  0.69718300  0.30279700  0.43742400  1
  Cl  Cl1  1  0.33485100  0.66516300  0.58111500  1
  O  O0  1  0.14487900  0.31613800  0.91946700  1
  O  O1  1  0.31775200  0.18350800  0.75352700  1
  O  O2  1  0.21140500  0.30892800  0.25299400  1
  O  O3  1  0.81653800  0.68229000  0.75352400  1
  O  O4  1  0.83069500  0.16931600  0.77036600  1
  O  O5  1  0.79517600  0.68580200  0.07935700  1
  O  O6  1  0.19219100  0.80778300  0.21980000  1
  O  O7  1  0.31418700  0.20480500  0.07935900  1
  O  O8  1  0.84946400  0.15052300  0.10372600  1
  O  O9  1  0.68386200  0.85511300  0.91946300  1
  O  O10  1  0.69104700  0.78859300  0.25299200  1
  O  O11  1  0.13782800  0.86218500  0.90048300  1
loop_
_geom_bond_atom_site_label_1
_geom_bond_atom_site_label_2
_geom_bond_distance
_geom_bond_site_symmetry_2
Ba0 O10 2.533411 1_555
Ba0 O2 2.533422 1_555
Ba0 O6 2.963350 1_555
Ba0 Cl1 3.271653 1_555
Ba0 Cl0 3.417010 1_455
Ba0 Cl0 3.417034 1_565
Ba1 O11 2.634795 1_555
Ba1 O9 2.828152 1_555
Ba1 O0 2.828297 1_555
Ba1 O1 2.860986 1_555
Ba1 O3 2.861044 1_555
Ba1 O4 2.976788 1_565
Ba1 O4 2.976862 1_455
Ba1 Cl1 3.185963 1_555
Ba1 O3 3.369489 1_455
Ba1 O1 3.369576 1_565
Ba2 O1 2.548455 1_555
Ba2 O3 2.548476 1_555
Ba2 O4 2.613323 1_555
Ba2 Cl0 3.188167 1_555
Ba2 Cl1 3.409527 1_655
Ba2 Cl1 3.409624 1_545
Ba3 O9 2.836964 1_555
Ba3 O0 2.837051 1_555
Ba3 O4 2.913546 1_555
Ba3 O5 2.951480 1_556
Ba3 O7 2.951603 1_556
Ba3 O11 2.975041 1_655
Ba3 O11 2.975088 1_545
Ba3 O1 3.082650 1_555
Ba3 O3 3.082765 1_555
Ba3 O0 3.333372 1_655
Ba3 O9 3.333490 1_545
Ba4 O11 2.677171 1_554
Ba4 O9 2.687934 1_554
Ba4 O0 2.687961 1_554
Ba4 O7 2.854599 1_565
Ba4 O5 2.854708 1_455
Ba4 O6 2.949107 1_555
Ba4 Mg0 3.038060 1_555
Ba4 O8 3.297868 1_565
Ba4 O8 3.298051 1_455
Ba5 O8 2.379610 1_555
Ba5 O10 2.986997 1_545
Ba5 O2 2.987134 1_655
Ba5 Cl0 3.088739 1_555
Ba5 O2 3.181111 1_555
Ba5 O10 3.181294 1_555
Mg0 O2 2.005651 1_555
Mg0 O10 2.005653 1_555
Mg0 O7 2.071736 1_555
Mg0 O5 2.071755 1_555
Nb0 O3 1.905965 1_545
Nb0 O1 1.906059 1_655
Nb0 O4 1.945140 1_555
Nb0 O11 2.176623 1_645
Nb0 O0 2.195715 1_655
Nb0 O9 2.195731 1_545
Nb1 O6 1.984394 1_555
Nb1 O10 2.046207 1_455
Nb1 O2 2.046209 1_565
Nb1 O7 2.161739 1_565
Nb1 O5 2.161741 1_455
Nb1 O8 2.333777 1_465
Ir0 O8 2.021519 1_555
Ir0 O9 2.088681 1_544
Ir0 O0 2.088723 1_654
Ir0 O11 2.134146 1_644
Ir0 O5 2.140384 1_545
Ir0 O7 2.140407 1_655
