# generated using pymatgen
data_Ca3Mg9Al8(SiO4)12
_symmetry_space_group_name_H-M   'P 1'
_cell_length_a   10.11277693
_cell_length_b   10.11277693
_cell_length_c   11.60312097
_cell_angle_alpha   54.98126241
_cell_angle_beta   54.98126241
_cell_angle_gamma   70.51678250
_symmetry_Int_Tables_number   1
_chemical_formula_structural   Ca3Mg9Al8(SiO4)12
_chemical_formula_sum   'Ca3 Mg9 Al8 Si12 O48'
_cell_volume   795.86076384
_cell_formula_units_Z   1
loop_
 _symmetry_equiv_pos_site_id
 _symmetry_equiv_pos_as_xyz
  1  'x, y, z'
loop_
 _atom_site_type_symbol
 _atom_site_label
 _atom_site_symmetry_multiplicity
 _atom_site_fract_x
 _atom_site_fract_y
 _atom_site_fract_z
 _atom_site_occupancy
  Ca  Ca0  1  0.12401100  0.62559200  0.37611800  1
  Ca  Ca1  1  0.37440800  0.87598900  0.62388200  1
  Ca  Ca2  1  0.37539100  0.62460900  0.00000000  1
  Mg  Mg0  1  0.12440400  0.87559600  0.50000000  1
  Mg  Mg1  1  0.75210800  0.75055100  0.62396300  1
  Mg  Mg2  1  0.24944900  0.24789200  0.37603700  1
  Mg  Mg3  1  0.87504200  0.37448300  0.12503300  1
  Mg  Mg4  1  0.62551700  0.12495800  0.87496700  1
  Mg  Mg5  1  0.62550300  0.37449700  0.50000000  1
  Mg  Mg6  1  0.87445100  0.12554900  0.00000000  1
  Mg  Mg7  1  0.24948600  0.25010000  0.87544700  1
  Mg  Mg8  1  0.74990000  0.75051400  0.12455300  1
  Al  Al0  1  0.99518500  0.49733600  0.25253200  1
  Al  Al1  1  0.99785600  0.49772300  0.75336700  1
  Al  Al2  1  0.50266400  0.00481500  0.74746800  1
  Al  Al3  1  0.50227700  0.00214400  0.24663300  1
  Al  Al4  1  0.50500800  0.49888000  0.24910200  1
  Al  Al5  1  0.50112000  0.49499200  0.75089800  1
  Al  Al6  1  0.99987000  0.00399700  0.24865700  1
  Al  Al7  1  0.99600300  0.00013000  0.75134300  1
  Si  Si0  1  0.37924300  0.87972800  0.12179200  1
  Si  Si1  1  0.12027200  0.62075700  0.87820800  1
  Si  Si2  1  0.62951000  0.37049000  0.00000000  1
  Si  Si3  1  0.87474500  0.12525500  0.50000000  1
  Si  Si4  1  0.74985700  0.74969300  0.37537600  1
  Si  Si5  1  0.25030700  0.25014300  0.62462400  1
  Si  Si6  1  0.62948300  0.12964700  0.37058200  1
  Si  Si7  1  0.87035300  0.37051700  0.62941800  1
  Si  Si8  1  0.37507500  0.62492500  0.50000000  1
  Si  Si9  1  0.12064900  0.87935100  0.00000000  1
  Si  Si10  1  0.24914600  0.24869200  0.12613500  1
  Si  Si11  1  0.75130800  0.75085400  0.87386500  1
  O  O0  1  0.07891800  0.47977100  0.87352400  1
  O  O1  1  0.98080800  0.57949700  0.06632400  1
  O  O2  1  0.52022900  0.92108200  0.12647600  1
  O  O3  1  0.42050300  0.01919200  0.93367600  1
  O  O4  1  0.87746300  0.31234700  0.35432300  1
  O  O5  1  0.68765300  0.12253700  0.64567700  1
  O  O6  1  0.62396700  0.18423200  0.04496000  1
  O  O7  1  0.81576800  0.37603300  0.95504000  1
  O  O8  1  0.39591900  0.20407100  0.66757700  1
  O  O9  1  0.10567800  0.29818900  0.76528100  1
  O  O10  1  0.70181100  0.89432200  0.23471900  1
  O  O11  1  0.79592900  0.60408100  0.33242300  1
  O  O12  1  0.90938700  0.50817300  0.64017100  1
  O  O13  1  0.00828500  0.40830700  0.44239100  1
  O  O14  1  0.49182700  0.09061300  0.35982900  1
  O  O15  1  0.59169300  0.99171500  0.55760900  1
  O  O16  1  0.10827600  0.69139100  0.14654700  1
  O  O17  1  0.30860900  0.89172400  0.85345300  1
  O  O18  1  0.37945600  0.81487900  0.44755000  1
  O  O19  1  0.18512100  0.62054400  0.55245000  1
  O  O20  1  0.60922600  0.80273500  0.82486200  1
  O  O21  1  0.89461500  0.70069400  0.73367800  1
  O  O22  1  0.29930600  0.10538500  0.26632200  1
  O  O23  1  0.19726500  0.39077400  0.17513800  1
  O  O24  1  0.58970100  0.50787000  0.85179300  1
  O  O25  1  0.49213000  0.41029900  0.14820700  1
  O  O26  1  0.01588900  0.07931600  0.54868500  1
  O  O27  1  0.92068400  0.98411100  0.45131500  1
  O  O28  1  0.39104300  0.69211900  0.16222900  1
  O  O29  1  0.19228800  0.89158900  0.25880400  1
  O  O30  1  0.10841100  0.80771200  0.74119600  1
  O  O31  1  0.30788100  0.60895700  0.83777100  1
  O  O32  1  0.89105900  0.80281500  0.37196300  1
  O  O33  1  0.60769100  0.69718500  0.56587200  1
  O  O34  1  0.19718500  0.10894100  0.62803700  1
  O  O35  1  0.30281500  0.39230900  0.43412800  1
  O  O36  1  0.41923500  0.48363600  0.64486700  1
  O  O37  1  0.51636400  0.58076500  0.35513200  1
  O  O38  1  0.98121300  0.92134500  0.95129300  1
  O  O39  1  0.07865500  0.01878700  0.04870700  1
  O  O40  1  0.62435200  0.31613700  0.33130200  1
  O  O41  1  0.81621300  0.12363900  0.23045700  1
  O  O42  1  0.87636100  0.18378700  0.76954300  1
  O  O43  1  0.68386300  0.37564800  0.66869800  1
  O  O44  1  0.10413600  0.20456200  0.12805200  1
  O  O45  1  0.39507100  0.29499200  0.93799100  1
  O  O46  1  0.79543800  0.89586400  0.87194800  1
  O  O47  1  0.70500800  0.60492900  0.06200900  1
loop_
_geom_bond_atom_site_label_1
_geom_bond_atom_site_label_2
_geom_bond_distance
_geom_bond_site_symmetry_2
Ca0 O12 2.328027 1_455
Ca0 O28 2.346948 1_555
Ca0 O29 2.350204 1_555
Ca0 O13 2.352152 1_555
Ca0 O19 2.425052 1_555
Ca0 O16 2.438275 1_555
Ca0 O32 2.445181 1_455
Ca0 O35 2.452967 1_555
Ca1 O14 2.328027 1_565
Ca1 O31 2.346948 1_555
Ca1 O30 2.350204 1_555
Ca1 O15 2.352152 1_555
Ca1 O18 2.425052 1_555
Ca1 O17 2.438275 1_555
Ca1 O34 2.445181 1_565
Ca1 O33 2.452967 1_555
Ca2 O24 2.322469 1_554
Ca2 O25 2.322469 1_555
Ca2 O16 2.339609 1_555
Ca2 O17 2.339609 1_554
Ca2 O28 2.433802 1_555
Ca2 O31 2.433802 1_554
Ca2 O20 2.468086 1_554
Ca2 O23 2.468086 1_555
Mg0 O27 2.209930 1_455
Mg0 O26 2.209930 1_565
Mg0 O18 2.229571 1_555
Mg0 O19 2.229571 1_555
Mg0 O29 2.383136 1_555
Mg0 O30 2.383136 1_555
Mg0 O22 2.426234 1_565
Mg0 O21 2.426234 1_455
Mg1 O32 2.193122 1_555
Mg1 O21 2.199080 1_555
Mg1 O20 2.199469 1_555
Mg1 O33 2.225208 1_555
Mg1 O12 2.405572 1_555
Mg1 O15 2.410736 1_555
Mg1 O27 2.415404 1_555
Mg1 O24 2.443080 1_555
Mg2 O34 2.193122 1_555
Mg2 O22 2.199080 1_555
Mg2 O23 2.199469 1_555
Mg2 O35 2.225208 1_555
Mg2 O14 2.405572 1_555
Mg2 O13 2.410736 1_555
Mg2 O26 2.415404 1_555
Mg2 O25 2.443080 1_555
Mg3 O0 2.212180 1_654
Mg3 O41 2.212559 1_555
Mg3 O40 2.217389 1_555
Mg3 O1 2.220041 1_555
Mg3 O7 2.359092 1_554
Mg3 O4 2.370534 1_555
Mg3 O44 2.385354 1_655
Mg3 O47 2.395135 1_555
Mg4 O2 2.212180 1_546
Mg4 O42 2.212559 1_555
Mg4 O43 2.217389 1_555
Mg4 O3 2.220041 1_555
Mg4 O6 2.359092 1_556
Mg4 O5 2.370534 1_555
Mg4 O46 2.385354 1_545
Mg4 O45 2.395135 1_555
Mg5 O5 2.225430 1_555
Mg5 O4 2.225430 1_555
Mg5 O36 2.228029 1_555
Mg5 O37 2.228035 1_555
Mg5 O40 2.352985 1_555
Mg5 O43 2.352985 1_555
Mg5 O8 2.404904 1_555
Mg5 O11 2.404904 1_555
Mg6 O7 2.208347 1_554
Mg6 O6 2.208347 1_555
Mg6 O39 2.213926 1_655
Mg6 O38 2.213926 1_544
Mg6 O41 2.374549 1_555
Mg6 O42 2.374549 1_554
Mg6 O10 2.427024 1_545
Mg6 O9 2.427024 1_654
Mg7 O44 2.218407 1_556
Mg7 O9 2.221209 1_555
Mg7 O45 2.224977 1_555
Mg7 O8 2.226328 1_555
Mg7 O0 2.383820 1_555
Mg7 O3 2.395147 1_555
Mg7 O39 2.410506 1_556
Mg7 O36 2.421570 1_555
Mg8 O46 2.218407 1_554
Mg8 O10 2.221209 1_555
Mg8 O47 2.224977 1_555
Mg8 O11 2.226328 1_555
Mg8 O2 2.383820 1_555
Mg8 O1 2.395147 1_555
Mg8 O38 2.410506 1_554
Mg8 O37 2.421568 1_555
Al0 O1 1.897179 1_555
Al0 O11 1.907522 1_555
Al0 O4 1.909974 1_555
Al0 O13 1.913173 1_655
Al0 O23 1.918178 1_655
Al0 O16 1.945423 1_655
Al1 O0 1.889627 1_655
Al1 O7 1.908472 1_555
Al1 O21 1.913490 1_555
Al1 O12 1.913882 1_555
Al1 O9 1.914393 1_655
Al1 O19 1.934631 1_655
Al2 O3 1.897179 1_555
Al2 O8 1.907522 1_555
Al2 O5 1.909974 1_555
Al2 O15 1.913173 1_545
Al2 O20 1.918178 1_545
Al2 O17 1.945423 1_545
Al3 O2 1.889627 1_545
Al3 O6 1.908472 1_555
Al3 O22 1.913490 1_555
Al3 O14 1.913882 1_555
Al3 O10 1.914393 1_545
Al3 O18 1.934631 1_545
Al4 O40 1.895235 1_555
Al4 O37 1.899296 1_555
Al4 O25 1.909540 1_555
Al4 O47 1.920759 1_555
Al4 O35 1.930782 1_555
Al4 O28 1.932190 1_555
Al5 O43 1.895235 1_555
Al5 O36 1.899307 1_555
Al5 O24 1.909540 1_555
Al5 O45 1.920759 1_555
Al5 O33 1.930782 1_555
Al5 O31 1.932190 1_555
Al6 O39 1.897246 1_655
Al6 O27 1.901226 1_545
Al6 O41 1.901551 1_555
Al6 O44 1.913002 1_655
Al6 O29 1.930369 1_645
Al6 O32 1.934640 1_545
Al7 O38 1.897246 1_545
Al7 O26 1.901226 1_655
Al7 O42 1.901551 1_555
Al7 O46 1.913002 1_545
Al7 O30 1.930369 1_645
Al7 O34 1.934640 1_655
O0 Si1 1.650272 1_555
O1 Si1 1.655821 1_654
O2 Si0 1.650272 1_555
O3 Si0 1.655821 1_546
O4 Si3 1.657886 1_555
O5 Si3 1.657886 1_555
O6 Si2 1.652970 1_555
O7 Si2 1.652970 1_556
O8 Si5 1.658908 1_555
O9 Si5 1.653892 1_555
O10 Si4 1.653892 1_555
O11 Si4 1.658908 1_555
O12 Si7 1.652789 1_555
O13 Si7 1.652499 1_455
O14 Si6 1.652789 1_555
O15 Si6 1.652499 1_565
O16 Si9 1.650774 1_555
O17 Si9 1.650774 1_556
O18 Si8 1.657268 1_555
O19 Si8 1.657268 1_555
O20 Si11 1.659960 1_555
O21 Si11 1.659680 1_555
O22 Si10 1.659680 1_555
O23 Si10 1.659960 1_555
O24 Si2 1.651952 1_556
O25 Si2 1.651952 1_555
O26 Si3 1.659564 1_455
O27 Si3 1.659564 1_565
O28 Si0 1.650915 1_555
O29 Si0 1.653557 1_555
O30 Si1 1.653557 1_555
O31 Si1 1.650915 1_555
O32 Si4 1.658789 1_555
O33 Si4 1.658204 1_555
O34 Si5 1.658789 1_555
O35 Si5 1.658204 1_555
O36 Si8 1.657070 1_555
O37 Si8 1.657078 1_555
O38 Si9 1.651602 1_656
O39 Si9 1.651602 1_545
O40 Si6 1.656057 1_555
O41 Si6 1.651133 1_555
O42 Si7 1.651133 1_555
O43 Si7 1.656057 1_555
O44 Si10 1.654651 1_555
O45 Si10 1.659259 1_556
O46 Si11 1.654651 1_555
O47 Si11 1.659259 1_554
