# generated using pymatgen
data_AlF3
_symmetry_space_group_name_H-M   'P 1'
_cell_length_a   9.46442348
_cell_length_b   3.63785442
_cell_length_c   5.90074896
_cell_angle_alpha   90.61115663
_cell_angle_beta   149.76315030
_cell_angle_gamma   88.85936181
_symmetry_Int_Tables_number   1
_chemical_formula_structural   AlF3
_chemical_formula_sum   'Al2 F6'
_cell_volume   102.27953987
_cell_formula_units_Z   2
loop_
 _symmetry_equiv_pos_site_id
 _symmetry_equiv_pos_as_xyz
  1  'x, y, z'
loop_
 _atom_site_type_symbol
 _atom_site_label
 _atom_site_symmetry_multiplicity
 _atom_site_fract_x
 _atom_site_fract_y
 _atom_site_fract_z
 _atom_site_occupancy
  Al  Al0  1  0.55511600  0.30589800  0.03518600  1
  Al  Al1  1  0.83041400  0.30551600  0.84712800  1
  F  F0  1  0.19322100  0.30575300  0.44071900  1
  F  F1  1  0.69402600  0.30582700  0.94325900  1
  F  F2  1  0.83598800  0.80547900  0.85950000  1
  F  F3  1  0.54885300  0.80597100  0.02216000  1
  F  F4  1  0.91172700  0.29366600  0.65465600  1
  F  F5  1  0.47351800  0.31761900  0.22739100  1
loop_
_geom_bond_atom_site_label_1
_geom_bond_atom_site_label_2
_geom_bond_distance
_geom_bond_site_symmetry_2
Al0 F1 1.804137 1_554
Al0 F0 1.809981 1_554
Al0 F3 1.819258 1_555
Al0 F3 1.819447 1_545
Al0 F5 1.842724 1_555
Al0 F4 1.853353 1_555
Al1 F1 1.803649 1_555
Al1 F0 1.810351 1_656
Al1 F2 1.819191 1_545
Al1 F2 1.819465 1_555
Al1 F4 1.841704 1_555
Al1 F5 1.854293 1_555
