# generated using pymatgen
data_AsPPt
_symmetry_space_group_name_H-M   'P 1'
_cell_length_a   5.91058500
_cell_length_b   5.91058500
_cell_length_c   5.91058500
_cell_angle_alpha   90.00000000
_cell_angle_beta   90.00000000
_cell_angle_gamma   90.00000000
_symmetry_Int_Tables_number   1
_chemical_formula_structural   AsPPt
_chemical_formula_sum   'As4 P4 Pt4'
_cell_volume   206.48637588
_cell_formula_units_Z   4
loop_
 _symmetry_equiv_pos_site_id
 _symmetry_equiv_pos_as_xyz
  1  'x, y, z'
loop_
 _atom_site_type_symbol
 _atom_site_label
 _atom_site_symmetry_multiplicity
 _atom_site_fract_x
 _atom_site_fract_y
 _atom_site_fract_z
 _atom_site_occupancy
  As  As0  1  0.11285700  0.88714300  0.38714300  1
  As  As1  1  0.88714300  0.38714300  0.11285700  1
  As  As2  1  0.38714300  0.11285700  0.88714300  1
  As  As3  1  0.61285700  0.61285700  0.61285700  1
  P  P0  1  0.88539600  0.11460400  0.61460400  1
  P  P1  1  0.11460400  0.61460400  0.88539600  1
  P  P2  1  0.61460400  0.88539600  0.11460400  1
  P  P3  1  0.38539600  0.38539600  0.38539600  1
  Pt  Pt0  1  0.49085900  0.50914100  0.00914100  1
  Pt  Pt1  1  0.50914100  0.00914100  0.49085900  1
  Pt  Pt2  1  0.00914100  0.49085900  0.50914100  1
  Pt  Pt3  1  0.99085900  0.99085900  0.99085900  1
loop_
_geom_bond_atom_site_label_1
_geom_bond_atom_site_label_2
_geom_bond_distance
_geom_bond_site_symmetry_2
As0 P0 2.328617 1_465
As0 Pt1 2.526258 1_565
As0 Pt3 2.526258 1_454
As0 Pt2 2.526258 1_555
As1 P1 2.328617 1_654
As1 Pt3 2.526258 1_544
As1 Pt2 2.526258 1_655
As1 Pt0 2.526258 1_555
As2 P2 2.328617 1_546
As2 Pt3 2.526258 1_445
As2 Pt1 2.526258 1_555
As2 Pt0 2.526258 1_556
As3 P3 2.328617 1_555
As3 Pt2 2.526258 1_655
As3 Pt0 2.526258 1_556
As3 Pt1 2.526258 1_565
P0 Pt3 2.422641 1_545
P0 Pt2 2.422641 1_655
P0 Pt1 2.422641 1_555
P1 Pt2 2.422641 1_555
P1 Pt0 2.422641 1_556
P1 Pt3 2.422641 1_455
P2 Pt3 2.422641 1_554
P2 Pt0 2.422641 1_555
P2 Pt1 2.422641 1_565
P3 Pt2 2.422641 1_555
P3 Pt0 2.422641 1_555
P3 Pt1 2.422641 1_555
