# generated using pymatgen
data_Mg6Si5
_symmetry_space_group_name_H-M   'P 1'
_cell_length_a   15.53393393
_cell_length_b   15.53393393
_cell_length_c   7.02591244
_cell_angle_alpha   88.68592278
_cell_angle_beta   88.68592278
_cell_angle_gamma   14.67867175
_symmetry_Int_Tables_number   1
_chemical_formula_structural   Mg6Si5
_chemical_formula_sum   'Mg12 Si10'
_cell_volume   429.48941087
_cell_formula_units_Z   2
loop_
 _symmetry_equiv_pos_site_id
 _symmetry_equiv_pos_as_xyz
  1  'x, y, z'
loop_
 _atom_site_type_symbol
 _atom_site_label
 _atom_site_symmetry_multiplicity
 _atom_site_fract_x
 _atom_site_fract_y
 _atom_site_fract_z
 _atom_site_occupancy
  Mg  Mg0  1  0.72108900  0.72108900  0.95047300  1
  Mg  Mg1  1  0.99392200  0.99392200  0.51732300  1
  Mg  Mg2  1  0.56564800  0.56564800  0.69856100  1
  Mg  Mg3  1  0.41935400  0.41935400  0.32936900  1
  Mg  Mg4  1  0.83642800  0.83642800  0.38596600  1
  Mg  Mg5  1  0.15837000  0.15837000  0.70831100  1
  Mg  Mg6  1  0.52846600  0.52846600  0.20775800  1
  Mg  Mg7  1  0.45699400  0.45699400  0.83291300  1
  Mg  Mg8  1  0.27695800  0.27695800  0.71811300  1
  Mg  Mg9  1  0.17361600  0.17361600  0.22305400  1
  Mg  Mg10  1  0.72470600  0.72470600  0.48522200  1
  Mg  Mg11  1  0.27265400  0.27265400  0.21507400  1
  Si  Si0  1  0.96604600  0.96604600  0.14337300  1
  Si  Si1  1  0.01929600  0.01929600  0.89363400  1
  Si  Si2  1  0.63221700  0.63221700  0.98957700  1
  Si  Si3  1  0.34972600  0.34972600  0.01612900  1
  Si  Si4  1  0.90818000  0.90818000  0.64445000  1
  Si  Si5  1  0.08421100  0.08421100  0.40070300  1
  Si  Si6  1  0.63376300  0.63376300  0.43232200  1
  Si  Si7  1  0.36125700  0.36125700  0.65062200  1
  Si  Si8  1  0.89470700  0.89470700  0.00682700  1
  Si  Si9  1  0.08793000  0.08793000  0.04654700  1
loop_
_geom_bond_atom_site_label_1
_geom_bond_atom_site_label_2
_geom_bond_distance
_geom_bond_site_symmetry_2
Mg0 Si2 2.745861 1_555
Mg1 Si4 2.769259 1_555
Mg1 Si1 2.774392 1_665
Mg1 Si0 2.782998 1_555
Mg1 Si5 2.882021 1_665
Mg2 Si6 2.778966 1_555
Mg2 Si1 2.786693 1_655
Mg2 Si1 2.786693 1_565
Mg2 Si2 2.929510 1_555
Mg2 Si5 2.930719 1_565
Mg2 Si5 2.930719 1_655
Mg2 Si9 3.234882 1_566
Mg2 Si9 3.234882 1_656
Mg3 Si0 2.761979 1_455
Mg3 Si0 2.761979 1_545
Mg3 Si7 2.848211 1_555
Mg3 Si4 2.986924 1_545
Mg3 Si4 2.986924 1_455
Mg3 Si3 3.108843 1_555
Mg3 Si8 3.119233 1_455
Mg3 Si8 3.119233 1_545
Mg4 Si7 2.836630 1_655
Mg4 Si7 2.836630 1_565
Mg4 Si4 2.893442 1_555
Mg4 Si8 3.177954 1_555
Mg5 Si6 2.888029 1_545
Mg5 Si6 2.888029 1_455
Mg5 Si2 2.901507 1_545
Mg5 Si2 2.901507 1_455
Mg5 Si9 3.181172 1_556
Mg5 Si5 3.181336 1_555
Mg6 Si0 2.807494 1_455
Mg6 Si0 2.807494 1_545
Mg6 Si9 2.912388 1_565
Mg6 Si9 2.912388 1_655
Mg6 Si5 2.972143 1_565
Mg6 Si5 2.972143 1_655
Mg6 Si1 2.986196 1_564
Mg6 Si1 2.986196 1_654
Mg7 Si1 2.800546 1_655
Mg7 Si1 2.800546 1_565
Mg7 Si4 2.836477 1_545
Mg7 Si4 2.836477 1_455
Mg7 Si0 2.966759 1_456
Mg7 Si0 2.966759 1_546
Mg7 Si8 3.001000 1_546
Mg7 Si8 3.001000 1_456
Mg8 Si7 2.629652 1_555
Mg8 Si3 3.103035 1_556
Mg9 Si6 2.743006 1_455
Mg9 Si6 2.743006 1_545
Mg9 Si2 2.890106 1_544
Mg9 Si2 2.890106 1_454
Mg9 Si9 2.942848 1_555
Mg9 Si5 2.998023 1_555
Mg10 Si6 2.835303 1_555
Mg11 Si3 2.727662 1_555
Si0 Si1 2.374425 1_664
Si0 Si8 2.418666 1_555
Si1 Si9 2.394131 1_556
Si2 Si9 2.436181 1_566
Si2 Si9 2.436181 1_656
Si3 Si8 2.420522 1_455
Si3 Si8 2.420522 1_545
Si3 Si7 2.584333 1_554
Si4 Si7 2.455052 1_655
Si4 Si7 2.455052 1_565
Si4 Si8 2.570162 1_556
Si5 Si9 2.488258 1_555
Si5 Si6 2.516774 1_545
Si5 Si6 2.516774 1_455
