# generated using pymatgen
data_Nd2CdRh2
_symmetry_space_group_name_H-M   'P 1'
_cell_length_a   7.58419461
_cell_length_b   7.58419461
_cell_length_c   3.90491283
_cell_angle_alpha   90.00000000
_cell_angle_beta   90.00000000
_cell_angle_gamma   90.00000000
_symmetry_Int_Tables_number   1
_chemical_formula_structural   Nd2CdRh2
_chemical_formula_sum   'Nd4 Cd2 Rh4'
_cell_volume   224.61061676
_cell_formula_units_Z   2
loop_
 _symmetry_equiv_pos_site_id
 _symmetry_equiv_pos_as_xyz
  1  'x, y, z'
loop_
 _atom_site_type_symbol
 _atom_site_label
 _atom_site_symmetry_multiplicity
 _atom_site_fract_x
 _atom_site_fract_y
 _atom_site_fract_z
 _atom_site_occupancy
  Nd  Nd0  1  0.66890355  0.16890355  0.50000000  1
  Nd  Nd1  1  0.33109645  0.83109645  0.50000000  1
  Nd  Nd2  1  0.16890355  0.33109645  0.50000000  1
  Nd  Nd3  1  0.83109645  0.66890355  0.50000000  1
  Cd  Cd0  1  -0.00000000  0.00000000  -0.00000000  1
  Cd  Cd1  1  0.50000000  0.50000000  -0.00000000  1
  Rh  Rh0  1  0.13337256  0.63337256  0.00000000  1
  Rh  Rh1  1  0.86662744  0.36662744  -0.00000000  1
  Rh  Rh2  1  0.63337256  0.86662744  -0.00000000  1
  Rh  Rh3  1  0.36662744  0.13337256  0.00000000  1
loop_
_geom_bond_atom_site_label_1
_geom_bond_atom_site_label_2
_geom_bond_distance
_geom_bond_site_symmetry_2
Nd0 Rh1 2.882628 1_555
Nd0 Rh1 2.882628 1_556
Nd0 Rh3 3.023302 1_555
Nd0 Rh3 3.023302 1_556
Nd0 Rh2 3.023302 1_546
Nd0 Rh2 3.023302 1_545
Nd1 Rh0 2.882628 1_555
Nd1 Rh0 2.882628 1_556
Nd1 Rh2 3.023302 1_556
Nd1 Rh2 3.023302 1_555
Nd1 Rh3 3.023302 1_566
Nd1 Rh3 3.023302 1_565
Nd2 Rh3 2.882628 1_555
Nd2 Rh3 2.882628 1_556
Nd2 Rh1 3.023302 1_455
Nd2 Rh1 3.023302 1_456
Nd2 Rh0 3.023302 1_555
Nd2 Rh0 3.023302 1_556
Nd3 Rh2 2.882628 1_556
Nd3 Rh2 2.882628 1_555
Nd3 Rh1 3.023302 1_555
Nd3 Rh1 3.023302 1_556
Nd3 Rh0 3.023302 1_655
Nd3 Rh0 3.023302 1_656
Cd0 Rh2 2.958846 1_445
Cd0 Rh1 2.958846 1_455
Cd0 Rh3 2.958846 1_555
Cd0 Rh0 2.958846 1_545
Cd0 Nd1 3.429091 1_545
Cd0 Nd2 3.429091 1_554
Cd0 Nd1 3.429091 1_544
Cd0 Nd0 3.429091 1_455
Cd0 Nd2 3.429091 1_555
Cd0 Nd0 3.429091 1_454
Cd0 Nd3 3.429091 1_444
Cd0 Nd3 3.429091 1_445
Cd1 Rh2 2.958846 1_555
Cd1 Rh0 2.958846 1_555
Cd1 Rh1 2.958846 1_555
Cd1 Rh3 2.958846 1_555
Cd1 Nd2 3.429091 1_554
Cd1 Nd3 3.429091 1_554
Cd1 Nd0 3.429091 1_554
Cd1 Nd2 3.429091 1_555
Cd1 Nd1 3.429091 1_554
Cd1 Nd0 3.429091 1_555
Cd1 Nd3 3.429091 1_555
Cd1 Nd1 3.429091 1_555
Rh0 Rh1 2.861020 1_455
Rh2 Rh3 2.861020 1_565
