# generated using pymatgen
data_Li7Mn4(P2O7)4
_symmetry_space_group_name_H-M   'P 1'
_cell_length_a   9.89179000
_cell_length_b   9.91363853
_cell_length_c   11.36553480
_cell_angle_alpha   102.93090570
_cell_angle_beta   89.87622870
_cell_angle_gamma   90.55645231
_symmetry_Int_Tables_number   1
_chemical_formula_structural   Li7Mn4(P2O7)4
_chemical_formula_sum   'Li14 Mn8 P16 O56'
_cell_volume   1086.23020128
_cell_formula_units_Z   2
loop_
 _symmetry_equiv_pos_site_id
 _symmetry_equiv_pos_as_xyz
  1  'x, y, z'
loop_
 _atom_site_type_symbol
 _atom_site_label
 _atom_site_symmetry_multiplicity
 _atom_site_fract_x
 _atom_site_fract_y
 _atom_site_fract_z
 _atom_site_occupancy
  Li  Li0  1  0.27947600  0.11211500  0.44613800  1
  Li  Li1  1  0.58672700  0.17925700  0.55014300  1
  Li  Li2  1  0.89000900  0.08693400  0.02741400  1
  Li  Li3  1  0.09532400  0.34211800  0.95857600  1
  Li  Li4  1  0.39274500  0.41355800  0.97281700  1
  Li  Li5  1  0.06764400  0.33816200  0.46015300  1
  Li  Li6  1  0.22060800  0.61173000  0.44888900  1
  Li  Li7  1  0.91952600  0.66328000  0.54351500  1
  Li  Li8  1  0.60750800  0.58658600  0.03123700  1
  Li  Li9  1  0.41331000  0.85279100  0.95841600  1
  Li  Li10  1  0.90931900  0.65394100  0.04241800  1
  Li  Li11  1  0.10621600  0.91453400  0.97161700  1
  Li  Li12  1  0.42336500  0.82954000  0.45594500  1
  Li  Li13  1  0.72009100  0.88789400  0.55194200  1
  Mn  Mn0  1  0.07652300  0.20161600  0.67119300  1
  Mn  Mn1  1  0.78421100  0.25972300  0.82422400  1
  Mn  Mn2  1  0.28889700  0.24186100  0.17553700  1
  Mn  Mn3  1  0.58183600  0.29643400  0.32451300  1
  Mn  Mn4  1  0.42212600  0.70282500  0.67755700  1
  Mn  Mn5  1  0.71564600  0.75705200  0.82580700  1
  Mn  Mn6  1  0.21576500  0.74731400  0.17810300  1
  Mn  Mn7  1  0.91902500  0.79699600  0.32419200  1
  P  P0  1  0.54835200  0.02845800  0.75752300  1
  P  P1  1  0.29385000  0.12035700  0.89077300  1
  P  P2  1  0.06717400  0.06033100  0.24374500  1
  P  P3  1  0.84840000  0.12308400  0.42548300  1
  P  P4  1  0.35130700  0.37674000  0.57247400  1
  P  P5  1  0.56816700  0.44027500  0.75805200  1
  P  P6  1  0.95149400  0.52453300  0.75897800  1
  P  P7  1  0.79291500  0.38047000  0.11025000  1
  P  P8  1  0.20468900  0.61816700  0.89320400  1
  P  P9  1  0.04934400  0.47364600  0.23795600  1
  P  P10  1  0.43257200  0.55974000  0.24432600  1
  P  P11  1  0.64694700  0.61927500  0.42241400  1
  P  P12  1  0.14975800  0.87646900  0.57304000  1
  P  P13  1  0.93179600  0.94126300  0.75556500  1
  P  P14  1  0.70583300  0.88186500  0.10874200  1
  P  P15  1  0.45705200  0.97800700  0.24337200  1
  O  O0  1  0.57888200  0.02056400  0.62514400  1
  O  O1  1  0.16229700  0.02332900  0.55350300  1
  O  O2  1  0.91263300  0.08790900  0.73263700  1
  O  O3  1  0.65095600  0.11681100  0.84503200  1
  O  O4  1  0.40329400  0.10128900  0.78023000  1
  O  O5  1  0.16943300  0.17880300  0.84032900  1
  O  O6  1  0.35319600  0.22856900  0.99768400  1
  O  O7  1  0.73093000  0.01760600  0.07665500  1
  O  O8  1  0.91978400  0.11276900  0.29458100  1
  O  O9  1  0.06443900  0.06392800  0.11107100  1
  O  O10  1  0.46908000  0.13243800  0.22872000  1
  O  O11  1  0.70712600  0.18208900  0.41162400  1
  O  O12  1  0.17336400  0.16492100  0.31189900  1
  O  O13  1  0.93990500  0.21657600  0.51677400  1
  O  O14  1  0.43754900  0.27501800  0.48122000  1
  O  O15  1  0.67159300  0.32851300  0.69763400  1
  O  O16  1  0.21071200  0.31199100  0.57999100  1
  O  O17  1  0.95708300  0.37340900  0.78614000  1
  O  O18  1  0.42111700  0.38541700  0.70305400  1
  O  O19  1  0.56066100  0.44248800  0.89130400  1
  O  O20  1  0.22422600  0.48021900  0.92605800  1
  O  O21  1  0.86023800  0.27664800  0.00003400  1
  O  O22  1  0.67120900  0.32222000  0.16279200  1
  O  O23  1  0.90233000  0.40144100  0.22000300  1
  O  O24  1  0.41817500  0.41393500  0.27186500  1
  O  O25  1  0.14149600  0.38422200  0.14341500  1
  O  O26  1  0.92133300  0.52330100  0.62981300  1
  O  O27  1  0.64795600  0.46770400  0.43267100  1
  O  O28  1  0.34141100  0.52377800  0.55358900  1
  O  O29  1  0.08653200  0.47683800  0.36813100  1
  O  O30  1  0.86287900  0.61324000  0.85711700  1
  O  O31  1  0.59070200  0.58274600  0.72802500  1
  O  O32  1  0.10295400  0.58949500  0.77844300  1
  O  O33  1  0.32989400  0.68353100  0.84857100  1
  O  O34  1  0.13406000  0.72313900  0.99773300  1
  O  O35  1  0.77634300  0.51838000  0.07586300  1
  O  O36  1  0.43233800  0.56319900  0.11207600  1
  O  O37  1  0.57949500  0.62063900  0.29298700  1
  O  O38  1  0.03651600  0.62121000  0.21242400  1
  O  O39  1  0.78917200  0.68040100  0.41842500  1
  O  O40  1  0.32738200  0.66230700  0.31407800  1
  O  O41  1  0.56357100  0.71920200  0.51744800  1
  O  O42  1  0.06245100  0.77493100  0.48171900  1
  O  O43  1  0.82679600  0.83680600  0.68573100  1
  O  O44  1  0.28870100  0.81108300  0.58147000  1
  O  O45  1  0.53569900  0.88295900  0.78812200  1
  O  O46  1  0.93501900  0.93525800  0.88745600  1
  O  O47  1  0.07937600  0.88797000  0.70387300  1
  O  O48  1  0.27526300  0.98031100  0.92114200  1
  O  O49  1  0.63208200  0.77652100  0.00457900  1
  O  O50  1  0.82633400  0.81182300  0.15487700  1
  O  O51  1  0.60249100  0.90794200  0.22512900  1
  O  O52  1  0.36405700  0.89631800  0.14382500  1
  O  O53  1  0.08709800  0.91507800  0.26909000  1
  O  O54  1  0.83432200  0.97504000  0.44428500  1
  O  O55  1  0.41390500  0.97309800  0.37056100  1
loop_
_geom_bond_atom_site_label_1
_geom_bond_atom_site_label_2
_geom_bond_distance
_geom_bond_site_symmetry_2
Li0 O55 1.976420 1_545
Li0 O1 2.015461 1_555
Li0 O12 2.019554 1_555
Li0 O14 2.208497 1_555
Li0 O16 2.318613 1_555
Li1 O0 1.950699 1_555
Li1 O11 1.977059 1_555
Li1 O14 2.014303 1_555
Li1 O15 2.139164 1_555
Li2 O7 1.846363 1_555
Li2 O46 1.982171 1_544
Li2 O21 1.998474 1_555
Li2 O9 2.011200 1_655
Li3 O20 1.956350 1_555
Li3 O5 2.002460 1_555
Li3 O25 2.098607 1_556
Li3 O17 2.469612 1_455
Li3 O21 2.480663 1_456
Li4 O20 1.918411 1_555
Li4 O36 1.949300 1_556
Li4 O19 1.949986 1_555
Li4 O6 1.952876 1_555
Li5 O29 1.912193 1_555
Li5 O13 1.943627 1_455
Li5 O16 2.024555 1_555
Li5 O12 2.369501 1_555
Li6 O29 1.952223 1_555
Li6 O40 2.010254 1_555
Li6 O28 2.023599 1_555
Li6 O42 2.231783 1_555
Li6 O44 2.296916 1_555
Li7 O26 1.870231 1_555
Li7 O39 1.957777 1_555
Li7 O42 2.007604 1_655
Li7 O43 2.278844 1_555
Li8 O35 1.919038 1_555
Li8 O19 1.938653 1_554
Li8 O49 1.985572 1_555
Li8 O36 1.995237 1_555
Li9 O48 1.979403 1_555
Li9 O33 2.023632 1_555
Li9 O52 2.111125 1_556
Li9 O45 2.354382 1_555
Li9 O49 2.396730 1_556
Li10 O35 1.967968 1_555
Li10 O50 1.970378 1_555
Li10 O30 2.104642 1_554
Li10 O38 2.391827 1_655
Li10 O34 2.406677 1_654
Li11 O48 1.921614 1_555
Li11 O9 1.958278 1_566
Li11 O46 1.981573 1_455
Li11 O34 2.006672 1_555
Li12 O55 1.896587 1_555
Li12 O44 1.986738 1_555
Li12 O41 1.996109 1_555
Li12 O40 2.242657 1_555
Li13 O0 1.978398 1_565
Li13 O54 1.992105 1_555
Li13 O43 2.011159 1_555
Li13 O41 2.237516 1_555
Li13 O39 2.372090 1_555
Mn0 O16 2.123004 1_555
Mn0 O1 2.144568 1_555
Mn0 O2 2.167599 1_455
Mn0 O5 2.190287 1_555
Mn0 O17 2.244951 1_455
Mn0 O13 2.249248 1_455
Mn1 O3 1.978129 1_555
Mn1 O15 2.058373 1_555
Mn1 O21 2.107229 1_556
Mn1 O17 2.135281 1_555
Mn1 O2 2.200295 1_555
Mn2 O6 2.093991 1_554
Mn2 O25 2.126947 1_555
Mn2 O12 2.189589 1_555
Mn2 O24 2.207210 1_555
Mn2 O10 2.248219 1_555
Mn3 O27 1.967119 1_555
Mn3 O10 2.061655 1_555
Mn3 O11 2.082323 1_555
Mn3 O22 2.103378 1_555
Mn3 O24 2.165308 1_555
Mn3 O14 2.325226 1_555
Mn4 O28 2.152054 1_555
Mn4 O44 2.155148 1_555
Mn4 O33 2.191374 1_555
Mn4 O31 2.207944 1_555
Mn4 O45 2.234514 1_555
Mn4 O41 2.326408 1_555
Mn5 O30 2.133068 1_555
Mn5 O49 2.160837 1_556
Mn5 O31 2.203080 1_555
Mn5 O43 2.215280 1_555
Mn5 O45 2.279376 1_555
Mn6 O34 2.167177 1_554
Mn6 O52 2.167611 1_555
Mn6 O53 2.172796 1_555
Mn6 O40 2.219434 1_555
Mn6 O38 2.243012 1_555
Mn7 O54 2.150821 1_555
Mn7 O39 2.156913 1_555
Mn7 O50 2.168468 1_555
Mn7 O53 2.193723 1_655
Mn7 O38 2.245774 1_655
Mn7 O42 2.336323 1_655
O0 P0 1.518822 1_555
O1 P12 1.524941 1_545
O2 P13 1.546764 1_545
O3 P0 1.543926 1_555
O4 P0 1.606840 1_555
O4 P1 1.636474 1_555
O5 P1 1.531218 1_555
O6 P1 1.542524 1_555
O7 P14 1.489382 1_545
O8 P2 1.614419 1_655
O8 P3 1.628279 1_555
O9 P2 1.516595 1_555
O10 P15 1.579951 1_545
O11 P3 1.542051 1_555
O12 P2 1.549636 1_555
O13 P3 1.520611 1_555
O14 P4 1.537912 1_555
O15 P5 1.557007 1_555
O16 P4 1.536285 1_555
O17 P6 1.597375 1_555
O18 P4 1.622645 1_555
O18 P5 1.624419 1_555
O19 P5 1.511397 1_555
O20 P8 1.510300 1_555
O21 P7 1.582621 1_555
O22 P7 1.509026 1_555
O23 P9 1.607641 1_655
O23 P7 1.629732 1_555
O24 P10 1.551092 1_555
O25 P9 1.535103 1_555
O26 P6 1.496017 1_555
O27 P11 1.533053 1_555
O28 P4 1.524263 1_555
O29 P9 1.518696 1_555
O30 P6 1.535444 1_555
O31 P5 1.539588 1_555
O32 P6 1.620880 1_455
O32 P8 1.621405 1_555
O33 P8 1.529682 1_555
O34 P8 1.561953 1_555
O35 P7 1.514133 1_555
O36 P10 1.511142 1_555
O37 P10 1.618496 1_555
O37 P11 1.619428 1_555
O38 P9 1.560170 1_555
O39 P11 1.531008 1_555
O40 P10 1.549607 1_555
O41 P11 1.536666 1_555
O42 P12 1.534851 1_555
O43 P13 1.547873 1_555
O44 P12 1.537528 1_555
O45 P0 1.561414 1_565
O46 P13 1.513862 1_555
O47 P13 1.621036 1_455
O47 P12 1.621734 1_555
O48 P1 1.513187 1_565
O49 P14 1.568440 1_555
O50 P14 1.536103 1_555
O51 P15 1.596510 1_555
O51 P14 1.645553 1_555
O52 P15 1.536899 1_555
O53 P2 1.544921 1_565
O54 P3 1.534710 1_565
O55 P15 1.517438 1_555
