# generated using pymatgen
data_CaSbO3
_symmetry_space_group_name_H-M   'P 1'
_cell_length_a   8.15645200
_cell_length_b   5.72396200
_cell_length_c   5.92450299
_cell_angle_alpha   89.74867931
_cell_angle_beta   90.00000000
_cell_angle_gamma   90.00000000
_symmetry_Int_Tables_number   1
_chemical_formula_structural   CaSbO3
_chemical_formula_sum   'Ca4 Sb4 O12'
_cell_volume   276.59592150
_cell_formula_units_Z   4
loop_
 _symmetry_equiv_pos_site_id
 _symmetry_equiv_pos_as_xyz
  1  'x, y, z'
loop_
 _atom_site_type_symbol
 _atom_site_label
 _atom_site_symmetry_multiplicity
 _atom_site_fract_x
 _atom_site_fract_y
 _atom_site_fract_z
 _atom_site_occupancy
  Ca  Ca0  1  0.25000000  0.48518900  0.44243900  1
  Ca  Ca1  1  0.75000000  0.51481100  0.55756100  1
  Ca  Ca2  1  0.25000000  0.00546100  0.94941800  1
  Ca  Ca3  1  0.75000000  0.99453900  0.05058200  1
  Sb  Sb0  1  0.50000000  0.50000000  0.00000000  1
  Sb  Sb1  1  0.00000000  0.50000000  0.00000000  1
  Sb  Sb2  1  0.50000000  0.00000000  0.50000000  1
  Sb  Sb3  1  0.00000000  0.00000000  0.50000000  1
  O  O0  1  0.55786500  0.71151400  0.32281400  1
  O  O1  1  0.94269700  0.82853800  0.78728900  1
  O  O2  1  0.05786500  0.28848600  0.67718600  1
  O  O3  1  0.44269700  0.17146200  0.21271100  1
  O  O4  1  0.55730300  0.82853800  0.78728900  1
  O  O5  1  0.05730300  0.17146200  0.21271100  1
  O  O6  1  0.75000000  0.11558900  0.45044800  1
  O  O7  1  0.94213500  0.71151400  0.32281400  1
  O  O8  1  0.25000000  0.61952400  0.05538000  1
  O  O9  1  0.44213500  0.28848600  0.67718600  1
  O  O10  1  0.25000000  0.88441100  0.54955200  1
  O  O11  1  0.75000000  0.38047600  0.94462000  1
loop_
_geom_bond_atom_site_label_1
_geom_bond_atom_site_label_2
_geom_bond_distance
_geom_bond_site_symmetry_2
Ca0 O10 2.374290 1_555
Ca0 O2 2.375731 1_555
Ca0 O9 2.375731 1_555
Ca0 O8 2.415417 1_555
Ca0 O3 2.751164 1_555
Ca0 O5 2.751164 1_555
Ca0 O0 2.911707 1_555
Ca0 O7 2.911707 1_455
Ca1 O6 2.374290 1_555
Ca1 O7 2.375731 1_555
Ca1 O0 2.375731 1_555
Ca1 O11 2.415417 1_555
Ca1 O4 2.751164 1_555
Ca1 O1 2.751164 1_555
Ca1 O9 2.911707 1_555
Ca1 O2 2.911707 1_655
Ca2 O8 2.293906 1_546
Ca2 O3 2.412342 1_556
Ca2 O5 2.412342 1_556
Ca2 O10 2.471171 1_545
Ca2 O2 2.767442 1_555
Ca2 O9 2.767442 1_555
Ca2 O1 2.870414 1_445
Ca2 O4 2.870414 1_545
Ca3 O11 2.293906 1_564
Ca3 O4 2.412342 1_554
Ca3 O1 2.412342 1_554
Ca3 O6 2.471171 1_565
Ca3 O7 2.767442 1_555
Ca3 O0 2.767442 1_555
Ca3 O3 2.870414 1_565
Ca3 O5 2.870414 1_665
O0 Sb2 2.016594 1_565
O0 Sb0 2.316585 1_555
O1 Sb3 2.015932 1_665
O1 Sb1 2.306992 1_656
O2 Sb3 2.016594 1_555
O2 Sb1 2.316585 1_556
O3 Sb2 2.015932 1_555
O3 Sb0 2.306992 1_555
O4 Sb2 2.015932 1_565
O4 Sb0 2.306992 1_556
O5 Sb3 2.015932 1_555
O5 Sb1 2.306992 1_555
O6 Sb3 2.163380 1_655
O6 Sb2 2.163380 1_555
O7 Sb3 2.016594 1_665
O7 Sb1 2.316585 1_655
O8 Sb0 2.176158 1_555
O8 Sb1 2.176158 1_555
O9 Sb2 2.016594 1_555
O9 Sb0 2.316585 1_556
O10 Sb3 2.163380 1_565
O10 Sb2 2.163380 1_565
O11 Sb0 2.176158 1_556
O11 Sb1 2.176158 1_656
