# generated using pymatgen
data_Rb2BiF5
_symmetry_space_group_name_H-M   'P 1'
_cell_length_a   6.30996642
_cell_length_b   8.19809816
_cell_length_c   12.56839532
_cell_angle_alpha   90.00000000
_cell_angle_beta   90.00000000
_cell_angle_gamma   90.00000000
_symmetry_Int_Tables_number   1
_chemical_formula_structural   Rb2BiF5
_chemical_formula_sum   'Rb8 Bi4 F20'
_cell_volume   650.15962225
_cell_formula_units_Z   4
loop_
 _symmetry_equiv_pos_site_id
 _symmetry_equiv_pos_as_xyz
  1  'x, y, z'
loop_
 _atom_site_type_symbol
 _atom_site_label
 _atom_site_symmetry_multiplicity
 _atom_site_fract_x
 _atom_site_fract_y
 _atom_site_fract_z
 _atom_site_occupancy
  Rb  Rb0  1  0.75000000  0.50155636  0.26693560  1
  Rb  Rb1  1  0.25000000  0.49844364  0.73306440  1
  Rb  Rb2  1  0.25000000  -0.00155636  0.76693560  1
  Rb  Rb3  1  0.75000000  0.00155636  0.23306440  1
  Rb  Rb4  1  0.75000000  0.83633799  0.58387023  1
  Rb  Rb5  1  0.25000000  0.16366201  0.41612977  1
  Rb  Rb6  1  0.25000000  0.66366201  0.08387023  1
  Rb  Rb7  1  0.75000000  0.33633799  0.91612977  1
  Bi  Bi0  1  0.75000000  0.81448283  0.93497353  1
  Bi  Bi1  1  0.25000000  0.18551717  0.06502647  1
  Bi  Bi2  1  0.25000000  0.68551717  0.43497353  1
  Bi  Bi3  1  0.75000000  0.31448283  0.56502647  1
  F  F0  1  0.75000000  0.72385355  0.10508926  1
  F  F1  1  0.25000000  0.27614645  0.89491074  1
  F  F2  1  0.25000000  0.77614645  0.60508926  1
  F  F3  1  0.75000000  0.22385355  0.39491074  1
  F  F4  1  0.00729171  0.64534448  0.89241829  1
  F  F5  1  -0.00729171  0.35465552  0.10758171  1
  F  F6  1  -0.00729171  0.85465552  0.39241829  1
  F  F7  1  0.50729171  0.35465552  0.10758171  1
  F  F8  1  0.00729171  0.14534448  0.60758171  1
  F  F9  1  0.49270829  0.64534448  0.89241829  1
  F  F10  1  0.49270829  0.14534448  0.60758171  1
  F  F11  1  0.50729171  0.85465552  0.39241829  1
  F  F12  1  0.00000000  -0.00000000  0.00000000  1
  F  F13  1  0.00000000  0.50000000  0.50000000  1
  F  F14  1  0.50000000  -0.00000000  0.00000000  1
  F  F15  1  0.50000000  0.50000000  0.50000000  1
  F  F16  1  0.75000000  0.96502865  0.78679112  1
  F  F17  1  0.25000000  0.03497135  0.21320888  1
  F  F18  1  0.25000000  0.53497135  0.28679112  1
  F  F19  1  0.75000000  0.46502865  0.71320888  1
loop_
_geom_bond_atom_site_label_1
_geom_bond_atom_site_label_2
_geom_bond_distance
_geom_bond_site_symmetry_2
Bi0 F9 2.201027 1_555
Bi0 F4 2.201027 1_655
Bi0 F16 2.234237 1_555
Bi0 F0 2.263498 1_556
Bi0 F14 2.338701 1_566
Bi0 F12 2.338701 1_666
Bi1 F7 2.201027 1_555
Bi1 F5 2.201027 1_555
Bi1 F17 2.234237 1_555
Bi1 F1 2.263498 1_554
Bi1 F12 2.338701 1_555
Bi1 F14 2.338701 1_555
Bi2 F11 2.201027 1_555
Bi2 F6 2.201027 1_555
Bi2 F18 2.234237 1_555
Bi2 F2 2.263498 1_555
Bi2 F13 2.338701 1_555
Bi2 F15 2.338701 1_555
Bi3 F10 2.201027 1_555
Bi3 F8 2.201027 1_655
Bi3 F19 2.234237 1_555
Bi3 F3 2.263498 1_555
Bi3 F13 2.338701 1_655
Bi3 F15 2.338701 1_555
F0 Rb0 2.731109 1_555
F0 Rb3 2.787499 1_565
F0 Rb6 3.204456 1_655
F0 Rb6 3.204456 1_555
F1 Rb1 2.731109 1_555
F1 Rb2 2.787499 1_555
F1 Rb7 3.204456 1_555
F1 Rb7 3.204456 1_455
F2 Rb2 2.731109 1_565
F2 Rb1 2.787499 1_555
F2 Rb4 3.204456 1_555
F2 Rb4 3.204456 1_455
F3 Rb3 2.731109 1_555
F3 Rb0 2.787499 1_555
F3 Rb5 3.204456 1_555
F3 Rb5 3.204456 1_655
F4 Rb1 2.794117 1_555
F4 Rb6 2.856220 1_556
F4 Rb7 3.023575 1_455
F5 Rb0 2.794117 1_455
F5 Rb7 2.856220 1_454
F5 Rb6 3.023575 1_555
F6 Rb3 2.794117 1_465
F6 Rb4 2.856220 1_455
F6 Rb5 3.023575 1_565
F7 Rb0 2.794117 1_555
F7 Rb7 2.856220 1_554
F7 Rb6 3.023575 1_555
F8 Rb2 2.794117 1_555
F8 Rb5 2.856220 1_555
F8 Rb4 3.023575 1_445
F9 Rb1 2.794117 1_555
F9 Rb6 2.856220 1_556
F9 Rb7 3.023575 1_555
F10 Rb2 2.794117 1_555
F10 Rb5 2.856220 1_555
F10 Rb4 3.023575 1_545
F11 Rb3 2.794117 1_565
F11 Rb4 2.856220 1_555
F11 Rb5 3.023575 1_565
F12 Rb2 3.327029 1_554
F12 Rb3 3.327029 1_455
F12 Rb7 3.347016 1_454
F12 Rb6 3.347016 1_545
F13 Rb1 3.327029 1_555
F13 Rb0 3.327029 1_455
F13 Rb4 3.347016 1_455
F13 Rb5 3.347016 1_555
F14 Rb2 3.327029 1_554
F14 Rb3 3.327029 1_555
F14 Rb7 3.347016 1_554
F14 Rb6 3.347016 1_545
F15 Rb1 3.327029 1_555
F15 Rb0 3.327029 1_555
F15 Rb4 3.347016 1_555
F15 Rb5 3.347016 1_555
F16 Rb4 2.759992 1_555
F16 Rb2 3.176671 1_565
F16 Rb2 3.176671 1_665
F16 Rb7 3.450888 1_565
F17 Rb5 2.759992 1_555
F17 Rb3 3.176671 1_555
F17 Rb3 3.176671 1_455
F17 Rb6 3.450888 1_545
F18 Rb6 2.759992 1_555
F18 Rb0 3.176671 1_555
F18 Rb0 3.176671 1_455
F18 Rb5 3.450888 1_555
F19 Rb7 2.759992 1_555
F19 Rb1 3.176671 1_555
F19 Rb1 3.176671 1_655
F19 Rb4 3.450888 1_555
