# generated using pymatgen
data_U2PCl11O
_symmetry_space_group_name_H-M   'P 1'
_cell_length_a   8.51719200
_cell_length_b   8.61596700
_cell_length_c   23.59655000
_cell_angle_alpha   90.00000000
_cell_angle_beta   90.00000000
_cell_angle_gamma   90.00000000
_symmetry_Int_Tables_number   1
_chemical_formula_structural   U2PCl11O
_chemical_formula_sum   'U8 P4 Cl44 O4'
_cell_volume   1731.60557256
_cell_formula_units_Z   4
loop_
 _symmetry_equiv_pos_site_id
 _symmetry_equiv_pos_as_xyz
  1  'x, y, z'
loop_
 _atom_site_type_symbol
 _atom_site_label
 _atom_site_symmetry_multiplicity
 _atom_site_fract_x
 _atom_site_fract_y
 _atom_site_fract_z
 _atom_site_occupancy
  U  U0  1  0.25000000  0.22046200  0.14728500  1
  U  U1  1  0.25000000  0.72046200  0.35271500  1
  U  U2  1  0.75000000  0.77953800  0.85271500  1
  U  U3  1  0.75000000  0.27953800  0.64728500  1
  U  U4  1  0.25000000  0.27807700  0.71321500  1
  U  U5  1  0.25000000  0.77807700  0.78678500  1
  U  U6  1  0.75000000  0.72192300  0.28678500  1
  U  U7  1  0.75000000  0.22192300  0.21321500  1
  P  P0  1  0.25000000  0.28258900  0.98575700  1
  P  P1  1  0.25000000  0.78258900  0.51424300  1
  P  P2  1  0.75000000  0.71741100  0.01424300  1
  P  P3  1  0.75000000  0.21741100  0.48575700  1
  Cl  Cl0  1  0.06366500  0.21166400  0.94274500  1
  Cl  Cl1  1  0.43633500  0.71166400  0.55725500  1
  Cl  Cl2  1  0.56366500  0.78833600  0.05725500  1
  Cl  Cl3  1  0.93633500  0.28833600  0.44274500  1
  Cl  Cl4  1  0.93633500  0.78833600  0.05725500  1
  Cl  Cl5  1  0.56366500  0.28833600  0.44274500  1
  Cl  Cl6  1  0.43633500  0.21166400  0.94274500  1
  Cl  Cl7  1  0.06366500  0.71166400  0.55725500  1
  Cl  Cl8  1  0.55716600  0.27980000  0.74336100  1
  Cl  Cl9  1  0.94283400  0.77980000  0.75663900  1
  Cl  Cl10  1  0.05716600  0.72020000  0.25663900  1
  Cl  Cl11  1  0.44283400  0.22020000  0.24336100  1
  Cl  Cl12  1  0.44283400  0.72020000  0.25663900  1
  Cl  Cl13  1  0.05716600  0.22020000  0.24336100  1
  Cl  Cl14  1  0.94283400  0.27980000  0.74336100  1
  Cl  Cl15  1  0.55716600  0.77980000  0.75663900  1
  Cl  Cl16  1  0.05952000  0.28428700  0.61417400  1
  Cl  Cl17  1  0.44048000  0.78428700  0.88582600  1
  Cl  Cl18  1  0.55952000  0.71571300  0.38582600  1
  Cl  Cl19  1  0.94048000  0.21571300  0.11417400  1
  Cl  Cl20  1  0.94048000  0.71571300  0.38582600  1
  Cl  Cl21  1  0.55952000  0.21571300  0.11417400  1
  Cl  Cl22  1  0.44048000  0.28428700  0.61417400  1
  Cl  Cl23  1  0.05952000  0.78428700  0.88582600  1
  Cl  Cl24  1  0.25000000  0.01272000  0.51937100  1
  Cl  Cl25  1  0.25000000  0.51272000  0.98062900  1
  Cl  Cl26  1  0.75000000  0.98728000  0.48062900  1
  Cl  Cl27  1  0.75000000  0.48728000  0.01937100  1
  Cl  Cl28  1  0.25000000  0.01088400  0.35980700  1
  Cl  Cl29  1  0.25000000  0.51088400  0.14019300  1
  Cl  Cl30  1  0.75000000  0.98911600  0.64019300  1
  Cl  Cl31  1  0.75000000  0.48911600  0.85980700  1
  Cl  Cl32  1  0.25000000  0.08538000  0.81213800  1
  Cl  Cl33  1  0.25000000  0.58538000  0.68786200  1
  Cl  Cl34  1  0.75000000  0.91462000  0.18786200  1
  Cl  Cl35  1  0.75000000  0.41462000  0.31213800  1
  Cl  Cl36  1  0.25000000  0.42809500  0.36153300  1
  Cl  Cl37  1  0.25000000  0.92809500  0.13846700  1
  Cl  Cl38  1  0.75000000  0.57190500  0.63846700  1
  Cl  Cl39  1  0.75000000  0.07190500  0.86153300  1
  Cl  Cl40  1  0.25000000  0.47169700  0.81525000  1
  Cl  Cl41  1  0.25000000  0.97169700  0.68475000  1
  Cl  Cl42  1  0.75000000  0.52830300  0.18475000  1
  Cl  Cl43  1  0.75000000  0.02830300  0.31525000  1
  O  O0  1  0.25000000  0.72510500  0.45453400  1
  O  O1  1  0.25000000  0.22510500  0.04546600  1
  O  O2  1  0.75000000  0.27489500  0.54546600  1
  O  O3  1  0.75000000  0.77489500  0.95453400  1
loop_
_geom_bond_atom_site_label_1
_geom_bond_atom_site_label_2
_geom_bond_distance
_geom_bond_site_symmetry_2
Cl0 P0 1.980467 1_555
Cl1 P1 1.980467 1_555
Cl2 P2 1.980467 1_555
Cl3 P3 1.980467 1_555
Cl4 P2 1.980467 1_555
Cl5 P3 1.980467 1_555
Cl6 P0 1.980467 1_555
Cl7 P1 1.980467 1_555
Cl8 U4 2.711215 1_555
Cl8 U3 2.799476 1_555
Cl9 U5 2.711215 1_655
Cl9 U2 2.799476 1_555
Cl10 U6 2.711215 1_455
Cl10 U1 2.799476 1_555
Cl11 U7 2.711215 1_555
Cl11 U0 2.799476 1_555
Cl12 U6 2.711215 1_555
Cl12 U1 2.799476 1_555
Cl13 U7 2.711215 1_455
Cl13 U0 2.799476 1_555
Cl14 U4 2.711215 1_655
Cl14 U3 2.799476 1_555
Cl15 U5 2.711215 1_555
Cl15 U2 2.799476 1_555
Cl16 U3 2.749887 1_455
Cl16 U4 2.845450 1_555
Cl17 U2 2.749887 1_555
Cl17 U5 2.845450 1_555
Cl18 U1 2.749887 1_555
Cl18 U6 2.845450 1_555
Cl19 U0 2.749887 1_655
Cl19 U7 2.845450 1_555
Cl20 U1 2.749887 1_655
Cl20 U6 2.845450 1_555
Cl21 U0 2.749887 1_555
Cl21 U7 2.845450 1_555
Cl22 U3 2.749887 1_555
Cl22 U4 2.845450 1_555
Cl23 U2 2.749887 1_455
Cl23 U5 2.845450 1_555
Cl24 P1 1.986490 1_545
Cl25 P0 1.986490 1_555
Cl26 P3 1.986490 1_565
Cl27 P2 1.986490 1_555
Cl28 U1 2.507856 1_545
Cl29 U0 2.507856 1_555
Cl30 U3 2.507856 1_565
Cl31 U2 2.507856 1_555
Cl32 U5 2.714457 1_545
Cl32 U4 2.864469 1_555
Cl33 U4 2.714457 1_555
Cl33 U5 2.864469 1_555
Cl34 U7 2.714457 1_565
Cl34 U6 2.864469 1_555
Cl35 U6 2.714457 1_555
Cl35 U7 2.864469 1_555
Cl36 U1 2.527603 1_555
Cl37 U0 2.527603 1_565
Cl38 U3 2.527603 1_555
Cl39 U2 2.527603 1_545
Cl40 U5 2.723872 1_555
Cl40 U4 2.929140 1_555
Cl41 U4 2.723872 1_565
Cl41 U5 2.929140 1_555
Cl42 U7 2.723872 1_555
Cl42 U6 2.929140 1_555
Cl43 U6 2.723872 1_545
Cl43 U7 2.929140 1_555
O0 P1 1.493444 1_555
O0 U1 2.402910 1_555
O1 P0 1.493444 1_554
O1 U0 2.402910 1_555
O2 P3 1.493444 1_555
O2 U3 2.402910 1_555
O3 P2 1.493444 1_556
O3 U2 2.402910 1_555
