# generated using pymatgen
data_Li7Mn2(CoO4)3
_symmetry_space_group_name_H-M   'P 1'
_cell_length_a   2.98325967
_cell_length_b   2.98325967
_cell_length_c   29.68461212
_cell_angle_alpha   88.91790482
_cell_angle_beta   88.91790482
_cell_angle_gamma   57.66171311
_symmetry_Int_Tables_number   1
_chemical_formula_structural   Li7Mn2(CoO4)3
_chemical_formula_sum   'Li7 Mn2 Co3 O12'
_cell_volume   223.16198754
_cell_formula_units_Z   1
loop_
 _symmetry_equiv_pos_site_id
 _symmetry_equiv_pos_as_xyz
  1  'x, y, z'
loop_
 _atom_site_type_symbol
 _atom_site_label
 _atom_site_symmetry_multiplicity
 _atom_site_fract_x
 _atom_site_fract_y
 _atom_site_fract_z
 _atom_site_occupancy
  Li  Li0  1  0.66526000  0.66526000  0.58143500  1
  Li  Li1  1  0.33474000  0.33474000  0.41856500  1
  Li  Li2  1  0.99742000  0.99742000  0.24768500  1
  Li  Li3  1  0.65741400  0.65741400  0.08107500  1
  Li  Li4  1  0.34258600  0.34258600  0.91892500  1
  Li  Li5  1  0.00258000  0.00258000  0.75231500  1
  Li  Li6  1  0.00000000  0.00000000  0.00000000  1
  Mn  Mn0  1  0.33388300  0.33388300  0.66646800  1
  Mn  Mn1  1  0.66611700  0.66611700  0.33353200  1
  Co  Co0  1  0.00000000  0.00000000  0.50000000  1
  Co  Co1  1  0.32935400  0.32935400  0.16678000  1
  Co  Co2  1  0.67064600  0.67064600  0.83322000  1
  O  O0  1  0.97656200  0.97656200  0.62866900  1
  O  O1  1  0.67104500  0.67104500  0.46105100  1
  O  O2  1  0.31029800  0.31029800  0.29562300  1
  O  O3  1  0.00636400  0.00636400  0.13045300  1
  O  O4  1  0.66380200  0.66380200  0.95770900  1
  O  O5  1  0.33363000  0.33363000  0.79358100  1
  O  O6  1  0.32895500  0.32895500  0.53894900  1
  O  O7  1  0.02343800  0.02343800  0.37133100  1
  O  O8  1  0.66637000  0.66637000  0.20641900  1
  O  O9  1  0.33619800  0.33619800  0.04229100  1
  O  O10  1  0.99363600  0.99363600  0.86954700  1
  O  O11  1  0.68970200  0.68970200  0.70437700  1
loop_
_geom_bond_atom_site_label_1
_geom_bond_atom_site_label_2
_geom_bond_distance
_geom_bond_site_symmetry_2
Li0 O6 2.084641 1_655
Li0 O6 2.084641 1_565
Li0 O0 2.170706 1_555
Li0 O6 2.185451 1_555
Li0 O0 2.224573 1_455
Li0 O0 2.224573 1_545
Li1 O1 2.084641 1_455
Li1 O1 2.084641 1_545
Li1 O7 2.170706 1_555
Li1 O1 2.185451 1_555
Li1 O7 2.224573 1_655
Li1 O7 2.224573 1_565
Li2 O8 2.074448 1_565
Li2 O8 2.074448 1_655
Li2 O8 2.141530 1_555
Li2 O2 2.190856 1_665
Li2 O2 2.234099 1_565
Li2 O2 2.234099 1_655
Li3 O9 2.054736 1_565
Li3 O9 2.054736 1_655
Li3 O9 2.056156 1_555
Li3 O3 2.188954 1_565
Li3 O3 2.188954 1_655
Li3 O3 2.364426 1_665
Li4 O4 2.054736 1_455
Li4 O4 2.054736 1_545
Li4 O4 2.056156 1_555
Li4 O10 2.188954 1_545
Li4 O10 2.188954 1_455
Li4 O10 2.364426 1_445
Li5 O5 2.074448 1_455
Li5 O5 2.074448 1_545
Li5 O5 2.141530 1_555
Li5 O11 2.190856 1_445
Li5 O11 2.234099 1_545
Li5 O11 2.234099 1_455
Li6 O9 2.081418 1_455
Li6 O9 2.081418 1_545
Li6 O4 2.081418 1_544
Li6 O4 2.081418 1_454
Li6 O9 2.181558 1_555
Li6 O4 2.181558 1_444
Mn0 O0 1.961805 1_545
Mn0 O0 1.961805 1_455
Mn0 O11 1.966546 1_545
Mn0 O11 1.966546 1_455
Mn0 O11 2.194448 1_555
Mn0 O0 2.199465 1_445
Mn1 O7 1.961805 1_655
Mn1 O7 1.961805 1_565
Mn1 O2 1.966546 1_565
Mn1 O2 1.966546 1_655
Mn1 O2 2.194448 1_555
Mn1 O7 2.199465 1_665
Co0 O1 2.039876 1_545
Co0 O1 2.039876 1_455
Co0 O6 2.039876 1_545
Co0 O6 2.039876 1_455
Co0 O6 2.092588 1_555
Co0 O1 2.092588 1_445
Co1 O3 2.011330 1_565
Co1 O3 2.011330 1_655
Co1 O3 2.022754 1_555
Co1 O8 2.033878 1_455
Co1 O8 2.033878 1_545
Co1 O8 2.139400 1_555
Co2 O10 2.011330 1_545
Co2 O10 2.011330 1_455
Co2 O10 2.022754 1_555
Co2 O5 2.033878 1_655
Co2 O5 2.033878 1_565
Co2 O5 2.139400 1_555
