# generated using pymatgen
data_Mg2Si3
_symmetry_space_group_name_H-M   'P 1'
_cell_length_a   6.04144590
_cell_length_b   6.04144590
_cell_length_c   17.99765133
_cell_angle_alpha   85.27716389
_cell_angle_beta   85.27716389
_cell_angle_gamma   34.40144578
_symmetry_Int_Tables_number   1
_chemical_formula_structural   Mg2Si3
_chemical_formula_sum   'Mg8 Si12'
_cell_volume   369.75796034
_cell_formula_units_Z   4
loop_
 _symmetry_equiv_pos_site_id
 _symmetry_equiv_pos_as_xyz
  1  'x, y, z'
loop_
 _atom_site_type_symbol
 _atom_site_label
 _atom_site_symmetry_multiplicity
 _atom_site_fract_x
 _atom_site_fract_y
 _atom_site_fract_z
 _atom_site_occupancy
  Mg  Mg0  1  0.91418200  0.91418200  0.79690100  1
  Mg  Mg1  1  0.98305000  0.98305000  0.20970500  1
  Mg  Mg2  1  0.52953100  0.52953100  0.95185200  1
  Mg  Mg3  1  0.86287000  0.86287000  0.06093800  1
  Mg  Mg4  1  0.66294100  0.66294100  0.29627400  1
  Mg  Mg5  1  0.25198400  0.25198400  0.69323000  1
  Mg  Mg6  1  0.78499800  0.78499800  0.44383000  1
  Mg  Mg7  1  0.12695200  0.12695200  0.55073200  1
  Si  Si0  1  0.27050900  0.27050900  0.96627000  1
  Si  Si1  1  0.10372500  0.10372500  0.05739000  1
  Si  Si2  1  0.22917400  0.22917400  0.84164500  1
  Si  Si3  1  0.65223700  0.65223700  0.14616000  1
  Si  Si4  1  0.35220000  0.35220000  0.31820600  1
  Si  Si5  1  0.56052200  0.56052200  0.67686800  1
  Si  Si6  1  0.53833900  0.53833900  0.44852800  1
  Si  Si7  1  0.37524900  0.37524900  0.54818900  1
  Si  Si8  1  0.99457300  0.99457300  0.36046600  1
  Si  Si9  1  0.92175200  0.92175200  0.63896200  1
  Si  Si10  1  0.60707800  0.60707800  0.80674400  1
  Si  Si11  1  0.29335400  0.29335400  0.18714000  1
loop_
_geom_bond_atom_site_label_1
_geom_bond_atom_site_label_2
_geom_bond_distance
_geom_bond_site_symmetry_2
Mg0 Si9 2.836336 1_555
Mg0 Si2 2.846763 1_565
Mg0 Si2 2.846763 1_655
Mg0 Si10 2.872025 1_655
Mg0 Si10 2.872025 1_565
Mg0 Si5 3.175363 1_655
Mg0 Si5 3.175363 1_565
Mg1 Si8 2.728028 1_555
Mg1 Si3 2.815741 1_565
Mg1 Si3 2.815741 1_655
Mg1 Si11 2.881711 1_655
Mg1 Si11 2.881711 1_565
Mg1 Si4 2.962742 1_655
Mg1 Si4 2.962742 1_565
Mg1 Si1 2.965927 1_665
Mg2 Si10 2.686762 1_555
Mg2 Si1 2.795266 1_566
Mg2 Si1 2.795266 1_656
Mg2 Si0 2.978631 1_555
Mg3 Si0 2.746711 1_654
Mg3 Si0 2.746711 1_564
Mg3 Si3 2.760541 1_555
Mg3 Si1 2.775290 1_665
Mg3 Si11 2.946269 1_565
Mg3 Si11 2.946269 1_655
Mg4 Si3 2.715140 1_555
Mg4 Si8 2.813592 1_545
Mg4 Si8 2.813592 1_455
Mg4 Si4 2.875487 1_655
Mg4 Si4 2.875487 1_565
Mg4 Si11 2.967490 1_655
Mg4 Si11 2.967490 1_565
Mg4 Si6 2.982932 1_555
Mg5 Si2 2.661387 1_555
Mg5 Si9 2.766891 1_545
Mg5 Si9 2.766891 1_455
Mg5 Si7 2.863260 1_555
Mg5 Si5 2.876564 1_455
Mg5 Si5 2.876564 1_545
Mg5 Si10 3.094207 1_455
Mg5 Si10 3.094207 1_545
Mg6 Si8 2.734422 1_555
Mg6 Si6 2.841018 1_555
Mg6 Si7 2.853422 1_565
Mg6 Si7 2.853422 1_655
Mg6 Si4 2.933096 1_565
Mg6 Si4 2.933096 1_655
Mg7 Si9 2.735520 1_445
Mg7 Si6 2.818835 1_545
Mg7 Si6 2.818835 1_455
Mg7 Si7 2.862382 1_555
Mg7 Si5 2.938251 1_455
Mg7 Si5 2.938251 1_545
Si0 Si2 2.333015 1_555
Si0 Si1 2.418929 1_556
Si1 Si3 2.492409 1_455
Si1 Si3 2.492409 1_545
Si4 Si8 2.585799 1_455
Si4 Si8 2.585799 1_545
Si5 Si9 2.532045 1_455
Si5 Si9 2.532045 1_545
Si6 Si8 2.469212 1_455
Si6 Si8 2.469212 1_545
Si6 Si7 2.485729 1_555
Si7 Si9 2.510002 1_545
Si7 Si9 2.510002 1_455
Si10 Si2 2.392720 1_565
Si10 Si2 2.392720 1_655
Si10 Si5 2.443159 1_555
Si11 Si4 2.510351 1_555
Si11 Si3 2.568275 1_455
Si11 Si3 2.568275 1_545
