# generated using pymatgen
data_Al2Si2CNO10
_symmetry_space_group_name_H-M   'P 1'
_cell_length_a   5.23865800
_cell_length_b   5.23869445
_cell_length_c   21.11514703
_cell_angle_alpha   86.47478070
_cell_angle_beta   82.93607802
_cell_angle_gamma   60.00023017
_symmetry_Int_Tables_number   1
_chemical_formula_structural   Al2Si2CNO10
_chemical_formula_sum   'Al4 Si4 C2 N2 O20'
_cell_volume   498.03493593
_cell_formula_units_Z   2
loop_
 _symmetry_equiv_pos_site_id
 _symmetry_equiv_pos_as_xyz
  1  'x, y, z'
loop_
 _atom_site_type_symbol
 _atom_site_label
 _atom_site_symmetry_multiplicity
 _atom_site_fract_x
 _atom_site_fract_y
 _atom_site_fract_z
 _atom_site_occupancy
  Al  Al0  1  0.89400700  0.25725000  0.66319200  1
  Al  Al1  1  0.15125700  0.74275000  0.16319200  1
  Al  Al2  1  0.25333000  0.61656700  0.66325000  1
  Al  Al3  1  0.86989800  0.38343300  0.16325000  1
  Si  Si0  1  0.65063200  0.58184500  0.53130300  1
  Si  Si1  1  0.23247700  0.41815500  0.03130300  1
  Si  Si2  1  0.99181400  0.92463000  0.53133200  1
  Si  Si3  1  0.91644300  0.07537000  0.03133200  1
  C  C0  1  0.62029400  0.80015700  0.85219700  1
  C  C1  1  0.42045100  0.19984300  0.35219700  1
  N  N0  1  0.81850000  0.59328300  0.87962800  1
  N  N1  1  0.41178300  0.40671700  0.37962800  1
  O  O0  1  0.86277900  0.25371200  0.50146500  1
  O  O1  1  0.11649200  0.74628800  0.00146500  1
  O  O2  1  0.33526200  0.72875400  0.50208100  1
  O  O3  1  0.06401600  0.27124600  0.00208100  1
  O  O4  1  0.80361800  0.78108200  0.51072700  1
  O  O5  1  0.58469900  0.21891800  0.01072700  1
  O  O6  1  0.60255400  0.55168900  0.60971100  1
  O  O7  1  0.15424300  0.44831100  0.10971100  1
  O  O8  1  0.98385700  0.93510900  0.60963000  1
  O  O9  1  0.91896600  0.06489100  0.10963000  1
  O  O10  1  0.20671100  0.32134200  0.62842400  1
  O  O11  1  0.52805300  0.67865800  0.12842400  1
  O  O12  1  0.54167300  0.32876300  0.71311100  1
  O  O13  1  0.87043600  0.67123700  0.21311100  1
  O  O14  1  0.93113400  0.55793100  0.70757500  1
  O  O15  1  0.48906600  0.44206900  0.20757500  1
  O  O16  1  0.14946200  0.94404200  0.71357500  1
  O  O17  1  0.09350400  0.05595800  0.21357500  1
  O  O18  1  0.43068400  0.99921900  0.82579900  1
  O  O19  1  0.42990300  0.00078100  0.32579900  1
loop_
_geom_bond_atom_site_label_1
_geom_bond_atom_site_label_2
_geom_bond_distance
_geom_bond_site_symmetry_2
Al0 O12 1.880628 1_555
Al0 O16 1.885367 1_645
Al0 O10 1.886567 1_655
Al0 O8 1.912611 1_545
Al0 O6 1.959703 1_555
Al0 O14 1.982421 1_555
Al1 O13 1.880628 1_455
Al1 O17 1.885367 1_565
Al1 O11 1.886567 1_555
Al1 O9 1.912611 1_465
Al1 O7 1.959703 1_555
Al1 O15 1.982424 1_555
Al2 O16 1.875319 1_555
Al2 O10 1.885227 1_555
Al2 O12 1.892577 1_555
Al2 O6 1.912391 1_555
Al2 O8 1.965821 1_455
Al2 O14 1.978337 1_455
Al3 O17 1.875318 1_655
Al3 O11 1.885231 1_555
Al3 O13 1.892575 1_555
Al3 O7 1.912387 1_655
Al3 O9 1.965823 1_555
Al3 O15 1.978337 1_555
C0 O18 1.188985 1_555
C0 N0 1.238375 1_555
C1 O19 1.188985 1_555
C1 N1 1.238375 1_555
O0 Si2 1.622498 1_545
O0 Si0 1.624055 1_555
O1 Si3 1.622499 1_465
O1 Si1 1.624056 1_555
O2 Si0 1.619679 1_555
O2 Si2 1.621722 1_455
O3 Si1 1.619679 1_555
O3 Si3 1.621726 1_455
O4 Si2 1.616761 1_555
O4 Si0 1.617266 1_555
O5 Si3 1.616761 1_555
O5 Si1 1.617262 1_555
O6 Si0 1.653620 1_555
O7 Si1 1.653620 1_555
O8 Si2 1.652268 1_555
O9 Si3 1.652268 1_555
