# generated using pymatgen
data_HoTc2
_symmetry_space_group_name_H-M   'P 1'
_cell_length_a   5.33064037
_cell_length_b   5.33064037
_cell_length_c   8.82218479
_cell_angle_alpha   90.00000000
_cell_angle_beta   90.00000000
_cell_angle_gamma   120.01246819
_symmetry_Int_Tables_number   1
_chemical_formula_structural   HoTc2
_chemical_formula_sum   'Ho4 Tc8'
_cell_volume   217.07558088
_cell_formula_units_Z   4
loop_
 _symmetry_equiv_pos_site_id
 _symmetry_equiv_pos_as_xyz
  1  'x, y, z'
loop_
 _atom_site_type_symbol
 _atom_site_label
 _atom_site_symmetry_multiplicity
 _atom_site_fract_x
 _atom_site_fract_y
 _atom_site_fract_z
 _atom_site_occupancy
  Ho  Ho0  1  0.66666138  0.33333862  0.56288033  1
  Ho  Ho1  1  0.33333862  0.66666138  0.43711967  1
  Ho  Ho2  1  0.33333862  0.66666138  0.06288033  1
  Ho  Ho3  1  0.66666138  0.33333862  0.93711967  1
  Tc  Tc0  1  0.00000000  0.00000000  0.50000000  1
  Tc  Tc1  1  0.00000000  0.00000000  -0.00000000  1
  Tc  Tc2  1  0.17156435  0.34310235  0.75000000  1
  Tc  Tc3  1  0.17149673  0.82850327  0.75000000  1
  Tc  Tc4  1  0.65689765  0.82843565  0.75000000  1
  Tc  Tc5  1  0.82843565  0.65689765  0.25000000  1
  Tc  Tc6  1  0.82850327  0.17149673  0.25000000  1
  Tc  Tc7  1  0.34310235  0.17156435  0.25000000  1
loop_
_geom_bond_atom_site_label_1
_geom_bond_atom_site_label_2
_geom_bond_distance
_geom_bond_site_symmetry_2
Ho0 Tc0 3.126838 1_555
Ho0 Tc0 3.126838 1_665
Ho0 Tc0 3.127481 1_655
Ho0 Tc3 3.135028 1_655
Ho0 Tc3 3.135028 1_545
Ho0 Tc4 3.135374 1_555
Ho0 Tc2 3.135374 1_555
Ho0 Tc2 3.135549 1_655
Ho0 Tc4 3.135549 1_545
Ho0 Tc5 3.138434 1_555
Ho0 Tc7 3.138434 1_555
Ho0 Tc6 3.138843 1_555
Ho0 Ho1 3.271205 1_545
Ho0 Ho1 3.271205 1_655
Ho0 Ho1 3.271613 1_555
Ho0 Ho3 3.301609 1_555
Ho1 Tc0 3.126838 1_555
Ho1 Tc0 3.126838 1_665
Ho1 Tc0 3.127481 1_565
Ho1 Tc6 3.135028 1_455
Ho1 Tc6 3.135028 1_565
Ho1 Tc5 3.135374 1_555
Ho1 Tc7 3.135374 1_555
Ho1 Tc7 3.135549 1_565
Ho1 Tc5 3.135549 1_455
Ho1 Tc4 3.138434 1_555
Ho1 Tc2 3.138434 1_555
Ho1 Tc3 3.138843 1_555
Ho1 Ho2 3.301609 1_555
Ho2 Tc1 3.126838 1_665
Ho2 Tc1 3.126838 1_555
Ho2 Tc1 3.127481 1_565
Ho2 Tc6 3.135028 1_455
Ho2 Tc6 3.135028 1_565
Ho2 Tc5 3.135374 1_555
Ho2 Tc7 3.135374 1_555
Ho2 Tc7 3.135549 1_565
Ho2 Tc5 3.135549 1_455
Ho2 Tc4 3.138434 1_554
Ho2 Tc2 3.138434 1_554
Ho2 Tc3 3.138843 1_554
Ho2 Ho3 3.271205 1_454
Ho2 Ho3 3.271205 1_564
Ho2 Ho3 3.271613 1_554
Ho3 Tc1 3.126838 1_666
Ho3 Tc1 3.126838 1_556
Ho3 Tc1 3.127481 1_656
Ho3 Tc3 3.135028 1_545
Ho3 Tc3 3.135028 1_655
Ho3 Tc4 3.135374 1_555
Ho3 Tc2 3.135374 1_555
Ho3 Tc2 3.135549 1_655
Ho3 Tc4 3.135549 1_545
Ho3 Tc7 3.138434 1_556
Ho3 Tc5 3.138434 1_556
Ho3 Tc6 3.138843 1_556
Tc0 Tc3 2.715136 1_545
Tc0 Tc6 2.715136 1_455
Tc0 Tc4 2.715255 1_445
Tc0 Tc7 2.715255 1_555
Tc0 Tc2 2.715255 1_555
Tc0 Tc5 2.715255 1_445
Tc1 Tc3 2.715136 1_544
Tc1 Tc6 2.715136 1_455
Tc1 Tc7 2.715255 1_555
Tc1 Tc2 2.715255 1_554
Tc1 Tc4 2.715255 1_444
Tc1 Tc5 2.715255 1_445
Tc2 Tc4 2.586650 1_555
Tc2 Tc3 2.587678 1_555
Tc2 Tc3 2.742962 1_545
Tc2 Tc4 2.742986 1_445
Tc3 Tc4 2.587678 1_555
Tc3 Tc4 2.742962 1_455
Tc5 Tc7 2.586650 1_555
Tc5 Tc6 2.587678 1_555
Tc5 Tc6 2.742962 1_565
Tc5 Tc7 2.742986 1_665
Tc6 Tc7 2.587678 1_555
Tc6 Tc7 2.742962 1_655
