# generated using pymatgen
data_Li9Mn2Co5O16
_symmetry_space_group_name_H-M   'P 1'
_cell_length_a   5.10326000
_cell_length_b   5.88930662
_cell_length_c   9.71935312
_cell_angle_alpha   88.48444162
_cell_angle_beta   78.88794275
_cell_angle_gamma   89.40775959
_symmetry_Int_Tables_number   1
_chemical_formula_structural   Li9Mn2Co5O16
_chemical_formula_sum   'Li9 Mn2 Co5 O16'
_cell_volume   286.53104761
_cell_formula_units_Z   1
loop_
 _symmetry_equiv_pos_site_id
 _symmetry_equiv_pos_as_xyz
  1  'x, y, z'
loop_
 _atom_site_type_symbol
 _atom_site_label
 _atom_site_symmetry_multiplicity
 _atom_site_fract_x
 _atom_site_fract_y
 _atom_site_fract_z
 _atom_site_occupancy
  Li  Li0  1  0.49218800  0.26078200  0.00191900  1
  Li  Li1  1  0.24473000  0.49879100  0.24540800  1
  Li  Li2  1  0.50781200  0.73921800  0.99808100  1
  Li  Li3  1  0.24724400  0.99214900  0.24389000  1
  Li  Li4  1  0.75275600  0.00785100  0.75611000  1
  Li  Li5  1  0.75527000  0.50120900  0.75459200  1
  Li  Li6  1  0.00042600  0.75039200  0.49824400  1
  Li  Li7  1  0.99957400  0.24960800  0.50175600  1
  Li  Li8  1  0.00000000  0.50000000  0.00000000  1
  Mn  Mn0  1  0.00000000  0.00000000  0.00000000  1
  Mn  Mn1  1  0.50000000  0.50000000  0.50000000  1
  Co  Co0  1  0.75187000  0.25461800  0.24191400  1
  Co  Co1  1  0.24813000  0.74538200  0.75808600  1
  Co  Co2  1  0.75121700  0.74191600  0.24480700  1
  Co  Co3  1  0.50000000  0.00000000  0.50000000  1
  Co  Co4  1  0.24878300  0.25808400  0.75519300  1
  O  O0  1  0.35116500  0.00047900  0.87978900  1
  O  O1  1  0.10960800  0.22777000  0.12063700  1
  O  O2  1  0.37749700  0.51271300  0.86326400  1
  O  O3  1  0.09390600  0.76226000  0.12647600  1
  O  O4  1  0.61126400  0.74738100  0.60755300  1
  O  O5  1  0.60673300  0.27042200  0.62592600  1
  O  O6  1  0.84965700  0.49420400  0.37694600  1
  O  O7  1  0.83760200  0.00569600  0.37438800  1
  O  O8  1  0.62250300  0.48728700  0.13673600  1
  O  O9  1  0.39326700  0.72957800  0.37407400  1
  O  O10  1  0.64883500  0.99952100  0.12021100  1
  O  O11  1  0.38873600  0.25261900  0.39244700  1
  O  O12  1  0.90609400  0.23774000  0.87352400  1
  O  O13  1  0.89039200  0.77223000  0.87936300  1
  O  O14  1  0.16239800  0.99430400  0.62561200  1
  O  O15  1  0.15034300  0.50579600  0.62305400  1
loop_
_geom_bond_atom_site_label_1
_geom_bond_atom_site_label_2
_geom_bond_distance
_geom_bond_site_symmetry_2
Li0 O1 2.075742 1_555
Li0 O8 2.094129 1_555
Li0 O2 2.130817 1_554
Li0 O10 2.136263 1_545
Li0 O0 2.173802 1_554
Li0 O12 2.241514 1_554
Li1 O8 2.013228 1_555
Li1 O9 2.112447 1_555
Li1 O3 2.135329 1_555
Li1 O6 2.169298 1_455
Li1 O1 2.222883 1_555
Li1 O11 2.226556 1_555
Li2 O13 2.075742 1_555
Li2 O2 2.094129 1_555
Li2 O8 2.130817 1_556
Li2 O0 2.136263 1_565
Li2 O10 2.173802 1_556
Li2 O3 2.241514 1_556
Li3 O1 2.017479 1_565
Li3 O3 2.048294 1_555
Li3 O10 2.167140 1_555
Li3 O9 2.187159 1_555
Li3 O7 2.228269 1_465
Li3 O11 2.345467 1_565
Li4 O13 2.017479 1_545
Li4 O12 2.048294 1_555
Li4 O0 2.167140 1_555
Li4 O5 2.187159 1_555
Li4 O14 2.228269 1_645
Li4 O4 2.345467 1_545
Li5 O2 2.013228 1_555
Li5 O5 2.112447 1_555
Li5 O12 2.135329 1_555
Li5 O15 2.169298 1_655
Li5 O13 2.222883 1_555
Li5 O4 2.226556 1_555
Li6 O4 2.063892 1_455
Li6 O15 2.091514 1_555
Li6 O9 2.135595 1_555
Li6 O7 2.159695 1_465
Li6 O6 2.173939 1_455
Li6 O14 2.189112 1_555
Li7 O11 2.063892 1_655
Li7 O6 2.091514 1_555
Li7 O5 2.135595 1_555
Li7 O14 2.159695 1_645
Li7 O15 2.173939 1_655
Li7 O7 2.189112 1_555
Li8 O1 2.095923 1_555
Li8 O13 2.095923 1_454
Li8 O12 2.114031 1_454
Li8 O3 2.114031 1_555
Li8 O2 2.119889 1_554
Li8 O8 2.119889 1_455
Mn0 O0 1.941527 1_554
Mn0 O10 1.941527 1_445
Mn0 O3 1.955315 1_545
Mn0 O12 1.955315 1_454
Mn0 O13 1.959223 1_444
Mn0 O1 1.959223 1_555
Mn1 O9 1.943431 1_555
Mn1 O5 1.943431 1_555
Mn1 O6 1.947800 1_555
Mn1 O15 1.947800 1_555
Mn1 O4 1.965750 1_555
Mn1 O11 1.965750 1_555
Co0 O8 1.877719 1_555
Co0 O1 1.980342 1_655
Co0 O7 2.025428 1_555
Co0 O10 2.069490 1_545
Co0 O6 2.080231 1_555
Co0 O11 2.128242 1_555
Co1 O2 1.877719 1_555
Co1 O13 1.980342 1_455
Co1 O14 2.025428 1_555
Co1 O0 2.069490 1_565
Co1 O15 2.080231 1_555
Co1 O4 2.128242 1_555
Co2 O3 1.901909 1_655
Co2 O9 2.008468 1_555
Co2 O8 2.037930 1_555
Co2 O6 2.040709 1_555
Co2 O10 2.042412 1_555
Co2 O7 2.127325 1_565
Co3 O7 1.910022 1_555
Co3 O14 1.910022 1_545
Co3 O11 1.938458 1_555
Co3 O4 1.938458 1_545
Co3 O5 2.170031 1_555
Co3 O9 2.170031 1_545
Co4 O12 1.901909 1_455
Co4 O5 2.008468 1_555
Co4 O2 2.037930 1_555
Co4 O15 2.040709 1_555
Co4 O0 2.042412 1_555
Co4 O14 2.127325 1_545
