# generated using pymatgen
data_Er3Ge13Ir4
_symmetry_space_group_name_H-M   'P 1'
_cell_length_a   9.03299600
_cell_length_b   9.03299600
_cell_length_c   9.03299600
_cell_angle_alpha   90.00000000
_cell_angle_beta   90.00000000
_cell_angle_gamma   90.00000000
_symmetry_Int_Tables_number   1
_chemical_formula_structural   Er3Ge13Ir4
_chemical_formula_sum   'Er6 Ge26 Ir8'
_cell_volume   737.04745980
_cell_formula_units_Z   2
loop_
 _symmetry_equiv_pos_site_id
 _symmetry_equiv_pos_as_xyz
  1  'x, y, z'
loop_
 _atom_site_type_symbol
 _atom_site_label
 _atom_site_symmetry_multiplicity
 _atom_site_fract_x
 _atom_site_fract_y
 _atom_site_fract_z
 _atom_site_occupancy
  Er  Er0  1  0.00000000  0.50000000  0.75000000  1
  Er  Er1  1  0.50000000  0.25000000  0.00000000  1
  Er  Er2  1  0.75000000  0.00000000  0.50000000  1
  Er  Er3  1  0.00000000  0.50000000  0.25000000  1
  Er  Er4  1  0.50000000  0.75000000  0.00000000  1
  Er  Er5  1  0.25000000  0.00000000  0.50000000  1
  Ge  Ge0  1  0.50000000  0.50000000  0.50000000  1
  Ge  Ge1  1  0.00000000  0.00000000  0.00000000  1
  Ge  Ge2  1  0.80959300  0.35403100  0.50000000  1
  Ge  Ge3  1  0.64596900  0.50000000  0.80959300  1
  Ge  Ge4  1  0.50000000  0.19040700  0.64596900  1
  Ge  Ge5  1  0.19040700  0.64596900  0.50000000  1
  Ge  Ge6  1  0.35403100  0.50000000  0.19040700  1
  Ge  Ge7  1  0.50000000  0.80959300  0.35403100  1
  Ge  Ge8  1  0.80959300  0.64596900  0.50000000  1
  Ge  Ge9  1  0.64596900  0.50000000  0.19040700  1
  Ge  Ge10  1  0.19040700  0.35403100  0.50000000  1
  Ge  Ge11  1  0.35403100  0.50000000  0.80959300  1
  Ge  Ge12  1  0.50000000  0.80959300  0.64596900  1
  Ge  Ge13  1  0.50000000  0.19040700  0.35403100  1
  Ge  Ge14  1  0.30959300  0.00000000  0.85403100  1
  Ge  Ge15  1  0.14596900  0.30959300  0.00000000  1
  Ge  Ge16  1  0.00000000  0.14596900  0.69040700  1
  Ge  Ge17  1  0.69040700  0.00000000  0.14596900  1
  Ge  Ge18  1  0.85403100  0.69040700  0.00000000  1
  Ge  Ge19  1  0.00000000  0.85403100  0.30959300  1
  Ge  Ge20  1  0.30959300  0.00000000  0.14596900  1
  Ge  Ge21  1  0.14596900  0.69040700  0.00000000  1
  Ge  Ge22  1  0.69040700  0.00000000  0.85403100  1
  Ge  Ge23  1  0.85403100  0.30959300  0.00000000  1
  Ge  Ge24  1  0.00000000  0.14596900  0.30959300  1
  Ge  Ge25  1  0.00000000  0.85403100  0.69040700  1
  Ir  Ir0  1  0.75000000  0.25000000  0.75000000  1
  Ir  Ir1  1  0.25000000  0.75000000  0.25000000  1
  Ir  Ir2  1  0.75000000  0.75000000  0.25000000  1
  Ir  Ir3  1  0.25000000  0.25000000  0.75000000  1
  Ir  Ir4  1  0.25000000  0.75000000  0.75000000  1
  Ir  Ir5  1  0.75000000  0.25000000  0.25000000  1
  Ir  Ir6  1  0.25000000  0.25000000  0.25000000  1
  Ir  Ir7  1  0.75000000  0.75000000  0.75000000  1
loop_
_geom_bond_atom_site_label_1
_geom_bond_atom_site_label_2
_geom_bond_distance
_geom_bond_site_symmetry_2
Er0 Ge15 3.129927 1_556
Er0 Ge21 3.129927 1_556
Er0 Ge23 3.129927 1_456
Er0 Ge18 3.129927 1_456
Er0 Ge10 3.129927 1_555
Er0 Ge8 3.129927 1_455
Er0 Ge2 3.129927 1_455
Er0 Ge5 3.129927 1_555
Er0 Ir3 3.193646 1_555
Er0 Ir0 3.193646 1_455
Er0 Ir4 3.193646 1_555
Er0 Ir7 3.193646 1_455
Er0 Ge3 3.242950 1_455
Er0 Ge25 3.242950 1_555
Er0 Ge16 3.242950 1_555
Er0 Ge11 3.242950 1_555
Er1 Ge17 3.129927 1_555
Er1 Ge20 3.129927 1_555
Er1 Ge22 3.129927 1_554
Er1 Ge6 3.129927 1_555
Er1 Ge3 3.129927 1_554
Er1 Ge14 3.129927 1_554
Er1 Ge9 3.129927 1_555
Er1 Ge11 3.129927 1_554
Er1 Ir0 3.193646 1_554
Er1 Ir6 3.193646 1_555
Er1 Ir3 3.193646 1_554
Er1 Ir5 3.193646 1_555
Er1 Ge15 3.242950 1_555
Er1 Ge23 3.242950 1_555
Er1 Ge13 3.242950 1_555
Er1 Ge4 3.242950 1_554
Er2 Ge16 3.129927 1_655
Er2 Ge19 3.129927 1_645
Er2 Ge24 3.129927 1_655
Er2 Ge25 3.129927 1_645
Er2 Ge4 3.129927 1_555
Er2 Ge13 3.129927 1_555
Er2 Ge12 3.129927 1_545
Er2 Ge7 3.129927 1_545
Er2 Ir5 3.193646 1_555
Er2 Ir2 3.193646 1_545
Er2 Ir0 3.193646 1_555
Er2 Ir7 3.193646 1_545
Er2 Ge17 3.242950 1_555
Er2 Ge22 3.242950 1_555
Er2 Ge2 3.242950 1_555
Er2 Ge8 3.242950 1_545
Er3 Ge15 3.129927 1_555
Er3 Ge21 3.129927 1_555
Er3 Ge23 3.129927 1_455
Er3 Ge18 3.129927 1_455
Er3 Ge8 3.129927 1_455
Er3 Ge10 3.129927 1_555
Er3 Ge2 3.129927 1_455
Er3 Ge5 3.129927 1_555
Er3 Ir6 3.193646 1_555
Er3 Ir1 3.193646 1_555
Er3 Ir2 3.193646 1_455
Er3 Ir5 3.193646 1_455
Er3 Ge19 3.242950 1_555
Er3 Ge6 3.242950 1_555
Er3 Ge24 3.242950 1_555
Er3 Ge9 3.242950 1_455
Er4 Ge17 3.129927 1_565
Er4 Ge20 3.129927 1_565
Er4 Ge6 3.129927 1_555
Er4 Ge3 3.129927 1_554
Er4 Ge9 3.129927 1_555
Er4 Ge22 3.129927 1_564
Er4 Ge14 3.129927 1_564
Er4 Ge11 3.129927 1_554
Er4 Ir2 3.193646 1_555
Er4 Ir4 3.193646 1_554
Er4 Ir1 3.193646 1_555
Er4 Ir7 3.193646 1_554
Er4 Ge18 3.242950 1_555
Er4 Ge7 3.242950 1_555
Er4 Ge12 3.242950 1_554
Er4 Ge21 3.242950 1_555
Er5 Ge19 3.129927 1_545
Er5 Ge24 3.129927 1_555
Er5 Ge16 3.129927 1_555
Er5 Ge25 3.129927 1_545
Er5 Ge4 3.129927 1_555
Er5 Ge13 3.129927 1_555
Er5 Ge12 3.129927 1_545
Er5 Ge7 3.129927 1_545
Er5 Ir6 3.193646 1_555
Er5 Ir3 3.193646 1_555
Er5 Ir4 3.193646 1_545
Er5 Ir1 3.193646 1_545
Er5 Ge14 3.242950 1_555
Er5 Ge20 3.242950 1_555
Er5 Ge5 3.242950 1_545
Er5 Ge10 3.242950 1_555
Ge0 Ge7 3.091803 1_555
Ge0 Ge12 3.091803 1_555
Ge0 Ge6 3.091803 1_555
Ge0 Ge2 3.091803 1_555
Ge0 Ge10 3.091803 1_555
Ge0 Ge4 3.091803 1_555
Ge0 Ge11 3.091803 1_555
Ge0 Ge9 3.091803 1_555
Ge0 Ge13 3.091803 1_555
Ge0 Ge5 3.091803 1_555
Ge0 Ge3 3.091803 1_555
Ge0 Ge8 3.091803 1_555
Ge1 Ge16 3.091803 1_554
Ge1 Ge23 3.091803 1_455
Ge1 Ge21 3.091803 1_545
Ge1 Ge17 3.091803 1_455
Ge1 Ge14 3.091803 1_554
Ge1 Ge18 3.091803 1_445
Ge1 Ge20 3.091803 1_555
Ge1 Ge19 3.091803 1_545
Ge1 Ge22 3.091803 1_454
Ge1 Ge25 3.091803 1_544
Ge1 Ge24 3.091803 1_555
Ge1 Ge15 3.091803 1_555
Ge2 Ir0 2.504499 1_555
Ge2 Ir5 2.504499 1_555
Ge2 Ge8 2.637075 1_555
Ge3 Ir7 2.504499 1_555
Ge3 Ir0 2.504499 1_555
Ge4 Ir3 2.504499 1_555
Ge4 Ir0 2.504499 1_555
Ge5 Ir1 2.504499 1_555
Ge5 Ir4 2.504499 1_555
Ge6 Ir6 2.504499 1_555
Ge6 Ir1 2.504499 1_555
Ge6 Ge9 2.637075 1_555
Ge7 Ir2 2.504499 1_555
Ge7 Ir1 2.504499 1_555
Ge8 Ir2 2.504499 1_555
Ge8 Ir7 2.504499 1_555
Ge9 Ir2 2.504499 1_555
Ge9 Ir5 2.504499 1_555
Ge10 Ir6 2.504499 1_555
Ge10 Ir3 2.504499 1_555
Ge10 Ge5 2.637075 1_555
Ge11 Ir3 2.504499 1_555
Ge11 Ir4 2.504499 1_555
Ge11 Ge3 2.637075 1_555
Ge12 Ir7 2.504499 1_555
Ge12 Ir4 2.504499 1_555
Ge12 Ge7 2.637075 1_555
Ge13 Ir6 2.504499 1_555
Ge13 Ir5 2.504499 1_555
Ge13 Ge4 2.637075 1_555
Ge14 Ir4 2.504499 1_545
Ge14 Ir3 2.504499 1_555
Ge14 Ge20 2.637075 1_556
Ge15 Ir6 2.504499 1_555
Ge15 Ir3 2.504499 1_554
Ge15 Ge23 2.637075 1_455
Ge16 Ir3 2.504499 1_555
Ge16 Ir0 2.504499 1_455
Ge16 Ge25 2.637075 1_545
Ge17 Ir5 2.504499 1_555
Ge17 Ir2 2.504499 1_545
Ge17 Ge22 2.637075 1_554
Ge18 Ir2 2.504499 1_555
Ge18 Ir7 2.504499 1_554
Ge18 Ge21 2.637075 1_655
Ge19 Ir2 2.504499 1_455
Ge19 Ir1 2.504499 1_555
Ge19 Ge24 2.637075 1_565
Ge20 Ir1 2.504499 1_545
Ge20 Ir6 2.504499 1_555
Ge21 Ir4 2.504499 1_554
Ge21 Ir1 2.504499 1_555
Ge22 Ir7 2.504499 1_545
Ge22 Ir0 2.504499 1_555
Ge23 Ir5 2.504499 1_555
Ge23 Ir0 2.504499 1_554
Ge24 Ir5 2.504499 1_455
Ge24 Ir6 2.504499 1_555
Ge25 Ir4 2.504499 1_555
Ge25 Ir7 2.504499 1_455
