# generated using pymatgen
data_Ba(P2Au)2
_symmetry_space_group_name_H-M   'P 1'
_cell_length_a   5.56323352
_cell_length_b   5.56323352
_cell_length_c   11.66659227
_cell_angle_alpha   99.28422859
_cell_angle_beta   99.28422859
_cell_angle_gamma   108.86529912
_symmetry_Int_Tables_number   1
_chemical_formula_structural   Ba(P2Au)2
_chemical_formula_sum   'Ba2 P8 Au4'
_cell_volume   328.27351927
_cell_formula_units_Z   2
loop_
 _symmetry_equiv_pos_site_id
 _symmetry_equiv_pos_as_xyz
  1  'x, y, z'
loop_
 _atom_site_type_symbol
 _atom_site_label
 _atom_site_symmetry_multiplicity
 _atom_site_fract_x
 _atom_site_fract_y
 _atom_site_fract_z
 _atom_site_occupancy
  Ba  Ba0  1  0.37500000  0.12500000  0.25000000  1
  Ba  Ba1  1  0.62500000  0.87500000  0.75000000  1
  P  P0  1  0.09862136  0.12197220  0.59097771  1
  P  P1  1  0.03099548  0.50764365  0.90902229  1
  P  P2  1  0.37802780  0.40137864  0.90902229  1
  P  P3  1  0.99235635  0.46900452  0.59097771  1
  P  P4  1  0.90137864  0.87802780  0.40902229  1
  P  P5  1  0.96900452  0.49235635  0.09097771  1
  P  P6  1  0.62197220  0.59862136  0.09097771  1
  P  P7  1  0.00764365  0.53099548  0.40902229  1
  Au  Au0  1  0.53843740  0.28843740  0.57687481  1
  Au  Au1  1  0.21156260  0.96156260  0.92312519  1
  Au  Au2  1  0.46156260  0.71156260  0.42312519  1
  Au  Au3  1  0.78843740  0.03843740  0.07687481  1
loop_
_geom_bond_atom_site_label_1
_geom_bond_atom_site_label_2
_geom_bond_distance
_geom_bond_site_symmetry_2
Ba0 P6 3.511534 1_555
Ba0 P4 3.511534 1_445
Ba0 P7 3.511535 1_655
Ba0 P5 3.511535 1_445
Ba1 P0 3.511534 1_665
Ba1 P2 3.511534 1_555
Ba1 P1 3.511535 1_665
Ba1 P3 3.511535 1_455
P0 P3 2.194284 1_455
P0 P4 2.215387 1_445
P1 P2 2.194284 1_555
P1 P5 2.215390 1_456
P2 P6 2.215387 1_556
P3 P7 2.215390 1_655
P4 P7 2.194284 1_655
P5 P6 2.194284 1_555
Au0 P3 2.363310 1_555
Au0 P0 2.363310 1_555
Au0 Ba1 3.391617 1_545
Au0 Ba1 3.391617 1_555
Au0 Ba0 3.663890 1_555
Au1 P1 2.363310 1_555
Au1 P2 2.363310 1_565
Au1 Ba1 3.391617 1_555
Au1 Ba1 3.391617 1_455
Au1 Ba0 3.663890 1_566
Au2 P7 2.363310 1_555
Au2 P4 2.363310 1_555
Au2 Ba0 3.391617 1_565
Au2 Ba0 3.391617 1_555
Au2 Ba1 3.663890 1_555
Au3 P5 2.363310 1_555
Au3 P6 2.363310 1_545
Au3 Ba0 3.391617 1_555
Au3 Ba0 3.391617 1_655
Au3 Ba1 3.663890 1_544
