# generated using pymatgen
data_Mg6VSn
_symmetry_space_group_name_H-M   'P 1'
_cell_length_a   5.08828900
_cell_length_b   6.09027500
_cell_length_c   11.05176000
_cell_angle_alpha   90.00000000
_cell_angle_beta   90.00000000
_cell_angle_gamma   90.00000000
_symmetry_Int_Tables_number   1
_chemical_formula_structural   Mg6VSn
_chemical_formula_sum   'Mg12 V2 Sn2'
_cell_volume   342.48386693
_cell_formula_units_Z   2
loop_
 _symmetry_equiv_pos_site_id
 _symmetry_equiv_pos_as_xyz
  1  'x, y, z'
loop_
 _atom_site_type_symbol
 _atom_site_label
 _atom_site_symmetry_multiplicity
 _atom_site_fract_x
 _atom_site_fract_y
 _atom_site_fract_z
 _atom_site_occupancy
  Mg  Mg0  1  0.50000000  0.24919700  0.41730100  1
  Mg  Mg1  1  0.50000000  0.75080300  0.41730100  1
  Mg  Mg2  1  0.00000000  0.76013700  0.08320200  1
  Mg  Mg3  1  0.00000000  0.23986300  0.08320200  1
  Mg  Mg4  1  0.00000000  0.00000000  0.32803800  1
  Mg  Mg5  1  0.00000000  0.50000000  0.33561900  1
  Mg  Mg6  1  0.50000000  0.74919700  0.91730100  1
  Mg  Mg7  1  0.50000000  0.25080300  0.91730100  1
  Mg  Mg8  1  0.00000000  0.26013700  0.58320200  1
  Mg  Mg9  1  0.00000000  0.73986300  0.58320200  1
  Mg  Mg10  1  0.00000000  0.50000000  0.82803800  1
  Mg  Mg11  1  0.00000000  0.00000000  0.83561900  1
  V  V0  1  0.50000000  0.00000000  0.16770100  1
  V  V1  1  0.50000000  0.50000000  0.66770100  1
  Sn  Sn0  1  0.50000000  0.50000000  0.16763200  1
  Sn  Sn1  1  0.50000000  0.00000000  0.66763200  1
loop_
_geom_bond_atom_site_label_1
_geom_bond_atom_site_label_2
_geom_bond_distance
_geom_bond_site_symmetry_2
Mg0 Mg1 3.035357 1_545
Mg0 Mg1 3.054918 1_555
Mg0 Mg5 3.101729 1_555
Mg0 Mg5 3.101729 1_655
Mg0 Mg4 3.122375 1_655
Mg0 Mg4 3.122375 1_555
Mg0 Mg8 3.136690 1_555
Mg0 Mg8 3.136690 1_655
Mg0 V0 3.148456 1_555
Mg0 Sn0 3.153850 1_555
Mg0 Sn1 3.155537 1_555
Mg0 V1 3.160920 1_555
Mg1 Mg5 3.101729 1_655
Mg1 Mg5 3.101729 1_555
Mg1 Mg4 3.122375 1_665
Mg1 Mg4 3.122375 1_565
Mg1 Mg9 3.136690 1_655
Mg1 Mg9 3.136690 1_555
Mg1 V0 3.148456 1_565
Mg1 Sn0 3.153850 1_555
Mg1 Sn1 3.155537 1_565
Mg1 V1 3.160920 1_555
Mg2 Mg3 2.921663 1_565
Mg2 Mg4 3.075021 1_565
Mg2 V0 3.078766 1_565
Mg2 V0 3.078766 1_465
Mg2 Mg6 3.136690 1_554
Mg2 Mg6 3.136690 1_454
Mg2 Sn0 3.139008 1_455
Mg2 Sn0 3.139008 1_555
Mg2 Mg3 3.168612 1_555
Mg2 Mg5 3.208143 1_555
Mg3 Mg4 3.075021 1_555
Mg3 V0 3.078766 1_455
Mg3 V0 3.078766 1_555
Mg3 Mg7 3.136690 1_554
Mg3 Mg7 3.136690 1_454
Mg3 Sn0 3.139008 1_555
Mg3 Sn0 3.139008 1_455
Mg3 Mg5 3.208143 1_555
Mg4 Mg5 3.046290 1_545
Mg4 Mg5 3.046290 1_555
Mg4 V0 3.100432 1_555
Mg4 V0 3.100432 1_455
Mg4 Mg8 3.234577 1_555
Mg4 Mg9 3.234577 1_545
Mg5 Mg9 3.101769 1_555
Mg5 Mg8 3.101769 1_555
Mg5 Sn0 3.149517 1_555
Mg5 Sn0 3.149517 1_455
Mg6 Mg7 3.035357 1_555
Mg6 Mg7 3.054918 1_565
Mg6 V1 3.148456 1_555
Mg6 Sn1 3.153850 1_565
Mg6 Sn0 3.155537 1_556
Mg6 V0 3.160920 1_566
Mg7 V1 3.148456 1_555
Mg7 Sn1 3.153850 1_555
Mg7 Sn0 3.155537 1_556
Mg7 V0 3.160920 1_556
Mg8 Mg9 2.921663 1_555
Mg8 V1 3.078766 1_455
Mg8 V1 3.078766 1_555
Mg8 Sn1 3.139008 1_455
Mg8 Sn1 3.139008 1_555
Mg8 Mg9 3.168612 1_545
Mg9 V1 3.078766 1_455
Mg9 V1 3.078766 1_555
Mg9 Sn1 3.139008 1_465
Mg9 Sn1 3.139008 1_565
Mg10 Mg11 3.046290 1_555
Mg10 Mg11 3.046290 1_565
Mg10 Mg9 3.075021 1_555
Mg10 Mg8 3.075021 1_555
Mg10 V1 3.100432 1_555
Mg10 V1 3.100432 1_455
Mg10 Mg6 3.122375 1_555
Mg10 Mg7 3.122375 1_455
Mg10 Mg7 3.122375 1_555
Mg10 Mg6 3.122375 1_455
Mg10 Mg2 3.234577 1_556
Mg10 Mg3 3.234577 1_556
Mg11 Mg7 3.101729 1_455
Mg11 Mg6 3.101729 1_545
Mg11 Mg7 3.101729 1_555
Mg11 Mg6 3.101729 1_445
Mg11 Mg3 3.101769 1_556
Mg11 Mg2 3.101769 1_546
Mg11 Sn1 3.149517 1_555
Mg11 Sn1 3.149517 1_455
Mg11 Mg8 3.208143 1_555
Mg11 Mg9 3.208143 1_545
Sn0 V0 3.045138 1_565
Sn0 V0 3.045138 1_555
Sn1 V1 3.045138 1_555
Sn1 V1 3.045138 1_545
