# generated using pymatgen
data_Fe3(PO6)2
_symmetry_space_group_name_H-M   'P 1'
_cell_length_a   4.56157900
_cell_length_b   8.68332900
_cell_length_c   10.65010848
_cell_angle_alpha   75.10343004
_cell_angle_beta   90.00000000
_cell_angle_gamma   90.00000000
_symmetry_Int_Tables_number   1
_chemical_formula_structural   Fe3(PO6)2
_chemical_formula_sum   'Fe6 P4 O24'
_cell_volume   407.66983409
_cell_formula_units_Z   2
loop_
 _symmetry_equiv_pos_site_id
 _symmetry_equiv_pos_as_xyz
  1  'x, y, z'
loop_
 _atom_site_type_symbol
 _atom_site_label
 _atom_site_symmetry_multiplicity
 _atom_site_fract_x
 _atom_site_fract_y
 _atom_site_fract_z
 _atom_site_occupancy
  Fe  Fe0  1  0.50000000  0.00000000  0.50000000  1
  Fe  Fe1  1  0.00000000  0.00000000  0.00000000  1
  Fe  Fe2  1  0.42543300  0.65956000  0.68024400  1
  Fe  Fe3  1  0.92543300  0.34044000  0.81975600  1
  Fe  Fe4  1  0.57456700  0.34044000  0.31975600  1
  Fe  Fe5  1  0.07456700  0.65956000  0.18024400  1
  P  P0  1  0.48736800  0.76534600  0.94478700  1
  P  P1  1  0.98736800  0.23465400  0.55521300  1
  P  P2  1  0.51263200  0.23465400  0.05521300  1
  P  P3  1  0.01263200  0.76534600  0.44478700  1
  O  O0  1  0.73918800  0.79574300  0.52444100  1
  O  O1  1  0.23918800  0.20425700  0.97555900  1
  O  O2  1  0.26081200  0.20425700  0.47555900  1
  O  O3  1  0.76081200  0.79574300  0.02444100  1
  O  O4  1  0.30246900  0.91887900  0.89515800  1
  O  O5  1  0.80246900  0.08112100  0.60484200  1
  O  O6  1  0.69753100  0.08112100  0.10484200  1
  O  O7  1  0.19753100  0.91887900  0.39515800  1
  O  O8  1  0.61688300  0.71019700  0.82836700  1
  O  O9  1  0.11688300  0.28980300  0.67163300  1
  O  O10  1  0.38311700  0.28980300  0.17163300  1
  O  O11  1  0.88311700  0.71019700  0.32836700  1
  O  O12  1  0.20232300  0.62977100  0.53111600  1
  O  O13  1  0.70232300  0.37022900  0.96888400  1
  O  O14  1  0.79767700  0.37022900  0.46888400  1
  O  O15  1  0.29767700  0.62977100  0.03111600  1
  O  O16  1  0.29579400  0.87254300  0.64231900  1
  O  O17  1  0.79579400  0.12745700  0.85768100  1
  O  O18  1  0.70420600  0.12745700  0.35768100  1
  O  O19  1  0.20420600  0.87254300  0.14231900  1
  O  O20  1  0.13552600  0.53062400  0.79760300  1
  O  O21  1  0.63552600  0.46937600  0.70239700  1
  O  O22  1  0.86447400  0.46937600  0.20239700  1
  O  O23  1  0.36447400  0.53062400  0.29760300  1
loop_
_geom_bond_atom_site_label_1
_geom_bond_atom_site_label_2
_geom_bond_distance
_geom_bond_site_symmetry_2
Fe0 O16 1.878160 1_545
Fe0 O18 1.878160 1_555
Fe0 O5 2.012707 1_555
Fe0 O7 2.012707 1_545
Fe0 O2 2.041224 1_555
Fe0 O0 2.041224 1_545
Fe1 O19 1.878160 1_545
Fe1 O17 1.878160 1_454
Fe1 O6 2.012707 1_455
Fe1 O4 2.012707 1_544
Fe1 O1 2.041224 1_554
Fe1 O3 2.041224 1_445
Fe2 O21 1.871098 1_555
Fe2 O16 1.883897 1_555
Fe2 O8 1.949675 1_555
Fe2 O12 1.958670 1_555
Fe2 O20 1.960881 1_555
Fe2 O0 2.278427 1_555
Fe3 O20 1.871098 1_655
Fe3 O17 1.883897 1_555
Fe3 O9 1.949675 1_655
Fe3 O13 1.958670 1_555
Fe3 O21 1.960881 1_555
Fe3 O1 2.278427 1_655
Fe4 O23 1.871098 1_555
Fe4 O18 1.883897 1_555
Fe4 O10 1.949675 1_555
Fe4 O14 1.958670 1_555
Fe4 O22 1.960881 1_555
Fe4 O2 2.278427 1_555
Fe5 O22 1.871098 1_455
Fe5 O19 1.883897 1_555
Fe5 O11 1.949675 1_455
Fe5 O15 1.958670 1_555
Fe5 O23 1.960881 1_555
Fe5 O3 2.278427 1_455
O0 P3 1.568532 1_655
O1 P2 1.568532 1_556
O2 P1 1.568532 1_455
O3 P0 1.568532 1_554
O4 P0 1.551067 1_555
O5 P1 1.551067 1_555
O6 P2 1.551067 1_555
O7 P3 1.551067 1_555
O8 P0 1.555941 1_555
O9 P1 1.555941 1_455
O10 P2 1.555941 1_555
O11 P3 1.555941 1_655
O12 P3 1.556742 1_555
O13 P2 1.556742 1_556
O14 P1 1.556742 1_555
O15 P0 1.556742 1_554
