# generated using pymatgen
data_Cs3LaBr6
_symmetry_space_group_name_H-M   'P 1'
_cell_length_a   14.98910808
_cell_length_b   14.98910808
_cell_length_c   13.95691200
_cell_angle_alpha   81.20675239
_cell_angle_beta   81.20675239
_cell_angle_gamma   33.86061933
_symmetry_Int_Tables_number   1
_chemical_formula_structural   Cs3LaBr6
_chemical_formula_sum   'Cs12 La4 Br24'
_cell_volume   1724.70728941
_cell_formula_units_Z   4
loop_
 _symmetry_equiv_pos_site_id
 _symmetry_equiv_pos_as_xyz
  1  'x, y, z'
loop_
 _atom_site_type_symbol
 _atom_site_label
 _atom_site_symmetry_multiplicity
 _atom_site_fract_x
 _atom_site_fract_y
 _atom_site_fract_z
 _atom_site_occupancy
  Cs  Cs0  1  0.16287068  0.52636514  0.64564380  1
  Cs  Cs1  1  0.47363486  0.83712932  0.85435620  1
  Cs  Cs2  1  0.83712932  0.47363486  0.35435620  1
  Cs  Cs3  1  0.52636514  0.16287068  0.14564380  1
  Cs  Cs4  1  0.66923660  0.23285540  0.42604584  1
  Cs  Cs5  1  0.76714460  0.33076340  0.07395416  1
  Cs  Cs6  1  0.33076340  0.76714460  0.57395416  1
  Cs  Cs7  1  0.23285540  0.66923660  0.92604584  1
  Cs  Cs8  1  0.34071180  0.98097245  0.19985889  1
  Cs  Cs9  1  0.01902755  0.65928820  0.30014111  1
  Cs  Cs10  1  0.65928820  0.01902755  0.80014111  1
  Cs  Cs11  1  0.98097245  0.34071180  0.69985889  1
  La  La0  1  0.50000000  0.00000000  0.50000000  1
  La  La1  1  0.00000000  0.50000000  -0.00000000  1
  La  La2  1  0.19939350  0.80060650  0.25000000  1
  La  La3  1  0.80060650  0.19939350  0.75000000  1
  Br  Br0  1  0.37390178  0.28375720  0.41917324  1
  Br  Br1  1  0.71624280  0.62609822  0.08082676  1
  Br  Br2  1  0.62609822  0.71624280  0.58082676  1
  Br  Br3  1  0.28375720  0.37390178  0.91917324  1
  Br  Br4  1  0.49415497  0.62726193  0.32092347  1
  Br  Br5  1  0.37273807  0.50584503  0.17907653  1
  Br  Br6  1  0.50584503  0.37273807  0.67907653  1
  Br  Br7  1  0.62726193  0.49415497  0.82092347  1
  Br  Br8  1  0.78482321  0.86686224  0.53371137  1
  Br  Br9  1  0.13313776  0.21517679  0.96628863  1
  Br  Br10  1  0.21517679  0.13313776  0.46628863  1
  Br  Br11  1  0.86686224  0.78482321  0.03371137  1
  Br  Br12  1  0.36130844  0.13949931  0.69310762  1
  Br  Br13  1  0.86050069  0.63869156  0.80689238  1
  Br  Br14  1  0.63869156  0.86050069  0.30689238  1
  Br  Br15  1  0.13949931  0.36130844  0.19310762  1
  Br  Br16  1  0.17135322  0.71379142  0.44110800  1
  Br  Br17  1  0.28620858  0.82864678  0.05889200  1
  Br  Br18  1  0.82864678  0.28620858  0.55889200  1
  Br  Br19  1  0.71379142  0.17135322  0.94110800  1
  Br  Br20  1  0.00695394  0.11476403  0.29635794  1
  Br  Br21  1  0.88523597  0.99304606  0.20364206  1
  Br  Br22  1  0.99304606  0.88523597  0.70364206  1
  Br  Br23  1  0.11476403  0.00695394  0.79635794  1
loop_
_geom_bond_atom_site_label_1
_geom_bond_atom_site_label_2
_geom_bond_distance
_geom_bond_site_symmetry_2
Br0 La0 2.961255 1_555
Br0 Cs9 3.585384 1_555
Br0 Cs0 3.817606 1_555
Br0 Cs4 3.832233 1_555
Br0 Cs3 3.956069 1_555
Br1 La1 2.961255 1_655
Br1 Cs8 3.585384 1_555
Br1 Cs1 3.817606 1_554
Br1 Cs5 3.832233 1_555
Br1 Cs2 3.956069 1_555
Br2 La0 2.961255 1_565
Br2 Cs11 3.585384 1_555
Br2 Cs2 3.817606 1_555
Br2 Cs6 3.832233 1_555
Br2 Cs1 3.956069 1_555
Br3 La1 2.961255 1_556
Br3 Cs10 3.585384 1_555
Br3 Cs3 3.817606 1_556
Br3 Cs7 3.832233 1_555
Br3 Cs0 3.956069 1_555
Br4 La2 2.955812 1_555
Br4 Cs2 3.562764 1_555
Br4 Cs6 3.735939 1_555
Br4 Cs8 3.801525 1_555
Br4 Cs4 4.092449 1_555
Br4 Cs5 4.306444 1_555
Br5 La2 2.955812 1_555
Br5 Cs3 3.562764 1_555
Br5 Cs7 3.735939 1_554
Br5 Cs9 3.801525 1_555
Br5 Cs5 4.092449 1_555
Br5 Cs4 4.306444 1_555
Br6 La3 2.955812 1_555
Br6 Cs0 3.562764 1_555
Br6 Cs4 3.735939 1_555
Br6 Cs10 3.801525 1_555
Br6 Cs6 4.092449 1_555
Br6 Cs7 4.306444 1_555
Br7 La3 2.955812 1_555
Br7 Cs1 3.562764 1_555
Br7 Cs5 3.735939 1_556
Br7 Cs11 3.801525 1_555
Br7 Cs7 4.092449 1_555
Br7 Cs6 4.306444 1_555
Br8 La0 2.933909 1_565
Br8 Cs0 3.582795 1_655
Br8 Cs9 3.754139 1_655
Br8 Cs10 3.987035 1_565
Br8 Cs4 4.224390 1_565
Br9 La1 2.933909 1_556
Br9 Cs1 3.582795 1_545
Br9 Cs8 3.754139 1_546
Br9 Cs11 3.987035 1_455
Br9 Cs5 4.224390 1_456
Br10 La0 2.933909 1_555
Br10 Cs2 3.582795 1_455
Br10 Cs11 3.754139 1_455
Br10 Cs8 3.987035 1_545
Br10 Cs6 4.224390 1_545
Br11 La1 2.933909 1_655
Br11 Cs3 3.582795 1_565
Br11 Cs10 3.754139 1_564
Br11 Cs9 3.987035 1_655
Br11 Cs7 4.224390 1_654
Br12 La0 2.957810 1_555
Br12 Cs11 3.601742 1_455
Br12 Cs10 3.641692 1_555
Br12 Cs0 3.700609 1_555
Br12 Cs1 3.715876 1_545
Br13 La1 2.957810 1_656
Br13 Cs10 3.601742 1_565
Br13 Cs11 3.641692 1_555
Br13 Cs1 3.700609 1_555
Br13 Cs0 3.715876 1_655
Br14 La0 2.957810 1_565
Br14 Cs9 3.601742 1_655
Br14 Cs8 3.641692 1_555
Br14 Cs2 3.700609 1_555
Br14 Cs3 3.715876 1_565
Br15 La1 2.957810 1_555
Br15 Cs8 3.601742 1_545
Br15 Cs9 3.641692 1_555
Br15 Cs3 3.700609 1_555
Br15 Cs2 3.715876 1_455
Br16 La2 2.913546 1_555
Br16 Cs0 3.753420 1_555
Br16 Cs9 3.835903 1_555
Br16 Cs6 3.842916 1_555
Br16 Cs4 4.282661 1_555
Br17 La2 2.913546 1_555
Br17 Cs1 3.753420 1_554
Br17 Cs8 3.835903 1_555
Br17 Cs7 3.842916 1_554
Br17 Cs5 4.282661 1_555
Br18 La3 2.913546 1_555
Br18 Cs2 3.753420 1_555
Br18 Cs11 3.835903 1_555
Br18 Cs4 3.842916 1_555
Br18 Cs6 4.282661 1_555
Br19 La3 2.913546 1_555
Br19 Cs3 3.753420 1_556
Br19 Cs10 3.835903 1_555
Br19 Cs5 3.842916 1_556
Br19 Cs7 4.282661 1_555
Br20 La2 2.952216 1_545
Br20 Cs8 3.600939 1_545
Br20 Cs2 3.745761 1_455
Br20 Cs5 3.748195 1_455
Br20 Cs4 3.915499 1_455
Br21 La2 2.952216 1_655
Br21 Cs9 3.600939 1_655
Br21 Cs3 3.745761 1_565
Br21 Cs4 3.748195 1_565
Br21 Cs5 3.915499 1_565
Br22 La3 2.952216 1_565
Br22 Cs10 3.600939 1_565
Br22 Cs0 3.745761 1_655
Br22 Cs7 3.748195 1_655
Br22 Cs6 3.915499 1_655
Br23 La3 2.952216 1_455
Br23 Cs11 3.600939 1_455
Br23 Cs1 3.745761 1_545
Br23 Cs6 3.748195 1_545
Br23 Cs7 3.915499 1_545
