# generated using pymatgen
data_Ca6Co3RhO12
_symmetry_space_group_name_H-M   'P 1'
_cell_length_a   6.38298214
_cell_length_b   6.38298214
_cell_length_c   6.38298216
_cell_angle_alpha   91.76102806
_cell_angle_beta   91.76102806
_cell_angle_gamma   91.76101848
_symmetry_Int_Tables_number   1
_chemical_formula_structural   Ca6Co3RhO12
_chemical_formula_sum   'Ca6 Co3 Rh1 O12'
_cell_volume   259.68218988
_cell_formula_units_Z   1
loop_
 _symmetry_equiv_pos_site_id
 _symmetry_equiv_pos_as_xyz
  1  'x, y, z'
loop_
 _atom_site_type_symbol
 _atom_site_label
 _atom_site_symmetry_multiplicity
 _atom_site_fract_x
 _atom_site_fract_y
 _atom_site_fract_z
 _atom_site_occupancy
  Ca  Ca0  1  0.88079000  0.61764100  0.25399800  1
  Ca  Ca1  1  0.25399800  0.88079000  0.61764100  1
  Ca  Ca2  1  0.61764100  0.25399800  0.88079000  1
  Ca  Ca3  1  0.74600200  0.11921000  0.38235900  1
  Ca  Ca4  1  0.38235900  0.74600200  0.11921000  1
  Ca  Ca5  1  0.11921000  0.38235900  0.74600200  1
  Co  Co0  1  0.25614400  0.25614400  0.25614400  1
  Co  Co1  1  0.74385600  0.74385600  0.74385600  1
  Co  Co2  1  0.50000000  0.50000000  0.50000000  1
  Rh  Rh0  1  0.00000000  0.00000000  0.00000000  1
  O  O0  1  0.21199600  0.54014800  0.40868400  1
  O  O1  1  0.40868400  0.21199600  0.54014800  1
  O  O2  1  0.54014800  0.40868400  0.21199600  1
  O  O3  1  0.89769400  0.03289100  0.69857500  1
  O  O4  1  0.69857500  0.89769400  0.03289100  1
  O  O5  1  0.03289100  0.69857500  0.89769400  1
  O  O6  1  0.78800400  0.45985200  0.59131600  1
  O  O7  1  0.59131600  0.78800400  0.45985200  1
  O  O8  1  0.45985200  0.59131600  0.78800400  1
  O  O9  1  0.10230600  0.96710900  0.30142500  1
  O  O10  1  0.30142500  0.10230600  0.96710900  1
  O  O11  1  0.96710900  0.30142500  0.10230600  1
loop_
_geom_bond_atom_site_label_1
_geom_bond_atom_site_label_2
_geom_bond_distance
_geom_bond_site_symmetry_2
Ca0 O11 2.301313 1_555
Ca0 O0 2.377999 1_655
Ca0 O6 2.485146 1_555
Ca0 O2 2.518413 1_555
Ca0 O7 2.551059 1_555
Ca0 O5 2.561034 1_654
Ca0 O4 2.592672 1_555
Ca0 O9 2.608635 1_655
Ca1 O9 2.301313 1_555
Ca1 O1 2.377999 1_565
Ca1 O7 2.485146 1_555
Ca1 O0 2.518412 1_555
Ca1 O8 2.551059 1_555
Ca1 O3 2.561033 1_465
Ca1 O5 2.592672 1_555
Ca1 O10 2.608635 1_565
Ca2 O10 2.301313 1_555
Ca2 O2 2.377999 1_556
Ca2 O8 2.485146 1_555
Ca2 O1 2.518412 1_555
Ca2 O6 2.551059 1_555
Ca2 O4 2.561034 1_546
Ca2 O3 2.592672 1_555
Ca2 O11 2.608635 1_556
Ca3 O3 2.301313 1_555
Ca3 O7 2.377999 1_545
Ca3 O1 2.485146 1_555
Ca3 O6 2.518412 1_555
Ca3 O2 2.551059 1_555
Ca3 O9 2.561033 1_645
Ca3 O11 2.592672 1_555
Ca3 O4 2.608635 1_545
Ca4 O4 2.301313 1_555
Ca4 O8 2.377999 1_554
Ca4 O2 2.485146 1_555
Ca4 O7 2.518412 1_555
Ca4 O0 2.551059 1_555
Ca4 O10 2.561034 1_564
Ca4 O9 2.592672 1_555
Ca4 O5 2.608635 1_554
Ca5 O5 2.301313 1_555
Ca5 O6 2.377999 1_455
Ca5 O0 2.485146 1_555
Ca5 O8 2.518413 1_555
Ca5 O1 2.551059 1_555
Ca5 O11 2.561034 1_456
Ca5 O10 2.592672 1_555
Ca5 O3 2.608635 1_455
Co0 O0 2.062381 1_555
Co0 O1 2.062381 1_555
Co0 O2 2.062382 1_555
Co0 O11 2.095305 1_455
Co0 O10 2.095305 1_554
Co0 O9 2.095305 1_545
Co1 O6 2.062381 1_555
Co1 O7 2.062381 1_555
Co1 O8 2.062382 1_555
Co1 O5 2.095305 1_655
Co1 O4 2.095305 1_556
Co1 O3 2.095305 1_565
Co2 O0 1.938330 1_555
Co2 O6 1.938330 1_555
Co2 O2 1.938330 1_555
Co2 O8 1.938330 1_555
Co2 O1 1.938330 1_555
Co2 O7 1.938330 1_555
O3 Rh0 2.031817 1_656
O4 Rh0 2.031817 1_665
O5 Rh0 2.031816 1_566
O9 Rh0 2.031817 1_565
O10 Rh0 2.031817 1_556
O11 Rh0 2.031816 1_655
