# generated using pymatgen
data_Cr19S30
_symmetry_space_group_name_H-M   'P 1'
_cell_length_a   8.88115100
_cell_length_b   10.39611434
_cell_length_c   10.73536362
_cell_angle_alpha   80.86268366
_cell_angle_beta   72.45623929
_cell_angle_gamma   67.14924194
_symmetry_Int_Tables_number   1
_chemical_formula_structural   Cr19S30
_chemical_formula_sum   'Cr19 S30'
_cell_volume   869.93273743
_cell_formula_units_Z   1
loop_
 _symmetry_equiv_pos_site_id
 _symmetry_equiv_pos_as_xyz
  1  'x, y, z'
loop_
 _atom_site_type_symbol
 _atom_site_label
 _atom_site_symmetry_multiplicity
 _atom_site_fract_x
 _atom_site_fract_y
 _atom_site_fract_z
 _atom_site_occupancy
  Cr  Cr0  1  0.79715600  0.10282300  0.79848200  1
  Cr  Cr1  1  0.00000000  0.50000000  0.00000000  1
  Cr  Cr2  1  0.20284400  0.89717700  0.20151800  1
  Cr  Cr3  1  0.60382500  0.69997700  0.60181800  1
  Cr  Cr4  1  0.39617500  0.30002300  0.39818200  1
  Cr  Cr5  1  0.02241400  0.82234300  0.98628100  1
  Cr  Cr6  1  0.22381200  0.22924300  0.18909600  1
  Cr  Cr7  1  0.41641300  0.63334200  0.38446200  1
  Cr  Cr8  1  0.79590100  0.43646100  0.80259600  1
  Cr  Cr9  1  0.62038100  0.02825300  0.58549800  1
  Cr  Cr10  1  0.97758600  0.17765700  0.01371900  1
  Cr  Cr11  1  0.20409900  0.56353900  0.19740400  1
  Cr  Cr12  1  0.37961900  0.97174700  0.41450200  1
  Cr  Cr13  1  0.77618800  0.77075700  0.81090400  1
  Cr  Cr14  1  0.58358700  0.36665800  0.61553800  1
  Cr  Cr15  1  0.29324900  0.10150700  0.80315300  1
  Cr  Cr16  1  0.10583800  0.69619500  0.60183700  1
  Cr  Cr17  1  0.89416200  0.30380500  0.39816300  1
  Cr  Cr18  1  0.70675100  0.89849300  0.19684700  1
  S  S0  1  0.20673900  0.26618200  0.96814200  1
  S  S1  1  0.00479600  0.86493200  0.76751900  1
  S  S2  1  0.80181500  0.46545300  0.57028900  1
  S  S3  1  0.60275800  0.06590900  0.36590900  1
  S  S4  1  0.40401600  0.66968700  0.16823700  1
  S  S5  1  0.00870500  0.20036900  0.77963300  1
  S  S6  1  0.81827000  0.79437500  0.57640300  1
  S  S7  1  0.60989300  0.39717700  0.37657300  1
  S  S8  1  0.41486700  0.99450600  0.17974400  1
  S  S9  1  0.21277200  0.59405400  0.97437300  1
  S  S10  1  0.20685600  0.94292800  0.97299700  1
  S  S11  1  0.00362200  0.54503300  0.77323300  1
  S  S12  1  0.81127700  0.14256600  0.56818800  1
  S  S13  1  0.60681700  0.74777800  0.37163600  1
  S  S14  1  0.41292400  0.33863900  0.17379500  1
  S  S15  1  0.39724200  0.93409100  0.63409100  1
  S  S16  1  0.19818500  0.53454700  0.42971100  1
  S  S17  1  0.99520400  0.13506800  0.23248100  1
  S  S18  1  0.79326100  0.73381800  0.03185800  1
  S  S19  1  0.59598400  0.33031300  0.83176300  1
  S  S20  1  0.58513300  0.00549400  0.82025600  1
  S  S21  1  0.39010700  0.60282300  0.62342700  1
  S  S22  1  0.18173000  0.20562500  0.42359700  1
  S  S23  1  0.99129500  0.79963100  0.22036700  1
  S  S24  1  0.78722800  0.40594600  0.02562700  1
  S  S25  1  0.39318300  0.25222200  0.62836400  1
  S  S26  1  0.18872300  0.85743400  0.43181200  1
  S  S27  1  0.99637800  0.45496700  0.22676700  1
  S  S28  1  0.79314400  0.05707200  0.02700300  1
  S  S29  1  0.58707600  0.66136100  0.82620500  1
loop_
_geom_bond_atom_site_label_1
_geom_bond_atom_site_label_2
_geom_bond_distance
_geom_bond_site_symmetry_2
Cr0 S19 2.348364 1_555
Cr0 S20 2.400728 1_555
Cr0 S5 2.405125 1_655
Cr0 S12 2.414033 1_555
Cr0 S28 2.415747 1_556
Cr0 S1 2.444789 1_645
Cr1 S24 2.374612 1_455
Cr1 S9 2.374612 1_554
Cr1 S27 2.397740 1_455
Cr1 S11 2.397740 1_554
Cr1 S0 2.411648 1_554
Cr1 S18 2.411648 1_455
Cr2 S4 2.348364 1_555
Cr2 S8 2.400728 1_555
Cr2 S23 2.405125 1_455
Cr2 S26 2.414033 1_555
Cr2 S10 2.415747 1_554
Cr2 S17 2.444789 1_465
Cr3 S29 2.347168 1_555
Cr3 S6 2.391241 1_555
Cr3 S2 2.392610 1_555
Cr3 S21 2.413642 1_555
Cr3 S15 2.413786 1_555
Cr3 S13 2.436101 1_555
Cr4 S14 2.347168 1_555
Cr4 S22 2.391241 1_555
Cr4 S16 2.392610 1_555
Cr4 S7 2.413642 1_555
Cr4 S3 2.413786 1_555
Cr4 S25 2.436101 1_555
Cr5 S9 2.314507 1_555
Cr5 S1 2.360805 1_555
Cr5 S10 2.381677 1_555
Cr5 S23 2.427100 1_456
Cr5 S18 2.437115 1_456
Cr5 S28 2.497024 1_466
Cr6 S14 2.323600 1_555
Cr6 S8 2.367197 1_545
Cr6 S0 2.383118 1_554
Cr6 S22 2.417700 1_555
Cr6 S27 2.424423 1_455
Cr6 S17 2.475182 1_455
Cr7 S4 2.320843 1_555
Cr7 S13 2.379895 1_555
Cr7 S7 2.385268 1_555
Cr7 S16 2.422221 1_555
Cr7 S26 2.423323 1_555
Cr7 S21 2.484782 1_555
Cr8 S24 2.346463 1_556
Cr8 S29 2.346803 1_555
Cr8 S19 2.354785 1_555
Cr8 S11 2.435226 1_655
Cr8 S5 2.442431 1_655
Cr8 S2 2.451068 1_555
Cr9 S3 2.369953 1_555
Cr9 S12 2.371899 1_555
Cr9 S6 2.379751 1_545
Cr9 S25 2.415837 1_555
Cr9 S15 2.424651 1_545
Cr9 S20 2.428573 1_555
Cr10 S24 2.314507 1_555
Cr10 S17 2.360805 1_555
Cr10 S28 2.381677 1_555
Cr10 S5 2.427100 1_654
Cr10 S0 2.437115 1_654
Cr10 S10 2.497024 1_644
Cr11 S9 2.346463 1_554
Cr11 S14 2.346803 1_555
Cr11 S4 2.354785 1_555
Cr11 S27 2.435226 1_455
Cr11 S23 2.442431 1_455
Cr11 S16 2.451068 1_555
Cr12 S15 2.369953 1_555
Cr12 S26 2.371899 1_555
Cr12 S22 2.379751 1_565
Cr12 S13 2.415837 1_555
Cr12 S3 2.424651 1_565
Cr12 S8 2.428573 1_555
Cr13 S29 2.323600 1_555
Cr13 S20 2.367197 1_565
Cr13 S18 2.383118 1_556
Cr13 S6 2.417700 1_555
Cr13 S11 2.424423 1_655
Cr13 S1 2.475182 1_655
Cr14 S19 2.320843 1_555
Cr14 S25 2.379895 1_555
Cr14 S21 2.385268 1_555
Cr14 S2 2.422221 1_555
Cr14 S12 2.423323 1_555
Cr14 S7 2.484782 1_555
Cr15 S0 2.404052 1_555
Cr15 S5 2.406502 1_555
Cr15 S10 2.411529 1_545
Cr15 S25 2.430219 1_555
Cr15 S15 2.433211 1_545
Cr15 S20 2.443153 1_555
Cr16 S21 2.397443 1_555
Cr16 S1 2.419143 1_555
Cr16 S26 2.420728 1_555
Cr16 S11 2.421140 1_555
Cr16 S16 2.431751 1_555
Cr16 S6 2.438492 1_455
Cr17 S7 2.397443 1_555
Cr17 S17 2.419143 1_555
Cr17 S12 2.420728 1_555
Cr17 S27 2.421140 1_555
Cr17 S2 2.431751 1_555
Cr17 S22 2.438492 1_655
Cr18 S18 2.404052 1_555
Cr18 S23 2.406502 1_555
Cr18 S28 2.411529 1_565
Cr18 S13 2.430219 1_555
Cr18 S3 2.433211 1_565
Cr18 S8 2.443153 1_555
