# generated using pymatgen
data_ZrIr
_symmetry_space_group_name_H-M   'P 1'
_cell_length_a   3.13610600
_cell_length_b   3.13610600
_cell_length_c   3.66306800
_cell_angle_alpha   90.00000000
_cell_angle_beta   90.00000000
_cell_angle_gamma   90.00000000
_symmetry_Int_Tables_number   1
_chemical_formula_structural   ZrIr
_chemical_formula_sum   'Zr1 Ir1'
_cell_volume   36.02686296
_cell_formula_units_Z   1
loop_
 _symmetry_equiv_pos_site_id
 _symmetry_equiv_pos_as_xyz
  1  'x, y, z'
loop_
 _atom_site_type_symbol
 _atom_site_label
 _atom_site_symmetry_multiplicity
 _atom_site_fract_x
 _atom_site_fract_y
 _atom_site_fract_z
 _atom_site_occupancy
  Zr  Zr0  1  0.50000000  0.50000000  0.50000000  1
  Ir  Ir0  1  0.00000000  0.00000000  0.00000000  1
loop_
_geom_bond_atom_site_label_1
_geom_bond_atom_site_label_2
_geom_bond_distance
_geom_bond_site_symmetry_2
Ir0 Zr0 2.876125 1_554
Ir0 Zr0 2.876125 1_444
Ir0 Zr0 2.876125 1_454
Ir0 Zr0 2.876125 1_544
Ir0 Zr0 2.876125 1_445
Ir0 Zr0 2.876125 1_545
Ir0 Zr0 2.876125 1_455
Ir0 Zr0 2.876125 1_555
