# generated using pymatgen
data_Ca2Mg(AsO5)2
_symmetry_space_group_name_H-M   'P 1'
_cell_length_a   5.55158259
_cell_length_b   6.25416348
_cell_length_c   12.25474000
_cell_angle_alpha   90.00000000
_cell_angle_beta   90.00000000
_cell_angle_gamma   109.66385858
_symmetry_Int_Tables_number   1
_chemical_formula_structural   Ca2Mg(AsO5)2
_chemical_formula_sum   'Ca4 Mg2 As4 O20'
_cell_volume   400.67741504
_cell_formula_units_Z   2
loop_
 _symmetry_equiv_pos_site_id
 _symmetry_equiv_pos_as_xyz
  1  'x, y, z'
loop_
 _atom_site_type_symbol
 _atom_site_label
 _atom_site_symmetry_multiplicity
 _atom_site_fract_x
 _atom_site_fract_y
 _atom_site_fract_z
 _atom_site_occupancy
  Ca  Ca0  1  0.26337600  0.56216300  0.12478900  1
  Ca  Ca1  1  0.73662400  0.43783700  0.87521100  1
  Ca  Ca2  1  0.23662400  0.43783700  0.62478900  1
  Ca  Ca3  1  0.76337600  0.56216300  0.37521100  1
  Mg  Mg0  1  0.00000000  0.00000000  0.00000000  1
  Mg  Mg1  1  0.50000000  0.00000000  0.50000000  1
  As  As0  1  0.06893200  0.21509400  0.37977300  1
  As  As1  1  0.93106800  0.78490600  0.62022700  1
  As  As2  1  0.43106800  0.78490600  0.87977300  1
  As  As3  1  0.56893200  0.21509400  0.12022700  1
  O  O0  1  0.46813200  0.94323700  0.17537900  1
  O  O1  1  0.53186800  0.05676300  0.82462100  1
  O  O2  1  0.03186800  0.05676300  0.67537900  1
  O  O3  1  0.96813200  0.94323700  0.32462100  1
  O  O4  1  0.07072600  0.41901100  0.28800000  1
  O  O5  1  0.92927400  0.58098900  0.71200000  1
  O  O6  1  0.42927400  0.58098900  0.78800000  1
  O  O7  1  0.57072600  0.41901100  0.21200000  1
  O  O8  1  0.46123400  0.15767800  0.65138200  1
  O  O9  1  0.53876600  0.84232200  0.34861800  1
  O  O10  1  0.03876600  0.84232200  0.15138200  1
  O  O11  1  0.96123400  0.15767800  0.84861800  1
  O  O12  1  0.35721000  0.26587700  0.44750800  1
  O  O13  1  0.64279000  0.73412300  0.55249200  1
  O  O14  1  0.14279000  0.73412300  0.94750800  1
  O  O15  1  0.85721000  0.26587700  0.05249200  1
  O  O16  1  0.35783700  0.24437900  0.02183300  1
  O  O17  1  0.64216300  0.75562100  0.97816700  1
  O  O18  1  0.14216300  0.75562100  0.52183300  1
  O  O19  1  0.85783700  0.24437900  0.47816700  1
loop_
_geom_bond_atom_site_label_1
_geom_bond_atom_site_label_2
_geom_bond_distance
_geom_bond_site_symmetry_2
Ca0 O4 2.302482 1_555
Ca0 O0 2.352306 1_555
Ca0 O7 2.425543 1_555
Ca0 O10 2.490288 1_555
Ca0 O15 2.547753 1_455
Ca0 O16 2.553110 1_555
Ca0 O14 2.609447 1_554
Ca0 O17 2.720694 1_554
Ca1 O5 2.302482 1_555
Ca1 O1 2.352306 1_555
Ca1 O6 2.425543 1_555
Ca1 O11 2.490288 1_555
Ca1 O14 2.547753 1_655
Ca1 O17 2.553110 1_555
Ca1 O15 2.609447 1_556
Ca1 O16 2.720694 1_556
Ca2 O6 2.302482 1_555
Ca2 O2 2.352306 1_555
Ca2 O5 2.425543 1_455
Ca2 O8 2.490288 1_555
Ca2 O13 2.547753 1_555
Ca2 O18 2.553110 1_555
Ca2 O12 2.609447 1_555
Ca2 O19 2.720694 1_455
Ca3 O7 2.302482 1_555
Ca3 O3 2.352306 1_555
Ca3 O4 2.425543 1_655
Ca3 O9 2.490288 1_555
Ca3 O12 2.547753 1_555
Ca3 O19 2.553110 1_555
Ca3 O13 2.609447 1_555
Ca3 O18 2.720694 1_655
Mg0 O16 2.076195 1_555
Mg0 O17 2.076195 1_444
Mg0 O10 2.145507 1_545
Mg0 O11 2.145507 1_454
Mg0 O15 2.166643 1_455
Mg0 O14 2.166643 1_544
Mg1 O19 2.076195 1_555
Mg1 O18 2.076195 1_545
Mg1 O8 2.145507 1_555
Mg1 O9 2.145507 1_545
Mg1 O13 2.166643 1_545
Mg1 O12 2.166643 1_555
As0 O4 1.697900 1_555
As0 O19 1.733583 1_455
As0 O12 1.734673 1_555
As0 O3 1.737940 1_445
As1 O5 1.697900 1_555
As1 O18 1.733583 1_655
As1 O13 1.734673 1_555
As1 O2 1.737940 1_665
As2 O6 1.697900 1_555
As2 O17 1.733583 1_555
As2 O14 1.734673 1_555
As2 O1 1.737940 1_565
As3 O7 1.697900 1_555
As3 O16 1.733583 1_555
As3 O15 1.734673 1_555
As3 O0 1.737940 1_545
