# generated using pymatgen
data_Sn3Bi
_symmetry_space_group_name_H-M   'P 1'
_cell_length_a   6.24241697
_cell_length_b   6.24241697
_cell_length_c   6.24241697
_cell_angle_alpha   135.74643606
_cell_angle_beta   135.74643606
_cell_angle_gamma   64.37259355
_symmetry_Int_Tables_number   1
_chemical_formula_structural   Sn3Bi
_chemical_formula_sum   'Sn3 Bi1'
_cell_volume   116.82775403
_cell_formula_units_Z   1
loop_
 _symmetry_equiv_pos_site_id
 _symmetry_equiv_pos_as_xyz
  1  'x, y, z'
loop_
 _atom_site_type_symbol
 _atom_site_label
 _atom_site_symmetry_multiplicity
 _atom_site_fract_x
 _atom_site_fract_y
 _atom_site_fract_z
 _atom_site_occupancy
  Sn  Sn0  1  0.50000000  0.50000000  0.00000000  1
  Sn  Sn1  1  0.25000000  0.75000000  0.50000000  1
  Sn  Sn2  1  0.75000000  0.25000000  0.50000000  1
  Bi  Bi0  1  0.00000000  0.00000000  0.00000000  1
loop_
_geom_bond_atom_site_label_1
_geom_bond_atom_site_label_2
_geom_bond_distance
_geom_bond_site_symmetry_2
Sn1 Sn2 3.325172 1_465
Sn1 Sn2 3.325172 1_566
Sn1 Sn2 3.325172 1_555
Sn1 Sn2 3.325172 1_454
Bi0 Sn0 3.325172 1_444
Bi0 Sn0 3.325172 1_455
Bi0 Sn0 3.325172 1_556
Bi0 Sn0 3.325172 1_545
Bi0 Sn2 3.536401 1_555
Bi0 Sn1 3.536401 1_444
Bi0 Sn1 3.536401 1_544
Bi0 Sn1 3.536401 1_545
Bi0 Sn1 3.536401 1_555
Bi0 Sn2 3.536401 1_444
Bi0 Sn2 3.536401 1_455
Bi0 Sn2 3.536401 1_454
