# generated using pymatgen
data_CoBr3N5
_symmetry_space_group_name_H-M   'P 1'
_cell_length_a   6.86901800
_cell_length_b   9.90894200
_cell_length_c   16.66109000
_cell_angle_alpha   90.00000000
_cell_angle_beta   90.00000000
_cell_angle_gamma   90.00000000
_symmetry_Int_Tables_number   1
_chemical_formula_structural   CoBr3N5
_chemical_formula_sum   'Co4 Br12 N20'
_cell_volume   1134.03210850
_cell_formula_units_Z   4
loop_
 _symmetry_equiv_pos_site_id
 _symmetry_equiv_pos_as_xyz
  1  'x, y, z'
loop_
 _atom_site_type_symbol
 _atom_site_label
 _atom_site_symmetry_multiplicity
 _atom_site_fract_x
 _atom_site_fract_y
 _atom_site_fract_z
 _atom_site_occupancy
  Co  Co0  1  0.61632900  0.25000000  0.85236000  1
  Co  Co1  1  0.88367100  0.25000000  0.35236000  1
  Co  Co2  1  0.38367100  0.75000000  0.14764000  1
  Co  Co3  1  0.11632900  0.75000000  0.64764000  1
  Br  Br0  1  0.61886800  0.25000000  0.10015000  1
  Br  Br1  1  0.88113200  0.25000000  0.60015000  1
  Br  Br2  1  0.38113200  0.75000000  0.89985000  1
  Br  Br3  1  0.11886800  0.75000000  0.39985000  1
  Br  Br4  1  0.25606100  0.40891200  0.29092100  1
  Br  Br5  1  0.24393900  0.09108800  0.79092100  1
  Br  Br6  1  0.74393900  0.90891200  0.70907900  1
  Br  Br7  1  0.75606100  0.59108800  0.20907900  1
  Br  Br8  1  0.74393900  0.59108800  0.70907900  1
  Br  Br9  1  0.75606100  0.90891200  0.20907900  1
  Br  Br10  1  0.25606100  0.09108800  0.29092100  1
  Br  Br11  1  0.24393900  0.40891200  0.79092100  1
  N  N0  1  0.65616900  0.25000000  0.98053000  1
  N  N1  1  0.84383100  0.25000000  0.48053000  1
  N  N2  1  0.34383100  0.75000000  0.01947000  1
  N  N3  1  0.15616900  0.75000000  0.51947000  1
  N  N4  1  0.76838400  0.25000000  0.78267500  1
  N  N5  1  0.73161600  0.25000000  0.28267500  1
  N  N6  1  0.23161600  0.75000000  0.21732500  1
  N  N7  1  0.26838400  0.75000000  0.71732500  1
  N  N8  1  0.35702500  0.25000000  0.83250600  1
  N  N9  1  0.14297500  0.25000000  0.33250600  1
  N  N10  1  0.64297500  0.75000000  0.16749400  1
  N  N11  1  0.85702500  0.75000000  0.66749400  1
  N  N12  1  0.66370300  0.13752900  0.94249300  1
  N  N13  1  0.83629700  0.36247100  0.44249300  1
  N  N14  1  0.33629700  0.63752900  0.05750700  1
  N  N15  1  0.16370300  0.86247100  0.55750700  1
  N  N16  1  0.33629700  0.86247100  0.05750700  1
  N  N17  1  0.16370300  0.63752900  0.55750700  1
  N  N18  1  0.66370300  0.36247100  0.94249300  1
  N  N19  1  0.83629700  0.13752900  0.44249300  1
loop_
_geom_bond_atom_site_label_1
_geom_bond_atom_site_label_2
_geom_bond_distance
_geom_bond_site_symmetry_2
Co0 N4 1.561698 1_555
Co0 N8 1.811620 1_555
Co0 N18 1.898178 1_555
Co0 N12 1.898178 1_555
Co0 N0 2.152916 1_555
Co1 N5 1.561698 1_555
Co1 N9 1.811620 1_655
Co1 N13 1.898178 1_555
Co1 N19 1.898178 1_555
Co1 N1 2.152916 1_555
Co2 N6 1.561698 1_555
Co2 N10 1.811620 1_555
Co2 N14 1.898178 1_555
Co2 N16 1.898178 1_555
Co2 N2 2.152916 1_555
Co3 N7 1.561698 1_555
Co3 N11 1.811620 1_455
Co3 N17 1.898178 1_555
Co3 N15 1.898178 1_555
Co3 N3 2.152916 1_555
Br0 N0 2.009402 1_554
Br1 N1 2.009402 1_555
Br2 N2 2.009402 1_556
Br3 N3 2.009402 1_555
Br4 N9 1.887582 1_555
Br5 N8 1.887582 1_555
Br6 N11 1.887582 1_555
Br7 N10 1.887582 1_555
Br8 N11 1.887582 1_555
Br9 N10 1.887582 1_555
Br10 N9 1.887582 1_555
Br11 N8 1.887582 1_555
N0 N18 1.283099 1_555
N0 N12 1.283099 1_555
N1 N13 1.283099 1_555
N1 N19 1.283099 1_555
N14 N2 1.283099 1_555
N15 N3 1.283099 1_555
N16 N2 1.283099 1_555
N17 N3 1.283099 1_555
