# generated using pymatgen
data_Ba2Cu(SCl)2
_symmetry_space_group_name_H-M   'P 1'
_cell_length_a   9.20164323
_cell_length_b   9.20164323
_cell_length_c   9.20164323
_cell_angle_alpha   150.64534362
_cell_angle_beta   150.64534362
_cell_angle_gamma   41.99492642
_symmetry_Int_Tables_number   1
_chemical_formula_structural   Ba2Cu(SCl)2
_chemical_formula_sum   'Ba2 Cu1 S2 Cl2'
_cell_volume   186.78561133
_cell_formula_units_Z   1
loop_
 _symmetry_equiv_pos_site_id
 _symmetry_equiv_pos_as_xyz
  1  'x, y, z'
loop_
 _atom_site_type_symbol
 _atom_site_label
 _atom_site_symmetry_multiplicity
 _atom_site_fract_x
 _atom_site_fract_y
 _atom_site_fract_z
 _atom_site_occupancy
  Ba  Ba0  1  0.62689600  0.62689600  0.00000000  1
  Ba  Ba1  1  0.37310400  0.37310400  0.00000000  1
  Cu  Cu0  1  0.00000000  0.00000000  0.00000000  1
  S  S0  1  0.00000000  0.50000000  0.50000000  1
  S  S1  1  0.50000000  0.00000000  0.50000000  1
  Cl  Cl0  1  0.18506100  0.18506100  0.00000000  1
  Cl  Cl1  1  0.81493900  0.81493900  0.00000000  1
loop_
_geom_bond_atom_site_label_1
_geom_bond_atom_site_label_2
_geom_bond_distance
_geom_bond_site_symmetry_2
Ba0 S1 3.192045 1_554
Ba0 S0 3.192045 1_655
Ba0 S1 3.192045 1_565
Ba0 S0 3.192045 1_554
Ba0 Cl1 3.230812 1_555
Ba0 Cl0 3.445313 1_666
Ba0 Cl0 3.445313 1_655
Ba0 Cl0 3.445313 1_565
Ba0 Cl0 3.445313 1_554
Ba1 S1 3.192045 1_554
Ba1 S1 3.192045 1_565
Ba1 S0 3.192045 1_554
Ba1 S0 3.192045 1_655
Ba1 Cl0 3.230812 1_555
Ba1 Cl1 3.445313 1_444
Ba1 Cl1 3.445313 1_455
Ba1 Cl1 3.445313 1_545
Ba1 Cl1 3.445313 1_556
Cu0 S1 2.331468 1_454
Cu0 S1 2.331468 1_555
Cu0 S0 2.331468 1_555
Cu0 S0 2.331468 1_544
