# generated using pymatgen
data_LaMnCrO6
_symmetry_space_group_name_H-M   'P 1'
_cell_length_a   5.37366150
_cell_length_b   5.48889475
_cell_length_c   5.26783429
_cell_angle_alpha   61.84561431
_cell_angle_beta   119.62837046
_cell_angle_gamma   87.51886856
_symmetry_Int_Tables_number   1
_chemical_formula_structural   LaMnCrO6
_chemical_formula_sum   'La1 Mn1 Cr1 O6'
_cell_volume   111.05762929
_cell_formula_units_Z   1
loop_
 _symmetry_equiv_pos_site_id
 _symmetry_equiv_pos_as_xyz
  1  'x, y, z'
loop_
 _atom_site_type_symbol
 _atom_site_label
 _atom_site_symmetry_multiplicity
 _atom_site_fract_x
 _atom_site_fract_y
 _atom_site_fract_z
 _atom_site_occupancy
  La  La0  1  0.74878900  0.28393900  0.48894300  1
  Mn  Mn0  1  0.49942400  0.04021800  0.98188200  1
  Cr  Cr0  1  0.99254300  0.55567800  0.97229300  1
  O  O0  1  0.29853600  0.24182000  0.49756600  1
  O  O1  1  0.22431400  0.27063400  0.96628000  1
  O  O2  1  0.77649000  0.71626400  0.05956200  1
  O  O3  1  0.22701200  0.76765200  0.96797100  1
  O  O4  1  0.77907800  0.22170200  0.05469900  1
  O  O5  1  0.71405100  0.74350500  0.51121600  1
loop_
_geom_bond_atom_site_label_1
_geom_bond_atom_site_label_2
_geom_bond_distance
_geom_bond_site_symmetry_2
La0 O0 2.461039 1_555
La0 O2 2.463263 1_555
La0 O1 2.513021 1_655
La0 O4 2.544943 1_555
La0 O5 2.582994 1_555
La0 O3 2.685449 1_645
La0 O3 2.704351 1_554
La0 O4 2.753217 1_556
La0 O1 2.839762 1_554
La0 O0 2.929303 1_655
La0 O5 2.930734 1_545
La0 O2 3.073306 1_546
Mn0 O4 1.821539 1_556
Mn0 O0 1.846115 1_555
Mn0 O1 1.847078 1_555
Mn0 O2 2.006912 1_546
Mn0 O5 2.032225 1_546
Mn0 O3 2.138577 1_545
Cr0 O3 1.752723 1_655
Cr0 O5 1.763880 1_555
Cr0 O2 1.776995 1_556
Cr0 O1 1.979175 1_655
Cr0 O0 2.021309 1_656
Cr0 O4 2.188188 1_556
