# generated using pymatgen
data_La4Al2O9
_symmetry_space_group_name_H-M   'P 1'
_cell_length_a   5.58864085
_cell_length_b   6.42034342
_cell_length_c   7.47866254
_cell_angle_alpha   88.65554546
_cell_angle_beta   94.41328356
_cell_angle_gamma   91.01122460
_symmetry_Int_Tables_number   1
_chemical_formula_structural   La4Al2O9
_chemical_formula_sum   'La4 Al2 O9'
_cell_volume   267.43875059
_cell_formula_units_Z   1
loop_
 _symmetry_equiv_pos_site_id
 _symmetry_equiv_pos_as_xyz
  1  'x, y, z'
loop_
 _atom_site_type_symbol
 _atom_site_label
 _atom_site_symmetry_multiplicity
 _atom_site_fract_x
 _atom_site_fract_y
 _atom_site_fract_z
 _atom_site_occupancy
  La  La0  1  0.15647700  0.86032100  0.70747700  1
  La  La1  1  0.12940300  0.67293200  0.22697600  1
  La  La2  1  0.72979600  0.41508800  0.87241700  1
  La  La3  1  0.69237100  0.16278200  0.36716900  1
  Al  Al0  1  0.22452800  0.34010000  0.66019200  1
  Al  Al1  1  0.22126200  0.21192700  0.08947100  1
  O  O0  1  0.12707600  0.20406000  0.85706200  1
  O  O1  1  0.94196600  0.39146100  0.55499100  1
  O  O2  1  0.39370300  0.57221900  0.69996300  1
  O  O3  1  0.34855900  0.97807500  0.17429900  1
  O  O4  1  0.43537900  0.15149900  0.60855700  1
  O  O5  1  0.44087200  0.41040700  0.13902000  1
  O  O6  1  0.94386400  0.87630900  0.43610700  1
  O  O7  1  0.94990700  0.31356300  0.15775200  1
  O  O8  1  0.94212800  0.70577900  0.93882200  1
loop_
_geom_bond_atom_site_label_1
_geom_bond_atom_site_label_2
_geom_bond_distance
_geom_bond_site_symmetry_2
La0 O6 2.272578 1_455
La0 O2 2.298949 1_555
La0 O8 2.368413 1_455
La0 O0 2.511161 1_565
La0 O4 2.545856 1_565
La1 O8 2.328792 1_454
La1 O3 2.333839 1_555
La1 O6 2.370556 1_455
La1 O7 2.547988 1_455
La1 O5 2.575928 1_555
La2 O8 2.238884 1_555
La2 O2 2.417057 1_555
La2 O7 2.459827 1_556
La2 O0 2.632701 1_655
La2 O5 2.659785 1_556
La2 O1 2.742436 1_555
La2 O4 3.004000 1_555
La3 O6 2.357824 1_545
La3 O7 2.384975 1_555
La3 O4 2.390858 1_555
La3 O1 2.407768 1_555
La3 O3 2.598482 1_545
La3 O5 2.645166 1_555
Al0 O1 1.742529 1_455
Al0 O2 1.769489 1_555
Al0 O4 1.773768 1_555
Al0 O0 1.809280 1_555
Al1 O3 1.756803 1_545
Al1 O7 1.776543 1_455
Al1 O0 1.778488 1_554
Al1 O5 1.778893 1_555
