# generated using pymatgen
data_Sn15Ru3O14
_symmetry_space_group_name_H-M   'P 1'
_cell_length_a   7.12114717
_cell_length_b   7.17779502
_cell_length_c   13.00237225
_cell_angle_alpha   73.99962534
_cell_angle_beta   74.10765103
_cell_angle_gamma   60.26191186
_symmetry_Int_Tables_number   1
_chemical_formula_structural   Sn15Ru3O14
_chemical_formula_sum   'Sn15 Ru3 O14'
_cell_volume   547.18705955
_cell_formula_units_Z   1
loop_
 _symmetry_equiv_pos_site_id
 _symmetry_equiv_pos_as_xyz
  1  'x, y, z'
loop_
 _atom_site_type_symbol
 _atom_site_label
 _atom_site_symmetry_multiplicity
 _atom_site_fract_x
 _atom_site_fract_y
 _atom_site_fract_z
 _atom_site_occupancy
  Sn  Sn0  1  0.90203482  0.01820387  0.17779259  1
  Sn  Sn1  1  0.48735341  0.60579012  0.41944309  1
  Sn  Sn2  1  0.48943073  0.08182183  0.42568767  1
  Sn  Sn3  1  0.00309372  0.08183191  0.42567566  1
  Sn  Sn4  1  0.09526117  0.15003525  0.65942121  1
  Sn  Sn5  1  0.44323033  0.98837376  0.12527922  1
  Sn  Sn6  1  0.15134229  0.77804071  0.91920739  1
  Sn  Sn7  1  0.42910707  0.49999281  0.16146340  1
  Sn  Sn8  1  0.90943350  0.49999899  0.16147071  1
  Sn  Sn9  1  0.68053808  0.75093145  0.88782419  1
  Sn  Sn10  1  0.67253634  0.26990909  0.91106584  1
  Sn  Sn11  1  0.14642452  0.26995580  0.91105540  1
  Sn  Sn12  1  0.57809878  0.67372116  0.65291165  1
  Sn  Sn13  1  0.09535143  0.67371110  0.65295527  1
  Sn  Sn14  1  0.01502125  0.58879774  0.38115080  1
  Ru  Ru0  1  0.69789617  0.29853164  0.30571218  1
  Ru  Ru1  1  0.88459560  0.46276307  0.76801345  1
  Ru  Ru2  1  0.28926071  0.38733308  0.03410404  1
  O  O0  1  0.12248022  0.71474896  0.46646876  1
  O  O1  1  0.69631042  0.71480231  0.46647125  1
  O  O2  1  0.95822691  0.07389524  0.00956865  1
  O  O3  1  0.12185333  0.28156624  0.47466438  1
  O  O4  1  0.62435418  0.69463257  0.05663557  1
  O  O5  1  0.42320322  0.56595935  0.58771017  1
  O  O6  1  0.34323064  0.94418610  0.36938958  1
  O  O7  1  0.42443087  0.00338525  0.59283588  1
  O  O8  1  0.97944378  0.00333598  0.59280281  1
  O  O9  1  0.35341128  0.94300026  0.88561315  1
  O  O10  1  0.81786869  0.94298451  0.88560598  1
  O  O11  1  0.74362405  0.83725686  0.18233646  1
  O  O12  1  0.23685500  0.83720839  0.18237137  1
  O  O13  1  0.22506750  0.80178059  0.74806522  1
loop_
_geom_bond_atom_site_label_1
_geom_bond_atom_site_label_2
_geom_bond_distance
_geom_bond_site_symmetry_2
Ru0 Sn0 2.558774 1_555
Ru0 Sn1 2.569422 1_555
Ru0 Sn3 2.596384 1_655
Ru0 Sn2 2.596482 1_555
Ru0 Sn8 2.645092 1_555
Ru0 Sn7 2.645294 1_555
Ru1 Sn9 2.524185 1_555
Ru1 Sn4 2.555245 1_655
Ru1 Sn12 2.560725 1_555
Ru1 Sn13 2.561096 1_655
Ru1 Sn11 2.602145 1_655
Ru1 Sn10 2.602380 1_555
Ru2 Sn5 2.556064 1_545
Ru2 Sn11 2.605517 1_554
Ru2 Sn10 2.605565 1_554
Ru2 Sn6 2.612006 1_554
Ru2 Sn8 2.612978 1_455
Ru2 Sn7 2.613088 1_555
O0 Sn14 2.082698 1_555
O0 Sn1 2.261485 1_555
O0 Sn3 2.280513 1_565
O0 Sn13 2.325885 1_555
O1 Sn14 2.082675 1_655
O1 Sn1 2.262193 1_555
O1 Sn2 2.280140 1_565
O1 Sn12 2.325244 1_555
O2 Sn0 2.074021 1_555
O2 Sn10 2.313609 1_554
O2 Sn11 2.313963 1_654
O2 Sn6 2.318317 1_644
O3 Sn14 2.069856 1_555
O3 Sn3 2.275432 1_555
O3 Sn2 2.275982 1_555
O3 Sn4 2.318628 1_555
O4 Sn9 2.081259 1_554
O4 Sn5 2.148184 1_555
O4 Sn7 2.362674 1_555
O4 Sn8 2.362858 1_555
O5 Sn12 2.062463 1_555
O5 Sn13 2.062579 1_555
O5 Sn1 2.077154 1_555
O6 Sn1 2.097108 1_555
O6 Sn2 2.105272 1_565
O6 Sn3 2.105304 1_565
O7 Sn12 2.070539 1_545
O7 Sn2 2.070654 1_555
O7 Sn4 2.072517 1_555
O8 Sn3 2.070433 1_655
O8 Sn13 2.070475 1_645
O8 Sn4 2.072416 1_655
O9 Sn9 2.038835 1_555
O9 Sn11 2.125753 1_565
O9 Sn6 2.173549 1_555
O10 Sn9 2.039020 1_555
O10 Sn10 2.125675 1_565
O10 Sn6 2.173863 1_655
O11 Sn0 2.082696 1_565
O11 Sn5 2.103921 1_555
O11 Sn8 2.163067 1_555
O12 Sn0 2.082866 1_465
O12 Sn5 2.104426 1_555
O12 Sn7 2.162940 1_555
O13 Sn6 2.120453 1_555
O13 Sn4 2.265887 1_565
O13 Sn13 2.307021 1_555
O13 Sn12 2.307980 1_555
