# generated using pymatgen
data_LiSm(WO4)2
_symmetry_space_group_name_H-M   'P 1'
_cell_length_a   5.89886500
_cell_length_b   5.15905200
_cell_length_c   11.11698333
_cell_angle_alpha   67.35645845
_cell_angle_beta   90.00000000
_cell_angle_gamma   90.00000000
_symmetry_Int_Tables_number   1
_chemical_formula_structural   LiSm(WO4)2
_chemical_formula_sum   'Li2 Sm2 W4 O16'
_cell_volume   312.23989334
_cell_formula_units_Z   2
loop_
 _symmetry_equiv_pos_site_id
 _symmetry_equiv_pos_as_xyz
  1  'x, y, z'
loop_
 _atom_site_type_symbol
 _atom_site_label
 _atom_site_symmetry_multiplicity
 _atom_site_fract_x
 _atom_site_fract_y
 _atom_site_fract_z
 _atom_site_occupancy
  Li  Li0  1  0.69557500  0.00000000  0.75000000  1
  Li  Li1  1  0.30442500  0.00000000  0.25000000  1
  Sm  Sm0  1  0.30267400  0.50000000  0.75000000  1
  Sm  Sm1  1  0.69732600  0.50000000  0.25000000  1
  W  W0  1  0.82624700  0.73753700  0.51379900  1
  W  W1  1  0.17375300  0.26246300  0.48620100  1
  W  W2  1  0.82624700  0.26246300  0.98620100  1
  W  W3  1  0.17375300  0.73753700  0.01379900  1
  O  O0  1  0.89304400  0.85671800  0.09427200  1
  O  O1  1  0.10695600  0.14328200  0.90572800  1
  O  O2  1  0.89304400  0.14328200  0.40572800  1
  O  O3  1  0.10695600  0.85671800  0.59427200  1
  O  O4  1  0.37404200  0.72546100  0.88995100  1
  O  O5  1  0.62595800  0.27453900  0.11004900  1
  O  O6  1  0.37404200  0.27453900  0.61004900  1
  O  O7  1  0.62595800  0.72546100  0.38995100  1
  O  O8  1  0.91682300  0.64295900  0.89022700  1
  O  O9  1  0.08317700  0.35704100  0.10977300  1
  O  O10  1  0.91682300  0.35704100  0.60977300  1
  O  O11  1  0.08317700  0.64295900  0.39022700  1
  O  O12  1  0.63198700  0.77007700  0.63448300  1
  O  O13  1  0.36801300  0.22992300  0.36551700  1
  O  O14  1  0.63198700  0.22992300  0.86551700  1
  O  O15  1  0.36801300  0.77007700  0.13448300  1
loop_
_geom_bond_atom_site_label_1
_geom_bond_atom_site_label_2
_geom_bond_distance
_geom_bond_site_symmetry_2
Li0 O14 2.090415 1_555
Li0 O12 2.090415 1_545
Li0 O10 2.305516 1_555
Li0 O8 2.305516 1_545
Li0 O6 2.515415 1_555
Li0 O4 2.515415 1_545
Li1 O13 2.090415 1_555
Li1 O15 2.090415 1_545
Li1 O9 2.305516 1_555
Li1 O11 2.305516 1_545
Li1 O5 2.515415 1_555
Li1 O7 2.515415 1_545
O0 W2 2.010960 1_564
O0 W3 2.084185 1_655
O0 Sm1 2.294261 1_555
O1 W3 2.010960 1_546
O1 W2 2.084185 1_455
O1 Sm0 2.294261 1_555
O2 W0 2.010960 1_545
O2 W1 2.084185 1_655
O2 Sm1 2.294261 1_555
O3 W1 2.010960 1_565
O3 W0 2.084185 1_455
O3 Sm0 2.294261 1_555
O4 W3 1.833423 1_556
O4 Sm0 2.311764 1_555
O5 W2 1.833423 1_554
O5 Sm1 2.311764 1_555
O6 W1 1.833423 1_555
O6 Sm0 2.311764 1_555
O7 W0 1.833423 1_555
O7 Sm1 2.311764 1_555
O8 W2 1.914294 1_555
O8 W3 2.222255 1_656
O9 W3 1.914294 1_555
O9 W2 2.222255 1_454
O10 W0 1.914294 1_555
O10 W1 2.222255 1_655
O11 W1 1.914294 1_555
O11 W0 2.222255 1_455
O12 W0 1.820639 1_555
O12 Sm0 2.446710 1_555
O13 W1 1.820639 1_555
O13 Sm1 2.446710 1_555
O14 W2 1.820639 1_555
O14 Sm0 2.446710 1_555
O15 W3 1.820639 1_555
O15 Sm1 2.446710 1_555
