# generated using pymatgen
data_Na3V2P2O10F
_symmetry_space_group_name_H-M   'P 1'
_cell_length_a   6.48072793
_cell_length_b   6.48010024
_cell_length_c   28.01611762
_cell_angle_alpha   117.59877596
_cell_angle_beta   117.61789657
_cell_angle_gamma   89.86924846
_symmetry_Int_Tables_number   1
_chemical_formula_structural   Na3V2P2O10F
_chemical_formula_sum   'Na12 V8 P8 O40 F4'
_cell_volume   889.41083060
_cell_formula_units_Z   4
loop_
 _symmetry_equiv_pos_site_id
 _symmetry_equiv_pos_as_xyz
  1  'x, y, z'
loop_
 _atom_site_type_symbol
 _atom_site_label
 _atom_site_symmetry_multiplicity
 _atom_site_fract_x
 _atom_site_fract_y
 _atom_site_fract_z
 _atom_site_occupancy
  Na  Na0  1  0.25714900  0.28412900  0.74916300  1
  Na  Na1  1  0.25643100  0.28147500  0.49909300  1
  Na  Na2  1  0.73868300  0.26330400  0.75019800  1
  Na  Na3  1  0.71892200  0.74241100  0.75106400  1
  Na  Na4  1  0.25680000  0.28397400  0.24897600  1
  Na  Na5  1  0.73846300  0.26160400  0.50000000  1
  Na  Na6  1  0.71868700  0.74365000  0.50095100  1
  Na  Na7  1  0.22011400  0.50171400  0.00000300  1
  Na  Na8  1  0.73787300  0.26248900  0.24980000  1
  Na  Na9  1  0.71872600  0.74210900  0.25086000  1
  Na  Na10  1  0.71396200  0.25119500  0.99973000  1
  Na  Na11  1  0.71605700  0.75063600  0.00089000  1
  V  V0  1  0.20354500  0.19554900  0.84948800  1
  V  V1  1  0.20595800  0.19540100  0.60038600  1
  V  V2  1  0.81223800  0.79987500  0.90121500  1
  V  V3  1  0.20600000  0.19563200  0.35045800  1
  V  V4  1  0.80449300  0.79411300  0.64956500  1
  V  V5  1  0.20648000  0.19434200  0.09857000  1
  V  V6  1  0.80467200  0.79414100  0.39961100  1
  V  V7  1  0.80581000  0.79790800  0.15050500  1
  P  P0  1  0.24877000  0.74953900  0.87485700  1
  P  P1  1  0.24874700  0.75152900  0.62507100  1
  P  P2  1  0.74595600  0.25061900  0.87457300  1
  P  P3  1  0.24872100  0.75145100  0.37505100  1
  P  P4  1  0.74710900  0.25268900  0.62495000  1
  P  P5  1  0.24917600  0.75113900  0.12545600  1
  P  P6  1  0.74703200  0.25268700  0.37492800  1
  P  P7  1  0.74791000  0.25182000  0.12505300  1
  O  O0  1  0.14927200  0.83223600  0.91928900  1
  O  O1  1  0.16175900  0.46929600  0.82978500  1
  O  O2  1  0.15735900  0.85485900  0.83132200  1
  O  O3  1  0.36777600  0.35532500  0.92847700  1
  O  O4  1  0.52874400  0.83483900  0.91799800  1
  O  O5  1  0.14837300  0.84287200  0.66958300  1
  O  O6  1  0.46865500  0.17008300  0.83009700  1
  O  O7  1  0.16246000  0.47121900  0.58149700  1
  O  O8  1  0.15719300  0.85172700  0.58046700  1
  O  O9  1  0.37069000  0.34126700  0.67911300  1
  O  O10  1  0.66097900  0.63121200  0.82230400  1
  O  O11  1  0.83354100  0.14535600  0.91824900  1
  O  O12  1  0.84295200  0.52948100  0.92115600  1
  O  O13  1  0.52888900  0.83753700  0.66853000  1
  O  O14  1  0.85346100  0.16473100  0.83143100  1
  O  O15  1  0.14846900  0.84288500  0.41959000  1
  O  O16  1  0.46890800  0.16608100  0.57994000  1
  O  O17  1  0.16248800  0.47117600  0.33153500  1
  O  O18  1  0.15721000  0.85164300  0.33045300  1
  O  O19  1  0.37058500  0.34106200  0.42913700  1
  O  O20  1  0.65882800  0.62947200  0.57085600  1
  O  O21  1  0.83326400  0.14385700  0.66785100  1
  O  O22  1  0.83401400  0.53101300  0.67003000  1
  O  O23  1  0.52887000  0.83753200  0.41852600  1
  O  O24  1  0.85584300  0.16660600  0.58205000  1
  O  O25  1  0.14720800  0.84620400  0.16936300  1
  O  O26  1  0.46880500  0.16607600  0.32994500  1
  O  O27  1  0.16163700  0.47148700  0.08118400  1
  O  O28  1  0.16172400  0.84578000  0.07934900  1
  O  O29  1  0.36670500  0.33672100  0.17744700  1
  O  O30  1  0.65892000  0.62965600  0.32085600  1
  O  O31  1  0.83334300  0.14401800  0.41788500  1
  O  O32  1  0.83390200  0.53103000  0.42000100  1
  O  O33  1  0.52911400  0.83889000  0.16928900  1
  O  O34  1  0.85585600  0.16658100  0.33205700  1
  O  O35  1  0.47086500  0.15762700  0.08012100  1
  O  O36  1  0.65659800  0.64540600  0.07154800  1
  O  O37  1  0.83154200  0.53104200  0.16928700  1
  O  O38  1  0.83946300  0.14883300  0.16949000  1
  O  O39  1  0.85775100  0.16636300  0.08251800  1
  F  F0  1  0.99083300  0.00806500  0.74994100  1
  F  F1  1  0.99112900  0.00880700  0.49997300  1
  F  F2  1  0.99088300  0.00818400  0.25001700  1
  F  F3  1  0.98495800  0.00054000  0.99999800  1
loop_
_geom_bond_atom_site_label_1
_geom_bond_atom_site_label_2
_geom_bond_distance
_geom_bond_site_symmetry_2
Na0 O1 2.388255 1_555
Na0 O21 2.419283 1_455
Na0 O6 2.496557 1_555
Na0 O5 2.507785 1_545
Na0 O9 2.558017 1_555
Na0 O10 2.625129 1_555
Na1 O31 2.416083 1_455
Na1 O7 2.425388 1_555
Na1 O15 2.495394 1_545
Na1 O16 2.501699 1_555
Na1 O19 2.566006 1_555
Na1 O20 2.625474 1_555
Na2 O1 2.421154 1_655
Na2 O14 2.432280 1_555
Na2 O21 2.439598 1_555
Na2 O13 2.445330 1_545
Na2 O9 2.536183 1_555
Na2 O10 2.548260 1_555
Na3 O14 2.408461 1_565
Na3 O13 2.433171 1_555
Na3 O2 2.495635 1_655
Na3 O22 2.504141 1_555
Na3 O10 2.583099 1_555
Na3 O9 2.620606 1_555
Na4 O38 2.379242 1_455
Na4 O17 2.429530 1_555
Na4 O25 2.490901 1_545
Na4 O26 2.515663 1_555
Na4 O29 2.568883 1_555
Na4 O30 2.616464 1_555
Na5 O24 2.435060 1_555
Na5 O7 2.436245 1_655
Na5 O31 2.436469 1_555
Na5 O23 2.436681 1_545
Na5 O19 2.538454 1_555
Na5 O20 2.539542 1_555
Na6 O24 2.415189 1_565
Na6 O23 2.424960 1_555
Na6 O8 2.494630 1_655
Na6 O32 2.503868 1_555
Na6 O20 2.565508 1_555
Na6 O19 2.626507 1_555
Na7 O3 2.417366 1_554
Na7 O36 2.431516 1_555
Na7 O28 2.497919 1_555
Na7 O12 2.499354 1_454
Na7 O27 2.562620 1_555
Na7 O11 2.580825 1_454
Na8 O38 2.423649 1_555
Na8 O33 2.429770 1_545
Na8 O17 2.439331 1_655
Na8 O34 2.443951 1_555
Na8 O30 2.536919 1_555
Na8 O29 2.550279 1_555
Na9 O33 2.418003 1_555
Na9 O34 2.422750 1_565
Na9 O18 2.493817 1_655
Na9 O37 2.505299 1_555
Na9 O30 2.560635 1_555
Na9 O29 2.646988 1_555
Na10 O4 2.388652 1_545
Na10 O39 2.392762 1_556
Na10 O11 2.543451 1_555
Na10 O27 2.554385 1_656
Na10 O3 2.561747 1_555
Na10 O36 2.576629 1_556
Na11 O39 2.384635 1_565
Na11 O4 2.392031 1_554
Na11 O28 2.533785 1_655
Na11 O12 2.540029 1_554
Na11 O36 2.547802 1_555
Na11 O3 2.595783 1_554
O0 P0 1.541773 1_555
O0 V2 1.987332 1_455
O1 P0 1.558889 1_555
O1 V0 2.071542 1_555
O2 P0 1.550444 1_555
O2 V0 2.010792 1_565
O3 V0 1.673424 1_555
O4 P0 1.552694 1_555
O4 V2 2.085237 1_555
O5 P1 1.547599 1_555
O5 V4 2.015246 1_455
O6 P2 1.542794 1_555
O6 V0 2.013770 1_555
O7 P1 1.555492 1_555
O7 V1 2.071190 1_555
O8 P1 1.548483 1_555
O8 V1 2.014742 1_565
O9 V1 1.669653 1_555
O10 V2 1.673268 1_555
O11 P2 1.553184 1_555
O11 V2 2.051637 1_545
O12 P2 1.556680 1_555
O12 V2 2.055278 1_555
O13 P1 1.554222 1_555
O13 V4 2.071410 1_555
O14 P2 1.552976 1_555
O14 V0 2.070646 1_655
O15 P3 1.547600 1_555
O15 V6 2.015053 1_455
O16 P4 1.548134 1_555
O16 V1 2.017649 1_555
O17 P3 1.555185 1_555
O17 V3 2.070014 1_555
O18 P3 1.548312 1_555
O18 V3 2.016001 1_565
O19 V3 1.668728 1_555
O20 V4 1.669351 1_555
O21 P4 1.554067 1_555
O21 V4 2.066701 1_545
O22 P4 1.549110 1_555
O22 V4 2.018563 1_555
O23 P3 1.554292 1_555
O23 V6 2.071835 1_555
O24 P4 1.553873 1_555
O24 V1 2.068699 1_655
O25 P5 1.542407 1_555
O25 V7 2.009591 1_455
O26 P6 1.548186 1_555
O26 V3 2.017859 1_555
O27 P5 1.553681 1_555
O27 V5 2.055230 1_555
O28 P5 1.555502 1_555
O28 V5 2.051123 1_565
O29 V5 1.673504 1_555
O30 V6 1.670280 1_555
O31 P6 1.554492 1_555
O31 V6 2.067663 1_545
O32 P6 1.549188 1_555
O32 V6 2.017379 1_555
O33 P5 1.553977 1_555
O33 V7 2.075154 1_555
O34 P6 1.553682 1_555
O34 V3 2.068297 1_655
O35 P7 1.542216 1_555
O35 V5 1.991183 1_555
O36 V7 1.673496 1_555
O37 P7 1.551622 1_555
O37 V7 2.013876 1_555
O38 P7 1.559000 1_555
O38 V7 2.067777 1_545
O39 P7 1.551355 1_555
O39 V5 2.080096 1_655
F0 V0 2.111427 1_655
F0 V4 2.129615 1_545
F0 Na2 2.322403 1_555
F0 Na3 2.486995 1_545
F0 Na0 2.502923 1_655
F1 V6 2.129479 1_545
F1 V1 2.130504 1_655
F1 Na5 2.313562 1_555
F1 Na1 2.484410 1_655
F1 Na6 2.484523 1_545
F2 V7 2.110741 1_545
F2 V3 2.130946 1_655
F2 Na8 2.322062 1_555
F2 Na9 2.484861 1_545
F2 Na4 2.504712 1_655
F3 V5 2.093714 1_656
F3 V2 2.098353 1_545
F3 Na10 2.389306 1_555
F3 Na11 2.398074 1_546
