# generated using pymatgen
data_Na2GaAgBr6
_symmetry_space_group_name_H-M   'P 1'
_cell_length_a   7.59011530
_cell_length_b   7.59011530
_cell_length_c   7.59011530
_cell_angle_alpha   60.00000000
_cell_angle_beta   60.00000000
_cell_angle_gamma   60.00000000
_symmetry_Int_Tables_number   1
_chemical_formula_structural   Na2GaAgBr6
_chemical_formula_sum   'Na2 Ga1 Ag1 Br6'
_cell_volume   309.19333396
_cell_formula_units_Z   1
loop_
 _symmetry_equiv_pos_site_id
 _symmetry_equiv_pos_as_xyz
  1  'x, y, z'
loop_
 _atom_site_type_symbol
 _atom_site_label
 _atom_site_symmetry_multiplicity
 _atom_site_fract_x
 _atom_site_fract_y
 _atom_site_fract_z
 _atom_site_occupancy
  Na  Na0  1  0.75000000  0.75000000  0.75000000  1
  Na  Na1  1  0.25000000  0.25000000  0.25000000  1
  Ga  Ga0  1  0.00000000  0.00000000  0.00000000  1
  Ag  Ag0  1  0.50000000  0.50000000  0.50000000  1
  Br  Br0  1  0.76016300  0.23983700  0.23983700  1
  Br  Br1  1  0.23983700  0.23983700  0.76016300  1
  Br  Br2  1  0.23983700  0.76016300  0.76016300  1
  Br  Br3  1  0.23983700  0.76016300  0.23983700  1
  Br  Br4  1  0.76016300  0.23983700  0.76016300  1
  Br  Br5  1  0.76016300  0.76016300  0.23983700  1
loop_
_geom_bond_atom_site_label_1
_geom_bond_atom_site_label_2
_geom_bond_distance
_geom_bond_site_symmetry_2
Ag0 Br4 2.792601 1_555
Ag0 Br5 2.792601 1_555
Ag0 Br2 2.792601 1_555
Ag0 Br3 2.792601 1_555
Ag0 Br0 2.792601 1_555
Ag0 Br1 2.792601 1_555
Br0 Ga0 2.574421 1_655
Br1 Ga0 2.574421 1_556
Br2 Ga0 2.574421 1_566
Br3 Ga0 2.574421 1_565
Br4 Ga0 2.574421 1_656
Br5 Ga0 2.574421 1_665
