# generated using pymatgen
data_MgMo3O7
_symmetry_space_group_name_H-M   'P 1'
_cell_length_a   5.76511200
_cell_length_b   9.95270900
_cell_length_c   11.03042100
_cell_angle_alpha   90.00000000
_cell_angle_beta   90.00000000
_cell_angle_gamma   90.00000000
_symmetry_Int_Tables_number   1
_chemical_formula_structural   MgMo3O7
_chemical_formula_sum   'Mg4 Mo12 O28'
_cell_volume   632.90881378
_cell_formula_units_Z   4
loop_
 _symmetry_equiv_pos_site_id
 _symmetry_equiv_pos_as_xyz
  1  'x, y, z'
loop_
 _atom_site_type_symbol
 _atom_site_label
 _atom_site_symmetry_multiplicity
 _atom_site_fract_x
 _atom_site_fract_y
 _atom_site_fract_z
 _atom_site_occupancy
  Mg  Mg0  1  0.37793500  0.06653900  0.25000000  1
  Mg  Mg1  1  0.87793500  0.43346100  0.75000000  1
  Mg  Mg2  1  0.62206500  0.93346100  0.75000000  1
  Mg  Mg3  1  0.12206500  0.56653900  0.25000000  1
  Mo  Mo0  1  0.69715900  0.67284300  0.98019500  1
  Mo  Mo1  1  0.19715900  0.82715700  0.01980500  1
  Mo  Mo2  1  0.30284100  0.32715700  0.48019500  1
  Mo  Mo3  1  0.80284100  0.17284300  0.51980500  1
  Mo  Mo4  1  0.70942900  0.79569800  0.25000000  1
  Mo  Mo5  1  0.20942900  0.70430200  0.75000000  1
  Mo  Mo6  1  0.29057100  0.20430200  0.75000000  1
  Mo  Mo7  1  0.79057100  0.29569800  0.25000000  1
  Mo  Mo8  1  0.19715900  0.82715700  0.48019500  1
  Mo  Mo9  1  0.69715900  0.67284300  0.51980500  1
  Mo  Mo10  1  0.80284100  0.17284300  0.98019500  1
  Mo  Mo11  1  0.30284100  0.32715700  0.01980500  1
  O  O0  1  0.05444400  0.27758600  0.88256700  1
  O  O1  1  0.55444400  0.22241400  0.11743300  1
  O  O2  1  0.94555600  0.72241400  0.38256700  1
  O  O3  1  0.44555600  0.77758600  0.61743300  1
  O  O4  1  0.94555600  0.72241400  0.11743300  1
  O  O5  1  0.44555600  0.77758600  0.88256700  1
  O  O6  1  0.05444400  0.27758600  0.61743300  1
  O  O7  1  0.55444400  0.22241400  0.38256700  1
  O  O8  1  0.52027700  0.25423200  0.88327300  1
  O  O9  1  0.02027700  0.24576800  0.11672700  1
  O  O10  1  0.47972300  0.74576800  0.38327300  1
  O  O11  1  0.97972300  0.75423200  0.61672700  1
  O  O12  1  0.47972300  0.74576800  0.11672700  1
  O  O13  1  0.97972300  0.75423200  0.88327300  1
  O  O14  1  0.52027700  0.25423200  0.61672700  1
  O  O15  1  0.02027700  0.24576800  0.38327300  1
  O  O16  1  0.80399800  0.48040400  0.25000000  1
  O  O17  1  0.30399800  0.01959600  0.75000000  1
  O  O18  1  0.19600200  0.51959600  0.75000000  1
  O  O19  1  0.69600200  0.98040400  0.25000000  1
  O  O20  1  0.77009400  0.01348700  0.60115100  1
  O  O21  1  0.27009400  0.48651300  0.39884900  1
  O  O22  1  0.22990600  0.98651300  0.10115100  1
  O  O23  1  0.72990600  0.51348700  0.89884900  1
  O  O24  1  0.22990600  0.98651300  0.39884900  1
  O  O25  1  0.72990600  0.51348700  0.60115100  1
  O  O26  1  0.77009400  0.01348700  0.89884900  1
  O  O27  1  0.27009400  0.48651300  0.10115100  1
loop_
_geom_bond_atom_site_label_1
_geom_bond_atom_site_label_2
_geom_bond_distance
_geom_bond_site_symmetry_2
Mg0 O22 2.014547 1_545
Mg0 O24 2.014547 1_545
Mg0 O19 2.024191 1_545
Mg0 O7 2.362310 1_555
Mg0 O1 2.362310 1_555
Mg1 O25 2.014547 1_555
Mg1 O23 2.014547 1_555
Mg1 O18 2.024191 1_655
Mg1 O0 2.362310 1_655
Mg1 O6 2.362310 1_655
Mg2 O26 2.014547 1_565
Mg2 O20 2.014547 1_565
Mg2 O17 2.024191 1_565
Mg2 O5 2.362310 1_555
Mg2 O3 2.362310 1_555
Mg3 O21 2.014547 1_555
Mg3 O27 2.014547 1_555
Mg3 O16 2.024191 1_455
Mg3 O4 2.362310 1_455
Mg3 O2 2.362310 1_455
Mo0 O23 1.832001 1_555
Mo0 O5 2.085769 1_555
Mo0 O12 2.089548 1_556
Mo0 O13 2.110167 1_555
Mo0 O4 2.141426 1_556
Mo1 O22 1.832001 1_555
Mo1 O4 2.085769 1_455
Mo1 O13 2.089548 1_454
Mo1 O12 2.110167 1_555
Mo1 O5 2.141426 1_554
Mo2 O21 1.832001 1_555
Mo2 O7 2.085769 1_555
Mo2 O14 2.089548 1_555
Mo2 O15 2.110167 1_555
Mo2 O6 2.141426 1_555
Mo3 O20 1.832001 1_555
Mo3 O6 2.085769 1_655
Mo3 O15 2.089548 1_655
Mo3 O14 2.110167 1_555
Mo3 O7 2.141426 1_555
Mo4 O19 1.839954 1_555
Mo4 O10 2.040033 1_555
Mo4 O12 2.040033 1_555
Mo4 O2 2.126818 1_555
Mo4 O4 2.126818 1_555
Mo5 O18 1.839954 1_555
Mo5 O13 2.040033 1_455
Mo5 O11 2.040033 1_455
Mo5 O5 2.126818 1_555
Mo5 O3 2.126818 1_555
Mo6 O17 1.839954 1_555
Mo6 O14 2.040033 1_555
Mo6 O8 2.040033 1_555
Mo6 O6 2.126818 1_555
Mo6 O0 2.126818 1_555
Mo7 O16 1.839954 1_555
Mo7 O15 2.040033 1_655
Mo7 O9 2.040033 1_655
Mo7 O1 2.126818 1_555
Mo7 O7 2.126818 1_555
Mo8 O24 1.832001 1_555
Mo8 O2 2.085769 1_455
Mo8 O11 2.089548 1_455
Mo8 O10 2.110167 1_555
Mo8 O3 2.141426 1_555
Mo9 O25 1.832001 1_555
Mo9 O3 2.085769 1_555
Mo9 O10 2.089548 1_555
Mo9 O11 2.110167 1_555
Mo9 O2 2.141426 1_555
Mo10 O26 1.832001 1_555
Mo10 O0 2.085769 1_655
Mo10 O9 2.089548 1_656
Mo10 O8 2.110167 1_555
Mo10 O1 2.141426 1_556
Mo11 O27 1.832001 1_555
Mo11 O1 2.085769 1_555
Mo11 O8 2.089548 1_554
Mo11 O9 2.110167 1_555
Mo11 O0 2.141426 1_554
