# generated using pymatgen
data_LiInCu2
_symmetry_space_group_name_H-M   'P 1'
_cell_length_a   10.39809310
_cell_length_b   10.39809310
_cell_length_c   10.39809310
_cell_angle_alpha   120.95000455
_cell_angle_beta   119.67875071
_cell_angle_gamma   89.45989836
_symmetry_Int_Tables_number   1
_chemical_formula_structural   LiInCu2
_chemical_formula_sum   'Li1 In1 Cu2'
_cell_volume   791.02276616
_cell_formula_units_Z   1
loop_
 _symmetry_equiv_pos_site_id
 _symmetry_equiv_pos_as_xyz
  1  'x, y, z'
loop_
 _atom_site_type_symbol
 _atom_site_label
 _atom_site_symmetry_multiplicity
 _atom_site_fract_x
 _atom_site_fract_y
 _atom_site_fract_z
 _atom_site_occupancy
  Li  Li0  1  0.00000000  0.00000000  0.00000000  1
  In  In0  1  0.00000000  0.50000000  0.50000000  1
  Cu  Cu0  1  0.00000000  0.24762500  0.24762500  1
  Cu  Cu1  1  0.00000000  0.75237500  0.75237500  1
loop_
_geom_bond_atom_site_label_1
_geom_bond_atom_site_label_2
_geom_bond_distance
_geom_bond_site_symmetry_2
Cu0 Li0 2.537767 1_555
Cu0 In0 2.586447 1_555
Cu1 Li0 2.537767 1_566
Cu1 In0 2.586447 1_555
