# generated using pymatgen
data_Li9Mn2Co5O16
_symmetry_space_group_name_H-M   'P 1'
_cell_length_a   5.18026800
_cell_length_b   7.72322014
_cell_length_c   7.73671562
_cell_angle_alpha   96.03726390
_cell_angle_beta   104.34318332
_cell_angle_gamma   104.05318193
_symmetry_Int_Tables_number   1
_chemical_formula_structural   Li9Mn2Co5O16
_chemical_formula_sum   'Li9 Mn2 Co5 O16'
_cell_volume   286.37297074
_cell_formula_units_Z   1
loop_
 _symmetry_equiv_pos_site_id
 _symmetry_equiv_pos_as_xyz
  1  'x, y, z'
loop_
 _atom_site_type_symbol
 _atom_site_label
 _atom_site_symmetry_multiplicity
 _atom_site_fract_x
 _atom_site_fract_y
 _atom_site_fract_z
 _atom_site_occupancy
  Li  Li0  1  0.50000000  0.50000000  0.00000000  1
  Li  Li1  1  0.50259800  0.11794800  0.87135800  1
  Li  Li2  1  0.50663100  0.76089300  0.75618600  1
  Li  Li3  1  0.49965900  0.37011600  0.61870800  1
  Li  Li4  1  0.50000000  0.00000000  0.50000000  1
  Li  Li5  1  0.50034100  0.62988400  0.38129200  1
  Li  Li6  1  0.49336900  0.23910700  0.24381400  1
  Li  Li7  1  0.49740200  0.88205200  0.12864200  1
  Li  Li8  1  0.00000000  0.00000000  0.00000000  1
  Mn  Mn0  1  0.99358800  0.62869300  0.87753600  1
  Mn  Mn1  1  0.00641200  0.37130700  0.12246400  1
  Co  Co0  1  0.00206500  0.24884600  0.75049200  1
  Co  Co1  1  0.99178400  0.88258900  0.63032300  1
  Co  Co2  1  0.00000000  0.50000000  0.50000000  1
  Co  Co3  1  0.00821600  0.11741100  0.36967700  1
  Co  Co4  1  0.99793500  0.75115400  0.24950800  1
  O  O0  1  0.23341400  0.61292400  0.10917600  1
  O  O1  1  0.21420100  0.25993500  0.99456500  1
  O  O2  1  0.23374100  0.85632800  0.86820900  1
  O  O3  1  0.19915700  0.49812600  0.74804200  1
  O  O4  1  0.24635100  0.12341700  0.62058500  1
  O  O5  1  0.20159400  0.74035400  0.49521700  1
  O  O6  1  0.24922400  0.37197000  0.35528700  1
  O  O7  1  0.22014300  0.98905500  0.25738100  1
  O  O8  1  0.76658600  0.38707600  0.89082400  1
  O  O9  1  0.77985700  0.01094500  0.74261900  1
  O  O10  1  0.75077600  0.62803000  0.64471300  1
  O  O11  1  0.79840600  0.25964600  0.50478300  1
  O  O12  1  0.75364900  0.87658300  0.37941500  1
  O  O13  1  0.80084300  0.50187400  0.25195800  1
  O  O14  1  0.76625900  0.14367200  0.13179100  1
  O  O15  1  0.78579900  0.74006500  0.00543500  1
loop_
_geom_bond_atom_site_label_1
_geom_bond_atom_site_label_2
_geom_bond_distance
_geom_bond_site_symmetry_2
Li0 O15 2.061784 1_555
Li0 O1 2.061784 1_554
Li0 O8 2.095018 1_554
Li0 O0 2.095018 1_555
Li0 O3 2.169514 1_554
Li0 O13 2.169514 1_555
Li1 O4 2.072805 1_555
Li1 O14 2.094108 1_556
Li1 O2 2.151543 1_545
Li1 O8 2.159817 1_555
Li1 O9 2.202263 1_555
Li1 O1 2.371587 1_555
Li2 O2 2.066756 1_555
Li2 O10 2.093042 1_555
Li2 O9 2.129008 1_565
Li2 O15 2.152300 1_556
Li2 O5 2.197456 1_555
Li2 O3 2.238980 1_555
Li3 O4 2.037982 1_555
Li3 O10 2.056232 1_555
Li3 O6 2.131181 1_555
Li3 O8 2.184741 1_555
Li3 O11 2.249159 1_555
Li3 O3 2.390187 1_555
Li4 O9 2.047223 1_555
Li4 O7 2.047223 1_545
Li4 O4 2.129312 1_555
Li4 O12 2.129312 1_545
Li4 O5 2.205177 1_545
Li4 O11 2.205177 1_555
Li5 O12 2.037982 1_555
Li5 O6 2.056232 1_555
Li5 O10 2.131181 1_555
Li5 O0 2.184741 1_555
Li5 O5 2.249159 1_555
Li5 O13 2.390187 1_555
Li6 O14 2.066756 1_555
Li6 O6 2.093042 1_555
Li6 O7 2.129008 1_545
Li6 O1 2.152300 1_554
Li6 O11 2.197456 1_555
Li6 O13 2.238980 1_555
Li7 O12 2.072805 1_555
Li7 O2 2.094108 1_554
Li7 O14 2.151543 1_565
Li7 O0 2.159817 1_555
Li7 O7 2.202263 1_555
Li7 O15 2.371587 1_555
Li8 O1 2.054817 1_554
Li8 O15 2.054817 1_445
Li8 O7 2.056690 1_545
Li8 O9 2.056690 1_454
Li8 O2 2.182480 1_544
Li8 O14 2.182480 1_455
Mn0 O2 1.911204 1_655
Mn0 O15 1.917284 1_556
Mn0 O10 1.923320 1_555
Mn0 O0 1.945842 1_656
Mn0 O8 1.977407 1_555
Mn0 O3 1.998048 1_655
Mn1 O14 1.911204 1_455
Mn1 O1 1.917284 1_554
Mn1 O6 1.923320 1_555
Mn1 O8 1.945842 1_454
Mn1 O0 1.977407 1_555
Mn1 O13 1.998048 1_455
Co0 O9 1.902425 1_455
Co0 O1 1.916473 1_555
Co0 O3 1.952434 1_555
Co0 O11 1.953497 1_455
Co0 O4 2.137907 1_555
Co0 O8 2.202573 1_455
Co1 O9 1.939774 1_565
Co1 O2 2.014565 1_655
Co1 O12 2.014698 1_555
Co1 O4 2.022798 1_665
Co1 O10 2.087870 1_555
Co1 O5 2.093275 1_655
Co2 O11 1.905249 1_455
Co2 O5 1.905249 1_555
Co2 O13 1.944076 1_455
Co2 O3 1.944076 1_555
Co2 O10 2.236361 1_455
Co2 O6 2.236361 1_555
Co3 O7 1.939774 1_545
Co3 O14 2.014565 1_455
Co3 O4 2.014698 1_555
Co3 O12 2.022798 1_445
Co3 O6 2.087870 1_555
Co3 O11 2.093275 1_455
Co4 O7 1.902425 1_655
Co4 O15 1.916473 1_555
Co4 O13 1.952434 1_555
Co4 O5 1.953497 1_655
Co4 O12 2.137907 1_555
Co4 O0 2.202573 1_655
