# generated using pymatgen
data_Dy(NO5)3
_symmetry_space_group_name_H-M   'P 1'
_cell_length_a   6.97726300
_cell_length_b   8.87162674
_cell_length_c   11.30436818
_cell_angle_alpha   112.05806765
_cell_angle_beta   90.82261964
_cell_angle_gamma   110.02415941
_symmetry_Int_Tables_number   1
_chemical_formula_structural   Dy(NO5)3
_chemical_formula_sum   'Dy2 N6 O30'
_cell_volume   601.04802369
_cell_formula_units_Z   2
loop_
 _symmetry_equiv_pos_site_id
 _symmetry_equiv_pos_as_xyz
  1  'x, y, z'
loop_
 _atom_site_type_symbol
 _atom_site_label
 _atom_site_symmetry_multiplicity
 _atom_site_fract_x
 _atom_site_fract_y
 _atom_site_fract_z
 _atom_site_occupancy
  Dy  Dy0  1  0.48282200  0.63486100  0.72241100  1
  Dy  Dy1  1  0.51717800  0.36513900  0.27758900  1
  N  N0  1  0.22174900  0.68315900  0.48472400  1
  N  N1  1  0.77825100  0.31684100  0.51527600  1
  N  N2  1  0.42071600  0.08210600  0.19970800  1
  N  N3  1  0.57928400  0.91789400  0.80029200  1
  N  N4  1  0.25559500  0.30717800  0.84206600  1
  N  N5  1  0.74440500  0.69282200  0.15793400  1
  O  O0  1  0.80943400  0.83158000  0.53232600  1
  O  O1  1  0.19056600  0.16842000  0.46767400  1
  O  O2  1  0.60950800  0.93613000  0.68801500  1
  O  O3  1  0.39049200  0.06387000  0.31198500  1
  O  O4  1  0.78433000  0.68323300  0.63137000  1
  O  O5  1  0.21567000  0.31676700  0.36863000  1
  O  O6  1  0.39175000  0.33581200  0.77307400  1
  O  O7  1  0.60825000  0.66418800  0.22692600  1
  O  O8  1  0.20735600  0.72860000  0.57724100  1
  O  O9  1  0.79264400  0.27140000  0.42275900  1
  O  O10  1  0.25010800  0.44403800  0.85790100  1
  O  O11  1  0.74989200  0.55596200  0.14209900  1
  O  O12  1  0.39801000  0.96443800  0.16470400  1
  O  O13  1  0.60199000  0.03556200  0.83529600  1
  O  O14  1  0.82573300  0.37569600  0.98476900  1
  O  O15  1  0.17426700  0.62430400  0.01523100  1
  O  O16  1  0.51712300  0.75736600  0.87322700  1
  O  O17  1  0.48287700  0.24263400  0.12677300  1
  O  O18  1  0.38348700  0.63054300  0.50668600  1
  O  O19  1  0.61651300  0.36945700  0.49331400  1
  O  O20  1  0.09186200  0.68896600  0.38816200  1
  O  O21  1  0.90813800  0.31103400  0.61183800  1
  O  O22  1  0.16702400  0.17264000  0.57093300  1
  O  O23  1  0.83297600  0.82736000  0.42906700  1
  O  O24  1  0.14266600  0.16758400  0.88764200  1
  O  O25  1  0.85733400  0.83241600  0.11235800  1
  O  O26  1  0.98045500  0.77620600  0.85795400  1
  O  O27  1  0.01954500  0.22379400  0.14204600  1
  O  O28  1  0.10788900  0.75800200  0.96613500  1
  O  O29  1  0.89211100  0.24199800  0.03386500  1
loop_
_geom_bond_atom_site_label_1
_geom_bond_atom_site_label_2
_geom_bond_distance
_geom_bond_site_symmetry_2
Dy0 O16 1.601102 1_555
Dy0 N3 2.167545 1_555
Dy0 O4 2.333350 1_555
Dy0 O18 2.508365 1_555
Dy1 O17 1.601102 1_555
Dy1 N2 2.167545 1_555
Dy1 O5 2.333350 1_555
Dy1 O19 2.508365 1_555
N0 O8 0.990184 1_555
N0 O18 1.411652 1_555
N0 O20 1.435719 1_555
N1 O9 0.990184 1_555
N1 O19 1.411652 1_555
N1 O21 1.435719 1_555
N2 O12 0.919838 1_545
N2 O3 1.349116 1_555
N2 O17 1.834464 1_555
N3 O13 0.919838 1_565
N3 O2 1.349116 1_555
N3 O16 1.834464 1_555
N4 O10 1.173246 1_555
N4 O6 1.257015 1_555
N4 O24 1.497534 1_555
N5 O11 1.173246 1_555
N5 O7 1.257015 1_555
N5 O25 1.497534 1_555
O0 O23 1.169536 1_555
O0 O4 1.992694 1_555
O1 O22 1.169536 1_555
O1 O5 1.992694 1_555
O14 O29 1.671125 1_556
O15 O28 1.671125 1_554
O26 O28 1.589855 1_655
O27 O29 1.589855 1_455
