# generated using pymatgen
data_LiLa2TiCrO6
_symmetry_space_group_name_H-M   'P 1'
_cell_length_a   6.55295661
_cell_length_b   6.03090548
_cell_length_c   6.27616143
_cell_angle_alpha   55.56528958
_cell_angle_beta   51.27635051
_cell_angle_gamma   56.16680571
_symmetry_Int_Tables_number   1
_chemical_formula_structural   LiLa2TiCrO6
_chemical_formula_sum   'Li1 La2 Ti1 Cr1 O6'
_cell_volume   151.44793290
_cell_formula_units_Z   1
loop_
 _symmetry_equiv_pos_site_id
 _symmetry_equiv_pos_as_xyz
  1  'x, y, z'
loop_
 _atom_site_type_symbol
 _atom_site_label
 _atom_site_symmetry_multiplicity
 _atom_site_fract_x
 _atom_site_fract_y
 _atom_site_fract_z
 _atom_site_occupancy
  Li  Li0  1  0.09941500  0.22822100  0.07599400  1
  La  La0  1  0.32955500  0.28551500  0.29812900  1
  La  La1  1  0.77031300  0.79927200  0.77663600  1
  Ti  Ti0  1  0.98085100  0.95253700  0.00307800  1
  Cr  Cr0  1  0.50488500  0.48689000  0.51426700  1
  O  O0  1  0.63446200  0.83794000  0.22938300  1
  O  O1  1  0.90627700  0.17328100  0.66660700  1
  O  O2  1  0.20391300  0.58452600  0.89595600  1
  O  O3  1  0.09802100  0.78016200  0.29988200  1
  O  O4  1  0.73740800  0.34910600  0.14239200  1
  O  O5  1  0.35394600  0.14159900  0.72862800  1
loop_
_geom_bond_atom_site_label_1
_geom_bond_atom_site_label_2
_geom_bond_distance
_geom_bond_site_symmetry_2
Li0 O4 1.874436 1_455
Li0 O5 1.891064 1_554
Li0 O2 2.070677 1_554
Li0 O3 2.234658 1_545
La0 O4 2.386328 1_555
La0 O0 2.386903 1_545
La0 O1 2.407239 1_455
La0 O5 2.410960 1_555
La0 O2 2.469800 1_554
La0 O3 2.485462 1_555
La1 O3 2.377643 1_655
La1 O4 2.381417 1_556
La1 O5 2.418657 1_565
La1 O1 2.462723 1_565
La1 O0 2.504890 1_556
La1 O2 2.789090 1_655
Cr0 O0 2.054629 1_555
Cr0 O2 2.089519 1_555
Cr0 O5 2.141278 1_555
Cr0 O4 2.189428 1_555
Cr0 O1 2.640345 1_555
O0 Ti0 2.061665 1_555
O1 Ti0 1.964140 1_546
O2 Ti0 2.088052 1_456
O3 Ti0 1.962342 1_455
O4 Ti0 2.323945 1_545
O5 Ti0 2.420475 1_446
