# generated using pymatgen
data_Ba2AlNi3O7
_symmetry_space_group_name_H-M   'P 1'
_cell_length_a   3.75011200
_cell_length_b   3.91150900
_cell_length_c   11.33482500
_cell_angle_alpha   90.00000000
_cell_angle_beta   90.00000000
_cell_angle_gamma   90.00000000
_symmetry_Int_Tables_number   1
_chemical_formula_structural   Ba2AlNi3O7
_chemical_formula_sum   'Ba2 Al1 Ni3 O7'
_cell_volume   166.26597817
_cell_formula_units_Z   1
loop_
 _symmetry_equiv_pos_site_id
 _symmetry_equiv_pos_as_xyz
  1  'x, y, z'
loop_
 _atom_site_type_symbol
 _atom_site_label
 _atom_site_symmetry_multiplicity
 _atom_site_fract_x
 _atom_site_fract_y
 _atom_site_fract_z
 _atom_site_occupancy
  Ba  Ba0  1  0.50000000  0.50000000  0.31178500  1
  Ba  Ba1  1  0.50000000  0.50000000  0.68821500  1
  Al  Al0  1  0.50000000  0.50000000  0.00000000  1
  Ni  Ni0  1  0.00000000  0.00000000  0.14712300  1
  Ni  Ni1  1  0.00000000  0.00000000  0.85287700  1
  Ni  Ni2  1  0.00000000  0.00000000  0.50000000  1
  O  O0  1  0.00000000  0.50000000  0.50000000  1
  O  O1  1  0.50000000  0.00000000  0.11023600  1
  O  O2  1  0.50000000  0.00000000  0.88976400  1
  O  O3  1  0.00000000  0.50000000  0.10965900  1
  O  O4  1  0.00000000  0.50000000  0.89034100  1
  O  O5  1  0.00000000  0.00000000  0.33296200  1
  O  O6  1  0.00000000  0.00000000  0.66703800  1
loop_
_geom_bond_atom_site_label_1
_geom_bond_atom_site_label_2
_geom_bond_distance
_geom_bond_site_symmetry_2
Ba0 O5 2.720005 1_555
Ba0 O5 2.720005 1_655
Ba0 O5 2.720005 1_565
Ba0 O5 2.720005 1_665
Ba0 O0 2.840275 1_655
Ba0 O0 2.840275 1_555
Ba0 O3 2.960541 1_555
Ba0 O3 2.960541 1_655
Ba0 O1 3.007328 1_555
Ba0 O1 3.007328 1_565
Ba1 O6 2.720005 1_655
Ba1 O6 2.720005 1_665
Ba1 O6 2.720005 1_555
Ba1 O6 2.720005 1_565
Ba1 O0 2.840275 1_655
Ba1 O0 2.840275 1_555
Ba1 O4 2.960541 1_555
Ba1 O4 2.960541 1_655
Ba1 O2 3.007328 1_565
Ba1 O2 3.007328 1_555
Al0 O4 2.249622 1_654
Al0 O3 2.249622 1_555
Al0 O4 2.249622 1_554
Al0 O3 2.249622 1_655
Al0 O2 2.320828 1_564
Al0 O1 2.320828 1_565
Al0 O2 2.320828 1_554
Al0 O1 2.320828 1_555
Ni0 O1 1.921106 1_555
Ni0 O1 1.921106 1_455
Ni0 O3 2.001325 1_545
Ni0 O3 2.001325 1_555
Ni0 O5 2.106453 1_555
Ni1 O2 1.921106 1_555
Ni1 O2 1.921106 1_455
Ni1 O4 2.001325 1_555
Ni1 O4 2.001325 1_545
Ni1 O6 2.106453 1_555
Ni2 O5 1.893346 1_555
Ni2 O6 1.893346 1_555
Ni2 O0 1.955755 1_545
Ni2 O0 1.955755 1_555
