# generated using pymatgen
data_Mg2MoW3S8
_symmetry_space_group_name_H-M   'P 1'
_cell_length_a   7.04800429
_cell_length_b   7.18673405
_cell_length_c   7.05468280
_cell_angle_alpha   60.74615702
_cell_angle_beta   59.98674078
_cell_angle_gamma   60.75480016
_symmetry_Int_Tables_number   1
_chemical_formula_structural   Mg2MoW3S8
_chemical_formula_sum   'Mg2 Mo1 W3 S8'
_cell_volume   255.47599818
_cell_formula_units_Z   1
loop_
 _symmetry_equiv_pos_site_id
 _symmetry_equiv_pos_as_xyz
  1  'x, y, z'
loop_
 _atom_site_type_symbol
 _atom_site_label
 _atom_site_symmetry_multiplicity
 _atom_site_fract_x
 _atom_site_fract_y
 _atom_site_fract_z
 _atom_site_occupancy
  Mg  Mg0  1  0.85517500  0.93713300  0.85518700  1
  Mg  Mg1  1  0.09665400  0.21123400  0.09650300  1
  Mo  Mo0  1  0.53790300  0.88685200  0.53740900  1
  W  W0  1  0.46973300  0.51940900  0.46990700  1
  W  W1  1  0.47017800  0.51898000  0.04047000  1
  W  W2  1  0.04041900  0.51902600  0.47022500  1
  S  S0  1  0.77195100  0.70359900  0.77158900  1
  S  S1  1  0.28353400  0.22579600  0.70556900  1
  S  S2  1  0.23599300  0.79312900  0.23511100  1
  S  S3  1  0.70540800  0.22585500  0.28404200  1
  S  S4  1  0.72243900  0.33083700  0.72272500  1
  S  S5  1  0.25322900  0.70184300  0.77258100  1
  S  S6  1  0.28468300  0.22442900  0.28545300  1
  S  S7  1  0.77270400  0.70187300  0.25322900  1
loop_
_geom_bond_atom_site_label_1
_geom_bond_atom_site_label_2
_geom_bond_distance
_geom_bond_site_symmetry_2
Mg0 S4 2.336282 1_565
Mg0 S5 2.400404 1_655
Mg0 S7 2.401844 1_556
Mg0 S0 2.405016 1_555
Mg1 S6 2.357036 1_555
Mg1 S3 2.359727 1_455
Mg1 S1 2.360188 1_554
Mg1 S2 2.480959 1_545
Mo0 S7 2.379356 1_555
Mo0 S0 2.379486 1_555
Mo0 S5 2.380446 1_555
Mo0 S6 2.637918 1_565
Mo0 S3 2.639607 1_565
Mo0 S1 2.642852 1_565
S0 W2 2.477754 1_655
S0 W1 2.478651 1_556
S1 W2 2.455948 1_555
S1 W0 2.456257 1_555
S2 W1 2.385572 1_555
S2 W2 2.388341 1_555
S2 W0 2.388740 1_555
S3 W0 2.455589 1_555
S3 W1 2.457355 1_555
S4 W2 2.576457 1_655
S4 W1 2.576899 1_556
S4 W0 2.578171 1_555
S5 W0 2.475602 1_555
S5 W1 2.477245 1_556
S6 W2 2.456895 1_555
S6 W1 2.458717 1_555
S7 W0 2.475349 1_555
S7 W2 2.476155 1_655
