# generated using pymatgen
data_Mo3W(SeS3)2
_symmetry_space_group_name_H-M   'P 1'
_cell_length_a   3.22229223
_cell_length_b   3.22229223
_cell_length_c   36.38148500
_cell_angle_alpha   90.00000000
_cell_angle_beta   90.00000000
_cell_angle_gamma   120.00000479
_symmetry_Int_Tables_number   1
_chemical_formula_structural   Mo3W(SeS3)2
_chemical_formula_sum   'Mo3 W1 Se2 S6'
_cell_volume   327.14544795
_cell_formula_units_Z   1
loop_
 _symmetry_equiv_pos_site_id
 _symmetry_equiv_pos_as_xyz
  1  'x, y, z'
loop_
 _atom_site_type_symbol
 _atom_site_label
 _atom_site_symmetry_multiplicity
 _atom_site_fract_x
 _atom_site_fract_y
 _atom_site_fract_z
 _atom_site_occupancy
  Mo  Mo0  1  0.33333300  0.66666700  0.09391500  1
  Mo  Mo1  1  0.33333300  0.66666700  0.46965100  1
  Mo  Mo2  1  0.66666700  0.33333300  0.28178800  1
  W  W0  1  0.66666700  0.33333300  0.65754500  1
  Se  Se0  1  0.33333300  0.66666700  0.70488600  1
  Se  Se1  1  0.33333300  0.66666700  0.61020100  1
  S  S0  1  0.33333300  0.66666700  0.32453800  1
  S  S1  1  0.66666700  0.33333300  0.05117600  1
  S  S2  1  0.66666700  0.33333300  0.42692300  1
  S  S3  1  0.66666700  0.33333300  0.13666600  1
  S  S4  1  0.66666700  0.33333300  0.51239700  1
  S  S5  1  0.33333300  0.66666700  0.23906300  1
loop_
_geom_bond_atom_site_label_1
_geom_bond_atom_site_label_2
_geom_bond_distance
_geom_bond_site_symmetry_2
Mo0 S1 2.424621 1_455
Mo0 S1 2.424621 1_565
Mo0 S1 2.424626 1_555
Mo0 S3 2.424901 1_455
Mo0 S3 2.424901 1_565
Mo0 S3 2.424906 1_555
Mo1 S2 2.424365 1_455
Mo1 S2 2.424365 1_565
Mo1 S2 2.424369 1_555
Mo1 S4 2.424785 1_455
Mo1 S4 2.424785 1_565
Mo1 S4 2.424789 1_555
Mo2 S5 2.424295 1_545
Mo2 S5 2.424295 1_655
Mo2 S5 2.424299 1_555
Mo2 S0 2.424878 1_545
Mo2 S0 2.424878 1_655
Mo2 S0 2.424882 1_555
Se0 W0 2.535249 1_455
Se0 W0 2.535249 1_565
Se0 W0 2.535254 1_555
Se1 W0 2.535324 1_455
Se1 W0 2.535324 1_565
Se1 W0 2.535328 1_555
