# generated using pymatgen
data_Sn3N3F11
_symmetry_space_group_name_H-M   'P 1'
_cell_length_a   8.04013400
_cell_length_b   7.29117100
_cell_length_c   10.52938300
_cell_angle_alpha   90.00000000
_cell_angle_beta   90.00000000
_cell_angle_gamma   90.00000000
_symmetry_Int_Tables_number   1
_chemical_formula_structural   Sn3N3F11
_chemical_formula_sum   'Sn6 N6 F22'
_cell_volume   617.25340448
_cell_formula_units_Z   2
loop_
 _symmetry_equiv_pos_site_id
 _symmetry_equiv_pos_as_xyz
  1  'x, y, z'
loop_
 _atom_site_type_symbol
 _atom_site_label
 _atom_site_symmetry_multiplicity
 _atom_site_fract_x
 _atom_site_fract_y
 _atom_site_fract_z
 _atom_site_occupancy
  Sn  Sn0  1  0.25000000  0.73461800  0.93333400  1
  Sn  Sn1  1  0.25000000  0.73461800  0.56666600  1
  Sn  Sn2  1  0.75000000  0.26538200  0.06666600  1
  Sn  Sn3  1  0.75000000  0.26538200  0.43333400  1
  Sn  Sn4  1  0.25000000  0.81590500  0.25000000  1
  Sn  Sn5  1  0.75000000  0.18409500  0.75000000  1
  N  N0  1  0.25000000  0.24419300  0.25000000  1
  N  N1  1  0.75000000  0.75580700  0.75000000  1
  N  N2  1  0.25000000  0.46313900  0.80454100  1
  N  N3  1  0.25000000  0.46313900  0.69545900  1
  N  N4  1  0.75000000  0.53686100  0.19545900  1
  N  N5  1  0.75000000  0.53686100  0.30454100  1
  F  F0  1  0.25000000  0.85919900  0.75000000  1
  F  F1  1  0.75000000  0.14080100  0.25000000  1
  F  F2  1  0.98987700  0.24812400  0.43382400  1
  F  F3  1  0.51012300  0.24812400  0.43382400  1
  F  F4  1  0.98987700  0.24812400  0.06617600  1
  F  F5  1  0.51012300  0.24812400  0.06617600  1
  F  F6  1  0.01012300  0.75187600  0.56617600  1
  F  F7  1  0.48987700  0.75187600  0.56617600  1
  F  F8  1  0.01012300  0.75187600  0.93382400  1
  F  F9  1  0.48987700  0.75187600  0.93382400  1
  F  F10  1  0.25000000  0.94468100  0.42891300  1
  F  F11  1  0.25000000  0.94468100  0.07108700  1
  F  F12  1  0.75000000  0.05531900  0.57108700  1
  F  F13  1  0.75000000  0.05531900  0.92891300  1
  F  F14  1  0.25000000  0.60276100  0.38481000  1
  F  F15  1  0.25000000  0.60276100  0.11519000  1
  F  F16  1  0.75000000  0.39723900  0.61519000  1
  F  F17  1  0.75000000  0.39723900  0.88481000  1
  F  F18  1  0.01193700  0.82738100  0.25000000  1
  F  F19  1  0.48806300  0.82738100  0.25000000  1
  F  F20  1  0.98806300  0.17261900  0.75000000  1
  F  F21  1  0.51193700  0.17261900  0.75000000  1
loop_
_geom_bond_atom_site_label_1
_geom_bond_atom_site_label_2
_geom_bond_distance
_geom_bond_site_symmetry_2
N2 N3 1.148566 1_555
N2 Sn0 2.399387 1_555
N3 Sn1 2.399387 1_555
N4 N5 1.148566 1_555
N4 Sn2 2.399387 1_555
N5 Sn3 2.399387 1_555
F0 Sn1 2.133426 1_555
F0 Sn0 2.133426 1_555
F1 Sn2 2.133426 1_555
F1 Sn3 2.133426 1_555
F2 Sn3 1.932751 1_555
F3 Sn3 1.932751 1_555
F4 Sn2 1.932751 1_555
F5 Sn2 1.932751 1_555
F6 Sn1 1.932751 1_555
F7 Sn1 1.932751 1_555
F8 Sn0 1.932751 1_555
F9 Sn0 1.932751 1_555
F10 Sn4 2.104864 1_555
F10 Sn1 2.109415 1_555
F11 Sn4 2.104864 1_555
F11 Sn0 2.109415 1_554
F12 Sn5 2.104864 1_555
F12 Sn3 2.109415 1_555
F13 Sn5 2.104864 1_555
F13 Sn2 2.109415 1_556
F14 Sn4 2.104760 1_555
F14 Sn1 2.142628 1_555
F15 Sn4 2.104760 1_555
F15 Sn0 2.142628 1_554
F16 Sn5 2.104760 1_555
F16 Sn3 2.142628 1_555
F17 Sn5 2.104760 1_555
F17 Sn2 2.142628 1_556
F18 Sn4 1.915886 1_555
F19 Sn4 1.915886 1_555
F20 Sn5 1.915886 1_555
F21 Sn5 1.915886 1_555
