# generated using pymatgen
data_PrHSe
_symmetry_space_group_name_H-M   'P 1'
_cell_length_a   4.05307351
_cell_length_b   4.05307351
_cell_length_c   8.04043046
_cell_angle_alpha   90.00000000
_cell_angle_beta   90.00000000
_cell_angle_gamma   120.00001807
_symmetry_Int_Tables_number   1
_chemical_formula_structural   PrHSe
_chemical_formula_sum   'Pr2 H2 Se2'
_cell_volume   114.38756450
_cell_formula_units_Z   2
loop_
 _symmetry_equiv_pos_site_id
 _symmetry_equiv_pos_as_xyz
  1  'x, y, z'
loop_
 _atom_site_type_symbol
 _atom_site_label
 _atom_site_symmetry_multiplicity
 _atom_site_fract_x
 _atom_site_fract_y
 _atom_site_fract_z
 _atom_site_occupancy
  Pr  Pr0  1  0.66666700  0.33333300  0.75000000  1
  Pr  Pr1  1  0.33333300  0.66666700  0.25000000  1
  H  H0  1  0.66666700  0.33333300  0.25000000  1
  H  H1  1  0.33333300  0.66666700  0.75000000  1
  Se  Se0  1  0.00000000  0.00000000  0.00000000  1
  Se  Se1  1  0.00000000  0.00000000  0.50000000  1
loop_
_geom_bond_atom_site_label_1
_geom_bond_atom_site_label_2
_geom_bond_distance
_geom_bond_site_symmetry_2
Pr0 Se0 3.084854 1_656
Pr0 Se1 3.084854 1_655
Pr0 Se1 3.084856 1_555
Pr0 Se1 3.084856 1_665
Pr0 Se0 3.084856 1_666
Pr0 Se0 3.084856 1_556
Pr1 Se1 3.084854 1_565
Pr1 Se0 3.084854 1_565
Pr1 Se1 3.084856 1_555
Pr1 Se1 3.084856 1_665
Pr1 Se0 3.084856 1_665
Pr1 Se0 3.084856 1_555
H0 Pr1 2.340040 1_545
H0 Pr1 2.340040 1_655
H0 Pr1 2.340048 1_555
H1 Pr0 2.340040 1_455
H1 Pr0 2.340040 1_565
H1 Pr0 2.340048 1_555
