# generated using pymatgen
data_CaWO4
_symmetry_space_group_name_H-M   'P 1'
_cell_length_a   7.79125449
_cell_length_b   7.79125449
_cell_length_c   5.36212200
_cell_angle_alpha   90.00000000
_cell_angle_beta   90.00000000
_cell_angle_gamma   120.19025862
_symmetry_Int_Tables_number   1
_chemical_formula_structural   CaWO4
_chemical_formula_sum   'Ca4 W4 O16'
_cell_volume   281.34959170
_cell_formula_units_Z   4
loop_
 _symmetry_equiv_pos_site_id
 _symmetry_equiv_pos_as_xyz
  1  'x, y, z'
loop_
 _atom_site_type_symbol
 _atom_site_label
 _atom_site_symmetry_multiplicity
 _atom_site_fract_x
 _atom_site_fract_y
 _atom_site_fract_z
 _atom_site_occupancy
  Ca  Ca0  1  0.58764400  0.91235600  0.75000000  1
  Ca  Ca1  1  0.91235600  0.58764400  0.25000000  1
  Ca  Ca2  1  0.41235600  0.08764400  0.25000000  1
  Ca  Ca3  1  0.08764400  0.41235600  0.75000000  1
  W  W0  1  0.40938300  0.59061700  0.20826400  1
  W  W1  1  0.59061700  0.40938300  0.79173600  1
  W  W2  1  0.09061700  0.90938300  0.70826400  1
  W  W3  1  0.90938300  0.09061700  0.29173600  1
  O  O0  1  0.39706700  0.10293300  0.75000000  1
  O  O1  1  0.10293300  0.39706700  0.25000000  1
  O  O2  1  0.60293300  0.89706700  0.25000000  1
  O  O3  1  0.89706700  0.60293300  0.75000000  1
  O  O4  1  0.19884100  0.80115900  0.49776000  1
  O  O5  1  0.80115900  0.19884100  0.50224000  1
  O  O6  1  0.30115900  0.69884100  0.99776000  1
  O  O7  1  0.69884100  0.30115900  0.00224000  1
  O  O8  1  0.14995300  0.14995300  0.50000000  1
  O  O9  1  0.64995300  0.64995300  0.00000000  1
  O  O10  1  0.85004700  0.85004700  0.50000000  1
  O  O11  1  0.35004700  0.35004700  0.00000000  1
  O  O12  1  0.09209700  0.90790300  0.05511000  1
  O  O13  1  0.90790300  0.09209700  0.94489000  1
  O  O14  1  0.40790300  0.59209700  0.55511000  1
  O  O15  1  0.59209700  0.40790300  0.44489000  1
loop_
_geom_bond_atom_site_label_1
_geom_bond_atom_site_label_2
_geom_bond_distance
_geom_bond_site_symmetry_2
Ca0 O14 2.401028 1_555
Ca0 O13 2.401028 1_565
Ca0 O6 2.404168 1_555
Ca0 O5 2.404168 1_565
Ca0 O0 2.574270 1_565
Ca0 O10 2.685271 1_555
Ca0 O9 2.685271 1_556
Ca0 O2 2.689003 1_556
Ca0 O2 2.689003 1_555
Ca0 O7 3.019415 1_566
Ca0 O4 3.019415 1_555
Ca1 O15 2.401028 1_555
Ca1 O12 2.401028 1_655
Ca1 O7 2.404168 1_555
Ca1 O4 2.404168 1_655
Ca1 O1 2.574270 1_655
Ca1 O10 2.685271 1_555
Ca1 O9 2.685271 1_555
Ca1 O3 2.689003 1_555
Ca1 O3 2.689003 1_554
Ca1 O6 3.019415 1_654
Ca1 O5 3.019415 1_555
Ca2 O12 2.401028 1_545
Ca2 O15 2.401028 1_555
Ca2 O4 2.404168 1_545
Ca2 O7 2.404168 1_555
Ca2 O2 2.574270 1_545
Ca2 O8 2.685271 1_555
Ca2 O11 2.685271 1_555
Ca2 O0 2.689003 1_554
Ca2 O0 2.689003 1_555
Ca2 O6 3.019415 1_544
Ca2 O5 3.019415 1_555
Ca3 O13 2.401028 1_455
Ca3 O14 2.401028 1_555
Ca3 O6 2.404168 1_555
Ca3 O5 2.404168 1_455
Ca3 O3 2.574270 1_455
Ca3 O8 2.685271 1_555
Ca3 O11 2.685271 1_556
Ca3 O1 2.689003 1_555
Ca3 O1 2.689003 1_556
Ca3 O7 3.019415 1_456
Ca3 O4 3.019415 1_555
O0 W1 2.098497 1_555
O0 W2 2.098497 1_545
O1 W0 2.098497 1_555
O1 W3 2.098497 1_455
O2 W0 2.098497 1_555
O2 W3 2.098497 1_565
O3 W2 2.098497 1_655
O3 W1 2.098497 1_555
O4 W2 1.846922 1_555
O5 W3 1.846922 1_555
O6 W0 1.846922 1_556
O7 W1 1.846922 1_554
O8 W2 2.025461 1_545
O8 W3 2.025461 1_455
O9 W0 2.025461 1_555
O9 W1 2.025461 1_554
O10 W3 2.025461 1_565
O10 W2 2.025461 1_655
O11 W0 2.025461 1_555
O11 W1 2.025461 1_554
O12 W2 1.859938 1_554
O13 W3 1.859938 1_556
O14 W0 1.859938 1_555
O15 W1 1.859938 1_555
