# generated using pymatgen
data_Na2BeSiO4
_symmetry_space_group_name_H-M   'P 1'
_cell_length_a   4.93488111
_cell_length_b   7.01030868
_cell_length_c   9.88859443
_cell_angle_alpha   90.00633299
_cell_angle_beta   90.00000000
_cell_angle_gamma   90.00000000
_symmetry_Int_Tables_number   1
_chemical_formula_structural   Na2BeSiO4
_chemical_formula_sum   'Na8 Be4 Si4 O16'
_cell_volume   342.09631655
_cell_formula_units_Z   4
loop_
 _symmetry_equiv_pos_site_id
 _symmetry_equiv_pos_as_xyz
  1  'x, y, z'
loop_
 _atom_site_type_symbol
 _atom_site_label
 _atom_site_symmetry_multiplicity
 _atom_site_fract_x
 _atom_site_fract_y
 _atom_site_fract_z
 _atom_site_occupancy
  Na  Na0  1  0.29135916  0.00202126  0.60957202  1
  Na  Na1  1  0.81686921  0.26572055  0.64079478  1
  Na  Na2  1  0.31686921  0.73427945  0.85920522  1
  Na  Na3  1  0.18313079  0.73427945  0.35920522  1
  Na  Na4  1  0.68313079  0.26572055  0.14079478  1
  Na  Na5  1  0.79135916  0.99797874  0.89042798  1
  Na  Na6  1  0.20864084  0.00202126  0.10957202  1
  Na  Na7  1  0.70864084  0.99797874  0.39042798  1
  Be  Be0  1  0.65847615  0.49869551  0.41219378  1
  Be  Be1  1  0.15847615  0.50130449  0.08780622  1
  Be  Be2  1  0.34152385  0.50130449  0.58780622  1
  Be  Be3  1  0.84152385  0.49869551  0.91219378  1
  Si  Si0  1  0.65611243  0.72337429  0.15783368  1
  Si  Si1  1  0.84388757  0.72337429  0.65783368  1
  Si  Si2  1  0.34388757  0.27662571  0.84216632  1
  Si  Si3  1  0.15611243  0.27662571  0.34216632  1
  O  O0  1  0.66770109  0.56238365  0.57461078  1
  O  O1  1  0.66326558  0.31328588  0.87956614  1
  O  O2  1  0.16326558  0.68671412  0.62043386  1
  O  O3  1  0.33673442  0.68671412  0.12043386  1
  O  O4  1  0.83673442  0.31328588  0.37956614  1
  O  O5  1  0.73575857  0.94159607  0.12454893  1
  O  O6  1  0.16770109  0.43761635  0.92538922  1
  O  O7  1  0.33229891  0.43761635  0.42538922  1
  O  O8  1  0.83229891  0.56238365  0.07461078  1
  O  O9  1  0.79328499  0.68284191  0.81918042  1
  O  O10  1  0.29328499  0.31715809  0.68081958  1
  O  O11  1  0.20671501  0.31715809  0.18081958  1
  O  O12  1  0.26424143  0.05840393  0.87545107  1
  O  O13  1  0.23575857  0.05840393  0.37545107  1
  O  O14  1  0.76424143  0.94159607  0.62454893  1
  O  O15  1  0.70671501  0.68284191  0.31918042  1
loop_
_geom_bond_atom_site_label_1
_geom_bond_atom_site_label_2
_geom_bond_distance
_geom_bond_site_symmetry_2
Na0 O2 2.301531 1_545
Na0 O10 2.318774 1_555
Na0 O13 2.364642 1_555
Na0 O14 2.376375 1_545
Na0 O14 2.639688 1_445
Na0 O12 2.662038 1_555
Na1 O14 2.292625 1_545
Na1 O0 2.301231 1_555
Na1 O10 2.411246 1_655
Na1 O1 2.502090 1_555
Na1 O4 2.606497 1_555
Na1 O10 2.638712 1_555
Na2 O12 2.292625 1_565
Na2 O6 2.301231 1_555
Na2 O9 2.411246 1_555
Na2 O2 2.502090 1_555
Na2 O3 2.606497 1_556
Na2 O9 2.638712 1_455
Na3 O13 2.292625 1_565
Na3 O7 2.301231 1_555
Na3 O15 2.411246 1_455
Na3 O3 2.502090 1_555
Na3 O2 2.606497 1_555
Na3 O15 2.638712 1_555
Na4 O5 2.292625 1_545
Na4 O8 2.301231 1_555
Na4 O11 2.411246 1_555
Na4 O4 2.502090 1_555
Na4 O1 2.606497 1_554
Na4 O11 2.638712 1_655
Na5 O1 2.301531 1_565
Na5 O9 2.318774 1_555
Na5 O5 2.364642 1_556
Na5 O12 2.376375 1_665
Na5 O12 2.639688 1_565
Na5 O14 2.662038 1_555
Na6 O3 2.301531 1_545
Na6 O11 2.318774 1_555
Na6 O12 2.364642 1_554
Na6 O5 2.376375 1_445
Na6 O5 2.639688 1_545
Na6 O13 2.662038 1_555
Na7 O4 2.301531 1_565
Na7 O15 2.318774 1_555
Na7 O14 2.364642 1_555
Na7 O13 2.376375 1_565
Na7 O13 2.639688 1_665
Na7 O5 2.662038 1_555
Be0 O4 1.602271 1_555
Be0 O15 1.602933 1_555
Be0 O0 1.667553 1_555
Be0 O7 1.670730 1_555
Be1 O3 1.602271 1_555
Be1 O11 1.602933 1_555
Be1 O6 1.667553 1_554
Be1 O8 1.670730 1_455
Be2 O2 1.602271 1_555
Be2 O10 1.602933 1_555
Be2 O7 1.667553 1_555
Be2 O0 1.670730 1_555
Be3 O1 1.602271 1_555
Be3 O9 1.602933 1_555
Be3 O8 1.667553 1_556
Be3 O6 1.670730 1_655
O0 Si1 1.645217 1_555
O1 Si2 1.639168 1_555
O2 Si1 1.639168 1_455
O3 Si0 1.639168 1_555
O4 Si3 1.639168 1_655
O5 Si0 1.613450 1_555
O6 Si2 1.645217 1_555
O7 Si3 1.645217 1_555
O8 Si0 1.645217 1_555
O9 Si1 1.639754 1_555
O10 Si2 1.639754 1_555
O11 Si3 1.639754 1_555
O12 Si2 1.613450 1_555
O13 Si3 1.613450 1_555
O14 Si1 1.613450 1_555
O15 Si0 1.639754 1_555
