# generated using pymatgen
data_CeRe2SiC
_symmetry_space_group_name_H-M   'P 1'
_cell_length_a   5.84791837
_cell_length_b   5.84791837
_cell_length_c   7.32113000
_cell_angle_alpha   90.00000000
_cell_angle_beta   90.00000000
_cell_angle_gamma   140.07111854
_symmetry_Int_Tables_number   1
_chemical_formula_structural   CeRe2SiC
_chemical_formula_sum   'Ce2 Re4 Si2 C2'
_cell_volume   160.69596457
_cell_formula_units_Z   2
loop_
 _symmetry_equiv_pos_site_id
 _symmetry_equiv_pos_as_xyz
  1  'x, y, z'
loop_
 _atom_site_type_symbol
 _atom_site_label
 _atom_site_symmetry_multiplicity
 _atom_site_fract_x
 _atom_site_fract_y
 _atom_site_fract_z
 _atom_site_occupancy
  Ce  Ce0  1  0.54491100  0.45508900  0.25000000  1
  Ce  Ce1  1  0.45508900  0.54491100  0.75000000  1
  Re  Re0  1  0.82687200  0.17312800  0.06216700  1
  Re  Re1  1  0.17312800  0.82687200  0.93783300  1
  Re  Re2  1  0.17312800  0.82687200  0.56216700  1
  Re  Re3  1  0.82687200  0.17312800  0.43783300  1
  Si  Si0  1  0.26541600  0.73458400  0.25000000  1
  Si  Si1  1  0.73458400  0.26541600  0.75000000  1
  C  C0  1  0.00000000  0.00000000  0.00000000  1
  C  C1  1  0.00000000  0.00000000  0.50000000  1
loop_
_geom_bond_atom_site_label_1
_geom_bond_atom_site_label_2
_geom_bond_distance
_geom_bond_site_symmetry_2
Ce0 Si0 3.072481 1_555
Ce0 Si0 3.140476 1_545
Ce0 Si0 3.140476 1_655
Ce1 Si1 3.072481 1_555
Ce1 Si1 3.140476 1_455
Ce1 Si1 3.140476 1_565
Re0 Si1 2.500474 1_554
Re0 Si0 2.516792 1_655
Re0 Si0 2.516792 1_545
Re1 Si0 2.500474 1_556
Re1 Si1 2.516792 1_565
Re1 Si1 2.516792 1_455
Re2 Si0 2.500474 1_555
Re2 Si1 2.516792 1_565
Re2 Si1 2.516792 1_455
Re3 Si1 2.500474 1_555
Re3 Si0 2.516792 1_655
Re3 Si0 2.516792 1_545
C0 Re0 1.956855 1_455
C0 Re1 1.956855 1_544
C0 Ce0 2.753265 1_445
C0 Ce1 2.753265 1_444
C0 Ce0 2.753265 1_555
C0 Ce1 2.753265 1_554
C1 Re3 1.956855 1_455
C1 Re2 1.956855 1_545
C1 Ce1 2.753265 1_445
C1 Ce0 2.753265 1_445
C1 Ce0 2.753265 1_555
C1 Ce1 2.753265 1_555
