# generated using pymatgen
data_Mo3Se2ClO8
_symmetry_space_group_name_H-M   'P 1'
_cell_length_a   7.19088300
_cell_length_b   8.16955486
_cell_length_c   10.31618213
_cell_angle_alpha   89.77716516
_cell_angle_beta   89.96401026
_cell_angle_gamma   87.58517793
_symmetry_Int_Tables_number   1
_chemical_formula_structural   Mo3Se2ClO8
_chemical_formula_sum   'Mo6 Se4 Cl2 O16'
_cell_volume   605.49483821
_cell_formula_units_Z   2
loop_
 _symmetry_equiv_pos_site_id
 _symmetry_equiv_pos_as_xyz
  1  'x, y, z'
loop_
 _atom_site_type_symbol
 _atom_site_label
 _atom_site_symmetry_multiplicity
 _atom_site_fract_x
 _atom_site_fract_y
 _atom_site_fract_z
 _atom_site_occupancy
  Mo  Mo0  1  0.49777200  0.99911300  0.00050100  1
  Mo  Mo1  1  0.50243700  0.00075600  0.50052600  1
  Mo  Mo2  1  0.99752200  0.99962100  0.99924500  1
  Mo  Mo3  1  0.28099100  0.80292000  0.75068400  1
  Mo  Mo4  1  0.71881800  0.19712100  0.24888600  1
  Mo  Mo5  1  0.00270200  0.00055800  0.49913900  1
  Se  Se0  1  0.25415600  0.64140200  0.05247400  1
  Se  Se1  1  0.73901800  0.35753200  0.94668300  1
  Se  Se2  1  0.26090000  0.64230500  0.44948100  1
  Se  Se3  1  0.74580200  0.35888800  0.54967500  1
  Cl  Cl0  1  0.61240400  0.88503200  0.75551000  1
  Cl  Cl1  1  0.38754100  0.11447100  0.25019000  1
  O  O0  1  0.75464200  0.02304000  0.09648500  1
  O  O1  1  0.73630400  0.38712900  0.11341900  1
  O  O2  1  0.26196500  0.61298300  0.61612200  1
  O  O3  1  0.43749800  0.76706800  0.07827300  1
  O  O4  1  0.56225000  0.23273300  0.57597500  1
  O  O5  1  0.94679800  0.23552600  0.57087700  1
  O  O6  1  0.24120200  0.97606000  0.90332200  1
  O  O7  1  0.05286300  0.76441900  0.07249000  1
  O  O8  1  0.06079100  0.76643100  0.42640700  1
  O  O9  1  0.94000900  0.23414400  0.92537700  1
  O  O10  1  0.75840500  0.02417800  0.40338800  1
  O  O11  1  0.24601400  0.97681800  0.59633300  1
  O  O12  1  0.55500400  0.23218700  0.92348200  1
  O  O13  1  0.44573600  0.76753100  0.42626100  1
  O  O14  1  0.26027100  0.61268000  0.88572700  1
  O  O15  1  0.74019100  0.38735200  0.38306700  1
loop_
_geom_bond_atom_site_label_1
_geom_bond_atom_site_label_2
_geom_bond_distance
_geom_bond_site_symmetry_2
Mo0 O0 2.113001 1_565
Mo0 O6 2.116005 1_554
Mo0 O12 2.116640 1_564
Mo0 O3 2.117126 1_555
Mo1 O11 2.107533 1_545
Mo1 O10 2.110596 1_555
Mo1 O13 2.112049 1_545
Mo1 O4 2.112578 1_555
Mo2 O6 2.014354 1_655
Mo2 O0 2.016030 1_566
Mo2 O9 2.084434 1_565
Mo2 O7 2.084731 1_656
Mo3 O14 2.093055 1_555
Mo3 O2 2.094846 1_555
Mo3 O6 2.131844 1_555
Mo3 O11 2.137713 1_555
Mo4 O1 2.092308 1_555
Mo4 O15 2.095732 1_555
Mo4 O0 2.132305 1_555
Mo4 O10 2.137011 1_555
Mo5 O10 2.017702 1_455
Mo5 O11 2.018975 1_545
Mo5 O8 2.083116 1_545
Mo5 O5 2.083206 1_455
Cl0 Mo3 2.503401 1_555
Cl0 Mo0 2.808320 1_556
Cl0 Mo1 2.891143 1_565
Cl1 Mo4 2.503254 1_555
Cl1 Mo0 2.846888 1_545
Cl1 Mo1 2.852080 1_555
O1 Se1 1.737905 1_554
O2 Se2 1.734763 1_555
O3 Se0 1.726150 1_555
O4 Se3 1.729149 1_555
O5 Se3 1.740249 1_555
O7 Se0 1.739680 1_555
O8 Se2 1.741024 1_555
O9 Se1 1.741229 1_555
O12 Se1 1.724325 1_555
O13 Se2 1.727098 1_555
O14 Se0 1.737305 1_556
O15 Se3 1.733788 1_555
