# generated using pymatgen
data_Mg6AlCr
_symmetry_space_group_name_H-M   'P 1'
_cell_length_a   5.00096600
_cell_length_b   6.12182100
_cell_length_c   10.77897700
_cell_angle_alpha   90.00000000
_cell_angle_beta   90.00000000
_cell_angle_gamma   90.00000000
_symmetry_Int_Tables_number   1
_chemical_formula_structural   Mg6AlCr
_chemical_formula_sum   'Mg12 Al2 Cr2'
_cell_volume   329.99858220
_cell_formula_units_Z   2
loop_
 _symmetry_equiv_pos_site_id
 _symmetry_equiv_pos_as_xyz
  1  'x, y, z'
loop_
 _atom_site_type_symbol
 _atom_site_label
 _atom_site_symmetry_multiplicity
 _atom_site_fract_x
 _atom_site_fract_y
 _atom_site_fract_z
 _atom_site_occupancy
  Mg  Mg0  1  0.50000000  0.25075700  0.41665200  1
  Mg  Mg1  1  0.50000000  0.74924300  0.41665200  1
  Mg  Mg2  1  0.00000000  0.74777700  0.08563700  1
  Mg  Mg3  1  0.00000000  0.25222300  0.08563700  1
  Mg  Mg4  1  0.00000000  0.00000000  0.33135700  1
  Mg  Mg5  1  0.00000000  0.50000000  0.33001300  1
  Mg  Mg6  1  0.50000000  0.75075700  0.91665200  1
  Mg  Mg7  1  0.50000000  0.24924300  0.91665200  1
  Mg  Mg8  1  0.00000000  0.24777700  0.58563700  1
  Mg  Mg9  1  0.00000000  0.75222300  0.58563700  1
  Mg  Mg10  1  0.00000000  0.50000000  0.83135700  1
  Mg  Mg11  1  0.00000000  0.00000000  0.83001300  1
  Al  Al0  1  0.50000000  0.00000000  0.16689000  1
  Al  Al1  1  0.50000000  0.50000000  0.66689000  1
  Cr  Cr0  1  0.50000000  0.50000000  0.16715800  1
  Cr  Cr1  1  0.50000000  0.00000000  0.66715800  1
loop_
_geom_bond_atom_site_label_1
_geom_bond_atom_site_label_2
_geom_bond_distance
_geom_bond_site_symmetry_2
Mg0 Mg1 3.051642 1_555
Mg0 Mg1 3.070179 1_545
Mg0 Mg5 3.074521 1_655
Mg0 Mg5 3.074521 1_555
Mg0 Mg4 3.074768 1_555
Mg0 Mg4 3.074768 1_655
Mg0 Mg8 3.093632 1_555
Mg0 Mg8 3.093632 1_655
Mg1 Mg5 3.074521 1_655
Mg1 Mg5 3.074521 1_555
Mg1 Mg4 3.074768 1_665
Mg1 Mg4 3.074768 1_565
Mg1 Mg9 3.093632 1_655
Mg1 Mg9 3.093632 1_555
Mg2 Mg3 3.033693 1_555
Mg2 Mg5 3.039643 1_555
Mg2 Mg4 3.065823 1_565
Mg2 Mg3 3.088128 1_565
Mg2 Mg6 3.093632 1_554
Mg2 Mg6 3.093632 1_454
Mg3 Mg5 3.039643 1_555
Mg3 Mg4 3.065823 1_555
Mg3 Mg7 3.093632 1_454
Mg3 Mg7 3.093632 1_554
Mg4 Mg5 3.060945 1_545
Mg4 Mg5 3.060945 1_555
Mg4 Mg8 3.132609 1_555
Mg4 Mg9 3.132609 1_545
Mg5 Mg9 3.158508 1_555
Mg5 Mg8 3.158508 1_555
Mg6 Mg7 3.051642 1_565
Mg6 Mg7 3.070179 1_555
Mg8 Mg9 3.033693 1_545
Mg8 Mg9 3.088128 1_555
Mg10 Mg11 3.060945 1_555
Mg10 Mg11 3.060945 1_565
Mg10 Mg8 3.065823 1_555
Mg10 Mg9 3.065823 1_555
Mg10 Mg6 3.074768 1_555
Mg10 Mg7 3.074768 1_455
Mg10 Mg7 3.074768 1_555
Mg10 Mg6 3.074768 1_455
Mg10 Mg2 3.132609 1_556
Mg10 Mg3 3.132609 1_556
Mg11 Mg8 3.039643 1_555
Mg11 Mg9 3.039643 1_545
Mg11 Mg6 3.074521 1_445
Mg11 Mg7 3.074521 1_455
Mg11 Mg6 3.074521 1_545
Mg11 Mg7 3.074521 1_555
Mg11 Mg3 3.158508 1_556
Mg11 Mg2 3.158508 1_546
Al0 Cr0 3.060912 1_555
Al0 Cr0 3.060912 1_545
Al0 Mg4 3.065157 1_555
Al0 Mg4 3.065157 1_655
Al0 Mg3 3.066532 1_555
Al0 Mg3 3.066532 1_655
Al0 Mg2 3.066532 1_645
Al0 Mg2 3.066532 1_545
Al0 Mg7 3.098969 1_554
Al0 Mg6 3.098969 1_544
Al0 Mg0 3.099085 1_555
Al0 Mg1 3.099085 1_545
Al1 Cr1 3.060912 1_555
Al1 Cr1 3.060912 1_565
Al1 Mg10 3.065157 1_555
Al1 Mg10 3.065157 1_655
Al1 Mg8 3.066532 1_655
Al1 Mg9 3.066532 1_555
Al1 Mg9 3.066532 1_655
Al1 Mg8 3.066532 1_555
Al1 Mg1 3.098969 1_555
Al1 Mg0 3.098969 1_555
Al1 Mg6 3.099085 1_555
Al1 Mg7 3.099085 1_555
Cr0 Mg2 3.053748 1_655
Cr0 Mg2 3.053748 1_555
Cr0 Mg3 3.053748 1_655
Cr0 Mg3 3.053748 1_555
Cr0 Mg5 3.055140 1_655
Cr0 Mg5 3.055140 1_555
Cr0 Mg1 3.091991 1_555
Cr0 Mg0 3.091991 1_555
Cr0 Mg7 3.106054 1_554
Cr0 Mg6 3.106054 1_554
Cr1 Mg8 3.053748 1_655
Cr1 Mg9 3.053748 1_545
Cr1 Mg8 3.053748 1_555
Cr1 Mg9 3.053748 1_645
Cr1 Mg11 3.055140 1_555
Cr1 Mg11 3.055140 1_655
Cr1 Mg6 3.091991 1_545
Cr1 Mg7 3.091991 1_555
Cr1 Mg0 3.106054 1_555
Cr1 Mg1 3.106054 1_545
