# generated using pymatgen
data_Ba4Ga3Si20
_symmetry_space_group_name_H-M   'P 1'
_cell_length_a   10.48044000
_cell_length_b   10.48044000
_cell_length_c   10.48044000
_cell_angle_alpha   90.00000000
_cell_angle_beta   90.00000000
_cell_angle_gamma   90.00000000
_symmetry_Int_Tables_number   1
_chemical_formula_structural   Ba4Ga3Si20
_chemical_formula_sum   'Ba8 Ga6 Si40'
_cell_volume   1151.16757421
_cell_formula_units_Z   2
loop_
 _symmetry_equiv_pos_site_id
 _symmetry_equiv_pos_as_xyz
  1  'x, y, z'
loop_
 _atom_site_type_symbol
 _atom_site_label
 _atom_site_symmetry_multiplicity
 _atom_site_fract_x
 _atom_site_fract_y
 _atom_site_fract_z
 _atom_site_occupancy
  Ba  Ba0  1  0.00000000  0.00000000  0.00000000  1
  Ba  Ba1  1  0.50000000  0.50000000  0.50000000  1
  Ba  Ba2  1  0.25000000  0.00000000  0.50000000  1
  Ba  Ba3  1  0.75000000  0.00000000  0.50000000  1
  Ba  Ba4  1  0.50000000  0.25000000  0.00000000  1
  Ba  Ba5  1  0.50000000  0.75000000  0.00000000  1
  Ba  Ba6  1  0.00000000  0.50000000  0.25000000  1
  Ba  Ba7  1  0.00000000  0.50000000  0.75000000  1
  Ga  Ga0  1  0.25000000  0.50000000  0.00000000  1
  Ga  Ga1  1  0.75000000  0.50000000  0.00000000  1
  Ga  Ga2  1  0.00000000  0.25000000  0.50000000  1
  Ga  Ga3  1  0.00000000  0.75000000  0.50000000  1
  Ga  Ga4  1  0.50000000  0.00000000  0.25000000  1
  Ga  Ga5  1  0.50000000  0.00000000  0.75000000  1
  Si  Si0  1  0.00000000  0.11839100  0.30247900  1
  Si  Si1  1  0.00000000  0.88160900  0.69752100  1
  Si  Si2  1  0.00000000  0.88160900  0.30247900  1
  Si  Si3  1  0.00000000  0.11839100  0.69752100  1
  Si  Si4  1  0.30247900  0.00000000  0.11839100  1
  Si  Si5  1  0.61839100  0.50000000  0.19752100  1
  Si  Si6  1  0.69752100  0.00000000  0.88160900  1
  Si  Si7  1  0.38160900  0.50000000  0.80247900  1
  Si  Si8  1  0.30247900  0.00000000  0.88160900  1
  Si  Si9  1  0.38160900  0.50000000  0.19752100  1
  Si  Si10  1  0.69752100  0.00000000  0.11839100  1
  Si  Si11  1  0.61839100  0.50000000  0.80247900  1
  Si  Si12  1  0.11839100  0.30247900  0.00000000  1
  Si  Si13  1  0.50000000  0.80247900  0.38160900  1
  Si  Si14  1  0.88160900  0.69752100  0.00000000  1
  Si  Si15  1  0.50000000  0.19752100  0.61839100  1
  Si  Si16  1  0.11839100  0.69752100  0.00000000  1
  Si  Si17  1  0.50000000  0.19752100  0.38160900  1
  Si  Si18  1  0.88160900  0.30247900  0.00000000  1
  Si  Si19  1  0.50000000  0.80247900  0.61839100  1
  Si  Si20  1  0.19752100  0.61839100  0.50000000  1
  Si  Si21  1  0.80247900  0.38160900  0.50000000  1
  Si  Si22  1  0.19752100  0.38160900  0.50000000  1
  Si  Si23  1  0.80247900  0.61839100  0.50000000  1
  Si  Si24  1  0.18512400  0.18512400  0.18512400  1
  Si  Si25  1  0.81487600  0.81487600  0.81487600  1
  Si  Si26  1  0.81487600  0.81487600  0.18512400  1
  Si  Si27  1  0.81487600  0.18512400  0.81487600  1
  Si  Si28  1  0.68512400  0.68512400  0.31487600  1
  Si  Si29  1  0.18512400  0.18512400  0.81487600  1
  Si  Si30  1  0.18512400  0.81487600  0.18512400  1
  Si  Si31  1  0.31487600  0.31487600  0.68512400  1
  Si  Si32  1  0.18512400  0.81487600  0.81487600  1
  Si  Si33  1  0.31487600  0.31487600  0.31487600  1
  Si  Si34  1  0.81487600  0.18512400  0.18512400  1
  Si  Si35  1  0.68512400  0.68512400  0.68512400  1
  Si  Si36  1  0.68512400  0.31487600  0.68512400  1
  Si  Si37  1  0.31487600  0.68512400  0.31487600  1
  Si  Si38  1  0.31487600  0.68512400  0.68512400  1
  Si  Si39  1  0.68512400  0.31487600  0.31487600  1
loop_
_geom_bond_atom_site_label_1
_geom_bond_atom_site_label_2
_geom_bond_distance
_geom_bond_site_symmetry_2
Ba0 Si24 3.360492 1_555
Ba0 Si29 3.360492 1_554
Ba0 Si30 3.360492 1_545
Ba0 Si34 3.360492 1_455
Ba0 Si32 3.360492 1_544
Ba0 Si27 3.360492 1_454
Ba0 Si26 3.360492 1_445
Ba0 Si25 3.360492 1_444
Ba0 Si18 3.404288 1_455
Ba0 Si8 3.404288 1_554
Ba0 Si0 3.404288 1_555
Ba0 Si12 3.404288 1_555
Ba0 Si4 3.404288 1_555
Ba0 Si2 3.404288 1_545
Ba0 Si14 3.404288 1_445
Ba0 Si1 3.404288 1_544
Ba0 Si3 3.404288 1_554
Ba0 Si6 3.404288 1_454
Ba0 Si10 3.404288 1_455
Ba0 Si16 3.404288 1_545
Ba1 Si35 3.360492 1_555
Ba1 Si36 3.360492 1_555
Ba1 Si38 3.360492 1_555
Ba1 Si28 3.360492 1_555
Ba1 Si33 3.360492 1_555
Ba1 Si31 3.360492 1_555
Ba1 Si37 3.360492 1_555
Ba1 Si39 3.360492 1_555
Ba1 Si21 3.404288 1_555
Ba1 Si11 3.404288 1_555
Ba1 Si7 3.404288 1_555
Ba1 Si13 3.404288 1_555
Ba1 Si23 3.404288 1_555
Ba1 Si19 3.404288 1_555
Ba1 Si15 3.404288 1_555
Ba1 Si5 3.404288 1_555
Ba1 Si17 3.404288 1_555
Ba1 Si20 3.404288 1_555
Ba1 Si9 3.404288 1_555
Ba1 Si22 3.404288 1_555
Ba2 Si3 3.562286 1_555
Ba2 Si1 3.562286 1_545
Ba2 Si17 3.562286 1_555
Ba2 Si15 3.562286 1_555
Ba2 Si0 3.562286 1_555
Ba2 Si2 3.562286 1_545
Ba2 Si19 3.562286 1_545
Ba2 Si13 3.562286 1_545
Ba2 Ga5 3.705395 1_555
Ba2 Ga3 3.705395 1_545
Ba2 Ga4 3.705395 1_555
Ba2 Ga2 3.705395 1_555
Ba2 Si29 3.888041 1_555
Ba2 Si32 3.888041 1_545
Ba2 Si33 3.888041 1_555
Ba2 Si31 3.888041 1_555
Ba2 Si38 3.888041 1_545
Ba2 Si37 3.888041 1_545
Ba2 Si24 3.888041 1_555
Ba2 Si30 3.888041 1_545
Ba3 Si3 3.562286 1_655
Ba3 Si0 3.562286 1_655
Ba3 Si17 3.562286 1_555
Ba3 Si1 3.562286 1_645
Ba3 Si15 3.562286 1_555
Ba3 Si2 3.562286 1_645
Ba3 Si19 3.562286 1_545
Ba3 Si13 3.562286 1_545
Ba3 Ga5 3.705395 1_555
Ba3 Ga3 3.705395 1_645
Ba3 Ga4 3.705395 1_555
Ba3 Ga2 3.705395 1_655
Ba3 Si27 3.888041 1_555
Ba3 Si25 3.888041 1_545
Ba3 Si36 3.888041 1_555
Ba3 Si28 3.888041 1_545
Ba3 Si35 3.888041 1_545
Ba3 Si39 3.888041 1_555
Ba3 Si34 3.888041 1_555
Ba3 Si26 3.888041 1_545
Ba4 Si10 3.562286 1_555
Ba4 Si6 3.562286 1_554
Ba4 Si4 3.562286 1_555
Ba4 Si8 3.562286 1_554
Ba4 Si5 3.562286 1_555
Ba4 Si9 3.562286 1_555
Ba4 Si7 3.562286 1_554
Ba4 Si11 3.562286 1_554
Ba4 Ga1 3.705395 1_555
Ba4 Ga4 3.705395 1_555
Ba4 Ga0 3.705395 1_555
Ba4 Ga5 3.705395 1_554
Ba4 Si34 3.888041 1_555
Ba4 Si27 3.888041 1_554
Ba4 Si39 3.888041 1_555
Ba4 Si36 3.888041 1_554
Ba4 Si33 3.888041 1_555
Ba4 Si31 3.888041 1_554
Ba4 Si24 3.888041 1_555
Ba4 Si29 3.888041 1_554
Ba5 Si10 3.562286 1_565
Ba5 Si6 3.562286 1_564
Ba5 Si4 3.562286 1_565
Ba5 Si8 3.562286 1_564
Ba5 Si5 3.562286 1_555
Ba5 Si9 3.562286 1_555
Ba5 Si7 3.562286 1_554
Ba5 Si11 3.562286 1_554
Ba5 Ga1 3.705395 1_555
Ba5 Ga4 3.705395 1_565
Ba5 Ga5 3.705395 1_564
Ba5 Ga0 3.705395 1_555
Ba5 Si26 3.888041 1_555
Ba5 Si25 3.888041 1_554
Ba5 Si28 3.888041 1_555
Ba5 Si37 3.888041 1_555
Ba5 Si35 3.888041 1_554
Ba5 Si38 3.888041 1_554
Ba5 Si30 3.888041 1_555
Ba5 Si32 3.888041 1_554
Ba6 Si16 3.562286 1_555
Ba6 Si14 3.562286 1_455
Ba6 Si12 3.562286 1_555
Ba6 Si20 3.562286 1_555
Ba6 Si22 3.562286 1_555
Ba6 Si18 3.562286 1_455
Ba6 Si23 3.562286 1_455
Ba6 Si21 3.562286 1_455
Ba6 Ga1 3.705395 1_455
Ba6 Ga3 3.705395 1_555
Ba6 Ga0 3.705395 1_555
Ba6 Ga2 3.705395 1_555
Ba6 Si30 3.888041 1_555
Ba6 Si26 3.888041 1_455
Ba6 Si33 3.888041 1_555
Ba6 Si37 3.888041 1_555
Ba6 Si28 3.888041 1_455
Ba6 Si39 3.888041 1_455
Ba6 Si24 3.888041 1_555
Ba6 Si34 3.888041 1_455
Ba7 Si14 3.562286 1_456
Ba7 Si16 3.562286 1_556
Ba7 Si18 3.562286 1_456
Ba7 Si20 3.562286 1_555
Ba7 Si22 3.562286 1_555
Ba7 Si12 3.562286 1_556
Ba7 Si23 3.562286 1_455
Ba7 Si21 3.562286 1_455
Ba7 Ga1 3.705395 1_456
Ba7 Ga3 3.705395 1_555
Ba7 Ga2 3.705395 1_555
Ba7 Ga0 3.705395 1_556
Ba7 Si32 3.888041 1_555
Ba7 Si25 3.888041 1_455
Ba7 Si38 3.888041 1_555
Ba7 Si31 3.888041 1_555
Ba7 Si35 3.888041 1_455
Ba7 Si36 3.888041 1_455
Ba7 Si29 3.888041 1_555
Ba7 Si27 3.888041 1_455
Ga0 Si16 2.487542 1_555
Ga0 Si9 2.487542 1_555
Ga0 Si12 2.487542 1_555
Ga0 Si7 2.487542 1_554
Ga1 Si14 2.487542 1_555
Ga1 Si18 2.487542 1_555
Ga1 Si5 2.487542 1_555
Ga1 Si11 2.487542 1_554
Ga2 Si3 2.487542 1_555
Ga2 Si22 2.487542 1_555
Ga2 Si0 2.487542 1_555
Ga2 Si21 2.487542 1_455
Ga3 Si1 2.487542 1_555
Ga3 Si20 2.487542 1_555
Ga3 Si2 2.487542 1_555
Ga3 Si23 2.487542 1_455
Ga4 Si10 2.487542 1_555
Ga4 Si17 2.487542 1_555
Ga4 Si4 2.487542 1_555
Ga4 Si13 2.487542 1_545
Ga5 Si6 2.487542 1_555
Ga5 Si8 2.487542 1_555
Ga5 Si15 2.487542 1_555
Ga5 Si19 2.487542 1_545
Si0 Si24 2.401288 1_555
Si0 Si34 2.401288 1_455
Si0 Si2 2.481580 1_545
Si1 Si32 2.401288 1_555
Si1 Si25 2.401288 1_455
Si1 Si3 2.481580 1_565
Si2 Si30 2.401288 1_555
Si2 Si26 2.401288 1_455
Si4 Si8 2.481580 1_554
Si5 Si9 2.481580 1_555
Si10 Si34 2.401288 1_555
Si10 Si26 2.401288 1_545
Si10 Si6 2.481580 1_554
Si11 Si35 2.401288 1_555
Si11 Si36 2.401288 1_555
Si11 Si7 2.481580 1_555
Si12 Si24 2.401288 1_555
Si12 Si29 2.401288 1_554
Si12 Si18 2.481580 1_455
Si13 Si28 2.401288 1_555
Si13 Si37 2.401288 1_555
Si13 Si19 2.481580 1_555
Si14 Si26 2.401288 1_555
Si14 Si25 2.401288 1_554
Si14 Si16 2.481580 1_655
Si15 Si36 2.401288 1_555
Si15 Si31 2.401288 1_555
Si15 Si17 2.481580 1_555
Si16 Si30 2.401288 1_555
Si16 Si32 2.401288 1_554
Si17 Si39 2.401288 1_555
Si17 Si33 2.401288 1_555
Si18 Si34 2.401288 1_555
Si18 Si27 2.401288 1_554
Si19 Si35 2.401288 1_555
Si19 Si38 2.401288 1_555
Si20 Si38 2.401288 1_555
Si20 Si37 2.401288 1_555
Si20 Si22 2.481580 1_555
Si21 Si36 2.401288 1_555
Si21 Si39 2.401288 1_555
Si21 Si23 2.481580 1_555
Si22 Si31 2.401288 1_555
Si22 Si33 2.401288 1_555
Si23 Si35 2.401288 1_555
Si23 Si28 2.401288 1_555
Si24 Si33 2.355343 1_555
Si24 Si4 2.401288 1_555
Si25 Si35 2.355343 1_555
Si25 Si6 2.401288 1_565
Si26 Si28 2.355343 1_555
Si27 Si36 2.355343 1_555
Si27 Si6 2.401288 1_555
Si27 Si3 2.401288 1_655
Si28 Si5 2.401288 1_555
Si29 Si31 2.355343 1_555
Si29 Si3 2.401288 1_555
Si29 Si8 2.401288 1_555
Si30 Si37 2.355343 1_555
Si30 Si4 2.401288 1_565
Si31 Si7 2.401288 1_555
Si32 Si38 2.355343 1_555
Si32 Si8 2.401288 1_565
Si33 Si9 2.401288 1_555
Si34 Si39 2.355343 1_555
Si37 Si9 2.401288 1_555
Si38 Si7 2.401288 1_555
Si39 Si5 2.401288 1_555
