# generated using pymatgen
data_HfCrCuS4
_symmetry_space_group_name_H-M   'P 1'
_cell_length_a   6.45597088
_cell_length_b   7.39166065
_cell_length_c   12.54986542
_cell_angle_alpha   81.33704739
_cell_angle_beta   84.81201732
_cell_angle_gamma   89.96410333
_symmetry_Int_Tables_number   1
_chemical_formula_structural   HfCrCuS4
_chemical_formula_sum   'Hf4 Cr4 Cu4 S16'
_cell_volume   589.57478746
_cell_formula_units_Z   4
loop_
 _symmetry_equiv_pos_site_id
 _symmetry_equiv_pos_as_xyz
  1  'x, y, z'
loop_
 _atom_site_type_symbol
 _atom_site_label
 _atom_site_symmetry_multiplicity
 _atom_site_fract_x
 _atom_site_fract_y
 _atom_site_fract_z
 _atom_site_occupancy
  Hf  Hf0  1  0.13764300  0.70136400  0.69809800  1
  Hf  Hf1  1  0.86235700  0.29863600  0.30190100  1
  Hf  Hf2  1  0.24225700  0.87679000  0.00149900  1
  Hf  Hf3  1  0.75774300  0.12321000  0.99850100  1
  Cr  Cr0  1  0.36621600  0.56036000  0.29534100  1
  Cr  Cr1  1  0.63378400  0.43964000  0.70465900  1
  Cr  Cr2  1  0.36486000  0.04108600  0.30069300  1
  Cr  Cr3  1  0.63514000  0.95891400  0.69930700  1
  Cu  Cu0  1  0.12500100  0.19901800  0.69999300  1
  Cu  Cu1  1  0.87499900  0.80098200  0.30000700  1
  Cu  Cu2  1  0.25839400  0.37320100  0.99727400  1
  Cu  Cu3  1  0.74160600  0.62679900  0.00272600  1
  S  S0  1  0.10133900  0.64484300  0.89341700  1
  S  S1  1  0.89866100  0.35515700  0.10658300  1
  S  S2  1  0.10343800  0.15209500  0.88845400  1
  S  S3  1  0.89656200  0.84790500  0.11154600  1
  S  S4  1  0.19071300  0.77988200  0.36488300  1
  S  S5  1  0.80928700  0.22011800  0.63511700  1
  S  S6  1  0.20406100  0.28549000  0.37101500  1
  S  S7  1  0.79593900  0.71451000  0.62898500  1
  S  S8  1  0.31836600  0.97919300  0.62646000  1
  S  S9  1  0.68163400  0.02080700  0.37354000  1
  S  S10  1  0.32221500  0.45486000  0.63094600  1
  S  S11  1  0.67778500  0.54514000  0.36905300  1
  S  S12  1  0.40109800  0.09935800  0.11223300  1
  S  S13  1  0.59890200  0.90064200  0.88776700  1
  S  S14  1  0.39823400  0.59401100  0.11342300  1
  S  S15  1  0.60176600  0.40598900  0.88657600  1
loop_
_geom_bond_atom_site_label_1
_geom_bond_atom_site_label_2
_geom_bond_distance
_geom_bond_site_symmetry_2
Hf0 S8 2.375718 1_555
Hf0 S10 2.393389 1_555
Hf0 S0 2.413652 1_555
Hf0 S7 2.438997 1_455
Hf1 S9 2.375720 1_555
Hf1 S11 2.393389 1_555
Hf1 S1 2.413640 1_555
Hf1 S6 2.439002 1_655
Hf2 S3 2.507632 1_455
Hf2 S2 2.512954 1_564
Hf2 S0 2.555900 1_554
Hf2 S12 2.576416 1_565
Hf2 S13 2.588466 1_554
Hf2 S14 2.593200 1_555
Hf3 S2 2.507632 1_655
Hf3 S3 2.512954 1_546
Hf3 S1 2.555900 1_556
Hf3 S13 2.576416 1_545
Hf3 S12 2.588466 1_556
Hf3 S15 2.593206 1_555
Cr0 S4 2.218979 1_555
Cr0 S14 2.249566 1_555
Cr0 S11 2.284591 1_555
Cr0 S6 2.316776 1_555
Cr1 S5 2.218979 1_555
Cr1 S15 2.249554 1_555
Cr1 S10 2.284597 1_555
Cr1 S7 2.316776 1_555
Cr2 S4 2.238546 1_545
Cr2 S9 2.310215 1_555
Cr2 S12 2.329668 1_555
Cr2 S6 2.330755 1_555
Cr3 S5 2.238546 1_565
Cr3 S8 2.310215 1_555
Cr3 S13 2.329668 1_555
Cr3 S7 2.330755 1_555
Cu0 S5 2.259007 1_455
Cu0 S10 2.293039 1_555
Cu0 S8 2.300228 1_545
Cu0 S2 2.329604 1_555
Cu1 S4 2.259007 1_655
Cu1 S11 2.293037 1_555
Cu1 S9 2.300228 1_565
Cu1 S3 2.329604 1_555
Cu2 S0 2.491303 1_555
Cu2 S15 2.499047 1_555
Cu2 S12 2.527003 1_556
Cu2 S2 2.541342 1_555
Cu2 S14 2.561301 1_556
Cu2 S1 2.581167 1_456
Cu3 S1 2.491303 1_555
Cu3 S14 2.499041 1_555
Cu3 S13 2.527003 1_554
Cu3 S3 2.541342 1_555
Cu3 S15 2.561309 1_554
Cu3 S0 2.581167 1_654
