# generated using pymatgen
data_DyNp3
_symmetry_space_group_name_H-M   'P 1'
_cell_length_a   5.60463208
_cell_length_b   5.60463208
_cell_length_c   5.60463208
_cell_angle_alpha   132.27281708
_cell_angle_beta   132.27281708
_cell_angle_gamma   69.79848177
_symmetry_Int_Tables_number   1
_chemical_formula_structural   DyNp3
_chemical_formula_sum   'Dy1 Np3'
_cell_volume   94.52934766
_cell_formula_units_Z   1
loop_
 _symmetry_equiv_pos_site_id
 _symmetry_equiv_pos_as_xyz
  1  'x, y, z'
loop_
 _atom_site_type_symbol
 _atom_site_label
 _atom_site_symmetry_multiplicity
 _atom_site_fract_x
 _atom_site_fract_y
 _atom_site_fract_z
 _atom_site_occupancy
  Dy  Dy0  1  0.00000000  0.00000000  0.00000000  1
  Np  Np0  1  0.75000000  0.25000000  0.50000000  1
  Np  Np1  1  0.25000000  0.75000000  0.50000000  1
  Np  Np2  1  0.50000000  0.50000000  0.00000000  1
loop_
_geom_bond_atom_site_label_1
_geom_bond_atom_site_label_2
_geom_bond_distance
_geom_bond_site_symmetry_2
Dy0 Np2 3.206606 1_545
Dy0 Np2 3.206606 1_444
Dy0 Np2 3.206606 1_455
Dy0 Np2 3.206606 1_556
Dy0 Np0 3.228553 1_444
Dy0 Np0 3.228553 1_454
Dy0 Np1 3.228553 1_545
Dy0 Np0 3.228553 1_455
Dy0 Np1 3.228553 1_555
Dy0 Np1 3.228553 1_544
Dy0 Np1 3.228553 1_444
Dy0 Np0 3.228553 1_555
Np0 Np1 3.206606 1_555
Np0 Np1 3.206606 1_645
Np0 Np1 3.206606 1_656
Np0 Np1 3.206606 1_544
Np0 Np2 3.228553 1_556
Np0 Np2 3.228553 1_555
Np0 Np2 3.228553 1_545
Np0 Np2 3.228553 1_656
Np1 Np2 3.228553 1_566
Np1 Np2 3.228553 1_556
Np1 Np2 3.228553 1_555
Np1 Np2 3.228553 1_455
