# generated using pymatgen
data_Li9Mn7O16
_symmetry_space_group_name_H-M   'P 1'
_cell_length_a   6.51208118
_cell_length_b   6.51208118
_cell_length_c   8.83686884
_cell_angle_alpha   89.47108818
_cell_angle_beta   89.47108818
_cell_angle_gamma   52.43850180
_symmetry_Int_Tables_number   1
_chemical_formula_structural   Li9Mn7O16
_chemical_formula_sum   'Li9 Mn7 O16'
_cell_volume   297.04592384
_cell_formula_units_Z   1
loop_
 _symmetry_equiv_pos_site_id
 _symmetry_equiv_pos_as_xyz
  1  'x, y, z'
loop_
 _atom_site_type_symbol
 _atom_site_label
 _atom_site_symmetry_multiplicity
 _atom_site_fract_x
 _atom_site_fract_y
 _atom_site_fract_z
 _atom_site_occupancy
  Li  Li0  1  0.62190100  0.12993300  0.24229700  1
  Li  Li1  1  0.37809900  0.87006700  0.75770300  1
  Li  Li2  1  0.12993300  0.62190100  0.24229700  1
  Li  Li3  1  0.50000000  0.50000000  0.50000000  1
  Li  Li4  1  0.25252700  0.25252700  0.00101600  1
  Li  Li5  1  0.00000000  0.00000000  0.50000000  1
  Li  Li6  1  0.87006700  0.37809900  0.75770300  1
  Li  Li7  1  0.74747300  0.74747300  0.99898400  1
  Li  Li8  1  0.50000000  0.50000000  0.00000000  1
  Mn  Mn0  1  0.00000000  0.00000000  0.00000000  1
  Mn  Mn1  1  0.62512600  0.12810700  0.75961200  1
  Mn  Mn2  1  0.75010700  0.75010700  0.49993900  1
  Mn  Mn3  1  0.24989300  0.24989300  0.50006100  1
  Mn  Mn4  1  0.37487400  0.87189300  0.24038800  1
  Mn  Mn5  1  0.12810700  0.62512600  0.75961200  1
  Mn  Mn6  1  0.87189300  0.37487400  0.24038800  1
  O  O0  1  0.64352000  0.11978600  0.98802700  1
  O  O1  1  0.38608900  0.88573900  0.49547700  1
  O  O2  1  0.11978600  0.64352000  0.98802700  1
  O  O3  1  0.51164700  0.51164700  0.25529100  1
  O  O4  1  0.26110800  0.26110800  0.75274500  1
  O  O5  1  0.00885000  0.00885000  0.25657400  1
  O  O6  1  0.88573900  0.38608900  0.49547700  1
  O  O7  1  0.76163800  0.76163800  0.75107900  1
  O  O8  1  0.61391100  0.11426100  0.50452300  1
  O  O9  1  0.35648000  0.88021400  0.01197300  1
  O  O10  1  0.11426100  0.61391100  0.50452300  1
  O  O11  1  0.48835300  0.48835300  0.74470900  1
  O  O12  1  0.23836200  0.23836200  0.24892100  1
  O  O13  1  0.99115000  0.99115000  0.74342600  1
  O  O14  1  0.88021400  0.35648000  0.01197300  1
  O  O15  1  0.73889200  0.73889200  0.24725500  1
loop_
_geom_bond_atom_site_label_1
_geom_bond_atom_site_label_2
_geom_bond_distance
_geom_bond_site_symmetry_2
Li0 O3 2.129651 1_555
Li0 O5 2.137479 1_655
Li0 O12 2.141975 1_555
Li0 O15 2.167983 1_545
Li0 O0 2.249118 1_554
Li0 O8 2.320061 1_555
Li1 O11 2.129651 1_555
Li1 O13 2.137479 1_455
Li1 O7 2.141975 1_555
Li1 O4 2.167983 1_565
Li1 O9 2.249118 1_556
Li1 O1 2.320061 1_555
Li2 O3 2.129651 1_555
Li2 O5 2.137479 1_565
Li2 O12 2.141975 1_555
Li2 O15 2.167983 1_455
Li2 O2 2.249118 1_554
Li2 O10 2.320061 1_555
Li3 O8 2.142114 1_555
Li3 O10 2.142114 1_555
Li3 O1 2.142114 1_555
Li3 O6 2.142114 1_555
Li3 O11 2.165341 1_555
Li3 O3 2.165341 1_555
Li4 O14 2.083692 1_455
Li4 O9 2.083692 1_545
Li4 O0 2.134568 1_554
Li4 O2 2.134568 1_554
Li4 O4 2.195197 1_554
Li4 O12 2.195248 1_555
Li5 O8 2.143466 1_455
Li5 O6 2.143466 1_455
Li5 O1 2.143466 1_545
Li5 O10 2.143466 1_545
Li5 O5 2.152544 1_555
Li5 O13 2.152544 1_445
Li6 O11 2.129651 1_555
Li6 O13 2.137479 1_545
Li6 O7 2.141975 1_555
Li6 O4 2.167983 1_655
Li6 O14 2.249118 1_556
Li6 O6 2.320061 1_555
Li7 O2 2.083692 1_655
Li7 O0 2.083692 1_565
Li7 O14 2.134568 1_556
Li7 O9 2.134568 1_556
Li7 O15 2.195197 1_556
Li7 O7 2.195248 1_555
Li8 O0 2.048612 1_554
Li8 O9 2.048612 1_555
Li8 O14 2.048612 1_555
Li8 O2 2.048612 1_554
Li8 O3 2.261471 1_555
Li8 O11 2.261471 1_554
Mn0 O2 1.950356 1_544
Mn0 O9 1.950356 1_545
Mn0 O0 1.950356 1_454
Mn0 O14 1.950356 1_455
Mn0 O13 2.270730 1_444
Mn0 O5 2.270730 1_555
Mn1 O11 1.939857 1_555
Mn1 O4 1.967645 1_555
Mn1 O13 1.975224 1_545
Mn1 O7 1.976538 1_545
Mn1 O0 2.021398 1_555
Mn1 O8 2.260453 1_555
Mn2 O8 1.961783 1_565
Mn2 O10 1.961783 1_655
Mn2 O6 1.961976 1_555
Mn2 O1 1.961976 1_555
Mn2 O7 2.224760 1_555
Mn2 O15 2.238123 1_555
Mn3 O1 1.961783 1_545
Mn3 O6 1.961783 1_455
Mn3 O10 1.961976 1_555
Mn3 O8 1.961976 1_555
Mn3 O12 2.224760 1_555
Mn3 O4 2.238123 1_555
Mn4 O3 1.939857 1_555
Mn4 O15 1.967645 1_555
Mn4 O5 1.975224 1_565
Mn4 O12 1.976538 1_565
Mn4 O9 2.021398 1_555
Mn4 O1 2.260453 1_555
Mn5 O11 1.939857 1_555
Mn5 O4 1.967645 1_555
Mn5 O13 1.975224 1_455
Mn5 O7 1.976538 1_455
Mn5 O2 2.021398 1_555
Mn5 O10 2.260453 1_555
Mn6 O3 1.939857 1_555
Mn6 O15 1.967645 1_555
Mn6 O5 1.975224 1_655
Mn6 O12 1.976538 1_655
Mn6 O14 2.021398 1_555
Mn6 O6 2.260453 1_555
