# generated using pymatgen
data_Ba2LiTmCu3O7
_symmetry_space_group_name_H-M   'P 1'
_cell_length_a   3.86216450
_cell_length_b   4.11474227
_cell_length_c   11.77966000
_cell_angle_alpha   90.00000000
_cell_angle_beta   90.00000000
_cell_angle_gamma   91.71231979
_symmetry_Int_Tables_number   1
_chemical_formula_structural   Ba2LiTmCu3O7
_chemical_formula_sum   'Ba2 Li1 Tm1 Cu3 O7'
_cell_volume   187.11654357
_cell_formula_units_Z   1
loop_
 _symmetry_equiv_pos_site_id
 _symmetry_equiv_pos_as_xyz
  1  'x, y, z'
loop_
 _atom_site_type_symbol
 _atom_site_label
 _atom_site_symmetry_multiplicity
 _atom_site_fract_x
 _atom_site_fract_y
 _atom_site_fract_z
 _atom_site_occupancy
  Ba  Ba0  1  0.51134400  0.48372100  0.17658400  1
  Ba  Ba1  1  0.51134400  0.48372100  0.82341600  1
  Li  Li0  1  0.84825100  0.17139300  0.50000000  1
  Tm  Tm0  1  0.43339400  0.59583600  0.50000000  1
  Cu  Cu0  1  0.00927200  0.98344700  0.66655700  1
  Cu  Cu1  1  0.00927200  0.98344700  0.33344300  1
  Cu  Cu2  1  0.00872700  0.98717800  0.00000000  1
  O  O0  1  0.50623800  0.01045600  0.38134600  1
  O  O1  1  0.00863200  0.98707600  0.84052700  1
  O  O2  1  0.50623800  0.01045600  0.61865400  1
  O  O3  1  0.98447100  0.49760900  0.38195500  1
  O  O4  1  0.98447100  0.49760900  0.61804500  1
  O  O5  1  0.00863200  0.98707600  0.15947300  1
  O  O6  1  0.00899900  0.48764300  0.00000000  1
loop_
_geom_bond_atom_site_label_1
_geom_bond_atom_site_label_2
_geom_bond_distance
_geom_bond_site_symmetry_2
Ba0 O5 2.783759 1_545
Ba0 O5 2.789517 1_655
Ba0 O6 2.831855 1_655
Ba0 O6 2.844835 1_555
Ba0 O5 2.853084 1_645
Ba0 O5 2.887968 1_555
Ba0 O3 3.031264 1_555
Ba0 O0 3.099708 1_555
Ba0 O3 3.162822 1_455
Ba0 O0 3.243200 1_565
Ba1 O1 2.783759 1_545
Ba1 O1 2.789517 1_655
Ba1 O6 2.831855 1_656
Ba1 O6 2.844835 1_556
Ba1 O1 2.853084 1_645
Ba1 O1 2.887968 1_555
Ba1 O4 3.031264 1_555
Ba1 O2 3.099708 1_555
Ba1 O4 3.162822 1_455
Ba1 O2 3.243200 1_565
Li0 O4 1.992464 1_555
Li0 O3 1.992464 1_555
Li0 O0 2.021047 1_555
Li0 O2 2.021047 1_555
Cu0 O2 2.000494 1_565
Cu0 O2 2.029320 1_465
Cu0 O1 2.049364 1_555
Cu0 O4 2.078626 1_455
Cu0 O4 2.196314 1_465
Cu0 Li0 2.205208 1_465
Cu1 O0 2.000494 1_565
Cu1 O0 2.029320 1_465
Cu1 O5 2.049364 1_555
Cu1 O3 2.078626 1_455
Cu1 O3 2.196314 1_465
Cu1 Li0 2.205208 1_465
Cu2 O1 1.878538 1_554
Cu2 O5 1.878538 1_555
Cu2 O6 2.055489 1_555
Cu2 O6 2.059253 1_565
O0 Tm0 2.216904 1_545
O2 Tm0 2.216904 1_545
O3 Tm0 2.249704 1_655
O3 Tm0 2.584225 1_555
O4 Tm0 2.249704 1_655
O4 Tm0 2.584225 1_555
