# generated using pymatgen
data_Ba5Lu8Ni4O21
_symmetry_space_group_name_H-M   'P 1'
_cell_length_a   10.02898497
_cell_length_b   10.02898497
_cell_length_c   10.02898497
_cell_angle_alpha   94.56017871
_cell_angle_beta   94.56017871
_cell_angle_gamma   147.24456973
_symmetry_Int_Tables_number   1
_chemical_formula_structural   Ba5Lu8Ni4O21
_chemical_formula_sum   'Ba5 Lu8 Ni4 O21'
_cell_volume   523.62713839
_cell_formula_units_Z   1
loop_
 _symmetry_equiv_pos_site_id
 _symmetry_equiv_pos_as_xyz
  1  'x, y, z'
loop_
 _atom_site_type_symbol
 _atom_site_label
 _atom_site_symmetry_multiplicity
 _atom_site_fract_x
 _atom_site_fract_y
 _atom_site_fract_z
 _atom_site_occupancy
  Ba  Ba0  1  0.13939200  0.53808500  0.67747700  1
  Ba  Ba1  1  0.86060800  0.46191500  0.32252300  1
  Ba  Ba2  1  0.53808500  0.86060800  0.39869300  1
  Ba  Ba3  1  0.46191500  0.13939200  0.60130700  1
  Ba  Ba4  1  0.00000000  0.00000000  0.00000000  1
  Lu  Lu0  1  0.41108500  0.64194700  0.05303200  1
  Lu  Lu1  1  0.58891500  0.35805300  0.94696800  1
  Lu  Lu2  1  0.64194700  0.58891500  0.23086100  1
  Lu  Lu3  1  0.35805300  0.41108500  0.76913900  1
  Lu  Lu4  1  0.25019800  0.83243000  0.08262800  1
  Lu  Lu5  1  0.74980200  0.16757000  0.91737200  1
  Lu  Lu6  1  0.83243000  0.74980200  0.58223200  1
  Lu  Lu7  1  0.16757000  0.25019800  0.41776800  1
  Ni  Ni0  1  0.04092000  0.75627300  0.79719300  1
  Ni  Ni1  1  0.95908000  0.24372700  0.20280700  1
  Ni  Ni2  1  0.75627300  0.95908000  0.71535400  1
  Ni  Ni3  1  0.24372700  0.04092000  0.28464600  1
  O  O0  1  0.92628800  0.69991700  0.12895000  1
  O  O1  1  0.07371200  0.30008300  0.87105000  1
  O  O2  1  0.57096600  0.79733800  0.87105000  1
  O  O3  1  0.69991700  0.57096600  0.77362800  1
  O  O4  1  0.42903400  0.20266200  0.12895000  1
  O  O5  1  0.30008300  0.42903400  0.22637200  1
  O  O6  1  0.79733800  0.92628800  0.22637200  1
  O  O7  1  0.20266200  0.07371200  0.77362800  1
  O  O8  1  0.89965200  0.49460400  0.89157600  1
  O  O9  1  0.10034800  0.50539600  0.10842400  1
  O  O10  1  0.60302800  0.00807600  0.10842400  1
  O  O11  1  0.49460400  0.60302800  0.59495200  1
  O  O12  1  0.39697200  0.99192400  0.89157600  1
  O  O13  1  0.50539600  0.39697200  0.40504800  1
  O  O14  1  0.00807600  0.89965200  0.40504800  1
  O  O15  1  0.99192400  0.10034800  0.59495200  1
  O  O16  1  0.50000000  0.50000000  0.00000000  1
  O  O17  1  0.36720900  0.95990000  0.32710900  1
  O  O18  1  0.63279100  0.04010000  0.67289100  1
  O  O19  1  0.95990000  0.63279100  0.59269200  1
  O  O20  1  0.04010000  0.36720900  0.40730800  1
loop_
_geom_bond_atom_site_label_1
_geom_bond_atom_site_label_2
_geom_bond_distance
_geom_bond_site_symmetry_2
Ba0 O20 2.689281 1_555
Ba0 O19 2.761595 1_455
Ba0 O18 2.829415 1_565
Ba0 O18 2.829415 1_455
Ba0 O2 2.862811 1_555
Ba0 O1 2.862818 1_555
Ba0 O12 3.128548 1_555
Ba0 O8 3.128548 1_455
Ba0 O11 3.232949 1_555
Ba0 O15 3.232949 1_455
Ba1 O19 2.689281 1_555
Ba1 O20 2.761595 1_655
Ba1 O17 2.829415 1_655
Ba1 O17 2.829415 1_545
Ba1 O4 2.862811 1_555
Ba1 O0 2.862818 1_555
Ba1 O10 3.128548 1_555
Ba1 O9 3.128548 1_655
Ba1 O14 3.232949 1_655
Ba1 O13 3.232949 1_555
Ba2 O17 2.689272 1_555
Ba2 O18 2.761598 1_565
Ba2 O20 2.829412 1_555
Ba2 O20 2.829418 1_665
Ba2 O5 2.862806 1_555
Ba2 O6 2.862811 1_555
Ba2 O11 3.128548 1_555
Ba2 O15 3.128548 1_565
Ba2 O10 3.232949 1_565
Ba2 O9 3.232949 1_555
Ba3 O18 2.689272 1_555
Ba3 O17 2.761598 1_545
Ba3 O19 2.829412 1_555
Ba3 O19 2.829418 1_445
Ba3 O3 2.862806 1_555
Ba3 O7 2.862811 1_555
Ba3 O14 3.128548 1_545
Ba3 O13 3.128548 1_555
Ba3 O12 3.232949 1_545
Ba3 O8 3.232949 1_555
Ba4 O16 2.827856 1_445
Ba4 O16 2.827856 1_555
Ba4 O0 2.881847 1_445
Ba4 O1 2.881847 1_554
Ba4 O4 2.881856 1_555
Ba4 O2 2.881856 1_444
Ba4 O7 2.881856 1_554
Ba4 O6 2.881856 1_445
Ba4 O3 2.881859 1_444
Ba4 O5 2.881859 1_555
Lu0 O2 2.246174 1_554
Lu0 O1 2.246176 1_554
Lu0 O10 2.261375 1_565
Lu0 O9 2.261375 1_555
Lu0 O16 2.279220 1_555
Lu0 O5 2.391799 1_555
Lu0 O6 2.391802 1_555
Lu1 O4 2.246174 1_556
Lu1 O0 2.246176 1_556
Lu1 O12 2.261375 1_545
Lu1 O8 2.261375 1_555
Lu1 O16 2.279220 1_556
Lu1 O3 2.391799 1_555
Lu1 O7 2.391802 1_555
Lu2 O6 2.246172 1_555
Lu2 O5 2.246185 1_555
Lu2 O14 2.261380 1_655
Lu2 O13 2.261384 1_555
Lu2 O16 2.279211 1_555
Lu2 O0 2.391791 1_555
Lu2 O4 2.391799 1_555
Lu3 O7 2.246172 1_555
Lu3 O3 2.246185 1_555
Lu3 O15 2.261380 1_455
Lu3 O11 2.261384 1_555
Lu3 O16 2.279211 1_556
Lu3 O1 2.391791 1_555
Lu3 O2 2.391799 1_555
Lu4 O10 2.233580 1_565
Lu4 O9 2.233580 1_555
Lu4 O12 2.317798 1_554
Lu4 O8 2.317798 1_454
Lu4 O17 2.354559 1_555
Lu4 O4 2.368848 1_565
Lu4 O0 2.368854 1_455
Lu5 O8 2.233580 1_555
Lu5 O12 2.233580 1_545
Lu5 O9 2.317798 1_656
Lu5 O10 2.317798 1_556
Lu5 O18 2.354559 1_555
Lu5 O2 2.368848 1_545
Lu5 O1 2.368854 1_655
Lu6 O13 2.233580 1_555
Lu6 O14 2.233580 1_655
Lu6 O11 2.317798 1_555
Lu6 O15 2.317798 1_565
Lu6 O19 2.354560 1_555
Lu6 O7 2.368848 1_665
Lu6 O3 2.368848 1_555
Lu7 O15 2.233580 1_455
Lu7 O11 2.233580 1_555
Lu7 O14 2.317798 1_545
Lu7 O13 2.317798 1_555
Lu7 O20 2.354560 1_555
Lu7 O6 2.368848 1_445
Lu7 O5 2.368848 1_555
Ni0 O19 2.009688 1_455
Ni0 O8 2.035854 1_455
Ni0 O12 2.035854 1_555
Ni0 O3 2.077730 1_455
Ni0 O7 2.077739 1_565
Ni1 O20 2.009688 1_655
Ni1 O9 2.035854 1_655
Ni1 O10 2.035854 1_555
Ni1 O5 2.077730 1_655
Ni1 O6 2.077739 1_545
Ni2 O18 2.009699 1_565
Ni2 O11 2.035857 1_555
Ni2 O15 2.035861 1_565
Ni2 O2 2.077730 1_555
Ni2 O1 2.077731 1_665
Ni3 O17 2.009699 1_545
Ni3 O13 2.035857 1_555
Ni3 O14 2.035861 1_545
Ni3 O4 2.077730 1_555
Ni3 O0 2.077731 1_445
