# generated using pymatgen
data_La6Sm2V5Cr3O20
_symmetry_space_group_name_H-M   'P 1'
_cell_length_a   10.98720710
_cell_length_b   11.32671180
_cell_length_c   17.87628312
_cell_angle_alpha   108.32319716
_cell_angle_beta   107.88112501
_cell_angle_gamma   89.78725461
_symmetry_Int_Tables_number   1
_chemical_formula_structural   La6Sm2V5Cr3O20
_chemical_formula_sum   'La24 Sm8 V20 Cr12 O80'
_cell_volume   1999.24094410
_cell_formula_units_Z   4
loop_
 _symmetry_equiv_pos_site_id
 _symmetry_equiv_pos_as_xyz
  1  'x, y, z'
loop_
 _atom_site_type_symbol
 _atom_site_label
 _atom_site_symmetry_multiplicity
 _atom_site_fract_x
 _atom_site_fract_y
 _atom_site_fract_z
 _atom_site_occupancy
  La  La0  1  0.31005051  0.06220388  0.62022036  1
  La  La1  1  0.31169421  0.55884711  0.62395261  1
  La  La2  1  0.80839968  0.05960588  0.61761109  1
  La  La3  1  0.81222940  0.56101982  0.62213007  1
  La  La4  1  0.19551753  0.43565737  0.38394912  1
  La  La5  1  0.18531707  0.44170841  0.87589937  1
  La  La6  1  0.19368544  0.94050869  0.37929585  1
  La  La7  1  0.69509367  0.43653961  0.38078174  1
  La  La8  1  0.69359719  0.93885607  0.37822139  1
  La  La9  1  0.69085864  0.94060266  0.87846924  1
  La  La10  1  0.06210194  0.31165066  0.12213518  1
  La  La11  1  0.06902957  0.30971028  0.61797778  1
  La  La12  1  0.06454443  0.81505770  0.62415979  1
  La  La13  1  0.56345205  0.31170828  0.12105964  1
  La  La14  1  0.56006866  0.31392404  0.62463259  1
  La  La15  1  0.56227964  0.81207981  0.12088852  1
  La  La16  1  0.56122937  0.81406965  0.62486194  1
  La  La17  1  0.44995819  0.19259937  0.38630070  1
  La  La18  1  0.42831496  0.18365195  0.87651017  1
  La  La19  1  0.44893778  0.69379680  0.38615278  1
  La  La20  1  0.43607463  0.68374888  0.87661209  1
  La  La21  1  0.92625410  0.18274812  0.37460317  1
  La  La22  1  0.94486575  0.18629222  0.87920240  1
  La  La23  1  0.93254504  0.68543301  0.37461438  1
  Sm  Sm0  1  0.30149878  0.05949459  0.10843566  1
  Sm  Sm1  1  0.30370800  0.55710707  0.11002576  1
  Sm  Sm2  1  0.80088386  0.05971025  0.11797086  1
  Sm  Sm3  1  0.80412424  0.55900015  0.12000248  1
  Sm  Sm4  1  0.18894555  0.93774045  0.87949455  1
  Sm  Sm5  1  0.69021296  0.43975781  0.88132403  1
  Sm  Sm6  1  0.05816057  0.80780844  0.11876117  1
  Sm  Sm7  1  0.93736097  0.69295042  0.88206518  1
  V  V0  1  0.00144115  0.99647481  0.49695197  1
  V  V1  1  0.25370644  0.25027069  0.00206356  1
  V  V2  1  0.25079541  0.24880486  0.49609073  1
  V  V3  1  0.75333443  0.25047942  0.50346662  1
  V  V4  1  0.10761226  0.11581068  0.24743128  1
  V  V5  1  0.11688692  0.13236629  0.74969585  1
  V  V6  1  0.11074605  0.61865033  0.24992246  1
  V  V7  1  0.11615062  0.63442136  0.75174946  1
  V  V8  1  0.60699359  0.13403337  0.24648972  1
  V  V9  1  0.61541344  0.13155807  0.75227408  1
  V  V10  1  0.61115089  0.63432231  0.24836125  1
  V  V11  1  0.62310908  0.62953322  0.75250699  1
  V  V12  1  0.37980607  0.38943376  0.25192081  1
  V  V13  1  0.36940761  0.36796309  0.75272297  1
  V  V14  1  0.37423981  0.88637384  0.24761567  1
  V  V15  1  0.36604934  0.86753642  0.75043554  1
  V  V16  1  0.86429642  0.36775587  0.24871178  1
  V  V17  1  0.87390559  0.37613088  0.75385133  1
  V  V18  1  0.86274934  0.86769272  0.24510138  1
  V  V19  1  0.87052353  0.87139985  0.75114313  1
  Cr  Cr0  1  0.00352992  0.99850275  0.00161073  1
  Cr  Cr1  1  0.00212770  0.50275764  0.00188008  1
  Cr  Cr2  1  0.00187466  0.50300681  0.50028966  1
  Cr  Cr3  1  0.50315139  0.99677658  0.99857488  1
  Cr  Cr4  1  0.50186736  0.99666943  0.49995408  1
  Cr  Cr5  1  0.50612239  0.50040068  0.00077224  1
  Cr  Cr6  1  0.50377329  0.50260039  0.50277160  1
  Cr  Cr7  1  0.25222459  0.75059658  0.00150323  1
  Cr  Cr8  1  0.25107573  0.74810969  0.49823456  1
  Cr  Cr9  1  0.75350051  0.25121403  0.99972781  1
  Cr  Cr10  1  0.75546574  0.74908598  0.00000320  1
  Cr  Cr11  1  0.75334396  0.74847179  0.50062941  1
  O  O0  1  0.10562557  0.10724897  0.46698440  1
  O  O1  1  0.11470581  0.10027007  0.97100199  1
  O  O2  1  0.11025866  0.61337631  0.46937906  1
  O  O3  1  0.11063724  0.61644990  0.97385917  1
  O  O4  1  0.61425297  0.10297385  0.47447601  1
  O  O5  1  0.61144030  0.11387645  0.97129520  1
  O  O6  1  0.61798182  0.61122532  0.47620671  1
  O  O7  1  0.61553765  0.61076770  0.97004510  1
  O  O8  1  0.13842246  0.39405954  0.02954906  1
  O  O9  1  0.13995846  0.39586374  0.52473149  1
  O  O10  1  0.13825648  0.88331132  0.02794170  1
  O  O11  1  0.14016514  0.88549535  0.52168742  1
  O  O12  1  0.64406774  0.38927950  0.02714639  1
  O  O13  1  0.63750013  0.39213592  0.53088561  1
  O  O14  1  0.64365684  0.88635516  0.02689496  1
  O  O15  1  0.63624519  0.88027902  0.52357915  1
  O  O16  1  0.36672904  0.10508033  0.47645530  1
  O  O17  1  0.35952368  0.09704635  0.97235627  1
  O  O18  1  0.36512930  0.61259664  0.47526163  1
  O  O19  1  0.36372138  0.61022976  0.97810874  1
  O  O20  1  0.86405093  0.10509815  0.47665645  1
  O  O21  1  0.86689655  0.11231965  0.97694547  1
  O  O22  1  0.86336907  0.61239470  0.47302673  1
  O  O23  1  0.86259171  0.60873514  0.96989820  1
  O  O24  1  0.39613595  0.39848715  0.03254484  1
  O  O25  1  0.39217008  0.39532932  0.52817434  1
  O  O26  1  0.39005112  0.89007745  0.02871407  1
  O  O27  1  0.38947154  0.88511011  0.52533565  1
  O  O28  1  0.88848160  0.39653291  0.03005764  1
  O  O29  1  0.89302287  0.39651476  0.52978499  1
  O  O30  1  0.89280960  0.89292007  0.03285357  1
  O  O31  1  0.88958236  0.88577923  0.52540177  1
  O  O32  1  0.08642024  0.10353063  0.12451075  1
  O  O33  1  0.07072566  0.10195219  0.62278346  1
  O  O34  1  0.07928057  0.60796417  0.12565596  1
  O  O35  1  0.06527430  0.60841745  0.62375160  1
  O  O36  1  0.57705082  0.10123561  0.12002355  1
  O  O37  1  0.57091168  0.10119895  0.62367261  1
  O  O38  1  0.58412640  0.60545328  0.12259606  1
  O  O39  1  0.56745065  0.60720066  0.62548238  1
  O  O40  1  0.44305855  0.39893444  0.37734204  1
  O  O41  1  0.45356511  0.39479545  0.87948095  1
  O  O42  1  0.43439683  0.89563886  0.37238266  1
  O  O43  1  0.44783612  0.89106478  0.87710894  1
  O  O44  1  0.93787422  0.39388919  0.37724459  1
  O  O45  1  0.94558651  0.39491299  0.87600218  1
  O  O46  1  0.93330419  0.89128817  0.37143577  1
  O  O47  1  0.94619056  0.89302324  0.87858928  1
  O  O48  1  0.31889679  0.27004909  0.13139144  1
  O  O49  1  0.31054299  0.27191760  0.62528374  1
  O  O50  1  0.31394292  0.76695347  0.12489905  1
  O  O51  1  0.31047919  0.76833677  0.62202701  1
  O  O52  1  0.81549093  0.26383158  0.12170992  1
  O  O53  1  0.81530492  0.27896834  0.63526983  1
  O  O54  1  0.82675237  0.76034024  0.12070396  1
  O  O55  1  0.81678069  0.76971272  0.62350938  1
  O  O56  1  0.21189045  0.21853546  0.36526421  1
  O  O57  1  0.19439839  0.23520370  0.87512646  1
  O  O58  1  0.20208765  0.72648311  0.37207975  1
  O  O59  1  0.19997468  0.73432178  0.87934371  1
  O  O60  1  0.69155702  0.22454034  0.37408619  1
  O  O61  1  0.70674593  0.23573899  0.87764547  1
  O  O62  1  0.69064667  0.72874178  0.37690857  1
  O  O63  1  0.70979226  0.73358476  0.87818388  1
  O  O64  1  0.41915857  0.06522674  0.24179330  1
  O  O65  1  0.44572438  0.03938711  0.74918195  1
  O  O66  1  0.42148722  0.56877980  0.24358304  1
  O  O67  1  0.45331861  0.53846764  0.75152469  1
  O  O68  1  0.93081649  0.04092545  0.24052853  1
  O  O69  1  0.94308699  0.04521297  0.74738904  1
  O  O70  1  0.93628386  0.53774820  0.24169048  1
  O  O71  1  0.95117932  0.54552930  0.76069506  1
  O  O72  1  0.19431951  0.44799282  0.25281878  1
  O  O73  1  0.19958649  0.46228012  0.74916670  1
  O  O74  1  0.18603079  0.94004077  0.24421779  1
  O  O75  1  0.19890972  0.96138615  0.75763126  1
  O  O76  1  0.69133297  0.46032590  0.25072594  1
  O  O77  1  0.70357485  0.45658298  0.75706761  1
  O  O78  1  0.68987411  0.96019984  0.24847927  1
  O  O79  1  0.69916100  0.96014101  0.75199241  1
loop_
_geom_bond_atom_site_label_1
_geom_bond_atom_site_label_2
_geom_bond_distance
_geom_bond_site_symmetry_2
La0 O49 2.348446 1_555
La0 O65 2.421772 1_555
La0 O11 2.526819 1_545
La0 O27 2.533530 1_545
La0 O33 2.677938 1_555
La0 O37 2.880499 1_555
La1 O51 2.383803 1_555
La1 O67 2.413402 1_555
La1 O9 2.454839 1_555
La1 O25 2.463189 1_555
La1 O35 2.762180 1_555
La1 O39 2.855154 1_555
La2 O69 2.392992 1_555
La2 O53 2.402593 1_555
La2 O31 2.497694 1_545
La2 O15 2.541323 1_545
La2 O37 2.678562 1_555
La2 O33 2.892159 1_655
La2 O20 2.958601 1_555
La2 O4 2.961310 1_555
La3 O55 2.356725 1_555
La3 O29 2.436923 1_555
La3 O13 2.479478 1_555
La3 O71 2.538940 1_555
La3 O39 2.753012 1_555
La3 O35 2.823242 1_655
La4 O72 2.387797 1_555
La4 O56 2.389373 1_555
La4 O2 2.488661 1_555
La4 O18 2.501347 1_555
La4 O40 2.782475 1_555
La4 O44 2.831511 1_455
La4 O9 2.927126 1_555
La4 O25 2.972638 1_555
La5 O57 2.336654 1_555
La5 O73 2.400355 1_555
La5 O3 2.519580 1_555
La5 O19 2.541601 1_555
La5 O45 2.689366 1_455
La5 O41 2.977733 1_555
La6 O74 2.388534 1_555
La6 O58 2.389763 1_555
La6 O0 2.452868 1_565
La6 O16 2.463533 1_565
La6 O42 2.723873 1_555
La6 O46 2.868943 1_455
La7 O60 2.366218 1_555
La7 O76 2.411283 1_555
La7 O22 2.488972 1_555
La7 O6 2.509091 1_555
La7 O44 2.725367 1_555
La7 O40 2.782300 1_555
La8 O62 2.372874 1_555
La8 O78 2.394476 1_555
La8 O20 2.463445 1_565
La8 O4 2.464602 1_565
La8 O46 2.717718 1_555
La8 O42 2.855989 1_555
La9 O63 2.351818 1_555
La9 O79 2.368655 1_555
La9 O5 2.489098 1_565
La9 O21 2.531240 1_565
La9 O43 2.721717 1_555
La9 O47 2.854194 1_555
La10 O72 2.370028 1_555
La10 O32 2.383575 1_555
La10 O8 2.478555 1_555
La10 O28 2.515126 1_455
La10 O52 2.762396 1_455
La10 O48 2.821791 1_555
La11 O33 2.381418 1_555
La11 O73 2.438914 1_555
La11 O9 2.482787 1_555
La11 O29 2.506032 1_455
La11 O49 2.656231 1_555
La11 O53 2.931259 1_455
La12 O35 2.338262 1_555
La12 O75 2.447046 1_555
La12 O31 2.499497 1_455
La12 O11 2.557520 1_555
La12 O51 2.760978 1_555
La12 O55 2.767971 1_455
La13 O36 2.382696 1_555
La13 O76 2.396867 1_555
La13 O24 2.455104 1_555
La13 O12 2.494260 1_555
La13 O48 2.800997 1_555
La13 O52 2.817045 1_555
La14 O37 2.406904 1_555
La14 O77 2.454231 1_555
La14 O13 2.476209 1_555
La14 O25 2.502035 1_555
La14 O53 2.787263 1_555
La14 O49 2.788476 1_555
La15 O38 2.360564 1_555
La15 O78 2.372813 1_555
La15 O26 2.462620 1_555
La15 O14 2.479398 1_555
La15 O50 2.804421 1_555
La15 O54 2.962980 1_555
La16 O39 2.347299 1_555
La16 O79 2.395489 1_555
La16 O27 2.490225 1_555
La16 O15 2.508897 1_555
La16 O51 2.787385 1_555
La16 O55 2.856624 1_555
La17 O40 2.391648 1_555
La17 O64 2.447989 1_555
La17 O4 2.453333 1_555
La17 O16 2.516449 1_555
La17 O56 2.555252 1_555
La17 O60 2.763629 1_555
La18 O41 2.390685 1_555
La18 O65 2.411238 1_555
La18 O5 2.506101 1_555
La18 O17 2.515296 1_555
La18 O57 2.627893 1_555
La19 O42 2.374835 1_555
La19 O66 2.419416 1_555
La19 O6 2.452259 1_555
La19 O18 2.461598 1_555
La19 O58 2.681130 1_555
La19 O62 2.748668 1_555
La19 O15 2.897759 1_555
La19 O27 2.985111 1_555
La20 O43 2.349317 1_555
La20 O67 2.384986 1_555
La20 O7 2.488893 1_555
La20 O19 2.541262 1_555
La20 O59 2.666257 1_555
La21 O44 2.380237 1_555
La21 O68 2.445370 1_555
La21 O0 2.493863 1_655
La21 O20 2.519486 1_555
La21 O60 2.617772 1_555
La22 O45 2.381692 1_555
La22 O69 2.389699 1_555
La22 O1 2.497177 1_655
La22 O21 2.516723 1_555
La22 O61 2.667121 1_555
La22 O57 2.826358 1_655
La23 O46 2.350252 1_555
La23 O70 2.450792 1_555
La23 O22 2.469390 1_555
La23 O2 2.484895 1_655
La23 O62 2.711228 1_555
La23 O58 3.015745 1_655
Cr0 O1 1.984350 1_564
Cr0 O21 2.011612 1_464
Cr0 O10 2.014703 1_555
Cr0 O30 2.017422 1_455
Cr0 O47 2.040444 1_454
Cr0 O32 2.051207 1_565
Cr1 O8 1.979226 1_555
Cr1 O23 1.999444 1_454
Cr1 O28 2.009712 1_455
Cr1 O3 2.028380 1_554
Cr1 O34 2.057253 1_555
Cr1 O45 2.088185 1_454
Cr2 O9 1.969287 1_555
Cr2 O29 1.990261 1_455
Cr2 O22 1.999680 1_455
Cr2 O2 2.033641 1_555
Cr2 O35 2.046226 1_555
Cr2 O44 2.051230 1_455
Cr3 O17 1.966476 1_565
Cr3 O43 2.019449 1_555
Cr3 O36 2.020436 1_566
Cr3 O14 2.026727 1_556
Cr3 O26 2.031444 1_556
Cr3 O5 2.046300 1_565
Cr4 O16 1.953630 1_565
Cr4 O4 1.970583 1_565
Cr4 O27 2.010902 1_555
Cr4 O15 2.012188 1_555
Cr4 O37 2.049039 1_565
Cr4 O42 2.094531 1_555
Cr5 O24 1.989857 1_555
Cr5 O12 2.005924 1_555
Cr5 O41 2.017685 1_554
Cr5 O19 2.018118 1_554
Cr5 O38 2.031044 1_555
Cr5 O7 2.039134 1_554
Cr6 O25 1.971297 1_555
Cr6 O13 1.976143 1_555
Cr6 O18 2.006412 1_555
Cr6 O6 2.014615 1_555
Cr6 O39 2.033403 1_555
Cr6 O40 2.069584 1_555
Cr7 O10 1.988410 1_555
Cr7 O3 2.011544 1_554
Cr7 O19 2.021253 1_554
Cr7 O26 2.026818 1_555
Cr7 O59 2.027357 1_554
Cr7 O50 2.045822 1_555
Cr8 O11 1.992921 1_555
Cr8 O18 2.000091 1_555
Cr8 O2 2.005316 1_555
Cr8 O27 2.011794 1_555
Cr8 O51 2.042303 1_555
Cr8 O58 2.084175 1_555
Cr9 O12 1.999366 1_556
Cr9 O21 2.021718 1_555
Cr9 O61 2.032017 1_555
Cr9 O52 2.032737 1_556
Cr9 O5 2.036699 1_555
Cr9 O28 2.041064 1_556
Cr10 O14 2.009023 1_555
Cr10 O23 2.009812 1_554
Cr10 O54 2.018740 1_555
Cr10 O7 2.022306 1_554
Cr10 O63 2.028324 1_554
Cr10 O30 2.036844 1_555
Cr11 O22 1.988653 1_555
Cr11 O15 1.994307 1_555
Cr11 O6 2.002712 1_555
Cr11 O31 2.008164 1_555
Cr11 O55 2.024268 1_555
Cr11 O62 2.042241 1_555
O0 V0 1.995360 1_545
O0 V2 2.090545 1_555
O1 V1 2.105407 1_556
O1 Sm4 2.375928 1_545
O1 Sm0 2.841007 1_556
O3 Sm7 2.455880 1_455
O3 Sm1 2.953658 1_556
O3 Sm6 3.019572 1_556
O4 V3 2.093649 1_555
O7 Sm5 2.407529 1_555
O8 V1 2.088551 1_555
O8 Sm1 2.351232 1_555
O9 V2 2.085973 1_555
O10 Sm6 2.428489 1_555
O10 Sm0 2.430233 1_565
O11 V0 2.005040 1_555
O12 Sm3 2.402006 1_555
O13 V3 2.075538 1_555
O14 Sm2 2.403841 1_565
O16 V2 2.072624 1_555
O17 V1 2.104868 1_556
O17 Sm4 2.399032 1_545
O17 Sm0 2.847771 1_556
O19 Sm1 2.864934 1_556
O20 V0 1.963321 1_645
O20 V3 2.065915 1_555
O23 Sm7 2.406173 1_555
O23 Sm5 2.457096 1_555
O23 Sm6 3.087851 1_656
O24 V1 2.117765 1_555
O24 Sm1 2.337350 1_555
O25 V2 2.090385 1_555
O26 Sm0 2.403760 1_565
O28 Sm3 2.423393 1_555
O29 V3 2.097401 1_555
O30 Sm6 2.406841 1_655
O30 Sm2 2.454897 1_565
O31 V0 2.034059 1_655
O32 V4 2.096627 1_555
O32 Sm0 2.496757 1_555
O33 V5 2.079975 1_555
O33 V0 2.081382 1_545
O34 V6 2.104408 1_555
O34 Sm6 2.312310 1_555
O34 Sm1 2.607980 1_555
O35 V7 2.103992 1_555
O36 V8 2.091250 1_555
O36 Sm2 2.511315 1_555
O36 Sm0 2.999401 1_555
O37 V9 2.110988 1_555
O38 V10 2.092395 1_555
O38 Sm3 2.483083 1_555
O38 Sm1 3.058271 1_555
O39 V11 2.093186 1_555
O40 V12 2.100816 1_555
O41 V13 2.089106 1_555
O41 Sm5 2.639628 1_555
O42 V14 2.090575 1_555
O43 V15 2.092610 1_555
O44 V16 2.110454 1_555
O45 V17 2.021569 1_555
O45 Sm5 2.874502 1_555
O46 V0 2.075738 1_655
O46 V18 2.078375 1_555
O47 V19 2.104564 1_555
O47 Sm7 2.289685 1_555
O48 V12 2.051372 1_555
O48 V1 2.137001 1_555
O48 Sm0 2.287468 1_555
O49 V13 2.081792 1_555
O49 V2 2.126815 1_555
O50 V14 2.080723 1_555
O50 Sm1 2.306323 1_555
O50 Sm6 2.820827 1_555
O51 V15 2.104092 1_555
O52 V16 2.098641 1_555
O52 Sm2 2.296667 1_555
O53 V17 1.954371 1_555
O53 V3 2.158151 1_555
O54 V18 2.084087 1_555
O54 Sm3 2.290646 1_555
O54 Sm6 2.613591 1_655
O55 V19 2.099154 1_555
O56 V4 2.022464 1_555
O56 V2 2.157032 1_555
O57 V5 2.074184 1_555
O57 V1 2.110016 1_556
O58 V6 2.062502 1_555
O59 V7 2.103834 1_555
O59 Sm4 2.305998 1_555
O60 V8 2.086230 1_555
O60 V3 2.122844 1_555
O61 V9 2.094565 1_555
O61 Sm5 2.299147 1_555
O62 V10 2.101523 1_555
O63 V11 2.091175 1_555
O63 Sm7 2.524553 1_555
O64 V14 2.128351 1_545
O64 V8 2.176704 1_555
O64 Sm0 2.317191 1_555
O65 V9 2.117518 1_555
O65 V15 2.146588 1_545
O66 V12 2.144232 1_555
O66 V10 2.182491 1_555
O66 Sm1 2.301695 1_555
O67 V11 2.127724 1_555
O67 V13 2.152105 1_555
O68 V4 2.075376 1_655
O68 V18 2.136666 1_545
O68 Sm2 2.292032 1_555
O69 V5 2.136051 1_655
O69 V19 2.154908 1_545
O70 V6 2.071406 1_655
O70 V16 2.138443 1_555
O70 Sm3 2.299002 1_555
O71 V17 2.053787 1_555
O71 V7 2.148846 1_655
O71 Sm7 2.332627 1_555
O72 V12 2.144042 1_555
O72 V6 2.145423 1_555
O73 V13 2.140514 1_555
O73 V7 2.144839 1_555
O74 V14 2.141522 1_555
O74 V4 2.157560 1_565
O74 Sm6 2.283760 1_555
O75 V15 2.136230 1_555
O75 V5 2.159662 1_565
O75 Sm4 2.311480 1_555
O76 V10 2.163009 1_555
O76 V16 2.171549 1_555
O77 V17 2.087229 1_555
O77 V11 2.160805 1_555
O77 Sm5 2.336324 1_555
O78 V8 2.172129 1_565
O78 V18 2.173749 1_555
O79 V19 2.132926 1_555
O79 V9 2.144741 1_565
