# generated using pymatgen
data_Sr2PIO4
_symmetry_space_group_name_H-M   'P 1'
_cell_length_a   9.01982800
_cell_length_b   8.54095400
_cell_length_c   9.22496142
_cell_angle_alpha   67.48799209
_cell_angle_beta   90.00000000
_cell_angle_gamma   90.00000000
_symmetry_Int_Tables_number   1
_chemical_formula_structural   Sr2PIO4
_chemical_formula_sum   'Sr8 P4 I4 O16'
_cell_volume   656.51829239
_cell_formula_units_Z   4
loop_
 _symmetry_equiv_pos_site_id
 _symmetry_equiv_pos_as_xyz
  1  'x, y, z'
loop_
 _atom_site_type_symbol
 _atom_site_label
 _atom_site_symmetry_multiplicity
 _atom_site_fract_x
 _atom_site_fract_y
 _atom_site_fract_z
 _atom_site_occupancy
  Sr  Sr0  1  0.30489800  0.45910600  0.14850600  1
  Sr  Sr1  1  0.80489800  0.04089400  0.85149400  1
  Sr  Sr2  1  0.69510200  0.54089400  0.85149400  1
  Sr  Sr3  1  0.19510200  0.95910600  0.14850600  1
  Sr  Sr4  1  0.32887000  0.95144300  0.75268700  1
  Sr  Sr5  1  0.82887000  0.54855700  0.24731300  1
  Sr  Sr6  1  0.67113000  0.04855700  0.24731300  1
  Sr  Sr7  1  0.17113000  0.45144300  0.75268700  1
  P  P0  1  0.05345100  0.74269200  0.95552200  1
  P  P1  1  0.55345100  0.75730800  0.04447800  1
  P  P2  1  0.94654900  0.25730800  0.04447800  1
  P  P3  1  0.44654900  0.24269200  0.95552200  1
  I  I0  1  0.90383400  0.74362700  0.50666400  1
  I  I1  1  0.40383400  0.75637300  0.49333600  1
  I  I2  1  0.09616600  0.25637300  0.49333600  1
  I  I3  1  0.59616600  0.24362700  0.50666400  1
  O  O0  1  0.08289700  0.66202500  0.13712900  1
  O  O1  1  0.58289700  0.83797500  0.86287100  1
  O  O2  1  0.91710300  0.33797500  0.86287100  1
  O  O3  1  0.41710300  0.16202500  0.13712900  1
  O  O4  1  0.11181200  0.28593100  0.07215000  1
  O  O5  1  0.61181200  0.21406900  0.92785000  1
  O  O6  1  0.88818800  0.71406900  0.92785000  1
  O  O7  1  0.38818800  0.78593100  0.07215000  1
  O  O8  1  0.66501900  0.83092300  0.12962000  1
  O  O9  1  0.16501900  0.66907700  0.87038000  1
  O  O10  1  0.33498100  0.16907700  0.87038000  1
  O  O11  1  0.83498100  0.33092300  0.12962000  1
  O  O12  1  0.41710500  0.43722800  0.89592900  1
  O  O13  1  0.91710500  0.06277200  0.10407100  1
  O  O14  1  0.58289500  0.56277200  0.10407100  1
  O  O15  1  0.08289500  0.93722800  0.89592900  1
loop_
_geom_bond_atom_site_label_1
_geom_bond_atom_site_label_2
_geom_bond_distance
_geom_bond_site_symmetry_2
I0 Sr5 3.465470 1_555
I0 Sr6 3.484408 1_565
I0 Sr2 3.527615 1_555
I0 Sr7 3.585283 1_655
I1 Sr4 3.465470 1_555
I1 Sr7 3.484408 1_555
I1 Sr3 3.527615 1_555
I1 Sr6 3.585283 1_565
I2 Sr7 3.465470 1_555
I2 Sr4 3.484408 1_545
I2 Sr0 3.527615 1_555
I2 Sr5 3.585283 1_455
I3 Sr6 3.465470 1_555
I3 Sr5 3.484408 1_555
I3 Sr1 3.527615 1_555
I3 Sr4 3.585283 1_545
O0 P0 1.571001 1_554
O0 Sr5 2.543228 1_455
O0 Sr0 2.623945 1_555
O0 Sr3 2.770811 1_555
O1 P1 1.571001 1_556
O1 Sr4 2.543228 1_555
O1 Sr1 2.623945 1_565
O1 Sr2 2.770811 1_555
O2 P2 1.571001 1_556
O2 Sr7 2.543228 1_655
O2 Sr2 2.623945 1_555
O2 Sr1 2.770811 1_555
O3 P3 1.571001 1_554
O3 Sr6 2.543228 1_555
O3 Sr3 2.623945 1_545
O3 Sr0 2.770811 1_555
O4 P2 1.547493 1_455
O4 Sr0 2.552410 1_555
O4 Sr3 2.710501 1_545
O4 Sr7 2.789172 1_554
O5 P3 1.547493 1_555
O5 Sr1 2.552410 1_555
O5 Sr2 2.710501 1_555
O5 Sr6 2.789172 1_556
O6 P0 1.547493 1_655
O6 Sr2 2.552410 1_555
O6 Sr1 2.710501 1_565
O6 Sr5 2.789172 1_556
O7 P1 1.547493 1_555
O7 Sr3 2.552410 1_555
O7 Sr0 2.710501 1_555
O7 Sr4 2.789172 1_554
O8 P1 1.550182 1_555
O8 Sr6 2.486432 1_565
O8 Sr5 2.678455 1_555
O8 Sr1 2.804887 1_564
O9 P0 1.550182 1_555
O9 Sr7 2.486432 1_555
O9 Sr4 2.678455 1_555
O9 Sr0 2.804887 1_556
O10 P3 1.550182 1_555
O10 Sr4 2.486432 1_545
O10 Sr7 2.678455 1_555
O10 Sr3 2.804887 1_546
O11 P2 1.550182 1_555
O11 Sr5 2.486432 1_555
O11 Sr6 2.678455 1_555
O11 Sr2 2.804887 1_554
O12 P3 1.560116 1_555
O12 Sr7 2.561330 1_555
O12 Sr0 2.611819 1_556
O12 Sr2 2.638472 1_555
O13 P2 1.560116 1_555
O13 Sr6 2.561330 1_555
O13 Sr1 2.611819 1_554
O13 Sr3 2.638472 1_645
O14 P1 1.560116 1_555
O14 Sr5 2.561330 1_555
O14 Sr2 2.611819 1_554
O14 Sr0 2.638472 1_555
O15 P0 1.560116 1_555
O15 Sr4 2.561330 1_555
O15 Sr3 2.611819 1_556
O15 Sr1 2.638472 1_465
