# generated using pymatgen
data_KGa2NiP3(H2O7)2
_symmetry_space_group_name_H-M   'P 1'
_cell_length_a   8.46607067
_cell_length_b   8.46607067
_cell_length_c   8.89631456
_cell_angle_alpha   76.25126434
_cell_angle_beta   76.25126434
_cell_angle_gamma   74.80014001
_symmetry_Int_Tables_number   1
_chemical_formula_structural   KGa2NiP3(H2O7)2
_chemical_formula_sum   'K2 Ga4 Ni2 P6 H8 O28'
_cell_volume   587.14900518
_cell_formula_units_Z   2
loop_
 _symmetry_equiv_pos_site_id
 _symmetry_equiv_pos_as_xyz
  1  'x, y, z'
loop_
 _atom_site_type_symbol
 _atom_site_label
 _atom_site_symmetry_multiplicity
 _atom_site_fract_x
 _atom_site_fract_y
 _atom_site_fract_z
 _atom_site_occupancy
  K  K0  1  0.36616500  0.63383500  0.25000000  1
  K  K1  1  0.63383500  0.36616500  0.75000000  1
  Ga  Ga0  1  0.09777800  0.24728000  0.43063800  1
  Ga  Ga1  1  0.75272000  0.90222200  0.06936200  1
  Ga  Ga2  1  0.90222200  0.75272000  0.56936200  1
  Ga  Ga3  1  0.24728000  0.09777800  0.93063800  1
  Ni  Ni0  1  0.72780800  0.27219200  0.25000000  1
  Ni  Ni1  1  0.27219200  0.72780800  0.75000000  1
  P  P0  1  0.99819100  0.00180900  0.25000000  1
  P  P1  1  0.00180900  0.99819100  0.75000000  1
  P  P2  1  0.83593800  0.58020200  0.32012300  1
  P  P3  1  0.41979800  0.16406200  0.17987700  1
  P  P4  1  0.16406200  0.41979800  0.67987700  1
  P  P5  1  0.58020200  0.83593800  0.82012300  1
  H  H0  1  0.91338600  0.36315800  0.95242500  1
  H  H1  1  0.63684200  0.08661400  0.54757500  1
  H  H2  1  0.08661400  0.63684200  0.04757500  1
  H  H3  1  0.36315800  0.91338600  0.45242500  1
  H  H4  1  0.77148500  0.51042400  0.01478200  1
  H  H5  1  0.48957600  0.22851500  0.48521800  1
  H  H6  1  0.22851500  0.48957600  0.98521800  1
  H  H7  1  0.51042400  0.77148500  0.51478200  1
  O  O0  1  0.96860300  0.14943400  0.61599900  1
  O  O1  1  0.85056600  0.03139700  0.88400100  1
  O  O2  1  0.03139700  0.85056600  0.38400100  1
  O  O3  1  0.14943400  0.96860300  0.11599900  1
  O  O4  1  0.70134000  0.49556700  0.30998000  1
  O  O5  1  0.50443300  0.29866000  0.19002000  1
  O  O6  1  0.29866000  0.50443300  0.69002000  1
  O  O7  1  0.49556700  0.70134000  0.80998000  1
  O  O8  1  0.97257300  0.17113900  0.30256900  1
  O  O9  1  0.82886100  0.02742700  0.19743100  1
  O  O10  1  0.02742700  0.82886100  0.69743100  1
  O  O11  1  0.17113900  0.97257300  0.80256900  1
  O  O12  1  0.79866800  0.39014800  0.01384700  1
  O  O13  1  0.60985200  0.20133200  0.48615300  1
  O  O14  1  0.20133200  0.60985200  0.98615300  1
  O  O15  1  0.39014800  0.79866800  0.51384700  1
  O  O16  1  0.29700300  0.11607500  0.33848600  1
  O  O17  1  0.88392500  0.70299700  0.16151400  1
  O  O18  1  0.70299700  0.88392500  0.66151400  1
  O  O19  1  0.11607500  0.29700300  0.83848600  1
  O  O20  1  0.23229700  0.32377400  0.54062700  1
  O  O21  1  0.67622600  0.76770300  0.95937300  1
  O  O22  1  0.76770300  0.67622600  0.45937300  1
  O  O23  1  0.32377400  0.23229700  0.04062700  1
  O  O24  1  0.00880500  0.46388900  0.33819900  1
  O  O25  1  0.53611100  0.99119500  0.16180100  1
  O  O26  1  0.99119500  0.53611100  0.66180100  1
  O  O27  1  0.46388900  0.00880500  0.83819900  1
loop_
_geom_bond_atom_site_label_1
_geom_bond_atom_site_label_2
_geom_bond_distance
_geom_bond_site_symmetry_2
K0 O5 2.896219 1_555
K0 O4 2.896219 1_555
K0 O15 3.070890 1_555
K0 O14 3.070890 1_554
K0 O2 3.086618 1_555
K0 O3 3.086618 1_555
K1 O7 2.896219 1_555
K1 O6 2.896219 1_555
K1 O12 3.070890 1_556
K1 O13 3.070890 1_555
K1 O1 3.086618 1_555
K1 O0 3.086618 1_555
Ga0 O24 1.860073 1_555
Ga0 O16 1.882531 1_555
Ga0 O0 1.889444 1_455
Ga0 O20 1.972676 1_555
Ga0 O8 2.029450 1_455
Ga1 O25 1.860073 1_555
Ga1 O17 1.882531 1_555
Ga1 O1 1.889444 1_564
Ga1 O21 1.972676 1_554
Ga1 O9 2.029450 1_565
Ga2 O26 1.860073 1_555
Ga2 O18 1.882531 1_555
Ga2 O2 1.889444 1_655
Ga2 O22 1.972676 1_555
Ga2 O10 2.029450 1_655
Ga3 O27 1.860073 1_555
Ga3 O19 1.882531 1_555
Ga3 O3 1.889444 1_546
Ga3 O23 1.972676 1_556
Ga3 O11 2.029450 1_545
Ni0 O4 2.027768 1_555
Ni0 O5 2.027768 1_555
Ni0 O12 2.118657 1_555
Ni0 O13 2.118657 1_555
Ni0 O8 2.141375 1_555
Ni0 O9 2.141375 1_555
Ni1 O7 2.027768 1_555
Ni1 O6 2.027768 1_555
Ni1 O14 2.118657 1_555
Ni1 O15 2.118657 1_555
Ni1 O10 2.141375 1_555
Ni1 O11 2.141375 1_555
H0 O12 0.992356 1_556
H1 O13 0.992356 1_555
H2 O14 0.992356 1_554
H3 O15 0.992356 1_555
H4 O12 0.984952 1_555
H5 O13 0.984952 1_555
H6 O14 0.984952 1_555
H7 O15 0.984952 1_555
O0 P1 1.544238 1_645
O1 P1 1.544238 1_645
O2 P0 1.544238 1_465
O3 P0 1.544238 1_465
O4 P2 1.525714 1_555
O5 P3 1.525714 1_555
O6 P4 1.525714 1_555
O7 P5 1.525714 1_555
O8 P0 1.558292 1_555
O9 P0 1.558292 1_555
O10 P1 1.558292 1_555
O11 P1 1.558292 1_555
O16 P3 1.577512 1_555
O17 P2 1.577512 1_555
O18 P5 1.577512 1_555
O19 P4 1.577512 1_555
O20 P4 1.556126 1_555
O21 P5 1.556126 1_555
O22 P2 1.556126 1_555
O23 P3 1.556126 1_555
O24 P2 1.555079 1_455
O25 P3 1.555079 1_565
O26 P4 1.555079 1_655
O27 P5 1.555079 1_545
