# generated using pymatgen
data_Ca4TeN4
_symmetry_space_group_name_H-M   'P 1'
_cell_length_a   11.88937600
_cell_length_b   3.61411100
_cell_length_c   16.09592900
_cell_angle_alpha   90.00000000
_cell_angle_beta   90.00000000
_cell_angle_gamma   90.00000000
_symmetry_Int_Tables_number   1
_chemical_formula_structural   Ca4TeN4
_chemical_formula_sum   'Ca16 Te4 N16'
_cell_volume   691.63441688
_cell_formula_units_Z   4
loop_
 _symmetry_equiv_pos_site_id
 _symmetry_equiv_pos_as_xyz
  1  'x, y, z'
loop_
 _atom_site_type_symbol
 _atom_site_label
 _atom_site_symmetry_multiplicity
 _atom_site_fract_x
 _atom_site_fract_y
 _atom_site_fract_z
 _atom_site_occupancy
  Ca  Ca0  1  0.09189300  0.25000000  0.16884000  1
  Ca  Ca1  1  0.59189300  0.25000000  0.33116000  1
  Ca  Ca2  1  0.90810700  0.75000000  0.83116000  1
  Ca  Ca3  1  0.40810700  0.75000000  0.66884000  1
  Ca  Ca4  1  0.87777400  0.25000000  0.04497100  1
  Ca  Ca5  1  0.37777400  0.25000000  0.45502900  1
  Ca  Ca6  1  0.12222600  0.75000000  0.95502900  1
  Ca  Ca7  1  0.62222600  0.75000000  0.54497100  1
  Ca  Ca8  1  0.41146900  0.25000000  0.89103900  1
  Ca  Ca9  1  0.91146900  0.25000000  0.60896100  1
  Ca  Ca10  1  0.58853100  0.75000000  0.10896100  1
  Ca  Ca11  1  0.08853100  0.75000000  0.39103900  1
  Ca  Ca12  1  0.19016800  0.25000000  0.77171600  1
  Ca  Ca13  1  0.69016800  0.25000000  0.72828400  1
  Ca  Ca14  1  0.80983200  0.75000000  0.22828400  1
  Ca  Ca15  1  0.30983200  0.75000000  0.27171600  1
  Te  Te0  1  0.35305800  0.25000000  0.09646700  1
  Te  Te1  1  0.85305800  0.25000000  0.40353300  1
  Te  Te2  1  0.64694200  0.75000000  0.90353300  1
  Te  Te3  1  0.14694200  0.75000000  0.59646700  1
  N  N0  1  0.72481500  0.25000000  0.13267000  1
  N  N1  1  0.22481500  0.25000000  0.36733000  1
  N  N2  1  0.27518500  0.75000000  0.86733000  1
  N  N3  1  0.77518500  0.75000000  0.63267000  1
  N  N4  1  0.04593800  0.25000000  0.85966200  1
  N  N5  1  0.54593800  0.25000000  0.64033800  1
  N  N6  1  0.95406200  0.75000000  0.14033800  1
  N  N7  1  0.45406200  0.75000000  0.35966200  1
  N  N8  1  0.97291600  0.25000000  0.92224500  1
  N  N9  1  0.47291600  0.25000000  0.57775500  1
  N  N10  1  0.02708400  0.75000000  0.07775500  1
  N  N11  1  0.52708400  0.75000000  0.42224500  1
  N  N12  1  0.66624900  0.25000000  0.20530800  1
  N  N13  1  0.16624900  0.25000000  0.29469200  1
  N  N14  1  0.33375100  0.75000000  0.79469200  1
  N  N15  1  0.83375100  0.75000000  0.70530800  1
loop_
_geom_bond_atom_site_label_1
_geom_bond_atom_site_label_2
_geom_bond_distance
_geom_bond_site_symmetry_2
Ca0 N13 2.210208 1_555
Ca0 N10 2.451249 1_545
Ca0 N10 2.451249 1_555
Ca0 N6 2.482204 1_455
Ca0 N6 2.482204 1_445
Ca0 Te0 3.316413 1_555
Ca1 N12 2.210208 1_555
Ca1 N11 2.451249 1_555
Ca1 N11 2.451249 1_545
Ca1 N7 2.482204 1_555
Ca1 N7 2.482204 1_545
Ca1 Te1 3.316413 1_555
Ca2 N15 2.210208 1_555
Ca2 N8 2.451249 1_555
Ca2 N8 2.451249 1_565
Ca2 N4 2.482204 1_655
Ca2 N4 2.482204 1_665
Ca2 Te2 3.316413 1_555
Ca3 N14 2.210208 1_555
Ca3 N9 2.451249 1_565
Ca3 N9 2.451249 1_555
Ca3 N5 2.482204 1_565
Ca3 N5 2.482204 1_555
Ca3 Te3 3.316413 1_555
Ca4 N8 2.276341 1_554
Ca4 N0 2.302143 1_555
Ca4 N6 2.538586 1_545
Ca4 N6 2.538586 1_555
Ca4 N10 2.587518 1_645
Ca4 N10 2.587518 1_655
Ca5 N9 2.276341 1_555
Ca5 N1 2.302143 1_555
Ca5 N7 2.538586 1_545
Ca5 N7 2.538586 1_555
Ca5 N11 2.587518 1_545
Ca5 N11 2.587518 1_555
Ca6 N10 2.276341 1_556
Ca6 N2 2.302143 1_555
Ca6 N4 2.538586 1_565
Ca6 N4 2.538586 1_555
Ca6 N8 2.587518 1_455
Ca6 N8 2.587518 1_465
Ca7 N11 2.276341 1_555
Ca7 N3 2.302143 1_555
Ca7 N5 2.538586 1_565
Ca7 N5 2.538586 1_555
Ca7 N9 2.587518 1_565
Ca7 N9 2.587518 1_555
Ca8 N2 2.456941 1_545
Ca8 N2 2.456941 1_555
Ca8 N14 2.554256 1_555
Ca8 N14 2.554256 1_545
Ca8 Te2 3.338234 1_555
Ca8 Te2 3.338234 1_545
Ca8 Te0 3.378697 1_556
Ca9 N3 2.456941 1_545
Ca9 N3 2.456941 1_555
Ca9 N15 2.554256 1_555
Ca9 N15 2.554256 1_545
Ca9 Te3 3.338234 1_655
Ca9 Te3 3.338234 1_645
Ca9 Te1 3.378697 1_555
Ca10 N0 2.456941 1_555
Ca10 N0 2.456941 1_565
Ca10 N12 2.554256 1_555
Ca10 N12 2.554256 1_565
Ca10 Te0 3.338234 1_555
Ca10 Te0 3.338234 1_565
Ca10 Te2 3.378697 1_554
Ca11 N1 2.456941 1_565
Ca11 N1 2.456941 1_555
Ca11 N13 2.554256 1_555
Ca11 N13 2.554256 1_565
Ca11 Te1 3.338234 1_455
Ca11 Te1 3.338234 1_465
Ca11 Te3 3.378697 1_555
Ca12 N4 2.223601 1_555
Ca12 N14 2.513255 1_555
Ca12 N14 2.513255 1_545
Ca12 N2 2.579859 1_545
Ca12 N2 2.579859 1_555
Ca12 Te3 3.389168 1_545
Ca12 Te3 3.389168 1_555
Ca13 N5 2.223601 1_555
Ca13 N15 2.513255 1_555
Ca13 N15 2.513255 1_545
Ca13 N3 2.579859 1_545
Ca13 N3 2.579859 1_555
Ca13 Te2 3.389168 1_545
Ca13 Te2 3.389168 1_555
Ca14 N6 2.223601 1_555
Ca14 N12 2.513255 1_565
Ca14 N12 2.513255 1_555
Ca14 N0 2.579859 1_555
Ca14 N0 2.579859 1_565
Ca14 Te1 3.389168 1_565
Ca14 Te1 3.389168 1_555
Ca15 N7 2.223601 1_555
Ca15 N13 2.513255 1_565
Ca15 N13 2.513255 1_555
Ca15 N1 2.579859 1_555
Ca15 N1 2.579859 1_565
Ca15 Te0 3.389168 1_555
Ca15 Te0 3.389168 1_565
N0 N12 1.360818 1_555
N1 N13 1.360818 1_555
N4 N8 1.329836 1_455
N5 N9 1.329836 1_555
N10 N6 1.329836 1_455
N11 N7 1.329836 1_555
N14 N2 1.360818 1_555
N15 N3 1.360818 1_555
