# generated using pymatgen
data_Lu6Al43W4
_symmetry_space_group_name_H-M   'P 1'
_cell_length_a   11.03319015
_cell_length_b   11.03319015
_cell_length_c   17.51281400
_cell_angle_alpha   90.00000000
_cell_angle_beta   90.00000000
_cell_angle_gamma   120.00000091
_symmetry_Int_Tables_number   1
_chemical_formula_structural   Lu6Al43W4
_chemical_formula_sum   'Lu12 Al86 W8'
_cell_volume   1846.24260617
_cell_formula_units_Z   2
loop_
 _symmetry_equiv_pos_site_id
 _symmetry_equiv_pos_as_xyz
  1  'x, y, z'
loop_
 _atom_site_type_symbol
 _atom_site_label
 _atom_site_symmetry_multiplicity
 _atom_site_fract_x
 _atom_site_fract_y
 _atom_site_fract_z
 _atom_site_occupancy
  Lu  Lu0  1  0.46837100  0.46837100  0.90457600  1
  Lu  Lu1  1  0.53162900  0.00000000  0.90457600  1
  Lu  Lu2  1  0.00000000  0.53162900  0.90457600  1
  Lu  Lu3  1  0.53162900  0.53162900  0.09542400  1
  Lu  Lu4  1  0.46837100  0.00000000  0.09542400  1
  Lu  Lu5  1  0.00000000  0.46837100  0.09542400  1
  Lu  Lu6  1  0.53162900  0.53162900  0.40457600  1
  Lu  Lu7  1  0.46837100  0.00000000  0.40457600  1
  Lu  Lu8  1  0.00000000  0.46837100  0.40457600  1
  Lu  Lu9  1  0.46837100  0.46837100  0.59542400  1
  Lu  Lu10  1  0.53162900  0.00000000  0.59542400  1
  Lu  Lu11  1  0.00000000  0.53162900  0.59542400  1
  Al  Al0  1  0.84195900  0.23700300  0.83682400  1
  Al  Al1  1  0.76299700  0.60495600  0.83682400  1
  Al  Al2  1  0.39504400  0.15804100  0.83682400  1
  Al  Al3  1  0.23700300  0.84195900  0.83682400  1
  Al  Al4  1  0.60495600  0.76299700  0.83682400  1
  Al  Al5  1  0.15804100  0.39504400  0.83682400  1
  Al  Al6  1  0.15804100  0.76299700  0.16317600  1
  Al  Al7  1  0.23700300  0.39504400  0.16317600  1
  Al  Al8  1  0.60495600  0.84195900  0.16317600  1
  Al  Al9  1  0.76299700  0.15804100  0.16317600  1
  Al  Al10  1  0.39504400  0.23700300  0.16317600  1
  Al  Al11  1  0.84195900  0.60495600  0.16317600  1
  Al  Al12  1  0.15804100  0.76299700  0.33682400  1
  Al  Al13  1  0.23700300  0.39504400  0.33682400  1
  Al  Al14  1  0.60495600  0.84195900  0.33682400  1
  Al  Al15  1  0.76299700  0.15804100  0.33682400  1
  Al  Al16  1  0.39504400  0.23700300  0.33682400  1
  Al  Al17  1  0.84195900  0.60495600  0.33682400  1
  Al  Al18  1  0.84195900  0.23700300  0.66317600  1
  Al  Al19  1  0.76299700  0.60495600  0.66317600  1
  Al  Al20  1  0.39504400  0.15804100  0.66317600  1
  Al  Al21  1  0.23700300  0.84195900  0.66317600  1
  Al  Al22  1  0.60495600  0.76299700  0.66317600  1
  Al  Al23  1  0.15804100  0.39504400  0.66317600  1
  Al  Al24  1  0.84002500  0.84002500  0.38566700  1
  Al  Al25  1  0.15997500  0.00000000  0.38566700  1
  Al  Al26  1  0.00000000  0.15997500  0.38566700  1
  Al  Al27  1  0.15997500  0.15997500  0.61433300  1
  Al  Al28  1  0.84002500  0.00000000  0.61433300  1
  Al  Al29  1  0.00000000  0.84002500  0.61433300  1
  Al  Al30  1  0.15997500  0.15997500  0.88566700  1
  Al  Al31  1  0.84002500  0.00000000  0.88566700  1
  Al  Al32  1  0.00000000  0.84002500  0.88566700  1
  Al  Al33  1  0.84002500  0.84002500  0.11433300  1
  Al  Al34  1  0.15997500  0.00000000  0.11433300  1
  Al  Al35  1  0.00000000  0.15997500  0.11433300  1
  Al  Al36  1  0.74479100  0.74479100  0.96962100  1
  Al  Al37  1  0.25520900  0.00000000  0.96962100  1
  Al  Al38  1  0.00000000  0.25520900  0.96962100  1
  Al  Al39  1  0.25520900  0.25520900  0.03037900  1
  Al  Al40  1  0.74479100  0.00000000  0.03037900  1
  Al  Al41  1  0.00000000  0.74479100  0.03037900  1
  Al  Al42  1  0.25520900  0.25520900  0.46962100  1
  Al  Al43  1  0.74479100  0.00000000  0.46962100  1
  Al  Al44  1  0.00000000  0.74479100  0.46962100  1
  Al  Al45  1  0.74479100  0.74479100  0.53037900  1
  Al  Al46  1  0.25520900  0.00000000  0.53037900  1
  Al  Al47  1  0.00000000  0.25520900  0.53037900  1
  Al  Al48  1  0.85307300  0.44857100  0.75000000  1
  Al  Al49  1  0.55142900  0.40450200  0.75000000  1
  Al  Al50  1  0.59549800  0.14692700  0.75000000  1
  Al  Al51  1  0.44857100  0.85307300  0.75000000  1
  Al  Al52  1  0.40450200  0.55142900  0.75000000  1
  Al  Al53  1  0.14692700  0.59549800  0.75000000  1
  Al  Al54  1  0.14692700  0.55142900  0.25000000  1
  Al  Al55  1  0.44857100  0.59549800  0.25000000  1
  Al  Al56  1  0.40450200  0.85307300  0.25000000  1
  Al  Al57  1  0.55142900  0.14692700  0.25000000  1
  Al  Al58  1  0.59549800  0.44857100  0.25000000  1
  Al  Al59  1  0.85307300  0.40450200  0.25000000  1
  Al  Al60  1  0.75319000  0.24681000  0.00000000  1
  Al  Al61  1  0.75319000  0.50638000  0.00000000  1
  Al  Al62  1  0.49362000  0.24681000  0.00000000  1
  Al  Al63  1  0.24681000  0.75319000  0.00000000  1
  Al  Al64  1  0.50638000  0.75319000  0.00000000  1
  Al  Al65  1  0.24681000  0.49362000  0.00000000  1
  Al  Al66  1  0.24681000  0.75319000  0.50000000  1
  Al  Al67  1  0.24681000  0.49362000  0.50000000  1
  Al  Al68  1  0.50638000  0.75319000  0.50000000  1
  Al  Al69  1  0.75319000  0.24681000  0.50000000  1
  Al  Al70  1  0.49362000  0.24681000  0.50000000  1
  Al  Al71  1  0.75319000  0.50638000  0.50000000  1
  Al  Al72  1  0.66666700  0.33333300  0.87410500  1
  Al  Al73  1  0.33333300  0.66666700  0.87410500  1
  Al  Al74  1  0.33333300  0.66666700  0.12589500  1
  Al  Al75  1  0.66666700  0.33333300  0.12589500  1
  Al  Al76  1  0.33333300  0.66666700  0.37410500  1
  Al  Al77  1  0.66666700  0.33333300  0.37410500  1
  Al  Al78  1  0.66666700  0.33333300  0.62589500  1
  Al  Al79  1  0.33333300  0.66666700  0.62589500  1
  Al  Al80  1  0.85207700  0.85207700  0.75000000  1
  Al  Al81  1  0.14792300  0.00000000  0.75000000  1
  Al  Al82  1  0.00000000  0.14792300  0.75000000  1
  Al  Al83  1  0.14792300  0.14792300  0.25000000  1
  Al  Al84  1  0.85207700  0.00000000  0.25000000  1
  Al  Al85  1  0.00000000  0.85207700  0.25000000  1
  W  W0  1  0.27149000  0.27149000  0.75000000  1
  W  W1  1  0.72851000  0.00000000  0.75000000  1
  W  W2  1  0.00000000  0.72851000  0.75000000  1
  W  W3  1  0.72851000  0.72851000  0.25000000  1
  W  W4  1  0.27149000  0.00000000  0.25000000  1
  W  W5  1  0.00000000  0.27149000  0.25000000  1
  W  W6  1  0.00000000  0.00000000  0.00000000  1
  W  W7  1  0.00000000  0.00000000  0.50000000  1
loop_
_geom_bond_atom_site_label_1
_geom_bond_atom_site_label_2
_geom_bond_distance
_geom_bond_site_symmetry_2
Lu0 Lu3 3.414380 1_556
Lu0 W0 3.470842 1_555
Lu1 Lu4 3.414380 1_556
Lu1 W1 3.470842 1_555
Lu2 Lu5 3.414380 1_556
Lu2 W2 3.470842 1_555
Lu3 W3 3.470842 1_555
Lu4 W4 3.470842 1_555
Lu5 W5 3.470842 1_555
Lu6 Lu9 3.414380 1_555
Lu6 W3 3.470842 1_555
Lu7 W4 3.470842 1_555
Lu8 W5 3.470842 1_555
Lu9 W0 3.470842 1_555
Lu10 Lu7 3.414380 1_555
Lu10 W1 3.470842 1_555
Lu11 Lu8 3.414380 1_555
Lu11 W2 3.470842 1_555
Al0 Al72 2.711436 1_555
Al0 W1 2.728260 1_555
Al0 Al38 2.852931 1_655
Al0 Al60 3.040263 1_556
Al0 Lu2 3.057282 1_655
Al0 Lu1 3.318977 1_555
Al1 Al72 2.711446 1_555
Al1 W2 2.728260 1_655
Al1 Al36 2.852931 1_555
Al1 Al61 3.040263 1_556
Al1 Lu0 3.057282 1_555
Al1 Lu2 3.318977 1_655
Al2 Al72 2.711444 1_555
Al2 W0 2.728260 1_555
Al2 Al37 2.852931 1_555
Al2 Al62 3.040263 1_556
Al2 Lu1 3.057282 1_555
Al2 Lu0 3.318977 1_555
Al3 Al73 2.711436 1_555
Al3 W2 2.728260 1_555
Al3 Al37 2.852931 1_565
Al3 Al63 3.040263 1_556
Al3 Lu1 3.057282 1_565
Al3 Lu2 3.318977 1_555
Al4 Al73 2.711446 1_555
Al4 W1 2.728260 1_565
Al4 Al64 3.040263 1_556
Al4 Lu0 3.057282 1_555
Al4 Lu1 3.318977 1_565
Al5 Al73 2.711444 1_555
Al5 W0 2.728260 1_555
Al5 Al65 3.040263 1_556
Al5 Lu2 3.057282 1_555
Al5 Lu0 3.318977 1_555
Al6 Al74 2.711436 1_555
Al6 W4 2.728260 1_565
Al6 Al63 3.040263 1_555
Al6 Lu5 3.057282 1_555
Al6 Lu4 3.318977 1_565
Al7 Al74 2.711446 1_555
Al7 W5 2.728260 1_555
Al7 Lu3 3.057282 1_555
Al7 Lu5 3.318977 1_555
Al8 W3 2.728260 1_555
Al8 Lu4 3.057282 1_565
Al8 Lu3 3.318977 1_555
Al9 W5 2.728260 1_655
Al9 Lu4 3.057282 1_555
Al9 Lu5 3.318977 1_655
Al10 Al75 2.711446 1_555
Al10 W4 2.728260 1_555
Al10 Al39 2.852931 1_555
Al10 Al62 3.040263 1_555
Al10 Lu3 3.057282 1_555
Al10 Lu4 3.318977 1_555
Al11 Al75 2.711444 1_555
Al11 W3 2.728260 1_555
Al11 Al41 2.852931 1_655
Al11 Al61 3.040263 1_555
Al11 Lu5 3.057282 1_655
Al11 Lu3 3.318977 1_555
Al12 Al76 2.711436 1_555
Al12 W4 2.728260 1_565
Al12 Al44 2.852931 1_555
Al12 Al66 3.040263 1_555
Al12 Lu8 3.057282 1_555
Al12 Lu7 3.318977 1_565
Al13 Al76 2.711446 1_555
Al13 W5 2.728260 1_555
Al13 Al42 2.852931 1_555
Al13 Al67 3.040263 1_555
Al13 Lu6 3.057282 1_555
Al13 Lu8 3.318977 1_555
Al14 Al76 2.711444 1_555
Al14 W3 2.728260 1_555
Al14 Al43 2.852931 1_565
Al14 Al68 3.040263 1_555
Al14 Lu7 3.057282 1_565
Al14 Lu6 3.318977 1_555
Al15 Al77 2.711436 1_555
Al15 W5 2.728260 1_655
Al15 Al43 2.852931 1_555
Al15 Al69 3.040263 1_555
Al15 Lu7 3.057282 1_555
Al15 Lu8 3.318977 1_655
Al16 Al77 2.711446 1_555
Al16 W4 2.728260 1_555
Al16 Al42 2.852931 1_555
Al16 Al70 3.040263 1_555
Al16 Lu6 3.057282 1_555
Al16 Lu7 3.318977 1_555
Al17 Al77 2.711444 1_555
Al17 W3 2.728260 1_555
Al17 Al44 2.852931 1_655
Al17 Al71 3.040263 1_555
Al17 Lu8 3.057282 1_655
Al17 Lu6 3.318977 1_555
Al18 Al78 2.711436 1_555
Al18 W1 2.728260 1_555
Al18 Al47 2.852931 1_655
Al18 Al69 3.040263 1_555
Al18 Lu11 3.057282 1_655
Al18 Lu10 3.318977 1_555
Al19 Al78 2.711446 1_555
Al19 W2 2.728260 1_655
Al19 Al45 2.852931 1_555
Al19 Al71 3.040263 1_555
Al19 Lu9 3.057282 1_555
Al19 Lu11 3.318977 1_655
Al20 Al78 2.711444 1_555
Al20 W0 2.728260 1_555
Al20 Al46 2.852931 1_555
Al20 Al70 3.040263 1_555
Al20 Lu10 3.057282 1_555
Al20 Lu9 3.318977 1_555
Al21 Al79 2.711436 1_555
Al21 W2 2.728260 1_555
Al21 Al46 2.852931 1_565
Al21 Al66 3.040263 1_555
Al21 Lu10 3.057282 1_565
Al21 Lu11 3.318977 1_555
Al22 Al79 2.711446 1_555
Al22 W1 2.728260 1_565
Al22 Al45 2.852931 1_555
Al22 Al68 3.040263 1_555
Al22 Lu9 3.057282 1_555
Al22 Lu10 3.318977 1_565
Al23 Al79 2.711444 1_555
Al23 W0 2.728260 1_555
Al23 Al47 2.852931 1_555
Al23 Al67 3.040263 1_555
Al23 Lu11 3.057282 1_555
Al23 Lu9 3.318977 1_555
Al24 W7 2.669180 1_665
Al24 W3 2.675585 1_555
Al24 Al45 2.743500 1_555
Al24 Al43 2.869786 1_565
Al24 Al44 2.869786 1_655
Al24 Lu6 3.418668 1_555
Al25 W7 2.669180 1_555
Al25 W4 2.675585 1_555
Al25 Al46 2.743500 1_555
Al25 Al44 2.869786 1_545
Al25 Al42 2.869786 1_555
Al25 Lu7 3.418668 1_555
Al26 W7 2.669180 1_555
Al26 W5 2.675585 1_555
Al26 Al47 2.743500 1_555
Al26 Al43 2.869786 1_455
Al26 Al42 2.869786 1_555
Al26 Lu8 3.418668 1_555
Al27 W7 2.669180 1_555
Al27 W0 2.675585 1_555
Al27 Al42 2.743500 1_555
Al27 Al46 2.869786 1_555
Al27 Al47 2.869786 1_555
Al27 Lu9 3.418668 1_555
Al28 W7 2.669180 1_655
Al28 W1 2.675585 1_555
Al28 Al43 2.743500 1_555
Al28 Al47 2.869786 1_655
Al28 Al45 2.869786 1_545
Al28 Lu10 3.418668 1_555
Al29 W7 2.669180 1_565
Al29 W2 2.675585 1_555
Al29 Al44 2.743500 1_555
Al29 Al46 2.869786 1_565
Al29 Al45 2.869786 1_455
Al29 Lu11 3.418668 1_555
Al30 W6 2.669180 1_556
Al30 W0 2.675585 1_555
Al30 Al39 2.743500 1_556
Al30 Al37 2.869786 1_555
Al30 Al38 2.869786 1_555
Al30 Lu0 3.418668 1_555
Al31 W6 2.669180 1_656
Al31 W1 2.675585 1_555
Al31 Al40 2.743500 1_556
Al31 Al38 2.869786 1_655
Al31 Al36 2.869786 1_545
Al31 Lu1 3.418668 1_555
Al32 W6 2.669180 1_566
Al32 W2 2.675585 1_555
Al32 Al41 2.743500 1_556
Al32 Al37 2.869786 1_565
Al32 Al36 2.869786 1_455
Al32 Lu2 3.418668 1_555
Al33 W6 2.669180 1_665
Al33 W3 2.675585 1_555
Al33 Al36 2.743500 1_554
Al33 Al40 2.869786 1_565
Al33 Al41 2.869786 1_655
Al33 Lu3 3.418668 1_555
Al34 W6 2.669180 1_555
Al34 W4 2.675585 1_555
Al34 Al37 2.743500 1_554
Al34 Al41 2.869786 1_545
Al34 Al39 2.869786 1_555
Al34 Lu4 3.418668 1_555
Al35 W6 2.669180 1_555
Al35 W5 2.675585 1_555
Al35 Al38 2.743500 1_554
Al35 Al40 2.869786 1_455
Al35 Al39 2.869786 1_555
Al35 Lu5 3.418668 1_555
Al36 Al64 2.730306 1_556
Al36 Al61 2.730306 1_556
Al36 Al4 2.852931 1_555
Al36 W6 2.865590 1_666
Al36 Al40 3.010107 1_566
Al36 Al41 3.010107 1_656
Al36 Lu3 3.222602 1_556
Al36 Lu0 3.255586 1_555
Al37 Al62 2.730306 1_556
Al37 Al63 2.730306 1_546
Al37 W6 2.865590 1_556
Al37 Al41 3.010107 1_546
Al37 Al39 3.010107 1_556
Al37 Lu4 3.222602 1_556
Al37 Lu1 3.255586 1_555
Al38 Al65 2.730306 1_556
Al38 Al60 2.730306 1_456
Al38 Al5 2.852931 1_555
Al38 W6 2.865590 1_556
Al38 Al40 3.010107 1_456
Al38 Al39 3.010107 1_556
Al38 Lu5 3.222602 1_556
Al38 Lu2 3.255586 1_555
Al39 Al65 2.730306 1_555
Al39 Al62 2.730306 1_555
Al39 Al7 2.852931 1_555
Al39 W6 2.865590 1_555
Al39 Lu0 3.222602 1_554
Al39 Lu3 3.255586 1_555
Al40 Al64 2.730306 1_545
Al40 Al60 2.730306 1_555
Al40 Al8 2.852931 1_545
Al40 Al9 2.852931 1_555
Al40 W6 2.865590 1_655
Al40 Lu1 3.222602 1_554
Al40 Lu4 3.255586 1_555
Al41 Al61 2.730306 1_455
Al41 Al63 2.730306 1_555
Al41 Al6 2.852931 1_555
Al41 W6 2.865590 1_565
Al41 Lu2 3.222602 1_554
Al41 Lu5 3.255586 1_555
Al42 Al67 2.730306 1_555
Al42 Al70 2.730306 1_555
Al42 W7 2.865590 1_555
Al42 Al46 3.010107 1_555
Al42 Al47 3.010107 1_555
Al42 Lu9 3.222602 1_555
Al42 Lu6 3.255586 1_555
Al43 Al68 2.730306 1_545
Al43 Al69 2.730306 1_555
Al43 W7 2.865590 1_655
Al43 Al47 3.010107 1_655
Al43 Al45 3.010107 1_545
Al43 Lu10 3.222602 1_555
Al43 Lu7 3.255586 1_555
Al44 Al71 2.730306 1_455
Al44 Al66 2.730306 1_555
Al44 W7 2.865590 1_565
Al44 Al46 3.010107 1_565
Al44 Al45 3.010107 1_455
Al44 Lu11 3.222602 1_555
Al44 Lu8 3.255586 1_555
Al45 Al68 2.730306 1_555
Al45 Al71 2.730306 1_555
Al45 W7 2.865590 1_665
Al45 Lu6 3.222602 1_555
Al45 Lu9 3.255586 1_555
Al46 Al70 2.730306 1_555
Al46 Al66 2.730306 1_545
Al46 W7 2.865590 1_555
Al46 Lu7 3.222602 1_555
Al46 Lu10 3.255586 1_555
Al47 Al67 2.730306 1_555
Al47 Al69 2.730306 1_455
Al47 W7 2.865590 1_555
Al47 Lu8 3.222602 1_555
Al47 Lu11 3.255586 1_555
Al48 W2 2.675925 1_655
Al48 Al78 2.820507 1_555
Al48 Al72 2.820507 1_555
Al48 Lu2 3.051277 1_655
Al48 Lu11 3.051277 1_655
Al49 W0 2.675925 1_555
Al49 Al72 2.820513 1_555
Al49 Al78 2.820513 1_555
Al49 Lu9 3.051277 1_555
Al49 Lu0 3.051277 1_555
Al50 W1 2.675925 1_555
Al50 Al78 2.820506 1_555
Al50 Al72 2.820506 1_555
Al50 Lu10 3.051277 1_555
Al50 Lu1 3.051277 1_555
Al51 W1 2.675925 1_565
Al51 Al79 2.820507 1_555
Al51 Al73 2.820507 1_555
Al51 Lu10 3.051277 1_565
Al51 Lu1 3.051277 1_565
Al52 W0 2.675925 1_555
Al52 Al79 2.820513 1_555
Al52 Al73 2.820513 1_555
Al52 Lu9 3.051277 1_555
Al52 Lu0 3.051277 1_555
Al53 W2 2.675925 1_555
Al53 Al73 2.820506 1_555
Al53 Al79 2.820506 1_555
Al53 Lu2 3.051277 1_555
Al53 Lu11 3.051277 1_555
Al54 W5 2.675925 1_555
Al54 Al74 2.820507 1_555
Al54 Al76 2.820507 1_555
Al54 Lu5 3.051277 1_555
Al54 Lu8 3.051277 1_555
Al55 W3 2.675925 1_555
Al55 Al76 2.820513 1_555
Al55 Al74 2.820513 1_555
Al55 Lu6 3.051277 1_555
Al55 Lu3 3.051277 1_555
Al56 W4 2.675925 1_565
Al56 Al76 2.820506 1_555
Al56 Al74 2.820506 1_555
Al56 Lu7 3.051277 1_565
Al56 Lu4 3.051277 1_565
Al57 W4 2.675925 1_555
Al57 Al75 2.820507 1_555
Al57 Al77 2.820507 1_555
Al57 Lu4 3.051277 1_555
Al57 Lu7 3.051277 1_555
Al58 W3 2.675925 1_555
Al58 Al75 2.820513 1_555
Al58 Al77 2.820513 1_555
Al58 Lu6 3.051277 1_555
Al58 Lu3 3.051277 1_555
Al59 W5 2.675925 1_655
Al59 Al77 2.820506 1_555
Al59 Al75 2.820506 1_555
Al59 Lu8 3.051277 1_655
Al59 Lu5 3.051277 1_655
Al60 Al72 2.755896 1_554
Al60 Al75 2.755896 1_555
Al60 Al62 2.863885 1_555
Al60 Al61 2.863885 1_555
Al60 Al9 3.040263 1_555
Al60 Lu1 3.086586 1_554
Al60 Lu5 3.086586 1_655
Al60 Lu2 3.394971 1_654
Al60 Lu4 3.394971 1_555
Al61 Al72 2.755901 1_554
Al61 Al75 2.755901 1_555
Al61 Al62 2.863885 1_555
Al61 Lu2 3.086586 1_654
Al61 Lu3 3.086586 1_555
Al61 Lu0 3.394971 1_554
Al61 Lu5 3.394971 1_655
Al62 Al72 2.755901 1_554
Al62 Al75 2.755901 1_555
Al62 Lu4 3.086586 1_555
Al62 Lu0 3.086586 1_554
Al62 Lu3 3.394971 1_555
Al62 Lu1 3.394971 1_554
Al63 Al73 2.755896 1_554
Al63 Al74 2.755896 1_555
Al63 Al65 2.863885 1_555
Al63 Al64 2.863885 1_555
Al63 Lu2 3.086586 1_554
Al63 Lu4 3.086586 1_565
Al63 Lu1 3.394971 1_564
Al63 Lu5 3.394971 1_555
Al64 Al73 2.755901 1_554
Al64 Al74 2.755901 1_555
Al64 Al65 2.863885 1_555
Al64 Al8 3.040263 1_555
Al64 Lu1 3.086586 1_564
Al64 Lu3 3.086586 1_555
Al64 Lu0 3.394971 1_554
Al64 Lu4 3.394971 1_565
Al65 Al73 2.755901 1_554
Al65 Al74 2.755901 1_555
Al65 Al7 3.040263 1_555
Al65 Lu5 3.086586 1_555
Al65 Lu0 3.086586 1_554
Al65 Lu3 3.394971 1_555
Al65 Lu2 3.394971 1_554
Al66 Al79 2.755896 1_555
Al66 Al76 2.755896 1_555
Al66 Al67 2.863885 1_555
Al66 Al68 2.863885 1_555
Al66 Lu11 3.086586 1_555
Al66 Lu7 3.086586 1_565
Al66 Lu10 3.394971 1_565
Al66 Lu8 3.394971 1_555
Al67 Al79 2.755901 1_555
Al67 Al76 2.755901 1_555
Al67 Al68 2.863885 1_555
Al67 Lu8 3.086586 1_555
Al67 Lu9 3.086586 1_555
Al67 Lu6 3.394971 1_555
Al67 Lu11 3.394971 1_555
Al68 Al79 2.755901 1_555
Al68 Al76 2.755901 1_555
Al68 Lu10 3.086586 1_565
Al68 Lu6 3.086586 1_555
Al68 Lu9 3.394971 1_555
Al68 Lu7 3.394971 1_565
Al69 Al77 2.755896 1_555
Al69 Al78 2.755896 1_555
Al69 Al70 2.863885 1_555
Al69 Al71 2.863885 1_555
Al69 Lu10 3.086586 1_555
Al69 Lu8 3.086586 1_655
Al69 Lu11 3.394971 1_655
Al69 Lu7 3.394971 1_555
Al70 Al77 2.755901 1_555
Al70 Al78 2.755901 1_555
Al70 Al71 2.863885 1_555
Al70 Lu7 3.086586 1_555
Al70 Lu9 3.086586 1_555
Al70 Lu6 3.394971 1_555
Al70 Lu10 3.394971 1_555
Al71 Al77 2.755901 1_555
Al71 Al78 2.755901 1_555
Al71 Lu11 3.086586 1_655
Al71 Lu6 3.086586 1_555
Al71 Lu9 3.394971 1_555
Al71 Lu8 3.394971 1_655
Al72 Lu1 3.248198 1_555
Al72 Lu2 3.248200 1_655
Al72 Lu0 3.248208 1_555
Al73 Lu2 3.248198 1_555
Al73 Lu1 3.248200 1_565
Al73 Lu0 3.248208 1_555
Al74 Al8 2.711444 1_555
Al74 Lu4 3.248198 1_565
Al74 Lu5 3.248200 1_555
Al74 Lu3 3.248208 1_555
Al75 Al9 2.711436 1_555
Al75 Lu5 3.248198 1_655
Al75 Lu4 3.248200 1_555
Al75 Lu3 3.248208 1_555
Al76 Lu7 3.248198 1_565
Al76 Lu8 3.248200 1_555
Al76 Lu6 3.248208 1_555
Al77 Lu8 3.248198 1_655
Al77 Lu7 3.248200 1_555
Al77 Lu6 3.248208 1_555
Al78 Lu10 3.248198 1_555
Al78 Lu11 3.248200 1_655
Al78 Lu9 3.248208 1_555
Al79 Lu11 3.248198 1_555
Al79 Lu10 3.248200 1_565
Al79 Lu9 3.248208 1_555
Al80 W1 2.597571 1_565
Al80 W2 2.597571 1_655
Al81 W2 2.597570 1_545
Al81 W0 2.597571 1_555
Al82 W1 2.597570 1_455
Al82 W0 2.597571 1_555
Al83 W5 2.597571 1_555
Al83 W4 2.597571 1_555
Al84 W5 2.597570 1_655
Al84 W3 2.597571 1_545
Al85 W4 2.597570 1_565
Al85 W3 2.597571 1_455
