# generated using pymatgen
data_Y2MgMn2S2O5
_symmetry_space_group_name_H-M   'P 1'
_cell_length_a   14.29840085
_cell_length_b   14.29840085
_cell_length_c   14.29840085
_cell_angle_alpha   164.60022796
_cell_angle_beta   164.60022796
_cell_angle_gamma   21.84514587
_symmetry_Int_Tables_number   1
_chemical_formula_structural   Y2MgMn2S2O5
_chemical_formula_sum   'Y2 Mg1 Mn2 S2 O5'
_cell_volume   206.10565426
_cell_formula_units_Z   1
loop_
 _symmetry_equiv_pos_site_id
 _symmetry_equiv_pos_as_xyz
  1  'x, y, z'
loop_
 _atom_site_type_symbol
 _atom_site_label
 _atom_site_symmetry_multiplicity
 _atom_site_fract_x
 _atom_site_fract_y
 _atom_site_fract_z
 _atom_site_occupancy
  Y  Y0  1  0.36701200  0.36701200  0.00000000  1
  Y  Y1  1  0.63298800  0.63298800  0.00000000  1
  Mg  Mg0  1  0.75000000  0.25000000  0.50000000  1
  Mn  Mn0  1  0.06540700  0.06540700  0.00000000  1
  Mn  Mn1  1  0.93459300  0.93459300  0.00000000  1
  S  S0  1  0.19315100  0.19315100  0.00000000  1
  S  S1  1  0.80684900  0.80684900  0.00000000  1
  O  O0  1  0.59281200  0.09281200  0.50000000  1
  O  O1  1  0.90718800  0.40718800  0.50000000  1
  O  O2  1  0.09135900  0.59135900  0.50000000  1
  O  O3  1  0.40864100  0.90864100  0.50000000  1
  O  O4  1  0.00000000  0.00000000  0.00000000  1
loop_
_geom_bond_atom_site_label_1
_geom_bond_atom_site_label_2
_geom_bond_distance
_geom_bond_site_symmetry_2
Mg0 S0 2.493621 1_656
Mg0 S1 2.493621 1_556
Mg0 S0 2.493621 1_555
Mg0 S1 2.493621 1_545
Mn0 O4 1.836547 1_555
Mn0 O2 2.049668 1_555
Mn0 O2 2.049668 1_544
Mn0 O0 2.064525 1_555
Mn0 O0 2.064525 1_454
Mn1 O4 1.836547 1_665
Mn1 O3 2.049668 1_554
Mn1 O3 2.049668 1_655
Mn1 O1 2.064525 1_565
Mn1 O1 2.064525 1_554
S0 Y1 3.192806 1_545
S0 Y1 3.192806 1_455
S0 Y1 3.192806 1_444
S0 Y1 3.192806 1_556
S1 Y0 3.192806 1_666
S1 Y0 3.192806 1_655
S1 Y0 3.192806 1_565
S1 Y0 3.192806 1_554
O0 Y1 2.223225 1_545
O0 Y1 2.223225 1_556
O1 Y0 2.223225 1_555
O1 Y0 2.223225 1_656
O2 Y1 2.244202 1_556
O2 Y1 2.244202 1_455
O3 Y0 2.244202 1_555
O3 Y0 2.244202 1_566
