# generated using pymatgen
data_V8N
_symmetry_space_group_name_H-M   'P 1'
_cell_length_a   2.96541950
_cell_length_b   8.68458881
_cell_length_c   8.68459851
_cell_angle_alpha   90.00170345
_cell_angle_beta   90.00000000
_cell_angle_gamma   90.00000000
_symmetry_Int_Tables_number   1
_chemical_formula_structural   V8N
_chemical_formula_sum   'V16 N2'
_cell_volume   223.65836482
_cell_formula_units_Z   2
loop_
 _symmetry_equiv_pos_site_id
 _symmetry_equiv_pos_as_xyz
  1  'x, y, z'
loop_
 _atom_site_type_symbol
 _atom_site_label
 _atom_site_symmetry_multiplicity
 _atom_site_fract_x
 _atom_site_fract_y
 _atom_site_fract_z
 _atom_site_occupancy
  V  V0  1  0.50000000  0.34269451  0.65731509  1
  V  V1  1  0.50000000  0.65729731  0.34262394  1
  V  V2  1  -0.00000000  0.15731493  0.15731495  1
  V  V3  1  -0.00000000  0.84264903  0.84273818  1
  V  V4  1  0.50000000  0.88728357  0.11264300  1
  V  V5  1  0.50000000  0.11265416  0.88734244  1
  V  V6  1  -0.00000000  0.61265923  0.61270850  1
  V  V7  1  -0.00000000  0.38732779  0.38730783  1
  V  V8  1  0.50000000  0.38506685  0.12674365  1
  V  V9  1  0.50000000  0.61500684  0.87330899  1
  V  V10  1  -0.00000000  0.11500018  0.62673576  1
  V  V11  1  -0.00000000  0.88500804  0.37321874  1
  V  V12  1  0.50000000  0.12675960  0.38500429  1
  V  V13  1  0.50000000  0.87325058  0.61501365  1
  V  V14  1  -0.00000000  0.62675144  0.11495381  1
  V  V15  1  -0.00000000  0.37330992  0.88503051  1
  N  N0  1  0.50000000  0.49998896  0.49999369  1
  N  N1  1  -0.00000000  -0.00002294  0.00000399  1
loop_
_geom_bond_atom_site_label_1
_geom_bond_atom_site_label_2
_geom_bond_distance
_geom_bond_site_symmetry_2
V0 V10 2.485792 1_555
V0 V10 2.485792 1_655
V0 V15 2.485973 1_655
V0 V15 2.485973 1_555
V1 V14 2.485595 1_555
V1 V14 2.485595 1_655
V1 V11 2.485919 1_655
V1 V11 2.485919 1_555
V2 V8 2.486195 1_455
V2 V8 2.486195 1_555
V3 V9 2.485436 1_555
V3 V9 2.485436 1_455
V6 V9 2.705728 1_455
V6 V9 2.705728 1_555
V7 V8 2.705459 1_555
V7 V8 2.705459 1_455
V10 V12 2.572179 1_455
V10 V12 2.572179 1_555
V10 V13 2.572287 1_445
V10 V13 2.572287 1_545
V10 V5 2.705774 1_555
V10 V5 2.705774 1_455
V11 V12 2.572323 1_565
V11 V12 2.572323 1_465
V11 V13 2.572628 1_555
V11 V13 2.572628 1_455
V11 V4 2.705544 1_455
V11 V4 2.705544 1_555
V12 V2 2.485749 1_655
V12 V2 2.485749 1_555
V12 V7 2.705488 1_655
V12 V7 2.705488 1_555
V13 V3 2.486035 1_555
V13 V3 2.486035 1_655
V13 V6 2.705657 1_555
V13 V6 2.705657 1_655
V14 V9 2.571554 1_554
V14 V9 2.571554 1_454
V14 V8 2.571855 1_555
V14 V8 2.571855 1_455
V14 V4 2.705228 1_555
V14 V4 2.705228 1_455
V15 V9 2.571919 1_555
V15 V9 2.571919 1_455
V15 V8 2.572043 1_456
V15 V8 2.572043 1_556
V15 V5 2.706126 1_455
V15 V5 2.706126 1_555
N0 V0 1.932064 1_555
N0 V1 1.932447 1_555
N0 V7 2.028149 1_555
N0 V7 2.028149 1_655
N0 V6 2.028308 1_655
N0 V6 2.028308 1_555
N1 V3 1.931872 1_544
N1 V2 1.932209 1_555
N1 V4 2.028116 1_445
N1 V4 2.028116 1_545
N1 V5 2.028142 1_554
N1 V5 2.028142 1_454
