# generated using pymatgen
data_Sc2TlCu
_symmetry_space_group_name_H-M   'P 1'
_cell_length_a   11.53140579
_cell_length_b   11.53140579
_cell_length_c   11.53140579
_cell_angle_alpha   123.37615653
_cell_angle_beta   118.34140608
_cell_angle_gamma   88.57561457
_symmetry_Int_Tables_number   1
_chemical_formula_structural   Sc2TlCu
_chemical_formula_sum   'Sc2 Tl1 Cu1'
_cell_volume   1067.15891280
_cell_formula_units_Z   1
loop_
 _symmetry_equiv_pos_site_id
 _symmetry_equiv_pos_as_xyz
  1  'x, y, z'
loop_
 _atom_site_type_symbol
 _atom_site_label
 _atom_site_symmetry_multiplicity
 _atom_site_fract_x
 _atom_site_fract_y
 _atom_site_fract_z
 _atom_site_occupancy
  Sc  Sc0  1  0.00000000  0.23261900  0.23261900  1
  Sc  Sc1  1  0.00000000  0.76738100  0.76738100  1
  Tl  Tl0  1  0.00000000  0.50000000  0.50000000  1
  Cu  Cu0  1  0.00000000  0.00000000  0.00000000  1
loop_
_geom_bond_atom_site_label_1
_geom_bond_atom_site_label_2
_geom_bond_distance
_geom_bond_site_symmetry_2
Sc0 Tl0 2.924622 1_555
Sc1 Tl0 2.924622 1_555
Cu0 Sc0 2.544394 1_555
Cu0 Sc1 2.544394 1_544
