# generated using pymatgen
data_BaAgSbS3O
_symmetry_space_group_name_H-M   'P 1'
_cell_length_a   8.78403100
_cell_length_b   9.12985000
_cell_length_c   19.04252300
_cell_angle_alpha   90.00000000
_cell_angle_beta   90.00000000
_cell_angle_gamma   90.00000000
_symmetry_Int_Tables_number   1
_chemical_formula_structural   BaAgSbS3O
_chemical_formula_sum   'Ba8 Ag8 Sb8 S24 O8'
_cell_volume   1527.15103524
_cell_formula_units_Z   8
loop_
 _symmetry_equiv_pos_site_id
 _symmetry_equiv_pos_as_xyz
  1  'x, y, z'
loop_
 _atom_site_type_symbol
 _atom_site_label
 _atom_site_symmetry_multiplicity
 _atom_site_fract_x
 _atom_site_fract_y
 _atom_site_fract_z
 _atom_site_occupancy
  Ba  Ba0  1  0.70533400  0.26472700  0.70843700  1
  Ba  Ba1  1  0.29466600  0.76472700  0.29156300  1
  Ba  Ba2  1  0.20533400  0.76472700  0.79156300  1
  Ba  Ba3  1  0.79466600  0.26472700  0.20843700  1
  Ba  Ba4  1  0.07362300  0.05588600  0.55073700  1
  Ba  Ba5  1  0.92637700  0.55588600  0.44926300  1
  Ba  Ba6  1  0.57362300  0.55588600  0.94926300  1
  Ba  Ba7  1  0.42637700  0.05588600  0.05073700  1
  Ag  Ag0  1  0.09270000  0.52588000  0.14270700  1
  Ag  Ag1  1  0.90730000  0.02588000  0.85729300  1
  Ag  Ag2  1  0.59270000  0.02588000  0.35729300  1
  Ag  Ag3  1  0.40730000  0.52588000  0.64270700  1
  Ag  Ag4  1  0.06066400  0.99043800  0.14527400  1
  Ag  Ag5  1  0.93933600  0.49043800  0.85472600  1
  Ag  Ag6  1  0.56066400  0.49043800  0.35472600  1
  Ag  Ag7  1  0.43933600  0.99043800  0.64527400  1
  Sb  Sb0  1  0.54185700  0.25589100  0.50701900  1
  Sb  Sb1  1  0.45814300  0.75589100  0.49298100  1
  Sb  Sb2  1  0.04185700  0.75589100  0.99298100  1
  Sb  Sb3  1  0.95814300  0.25589100  0.00701900  1
  Sb  Sb4  1  0.17569300  0.25855500  0.75452000  1
  Sb  Sb5  1  0.82430700  0.75855500  0.24548000  1
  Sb  Sb6  1  0.67569300  0.75855500  0.74548000  1
  Sb  Sb7  1  0.32430700  0.25855500  0.25452000  1
  S  S0  1  0.20054600  0.76695700  0.10366300  1
  S  S1  1  0.79945400  0.26695700  0.89633700  1
  S  S2  1  0.70054600  0.26695700  0.39633700  1
  S  S3  1  0.29945400  0.76695700  0.60366300  1
  S  S4  1  0.32145600  0.25493400  0.64258100  1
  S  S5  1  0.67854400  0.75493400  0.35741900  1
  S  S6  1  0.82145600  0.75493400  0.85741900  1
  S  S7  1  0.17854400  0.25493400  0.14258100  1
  S  S8  1  0.67784600  0.06129400  0.56990400  1
  S  S9  1  0.32215400  0.56129400  0.43009600  1
  S  S10  1  0.17784600  0.56129400  0.93009600  1
  S  S11  1  0.82215400  0.06129400  0.06990400  1
  S  S12  1  0.65354300  0.46857000  0.56914900  1
  S  S13  1  0.34645700  0.96857000  0.43085100  1
  S  S14  1  0.15354300  0.96857000  0.93085100  1
  S  S15  1  0.84645700  0.46857000  0.06914900  1
  S  S16  1  0.00352200  0.05276800  0.72533300  1
  S  S17  1  0.99647800  0.55276800  0.27466700  1
  S  S18  1  0.50352200  0.55276800  0.77466700  1
  S  S19  1  0.49647800  0.05276800  0.22533300  1
  S  S20  1  0.01150600  0.46575400  0.72497400  1
  S  S21  1  0.98849400  0.96575400  0.27502600  1
  S  S22  1  0.51150600  0.96575400  0.77502600  1
  S  S23  1  0.48849400  0.46575400  0.22497400  1
  O  O0  1  0.50911400  0.33722500  0.03732000  1
  O  O1  1  0.49088600  0.83722500  0.96268000  1
  O  O2  1  0.00911400  0.83722500  0.46268000  1
  O  O3  1  0.99088600  0.33722500  0.53732000  1
  O  O4  1  0.51229800  0.78323200  0.02859000  1
  O  O5  1  0.48770200  0.28323200  0.97141000  1
  O  O6  1  0.01229800  0.28323200  0.47141000  1
  O  O7  1  0.98770200  0.78323200  0.52859000  1
loop_
_geom_bond_atom_site_label_1
_geom_bond_atom_site_label_2
_geom_bond_distance
_geom_bond_site_symmetry_2
Ba0 S8 3.235282 1_555
Ba0 S20 3.271187 1_655
Ba0 S12 3.271956 1_555
Ba0 S16 3.272466 1_655
Ba0 S18 3.413039 1_555
Ba0 S22 3.457933 1_545
Ba0 S4 3.598754 1_555
Ba0 S1 3.672419 1_555
Ba1 S9 3.235282 1_555
Ba1 S21 3.271187 1_455
Ba1 S13 3.271956 1_555
Ba1 S17 3.272466 1_455
Ba1 S19 3.413039 1_565
Ba1 S23 3.457933 1_555
Ba1 S5 3.598754 1_555
Ba1 S0 3.672419 1_555
Ba2 S10 3.235282 1_555
Ba2 S22 3.271187 1_555
Ba2 S14 3.271956 1_555
Ba2 S18 3.272466 1_555
Ba2 S16 3.413039 1_565
Ba2 S20 3.457933 1_555
Ba2 S6 3.598754 1_455
Ba2 S3 3.672419 1_555
Ba3 S11 3.235282 1_555
Ba3 S23 3.271187 1_555
Ba3 S15 3.271956 1_555
Ba3 S19 3.272466 1_555
Ba3 S17 3.413039 1_555
Ba3 S21 3.457933 1_545
Ba3 S7 3.598754 1_655
Ba3 S2 3.672419 1_555
Ba4 O6 2.623034 1_555
Ba4 O7 2.635156 1_445
Ba4 O2 2.668000 1_545
Ba4 O3 2.681619 1_455
Ba4 S4 3.331742 1_555
Ba4 S16 3.381410 1_555
Ba4 S13 3.404539 1_545
Ba4 S3 3.450977 1_545
Ba4 S8 3.495973 1_455
Ba5 O7 2.623034 1_555
Ba5 O6 2.635156 1_655
Ba5 O3 2.668000 1_555
Ba5 O2 2.681619 1_655
Ba5 S5 3.331742 1_555
Ba5 S17 3.381410 1_555
Ba5 S12 3.404539 1_555
Ba5 S2 3.450977 1_555
Ba5 S9 3.495973 1_655
Ba6 O4 2.623034 1_556
Ba6 O5 2.635156 1_555
Ba6 O0 2.668000 1_556
Ba6 O1 2.681619 1_555
Ba6 S6 3.331742 1_555
Ba6 S18 3.381410 1_555
Ba6 S15 3.404539 1_556
Ba6 S1 3.450977 1_555
Ba6 S10 3.495973 1_555
Ba7 O5 2.623034 1_554
Ba7 O4 2.635156 1_545
Ba7 O1 2.668000 1_544
Ba7 O0 2.681619 1_555
Ba7 S7 3.331742 1_555
Ba7 S19 3.381410 1_555
Ba7 S14 3.404539 1_544
Ba7 S0 3.450977 1_545
Ba7 S11 3.495973 1_555
Ag0 S0 2.508903 1_555
Ag0 S7 2.586074 1_555
Ag0 S15 2.629527 1_455
Ag0 S17 2.662532 1_455
Ag1 S1 2.508903 1_555
Ag1 S6 2.586074 1_545
Ag1 S14 2.629527 1_645
Ag1 S16 2.662532 1_655
Ag2 S2 2.508903 1_555
Ag2 S5 2.586074 1_545
Ag2 S13 2.629527 1_545
Ag2 S19 2.662532 1_555
Ag3 S3 2.508903 1_555
Ag3 S4 2.586074 1_555
Ag3 S12 2.629527 1_555
Ag3 S18 2.662532 1_555
Ag4 S0 2.510111 1_555
Ag4 S21 2.560772 1_455
Ag4 S11 2.620638 1_465
Ag4 S7 2.627948 1_565
Ag5 S1 2.510111 1_555
Ag5 S20 2.560772 1_655
Ag5 S10 2.620638 1_655
Ag5 S6 2.627948 1_555
Ag6 S2 2.510111 1_555
Ag6 S23 2.560772 1_555
Ag6 S9 2.620638 1_555
Ag6 S5 2.627948 1_555
Ag7 S3 2.510111 1_555
Ag7 S22 2.560772 1_555
Ag7 S8 2.620638 1_565
Ag7 S4 2.627948 1_565
S0 Sb2 2.528932 1_554
S1 Sb3 2.528932 1_556
S2 Sb0 2.528932 1_555
S3 Sb1 2.528932 1_555
S4 Sb4 2.486806 1_555
S5 Sb5 2.486806 1_555
S6 Sb6 2.486806 1_555
S7 Sb7 2.486806 1_555
S8 Sb0 2.453027 1_555
S9 Sb1 2.453027 1_555
S10 Sb2 2.453027 1_555
S11 Sb3 2.453027 1_555
S12 Sb0 2.476393 1_555
S13 Sb1 2.476393 1_555
S14 Sb2 2.476393 1_555
S15 Sb3 2.476393 1_555
S16 Sb4 2.475082 1_555
S17 Sb5 2.475082 1_555
S18 Sb6 2.475082 1_555
S19 Sb7 2.475082 1_555
S20 Sb4 2.444397 1_555
S21 Sb5 2.444397 1_555
S22 Sb6 2.444397 1_555
S23 Sb7 2.444397 1_555
O0 O5 1.361481 1_554
O1 O4 1.361481 1_556
O2 O7 1.361481 1_455
O3 O6 1.361481 1_655
