# generated using pymatgen
data_CsGd(WO4)2
_symmetry_space_group_name_H-M   'P 1'
_cell_length_a   7.72146073
_cell_length_b   7.72146073
_cell_length_c   7.58141116
_cell_angle_alpha   62.92410566
_cell_angle_beta   62.92410566
_cell_angle_gamma   89.42496170
_symmetry_Int_Tables_number   1
_chemical_formula_structural   CsGd(WO4)2
_chemical_formula_sum   'Cs2 Gd2 W4 O16'
_cell_volume   347.10728908
_cell_formula_units_Z   2
loop_
 _symmetry_equiv_pos_site_id
 _symmetry_equiv_pos_as_xyz
  1  'x, y, z'
loop_
 _atom_site_type_symbol
 _atom_site_label
 _atom_site_symmetry_multiplicity
 _atom_site_fract_x
 _atom_site_fract_y
 _atom_site_fract_z
 _atom_site_occupancy
  Cs  Cs0  1  0.19808100  0.80191900  0.75000000  1
  Cs  Cs1  1  0.80191900  0.19808100  0.25000000  1
  Gd  Gd0  1  0.77589000  0.22411000  0.75000000  1
  Gd  Gd1  1  0.22411000  0.77589000  0.25000000  1
  W  W0  1  0.69751900  0.68637800  0.78141200  1
  W  W1  1  0.30248100  0.31362200  0.21858800  1
  W  W2  1  0.31362200  0.30248100  0.71858800  1
  W  W3  1  0.68637800  0.69751900  0.28141200  1
  O  O0  1  0.62066500  0.74868300  0.56366900  1
  O  O1  1  0.37933500  0.25131700  0.43633100  1
  O  O2  1  0.25131700  0.37933500  0.93633100  1
  O  O3  1  0.74868300  0.62066500  0.06366900  1
  O  O4  1  0.37616300  0.06589800  0.87213700  1
  O  O5  1  0.62383700  0.93410200  0.12786300  1
  O  O6  1  0.93410200  0.62383700  0.62786300  1
  O  O7  1  0.06589800  0.37616300  0.37213700  1
  O  O8  1  0.58752200  0.37205500  0.96675800  1
  O  O9  1  0.41247800  0.62794500  0.03324200  1
  O  O10  1  0.62794500  0.41247800  0.53324200  1
  O  O11  1  0.37205500  0.58752200  0.46675800  1
  O  O12  1  0.78274000  0.94646900  0.69925000  1
  O  O13  1  0.21726000  0.05353100  0.30075000  1
  O  O14  1  0.05353100  0.21726000  0.80075000  1
  O  O15  1  0.94646900  0.78274000  0.19925000  1
loop_
_geom_bond_atom_site_label_1
_geom_bond_atom_site_label_2
_geom_bond_distance
_geom_bond_site_symmetry_2
Cs0 O15 2.986589 1_456
Cs0 O13 2.986589 1_565
Cs0 O0 3.019444 1_555
Cs0 O2 3.019444 1_555
Cs0 O3 3.034882 1_456
Cs0 O1 3.034882 1_565
Cs0 O9 3.117983 1_556
Cs0 O11 3.117983 1_555
Cs0 O4 3.136306 1_565
Cs0 O6 3.136306 1_455
Cs0 O14 3.512750 1_565
Cs0 O12 3.512750 1_455
Cs1 O12 2.986589 1_545
Cs1 O14 2.986589 1_654
Cs1 O3 3.019444 1_555
Cs1 O1 3.019444 1_555
Cs1 O2 3.034882 1_654
Cs1 O0 3.034882 1_545
Cs1 O10 3.117983 1_555
Cs1 O8 3.117983 1_554
Cs1 O7 3.136306 1_655
Cs1 O5 3.136306 1_545
Cs1 O13 3.512750 1_655
Cs1 O15 3.512750 1_545
Gd0 O12 2.340250 1_545
Gd0 O14 2.340250 1_655
Gd0 O10 2.370806 1_555
Gd0 O8 2.370806 1_555
Gd0 O7 2.398057 1_655
Gd0 O5 2.398057 1_546
Gd0 O6 2.884494 1_555
Gd0 O4 2.884494 1_555
Gd1 O15 2.340250 1_455
Gd1 O13 2.340250 1_565
Gd1 O9 2.370806 1_555
Gd1 O11 2.370806 1_555
Gd1 O6 2.398057 1_455
Gd1 O4 2.398057 1_564
Gd1 O5 2.884494 1_555
Gd1 O7 2.884494 1_555
O0 W0 1.863284 1_555
O0 W3 2.184001 1_555
O1 W1 1.863284 1_555
O1 W2 2.184001 1_555
O2 W2 1.863284 1_555
O2 W1 2.184001 1_556
O3 W3 1.863284 1_555
O3 W0 2.184001 1_554
O4 W2 1.866439 1_555
O5 W3 1.866439 1_555
O6 W0 1.866439 1_555
O7 W1 1.866439 1_555
O8 W1 2.025647 1_556
O8 W0 2.106338 1_555
O9 W0 2.025647 1_554
O9 W1 2.106338 1_555
O10 W3 2.025647 1_555
O10 W2 2.106338 1_555
O11 W2 2.025647 1_555
O11 W3 2.106338 1_555
O12 W0 1.835427 1_555
O13 W1 1.835427 1_555
O14 W2 1.835427 1_555
O15 W3 1.835427 1_555
