# generated using pymatgen
data_Sm2Re2Si2C
_symmetry_space_group_name_H-M   'P 1'
_cell_length_a   5.89263881
_cell_length_b   5.89263881
_cell_length_c   7.09286198
_cell_angle_alpha   54.96635745
_cell_angle_beta   54.96635745
_cell_angle_gamma   40.00961961
_symmetry_Int_Tables_number   1
_chemical_formula_structural   Sm2Re2Si2C
_chemical_formula_sum   'Sm2 Re2 Si2 C1'
_cell_volume   125.35825598
_cell_formula_units_Z   1
loop_
 _symmetry_equiv_pos_site_id
 _symmetry_equiv_pos_as_xyz
  1  'x, y, z'
loop_
 _atom_site_type_symbol
 _atom_site_label
 _atom_site_symmetry_multiplicity
 _atom_site_fract_x
 _atom_site_fract_y
 _atom_site_fract_z
 _atom_site_occupancy
  Sm  Sm0  1  0.42790800  0.42790800  0.30282800  1
  Sm  Sm1  1  0.57209200  0.57209200  0.69717200  1
  Re  Re0  1  0.79466500  0.79466500  0.08890600  1
  Re  Re1  1  0.20533500  0.20533500  0.91109400  1
  Si  Si0  1  0.85464000  0.85464000  0.68981000  1
  Si  Si1  1  0.14536000  0.14536000  0.31019000  1
  C  C0  1  0.00000000  0.00000000  0.00000000  1
loop_
_geom_bond_atom_site_label_1
_geom_bond_atom_site_label_2
_geom_bond_distance
_geom_bond_site_symmetry_2
Re0 Si1 2.467831 1_655
Re0 Si1 2.467831 1_565
Re0 Si0 2.481331 1_554
Re1 Si0 2.467831 1_455
Re1 Si0 2.467831 1_545
Re1 Si1 2.481331 1_556
Si0 Si1 2.650162 1_665
Si0 Sm0 3.087863 1_565
Si0 Sm0 3.087863 1_655
Si0 Sm1 3.097368 1_555
Si0 Sm1 3.165290 1_565
Si0 Sm1 3.165290 1_655
Si1 Sm1 3.087863 1_545
Si1 Sm1 3.087863 1_455
Si1 Sm0 3.097368 1_555
Si1 Sm0 3.165290 1_545
Si1 Sm0 3.165290 1_455
C0 Re1 1.953546 1_554
C0 Re0 1.953546 1_445
C0 Sm0 2.686899 1_455
C0 Sm0 2.686899 1_545
C0 Sm1 2.686899 1_454
C0 Sm1 2.686899 1_544
