# generated using pymatgen
data_Ca8Be5Al3(Si9O28)2
_symmetry_space_group_name_H-M   'P 1'
_cell_length_a   12.02620098
_cell_length_b   12.02620098
_cell_length_c   19.62197878
_cell_angle_alpha   89.97446687
_cell_angle_beta   89.97446687
_cell_angle_gamma   155.64219513
_symmetry_Int_Tables_number   1
_chemical_formula_structural   Ca8Be5Al3(Si9O28)2
_chemical_formula_sum   'Ca8 Be5 Al3 Si18 O56'
_cell_volume   1170.44992900
_cell_formula_units_Z   1
loop_
 _symmetry_equiv_pos_site_id
 _symmetry_equiv_pos_as_xyz
  1  'x, y, z'
loop_
 _atom_site_type_symbol
 _atom_site_label
 _atom_site_symmetry_multiplicity
 _atom_site_fract_x
 _atom_site_fract_y
 _atom_site_fract_z
 _atom_site_occupancy
  Ca  Ca0  1  0.16012700  0.33137600  0.64723000  1
  Ca  Ca1  1  0.66862400  0.83987300  0.35277000  1
  Ca  Ca2  1  0.15362300  0.32342900  0.84794400  1
  Ca  Ca3  1  0.67657100  0.84637700  0.15205600  1
  Ca  Ca4  1  0.84691500  0.67856000  0.34889400  1
  Ca  Ca5  1  0.32144000  0.15308500  0.65110600  1
  Ca  Ca6  1  0.84644200  0.67659600  0.15156100  1
  Ca  Ca7  1  0.32340400  0.15355800  0.84843900  1
  Be  Be0  1  0.40737000  0.59263000  0.50000000  1
  Be  Be1  1  0.69422200  0.94618600  0.74974000  1
  Be  Be2  1  0.05381400  0.30577800  0.25026000  1
  Be  Be3  1  0.30756100  0.05508100  0.25009000  1
  Be  Be4  1  0.94491900  0.69243900  0.74991000  1
  Al  Al0  1  0.40471600  0.59528400  0.00000000  1
  Al  Al1  1  0.59499200  0.40500800  0.50000000  1
  Al  Al2  1  0.59530600  0.40469400  0.00000000  1
  Si  Si0  1  0.64750100  0.07590800  0.64310800  1
  Si  Si1  1  0.92409200  0.35249900  0.35689200  1
  Si  Si2  1  0.64478800  0.07384500  0.85673100  1
  Si  Si3  1  0.92615500  0.35521200  0.14326900  1
  Si  Si4  1  0.35482600  0.92577700  0.35690400  1
  Si  Si5  1  0.07422300  0.64517400  0.64309600  1
  Si  Si6  1  0.35494200  0.92607600  0.14328500  1
  Si  Si7  1  0.07392400  0.64505800  0.85671500  1
  Si  Si8  1  0.71510500  0.71922100  0.60232700  1
  Si  Si9  1  0.28077900  0.28489500  0.39767300  1
  Si  Si10  1  0.72166600  0.72161800  0.89438300  1
  Si  Si11  1  0.27838200  0.27833400  0.10561700  1
  Si  Si12  1  0.77469800  0.77564300  0.74859200  1
  Si  Si13  1  0.22435700  0.22530200  0.25140800  1
  Si  Si14  1  0.83380400  0.16619600  0.50000000  1
  Si  Si15  1  0.83022300  0.16977700  0.00000000  1
  Si  Si16  1  0.16951500  0.83048500  0.50000000  1
  Si  Si17  1  0.16982200  0.83017800  0.00000000  1
  O  O0  1  0.32895800  0.79665800  0.66362000  1
  O  O1  1  0.20334200  0.67104200  0.33638000  1
  O  O2  1  0.32783100  0.79606900  0.83535400  1
  O  O3  1  0.20393100  0.67216900  0.16464600  1
  O  O4  1  0.67221500  0.20393000  0.33513000  1
  O  O5  1  0.79607000  0.32778500  0.66487000  1
  O  O6  1  0.67231300  0.20404000  0.16462300  1
  O  O7  1  0.79596000  0.32768700  0.83537700  1
  O  O8  1  0.89069800  0.00890800  0.74991300  1
  O  O9  1  0.99109200  0.10930200  0.25008700  1
  O  O10  1  0.11146600  0.99405400  0.25075600  1
  O  O11  1  0.00594600  0.88853400  0.74924400  1
  O  O12  1  0.11188900  0.36684400  0.53137900  1
  O  O13  1  0.63315600  0.88811100  0.46862100  1
  O  O14  1  0.09881300  0.36103600  0.96341400  1
  O  O15  1  0.63896400  0.90118700  0.03658600  1
  O  O16  1  0.90136000  0.63966000  0.46352900  1
  O  O17  1  0.36034000  0.09864000  0.53647100  1
  O  O18  1  0.90123300  0.63900600  0.03658100  1
  O  O19  1  0.36099400  0.09876700  0.96341900  1
  O  O20  1  0.77716900  0.08635200  0.68048700  1
  O  O21  1  0.91364800  0.22283100  0.31951300  1
  O  O22  1  0.77491800  0.08461600  0.81953000  1
  O  O23  1  0.91538400  0.22508200  0.18047000  1
  O  O24  1  0.22442100  0.91445300  0.31959400  1
  O  O25  1  0.08554700  0.77557900  0.68040600  1
  O  O26  1  0.22500100  0.91543900  0.18039600  1
  O  O27  1  0.08456100  0.77499900  0.81960400  1
  O  O28  1  0.57026600  0.57373400  0.68176300  1
  O  O29  1  0.42626600  0.42973400  0.31823700  1
  O  O30  1  0.57377700  0.57360800  0.81619600  1
  O  O31  1  0.42639200  0.42622300  0.18380400  1
  O  O32  1  0.02933500  0.03185100  0.61415200  1
  O  O33  1  0.96814900  0.97066500  0.38584800  1
  O  O34  1  0.03536600  0.03527600  0.88520600  1
  O  O35  1  0.96472400  0.96463400  0.11479400  1
  O  O36  1  0.67548200  0.08898400  0.56039700  1
  O  O37  1  0.91101600  0.32451800  0.43960300  1
  O  O38  1  0.65835700  0.07420300  0.94012700  1
  O  O39  1  0.92579700  0.34164300  0.05987300  1
  O  O40  1  0.34100700  0.92544500  0.44009200  1
  O  O41  1  0.07455500  0.65899300  0.55990800  1
  O  O42  1  0.34167800  0.92583600  0.05985700  1
  O  O43  1  0.07416400  0.65832200  0.94014300  1
  O  O44  1  0.53419200  0.65020700  0.56725900  1
  O  O45  1  0.34979300  0.46580800  0.43274100  1
  O  O46  1  0.54051700  0.65569800  0.92753200  1
  O  O47  1  0.34430200  0.45948300  0.07246800  1
  O  O48  1  0.45996300  0.34576400  0.42782100  1
  O  O49  1  0.65423600  0.54003700  0.57217900  1
  O  O50  1  0.45948100  0.34428900  0.07244000  1
  O  O51  1  0.65571100  0.54051900  0.92756000  1
  O  O52  1  0.39364400  0.61653900  0.74957200  1
  O  O53  1  0.38346100  0.60635600  0.25042800  1
  O  O54  1  0.60687400  0.38457200  0.25020400  1
  O  O55  1  0.61542800  0.39312600  0.74979600  1
loop_
_geom_bond_atom_site_label_1
_geom_bond_atom_site_label_2
_geom_bond_distance
_geom_bond_site_symmetry_2
Ca0 O32 2.355985 1_555
Ca0 O20 2.364137 1_455
Ca0 O44 2.441862 1_555
Ca0 O12 2.477335 1_555
Ca0 O52 2.478741 1_555
Ca0 O8 2.586636 1_455
Ca0 O28 2.663570 1_555
Ca1 O33 2.355985 1_555
Ca1 O21 2.364137 1_565
Ca1 O45 2.441862 1_555
Ca1 O13 2.477335 1_555
Ca1 O53 2.478741 1_555
Ca1 O9 2.586636 1_565
Ca1 O29 2.663570 1_555
Ca2 O22 2.339554 1_455
Ca2 O34 2.362935 1_555
Ca2 O52 2.435957 1_555
Ca2 O46 2.488444 1_555
Ca2 O8 2.495242 1_455
Ca2 O14 2.513046 1_555
Ca2 O30 2.696033 1_555
Ca3 O23 2.339554 1_565
Ca3 O35 2.362935 1_555
Ca3 O53 2.435957 1_555
Ca3 O47 2.488444 1_555
Ca3 O9 2.495242 1_565
Ca3 O15 2.513046 1_555
Ca3 O31 2.696033 1_555
Ca4 O24 2.349478 1_655
Ca4 O33 2.379818 1_555
Ca4 O54 2.449284 1_555
Ca4 O48 2.475155 1_555
Ca4 O10 2.494103 1_655
Ca4 O16 2.503136 1_555
Ca4 O29 2.707593 1_555
Ca5 O25 2.349478 1_545
Ca5 O32 2.379818 1_555
Ca5 O55 2.449284 1_555
Ca5 O49 2.475155 1_555
Ca5 O11 2.494103 1_545
Ca5 O17 2.503136 1_555
Ca5 O28 2.707593 1_555
Ca6 O26 2.339898 1_655
Ca6 O35 2.358464 1_555
Ca6 O54 2.436117 1_555
Ca6 O50 2.482974 1_555
Ca6 O18 2.504197 1_555
Ca6 O10 2.522800 1_655
Ca6 O31 2.695832 1_555
Ca7 O27 2.339898 1_545
Ca7 O34 2.358464 1_555
Ca7 O55 2.436117 1_555
Ca7 O51 2.482974 1_555
Ca7 O19 2.504197 1_555
Ca7 O11 2.522800 1_545
Ca7 O30 2.695832 1_555
Be0 O45 1.620448 1_555
Be0 O44 1.620448 1_555
Be0 O12 1.672111 1_555
Be0 O13 1.672111 1_555
Be1 O20 1.617460 1_565
Be1 O22 1.627336 1_565
Be1 O52 1.635066 1_555
Be1 O8 1.704336 1_565
Be2 O21 1.617460 1_455
Be2 O23 1.627336 1_455
Be2 O53 1.635066 1_555
Be2 O9 1.704336 1_455
Be3 O24 1.623488 1_545
Be3 O26 1.625270 1_545
Be3 O54 1.634317 1_555
Be3 O10 1.716621 1_545
Be4 O25 1.623488 1_655
Be4 O27 1.625270 1_655
Be4 O55 1.634317 1_555
Be4 O11 1.716621 1_655
Al0 O47 1.747053 1_555
Al0 O46 1.747053 1_554
Al0 O14 1.762701 1_554
Al0 O15 1.762701 1_555
Al1 O48 1.745128 1_555
Al1 O49 1.745128 1_555
Al1 O17 1.761485 1_555
Al1 O16 1.761485 1_555
Al2 O50 1.746814 1_555
Al2 O51 1.746814 1_554
Al2 O18 1.762610 1_555
Al2 O19 1.762610 1_554
O0 Si0 1.634946 1_565
O0 Si5 1.642972 1_555
O1 Si1 1.634946 1_455
O1 Si4 1.642972 1_555
O2 Si2 1.633263 1_565
O2 Si7 1.640846 1_555
O3 Si3 1.633263 1_455
O3 Si6 1.640846 1_555
O4 Si4 1.635707 1_545
O4 Si1 1.640501 1_555
O5 Si5 1.635707 1_655
O5 Si0 1.640501 1_555
O6 Si6 1.635228 1_545
O6 Si3 1.639006 1_555
O7 Si7 1.635228 1_655
O7 Si2 1.639006 1_555
O8 Si12 1.638987 1_545
O9 Si13 1.638987 1_655
O10 Si13 1.642680 1_565
O11 Si12 1.642680 1_455
O12 Si14 1.638958 1_455
O13 Si14 1.638958 1_565
O14 Si15 1.642981 1_456
O15 Si15 1.642981 1_565
O16 Si16 1.642574 1_655
O17 Si16 1.642574 1_545
O18 Si17 1.643339 1_655
O19 Si17 1.643339 1_546
O20 Si0 1.621646 1_555
O21 Si1 1.621646 1_555
O22 Si2 1.621203 1_555
O23 Si3 1.621203 1_555
O24 Si4 1.620489 1_555
O25 Si5 1.620489 1_555
O26 Si6 1.619669 1_555
O27 Si7 1.619669 1_555
O28 Si12 1.670018 1_555
O28 Si8 1.722582 1_555
O29 Si13 1.670018 1_555
O29 Si9 1.722582 1_555
O30 Si12 1.673108 1_555
O30 Si10 1.709438 1_555
O31 Si13 1.673108 1_555
O31 Si11 1.709438 1_555
O32 Si8 1.607842 1_445
O33 Si9 1.607842 1_665
O34 Si10 1.601449 1_445
O35 Si11 1.601449 1_665
O36 Si14 1.633319 1_555
O36 Si0 1.635486 1_555
O37 Si14 1.633319 1_555
O37 Si1 1.635486 1_555
O38 Si15 1.627368 1_556
O38 Si2 1.644202 1_555
O39 Si15 1.627368 1_555
O39 Si3 1.644202 1_555
O40 Si16 1.626311 1_555
O40 Si4 1.640312 1_555
O41 Si16 1.626311 1_555
O41 Si5 1.640312 1_555
O42 Si17 1.626611 1_555
O42 Si6 1.644595 1_555
O43 Si17 1.626611 1_556
O43 Si7 1.644595 1_555
O44 Si8 1.614857 1_555
O45 Si9 1.614857 1_555
O46 Si10 1.627628 1_555
O47 Si11 1.627628 1_555
O48 Si9 1.629994 1_555
O49 Si8 1.629994 1_555
O50 Si11 1.627001 1_555
O51 Si10 1.627001 1_555
