# generated using pymatgen
data_Ba3Sr5Tl5Cu3O19
_symmetry_space_group_name_H-M   'P 1'
_cell_length_a   3.76788500
_cell_length_b   9.40827500
_cell_length_c   16.11143093
_cell_angle_alpha   73.03006903
_cell_angle_beta   90.00000000
_cell_angle_gamma   90.00000000
_symmetry_Int_Tables_number   1
_chemical_formula_structural   Ba3Sr5Tl5Cu3O19
_chemical_formula_sum   'Ba3 Sr5 Tl5 Cu3 O19'
_cell_volume   546.27042467
_cell_formula_units_Z   1
loop_
 _symmetry_equiv_pos_site_id
 _symmetry_equiv_pos_as_xyz
  1  'x, y, z'
loop_
 _atom_site_type_symbol
 _atom_site_label
 _atom_site_symmetry_multiplicity
 _atom_site_fract_x
 _atom_site_fract_y
 _atom_site_fract_z
 _atom_site_occupancy
  Ba  Ba0  1  0.50000000  0.72899000  0.12798800  1
  Ba  Ba1  1  0.50000000  0.27311700  0.87403300  1
  Ba  Ba2  1  0.50000000  0.85303500  0.87422100  1
  Sr  Sr0  1  0.50000000  0.14171100  0.12710900  1
  Sr  Sr1  1  0.50000000  0.60625200  0.37044800  1
  Sr  Sr2  1  0.50000000  0.39570300  0.62787100  1
  Sr  Sr3  1  0.50000000  0.97713700  0.62778900  1
  Sr  Sr4  1  0.50000000  0.02496400  0.36988600  1
  Tl  Tl0  1  0.00000000  0.37975000  0.23093000  1
  Tl  Tl1  1  0.00000000  0.61601000  0.76753200  1
  Tl  Tl2  1  0.00000000  0.26323900  0.47450800  1
  Tl  Tl3  1  0.00000000  0.73907700  0.52394400  1
  Tl  Tl4  1  0.00000000  0.49275800  0.00502800  1
  Cu  Cu0  1  0.00000000  0.88276500  0.25204100  1
  Cu  Cu1  1  0.00000000  0.12765400  0.74741900  1
  Cu  Cu2  1  0.00000000  0.00778400  0.00091200  1
  O  O0  1  0.00000000  0.71094000  0.00242200  1
  O  O1  1  0.00000000  0.27387500  0.00862700  1
  O  O2  1  0.00000000  0.58348300  0.26003100  1
  O  O3  1  0.00000000  0.41215200  0.73856500  1
  O  O4  1  0.00000000  0.84861200  0.73828800  1
  O  O5  1  0.00000000  0.14815200  0.25436900  1
  O  O6  1  0.50000000  0.87386000  0.25847500  1
  O  O7  1  0.50000000  0.13105300  0.73932500  1
  O  O8  1  0.50000000  0.42346100  0.13210100  1
  O  O9  1  0.50000000  0.56542600  0.86657600  1
  O  O10  1  0.00000000  0.94972100  0.12814400  1
  O  O11  1  0.00000000  0.06358500  0.87347000  1
  O  O12  1  0.00000000  0.50142700  0.49876500  1
  O  O13  1  0.00000000  0.00045800  0.49849000  1
  O  O14  1  0.00000000  0.81127300  0.37911900  1
  O  O15  1  0.00000000  0.18988100  0.61883500  1
  O  O16  1  0.50000000  0.30007500  0.39643200  1
  O  O17  1  0.50000000  0.69909000  0.60162700  1
  O  O18  1  0.50000000  0.00353000  0.00467900  1
loop_
_geom_bond_atom_site_label_1
_geom_bond_atom_site_label_2
_geom_bond_distance
_geom_bond_site_symmetry_2
Ba0 O18 2.760991 1_565
Ba0 O10 2.804455 1_555
Ba0 O10 2.804455 1_655
Ba0 O0 2.805592 1_655
Ba0 O0 2.805592 1_555
Ba0 O6 2.819605 1_555
Ba0 O8 2.855863 1_555
Ba0 O2 2.872125 1_555
Ba0 O2 2.872125 1_655
Ba1 O9 2.717488 1_555
Ba1 O11 2.728721 1_655
Ba1 O11 2.728721 1_555
Ba1 O18 2.783380 1_556
Ba1 O7 2.861841 1_555
Ba1 O1 2.874147 1_556
Ba1 O1 2.874147 1_656
Ba1 O3 2.890918 1_555
Ba1 O3 2.890918 1_655
Ba2 O11 2.731192 1_565
Ba2 O11 2.731192 1_665
Ba2 O9 2.744384 1_555
Ba2 O0 2.826813 1_556
Ba2 O0 2.826813 1_656
Ba2 O18 2.856542 1_566
Ba2 O7 2.871725 1_565
Ba2 O4 2.898379 1_555
Ba2 O4 2.898379 1_655
Cu0 O6 1.887309 1_455
Cu0 O6 1.887309 1_555
Cu0 O10 1.909828 1_555
Cu0 O14 1.959698 1_555
Cu0 O5 2.508038 1_565
Cu1 O7 1.888077 1_455
Cu1 O7 1.888077 1_555
Cu1 O11 1.942460 1_555
Cu1 O15 1.981561 1_555
Cu1 O3 2.638530 1_555
Cu1 O4 2.671949 1_545
Cu2 O18 1.884969 1_555
Cu2 O18 1.884969 1_455
Cu2 O10 1.961324 1_545
Cu2 O11 1.965274 1_554
Cu2 O1 2.542518 1_555
O0 Tl4 2.040857 1_555
O1 Tl4 2.043140 1_555
O1 Sr0 2.711781 1_455
O1 Sr0 2.711781 1_555
O2 Tl0 2.102014 1_555
O2 Sr1 2.642412 1_455
O2 Sr1 2.642412 1_555
O3 Tl1 2.102108 1_555
O3 Sr2 2.629630 1_555
O3 Sr2 2.629630 1_455
O4 Tl1 2.099793 1_555
O4 Sr3 2.631392 1_555
O4 Sr3 2.631392 1_455
O5 Tl0 2.100012 1_555
O5 Sr4 2.664056 1_455
O5 Sr4 2.664056 1_555
O5 Sr0 2.798095 1_555
O5 Sr0 2.798095 1_455
O6 Sr4 2.594727 1_565
O6 Sr1 2.634794 1_555
O6 Sr0 2.777876 1_565
O7 Sr2 2.610391 1_555
O7 Sr3 2.616331 1_545
O8 Tl0 2.423111 1_555
O8 Tl0 2.423111 1_655
O8 Sr0 2.675362 1_555
O8 Tl4 2.717845 1_555
O8 Tl4 2.717845 1_655
O9 Tl1 2.424626 1_555
O9 Tl1 2.424626 1_655
O10 Sr0 2.606652 1_565
O10 Sr0 2.606652 1_465
O12 Tl2 2.384486 1_555
O12 Tl3 2.386038 1_555
O12 Sr1 2.757846 1_455
O12 Sr1 2.757846 1_555
O12 Sr2 2.767238 1_455
O12 Sr2 2.767238 1_555
O13 Tl3 2.372103 1_545
O13 Tl2 2.388308 1_555
O13 Sr4 2.759836 1_455
O13 Sr4 2.759836 1_555
O13 Sr3 2.769523 1_545
O13 Sr3 2.769523 1_445
O14 Tl3 2.231741 1_555
O14 Sr4 2.727408 1_565
O14 Sr4 2.727408 1_465
O14 Sr1 2.728862 1_455
O14 Sr1 2.728862 1_555
O15 Tl2 2.224095 1_555
O15 Sr3 2.721712 1_445
O15 Sr3 2.721712 1_545
O15 Sr2 2.735828 1_555
O15 Sr2 2.735828 1_455
O16 Tl2 2.235446 1_655
O16 Tl2 2.235446 1_555
O16 Sr4 2.743816 1_555
O16 Sr1 2.787320 1_555
O17 Tl3 2.232124 1_555
O17 Tl3 2.232124 1_655
O17 Sr2 2.760720 1_555
O17 Sr3 2.768479 1_555
O18 Sr0 2.660429 1_555
