# generated using pymatgen
data_RbLiMg14O15
_symmetry_space_group_name_H-M   'P 1'
_cell_length_a   8.31934328
_cell_length_b   8.71186770
_cell_length_c   4.30107926
_cell_angle_alpha   90.00000000
_cell_angle_beta   90.00000000
_cell_angle_gamma   90.00000000
_symmetry_Int_Tables_number   1
_chemical_formula_structural   RbLiMg14O15
_chemical_formula_sum   'Rb1 Li1 Mg14 O15'
_cell_volume   311.72939897
_cell_formula_units_Z   1
loop_
 _symmetry_equiv_pos_site_id
 _symmetry_equiv_pos_as_xyz
  1  'x, y, z'
loop_
 _atom_site_type_symbol
 _atom_site_label
 _atom_site_symmetry_multiplicity
 _atom_site_fract_x
 _atom_site_fract_y
 _atom_site_fract_z
 _atom_site_occupancy
  Rb  Rb0  1  0.40275347  0.50000000  -0.00000000  1
  Li  Li0  1  0.99380288  0.00000000  -0.00000000  1
  Mg  Mg0  1  0.97697522  0.50000000  -0.00000000  1
  Mg  Mg1  1  0.51220191  0.00000000  -0.00000000  1
  Mg  Mg2  1  0.00299652  0.24589995  0.50000000  1
  Mg  Mg3  1  0.00299652  0.75410005  0.50000000  1
  Mg  Mg4  1  0.50907511  0.24552272  0.50000000  1
  Mg  Mg5  1  0.50907511  0.75447728  0.50000000  1
  Mg  Mg6  1  0.25111858  0.00000000  0.50000000  1
  Mg  Mg7  1  0.24372382  0.50000000  0.50000000  1
  Mg  Mg8  1  0.76280129  0.00000000  0.50000000  1
  Mg  Mg9  1  0.73988410  0.50000000  0.50000000  1
  Mg  Mg10  1  0.25074647  0.21680081  -0.00000000  1
  Mg  Mg11  1  0.25074647  0.78319919  -0.00000000  1
  Mg  Mg12  1  0.74908580  0.25091924  0.00000000  1
  Mg  Mg13  1  0.74908580  0.74908076  -0.00000000  1
  O  O0  1  0.25398492  0.00000000  -0.00000000  1
  O  O1  1  0.75702107  0.00000000  -0.00000000  1
  O  O2  1  0.74859650  0.50000000  -0.00000000  1
  O  O3  1  0.25613382  0.26267308  0.50000000  1
  O  O4  1  0.25613382  0.73732692  0.50000000  1
  O  O5  1  0.75632808  0.25053889  0.50000000  1
  O  O6  1  0.75632808  0.74946111  0.50000000  1
  O  O7  1  0.00970400  0.00000000  0.50000000  1
  O  O8  1  0.00975364  0.50000000  0.50000000  1
  O  O9  1  0.50130597  0.00000000  0.50000000  1
  O  O10  1  0.50284615  0.50000000  0.50000000  1
  O  O11  1  0.01776984  0.27304983  -0.00000000  1
  O  O12  1  0.01776984  0.72695017  -0.00000000  1
  O  O13  1  0.49962761  0.22879661  -0.00000000  1
  O  O14  1  0.49962761  0.77120339  -0.00000000  1
loop_
_geom_bond_atom_site_label_1
_geom_bond_atom_site_label_2
_geom_bond_distance
_geom_bond_site_symmetry_2
Li0 O1 1.969869 1_555
Li0 O7 2.154604 1_654
Li0 O7 2.154604 1_655
Li0 O0 2.164544 1_655
Li0 O12 2.387116 1_645
Li0 O11 2.387116 1_655
Mg0 O2 1.899961 1_555
Mg0 O11 2.006076 1_655
Mg0 O12 2.006076 1_655
Mg0 O8 2.167760 1_655
Mg0 O8 2.167760 1_654
Mg1 O14 1.995989 1_545
Mg1 O13 1.995989 1_555
Mg1 O1 2.036735 1_555
Mg1 O0 2.148196 1_555
Mg1 O9 2.152449 1_555
Mg1 O9 2.152449 1_554
Mg2 O5 2.052517 1_455
Mg2 O3 2.111000 1_555
Mg2 O7 2.142974 1_555
Mg2 O11 2.166996 1_556
Mg2 O11 2.166996 1_555
Mg2 O8 2.214400 1_555
Mg3 O6 2.052517 1_455
Mg3 O4 2.111000 1_555
Mg3 O7 2.142974 1_565
Mg3 O12 2.166996 1_556
Mg3 O12 2.166996 1_555
Mg3 O8 2.214400 1_555
Mg4 O5 2.057446 1_555
Mg4 O3 2.109603 1_555
Mg4 O9 2.139938 1_555
Mg4 O13 2.156903 1_555
Mg4 O13 2.156903 1_556
Mg4 O10 2.217578 1_555
Mg5 O6 2.057446 1_555
Mg5 O4 2.109603 1_555
Mg5 O9 2.139938 1_565
Mg5 O14 2.156903 1_555
Mg5 O14 2.156903 1_556
Mg5 O10 2.217578 1_555
Mg6 O7 2.008411 1_555
Mg6 O9 2.081395 1_555
Mg6 O0 2.150672 1_555
Mg6 O0 2.150672 1_556
Mg6 O3 2.288753 1_555
Mg6 O4 2.288753 1_545
Mg7 O8 1.946478 1_555
Mg7 O3 2.070137 1_555
Mg7 O4 2.070137 1_555
Mg7 O10 2.155728 1_555
Mg8 O7 2.054068 1_655
Mg8 O1 2.151077 1_556
Mg8 O1 2.151077 1_555
Mg8 O9 2.175469 1_555
Mg8 O6 2.183326 1_545
Mg8 O5 2.183326 1_555
Mg9 O10 1.972000 1_555
Mg9 O2 2.151761 1_555
Mg9 O2 2.151761 1_556
Mg9 O5 2.177574 1_555
Mg9 O6 2.177574 1_555
Mg9 O8 2.245137 1_655
Mg10 O0 1.888932 1_555
Mg10 O11 1.999200 1_555
Mg10 O13 2.073163 1_555
Mg10 O3 2.187815 1_555
Mg10 O3 2.187815 1_554
Mg11 O0 1.888932 1_565
Mg11 O12 1.999200 1_555
Mg11 O14 2.073163 1_555
Mg11 O4 2.187815 1_554
Mg11 O4 2.187815 1_555
Mg12 O13 2.084258 1_555
Mg12 O5 2.151386 1_554
Mg12 O5 2.151386 1_555
Mg12 O2 2.169962 1_555
Mg12 O1 2.186972 1_555
Mg12 O11 2.243574 1_655
Mg13 O14 2.084258 1_555
Mg13 O6 2.151386 1_554
Mg13 O6 2.151386 1_555
Mg13 O2 2.169962 1_555
Mg13 O1 2.186972 1_565
Mg13 O12 2.243574 1_655
O10 Rb0 2.306126 1_555
O10 Rb0 2.306126 1_556
O13 Rb0 2.496361 1_555
O14 Rb0 2.496361 1_555
