# generated using pymatgen
data_V20As11
_symmetry_space_group_name_H-M   'P 1'
_cell_length_a   7.09201540
_cell_length_b   7.09201540
_cell_length_c   13.36044200
_cell_angle_alpha   90.00000000
_cell_angle_beta   90.00000000
_cell_angle_gamma   139.97211093
_symmetry_Int_Tables_number   1
_chemical_formula_structural   V20As11
_chemical_formula_sum   'V20 As11'
_cell_volume   432.19473270
_cell_formula_units_Z   1
loop_
 _symmetry_equiv_pos_site_id
 _symmetry_equiv_pos_as_xyz
  1  'x, y, z'
loop_
 _atom_site_type_symbol
 _atom_site_label
 _atom_site_symmetry_multiplicity
 _atom_site_fract_x
 _atom_site_fract_y
 _atom_site_fract_z
 _atom_site_occupancy
  V  V0  1  0.75012800  0.25154200  0.24733700  1
  V  V1  1  0.25154200  0.75012800  0.75266300  1
  V  V2  1  0.24987200  0.74845800  0.24733700  1
  V  V3  1  0.74845800  0.24987200  0.75266300  1
  V  V4  1  0.82905900  0.67936000  0.34708900  1
  V  V5  1  0.30954400  0.15965400  0.85221000  1
  V  V6  1  0.15965400  0.30954400  0.14779000  1
  V  V7  1  0.67936000  0.82905900  0.65291100  1
  V  V8  1  0.61731500  0.91288100  0.07303600  1
  V  V9  1  0.09594400  0.40137600  0.57605200  1
  V  V10  1  0.40137600  0.09594400  0.42394800  1
  V  V11  1  0.91288100  0.61731500  0.92696400  1
  V  V12  1  0.38268500  0.08711900  0.07303600  1
  V  V13  1  0.90405600  0.59862400  0.57605200  1
  V  V14  1  0.59862400  0.90405600  0.42394800  1
  V  V15  1  0.08711900  0.38268500  0.92696400  1
  V  V16  1  0.17094100  0.32064000  0.34708900  1
  V  V17  1  0.69045600  0.84034600  0.85221000  1
  V  V18  1  0.84034600  0.69045600  0.14779000  1
  V  V19  1  0.32064000  0.17094100  0.65291100  1
  As  As0  1  0.00000000  0.50000000  0.08306000  1
  As  As1  1  0.50000000  0.00000000  0.58629900  1
  As  As2  1  0.00000000  0.50000000  0.41370100  1
  As  As3  1  0.50000000  0.00000000  0.91694000  1
  As  As4  1  0.33240600  0.16293500  0.24749400  1
  As  As5  1  0.83706500  0.66759400  0.75250600  1
  As  As6  1  0.66759400  0.83706500  0.24749400  1
  As  As7  1  0.16293500  0.33240600  0.75250600  1
  As  As8  1  0.50000000  0.50000000  0.50000000  1
  As  As9  1  0.50000000  0.50000000  0.00000000  1
  As  As10  1  0.00000000  0.00000000  0.50000000  1
loop_
_geom_bond_atom_site_label_1
_geom_bond_atom_site_label_2
_geom_bond_distance
_geom_bond_site_symmetry_2
As0 V6 2.489290 1_555
As0 V18 2.489290 1_455
As0 V15 2.492101 1_554
As0 V11 2.492101 1_454
As0 V2 2.506060 1_555
As0 V0 2.506060 1_455
As0 V12 2.723016 1_565
As0 V8 2.723016 1_445
As0 V12 2.850686 1_455
As0 V8 2.850686 1_555
As1 V19 2.498291 1_555
As1 V7 2.498291 1_545
As1 V14 2.527052 1_545
As1 V10 2.527052 1_555
As1 V3 2.530516 1_555
As1 V1 2.530516 1_545
As1 V13 2.749492 1_445
As1 V9 2.749492 1_655
As1 V13 2.760953 1_555
As1 V9 2.760953 1_545
As2 V16 2.498291 1_555
As2 V4 2.498291 1_455
As2 V13 2.527052 1_455
As2 V9 2.527052 1_555
As2 V2 2.530516 1_555
As2 V0 2.530516 1_455
As2 V14 2.749492 1_445
As2 V10 2.749492 1_565
As2 V14 2.760953 1_555
As2 V10 2.760953 1_455
As3 V5 2.489290 1_555
As3 V17 2.489290 1_545
As3 V12 2.492101 1_556
As3 V8 2.492101 1_546
As3 V3 2.506060 1_555
As3 V1 2.506060 1_545
As3 V15 2.723016 1_655
As3 V11 2.723016 1_445
As3 V15 2.850686 1_545
As3 V11 2.850686 1_555
As4 V12 2.478443 1_555
As4 V16 2.508825 1_555
As4 V6 2.511462 1_555
As4 V0 2.514005 1_555
As4 V2 2.519554 1_545
As4 V10 2.525608 1_555
As4 V18 2.696762 1_445
As4 V4 2.743414 1_445
As4 V4 2.799020 1_555
As4 V18 2.847489 1_555
As5 V11 2.478443 1_555
As5 V7 2.508825 1_555
As5 V17 2.511462 1_555
As5 V3 2.514005 1_555
As5 V1 2.519554 1_655
As5 V13 2.525608 1_555
As5 V5 2.696762 1_665
As5 V19 2.743414 1_665
As5 V19 2.799020 1_555
As5 V5 2.847489 1_555
As6 V8 2.478443 1_555
As6 V4 2.508825 1_555
As6 V18 2.511462 1_555
As6 V2 2.514005 1_555
As6 V0 2.519554 1_565
As6 V14 2.525608 1_555
As6 V6 2.696762 1_665
As6 V16 2.743414 1_665
As6 V16 2.799020 1_555
As6 V6 2.847489 1_555
As7 V15 2.478443 1_555
As7 V19 2.508825 1_555
As7 V5 2.511462 1_555
As7 V1 2.514005 1_555
As7 V3 2.519554 1_455
As7 V9 2.525608 1_555
As7 V17 2.696762 1_445
As7 V7 2.743414 1_445
As7 V7 2.799020 1_555
As7 V17 2.847489 1_555
As8 V10 2.581402 1_555
As8 V9 2.581402 1_555
As8 V14 2.581402 1_555
As8 V13 2.581402 1_555
As8 V7 2.586827 1_555
As8 V4 2.586827 1_555
As8 V19 2.586827 1_555
As8 V16 2.586827 1_555
As9 V8 2.547060 1_555
As9 V11 2.547060 1_554
As9 V12 2.547060 1_555
As9 V15 2.547060 1_554
As9 V17 2.560544 1_554
As9 V18 2.560544 1_555
As9 V5 2.560544 1_554
As9 V6 2.560544 1_555
As10 As8 2.427234 1_555
As10 As8 2.427234 1_445
As10 V7 2.567582 1_445
As10 V4 2.567582 1_445
As10 V16 2.567582 1_555
As10 V19 2.567582 1_555
As10 V9 2.575279 1_555
As10 V10 2.575279 1_555
As10 V13 2.575279 1_445
As10 V14 2.575279 1_445
