# generated using pymatgen
data_Al2NiO4
_symmetry_space_group_name_H-M   'P 1'
_cell_length_a   5.75563304
_cell_length_b   5.78342737
_cell_length_c   5.75446204
_cell_angle_alpha   60.39966606
_cell_angle_beta   60.59950522
_cell_angle_gamma   60.03706236
_symmetry_Int_Tables_number   1
_chemical_formula_structural   Al2NiO4
_chemical_formula_sum   'Al4 Ni2 O8'
_cell_volume   136.49831484
_cell_formula_units_Z   2
loop_
 _symmetry_equiv_pos_site_id
 _symmetry_equiv_pos_as_xyz
  1  'x, y, z'
loop_
 _atom_site_type_symbol
 _atom_site_label
 _atom_site_symmetry_multiplicity
 _atom_site_fract_x
 _atom_site_fract_y
 _atom_site_fract_z
 _atom_site_occupancy
  Al  Al0  1  0.49969400  0.00158800  0.49965600  1
  Al  Al1  1  0.99856200  0.50017600  0.50093000  1
  Al  Al2  1  0.50029400  0.49919600  0.49986800  1
  Al  Al3  1  0.50089100  0.49967900  0.99920800  1
  Ni  Ni0  1  0.12970200  0.11897400  0.12474200  1
  Ni  Ni1  1  0.87879500  0.87139400  0.88039400  1
  O  O0  1  0.29480100  0.73953200  0.72947200  1
  O  O1  1  0.70946200  0.26361800  0.26321700  1
  O  O2  1  0.73725300  0.29119400  0.73557500  1
  O  O3  1  0.26246300  0.70243400  0.26575200  1
  O  O4  1  0.73459300  0.73765200  0.73798500  1
  O  O5  1  0.72878100  0.73734700  0.29614200  1
  O  O6  1  0.26319100  0.26765900  0.70707300  1
  O  O7  1  0.26151900  0.26955900  0.25998800  1
loop_
_geom_bond_atom_site_label_1
_geom_bond_atom_site_label_2
_geom_bond_distance
_geom_bond_site_symmetry_2
Al0 O5 1.919559 1_545
Al0 O0 1.926310 1_545
Al0 O4 1.931260 1_545
Al0 O6 1.942268 1_555
Al0 O1 1.945061 1_555
Al0 O7 1.950828 1_555
Al1 O6 1.920292 1_655
Al1 O3 1.923422 1_655
Al1 O7 1.934453 1_655
Al1 O5 1.937395 1_555
Al1 O2 1.937954 1_555
Al1 O4 1.946047 1_555
Al2 O5 1.923875 1_555
Al2 O3 1.925997 1_555
Al2 O2 1.926775 1_555
Al2 O0 1.927282 1_555
Al2 O6 1.930704 1_555
Al2 O1 1.935194 1_555
Al3 O3 1.927088 1_556
Al3 O1 1.928102 1_556
Al3 O2 1.936059 1_555
Al3 O7 1.936486 1_556
Al3 O0 1.943598 1_555
Al3 O4 1.945068 1_555
Ni0 O7 1.961910 1_555
Ni0 O3 1.970954 1_545
Ni0 O6 1.977759 1_554
Ni0 O1 1.982468 1_455
Ni1 O0 1.964070 1_655
Ni1 O5 1.969357 1_556
Ni1 O4 1.973305 1_555
Ni1 O2 1.986165 1_565
