# generated using pymatgen
data_Na4Al2GaSi3BrO12
_symmetry_space_group_name_H-M   'P 1'
_cell_length_a   9.05893380
_cell_length_b   9.05893380
_cell_length_c   9.05627601
_cell_angle_alpha   89.99842070
_cell_angle_beta   89.99842070
_cell_angle_gamma   89.99147580
_symmetry_Int_Tables_number   1
_chemical_formula_structural   Na4Al2GaSi3BrO12
_chemical_formula_sum   'Na8 Al4 Ga2 Si6 Br2 O24'
_cell_volume   743.19677502
_cell_formula_units_Z   2
loop_
 _symmetry_equiv_pos_site_id
 _symmetry_equiv_pos_as_xyz
  1  'x, y, z'
loop_
 _atom_site_type_symbol
 _atom_site_label
 _atom_site_symmetry_multiplicity
 _atom_site_fract_x
 _atom_site_fract_y
 _atom_site_fract_z
 _atom_site_occupancy
  Na  Na0  1  0.68549900  0.81621700  0.31597700  1
  Na  Na1  1  0.68534700  0.18341100  0.68502000  1
  Na  Na2  1  0.31492800  0.18445900  0.31515800  1
  Na  Na3  1  0.31478300  0.81526500  0.68386500  1
  Na  Na4  1  0.81621700  0.68549900  0.81597700  1
  Na  Na5  1  0.18341100  0.68534700  0.18502000  1
  Na  Na6  1  0.18445900  0.31492800  0.81515800  1
  Na  Na7  1  0.81526500  0.31478300  0.18386500  1
  Al  Al0  1  0.00038900  0.00041900  0.25000200  1
  Al  Al1  1  0.49958100  0.24917800  0.99996500  1
  Al  Al2  1  0.00041900  0.00038900  0.75000200  1
  Al  Al3  1  0.24917800  0.49958100  0.49996500  1
  Ga  Ga0  1  0.75084500  0.49968600  0.50016200  1
  Ga  Ga1  1  0.49968600  0.75084500  0.00016200  1
  Si  Si0  1  0.75223100  0.00221100  0.00026600  1
  Si  Si1  1  0.00221100  0.75223100  0.50026600  1
  Si  Si2  1  0.49755200  0.49808000  0.25001300  1
  Si  Si3  1  0.00218800  0.24778900  0.49972200  1
  Si  Si4  1  0.49808000  0.49755200  0.75001300  1
  Si  Si5  1  0.24778900  0.00218800  0.99972200  1
  Br  Br0  1  0.49985500  0.00013700  0.49998100  1
  Br  Br1  1  0.00013700  0.49985500  0.99998100  1
  O  O0  1  0.65657900  0.86220800  0.06518500  1
  O  O1  1  0.94328800  0.85004800  0.35947300  1
  O  O2  1  0.63852300  0.56438300  0.34344900  1
  O  O3  1  0.65029300  0.14011300  0.94188900  1
  O  O4  1  0.94310000  0.15004000  0.64024300  1
  O  O5  1  0.63735600  0.43138100  0.65412300  1
  O  O6  1  0.34961700  0.13983100  0.05827600  1
  O  O7  1  0.06114000  0.14767900  0.36089400  1
  O  O8  1  0.36033000  0.43849700  0.35204400  1
  O  O9  1  0.34338800  0.86237400  0.93464700  1
  O  O10  1  0.06094000  0.85239400  0.63936200  1
  O  O11  1  0.35912000  0.55733700  0.65028400  1
  O  O12  1  0.86220800  0.65657900  0.56518500  1
  O  O13  1  0.85004800  0.94328800  0.85947300  1
  O  O14  1  0.56438300  0.63852300  0.84344900  1
  O  O15  1  0.14011300  0.65029300  0.44188900  1
  O  O16  1  0.15004000  0.94310000  0.14024300  1
  O  O17  1  0.43138100  0.63735600  0.15412300  1
  O  O18  1  0.13983100  0.34961700  0.55827600  1
  O  O19  1  0.14767900  0.06114000  0.86089400  1
  O  O20  1  0.43849700  0.36033000  0.85204400  1
  O  O21  1  0.86237400  0.34338800  0.43464700  1
  O  O22  1  0.85239400  0.06094000  0.13936200  1
  O  O23  1  0.55733700  0.35912000  0.15028400  1
loop_
_geom_bond_atom_site_label_1
_geom_bond_atom_site_label_2
_geom_bond_distance
_geom_bond_site_symmetry_2
Na0 O0 2.323941 1_555
Na0 O2 2.334050 1_555
Na0 O1 2.388087 1_555
Na1 O5 2.305004 1_555
Na1 O3 2.380377 1_555
Na1 O4 2.389068 1_555
Na2 O7 2.359739 1_555
Na2 O8 2.361594 1_555
Na2 O6 2.382074 1_555
Na3 O9 2.325407 1_555
Na3 O10 2.358664 1_555
Na3 O11 2.390197 1_555
Na4 O12 2.323941 1_555
Na4 O14 2.334050 1_555
Na4 O13 2.388087 1_555
Na5 O17 2.305004 1_555
Na5 O15 2.380377 1_555
Na5 O16 2.389068 1_555
Na6 O19 2.359739 1_555
Na6 O20 2.361594 1_555
Na6 O18 2.382074 1_555
Na7 O21 2.325407 1_555
Na7 O22 2.358664 1_555
Na7 O23 2.390197 1_555
Al0 O7 1.758226 1_555
Al0 O16 1.759341 1_545
Al0 O22 1.761193 1_455
Al0 O1 1.762426 1_445
Al1 O6 1.762380 1_556
Al1 O20 1.764781 1_555
Al1 O3 1.765333 1_555
Al1 O23 1.766116 1_556
Al2 O19 1.758226 1_555
Al2 O4 1.759341 1_455
Al2 O10 1.761193 1_545
Al2 O13 1.762426 1_445
Al3 O18 1.762380 1_555
Al3 O8 1.764781 1_555
Al3 O15 1.765333 1_555
Al3 O11 1.766116 1_555
Ga0 O21 1.837701 1_555
Ga0 O5 1.839570 1_555
Ga0 O12 1.839851 1_555
Ga0 O2 1.841990 1_555
Ga1 O9 1.837701 1_554
Ga1 O17 1.839570 1_555
Ga1 O0 1.839851 1_555
Ga1 O14 1.841990 1_554
Br0 Na0 2.894860 1_545
Br0 Na3 2.896440 1_545
Br0 Na1 2.896450 1_555
Br0 Na2 2.897471 1_555
Br1 Na4 2.894860 1_455
Br1 Na7 2.896440 1_456
Br1 Na5 2.896450 1_556
Br1 Na6 2.897471 1_555
O0 Si0 1.644771 1_565
O1 Si1 1.641870 1_655
O2 Si2 1.645585 1_555
O3 Si0 1.640890 1_556
O4 Si3 1.640176 1_655
O5 Si4 1.644709 1_555
O6 Si5 1.639293 1_554
O7 Si3 1.639587 1_555
O8 Si2 1.640281 1_555
O9 Si5 1.643531 1_565
O10 Si1 1.641169 1_555
O11 Si4 1.641196 1_555
O12 Si1 1.644771 1_655
O13 Si0 1.641870 1_566
O14 Si4 1.645585 1_555
O15 Si1 1.640890 1_555
O16 Si5 1.640176 1_564
O17 Si2 1.644709 1_555
O18 Si3 1.639293 1_555
O19 Si5 1.639587 1_555
O20 Si4 1.640281 1_555
O21 Si3 1.643531 1_655
O22 Si0 1.641169 1_555
O23 Si2 1.641196 1_555
