# generated using pymatgen
data_Zr2HgAu
_symmetry_space_group_name_H-M   'P 1'
_cell_length_a   11.68885002
_cell_length_b   11.68885002
_cell_length_c   11.68885002
_cell_angle_alpha   121.73704006
_cell_angle_beta   118.82304847
_cell_angle_gamma   89.53431114
_symmetry_Int_Tables_number   1
_chemical_formula_structural   Zr2HgAu
_chemical_formula_sum   'Zr2 Hg1 Au1'
_cell_volume   1123.53809542
_cell_formula_units_Z   1
loop_
 _symmetry_equiv_pos_site_id
 _symmetry_equiv_pos_as_xyz
  1  'x, y, z'
loop_
 _atom_site_type_symbol
 _atom_site_label
 _atom_site_symmetry_multiplicity
 _atom_site_fract_x
 _atom_site_fract_y
 _atom_site_fract_z
 _atom_site_occupancy
  Zr  Zr0  1  0.00000000  0.23036200  0.23036200  1
  Zr  Zr1  1  0.00000000  0.76963800  0.76963800  1
  Hg  Hg0  1  0.00000000  0.50000000  0.50000000  1
  Au  Au0  1  0.00000000  0.00000000  0.00000000  1
loop_
_geom_bond_atom_site_label_1
_geom_bond_atom_site_label_2
_geom_bond_distance
_geom_bond_site_symmetry_2
Hg0 Zr1 3.068649 1_555
Hg0 Zr0 3.068649 1_555
Au0 Zr0 2.621663 1_555
Au0 Zr1 2.621663 1_544
