# generated using pymatgen
data_NbAu2
_symmetry_space_group_name_H-M   'P 1'
_cell_length_a   9.35293816
_cell_length_b   9.35293661
_cell_length_c   5.48619662
_cell_angle_alpha   90.00000000
_cell_angle_beta   90.00000000
_cell_angle_gamma   120.00000547
_symmetry_Int_Tables_number   1
_chemical_formula_structural   NbAu2
_chemical_formula_sum   'Nb8 Au16'
_cell_volume   415.62152343
_cell_formula_units_Z   8
loop_
 _symmetry_equiv_pos_site_id
 _symmetry_equiv_pos_as_xyz
  1  'x, y, z'
loop_
 _atom_site_type_symbol
 _atom_site_label
 _atom_site_symmetry_multiplicity
 _atom_site_fract_x
 _atom_site_fract_y
 _atom_site_fract_z
 _atom_site_occupancy
  Nb  Nb0_0  1  0.00000000  0.00000000  0.00000000  1
  Nb  Nb0_1  1  0.00000000  0.00000000  0.50000000  1
  Nb  Nb0_2  1  0.00000000  0.50000000  0.00000000  1
  Nb  Nb0_3  1  0.00000000  0.50000000  0.50000000  1
  Nb  Nb0_4  1  0.50000000  0.00000000  0.00000000  1
  Nb  Nb0_5  1  0.50000000  0.00000000  0.50000000  1
  Nb  Nb0_6  1  0.50000000  0.50000000  0.00000000  1
  Nb  Nb0_7  1  0.50000000  0.50000000  0.50000000  1
  Au  Au0_0  1  0.33333350  0.16666650  0.25000000  1
  Au  Au0_1  1  0.33333350  0.16666650  0.75000000  1
  Au  Au0_2  1  0.33333350  0.66666650  0.25000000  1
  Au  Au0_3  1  0.33333350  0.66666650  0.75000000  1
  Au  Au0_4  1  0.83333350  0.16666650  0.25000000  1
  Au  Au0_5  1  0.83333350  0.16666650  0.75000000  1
  Au  Au0_6  1  0.83333350  0.66666650  0.25000000  1
  Au  Au0_7  1  0.83333350  0.66666650  0.75000000  1
  Au  Au1_0  1  0.16666650  0.33333350  0.25000000  1
  Au  Au1_1  1  0.16666650  0.33333350  0.75000000  1
  Au  Au1_2  1  0.16666650  0.83333350  0.25000000  1
  Au  Au1_3  1  0.16666650  0.83333350  0.75000000  1
  Au  Au1_4  1  0.66666650  0.33333350  0.25000000  1
  Au  Au1_5  1  0.66666650  0.33333350  0.75000000  1
  Au  Au1_6  1  0.66666650  0.83333350  0.25000000  1
  Au  Au1_7  1  0.66666650  0.83333350  0.75000000  1
loop_
_geom_bond_atom_site_label_1
_geom_bond_atom_site_label_2
_geom_bond_distance
_geom_bond_site_symmetry_2
Nb0_0 Nb0_1 2.743098 1_555
Nb0_0 Nb0_1 2.743098 1_554
Nb0_2 Nb0_3 2.743098 1_554
Nb0_2 Nb0_3 2.743098 1_555
Nb0_4 Nb0_5 2.743098 1_554
Nb0_4 Nb0_5 2.743098 1_555
Nb0_6 Nb0_7 2.743098 1_555
Nb0_6 Nb0_7 2.743098 1_554
Au0_0 Au1_2 2.699957 1_545
Au0_0 Au1_4 2.699958 1_555
Au0_0 Au1_0 2.699966 1_555
Au0_0 Au0_1 2.743098 1_555
Au0_0 Au0_1 2.743098 1_554
Au0_0 Nb0_4 3.028353 1_555
Au0_0 Nb0_5 3.028353 1_555
Au0_0 Nb0_7 3.028356 1_555
Au0_0 Nb0_6 3.028356 1_555
Au0_0 Nb0_0 3.028356 1_555
Au0_0 Nb0_1 3.028356 1_555
Au0_1 Au1_3 2.699957 1_545
Au0_1 Au1_5 2.699958 1_555
Au0_1 Au1_1 2.699966 1_555
Au0_1 Nb0_5 3.028353 1_555
Au0_1 Nb0_4 3.028353 1_556
Au0_1 Nb0_7 3.028356 1_555
Au0_1 Nb0_6 3.028356 1_556
Au0_1 Nb0_1 3.028356 1_555
Au0_1 Nb0_0 3.028356 1_556
Au0_2 Au1_0 2.699957 1_555
Au0_2 Au1_6 2.699958 1_555
Au0_2 Au1_2 2.699966 1_555
Au0_2 Au0_3 2.743098 1_555
Au0_2 Au0_3 2.743098 1_554
Au0_2 Nb0_7 3.028353 1_555
Au0_2 Nb0_6 3.028353 1_555
Au0_2 Nb0_5 3.028356 1_565
Au0_2 Nb0_4 3.028356 1_565
Au0_2 Nb0_2 3.028356 1_555
Au0_2 Nb0_3 3.028356 1_555
Au0_3 Au1_1 2.699957 1_555
Au0_3 Au1_7 2.699958 1_555
Au0_3 Au1_3 2.699966 1_555
Au0_3 Nb0_7 3.028353 1_555
Au0_3 Nb0_6 3.028353 1_556
Au0_3 Nb0_5 3.028356 1_565
Au0_3 Nb0_4 3.028356 1_566
Au0_3 Nb0_3 3.028356 1_555
Au0_3 Nb0_2 3.028356 1_556
Au0_4 Au1_6 2.699957 1_545
Au0_4 Au1_0 2.699958 1_655
Au0_4 Au1_4 2.699966 1_555
Au0_4 Au0_5 2.743098 1_555
Au0_4 Au0_5 2.743098 1_554
Au0_4 Nb0_0 3.028353 1_655
Au0_4 Nb0_1 3.028353 1_655
Au0_4 Nb0_3 3.028356 1_655
Au0_4 Nb0_2 3.028356 1_655
Au0_4 Nb0_5 3.028356 1_555
Au0_4 Nb0_4 3.028356 1_555
Au0_5 Au1_7 2.699957 1_545
Au0_5 Au1_1 2.699958 1_655
Au0_5 Au1_5 2.699966 1_555
Au0_5 Nb0_1 3.028353 1_655
Au0_5 Nb0_0 3.028353 1_656
Au0_5 Nb0_3 3.028356 1_655
Au0_5 Nb0_2 3.028356 1_656
Au0_5 Nb0_5 3.028356 1_555
Au0_5 Nb0_4 3.028356 1_556
Au0_6 Au1_4 2.699957 1_555
Au0_6 Au1_2 2.699958 1_655
Au0_6 Au1_6 2.699966 1_555
Au0_6 Au0_7 2.743098 1_555
Au0_6 Au0_7 2.743098 1_554
Au0_6 Nb0_3 3.028353 1_655
Au0_6 Nb0_2 3.028353 1_655
Au0_6 Nb0_1 3.028356 1_665
Au0_6 Nb0_0 3.028356 1_665
Au0_6 Nb0_6 3.028356 1_555
Au0_6 Nb0_7 3.028356 1_555
Au0_7 Au1_5 2.699957 1_555
Au0_7 Au1_3 2.699958 1_655
Au0_7 Au1_7 2.699966 1_555
Au0_7 Nb0_3 3.028353 1_655
Au0_7 Nb0_2 3.028353 1_656
Au0_7 Nb0_1 3.028356 1_665
Au0_7 Nb0_0 3.028356 1_666
Au0_7 Nb0_7 3.028356 1_555
Au0_7 Nb0_6 3.028356 1_556
Au1_0 Au1_1 2.743098 1_555
Au1_0 Au1_1 2.743098 1_554
Au1_0 Nb0_3 3.028353 1_555
Au1_0 Nb0_2 3.028353 1_555
Au1_0 Nb0_1 3.028356 1_555
Au1_0 Nb0_0 3.028356 1_555
Au1_0 Nb0_6 3.028356 1_555
Au1_0 Nb0_7 3.028356 1_555
Au1_1 Nb0_3 3.028353 1_555
Au1_1 Nb0_2 3.028353 1_556
Au1_1 Nb0_1 3.028356 1_555
Au1_1 Nb0_0 3.028356 1_556
Au1_1 Nb0_7 3.028356 1_555
Au1_1 Nb0_6 3.028356 1_556
Au1_2 Au1_3 2.743098 1_555
Au1_2 Au1_3 2.743098 1_554
Au1_2 Nb0_1 3.028353 1_565
Au1_2 Nb0_0 3.028353 1_565
Au1_2 Nb0_3 3.028356 1_555
Au1_2 Nb0_2 3.028356 1_555
Au1_2 Nb0_4 3.028356 1_565
Au1_2 Nb0_5 3.028356 1_565
Au1_3 Nb0_1 3.028353 1_565
Au1_3 Nb0_0 3.028353 1_566
Au1_3 Nb0_3 3.028356 1_555
Au1_3 Nb0_2 3.028356 1_556
Au1_3 Nb0_5 3.028356 1_565
Au1_3 Nb0_4 3.028356 1_566
Au1_4 Au1_5 2.743098 1_555
Au1_4 Au1_5 2.743098 1_554
Au1_4 Nb0_7 3.028353 1_555
Au1_4 Nb0_6 3.028353 1_555
Au1_4 Nb0_4 3.028356 1_555
Au1_4 Nb0_5 3.028356 1_555
Au1_4 Nb0_2 3.028356 1_655
Au1_4 Nb0_3 3.028356 1_655
Au1_5 Nb0_7 3.028353 1_555
Au1_5 Nb0_6 3.028353 1_556
Au1_5 Nb0_5 3.028356 1_555
Au1_5 Nb0_4 3.028356 1_556
Au1_5 Nb0_3 3.028356 1_655
Au1_5 Nb0_2 3.028356 1_656
Au1_6 Au1_7 2.743098 1_555
Au1_6 Au1_7 2.743098 1_554
Au1_6 Nb0_5 3.028353 1_565
Au1_6 Nb0_4 3.028353 1_565
Au1_6 Nb0_6 3.028356 1_555
Au1_6 Nb0_7 3.028356 1_555
Au1_6 Nb0_0 3.028356 1_665
Au1_6 Nb0_1 3.028356 1_665
Au1_7 Nb0_5 3.028353 1_565
Au1_7 Nb0_4 3.028353 1_566
Au1_7 Nb0_7 3.028356 1_555
Au1_7 Nb0_6 3.028356 1_556
Au1_7 Nb0_1 3.028356 1_665
Au1_7 Nb0_0 3.028356 1_666
