# generated using pymatgen
data_HCSN
_symmetry_space_group_name_H-M   'P 1'
_cell_length_a   7.87024269
_cell_length_b   9.03143690
_cell_length_c   11.57985356
_cell_angle_alpha   78.46872927
_cell_angle_beta   76.67645000
_cell_angle_gamma   78.65339552
_symmetry_Int_Tables_number   1
_chemical_formula_structural   HCSN
_chemical_formula_sum   'H12 C12 S12 N12'
_cell_volume   774.90925546
_cell_formula_units_Z   12
loop_
 _symmetry_equiv_pos_site_id
 _symmetry_equiv_pos_as_xyz
  1  'x, y, z'
loop_
 _atom_site_type_symbol
 _atom_site_label
 _atom_site_symmetry_multiplicity
 _atom_site_fract_x
 _atom_site_fract_y
 _atom_site_fract_z
 _atom_site_occupancy
  H  H0  1  0.73298700  0.52049600  0.14963500  1
  H  H1  1  0.26701300  0.47950400  0.85036500  1
  H  H2  1  0.23116700  0.34397200  0.30155300  1
  H  H3  1  0.76883300  0.65602800  0.69844700  1
  H  H4  1  0.74752800  0.06305600  0.15251500  1
  H  H5  1  0.25247200  0.93694400  0.84748500  1
  H  H6  1  0.25028800  0.04000200  0.61364800  1
  H  H7  1  0.74971200  0.95999800  0.38635200  1
  H  H8  1  0.26967800  0.49270700  0.60411800  1
  H  H9  1  0.73032200  0.50729300  0.39588200  1
  H  H10  1  0.23425700  0.63769500  0.16378900  1
  H  H11  1  0.76574300  0.36230500  0.83621100  1
  C  C0  1  0.25560200  0.26199000  0.63096800  1
  C  C1  1  0.74439800  0.73801000  0.36903200  1
  C  C2  1  0.24613500  0.44269200  0.44329800  1
  C  C3  1  0.75386500  0.55730800  0.55670200  1
  C  C4  1  0.24245300  0.80751200  0.01522900  1
  C  C5  1  0.75754700  0.19248800  0.98477100  1
  C  C6  1  0.25035000  0.53462800  0.01741500  1
  C  C7  1  0.74965000  0.46537200  0.98258500  1
  C  C8  1  0.73986400  0.28658900  0.17257100  1
  C  C9  1  0.26013600  0.71341100  0.82742900  1
  C  C10  1  0.24112300  0.17128100  0.44772700  1
  C  C11  1  0.75887700  0.82871900  0.55227300  1
  S  S0  1  0.26558800  0.22711000  0.77541100  1
  S  S1  1  0.73441200  0.77289000  0.22458900  1
  S  S2  1  0.24380700  0.03112700  0.37620500  1
  S  S3  1  0.75619300  0.96887300  0.62379500  1
  S  S4  1  0.24885300  0.61952700  0.36897900  1
  S  S5  1  0.75114700  0.38047300  0.63102100  1
  S  S6  1  0.23268800  0.94828800  0.08763200  1
  S  S7  1  0.76731200  0.05171200  0.91236800  1
  S  S8  1  0.73332600  0.25314700  0.31973400  1
  S  S9  1  0.26667400  0.74685300  0.68026600  1
  S  S10  1  0.24857300  0.35743600  0.09115900  1
  S  S11  1  0.75142700  0.64256400  0.90884100  1
  N  N0  1  0.24665900  0.15040300  0.56855200  1
  N  N1  1  0.75334100  0.84959700  0.43144800  1
  N  N2  1  0.74773800  0.17322900  0.10774000  1
  N  N3  1  0.25226200  0.82677100  0.89226000  1
  N  N4  1  0.23424100  0.32210700  0.39211800  1
  N  N5  1  0.76575900  0.67789300  0.60788200  1
  N  N6  1  0.24154600  0.65765000  0.07178900  1
  N  N7  1  0.75845400  0.34235000  0.92821100  1
  N  N8  1  0.25736700  0.40571700  0.56299000  1
  N  N9  1  0.74263300  0.59428300  0.43701000  1
  N  N10  1  0.73932100  0.43082100  0.10546000  1
  N  N11  1  0.26067900  0.56917900  0.89454000  1
loop_
_geom_bond_atom_site_label_1
_geom_bond_atom_site_label_2
_geom_bond_distance
_geom_bond_site_symmetry_2
H0 N10 1.028632 1_555
H1 N11 1.028632 1_555
H2 N4 1.032681 1_555
H3 N5 1.032681 1_555
H4 N2 1.026103 1_555
H5 N3 1.026103 1_555
H6 N0 1.027219 1_555
H7 N1 1.027219 1_555
H8 N8 1.026772 1_555
H9 N9 1.026772 1_555
H10 N6 1.034346 1_555
H11 N7 1.034346 1_555
C0 N0 1.373159 1_555
C0 N8 1.377801 1_555
C0 S0 1.656287 1_555
C1 N1 1.373159 1_555
C1 N9 1.377801 1_555
C1 S1 1.656287 1_555
C2 N4 1.367399 1_555
C2 N8 1.378469 1_555
C2 S4 1.657464 1_555
C3 N5 1.367399 1_555
C3 N9 1.378469 1_555
C3 S5 1.657464 1_555
C4 N6 1.381351 1_555
C4 N3 1.385452 1_554
C4 S6 1.638098 1_555
C5 N7 1.381351 1_555
C5 N2 1.385452 1_556
C5 S7 1.638098 1_555
C6 N6 1.365654 1_555
C6 N11 1.381198 1_554
C6 S10 1.657502 1_555
C7 N7 1.365654 1_555
C7 N10 1.381198 1_556
C7 S11 1.657502 1_555
C8 N2 1.369854 1_555
C8 N10 1.376733 1_555
C8 S8 1.660674 1_555
C9 N3 1.369854 1_555
C9 N11 1.376733 1_555
C9 S9 1.660674 1_555
C10 N4 1.381835 1_555
C10 N0 1.383626 1_555
C10 S2 1.639867 1_555
C11 N5 1.381835 1_555
C11 N1 1.383626 1_555
C11 S3 1.639867 1_555
