# generated using pymatgen
data_Ba3Cd(GeO4)2
_symmetry_space_group_name_H-M   'P 1'
_cell_length_a   5.87202122
_cell_length_b   5.87202122
_cell_length_c   7.53352678
_cell_angle_alpha   90.00000000
_cell_angle_beta   90.00000000
_cell_angle_gamma   120.00000815
_symmetry_Int_Tables_number   1
_chemical_formula_structural   Ba3Cd(GeO4)2
_chemical_formula_sum   'Ba3 Cd1 Ge2 O8'
_cell_volume   224.95941069
_cell_formula_units_Z   1
loop_
 _symmetry_equiv_pos_site_id
 _symmetry_equiv_pos_as_xyz
  1  'x, y, z'
loop_
 _atom_site_type_symbol
 _atom_site_label
 _atom_site_symmetry_multiplicity
 _atom_site_fract_x
 _atom_site_fract_y
 _atom_site_fract_z
 _atom_site_occupancy
  Ba  Ba0  1  0.66666700  0.33333300  0.34241616  1
  Ba  Ba1  1  0.33333300  0.66666700  0.65758384  1
  Ba  Ba2  1  0.00000000  -0.00000000  0.00000000  1
  Cd  Cd0  1  0.00000000  -0.00000000  0.50000000  1
  Ge  Ge0  1  0.66666700  0.33333300  0.78531532  1
  Ge  Ge1  1  0.33333300  0.66666700  0.21468468  1
  O  O0  1  0.66666700  0.33333300  0.01363964  1
  O  O1  1  0.33333300  0.66666700  0.98636036  1
  O  O2  1  0.82691505  0.65383011  0.69262427  1
  O  O3  1  0.17308495  0.34616989  0.30737573  1
  O  O4  1  0.82691505  0.17308495  0.69262427  1
  O  O5  1  0.17308495  0.82691505  0.30737573  1
  O  O6  1  0.34616989  0.17308495  0.69262427  1
  O  O7  1  0.65383011  0.82691505  0.30737573  1
loop_
_geom_bond_atom_site_label_1
_geom_bond_atom_site_label_2
_geom_bond_distance
_geom_bond_site_symmetry_2
Ba0 O0 2.476847 1_555
Ba0 O3 2.948574 1_655
Ba0 O7 2.948574 1_545
Ba0 O5 2.948576 1_655
Ba0 O5 2.948576 1_545
Ba0 O7 2.948580 1_555
Ba0 O3 2.948580 1_555
Ba0 O4 3.101124 1_555
Ba0 O2 3.101126 1_555
Ba0 O6 3.101126 1_555
Ba1 O1 2.476847 1_555
Ba1 O2 2.948574 1_455
Ba1 O6 2.948574 1_565
Ba1 O4 2.948576 1_565
Ba1 O4 2.948576 1_455
Ba1 O6 2.948580 1_555
Ba1 O2 2.948580 1_555
Ba1 O5 3.101124 1_555
Ba1 O7 3.101126 1_555
Ba1 O3 3.101126 1_555
Ba2 O2 2.908791 1_444
Ba2 O3 2.908791 1_555
Ba2 O7 2.908791 1_445
Ba2 O6 2.908791 1_554
Ba2 O4 2.908791 1_454
Ba2 O5 2.908791 1_545
Ba2 O1 3.391767 1_544
Ba2 O0 3.391767 1_455
Ba2 O0 3.391771 1_555
Ba2 O1 3.391771 1_554
Ba2 O0 3.391771 1_445
Ba2 O1 3.391771 1_444
Cd0 O7 2.281394 1_445
Cd0 O3 2.281394 1_555
Cd0 O2 2.281394 1_445
Cd0 O6 2.281394 1_555
Cd0 O5 2.281395 1_545
Cd0 O4 2.281395 1_455
Ge0 O0 1.720087 1_556
Ge0 O4 1.773116 1_555
Ge0 O2 1.773120 1_555
Ge0 O6 1.773120 1_555
Ge1 O1 1.720087 1_554
Ge1 O5 1.773116 1_555
Ge1 O3 1.773120 1_555
Ge1 O7 1.773120 1_555
