# generated using pymatgen
data_Sr4Fe2CoNiO12
_symmetry_space_group_name_H-M   'P 1'
_cell_length_a   9.58207042
_cell_length_b   9.58207042
_cell_length_c   9.58207016
_cell_angle_alpha   33.46754193
_cell_angle_beta   33.46754193
_cell_angle_gamma   33.46754369
_symmetry_Int_Tables_number   1
_chemical_formula_structural   Sr4Fe2CoNiO12
_chemical_formula_sum   'Sr4 Fe2 Co1 Ni1 O12'
_cell_volume   238.28247146
_cell_formula_units_Z   1
loop_
 _symmetry_equiv_pos_site_id
 _symmetry_equiv_pos_as_xyz
  1  'x, y, z'
loop_
 _atom_site_type_symbol
 _atom_site_label
 _atom_site_symmetry_multiplicity
 _atom_site_fract_x
 _atom_site_fract_y
 _atom_site_fract_z
 _atom_site_occupancy
  Sr  Sr0  1  0.25098000  0.25098000  0.25098000  1
  Sr  Sr1  1  0.49960200  0.49960200  0.49960200  1
  Sr  Sr2  1  0.00036600  0.00036600  0.00036600  1
  Sr  Sr3  1  0.74913800  0.74913800  0.74913800  1
  Fe  Fe0  1  0.12418500  0.12418500  0.12418500  1
  Fe  Fe1  1  0.87500400  0.87500400  0.87500400  1
  Co  Co0  1  0.62608600  0.62608600  0.62608600  1
  Ni  Ni0  1  0.37523800  0.37523800  0.37523800  1
  O  O0  1  0.00111900  0.49826800  0.00111900  1
  O  O1  1  0.24814300  0.75558400  0.24814300  1
  O  O2  1  0.74745000  0.25770700  0.74745000  1
  O  O3  1  0.50341500  0.98758700  0.50341500  1
  O  O4  1  0.74745000  0.74745000  0.25770700  1
  O  O5  1  0.00111900  0.00111900  0.49826800  1
  O  O6  1  0.50341500  0.50341500  0.98758700  1
  O  O7  1  0.24814300  0.24814300  0.75558400  1
  O  O8  1  0.25770700  0.74745000  0.74745000  1
  O  O9  1  0.49826800  0.00111900  0.00111900  1
  O  O10  1  0.98758700  0.50341500  0.50341500  1
  O  O11  1  0.75558400  0.24814300  0.24814300  1
loop_
_geom_bond_atom_site_label_1
_geom_bond_atom_site_label_2
_geom_bond_distance
_geom_bond_site_symmetry_2
Fe0 O7 1.910949 1_554
Fe0 O1 1.910949 1_545
Fe0 O11 1.910949 1_455
Fe0 O5 1.960961 1_555
Fe0 O0 1.960961 1_555
Fe0 O9 1.960961 1_555
Fe1 O5 1.957603 1_665
Fe1 O0 1.957603 1_656
Fe1 O9 1.957603 1_566
Fe1 O4 1.992977 1_556
Fe1 O8 1.992977 1_655
Fe1 O2 1.992977 1_565
Co0 O6 1.865756 1_555
Co0 O10 1.865756 1_555
Co0 O3 1.865756 1_555
Co0 O4 1.929652 1_555
Co0 O8 1.929652 1_555
Co0 O2 1.929652 1_555
Ni0 O7 1.978143 1_555
Ni0 O11 1.978143 1_555
Ni0 O1 1.978143 1_555
Ni0 O6 2.026880 1_554
Ni0 O3 2.026880 1_545
Ni0 O10 2.026880 1_455
O0 Sr1 2.758976 1_554
O0 Sr1 2.758976 1_455
O0 Sr0 2.777127 1_555
O0 Sr3 2.792394 1_454
O1 Sr1 2.755566 1_555
O1 Sr2 2.756452 1_565
O1 Sr3 2.759314 1_455
O1 Sr3 2.759314 1_554
O2 Sr0 2.759113 1_556
O2 Sr0 2.759113 1_655
O2 Sr2 2.772209 1_656
O2 Sr1 2.773945 1_555
O3 Sr0 2.731757 1_565
O3 Sr3 2.757976 1_555
O3 Sr2 2.760039 1_665
O3 Sr2 2.760039 1_566
O4 Sr0 2.759113 1_565
O4 Sr0 2.759113 1_655
O4 Sr2 2.772209 1_665
O4 Sr1 2.773945 1_555
O5 Sr1 2.758976 1_545
O5 Sr1 2.758976 1_455
O5 Sr0 2.777127 1_555
O5 Sr3 2.792394 1_445
O6 Sr0 2.731757 1_556
O6 Sr3 2.757976 1_555
O6 Sr2 2.760039 1_566
O6 Sr2 2.760039 1_656
O7 Sr1 2.755566 1_555
O7 Sr2 2.756452 1_556
O7 Sr3 2.759314 1_545
O7 Sr3 2.759314 1_455
O8 Sr0 2.759113 1_556
O8 Sr0 2.759113 1_565
O8 Sr2 2.772209 1_566
O8 Sr1 2.773945 1_555
O9 Sr1 2.758976 1_554
O9 Sr1 2.758976 1_545
O9 Sr0 2.777127 1_555
O9 Sr3 2.792394 1_544
O10 Sr0 2.731757 1_655
O10 Sr3 2.757976 1_555
O10 Sr2 2.760039 1_665
O10 Sr2 2.760039 1_656
O11 Sr1 2.755566 1_555
O11 Sr2 2.756452 1_655
O11 Sr3 2.759314 1_545
O11 Sr3 2.759314 1_554
