# generated using pymatgen
data_Li2Sn(H5O4)2
_symmetry_space_group_name_H-M   'P 1'
_cell_length_a   5.94493412
_cell_length_b   6.01634244
_cell_length_c   10.21999939
_cell_angle_alpha   90.00000000
_cell_angle_beta   90.00000000
_cell_angle_gamma   117.96791935
_symmetry_Int_Tables_number   1
_chemical_formula_structural   Li2Sn(H5O4)2
_chemical_formula_sum   'Li4 Sn2 H20 O16'
_cell_volume   322.84539587
_cell_formula_units_Z   2
loop_
 _symmetry_equiv_pos_site_id
 _symmetry_equiv_pos_as_xyz
  1  'x, y, z'
loop_
 _atom_site_type_symbol
 _atom_site_label
 _atom_site_symmetry_multiplicity
 _atom_site_fract_x
 _atom_site_fract_y
 _atom_site_fract_z
 _atom_site_occupancy
  Li  Li0  1  0.65625099  0.82807710  0.93478932  1
  Li  Li1  1  0.84374901  0.17192290  0.43478932  1
  Li  Li2  1  0.34374901  0.17192290  0.06521068  1
  Li  Li3  1  0.15625099  0.82807710  0.56521068  1
  Sn  Sn0  1  0.00000000  0.50000000  -0.00000000  1
  Sn  Sn1  1  0.50000000  0.50000000  0.50000000  1
  H  H0  1  0.60709251  0.43149802  0.87607242  1
  H  H1  1  0.89290749  0.56850198  0.37607242  1
  H  H2  1  0.39290749  0.56850198  0.12392758  1
  H  H3  1  0.10709251  0.43149802  0.62392758  1
  H  H4  1  0.70929513  0.34605557  0.21176683  1
  H  H5  1  0.79070487  0.65394443  0.71176683  1
  H  H6  1  0.29070487  0.65394443  0.78823317  1
  H  H7  1  0.20929513  0.34605557  0.28823317  1
  H  H8  1  0.86857052  0.19553423  0.80092356  1
  H  H9  1  0.63142948  0.80446577  0.30092356  1
  H  H10  1  0.13142948  0.80446577  0.19907644  1
  H  H11  1  0.36857052  0.19553423  0.69907644  1
  H  H12  1  0.85088840  0.85583282  0.12486950  1
  H  H13  1  0.64911160  0.14416718  0.62486950  1
  H  H14  1  0.14911160  0.14416718  0.87513050  1
  H  H15  1  0.35088840  0.85583282  0.37513050  1
  H  H16  1  0.69460363  0.02328215  0.13183308  1
  H  H17  1  0.80539637  0.97671785  0.63183308  1
  H  H18  1  0.30539637  0.97671785  0.86816692  1
  H  H19  1  0.19460363  0.02328215  0.36816692  1
  O  O0  1  0.76949775  0.58705842  0.88245340  1
  O  O1  1  0.73050225  0.41294158  0.38245340  1
  O  O2  1  0.23050225  0.41294158  0.11754660  1
  O  O3  1  0.26949775  0.58705842  0.61754660  1
  O  O4  1  0.69154270  0.28536637  0.12066425  1
  O  O5  1  0.80845730  0.71463363  0.62066425  1
  O  O6  1  0.30845730  0.71463363  0.87933575  1
  O  O7  1  0.19154270  0.28536637  0.37933575  1
  O  O8  1  0.89923859  0.17355856  0.89336540  1
  O  O9  1  0.60076141  0.82644144  0.39336540  1
  O  O10  1  0.10076141  0.82644144  0.10663460  1
  O  O11  1  0.39923859  0.17355856  0.60663460  1
  O  O12  1  0.67838248  0.84860158  0.12987319  1
  O  O13  1  0.82161752  0.15139842  0.62987319  1
  O  O14  1  0.32161752  0.15139842  0.87012681  1
  O  O15  1  0.17838248  0.84860158  0.37012681  1
loop_
_geom_bond_atom_site_label_1
_geom_bond_atom_site_label_2
_geom_bond_distance
_geom_bond_site_symmetry_2
Li0 O6 1.933497 1_555
Li0 O0 1.938469 1_555
Li0 O8 1.941649 1_565
Li0 O12 1.998096 1_556
Li1 O7 1.933497 1_655
Li1 O1 1.938469 1_555
Li1 O9 1.941649 1_545
Li1 O13 1.998096 1_555
Li2 O4 1.933497 1_555
Li2 O2 1.938469 1_555
Li2 O10 1.941649 1_545
Li2 O14 1.998096 1_554
Li3 O5 1.933497 1_455
Li3 O3 1.938469 1_555
Li3 O11 1.941649 1_565
Li3 O15 1.998096 1_555
H0 O0 0.982241 1_555
H1 O1 0.982241 1_555
H2 O2 0.982241 1_555
H3 O3 0.982241 1_555
H4 O4 0.987522 1_555
H5 O5 0.987522 1_555
H6 O6 0.987522 1_555
H7 O7 0.987522 1_555
H8 O8 0.982799 1_555
H9 O9 0.982799 1_555
H10 O10 0.982799 1_555
H11 O11 0.982799 1_555
H12 O12 1.007166 1_555
H12 O10 1.587143 1_655
H13 O13 1.007166 1_555
H13 O11 1.587143 1_555
H14 O14 1.007166 1_555
H14 O8 1.587143 1_455
H15 O15 1.007166 1_555
H15 O9 1.587143 1_555
H16 O12 1.009512 1_545
H16 O4 1.589508 1_555
H17 O13 1.009512 1_565
H17 O5 1.589508 1_555
H18 O14 1.009512 1_565
H18 O6 1.589508 1_555
H19 O15 1.009512 1_545
H19 O7 1.589508 1_555
O0 Sn0 2.066036 1_656
O1 Sn1 2.066036 1_555
O2 Sn0 2.066036 1_555
O3 Sn1 2.066036 1_555
O4 Sn0 2.080835 1_655
O5 Sn1 2.080835 1_555
O6 Sn0 2.080835 1_556
O7 Sn1 2.080835 1_555
O8 Sn0 2.073707 1_656
O9 Sn1 2.073707 1_555
O10 Sn0 2.073707 1_555
O11 Sn1 2.073707 1_555
