# generated using pymatgen
data_Mg30SnBiO32
_symmetry_space_group_name_H-M   'P 1'
_cell_length_a   8.70900900
_cell_length_b   8.70900900
_cell_length_c   8.71980400
_cell_angle_alpha   90.00000000
_cell_angle_beta   90.00000000
_cell_angle_gamma   90.00000000
_symmetry_Int_Tables_number   1
_chemical_formula_structural   Mg30SnBiO32
_chemical_formula_sum   'Mg30 Sn1 Bi1 O32'
_cell_volume   661.36955931
_cell_formula_units_Z   1
loop_
 _symmetry_equiv_pos_site_id
 _symmetry_equiv_pos_as_xyz
  1  'x, y, z'
loop_
 _atom_site_type_symbol
 _atom_site_label
 _atom_site_symmetry_multiplicity
 _atom_site_fract_x
 _atom_site_fract_y
 _atom_site_fract_z
 _atom_site_occupancy
  Mg  Mg0  1  0.00000000  0.50000000  0.00000000  1
  Mg  Mg1  1  0.50000000  0.00000000  0.00000000  1
  Mg  Mg2  1  0.00000000  0.00000000  0.50000000  1
  Mg  Mg3  1  0.00000000  0.50000000  0.50000000  1
  Mg  Mg4  1  0.50000000  0.00000000  0.50000000  1
  Mg  Mg5  1  0.50000000  0.50000000  0.50000000  1
  Mg  Mg6  1  0.24712200  0.24712200  0.00000000  1
  Mg  Mg7  1  0.24712200  0.75287800  0.00000000  1
  Mg  Mg8  1  0.75287800  0.24712200  0.00000000  1
  Mg  Mg9  1  0.75287800  0.75287800  0.00000000  1
  Mg  Mg10  1  0.24946100  0.24946100  0.50000000  1
  Mg  Mg11  1  0.24946100  0.75053900  0.50000000  1
  Mg  Mg12  1  0.75053900  0.24946100  0.50000000  1
  Mg  Mg13  1  0.75053900  0.75053900  0.50000000  1
  Mg  Mg14  1  0.00000000  0.25342500  0.25556200  1
  Mg  Mg15  1  0.00000000  0.74657500  0.25556200  1
  Mg  Mg16  1  0.50000000  0.24353500  0.25760500  1
  Mg  Mg17  1  0.50000000  0.75646500  0.25760500  1
  Mg  Mg18  1  0.00000000  0.25342500  0.74443800  1
  Mg  Mg19  1  0.00000000  0.74657500  0.74443800  1
  Mg  Mg20  1  0.50000000  0.24353500  0.74239500  1
  Mg  Mg21  1  0.50000000  0.75646500  0.74239500  1
  Mg  Mg22  1  0.25342500  0.00000000  0.25556200  1
  Mg  Mg23  1  0.24353500  0.50000000  0.25760500  1
  Mg  Mg24  1  0.74657500  0.00000000  0.25556200  1
  Mg  Mg25  1  0.75646500  0.50000000  0.25760500  1
  Mg  Mg26  1  0.25342500  0.00000000  0.74443800  1
  Mg  Mg27  1  0.24353500  0.50000000  0.74239500  1
  Mg  Mg28  1  0.74657500  0.00000000  0.74443800  1
  Mg  Mg29  1  0.75646500  0.50000000  0.74239500  1
  Sn  Sn0  1  0.00000000  0.00000000  0.00000000  1
  Bi  Bi0  1  0.50000000  0.50000000  0.00000000  1
  O  O0  1  0.00000000  0.00000000  0.27122200  1
  O  O1  1  0.00000000  0.50000000  0.25619000  1
  O  O2  1  0.50000000  0.00000000  0.25619000  1
  O  O3  1  0.50000000  0.50000000  0.27063500  1
  O  O4  1  0.00000000  0.00000000  0.72877800  1
  O  O5  1  0.00000000  0.50000000  0.74381000  1
  O  O6  1  0.50000000  0.00000000  0.74381000  1
  O  O7  1  0.50000000  0.50000000  0.72936500  1
  O  O8  1  0.25005300  0.25005300  0.24883500  1
  O  O9  1  0.25005300  0.74994700  0.24883500  1
  O  O10  1  0.74994700  0.25005300  0.24883500  1
  O  O11  1  0.74994700  0.74994700  0.24883500  1
  O  O12  1  0.25005300  0.25005300  0.75116500  1
  O  O13  1  0.25005300  0.74994700  0.75116500  1
  O  O14  1  0.74994700  0.25005300  0.75116500  1
  O  O15  1  0.74994700  0.74994700  0.75116500  1
  O  O16  1  0.00000000  0.26946700  0.00000000  1
  O  O17  1  0.00000000  0.73053300  0.00000000  1
  O  O18  1  0.50000000  0.23281600  0.00000000  1
  O  O19  1  0.50000000  0.76718400  0.00000000  1
  O  O20  1  0.00000000  0.25279200  0.50000000  1
  O  O21  1  0.00000000  0.74720800  0.50000000  1
  O  O22  1  0.50000000  0.24741000  0.50000000  1
  O  O23  1  0.50000000  0.75259000  0.50000000  1
  O  O24  1  0.26946700  0.00000000  0.00000000  1
  O  O25  1  0.23281600  0.50000000  0.00000000  1
  O  O26  1  0.73053300  0.00000000  0.00000000  1
  O  O27  1  0.76718400  0.50000000  0.00000000  1
  O  O28  1  0.25279200  0.00000000  0.50000000  1
  O  O29  1  0.24741000  0.50000000  0.50000000  1
  O  O30  1  0.74720800  0.00000000  0.50000000  1
  O  O31  1  0.75259000  0.50000000  0.50000000  1
loop_
_geom_bond_atom_site_label_1
_geom_bond_atom_site_label_2
_geom_bond_distance
_geom_bond_site_symmetry_2
Mg0 O17 2.007714 1_555
Mg0 O16 2.007714 1_555
Mg0 O25 2.027597 1_555
Mg0 O27 2.027597 1_455
Mg0 O5 2.233927 1_554
Mg0 O1 2.233927 1_555
Mg1 O24 2.007714 1_555
Mg1 O26 2.007714 1_555
Mg1 O18 2.027597 1_555
Mg1 O19 2.027597 1_545
Mg1 O6 2.233927 1_554
Mg1 O2 2.233927 1_555
Mg2 O4 1.994899 1_555
Mg2 O0 1.994899 1_555
Mg2 O20 2.201568 1_555
Mg2 O28 2.201568 1_555
Mg2 O30 2.201568 1_455
Mg2 O21 2.201568 1_545
Mg3 O1 2.125975 1_555
Mg3 O5 2.125975 1_555
Mg3 O21 2.152937 1_555
Mg3 O20 2.152937 1_555
Mg3 O31 2.154696 1_455
Mg3 O29 2.154696 1_555
Mg4 O2 2.125975 1_555
Mg4 O6 2.125975 1_555
Mg4 O30 2.152937 1_555
Mg4 O28 2.152937 1_555
Mg4 O23 2.154696 1_545
Mg4 O22 2.154696 1_555
Mg5 O7 2.000018 1_555
Mg5 O3 2.000018 1_555
Mg5 O22 2.199809 1_555
Mg5 O29 2.199809 1_555
Mg5 O31 2.199809 1_555
Mg5 O23 2.199809 1_555
Mg6 O24 2.160968 1_555
Mg6 O16 2.160968 1_555
Mg6 O8 2.170093 1_555
Mg6 O12 2.170093 1_554
Mg6 O25 2.205838 1_555
Mg6 O18 2.205838 1_555
Mg7 O17 2.160968 1_555
Mg7 O24 2.160968 1_565
Mg7 O9 2.170093 1_555
Mg7 O13 2.170093 1_554
Mg7 O25 2.205838 1_555
Mg7 O19 2.205838 1_555
Mg8 O26 2.160968 1_555
Mg8 O16 2.160968 1_655
Mg8 O14 2.170093 1_554
Mg8 O10 2.170093 1_555
Mg8 O18 2.205838 1_555
Mg8 O27 2.205838 1_555
Mg9 O26 2.160968 1_565
Mg9 O17 2.160968 1_655
Mg9 O15 2.170093 1_554
Mg9 O11 2.170093 1_555
Mg9 O19 2.205838 1_555
Mg9 O27 2.205838 1_555
Mg10 O20 2.172752 1_555
Mg10 O28 2.172752 1_555
Mg10 O29 2.182020 1_555
Mg10 O22 2.182020 1_555
Mg10 O12 2.190122 1_555
Mg10 O8 2.190122 1_555
Mg11 O21 2.172752 1_555
Mg11 O28 2.172752 1_565
Mg11 O29 2.182020 1_555
Mg11 O23 2.182020 1_555
Mg11 O9 2.190122 1_555
Mg11 O13 2.190122 1_555
Mg12 O30 2.172752 1_555
Mg12 O20 2.172752 1_655
Mg12 O22 2.182020 1_555
Mg12 O31 2.182020 1_555
Mg12 O10 2.190122 1_555
Mg12 O14 2.190122 1_555
Mg13 O30 2.172752 1_565
Mg13 O21 2.172752 1_655
Mg13 O31 2.182020 1_555
Mg13 O23 2.182020 1_555
Mg13 O11 2.190122 1_555
Mg13 O15 2.190122 1_555
Mg14 O20 2.131459 1_555
Mg14 O1 2.147431 1_555
Mg14 O8 2.178702 1_555
Mg14 O10 2.178702 1_455
Mg14 O0 2.211301 1_555
Mg14 O16 2.232826 1_555
Mg15 O21 2.131459 1_555
Mg15 O1 2.147431 1_555
Mg15 O9 2.178702 1_555
Mg15 O11 2.178702 1_455
Mg15 O0 2.211301 1_565
Mg15 O17 2.232826 1_555
Mg16 O22 2.113906 1_555
Mg16 O2 2.120984 1_555
Mg16 O10 2.178873 1_555
Mg16 O8 2.178873 1_555
Mg16 O3 2.236444 1_555
Mg16 O18 2.248204 1_555
Mg17 O23 2.113906 1_555
Mg17 O2 2.120984 1_565
Mg17 O11 2.178873 1_555
Mg17 O9 2.178873 1_555
Mg17 O3 2.236444 1_555
Mg17 O19 2.248204 1_555
Mg18 O20 2.131459 1_555
Mg18 O5 2.147431 1_555
Mg18 O12 2.178702 1_555
Mg18 O14 2.178702 1_455
Mg18 O4 2.211301 1_555
Mg18 O16 2.232826 1_556
Mg19 O21 2.131459 1_555
Mg19 O5 2.147431 1_555
Mg19 O13 2.178702 1_555
Mg19 O15 2.178702 1_455
Mg19 O4 2.211301 1_565
Mg19 O17 2.232826 1_556
Mg20 O22 2.113906 1_555
Mg20 O6 2.120984 1_555
Mg20 O14 2.178873 1_555
Mg20 O12 2.178873 1_555
Mg20 O7 2.236444 1_555
Mg20 O18 2.248204 1_556
Mg21 O23 2.113906 1_555
Mg21 O6 2.120984 1_565
Mg21 O15 2.178873 1_555
Mg21 O13 2.178873 1_555
Mg21 O7 2.236444 1_555
Mg21 O19 2.248204 1_556
Mg22 O28 2.131459 1_555
Mg22 O2 2.147431 1_555
Mg22 O8 2.178702 1_555
Mg22 O9 2.178702 1_545
Mg22 O0 2.211301 1_555
Mg22 O24 2.232826 1_555
Mg23 O29 2.113906 1_555
Mg23 O1 2.120984 1_555
Mg23 O9 2.178873 1_555
Mg23 O8 2.178873 1_555
Mg23 O3 2.236444 1_555
Mg23 O25 2.248204 1_555
Mg24 O30 2.131459 1_555
Mg24 O2 2.147431 1_555
Mg24 O10 2.178702 1_555
Mg24 O11 2.178702 1_545
Mg24 O0 2.211301 1_655
Mg24 O26 2.232826 1_555
Mg25 O31 2.113906 1_555
Mg25 O1 2.120984 1_655
Mg25 O11 2.178873 1_555
Mg25 O10 2.178873 1_555
Mg25 O3 2.236444 1_555
Mg25 O27 2.248204 1_555
Mg26 O28 2.131459 1_555
Mg26 O6 2.147431 1_555
Mg26 O12 2.178702 1_555
Mg26 O13 2.178702 1_545
Mg26 O4 2.211301 1_555
Mg26 O24 2.232826 1_556
Mg27 O29 2.113906 1_555
Mg27 O5 2.120984 1_555
Mg27 O13 2.178873 1_555
Mg27 O12 2.178873 1_555
Mg27 O7 2.236444 1_555
Mg27 O25 2.248204 1_556
Mg28 O30 2.131459 1_555
Mg28 O6 2.147431 1_555
Mg28 O14 2.178702 1_555
Mg28 O15 2.178702 1_545
Mg28 O4 2.211301 1_655
Mg28 O26 2.232826 1_556
Mg29 O31 2.113906 1_555
Mg29 O5 2.120984 1_655
Mg29 O15 2.178873 1_555
Mg29 O14 2.178873 1_555
Mg29 O7 2.236444 1_555
Mg29 O27 2.248204 1_556
Bi0 O19 2.326908 1_555
Bi0 O27 2.326908 1_555
Bi0 O25 2.326908 1_555
Bi0 O18 2.326908 1_555
Bi0 O3 2.359884 1_555
Bi0 O7 2.359884 1_554
O0 Sn0 2.365003 1_555
O4 Sn0 2.365003 1_556
O16 Sn0 2.346791 1_555
O17 Sn0 2.346791 1_565
O24 Sn0 2.346791 1_555
O26 Sn0 2.346791 1_655
