# generated using pymatgen
data_MnPb2WO6
_symmetry_space_group_name_H-M   'P 1'
_cell_length_a   5.92744900
_cell_length_b   8.16926000
_cell_length_c   11.82941100
_cell_angle_alpha   90.00000000
_cell_angle_beta   90.00000000
_cell_angle_gamma   90.00000000
_symmetry_Int_Tables_number   1
_chemical_formula_structural   MnPb2WO6
_chemical_formula_sum   'Mn4 Pb8 W4 O24'
_cell_volume   572.81405490
_cell_formula_units_Z   4
loop_
 _symmetry_equiv_pos_site_id
 _symmetry_equiv_pos_as_xyz
  1  'x, y, z'
loop_
 _atom_site_type_symbol
 _atom_site_label
 _atom_site_symmetry_multiplicity
 _atom_site_fract_x
 _atom_site_fract_y
 _atom_site_fract_z
 _atom_site_occupancy
  Mn  Mn0  1  0.23772800  0.25000000  0.11710100  1
  Mn  Mn1  1  0.26227200  0.25000000  0.61710100  1
  Mn  Mn2  1  0.73772800  0.75000000  0.38289900  1
  Mn  Mn3  1  0.76227200  0.75000000  0.88289900  1
  Pb  Pb0  1  0.70161200  0.99387800  0.14714000  1
  Pb  Pb1  1  0.70161200  0.50612200  0.14714000  1
  Pb  Pb2  1  0.79838800  0.50612200  0.64714000  1
  Pb  Pb3  1  0.79838800  0.99387800  0.64714000  1
  Pb  Pb4  1  0.29838800  0.00612200  0.85286000  1
  Pb  Pb5  1  0.29838800  0.49387800  0.85286000  1
  Pb  Pb6  1  0.20161200  0.49387800  0.35286000  1
  Pb  Pb7  1  0.20161200  0.00612200  0.35286000  1
  W  W0  1  0.24802900  0.75000000  0.11897700  1
  W  W1  1  0.25197100  0.75000000  0.61897700  1
  W  W2  1  0.75197100  0.25000000  0.88102300  1
  W  W3  1  0.74802900  0.25000000  0.38102300  1
  O  O0  1  0.47795600  0.75000000  0.00384500  1
  O  O1  1  0.02204400  0.75000000  0.50384500  1
  O  O2  1  0.05360200  0.75000000  0.25361400  1
  O  O3  1  0.44639800  0.75000000  0.75361400  1
  O  O4  1  0.52204400  0.25000000  0.99615500  1
  O  O5  1  0.97795600  0.25000000  0.49615500  1
  O  O6  1  0.98954900  0.25000000  0.98166500  1
  O  O7  1  0.51045100  0.25000000  0.48166400  1
  O  O8  1  0.01045100  0.75000000  0.01833500  1
  O  O9  1  0.48954900  0.75000000  0.51833500  1
  O  O10  1  0.94639800  0.25000000  0.74638600  1
  O  O11  1  0.55360200  0.25000000  0.24638600  1
  O  O12  1  0.71677100  0.01229500  0.86105700  1
  O  O13  1  0.71677100  0.48770500  0.86105700  1
  O  O14  1  0.78322900  0.48770500  0.36105700  1
  O  O15  1  0.78322900  0.01229500  0.36105700  1
  O  O16  1  0.03773100  0.25000000  0.26994500  1
  O  O17  1  0.46226900  0.25000000  0.76994500  1
  O  O18  1  0.28322900  0.98770500  0.13894300  1
  O  O19  1  0.28322900  0.51229500  0.13894300  1
  O  O20  1  0.21677100  0.51229500  0.63894300  1
  O  O21  1  0.21677100  0.98770500  0.63894300  1
  O  O22  1  0.53773100  0.75000000  0.23005500  1
  O  O23  1  0.96226900  0.75000000  0.73005500  1
loop_
_geom_bond_atom_site_label_1
_geom_bond_atom_site_label_2
_geom_bond_distance
_geom_bond_site_symmetry_2
Mn0 O16 2.162037 1_555
Mn0 O6 2.175053 1_454
Mn0 O19 2.175064 1_555
Mn0 O18 2.175064 1_545
Mn0 O4 2.210676 1_554
Mn0 O11 2.417554 1_555
Mn1 O17 2.162037 1_555
Mn1 O7 2.175062 1_555
Mn1 O20 2.175064 1_555
Mn1 O21 2.175064 1_545
Mn1 O5 2.210676 1_455
Mn1 O10 2.417554 1_455
Mn2 O22 2.162037 1_555
Mn2 O9 2.175053 1_555
Mn2 O15 2.175064 1_565
Mn2 O14 2.175064 1_555
Mn2 O1 2.210676 1_655
Mn2 O2 2.417554 1_655
Mn3 O23 2.162037 1_555
Mn3 O8 2.175053 1_656
Mn3 O12 2.175064 1_565
Mn3 O13 2.175064 1_555
Mn3 O0 2.210676 1_556
Mn3 O3 2.417554 1_555
O0 W0 1.926742 1_555
O1 W1 1.926742 1_555
O2 W0 1.965903 1_555
O2 Pb7 2.554575 1_565
O2 Pb6 2.554575 1_555
O3 W1 1.965903 1_555
O3 Pb4 2.554575 1_565
O3 Pb5 2.554575 1_555
O4 W2 1.926742 1_555
O5 W3 1.926742 1_555
O6 W2 1.844042 1_555
O7 W3 1.844034 1_555
O8 W0 1.844042 1_555
O9 W1 1.844042 1_555
O10 W2 1.965903 1_555
O10 Pb2 2.554575 1_555
O10 Pb3 2.554575 1_545
O11 W3 1.965903 1_555
O11 Pb1 2.554575 1_555
O11 Pb0 2.554575 1_545
O12 W2 1.967280 1_555
O12 Pb4 2.482351 1_555
O12 Pb3 2.580731 1_545
O13 W2 1.967280 1_555
O13 Pb5 2.482351 1_555
O13 Pb2 2.580731 1_555
O14 W3 1.967280 1_555
O14 Pb6 2.482351 1_655
O14 Pb1 2.580731 1_555
O15 W3 1.967280 1_555
O15 Pb7 2.482351 1_655
O15 Pb0 2.580731 1_545
O16 W3 2.162248 1_455
O16 Pb6 2.423823 1_555
O16 Pb7 2.423823 1_555
O17 W2 2.162248 1_555
O17 Pb5 2.423823 1_555
O17 Pb4 2.423823 1_555
O18 W0 1.967280 1_555
O18 Pb0 2.482351 1_555
O18 Pb7 2.580731 1_565
O19 W0 1.967280 1_555
O19 Pb1 2.482351 1_555
O19 Pb6 2.580731 1_555
O20 W1 1.967280 1_555
O20 Pb2 2.482351 1_455
O20 Pb5 2.580731 1_555
O21 W1 1.967280 1_555
O21 Pb3 2.482351 1_455
O21 Pb4 2.580731 1_565
O22 W0 2.162248 1_555
O22 Pb0 2.423823 1_555
O22 Pb1 2.423823 1_555
O23 W1 2.162248 1_655
O23 Pb3 2.423823 1_555
O23 Pb2 2.423823 1_555
