# generated using pymatgen
data_Ba2Na(SnAs)6
_symmetry_space_group_name_H-M   'P 1'
_cell_length_a   7.31321182
_cell_length_b   7.31321182
_cell_length_c   9.81866390
_cell_angle_alpha   82.81761530
_cell_angle_beta   82.81761530
_cell_angle_gamma   119.93315108
_symmetry_Int_Tables_number   1
_chemical_formula_structural   Ba2Na(SnAs)6
_chemical_formula_sum   'Ba2 Na1 Sn6 As6'
_cell_volume   440.65611916
_cell_formula_units_Z   1
loop_
 _symmetry_equiv_pos_site_id
 _symmetry_equiv_pos_as_xyz
  1  'x, y, z'
loop_
 _atom_site_type_symbol
 _atom_site_label
 _atom_site_symmetry_multiplicity
 _atom_site_fract_x
 _atom_site_fract_y
 _atom_site_fract_z
 _atom_site_occupancy
  Ba  Ba0  1  0.66658200  0.33341800  0.00000000  1
  Ba  Ba1  1  0.33341800  0.66658200  0.00000000  1
  Na  Na0  1  0.00000000  0.00000000  0.00000000  1
  Sn  Sn0  1  0.54049100  0.87515800  0.37428500  1
  Sn  Sn1  1  0.20994700  0.20994700  0.37366500  1
  Sn  Sn2  1  0.87515800  0.54049100  0.37428500  1
  Sn  Sn3  1  0.45950900  0.12484200  0.62571500  1
  Sn  Sn4  1  0.12484200  0.45950900  0.62571500  1
  Sn  Sn5  1  0.79005300  0.79005300  0.62633500  1
  As  As0  1  0.40538400  0.40538400  0.76940400  1
  As  As1  1  0.07669000  0.74837800  0.76980100  1
  As  As2  1  0.74837800  0.07669000  0.76980100  1
  As  As3  1  0.59461600  0.59461600  0.23059600  1
  As  As4  1  0.25162200  0.92331000  0.23019900  1
  As  As5  1  0.92331000  0.25162200  0.23019900  1
loop_
_geom_bond_atom_site_label_1
_geom_bond_atom_site_label_2
_geom_bond_distance
_geom_bond_site_symmetry_2
As0 Sn3 2.784075 1_555
As0 Sn4 2.784075 1_555
As0 Sn5 2.815471 1_555
As0 Na0 3.252131 1_556
As0 Ba0 3.292266 1_556
As0 Ba1 3.292266 1_556
As1 Sn5 2.782085 1_455
As1 Sn3 2.786160 1_565
As1 Sn4 2.820209 1_555
As1 Na0 3.250000 1_566
As1 Ba0 3.289338 1_456
As1 Ba1 3.291728 1_556
As2 Sn5 2.782085 1_545
As2 Sn4 2.786160 1_655
As2 Sn3 2.820209 1_555
As2 Na0 3.250000 1_656
As2 Ba1 3.289338 1_546
As2 Ba0 3.291728 1_556
As3 Sn0 2.784075 1_555
As3 Sn2 2.784075 1_555
As3 Sn1 2.815471 1_555
As3 Na0 3.252131 1_665
As3 Ba1 3.292266 1_555
As3 Ba0 3.292266 1_555
As4 Sn1 2.782085 1_565
As4 Sn2 2.786160 1_455
As4 Sn0 2.820209 1_555
As4 Na0 3.250000 1_565
As4 Ba0 3.289338 1_565
As4 Ba1 3.291728 1_555
As5 Sn1 2.782085 1_655
As5 Sn0 2.786160 1_545
As5 Sn2 2.820209 1_555
As5 Na0 3.250000 1_655
As5 Ba1 3.289338 1_655
As5 Ba0 3.291728 1_555
