# generated using pymatgen
data_SrGePbO4
_symmetry_space_group_name_H-M   'P 1'
_cell_length_a   6.06871900
_cell_length_b   7.41987000
_cell_length_c   10.06289100
_cell_angle_alpha   90.00000000
_cell_angle_beta   90.00000000
_cell_angle_gamma   90.00000000
_symmetry_Int_Tables_number   1
_chemical_formula_structural   SrGePbO4
_chemical_formula_sum   'Sr4 Ge4 Pb4 O16'
_cell_volume   453.12298597
_cell_formula_units_Z   4
loop_
 _symmetry_equiv_pos_site_id
 _symmetry_equiv_pos_as_xyz
  1  'x, y, z'
loop_
 _atom_site_type_symbol
 _atom_site_label
 _atom_site_symmetry_multiplicity
 _atom_site_fract_x
 _atom_site_fract_y
 _atom_site_fract_z
 _atom_site_occupancy
  Sr  Sr0  1  0.48098000  0.74889200  0.79103800  1
  Sr  Sr1  1  0.98098000  0.75110800  0.20896200  1
  Sr  Sr2  1  0.01902000  0.25110800  0.29103800  1
  Sr  Sr3  1  0.51902000  0.24889200  0.70896200  1
  Ge  Ge0  1  0.52401400  0.96237400  0.08721100  1
  Ge  Ge1  1  0.02401400  0.53762600  0.91278900  1
  Ge  Ge2  1  0.97598600  0.03762600  0.58721100  1
  Ge  Ge3  1  0.47598600  0.46237400  0.41278900  1
  Pb  Pb0  1  0.43436300  0.93824600  0.40887500  1
  Pb  Pb1  1  0.93436300  0.56175400  0.59112500  1
  Pb  Pb2  1  0.06563700  0.06175400  0.90887500  1
  Pb  Pb3  1  0.56563700  0.43824600  0.09112500  1
  O  O0  1  0.45517000  0.06118100  0.93099000  1
  O  O1  1  0.95517000  0.43881900  0.06901000  1
  O  O2  1  0.04483000  0.93881900  0.43099000  1
  O  O3  1  0.54483000  0.56118100  0.56901000  1
  O  O4  1  0.75170300  0.05142900  0.17408700  1
  O  O5  1  0.25170300  0.44857100  0.82591300  1
  O  O6  1  0.74829700  0.94857100  0.67408700  1
  O  O7  1  0.24829700  0.55142900  0.32591300  1
  O  O8  1  0.60526800  0.73655700  0.04910600  1
  O  O9  1  0.10526800  0.76344300  0.95089400  1
  O  O10  1  0.89473200  0.26344300  0.54910600  1
  O  O11  1  0.39473200  0.23655700  0.45089400  1
  O  O12  1  0.28848000  0.98747100  0.19269300  1
  O  O13  1  0.78848000  0.51252900  0.80730700  1
  O  O14  1  0.21152000  0.01252900  0.69269300  1
  O  O15  1  0.71152000  0.48747100  0.30730700  1
loop_
_geom_bond_atom_site_label_1
_geom_bond_atom_site_label_2
_geom_bond_distance
_geom_bond_site_symmetry_2
Ge0 O4 1.763579 1_565
Ge0 O0 1.784190 1_564
Ge0 O8 1.788182 1_555
Ge0 O12 1.790116 1_555
Ge1 O5 1.763579 1_555
Ge1 O1 1.784190 1_456
Ge1 O9 1.788182 1_555
Ge1 O13 1.790116 1_455
Ge2 O6 1.763579 1_545
Ge2 O2 1.784190 1_645
Ge2 O10 1.788182 1_555
Ge2 O14 1.790116 1_655
Ge3 O7 1.763579 1_555
Ge3 O3 1.784190 1_555
Ge3 O11 1.788182 1_555
Ge3 O15 1.790116 1_555
O0 Pb2 2.374422 1_555
O0 Sr3 2.661176 1_555
O0 Sr0 2.716074 1_545
O1 Pb3 2.374422 1_555
O1 Sr2 2.661176 1_655
O1 Sr1 2.716074 1_555
O2 Pb0 2.374422 1_555
O2 Sr1 2.661176 1_455
O2 Sr2 2.716074 1_565
O3 Pb1 2.374422 1_555
O3 Sr0 2.661176 1_555
O3 Sr3 2.716074 1_555
O4 Sr2 2.492367 1_655
O4 Sr1 2.650418 1_545
O5 Sr3 2.492367 1_555
O5 Sr0 2.650418 1_555
O6 Sr0 2.492367 1_555
O6 Sr3 2.650418 1_565
O7 Sr1 2.492367 1_455
O7 Sr2 2.650418 1_555
O8 Pb3 2.266252 1_555
O8 Sr0 2.705779 1_554
O8 Sr1 2.792509 1_555
O9 Pb2 2.266252 1_565
O9 Sr1 2.705779 1_456
O9 Sr0 2.792509 1_555
O10 Pb1 2.266252 1_555
O10 Sr2 2.705779 1_655
O10 Sr3 2.792509 1_555
O11 Pb0 2.266252 1_545
O11 Sr3 2.705779 1_555
O11 Sr2 2.792509 1_555
O12 Pb0 2.376896 1_555
O12 Sr1 2.566126 1_455
O12 Sr2 2.734966 1_565
O13 Pb1 2.376896 1_555
O13 Sr0 2.566126 1_555
O13 Sr3 2.734966 1_555
O14 Pb2 2.376896 1_555
O14 Sr3 2.566126 1_555
O14 Sr0 2.734966 1_545
O15 Pb3 2.376896 1_555
O15 Sr2 2.566126 1_655
O15 Sr1 2.734966 1_555
