# generated using pymatgen
data_HfMg14VO16
_symmetry_space_group_name_H-M   'P 1'
_cell_length_a   8.65148874
_cell_length_b   8.65489472
_cell_length_c   4.33548540
_cell_angle_alpha   90.00000000
_cell_angle_beta   90.00000000
_cell_angle_gamma   90.00000000
_symmetry_Int_Tables_number   1
_chemical_formula_structural   HfMg14VO16
_chemical_formula_sum   'Hf1 Mg14 V1 O16'
_cell_volume   324.63128012
_cell_formula_units_Z   1
loop_
 _symmetry_equiv_pos_site_id
 _symmetry_equiv_pos_as_xyz
  1  'x, y, z'
loop_
 _atom_site_type_symbol
 _atom_site_label
 _atom_site_symmetry_multiplicity
 _atom_site_fract_x
 _atom_site_fract_y
 _atom_site_fract_z
 _atom_site_occupancy
  Hf  Hf0  1  -0.00000000  0.50000000  -0.00000000  1
  Mg  Mg0  1  0.50000000  0.00000000  -0.00000000  1
  Mg  Mg1  1  0.50000000  0.50000000  -0.00000000  1
  Mg  Mg2  1  -0.00000000  0.24395385  0.50000000  1
  Mg  Mg3  1  -0.00000000  0.75604615  0.50000000  1
  Mg  Mg4  1  0.50000000  0.24884439  0.50000000  1
  Mg  Mg5  1  0.50000000  0.75115561  0.50000000  1
  Mg  Mg6  1  0.25238222  0.00000000  0.50000000  1
  Mg  Mg7  1  0.25622279  0.50000000  0.50000000  1
  Mg  Mg8  1  0.74761778  0.00000000  0.50000000  1
  Mg  Mg9  1  0.74377721  0.50000000  0.50000000  1
  Mg  Mg10  1  0.25635820  0.24485146  0.00000000  1
  Mg  Mg11  1  0.25635820  0.75514854  -0.00000000  1
  Mg  Mg12  1  0.74364180  0.24485146  0.00000000  1
  Mg  Mg13  1  0.74364180  0.75514854  -0.00000000  1
  V  V0  1  -0.00000000  0.00000000  -0.00000000  1
  O  O0  1  0.25545959  0.00000000  -0.00000000  1
  O  O1  1  0.25526559  0.50000000  0.00000000  1
  O  O2  1  0.74454041  0.00000000  0.00000000  1
  O  O3  1  0.74473441  0.50000000  -0.00000000  1
  O  O4  1  0.24981460  0.24952256  0.50000000  1
  O  O5  1  0.24981460  0.75047744  0.50000000  1
  O  O6  1  0.75018540  0.24952256  0.50000000  1
  O  O7  1  0.75018540  0.75047744  0.50000000  1
  O  O8  1  -0.00000000  0.00000000  0.50000000  1
  O  O9  1  -0.00000000  0.50000000  0.50000000  1
  O  O10  1  0.50000000  0.00000000  0.50000000  1
  O  O11  1  0.50000000  0.50000000  0.50000000  1
  O  O12  1  -0.00000000  0.25046407  -0.00000000  1
  O  O13  1  -0.00000000  0.74953593  0.00000000  1
  O  O14  1  0.50000000  0.25021586  0.00000000  1
  O  O15  1  0.50000000  0.74978414  -0.00000000  1
loop_
_geom_bond_atom_site_label_1
_geom_bond_atom_site_label_2
_geom_bond_distance
_geom_bond_site_symmetry_2
Hf0 O13 2.159707 1_555
Hf0 O12 2.159707 1_555
Hf0 O9 2.167743 1_554
Hf0 O9 2.167743 1_555
Hf0 O1 2.208427 1_555
Hf0 O3 2.208427 1_455
Mg0 O0 2.115639 1_555
Mg0 O2 2.115639 1_555
Mg0 O15 2.165592 1_545
Mg0 O14 2.165592 1_555
Mg0 O10 2.167743 1_554
Mg0 O10 2.167743 1_555
Mg1 O3 2.117317 1_555
Mg1 O1 2.117317 1_555
Mg1 O14 2.161855 1_555
Mg1 O15 2.161855 1_555
Mg1 O11 2.167743 1_554
Mg1 O11 2.167743 1_555
Mg2 O8 2.111395 1_555
Mg2 O4 2.161806 1_555
Mg2 O6 2.161806 1_455
Mg2 O12 2.168475 1_556
Mg2 O12 2.168475 1_555
Mg2 O9 2.216052 1_555
Mg3 O8 2.111395 1_565
Mg3 O7 2.161806 1_455
Mg3 O5 2.161806 1_555
Mg3 O13 2.168475 1_555
Mg3 O13 2.168475 1_556
Mg3 O9 2.216052 1_555
Mg4 O10 2.153722 1_555
Mg4 O6 2.164484 1_555
Mg4 O4 2.164484 1_555
Mg4 O14 2.167775 1_556
Mg4 O14 2.167775 1_555
Mg4 O11 2.173725 1_555
Mg5 O10 2.153722 1_565
Mg5 O7 2.164484 1_555
Mg5 O5 2.164484 1_555
Mg5 O15 2.167775 1_556
Mg5 O15 2.167775 1_555
Mg5 O11 2.173725 1_555
Mg6 O10 2.142262 1_555
Mg6 O5 2.159706 1_545
Mg6 O4 2.159706 1_555
Mg6 O0 2.167906 1_555
Mg6 O0 2.167906 1_556
Mg6 O8 2.183482 1_555
Mg7 O11 2.109036 1_555
Mg7 O1 2.167759 1_556
Mg7 O1 2.167759 1_555
Mg7 O4 2.168565 1_555
Mg7 O5 2.168565 1_555
Mg7 O9 2.216709 1_555
Mg8 O10 2.142262 1_555
Mg8 O7 2.159706 1_545
Mg8 O6 2.159706 1_555
Mg8 O2 2.167906 1_556
Mg8 O2 2.167906 1_555
Mg8 O8 2.183482 1_655
Mg9 O11 2.109036 1_555
Mg9 O3 2.167759 1_556
Mg9 O3 2.167759 1_555
Mg9 O6 2.168565 1_555
Mg9 O7 2.168565 1_555
Mg9 O9 2.216709 1_655
Mg10 O14 2.108376 1_555
Mg10 O0 2.119178 1_555
Mg10 O4 2.168859 1_555
Mg10 O4 2.168859 1_554
Mg10 O1 2.208304 1_555
Mg10 O12 2.218412 1_555
Mg11 O15 2.108376 1_555
Mg11 O0 2.119178 1_565
Mg11 O5 2.168859 1_555
Mg11 O5 2.168859 1_554
Mg11 O1 2.208304 1_555
Mg11 O13 2.218412 1_555
Mg12 O14 2.108376 1_555
Mg12 O2 2.119178 1_555
Mg12 O6 2.168859 1_555
Mg12 O6 2.168859 1_554
Mg12 O3 2.208304 1_555
Mg12 O12 2.218412 1_655
Mg13 O15 2.108376 1_555
Mg13 O2 2.119178 1_565
Mg13 O7 2.168859 1_555
Mg13 O7 2.168859 1_554
Mg13 O3 2.208304 1_555
Mg13 O13 2.218412 1_655
O0 V0 2.210106 1_555
O2 V0 2.210106 1_655
O8 V0 2.167743 1_555
O8 V0 2.167743 1_556
O12 V0 2.167740 1_555
O13 V0 2.167740 1_565
