# generated using pymatgen
data_Mg14MnW
_symmetry_space_group_name_H-M   'P 1'
_cell_length_a   6.17543815
_cell_length_b   6.17543767
_cell_length_c   9.88123662
_cell_angle_alpha   90.00000000
_cell_angle_beta   90.00000000
_cell_angle_gamma   120.00000250
_symmetry_Int_Tables_number   1
_chemical_formula_structural   Mg14MnW
_chemical_formula_sum   'Mg14 Mn1 W1'
_cell_volume   326.34535776
_cell_formula_units_Z   1
loop_
 _symmetry_equiv_pos_site_id
 _symmetry_equiv_pos_as_xyz
  1  'x, y, z'
loop_
 _atom_site_type_symbol
 _atom_site_label
 _atom_site_symmetry_multiplicity
 _atom_site_fract_x
 _atom_site_fract_y
 _atom_site_fract_z
 _atom_site_occupancy
  Mg  Mg0  1  0.16841680  0.83420790  0.12500000  1
  Mg  Mg1  1  0.16939783  0.83469842  0.62500000  1
  Mg  Mg2  1  0.66579210  0.33158320  0.12500000  1
  Mg  Mg3  1  0.66530158  0.33060217  0.62500000  1
  Mg  Mg4  1  0.66579210  0.83420790  0.12500000  1
  Mg  Mg5  1  0.66530158  0.83469842  0.62500000  1
  Mg  Mg6  1  0.32345499  0.17654500  0.37485149  1
  Mg  Mg7  1  0.32345499  0.17654500  0.87514851  1
  Mg  Mg8  1  0.32345500  0.64691099  0.37485149  1
  Mg  Mg9  1  0.32345500  0.64691099  0.87514851  1
  Mg  Mg10  1  0.85308901  0.17654500  0.37485149  1
  Mg  Mg11  1  0.85308901  0.17654500  0.87514851  1
  Mg  Mg12  1  0.83333300  0.66666700  0.37624879  1
  Mg  Mg13  1  0.83333300  0.66666700  0.87375121  1
  Mn  Mn0  1  0.16666700  0.33333300  0.12500000  1
  W  W0  1  0.16666700  0.33333300  0.62500000  1
loop_
_geom_bond_atom_site_label_1
_geom_bond_atom_site_label_2
_geom_bond_distance
_geom_bond_site_symmetry_2
Mg0 Mg13 3.061864 1_454
Mg0 Mg12 3.061864 1_455
Mg0 Mg2 3.071510 1_565
Mg0 Mg4 3.071510 1_555
Mg0 Mg9 3.075234 1_554
Mg0 Mg8 3.075234 1_555
Mg0 Mg7 3.075241 1_564
Mg0 Mg6 3.075241 1_565
Mg0 Mn0 3.087733 1_555
Mg0 Mn0 3.087733 1_565
Mg0 Mg2 3.103928 1_455
Mg0 Mg4 3.103928 1_455
Mg1 Mg13 3.044982 1_455
Mg1 Mg12 3.044982 1_455
Mg1 Mg8 3.076182 1_555
Mg1 Mg9 3.076182 1_555
Mg1 Mg6 3.076188 1_565
Mg1 Mg7 3.076188 1_565
Mg1 W0 3.087753 1_565
Mg1 W0 3.087753 1_555
Mg2 Mg4 3.071510 1_545
Mg2 Mg7 3.075241 1_554
Mg2 Mg6 3.075241 1_555
Mg2 Mn0 3.087733 1_555
Mg2 Mn0 3.087733 1_655
Mg2 Mg4 3.103928 1_555
Mg3 Mg6 3.076188 1_555
Mg3 Mg7 3.076188 1_555
Mg3 W0 3.087754 1_555
Mg3 W0 3.087754 1_655
Mg4 Mg9 3.075241 1_554
Mg4 Mg8 3.075241 1_555
Mg4 Mn0 3.087733 1_555
Mg4 Mn0 3.087733 1_665
Mg5 Mg8 3.076188 1_555
Mg5 Mg9 3.076188 1_555
Mg5 W0 3.087753 1_555
Mg5 W0 3.087753 1_665
Mg6 Mg8 2.904716 1_555
Mg6 Mn0 2.984563 1_555
Mg6 W0 2.986991 1_555
Mg6 Mg8 3.270722 1_545
Mg7 Mg9 2.904716 1_555
Mg7 Mn0 2.984563 1_556
Mg7 W0 2.986991 1_555
Mg7 Mg9 3.270722 1_545
Mg8 Mn0 2.984568 1_555
Mg8 W0 2.986997 1_555
Mg9 Mn0 2.984568 1_556
Mg9 W0 2.986997 1_555
Mg10 Mg8 2.904716 1_655
Mg10 Mg6 2.904716 1_655
Mg10 Mn0 2.984569 1_655
Mg10 W0 2.986997 1_655
Mg10 Mg2 3.075235 1_555
Mg10 Mg4 3.075241 1_545
Mg10 Mg3 3.076182 1_555
Mg10 Mg5 3.076188 1_545
Mg10 Mg12 3.089557 1_545
Mg10 Mg12 3.089557 1_555
Mg10 Mg8 3.270722 1_545
Mg10 Mg6 3.270722 1_555
Mg11 Mg9 2.904716 1_655
Mg11 Mg7 2.904716 1_655
Mg11 Mn0 2.984569 1_656
Mg11 W0 2.986997 1_655
Mg11 Mg2 3.075235 1_556
Mg11 Mg4 3.075241 1_546
Mg11 Mg3 3.076182 1_555
Mg11 Mg5 3.076188 1_545
Mg11 Mg13 3.089557 1_545
Mg11 Mg13 3.089557 1_555
Mg11 Mg9 3.270722 1_545
Mg11 Mg7 3.270722 1_555
Mg12 Mg5 3.044976 1_555
Mg12 Mg3 3.044982 1_555
Mg12 Mg4 3.061858 1_555
Mg12 Mg2 3.061864 1_555
Mg12 Mg6 3.089557 1_665
Mg12 Mg6 3.089557 1_555
Mg12 Mg8 3.089557 1_555
Mg12 Mg8 3.089557 1_655
Mg13 Mg5 3.044976 1_555
Mg13 Mg3 3.044982 1_555
Mg13 Mg4 3.061858 1_556
Mg13 Mg2 3.061864 1_556
Mg13 Mg7 3.089557 1_665
Mg13 Mg7 3.089557 1_555
Mg13 Mg9 3.089557 1_555
Mg13 Mg9 3.089557 1_655
