# generated using pymatgen
data_TiSeS
_symmetry_space_group_name_H-M   'P 1'
_cell_length_a   3.48826798
_cell_length_b   3.48826798
_cell_length_c   6.18189375
_cell_angle_alpha   90.00000000
_cell_angle_beta   90.00000000
_cell_angle_gamma   119.99999697
_symmetry_Int_Tables_number   1
_chemical_formula_structural   TiSeS
_chemical_formula_sum   'Ti1 Se1 S1'
_cell_volume   65.14361639
_cell_formula_units_Z   1
loop_
 _symmetry_equiv_pos_site_id
 _symmetry_equiv_pos_as_xyz
  1  'x, y, z'
loop_
 _atom_site_type_symbol
 _atom_site_label
 _atom_site_symmetry_multiplicity
 _atom_site_fract_x
 _atom_site_fract_y
 _atom_site_fract_z
 _atom_site_occupancy
  Ti  Ti0  1  0.33333300  0.66666700  0.98597680  1
  Se  Se0  1  0.66666700  0.33333300  0.24321068  1
  S  S0  1  -0.00000000  -0.00000000  0.77081351  1
loop_
_geom_bond_atom_site_label_1
_geom_bond_atom_site_label_2
_geom_bond_distance
_geom_bond_site_symmetry_2
Se0 Ti0 2.566069 1_544
Se0 Ti0 2.566069 1_654
Se0 Ti0 2.566073 1_554
S0 Ti0 2.413546 1_545
S0 Ti0 2.413549 1_445
S0 Ti0 2.413549 1_555
