# generated using pymatgen
data_Sr3ScNiO6
_symmetry_space_group_name_H-M   'P 1'
_cell_length_a   6.71227798
_cell_length_b   6.71227794
_cell_length_c   6.71227807
_cell_angle_alpha   93.23494144
_cell_angle_beta   93.23494372
_cell_angle_gamma   93.23493275
_symmetry_Int_Tables_number   1
_chemical_formula_structural   Sr3ScNiO6
_chemical_formula_sum   'Sr6 Sc2 Ni2 O12'
_cell_volume   300.91690347
_cell_formula_units_Z   2
loop_
 _symmetry_equiv_pos_site_id
 _symmetry_equiv_pos_as_xyz
  1  'x, y, z'
loop_
 _atom_site_type_symbol
 _atom_site_label
 _atom_site_symmetry_multiplicity
 _atom_site_fract_x
 _atom_site_fract_y
 _atom_site_fract_z
 _atom_site_occupancy
  Sr  Sr0  1  0.37913400  0.12086500  0.75000000  1
  Sr  Sr1  1  0.75000000  0.37913500  0.12086600  1
  Sr  Sr2  1  0.24999900  0.62086600  0.87913500  1
  Sr  Sr3  1  0.62086500  0.87913400  0.25000100  1
  Sr  Sr4  1  0.12086600  0.75000000  0.37913500  1
  Sr  Sr5  1  0.87913400  0.25000000  0.62086600  1
  Sc  Sc0  1  0.75000000  0.75000100  0.75000000  1
  Sc  Sc1  1  0.25000100  0.25000000  0.25000000  1
  Ni  Ni0  1  0.50000000  0.50000000  0.50000000  1
  Ni  Ni1  1  0.00000000  0.00000000  0.00000000  1
  O  O0  1  0.78958900  0.59522000  0.46681400  1
  O  O1  1  0.59522100  0.46681300  0.78958900  1
  O  O2  1  0.46681300  0.78958900  0.59522100  1
  O  O3  1  0.03318600  0.90478000  0.71041200  1
  O  O4  1  0.90477900  0.71041100  0.03318600  1
  O  O5  1  0.71041200  0.03318600  0.90477900  1
  O  O6  1  0.21041200  0.40477900  0.53318700  1
  O  O7  1  0.40477900  0.53318600  0.21041200  1
  O  O8  1  0.53318600  0.21041200  0.40477800  1
  O  O9  1  0.96681400  0.09522100  0.28958900  1
  O  O10  1  0.28958900  0.96681300  0.09522000  1
  O  O11  1  0.09522000  0.28958800  0.96681300  1
loop_
_geom_bond_atom_site_label_1
_geom_bond_atom_site_label_2
_geom_bond_distance
_geom_bond_site_symmetry_2
Ni0 O7 2.039900 1_555
Ni0 O6 2.039901 1_555
Ni0 O8 2.039902 1_555
Ni0 O0 2.039904 1_555
Ni0 O2 2.039907 1_555
Ni0 O1 2.039907 1_555
Ni1 O3 2.039898 1_544
Ni1 O11 2.039899 1_554
Ni1 O5 2.039900 1_454
Ni1 O10 2.039906 1_545
Ni1 O9 2.039906 1_455
Ni1 O4 2.039906 1_445
O0 Sc0 2.151374 1_555
O0 Sr4 2.515195 1_655
O0 Sr1 2.659554 1_555
O0 Sr5 2.675340 1_555
O0 Sr3 2.720815 1_555
O1 Sc0 2.151380 1_555
O1 Sr1 2.515190 1_556
O1 Sr0 2.659560 1_555
O1 Sr2 2.675356 1_555
O1 Sr5 2.720808 1_555
O2 Sc0 2.151372 1_555
O2 Sr0 2.515187 1_565
O2 Sr4 2.659551 1_555
O2 Sr3 2.675340 1_555
O2 Sr2 2.720817 1_555
O3 Sc0 2.151367 1_455
O3 Sr4 2.515197 1_555
O3 Sr0 2.659554 1_565
O3 Sr5 2.675341 1_465
O3 Sr2 2.720813 1_555
O4 Sc0 2.151369 1_554
O4 Sr1 2.515189 1_555
O4 Sr4 2.659566 1_655
O4 Sr2 2.675337 1_654
O4 Sr3 2.720820 1_555
O5 Sc0 2.151361 1_545
O5 Sr0 2.515198 1_555
O5 Sr1 2.659566 1_556
O5 Sr3 2.675355 1_546
O5 Sr5 2.720809 1_555
O6 Sc1 2.151374 1_555
O6 Sr5 2.515198 1_455
O6 Sr2 2.659560 1_555
O6 Sr4 2.675348 1_555
O6 Sr0 2.720810 1_555
O7 Sc1 2.151364 1_555
O7 Sr2 2.515197 1_554
O7 Sr3 2.659557 1_555
O7 Sr1 2.675345 1_555
O7 Sr4 2.720811 1_555
O8 Sc1 2.151358 1_555
O8 Sr3 2.515193 1_545
O8 Sr5 2.659563 1_555
O8 Sr0 2.675355 1_555
O8 Sr1 2.720807 1_555
O9 Sc1 2.151374 1_655
O9 Sr5 2.515195 1_555
O9 Sr3 2.659566 1_545
O9 Sr4 2.675347 1_645
O9 Sr1 2.720816 1_555
O10 Sc1 2.151375 1_565
O10 Sr3 2.515192 1_555
O10 Sr2 2.659548 1_554
O10 Sr0 2.675340 1_564
O10 Sr4 2.720818 1_555
O11 Sc1 2.151378 1_556
O11 Sr2 2.515196 1_555
O11 Sr5 2.659551 1_455
O11 Sr1 2.675346 1_456
O11 Sr0 2.720813 1_555
