# generated using pymatgen
data_KVSO9
_symmetry_space_group_name_H-M   'P 1'
_cell_length_a   6.15202725
_cell_length_b   6.30192887
_cell_length_c   11.32917500
_cell_angle_alpha   90.00000000
_cell_angle_beta   90.00000000
_cell_angle_gamma   106.39092315
_symmetry_Int_Tables_number   1
_chemical_formula_structural   KVSO9
_chemical_formula_sum   'K2 V2 S2 O18'
_cell_volume   421.37721402
_cell_formula_units_Z   2
loop_
 _symmetry_equiv_pos_site_id
 _symmetry_equiv_pos_as_xyz
  1  'x, y, z'
loop_
 _atom_site_type_symbol
 _atom_site_label
 _atom_site_symmetry_multiplicity
 _atom_site_fract_x
 _atom_site_fract_y
 _atom_site_fract_z
 _atom_site_occupancy
  K  K0  1  0.71535200  0.77433400  0.17867400  1
  K  K1  1  0.28464800  0.22566600  0.67867400  1
  V  V0  1  0.89465200  0.64331500  0.87222500  1
  V  V1  1  0.10534800  0.35668500  0.37222500  1
  S  S0  1  0.42352000  0.74435600  0.85568800  1
  S  S1  1  0.57648000  0.25564400  0.35568800  1
  O  O0  1  0.86082400  0.72412100  0.60686100  1
  O  O1  1  0.13917600  0.27587900  0.10686100  1
  O  O2  1  0.73443500  0.70101000  0.51755400  1
  O  O3  1  0.26556500  0.29899000  0.01755400  1
  O  O4  1  0.45121900  0.80913500  0.97874900  1
  O  O5  1  0.54878100  0.19086500  0.47874900  1
  O  O6  1  0.47208400  0.92287200  0.77018900  1
  O  O7  1  0.52791600  0.07712800  0.27018900  1
  O  O8  1  0.56855200  0.58496000  0.82821200  1
  O  O9  1  0.43144800  0.41504000  0.32821200  1
  O  O10  1  0.82691200  0.54681800  0.67720700  1
  O  O11  1  0.17308800  0.45318200  0.17720700  1
  O  O12  1  0.81519400  0.41438500  0.33164400  1
  O  O13  1  0.18480600  0.58561500  0.83164400  1
  O  O14  1  0.85178900  0.53453800  0.00553300  1
  O  O15  1  0.14821100  0.46546200  0.50553300  1
  O  O16  1  0.97180600  0.91259900  0.88426400  1
  O  O17  1  0.02819400  0.08740100  0.38426400  1
loop_
_geom_bond_atom_site_label_1
_geom_bond_atom_site_label_2
_geom_bond_distance
_geom_bond_site_symmetry_2
K0 O7 2.699556 1_565
K0 O14 2.748039 1_555
K0 O4 2.831936 1_554
K0 O9 2.969097 1_555
K0 O12 3.051642 1_555
K0 O17 3.298267 1_665
K1 O6 2.699556 1_545
K1 O15 2.748039 1_555
K1 O5 2.831936 1_555
K1 O8 2.969097 1_555
K1 O13 3.051642 1_555
K1 O16 3.298267 1_445
O0 O2 1.259194 1_555
O0 O10 1.339994 1_555
O1 O3 1.259194 1_555
O1 O11 1.339994 1_555
O4 S0 1.449195 1_555
O5 S1 1.449195 1_555
O6 S0 1.450321 1_555
O7 S1 1.450321 1_555
O8 S0 1.551723 1_555
O8 V0 1.998057 1_555
O9 S1 1.551723 1_555
O9 V1 1.998057 1_555
O10 V0 2.298231 1_555
O11 V1 2.298231 1_555
O12 S1 1.550006 1_555
O12 V1 1.973896 1_655
O13 S0 1.550006 1_555
O13 V0 1.973896 1_455
O14 V0 1.648741 1_554
O15 V1 1.648741 1_555
O16 V0 1.633749 1_555
O17 V1 1.633749 1_555
