# generated using pymatgen
data_H5CN3
_symmetry_space_group_name_H-M   'P 1'
_cell_length_a   6.48570400
_cell_length_b   6.58060100
_cell_length_c   7.92049500
_cell_angle_alpha   90.00000000
_cell_angle_beta   90.00000000
_cell_angle_gamma   90.00000000
_symmetry_Int_Tables_number   1
_chemical_formula_structural   H5CN3
_chemical_formula_sum   'H20 C4 N12'
_cell_volume   338.04538192
_cell_formula_units_Z   4
loop_
 _symmetry_equiv_pos_site_id
 _symmetry_equiv_pos_as_xyz
  1  'x, y, z'
loop_
 _atom_site_type_symbol
 _atom_site_label
 _atom_site_symmetry_multiplicity
 _atom_site_fract_x
 _atom_site_fract_y
 _atom_site_fract_z
 _atom_site_occupancy
  H  H0  1  0.27427400  0.15794700  0.58109800  1
  H  H1  1  0.22572600  0.84205300  0.08109800  1
  H  H2  1  0.77427400  0.34205300  0.41890200  1
  H  H3  1  0.72572600  0.65794700  0.91890200  1
  H  H4  1  0.89397100  0.15505600  0.17193300  1
  H  H5  1  0.60602900  0.84494400  0.67193300  1
  H  H6  1  0.39397100  0.34494400  0.82806700  1
  H  H7  1  0.10602900  0.65505600  0.32806700  1
  H  H8  1  0.10669800  0.07913400  0.42233400  1
  H  H9  1  0.39330200  0.92086600  0.92233400  1
  H  H10  1  0.60669800  0.42086600  0.57766600  1
  H  H11  1  0.89330200  0.57913400  0.07766600  1
  H  H12  1  0.17949800  0.91133400  0.57519200  1
  H  H13  1  0.32050200  0.08866600  0.07519200  1
  H  H14  1  0.67949800  0.58866600  0.42480800  1
  H  H15  1  0.82050200  0.41133400  0.92480800  1
  H  H16  1  0.35562500  0.98656400  0.43261600  1
  H  H17  1  0.14437500  0.01343600  0.93261600  1
  H  H18  1  0.85562500  0.51343600  0.56738400  1
  H  H19  1  0.64437500  0.48656400  0.06738400  1
  C  C0  1  0.73330800  0.98096000  0.31639000  1
  C  C1  1  0.76669200  0.01904000  0.81639000  1
  C  C2  1  0.23330800  0.51904000  0.68361000  1
  C  C3  1  0.26669200  0.48096000  0.18361000  1
  N  N0  1  0.87064200  0.11995600  0.29660800  1
  N  N1  1  0.62935800  0.88004400  0.79660800  1
  N  N2  1  0.37064200  0.38004400  0.70339200  1
  N  N3  1  0.12935800  0.61995600  0.20339200  1
  N  N4  1  0.60700100  0.85488900  0.35125300  1
  N  N5  1  0.89299900  0.14511100  0.85125300  1
  N  N6  1  0.10700100  0.64511100  0.64874700  1
  N  N7  1  0.39299900  0.35488900  0.14874700  1
  N  N8  1  0.22880400  0.03586900  0.50305400  1
  N  N9  1  0.27119600  0.96413100  0.00305400  1
  N  N10  1  0.72880400  0.46413100  0.49694600  1
  N  N11  1  0.77119600  0.53586900  0.99694600  1
loop_
_geom_bond_atom_site_label_1
_geom_bond_atom_site_label_2
_geom_bond_distance
_geom_bond_site_symmetry_2
H0 N8 1.055671 1_555
H1 N9 1.055671 1_555
H2 N10 1.055671 1_555
H3 N11 1.055671 1_555
H4 N0 1.025367 1_555
H5 N1 1.025367 1_555
H6 N2 1.025367 1_555
H7 N3 1.025367 1_555
H8 N8 1.056879 1_555
H9 N9 1.056879 1_556
H10 N10 1.056879 1_555
H11 N11 1.056879 1_554
H12 N8 1.048966 1_565
H13 N9 1.048966 1_545
H14 N10 1.048966 1_555
H15 N11 1.048966 1_555
H16 N8 1.045502 1_565
H17 N9 1.045502 1_546
H18 N10 1.045502 1_555
H19 N11 1.045502 1_554
C0 N4 1.198163 1_555
C0 N0 1.286291 1_565
C1 N5 1.198163 1_555
C1 N1 1.286291 1_545
C2 N6 1.198163 1_555
C2 N2 1.286291 1_555
C3 N7 1.198163 1_555
C3 N3 1.286291 1_555
