# generated using pymatgen
data_Ca(VS2)4
_symmetry_space_group_name_H-M   'P 1'
_cell_length_a   7.90477690
_cell_length_b   7.90477692
_cell_length_c   7.90477745
_cell_angle_alpha   49.02977046
_cell_angle_beta   49.02976384
_cell_angle_gamma   49.02977397
_symmetry_Int_Tables_number   1
_chemical_formula_structural   Ca(VS2)4
_chemical_formula_sum   'Ca1 V4 S8'
_cell_volume   258.57056489
_cell_formula_units_Z   1
loop_
 _symmetry_equiv_pos_site_id
 _symmetry_equiv_pos_as_xyz
  1  'x, y, z'
loop_
 _atom_site_type_symbol
 _atom_site_label
 _atom_site_symmetry_multiplicity
 _atom_site_fract_x
 _atom_site_fract_y
 _atom_site_fract_z
 _atom_site_occupancy
  Ca  Ca0  1  0.50000000  0.50000100  0.49999900  1
  V  V0  1  0.50000100  0.99999900  0.50000100  1
  V  V1  1  0.99999900  0.50000000  0.50000100  1
  V  V2  1  0.50000000  0.50000000  0.00000000  1
  V  V3  1  0.00000000  0.00000000  0.00000000  1
  S  S0  1  0.76571400  0.26024700  0.76571400  1
  S  S1  1  0.23428500  0.23428600  0.73975300  1
  S  S2  1  0.23428500  0.73975400  0.23428500  1
  S  S3  1  0.73975200  0.23428600  0.23428600  1
  S  S4  1  0.26485500  0.26485600  0.26485500  1
  S  S5  1  0.73514500  0.73514500  0.73514500  1
  S  S6  1  0.26024800  0.76571500  0.76571400  1
  S  S7  1  0.76571500  0.76571500  0.26024700  1
loop_
_geom_bond_atom_site_label_1
_geom_bond_atom_site_label_2
_geom_bond_distance
_geom_bond_site_symmetry_2
Ca0 S3 2.785758 1_555
Ca0 S0 2.785760 1_555
Ca0 S2 2.785762 1_555
Ca0 S7 2.785764 1_555
Ca0 S6 2.785764 1_555
Ca0 S1 2.785765 1_555
S0 V3 2.365861 1_656
S0 V1 2.390586 1_555
S0 V2 2.390590 1_556
S1 V3 2.365854 1_556
S1 V1 2.390585 1_455
S1 V0 2.390588 1_545
S2 V3 2.365850 1_565
S2 V2 2.390589 1_555
S2 V1 2.390593 1_455
S3 V3 2.365859 1_655
S3 V0 2.390583 1_545
S3 V2 2.390585 1_555
S4 V2 2.370167 1_555
S4 V1 2.370172 1_455
S4 V0 2.370182 1_545
S5 V0 2.370163 1_555
S5 V1 2.370168 1_555
S5 V2 2.370172 1_556
S6 V3 2.365853 1_566
S6 V0 2.390580 1_555
S6 V2 2.390584 1_556
S7 V3 2.365849 1_665
S7 V1 2.390584 1_555
S7 V0 2.390585 1_555
