# generated using pymatgen
data_Nb3Ge
_symmetry_space_group_name_H-M   'P 1'
_cell_length_a   7.79074299
_cell_length_b   7.79074299
_cell_length_c   7.79074299
_cell_angle_alpha   96.70841643
_cell_angle_beta   96.70841643
_cell_angle_gamma   140.02873751
_symmetry_Int_Tables_number   1
_chemical_formula_structural   Nb3Ge
_chemical_formula_sum   'Nb12 Ge4'
_cell_volume   285.47615872
_cell_formula_units_Z   4
loop_
 _symmetry_equiv_pos_site_id
 _symmetry_equiv_pos_as_xyz
  1  'x, y, z'
loop_
 _atom_site_type_symbol
 _atom_site_label
 _atom_site_symmetry_multiplicity
 _atom_site_fract_x
 _atom_site_fract_y
 _atom_site_fract_z
 _atom_site_occupancy
  Nb  Nb0  1  0.22936700  0.08004900  0.30941600  1
  Nb  Nb1  1  0.77063300  0.91995100  0.69058400  1
  Nb  Nb2  1  0.27063300  0.58004900  0.85068200  1
  Nb  Nb3  1  0.72936700  0.41995100  0.14931800  1
  Nb  Nb4  1  0.08004900  0.77063300  0.85068200  1
  Nb  Nb5  1  0.91995100  0.22936700  0.14931800  1
  Nb  Nb6  1  0.58004900  0.72936700  0.30941600  1
  Nb  Nb7  1  0.41995100  0.27063300  0.69058400  1
  Nb  Nb8  1  0.25000000  0.75000000  0.50000000  1
  Nb  Nb9  1  0.75000000  0.25000000  0.50000000  1
  Nb  Nb10  1  0.75000000  0.75000000  0.00000000  1
  Nb  Nb11  1  0.25000000  0.25000000  0.00000000  1
  Ge  Ge0  1  0.66231700  0.16231700  0.82463400  1
  Ge  Ge1  1  0.33768300  0.83768300  0.17536600  1
  Ge  Ge2  1  0.83768300  0.66231700  0.50000000  1
  Ge  Ge3  1  0.16231700  0.33768300  0.50000000  1
loop_
_geom_bond_atom_site_label_1
_geom_bond_atom_site_label_2
_geom_bond_distance
_geom_bond_site_symmetry_2
Nb0 Nb10 2.846021 1_445
Nb0 Nb11 2.846021 1_555
Nb1 Nb11 2.846021 1_666
Nb1 Nb10 2.846021 1_556
Nb8 Nb9 2.662755 1_455
Nb8 Nb9 2.662755 1_565
Nb10 Nb11 2.662755 1_555
Nb10 Nb11 2.662755 1_665
Nb10 Nb5 2.846021 1_565
Nb10 Nb7 2.846021 1_554
Nb10 Nb4 2.846021 1_654
Nb10 Nb2 2.846021 1_554
Nb10 Nb6 2.846021 1_555
Nb10 Nb3 2.846021 1_555
Nb11 Nb4 2.846021 1_544
Nb11 Nb3 2.846021 1_555
Nb11 Nb7 2.846021 1_554
Nb11 Nb2 2.846021 1_554
Nb11 Nb6 2.846021 1_555
Nb11 Nb5 2.846021 1_455
Ge0 Nb8 2.724315 1_545
Ge0 Nb9 2.724315 1_555
Ge0 Nb1 2.748734 1_545
Ge0 Nb7 2.748734 1_555
Ge0 Nb5 2.756472 1_556
Ge0 Nb3 2.756472 1_556
Ge0 Nb4 3.012259 1_545
Ge0 Nb4 3.012259 1_655
Ge0 Nb2 3.012259 1_545
Ge0 Nb2 3.012259 1_655
Ge1 Nb9 2.724315 1_565
Ge1 Nb8 2.724315 1_555
Ge1 Nb6 2.748734 1_555
Ge1 Nb0 2.748734 1_565
Ge1 Nb2 2.756472 1_554
Ge1 Nb4 2.756472 1_554
Ge1 Nb3 3.012259 1_565
Ge1 Nb5 3.012259 1_455
Ge1 Nb5 3.012259 1_565
Ge1 Nb3 3.012259 1_455
Ge2 Nb9 2.724315 1_555
Ge2 Nb8 2.724315 1_655
Ge2 Nb3 2.748734 1_555
Ge2 Nb4 2.748734 1_655
Ge2 Nb1 2.756472 1_555
Ge2 Nb6 2.756472 1_555
Ge2 Nb0 3.012259 1_665
Ge2 Nb7 3.012259 1_555
Ge2 Nb7 3.012259 1_665
Ge2 Nb0 3.012259 1_555
Ge3 Nb9 2.724315 1_455
Ge3 Nb8 2.724315 1_555
Ge3 Nb5 2.748734 1_455
Ge3 Nb2 2.748734 1_555
Ge3 Nb0 2.756472 1_555
Ge3 Nb7 2.756472 1_555
Ge3 Nb1 3.012259 1_555
Ge3 Nb6 3.012259 1_555
Ge3 Nb1 3.012259 1_445
Ge3 Nb6 3.012259 1_445
