# generated using pymatgen
data_Sc2NiB2Ir5
_symmetry_space_group_name_H-M   'P 1'
_cell_length_a   9.34164385
_cell_length_b   9.34165331
_cell_length_c   3.01543189
_cell_angle_alpha   90.00000000
_cell_angle_beta   90.00000000
_cell_angle_gamma   89.99978723
_symmetry_Int_Tables_number   1
_chemical_formula_structural   Sc2NiB2Ir5
_chemical_formula_sum   'Sc4 Ni2 B4 Ir10'
_cell_volume   263.14588003
_cell_formula_units_Z   2
loop_
 _symmetry_equiv_pos_site_id
 _symmetry_equiv_pos_as_xyz
  1  'x, y, z'
loop_
 _atom_site_type_symbol
 _atom_site_label
 _atom_site_symmetry_multiplicity
 _atom_site_fract_x
 _atom_site_fract_y
 _atom_site_fract_z
 _atom_site_occupancy
  Sc  Sc0  1  0.67647348  0.17648228  0.00000000  1
  Sc  Sc1  1  0.32352652  0.82351772  -0.00000000  1
  Sc  Sc2  1  0.17648341  0.32352596  0.00000000  1
  Sc  Sc3  1  0.82351659  0.67647404  -0.00000000  1
  Ni  Ni0  1  -0.00000000  0.00000000  0.00000000  1
  Ni  Ni1  1  0.50000000  0.50000000  0.00000000  1
  B  B0  1  0.12630311  0.62629274  -0.00000000  1
  B  B1  1  0.87369689  0.37370726  0.00000000  1
  B  B2  1  0.62629276  0.87369719  0.00000000  1
  B  B3  1  0.37370724  0.12630281  0.00000000  1
  Ir  Ir0  1  0.21433397  0.06927107  0.50000000  1
  Ir  Ir1  1  0.78566603  0.93072893  0.50000000  1
  Ir  Ir2  1  0.06926874  0.78566529  0.50000000  1
  Ir  Ir3  1  0.71429408  0.43076996  0.50000000  1
  Ir  Ir4  1  0.93073126  0.21433471  0.50000000  1
  Ir  Ir5  1  0.28570592  0.56923004  0.50000000  1
  Ir  Ir6  1  0.56923059  0.71429422  0.50000000  1
  Ir  Ir7  1  0.43076941  0.28570578  0.50000000  1
  Ir  Ir8  1  0.50000000  0.00000000  0.50000000  1
  Ir  Ir9  1  -0.00000000  0.50000000  0.50000000  1
loop_
_geom_bond_atom_site_label_1
_geom_bond_atom_site_label_2
_geom_bond_distance
_geom_bond_site_symmetry_2
B0 Ir2 2.184858 1_554
B0 Ir2 2.184858 1_555
B0 Ir5 2.185115 1_554
B0 Ir5 2.185115 1_555
B0 Ir9 2.248826 1_554
B0 Ir9 2.248826 1_555
B0 Sc1 2.605551 1_555
B0 Sc2 2.866924 1_555
B0 Sc3 2.867105 1_455
B1 Ir4 2.184858 1_554
B1 Ir4 2.184858 1_555
B1 Ir3 2.185115 1_554
B1 Ir3 2.185115 1_555
B1 Ir9 2.248826 1_654
B1 Ir9 2.248826 1_655
B1 Sc0 2.605551 1_555
B1 Sc3 2.866924 1_555
B1 Sc2 2.867105 1_655
B2 Ir1 2.184859 1_555
B2 Ir1 2.184859 1_554
B2 Ir6 2.185118 1_555
B2 Ir6 2.185118 1_554
B2 Ir8 2.248820 1_565
B2 Ir8 2.248820 1_564
B2 Sc3 2.605532 1_555
B2 Sc1 2.866918 1_555
B2 Sc0 2.867097 1_565
B3 Ir0 2.184859 1_555
B3 Ir0 2.184859 1_554
B3 Ir7 2.185118 1_555
B3 Ir7 2.185118 1_554
B3 Ir8 2.248820 1_555
B3 Ir8 2.248820 1_554
B3 Sc2 2.605532 1_555
B3 Sc0 2.866918 1_555
B3 Sc1 2.867097 1_545
Ir0 Ni0 2.588609 1_555
Ir0 Ni0 2.588609 1_556
Ir0 Sc2 2.835421 1_555
Ir0 Sc2 2.835421 1_556
Ir0 Sc1 2.929864 1_545
Ir0 Sc1 2.929864 1_546
Ir1 Ni0 2.588609 1_666
Ir1 Ni0 2.588609 1_665
Ir1 Sc3 2.835421 1_556
Ir1 Sc3 2.835421 1_555
Ir1 Sc0 2.929864 1_565
Ir1 Sc0 2.929864 1_566
Ir2 Ni0 2.588606 1_565
Ir2 Ni0 2.588606 1_566
Ir2 Sc1 2.835446 1_555
Ir2 Sc1 2.835446 1_556
Ir2 Sc3 2.929855 1_455
Ir2 Sc3 2.929855 1_456
Ir3 Ni1 2.588221 1_556
Ir3 Ni1 2.588221 1_555
Ir3 Sc0 2.835645 1_555
Ir3 Sc0 2.835645 1_556
Ir3 Sc3 2.929606 1_555
Ir3 Sc3 2.929606 1_556
Ir4 Ni0 2.588606 1_656
Ir4 Ni0 2.588606 1_655
Ir4 Sc0 2.835446 1_555
Ir4 Sc0 2.835446 1_556
Ir4 Sc2 2.929855 1_656
Ir4 Sc2 2.929855 1_655
Ir5 Ni1 2.588221 1_556
Ir5 Ni1 2.588221 1_555
Ir5 Sc1 2.835645 1_555
Ir5 Sc1 2.835645 1_556
Ir5 Sc2 2.929606 1_555
Ir5 Sc2 2.929606 1_556
Ir6 Ni1 2.588228 1_556
Ir6 Ni1 2.588228 1_555
Ir6 Sc3 2.835627 1_555
Ir6 Sc3 2.835627 1_556
Ir6 Sc1 2.929602 1_555
Ir6 Sc1 2.929602 1_556
Ir7 Ni1 2.588228 1_556
Ir7 Ni1 2.588228 1_555
Ir7 Sc2 2.835627 1_556
Ir7 Sc2 2.835627 1_555
Ir7 Sc0 2.929602 1_555
Ir7 Sc0 2.929602 1_556
Ir8 Sc0 2.776500 1_555
Ir8 Sc0 2.776500 1_556
Ir8 Sc1 2.776500 1_546
Ir8 Sc1 2.776500 1_545
Ir9 Sc2 2.776502 1_556
Ir9 Sc3 2.776502 1_455
Ir9 Sc3 2.776502 1_456
Ir9 Sc2 2.776502 1_555
