# generated using pymatgen
data_Li3ZrN2
_symmetry_space_group_name_H-M   'P 1'
_cell_length_a   8.82209000
_cell_length_b   10.18687170
_cell_length_c   10.18687272
_cell_angle_alpha   89.99999424
_cell_angle_beta   125.26438480
_cell_angle_gamma   54.73561114
_symmetry_Int_Tables_number   1
_chemical_formula_structural   Li3ZrN2
_chemical_formula_sum   'Li24 Zr8 N16'
_cell_volume   528.55792731
_cell_formula_units_Z   8
loop_
 _symmetry_equiv_pos_site_id
 _symmetry_equiv_pos_as_xyz
  1  'x, y, z'
loop_
 _atom_site_type_symbol
 _atom_site_label
 _atom_site_symmetry_multiplicity
 _atom_site_fract_x
 _atom_site_fract_y
 _atom_site_fract_z
 _atom_site_occupancy
  Li  Li0  1  0.20757500  0.06123900  0.00036400  1
  Li  Li1  1  0.79242500  0.76881500  0.49963600  1
  Li  Li2  1  0.79242500  0.43876100  0.79278800  1
  Li  Li3  1  0.20757500  0.73118500  0.70721200  1
  Li  Li4  1  0.20684800  0.79278800  0.26845100  1
  Li  Li5  1  0.79315200  0.70721200  0.06160300  1
  Li  Li6  1  0.20684800  0.00036400  0.43839700  1
  Li  Li7  1  0.79315200  0.49963600  0.23154900  1
  Li  Li8  1  0.66994600  0.06160300  0.73118500  1
  Li  Li9  1  0.66994600  0.26845100  0.43876100  1
  Li  Li10  1  0.33005400  0.23154900  0.76881500  1
  Li  Li11  1  0.33005400  0.43839700  0.06123900  1
  Li  Li12  1  0.79242500  0.93876100  0.99963600  1
  Li  Li13  1  0.20757500  0.23118500  0.50036400  1
  Li  Li14  1  0.20757500  0.56123900  0.20721200  1
  Li  Li15  1  0.79242500  0.26881500  0.29278800  1
  Li  Li16  1  0.79315200  0.20721200  0.73154900  1
  Li  Li17  1  0.20684800  0.29278800  0.93839700  1
  Li  Li18  1  0.79315200  0.99963600  0.56160300  1
  Li  Li19  1  0.20684800  0.50036400  0.76845100  1
  Li  Li20  1  0.33005400  0.93839700  0.26881500  1
  Li  Li21  1  0.33005400  0.73154900  0.56123900  1
  Li  Li22  1  0.66994600  0.76845100  0.23118500  1
  Li  Li23  1  0.66994600  0.56160300  0.93876100  1
  Zr  Zr0  1  0.24259700  0.00000000  0.74259700  1
  Zr  Zr1  1  0.75740300  0.74259700  0.75740300  1
  Zr  Zr2  1  0.75740300  0.50000000  0.50000000  1
  Zr  Zr3  1  0.24259700  0.75740300  0.00000000  1
  Zr  Zr4  1  0.75740300  0.00000000  0.25740300  1
  Zr  Zr5  1  0.24259700  0.25740300  0.24259700  1
  Zr  Zr6  1  0.24259700  0.50000000  0.50000000  1
  Zr  Zr7  1  0.75740300  0.24259700  0.00000000  1
  N  N0  1  0.00000000  0.00000000  0.50000000  1
  N  N1  1  0.00000000  0.50000000  0.00000000  1
  N  N2  1  0.00000000  0.50000000  0.50000000  1
  N  N3  1  0.00000000  0.00000000  0.00000000  1
  N  N4  1  0.50000000  0.99175700  0.75000000  1
  N  N5  1  0.50000000  0.50824300  0.25000000  1
  N  N6  1  0.00000000  0.25000000  0.74175700  1
  N  N7  1  0.00000000  0.75000000  0.75824300  1
  N  N8  1  0.51648500  0.74175700  0.50824300  1
  N  N9  1  0.48351500  0.75824300  0.99175700  1
  N  N10  1  0.50000000  0.00824300  0.25000000  1
  N  N11  1  0.50000000  0.49175700  0.75000000  1
  N  N12  1  0.00000000  0.75000000  0.25824300  1
  N  N13  1  0.00000000  0.25000000  0.24175700  1
  N  N14  1  0.48351500  0.25824300  0.49175700  1
  N  N15  1  0.51648500  0.24175700  0.00824300  1
loop_
_geom_bond_atom_site_label_1
_geom_bond_atom_site_label_2
_geom_bond_distance
_geom_bond_site_symmetry_2
Li0 N10 2.056735 1_555
Li0 N6 2.086728 1_554
Li0 N3 2.248093 1_555
Li1 N10 2.056730 1_565
Li1 N7 2.086724 1_655
Li1 N2 2.248101 1_655
Li2 N11 2.056740 1_555
Li2 N6 2.086721 1_655
Li2 N1 2.248098 1_656
Li3 N11 2.056736 1_555
Li3 N7 2.086717 1_555
Li3 N0 2.248105 1_565
Li4 N12 2.056732 1_555
Li4 N8 2.086721 1_555
Li4 N3 2.248102 1_565
Li5 N12 2.056732 1_655
Li5 N9 2.086717 1_554
Li5 N1 2.248102 1_655
Li6 N13 2.056732 1_555
Li6 N8 2.086722 1_545
Li6 N0 2.248102 1_555
Li7 N13 2.056732 1_655
Li7 N9 2.086726 1_554
Li7 N2 2.248102 1_655
Li8 N14 2.056736 1_555
Li8 N4 2.086725 1_545
Li8 N3 2.248102 1_656
Li9 N14 2.056723 1_555
Li9 N5 2.086725 1_555
Li9 N0 2.248102 1_655
Li10 N15 2.056731 1_556
Li10 N4 2.086725 1_545
Li10 N2 2.248102 1_555
Li11 N15 2.056728 1_555
Li11 N5 2.086725 1_555
Li11 N1 2.248102 1_555
Li12 N4 2.056735 1_555
Li12 N12 2.086728 1_656
Li12 N3 2.248093 1_666
Li13 N4 2.056730 1_545
Li13 N13 2.086724 1_555
Li13 N2 2.248101 1_555
Li14 N5 2.056740 1_555
Li14 N12 2.086721 1_555
Li14 N1 2.248098 1_555
Li15 N5 2.056736 1_555
Li15 N13 2.086717 1_655
Li15 N0 2.248105 1_655
Li16 N6 2.056732 1_655
Li16 N14 2.086721 1_555
Li16 N3 2.248102 1_656
Li17 N6 2.056732 1_555
Li17 N15 2.086717 1_556
Li17 N1 2.248102 1_556
Li18 N7 2.056732 1_655
Li18 N14 2.086722 1_565
Li18 N0 2.248102 1_665
Li19 N7 2.056732 1_555
Li19 N15 2.086726 1_556
Li19 N2 2.248102 1_555
Li20 N8 2.056736 1_555
Li20 N10 2.086725 1_565
Li20 N3 2.248102 1_565
Li21 N8 2.056723 1_555
Li21 N11 2.086725 1_555
Li21 N0 2.248102 1_565
Li22 N9 2.056731 1_554
Li22 N10 2.086725 1_565
Li22 N2 2.248102 1_655
Li23 N9 2.056728 1_555
Li23 N11 2.086725 1_555
Li23 N1 2.248102 1_656
N0 Zr0 2.140213 1_555
N0 Zr4 2.140213 1_455
N1 Zr1 2.140213 1_454
N1 Zr5 2.140213 1_555
N2 Zr2 2.140213 1_455
N2 Zr6 2.140213 1_555
N3 Zr3 2.140213 1_545
N3 Zr7 2.140213 1_455
N4 Zr1 2.179792 1_555
N4 Zr0 2.179792 1_565
N5 Zr3 2.179792 1_555
N5 Zr2 2.179792 1_555
N6 Zr2 2.179792 1_455
N6 Zr0 2.179792 1_555
N7 Zr1 2.179792 1_455
N7 Zr3 2.179792 1_556
N8 Zr1 2.179795 1_555
N8 Zr2 2.179795 1_555
N9 Zr0 2.179789 1_565
N9 Zr3 2.179801 1_556
N10 Zr5 2.179792 1_555
N10 Zr4 2.179792 1_555
N11 Zr7 2.179792 1_556
N11 Zr6 2.179792 1_555
N12 Zr6 2.179792 1_555
N12 Zr4 2.179792 1_465
N13 Zr5 2.179792 1_555
N13 Zr7 2.179792 1_455
N14 Zr5 2.179795 1_555
N14 Zr6 2.179795 1_555
N15 Zr4 2.179789 1_555
N15 Zr7 2.179801 1_555
