# generated using pymatgen
data_Li4MnCo3O8
_symmetry_space_group_name_H-M   'P 1'
_cell_length_a   5.07136092
_cell_length_b   5.07136092
_cell_length_c   10.15797737
_cell_angle_alpha   80.94741912
_cell_angle_beta   80.94741912
_cell_angle_gamma   33.54348492
_symmetry_Int_Tables_number   1
_chemical_formula_structural   Li4MnCo3O8
_chemical_formula_sum   'Li4 Mn1 Co3 O8'
_cell_volume   142.39630462
_cell_formula_units_Z   1
loop_
 _symmetry_equiv_pos_site_id
 _symmetry_equiv_pos_as_xyz
  1  'x, y, z'
loop_
 _atom_site_type_symbol
 _atom_site_label
 _atom_site_symmetry_multiplicity
 _atom_site_fract_x
 _atom_site_fract_y
 _atom_site_fract_z
 _atom_site_occupancy
  Li  Li0  1  0.75330000  0.75330000  0.61971900  1
  Li  Li1  1  0.24670000  0.24670000  0.38028100  1
  Li  Li2  1  0.75244700  0.75244700  0.12956600  1
  Li  Li3  1  0.24755300  0.24755300  0.87043400  1
  Mn  Mn0  1  0.50000000  0.50000000  0.00000000  1
  Co  Co0  1  0.99938300  0.99938300  0.74188800  1
  Co  Co1  1  0.50000000  0.50000000  0.50000000  1
  Co  Co2  1  0.00061700  0.00061700  0.25811200  1
  O  O0  1  0.11143400  0.11143400  0.55676000  1
  O  O1  1  0.61387400  0.61387400  0.32002500  1
  O  O2  1  0.11264100  0.11264100  0.05531200  1
  O  O3  1  0.61188100  0.61188100  0.82366500  1
  O  O4  1  0.38612600  0.38612600  0.67997500  1
  O  O5  1  0.88856600  0.88856600  0.44324000  1
  O  O6  1  0.38811900  0.38811900  0.17633500  1
  O  O7  1  0.88735900  0.88735900  0.94468800  1
loop_
_geom_bond_atom_site_label_1
_geom_bond_atom_site_label_2
_geom_bond_distance
_geom_bond_site_symmetry_2
Li0 O5 2.040899 1_555
Li0 O4 2.107013 1_565
Li0 O4 2.107013 1_655
Li0 O0 2.176730 1_655
Li0 O0 2.176730 1_565
Li0 O3 2.289731 1_555
Li1 O0 2.040899 1_555
Li1 O1 2.107013 1_545
Li1 O1 2.107013 1_455
Li1 O5 2.176730 1_545
Li1 O5 2.176730 1_455
Li1 O6 2.289731 1_555
Li2 O6 2.075780 1_655
Li2 O6 2.075780 1_565
Li2 O7 2.105874 1_554
Li2 O1 2.167547 1_555
Li2 O2 2.211411 1_655
Li2 O2 2.211411 1_565
Li3 O3 2.075780 1_545
Li3 O3 2.075780 1_455
Li3 O2 2.105874 1_556
Li3 O4 2.167547 1_555
Li3 O7 2.211411 1_455
Li3 O7 2.211411 1_545
Mn0 O6 1.936308 1_555
Mn0 O3 1.936308 1_554
Mn0 O2 1.963615 1_655
Mn0 O2 1.963615 1_565
Mn0 O7 1.963615 1_544
Mn0 O7 1.963615 1_454
Co0 O4 1.993513 1_565
Co0 O4 1.993513 1_655
Co0 O0 2.011944 1_665
Co0 O3 2.079273 1_655
Co0 O3 2.079273 1_565
Co0 O7 2.165804 1_555
Co1 O5 1.962164 1_455
Co1 O5 1.962164 1_545
Co1 O0 1.962164 1_565
Co1 O0 1.962164 1_655
Co1 O4 1.975023 1_555
Co1 O1 1.975023 1_555
Co2 O1 1.993513 1_545
Co2 O1 1.993513 1_455
Co2 O5 2.011944 1_445
Co2 O6 2.079273 1_455
Co2 O6 2.079273 1_545
Co2 O2 2.165804 1_555
