# generated using pymatgen
data_Mg3SiO4
_symmetry_space_group_name_H-M   'P 1'
_cell_length_a   4.36626052
_cell_length_b   4.36626052
_cell_length_c   4.36626052
_cell_angle_alpha   90.00000000
_cell_angle_beta   90.00000000
_cell_angle_gamma   90.00000000
_symmetry_Int_Tables_number   1
_chemical_formula_structural   Mg3SiO4
_chemical_formula_sum   'Mg3 Si1 O4'
_cell_volume   83.23939885
_cell_formula_units_Z   1
loop_
 _symmetry_equiv_pos_site_id
 _symmetry_equiv_pos_as_xyz
  1  'x, y, z'
loop_
 _atom_site_type_symbol
 _atom_site_label
 _atom_site_symmetry_multiplicity
 _atom_site_fract_x
 _atom_site_fract_y
 _atom_site_fract_z
 _atom_site_occupancy
  Mg  Mg0  1  0.00000000  0.50000000  0.50000000  1
  Mg  Mg1  1  0.50000000  0.00000000  0.50000000  1
  Mg  Mg2  1  0.50000000  0.50000000  0.00000000  1
  Si  Si0  1  0.00000000  0.00000000  0.00000000  1
  O  O0  1  0.50000000  0.00000000  0.00000000  1
  O  O1  1  0.50000000  0.50000000  0.50000000  1
  O  O2  1  0.00000000  0.00000000  0.50000000  1
  O  O3  1  0.00000000  0.50000000  0.00000000  1
loop_
_geom_bond_atom_site_label_1
_geom_bond_atom_site_label_2
_geom_bond_distance
_geom_bond_site_symmetry_2
Mg0 O3 2.183130 1_555
Mg0 O2 2.183130 1_555
Mg0 O2 2.183130 1_565
Mg0 O3 2.183130 1_556
Mg0 O1 2.183130 1_555
Mg0 O1 2.183130 1_455
Mg1 O2 2.183130 1_555
Mg1 O0 2.183130 1_555
Mg1 O0 2.183130 1_556
Mg1 O1 2.183130 1_555
Mg1 O1 2.183130 1_545
Mg1 O2 2.183130 1_655
Mg2 O3 2.183130 1_555
Mg2 O0 2.183130 1_555
Mg2 O1 2.183130 1_555
Mg2 O1 2.183130 1_554
Mg2 O3 2.183130 1_655
Mg2 O0 2.183130 1_565
O0 Si0 2.183130 1_555
O0 Si0 2.183130 1_655
O2 Si0 2.183130 1_555
O2 Si0 2.183130 1_556
O3 Si0 2.183130 1_565
O3 Si0 2.183130 1_555
