# generated using pymatgen
data_LiMg
_symmetry_space_group_name_H-M   'P 1'
_cell_length_a   16.21542710
_cell_length_b   16.21542710
_cell_length_c   10.07299400
_cell_angle_alpha   90.00000000
_cell_angle_beta   90.00000000
_cell_angle_gamma   157.24073106
_symmetry_Int_Tables_number   1
_chemical_formula_structural   LiMg
_chemical_formula_sum   'Li24 Mg24'
_cell_volume   1024.63538222
_cell_formula_units_Z   24
loop_
 _symmetry_equiv_pos_site_id
 _symmetry_equiv_pos_as_xyz
  1  'x, y, z'
loop_
 _atom_site_type_symbol
 _atom_site_label
 _atom_site_symmetry_multiplicity
 _atom_site_fract_x
 _atom_site_fract_y
 _atom_site_fract_z
 _atom_site_occupancy
  Li  Li0_0  1  0.49929750  0.00070250  0.00000000  1
  Li  Li0_1  1  0.49929750  0.00070250  0.50000000  1
  Li  Li0_2  1  0.49929750  0.50070250  0.00000000  1
  Li  Li0_3  1  0.49929750  0.50070250  0.50000000  1
  Li  Li0_4  1  0.99929750  0.00070250  0.00000000  1
  Li  Li0_5  1  0.99929750  0.00070250  0.50000000  1
  Li  Li0_6  1  0.99929750  0.50070250  0.00000000  1
  Li  Li0_7  1  0.99929750  0.50070250  0.50000000  1
  Li  Li1_0  1  0.33262200  0.16737800  0.00000000  1
  Li  Li1_1  1  0.33262200  0.16737800  0.50000000  1
  Li  Li1_2  1  0.33262200  0.66737800  0.00000000  1
  Li  Li1_3  1  0.33262200  0.66737800  0.50000000  1
  Li  Li1_4  1  0.83262200  0.16737800  0.00000000  1
  Li  Li1_5  1  0.83262200  0.16737800  0.50000000  1
  Li  Li1_6  1  0.83262200  0.66737800  0.00000000  1
  Li  Li1_7  1  0.83262200  0.66737800  0.50000000  1
  Li  Li2_0  1  0.05580700  0.44419300  0.25000000  1
  Li  Li2_1  1  0.05580700  0.44419300  0.75000000  1
  Li  Li2_2  1  0.05580700  0.94419300  0.25000000  1
  Li  Li2_3  1  0.05580700  0.94419300  0.75000000  1
  Li  Li2_4  1  0.55580700  0.44419300  0.25000000  1
  Li  Li2_5  1  0.55580700  0.44419300  0.75000000  1
  Li  Li2_6  1  0.55580700  0.94419300  0.25000000  1
  Li  Li2_7  1  0.55580700  0.94419300  0.75000000  1
  Mg  Mg0_0  1  0.16623750  0.33376250  0.00000000  1
  Mg  Mg0_1  1  0.16623750  0.33376250  0.50000000  1
  Mg  Mg0_2  1  0.16623750  0.83376250  0.00000000  1
  Mg  Mg0_3  1  0.16623750  0.83376250  0.50000000  1
  Mg  Mg0_4  1  0.66623750  0.33376250  0.00000000  1
  Mg  Mg0_5  1  0.66623750  0.33376250  0.50000000  1
  Mg  Mg0_6  1  0.66623750  0.83376250  0.00000000  1
  Mg  Mg0_7  1  0.66623750  0.83376250  0.50000000  1
  Mg  Mg1_0  1  0.22497950  0.27502050  0.25000000  1
  Mg  Mg1_1  1  0.22497950  0.27502050  0.75000000  1
  Mg  Mg1_2  1  0.22497950  0.77502050  0.25000000  1
  Mg  Mg1_3  1  0.22497950  0.77502050  0.75000000  1
  Mg  Mg1_4  1  0.72497950  0.27502050  0.25000000  1
  Mg  Mg1_5  1  0.72497950  0.27502050  0.75000000  1
  Mg  Mg1_6  1  0.72497950  0.77502050  0.25000000  1
  Mg  Mg1_7  1  0.72497950  0.77502050  0.75000000  1
  Mg  Mg2_0  1  0.38772300  0.11227700  0.25000000  1
  Mg  Mg2_1  1  0.38772300  0.11227700  0.75000000  1
  Mg  Mg2_2  1  0.38772300  0.61227700  0.25000000  1
  Mg  Mg2_3  1  0.38772300  0.61227700  0.75000000  1
  Mg  Mg2_4  1  0.88772300  0.11227700  0.25000000  1
  Mg  Mg2_5  1  0.88772300  0.11227700  0.75000000  1
  Mg  Mg2_6  1  0.88772300  0.61227700  0.25000000  1
  Mg  Mg2_7  1  0.88772300  0.61227700  0.75000000  1
loop_
_geom_bond_atom_site_label_1
_geom_bond_atom_site_label_2
_geom_bond_distance
_geom_bond_site_symmetry_2
Li0_0 Mg1_3 3.081956 1_544
Li0_0 Mg1_2 3.081956 1_545
Li0_0 Mg1_4 3.081956 1_555
Li0_0 Mg1_5 3.081956 1_554
Li0_0 Mg0_4 3.087505 1_555
Li0_0 Mg0_2 3.087505 1_545
Li0_0 Li2_6 3.093450 1_545
Li0_0 Li2_7 3.093450 1_544
Li0_0 Li1_2 3.094701 1_545
Li0_0 Li1_4 3.094701 1_555
Li0_0 Li0_6 3.199448 1_445
Li0_0 Li0_6 3.199448 1_555
Li0_1 Mg1_3 3.081956 1_545
Li0_1 Mg1_2 3.081956 1_545
Li0_1 Mg1_4 3.081956 1_555
Li0_1 Mg1_5 3.081956 1_555
Li0_1 Mg0_5 3.087505 1_555
Li0_1 Mg0_3 3.087505 1_545
Li0_1 Li2_7 3.093450 1_545
Li0_1 Li2_6 3.093450 1_545
Li0_1 Li1_3 3.094701 1_545
Li0_1 Li1_5 3.094701 1_555
Li0_1 Li0_7 3.199448 1_445
Li0_1 Li0_7 3.199448 1_555
Li0_2 Mg1_1 3.081956 1_554
Li0_2 Mg1_0 3.081956 1_555
Li0_2 Mg1_6 3.081956 1_555
Li0_2 Mg1_7 3.081956 1_554
Li0_2 Mg0_6 3.087505 1_555
Li0_2 Mg0_0 3.087505 1_555
Li0_2 Li2_5 3.093450 1_554
Li0_2 Li2_4 3.093450 1_555
Li0_2 Li1_0 3.094701 1_555
Li0_2 Li1_6 3.094701 1_555
Li0_2 Li0_4 3.199448 1_565
Li0_2 Li0_4 3.199448 1_455
Li0_3 Mg1_1 3.081956 1_555
Li0_3 Mg1_0 3.081956 1_555
Li0_3 Mg1_7 3.081956 1_555
Li0_3 Mg1_6 3.081956 1_555
Li0_3 Mg0_7 3.087505 1_555
Li0_3 Mg0_1 3.087505 1_555
Li0_3 Li2_4 3.093450 1_555
Li0_3 Li2_5 3.093450 1_555
Li0_3 Li1_1 3.094701 1_555
Li0_3 Li1_7 3.094701 1_555
Li0_3 Li0_5 3.199448 1_565
Li0_3 Li0_5 3.199448 1_455
Li0_4 Mg1_6 3.081956 1_545
Li0_4 Mg1_7 3.081956 1_544
Li0_4 Mg1_0 3.081956 1_655
Li0_4 Mg1_1 3.081956 1_654
Li0_4 Mg0_6 3.087505 1_545
Li0_4 Mg0_0 3.087505 1_655
Li0_4 Li2_2 3.093450 1_645
Li0_4 Li2_3 3.093450 1_644
Li0_4 Li1_6 3.094701 1_545
Li0_4 Li1_0 3.094701 1_655
Li0_5 Mg1_6 3.081956 1_545
Li0_5 Mg1_7 3.081956 1_545
Li0_5 Mg1_0 3.081956 1_655
Li0_5 Mg1_1 3.081956 1_655
Li0_5 Mg0_7 3.087505 1_545
Li0_5 Mg0_1 3.087505 1_655
Li0_5 Li2_2 3.093450 1_645
Li0_5 Li2_3 3.093450 1_645
Li0_5 Li1_7 3.094701 1_545
Li0_5 Li1_1 3.094701 1_655
Li0_6 Mg1_5 3.081956 1_554
Li0_6 Mg1_4 3.081956 1_555
Li0_6 Mg1_2 3.081956 1_655
Li0_6 Mg1_3 3.081956 1_654
Li0_6 Mg0_2 3.087505 1_655
Li0_6 Mg0_4 3.087505 1_555
Li0_6 Li2_1 3.093450 1_654
Li0_6 Li2_0 3.093450 1_655
Li0_6 Li1_4 3.094701 1_555
Li0_6 Li1_2 3.094701 1_655
Li0_7 Mg1_5 3.081956 1_555
Li0_7 Mg1_4 3.081956 1_555
Li0_7 Mg1_3 3.081956 1_655
Li0_7 Mg1_2 3.081956 1_655
Li0_7 Mg0_3 3.087505 1_655
Li0_7 Mg0_5 3.087505 1_555
Li0_7 Li2_1 3.093450 1_655
Li0_7 Li2_0 3.093450 1_655
Li0_7 Li1_5 3.094701 1_555
Li0_7 Li1_3 3.094701 1_655
Li1_0 Mg2_0 3.067659 1_555
Li1_0 Mg2_1 3.067659 1_554
Li1_0 Mg0_4 3.102624 1_555
Li1_0 Mg0_2 3.102624 1_545
Li1_0 Li2_4 3.102823 1_555
Li1_0 Li2_5 3.102823 1_554
Li1_0 Li2_3 3.102823 1_544
Li1_0 Li2_2 3.102823 1_545
Li1_0 Li1_6 3.199448 1_555
Li1_0 Li1_6 3.199448 1_445
Li1_1 Mg2_0 3.067659 1_555
Li1_1 Mg2_1 3.067659 1_555
Li1_1 Mg0_5 3.102624 1_555
Li1_1 Mg0_3 3.102624 1_545
Li1_1 Li2_4 3.102823 1_555
Li1_1 Li2_5 3.102823 1_555
Li1_1 Li2_2 3.102823 1_545
Li1_1 Li2_3 3.102823 1_545
Li1_1 Li1_7 3.199448 1_555
Li1_1 Li1_7 3.199448 1_445
Li1_2 Mg2_3 3.067659 1_554
Li1_2 Mg2_2 3.067659 1_555
Li1_2 Mg0_0 3.102624 1_555
Li1_2 Mg0_6 3.102624 1_555
Li1_2 Li2_7 3.102823 1_554
Li1_2 Li2_6 3.102823 1_555
Li1_2 Li2_1 3.102823 1_554
Li1_2 Li2_0 3.102823 1_555
Li1_2 Li1_4 3.199448 1_565
Li1_2 Li1_4 3.199448 1_455
Li1_3 Mg2_2 3.067659 1_555
Li1_3 Mg2_3 3.067659 1_555
Li1_3 Mg0_1 3.102624 1_555
Li1_3 Mg0_7 3.102624 1_555
Li1_3 Li2_6 3.102823 1_555
Li1_3 Li2_7 3.102823 1_555
Li1_3 Li2_1 3.102823 1_555
Li1_3 Li2_0 3.102823 1_555
Li1_3 Li1_5 3.199448 1_565
Li1_3 Li1_5 3.199448 1_455
Li1_4 Mg2_4 3.067659 1_555
Li1_4 Mg2_5 3.067659 1_554
Li1_4 Mg0_0 3.102624 1_655
Li1_4 Mg0_6 3.102624 1_545
Li1_4 Li2_7 3.102823 1_544
Li1_4 Li2_6 3.102823 1_545
Li1_4 Li2_1 3.102823 1_654
Li1_4 Li2_0 3.102823 1_655
Li1_5 Mg2_4 3.067659 1_555
Li1_5 Mg2_5 3.067659 1_555
Li1_5 Mg0_1 3.102624 1_655
Li1_5 Mg0_7 3.102624 1_545
Li1_5 Li2_7 3.102823 1_545
Li1_5 Li2_1 3.102823 1_655
Li1_5 Li2_6 3.102823 1_545
Li1_5 Li2_0 3.102823 1_655
Li1_6 Mg2_6 3.067659 1_555
Li1_6 Mg2_7 3.067659 1_554
Li1_6 Mg0_2 3.102624 1_655
Li1_6 Mg0_4 3.102624 1_555
Li1_6 Li2_3 3.102823 1_654
Li1_6 Li2_2 3.102823 1_655
Li1_6 Li2_4 3.102823 1_555
Li1_6 Li2_5 3.102823 1_554
Li1_7 Mg2_6 3.067659 1_555
Li1_7 Mg2_7 3.067659 1_555
Li1_7 Mg0_3 3.102624 1_655
Li1_7 Mg0_5 3.102624 1_555
Li1_7 Li2_3 3.102823 1_655
Li1_7 Li2_2 3.102823 1_655
Li1_7 Li2_5 3.102823 1_555
Li1_7 Li2_4 3.102823 1_555
Li2_0 Mg1_4 3.027021 1_455
Li2_0 Mg1_2 3.027021 1_555
Li2_0 Mg2_4 3.056455 1_455
Li2_0 Mg2_2 3.056455 1_555
Li2_1 Mg1_5 3.027021 1_455
Li2_1 Mg1_3 3.027021 1_555
Li2_1 Mg2_5 3.056455 1_455
Li2_1 Mg2_3 3.056455 1_555
Li2_2 Mg1_6 3.027021 1_455
Li2_2 Mg1_0 3.027021 1_565
Li2_2 Mg2_0 3.056455 1_565
Li2_2 Mg2_6 3.056455 1_455
Li2_3 Mg1_7 3.027021 1_455
Li2_3 Mg1_1 3.027021 1_565
Li2_3 Mg2_1 3.056455 1_565
Li2_3 Mg2_7 3.056455 1_455
Li2_4 Mg1_0 3.027021 1_555
Li2_4 Mg1_6 3.027021 1_555
Li2_4 Mg2_0 3.056455 1_555
Li2_4 Mg2_6 3.056455 1_555
Li2_5 Mg1_1 3.027021 1_555
Li2_5 Mg1_7 3.027021 1_555
Li2_5 Mg2_1 3.056455 1_555
Li2_5 Mg2_7 3.056455 1_555
Li2_6 Mg1_2 3.027021 1_555
Li2_6 Mg1_4 3.027021 1_565
Li2_6 Mg2_2 3.056455 1_555
Li2_6 Mg2_4 3.056455 1_565
Li2_7 Mg1_5 3.027021 1_565
Li2_7 Mg1_3 3.027021 1_555
Li2_7 Mg2_3 3.056455 1_555
Li2_7 Mg2_5 3.056455 1_565
Mg0_0 Mg2_5 3.118102 1_454
Mg0_0 Mg2_4 3.118102 1_455
Mg0_0 Mg2_3 3.118102 1_554
Mg0_0 Mg2_2 3.118102 1_555
Mg0_0 Mg1_1 3.135206 1_554
Mg0_0 Mg1_0 3.135206 1_555
Mg0_0 Mg0_6 3.199448 1_445
Mg0_0 Mg0_6 3.199448 1_555
Mg0_1 Mg2_5 3.118102 1_455
Mg0_1 Mg2_4 3.118102 1_455
Mg0_1 Mg2_2 3.118102 1_555
Mg0_1 Mg2_3 3.118102 1_555
Mg0_1 Mg1_0 3.135206 1_555
Mg0_1 Mg1_1 3.135206 1_555
Mg0_1 Mg0_7 3.199448 1_445
Mg0_1 Mg0_7 3.199448 1_555
Mg0_2 Mg2_6 3.118102 1_455
Mg0_2 Mg2_7 3.118102 1_454
Mg0_2 Mg2_1 3.118102 1_564
Mg0_2 Mg2_0 3.118102 1_565
Mg0_2 Mg1_3 3.135206 1_554
Mg0_2 Mg1_2 3.135206 1_555
Mg0_2 Mg0_4 3.199448 1_565
Mg0_2 Mg0_4 3.199448 1_455
Mg0_3 Mg2_6 3.118102 1_455
Mg0_3 Mg2_7 3.118102 1_455
Mg0_3 Mg2_0 3.118102 1_565
Mg0_3 Mg2_1 3.118102 1_565
Mg0_3 Mg1_2 3.135206 1_555
Mg0_3 Mg1_3 3.135206 1_555
Mg0_3 Mg0_5 3.199448 1_565
Mg0_3 Mg0_5 3.199448 1_455
Mg0_4 Mg2_1 3.118102 1_554
Mg0_4 Mg2_0 3.118102 1_555
Mg0_4 Mg2_6 3.118102 1_555
Mg0_4 Mg2_7 3.118102 1_554
Mg0_4 Mg1_5 3.135206 1_554
Mg0_4 Mg1_4 3.135206 1_555
Mg0_5 Mg2_0 3.118102 1_555
Mg0_5 Mg2_1 3.118102 1_555
Mg0_5 Mg2_6 3.118102 1_555
Mg0_5 Mg2_7 3.118102 1_555
Mg0_5 Mg1_4 3.135206 1_555
Mg0_5 Mg1_5 3.135206 1_555
Mg0_6 Mg2_3 3.118102 1_554
Mg0_6 Mg2_2 3.118102 1_555
Mg0_6 Mg2_4 3.118102 1_565
Mg0_6 Mg2_5 3.118102 1_564
Mg0_6 Mg1_7 3.135206 1_554
Mg0_6 Mg1_6 3.135206 1_555
Mg0_7 Mg2_2 3.118102 1_555
Mg0_7 Mg2_3 3.118102 1_555
Mg0_7 Mg2_4 3.118102 1_565
Mg0_7 Mg2_5 3.118102 1_565
Mg0_7 Mg1_6 3.135206 1_555
Mg0_7 Mg1_7 3.135206 1_555
Mg1_0 Mg1_6 3.199448 1_445
Mg1_0 Mg1_6 3.199448 1_555
Mg1_0 Mg2_2 3.202367 1_555
Mg1_0 Mg2_4 3.202367 1_455
Mg1_1 Mg1_7 3.199448 1_555
Mg1_1 Mg1_7 3.199448 1_445
Mg1_1 Mg2_3 3.202367 1_555
Mg1_1 Mg2_5 3.202367 1_455
Mg1_2 Mg1_4 3.199448 1_565
Mg1_2 Mg1_4 3.199448 1_455
Mg1_2 Mg2_6 3.202367 1_455
Mg1_2 Mg2_0 3.202367 1_565
Mg1_3 Mg1_5 3.199448 1_565
Mg1_3 Mg1_5 3.199448 1_455
Mg1_3 Mg2_7 3.202367 1_455
Mg1_3 Mg2_1 3.202367 1_565
Mg1_4 Mg2_6 3.202367 1_555
Mg1_4 Mg2_0 3.202367 1_555
Mg1_5 Mg2_7 3.202367 1_555
Mg1_5 Mg2_1 3.202367 1_555
Mg1_6 Mg2_2 3.202367 1_555
Mg1_6 Mg2_4 3.202367 1_565
Mg1_7 Mg2_3 3.202367 1_555
Mg1_7 Mg2_5 3.202367 1_565
Mg2_0 Mg2_6 3.199448 1_555
Mg2_0 Mg2_6 3.199448 1_445
Mg2_1 Mg2_7 3.199448 1_555
Mg2_1 Mg2_7 3.199448 1_445
Mg2_2 Mg2_4 3.199448 1_565
Mg2_2 Mg2_4 3.199448 1_455
Mg2_3 Mg2_5 3.199448 1_565
Mg2_3 Mg2_5 3.199448 1_455
