# generated using pymatgen
data_Co(MoS2)2
_symmetry_space_group_name_H-M   'P 1'
_cell_length_a   6.57264600
_cell_length_b   6.80388806
_cell_length_c   11.75193707
_cell_angle_alpha   80.35847697
_cell_angle_beta   73.76122256
_cell_angle_gamma   61.11804585
_symmetry_Int_Tables_number   1
_chemical_formula_structural   Co(MoS2)2
_chemical_formula_sum   'Co4 Mo8 S16'
_cell_volume   441.48544823
_cell_formula_units_Z   4
loop_
 _symmetry_equiv_pos_site_id
 _symmetry_equiv_pos_as_xyz
  1  'x, y, z'
loop_
 _atom_site_type_symbol
 _atom_site_label
 _atom_site_symmetry_multiplicity
 _atom_site_fract_x
 _atom_site_fract_y
 _atom_site_fract_z
 _atom_site_occupancy
  Co  Co0  1  0.71167300  0.29447900  0.53362400  1
  Co  Co1  1  0.46022300  0.79447900  0.03362400  1
  Co  Co2  1  0.95560500  0.81393100  0.03455500  1
  Co  Co3  1  0.19590900  0.31393100  0.53455500  1
  Mo  Mo0  1  0.34253000  0.25821400  0.27373300  1
  Mo  Mo1  1  0.12552300  0.75821400  0.77373300  1
  Mo  Mo2  1  0.32109200  0.85670300  0.29000300  1
  Mo  Mo3  1  0.53220200  0.35670300  0.79000300  1
  Mo  Mo4  1  0.78002100  0.86905400  0.29173000  1
  Mo  Mo5  1  0.05919500  0.36905400  0.79173000  1
  Mo  Mo6  1  0.88670800  0.24758600  0.27294200  1
  Mo  Mo7  1  0.59276400  0.74758600  0.77294200  1
  S  S0  1  0.41346600  0.98549400  0.43546200  1
  S  S1  1  0.16557900  0.48549400  0.93546200  1
  S  S2  1  0.25169900  0.12819500  0.12819400  1
  S  S3  1  0.49191200  0.62819500  0.62819400  1
  S  S4  1  0.21094600  0.65426100  0.17062700  1
  S  S5  1  0.96416600  0.15426100  0.67062700  1
  S  S6  1  0.45366700  0.45986800  0.39238500  1
  S  S7  1  0.69407900  0.95986800  0.89238500  1
  S  S8  1  0.72853300  0.64648000  0.16332600  1
  S  S9  1  0.46166100  0.14648000  0.66332600  1
  S  S10  1  0.93731300  0.46887800  0.40049200  1
  S  S11  1  0.19331700  0.96887800  0.90049200  1
  S  S12  1  0.93305300  0.96657900  0.42731600  1
  S  S13  1  0.67305200  0.46657900  0.92731600  1
  S  S14  1  0.73223400  0.15007900  0.13721100  1
  S  S15  1  0.98047500  0.65007900  0.63721100  1
loop_
_geom_bond_atom_site_label_1
_geom_bond_atom_site_label_2
_geom_bond_distance
_geom_bond_site_symmetry_2
Co0 S3 2.292654 1_555
Co0 S12 2.331607 1_545
Co0 S5 2.388920 1_555
Co0 S9 2.391871 1_555
Co0 S10 2.415715 1_555
Co0 S6 2.449934 1_555
Co1 S2 2.292654 1_565
Co1 S13 2.331607 1_554
Co1 S4 2.388916 1_555
Co1 S8 2.391876 1_555
Co1 S11 2.415710 1_554
Co1 S7 2.449934 1_554
Co2 S1 2.290869 1_654
Co2 S14 2.351958 1_565
Co2 S8 2.370126 1_555
Co2 S11 2.385960 1_654
Co2 S4 2.389922 1_655
Co2 S7 2.476657 1_554
Co3 S0 2.290869 1_545
Co3 S15 2.351958 1_455
Co3 S9 2.370126 1_555
Co3 S10 2.385960 1_455
Co3 S5 2.389922 1_455
Co3 S6 2.476652 1_555
Mo0 S2 2.377480 1_555
Mo0 S0 2.398208 1_545
Mo0 S14 2.439812 1_555
Mo0 S10 2.485058 1_455
Mo0 S6 2.557153 1_555
Mo0 S4 2.592003 1_555
Mo1 S3 2.377480 1_555
Mo1 S1 2.398207 1_555
Mo1 S15 2.439817 1_455
Mo1 S11 2.485058 1_555
Mo1 S7 2.557157 1_455
Mo1 S5 2.592003 1_465
Mo2 S0 2.377978 1_555
Mo2 S2 2.393897 1_565
Mo2 S12 2.434764 1_455
Mo2 S8 2.493382 1_555
Mo2 S4 2.562813 1_555
Mo2 S6 2.592775 1_555
Mo3 S1 2.377974 1_555
Mo3 S3 2.393897 1_555
Mo3 S13 2.434764 1_555
Mo3 S9 2.493382 1_555
Mo3 S5 2.562813 1_555
Mo3 S7 2.592775 1_545
Mo4 S0 2.369313 1_555
Mo4 S14 2.372324 1_565
Mo4 S12 2.426137 1_555
Mo4 S8 2.496203 1_555
Mo4 S4 2.574295 1_655
Mo4 S10 2.640077 1_555
Mo5 S1 2.369317 1_555
Mo5 S15 2.372324 1_455
Mo5 S13 2.426137 1_455
Mo5 S9 2.496203 1_555
Mo5 S5 2.574295 1_455
Mo5 S11 2.640077 1_545
Mo6 S2 2.367816 1_655
Mo6 S12 2.371539 1_545
Mo6 S14 2.434389 1_555
Mo6 S10 2.478523 1_555
Mo6 S6 2.575057 1_555
Mo6 S8 2.637890 1_555
Mo7 S3 2.367816 1_555
Mo7 S13 2.371539 1_555
Mo7 S15 2.434384 1_555
Mo7 S11 2.478523 1_555
Mo7 S7 2.575052 1_555
Mo7 S9 2.637890 1_565
