# generated using pymatgen
data_H3CN4O
_symmetry_space_group_name_H-M   'P 1'
_cell_length_a   8.05778924
_cell_length_b   7.85370947
_cell_length_c   7.85370947
_cell_angle_alpha   99.05668715
_cell_angle_beta   105.69337242
_cell_angle_gamma   105.69337242
_symmetry_Int_Tables_number   1
_chemical_formula_structural   H3CN4O
_chemical_formula_sum   'H12 C4 N16 O4'
_cell_volume   446.16460699
_cell_formula_units_Z   4
loop_
 _symmetry_equiv_pos_site_id
 _symmetry_equiv_pos_as_xyz
  1  'x, y, z'
loop_
 _atom_site_type_symbol
 _atom_site_label
 _atom_site_symmetry_multiplicity
 _atom_site_fract_x
 _atom_site_fract_y
 _atom_site_fract_z
 _atom_site_occupancy
  H  H0  1  0.75611100  0.58133900  0.82428200  1
  H  H1  1  0.24388900  0.41866100  0.17571800  1
  H  H2  1  0.74388900  0.17571800  0.41866100  1
  H  H3  1  0.25611100  0.82428200  0.58133900  1
  H  H4  1  0.73620200  0.46041600  0.36259200  1
  H  H5  1  0.26379800  0.53958400  0.63740800  1
  H  H6  1  0.76379800  0.63740800  0.53958400  1
  H  H7  1  0.23620200  0.36259200  0.46041600  1
  H  H8  1  0.76412600  0.37006400  0.86745200  1
  H  H9  1  0.23587400  0.62993600  0.13254800  1
  H  H10  1  0.73587400  0.13254800  0.62993600  1
  H  H11  1  0.26412600  0.86745200  0.37006400  1
  C  C0  1  0.75000000  0.91752400  0.08247600  1
  C  C1  1  0.25000000  0.08247600  0.91752400  1
  C  C2  1  0.75000000  0.39230200  0.60769800  1
  C  C3  1  0.25000000  0.60769800  0.39230200  1
  N  N0  1  0.74062100  0.86560400  0.90811900  1
  N  N1  1  0.25937900  0.13439600  0.09188100  1
  N  N2  1  0.75937900  0.09188100  0.13439600  1
  N  N3  1  0.24062100  0.90811900  0.86560400  1
  N  N4  1  0.75874800  0.45328900  0.77954300  1
  N  N5  1  0.24125200  0.54671100  0.22045700  1
  N  N6  1  0.74125200  0.22045700  0.54671100  1
  N  N7  1  0.25874800  0.77954300  0.45328900  1
  N  N8  1  0.75000000  0.50455600  0.49544400  1
  N  N9  1  0.25000000  0.49544400  0.50455600  1
  N  N10  1  0.75574500  0.15133800  0.98430700  1
  N  N11  1  0.24425500  0.84866200  0.01569300  1
  N  N12  1  0.74425500  0.01569300  0.84866200  1
  N  N13  1  0.25574500  0.98430700  0.15133800  1
  N  N14  1  0.75000000  0.79734000  0.20266000  1
  N  N15  1  0.25000000  0.20266000  0.79734000  1
  O  O0  1  0.74645400  0.63952000  0.14205700  1
  O  O1  1  0.25354600  0.36048000  0.85794300  1
  O  O2  1  0.75354600  0.85794300  0.36048000  1
  O  O3  1  0.24645400  0.14205700  0.63952000  1
loop_
_geom_bond_atom_site_label_1
_geom_bond_atom_site_label_2
_geom_bond_distance
_geom_bond_site_symmetry_2
H0 N4 1.019623 1_555
H1 N5 1.019623 1_555
H2 N6 1.019623 1_555
H3 N7 1.019623 1_555
H4 N8 1.011781 1_555
H5 N9 1.011781 1_555
H6 N8 1.011781 1_555
H7 N9 1.011781 1_555
H8 N4 1.023220 1_555
H9 N5 1.023220 1_555
H10 N6 1.023220 1_555
H11 N7 1.023220 1_555
C0 N0 1.341140 1_554
C0 N2 1.341140 1_565
C0 N14 1.436086 1_555
C1 N3 1.341140 1_545
C1 N1 1.341140 1_556
C1 N15 1.436086 1_555
C2 N6 1.335147 1_555
C2 N4 1.335147 1_555
C2 N8 1.341330 1_555
C3 N5 1.335147 1_555
C3 N7 1.335147 1_555
C3 N9 1.341330 1_555
N0 N12 1.330558 1_565
N1 N13 1.330558 1_545
N10 N2 1.330558 1_556
N10 N12 1.346983 1_555
N11 N3 1.330558 1_554
N11 N13 1.346983 1_555
N14 O2 1.245553 1_555
N14 O0 1.245553 1_555
N15 O1 1.245553 1_555
N15 O3 1.245553 1_555
