# generated using pymatgen
data_FeOF
_symmetry_space_group_name_H-M   'P 1'
_cell_length_a   3.09240700
_cell_length_b   14.19043100
_cell_length_c   14.22654308
_cell_angle_alpha   89.90616187
_cell_angle_beta   90.00000000
_cell_angle_gamma   90.00000000
_symmetry_Int_Tables_number   1
_chemical_formula_structural   FeOF
_chemical_formula_sum   'Fe18 O18 F18'
_cell_volume   624.29669360
_cell_formula_units_Z   18
loop_
 _symmetry_equiv_pos_site_id
 _symmetry_equiv_pos_as_xyz
  1  'x, y, z'
loop_
 _atom_site_type_symbol
 _atom_site_label
 _atom_site_symmetry_multiplicity
 _atom_site_fract_x
 _atom_site_fract_y
 _atom_site_fract_z
 _atom_site_occupancy
  Fe  Fe0  1  0.00000000  0.00412200  0.98447400  1
  Fe  Fe1  1  0.00000000  0.98828500  0.66785100  1
  Fe  Fe2  1  0.00000000  0.99057300  0.34658700  1
  Fe  Fe3  1  0.50000000  0.84740400  0.83494200  1
  Fe  Fe4  1  0.50000000  0.83955600  0.50977400  1
  Fe  Fe5  1  0.50000000  0.84910600  0.17596300  1
  Fe  Fe6  1  0.00000000  0.65858300  0.00645500  1
  Fe  Fe7  1  0.00000000  0.66506400  0.65871400  1
  Fe  Fe8  1  0.00000000  0.66024400  0.33076000  1
  Fe  Fe9  1  0.50000000  0.49920700  0.51518600  1
  Fe  Fe10  1  0.50000000  0.49999800  0.81323900  1
  Fe  Fe11  1  0.50000000  0.51054900  0.16989700  1
  Fe  Fe12  1  0.00000000  0.32127200  0.00046600  1
  Fe  Fe13  1  0.00000000  0.34231900  0.66363900  1
  Fe  Fe14  1  0.00000000  0.31998600  0.33714600  1
  Fe  Fe15  1  0.50000000  0.17100600  0.84363400  1
  Fe  Fe16  1  0.50000000  0.16227200  0.48619000  1
  Fe  Fe17  1  0.50000000  0.17803500  0.17006500  1
  O  O0  1  0.50000000  0.93764600  0.73334100  1
  O  O1  1  0.50000000  0.92648600  0.39828300  1
  O  O2  1  0.00000000  0.89409300  0.90438300  1
  O  O3  1  0.00000000  0.90101300  0.56474700  1
  O  O4  1  0.00000000  0.90160900  0.23116900  1
  O  O5  1  0.50000000  0.73255500  0.60138300  1
  O  O6  1  0.50000000  0.60577100  0.72936000  1
  O  O7  1  0.50000000  0.60161800  0.06456200  1
  O  O8  1  0.00000000  0.56335900  0.56159800  1
  O  O9  1  0.00000000  0.56595200  0.23296600  1
  O  O10  1  0.00000000  0.43074000  0.76932100  1
  O  O11  1  0.50000000  0.39215600  0.59916800  1
  O  O12  1  0.50000000  0.27267400  0.40322700  1
  O  O13  1  0.50000000  0.26731000  0.06366800  1
  O  O14  1  0.00000000  0.23647900  0.89304600  1
  O  O15  1  0.00000000  0.23185600  0.23232900  1
  O  O16  1  0.00000000  0.10021500  0.43376400  1
  O  O17  1  0.50000000  0.06636700  0.93281700  1
  F  F0  1  0.50000000  0.93563600  0.06448800  1
  F  F1  1  0.00000000  0.76993900  0.77401700  1
  F  F2  1  0.00000000  0.76055700  0.42948700  1
  F  F3  1  0.00000000  0.77111400  0.10066100  1
  F  F4  1  0.50000000  0.72781500  0.93614600  1
  F  F5  1  0.50000000  0.73234500  0.26464900  1
  F  F6  1  0.50000000  0.59846300  0.39885700  1
  F  F7  1  0.00000000  0.56655800  0.89763200  1
  F  F8  1  0.00000000  0.43837000  0.42825800  1
  F  F9  1  0.00000000  0.43601100  0.10223300  1
  F  F10  1  0.50000000  0.40456200  0.93905200  1
  F  F11  1  0.50000000  0.39926000  0.26586800  1
  F  F12  1  0.50000000  0.26288400  0.72781800  1
  F  F13  1  0.00000000  0.22688300  0.56872300  1
  F  F14  1  0.00000000  0.10454400  0.76523500  1
  F  F15  1  0.00000000  0.09686100  0.10272000  1
  F  F16  1  0.50000000  0.06900000  0.60446700  1
  F  F17  1  0.50000000  0.06372200  0.26557700  1
loop_
_geom_bond_atom_site_label_1
_geom_bond_atom_site_label_2
_geom_bond_distance
_geom_bond_site_symmetry_2
Fe0 O17 1.925847 1_455
Fe0 O17 1.925847 1_555
Fe0 O2 1.934410 1_545
Fe1 O3 1.921248 1_555
Fe1 O0 1.942416 1_555
Fe1 O0 1.942416 1_455
Fe2 O1 1.938169 1_455
Fe2 O1 1.938169 1_555
Fe2 O16 1.991283 1_565
Fe2 O4 2.072848 1_555
Fe3 O0 1.929527 1_555
Fe3 O2 1.951359 1_555
Fe3 O2 1.951359 1_655
Fe4 O3 1.940408 1_655
Fe4 O3 1.940408 1_555
Fe4 O5 1.999391 1_555
Fe4 O1 2.007762 1_555
Fe5 O4 1.888011 1_555
Fe5 O4 1.888011 1_655
Fe6 O7 1.930121 1_455
Fe6 O7 1.930121 1_555
Fe7 O5 1.992653 1_555
Fe7 O5 1.992653 1_455
Fe7 O8 1.999589 1_555
Fe7 O6 2.026337 1_455
Fe7 O6 2.026337 1_555
Fe8 O9 1.931863 1_555
Fe9 O8 1.912437 1_655
Fe9 O8 1.912437 1_555
Fe9 O11 1.931114 1_555
Fe10 O6 1.915988 1_555
Fe10 O10 1.936241 1_655
Fe10 O10 1.936241 1_555
Fe11 O9 1.953515 1_555
Fe11 O9 1.953515 1_655
Fe11 O7 1.977215 1_555
Fe12 O13 1.945075 1_555
Fe12 O13 1.945075 1_455
Fe12 O14 1.946606 1_554
Fe13 O11 1.931326 1_555
Fe13 O11 1.931326 1_455
Fe13 O10 1.959850 1_555
Fe14 O12 1.929565 1_555
Fe14 O12 1.929565 1_455
Fe14 O15 1.947754 1_555
Fe15 O14 1.936556 1_655
Fe15 O14 1.936556 1_555
Fe15 O17 1.951523 1_555
Fe16 O16 1.929938 1_555
Fe16 O16 1.929938 1_655
Fe16 O12 1.959948 1_555
Fe17 O15 1.939306 1_555
Fe17 O15 1.939306 1_655
Fe17 O13 1.972258 1_555
F0 Fe5 2.004107 1_555
F0 Fe0 2.151136 1_564
F0 Fe0 2.151136 1_664
F1 Fe3 2.086505 1_455
F1 Fe3 2.086505 1_555
F1 Fe7 2.216662 1_555
F2 Fe8 2.001400 1_555
F2 Fe4 2.226271 1_455
F2 Fe4 2.226271 1_555
F3 Fe6 2.086429 1_555
F3 Fe5 2.183382 1_455
F3 Fe5 2.183382 1_555
F4 Fe6 2.086434 1_556
F4 Fe6 2.086434 1_656
F4 Fe3 2.223701 1_555
F5 Fe8 2.078224 1_555
F5 Fe8 2.078224 1_655
F5 Fe5 2.080939 1_555
F6 Fe8 2.023637 1_655
F6 Fe8 2.023637 1_555
F6 Fe9 2.171425 1_555
F7 Fe6 2.027012 1_556
F7 Fe10 2.174410 1_455
F7 Fe10 2.174410 1_555
F8 Fe14 2.123540 1_555
F8 Fe9 2.160769 1_555
F8 Fe9 2.160769 1_455
F9 Fe11 2.107015 1_555
F9 Fe11 2.107015 1_455
F9 Fe12 2.180561 1_555
F10 Fe12 2.132526 1_656
F10 Fe12 2.132526 1_556
F10 Fe10 2.242725 1_555
F11 Fe11 2.085923 1_555
F11 Fe14 2.163506 1_555
F11 Fe14 2.163506 1_655
F12 Fe15 2.099432 1_555
F12 Fe13 2.119350 1_555
F12 Fe13 2.119350 1_655
F13 Fe13 2.124607 1_555
F13 Fe16 2.147918 1_455
F13 Fe16 2.147918 1_555
F14 Fe15 2.127833 1_455
F14 Fe15 2.127833 1_555
F14 Fe1 2.156073 1_545
F15 Fe0 2.137529 1_554
F15 Fe17 2.153869 1_555
F15 Fe17 2.153869 1_455
F16 Fe1 2.124238 1_545
F16 Fe1 2.124238 1_645
F16 Fe16 2.139142 1_555
F17 Fe17 2.114357 1_555
F17 Fe2 2.189188 1_645
F17 Fe2 2.189188 1_545
