# generated using pymatgen
data_KBaFeO3
_symmetry_space_group_name_H-M   'P 1'
_cell_length_a   6.57172478
_cell_length_b   6.57172478
_cell_length_c   12.97330800
_cell_angle_alpha   90.00000000
_cell_angle_beta   90.00000000
_cell_angle_gamma   126.29593241
_symmetry_Int_Tables_number   1
_chemical_formula_structural   KBaFeO3
_chemical_formula_sum   'K4 Ba4 Fe4 O12'
_cell_volume   451.57356023
_cell_formula_units_Z   4
loop_
 _symmetry_equiv_pos_site_id
 _symmetry_equiv_pos_as_xyz
  1  'x, y, z'
loop_
 _atom_site_type_symbol
 _atom_site_label
 _atom_site_symmetry_multiplicity
 _atom_site_fract_x
 _atom_site_fract_y
 _atom_site_fract_z
 _atom_site_occupancy
  K  K0  1  0.45359600  0.54640400  0.64058900  1
  K  K1  1  0.54640400  0.45359600  0.35941100  1
  K  K2  1  0.04640400  0.95359600  0.14058900  1
  K  K3  1  0.95359600  0.04640400  0.85941100  1
  Ba  Ba0  1  0.64337300  0.35662700  0.91837100  1
  Ba  Ba1  1  0.85662700  0.14337300  0.41837100  1
  Ba  Ba2  1  0.14337300  0.85662700  0.58162900  1
  Ba  Ba3  1  0.35662700  0.64337300  0.08162900  1
  Fe  Fe0  1  0.23048100  0.76951900  0.33649400  1
  Fe  Fe1  1  0.73048100  0.26951900  0.16350600  1
  Fe  Fe2  1  0.76951900  0.23048100  0.66350600  1
  Fe  Fe3  1  0.26951900  0.73048100  0.83649400  1
  O  O0  1  0.97757800  0.52242200  0.75000000  1
  O  O1  1  0.52242200  0.97757800  0.25000000  1
  O  O2  1  0.02242200  0.47757800  0.25000000  1
  O  O3  1  0.47757800  0.02242200  0.75000000  1
  O  O4  1  0.42371300  0.57628700  0.87654200  1
  O  O5  1  0.57628700  0.42371300  0.12345800  1
  O  O6  1  0.07628700  0.92371300  0.37654200  1
  O  O7  1  0.67119800  0.32880200  0.54841400  1
  O  O8  1  0.17119800  0.82880200  0.95158600  1
  O  O9  1  0.82880200  0.17119800  0.04841400  1
  O  O10  1  0.32880200  0.67119800  0.45158600  1
  O  O11  1  0.92371300  0.07628700  0.62345800  1
loop_
_geom_bond_atom_site_label_1
_geom_bond_atom_site_label_2
_geom_bond_distance
_geom_bond_site_symmetry_2
K0 O7 2.817967 1_555
K0 O10 2.855472 1_555
K0 O11 2.997232 1_565
K0 O11 2.997232 1_455
K0 O4 3.081082 1_555
K1 O10 2.817967 1_555
K1 O7 2.855472 1_555
K1 O6 2.997232 1_545
K1 O6 2.997232 1_655
K1 O5 3.081082 1_555
K2 O9 2.817967 1_465
K2 O8 2.855472 1_554
K2 O5 2.997232 1_565
K2 O5 2.997232 1_455
K2 O6 3.081082 1_555
K3 O8 2.817967 1_645
K3 O9 2.855472 1_556
K3 O4 2.997232 1_655
K3 O4 2.997232 1_545
K3 O11 3.081082 1_555
Ba0 O4 2.632335 1_555
Ba0 O9 2.752134 1_556
Ba0 O5 2.774517 1_556
Ba0 O3 2.819411 1_555
Ba0 O0 2.819411 1_555
Ba0 O8 3.017177 1_655
Ba0 O8 3.017177 1_545
Ba1 O6 2.632335 1_645
Ba1 O7 2.752134 1_555
Ba1 O11 2.774517 1_555
Ba1 O1 2.819411 1_545
Ba1 O2 2.819411 1_655
Ba1 O10 3.017177 1_545
Ba1 O10 3.017177 1_655
Ba2 O11 2.632335 1_465
Ba2 O10 2.752134 1_555
Ba2 O6 2.774517 1_555
Ba2 O3 2.819411 1_565
Ba2 O0 2.819411 1_455
Ba2 O7 3.017177 1_455
Ba2 O7 3.017177 1_565
Ba3 O5 2.632335 1_555
Ba3 O8 2.752134 1_554
Ba3 O4 2.774517 1_554
Ba3 O1 2.819411 1_555
Ba3 O2 2.819411 1_555
Ba3 O9 3.017177 1_455
Ba3 O9 3.017177 1_565
Fe0 O6 1.881286 1_555
Fe0 O10 1.886448 1_555
Fe0 O2 1.924531 1_555
Fe0 O1 1.924531 1_555
Fe1 O5 1.881286 1_555
Fe1 O9 1.886448 1_555
Fe1 O2 1.924531 1_655
Fe1 O1 1.924531 1_545
Fe2 O11 1.881286 1_555
Fe2 O7 1.886448 1_555
Fe2 O3 1.924531 1_555
Fe2 O0 1.924531 1_555
Fe3 O4 1.881286 1_555
Fe3 O8 1.886448 1_555
Fe3 O3 1.924531 1_565
Fe3 O0 1.924531 1_455
