# generated using pymatgen
data_Ni5Ge2
_symmetry_space_group_name_H-M   'P 1'
_cell_length_a   6.73850614
_cell_length_b   6.73850614
_cell_length_c   12.24353596
_cell_angle_alpha   90.00000000
_cell_angle_beta   90.00000000
_cell_angle_gamma   119.99999824
_symmetry_Int_Tables_number   1
_chemical_formula_structural   Ni5Ge2
_chemical_formula_sum   'Ni30 Ge12'
_cell_volume   481.46503972
_cell_formula_units_Z   6
loop_
 _symmetry_equiv_pos_site_id
 _symmetry_equiv_pos_as_xyz
  1  'x, y, z'
loop_
 _atom_site_type_symbol
 _atom_site_label
 _atom_site_symmetry_multiplicity
 _atom_site_fract_x
 _atom_site_fract_y
 _atom_site_fract_z
 _atom_site_occupancy
  Ni  Ni0  1  -0.00000000  -0.00000000  0.57307969  1
  Ni  Ni1  1  -0.00000000  -0.00000000  0.07307969  1
  Ni  Ni2  1  0.66666700  0.33333300  0.42980529  1
  Ni  Ni3  1  0.33333300  0.66666700  0.42980529  1
  Ni  Ni4  1  0.33333300  0.66666700  0.92980529  1
  Ni  Ni5  1  0.66666700  0.33333300  0.92980529  1
  Ni  Ni6  1  0.72398345  0.00000000  0.40120652  1
  Ni  Ni7  1  0.27601655  0.27601655  0.40120652  1
  Ni  Ni8  1  0.00000000  0.72398345  0.40120652  1
  Ni  Ni9  1  0.27601655  -0.00000000  0.90120652  1
  Ni  Ni10  1  0.72398345  0.72398345  0.90120652  1
  Ni  Ni11  1  -0.00000000  0.27601655  0.90120652  1
  Ni  Ni12  1  0.37148265  -0.00000000  0.30712239  1
  Ni  Ni13  1  0.62851735  0.62851735  0.30712239  1
  Ni  Ni14  1  -0.00000000  0.37148265  0.30712239  1
  Ni  Ni15  1  0.62851735  0.00000000  0.80712239  1
  Ni  Ni16  1  0.37148265  0.37148265  0.80712239  1
  Ni  Ni17  1  0.00000000  0.62851735  0.80712239  1
  Ni  Ni18  1  0.69252624  0.00000000  0.19554894  1
  Ni  Ni19  1  0.30747376  0.30747376  0.19554894  1
  Ni  Ni20  1  0.00000000  0.69252624  0.19554894  1
  Ni  Ni21  1  0.30747376  -0.00000000  0.69554894  1
  Ni  Ni22  1  0.69252624  0.69252624  0.69554894  1
  Ni  Ni23  1  -0.00000000  0.30747376  0.69554894  1
  Ni  Ni24  1  0.36970223  0.00000000  0.09765036  1
  Ni  Ni25  1  0.63029777  0.63029777  0.09765036  1
  Ni  Ni26  1  0.00000000  0.36970223  0.09765036  1
  Ni  Ni27  1  0.63029777  -0.00000000  0.59765036  1
  Ni  Ni28  1  0.36970223  0.36970223  0.59765036  1
  Ni  Ni29  1  -0.00000000  0.63029777  0.59765036  1
  Ge  Ge0  1  -0.00000000  -0.00000000  0.27873860  1
  Ge  Ge1  1  -0.00000000  -0.00000000  0.77873860  1
  Ge  Ge2  1  0.66666700  0.33333300  0.22218154  1
  Ge  Ge3  1  0.33333300  0.66666700  0.22218154  1
  Ge  Ge4  1  0.33333300  0.66666700  0.72218154  1
  Ge  Ge5  1  0.66666700  0.33333300  0.72218154  1
  Ge  Ge6  1  0.32983293  0.00000000  0.50222080  1
  Ge  Ge7  1  0.67016707  0.67016707  0.50222080  1
  Ge  Ge8  1  0.00000000  0.32983293  0.50222080  1
  Ge  Ge9  1  0.67016707  -0.00000000  0.00222080  1
  Ge  Ge10  1  0.32983293  0.32983293  0.00222080  1
  Ge  Ge11  1  -0.00000000  0.67016707  0.00222080  1
loop_
_geom_bond_atom_site_label_1
_geom_bond_atom_site_label_2
_geom_bond_distance
_geom_bond_site_symmetry_2
Ni0 Ni27 2.509339 1_455
Ni0 Ni29 2.509339 1_545
Ni0 Ni28 2.509339 1_555
Ni0 Ni21 2.557576 1_555
Ni0 Ni23 2.557576 1_555
Ni0 Ni22 2.557576 1_445
Ni0 Ni6 2.808487 1_455
Ni0 Ni8 2.808487 1_545
Ni0 Ni7 2.808487 1_555
Ni1 Ni24 2.509339 1_555
Ni1 Ni26 2.509339 1_555
Ni1 Ni25 2.509339 1_445
Ni1 Ni18 2.557576 1_455
Ni1 Ni20 2.557576 1_545
Ni1 Ni19 2.557576 1_555
Ni1 Ni9 2.808487 1_554
Ni1 Ni11 2.808487 1_554
Ni1 Ni10 2.808487 1_444
Ni2 Ni6 2.486880 1_555
Ni2 Ni8 2.486884 1_655
Ni2 Ni7 2.486886 1_555
Ni3 Ni8 2.486880 1_555
Ni3 Ni6 2.486884 1_565
Ni3 Ni7 2.486886 1_555
Ni4 Ni9 2.486880 1_565
Ni5 Ni9 2.486884 1_555
Ni10 Ni5 2.486886 1_555
Ni10 Ni4 2.486886 1_555
Ni10 Ni15 2.529156 1_565
Ni10 Ni17 2.529156 1_655
Ni10 Ni16 2.639908 1_555
Ni11 Ni5 2.486880 1_455
Ni11 Ni4 2.486884 1_555
Ni11 Ni16 2.529156 1_555
Ni11 Ni15 2.529156 1_455
Ni11 Ni17 2.639908 1_555
Ni12 Ni7 2.529156 1_555
Ni12 Ni8 2.529156 1_545
Ni12 Ni18 2.558555 1_555
Ni12 Ni24 2.564706 1_555
Ni12 Ni3 2.605791 1_545
Ni12 Ni2 2.605793 1_555
Ni12 Ni6 2.639908 1_555
Ni12 Ni19 2.690471 1_555
Ni12 Ni20 2.690471 1_545
Ni13 Ni8 2.529156 1_655
Ni13 Ni6 2.529156 1_565
Ni13 Ni19 2.558555 1_555
Ni13 Ni25 2.564706 1_555
Ni13 Ni2 2.605796 1_555
Ni13 Ni3 2.605796 1_555
Ni13 Ni7 2.639908 1_555
Ni13 Ni18 2.690471 1_565
Ni13 Ni20 2.690471 1_655
Ni14 Ni7 2.529156 1_555
Ni14 Ni6 2.529156 1_455
Ni14 Ni20 2.558555 1_555
Ni14 Ni26 2.564706 1_555
Ni14 Ni2 2.605791 1_455
Ni14 Ni3 2.605793 1_555
Ni14 Ni8 2.639908 1_555
Ni14 Ni19 2.690471 1_555
Ni14 Ni18 2.690471 1_455
Ni15 Ni21 2.558555 1_555
Ni15 Ni27 2.564706 1_555
Ni15 Ni5 2.605791 1_555
Ni15 Ni4 2.605793 1_545
Ni15 Ni9 2.639908 1_555
Ni15 Ni22 2.690471 1_545
Ni15 Ni23 2.690471 1_655
Ni16 Ni9 2.529156 1_555
Ni16 Ni22 2.558555 1_555
Ni16 Ni28 2.564706 1_555
Ni16 Ni4 2.605796 1_555
Ni16 Ni5 2.605796 1_555
Ni16 Ni23 2.690471 1_555
Ni16 Ni21 2.690471 1_555
Ni17 Ni9 2.529156 1_565
Ni17 Ni23 2.558555 1_555
Ni17 Ni29 2.564706 1_555
Ni17 Ni4 2.605791 1_555
Ni17 Ni5 2.605793 1_455
Ni17 Ni22 2.690471 1_455
Ni17 Ni21 2.690471 1_565
Ge0 Ni18 2.308732 1_455
Ge0 Ni20 2.308732 1_545
Ge0 Ni19 2.308732 1_555
Ge0 Ni6 2.389078 1_455
Ge0 Ni8 2.389078 1_545
Ge0 Ni7 2.389078 1_555
Ge0 Ni1 2.517992 1_555
Ge0 Ni12 2.527245 1_555
Ge0 Ni14 2.527245 1_555
Ge0 Ni13 2.527246 1_445
Ge1 Ni23 2.308732 1_555
Ge1 Ni21 2.308732 1_555
Ge1 Ni22 2.308732 1_445
Ge1 Ni11 2.389078 1_555
Ge1 Ni9 2.389078 1_555
Ge1 Ni10 2.389078 1_445
Ge1 Ni0 2.517992 1_555
Ge1 Ni15 2.527245 1_455
Ge1 Ni17 2.527245 1_545
Ge1 Ni16 2.527246 1_555
Ge2 Ni18 2.360795 1_555
Ge2 Ni20 2.360799 1_655
Ge2 Ni19 2.360802 1_555
Ge2 Ni14 2.369699 1_655
Ge2 Ni12 2.369702 1_555
Ge2 Ni13 2.369705 1_555
Ge2 Ni2 2.542049 1_555
Ge2 Ni26 2.622892 1_655
Ge2 Ni24 2.622895 1_555
Ge2 Ni25 2.622898 1_555
Ge3 Ni20 2.360795 1_555
Ge3 Ni18 2.360799 1_565
Ge3 Ni19 2.360802 1_555
Ge3 Ni12 2.369699 1_565
Ge3 Ni14 2.369702 1_555
Ge3 Ni13 2.369705 1_555
Ge3 Ni3 2.542049 1_555
Ge3 Ni24 2.622892 1_565
Ge3 Ni26 2.622895 1_555
Ge3 Ni25 2.622898 1_555
Ge4 Ni21 2.360795 1_565
Ge4 Ni23 2.360799 1_555
Ge4 Ni22 2.360802 1_555
Ge4 Ni17 2.369699 1_555
Ge4 Ni15 2.369702 1_565
Ge4 Ni16 2.369705 1_555
Ge4 Ni4 2.542049 1_555
Ge4 Ni29 2.622892 1_555
Ge4 Ni27 2.622895 1_565
Ge4 Ni28 2.622898 1_555
Ge5 Ni23 2.360795 1_655
Ge5 Ni21 2.360799 1_555
Ge5 Ni22 2.360802 1_555
Ge5 Ni15 2.369699 1_555
Ge5 Ni17 2.369702 1_655
Ge5 Ni16 2.369705 1_555
Ge5 Ni5 2.542049 1_555
Ge5 Ni27 2.622892 1_555
Ge5 Ni29 2.622895 1_655
Ge5 Ni28 2.622898 1_555
Ge6 Ni27 2.337626 1_555
Ge6 Ni21 2.371810 1_555
Ge6 Ni0 2.385903 1_555
Ge6 Ni12 2.405126 1_555
Ge6 Ni7 2.407276 1_555
Ge6 Ni8 2.407277 1_545
Ge6 Ni3 2.425880 1_545
Ge6 Ni2 2.425883 1_555
Ge6 Ni28 2.640892 1_555
Ge6 Ni29 2.640892 1_545
Ge7 Ni28 2.337626 1_555
Ge7 Ni22 2.371810 1_555
Ge7 Ni0 2.385903 1_665
Ge7 Ni13 2.405126 1_555
Ge7 Ni6 2.407277 1_565
Ge7 Ni8 2.407277 1_655
Ge7 Ni2 2.425886 1_555
Ge7 Ni3 2.425886 1_555
Ge7 Ni27 2.640892 1_565
Ge7 Ni29 2.640892 1_655
Ge8 Ni29 2.337626 1_555
Ge8 Ni23 2.371810 1_555
Ge8 Ni0 2.385903 1_555
Ge8 Ni14 2.405126 1_555
Ge8 Ni7 2.407276 1_555
Ge8 Ni6 2.407277 1_455
Ge8 Ni2 2.425880 1_455
Ge8 Ni3 2.425883 1_555
Ge8 Ni28 2.640892 1_555
Ge8 Ni27 2.640892 1_455
Ge9 Ni24 2.337626 1_555
Ge9 Ni18 2.371810 1_555
Ge9 Ni1 2.385903 1_655
Ge9 Ni15 2.405126 1_554
Ge9 Ni10 2.407276 1_544
Ge9 Ni11 2.407277 1_654
Ge9 Ni5 2.425880 1_554
Ge9 Ni4 2.425883 1_544
Ge9 Ni25 2.640892 1_545
Ge9 Ni26 2.640892 1_655
Ge10 Ni25 2.337626 1_555
Ge10 Ni19 2.371810 1_555
Ge10 Ni1 2.385903 1_555
Ge10 Ni16 2.405126 1_554
Ge10 Ni11 2.407277 1_554
Ge10 Ni9 2.407277 1_554
Ge10 Ni4 2.425886 1_554
Ge10 Ni5 2.425886 1_554
Ge10 Ni26 2.640892 1_555
Ge10 Ni24 2.640892 1_555
Ge11 Ni26 2.337626 1_555
Ge11 Ni20 2.371810 1_555
Ge11 Ni1 2.385903 1_565
Ge11 Ni17 2.405126 1_554
Ge11 Ni10 2.407276 1_454
Ge11 Ni9 2.407277 1_564
Ge11 Ni4 2.425880 1_554
Ge11 Ni5 2.425883 1_454
Ge11 Ni25 2.640892 1_455
Ge11 Ni24 2.640892 1_565
