# generated using pymatgen
data_Y(Co2B)6
_symmetry_space_group_name_H-M   'P 1'
_cell_length_a   5.92632142
_cell_length_b   5.92632205
_cell_length_c   5.92636888
_cell_angle_alpha   104.08026943
_cell_angle_beta   104.08023198
_cell_angle_gamma   104.07986418
_symmetry_Int_Tables_number   1
_chemical_formula_structural   Y(Co2B)6
_chemical_formula_sum   'Y1 Co12 B6'
_cell_volume   185.42729712
_cell_formula_units_Z   1
loop_
 _symmetry_equiv_pos_site_id
 _symmetry_equiv_pos_as_xyz
  1  'x, y, z'
loop_
 _atom_site_type_symbol
 _atom_site_label
 _atom_site_symmetry_multiplicity
 _atom_site_fract_x
 _atom_site_fract_y
 _atom_site_fract_z
 _atom_site_occupancy
  Y  Y0  1  -0.00000000  0.00000000  0.00000000  1
  Co  Co0  1  0.13272795  0.86727105  0.50000000  1
  Co  Co1  1  0.49999732  0.13273150  0.86726536  1
  Co  Co2  1  0.86726850  0.50000168  0.13273564  1
  Co  Co3  1  0.50000268  0.86726850  0.13273464  1
  Co  Co4  1  0.13273150  0.49999832  0.86726436  1
  Co  Co5  1  0.86727205  0.13272895  0.50000000  1
  Co  Co6  1  0.54240440  0.81442887  0.54240045  1
  Co  Co7  1  0.54240078  0.54240078  0.81442747  1
  Co  Co8  1  0.81442987  0.54240340  0.54239945  1
  Co  Co9  1  0.45759560  0.18557113  0.45759955  1
  Co  Co10  1  0.45759922  0.45759922  0.18557253  1
  Co  Co11  1  0.18557013  0.45759660  0.45760055  1
  B  B0  1  0.76911238  0.32181140  0.76910697  1
  B  B1  1  0.76912232  0.76912232  0.32182525  1
  B  B2  1  0.32181140  0.76911238  0.76910697  1
  B  B3  1  0.23088762  0.67818860  0.23089303  1
  B  B4  1  0.23087768  0.23087768  0.67817475  1
  B  B5  1  0.67818860  0.23088762  0.23089303  1
loop_
_geom_bond_atom_site_label_1
_geom_bond_atom_site_label_2
_geom_bond_distance
_geom_bond_site_symmetry_2
Co0 Y0 3.212311 1_566
Co0 Y0 3.212315 1_565
Co1 Y0 3.212306 1_556
Co1 Y0 3.212316 1_656
Co2 Y0 3.212310 1_655
Co2 Y0 3.212316 1_665
Co3 Y0 3.212306 1_665
Co3 Y0 3.212316 1_565
Co4 Y0 3.212310 1_566
Co4 Y0 3.212316 1_556
Co5 Y0 3.212311 1_655
Co5 Y0 3.212315 1_656
Co6 Y0 3.072058 1_666
Co7 Y0 3.072064 1_666
Co8 Y0 3.072064 1_666
Co9 Y0 3.072058 1_555
Co10 Y0 3.072064 1_555
Co11 Y0 3.072064 1_555
B0 Co5 2.009122 1_555
B0 Co1 2.009148 1_555
B0 Co4 2.020200 1_655
B0 Co2 2.020264 1_556
B0 Co9 2.087941 1_555
B0 Co7 2.108465 1_555
B0 Co8 2.108469 1_555
B0 Y0 3.001731 1_656
B1 Co3 2.009143 1_555
B1 Co2 2.009144 1_555
B1 Co0 2.020121 1_655
B1 Co5 2.020125 1_565
B1 Co10 2.088010 1_555
B1 Co6 2.108433 1_555
B1 Co8 2.108435 1_555
B1 Y0 3.001743 1_665
B2 Co0 2.009122 1_555
B2 Co4 2.009140 1_555
B2 Co1 2.020199 1_565
B2 Co3 2.020260 1_556
B2 Co11 2.087934 1_555
B2 Co7 2.108465 1_555
B2 Co6 2.108468 1_555
B2 Y0 3.001730 1_566
B3 Co0 2.009122 1_555
B3 Co3 2.009148 1_555
B3 Co2 2.020200 1_455
B3 Co4 2.020264 1_554
B3 Co6 2.087941 1_555
B3 Co10 2.108465 1_555
B3 Co11 2.108469 1_555
B3 Y0 3.001731 1_565
B4 Co1 2.009143 1_555
B4 Co4 2.009144 1_555
B4 Co5 2.020121 1_455
B4 Co0 2.020125 1_545
B4 Co7 2.088010 1_555
B4 Co9 2.108433 1_555
B4 Co11 2.108435 1_555
B4 Y0 3.001743 1_556
B5 Co5 2.009122 1_555
B5 Co2 2.009140 1_555
B5 Co3 2.020199 1_545
B5 Co1 2.020260 1_554
B5 Co8 2.087934 1_555
B5 Co10 2.108465 1_555
B5 Co9 2.108468 1_555
B5 Y0 3.001730 1_655
