# generated using pymatgen
data_Nb6Te8Pb
_symmetry_space_group_name_H-M   'P 1'
_cell_length_a   10.77753020
_cell_length_b   10.77753020
_cell_length_c   3.67436500
_cell_angle_alpha   90.00000000
_cell_angle_beta   90.00000000
_cell_angle_gamma   120.00000122
_symmetry_Int_Tables_number   1
_chemical_formula_structural   Nb6Te8Pb
_chemical_formula_sum   'Nb6 Te8 Pb1'
_cell_volume   369.61655834
_cell_formula_units_Z   1
loop_
 _symmetry_equiv_pos_site_id
 _symmetry_equiv_pos_as_xyz
  1  'x, y, z'
loop_
 _atom_site_type_symbol
 _atom_site_label
 _atom_site_symmetry_multiplicity
 _atom_site_fract_x
 _atom_site_fract_y
 _atom_site_fract_z
 _atom_site_occupancy
  Nb  Nb0  1  0.51070600  0.61303300  0.74915900  1
  Nb  Nb1  1  0.38696700  0.89767400  0.74915900  1
  Nb  Nb2  1  0.10232600  0.48929400  0.74915900  1
  Nb  Nb3  1  0.48929400  0.38696700  0.25084100  1
  Nb  Nb4  1  0.61303300  0.10232600  0.25084100  1
  Nb  Nb5  1  0.89767400  0.51070600  0.25084100  1
  Te  Te0  1  0.66722200  0.93834200  0.75229200  1
  Te  Te1  1  0.06165800  0.72888100  0.75229200  1
  Te  Te2  1  0.27111900  0.33277800  0.75229200  1
  Te  Te3  1  0.33277800  0.06165800  0.24770800  1
  Te  Te4  1  0.93834200  0.27111900  0.24770800  1
  Te  Te5  1  0.72888100  0.66722200  0.24770800  1
  Te  Te6  1  0.66666700  0.33333300  0.74999000  1
  Te  Te7  1  0.33333300  0.66666700  0.25001000  1
  Pb  Pb0  1  0.00000000  0.00000000  0.50000000  1
loop_
_geom_bond_atom_site_label_1
_geom_bond_atom_site_label_2
_geom_bond_distance
_geom_bond_site_symmetry_2
Nb0 Te5 2.802235 1_556
Nb0 Te5 2.809217 1_555
Nb0 Te2 2.826930 1_555
Nb0 Te7 2.908140 1_555
Nb0 Te7 2.912089 1_556
Nb0 Te0 3.037051 1_555
Nb1 Te3 2.802219 1_566
Nb1 Te3 2.809201 1_565
Nb1 Te0 2.826930 1_555
Nb1 Te7 2.908140 1_555
Nb1 Te7 2.912089 1_556
Nb1 Te1 3.037051 1_555
Nb2 Te4 2.802230 1_456
Nb2 Te4 2.809212 1_455
Nb2 Te1 2.826930 1_555
Nb2 Te7 2.908140 1_555
Nb2 Te7 2.912089 1_556
Nb2 Te2 3.037051 1_555
Nb3 Te2 2.802235 1_554
Nb3 Te2 2.809217 1_555
Nb3 Te5 2.826930 1_555
Nb3 Te6 2.908140 1_555
Nb3 Te6 2.912089 1_554
Nb3 Te3 3.037051 1_555
Nb4 Te0 2.802219 1_544
Nb4 Te0 2.809201 1_545
Nb4 Te3 2.826930 1_555
Nb4 Te6 2.908140 1_555
Nb4 Te6 2.912089 1_554
Nb4 Te4 3.037051 1_555
Nb5 Te1 2.802230 1_654
Nb5 Te1 2.809212 1_655
Nb5 Te4 2.826930 1_555
Nb5 Te6 2.908140 1_555
Nb5 Te6 2.912089 1_554
Nb5 Te5 3.037051 1_555
Pb0 Te1 3.432304 1_545
Pb0 Te4 3.432304 1_455
Pb0 Te2 3.432311 1_555
Pb0 Te5 3.432311 1_445
Pb0 Te3 3.432314 1_555
Pb0 Te0 3.432314 1_445
