# generated using pymatgen
data_ZnS
_symmetry_space_group_name_H-M   'P 1'
_cell_length_a   3.87544044
_cell_length_b   3.87544044
_cell_length_c   56.54702246
_cell_angle_alpha   88.03623692
_cell_angle_beta   88.03623692
_cell_angle_gamma   59.99999247
_symmetry_Int_Tables_number   1
_chemical_formula_structural   ZnS
_chemical_formula_sum   'Zn18 S18'
_cell_volume   734.92365431
_cell_formula_units_Z   18
loop_
 _symmetry_equiv_pos_site_id
 _symmetry_equiv_pos_as_xyz
  1  'x, y, z'
loop_
 _atom_site_type_symbol
 _atom_site_label
 _atom_site_symmetry_multiplicity
 _atom_site_fract_x
 _atom_site_fract_y
 _atom_site_fract_z
 _atom_site_occupancy
  Zn  Zn0  1  0.99999400  0.99999400  0.00001800  1
  Zn  Zn1  1  0.94443500  0.94443500  0.16669600  1
  Zn  Zn2  1  0.88888000  0.88888000  0.33336100  1
  Zn  Zn3  1  0.83332800  0.83332800  0.50001700  1
  Zn  Zn4  1  0.77777400  0.77777400  0.66667800  1
  Zn  Zn5  1  0.72221100  0.72221100  0.83336800  1
  Zn  Zn6  1  0.64814700  0.64814700  0.05555800  1
  Zn  Zn7  1  0.59258000  0.59258000  0.22225900  1
  Zn  Zn8  1  0.51851400  0.51851400  0.44445900  1
  Zn  Zn9  1  0.48147300  0.48147300  0.55558200  1
  Zn  Zn10  1  0.42592000  0.42592000  0.72224000  1
  Zn  Zn11  1  0.35184800  0.35184800  0.94445600  1
  Zn  Zn12  1  0.29629600  0.29629600  0.11111300  1
  Zn  Zn13  1  0.24073100  0.24073100  0.27780700  1
  Zn  Zn14  1  0.20368800  0.20368800  0.38893600  1
  Zn  Zn15  1  0.12962700  0.12962700  0.61112000  1
  Zn  Zn16  1  0.07406200  0.07406200  0.77781500  1
  Zn  Zn17  1  0.03702800  0.03702800  0.88891600  1
  S  S0  1  0.98612200  0.98612200  0.04163400  1
  S  S1  1  0.93056800  0.93056800  0.20829500  1
  S  S2  1  0.87500300  0.87500300  0.37499100  1
  S  S3  1  0.81944500  0.81944500  0.54166500  1
  S  S4  1  0.76390800  0.76390800  0.70827700  1
  S  S5  1  0.70834100  0.70834100  0.87497700  1
  S  S6  1  0.63427400  0.63427400  0.09717900  1
  S  S7  1  0.57871900  0.57871900  0.26384200  1
  S  S8  1  0.50465600  0.50465600  0.48603200  1
  S  S9  1  0.46760300  0.46760300  0.59719200  1
  S  S10  1  0.41205800  0.41205800  0.76382500  1
  S  S11  1  0.33796500  0.33796500  0.98610500  1
  S  S12  1  0.28242400  0.28242400  0.15272800  1
  S  S13  1  0.22688000  0.22688000  0.31936000  1
  S  S14  1  0.18982700  0.18982700  0.43051800  1
  S  S15  1  0.11575500  0.11575500  0.65273600  1
  S  S16  1  0.06021300  0.06021300  0.81936200  1
  S  S17  1  0.02317600  0.02317600  0.93047300  1
loop_
_geom_bond_atom_site_label_1
_geom_bond_atom_site_label_2
_geom_bond_distance
_geom_bond_site_symmetry_2
S0 Zn0 2.351418 1_555
S0 Zn6 2.371773 1_565
S0 Zn6 2.371773 1_655
S0 Zn6 2.371776 1_555
S1 Zn1 2.350457 1_555
S1 Zn7 2.372525 1_565
S1 Zn7 2.372525 1_655
S1 Zn7 2.372525 1_555
S2 Zn2 2.352209 1_555
S2 Zn14 2.372168 1_565
S2 Zn14 2.372168 1_655
S2 Zn14 2.372168 1_665
S3 Zn3 2.353226 1_555
S3 Zn9 2.371641 1_555
S3 Zn9 2.371644 1_565
S3 Zn9 2.371644 1_655
S4 Zn4 2.350457 1_555
S4 Zn10 2.372505 1_565
S4 Zn10 2.372505 1_655
S4 Zn10 2.372508 1_555
S5 Zn5 2.351022 1_555
S5 Zn17 2.372055 1_565
S5 Zn17 2.372055 1_655
S5 Zn17 2.372055 1_665
S6 Zn6 2.351700 1_555
S6 Zn12 2.371961 1_565
S6 Zn12 2.371961 1_655
S6 Zn12 2.371962 1_555
S7 Zn7 2.349553 1_555
S7 Zn13 2.372542 1_555
S7 Zn13 2.372544 1_655
S7 Zn13 2.372544 1_565
S8 Zn8 2.348988 1_555
S8 Zn3 2.372918 1_455
S8 Zn3 2.372918 1_545
S8 Zn3 2.372922 1_555
S9 Zn9 2.351079 1_555
S9 Zn15 2.371849 1_565
S9 Zn15 2.371849 1_655
S9 Zn15 2.371849 1_555
S10 Zn10 2.349666 1_555
S10 Zn16 2.373010 1_555
S10 Zn16 2.373016 1_655
S10 Zn16 2.373016 1_565
S11 Zn11 2.353283 1_555
S11 Zn0 2.371568 1_546
S11 Zn0 2.371568 1_456
S11 Zn0 2.371568 1_446
S12 Zn12 2.351361 1_555
S12 Zn1 2.372598 1_445
S12 Zn1 2.372601 1_545
S12 Zn1 2.372601 1_455
S13 Zn13 2.347858 1_555
S13 Zn2 2.373219 1_445
S13 Zn2 2.373222 1_455
S13 Zn2 2.373222 1_545
S14 Zn14 2.349497 1_555
S14 Zn8 2.372091 1_455
S14 Zn8 2.372091 1_545
S14 Zn8 2.372097 1_555
S15 Zn15 2.351418 1_555
S15 Zn4 2.372110 1_545
S15 Zn4 2.372110 1_455
S15 Zn4 2.372114 1_445
S16 Zn16 2.347519 1_555
S16 Zn5 2.373315 1_455
S16 Zn5 2.373315 1_545
S16 Zn5 2.373315 1_445
S17 Zn17 2.348084 1_555
S17 Zn11 2.372880 1_555
S17 Zn11 2.372883 1_545
S17 Zn11 2.372883 1_455
