# generated using pymatgen
data_K5Na3Nb5(WO8)3
_symmetry_space_group_name_H-M   'P 1'
_cell_length_a   8.05585900
_cell_length_b   8.05674047
_cell_length_c   8.05741447
_cell_angle_alpha   89.99199780
_cell_angle_beta   89.70143167
_cell_angle_gamma   89.98043617
_symmetry_Int_Tables_number   1
_chemical_formula_structural   K5Na3Nb5(WO8)3
_chemical_formula_sum   'K5 Na3 Nb5 W3 O24'
_cell_volume   522.95101303
_cell_formula_units_Z   1
loop_
 _symmetry_equiv_pos_site_id
 _symmetry_equiv_pos_as_xyz
  1  'x, y, z'
loop_
 _atom_site_type_symbol
 _atom_site_label
 _atom_site_symmetry_multiplicity
 _atom_site_fract_x
 _atom_site_fract_y
 _atom_site_fract_z
 _atom_site_occupancy
  K  K0  1  0.24909400  0.25025200  0.24896900  1
  K  K1  1  0.24901300  0.74966300  0.24896500  1
  K  K2  1  0.75104900  0.25087900  0.24911700  1
  K  K3  1  0.75109900  0.74909800  0.24913600  1
  K  K4  1  0.75089200  0.74975300  0.75109600  1
  Na  Na0  1  0.24881300  0.25068700  0.75104800  1
  Na  Na1  1  0.24884200  0.74926100  0.75106000  1
  Na  Na2  1  0.75107000  0.25058900  0.75113600  1
  Nb  Nb0  1  0.00055100  0.49900200  0.99874400  1
  Nb  Nb1  1  0.00032900  0.49961300  0.50134500  1
  Nb  Nb2  1  0.49905200  0.00030700  0.50252900  1
  Nb  Nb3  1  0.49976900  0.49962700  0.99855000  1
  Nb  Nb4  1  0.49952200  0.49946400  0.50109100  1
  W  W0  1  0.00040000  0.00001000  0.99859200  1
  W  W1  1  0.99997400  0.00039100  0.50111900  1
  W  W2  1  0.49965700  0.00038400  0.99980000  1
  O  O0  1  0.25168500  0.00033500  0.99420200  1
  O  O1  1  0.24700100  0.00045600  0.50448200  1
  O  O2  1  0.24845200  0.49952400  0.99577700  1
  O  O3  1  0.25091500  0.49946400  0.50411700  1
  O  O4  1  0.74816300  0.00208600  0.99866500  1
  O  O5  1  0.75372100  0.00174000  0.50154000  1
  O  O6  1  0.75148800  0.49836000  0.99751300  1
  O  O7  1  0.74904700  0.49827700  0.50267100  1
  O  O8  1  0.00058400  0.24546100  0.99650600  1
  O  O9  1  0.00036600  0.25220800  0.50415200  1
  O  O10  1  0.00164900  0.75517000  0.99725300  1
  O  O11  1  0.00186800  0.74763800  0.50257100  1
  O  O12  1  0.49975700  0.25202700  0.99568800  1
  O  O13  1  0.49948300  0.24716300  0.50372700  1
  O  O14  1  0.49803900  0.74778300  0.99739200  1
  O  O15  1  0.49823400  0.75303400  0.50268000  1
  O  O16  1  0.99947400  0.00047200  0.25100100  1
  O  O17  1  0.00282400  0.00185900  0.74912500  1
  O  O18  1  0.00031900  0.49957400  0.24841500  1
  O  O19  1  0.00187600  0.49841900  0.75158600  1
  O  O20  1  0.50109800  0.00030400  0.24670300  1
  O  O21  1  0.49706300  0.00178800  0.75176900  1
  O  O22  1  0.49969400  0.49946600  0.25106900  1
  O  O23  1  0.49807400  0.49841500  0.74910000  1
loop_
_geom_bond_atom_site_label_1
_geom_bond_atom_site_label_2
_geom_bond_distance
_geom_bond_site_symmetry_2
K0 O18 2.837028 1_555
K0 O16 2.845385 1_455
K0 O22 2.847883 1_555
K0 O20 2.858979 1_555
K0 O8 2.861787 1_554
K0 O2 2.862557 1_554
K0 O12 2.863510 1_554
K0 O9 2.863528 1_555
K0 O3 2.873945 1_555
K0 O0 2.875622 1_554
K0 O1 2.878830 1_555
K0 O13 2.885472 1_555
K1 O18 2.841916 1_555
K1 O14 2.844502 1_554
K1 O11 2.845583 1_555
K1 O16 2.849826 1_465
K1 O10 2.851028 1_554
K1 O22 2.852959 1_555
K1 O20 2.864350 1_565
K1 O2 2.867837 1_554
K1 O15 2.872889 1_555
K1 O3 2.879127 1_555
K1 O0 2.879472 1_564
K1 O1 2.884867 1_565
K2 O18 2.837209 1_655
K2 O16 2.841312 1_555
K2 O6 2.843284 1_554
K2 O4 2.844707 1_554
K2 O22 2.847544 1_555
K2 O20 2.851958 1_555
K2 O8 2.853599 1_654
K2 O7 2.854430 1_555
K2 O5 2.857525 1_555
K2 O13 2.876328 1_555
K2 O9 2.880934 1_655
K2 O12 2.882868 1_554
K3 O18 2.840678 1_655
K3 O16 2.847538 1_565
K3 O22 2.854727 1_555
K3 O20 2.854867 1_565
K3 O10 2.855282 1_654
K3 O6 2.862252 1_554
K3 O4 2.868327 1_564
K3 O7 2.873257 1_555
K3 O15 2.877610 1_555
K3 O5 2.877717 1_565
K3 O11 2.879938 1_655
K3 O14 2.883334 1_554
K4 O6 2.836092 1_555
K4 O14 2.836471 1_555
K4 O11 2.838265 1_655
K4 O10 2.838703 1_655
K4 O4 2.848374 1_565
K4 O7 2.848390 1_555
K4 O5 2.857244 1_565
K4 O19 2.861066 1_655
K4 O15 2.862208 1_555
K4 O17 2.871810 1_665
K4 O23 2.872615 1_555
K4 O21 2.881248 1_565
Na0 O8 2.805513 1_555
Na0 O0 2.811882 1_555
Na0 O2 2.812233 1_555
Na0 O19 2.817474 1_555
Na0 O17 2.819436 1_555
Na0 O3 2.823969 1_555
Na0 O9 2.829298 1_555
Na0 O13 2.829804 1_555
Na0 O1 2.830726 1_555
Na0 O12 2.830884 1_555
Na0 O21 2.831637 1_555
Na0 O23 2.831659 1_555
Na1 O10 2.803841 1_555
Na1 O0 2.816392 1_565
Na1 O2 2.816947 1_555
Na1 O15 2.828533 1_555
Na1 O11 2.829999 1_555
Na1 O3 2.830261 1_555
Na1 O14 2.830391 1_555
Na1 O1 2.835930 1_565
Na1 O19 2.836405 1_555
Na1 O17 2.840312 1_565
Na1 O23 2.848293 1_555
Na1 O21 2.853215 1_565
Na2 O6 2.815489 1_555
Na2 O12 2.817804 1_555
Na2 O9 2.819943 1_655
Na2 O4 2.825825 1_555
Na2 O7 2.826600 1_555
Na2 O8 2.827023 1_655
Na2 O5 2.839946 1_555
Na2 O19 2.841112 1_655
Na2 O13 2.850366 1_555
Na2 O17 2.850640 1_655
Na2 O23 2.852783 1_555
Na2 O21 2.864953 1_555
Nb0 O19 1.991434 1_555
Nb0 O2 1.997080 1_555
Nb0 O6 2.006501 1_455
Nb0 O18 2.011700 1_556
Nb0 O8 2.042796 1_555
Nb0 O10 2.063934 1_555
Nb1 O9 1.993403 1_555
Nb1 O11 1.998342 1_555
Nb1 O19 2.016420 1_555
Nb1 O3 2.018925 1_555
Nb1 O7 2.024297 1_455
Nb1 O18 2.037962 1_555
Nb2 O13 1.988884 1_555
Nb2 O15 1.992228 1_545
Nb2 O21 2.008247 1_555
Nb2 O1 2.030466 1_555
Nb2 O5 2.051588 1_555
Nb2 O20 2.061276 1_555
Nb3 O12 1.994985 1_555
Nb3 O14 1.999393 1_555
Nb3 O23 2.010065 1_555
Nb3 O2 2.024814 1_555
Nb3 O6 2.027809 1_555
Nb3 O22 2.034647 1_556
Nb4 O23 1.998301 1_555
Nb4 O3 2.002764 1_555
Nb4 O7 2.010264 1_555
Nb4 O22 2.014524 1_555
Nb4 O13 2.032832 1_555
Nb4 O15 2.043012 1_555
O0 W2 1.998372 1_555
O0 W0 2.024444 1_555
O1 W1 1.990341 1_455
O4 W2 2.001954 1_555
O4 W0 2.032046 1_655
O5 W1 1.983791 1_555
O8 W0 1.977605 1_555
O9 W1 2.028979 1_455
O10 W0 1.972665 1_565
O11 W1 2.036450 1_465
O12 W2 2.027689 1_555
O14 W2 2.035283 1_565
O16 W1 2.015329 1_555
O16 W0 2.033743 1_654
O17 W1 1.998575 1_455
O17 W0 2.010105 1_555
O20 W2 1.989494 1_554
O21 W2 1.998737 1_555
