# generated using pymatgen
data_Li9Mn2Co5O16
_symmetry_space_group_name_H-M   'P 1'
_cell_length_a   7.76999812
_cell_length_b   7.76999812
_cell_length_c   13.15127959
_cell_angle_alpha   86.82258818
_cell_angle_beta   86.82258818
_cell_angle_gamma   21.48147008
_symmetry_Int_Tables_number   1
_chemical_formula_structural   Li9Mn2Co5O16
_chemical_formula_sum   'Li9 Mn2 Co5 O16'
_cell_volume   290.29282398
_cell_formula_units_Z   1
loop_
 _symmetry_equiv_pos_site_id
 _symmetry_equiv_pos_as_xyz
  1  'x, y, z'
loop_
 _atom_site_type_symbol
 _atom_site_label
 _atom_site_symmetry_multiplicity
 _atom_site_fract_x
 _atom_site_fract_y
 _atom_site_fract_z
 _atom_site_occupancy
  Li  Li0  1  0.44171900  0.44171900  0.20194600  1
  Li  Li1  1  0.30960600  0.30960600  0.55372300  1
  Li  Li2  1  0.19231600  0.19231600  0.93713500  1
  Li  Li3  1  0.05811500  0.05811500  0.31722000  1
  Li  Li4  1  0.94153000  0.94153000  0.68216200  1
  Li  Li5  1  0.81077100  0.81077100  0.06443600  1
  Li  Li6  1  0.69211800  0.69211800  0.43623300  1
  Li  Li7  1  0.55868300  0.55868300  0.80503300  1
  Li  Li8  1  0.87207100  0.87207100  0.37699300  1
  Mn  Mn0  1  0.00077000  0.00077000  0.00219400  1
  Mn  Mn1  1  0.25495800  0.25495800  0.25538100  1
  Co  Co0  1  0.74865200  0.74865200  0.74759700  1
  Co  Co1  1  0.62594900  0.62594900  0.13088100  1
  Co  Co2  1  0.49294400  0.49294400  0.48708300  1
  Co  Co3  1  0.37411900  0.37411900  0.87229700  1
  Co  Co4  1  0.12313700  0.12313700  0.62053600  1
  O  O0  1  0.41505500  0.41505500  0.02541100  1
  O  O1  1  0.27610800  0.27610800  0.39086700  1
  O  O2  1  0.16496800  0.16496800  0.77346100  1
  O  O3  1  0.03772500  0.03772500  0.15879500  1
  O  O4  1  0.91422700  0.91422700  0.53046800  1
  O  O5  1  0.78781600  0.78781600  0.90536000  1
  O  O6  1  0.66701700  0.66701700  0.27385700  1
  O  O7  1  0.53823600  0.53823600  0.65196200  1
  O  O8  1  0.47147400  0.47147400  0.35367900  1
  O  O9  1  0.33242900  0.33242900  0.72581100  1
  O  O10  1  0.21662800  0.21662800  0.10639300  1
  O  O11  1  0.08231800  0.08231800  0.47537300  1
  O  O12  1  0.96224900  0.96224900  0.84350400  1
  O  O13  1  0.83521800  0.83521800  0.22146200  1
  O  O14  1  0.71217100  0.71217100  0.59309100  1
  O  O15  1  0.58890500  0.58890500  0.97965200  1
loop_
_geom_bond_atom_site_label_1
_geom_bond_atom_site_label_2
_geom_bond_distance
_geom_bond_site_symmetry_2
Li0 O8 2.071381 1_555
Li0 O3 2.115092 1_655
Li0 O3 2.115092 1_565
Li0 O13 2.181657 1_455
Li0 O13 2.181657 1_545
Li0 O0 2.379597 1_555
Li1 O14 2.119201 1_545
Li1 O14 2.119201 1_455
Li1 O4 2.164887 1_455
Li1 O4 2.164887 1_545
Li1 O1 2.229870 1_555
Li1 O9 2.309194 1_555
Li2 O5 2.080556 1_545
Li2 O5 2.080556 1_455
Li2 O15 2.191503 1_455
Li2 O15 2.191503 1_545
Li2 O2 2.215650 1_555
Li2 O10 2.277258 1_556
Li3 O8 2.001260 1_455
Li3 O8 2.001260 1_545
Li3 O3 2.123920 1_555
Li3 O11 2.132912 1_555
Li3 O6 2.253804 1_545
Li3 O6 2.253804 1_455
Li4 O4 2.060948 1_555
Li4 O7 2.090083 1_655
Li4 O7 2.090083 1_565
Li4 O12 2.162883 1_555
Li4 O9 2.256800 1_655
Li4 O9 2.256800 1_565
Li5 O10 2.092326 1_565
Li5 O10 2.092326 1_655
Li5 O13 2.119173 1_555
Li5 O5 2.140618 1_554
Li5 O0 2.191601 1_565
Li5 O0 2.191601 1_655
Li6 O1 2.002721 1_655
Li6 O1 2.002721 1_565
Li6 O14 2.102495 1_555
Li6 O6 2.190745 1_555
Li6 O11 2.252726 1_565
Li6 O11 2.252726 1_655
Li7 O7 2.054472 1_555
Li7 O12 2.106312 1_545
Li7 O12 2.106312 1_455
Li7 O2 2.196931 1_655
Li7 O2 2.196931 1_565
Li7 O15 2.367745 1_555
Li8 O1 2.060735 1_655
Li8 O1 2.060735 1_565
Li8 O8 2.107526 1_655
Li8 O8 2.107526 1_565
Li8 O13 2.151799 1_555
Li8 O4 2.152846 1_555
Mn0 O0 1.964088 1_455
Mn0 O0 1.964088 1_545
Mn0 O15 1.987573 1_454
Mn0 O15 1.987573 1_544
Mn0 O3 2.165874 1_555
Mn0 O12 2.199968 1_444
Mn1 O1 1.828676 1_555
Mn1 O13 1.932811 1_545
Mn1 O13 1.932811 1_455
Mn1 O6 1.980363 1_545
Mn1 O6 1.980363 1_455
Mn1 O10 2.076303 1_555
Co0 O9 1.942593 1_565
Co0 O9 1.942593 1_655
Co0 O2 1.948323 1_655
Co0 O2 1.948323 1_565
Co0 O14 2.136997 1_555
Co0 O5 2.191405 1_555
Co1 O3 1.997549 1_565
Co1 O3 1.997549 1_655
Co1 O6 2.015383 1_555
Co1 O10 2.016684 1_655
Co1 O10 2.016684 1_565
Co1 O15 2.098176 1_554
Co2 O8 1.802880 1_555
Co2 O4 1.946649 1_545
Co2 O4 1.946649 1_455
Co2 O11 1.989684 1_565
Co2 O11 1.989684 1_655
Co2 O7 2.312833 1_555
Co3 O5 1.989346 1_455
Co3 O5 1.989346 1_545
Co3 O12 1.998315 1_545
Co3 O12 1.998315 1_455
Co3 O9 2.062723 1_555
Co3 O0 2.141820 1_556
Co4 O7 1.971671 1_455
Co4 O7 1.971671 1_545
Co4 O14 2.004897 1_545
Co4 O14 2.004897 1_455
Co4 O11 2.041378 1_555
Co4 O2 2.144198 1_555
