# generated using pymatgen
data_Na3(CoO2)5
_symmetry_space_group_name_H-M   'P 1'
_cell_length_a   5.83148054
_cell_length_b   7.70968531
_cell_length_c   9.92720866
_cell_angle_alpha   71.29888940
_cell_angle_beta   72.55964912
_cell_angle_gamma   84.38039966
_symmetry_Int_Tables_number   1
_chemical_formula_structural   Na3(CoO2)5
_chemical_formula_sum   'Na6 Co10 O20'
_cell_volume   403.31752916
_cell_formula_units_Z   2
loop_
 _symmetry_equiv_pos_site_id
 _symmetry_equiv_pos_as_xyz
  1  'x, y, z'
loop_
 _atom_site_type_symbol
 _atom_site_label
 _atom_site_symmetry_multiplicity
 _atom_site_fract_x
 _atom_site_fract_y
 _atom_site_fract_z
 _atom_site_occupancy
  Na  Na0  1  0.50488500  0.79689900  0.38263900  1
  Na  Na1  1  0.49508600  0.80011800  0.87901200  1
  Na  Na2  1  0.49793100  0.19825200  0.28317300  1
  Na  Na3  1  0.50028300  0.19830400  0.78312700  1
  Na  Na4  1  0.49322800  0.39840600  0.48620000  1
  Na  Na5  1  0.49503500  0.40171200  0.98198800  1
  Co  Co0  1  0.02994600  0.79730900  0.29133000  1
  Co  Co1  1  0.01189800  0.80256900  0.79752300  1
  Co  Co2  1  0.99571400  0.99901200  0.50412100  1
  Co  Co3  1  0.99130500  0.59798700  0.60284900  1
  Co  Co4  1  0.00649500  0.39405600  0.40324100  1
  Co  Co5  1  0.99653000  0.01030200  0.99512800  1
  Co  Co6  1  0.97989200  0.59920200  0.09880200  1
  Co  Co7  1  0.00572200  0.19961800  0.19701600  1
  Co  Co8  1  0.00709200  0.20222000  0.69871300  1
  Co  Co9  1  0.00190000  0.40169800  0.89602800  1
  O  O0  1  0.17593400  0.81376200  0.09277100  1
  O  O1  1  0.16902300  0.79634700  0.60148800  1
  O  O2  1  0.82791600  0.79930100  0.50007600  1
  O  O3  1  0.82452100  0.81853600  0.98617500  1
  O  O4  1  0.18521500  0.20569700  0.99017900  1
  O  O5  1  0.18113300  0.19871700  0.50135000  1
  O  O6  1  0.18428100  0.38892900  0.21292500  1
  O  O7  1  0.17788400  0.40412000  0.69688700  1
  O  O8  1  0.19118000  0.99715200  0.31885500  1
  O  O9  1  0.18663000  0.01472900  0.80464600  1
  O  O10  1  0.18597800  0.58649500  0.41170300  1
  O  O11  1  0.18299200  0.59574900  0.90488300  1
  O  O12  1  0.82158800  0.00540800  0.19510100  1
  O  O13  1  0.82747400  0.00585300  0.69689500  1
  O  O14  1  0.82164300  0.58269600  0.30922000  1
  O  O15  1  0.81664700  0.59291300  0.79550600  1
  O  O16  1  0.80505400  0.39560000  0.09216300  1
  O  O17  1  0.82578900  0.39710400  0.59625600  1
  O  O18  1  0.81903600  0.19751500  0.41119300  1
  O  O19  1  0.82513500  0.20571100  0.89283600  1
loop_
_geom_bond_atom_site_label_1
_geom_bond_atom_site_label_2
_geom_bond_distance
_geom_bond_site_symmetry_2
Na0 O8 2.376009 1_555
Na0 O1 2.449718 1_555
Na0 O14 2.457216 1_555
Na0 O12 2.462176 1_565
Na0 O10 2.478335 1_555
Na0 O2 2.499015 1_555
Na1 O0 2.390674 1_556
Na1 O11 2.425441 1_555
Na1 O9 2.438851 1_565
Na1 O15 2.467023 1_555
Na1 O13 2.490812 1_565
Na1 O3 2.493561 1_555
Na2 O8 2.353781 1_545
Na2 O6 2.360800 1_555
Na2 O5 2.389393 1_555
Na2 O16 2.401256 1_555
Na2 O12 2.414957 1_555
Na2 O18 2.557589 1_555
Na3 O4 2.322654 1_555
Na3 O9 2.339461 1_555
Na3 O13 2.419870 1_555
Na3 O17 2.455473 1_555
Na3 O19 2.464918 1_555
Na3 O7 2.508956 1_555
Na4 O10 2.336180 1_555
Na4 O7 2.344316 1_555
Na4 O14 2.385058 1_555
Na4 O18 2.424509 1_555
Na4 O5 2.437480 1_555
Na4 O17 2.492781 1_555
Na5 O16 2.366935 1_556
Na5 O11 2.387991 1_555
Na5 O15 2.414082 1_555
Na5 O4 2.433607 1_555
Na5 O6 2.439107 1_556
Na5 O19 2.457426 1_555
Co0 O0 1.865785 1_555
Co0 O10 2.003537 1_555
Co0 O8 2.010031 1_555
Co0 O2 2.058140 1_455
Co0 O12 2.072212 1_465
Co0 O14 2.078616 1_455
Co1 O3 1.900342 1_455
Co1 O1 1.900390 1_555
Co1 O11 1.977351 1_555
Co1 O13 1.980085 1_465
Co1 O9 2.040219 1_565
Co1 O15 2.074697 1_455
Co2 O8 1.854486 1_655
Co2 O13 1.885935 1_565
Co2 O18 1.900062 1_565
Co2 O2 1.920434 1_555
Co2 O1 1.924802 1_655
Co2 O5 1.954869 1_665
Co3 O15 1.867862 1_555
Co3 O2 1.906644 1_555
Co3 O7 1.919605 1_655
Co3 O10 1.922014 1_655
Co3 O1 1.923984 1_655
Co3 O17 1.931358 1_555
Co4 O6 1.873938 1_555
Co4 O14 1.890478 1_455
Co4 O17 1.896350 1_455
Co4 O5 1.899302 1_555
Co4 O18 1.921784 1_455
Co4 O10 1.934033 1_555
Co5 O9 1.874905 1_655
Co5 O3 1.904735 1_545
Co5 O19 1.905854 1_555
Co5 O0 1.919806 1_646
Co5 O4 1.930598 1_655
Co5 O12 1.930965 1_556
Co6 O11 1.941483 1_654
Co6 O16 1.981891 1_555
Co6 O14 1.981970 1_555
Co6 O3 2.006298 1_554
Co6 O0 2.076704 1_655
Co6 O6 2.141365 1_655
Co7 O12 1.934067 1_455
Co7 O6 1.945102 1_555
Co7 O4 1.993362 1_554
Co7 O16 2.027589 1_455
Co7 O18 2.073632 1_455
Co7 O8 2.076515 1_545
Co8 O19 1.908477 1_455
Co8 O9 1.918413 1_555
Co8 O7 1.920925 1_555
Co8 O5 1.925126 1_555
Co8 O13 1.931022 1_455
Co8 O17 1.939928 1_455
Co9 O4 1.917455 1_555
Co9 O19 1.924057 1_455
Co9 O16 1.929536 1_456
Co9 O7 1.930204 1_555
Co9 O15 1.930562 1_455
Co9 O11 1.952067 1_555
