# generated using pymatgen
data_K2Na3P3O10
_symmetry_space_group_name_H-M   'P 1'
_cell_length_a   5.76011464
_cell_length_b   5.76011464
_cell_length_c   18.89277909
_cell_angle_alpha   84.62882765
_cell_angle_beta   84.62882765
_cell_angle_gamma   59.33950642
_symmetry_Int_Tables_number   1
_chemical_formula_structural   K2Na3P3O10
_chemical_formula_sum   'K4 Na6 P6 O20'
_cell_volume   536.07385472
_cell_formula_units_Z   2
loop_
 _symmetry_equiv_pos_site_id
 _symmetry_equiv_pos_as_xyz
  1  'x, y, z'
loop_
 _atom_site_type_symbol
 _atom_site_label
 _atom_site_symmetry_multiplicity
 _atom_site_fract_x
 _atom_site_fract_y
 _atom_site_fract_z
 _atom_site_occupancy
  K  K0  1  0.17762400  0.63343100  0.57738000  1
  K  K1  1  0.36656900  0.82237600  0.92262000  1
  K  K2  1  0.82237600  0.36656900  0.42262000  1
  K  K3  1  0.63343100  0.17762400  0.07738000  1
  Na  Na0  1  0.47360000  0.08984100  0.32773100  1
  Na  Na1  1  0.91015900  0.52640000  0.17226900  1
  Na  Na2  1  0.52640000  0.91015900  0.67226900  1
  Na  Na3  1  0.08984100  0.47360000  0.82773100  1
  Na  Na4  1  0.50000000  0.00000000  0.50000000  1
  Na  Na5  1  0.00000000  0.50000000  0.00000000  1
  P  P0  1  0.16134000  0.70297800  0.39868800  1
  P  P1  1  0.29702200  0.83866000  0.10131200  1
  P  P2  1  0.83866000  0.29702200  0.60131200  1
  P  P3  1  0.70297800  0.16134000  0.89868800  1
  P  P4  1  0.09562900  0.90437100  0.25000000  1
  P  P5  1  0.90437100  0.09562900  0.75000000  1
  O  O0  1  0.29730300  0.84865200  0.42312800  1
  O  O1  1  0.15134800  0.70269700  0.07687200  1
  O  O2  1  0.70269700  0.15134800  0.57687200  1
  O  O3  1  0.84865200  0.29730300  0.92312800  1
  O  O4  1  0.28989300  0.40797700  0.42660700  1
  O  O5  1  0.59202300  0.71010700  0.07339300  1
  O  O6  1  0.71010700  0.59202300  0.57339300  1
  O  O7  1  0.40797700  0.28989300  0.92660700  1
  O  O8  1  0.85276300  0.86226900  0.40634700  1
  O  O9  1  0.13773100  0.14723700  0.09365300  1
  O  O10  1  0.14723700  0.13773100  0.59365300  1
  O  O11  1  0.86226900  0.85276300  0.90634700  1
  O  O12  1  0.24129100  0.66834700  0.31126500  1
  O  O13  1  0.33165300  0.75870900  0.18873500  1
  O  O14  1  0.75870900  0.33165300  0.68873500  1
  O  O15  1  0.66834700  0.24129100  0.81126500  1
  O  O16  1  0.07827600  0.16275700  0.26918400  1
  O  O17  1  0.83724300  0.92172400  0.23081600  1
  O  O18  1  0.92172400  0.83724300  0.73081600  1
  O  O19  1  0.16275700  0.07827600  0.76918400  1
loop_
_geom_bond_atom_site_label_1
_geom_bond_atom_site_label_2
_geom_bond_distance
_geom_bond_site_symmetry_2
K0 O6 2.830368 1_455
K0 O2 2.838956 1_465
K0 O10 2.863867 1_565
K0 O2 2.879649 1_555
K0 O10 2.934813 1_555
K0 O6 2.946870 1_555
K0 O4 3.116071 1_555
K0 O18 3.166457 1_455
K0 O0 3.213106 1_555
K1 O7 2.830368 1_565
K1 O3 2.838956 1_465
K1 O11 2.863867 1_455
K1 O3 2.879649 1_555
K1 O11 2.934813 1_555
K1 O7 2.946870 1_555
K1 O5 3.116071 1_556
K1 O19 3.166457 1_565
K1 O1 3.213106 1_556
K2 O4 2.830368 1_655
K2 O0 2.838956 1_645
K2 O8 2.863867 1_545
K2 O0 2.879649 1_555
K2 O8 2.934813 1_555
K2 O4 2.946870 1_555
K2 O6 3.116071 1_555
K2 O16 3.166457 1_655
K2 O2 3.213106 1_555
K3 O5 2.830368 1_545
K3 O1 2.838956 1_645
K3 O9 2.863867 1_655
K3 O1 2.879649 1_555
K3 O9 2.934813 1_555
K3 O5 2.946870 1_555
K3 O7 3.116071 1_554
K3 O17 3.166457 1_545
K3 O3 3.213106 1_554
Na0 O16 2.448321 1_555
Na0 O8 2.453003 1_545
Na0 O17 2.494580 1_545
Na0 O4 2.502095 1_555
Na0 O0 2.614786 1_545
Na0 O12 2.885734 1_555
Na1 O17 2.448321 1_555
Na1 O9 2.453003 1_655
Na1 O16 2.494580 1_655
Na1 O5 2.502095 1_555
Na1 O1 2.614786 1_655
Na1 O13 2.885734 1_555
Na2 O18 2.448321 1_555
Na2 O10 2.453003 1_565
Na2 O19 2.494580 1_565
Na2 O6 2.502095 1_555
Na2 O2 2.614786 1_565
Na2 O14 2.885734 1_555
Na3 O19 2.448321 1_555
Na3 O11 2.453003 1_455
Na3 O18 2.494580 1_455
Na3 O7 2.502095 1_555
Na3 O3 2.614786 1_455
Na3 O15 2.885734 1_555
Na4 O4 2.390248 1_555
Na4 O6 2.390248 1_545
Na4 O0 2.413513 1_545
Na4 O2 2.413513 1_555
Na4 O10 2.415467 1_555
Na4 O8 2.415467 1_545
Na5 O7 2.390248 1_554
Na5 O5 2.390248 1_455
Na5 O1 2.413513 1_555
Na5 O3 2.413513 1_454
Na5 O11 2.415467 1_454
Na5 O9 2.415467 1_555
O0 P0 1.530065 1_555
O1 P1 1.530065 1_555
O2 P2 1.530065 1_555
O3 P3 1.530065 1_555
O4 P0 1.528391 1_555
O5 P1 1.528391 1_555
O6 P2 1.528391 1_555
O7 P3 1.528391 1_555
O8 P0 1.528230 1_655
O9 P1 1.528230 1_545
O10 P2 1.528230 1_455
O11 P3 1.528230 1_565
O12 P4 1.617355 1_555
O12 P0 1.674949 1_555
O13 P4 1.617355 1_555
O13 P1 1.674949 1_555
O14 P5 1.617355 1_555
O14 P2 1.674949 1_555
O15 P5 1.617355 1_555
O15 P3 1.674949 1_555
O16 P4 1.516235 1_545
O17 P4 1.516235 1_655
O18 P5 1.516235 1_565
O19 P5 1.516235 1_455
