# generated using pymatgen
data_Y5Ge3C
_symmetry_space_group_name_H-M   'P 1'
_cell_length_a   8.48791735
_cell_length_b   8.48791765
_cell_length_c   6.50542078
_cell_angle_alpha   90.00000000
_cell_angle_beta   90.00000000
_cell_angle_gamma   119.95927595
_symmetry_Int_Tables_number   1
_chemical_formula_structural   Y5Ge3C
_chemical_formula_sum   'Y10 Ge6 C2'
_cell_volume   406.05643296
_cell_formula_units_Z   2
loop_
 _symmetry_equiv_pos_site_id
 _symmetry_equiv_pos_as_xyz
  1  'x, y, z'
loop_
 _atom_site_type_symbol
 _atom_site_label
 _atom_site_symmetry_multiplicity
 _atom_site_fract_x
 _atom_site_fract_y
 _atom_site_fract_z
 _atom_site_occupancy
  Y  Y0  1  0.66642165  0.33357910  0.50000134  1
  Y  Y1  1  0.33357910  0.66642165  0.50000134  1
  Y  Y2  1  0.33357835  0.66642090  0.00000134  1
  Y  Y3  1  0.66642090  0.33357835  0.00000134  1
  Y  Y4  1  0.77905545  0.77905545  0.24999920  1
  Y  Y5  1  0.22078668  -0.00002583  0.24999700  1
  Y  Y6  1  -0.00002583  0.22078668  0.24999700  1
  Y  Y7  1  0.22094455  0.22094455  0.74999920  1
  Y  Y8  1  0.77921332  0.00002583  0.74999700  1
  Y  Y9  1  0.00002583  0.77921332  0.74999700  1
  Ge  Ge0  1  0.40932123  0.40932123  0.24999524  1
  Ge  Ge1  1  0.59013056  0.00000958  0.25000481  1
  Ge  Ge2  1  0.00000958  0.59013056  0.25000481  1
  Ge  Ge3  1  0.59067877  0.59067877  0.74999524  1
  Ge  Ge4  1  0.40986944  0.99999042  0.75000481  1
  Ge  Ge5  1  0.99999042  0.40986944  0.75000481  1
  C  C0  1  0.00000108  0.00000108  0.49999825  1
  C  C1  1  0.99999892  0.99999892  0.99999825  1
loop_
_geom_bond_atom_site_label_1
_geom_bond_atom_site_label_2
_geom_bond_distance
_geom_bond_site_symmetry_2
Ge0 Y6 3.013262 1_555
Ge0 Y5 3.013262 1_555
Ge0 Y3 3.036714 1_555
Ge0 Y2 3.036714 1_555
Ge0 Y0 3.036758 1_555
Ge0 Y1 3.036758 1_555
Ge0 Y4 3.140205 1_555
Ge0 Y7 3.624868 1_554
Ge0 Y7 3.624914 1_555
Ge1 Y4 3.015370 1_545
Ge1 Y6 3.016994 1_655
Ge1 Y1 3.040703 1_545
Ge1 Y2 3.040732 1_545
Ge1 Y0 3.041289 1_555
Ge1 Y3 3.041309 1_555
Ge1 Y5 3.134810 1_555
Ge1 Y8 3.627029 1_555
Ge1 Y8 3.627120 1_554
Ge2 Y4 3.015370 1_455
Ge2 Y5 3.016994 1_565
Ge2 Y0 3.040703 1_455
Ge2 Y3 3.040732 1_455
Ge2 Y1 3.041289 1_555
Ge2 Y2 3.041309 1_555
Ge2 Y6 3.134810 1_555
Ge2 Y9 3.627029 1_555
Ge2 Y9 3.627120 1_554
Ge3 Y9 3.013262 1_655
Ge3 Y8 3.013262 1_565
Ge3 Y1 3.036714 1_555
Ge3 Y0 3.036714 1_555
Ge3 Y2 3.036758 1_556
Ge3 Y3 3.036758 1_556
Ge3 Y7 3.140205 1_555
Ge3 Y4 3.624868 1_555
Ge3 Y4 3.624914 1_556
Ge4 Y7 3.015370 1_565
Ge4 Y9 3.016994 1_555
Ge4 Y3 3.040703 1_566
Ge4 Y0 3.040732 1_565
Ge4 Y2 3.041289 1_556
Ge4 Y1 3.041309 1_555
Ge4 Y8 3.134810 1_565
Ge4 Y5 3.627029 1_566
Ge4 Y5 3.627120 1_565
Ge5 Y7 3.015370 1_655
Ge5 Y8 3.016994 1_555
Ge5 Y2 3.040703 1_656
Ge5 Y1 3.040732 1_655
Ge5 Y3 3.041289 1_556
Ge5 Y0 3.041309 1_555
Ge5 Y9 3.134810 1_655
Ge5 Y6 3.627029 1_656
Ge5 Y6 3.627120 1_655
C0 Y8 2.481407 1_455
C0 Y9 2.481407 1_545
C0 Y5 2.481411 1_555
C0 Y6 2.481411 1_555
C0 Y7 2.483207 1_555
C0 Y4 2.483213 1_445
C1 Y5 2.481407 1_666
C1 Y6 2.481407 1_666
C1 Y8 2.481411 1_565
C1 Y9 2.481411 1_655
C1 Y4 2.483207 1_556
C1 Y7 2.483213 1_665
