# generated using pymatgen
data_Cd3Hg
_symmetry_space_group_name_H-M   'P 1'
_cell_length_a   6.13258806
_cell_length_b   6.13258806
_cell_length_c   22.03177564
_cell_angle_alpha   90.00000000
_cell_angle_beta   90.00000000
_cell_angle_gamma   119.99999422
_symmetry_Int_Tables_number   1
_chemical_formula_structural   Cd3Hg
_chemical_formula_sum   'Cd24 Hg8'
_cell_volume   717.57573437
_cell_formula_units_Z   8
loop_
 _symmetry_equiv_pos_site_id
 _symmetry_equiv_pos_as_xyz
  1  'x, y, z'
loop_
 _atom_site_type_symbol
 _atom_site_label
 _atom_site_symmetry_multiplicity
 _atom_site_fract_x
 _atom_site_fract_y
 _atom_site_fract_z
 _atom_site_occupancy
  Cd  Cd0_0  1  0.00000002  0.99999998  0.00000000  1
  Cd  Cd0_1  1  0.00000002  0.99999998  0.50000000  1
  Cd  Cd0_2  1  0.00000003  0.49999997  0.00000000  1
  Cd  Cd0_3  1  0.00000003  0.49999997  0.50000000  1
  Cd  Cd0_4  1  0.50000002  0.99999998  0.00000000  1
  Cd  Cd0_5  1  0.50000002  0.99999998  0.50000000  1
  Cd  Cd0_6  1  0.50000002  0.49999997  0.00000000  1
  Cd  Cd0_7  1  0.50000002  0.49999997  0.50000000  1
  Cd  Cd1_0  1  0.16666648  0.33333353  0.37739418  1
  Cd  Cd1_1  1  0.16666648  0.33333353  0.87739418  1
  Cd  Cd1_2  1  0.16666648  0.83333353  0.37739418  1
  Cd  Cd1_3  1  0.16666648  0.83333353  0.87739418  1
  Cd  Cd1_4  1  0.66666647  0.33333353  0.37739418  1
  Cd  Cd1_5  1  0.66666647  0.33333353  0.87739418  1
  Cd  Cd1_6  1  0.66666648  0.83333353  0.37739418  1
  Cd  Cd1_7  1  0.66666648  0.83333353  0.87739418  1
  Cd  Cd2_0  1  0.16666648  0.33333353  0.12260582  1
  Cd  Cd2_1  1  0.16666648  0.33333353  0.62260582  1
  Cd  Cd2_2  1  0.16666648  0.83333353  0.12260582  1
  Cd  Cd2_3  1  0.16666648  0.83333353  0.62260582  1
  Cd  Cd2_4  1  0.66666647  0.33333353  0.12260582  1
  Cd  Cd2_5  1  0.66666647  0.33333353  0.62260582  1
  Cd  Cd2_6  1  0.66666648  0.83333353  0.12260582  1
  Cd  Cd2_7  1  0.66666648  0.83333353  0.62260582  1
  Hg  Hg0_0  1  0.00000002  0.99999998  0.25000000  1
  Hg  Hg0_1  1  0.00000002  0.99999998  0.75000000  1
  Hg  Hg0_2  1  0.00000003  0.49999997  0.25000000  1
  Hg  Hg0_3  1  0.00000003  0.49999997  0.75000000  1
  Hg  Hg0_4  1  0.50000002  0.99999998  0.25000000  1
  Hg  Hg0_5  1  0.50000002  0.99999998  0.75000000  1
  Hg  Hg0_6  1  0.50000002  0.49999997  0.25000000  1
  Hg  Hg0_7  1  0.50000002  0.49999997  0.75000000  1
loop_
_geom_bond_atom_site_label_1
_geom_bond_atom_site_label_2
_geom_bond_distance
_geom_bond_site_symmetry_2
Cd0_0 Cd0_2 3.066294 1_565
Cd0_0 Cd0_4 3.066294 1_555
Cd0_0 Cd0_2 3.066294 1_555
Cd0_0 Cd0_4 3.066294 1_455
Cd0_0 Cd0_6 3.066294 1_565
Cd0_0 Cd0_6 3.066294 1_455
Cd0_0 Cd2_2 3.229652 1_555
Cd0_0 Cd1_3 3.229652 1_554
Cd0_0 Cd2_0 3.229654 1_565
Cd0_0 Cd2_6 3.229654 1_455
Cd0_0 Cd1_7 3.229654 1_454
Cd0_0 Cd1_1 3.229654 1_564
Cd0_1 Cd0_5 3.066294 1_555
Cd0_1 Cd0_3 3.066294 1_565
Cd0_1 Cd0_3 3.066294 1_555
Cd0_1 Cd0_5 3.066294 1_455
Cd0_1 Cd0_7 3.066294 1_565
Cd0_1 Cd0_7 3.066294 1_455
Cd0_1 Cd2_3 3.229652 1_555
Cd0_1 Cd1_2 3.229652 1_555
Cd0_1 Cd1_0 3.229654 1_565
Cd0_1 Cd2_7 3.229654 1_455
Cd0_1 Cd1_6 3.229654 1_455
Cd0_1 Cd2_1 3.229654 1_565
Cd0_2 Cd0_6 3.066294 1_555
Cd0_2 Cd0_6 3.066294 1_455
Cd0_2 Cd0_4 3.066294 1_555
Cd0_2 Cd0_4 3.066294 1_445
Cd0_2 Cd2_0 3.229652 1_555
Cd0_2 Cd1_1 3.229652 1_554
Cd0_2 Cd2_2 3.229654 1_555
Cd0_2 Cd2_4 3.229654 1_455
Cd0_2 Cd1_5 3.229654 1_454
Cd0_2 Cd1_3 3.229654 1_554
Cd0_3 Cd0_7 3.066294 1_555
Cd0_3 Cd0_7 3.066294 1_455
Cd0_3 Cd0_5 3.066294 1_555
Cd0_3 Cd0_5 3.066294 1_445
Cd0_3 Cd2_1 3.229652 1_555
Cd0_3 Cd1_0 3.229652 1_555
Cd0_3 Cd2_5 3.229654 1_455
Cd0_3 Cd1_4 3.229654 1_455
Cd0_3 Cd2_3 3.229654 1_555
Cd0_3 Cd1_2 3.229654 1_555
Cd0_4 Cd0_6 3.066294 1_565
Cd0_4 Cd0_6 3.066294 1_555
Cd0_4 Cd2_6 3.229652 1_555
Cd0_4 Cd1_7 3.229652 1_554
Cd0_4 Cd2_4 3.229654 1_565
Cd0_4 Cd2_2 3.229654 1_555
Cd0_4 Cd1_3 3.229654 1_554
Cd0_4 Cd1_5 3.229654 1_564
Cd0_5 Cd0_7 3.066294 1_565
Cd0_5 Cd0_7 3.066294 1_555
Cd0_5 Cd1_6 3.229652 1_555
Cd0_5 Cd2_7 3.229652 1_555
Cd0_5 Cd2_5 3.229654 1_565
Cd0_5 Cd1_4 3.229654 1_565
Cd0_5 Cd2_3 3.229654 1_555
Cd0_5 Cd1_2 3.229654 1_555
Cd0_6 Cd2_4 3.229652 1_555
Cd0_6 Cd1_5 3.229652 1_554
Cd0_6 Cd2_0 3.229654 1_555
Cd0_6 Cd2_6 3.229654 1_555
Cd0_6 Cd1_1 3.229654 1_554
Cd0_6 Cd1_7 3.229654 1_554
Cd0_7 Cd2_5 3.229652 1_555
Cd0_7 Cd1_4 3.229652 1_555
Cd0_7 Cd2_1 3.229654 1_555
Cd0_7 Cd1_0 3.229654 1_555
Cd0_7 Cd2_7 3.229654 1_555
Cd0_7 Cd1_6 3.229654 1_555
Cd1_0 Cd1_2 3.066294 1_555
Cd1_0 Cd1_4 3.066294 1_455
Cd1_0 Cd1_4 3.066294 1_555
Cd1_0 Cd1_2 3.066294 1_545
Cd1_0 Cd1_6 3.066294 1_445
Cd1_0 Cd1_6 3.066294 1_555
Cd1_0 Hg0_2 3.318392 1_555
Cd1_0 Hg0_6 3.318393 1_555
Cd1_0 Hg0_0 3.318393 1_545
Cd1_1 Cd1_5 3.066294 1_555
Cd1_1 Cd1_5 3.066294 1_455
Cd1_1 Cd1_3 3.066294 1_555
Cd1_1 Cd1_3 3.066294 1_545
Cd1_1 Cd1_7 3.066294 1_445
Cd1_1 Cd1_7 3.066294 1_555
Cd1_1 Hg0_3 3.318392 1_555
Cd1_1 Hg0_7 3.318393 1_555
Cd1_1 Hg0_1 3.318393 1_545
Cd1_2 Cd1_6 3.066294 1_455
Cd1_2 Cd1_6 3.066294 1_555
Cd1_2 Cd1_4 3.066294 1_455
Cd1_2 Cd1_4 3.066294 1_565
Cd1_2 Hg0_0 3.318392 1_555
Cd1_2 Hg0_2 3.318393 1_555
Cd1_2 Hg0_4 3.318393 1_555
Cd1_3 Cd1_7 3.066294 1_455
Cd1_3 Cd1_7 3.066294 1_555
Cd1_3 Cd1_5 3.066294 1_455
Cd1_3 Cd1_5 3.066294 1_565
Cd1_3 Hg0_1 3.318392 1_555
Cd1_3 Hg0_5 3.318393 1_555
Cd1_3 Hg0_3 3.318393 1_555
Cd1_4 Cd1_6 3.066294 1_545
Cd1_4 Cd1_6 3.066294 1_555
Cd1_4 Hg0_6 3.318392 1_555
Cd1_4 Hg0_4 3.318393 1_545
Cd1_4 Hg0_2 3.318393 1_655
Cd1_5 Cd1_7 3.066294 1_545
Cd1_5 Cd1_7 3.066294 1_555
Cd1_5 Hg0_7 3.318392 1_555
Cd1_5 Hg0_5 3.318393 1_545
Cd1_5 Hg0_3 3.318393 1_655
Cd1_6 Hg0_4 3.318392 1_555
Cd1_6 Hg0_0 3.318393 1_655
Cd1_6 Hg0_6 3.318393 1_555
Cd1_7 Hg0_5 3.318392 1_555
Cd1_7 Hg0_1 3.318393 1_655
Cd1_7 Hg0_7 3.318393 1_555
Cd2_0 Cd2_4 3.066294 1_455
Cd2_0 Cd2_4 3.066294 1_555
Cd2_0 Cd2_2 3.066294 1_555
Cd2_0 Cd2_2 3.066294 1_545
Cd2_0 Cd2_6 3.066294 1_445
Cd2_0 Cd2_6 3.066294 1_555
Cd2_0 Hg0_2 3.318392 1_555
Cd2_0 Hg0_6 3.318393 1_555
Cd2_0 Hg0_0 3.318393 1_545
Cd2_1 Cd2_3 3.066294 1_555
Cd2_1 Cd2_5 3.066294 1_455
Cd2_1 Cd2_5 3.066294 1_555
Cd2_1 Cd2_3 3.066294 1_545
Cd2_1 Cd2_7 3.066294 1_445
Cd2_1 Cd2_7 3.066294 1_555
Cd2_1 Hg0_3 3.318392 1_555
Cd2_1 Hg0_7 3.318393 1_555
Cd2_1 Hg0_1 3.318393 1_545
Cd2_2 Cd2_6 3.066294 1_455
Cd2_2 Cd2_6 3.066294 1_555
Cd2_2 Cd2_4 3.066294 1_565
Cd2_2 Cd2_4 3.066294 1_455
Cd2_2 Hg0_0 3.318392 1_555
Cd2_2 Hg0_2 3.318393 1_555
Cd2_2 Hg0_4 3.318393 1_555
Cd2_3 Cd2_7 3.066294 1_455
Cd2_3 Cd2_7 3.066294 1_555
Cd2_3 Cd2_5 3.066294 1_565
Cd2_3 Cd2_5 3.066294 1_455
Cd2_3 Hg0_1 3.318392 1_555
Cd2_3 Hg0_5 3.318393 1_555
Cd2_3 Hg0_3 3.318393 1_555
Cd2_4 Cd2_6 3.066294 1_545
Cd2_4 Cd2_6 3.066294 1_555
Cd2_4 Hg0_6 3.318392 1_555
Cd2_4 Hg0_4 3.318393 1_545
Cd2_4 Hg0_2 3.318393 1_655
Cd2_5 Cd2_7 3.066294 1_545
Cd2_5 Cd2_7 3.066294 1_555
Cd2_5 Hg0_7 3.318392 1_555
Cd2_5 Hg0_5 3.318393 1_545
Cd2_5 Hg0_3 3.318393 1_655
Cd2_6 Hg0_4 3.318392 1_555
Cd2_6 Hg0_0 3.318393 1_655
Cd2_6 Hg0_6 3.318393 1_555
Cd2_7 Hg0_5 3.318392 1_555
Cd2_7 Hg0_1 3.318393 1_655
Cd2_7 Hg0_7 3.318393 1_555
Hg0_0 Hg0_4 3.066294 1_555
Hg0_0 Hg0_2 3.066294 1_565
Hg0_0 Hg0_4 3.066294 1_455
Hg0_0 Hg0_2 3.066294 1_555
Hg0_0 Hg0_6 3.066294 1_565
Hg0_0 Hg0_6 3.066294 1_455
Hg0_1 Hg0_3 3.066294 1_565
Hg0_1 Hg0_5 3.066294 1_555
Hg0_1 Hg0_5 3.066294 1_455
Hg0_1 Hg0_3 3.066294 1_555
Hg0_1 Hg0_7 3.066294 1_565
Hg0_1 Hg0_7 3.066294 1_455
Hg0_2 Hg0_6 3.066294 1_555
Hg0_2 Hg0_6 3.066294 1_455
Hg0_2 Hg0_4 3.066294 1_555
Hg0_2 Hg0_4 3.066294 1_445
Hg0_3 Hg0_7 3.066294 1_555
Hg0_3 Hg0_7 3.066294 1_455
Hg0_3 Hg0_5 3.066294 1_555
Hg0_3 Hg0_5 3.066294 1_445
Hg0_4 Hg0_6 3.066294 1_565
Hg0_4 Hg0_6 3.066294 1_555
Hg0_5 Hg0_7 3.066294 1_565
Hg0_5 Hg0_7 3.066294 1_555
