# generated using pymatgen
data_Ho5(In2Ni)2
_symmetry_space_group_name_H-M   'P 1'
_cell_length_a   7.87912435
_cell_length_b   17.76052670
_cell_length_c   3.58028235
_cell_angle_alpha   90.00000000
_cell_angle_beta   90.00000000
_cell_angle_gamma   90.00000000
_symmetry_Int_Tables_number   1
_chemical_formula_structural   Ho5(In2Ni)2
_chemical_formula_sum   'Ho10 In8 Ni4'
_cell_volume   501.01539756
_cell_formula_units_Z   2
loop_
 _symmetry_equiv_pos_site_id
 _symmetry_equiv_pos_as_xyz
  1  'x, y, z'
loop_
 _atom_site_type_symbol
 _atom_site_label
 _atom_site_symmetry_multiplicity
 _atom_site_fract_x
 _atom_site_fract_y
 _atom_site_fract_z
 _atom_site_occupancy
  Ho  Ho0  1  0.50000000  0.50000000  0.00000000  1
  Ho  Ho1  1  0.00000000  -0.00000000  0.00000000  1
  Ho  Ho2  1  0.74568223  0.27849997  0.00000000  1
  Ho  Ho3  1  0.25431777  0.72150003  0.00000000  1
  Ho  Ho4  1  0.75431777  0.77849997  0.00000000  1
  Ho  Ho5  1  0.24568223  0.22150003  0.00000000  1
  Ho  Ho6  1  0.61546520  0.08724522  0.00000000  1
  Ho  Ho7  1  0.38453480  0.91275478  0.00000000  1
  Ho  Ho8  1  0.88453480  0.58724522  0.00000000  1
  Ho  Ho9  1  0.11546520  0.41275478  0.00000000  1
  In  In0  1  0.70715134  0.93025402  0.50000000  1
  In  In1  1  0.29284866  0.06974598  0.50000000  1
  In  In2  1  0.79284866  0.43025402  0.50000000  1
  In  In3  1  0.20715134  0.56974598  0.50000000  1
  In  In4  1  0.57257595  0.65235777  0.50000000  1
  In  In5  1  0.42742405  0.34764223  0.50000000  1
  In  In6  1  0.92742405  0.15235777  0.50000000  1
  In  In7  1  0.07257595  0.84764223  0.50000000  1
  Ni  Ni0  1  0.52611620  0.19527742  0.50000000  1
  Ni  Ni1  1  0.47388380  0.80472258  0.50000000  1
  Ni  Ni2  1  0.97388380  0.69527742  0.50000000  1
  Ni  Ni3  1  0.02611620  0.30472258  0.50000000  1
loop_
_geom_bond_atom_site_label_1
_geom_bond_atom_site_label_2
_geom_bond_distance
_geom_bond_site_symmetry_2
Ho0 In3 3.172239 1_555
Ho0 In2 3.172239 1_554
Ho0 In3 3.172239 1_554
Ho0 In2 3.172239 1_555
Ho0 In5 3.294509 1_555
Ho0 In5 3.294509 1_554
Ho0 In4 3.294509 1_554
Ho0 In4 3.294509 1_555
Ho1 In0 3.172239 1_444
Ho1 In0 3.172239 1_445
Ho1 In1 3.172239 1_555
Ho1 In1 3.172239 1_554
Ho1 In7 3.294509 1_544
Ho1 In7 3.294509 1_545
Ho1 In6 3.294509 1_455
Ho1 In6 3.294509 1_454
Ho2 Ni3 2.881619 1_655
Ho2 Ni3 2.881619 1_654
Ho2 Ni0 2.895198 1_554
Ho2 Ni0 2.895198 1_555
Ho2 In6 3.205356 1_554
Ho2 In6 3.205356 1_555
Ho2 In2 3.256837 1_554
Ho2 In2 3.256837 1_555
Ho2 In5 3.316720 1_554
Ho2 In5 3.316720 1_555
Ho3 Ni2 2.881619 1_455
Ho3 Ni2 2.881619 1_454
Ho3 Ni1 2.895198 1_555
Ho3 Ni1 2.895198 1_554
Ho3 In7 3.205356 1_554
Ho3 In7 3.205356 1_555
Ho3 In3 3.256837 1_555
Ho3 In3 3.256837 1_554
Ho3 In4 3.316720 1_554
Ho3 In4 3.316720 1_555
Ho4 Ni1 2.881619 1_554
Ho4 Ni1 2.881619 1_555
Ho4 Ni2 2.895198 1_554
Ho4 Ni2 2.895198 1_555
Ho4 In4 3.205356 1_555
Ho4 In4 3.205356 1_554
Ho4 In0 3.256837 1_554
Ho4 In0 3.256837 1_555
Ho4 In7 3.316720 1_655
Ho4 In7 3.316720 1_654
Ho5 Ni0 2.881619 1_555
Ho5 Ni0 2.881619 1_554
Ho5 Ni3 2.895198 1_555
Ho5 Ni3 2.895198 1_554
Ho5 In5 3.205356 1_555
Ho5 In5 3.205356 1_554
Ho5 In1 3.256837 1_554
Ho5 In1 3.256837 1_555
Ho5 In6 3.316720 1_454
Ho5 In6 3.316720 1_455
Ho6 Ni0 2.716920 1_554
Ho6 Ni0 2.716920 1_555
Ho6 In1 3.124522 1_554
Ho6 In1 3.124522 1_555
Ho6 In6 3.253233 1_555
Ho6 In6 3.253233 1_554
Ho6 In0 3.391282 1_544
Ho6 In0 3.391282 1_545
Ho7 Ni1 2.716920 1_555
Ho7 Ni1 2.716920 1_554
Ho7 In0 3.124522 1_554
Ho7 In0 3.124522 1_555
Ho7 In7 3.253233 1_554
Ho7 In7 3.253233 1_555
Ho7 In1 3.391282 1_565
Ho7 In1 3.391282 1_564
Ho8 Ni2 2.716920 1_554
Ho8 Ni2 2.716920 1_555
Ho8 In3 3.124522 1_655
Ho8 In3 3.124522 1_654
Ho8 In4 3.253233 1_555
Ho8 In4 3.253233 1_554
Ho8 In2 3.391282 1_554
Ho8 In2 3.391282 1_555
Ho9 Ni3 2.716920 1_555
Ho9 Ni3 2.716920 1_554
Ho9 In2 3.124522 1_455
Ho9 In2 3.124522 1_454
Ho9 In5 3.253233 1_555
Ho9 In5 3.253233 1_554
Ho9 In3 3.391282 1_554
Ho9 In3 3.391282 1_555
In0 Ni1 2.889417 1_555
In0 In7 3.231517 1_655
In1 Ni0 2.889417 1_555
In1 In6 3.231517 1_455
In2 Ni3 2.889417 1_655
In2 In5 3.231517 1_555
In3 Ni2 2.889417 1_455
In3 In4 3.231517 1_555
In4 Ni1 2.815589 1_555
In4 Ni2 3.252541 1_555
In5 Ni0 2.815589 1_555
In5 Ni3 3.252541 1_555
In6 Ni3 2.815589 1_655
In6 Ni0 3.252541 1_555
In7 Ni2 2.815589 1_455
In7 Ni1 3.252541 1_555
