# generated using pymatgen
data_Sc2AlC
_symmetry_space_group_name_H-M   'P 1'
_cell_length_a   3.29508224
_cell_length_b   3.29508224
_cell_length_c   15.05403000
_cell_angle_alpha   90.00000000
_cell_angle_beta   90.00000000
_cell_angle_gamma   120.00000488
_symmetry_Int_Tables_number   1
_chemical_formula_structural   Sc2AlC
_chemical_formula_sum   'Sc4 Al2 C2'
_cell_volume   141.55196580
_cell_formula_units_Z   2
loop_
 _symmetry_equiv_pos_site_id
 _symmetry_equiv_pos_as_xyz
  1  'x, y, z'
loop_
 _atom_site_type_symbol
 _atom_site_label
 _atom_site_symmetry_multiplicity
 _atom_site_fract_x
 _atom_site_fract_y
 _atom_site_fract_z
 _atom_site_occupancy
  Sc  Sc0  1  0.33333300  0.66666700  0.41724900  1
  Sc  Sc1  1  0.66666700  0.33333300  0.91724900  1
  Sc  Sc2  1  0.66666700  0.33333300  0.58275100  1
  Sc  Sc3  1  0.33333300  0.66666700  0.08275100  1
  Al  Al0  1  0.66666700  0.33333300  0.25000000  1
  Al  Al1  1  0.33333300  0.66666700  0.75000000  1
  C  C0  1  0.00000000  0.00000000  0.50000000  1
  C  C1  1  0.00000000  0.00000000  0.00000000  1
loop_
_geom_bond_atom_site_label_1
_geom_bond_atom_site_label_2
_geom_bond_distance
_geom_bond_site_symmetry_2
Al0 Sc0 3.155686 1_545
Al0 Sc0 3.155686 1_655
Al0 Sc3 3.155686 1_655
Al0 Sc3 3.155686 1_545
Al0 Sc0 3.155690 1_555
Al0 Sc3 3.155690 1_555
Al1 Sc2 3.155686 1_455
Al1 Sc1 3.155686 1_455
Al1 Sc1 3.155686 1_565
Al1 Sc2 3.155686 1_565
Al1 Sc2 3.155690 1_555
Al1 Sc1 3.155690 1_555
C0 Sc2 2.273992 1_455
C0 Sc0 2.273992 1_545
C0 Sc0 2.273994 1_445
C0 Sc0 2.273994 1_555
C0 Sc2 2.273994 1_445
C0 Sc2 2.273994 1_555
C1 Sc1 2.273992 1_454
C1 Sc3 2.273992 1_545
C1 Sc1 2.273994 1_554
C1 Sc3 2.273994 1_555
C1 Sc1 2.273994 1_444
C1 Sc3 2.273994 1_445
