# generated using pymatgen
data_Sr2Li(H4O3)2
_symmetry_space_group_name_H-M   'P 1'
_cell_length_a   3.82218154
_cell_length_b   6.97315225
_cell_length_c   7.63992884
_cell_angle_alpha   81.77093546
_cell_angle_beta   90.02612513
_cell_angle_gamma   89.75728017
_symmetry_Int_Tables_number   1
_chemical_formula_structural   Sr2Li(H4O3)2
_chemical_formula_sum   'Sr2 Li1 H8 O6'
_cell_volume   201.52588657
_cell_formula_units_Z   1
loop_
 _symmetry_equiv_pos_site_id
 _symmetry_equiv_pos_as_xyz
  1  'x, y, z'
loop_
 _atom_site_type_symbol
 _atom_site_label
 _atom_site_symmetry_multiplicity
 _atom_site_fract_x
 _atom_site_fract_y
 _atom_site_fract_z
 _atom_site_occupancy
  Sr  Sr0  1  0.00187700  0.61233100  0.67916900  1
  Sr  Sr1  1  0.99771100  0.33797600  0.22185000  1
  Li  Li0  1  0.49215600  0.67399500  0.30587000  1
  H  H0  1  0.21016100  0.19267600  0.84470400  1
  H  H1  1  0.78786300  0.19329900  0.84456500  1
  H  H2  1  0.79848800  0.91929000  0.32645100  1
  H  H3  1  0.20603700  0.92153200  0.32745500  1
  H  H4  1  0.50065800  0.91135800  0.78474300  1
  H  H5  1  0.49976700  0.03720700  0.11768300  1
  H  H6  1  0.50221700  0.33042300  0.56193100  1
  H  H7  1  0.49835300  0.63451700  0.99598500  1
  O  O0  1  0.99882800  0.26587100  0.88279100  1
  O  O1  1  0.00393300  0.82763100  0.37102300  1
  O  O2  1  0.50102000  0.77164000  0.77756700  1
  O  O3  1  0.50098300  0.05675500  0.24305600  1
  O  O4  1  0.50315400  0.45620400  0.48485500  1
  O  O5  1  0.49679400  0.54479300  0.10951100  1
loop_
_geom_bond_atom_site_label_1
_geom_bond_atom_site_label_2
_geom_bond_distance
_geom_bond_site_symmetry_2
Li0 O5 1.857233 1_555
Li0 O4 1.892877 1_555
Li0 O1 2.239267 1_555
Li0 O1 2.321934 1_655
H0 O0 1.018273 1_455
H1 O0 1.018394 1_555
H2 O1 1.036479 1_655
H2 O3 1.559838 1_565
H2 Li0 2.101228 1_555
H3 O1 1.038455 1_555
H3 O3 1.552868 1_565
H3 Li0 2.065980 1_555
H4 O2 0.983615 1_555
H5 O3 0.986630 1_555
H6 O4 0.983987 1_555
H7 O5 0.994204 1_556
O0 Sr0 2.679786 1_655
O0 Sr1 2.708461 1_556
O1 Sr0 2.604743 1_555
O2 Sr0 2.384608 1_655
O2 Sr0 2.386351 1_555
O3 Sr1 2.723464 1_555
O3 Sr1 2.729247 1_455
O4 Sr0 2.738693 1_655
O4 Sr0 2.740012 1_555
O4 Sr1 2.958845 1_555
O4 Sr1 2.988895 1_455
O5 Sr1 2.470409 1_555
O5 Sr1 2.475039 1_455
