# generated using pymatgen
data_Sr2PrGeO6
_symmetry_space_group_name_H-M   'P 1'
_cell_length_a   8.38522079
_cell_length_b   8.38522079
_cell_length_c   8.38522079
_cell_angle_alpha   90.00000000
_cell_angle_beta   90.00000000
_cell_angle_gamma   90.00000000
_symmetry_Int_Tables_number   1
_chemical_formula_structural   Sr2PrGeO6
_chemical_formula_sum   'Sr8 Pr4 Ge4 O24'
_cell_volume   589.58103791
_cell_formula_units_Z   4
loop_
 _symmetry_equiv_pos_site_id
 _symmetry_equiv_pos_as_xyz
  1  'x, y, z'
loop_
 _atom_site_type_symbol
 _atom_site_label
 _atom_site_symmetry_multiplicity
 _atom_site_fract_x
 _atom_site_fract_y
 _atom_site_fract_z
 _atom_site_occupancy
  Sr  Sr0  1  0.50000000  0.50000000  0.50000000  1
  Sr  Sr1  1  0.00000000  -0.00000000  -0.00000000  1
  Sr  Sr2  1  0.00000000  -0.00000000  0.50000000  1
  Sr  Sr3  1  0.00000000  0.50000000  0.00000000  1
  Sr  Sr4  1  0.50000000  -0.00000000  -0.00000000  1
  Sr  Sr5  1  0.50000000  0.50000000  0.00000000  1
  Sr  Sr6  1  0.50000000  -0.00000000  0.50000000  1
  Sr  Sr7  1  0.00000000  0.50000000  0.50000000  1
  Pr  Pr0  1  0.25000000  0.25000000  0.25000000  1
  Pr  Pr1  1  0.25000000  0.75000000  0.75000000  1
  Pr  Pr2  1  0.75000000  0.25000000  0.75000000  1
  Pr  Pr3  1  0.75000000  0.75000000  0.25000000  1
  Ge  Ge0  1  0.75000000  0.75000000  0.75000000  1
  Ge  Ge1  1  0.75000000  0.25000000  0.25000000  1
  Ge  Ge2  1  0.25000000  0.75000000  0.25000000  1
  Ge  Ge3  1  0.25000000  0.25000000  0.75000000  1
  O  O0  1  0.21964971  0.28503163  0.52536839  1
  O  O1  1  0.21964971  0.71496837  0.47463161  1
  O  O2  1  0.78035029  0.28503163  0.47463161  1
  O  O3  1  0.78035029  0.71496837  0.52536839  1
  O  O4  1  0.28503163  0.52536839  0.21964971  1
  O  O5  1  0.71496837  0.47463161  0.21964971  1
  O  O6  1  0.28503163  0.47463161  0.78035029  1
  O  O7  1  0.71496837  0.52536839  0.78035029  1
  O  O8  1  0.52536839  0.21964971  0.28503163  1
  O  O9  1  0.47463161  0.21964971  0.71496837  1
  O  O10  1  0.47463161  0.78035029  0.28503163  1
  O  O11  1  0.52536839  0.78035029  0.71496837  1
  O  O12  1  0.28035029  0.21496837  0.97463161  1
  O  O13  1  0.28035029  0.78503163  0.02536839  1
  O  O14  1  0.71964971  0.21496837  0.02536839  1
  O  O15  1  0.71964971  0.78503163  0.97463161  1
  O  O16  1  0.21496837  0.97463161  0.28035029  1
  O  O17  1  0.78503163  0.02536839  0.28035029  1
  O  O18  1  0.21496837  0.02536839  0.71964971  1
  O  O19  1  0.78503163  0.97463161  0.71964971  1
  O  O20  1  0.97463161  0.28035029  0.21496837  1
  O  O21  1  0.02536839  0.28035029  0.78503163  1
  O  O22  1  0.02536839  0.71964971  0.21496837  1
  O  O23  1  0.97463161  0.71964971  0.78503163  1
loop_
_geom_bond_atom_site_label_1
_geom_bond_atom_site_label_2
_geom_bond_distance
_geom_bond_site_symmetry_2
Ge0 O15 1.923265 1_555
Ge0 O11 1.923265 1_555
Ge0 O7 1.923265 1_555
Ge0 O19 1.923265 1_555
Ge0 O3 1.923265 1_555
Ge0 O23 1.923265 1_555
Ge1 O8 1.923265 1_555
Ge1 O5 1.923265 1_555
Ge1 O2 1.923265 1_555
Ge1 O20 1.923265 1_555
Ge1 O17 1.923265 1_555
Ge1 O14 1.923265 1_555
Ge2 O16 1.923265 1_555
Ge2 O10 1.923265 1_555
Ge2 O4 1.923265 1_555
Ge2 O1 1.923265 1_555
Ge2 O22 1.923265 1_555
Ge2 O13 1.923265 1_555
Ge3 O6 1.923265 1_555
Ge3 O12 1.923265 1_555
Ge3 O9 1.923265 1_555
Ge3 O0 1.923265 1_555
Ge3 O21 1.923265 1_555
Ge3 O18 1.923265 1_555
O0 Pr0 2.341506 1_555
O0 Sr7 2.585871 1_555
O0 Sr0 2.969969 1_555
O0 Sr2 3.024876 1_555
O1 Pr1 2.341506 1_555
O1 Sr7 2.585871 1_555
O1 Sr0 2.969969 1_555
O1 Sr2 3.024876 1_565
O2 Pr2 2.341506 1_555
O2 Sr7 2.585871 1_655
O2 Sr0 2.969969 1_555
O2 Sr2 3.024876 1_655
O3 Pr3 2.341506 1_555
O3 Sr7 2.585871 1_655
O3 Sr0 2.969969 1_555
O3 Sr2 3.024876 1_665
O4 Pr0 2.341506 1_555
O4 Sr5 2.585871 1_555
O4 Sr0 2.969969 1_555
O4 Sr3 3.024876 1_555
O5 Pr3 2.341506 1_555
O5 Sr5 2.585871 1_555
O5 Sr0 2.969969 1_555
O5 Sr3 3.024876 1_655
O6 Pr1 2.341506 1_555
O6 Sr5 2.585871 1_556
O6 Sr0 2.969969 1_555
O6 Sr3 3.024876 1_556
O7 Pr2 2.341506 1_555
O7 Sr5 2.585871 1_556
O7 Sr0 2.969969 1_555
O7 Sr3 3.024876 1_656
O8 Pr0 2.341506 1_555
O8 Sr6 2.585871 1_555
O8 Sr0 2.969969 1_555
O8 Sr4 3.024876 1_555
O9 Pr2 2.341506 1_555
O9 Sr6 2.585871 1_555
O9 Sr0 2.969969 1_555
O9 Sr4 3.024876 1_556
O10 Pr3 2.341506 1_555
O10 Sr6 2.585871 1_565
O10 Sr0 2.969969 1_555
O10 Sr4 3.024876 1_565
O11 Pr1 2.341506 1_555
O11 Sr6 2.585871 1_565
O11 Sr0 2.969969 1_555
O11 Sr4 3.024876 1_566
O12 Pr0 2.341506 1_556
O12 Sr4 2.585871 1_556
O12 Sr1 2.969969 1_556
O12 Sr5 3.024876 1_556
O13 Pr1 2.341506 1_554
O13 Sr4 2.585871 1_565
O13 Sr1 2.969969 1_565
O13 Sr5 3.024876 1_555
O14 Pr2 2.341506 1_554
O14 Sr4 2.585871 1_555
O14 Sr1 2.969969 1_655
O14 Sr5 3.024876 1_555
O15 Pr3 2.341506 1_556
O15 Sr4 2.585871 1_566
O15 Sr1 2.969969 1_666
O15 Sr5 3.024876 1_556
O16 Pr0 2.341506 1_565
O16 Sr2 2.585871 1_565
O16 Sr1 2.969969 1_565
O16 Sr6 3.024876 1_565
O17 Pr3 2.341506 1_545
O17 Sr2 2.585871 1_655
O17 Sr1 2.969969 1_655
O17 Sr6 3.024876 1_555
O18 Pr1 2.341506 1_545
O18 Sr2 2.585871 1_555
O18 Sr1 2.969969 1_556
O18 Sr6 3.024876 1_555
O19 Pr2 2.341506 1_565
O19 Sr2 2.585871 1_665
O19 Sr1 2.969969 1_666
O19 Sr6 3.024876 1_565
O20 Pr0 2.341506 1_655
O20 Sr3 2.585871 1_655
O20 Sr1 2.969969 1_655
O20 Sr7 3.024876 1_655
O21 Pr2 2.341506 1_455
O21 Sr3 2.585871 1_556
O21 Sr1 2.969969 1_556
O21 Sr7 3.024876 1_555
O22 Pr3 2.341506 1_455
O22 Sr3 2.585871 1_555
O22 Sr1 2.969969 1_565
O22 Sr7 3.024876 1_555
O23 Pr1 2.341506 1_655
O23 Sr3 2.585871 1_656
O23 Sr1 2.969969 1_666
O23 Sr7 3.024876 1_655
