# generated using pymatgen
data_BPH4NO4F
_symmetry_space_group_name_H-M   'P 1'
_cell_length_a   7.70761300
_cell_length_b   7.70761300
_cell_length_c   7.70761300
_cell_angle_alpha   90.00000000
_cell_angle_beta   90.00000000
_cell_angle_gamma   90.00000000
_symmetry_Int_Tables_number   1
_chemical_formula_structural   BPH4NO4F
_chemical_formula_sum   'B4 P4 H16 N4 O16 F4'
_cell_volume   457.88846358
_cell_formula_units_Z   4
loop_
 _symmetry_equiv_pos_site_id
 _symmetry_equiv_pos_as_xyz
  1  'x, y, z'
loop_
 _atom_site_type_symbol
 _atom_site_label
 _atom_site_symmetry_multiplicity
 _atom_site_fract_x
 _atom_site_fract_y
 _atom_site_fract_z
 _atom_site_occupancy
  B  B0  1  0.13433400  0.63433400  0.86566600  1
  B  B1  1  0.63433400  0.86566600  0.13433400  1
  B  B2  1  0.86566600  0.13433400  0.63433400  1
  B  B3  1  0.36566600  0.36566600  0.36566600  1
  P  P0  1  0.90150700  0.90150700  0.90150700  1
  P  P1  1  0.09849300  0.40150700  0.59849300  1
  P  P2  1  0.40150700  0.59849300  0.09849300  1
  P  P3  1  0.59849300  0.09849300  0.40150700  1
  H  H0  1  0.08371600  0.74975300  0.39441800  1
  H  H1  1  0.60558200  0.58371600  0.75024700  1
  H  H2  1  0.24975300  0.10558200  0.91628400  1
  H  H3  1  0.58371600  0.75024700  0.60558200  1
  H  H4  1  0.10558200  0.91628400  0.24975300  1
  H  H5  1  0.74975300  0.39441800  0.08371600  1
  H  H6  1  0.91628400  0.24975300  0.10558200  1
  H  H7  1  0.39441800  0.08371600  0.74975300  1
  H  H8  1  0.75024700  0.60558200  0.58371600  1
  H  H9  1  0.41628400  0.25024700  0.89441800  1
  H  H10  1  0.89441800  0.41628400  0.25024700  1
  H  H11  1  0.25024700  0.89441800  0.41628400  1
  H  H12  1  0.04529600  0.95470400  0.45470400  1
  H  H13  1  0.54529600  0.54529600  0.54529600  1
  H  H14  1  0.45470400  0.04529600  0.95470400  1
  H  H15  1  0.95470400  0.45470400  0.04529600  1
  N  N0  1  0.12219200  0.87780800  0.37780800  1
  N  N1  1  0.62219200  0.62219200  0.62219200  1
  N  N2  1  0.37780800  0.12219200  0.87780800  1
  N  N3  1  0.87780800  0.37780800  0.12219200  1
  O  O0  1  0.95909200  0.70706600  0.88910100  1
  O  O1  1  0.11089900  0.45909200  0.79293400  1
  O  O2  1  0.20706600  0.61089900  0.04090800  1
  O  O3  1  0.45909200  0.79293400  0.11089900  1
  O  O4  1  0.61089900  0.04090800  0.20706600  1
  O  O5  1  0.70706600  0.88910100  0.95909200  1
  O  O6  1  0.04090800  0.20706600  0.61089900  1
  O  O7  1  0.88910100  0.95909200  0.70706600  1
  O  O8  1  0.79293400  0.11089900  0.45909200  1
  O  O9  1  0.54090800  0.29293400  0.38910100  1
  O  O10  1  0.38910100  0.54090800  0.29293400  1
  O  O11  1  0.29293400  0.38910100  0.54090800  1
  O  O12  1  0.01472100  0.01472100  0.01472100  1
  O  O13  1  0.98527900  0.51472100  0.48527900  1
  O  O14  1  0.51472100  0.48527900  0.98527900  1
  O  O15  1  0.48527900  0.98527900  0.51472100  1
  F  F0  1  0.24027000  0.74027000  0.75973000  1
  F  F1  1  0.74027000  0.75973000  0.24027000  1
  F  F2  1  0.75973000  0.24027000  0.74027000  1
  F  F3  1  0.25973000  0.25973000  0.25973000  1
loop_
_geom_bond_atom_site_label_1
_geom_bond_atom_site_label_2
_geom_bond_distance
_geom_bond_site_symmetry_2
B0 F0 1.414243 1_555
B0 O0 1.473523 1_455
B0 O1 1.473523 1_555
B0 O2 1.473523 1_556
B1 F1 1.414243 1_555
B1 O5 1.473523 1_554
B1 O3 1.473523 1_555
B1 O4 1.473523 1_565
B2 F2 1.414243 1_555
B2 O7 1.473523 1_545
B2 O8 1.473523 1_555
B2 O6 1.473523 1_655
B3 F3 1.414243 1_555
B3 O9 1.473523 1_555
B3 O10 1.473523 1_555
B3 O11 1.473523 1_555
H0 N0 1.038510 1_555
H1 N1 1.038510 1_555
H2 N2 1.038510 1_555
H3 N1 1.038510 1_555
H4 N0 1.038510 1_555
H5 N3 1.038510 1_555
H6 N3 1.038510 1_555
H7 N2 1.038510 1_555
H8 N1 1.038510 1_555
H9 N2 1.038510 1_555
H10 N3 1.038510 1_555
H11 N0 1.038510 1_555
H12 N0 1.026560 1_555
H13 N1 1.026560 1_555
H14 N2 1.026560 1_555
H15 N3 1.026560 1_555
O0 P0 1.565940 1_555
O1 P1 1.565940 1_555
O2 P2 1.565940 1_555
O3 P2 1.565940 1_555
O4 P3 1.565940 1_555
O5 P0 1.565940 1_555
O6 P1 1.565940 1_555
O7 P0 1.565940 1_555
O8 P3 1.565940 1_555
O9 P3 1.565940 1_555
O10 P2 1.565940 1_555
O11 P1 1.565940 1_555
O12 P0 1.511404 1_444
O13 P1 1.511404 1_655
O14 P2 1.511404 1_556
O15 P3 1.511404 1_565
