# generated using pymatgen
data_Nb7P4
_symmetry_space_group_name_H-M   'P 1'
_cell_length_a   3.46201112
_cell_length_b   7.71984924
_cell_length_c   13.93856837
_cell_angle_alpha   104.43110884
_cell_angle_beta   90.00000000
_cell_angle_gamma   102.95747213
_symmetry_Int_Tables_number   1
_chemical_formula_structural   Nb7P4
_chemical_formula_sum   'Nb14 P8'
_cell_volume   350.96788421
_cell_formula_units_Z   2
loop_
 _symmetry_equiv_pos_site_id
 _symmetry_equiv_pos_as_xyz
  1  'x, y, z'
loop_
 _atom_site_type_symbol
 _atom_site_label
 _atom_site_symmetry_multiplicity
 _atom_site_fract_x
 _atom_site_fract_y
 _atom_site_fract_z
 _atom_site_occupancy
  Nb  Nb0  1  0.33762152  0.67524503  0.02751261  1
  Nb  Nb1  1  0.66237848  0.32475497  0.97248739  1
  Nb  Nb2  1  0.00380459  0.00760919  0.66559273  1
  Nb  Nb3  1  0.99619541  0.99239081  0.33440727  1
  Nb  Nb4  1  0.17447710  0.34895519  0.54066934  1
  Nb  Nb5  1  0.82552290  0.65104481  0.45933066  1
  Nb  Nb6  1  0.79021742  0.58043584  0.19970412  1
  Nb  Nb7  1  0.20978258  0.41956416  0.80029588  1
  Nb  Nb8  1  0.80495318  0.60990536  0.68786295  1
  Nb  Nb9  1  0.19504682  0.39009464  0.31213705  1
  Nb  Nb10  1  0.56813481  0.13626961  0.17230186  1
  Nb  Nb11  1  0.43186519  0.86373039  0.82769814  1
  Nb  Nb12  1  0.50000000  0.00000000  0.50000000  1
  Nb  Nb13  1  0.00000000  0.00000000  0.00000000  1
  P  P0  1  0.93569123  0.87138146  0.15047151  1
  P  P1  1  0.06430877  0.12861854  0.84952849  1
  P  P2  1  0.63071448  0.26142897  0.66433509  1
  P  P3  1  0.36928552  0.73857103  0.33566491  1
  P  P4  1  0.62620859  0.25241517  0.39789005  1
  P  P5  1  0.37379141  0.74758483  0.60210995  1
  P  P6  1  0.82599193  0.65198187  0.88764539  1
  P  P7  1  0.17400807  0.34801813  0.11235461  1
loop_
_geom_bond_atom_site_label_1
_geom_bond_atom_site_label_2
_geom_bond_distance
_geom_bond_site_symmetry_2
Nb0 P6 2.579383 1_454
Nb0 P6 2.579393 1_554
Nb0 P0 2.611058 1_455
Nb0 P0 2.611065 1_555
Nb0 P7 2.991326 1_555
Nb1 P7 2.579383 1_656
Nb1 P7 2.579393 1_556
Nb1 P1 2.611058 1_655
Nb1 P1 2.611065 1_555
Nb1 P6 2.991326 1_555
Nb2 P1 2.491610 1_555
Nb2 P2 2.580739 1_455
Nb2 P2 2.580739 1_555
Nb2 P5 2.592465 1_545
Nb2 P5 2.592470 1_445
Nb3 P0 2.491610 1_555
Nb3 P3 2.580739 1_655
Nb3 P3 2.580739 1_555
Nb3 P4 2.592465 1_565
Nb3 P4 2.592470 1_665
Nb4 P4 2.597162 1_455
Nb4 P4 2.597169 1_555
Nb4 P2 2.642295 1_455
Nb4 P2 2.642297 1_555
Nb4 P5 2.900661 1_555
Nb5 P5 2.597162 1_655
Nb5 P5 2.597169 1_555
Nb5 P3 2.642295 1_655
Nb5 P3 2.642297 1_555
Nb5 P4 2.900661 1_555
Nb6 P0 2.455663 1_555
Nb6 P7 2.539156 1_655
Nb6 P7 2.539159 1_555
Nb6 P3 2.617255 1_555
Nb6 P3 2.617258 1_655
Nb7 P1 2.455663 1_555
Nb7 P6 2.539156 1_455
Nb7 P6 2.539159 1_555
Nb7 P2 2.617255 1_555
Nb7 P2 2.617258 1_455
Nb8 P5 2.476114 1_655
Nb8 P5 2.476121 1_555
Nb8 P2 2.557547 1_555
Nb8 P6 2.720994 1_555
Nb9 P4 2.476114 1_455
Nb9 P4 2.476121 1_555
Nb9 P3 2.557547 1_555
Nb9 P7 2.720994 1_555
Nb10 P0 2.598112 1_445
Nb10 P0 2.598114 1_545
Nb10 P7 2.629287 1_655
Nb10 P7 2.629291 1_555
Nb10 P4 3.040621 1_555
Nb11 P1 2.598112 1_665
Nb11 P1 2.598114 1_565
Nb11 P6 2.629287 1_455
Nb11 P6 2.629291 1_555
Nb11 P5 3.040621 1_555
Nb12 P2 2.609782 1_555
Nb12 P3 2.609782 1_545
Nb12 P4 2.648432 1_555
Nb12 P5 2.648432 1_545
Nb13 P0 2.524521 1_445
Nb13 P1 2.524521 1_554
Nb13 P7 2.685253 1_555
Nb13 P6 2.685253 1_444
