# generated using pymatgen
data_Ce2CuTe2O
_symmetry_space_group_name_H-M   'P 1'
_cell_length_a   3.51566000
_cell_length_b   3.51566000
_cell_length_c   15.07576200
_cell_angle_alpha   90.00000000
_cell_angle_beta   90.00000000
_cell_angle_gamma   90.00000000
_symmetry_Int_Tables_number   1
_chemical_formula_structural   Ce2CuTe2O
_chemical_formula_sum   'Ce2 Cu1 Te2 O1'
_cell_volume   186.33438664
_cell_formula_units_Z   1
loop_
 _symmetry_equiv_pos_site_id
 _symmetry_equiv_pos_as_xyz
  1  'x, y, z'
loop_
 _atom_site_type_symbol
 _atom_site_label
 _atom_site_symmetry_multiplicity
 _atom_site_fract_x
 _atom_site_fract_y
 _atom_site_fract_z
 _atom_site_occupancy
  Ce  Ce0  1  0.50000000  0.50000000  0.63709200  1
  Ce  Ce1  1  0.50000000  0.50000000  0.36290800  1
  Cu  Cu0  1  0.50000000  0.50000000  0.00000000  1
  Te  Te0  1  0.50000000  0.50000000  0.16088300  1
  Te  Te1  1  0.50000000  0.50000000  0.83911700  1
  O  O0  1  0.50000000  0.50000000  0.50000000  1
loop_
_geom_bond_atom_site_label_1
_geom_bond_atom_site_label_2
_geom_bond_distance
_geom_bond_site_symmetry_2
Ce0 O0 2.066766 1_555
Ce0 Te1 3.045681 1_555
Ce1 O0 2.066766 1_555
Ce1 Te0 3.045681 1_555
Cu0 Te0 2.425434 1_555
Cu0 Te1 2.425434 1_554
