# generated using pymatgen
data_CoN6(ClO)2
_symmetry_space_group_name_H-M   'P 1'
_cell_length_a   9.38209235
_cell_length_b   8.38224087
_cell_length_c   11.80164300
_cell_angle_alpha   90.00000000
_cell_angle_beta   90.00000000
_cell_angle_gamma   79.99211509
_symmetry_Int_Tables_number   1
_chemical_formula_structural   CoN6(ClO)2
_chemical_formula_sum   'Co4 N24 Cl8 O8'
_cell_volume   913.99375665
_cell_formula_units_Z   4
loop_
 _symmetry_equiv_pos_site_id
 _symmetry_equiv_pos_as_xyz
  1  'x, y, z'
loop_
 _atom_site_type_symbol
 _atom_site_label
 _atom_site_symmetry_multiplicity
 _atom_site_fract_x
 _atom_site_fract_y
 _atom_site_fract_z
 _atom_site_occupancy
  Co  Co0  1  0.15735900  0.21481300  0.64360400  1
  Co  Co1  1  0.65735900  0.71481300  0.85639600  1
  Co  Co2  1  0.84264100  0.78518700  0.35639600  1
  Co  Co3  1  0.34264100  0.28518700  0.14360400  1
  N  N0  1  0.69409400  0.23160500  0.43540100  1
  N  N1  1  0.19409400  0.73160500  0.06459900  1
  N  N2  1  0.30590600  0.76839500  0.56459900  1
  N  N3  1  0.80590600  0.26839500  0.93540100  1
  N  N4  1  0.52244300  0.33970200  0.65300600  1
  N  N5  1  0.02244300  0.83970200  0.84699400  1
  N  N6  1  0.47755700  0.66029800  0.34699400  1
  N  N7  1  0.97755700  0.16029800  0.15300600  1
  N  N8  1  0.04376100  0.26319700  0.75753800  1
  N  N9  1  0.54376100  0.76319700  0.74246200  1
  N  N10  1  0.95623900  0.73680300  0.24246200  1
  N  N11  1  0.45623900  0.23680300  0.25753800  1
  N  N12  1  0.09708300  0.22893500  0.49206000  1
  N  N13  1  0.59708300  0.72893500  0.00794000  1
  N  N14  1  0.90291700  0.77106500  0.50794000  1
  N  N15  1  0.40291700  0.27106500  0.99206000  1
  N  N16  1  0.41213700  0.40784700  0.63463600  1
  N  N17  1  0.91213700  0.90784700  0.86536400  1
  N  N18  1  0.58786300  0.59215300  0.36536400  1
  N  N19  1  0.08786300  0.09215300  0.13463600  1
  N  N20  1  0.30224300  0.09458300  0.65553800  1
  N  N21  1  0.80224300  0.59458300  0.84446200  1
  N  N22  1  0.69775700  0.90541700  0.34446200  1
  N  N23  1  0.19775700  0.40541700  0.15553800  1
  Cl  Cl0  1  0.33856100  0.44266900  0.91132600  1
  Cl  Cl1  1  0.83856100  0.94266900  0.58867400  1
  Cl  Cl2  1  0.66143900  0.55733100  0.08867400  1
  Cl  Cl3  1  0.16143900  0.05733100  0.41132600  1
  Cl  Cl4  1  0.35649400  0.09886800  0.92576300  1
  Cl  Cl5  1  0.85649400  0.59886800  0.57423700  1
  Cl  Cl6  1  0.64350600  0.90113200  0.07423700  1
  Cl  Cl7  1  0.14350600  0.40113200  0.42576300  1
  O  O0  1  0.77787400  0.23344400  0.36522500  1
  O  O1  1  0.27787400  0.73344400  0.13477500  1
  O  O2  1  0.22212600  0.76655600  0.63477500  1
  O  O3  1  0.72212600  0.26655600  0.86522500  1
  O  O4  1  0.46562600  0.26153400  0.35678600  1
  O  O5  1  0.96562600  0.76153400  0.14321400  1
  O  O6  1  0.53437400  0.73846600  0.64321400  1
  O  O7  1  0.03437400  0.23846600  0.85678600  1
loop_
_geom_bond_atom_site_label_1
_geom_bond_atom_site_label_2
_geom_bond_distance
_geom_bond_site_symmetry_2
Co0 N20 1.551480 1_555
Co0 N8 1.719919 1_555
Co0 N12 1.873278 1_555
Co1 N21 1.551480 1_555
Co1 N9 1.719919 1_555
Co1 N13 1.873278 1_556
Co2 N22 1.551480 1_555
Co2 N10 1.719919 1_555
Co2 N14 1.873278 1_555
Co3 N23 1.551480 1_555
Co3 N11 1.719919 1_555
Co3 N15 1.873278 1_554
N0 O0 1.143764 1_555
N1 O1 1.143764 1_555
N2 O2 1.143764 1_555
N3 O3 1.143764 1_555
N8 O7 1.195406 1_555
N9 O6 1.195406 1_555
N10 O5 1.195406 1_555
N11 O4 1.195406 1_555
N16 N4 1.113031 1_555
N17 N5 1.113031 1_655
N18 N6 1.113031 1_555
N19 N7 1.113031 1_455
Cl0 N15 1.743441 1_555
Cl1 N14 1.743441 1_555
Cl2 N13 1.743441 1_555
Cl3 N12 1.743441 1_555
Cl4 N15 1.761751 1_555
Cl5 N14 1.761751 1_555
Cl6 N13 1.761751 1_555
Cl7 N12 1.761751 1_555
