# generated using pymatgen
data_NaTi2O4
_symmetry_space_group_name_H-M   'P 1'
_cell_length_a   10.59710000
_cell_length_b   7.67126400
_cell_length_c   9.27361500
_cell_angle_alpha   90.00000000
_cell_angle_beta   90.00000000
_cell_angle_gamma   90.00000000
_symmetry_Int_Tables_number   1
_chemical_formula_structural   NaTi2O4
_chemical_formula_sum   'Na4 Ti8 O16'
_cell_volume   753.88139132
_cell_formula_units_Z   4
loop_
 _symmetry_equiv_pos_site_id
 _symmetry_equiv_pos_as_xyz
  1  'x, y, z'
loop_
 _atom_site_type_symbol
 _atom_site_label
 _atom_site_symmetry_multiplicity
 _atom_site_fract_x
 _atom_site_fract_y
 _atom_site_fract_z
 _atom_site_occupancy
  Na  Na0  1  0.25000000  0.19702100  0.43957300  1
  Na  Na1  1  0.25000000  0.69702100  0.06042700  1
  Na  Na2  1  0.75000000  0.30297900  0.93957300  1
  Na  Na3  1  0.75000000  0.80297900  0.56042700  1
  Ti  Ti0  1  0.75000000  0.30690800  0.51878200  1
  Ti  Ti1  1  0.75000000  0.54561000  0.24636300  1
  Ti  Ti2  1  0.25000000  0.19309200  0.01878200  1
  Ti  Ti3  1  0.25000000  0.95439000  0.74636300  1
  Ti  Ti4  1  0.25000000  0.45439000  0.75363700  1
  Ti  Ti5  1  0.25000000  0.69309200  0.48121800  1
  Ti  Ti6  1  0.75000000  0.04561000  0.25363700  1
  Ti  Ti7  1  0.75000000  0.80690800  0.98121800  1
  O  O0  1  0.75000000  0.81394100  0.80036400  1
  O  O1  1  0.75000000  0.07288600  0.46030900  1
  O  O2  1  0.75000000  0.30051300  0.24639800  1
  O  O3  1  0.75000000  0.53649200  0.45469700  1
  O  O4  1  0.25000000  0.92711400  0.53969100  1
  O  O5  1  0.25000000  0.19948700  0.74639800  1
  O  O6  1  0.25000000  0.68605900  0.30036400  1
  O  O7  1  0.25000000  0.46350800  0.54530300  1
  O  O8  1  0.25000000  0.69948700  0.75360200  1
  O  O9  1  0.25000000  0.18605900  0.19963600  1
  O  O10  1  0.25000000  0.96350800  0.95469700  1
  O  O11  1  0.25000000  0.42711400  0.96030900  1
  O  O12  1  0.75000000  0.31394100  0.69963600  1
  O  O13  1  0.75000000  0.57288600  0.03969100  1
  O  O14  1  0.75000000  0.80051300  0.25360200  1
  O  O15  1  0.75000000  0.03649200  0.04530300  1
loop_
_geom_bond_atom_site_label_1
_geom_bond_atom_site_label_2
_geom_bond_distance
_geom_bond_site_symmetry_2
Na0 O9 2.226672 1_555
Na0 O7 2.267269 1_555
Na0 O4 2.269166 1_545
Na0 O5 2.845440 1_555
Na1 O6 2.226672 1_555
Na1 O10 2.267269 1_554
Na1 O11 2.269166 1_554
Na1 O8 2.845440 1_554
Na2 O12 2.226672 1_555
Na2 O15 2.267269 1_556
Na2 O13 2.269166 1_556
Na2 O2 2.845440 1_556
Na3 O0 2.226672 1_555
Na3 O3 2.267269 1_555
Na3 O1 2.269166 1_565
Na3 O14 2.845440 1_555
O0 Ti7 1.678038 1_555
O1 Ti0 1.875352 1_555
O1 Ti6 1.927985 1_555
O2 Ti1 1.880204 1_555
O2 Ti6 1.956580 1_555
O2 Ti0 2.526461 1_555
O3 Ti0 1.858767 1_555
O3 Ti1 1.933275 1_555
O4 Ti5 1.875352 1_555
O4 Ti3 1.927985 1_555
O5 Ti3 1.880204 1_545
O5 Ti4 1.956580 1_555
O5 Ti2 2.526461 1_556
O6 Ti5 1.678038 1_555
O7 Ti5 1.858767 1_555
O7 Ti4 1.933275 1_555
O8 Ti4 1.880204 1_555
O8 Ti3 1.956580 1_555
O8 Ti5 2.526461 1_555
O9 Ti2 1.678038 1_555
O10 Ti2 1.858767 1_566
O10 Ti3 1.933275 1_555
O11 Ti2 1.875352 1_556
O11 Ti4 1.927985 1_555
O12 Ti0 1.678038 1_555
O13 Ti7 1.875352 1_554
O13 Ti1 1.927985 1_555
O14 Ti6 1.880204 1_565
O14 Ti1 1.956580 1_555
O14 Ti7 2.526461 1_554
O15 Ti7 1.858767 1_544
O15 Ti6 1.933275 1_555
