# generated using pymatgen
data_MgCr3(SO4)6
_symmetry_space_group_name_H-M   'P 1'
_cell_length_a   8.71518429
_cell_length_b   8.71543602
_cell_length_c   8.71787148
_cell_angle_alpha   57.67529910
_cell_angle_beta   57.67444415
_cell_angle_gamma   57.67928026
_symmetry_Int_Tables_number   1
_chemical_formula_structural   MgCr3(SO4)6
_chemical_formula_sum   'Mg1 Cr3 S6 O24'
_cell_volume   443.23134374
_cell_formula_units_Z   1
loop_
 _symmetry_equiv_pos_site_id
 _symmetry_equiv_pos_as_xyz
  1  'x, y, z'
loop_
 _atom_site_type_symbol
 _atom_site_label
 _atom_site_symmetry_multiplicity
 _atom_site_fract_x
 _atom_site_fract_y
 _atom_site_fract_z
 _atom_site_occupancy
  Mg  Mg0  1  0.46707900  0.46705000  0.46623100  1
  Cr  Cr0  1  0.15173200  0.15181200  0.15153900  1
  Cr  Cr1  1  0.64339500  0.64337300  0.64314800  1
  Cr  Cr2  1  0.85291400  0.85288200  0.85270800  1
  S  S0  1  0.03877500  0.75909000  0.46055800  1
  S  S1  1  0.46084900  0.03897800  0.75877900  1
  S  S2  1  0.75909400  0.46079100  0.03846500  1
  S  S3  1  0.25826300  0.54253800  0.95189100  1
  S  S4  1  0.54244500  0.95163000  0.25822000  1
  S  S5  1  0.95194100  0.25830300  0.54225600  1
  O  O0  1  0.08846300  0.30875800  0.53411500  1
  O  O1  1  0.30845400  0.53484900  0.08830500  1
  O  O2  1  0.00416800  0.96412300  0.32915500  1
  O  O3  1  0.53470000  0.08783700  0.30874900  1
  O  O4  1  0.01595800  0.72925700  0.65740900  1
  O  O5  1  0.23924200  0.63793600  0.38378200  1
  O  O6  1  0.38416300  0.23939700  0.63747200  1
  O  O7  1  0.32935300  0.00448500  0.96371200  1
  O  O8  1  0.63785800  0.38390200  0.23883200  1
  O  O9  1  0.05180400  0.67652000  0.97291600  1
  O  O10  1  0.28007000  0.34866400  0.97551300  1
  O  O11  1  0.34866600  0.97537200  0.27973500  1
  O  O12  1  0.65769300  0.01627700  0.72902200  1
  O  O13  1  0.72901600  0.65775800  0.01574700  1
  O  O14  1  0.96414700  0.32955900  0.00393100  1
  O  O15  1  0.38567500  0.61372400  0.74206700  1
  O  O16  1  0.67667100  0.97276900  0.05189400  1
  O  O17  1  0.61335300  0.74167600  0.38570300  1
  O  O18  1  0.74205800  0.38570400  0.61348800  1
  O  O19  1  0.97529600  0.27987600  0.34864300  1
  O  O20  1  0.48284100  0.89530400  0.70008400  1
  O  O21  1  0.97312300  0.05190200  0.67646600  1
  O  O22  1  0.70042300  0.48259600  0.89489300  1
  O  O23  1  0.89527000  0.70026400  0.48238600  1
loop_
_geom_bond_atom_site_label_1
_geom_bond_atom_site_label_2
_geom_bond_distance
_geom_bond_site_symmetry_2
Mg0 O5 1.974032 1_555
Mg0 O8 1.974316 1_555
Mg0 O6 1.974652 1_555
Cr0 O10 1.987492 1_554
Cr0 O11 1.987636 1_545
Cr0 O19 1.988197 1_455
Cr0 O14 2.034282 1_455
Cr0 O2 2.034317 1_545
Cr0 O7 2.034327 1_554
Cr1 O23 2.039413 1_555
Cr1 O22 2.039645 1_555
Cr1 O20 2.040293 1_555
Cr1 O15 2.041115 1_555
Cr1 O18 2.041507 1_555
Cr1 O17 2.042541 1_555
Cr2 O12 1.953042 1_565
Cr2 O13 1.953315 1_556
Cr2 O4 1.953502 1_655
Cr2 O9 1.958674 1_655
Cr2 O16 1.959110 1_556
Cr2 O21 1.959206 1_565
O0 S5 1.431730 1_455
O1 S3 1.431741 1_554
O2 S0 1.483396 1_555
O3 S4 1.431631 1_545
O4 S0 1.505111 1_555
O5 S0 1.465563 1_555
O6 S1 1.465676 1_555
O7 S1 1.483223 1_555
O8 S2 1.465655 1_555
O9 S3 1.504718 1_555
O10 S3 1.503311 1_555
O11 S4 1.503055 1_555
O12 S1 1.505153 1_555
O13 S2 1.505184 1_555
O14 S2 1.483120 1_555
O15 S3 1.521415 1_555
O16 S4 1.504508 1_555
O17 S4 1.521794 1_555
O18 S5 1.521568 1_555
O19 S5 1.503288 1_555
O20 S1 1.479943 1_565
O21 S5 1.504665 1_555
O22 S2 1.479982 1_556
O23 S0 1.479880 1_655
