# generated using pymatgen
data_TbFeNi4
_symmetry_space_group_name_H-M   'P 1'
_cell_length_a   4.94319350
_cell_length_b   4.94319350
_cell_length_c   3.92482600
_cell_angle_alpha   90.00000000
_cell_angle_beta   90.00000000
_cell_angle_gamma   119.99999328
_symmetry_Int_Tables_number   1
_chemical_formula_structural   TbFeNi4
_chemical_formula_sum   'Tb1 Fe1 Ni4'
_cell_volume   83.05509721
_cell_formula_units_Z   1
loop_
 _symmetry_equiv_pos_site_id
 _symmetry_equiv_pos_as_xyz
  1  'x, y, z'
loop_
 _atom_site_type_symbol
 _atom_site_label
 _atom_site_symmetry_multiplicity
 _atom_site_fract_x
 _atom_site_fract_y
 _atom_site_fract_z
 _atom_site_occupancy
  Tb  Tb0  1  0.66666700  0.33333300  0.00000000  1
  Fe  Fe0  1  0.00000000  0.00000000  0.00000000  1
  Ni  Ni0  1  0.33333300  0.66666700  0.00000000  1
  Ni  Ni1  1  0.66591800  0.83295900  0.50000000  1
  Ni  Ni2  1  0.16704100  0.83295900  0.50000000  1
  Ni  Ni3  1  0.16704100  0.33408200  0.50000000  1
loop_
_geom_bond_atom_site_label_1
_geom_bond_atom_site_label_2
_geom_bond_distance
_geom_bond_site_symmetry_2
Fe0 Ni2 2.428268 1_544
Fe0 Ni2 2.428268 1_545
Fe0 Ni3 2.428268 1_555
Fe0 Ni1 2.428268 1_444
Fe0 Ni1 2.428268 1_445
Fe0 Ni3 2.428268 1_554
Fe0 Ni0 2.853951 1_545
Fe0 Tb0 2.853951 1_455
Fe0 Ni0 2.853956 1_445
Fe0 Tb0 2.853956 1_555
Fe0 Tb0 2.853956 1_445
Fe0 Ni0 2.853956 1_555
Ni0 Ni2 2.424497 1_555
Ni0 Ni2 2.424497 1_554
Ni0 Ni1 2.424499 1_554
Ni0 Ni3 2.424499 1_555
Ni0 Ni1 2.424499 1_555
Ni0 Ni3 2.424499 1_554
Ni0 Tb0 2.853951 1_455
Ni0 Tb0 2.853951 1_565
Ni0 Tb0 2.853960 1_555
Ni1 Ni2 2.466046 1_555
Ni1 Ni3 2.466046 1_555
Ni1 Ni2 2.477148 1_655
Ni1 Ni3 2.477148 1_665
Ni1 Tb0 3.155924 1_565
Ni1 Tb0 3.155924 1_566
Ni1 Tb0 3.155927 1_555
Ni1 Tb0 3.155927 1_556
Ni2 Ni3 2.466046 1_555
Ni2 Ni3 2.477148 1_565
Ni2 Tb0 3.155926 1_456
Ni2 Tb0 3.155926 1_455
Ni2 Tb0 3.155926 1_565
Ni2 Tb0 3.155926 1_566
Ni3 Tb0 3.155924 1_455
Ni3 Tb0 3.155924 1_456
Ni3 Tb0 3.155927 1_555
Ni3 Tb0 3.155927 1_556
