# generated using pymatgen
data_LiNbWO6
_symmetry_space_group_name_H-M   'P 1'
_cell_length_a   7.38963467
_cell_length_b   7.38963467
_cell_length_c   7.38963467
_cell_angle_alpha   120.47752367
_cell_angle_beta   119.66039595
_cell_angle_gamma   89.88205927
_symmetry_Int_Tables_number   1
_chemical_formula_structural   LiNbWO6
_chemical_formula_sum   'Li2 Nb2 W2 O12'
_cell_volume   285.01802237
_cell_formula_units_Z   2
loop_
 _symmetry_equiv_pos_site_id
 _symmetry_equiv_pos_as_xyz
  1  'x, y, z'
loop_
 _atom_site_type_symbol
 _atom_site_label
 _atom_site_symmetry_multiplicity
 _atom_site_fract_x
 _atom_site_fract_y
 _atom_site_fract_z
 _atom_site_occupancy
  Li  Li0  1  0.00000000  0.50000000  0.50000000  1
  Li  Li1  1  0.50000000  0.50000000  0.00000000  1
  Nb  Nb0  1  0.00000000  0.50000000  0.00000000  1
  Nb  Nb1  1  0.00000000  0.00000000  0.50000000  1
  W  W0  1  0.50000000  0.00000000  0.50000000  1
  W  W1  1  0.00000000  0.00000000  0.00000000  1
  O  O0  1  0.31929700  0.06733600  0.63039200  1
  O  O1  1  0.31929700  0.68890500  0.25196100  1
  O  O2  1  0.30574100  0.05574100  0.25000000  1
  O  O3  1  0.93694400  0.68890500  0.86960800  1
  O  O4  1  0.93694400  0.06733600  0.24803900  1
  O  O5  1  0.92214200  0.67214200  0.25000000  1
  O  O6  1  0.68070300  0.93266400  0.36960800  1
  O  O7  1  0.68070300  0.31109500  0.74803900  1
  O  O8  1  0.69425900  0.94425900  0.75000000  1
  O  O9  1  0.06305600  0.31109500  0.13039200  1
  O  O10  1  0.06305600  0.93266400  0.75196100  1
  O  O11  1  0.07785800  0.32785800  0.75000000  1
loop_
_geom_bond_atom_site_label_1
_geom_bond_atom_site_label_2
_geom_bond_distance
_geom_bond_site_symmetry_2
Li0 O5 2.586694 1_455
Li0 O11 2.586694 1_555
Li0 O3 2.648566 1_455
Li0 O10 2.648566 1_555
Li0 O9 2.648566 1_555
Li0 O4 2.648566 1_455
Li1 O5 2.586694 1_555
Li1 O11 2.586694 1_554
Li1 O6 2.648566 1_555
Li1 O0 2.648566 1_554
Li1 O7 2.648566 1_554
Li1 O1 2.648566 1_555
Nb0 O9 2.002893 1_555
Nb0 O1 2.002893 1_555
Nb0 O7 2.002893 1_454
Nb0 O3 2.002893 1_454
Nb0 O11 2.006781 1_554
Nb0 O5 2.006781 1_455
Nb1 O6 2.002893 1_445
Nb1 O0 2.002893 1_555
Nb1 O10 2.002893 1_545
Nb1 O4 2.002893 1_455
Nb1 O5 2.006781 1_445
Nb1 O11 2.006781 1_555
O0 W0 1.934802 1_555
O1 W0 1.934802 1_565
O2 W1 1.946291 1_555
O2 W0 1.946291 1_555
O3 W1 1.934802 1_666
O4 W1 1.934802 1_655
O6 W0 1.934802 1_565
O7 W0 1.934802 1_555
O8 W0 1.946291 1_565
O8 W1 1.946291 1_666
O9 W1 1.934802 1_555
O10 W1 1.934802 1_566
