# generated using pymatgen
data_GdBe13
_symmetry_space_group_name_H-M   'P 1'
_cell_length_a   7.23641954
_cell_length_b   7.23641954
_cell_length_c   7.23642171
_cell_angle_alpha   60.00240547
_cell_angle_beta   60.00240547
_cell_angle_gamma   60.00240877
_symmetry_Int_Tables_number   1
_chemical_formula_structural   GdBe13
_chemical_formula_sum   'Gd2 Be26'
_cell_volume   267.96621457
_cell_formula_units_Z   2
loop_
 _symmetry_equiv_pos_site_id
 _symmetry_equiv_pos_as_xyz
  1  'x, y, z'
loop_
 _atom_site_type_symbol
 _atom_site_label
 _atom_site_symmetry_multiplicity
 _atom_site_fract_x
 _atom_site_fract_y
 _atom_site_fract_z
 _atom_site_occupancy
  Gd  Gd0  1  0.75000000  0.75000000  0.75000000  1
  Gd  Gd1  1  0.25000000  0.25000000  0.25000000  1
  Be  Be0  1  0.50000000  0.50000000  0.50000000  1
  Be  Be1  1  0.00000000  0.00000000  -0.00000000  1
  Be  Be2  1  0.78951138  0.43743013  0.21048523  1
  Be  Be3  1  0.21048862  0.56256987  0.78951477  1
  Be  Be4  1  0.56256148  0.21047316  0.43742435  1
  Be  Be5  1  0.43743852  0.78952684  0.56257565  1
  Be  Be6  1  0.28951477  0.06256987  0.71048862  1
  Be  Be7  1  0.71048523  0.93743013  0.28951138  1
  Be  Be8  1  0.93742335  0.71047316  0.06256148  1
  Be  Be9  1  0.06257665  0.28952684  0.93743852  1
  Be  Be10  1  0.43743013  0.21048523  0.78951138  1
  Be  Be11  1  0.56256987  0.78951477  0.21048862  1
  Be  Be12  1  0.21047316  0.43742335  0.56256148  1
  Be  Be13  1  0.78952684  0.56257665  0.43743852  1
  Be  Be14  1  0.06256987  0.71048862  0.28951477  1
  Be  Be15  1  0.93743013  0.28951138  0.71048523  1
  Be  Be16  1  0.71047316  0.06256148  0.93742435  1
  Be  Be17  1  0.28952684  0.93743852  0.06257565  1
  Be  Be18  1  0.21048523  0.78951138  0.43743013  1
  Be  Be19  1  0.78951477  0.21048862  0.56256987  1
  Be  Be20  1  0.43742435  0.56256148  0.21047316  1
  Be  Be21  1  0.56257565  0.43743852  0.78952684  1
  Be  Be22  1  0.71048862  0.28951477  0.06256987  1
  Be  Be23  1  0.28951138  0.71048523  0.93743013  1
  Be  Be24  1  0.06256148  0.93742435  0.71047316  1
  Be  Be25  1  0.93743852  0.06257565  0.28952684  1
loop_
_geom_bond_atom_site_label_1
_geom_bond_atom_site_label_2
_geom_bond_distance
_geom_bond_site_symmetry_2
Be0 Be18 2.143485 1_555
Be0 Be19 2.143485 1_555
Be0 Be11 2.143485 1_555
Be0 Be10 2.143485 1_555
Be0 Be3 2.143485 1_555
Be0 Be2 2.143485 1_555
Be0 Be5 2.143557 1_555
Be0 Be4 2.143557 1_555
Be0 Be20 2.143557 1_555
Be0 Be21 2.143557 1_555
Be0 Be13 2.143561 1_555
Be0 Be12 2.143561 1_555
Be1 Be22 2.143485 1_455
Be1 Be23 2.143485 1_544
Be1 Be6 2.143485 1_554
Be1 Be7 2.143485 1_445
Be1 Be14 2.143485 1_545
Be1 Be15 2.143485 1_454
Be1 Be16 2.143557 1_454
Be1 Be17 2.143557 1_545
Be1 Be24 2.143557 1_544
Be1 Be25 2.143557 1_455
Be1 Be8 2.143561 1_445
Be1 Be9 2.143561 1_554
Be2 Be22 2.233412 1_555
Be2 Be25 2.233504 1_555
Be2 Be20 2.237118 1_555
Be2 Be8 2.247145 1_555
Be2 Be9 2.247228 1_654
Be2 Be4 2.322648 1_555
Be2 Gd1 3.011839 1_655
Be2 Gd0 3.011849 1_554
Be3 Be9 2.247145 1_555
Be3 Be8 2.247228 1_456
Be3 Be5 2.322648 1_555
Be3 Gd0 3.011839 1_455
Be3 Gd1 3.011849 1_556
Be4 Be7 2.247150 1_545
Be4 Be6 2.247226 1_555
Be4 Gd1 3.011611 1_555
Be4 Gd0 3.011867 1_545
Be5 Be6 2.247150 1_565
Be5 Be7 2.247226 1_555
Be5 Gd0 3.011611 1_555
Be5 Gd1 3.011867 1_565
Be6 Be9 2.322648 1_555
Be6 Gd1 3.011840 1_555
Be6 Gd0 3.011849 1_545
Be7 Be8 2.322648 1_555
Be7 Gd0 3.011840 1_555
Be7 Gd1 3.011849 1_565
Be8 Gd0 3.011605 1_554
Be8 Gd1 3.011870 1_655
Be9 Gd1 3.011605 1_556
Be9 Gd0 3.011870 1_455
Be10 Be6 2.233412 1_555
Be10 Be9 2.233498 1_555
Be10 Be19 2.237092 1_555
Be10 Be3 2.237092 1_555
Be10 Be4 2.237119 1_555
Be10 Be21 2.237151 1_555
Be10 Be16 2.247150 1_555
Be10 Be17 2.247226 1_546
Be10 Be12 2.322648 1_555
Be10 Gd1 3.011840 1_556
Be10 Gd0 3.011849 1_545
Be11 Be7 2.233412 1_555
Be11 Be8 2.233498 1_555
Be11 Be18 2.237092 1_555
Be11 Be2 2.237092 1_555
Be11 Be5 2.237119 1_555
Be11 Be20 2.237151 1_555
Be11 Be17 2.247150 1_555
Be11 Be16 2.247226 1_564
Be11 Be13 2.322648 1_555
Be11 Gd0 3.011840 1_554
Be11 Gd1 3.011849 1_565
Be12 Be6 2.233498 1_555
Be12 Be9 2.233622 1_555
Be12 Be18 2.237125 1_555
Be12 Be4 2.237129 1_555
Be12 Be20 2.237134 1_555
Be12 Be3 2.237157 1_555
Be12 Be15 2.247145 1_455
Be12 Be14 2.247228 1_555
Be12 Gd1 3.011605 1_555
Be12 Gd0 3.011870 1_455
Be13 Be7 2.233498 1_555
Be13 Be8 2.233622 1_555
Be13 Be19 2.237125 1_555
Be13 Be5 2.237129 1_555
Be13 Be21 2.237134 1_555
Be13 Be2 2.237157 1_555
Be13 Be14 2.247145 1_655
Be13 Be15 2.247228 1_555
Be13 Gd0 3.011605 1_555
Be13 Gd1 3.011870 1_655
Be14 Be18 2.233412 1_555
Be14 Be20 2.233504 1_555
Be14 Be7 2.237092 1_455
Be14 Be23 2.237092 1_554
Be14 Be25 2.237118 1_465
Be14 Be8 2.237157 1_455
Be14 Be17 2.322648 1_555
Be14 Gd1 3.011839 1_555
Be14 Gd0 3.011849 1_455
Be15 Be19 2.233412 1_555
Be15 Be21 2.233504 1_555
Be15 Be6 2.237092 1_655
Be15 Be22 2.237092 1_556
Be15 Be24 2.237118 1_645
Be15 Be9 2.237157 1_655
Be15 Be16 2.322648 1_555
Be15 Gd0 3.011839 1_555
Be15 Gd1 3.011849 1_655
Be16 Be19 2.233505 1_555
Be16 Be21 2.233623 1_555
Be16 Be7 2.237119 1_546
Be16 Be8 2.237129 1_546
Be16 Be24 2.237132 1_645
Be16 Be22 2.237151 1_556
Be16 Gd0 3.011611 1_545
Be16 Gd1 3.011867 1_556
Be17 Be18 2.233505 1_555
Be17 Be20 2.233623 1_555
Be17 Be6 2.237119 1_564
Be17 Be9 2.237129 1_564
Be17 Be25 2.237132 1_465
Be17 Be23 2.237151 1_554
Be17 Gd1 3.011611 1_565
Be17 Gd0 3.011867 1_554
Be18 Be3 2.237092 1_555
Be18 Be5 2.237151 1_555
Be18 Be24 2.247150 1_555
Be18 Be25 2.247226 1_465
Be18 Be20 2.322648 1_555
Be18 Gd1 3.011839 1_565
Be18 Gd0 3.011849 1_455
Be19 Be2 2.237092 1_555
Be19 Be4 2.237151 1_555
Be19 Be25 2.247150 1_555
Be19 Be24 2.247226 1_645
Be19 Be21 2.322648 1_555
Be19 Gd0 3.011839 1_545
Be19 Gd1 3.011849 1_655
Be20 Be4 2.237132 1_555
Be20 Be23 2.247150 1_554
Be20 Be22 2.247226 1_555
Be20 Gd1 3.011610 1_555
Be20 Gd0 3.011867 1_554
Be21 Be3 2.237118 1_555
Be21 Be5 2.237132 1_555
Be21 Be22 2.247150 1_556
Be21 Be23 2.247226 1_555
Be21 Gd0 3.011610 1_555
Be21 Gd1 3.011867 1_556
Be22 Be4 2.233505 1_555
Be22 Be7 2.237092 1_545
Be22 Be9 2.237125 1_654
Be22 Be25 2.322648 1_555
Be22 Gd1 3.011839 1_555
Be22 Gd0 3.011849 1_554
Be23 Be3 2.233412 1_555
Be23 Be5 2.233505 1_555
Be23 Be6 2.237092 1_565
Be23 Be8 2.237125 1_456
Be23 Be24 2.322648 1_555
Be23 Gd0 3.011839 1_555
Be23 Gd1 3.011849 1_556
Be24 Be3 2.233504 1_555
Be24 Be5 2.233623 1_555
Be24 Be8 2.237134 1_456
Be24 Be6 2.237151 1_565
Be24 Gd0 3.011610 1_455
Be24 Gd1 3.011867 1_565
Be25 Be4 2.233623 1_555
Be25 Be9 2.237134 1_654
Be25 Be7 2.237151 1_545
Be25 Gd1 3.011610 1_655
Be25 Gd0 3.011867 1_545
