# generated using pymatgen
data_RbSbN2
_symmetry_space_group_name_H-M   'P 1'
_cell_length_a   6.06948900
_cell_length_b   12.13873200
_cell_length_c   17.15431800
_cell_angle_alpha   90.00000000
_cell_angle_beta   90.00000000
_cell_angle_gamma   90.00000000
_symmetry_Int_Tables_number   1
_chemical_formula_structural   RbSbN2
_chemical_formula_sum   'Rb16 Sb16 N32'
_cell_volume   1263.85982351
_cell_formula_units_Z   16
loop_
 _symmetry_equiv_pos_site_id
 _symmetry_equiv_pos_as_xyz
  1  'x, y, z'
loop_
 _atom_site_type_symbol
 _atom_site_label
 _atom_site_symmetry_multiplicity
 _atom_site_fract_x
 _atom_site_fract_y
 _atom_site_fract_z
 _atom_site_occupancy
  Rb  Rb0  1  0.25462100  0.01181900  0.43843600  1
  Rb  Rb1  1  0.75462100  0.48818100  0.56156400  1
  Rb  Rb2  1  0.74537900  0.51181900  0.06156400  1
  Rb  Rb3  1  0.24537900  0.98818100  0.93843600  1
  Rb  Rb4  1  0.74537900  0.98818100  0.56156400  1
  Rb  Rb5  1  0.24537900  0.51181900  0.43843600  1
  Rb  Rb6  1  0.25462100  0.48818100  0.93843600  1
  Rb  Rb7  1  0.75462100  0.01181900  0.06156400  1
  Rb  Rb8  1  0.30033200  0.26098000  0.31588600  1
  Rb  Rb9  1  0.80033200  0.23902000  0.68411400  1
  Rb  Rb10  1  0.69966800  0.76098000  0.18411400  1
  Rb  Rb11  1  0.19966800  0.73902000  0.81588600  1
  Rb  Rb12  1  0.69966800  0.73902000  0.68411400  1
  Rb  Rb13  1  0.19966800  0.76098000  0.31588600  1
  Rb  Rb14  1  0.30033200  0.23902000  0.81588600  1
  Rb  Rb15  1  0.80033200  0.26098000  0.18411400  1
  Sb  Sb0  1  0.76523000  0.00603900  0.31180500  1
  Sb  Sb1  1  0.26523000  0.49396100  0.68819500  1
  Sb  Sb2  1  0.23477000  0.50603900  0.18819500  1
  Sb  Sb3  1  0.73477000  0.99396100  0.81180500  1
  Sb  Sb4  1  0.23477000  0.99396100  0.68819500  1
  Sb  Sb5  1  0.73477000  0.50603900  0.31180500  1
  Sb  Sb6  1  0.76523000  0.49396100  0.81180500  1
  Sb  Sb7  1  0.26523000  0.00603900  0.18819500  1
  Sb  Sb8  1  0.78107200  0.25872200  0.43633800  1
  Sb  Sb9  1  0.28107200  0.24127800  0.56366200  1
  Sb  Sb10  1  0.21892800  0.75872200  0.06366200  1
  Sb  Sb11  1  0.71892800  0.74127800  0.93633800  1
  Sb  Sb12  1  0.21892800  0.74127800  0.56366200  1
  Sb  Sb13  1  0.71892800  0.75872200  0.43633800  1
  Sb  Sb14  1  0.78107200  0.24127800  0.93633800  1
  Sb  Sb15  1  0.28107200  0.25872200  0.06366200  1
  N  N0  1  0.05476500  0.31007800  0.49300100  1
  N  N1  1  0.55476500  0.18992200  0.50699900  1
  N  N2  1  0.94523500  0.81007800  0.00699900  1
  N  N3  1  0.44523500  0.68992200  0.99300100  1
  N  N4  1  0.94523500  0.68992200  0.50699900  1
  N  N5  1  0.44523500  0.81007800  0.49300100  1
  N  N6  1  0.05476500  0.18992200  0.99300100  1
  N  N7  1  0.55476500  0.31007800  0.00699900  1
  N  N8  1  0.65239800  0.40252300  0.39904000  1
  N  N9  1  0.15239800  0.09747700  0.60096000  1
  N  N10  1  0.34760200  0.90252300  0.10096000  1
  N  N11  1  0.84760200  0.59747700  0.89904000  1
  N  N12  1  0.34760200  0.59747700  0.60096000  1
  N  N13  1  0.84760200  0.90252300  0.39904000  1
  N  N14  1  0.65239800  0.09747700  0.89904000  1
  N  N15  1  0.15239800  0.40252300  0.10096000  1
  N  N16  1  0.85694800  0.15984000  0.34492600  1
  N  N17  1  0.35694800  0.34016000  0.65507400  1
  N  N18  1  0.14305200  0.65984000  0.15507400  1
  N  N19  1  0.64305200  0.84016000  0.84492600  1
  N  N20  1  0.14305200  0.84016000  0.65507400  1
  N  N21  1  0.64305200  0.65984000  0.34492600  1
  N  N22  1  0.85694800  0.34016000  0.84492600  1
  N  N23  1  0.35694800  0.15984000  0.15507400  1
  N  N24  1  0.55410600  0.47574700  0.21482500  1
  N  N25  1  0.05410600  0.02425300  0.78517500  1
  N  N26  1  0.44589400  0.97574700  0.28517500  1
  N  N27  1  0.94589400  0.52425300  0.71482500  1
  N  N28  1  0.44589400  0.52425300  0.78517500  1
  N  N29  1  0.94589400  0.97574700  0.21482500  1
  N  N30  1  0.55410600  0.02425300  0.71482500  1
  N  N31  1  0.05410600  0.47574700  0.28517500  1
loop_
_geom_bond_atom_site_label_1
_geom_bond_atom_site_label_2
_geom_bond_distance
_geom_bond_site_symmetry_2
N0 Sb9 2.013316 1_555
N0 Sb8 2.023103 1_455
N0 Rb5 2.865596 1_555
N0 Rb1 3.062026 1_455
N0 Rb8 3.436259 1_555
N1 Sb8 2.013316 1_555
N1 Sb9 2.023103 1_555
N1 Rb4 2.865596 1_545
N1 Rb0 3.062026 1_555
N1 Rb9 3.436259 1_555
N2 Sb11 2.013316 1_554
N2 Sb10 2.023103 1_655
N2 Rb7 2.865596 1_565
N2 Rb3 3.062026 1_654
N2 Rb10 3.436259 1_555
N3 Sb10 2.013316 1_556
N3 Sb11 2.023103 1_555
N3 Rb6 2.865596 1_555
N3 Rb2 3.062026 1_556
N3 Rb11 3.436259 1_555
N4 Sb13 2.013316 1_555
N4 Sb12 2.023103 1_655
N4 Rb1 2.865596 1_555
N4 Rb5 3.062026 1_655
N4 Rb12 3.436259 1_555
N5 Sb12 2.013316 1_555
N5 Sb13 2.023103 1_555
N5 Rb0 2.865596 1_565
N5 Rb4 3.062026 1_555
N5 Rb13 3.436259 1_555
N6 Sb15 2.013316 1_556
N6 Sb14 2.023103 1_455
N6 Rb3 2.865596 1_545
N6 Rb7 3.062026 1_456
N6 Rb14 3.436259 1_555
N7 Sb14 2.013316 1_554
N7 Sb15 2.023103 1_555
N7 Rb2 2.865596 1_555
N7 Rb6 3.062026 1_554
N7 Rb15 3.436259 1_555
N8 Sb8 2.016506 1_555
N8 Sb5 2.016994 1_555
N8 Rb5 2.884399 1_555
N8 Rb1 3.039567 1_555
N8 Rb8 3.090790 1_555
N9 Sb9 2.016506 1_555
N9 Sb4 2.016994 1_545
N9 Rb4 2.884399 1_445
N9 Rb0 3.039567 1_555
N9 Rb9 3.090790 1_455
N10 Sb10 2.016506 1_555
N10 Sb7 2.016994 1_565
N10 Rb7 2.884399 1_565
N10 Rb3 3.039567 1_554
N10 Rb10 3.090790 1_555
N11 Sb11 2.016506 1_555
N11 Sb6 2.016994 1_555
N11 Rb6 2.884399 1_655
N11 Rb2 3.039567 1_556
N11 Rb11 3.090790 1_655
N12 Sb12 2.016506 1_555
N12 Sb1 2.016994 1_555
N12 Rb1 2.884399 1_555
N12 Rb5 3.039567 1_555
N12 Rb12 3.090790 1_555
N13 Sb13 2.016506 1_555
N13 Sb0 2.016994 1_565
N13 Rb0 2.884399 1_665
N13 Rb4 3.039567 1_555
N13 Rb13 3.090790 1_655
N14 Sb14 2.016506 1_555
N14 Sb3 2.016994 1_545
N14 Rb3 2.884399 1_545
N14 Rb7 3.039567 1_556
N14 Rb14 3.090790 1_555
N15 Sb15 2.016506 1_555
N15 Sb2 2.016994 1_555
N15 Rb2 2.884399 1_455
N15 Rb6 3.039567 1_554
N15 Rb15 3.090790 1_455
N16 Sb8 2.027753 1_555
N16 Sb0 2.029337 1_555
N16 Rb8 2.999589 1_655
N16 Rb15 3.038971 1_555
N16 Rb0 3.409897 1_655
N17 Sb9 2.027753 1_555
N17 Sb1 2.029337 1_555
N17 Rb9 2.999589 1_555
N17 Rb14 3.038971 1_555
N17 Rb1 3.409897 1_555
N18 Sb10 2.027753 1_555
N18 Sb2 2.029337 1_555
N18 Rb10 2.999589 1_455
N18 Rb13 3.038971 1_555
N18 Rb2 3.409897 1_455
N19 Sb11 2.027753 1_555
N19 Sb3 2.029337 1_555
N19 Rb11 2.999589 1_555
N19 Rb12 3.038971 1_555
N19 Rb3 3.409897 1_555
N20 Sb12 2.027753 1_555
N20 Sb4 2.029337 1_555
N20 Rb12 2.999589 1_455
N20 Rb11 3.038971 1_555
N20 Rb4 3.409897 1_455
N21 Sb13 2.027753 1_555
N21 Sb5 2.029337 1_555
N21 Rb13 2.999589 1_555
N21 Rb10 3.038971 1_555
N21 Rb5 3.409897 1_555
N22 Sb14 2.027753 1_555
N22 Sb6 2.029337 1_555
N22 Rb14 2.999589 1_655
N22 Rb9 3.038971 1_555
N22 Rb6 3.409897 1_655
N23 Sb15 2.027753 1_555
N23 Sb7 2.029337 1_555
N23 Rb15 2.999589 1_555
N23 Rb8 3.038971 1_555
N23 Rb7 3.409897 1_555
N24 Sb2 2.024978 1_555
N24 Sb5 2.026143 1_555
N24 Rb2 2.907162 1_555
N24 Rb15 3.050806 1_555
N25 Sb3 2.024978 1_445
N25 Sb4 2.026143 1_545
N25 Rb3 2.907162 1_545
N25 Rb14 3.050806 1_555
N26 Sb0 2.024978 1_565
N26 Sb7 2.026143 1_565
N26 Rb0 2.907162 1_565
N26 Rb13 3.050806 1_555
N27 Sb1 2.024978 1_655
N27 Sb6 2.026143 1_555
N27 Rb1 2.907162 1_555
N27 Rb12 3.050806 1_555
N28 Sb6 2.024978 1_555
N28 Sb1 2.026143 1_555
N28 Rb6 2.907162 1_555
N28 Rb11 3.050806 1_555
N29 Sb7 2.024978 1_665
N29 Sb0 2.026143 1_565
N29 Rb7 2.907162 1_565
N29 Rb10 3.050806 1_555
N30 Sb4 2.024978 1_545
N30 Sb3 2.026143 1_545
N30 Rb4 2.907162 1_545
N30 Rb9 3.050806 1_555
N31 Sb5 2.024978 1_455
N31 Sb2 2.026143 1_555
N31 Rb5 2.907162 1_555
N31 Rb8 3.050806 1_555
