# generated using pymatgen
data_Zn(CuO2)2
_symmetry_space_group_name_H-M   'P 1'
_cell_length_a   6.44708617
_cell_length_b   6.44708617
_cell_length_c   6.44708617
_cell_angle_alpha   130.28187588
_cell_angle_beta   130.28187588
_cell_angle_gamma   72.95654034
_symmetry_Int_Tables_number   1
_chemical_formula_structural   Zn(CuO2)2
_chemical_formula_sum   'Zn2 Cu4 O8'
_cell_volume   152.31785242
_cell_formula_units_Z   2
loop_
 _symmetry_equiv_pos_site_id
 _symmetry_equiv_pos_as_xyz
  1  'x, y, z'
loop_
 _atom_site_type_symbol
 _atom_site_label
 _atom_site_symmetry_multiplicity
 _atom_site_fract_x
 _atom_site_fract_y
 _atom_site_fract_z
 _atom_site_occupancy
  Zn  Zn0  1  -0.00000000  0.00000000  0.00000000  1
  Zn  Zn1  1  0.75000000  0.25000000  0.50000000  1
  Cu  Cu0  1  0.37500000  0.62500000  0.25000000  1
  Cu  Cu1  1  0.87500000  0.62500000  0.25000000  1
  Cu  Cu2  1  0.37500000  0.12500000  0.75000000  1
  Cu  Cu3  1  0.37500000  0.62500000  0.75000000  1
  O  O0  1  0.14685725  0.37438406  0.77247219  1
  O  O1  1  0.62561594  0.39808812  0.77247219  1
  O  O2  1  0.62561594  0.85314275  0.22752781  1
  O  O3  1  0.60314275  0.87561594  0.72752781  1
  O  O4  1  0.14808812  0.87561594  0.27247219  1
  O  O5  1  0.12438406  0.85191188  0.72752781  1
  O  O6  1  0.60191188  0.37438406  0.22752781  1
  O  O7  1  0.12438406  0.39685725  0.27247219  1
loop_
_geom_bond_atom_site_label_1
_geom_bond_atom_site_label_2
_geom_bond_distance
_geom_bond_site_symmetry_2
Cu0 O6 1.832357 1_555
Cu0 O4 1.832357 1_555
Cu0 O3 1.832357 1_555
Cu0 O0 1.832357 1_554
Cu1 O7 1.832353 1_655
Cu1 O2 1.832353 1_555
Cu1 O5 1.832357 1_655
Cu1 O1 1.832357 1_554
Cu2 O0 1.832353 1_555
Cu2 O3 1.832353 1_545
Cu2 O4 1.832357 1_545
Cu2 O6 1.832357 1_556
Cu3 O1 1.832357 1_555
Cu3 O5 1.832357 1_555
Cu3 O7 1.832357 1_555
Cu3 O2 1.832357 1_556
O0 Zn1 1.960739 1_455
O1 Zn1 1.960733 1_555
O2 Zn1 1.960739 1_565
O3 Zn0 1.960739 1_666
O4 Zn0 1.960733 1_565
O5 Zn0 1.960733 1_566
O6 Zn1 1.960733 1_555
O7 Zn0 1.960739 1_555
