# generated using pymatgen
data_NaB4Ir3
_symmetry_space_group_name_H-M   'P 1'
_cell_length_a   7.56981971
_cell_length_b   7.56981971
_cell_length_c   8.29235313
_cell_angle_alpha   90.00000000
_cell_angle_beta   90.00000000
_cell_angle_gamma   97.90062180
_symmetry_Int_Tables_number   1
_chemical_formula_structural   NaB4Ir3
_chemical_formula_sum   'Na4 B16 Ir12'
_cell_volume   470.65950746
_cell_formula_units_Z   4
loop_
 _symmetry_equiv_pos_site_id
 _symmetry_equiv_pos_as_xyz
  1  'x, y, z'
loop_
 _atom_site_type_symbol
 _atom_site_label
 _atom_site_symmetry_multiplicity
 _atom_site_fract_x
 _atom_site_fract_y
 _atom_site_fract_z
 _atom_site_occupancy
  Na  Na0  1  0.00330462  0.99669538  0.50000000  1
  Na  Na1  1  0.50330462  0.49669538  0.50000000  1
  Na  Na2  1  0.13797840  0.36202160  0.84892801  1
  Na  Na3  1  0.63797840  0.86202160  0.15107199  1
  B  B0  1  0.15575032  0.15118976  0.18932266  1
  B  B1  1  0.84881024  0.84424968  0.81067734  1
  B  B2  1  0.65575032  0.65118976  0.81067734  1
  B  B3  1  0.34881024  0.34424968  0.18932266  1
  B  B4  1  0.91292209  0.40769590  0.50013167  1
  B  B5  1  0.59230410  0.08707791  0.49986833  1
  B  B6  1  0.09230410  0.58707791  0.50013167  1
  B  B7  1  0.41292209  0.90769590  0.49986833  1
  B  B8  1  0.21535515  0.94155820  0.16323338  1
  B  B9  1  0.05844180  0.78464485  0.83676662  1
  B  B10  1  0.44598250  0.71156976  0.83667819  1
  B  B11  1  0.28843024  0.55401750  0.16332181  1
  B  B12  1  0.78843024  0.05401750  0.83667819  1
  B  B13  1  0.94598250  0.21156976  0.16332181  1
  B  B14  1  0.55844180  0.28464485  0.16323338  1
  B  B15  1  0.71535515  0.44155820  0.83676662  1
  Ir  Ir0  1  0.11185220  0.38814780  0.31271294  1
  Ir  Ir1  1  0.61185220  0.88814780  0.68728706  1
  Ir  Ir2  1  0.89273005  0.60726995  0.68725051  1
  Ir  Ir3  1  0.39273005  0.10726995  0.31274949  1
  Ir  Ir4  1  0.75227143  0.24772857  0.00000000  1
  Ir  Ir5  1  0.25227143  0.74772857  0.00000000  1
  Ir  Ir6  1  0.00253721  0.99746279  0.00000000  1
  Ir  Ir7  1  0.50253721  0.49746279  0.00000000  1
  Ir  Ir8  1  0.75229019  0.24796053  0.66493666  1
  Ir  Ir9  1  0.75203947  0.24770981  0.33506334  1
  Ir  Ir10  1  0.25229019  0.74796053  0.33506334  1
  Ir  Ir11  1  0.25203947  0.74770981  0.66493666  1
loop_
_geom_bond_atom_site_label_1
_geom_bond_atom_site_label_2
_geom_bond_distance
_geom_bond_site_symmetry_2
B0 B8 1.722029 1_545
B0 B13 1.725213 1_455
B0 B3 1.919479 1_555
B0 Ir0 2.130418 1_555
B0 Ir3 2.130750 1_555
B0 Ir6 2.189279 1_545
B0 Na0 2.994233 1_545
B1 B9 1.722029 1_655
B1 B12 1.725213 1_565
B1 B2 1.919479 1_555
B1 Ir1 2.130418 1_555
B1 Ir2 2.130750 1_555
B1 Ir6 2.189279 1_656
B1 Na0 2.994233 1_655
B2 Ir1 2.130418 1_555
B2 Ir2 2.130750 1_555
B2 Ir7 2.189279 1_556
B2 Na1 2.994233 1_555
B3 Ir0 2.130418 1_555
B3 Ir3 2.130750 1_555
B3 Ir7 2.189279 1_555
B3 Na1 2.994233 1_555
B4 B6 1.783488 1_655
B4 Ir8 2.098592 1_555
B4 Ir9 2.101905 1_555
B4 Ir0 2.183150 1_655
B4 Ir2 2.185592 1_555
B5 B7 1.783488 1_545
B5 Ir9 2.098592 1_555
B5 Ir8 2.101905 1_555
B5 Ir1 2.183150 1_545
B5 Ir3 2.185592 1_555
B6 Ir11 2.098592 1_555
B6 Ir10 2.101905 1_555
B6 Ir0 2.183150 1_555
B6 Ir2 2.185592 1_455
B7 Ir10 2.098592 1_555
B7 Ir11 2.101905 1_555
B7 Ir1 2.183150 1_555
B7 Ir3 2.185592 1_565
B8 Ir5 2.043490 1_555
B8 Ir10 2.090160 1_555
B8 Ir3 2.109632 1_565
B8 Ir6 2.189523 1_555
B9 Ir5 2.043490 1_556
B9 Ir11 2.090160 1_555
B9 Ir2 2.109632 1_455
B9 Ir6 2.189523 1_556
B10 B2 1.725213 1_555
B10 Ir5 2.041973 1_556
B10 Ir11 2.090166 1_555
B10 Ir1 2.106290 1_555
B10 Ir7 2.198874 1_556
B10 Na3 3.122678 1_556
B11 B3 1.725213 1_555
B11 Ir5 2.041973 1_555
B11 Ir10 2.090166 1_555
B11 Ir0 2.106290 1_555
B11 Ir7 2.198874 1_555
B11 Na2 3.122678 1_554
B12 Ir4 2.041973 1_556
B12 Ir8 2.090166 1_555
B12 Ir1 2.106290 1_545
B12 Ir6 2.198874 1_646
B12 Na3 3.122678 1_546
B13 Ir4 2.041973 1_555
B13 Ir9 2.090166 1_555
B13 Ir0 2.106290 1_655
B13 Ir6 2.198874 1_645
B13 Na2 3.122678 1_654
B14 B3 1.722029 1_555
B14 Ir4 2.043490 1_555
B14 Ir9 2.090160 1_555
B14 Ir3 2.109632 1_555
B14 Ir7 2.189523 1_555
B15 B2 1.722029 1_555
B15 Ir4 2.043490 1_556
B15 Ir8 2.090160 1_555
B15 Ir2 2.109632 1_555
B15 Ir7 2.189523 1_556
Ir0 Na1 3.346411 1_555
Ir0 Na0 3.346411 1_545
Ir1 Na1 3.346411 1_555
Ir1 Na0 3.346411 1_655
Ir2 Na2 3.104515 1_655
Ir2 Na0 3.335163 1_655
Ir2 Na1 3.335163 1_555
Ir3 Na3 3.104515 1_545
Ir3 Na0 3.335163 1_545
Ir3 Na1 3.335163 1_555
Ir4 Na2 3.185637 1_654
Ir4 Na3 3.185637 1_545
Ir5 Na3 3.185637 1_555
Ir5 Na2 3.185637 1_554
Ir6 Na2 3.075443 1_564
Ir6 Na3 3.075443 1_455
Ir7 Na3 3.075443 1_555
Ir7 Na2 3.075443 1_554
Ir8 Na1 3.153387 1_555
Ir8 Na0 3.176859 1_645
Ir8 Na2 3.302170 1_655
Ir9 Na1 3.153387 1_555
Ir9 Na0 3.176859 1_645
Ir9 Na3 3.302170 1_545
Ir10 Na0 3.153387 1_555
Ir10 Na1 3.176859 1_555
Ir10 Na3 3.302170 1_555
Ir11 Na0 3.153387 1_555
Ir11 Na1 3.176859 1_555
Ir11 Na2 3.302170 1_555
