# generated using pymatgen
data_Th2(FeCo)5
_symmetry_space_group_name_H-M   'P 1'
_cell_length_a   3.98377800
_cell_length_b   5.02828700
_cell_length_c   8.66003400
_cell_angle_alpha   90.00000000
_cell_angle_beta   90.00000000
_cell_angle_gamma   90.00000000
_symmetry_Int_Tables_number   1
_chemical_formula_structural   Th2(FeCo)5
_chemical_formula_sum   'Th2 Fe5 Co5'
_cell_volume   173.47415632
_cell_formula_units_Z   1
loop_
 _symmetry_equiv_pos_site_id
 _symmetry_equiv_pos_as_xyz
  1  'x, y, z'
loop_
 _atom_site_type_symbol
 _atom_site_label
 _atom_site_symmetry_multiplicity
 _atom_site_fract_x
 _atom_site_fract_y
 _atom_site_fract_z
 _atom_site_occupancy
  Th  Th0  1  0.00000000  0.00027500  0.00000000  1
  Th  Th1  1  0.00000000  0.50432200  0.50000000  1
  Fe  Fe0  1  0.50000000  0.50342300  0.00000000  1
  Fe  Fe1  1  0.50000000  0.75413700  0.25306200  1
  Fe  Fe2  1  0.50000000  0.25220700  0.74546900  1
  Fe  Fe3  1  0.50000000  0.25220700  0.25453100  1
  Fe  Fe4  1  0.50000000  0.75413700  0.74693800  1
  Co  Co0  1  0.00000000  0.99369800  0.32788500  1
  Co  Co1  1  0.00000000  0.49045800  0.83601900  1
  Co  Co2  1  0.00000000  0.49045800  0.16398100  1
  Co  Co3  1  0.00000000  0.99369800  0.67211500  1
  Co  Co4  1  0.50000000  0.01118100  0.50000000  1
loop_
_geom_bond_atom_site_label_1
_geom_bond_atom_site_label_2
_geom_bond_distance
_geom_bond_site_symmetry_2
Fe0 Fe4 2.528251 1_554
Fe0 Fe1 2.528251 1_555
Fe0 Fe3 2.540540 1_555
Fe0 Fe2 2.540540 1_554
Fe0 Th0 3.195183 1_665
Fe0 Th0 3.195183 1_565
Fe0 Th0 3.219997 1_555
Fe0 Th0 3.219997 1_655
Fe1 Fe3 2.504471 1_565
Fe1 Fe3 2.523880 1_555
Fe1 Th1 3.180984 1_655
Fe1 Th1 3.180984 1_555
Fe1 Th0 3.209702 1_665
Fe1 Th0 3.209702 1_565
Fe2 Fe4 2.504471 1_545
Fe2 Fe4 2.523880 1_555
Fe2 Th1 3.177043 1_555
Fe2 Th1 3.177043 1_655
Fe2 Th0 3.229717 1_656
Fe2 Th0 3.229717 1_556
Fe3 Th1 3.177043 1_555
Fe3 Th1 3.177043 1_655
Fe3 Th0 3.229717 1_555
Fe3 Th0 3.229717 1_655
Fe4 Th1 3.180984 1_655
Fe4 Th1 3.180984 1_555
Fe4 Th0 3.209702 1_666
Fe4 Th0 3.209702 1_566
Co0 Fe1 2.416299 1_555
Co0 Fe1 2.416299 1_455
Co0 Fe3 2.461867 1_565
Co0 Fe3 2.461867 1_465
Co0 Co4 2.489378 1_465
Co0 Co4 2.489378 1_565
Co0 Th0 2.839688 1_565
Co0 Th1 2.876945 1_555
Co0 Th1 2.968845 1_565
Co1 Fe0 2.447142 1_556
Co1 Fe0 2.447142 1_456
Co1 Fe2 2.453106 1_455
Co1 Fe2 2.453106 1_555
Co1 Fe4 2.514088 1_455
Co1 Fe4 2.514088 1_555
Co1 Th0 2.844604 1_556
Co1 Th1 2.910771 1_555
Co1 Th0 2.930562 1_566
Co2 Fe0 2.447142 1_455
Co2 Fe0 2.447142 1_555
Co2 Fe3 2.453106 1_555
Co2 Fe3 2.453106 1_455
Co2 Fe1 2.514088 1_455
Co2 Fe1 2.514088 1_555
Co2 Th0 2.844604 1_555
Co2 Th1 2.910771 1_555
Co2 Th0 2.930562 1_565
Co3 Fe4 2.416299 1_555
Co3 Fe4 2.416299 1_455
Co3 Fe2 2.461867 1_465
Co3 Fe2 2.461867 1_565
Co3 Co4 2.489378 1_465
Co3 Co4 2.489378 1_565
Co3 Th0 2.839688 1_566
Co3 Th1 2.876945 1_555
Co3 Th1 2.968845 1_565
Co4 Fe2 2.446981 1_555
Co4 Fe3 2.446981 1_555
Co4 Fe4 2.498735 1_545
Co4 Fe1 2.498735 1_545
Co4 Th1 3.180614 1_555
Co4 Th1 3.180614 1_655
Co4 Th1 3.234679 1_645
Co4 Th1 3.234679 1_545
