# generated using pymatgen
data_MgCu2(WO4)2
_symmetry_space_group_name_H-M   'P 1'
_cell_length_a   8.65839000
_cell_length_b   6.67683900
_cell_length_c   12.68636685
_cell_angle_alpha   87.98495961
_cell_angle_beta   90.00000000
_cell_angle_gamma   90.00000000
_symmetry_Int_Tables_number   1
_chemical_formula_structural   MgCu2(WO4)2
_chemical_formula_sum   'Mg4 Cu8 W8 O32'
_cell_volume   732.95392787
_cell_formula_units_Z   4
loop_
 _symmetry_equiv_pos_site_id
 _symmetry_equiv_pos_as_xyz
  1  'x, y, z'
loop_
 _atom_site_type_symbol
 _atom_site_label
 _atom_site_symmetry_multiplicity
 _atom_site_fract_x
 _atom_site_fract_y
 _atom_site_fract_z
 _atom_site_occupancy
  Mg  Mg0  1  0.83810100  0.88994900  0.05259400  1
  Mg  Mg1  1  0.16189900  0.11005100  0.94740600  1
  Mg  Mg2  1  0.33810100  0.11005100  0.44740600  1
  Mg  Mg3  1  0.66189900  0.88994900  0.55259400  1
  Cu  Cu0  1  0.81497500  0.23012200  0.86651800  1
  Cu  Cu1  1  0.94803900  0.62439500  0.61755400  1
  Cu  Cu2  1  0.05196100  0.37560500  0.38244600  1
  Cu  Cu3  1  0.18502500  0.76987800  0.13348200  1
  Cu  Cu4  1  0.68502500  0.23012200  0.36651800  1
  Cu  Cu5  1  0.55196100  0.62439500  0.11755400  1
  Cu  Cu6  1  0.31497500  0.76987800  0.63348200  1
  Cu  Cu7  1  0.44803900  0.37560500  0.88244600  1
  W  W0  1  0.54387400  0.90258500  0.84441700  1
  W  W1  1  0.95612600  0.90258500  0.34441700  1
  W  W2  1  0.92178200  0.38777300  0.12969600  1
  W  W3  1  0.04387400  0.09741500  0.65558300  1
  W  W4  1  0.07821800  0.61222700  0.87030400  1
  W  W5  1  0.42178200  0.61222700  0.37030400  1
  W  W6  1  0.57821800  0.38777300  0.62969600  1
  W  W7  1  0.45612600  0.09741500  0.15558300  1
  O  O0  1  0.76539200  0.95585900  0.40357000  1
  O  O1  1  0.98730400  0.34030100  0.60243100  1
  O  O2  1  0.43195500  0.82126600  0.46411100  1
  O  O3  1  0.93195500  0.17873400  0.03588900  1
  O  O4  1  0.73460800  0.95585900  0.90357000  1
  O  O5  1  0.23460800  0.04414100  0.59643000  1
  O  O6  1  0.89139100  0.92097100  0.61382100  1
  O  O7  1  0.11120300  0.49475600  0.13597400  1
  O  O8  1  0.38879700  0.49475600  0.63597400  1
  O  O9  1  0.12873000  0.70171300  0.73663800  1
  O  O10  1  0.62873000  0.29828700  0.76336200  1
  O  O11  1  0.88879700  0.50524400  0.86402600  1
  O  O12  1  0.10860900  0.07902900  0.38617900  1
  O  O13  1  0.44900400  0.11868900  0.29860500  1
  O  O14  1  0.70745800  0.58929300  0.58291000  1
  O  O15  1  0.79254200  0.58929300  0.08291000  1
  O  O16  1  0.94900400  0.88131100  0.20139500  1
  O  O17  1  0.61120300  0.50524400  0.36402600  1
  O  O18  1  0.55099600  0.88131100  0.70139500  1
  O  O19  1  0.56804500  0.17873400  0.53588900  1
  O  O20  1  0.51269600  0.34030100  0.10243100  1
  O  O21  1  0.87127000  0.29828700  0.26336200  1
  O  O22  1  0.26539200  0.04414100  0.09643000  1
  O  O23  1  0.60860900  0.92097100  0.11382100  1
  O  O24  1  0.06804500  0.82126600  0.96411100  1
  O  O25  1  0.20745800  0.41070700  0.91709000  1
  O  O26  1  0.01269600  0.65969900  0.39756900  1
  O  O27  1  0.48730400  0.65969900  0.89756900  1
  O  O28  1  0.39139100  0.07902900  0.88617900  1
  O  O29  1  0.29254200  0.41070700  0.41709000  1
  O  O30  1  0.37127000  0.70171300  0.23663800  1
  O  O31  1  0.05099600  0.11868900  0.79860500  1
loop_
_geom_bond_atom_site_label_1
_geom_bond_atom_site_label_2
_geom_bond_distance
_geom_bond_site_symmetry_2
Mg0 O15 2.068577 1_555
Mg0 O3 2.096277 1_565
Mg0 O16 2.116911 1_555
Mg0 O4 2.124237 1_554
Mg0 O23 2.146124 1_555
Mg0 O24 2.338895 1_654
Mg1 O25 2.068577 1_555
Mg1 O24 2.096277 1_545
Mg1 O31 2.116911 1_555
Mg1 O22 2.124237 1_556
Mg1 O28 2.146124 1_555
Mg1 O3 2.338895 1_456
Mg2 O29 2.068577 1_555
Mg2 O2 2.096277 1_545
Mg2 O13 2.116911 1_555
Mg2 O5 2.124237 1_555
Mg2 O12 2.146124 1_555
Mg2 O19 2.338895 1_555
Mg3 O14 2.068577 1_555
Mg3 O19 2.096277 1_565
Mg3 O18 2.116911 1_555
Mg3 O0 2.124237 1_555
Mg3 O6 2.146124 1_555
Mg3 O2 2.338895 1_555
Cu0 O11 1.944180 1_555
Cu0 O4 1.999489 1_545
Cu0 O10 2.116201 1_555
Cu0 O31 2.348849 1_655
Cu0 O3 2.389285 1_556
Cu1 O1 1.943199 1_555
Cu1 O6 2.038964 1_555
Cu1 O14 2.143458 1_555
Cu1 O9 2.247517 1_655
Cu2 O26 1.943199 1_555
Cu2 O12 2.038964 1_555
Cu2 O29 2.143458 1_555
Cu2 O21 2.247517 1_455
Cu3 O7 1.944180 1_555
Cu3 O22 1.999489 1_565
Cu3 O30 2.116201 1_555
Cu3 O16 2.348849 1_455
Cu3 O24 2.389285 1_554
Cu4 O17 1.944180 1_555
Cu4 O0 1.999489 1_545
Cu4 O21 2.116201 1_555
Cu4 O13 2.348849 1_555
Cu4 O19 2.389285 1_555
Cu5 O20 1.943199 1_555
Cu5 O23 2.038964 1_555
Cu5 O15 2.143458 1_555
Cu5 O30 2.247517 1_555
Cu6 O8 1.944180 1_555
Cu6 O5 1.999489 1_565
Cu6 O9 2.116201 1_555
Cu6 O18 2.348849 1_555
Cu6 O2 2.389285 1_555
Cu7 O27 1.943199 1_555
Cu7 O28 2.038964 1_555
Cu7 O25 2.143458 1_555
Cu7 O10 2.247517 1_555
O0 W1 1.853574 1_555
O1 W3 1.802122 1_655
O2 W5 1.867851 1_555
O3 W2 1.867851 1_555
O4 W0 1.853574 1_555
O5 W3 1.853574 1_555
O6 W3 1.858914 1_665
O7 W2 1.791772 1_455
O8 W6 1.791772 1_555
O9 W4 1.830993 1_555
O10 W6 1.830993 1_555
O11 W4 1.791772 1_655
O12 W1 1.858914 1_445
O13 W7 1.825995 1_555
O14 W6 1.832684 1_555
O15 W2 1.832684 1_555
O16 W1 1.825995 1_555
O17 W5 1.791772 1_555
O18 W0 1.825995 1_555
O19 W6 1.867851 1_555
O20 W7 1.802122 1_555
O21 W2 1.830993 1_555
O22 W7 1.853574 1_555
O23 W7 1.858914 1_565
O24 W4 1.867851 1_555
O25 W4 1.832684 1_555
O26 W1 1.802122 1_455
O27 W0 1.802122 1_555
O28 W0 1.858914 1_545
O29 W5 1.832684 1_555
O30 W5 1.830993 1_555
O31 W3 1.825995 1_555
