# generated using pymatgen
data_CdIn3
_symmetry_space_group_name_H-M   'P 1'
_cell_length_a   6.53557902
_cell_length_b   6.53557902
_cell_length_c   5.54680951
_cell_angle_alpha   90.00000000
_cell_angle_beta   90.00000000
_cell_angle_gamma   119.99999474
_symmetry_Int_Tables_number   1
_chemical_formula_structural   CdIn3
_chemical_formula_sum   'Cd2 In6'
_cell_volume   205.18331691
_cell_formula_units_Z   2
loop_
 _symmetry_equiv_pos_site_id
 _symmetry_equiv_pos_as_xyz
  1  'x, y, z'
loop_
 _atom_site_type_symbol
 _atom_site_label
 _atom_site_symmetry_multiplicity
 _atom_site_fract_x
 _atom_site_fract_y
 _atom_site_fract_z
 _atom_site_occupancy
  Cd  Cd0  1  0.33333300  0.66666700  0.75000000  1
  Cd  Cd1  1  0.66666700  0.33333300  0.25000000  1
  In  In0  1  0.16697041  0.33393981  0.25000000  1
  In  In1  1  0.66606019  0.83302959  0.25000000  1
  In  In2  1  0.16697041  0.83302959  0.25000000  1
  In  In3  1  0.83302959  0.66606019  0.75000000  1
  In  In4  1  0.33393981  0.16697041  0.75000000  1
  In  In5  1  0.83302959  0.16697041  0.75000000  1
loop_
_geom_bond_atom_site_label_1
_geom_bond_atom_site_label_2
_geom_bond_distance
_geom_bond_site_symmetry_2
Cd0 In3 3.267791 1_555
Cd0 In4 3.267791 1_555
Cd0 In4 3.267791 1_565
Cd0 In3 3.267791 1_455
Cd0 In5 3.267792 1_565
Cd0 In5 3.267792 1_455
Cd0 In2 3.352354 1_555
Cd0 In2 3.352354 1_556
Cd0 In0 3.352361 1_556
Cd0 In0 3.352361 1_555
Cd0 In1 3.352361 1_555
Cd0 In1 3.352361 1_556
Cd1 In0 3.267791 1_555
Cd1 In1 3.267791 1_555
Cd1 In1 3.267791 1_545
Cd1 In0 3.267791 1_655
Cd1 In2 3.267792 1_545
Cd1 In2 3.267792 1_655
Cd1 In5 3.352354 1_554
Cd1 In5 3.352354 1_555
Cd1 In4 3.352361 1_554
Cd1 In3 3.352361 1_555
Cd1 In4 3.352361 1_555
Cd1 In3 3.352361 1_554
In0 In2 3.261841 1_555
In0 In1 3.261841 1_555
In0 In2 3.273738 1_545
In0 In1 3.273739 1_445
In0 In4 3.356218 1_554
In0 In4 3.356218 1_555
In0 In5 3.356225 1_455
In0 In5 3.356225 1_454
In1 In2 3.261841 1_555
In1 In2 3.273738 1_655
In1 In3 3.356218 1_555
In1 In3 3.356218 1_554
In1 In5 3.356225 1_565
In1 In5 3.356225 1_564
In2 In3 3.356225 1_455
In2 In3 3.356225 1_454
In2 In4 3.356225 1_564
In2 In4 3.356225 1_565
In3 In5 3.261841 1_555
In3 In4 3.261841 1_555
In3 In5 3.273738 1_565
In3 In4 3.273739 1_665
In4 In5 3.261841 1_555
In4 In5 3.273738 1_455
