# generated using pymatgen
data_Li7Mn2(CoO4)3
_symmetry_space_group_name_H-M   'P 1'
_cell_length_a   2.88454601
_cell_length_b   14.55359116
_cell_length_c   5.15332977
_cell_angle_alpha   89.67121584
_cell_angle_beta   88.88071456
_cell_angle_gamma   91.00841167
_symmetry_Int_Tables_number   1
_chemical_formula_structural   Li7Mn2(CoO4)3
_chemical_formula_sum   'Li7 Mn2 Co3 O12'
_cell_volume   216.26059581
_cell_formula_units_Z   1
loop_
 _symmetry_equiv_pos_site_id
 _symmetry_equiv_pos_as_xyz
  1  'x, y, z'
loop_
 _atom_site_type_symbol
 _atom_site_label
 _atom_site_symmetry_multiplicity
 _atom_site_fract_x
 _atom_site_fract_y
 _atom_site_fract_z
 _atom_site_occupancy
  Li  Li0  1  0.98751200  0.18842300  0.69915800  1
  Li  Li1  1  0.51029900  0.49478600  0.48862600  1
  Li  Li2  1  0.99839800  0.82706300  0.33549300  1
  Li  Li3  1  0.49436200  0.17400700  0.17626100  1
  Li  Li4  1  0.00456200  0.48942300  0.97327700  1
  Li  Li5  1  0.49354000  0.82952300  0.83481700  1
  Li  Li6  1  0.50087100  0.33539000  0.83488700  1
  Mn  Mn0  1  0.99794600  0.00008900  0.00063500  1
  Mn  Mn1  1  0.00252000  0.33343200  0.33299700  1
  Co  Co0  1  0.00134700  0.66502600  0.66418500  1
  Co  Co1  1  0.49748800  0.00097600  0.50216600  1
  Co  Co2  1  0.50094500  0.66468300  0.16308600  1
  O  O0  1  0.50871400  0.07523100  0.86001100  1
  O  O1  1  0.00188900  0.41039800  0.63171700  1
  O  O2  1  0.48325300  0.74505900  0.50495700  1
  O  O3  1  0.00074400  0.06961900  0.31664500  1
  O  O4  1  0.51256400  0.40659300  0.18149900  1
  O  O5  1  0.98192300  0.74367400  0.00363000  1
  O  O6  1  0.49302200  0.25808100  0.48793100  1
  O  O7  1  0.02055900  0.59137700  0.32484000  1
  O  O8  1  0.48779100  0.92424100  0.14175200  1
  O  O9  1  0.00349100  0.25584900  0.03346100  1
  O  O10  1  0.52119200  0.58915300  0.82472500  1
  O  O11  1  0.99506900  0.92790500  0.68324400  1
loop_
_geom_bond_atom_site_label_1
_geom_bond_atom_site_label_2
_geom_bond_distance
_geom_bond_site_symmetry_2
Li0 O9 1.988446 1_656
Li0 O6 2.052355 1_655
Li0 O6 2.084723 1_555
Li0 O0 2.273298 1_555
Li0 O0 2.404450 1_655
Li0 O3 2.629672 1_655
Li1 O1 2.021578 1_555
Li1 O1 2.038289 1_655
Li1 O4 2.043455 1_555
Li1 O7 2.172544 1_655
Li1 O7 2.187934 1_555
Li1 O10 2.216977 1_555
Li2 O2 2.058529 1_655
Li2 O2 2.066394 1_555
Li2 O5 2.103534 1_555
Li2 O8 2.201891 1_655
Li2 O8 2.298031 1_555
Li2 O11 2.322827 1_555
Li3 O9 2.000800 1_655
Li3 O9 2.013740 1_555
Li3 O6 2.024677 1_555
Li3 O3 2.174809 1_555
Li3 O0 2.179599 1_554
Li3 O3 2.252060 1_655
Li4 O1 2.108184 1_555
Li4 O4 2.117574 1_456
Li4 O10 2.176455 1_455
Li4 O10 2.186336 1_555
Li4 O4 2.204677 1_556
Li4 O7 2.349004 1_556
Li5 O5 2.090034 1_456
Li5 O5 2.097573 1_556
Li5 O2 2.103853 1_555
Li5 O8 2.104091 1_556
Li5 O11 2.150165 1_555
Li5 O11 2.197991 1_455
Li6 O1 2.061249 1_655
Li6 O4 2.070717 1_556
Li6 O9 2.077554 1_556
Li6 O1 2.112021 1_555
Li6 O6 2.118267 1_555
Li6 O9 2.143055 1_656
Mn0 O3 1.922288 1_655
Mn0 O0 1.945324 1_654
Mn0 O0 1.948793 1_554
Mn0 O11 1.949075 1_544
Mn0 O8 1.950556 1_545
Mn0 O8 1.956964 1_645
Mn1 O1 1.908982 1_555
Mn1 O9 1.917699 1_555
Mn1 O4 1.948906 1_555
Mn1 O4 1.956318 1_455
Mn1 O6 1.971646 1_455
Mn1 O6 1.982586 1_555
Co0 O10 1.926911 1_455
Co0 O2 1.962089 1_555
Co0 O7 2.056676 1_555
Co0 O10 2.061208 1_555
Co0 O2 2.088452 1_455
Co0 O5 2.096338 1_456
Co1 O3 1.975637 1_655
Co1 O11 1.995883 1_445
Co1 O3 2.014480 1_555
Co1 O11 2.038732 1_545
Co1 O0 2.143260 1_555
Co1 O8 2.173103 1_545
Co2 O7 1.909405 1_555
Co2 O5 1.951971 1_555
Co2 O7 2.043156 1_655
Co2 O10 2.066989 1_554
Co2 O5 2.082322 1_455
Co2 O2 2.120620 1_555
