# generated using pymatgen
data_LuAsSe
_symmetry_space_group_name_H-M   'P 1'
_cell_length_a   3.86114000
_cell_length_b   3.86700100
_cell_length_c   17.24524300
_cell_angle_alpha   90.00000000
_cell_angle_beta   90.00000000
_cell_angle_gamma   90.00000000
_symmetry_Int_Tables_number   1
_chemical_formula_structural   LuAsSe
_chemical_formula_sum   'Lu4 As4 Se4'
_cell_volume   257.48927924
_cell_formula_units_Z   4
loop_
 _symmetry_equiv_pos_site_id
 _symmetry_equiv_pos_as_xyz
  1  'x, y, z'
loop_
 _atom_site_type_symbol
 _atom_site_label
 _atom_site_symmetry_multiplicity
 _atom_site_fract_x
 _atom_site_fract_y
 _atom_site_fract_z
 _atom_site_occupancy
  Lu  Lu0  1  0.75000000  0.24084400  0.86106100  1
  Lu  Lu1  1  0.75000000  0.25915600  0.36106100  1
  Lu  Lu2  1  0.25000000  0.75915600  0.13893900  1
  Lu  Lu3  1  0.25000000  0.74084400  0.63893900  1
  As  As0  1  0.25000000  0.23035700  0.50078500  1
  As  As1  1  0.25000000  0.26964300  0.00078500  1
  As  As2  1  0.75000000  0.76964300  0.49921500  1
  As  As3  1  0.75000000  0.73035700  0.99921500  1
  Se  Se0  1  0.75000000  0.24212500  0.68798300  1
  Se  Se1  1  0.75000000  0.25787500  0.18798300  1
  Se  Se2  1  0.25000000  0.75787500  0.31201700  1
  Se  Se3  1  0.25000000  0.74212500  0.81201700  1
loop_
_geom_bond_atom_site_label_1
_geom_bond_atom_site_label_2
_geom_bond_distance
_geom_bond_site_symmetry_2
Lu0 Se3 2.856874 1_545
Lu0 Se3 2.856874 1_645
Lu0 Se3 2.863571 1_555
Lu0 Se3 2.863571 1_655
Lu0 Se0 2.984776 1_555
Lu1 Se2 2.856874 1_555
Lu1 Se2 2.856874 1_655
Lu1 Se2 2.863571 1_645
Lu1 Se2 2.863571 1_545
Lu1 Se1 2.984776 1_555
Lu2 Se1 2.856874 1_465
Lu2 Se1 2.856874 1_565
Lu2 Se1 2.863571 1_455
Lu2 Se1 2.863571 1_555
Lu2 Se2 2.984776 1_555
Lu3 Se0 2.856874 1_455
Lu3 Se0 2.856874 1_555
Lu3 Se0 2.863571 1_565
Lu3 Se0 2.863571 1_465
Lu3 Se3 2.984776 1_555
As0 As2 2.627140 1_445
As0 As2 2.627140 1_545
As0 As2 2.841973 1_555
As0 As2 2.841973 1_455
As0 Lu3 3.042951 1_545
As0 Lu1 3.089588 1_555
As0 Lu1 3.089588 1_455
As0 Lu3 3.094057 1_555
As1 As3 2.627140 1_554
As1 As3 2.627140 1_454
As1 As3 2.841973 1_444
As1 As3 2.841973 1_544
As1 Lu2 3.042951 1_555
As1 Lu0 3.089588 1_454
As1 Lu0 3.089588 1_554
As1 Lu2 3.094057 1_545
As2 Lu1 3.042951 1_565
As2 Lu3 3.089588 1_555
As2 Lu3 3.089588 1_655
As2 Lu1 3.094057 1_555
As3 Lu0 3.042951 1_555
As3 Lu2 3.089588 1_656
As3 Lu2 3.089588 1_556
As3 Lu0 3.094057 1_565
