# generated using pymatgen
data_Zn4SO14
_symmetry_space_group_name_H-M   'P 1'
_cell_length_a   8.26120751
_cell_length_b   8.26120714
_cell_length_c   10.30359400
_cell_angle_alpha   90.00000000
_cell_angle_beta   90.00000000
_cell_angle_gamma   120.00000258
_symmetry_Int_Tables_number   1
_chemical_formula_structural   Zn4SO14
_chemical_formula_sum   'Zn8 S2 O28'
_cell_volume   608.98472648
_cell_formula_units_Z   2
loop_
 _symmetry_equiv_pos_site_id
 _symmetry_equiv_pos_as_xyz
  1  'x, y, z'
loop_
 _atom_site_type_symbol
 _atom_site_label
 _atom_site_symmetry_multiplicity
 _atom_site_fract_x
 _atom_site_fract_y
 _atom_site_fract_z
 _atom_site_occupancy
  Zn  Zn0  1  0.00000000  0.00000000  0.81598600  1
  Zn  Zn1  1  0.00000000  0.00000000  0.18401400  1
  Zn  Zn2  1  0.58171000  0.71000100  0.99353400  1
  Zn  Zn3  1  0.41829000  0.28999900  0.00646600  1
  Zn  Zn4  1  0.12829100  0.41829000  0.99353400  1
  Zn  Zn5  1  0.87170900  0.58171000  0.00646600  1
  Zn  Zn6  1  0.28999900  0.87170900  0.99353400  1
  Zn  Zn7  1  0.71000100  0.12829100  0.00646600  1
  S  S0  1  0.66666700  0.33333300  0.69230900  1
  S  S1  1  0.33333300  0.66666700  0.30769100  1
  O  O0  1  0.79740700  0.27339600  0.64020700  1
  O  O1  1  0.20259300  0.72660400  0.35979300  1
  O  O2  1  0.47599000  0.20259300  0.64020700  1
  O  O3  1  0.52401000  0.79740700  0.35979300  1
  O  O4  1  0.72660400  0.52401000  0.64020700  1
  O  O5  1  0.27339600  0.47599000  0.35979300  1
  O  O6  1  0.93278000  0.17458400  0.89904900  1
  O  O7  1  0.06722000  0.82541600  0.10095100  1
  O  O8  1  0.24180400  0.06722000  0.89904900  1
  O  O9  1  0.75819600  0.93278000  0.10095100  1
  O  O10  1  0.82541600  0.75819600  0.89904900  1
  O  O11  1  0.17458400  0.24180400  0.10095100  1
  O  O12  1  0.52111900  0.89151500  0.91927400  1
  O  O13  1  0.47888100  0.10848500  0.08072600  1
  O  O14  1  0.37039600  0.47888100  0.91927400  1
  O  O15  1  0.62960400  0.52111900  0.08072600  1
  O  O16  1  0.10848500  0.62960400  0.91927400  1
  O  O17  1  0.89151500  0.37039600  0.08072600  1
  O  O18  1  0.77726200  0.99470400  0.72488500  1
  O  O19  1  0.22273800  0.00529600  0.27511500  1
  O  O20  1  0.21744200  0.22273800  0.72488500  1
  O  O21  1  0.78255800  0.77726200  0.27511500  1
  O  O22  1  0.00529600  0.78255800  0.72488500  1
  O  O23  1  0.99470400  0.21744200  0.27511500  1
  O  O24  1  0.00000000  0.00000000  0.55833800  1
  O  O25  1  0.00000000  0.00000000  0.44166200  1
  O  O26  1  0.66666700  0.33333300  0.83702200  1
  O  O27  1  0.33333300  0.66666700  0.16297800  1
loop_
_geom_bond_atom_site_label_1
_geom_bond_atom_site_label_2
_geom_bond_distance
_geom_bond_site_symmetry_2
O0 S0 1.494898 1_555
O1 S1 1.494898 1_555
O2 S0 1.494898 1_555
O3 S1 1.494898 1_555
O4 S0 1.494898 1_555
O5 S1 1.494898 1_555
O6 Zn0 1.980387 1_655
O6 Zn7 2.013588 1_556
O6 Zn4 2.087606 1_655
O7 Zn1 1.980387 1_565
O7 Zn6 2.013588 1_554
O7 Zn5 2.087606 1_455
O8 Zn0 1.980387 1_555
O8 Zn3 2.013588 1_556
O8 Zn6 2.087606 1_545
O9 Zn1 1.980387 1_665
O9 Zn2 2.013588 1_554
O9 Zn7 2.087606 1_565
O10 Zn0 1.980386 1_665
O10 Zn5 2.013588 1_556
O10 Zn2 2.087606 1_555
O11 Zn1 1.980386 1_555
O11 Zn4 2.013588 1_554
O11 Zn3 2.087606 1_555
O12 Zn2 1.958359 1_555
O12 Zn6 1.986291 1_555
O12 Zn7 2.003964 1_566
O13 Zn3 1.958359 1_555
O13 Zn7 1.986291 1_555
O13 Zn6 2.003964 1_544
O14 Zn4 1.958359 1_555
O14 Zn2 1.986291 1_555
O14 Zn3 2.003964 1_556
O15 Zn5 1.958359 1_555
O15 Zn3 1.986291 1_555
O15 Zn2 2.003964 1_554
O16 Zn6 1.958359 1_555
O16 Zn4 1.986291 1_555
O16 Zn5 2.003964 1_456
O17 Zn7 1.958359 1_555
O17 Zn5 1.986291 1_555
O17 Zn4 2.003964 1_654
O18 Zn0 2.046562 1_665
O19 Zn1 2.046562 1_555
O20 Zn0 2.046562 1_555
O21 Zn1 2.046562 1_665
O22 Zn0 2.046562 1_565
O23 Zn1 2.046562 1_655
O24 O25 1.202182 1_555
O26 S0 1.491064 1_555
O27 S1 1.491064 1_555
