# generated using pymatgen
data_Li32Ti3Cr13O48
_symmetry_space_group_name_H-M   'P 1'
_cell_length_a   5.05992900
_cell_length_b   8.75030630
_cell_length_c   19.52877393
_cell_angle_alpha   98.27646178
_cell_angle_beta   94.91990402
_cell_angle_gamma   89.83269539
_symmetry_Int_Tables_number   1
_chemical_formula_structural   Li32Ti3Cr13O48
_chemical_formula_sum   'Li32 Ti3 Cr13 O48'
_cell_volume   852.45768879
_cell_formula_units_Z   1
loop_
 _symmetry_equiv_pos_site_id
 _symmetry_equiv_pos_as_xyz
  1  'x, y, z'
loop_
 _atom_site_type_symbol
 _atom_site_label
 _atom_site_symmetry_multiplicity
 _atom_site_fract_x
 _atom_site_fract_y
 _atom_site_fract_z
 _atom_site_occupancy
  Li  Li0  1  0.99138200  0.17293600  0.24952800  1
  Li  Li1  1  0.87680600  0.37488500  0.37426200  1
  Li  Li2  1  0.74688500  0.25067800  0.99979400  1
  Li  Li3  1  0.74023300  0.91895600  0.00096600  1
  Li  Li4  1  0.99045900  0.16881900  0.74998900  1
  Li  Li5  1  0.75472300  0.57997200  0.50048100  1
  Li  Li6  1  0.87330500  0.37510100  0.87582200  1
  Li  Li7  1  0.74437700  0.25193700  0.50049400  1
  Li  Li8  1  0.74361500  0.92205200  0.50020200  1
  Li  Li9  1  0.62530900  0.12521600  0.12518600  1
  Li  Li10  1  0.75829800  0.58049000  0.00060200  1
  Li  Li11  1  0.50817200  0.33327300  0.25003200  1
  Li  Li12  1  0.62587700  0.12589800  0.62524200  1
  Li  Li13  1  0.50374800  0.99899400  0.25007300  1
  Li  Li14  1  0.48542700  0.66579400  0.24949400  1
  Li  Li15  1  0.51521200  0.33058300  0.75047700  1
  Li  Li16  1  0.37635300  0.87414800  0.37504300  1
  Li  Li17  1  0.49134900  0.00239300  0.75006900  1
  Li  Li18  1  0.24484800  0.75334500  0.00071200  1
  Li  Li19  1  0.49205300  0.66883600  0.74966700  1
  Li  Li20  1  0.24250300  0.41943100  0.99948900  1
  Li  Li21  1  0.37355500  0.87598000  0.87483900  1
  Li  Li22  1  0.25561600  0.07818800  0.49924300  1
  Li  Li23  1  0.25781800  0.74673300  0.49967300  1
  Li  Li24  1  0.12482300  0.62495900  0.12495700  1
  Li  Li25  1  0.24265200  0.42304900  0.50012200  1
  Li  Li26  1  0.01039400  0.83012800  0.25009800  1
  Li  Li27  1  0.26327500  0.07934900  0.00009600  1
  Li  Li28  1  0.12741100  0.62469400  0.62422700  1
  Li  Li29  1  0.00447500  0.49694300  0.24961200  1
  Li  Li30  1  0.01004200  0.82954800  0.75036000  1
  Li  Li31  1  0.00061900  0.49899600  0.74994100  1
  Ti  Ti0  1  0.87500200  0.71213800  0.37645600  1
  Ti  Ti1  1  0.87383900  0.03727400  0.87339200  1
  Ti  Ti2  1  0.12869100  0.28853900  0.62651600  1
  Cr  Cr0  1  0.87395300  0.04729200  0.37474600  1
  Cr  Cr1  1  0.87623000  0.70267600  0.87527200  1
  Cr  Cr2  1  0.61496100  0.78853500  0.12377100  1
  Cr  Cr3  1  0.63517000  0.46142400  0.12660400  1
  Cr  Cr4  1  0.62240700  0.79666700  0.62418200  1
  Cr  Cr5  1  0.62858900  0.46151400  0.62500400  1
  Cr  Cr6  1  0.38027500  0.53836100  0.37466300  1
  Cr  Cr7  1  0.37004600  0.20301000  0.37355900  1
  Cr  Cr8  1  0.38003300  0.54760300  0.87644200  1
  Cr  Cr9  1  0.36908900  0.21213900  0.87536000  1
  Cr  Cr10  1  0.11375300  0.96048300  0.12389500  1
  Cr  Cr11  1  0.13677900  0.28947100  0.12605200  1
  Cr  Cr12  1  0.12183100  0.95235800  0.62451300  1
  O  O0  1  0.96469900  0.10144000  0.06812400  1
  O  O1  1  0.92026900  0.78161700  0.06896200  1
  O  O2  1  0.92133000  0.42522900  0.06854600  1
  O  O3  1  0.96420300  0.10381800  0.56863600  1
  O  O4  1  0.82797000  0.96213600  0.18054800  1
  O  O5  1  0.83004800  0.31887100  0.18215000  1
  O  O6  1  0.93622500  0.78804300  0.56850700  1
  O  O7  1  0.91929500  0.42919100  0.56732400  1
  O  O8  1  0.78573600  0.63807100  0.18180700  1
  O  O9  1  0.71505800  0.85944300  0.31811800  1
  O  O10  1  0.81376400  0.95960500  0.68152400  1
  O  O11  1  0.82622800  0.32066200  0.68395200  1
  O  O12  1  0.67065400  0.53291200  0.31845500  1
  O  O13  1  0.68464800  0.17461600  0.31715000  1
  O  O14  1  0.78421000  0.64102800  0.67977900  1
  O  O15  1  0.71219800  0.85221900  0.81820900  1
  O  O16  1  0.46294900  0.61215300  0.06873400  1
  O  O17  1  0.57503200  0.71750600  0.43250600  1
  O  O18  1  0.56519200  0.07771100  0.43234400  1
  O  O19  1  0.68833300  0.53749500  0.81893700  1
  O  O20  1  0.67408600  0.17949700  0.81795600  1
  O  O21  1  0.42108700  0.93142700  0.06784400  1
  O  O22  1  0.42323700  0.28821400  0.06950000  1
  O  O23  1  0.53262500  0.39444900  0.42982200  1
  O  O24  1  0.46080000  0.61122900  0.56879500  1
  O  O25  1  0.56347500  0.71343500  0.93147200  1
  O  O26  1  0.56899500  0.07488100  0.93248800  1
  O  O27  1  0.32820500  0.82463700  0.18158400  1
  O  O28  1  0.32867600  0.46816800  0.18095800  1
  O  O29  1  0.43447000  0.92516500  0.56746600  1
  O  O30  1  0.43154600  0.28750800  0.56851100  1
  O  O31  1  0.53862000  0.39865800  0.93184100  1
  O  O32  1  0.28620600  0.14807400  0.18140600  1
  O  O33  1  0.21188000  0.35214400  0.31855600  1
  O  O34  1  0.31374900  0.82480800  0.68230200  1
  O  O35  1  0.32592400  0.46671000  0.68150800  1
  O  O36  1  0.18102000  0.67554900  0.31735900  1
  O  O37  1  0.18553600  0.03724000  0.31811300  1
  O  O38  1  0.28767700  0.13973900  0.68160700  1
  O  O39  1  0.21756200  0.35586200  0.82007500  1
  O  O40  1  0.07567900  0.57037000  0.43195000  1
  O  O41  1  0.06215900  0.21211000  0.43097900  1
  O  O42  1  0.18500500  0.67244900  0.81737600  1
  O  O43  1  0.17460000  0.03305200  0.81741400  1
  O  O44  1  0.03791600  0.89726400  0.43141500  1
  O  O45  1  0.06479700  0.57495800  0.93293700  1
  O  O46  1  0.07967400  0.21688700  0.93199300  1
  O  O47  1  0.03448100  0.88996400  0.93124100  1
loop_
_geom_bond_atom_site_label_1
_geom_bond_atom_site_label_2
_geom_bond_distance
_geom_bond_site_symmetry_2
Li0 O32 2.073102 1_655
Li0 O5 2.078905 1_555
Li0 O37 2.096256 1_655
Li0 O13 2.121046 1_555
Li0 O33 2.159782 1_655
Li0 O4 2.236794 1_545
Li1 O33 2.085590 1_655
Li1 O41 2.098414 1_655
Li1 O12 2.101996 1_555
Li1 O40 2.113900 1_655
Li1 O23 2.123300 1_555
Li1 O13 2.126389 1_555
Li2 O26 2.031551 1_555
Li2 O2 2.031964 1_556
Li2 O31 2.189772 1_555
Li2 O22 2.212082 1_556
Li2 O0 2.222980 1_556
Li2 O46 2.223259 1_655
Li3 O1 2.069516 1_555
Li3 O47 2.093146 1_654
Li3 O21 2.155255 1_555
Li3 O0 2.170708 1_565
Li3 O26 2.172625 1_564
Li3 O25 2.230339 1_554
Li4 O43 2.060756 1_655
Li4 O38 2.086678 1_655
Li4 O11 2.102878 1_555
Li4 O20 2.158937 1_555
Li4 O39 2.229086 1_655
Li4 O10 2.244607 1_545
Li5 O17 2.069712 1_555
Li5 O24 2.073487 1_555
Li5 O7 2.107400 1_555
Li5 O40 2.185231 1_655
Li5 O23 2.214075 1_555
Li5 O6 2.242163 1_555
Li6 O31 2.087579 1_555
Li6 O19 2.097063 1_555
Li6 O46 2.107748 1_655
Li6 O20 2.116729 1_555
Li6 O45 2.122311 1_655
Li6 O39 2.125704 1_655
Li7 O7 2.029642 1_555
Li7 O18 2.033334 1_555
Li7 O30 2.146054 1_555
Li7 O41 2.187426 1_655
Li7 O23 2.200432 1_555
Li7 O3 2.218591 1_555
Li8 O6 2.079628 1_555
Li8 O44 2.080016 1_655
Li8 O29 2.124859 1_555
Li8 O3 2.168900 1_565
Li8 O18 2.175696 1_565
Li8 O17 2.193892 1_555
Li9 O32 2.108887 1_555
Li9 O5 2.109994 1_555
Li9 O21 2.112417 1_545
Li9 O0 2.119801 1_555
Li9 O4 2.121845 1_545
Li9 O22 2.123593 1_555
Li10 O16 2.076768 1_555
Li10 O25 2.089213 1_554
Li10 O45 2.118093 1_654
Li10 O2 2.147442 1_555
Li10 O1 2.166920 1_555
Li10 O31 2.170131 1_554
Li11 O28 2.068765 1_555
Li11 O33 2.084401 1_555
Li11 O12 2.158935 1_555
Li11 O5 2.178724 1_555
Li11 O13 2.181432 1_555
Li11 O32 2.193369 1_555
Li12 O38 2.106713 1_555
Li12 O30 2.109538 1_555
Li12 O3 2.109772 1_555
Li12 O11 2.120113 1_555
Li12 O10 2.121881 1_545
Li12 O29 2.132649 1_545
Li13 O27 2.030326 1_555
Li13 O13 2.034295 1_565
Li13 O9 2.148481 1_555
Li13 O37 2.169300 1_565
Li13 O4 2.211729 1_555
Li13 O32 2.225677 1_565
Li14 O12 2.066892 1_555
Li14 O8 2.089302 1_555
Li14 O36 2.110219 1_555
Li14 O28 2.137867 1_555
Li14 O27 2.160285 1_555
Li14 O9 2.260078 1_555
Li15 O35 2.093856 1_555
Li15 O39 2.104084 1_555
Li15 O20 2.108141 1_555
Li15 O11 2.118806 1_555
Li15 O19 2.223581 1_555
Li15 O38 2.241009 1_555
Li16 O17 2.095215 1_555
Li16 O44 2.107752 1_555
Li16 O37 2.114122 1_565
Li16 O9 2.115158 1_555
Li16 O36 2.126331 1_555
Li16 O18 2.142592 1_565
Li17 O34 2.045910 1_545
Li17 O20 2.054455 1_555
Li17 O38 2.124377 1_555
Li17 O43 2.151239 1_555
Li17 O10 2.195497 1_545
Li17 O15 2.232949 1_545
Li18 O21 2.040003 1_555
Li18 O45 2.055488 1_554
Li18 O47 2.148149 1_554
Li18 O16 2.173008 1_555
Li18 O25 2.187305 1_554
Li18 O1 2.193885 1_455
Li19 O19 2.085099 1_555
Li19 O14 2.087025 1_555
Li19 O42 2.122088 1_555
Li19 O34 2.171057 1_555
Li19 O15 2.178013 1_555
Li19 O35 2.178417 1_555
Li20 O22 2.062844 1_556
Li20 O31 2.071737 1_555
Li20 O45 2.156707 1_555
Li20 O46 2.169574 1_555
Li20 O2 2.195000 1_456
Li20 O16 2.238846 1_556
Li21 O43 2.098129 1_565
Li21 O25 2.105290 1_555
Li21 O47 2.110900 1_555
Li21 O15 2.111671 1_555
Li21 O26 2.128268 1_565
Li21 O42 2.142946 1_555
Li22 O3 2.077092 1_455
Li22 O41 2.080354 1_555
Li22 O18 2.123669 1_555
Li22 O44 2.151854 1_545
Li22 O29 2.164875 1_545
Li22 O30 2.250947 1_555
Li23 O40 2.047362 1_555
Li23 O29 2.049277 1_555
Li23 O24 2.121035 1_555
Li23 O17 2.150434 1_555
Li23 O6 2.194864 1_455
Li23 O44 2.234385 1_555
Li24 O28 2.091052 1_555
Li24 O1 2.091722 1_455
Li24 O16 2.104974 1_555
Li24 O8 2.116237 1_455
Li24 O2 2.142405 1_455
Li24 O27 2.143325 1_555
Li25 O30 2.081911 1_555
Li25 O23 2.084386 1_555
Li25 O40 2.107795 1_555
Li25 O7 2.179388 1_455
Li25 O24 2.202109 1_555
Li25 O41 2.268265 1_555
Li26 O4 2.064340 1_455
Li26 O9 2.074518 1_455
Li26 O36 2.147199 1_555
Li26 O27 2.174541 1_555
Li26 O37 2.224515 1_565
Li26 O8 2.236278 1_455
Li27 O46 2.079096 1_554
Li27 O0 2.086468 1_455
Li27 O21 2.090264 1_545
Li27 O26 2.114900 1_554
Li27 O22 2.222546 1_555
Li27 O47 2.235445 1_544
Li28 O24 2.075281 1_555
Li28 O35 2.101355 1_555
Li28 O6 2.102878 1_455
Li28 O14 2.118984 1_455
Li28 O34 2.120359 1_555
Li28 O7 2.129041 1_455
Li29 O5 2.039646 1_455
Li29 O36 2.049643 1_555
Li29 O8 2.171360 1_455
Li29 O33 2.181860 1_555
Li29 O28 2.197640 1_555
Li29 O12 2.241474 1_455
Li30 O10 2.072057 1_455
Li30 O15 2.081190 1_455
Li30 O34 2.112782 1_555
Li30 O42 2.167573 1_555
Li30 O43 2.174703 1_565
Li30 O14 2.238988 1_455
Li31 O11 2.026937 1_455
Li31 O42 2.032345 1_555
Li31 O19 2.158068 1_455
Li31 O35 2.200250 1_555
Li31 O14 2.201367 1_455
Li31 O39 2.208505 1_555
Cr0 O41 1.888250 1_655
Cr0 O13 1.895695 1_555
Cr0 O44 1.972531 1_645
Cr0 O9 1.975631 1_545
Cr0 O37 1.996700 1_655
Cr0 O18 1.997417 1_555
Cr1 O19 1.890556 1_555
Cr1 O45 1.897183 1_655
Cr1 O47 1.965564 1_655
Cr1 O15 1.974292 1_555
Cr1 O25 1.996263 1_555
Cr1 O42 2.000955 1_655
Cr2 O16 1.875220 1_555
Cr2 O27 1.911911 1_555
Cr2 O1 1.949426 1_555
Cr2 O21 1.980101 1_555
Cr2 O4 2.004568 1_555
Cr2 O8 2.004905 1_555
Cr3 O8 1.875660 1_555
Cr3 O2 1.912565 1_555
Cr3 O28 1.949124 1_555
Cr3 O5 1.975821 1_555
Cr3 O22 2.002125 1_555
Cr3 O16 2.007395 1_555
Cr4 O29 1.888643 1_555
Cr4 O10 1.893863 1_555
Cr4 O24 1.955073 1_555
Cr4 O14 1.992633 1_555
Cr4 O6 1.995261 1_555
Cr4 O34 2.002352 1_555
Cr5 O14 1.900184 1_555
Cr5 O7 1.924206 1_555
Cr5 O35 1.959609 1_555
Cr5 O30 1.966241 1_555
Cr5 O24 1.972214 1_555
Cr5 O11 2.012006 1_555
Cr6 O23 1.892825 1_555
Cr6 O12 1.904509 1_555
Cr6 O36 1.973840 1_555
Cr6 O40 1.976983 1_555
Cr6 O33 1.978803 1_555
Cr6 O17 2.003173 1_555
Cr7 O37 1.878950 1_555
Cr7 O18 1.912230 1_555
Cr7 O33 1.935773 1_555
Cr7 O41 1.990972 1_555
Cr7 O23 2.003302 1_555
Cr7 O13 2.007227 1_555
Cr8 O25 1.873477 1_555
Cr8 O42 1.912859 1_555
Cr8 O31 1.940082 1_555
Cr8 O19 1.993381 1_555
Cr8 O39 2.005905 1_555
Cr8 O45 2.010563 1_555
Cr9 O39 1.891664 1_555
Cr9 O46 1.906213 1_555
Cr9 O26 1.973685 1_555
Cr9 O20 1.980389 1_555
Cr9 O31 1.985904 1_555
Cr9 O43 2.003037 1_555
Cr10 O0 1.875310 1_465
Cr10 O4 1.893402 1_455
Cr10 O21 1.972473 1_555
Cr10 O1 1.975946 1_455
Cr10 O32 2.006684 1_565
Cr10 O27 2.006989 1_555
Cr11 O32 1.873621 1_555
Cr11 O22 1.895181 1_555
Cr11 O5 1.970622 1_455
Cr11 O28 1.971072 1_555
Cr11 O2 2.006814 1_455
Cr11 O0 2.012101 1_455
Cr12 O6 1.877364 1_455
Cr12 O34 1.905425 1_555
Cr12 O3 1.960679 1_465
Cr12 O10 1.987513 1_455
Cr12 O38 1.989226 1_565
Cr12 O29 2.005997 1_555
O3 Ti2 1.975724 1_655
O7 Ti2 2.040944 1_655
O9 Ti0 1.967961 1_555
O11 Ti2 1.969907 1_655
O12 Ti0 2.027014 1_555
O15 Ti1 1.951036 1_565
O17 Ti0 1.942648 1_555
O20 Ti1 1.983739 1_555
O26 Ti1 2.003119 1_555
O30 Ti2 1.981488 1_555
O35 Ti2 1.980695 1_555
O36 Ti0 2.007316 1_455
O38 Ti2 1.936149 1_555
O40 Ti0 1.983770 1_455
O43 Ti1 1.945707 1_455
O44 Ti0 1.952194 1_455
O46 Ti1 2.037607 1_455
O47 Ti1 1.963194 1_465
