# generated using pymatgen
data_Er4MgCo
_symmetry_space_group_name_H-M   'P 1'
_cell_length_a   9.44863109
_cell_length_b   9.44863206
_cell_length_c   9.44867072
_cell_angle_alpha   59.99882870
_cell_angle_beta   59.99875520
_cell_angle_gamma   59.99880679
_symmetry_Int_Tables_number   1
_chemical_formula_structural   Er4MgCo
_chemical_formula_sum   'Er16 Mg4 Co4'
_cell_volume   596.46051619
_cell_formula_units_Z   4
loop_
 _symmetry_equiv_pos_site_id
 _symmetry_equiv_pos_as_xyz
  1  'x, y, z'
loop_
 _atom_site_type_symbol
 _atom_site_label
 _atom_site_symmetry_multiplicity
 _atom_site_fract_x
 _atom_site_fract_y
 _atom_site_fract_z
 _atom_site_occupancy
  Er  Er0  1  0.59339638  0.59339612  0.59339616  1
  Er  Er1  1  0.59339560  0.59339470  0.21981294  1
  Er  Er2  1  0.59339673  0.21981103  0.59339611  1
  Er  Er3  1  0.21981122  0.59339575  0.59339598  1
  Er  Er4  1  0.06391588  0.43608307  0.43608545  1
  Er  Er5  1  0.43608476  0.06391638  0.06391395  1
  Er  Er6  1  0.43608508  0.06391589  0.43608377  1
  Er  Er7  1  0.06391793  0.43608228  0.06391502  1
  Er  Er8  1  0.43608615  0.43608331  0.06391398  1
  Er  Er9  1  0.06391413  0.06391534  0.43608437  1
  Er  Er10  1  0.18789274  0.81210500  0.81211008  1
  Er  Er11  1  0.81210862  0.18789101  0.18789093  1
  Er  Er12  1  0.81210557  0.18789485  0.81210769  1
  Er  Er13  1  0.18788958  0.81210951  0.18789018  1
  Er  Er14  1  0.81210990  0.81210737  0.18789212  1
  Er  Er15  1  0.18789238  0.18789372  0.81210745  1
  Mg  Mg0  1  0.82855045  0.82854915  0.82855146  1
  Mg  Mg1  1  0.82858454  0.82858363  0.51428528  1
  Mg  Mg2  1  0.82858380  0.51428726  0.82858370  1
  Mg  Mg3  1  0.51427823  0.82858574  0.82858759  1
  Co  Co0  1  0.39040998  0.39040671  0.39041128  1
  Co  Co1  1  0.39041022  0.39040920  0.82877257  1
  Co  Co2  1  0.39040856  0.82877552  0.39040532  1
  Co  Co3  1  0.82877354  0.39040843  0.39040863  1
loop_
_geom_bond_atom_site_label_1
_geom_bond_atom_site_label_2
_geom_bond_distance
_geom_bond_site_symmetry_2
Er0 Er12 3.414017 1_555
Er0 Er10 3.414031 1_555
Er0 Er14 3.414046 1_555
Er0 Mg1 3.471484 1_555
Er0 Mg2 3.471497 1_555
Er0 Mg3 3.471507 1_555
Er1 Er11 3.414062 1_555
Er1 Er13 3.414084 1_555
Er1 Er14 3.414133 1_555
Er1 Mg0 3.471142 1_554
Er1 Mg2 3.471151 1_554
Er1 Mg3 3.471163 1_554
Er2 Mg1 3.471140 1_545
Er2 Mg0 3.471143 1_545
Er2 Mg3 3.471153 1_545
Er3 Mg2 3.471128 1_455
Er3 Mg0 3.471133 1_455
Er3 Mg1 3.471135 1_455
Er4 Mg1 3.477723 1_455
Er4 Mg2 3.477733 1_455
Er5 Mg3 3.477451 1_544
Er5 Mg0 3.477679 1_544
Er6 Mg1 3.477722 1_545
Er6 Mg3 3.477736 1_545
Er7 Mg2 3.477475 1_454
Er7 Mg0 3.477693 1_454
Er8 Mg3 3.477707 1_554
Er8 Mg2 3.477714 1_554
Er9 Mg1 3.477447 1_445
Er9 Mg0 3.477689 1_445
Er10 Mg3 3.247082 1_555
Er10 Mg0 3.247366 1_455
Er10 Er3 3.414122 1_555
Er10 Er8 3.546445 1_556
Er10 Er7 3.546463 1_556
Er10 Er6 3.546484 1_565
Er10 Er9 3.546519 1_565
Er10 Er14 3.550570 1_456
Er10 Er12 3.550623 1_465
Er10 Er13 3.550629 1_556
Er10 Er15 3.550675 1_565
Er11 Mg1 3.246875 1_545
Er11 Mg2 3.246884 1_554
Er11 Er2 3.414080 1_555
Er11 Er6 3.546470 1_555
Er11 Er8 3.546476 1_555
Er11 Er9 3.546517 1_655
Er11 Er7 3.546518 1_655
Er11 Er13 3.550554 1_645
Er11 Er15 3.550581 1_654
Er11 Er14 3.550630 1_545
Er11 Er12 3.550648 1_554
Er12 Mg2 3.247127 1_555
Er12 Mg0 3.247386 1_545
Er12 Er2 3.414111 1_555
Er12 Er8 3.546421 1_556
Er12 Er4 3.546449 1_655
Er12 Er5 3.546464 1_556
Er12 Er9 3.546500 1_655
Er12 Er14 3.550608 1_546
Er12 Er15 3.550664 1_655
Er13 Mg3 3.246824 1_554
Er13 Mg1 3.246862 1_455
Er13 Er3 3.414093 1_555
Er13 Er4 3.546488 1_555
Er13 Er8 3.546499 1_555
Er13 Er9 3.546524 1_565
Er13 Er5 3.546528 1_565
Er13 Er15 3.550584 1_564
Er13 Er14 3.550605 1_455
Er14 Mg1 3.247129 1_555
Er14 Mg0 3.247379 1_554
Er14 Er4 3.546462 1_655
Er14 Er6 3.546464 1_565
Er14 Er7 3.546494 1_655
Er14 Er5 3.546501 1_565
Er15 Mg3 3.246835 1_545
Er15 Mg2 3.246871 1_455
Er15 Er3 3.414039 1_555
Er15 Er2 3.414050 1_555
Er15 Er4 3.546480 1_555
Er15 Er6 3.546496 1_555
Er15 Er7 3.546497 1_556
Er15 Er5 3.546512 1_556
Mg0 Mg2 2.969035 1_555
Mg0 Mg1 2.969074 1_555
Mg0 Mg3 2.969099 1_555
Mg1 Mg2 2.969634 1_555
Mg1 Mg3 2.969696 1_555
Mg2 Mg3 2.969670 1_555
Co0 Er6 2.722606 1_555
Co0 Er4 2.722626 1_555
Co0 Er8 2.722662 1_555
Co0 Er2 2.729576 1_555
Co0 Er1 2.729579 1_555
Co0 Er3 2.729585 1_555
Co0 Er15 3.407554 1_555
Co0 Er11 3.407572 1_555
Co0 Er13 3.407613 1_555
Co1 Er7 2.722582 1_556
Co1 Er5 2.722586 1_556
Co1 Er8 2.722644 1_556
Co1 Er0 2.729563 1_555
Co1 Er2 2.729585 1_555
Co1 Er3 2.729594 1_555
Co1 Er12 3.407558 1_555
Co1 Er10 3.407569 1_555
Co1 Er15 3.407649 1_555
Co2 Er5 2.722580 1_565
Co2 Er9 2.722586 1_565
Co2 Er6 2.722657 1_565
Co2 Er1 2.729578 1_555
Co2 Er3 2.729598 1_555
Co2 Er0 2.729606 1_555
Co2 Er14 3.407598 1_555
Co2 Er10 3.407635 1_555
Co2 Er13 3.407668 1_555
Co3 Er9 2.722581 1_655
Co3 Er7 2.722602 1_655
Co3 Er4 2.722653 1_655
Co3 Er2 2.729576 1_555
Co3 Er0 2.729580 1_555
Co3 Er1 2.729580 1_555
Co3 Er14 3.407592 1_555
Co3 Er12 3.407597 1_555
Co3 Er11 3.407669 1_555
