# generated using pymatgen
data_Na3VS2(O4F)2
_symmetry_space_group_name_H-M   'P 1'
_cell_length_a   6.59355776
_cell_length_b   8.84268074
_cell_length_c   13.80626626
_cell_angle_alpha   90.00000000
_cell_angle_beta   90.00000000
_cell_angle_gamma   90.00000000
_symmetry_Int_Tables_number   1
_chemical_formula_structural   Na3VS2(O4F)2
_chemical_formula_sum   'Na12 V4 S8 O32 F8'
_cell_volume   804.97057431
_cell_formula_units_Z   4
loop_
 _symmetry_equiv_pos_site_id
 _symmetry_equiv_pos_as_xyz
  1  'x, y, z'
loop_
 _atom_site_type_symbol
 _atom_site_label
 _atom_site_symmetry_multiplicity
 _atom_site_fract_x
 _atom_site_fract_y
 _atom_site_fract_z
 _atom_site_occupancy
  Na  Na0  1  0.52101556  0.66899488  0.90312935  1
  Na  Na1  1  0.02101556  0.83100512  0.59687065  1
  Na  Na2  1  0.47898444  0.16899488  0.59687065  1
  Na  Na3  1  0.97898444  0.33100512  0.90312935  1
  Na  Na4  1  0.47898444  0.33100512  0.09687065  1
  Na  Na5  1  0.97898444  0.16899488  0.40312935  1
  Na  Na6  1  0.52101556  0.83100512  0.40312935  1
  Na  Na7  1  0.02101556  0.66899488  0.09687065  1
  Na  Na8  1  0.75000000  -0.00000000  0.04856444  1
  Na  Na9  1  0.25000000  0.50000000  0.45143556  1
  Na  Na10  1  0.25000000  -0.00000000  0.95143556  1
  Na  Na11  1  0.75000000  0.50000000  0.54856444  1
  V  V0  1  0.75000000  -0.00000000  0.80228980  1
  V  V1  1  0.25000000  0.50000000  0.69771020  1
  V  V2  1  0.25000000  -0.00000000  0.19771020  1
  V  V3  1  0.75000000  0.50000000  0.30228980  1
  S  S0  1  0.00004920  0.69224187  0.85828389  1
  S  S1  1  0.50004920  0.80775813  0.64171611  1
  S  S2  1  -0.00004920  0.19224187  0.64171611  1
  S  S3  1  0.49995080  0.30775813  0.85828389  1
  S  S4  1  -0.00004920  0.30775813  0.14171611  1
  S  S5  1  0.49995080  0.19224187  0.35828389  1
  S  S6  1  0.00004920  0.80775813  0.35828389  1
  S  S7  1  0.50004920  0.69224187  0.14171611  1
  O  O0  1  0.44944878  0.44832989  0.80096353  1
  O  O1  1  0.94944878  0.05167011  0.69903647  1
  O  O2  1  0.55055122  0.94832989  0.69903647  1
  O  O3  1  0.05055122  0.55167011  0.80096353  1
  O  O4  1  0.55055122  0.55167011  0.19903647  1
  O  O5  1  0.05055122  0.94832989  0.30096353  1
  O  O6  1  0.44944878  0.05167011  0.30096353  1
  O  O7  1  0.94944878  0.44832989  0.19903647  1
  O  O8  1  0.18464359  0.76646082  0.88955112  1
  O  O9  1  0.68464359  0.73353918  0.61044888  1
  O  O10  1  0.81535641  0.26646082  0.61044888  1
  O  O11  1  0.31535641  0.23353918  0.88955112  1
  O  O12  1  0.81535641  0.23353918  0.11044888  1
  O  O13  1  0.31535641  0.26646082  0.38955112  1
  O  O14  1  0.18464359  0.73353918  0.38955112  1
  O  O15  1  0.68464359  0.76646082  0.11044888  1
  O  O16  1  0.87536459  0.64305753  0.93967394  1
  O  O17  1  0.37536459  0.85694247  0.56032606  1
  O  O18  1  0.12463541  0.14305753  0.56032606  1
  O  O19  1  0.62463541  0.35694247  0.93967394  1
  O  O20  1  0.12463541  0.35694247  0.06032606  1
  O  O21  1  0.62463541  0.14305753  0.43967394  1
  O  O22  1  0.87536459  0.85694247  0.43967394  1
  O  O23  1  0.37536459  0.64305753  0.06032606  1
  O  O24  1  0.37978485  0.71061588  0.70789330  1
  O  O25  1  0.87978485  0.78938412  0.79210670  1
  O  O26  1  0.62021515  0.21061588  0.79210670  1
  O  O27  1  0.12021515  0.28938412  0.70789330  1
  O  O28  1  0.62021515  0.28938412  0.29210670  1
  O  O29  1  0.12021515  0.21061588  0.20789330  1
  O  O30  1  0.37978485  0.78938412  0.20789330  1
  O  O31  1  0.87978485  0.71061588  0.29210670  1
  F  F0  1  0.57420157  0.93057235  0.90376330  1
  F  F1  1  0.07420157  0.56942765  0.59623670  1
  F  F2  1  0.42579843  0.43057235  0.59623670  1
  F  F3  1  0.92579843  0.06942765  0.90376330  1
  F  F4  1  0.42579843  0.06942765  0.09623670  1
  F  F5  1  0.92579843  0.43057235  0.40376330  1
  F  F6  1  0.57420157  0.56942765  0.40376330  1
  F  F7  1  0.07420157  0.93057235  0.09623670  1
loop_
_geom_bond_atom_site_label_1
_geom_bond_atom_site_label_2
_geom_bond_distance
_geom_bond_site_symmetry_2
Na0 O23 2.384343 1_556
Na0 O8 2.386833 1_555
Na0 O16 2.401256 1_555
Na0 O0 2.453511 1_555
Na1 O22 2.384343 1_455
Na1 O9 2.386833 1_455
Na1 O17 2.401256 1_555
Na1 O1 2.453511 1_465
Na2 O21 2.384343 1_555
Na2 O10 2.386833 1_555
Na2 O18 2.401256 1_555
Na2 O2 2.453511 1_545
Na3 O20 2.384343 1_656
Na3 O11 2.386833 1_655
Na3 O19 2.401256 1_555
Na3 O3 2.453511 1_655
Na4 O19 2.384343 1_554
Na4 O12 2.386833 1_555
Na4 O20 2.401256 1_555
Na4 O4 2.453511 1_555
Na5 O18 2.384343 1_655
Na5 O13 2.386833 1_655
Na5 O21 2.401256 1_555
Na5 O5 2.453511 1_645
Na6 O17 2.384343 1_555
Na6 O14 2.386833 1_555
Na6 O22 2.401256 1_555
Na6 O6 2.453511 1_565
Na7 O16 2.384343 1_454
Na7 O15 2.386833 1_455
Na7 O23 2.401256 1_555
Na7 O7 2.453511 1_455
Na8 O15 2.276044 1_545
Na8 O12 2.276044 1_555
Na9 O14 2.276044 1_555
Na9 O13 2.276044 1_555
Na10 O8 2.276044 1_545
Na10 O11 2.276044 1_555
Na11 O9 2.276044 1_555
Na11 O10 2.276044 1_555
O0 S3 1.510725 1_555
O0 V1 1.992576 1_555
O1 S2 1.510725 1_655
O1 V0 1.992576 1_555
O2 S1 1.510725 1_555
O2 V0 1.992576 1_565
O3 S0 1.510725 1_555
O3 V1 1.992576 1_555
O4 S7 1.510725 1_555
O4 V3 1.992576 1_555
O5 S6 1.510725 1_555
O5 V2 1.992576 1_565
O6 S5 1.510725 1_555
O6 V2 1.992576 1_555
O7 S4 1.510725 1_655
O7 V3 1.992576 1_555
O8 S0 1.448616 1_555
O9 S1 1.448616 1_555
O10 S2 1.448616 1_655
O11 S3 1.448616 1_555
O12 S4 1.448616 1_655
O13 S5 1.448616 1_555
O14 S6 1.448616 1_555
O15 S7 1.448616 1_555
O16 S0 1.458669 1_655
O17 S1 1.458669 1_555
O18 S2 1.458669 1_555
O19 S3 1.458669 1_555
O20 S4 1.458669 1_555
O21 S5 1.458669 1_555
O22 S6 1.458669 1_655
O23 S7 1.458669 1_555
O24 S1 1.483729 1_555
O24 V1 2.054417 1_555
O25 S0 1.483729 1_655
O25 V0 2.054417 1_565
O26 S3 1.483729 1_555
O26 V0 2.054417 1_555
O27 S2 1.483729 1_555
O27 V1 2.054417 1_555
O28 S5 1.483729 1_555
O28 V3 2.054417 1_555
O29 S4 1.483729 1_555
O29 V2 2.054417 1_555
O30 S7 1.483729 1_555
O30 V2 2.054417 1_565
O31 S6 1.483729 1_655
O31 V3 2.054417 1_555
F0 V0 1.919172 1_565
F0 Na10 2.319399 1_565
F0 Na0 2.339495 1_555
F0 Na8 2.391058 1_566
F1 V1 1.919172 1_555
F1 Na11 2.319399 1_455
F1 Na1 2.339495 1_555
F1 Na9 2.391058 1_555
F2 V1 1.919172 1_555
F2 Na11 2.319399 1_555
F2 Na2 2.339495 1_555
F2 Na9 2.391058 1_555
F3 V0 1.919172 1_555
F3 Na10 2.319399 1_655
F3 Na3 2.339495 1_555
F3 Na8 2.391058 1_556
F4 V2 1.919172 1_555
F4 Na8 2.319399 1_555
F4 Na4 2.339495 1_555
F4 Na10 2.391058 1_554
F5 V3 1.919172 1_555
F5 Na9 2.319399 1_655
F5 Na5 2.339495 1_555
F5 Na11 2.391058 1_555
F6 V3 1.919172 1_555
F6 Na9 2.319399 1_555
F6 Na6 2.339495 1_555
F6 Na11 2.391058 1_555
F7 V2 1.919172 1_565
F7 Na8 2.319399 1_465
F7 Na7 2.339495 1_555
F7 Na10 2.391058 1_564
