# generated using pymatgen
data_La4S4Cl2O
_symmetry_space_group_name_H-M   'P 1'
_cell_length_a   9.41333502
_cell_length_b   9.41333502
_cell_length_c   7.08973500
_cell_angle_alpha   90.00000000
_cell_angle_beta   90.00000000
_cell_angle_gamma   120.59986596
_symmetry_Int_Tables_number   1
_chemical_formula_structural   La4S4Cl2O
_chemical_formula_sum   'La8 S8 Cl4 O2'
_cell_volume   540.74267231
_cell_formula_units_Z   2
loop_
 _symmetry_equiv_pos_site_id
 _symmetry_equiv_pos_as_xyz
  1  'x, y, z'
loop_
 _atom_site_type_symbol
 _atom_site_label
 _atom_site_symmetry_multiplicity
 _atom_site_fract_x
 _atom_site_fract_y
 _atom_site_fract_z
 _atom_site_occupancy
  La  La0  1  0.67499700  0.32500300  0.78644800  1
  La  La1  1  0.32500300  0.67499700  0.28644800  1
  La  La2  1  0.80461600  0.19538400  0.23475300  1
  La  La3  1  0.39145800  0.18874100  0.25824200  1
  La  La4  1  0.81125900  0.60854200  0.25824200  1
  La  La5  1  0.19538400  0.80461600  0.73475300  1
  La  La6  1  0.60854200  0.81125900  0.75824200  1
  La  La7  1  0.18874100  0.39145800  0.75824200  1
  S  S0  1  0.53595600  0.46404400  0.52880800  1
  S  S1  1  0.94190300  0.46726700  0.52572400  1
  S  S2  1  0.53273300  0.05809700  0.52572400  1
  S  S3  1  0.46404400  0.53595600  0.02880800  1
  S  S4  1  0.05809700  0.53273300  0.02572400  1
  S  S5  1  0.46726700  0.94190300  0.02572400  1
  S  S6  1  0.86447400  0.13552600  0.85990200  1
  S  S7  1  0.13552600  0.86447400  0.35990200  1
  Cl  Cl0  1  0.26624900  0.13256100  0.85908500  1
  Cl  Cl1  1  0.86743900  0.73375100  0.85908500  1
  Cl  Cl2  1  0.73375100  0.86743900  0.35908500  1
  Cl  Cl3  1  0.13256100  0.26624900  0.35908500  1
  O  O0  1  0.66745500  0.33254500  0.13440800  1
  O  O1  1  0.33254500  0.66745500  0.63440800  1
loop_
_geom_bond_atom_site_label_1
_geom_bond_atom_site_label_2
_geom_bond_distance
_geom_bond_site_symmetry_2
La0 O0 2.470025 1_556
La0 S1 2.845570 1_555
La0 S2 2.845570 1_555
La0 S0 2.916611 1_555
La0 S6 3.142056 1_555
La0 S4 3.539388 1_656
La0 S5 3.539388 1_546
La1 O1 2.470025 1_555
La1 S5 2.845570 1_555
La1 S4 2.845570 1_555
La1 S3 2.916611 1_555
La1 S7 3.142056 1_555
La1 S2 3.539388 1_565
La1 S1 3.539388 1_455
La2 O0 2.353169 1_555
La2 S6 2.832141 1_554
La2 S1 3.018040 1_555
La2 S2 3.018040 1_555
La2 S4 3.203084 1_655
La2 S5 3.203084 1_545
La3 O0 2.402625 1_555
La3 S7 2.855547 1_545
La3 S2 2.922709 1_555
La3 S0 2.942287 1_555
La3 S5 3.211519 1_545
La3 S3 3.394396 1_555
La4 O0 2.402625 1_555
La4 S7 2.855547 1_655
La4 S1 2.922709 1_555
La4 S0 2.942287 1_555
La4 S4 3.211519 1_655
La4 S3 3.394396 1_555
La5 O1 2.353169 1_555
La5 S7 2.832141 1_555
La5 S5 3.018040 1_556
La5 S4 3.018040 1_556
La5 S2 3.203084 1_565
La5 S1 3.203084 1_455
La6 O1 2.402625 1_555
La6 S6 2.855547 1_565
La6 S5 2.922709 1_556
La6 S3 2.942287 1_556
La6 S2 3.211519 1_565
La6 S0 3.394396 1_555
La7 O1 2.402625 1_555
La7 S6 2.855547 1_455
La7 S4 2.922709 1_556
La7 S3 2.942287 1_556
La7 S1 3.211519 1_455
La7 S0 3.394396 1_555
Cl0 La5 2.942003 1_545
Cl0 La7 2.965321 1_555
Cl0 La3 3.007109 1_556
Cl0 La0 3.354891 1_555
Cl1 La5 2.942003 1_655
Cl1 La6 2.965321 1_555
Cl1 La4 3.007109 1_556
Cl1 La0 3.354891 1_555
Cl2 La2 2.942003 1_565
Cl2 La4 2.965321 1_555
Cl2 La6 3.007109 1_555
Cl2 La1 3.354891 1_555
Cl3 La2 2.942003 1_455
Cl3 La3 2.965321 1_555
Cl3 La7 3.007109 1_555
Cl3 La1 3.354891 1_555
