# generated using pymatgen
data_KNa3W2O17
_symmetry_space_group_name_H-M   'P 1'
_cell_length_a   9.03005609
_cell_length_b   9.03005609
_cell_length_c   11.22912100
_cell_angle_alpha   90.00000000
_cell_angle_beta   90.00000000
_cell_angle_gamma   120.00000068
_symmetry_Int_Tables_number   1
_chemical_formula_structural   KNa3W2O17
_chemical_formula_sum   'K2 Na6 W4 O34'
_cell_volume   792.97096632
_cell_formula_units_Z   2
loop_
 _symmetry_equiv_pos_site_id
 _symmetry_equiv_pos_as_xyz
  1  'x, y, z'
loop_
 _atom_site_type_symbol
 _atom_site_label
 _atom_site_symmetry_multiplicity
 _atom_site_fract_x
 _atom_site_fract_y
 _atom_site_fract_z
 _atom_site_occupancy
  K  K0  1  0.00000000  0.00000000  0.75000000  1
  K  K1  1  0.00000000  0.00000000  0.25000000  1
  Na  Na0  1  0.67918500  0.13146500  0.75000000  1
  Na  Na1  1  0.32081500  0.86853500  0.25000000  1
  Na  Na2  1  0.45227900  0.32081500  0.75000000  1
  Na  Na3  1  0.54772100  0.67918500  0.25000000  1
  Na  Na4  1  0.86853500  0.54772100  0.75000000  1
  Na  Na5  1  0.13146500  0.45227900  0.25000000  1
  W  W0  1  0.66666700  0.33333300  0.45966200  1
  W  W1  1  0.33333300  0.66666700  0.54033800  1
  W  W2  1  0.33333300  0.66666700  0.95966200  1
  W  W3  1  0.66666700  0.33333300  0.04033800  1
  O  O0  1  0.75841000  0.99747800  0.90053600  1
  O  O1  1  0.24159000  0.00252200  0.09946400  1
  O  O2  1  0.23906800  0.24159000  0.90053600  1
  O  O3  1  0.24159000  0.00252200  0.40053600  1
  O  O4  1  0.76093200  0.75841000  0.09946400  1
  O  O5  1  0.75841000  0.99747800  0.59946400  1
  O  O6  1  0.00252200  0.76093200  0.90053600  1
  O  O7  1  0.76093200  0.75841000  0.40053600  1
  O  O8  1  0.99747800  0.23906800  0.09946400  1
  O  O9  1  0.23906800  0.24159000  0.59946400  1
  O  O10  1  0.99747800  0.23906800  0.40053600  1
  O  O11  1  0.00252200  0.76093200  0.59946400  1
  O  O12  1  0.00350000  0.37266700  0.75000000  1
  O  O13  1  0.99650000  0.62733300  0.25000000  1
  O  O14  1  0.36916700  0.99650000  0.75000000  1
  O  O15  1  0.63083300  0.00350000  0.25000000  1
  O  O16  1  0.62733300  0.63083300  0.75000000  1
  O  O17  1  0.37266700  0.36916700  0.25000000  1
  O  O18  1  0.54758400  0.72591100  0.90842700  1
  O  O19  1  0.45241600  0.27408900  0.09157300  1
  O  O20  1  0.17832700  0.45241600  0.90842700  1
  O  O21  1  0.45241600  0.27408900  0.40842700  1
  O  O22  1  0.82167300  0.54758400  0.09157300  1
  O  O23  1  0.54758400  0.72591100  0.59157300  1
  O  O24  1  0.27408900  0.82167300  0.90842700  1
  O  O25  1  0.82167300  0.54758400  0.40842700  1
  O  O26  1  0.72591100  0.17832700  0.09157300  1
  O  O27  1  0.17832700  0.45241600  0.59157300  1
  O  O28  1  0.72591100  0.17832700  0.40842700  1
  O  O29  1  0.27408900  0.82167300  0.59157300  1
  O  O30  1  0.66666700  0.33333300  0.87882500  1
  O  O31  1  0.33333300  0.66666700  0.12117500  1
  O  O32  1  0.33333300  0.66666700  0.37882500  1
  O  O33  1  0.66666700  0.33333300  0.62117500  1
loop_
_geom_bond_atom_site_label_1
_geom_bond_atom_site_label_2
_geom_bond_distance
_geom_bond_site_symmetry_2
K0 O2 2.750908 1_555
K0 O9 2.750908 1_555
K0 O0 2.750908 1_445
K0 O5 2.750908 1_445
K0 O6 2.750908 1_545
K0 O11 2.750908 1_545
K1 O7 2.750908 1_445
K1 O4 2.750908 1_445
K1 O3 2.750908 1_555
K1 O1 2.750908 1_555
K1 O10 2.750908 1_455
K1 O8 2.750908 1_455
Na0 O30 2.373678 1_555
Na0 O33 2.373678 1_555
Na0 O0 2.387190 1_545
Na0 O5 2.387190 1_545
Na0 O14 2.431168 1_545
Na0 O12 2.634753 1_655
Na1 O32 2.373678 1_555
Na1 O31 2.373678 1_555
Na1 O3 2.387190 1_565
Na1 O1 2.387190 1_565
Na1 O15 2.431168 1_565
Na1 O13 2.634753 1_455
Na2 O30 2.373693 1_555
Na2 O33 2.373693 1_555
Na2 O2 2.387184 1_555
Na2 O9 2.387184 1_555
Na2 O16 2.431168 1_555
Na2 O14 2.634756 1_545
Na3 O32 2.373693 1_555
Na3 O31 2.373693 1_555
Na3 O4 2.387184 1_555
Na3 O7 2.387184 1_555
Na3 O17 2.431168 1_555
Na3 O15 2.634756 1_565
Na4 O30 2.373686 1_555
Na4 O33 2.373686 1_555
Na4 O6 2.387185 1_655
Na4 O11 2.387185 1_655
Na4 O12 2.431176 1_655
Na4 O16 2.634747 1_555
Na5 O32 2.373686 1_555
Na5 O31 2.373686 1_555
Na5 O10 2.387185 1_455
Na5 O8 2.387185 1_455
Na5 O13 2.431176 1_455
Na5 O17 2.634747 1_555
O18 W2 1.823523 1_555
O19 W3 1.823523 1_555
O20 W2 1.823521 1_555
O21 W0 1.823523 1_555
O22 W3 1.823521 1_555
O23 W1 1.823523 1_555
O24 W2 1.823515 1_555
O25 W0 1.823521 1_555
O26 W3 1.823515 1_555
O27 W1 1.823521 1_555
O28 W0 1.823515 1_555
O29 W1 1.823515 1_555
O30 W3 1.813649 1_556
O31 W2 1.813649 1_554
O32 W1 1.813649 1_555
O33 W0 1.813649 1_555
