# generated using pymatgen
data_La5CrPb3
_symmetry_space_group_name_H-M   'P 1'
_cell_length_a   9.86538523
_cell_length_b   9.86538523
_cell_length_c   6.98995800
_cell_angle_alpha   90.00000000
_cell_angle_beta   90.00000000
_cell_angle_gamma   119.99999481
_symmetry_Int_Tables_number   1
_chemical_formula_structural   La5CrPb3
_chemical_formula_sum   'La10 Cr2 Pb6'
_cell_volume   589.16008662
_cell_formula_units_Z   2
loop_
 _symmetry_equiv_pos_site_id
 _symmetry_equiv_pos_as_xyz
  1  'x, y, z'
loop_
 _atom_site_type_symbol
 _atom_site_label
 _atom_site_symmetry_multiplicity
 _atom_site_fract_x
 _atom_site_fract_y
 _atom_site_fract_z
 _atom_site_occupancy
  La  La0  1  0.74968700  0.74968700  0.75000000  1
  La  La1  1  0.25031300  0.00000000  0.75000000  1
  La  La2  1  0.00000000  0.25031300  0.75000000  1
  La  La3  1  0.25031300  0.25031300  0.25000000  1
  La  La4  1  0.74968700  0.00000000  0.25000000  1
  La  La5  1  0.00000000  0.74968700  0.25000000  1
  La  La6  1  0.66666700  0.33333300  0.00000000  1
  La  La7  1  0.33333300  0.66666700  0.00000000  1
  La  La8  1  0.33333300  0.66666700  0.50000000  1
  La  La9  1  0.66666700  0.33333300  0.50000000  1
  Cr  Cr0  1  0.00000000  0.00000000  0.00000000  1
  Cr  Cr1  1  0.00000000  0.00000000  0.50000000  1
  Pb  Pb0  1  0.39567900  0.39567900  0.75000000  1
  Pb  Pb1  1  0.60432100  0.00000000  0.75000000  1
  Pb  Pb2  1  0.00000000  0.60432100  0.75000000  1
  Pb  Pb3  1  0.60432100  0.60432100  0.25000000  1
  Pb  Pb4  1  0.39567900  0.00000000  0.25000000  1
  Pb  Pb5  1  0.00000000  0.39567900  0.25000000  1
loop_
_geom_bond_atom_site_label_1
_geom_bond_atom_site_label_2
_geom_bond_distance
_geom_bond_site_symmetry_2
La0 Pb2 3.419959 1_655
La0 Pb1 3.419959 1_565
La0 Pb0 3.492426 1_555
La0 Pb3 3.777764 1_555
La0 Pb3 3.777764 1_556
La1 Pb0 3.419959 1_555
La1 Pb2 3.419959 1_545
La1 Pb1 3.492425 1_555
La1 Pb4 3.777763 1_556
La1 Pb4 3.777763 1_555
La2 Pb0 3.419959 1_555
La2 Pb1 3.419959 1_455
La2 Pb2 3.492425 1_555
La2 Pb5 3.777763 1_555
La2 Pb5 3.777763 1_556
La3 Pb5 3.419959 1_555
La3 Pb4 3.419959 1_555
La3 Pb3 3.492426 1_555
La3 Pb0 3.777764 1_555
La3 Pb0 3.777764 1_554
La4 Pb3 3.419959 1_545
La4 Pb5 3.419959 1_655
La4 Pb4 3.492425 1_555
La4 Pb1 3.777763 1_554
La4 Pb1 3.777763 1_555
La5 Pb3 3.419959 1_455
La5 Pb4 3.419959 1_565
La5 Pb5 3.492425 1_555
La5 Pb2 3.777763 1_555
La5 Pb2 3.777763 1_554
La6 La9 3.494979 1_555
La6 La9 3.494979 1_554
La6 Pb5 3.496193 1_655
La6 Pb1 3.496193 1_554
La6 Pb4 3.496196 1_555
La6 Pb2 3.496196 1_654
La6 Pb3 3.496201 1_555
La6 Pb0 3.496201 1_554
La7 La8 3.494979 1_555
La7 La8 3.494979 1_554
La7 Pb2 3.496193 1_554
La7 Pb4 3.496193 1_565
La7 Pb5 3.496196 1_555
La7 Pb1 3.496196 1_564
La7 Pb3 3.496201 1_555
La7 Pb0 3.496201 1_554
La8 Pb2 3.496193 1_555
La8 Pb4 3.496193 1_565
La8 Pb5 3.496196 1_555
La8 Pb1 3.496196 1_565
La8 Pb0 3.496201 1_555
La8 Pb3 3.496201 1_555
La9 Pb5 3.496193 1_655
La9 Pb1 3.496193 1_555
La9 Pb2 3.496196 1_655
La9 Pb4 3.496196 1_555
La9 Pb0 3.496201 1_555
La9 Pb3 3.496201 1_555
Cr0 La2 3.025198 1_554
Cr0 La5 3.025198 1_545
Cr0 La1 3.025198 1_554
Cr0 La4 3.025198 1_455
Cr0 La0 3.025198 1_444
Cr0 La3 3.025198 1_555
Cr1 La1 3.025198 1_555
Cr1 La2 3.025198 1_555
Cr1 La5 3.025198 1_545
Cr1 La4 3.025198 1_455
Cr1 La0 3.025198 1_445
Cr1 La3 3.025198 1_555
