# generated using pymatgen
data_Mg6TiGa
_symmetry_space_group_name_H-M   'P 1'
_cell_length_a   4.84016600
_cell_length_b   6.31203500
_cell_length_c   10.89964000
_cell_angle_alpha   90.00000000
_cell_angle_beta   90.00000000
_cell_angle_gamma   90.00000000
_symmetry_Int_Tables_number   1
_chemical_formula_structural   Mg6TiGa
_chemical_formula_sum   'Mg12 Ti2 Ga2'
_cell_volume   332.99814099
_cell_formula_units_Z   2
loop_
 _symmetry_equiv_pos_site_id
 _symmetry_equiv_pos_as_xyz
  1  'x, y, z'
loop_
 _atom_site_type_symbol
 _atom_site_label
 _atom_site_symmetry_multiplicity
 _atom_site_fract_x
 _atom_site_fract_y
 _atom_site_fract_z
 _atom_site_occupancy
  Mg  Mg0  1  0.00000000  0.25382600  0.91779200  1
  Mg  Mg1  1  0.00000000  0.74617400  0.91779200  1
  Mg  Mg2  1  0.00000000  0.50000000  0.16675300  1
  Mg  Mg3  1  0.50000000  0.24443600  0.08591600  1
  Mg  Mg4  1  0.50000000  0.75556400  0.08591600  1
  Mg  Mg5  1  0.50000000  0.50000000  0.33262100  1
  Mg  Mg6  1  0.00000000  0.75382600  0.41779200  1
  Mg  Mg7  1  0.00000000  0.24617400  0.41779200  1
  Mg  Mg8  1  0.00000000  0.00000000  0.66675300  1
  Mg  Mg9  1  0.50000000  0.74443600  0.58591600  1
  Mg  Mg10  1  0.50000000  0.25556400  0.58591600  1
  Mg  Mg11  1  0.50000000  0.00000000  0.83262100  1
  Ti  Ti0  1  0.00000000  0.50000000  0.67609100  1
  Ti  Ti1  1  0.00000000  0.00000000  0.17609100  1
  Ga  Ga0  1  0.50000000  0.50000000  0.81711900  1
  Ga  Ga1  1  0.50000000  0.00000000  0.31711900  1
loop_
_geom_bond_atom_site_label_1
_geom_bond_atom_site_label_2
_geom_bond_distance
_geom_bond_site_symmetry_2
Mg0 Mg3 3.036172 1_456
Mg0 Mg3 3.036172 1_556
Mg0 Mg11 3.047215 1_555
Mg0 Mg11 3.047215 1_455
Mg0 Ti0 3.058566 1_555
Mg0 Mg1 3.107718 1_555
Mg0 Mg2 3.126983 1_556
Mg0 Mg8 3.170787 1_555
Mg0 Mg1 3.204317 1_545
Mg0 Ti1 3.239321 1_556
Mg1 Mg4 3.036172 1_556
Mg1 Mg4 3.036172 1_456
Mg1 Mg11 3.047215 1_565
Mg1 Mg11 3.047215 1_465
Mg1 Ti0 3.058566 1_555
Mg1 Mg2 3.126983 1_556
Mg1 Mg8 3.170787 1_565
Mg1 Ti1 3.239321 1_566
Mg2 Mg5 3.020813 1_555
Mg2 Mg5 3.020813 1_455
Mg2 Mg4 3.038966 1_555
Mg2 Mg3 3.038966 1_455
Mg2 Mg4 3.038966 1_455
Mg2 Mg3 3.038966 1_555
Mg2 Ti1 3.157658 1_555
Mg2 Ti1 3.157658 1_565
Mg2 Mg6 3.170787 1_555
Mg2 Mg7 3.170787 1_555
Mg3 Ti1 3.033702 1_655
Mg3 Ti1 3.033702 1_555
Mg3 Mg4 3.085777 1_545
Mg3 Mg5 3.135743 1_555
Mg3 Mg4 3.226258 1_555
Mg4 Ti1 3.033702 1_565
Mg4 Ti1 3.033702 1_665
Mg4 Mg5 3.135743 1_555
Mg5 Mg6 3.047215 1_555
Mg5 Mg6 3.047215 1_655
Mg5 Mg7 3.047215 1_655
Mg5 Mg7 3.047215 1_555
Mg5 Mg9 3.162698 1_555
Mg6 Mg9 3.036172 1_455
Mg6 Mg9 3.036172 1_555
Mg6 Ti1 3.058566 1_565
Mg6 Mg7 3.107718 1_565
Mg6 Mg8 3.126983 1_565
Mg6 Mg7 3.204317 1_555
Mg6 Ti0 3.239321 1_555
Mg7 Ti1 3.058566 1_555
Mg7 Mg8 3.126983 1_555
Mg7 Ti0 3.239321 1_555
Mg8 Mg9 3.038966 1_445
Mg8 Mg9 3.038966 1_545
Mg8 Ti0 3.157658 1_545
Mg8 Ti0 3.157658 1_555
Mg9 Ti0 3.033702 1_555
Mg9 Ti0 3.033702 1_655
Mg10 Ti0 3.033702 1_555
Mg10 Ti0 3.033702 1_655
Mg10 Mg7 3.036172 1_555
Mg10 Mg7 3.036172 1_655
Mg10 Mg8 3.038966 1_555
Mg10 Mg8 3.038966 1_655
Mg10 Mg9 3.085777 1_555
Mg10 Mg11 3.135743 1_555
Mg10 Mg5 3.162698 1_555
Mg10 Mg9 3.226258 1_545
Mg11 Mg8 3.020813 1_655
Mg11 Mg8 3.020813 1_555
Mg11 Mg9 3.135743 1_545
Mg11 Mg4 3.162698 1_546
Mg11 Mg3 3.162698 1_556
Ga0 Ti0 2.866992 1_555
Ga0 Ti0 2.866992 1_655
Ga0 Mg9 2.954836 1_555
Ga0 Mg10 2.954836 1_555
Ga0 Mg0 3.078205 1_655
Ga0 Mg1 3.078205 1_655
Ga0 Mg1 3.078205 1_555
Ga0 Mg0 3.078205 1_555
Ga0 Mg11 3.160537 1_565
Ga0 Mg11 3.160537 1_555
Ga0 Mg3 3.344526 1_556
Ga0 Mg4 3.344526 1_556
Ga1 Ti1 2.866992 1_655
Ga1 Ti1 2.866992 1_555
Ga1 Mg4 2.954836 1_545
Ga1 Mg3 2.954836 1_555
Ga1 Mg7 3.078205 1_655
Ga1 Mg7 3.078205 1_555
Ga1 Mg6 3.078205 1_645
Ga1 Mg6 3.078205 1_545
Ga1 Mg5 3.160537 1_545
Ga1 Mg5 3.160537 1_555
Ga1 Mg9 3.344526 1_545
Ga1 Mg10 3.344526 1_555
