# generated using pymatgen
data_Hf4Ni3As8
_symmetry_space_group_name_H-M   'P 1'
_cell_length_a   3.83327700
_cell_length_b   3.83327700
_cell_length_c   17.43610000
_cell_angle_alpha   90.00000000
_cell_angle_beta   90.00000000
_cell_angle_gamma   90.00000000
_symmetry_Int_Tables_number   1
_chemical_formula_structural   Hf4Ni3As8
_chemical_formula_sum   'Hf4 Ni3 As8'
_cell_volume   256.20627238
_cell_formula_units_Z   1
loop_
 _symmetry_equiv_pos_site_id
 _symmetry_equiv_pos_as_xyz
  1  'x, y, z'
loop_
 _atom_site_type_symbol
 _atom_site_label
 _atom_site_symmetry_multiplicity
 _atom_site_fract_x
 _atom_site_fract_y
 _atom_site_fract_z
 _atom_site_occupancy
  Hf  Hf0  1  0.50000000  0.00000000  0.12730600  1
  Hf  Hf1  1  0.50000000  0.00000000  0.62998100  1
  Hf  Hf2  1  0.00000000  0.50000000  0.87269400  1
  Hf  Hf3  1  0.00000000  0.50000000  0.37001900  1
  Ni  Ni0  1  0.00000000  0.00000000  0.50000000  1
  Ni  Ni1  1  0.50000000  0.50000000  0.00000000  1
  Ni  Ni2  1  0.50000000  0.50000000  0.50000000  1
  As  As0  1  0.50000000  0.00000000  0.92609600  1
  As  As1  1  0.50000000  0.00000000  0.41748200  1
  As  As2  1  0.00000000  0.50000000  0.07390400  1
  As  As3  1  0.00000000  0.50000000  0.58251800  1
  As  As4  1  0.00000000  0.00000000  0.75104600  1
  As  As5  1  0.00000000  0.00000000  0.24895400  1
  As  As6  1  0.50000000  0.50000000  0.75087600  1
  As  As7  1  0.50000000  0.50000000  0.24912400  1
loop_
_geom_bond_atom_site_label_1
_geom_bond_atom_site_label_2
_geom_bond_distance
_geom_bond_site_symmetry_2
Hf0 Ni1 2.932688 1_555
Hf0 Ni1 2.932688 1_545
Hf1 Ni2 2.968147 1_545
Hf1 Ni0 2.968147 1_655
Hf1 Ni2 2.968147 1_555
Hf1 Ni0 2.968147 1_555
Hf2 Ni1 2.932688 1_456
Hf2 Ni1 2.932688 1_556
Hf3 Ni2 2.968147 1_555
Hf3 Ni0 2.968147 1_555
Hf3 Ni0 2.968147 1_565
Hf3 Ni2 2.968147 1_455
As0 Ni1 2.309543 1_556
As0 Ni1 2.309543 1_546
As0 Hf2 2.866007 1_645
As0 Hf2 2.866007 1_555
As0 Hf2 2.866007 1_655
As0 Hf2 2.866007 1_545
As1 Ni2 2.396586 1_545
As1 Ni0 2.396586 1_655
As1 Ni2 2.396586 1_555
As1 Ni0 2.396586 1_555
As1 Hf3 2.834057 1_555
As1 Hf3 2.834057 1_655
As1 Hf3 2.834057 1_545
As1 Hf3 2.834057 1_645
As2 Ni1 2.309543 1_555
As2 Ni1 2.309543 1_455
As2 Hf0 2.866007 1_555
As2 Hf0 2.866007 1_565
As2 Hf0 2.866007 1_465
As2 Hf0 2.866007 1_455
As3 Ni0 2.396586 1_565
As3 Ni2 2.396586 1_455
As3 Ni2 2.396586 1_555
As3 Ni0 2.396586 1_555
As3 Hf1 2.834057 1_555
As3 Hf1 2.834057 1_565
As3 Hf1 2.834057 1_465
As3 Hf1 2.834057 1_455
As4 As6 2.710538 1_555
As4 As6 2.710538 1_545
As4 As6 2.710538 1_445
As4 As6 2.710538 1_455
As4 Hf1 2.851212 1_555
As4 Hf1 2.851212 1_455
As4 Hf2 2.858746 1_555
As4 Hf2 2.858746 1_545
As5 As7 2.710538 1_455
As5 As7 2.710538 1_545
As5 As7 2.710538 1_555
As5 As7 2.710538 1_445
As5 Hf3 2.851212 1_555
As5 Hf3 2.851212 1_545
As5 Hf0 2.858746 1_455
As5 Hf0 2.858746 1_555
As6 Hf1 2.849018 1_555
As6 Hf1 2.849018 1_565
As6 Hf2 2.860946 1_555
As6 Hf2 2.860946 1_655
As7 Hf3 2.849018 1_555
As7 Hf3 2.849018 1_655
As7 Hf0 2.860946 1_565
As7 Hf0 2.860946 1_555
