# generated using pymatgen
data_Zn3(PO6)2
_symmetry_space_group_name_H-M   'P 1'
_cell_length_a   5.07971200
_cell_length_b   10.66958000
_cell_length_c   18.53549000
_cell_angle_alpha   90.00000000
_cell_angle_beta   90.00000000
_cell_angle_gamma   90.00000000
_symmetry_Int_Tables_number   1
_chemical_formula_structural   Zn3(PO6)2
_chemical_formula_sum   'Zn12 P8 O48'
_cell_volume   1004.59378187
_cell_formula_units_Z   4
loop_
 _symmetry_equiv_pos_site_id
 _symmetry_equiv_pos_as_xyz
  1  'x, y, z'
loop_
 _atom_site_type_symbol
 _atom_site_label
 _atom_site_symmetry_multiplicity
 _atom_site_fract_x
 _atom_site_fract_y
 _atom_site_fract_z
 _atom_site_occupancy
  Zn  Zn0  1  0.38550700  0.76762000  0.25000000  1
  Zn  Zn1  1  0.11449300  0.26762000  0.25000000  1
  Zn  Zn2  1  0.61449300  0.23238000  0.75000000  1
  Zn  Zn3  1  0.88550700  0.73238000  0.75000000  1
  Zn  Zn4  1  0.29103900  0.64445700  0.49841000  1
  Zn  Zn5  1  0.20896100  0.14445700  0.00159000  1
  Zn  Zn6  1  0.70896100  0.35554300  0.99841000  1
  Zn  Zn7  1  0.79103900  0.85554300  0.50159000  1
  Zn  Zn8  1  0.70896100  0.35554300  0.50159000  1
  Zn  Zn9  1  0.79103900  0.85554300  0.99841000  1
  Zn  Zn10  1  0.29103900  0.64445700  0.00159000  1
  Zn  Zn11  1  0.20896100  0.14445700  0.49841000  1
  P  P0  1  0.27550700  0.89953400  0.40716400  1
  P  P1  1  0.22449300  0.39953400  0.09283600  1
  P  P2  1  0.72449300  0.10046600  0.90716400  1
  P  P3  1  0.77550700  0.60046600  0.59283600  1
  P  P4  1  0.72449300  0.10046600  0.59283600  1
  P  P5  1  0.77550700  0.60046600  0.90716400  1
  P  P6  1  0.27550700  0.89953400  0.09283600  1
  P  P7  1  0.22449300  0.39953400  0.40716400  1
  O  O0  1  0.24246700  0.63768700  0.75000000  1
  O  O1  1  0.25753300  0.13768700  0.75000000  1
  O  O2  1  0.75753300  0.36231300  0.25000000  1
  O  O3  1  0.74246700  0.86231300  0.25000000  1
  O  O4  1  0.13142500  0.62219800  0.25000000  1
  O  O5  1  0.36857500  0.12219800  0.25000000  1
  O  O6  1  0.86857500  0.37780200  0.75000000  1
  O  O7  1  0.63142500  0.87780200  0.75000000  1
  O  O8  1  0.19676500  0.82508400  0.69558800  1
  O  O9  1  0.30323500  0.32508400  0.80441200  1
  O  O10  1  0.80323500  0.17491600  0.19558800  1
  O  O11  1  0.69676500  0.67491600  0.30441200  1
  O  O12  1  0.80323500  0.17491600  0.30441200  1
  O  O13  1  0.69676500  0.67491600  0.19558800  1
  O  O14  1  0.19676500  0.82508400  0.80441200  1
  O  O15  1  0.30323500  0.32508400  0.69558800  1
  O  O16  1  0.21379600  0.86043000  0.32884100  1
  O  O17  1  0.28620400  0.36043000  0.17115900  1
  O  O18  1  0.78620400  0.13957000  0.82884100  1
  O  O19  1  0.71379600  0.63957000  0.67115900  1
  O  O20  1  0.78620400  0.13957000  0.67115900  1
  O  O21  1  0.71379600  0.63957000  0.82884100  1
  O  O22  1  0.21379600  0.86043000  0.17115900  1
  O  O23  1  0.28620400  0.36043000  0.32884100  1
  O  O24  1  0.07276200  0.60133300  0.57951000  1
  O  O25  1  0.42723800  0.10133300  0.92049000  1
  O  O26  1  0.92723800  0.39866700  0.07951000  1
  O  O27  1  0.57276200  0.89866700  0.42049000  1
  O  O28  1  0.92723800  0.39866700  0.42049000  1
  O  O29  1  0.57276200  0.89866700  0.07951000  1
  O  O30  1  0.07276200  0.60133300  0.92049000  1
  O  O31  1  0.42723800  0.10133300  0.57951000  1
  O  O32  1  0.35183300  0.52871300  0.42052400  1
  O  O33  1  0.14816700  0.02871300  0.07947600  1
  O  O34  1  0.64816700  0.47128700  0.92052400  1
  O  O35  1  0.85183300  0.97128700  0.57947600  1
  O  O36  1  0.64816700  0.47128700  0.57947600  1
  O  O37  1  0.85183300  0.97128700  0.92052400  1
  O  O38  1  0.35183300  0.52871300  0.07947600  1
  O  O39  1  0.14816700  0.02871300  0.42052400  1
  O  O40  1  0.13973400  0.80465700  0.46114000  1
  O  O41  1  0.36026600  0.30465700  0.03886000  1
  O  O42  1  0.86026600  0.19534300  0.96114000  1
  O  O43  1  0.63973400  0.69534300  0.53886000  1
  O  O44  1  0.86026600  0.19534300  0.53886000  1
  O  O45  1  0.63973400  0.69534300  0.96114000  1
  O  O46  1  0.13973400  0.80465700  0.03886000  1
  O  O47  1  0.36026600  0.30465700  0.46114000  1
loop_
_geom_bond_atom_site_label_1
_geom_bond_atom_site_label_2
_geom_bond_distance
_geom_bond_site_symmetry_2
O0 Zn3 2.075733 1_455
O1 Zn2 2.075733 1_555
O2 Zn1 2.075733 1_655
O3 Zn0 2.075733 1_555
O4 Zn0 2.018229 1_555
O5 Zn1 2.018229 1_555
O6 Zn2 2.018229 1_555
O7 Zn3 2.018229 1_555
O8 Zn3 2.120237 1_455
O9 Zn2 2.120237 1_555
O10 Zn1 2.120237 1_655
O11 Zn0 2.120237 1_555
O12 Zn1 2.120237 1_655
O13 Zn0 2.120237 1_555
O14 Zn3 2.120237 1_455
O15 Zn2 2.120237 1_555
O16 P0 1.542704 1_555
O16 Zn0 1.968998 1_555
O17 P1 1.542704 1_555
O17 Zn1 1.968998 1_555
O18 P2 1.542704 1_555
O18 Zn2 1.968998 1_555
O19 P3 1.542704 1_555
O19 Zn3 1.968998 1_555
O20 P4 1.542704 1_555
O20 Zn2 1.968998 1_555
O21 P5 1.542704 1_555
O21 Zn3 1.968998 1_555
O22 P6 1.542704 1_555
O22 Zn0 1.968998 1_555
O23 P7 1.542704 1_555
O23 Zn1 1.968998 1_555
O24 P3 1.530067 1_455
O24 Zn4 1.923747 1_555
O25 P2 1.530067 1_555
O25 Zn5 1.923747 1_556
O26 P1 1.530067 1_655
O26 Zn6 1.923747 1_554
O27 P0 1.530067 1_555
O27 Zn7 1.923747 1_555
O28 P7 1.530067 1_655
O28 Zn8 1.923747 1_555
O29 P6 1.530067 1_555
O29 Zn9 1.923747 1_554
O30 P5 1.530067 1_455
O30 Zn10 1.923747 1_556
O31 P4 1.530067 1_555
O31 Zn11 1.923747 1_555
O32 P7 1.542534 1_555
O32 Zn4 1.924730 1_555
O33 P6 1.542534 1_545
O33 Zn5 1.924730 1_555
O34 P5 1.542534 1_555
O34 Zn6 1.924730 1_555
O35 P4 1.542534 1_565
O35 Zn7 1.924730 1_555
O36 P3 1.542534 1_555
O36 Zn8 1.924730 1_555
O37 P2 1.542534 1_565
O37 Zn9 1.924730 1_555
O38 P1 1.542534 1_555
O38 Zn10 1.924730 1_555
O39 P0 1.542534 1_545
O39 Zn11 1.924730 1_555
O40 P0 1.581569 1_555
O40 Zn4 1.997385 1_555
O40 Zn7 1.998578 1_455
O41 P1 1.581569 1_555
O41 Zn5 1.997385 1_555
O41 Zn6 1.998578 1_554
O42 P2 1.581569 1_555
O42 Zn6 1.997385 1_555
O42 Zn5 1.998578 1_656
O43 P3 1.581569 1_555
O43 Zn7 1.997385 1_555
O43 Zn4 1.998578 1_555
O44 P4 1.581569 1_555
O44 Zn8 1.997385 1_555
O44 Zn11 1.998578 1_655
O45 P5 1.581569 1_555
O45 Zn9 1.997385 1_555
O45 Zn10 1.998578 1_556
O46 P6 1.581569 1_555
O46 Zn10 1.997385 1_555
O46 Zn9 1.998578 1_454
O47 P7 1.581569 1_555
O47 Zn11 1.997385 1_555
O47 Zn8 1.998578 1_555
