# generated using pymatgen
data_CaFe2(PO4)3
_symmetry_space_group_name_H-M   'P 1'
_cell_length_a   20.17725600
_cell_length_b   6.47559800
_cell_length_c   9.05989478
_cell_angle_alpha   46.13097927
_cell_angle_beta   90.00000000
_cell_angle_gamma   90.00000000
_symmetry_Int_Tables_number   1
_chemical_formula_structural   CaFe2(PO4)3
_chemical_formula_sum   'Ca4 Fe8 P12 O48'
_cell_volume   853.40617313
_cell_formula_units_Z   4
loop_
 _symmetry_equiv_pos_site_id
 _symmetry_equiv_pos_as_xyz
  1  'x, y, z'
loop_
 _atom_site_type_symbol
 _atom_site_label
 _atom_site_symmetry_multiplicity
 _atom_site_fract_x
 _atom_site_fract_y
 _atom_site_fract_z
 _atom_site_occupancy
  Ca  Ca0  1  0.92363800  0.29113100  0.06933000  1
  Ca  Ca1  1  0.07636200  0.70886900  0.93067000  1
  Ca  Ca2  1  0.42363800  0.70886900  0.43067000  1
  Ca  Ca3  1  0.57636200  0.29113100  0.56933000  1
  Fe  Fe0  1  0.78858800  0.84872600  0.09221300  1
  Fe  Fe1  1  0.21141200  0.15127400  0.90778700  1
  Fe  Fe2  1  0.28858800  0.15127400  0.40778700  1
  Fe  Fe3  1  0.71141200  0.84872600  0.59221300  1
  Fe  Fe4  1  0.59553400  0.17941300  0.22253600  1
  Fe  Fe5  1  0.40446600  0.82058700  0.77746400  1
  Fe  Fe6  1  0.09553400  0.82058700  0.27746400  1
  Fe  Fe7  1  0.90446600  0.17941300  0.72253600  1
  P  P0  1  0.62008200  0.81095600  0.10644500  1
  P  P1  1  0.37991800  0.18904400  0.89355500  1
  P  P2  1  0.12008200  0.18904400  0.39355500  1
  P  P3  1  0.87991800  0.81095600  0.60644500  1
  P  P4  1  0.75297100  0.35580500  0.08868400  1
  P  P5  1  0.24702900  0.64419500  0.91131600  1
  P  P6  1  0.25297100  0.64419500  0.41131600  1
  P  P7  1  0.74702900  0.35580500  0.58868400  1
  P  P8  1  0.94792000  0.66501800  0.21755200  1
  P  P9  1  0.05208000  0.33498200  0.78244800  1
  P  P10  1  0.44792000  0.33498200  0.28244800  1
  P  P11  1  0.55208000  0.66501800  0.71755200  1
  O  O0  1  0.99902000  0.84638500  0.21774800  1
  O  O1  1  0.00098000  0.15361500  0.78225200  1
  O  O2  1  0.49902000  0.15361500  0.28225200  1
  O  O3  1  0.50098000  0.84638500  0.71774800  1
  O  O4  1  0.97748500  0.54544700  0.13441400  1
  O  O5  1  0.02251500  0.45455300  0.86558600  1
  O  O6  1  0.47748500  0.45455300  0.36558600  1
  O  O7  1  0.52251500  0.54544700  0.63441400  1
  O  O8  1  0.79788600  0.50573000  0.12894200  1
  O  O9  1  0.20211400  0.49427000  0.87105800  1
  O  O10  1  0.29788600  0.49427000  0.37105800  1
  O  O11  1  0.70211400  0.50573000  0.62894200  1
  O  O12  1  0.20043900  0.84938400  0.23601800  1
  O  O13  1  0.79956100  0.15061600  0.76398200  1
  O  O14  1  0.70043900  0.15061600  0.26398200  1
  O  O15  1  0.29956100  0.84938400  0.73601800  1
  O  O16  1  0.92435900  0.98559500  0.41831400  1
  O  O17  1  0.07564100  0.01440500  0.58168600  1
  O  O18  1  0.42435900  0.01440500  0.08168600  1
  O  O19  1  0.57564100  0.98559500  0.91831400  1
  O  O20  1  0.60009000  0.83419900  0.26109200  1
  O  O21  1  0.39991000  0.16580100  0.73890800  1
  O  O22  1  0.10009000  0.16580100  0.23890800  1
  O  O23  1  0.89991000  0.83419900  0.76109200  1
  O  O24  1  0.78564100  0.58198400  0.39003400  1
  O  O25  1  0.21435900  0.41801600  0.60996600  1
  O  O26  1  0.28564100  0.41801600  0.10996600  1
  O  O27  1  0.71435900  0.58198400  0.89003400  1
  O  O28  1  0.30024200  0.82159400  0.42283300  1
  O  O29  1  0.69975800  0.17840600  0.57716700  1
  O  O30  1  0.80024200  0.17840600  0.07716700  1
  O  O31  1  0.19975800  0.82159400  0.92283300  1
  O  O32  1  0.60852500  0.48848200  0.22671800  1
  O  O33  1  0.39147500  0.51151800  0.77328200  1
  O  O34  1  0.10852500  0.51151800  0.27328200  1
  O  O35  1  0.89147500  0.48848200  0.72671800  1
  O  O36  1  0.89196100  0.89274800  0.06176900  1
  O  O37  1  0.10803900  0.10725200  0.93823100  1
  O  O38  1  0.39196100  0.10725200  0.43823100  1
  O  O39  1  0.60803900  0.89274800  0.56176900  1
  O  O40  1  0.91723500  0.43572700  0.43026900  1
  O  O41  1  0.08276500  0.56427300  0.56973100  1
  O  O42  1  0.41723500  0.56427300  0.06973100  1
  O  O43  1  0.58276500  0.43572700  0.93026900  1
  O  O44  1  0.69333600  0.89204500  0.04723700  1
  O  O45  1  0.30666400  0.10795500  0.95276300  1
  O  O46  1  0.19333600  0.10795500  0.45276300  1
  O  O47  1  0.80666400  0.89204500  0.54723700  1
loop_
_geom_bond_atom_site_label_1
_geom_bond_atom_site_label_2
_geom_bond_distance
_geom_bond_site_symmetry_2
Ca0 O16 2.289334 1_545
Ca0 O4 2.363510 1_555
Ca0 O5 2.408326 1_654
Ca0 O35 2.488212 1_554
Ca0 O30 2.581689 1_555
Ca0 O23 2.604458 1_554
Ca0 O0 2.654884 1_545
Ca0 O36 2.704321 1_545
Ca1 O17 2.289334 1_565
Ca1 O5 2.363510 1_555
Ca1 O4 2.408326 1_456
Ca1 O34 2.488212 1_556
Ca1 O31 2.581689 1_555
Ca1 O22 2.604458 1_556
Ca1 O1 2.654884 1_565
Ca1 O37 2.704321 1_565
Ca2 O18 2.289334 1_565
Ca2 O6 2.363510 1_555
Ca2 O7 2.408326 1_555
Ca2 O33 2.488212 1_555
Ca2 O28 2.581689 1_555
Ca2 O21 2.604458 1_555
Ca2 O2 2.654884 1_565
Ca2 O38 2.704321 1_565
Ca3 O19 2.289334 1_545
Ca3 O7 2.363510 1_555
Ca3 O6 2.408326 1_555
Ca3 O32 2.488212 1_555
Ca3 O29 2.581689 1_555
Ca3 O20 2.604458 1_555
Ca3 O3 2.654884 1_545
Ca3 O39 2.704321 1_545
Fe0 O44 1.944246 1_555
Fe0 O24 1.951347 1_555
Fe0 O8 2.013660 1_555
Fe0 O30 2.056262 1_565
Fe0 O36 2.097344 1_555
Fe0 O13 2.157849 1_564
Fe1 O45 1.944246 1_555
Fe1 O25 1.951347 1_555
Fe1 O9 2.013660 1_555
Fe1 O31 2.056262 1_545
Fe1 O37 2.097344 1_555
Fe1 O12 2.157849 1_546
Fe2 O46 1.944246 1_555
Fe2 O26 1.951347 1_555
Fe2 O10 2.013660 1_555
Fe2 O28 2.056262 1_545
Fe2 O38 2.097344 1_555
Fe2 O15 2.157849 1_545
Fe3 O47 1.944246 1_555
Fe3 O27 1.951347 1_555
Fe3 O11 2.013660 1_555
Fe3 O29 2.056262 1_565
Fe3 O39 2.097344 1_555
Fe3 O14 2.157849 1_565
Fe4 O43 1.934209 1_554
Fe4 O2 1.996912 1_555
Fe4 O20 2.011335 1_545
Fe4 O32 2.044719 1_555
Fe4 O14 2.135209 1_555
Fe4 O39 2.246745 1_545
Fe5 O42 1.934209 1_556
Fe5 O3 1.996912 1_555
Fe5 O21 2.011335 1_565
Fe5 O33 2.044719 1_555
Fe5 O15 2.135209 1_555
Fe5 O38 2.246745 1_565
Fe6 O41 1.934209 1_555
Fe6 O0 1.996912 1_455
Fe6 O22 2.011335 1_565
Fe6 O34 2.044719 1_555
Fe6 O12 2.135209 1_555
Fe6 O37 2.246745 1_564
Fe7 O40 1.934209 1_555
Fe7 O1 1.996912 1_655
Fe7 O23 2.011335 1_545
Fe7 O35 2.044719 1_555
Fe7 O13 2.135209 1_555
Fe7 O36 2.246745 1_546
O0 P8 1.563755 1_555
O1 P9 1.563755 1_555
O2 P10 1.563755 1_555
O3 P11 1.563755 1_555
O4 P8 1.526789 1_555
O5 P9 1.526789 1_555
O6 P10 1.526789 1_555
O7 P11 1.526789 1_555
O8 P4 1.545216 1_555
O9 P5 1.545216 1_555
O10 P6 1.545216 1_555
O11 P7 1.545216 1_555
O12 P6 1.576851 1_555
O13 P7 1.576851 1_555
O14 P4 1.576851 1_555
O15 P5 1.576851 1_555
O16 P3 1.522005 1_555
O17 P2 1.522005 1_555
O18 P1 1.522005 1_554
O19 P0 1.522005 1_556
O20 P0 1.562274 1_555
O21 P1 1.562274 1_555
O22 P2 1.562274 1_555
O23 P3 1.562274 1_555
O24 P7 1.528954 1_555
O25 P6 1.528954 1_555
O26 P5 1.528954 1_554
O27 P4 1.528954 1_556
O28 P6 1.551263 1_555
O29 P7 1.551263 1_555
O30 P4 1.551263 1_555
O31 P5 1.551263 1_555
O32 P0 1.564784 1_555
O33 P1 1.564784 1_555
O34 P2 1.564784 1_555
O35 P3 1.564784 1_555
O36 P8 1.598989 1_555
O37 P9 1.598989 1_555
O38 P10 1.598989 1_555
O39 P11 1.598989 1_555
O40 P8 1.528376 1_555
O41 P9 1.528376 1_555
O42 P10 1.528376 1_555
O43 P11 1.528376 1_555
O44 P0 1.535495 1_555
O45 P1 1.535495 1_555
O46 P2 1.535495 1_555
O47 P3 1.535495 1_555
