# generated using pymatgen
data_Ca2FeCoO5
_symmetry_space_group_name_H-M   'P 1'
_cell_length_a   5.32548900
_cell_length_b   11.21768200
_cell_length_c   15.19430600
_cell_angle_alpha   90.00000000
_cell_angle_beta   90.00000000
_cell_angle_gamma   90.00000000
_symmetry_Int_Tables_number   1
_chemical_formula_structural   Ca2FeCoO5
_chemical_formula_sum   'Ca16 Fe8 Co8 O40'
_cell_volume   907.70240234
_cell_formula_units_Z   8
loop_
 _symmetry_equiv_pos_site_id
 _symmetry_equiv_pos_as_xyz
  1  'x, y, z'
loop_
 _atom_site_type_symbol
 _atom_site_label
 _atom_site_symmetry_multiplicity
 _atom_site_fract_x
 _atom_site_fract_y
 _atom_site_fract_z
 _atom_site_occupancy
  Ca  Ca0  1  0.98020500  0.73705600  0.89260700  1
  Ca  Ca1  1  0.01979500  0.26294400  0.39260700  1
  Ca  Ca2  1  0.98020500  0.76294400  0.10739300  1
  Ca  Ca3  1  0.01979500  0.23705600  0.60739300  1
  Ca  Ca4  1  0.01979500  0.26294400  0.10739300  1
  Ca  Ca5  1  0.98020500  0.73705600  0.60739300  1
  Ca  Ca6  1  0.01979500  0.23705600  0.89260700  1
  Ca  Ca7  1  0.98020500  0.76294400  0.39260700  1
  Ca  Ca8  1  0.51285100  0.98572500  0.10732400  1
  Ca  Ca9  1  0.48714900  0.01427500  0.60732400  1
  Ca  Ca10  1  0.51285100  0.51427500  0.89267600  1
  Ca  Ca11  1  0.48714900  0.48572500  0.39267600  1
  Ca  Ca12  1  0.48714900  0.01427500  0.89267600  1
  Ca  Ca13  1  0.51285100  0.98572500  0.39267600  1
  Ca  Ca14  1  0.48714900  0.48572500  0.10732400  1
  Ca  Ca15  1  0.51285100  0.51427500  0.60732400  1
  Fe  Fe0  1  0.44681300  0.78376500  0.75000000  1
  Fe  Fe1  1  0.55318700  0.21623500  0.25000000  1
  Fe  Fe2  1  0.44681300  0.71623500  0.25000000  1
  Fe  Fe3  1  0.55318700  0.28376500  0.75000000  1
  Fe  Fe4  1  0.94941300  0.96692400  0.75000000  1
  Fe  Fe5  1  0.05058700  0.03307600  0.25000000  1
  Fe  Fe6  1  0.94941300  0.53307600  0.25000000  1
  Fe  Fe7  1  0.05058700  0.46692400  0.75000000  1
  Co  Co0  1  0.49384600  0.75000000  0.00000000  1
  Co  Co1  1  0.50615400  0.25000000  0.50000000  1
  Co  Co2  1  0.50615400  0.25000000  0.00000000  1
  Co  Co3  1  0.49384600  0.75000000  0.50000000  1
  Co  Co4  1  0.00000000  0.50000000  0.00000000  1
  Co  Co5  1  0.00000000  0.50000000  0.50000000  1
  Co  Co6  1  0.00000000  0.00000000  0.00000000  1
  Co  Co7  1  0.00000000  0.00000000  0.50000000  1
  O  O0  1  0.08043600  0.80629100  0.75000000  1
  O  O1  1  0.91956400  0.19370900  0.25000000  1
  O  O2  1  0.08043600  0.69370900  0.25000000  1
  O  O3  1  0.91956400  0.30629100  0.75000000  1
  O  O4  1  0.58462300  0.94417600  0.75000000  1
  O  O5  1  0.41537700  0.05582400  0.25000000  1
  O  O6  1  0.58462300  0.55582400  0.25000000  1
  O  O7  1  0.41537700  0.44417600  0.75000000  1
  O  O8  1  0.73973600  0.87550900  0.98220900  1
  O  O9  1  0.26026400  0.12449100  0.48220900  1
  O  O10  1  0.73973600  0.62449100  0.01779100  1
  O  O11  1  0.26026400  0.37550900  0.51779100  1
  O  O12  1  0.26026400  0.12449100  0.01779100  1
  O  O13  1  0.73973600  0.87550900  0.51779100  1
  O  O14  1  0.26026400  0.37550900  0.98220900  1
  O  O15  1  0.73973600  0.62449100  0.48220900  1
  O  O16  1  0.23771600  0.87652500  0.98971900  1
  O  O17  1  0.76228400  0.12347500  0.48971900  1
  O  O18  1  0.23771600  0.62347500  0.01028100  1
  O  O19  1  0.76228400  0.37652600  0.51028100  1
  O  O20  1  0.76228400  0.12347500  0.01028100  1
  O  O21  1  0.23771600  0.87652500  0.51028100  1
  O  O22  1  0.76228400  0.37652600  0.98971900  1
  O  O23  1  0.23771600  0.62347500  0.48971900  1
  O  O24  1  0.02673100  0.03433800  0.85981900  1
  O  O25  1  0.97326900  0.96566200  0.35981900  1
  O  O26  1  0.02673100  0.46566200  0.14018100  1
  O  O27  1  0.97326900  0.53433800  0.64018100  1
  O  O28  1  0.97326900  0.96566200  0.14018100  1
  O  O29  1  0.02673100  0.03433800  0.64018100  1
  O  O30  1  0.97326900  0.53433800  0.85981900  1
  O  O31  1  0.02673100  0.46566200  0.35981900  1
  O  O32  1  0.51408600  0.71472100  0.85883000  1
  O  O33  1  0.48591400  0.28527900  0.35883000  1
  O  O34  1  0.51408600  0.78527900  0.14117000  1
  O  O35  1  0.48591400  0.21472100  0.64117000  1
  O  O36  1  0.48591400  0.28527900  0.14117000  1
  O  O37  1  0.51408600  0.71472100  0.64117000  1
  O  O38  1  0.48591400  0.21472100  0.85883000  1
  O  O39  1  0.51408600  0.78527900  0.35883000  1
loop_
_geom_bond_atom_site_label_1
_geom_bond_atom_site_label_2
_geom_bond_distance
_geom_bond_site_symmetry_2
Ca0 O30 2.328251 1_555
Ca0 O0 2.362880 1_655
Ca0 O8 2.430161 1_555
Ca0 O32 2.547163 1_555
Ca0 O16 2.550613 1_655
Ca0 O18 2.588607 1_656
Ca0 O10 2.617701 1_556
Ca0 O32 2.899970 1_655
Ca1 O31 2.328251 1_555
Ca1 O1 2.362880 1_455
Ca1 O9 2.430161 1_555
Ca1 O33 2.547163 1_555
Ca1 O17 2.550613 1_455
Ca1 O19 2.588612 1_455
Ca1 O11 2.617701 1_555
Ca1 O33 2.899970 1_455
Ca2 O28 2.328251 1_555
Ca2 O2 2.362880 1_655
Ca2 O10 2.430161 1_555
Ca2 O34 2.547163 1_555
Ca2 O18 2.550613 1_655
Ca2 O16 2.588607 1_654
Ca2 O8 2.617701 1_554
Ca2 O34 2.899970 1_655
Ca3 O29 2.328251 1_555
Ca3 O3 2.362880 1_455
Ca3 O11 2.430161 1_555
Ca3 O35 2.547163 1_555
Ca3 O19 2.550620 1_455
Ca3 O17 2.588607 1_455
Ca3 O9 2.617701 1_555
Ca3 O35 2.899970 1_455
Ca4 O26 2.328251 1_555
Ca4 O1 2.362880 1_455
Ca4 O12 2.430161 1_555
Ca4 O36 2.547163 1_555
Ca4 O20 2.550613 1_455
Ca4 O22 2.588612 1_454
Ca4 O14 2.617701 1_554
Ca4 O36 2.899970 1_455
Ca5 O27 2.328251 1_555
Ca5 O0 2.362880 1_655
Ca5 O13 2.430161 1_555
Ca5 O37 2.547163 1_555
Ca5 O21 2.550613 1_655
Ca5 O23 2.588607 1_655
Ca5 O15 2.617701 1_555
Ca5 O37 2.899970 1_655
Ca6 O24 2.328251 1_555
Ca6 O3 2.362880 1_455
Ca6 O14 2.430161 1_555
Ca6 O38 2.547163 1_555
Ca6 O22 2.550620 1_455
Ca6 O20 2.588607 1_456
Ca6 O12 2.617701 1_556
Ca6 O38 2.899970 1_455
Ca7 O25 2.328251 1_555
Ca7 O2 2.362880 1_655
Ca7 O15 2.430161 1_555
Ca7 O39 2.547163 1_555
Ca7 O23 2.550613 1_655
Ca7 O21 2.588607 1_655
Ca7 O13 2.617701 1_555
Ca7 O39 2.899970 1_655
Ca8 O34 2.306609 1_555
Ca8 O5 2.363775 1_565
Ca8 O12 2.466414 1_565
Ca8 O28 2.512361 1_555
Ca8 O20 2.515239 1_565
Ca8 O8 2.569527 1_554
Ca8 O16 2.615445 1_554
Ca8 O28 2.925254 1_455
Ca9 O35 2.306609 1_555
Ca9 O4 2.363775 1_545
Ca9 O13 2.466414 1_545
Ca9 O29 2.512361 1_555
Ca9 O21 2.515239 1_545
Ca9 O9 2.569527 1_555
Ca9 O17 2.615445 1_555
Ca9 O29 2.925254 1_655
Ca10 O32 2.306609 1_555
Ca10 O7 2.363775 1_555
Ca10 O14 2.466414 1_555
Ca10 O30 2.512361 1_555
Ca10 O22 2.515232 1_555
Ca10 O10 2.569527 1_556
Ca10 O18 2.615445 1_556
Ca10 O30 2.925254 1_455
Ca11 O33 2.306609 1_555
Ca11 O6 2.363775 1_555
Ca11 O15 2.466414 1_555
Ca11 O31 2.512361 1_555
Ca11 O23 2.515239 1_555
Ca11 O11 2.569527 1_555
Ca11 O19 2.615440 1_555
Ca11 O31 2.925254 1_655
Ca12 O38 2.306609 1_555
Ca12 O4 2.363775 1_545
Ca12 O8 2.466414 1_545
Ca12 O24 2.512361 1_555
Ca12 O16 2.515239 1_545
Ca12 O12 2.569527 1_556
Ca12 O20 2.615445 1_556
Ca12 O24 2.925254 1_655
Ca13 O39 2.306609 1_555
Ca13 O5 2.363775 1_565
Ca13 O9 2.466414 1_565
Ca13 O25 2.512361 1_555
Ca13 O17 2.515239 1_565
Ca13 O13 2.569527 1_555
Ca13 O21 2.615445 1_555
Ca13 O25 2.925254 1_455
Ca14 O36 2.306609 1_555
Ca14 O6 2.363775 1_555
Ca14 O10 2.466414 1_555
Ca14 O26 2.512361 1_555
Ca14 O18 2.515239 1_555
Ca14 O14 2.569527 1_554
Ca14 O22 2.615440 1_554
Ca14 O26 2.925254 1_655
Ca15 O37 2.306609 1_555
Ca15 O7 2.363775 1_555
Ca15 O11 2.466414 1_555
Ca15 O27 2.512361 1_555
Ca15 O19 2.515232 1_555
Ca15 O15 2.569527 1_555
Ca15 O23 2.615445 1_555
Ca15 O27 2.925254 1_455
Fe0 O37 1.860807 1_555
Fe0 O32 1.860807 1_555
Fe0 O4 1.943348 1_555
Fe0 O0 1.967431 1_555
Fe1 O33 1.860807 1_555
Fe1 O36 1.860807 1_555
Fe1 O5 1.943348 1_555
Fe1 O1 1.967431 1_555
Fe2 O39 1.860807 1_555
Fe2 O34 1.860807 1_555
Fe2 O6 1.943348 1_555
Fe2 O2 1.967431 1_555
Fe3 O35 1.860807 1_555
Fe3 O38 1.860807 1_555
Fe3 O7 1.943348 1_555
Fe3 O3 1.967431 1_555
Fe4 O24 1.877693 1_665
Fe4 O29 1.877693 1_665
Fe4 O0 1.932310 1_655
Fe4 O4 1.959373 1_555
Fe5 O25 1.877693 1_445
Fe5 O28 1.877693 1_445
Fe5 O1 1.932310 1_455
Fe5 O5 1.959373 1_555
Fe6 O31 1.877693 1_655
Fe6 O26 1.877693 1_655
Fe6 O2 1.932310 1_655
Fe6 O6 1.959373 1_555
Fe7 O27 1.877693 1_455
Fe7 O30 1.877693 1_455
Fe7 O3 1.932310 1_455
Fe7 O7 1.959373 1_555
Co0 O10 1.941665 1_555
Co0 O8 1.941665 1_554
Co0 O16 1.974692 1_554
Co0 O18 1.974692 1_555
Co0 O34 2.183844 1_555
Co0 O32 2.183844 1_554
Co1 O11 1.941665 1_555
Co1 O9 1.941665 1_555
Co1 O17 1.974692 1_555
Co1 O19 1.974700 1_555
Co1 O35 2.183844 1_555
Co1 O33 2.183844 1_555
Co2 O12 1.941665 1_555
Co2 O14 1.941665 1_554
Co2 O20 1.974692 1_555
Co2 O22 1.974700 1_554
Co2 O36 2.183844 1_555
Co2 O38 2.183844 1_554
Co3 O15 1.941665 1_555
Co3 O13 1.941665 1_555
Co3 O21 1.974692 1_555
Co3 O23 1.974692 1_555
Co3 O37 2.183844 1_555
Co3 O39 2.183844 1_555
Co4 O22 1.882956 1_454
Co4 O18 1.882964 1_555
Co4 O14 1.986045 1_554
Co4 O10 1.986045 1_455
Co4 O26 2.169179 1_555
Co4 O30 2.169179 1_454
Co5 O19 1.882956 1_455
Co5 O23 1.882964 1_555
Co5 O11 1.986045 1_555
Co5 O15 1.986045 1_455
Co5 O31 2.169179 1_555
Co5 O27 2.169179 1_455
Co6 O20 1.882964 1_455
Co6 O16 1.882964 1_544
Co6 O12 1.986045 1_555
Co6 O8 1.986045 1_444
Co6 O24 2.169179 1_554
Co6 O28 2.169179 1_445
Co7 O17 1.882964 1_455
Co7 O21 1.882964 1_545
Co7 O9 1.986045 1_555
Co7 O13 1.986045 1_445
Co7 O25 2.169179 1_445
Co7 O29 2.169179 1_555
