# generated using pymatgen
data_CeSe2
_symmetry_space_group_name_H-M   'P 1'
_cell_length_a   11.52879437
_cell_length_b   11.52879437
_cell_length_c   8.38953307
_cell_angle_alpha   72.13213453
_cell_angle_beta   72.13213453
_cell_angle_gamma   71.10828257
_symmetry_Int_Tables_number   1
_chemical_formula_structural   CeSe2
_chemical_formula_sum   'Ce4 Se8'
_cell_volume   977.10888766
_cell_formula_units_Z   4
loop_
 _symmetry_equiv_pos_site_id
 _symmetry_equiv_pos_as_xyz
  1  'x, y, z'
loop_
 _atom_site_type_symbol
 _atom_site_label
 _atom_site_symmetry_multiplicity
 _atom_site_fract_x
 _atom_site_fract_y
 _atom_site_fract_z
 _atom_site_occupancy
  Ce  Ce0  1  0.74683300  0.96289300  0.33013100  1
  Ce  Ce1  1  0.03710700  0.25316700  0.16986900  1
  Ce  Ce2  1  0.25316700  0.03710700  0.66986900  1
  Ce  Ce3  1  0.96289300  0.74683300  0.83013100  1
  Se  Se0  1  0.18086600  0.81913400  0.75000000  1
  Se  Se1  1  0.81913400  0.18086600  0.25000000  1
  Se  Se2  1  0.22069800  0.10941400  0.96442000  1
  Se  Se3  1  0.89058600  0.77930200  0.53558000  1
  Se  Se4  1  0.77930200  0.89058600  0.03558000  1
  Se  Se5  1  0.10941400  0.22069800  0.46442000  1
  Se  Se6  1  0.00000000  0.50000000  0.00000000  1
  Se  Se7  1  0.50000000  0.00000000  0.50000000  1
loop_
_geom_bond_atom_site_label_1
_geom_bond_atom_site_label_2
_geom_bond_distance
_geom_bond_site_symmetry_2
Ce0 Se7 2.721966 1_565
Ce0 Se4 2.726900 1_555
Ce0 Se1 2.727199 1_565
Ce0 Se3 2.727660 1_555
Ce1 Se6 2.721966 1_555
Ce1 Se5 2.726900 1_555
Ce1 Se1 2.727199 1_455
Ce1 Se2 2.727660 1_554
Ce2 Se7 2.721966 1_555
Ce2 Se2 2.726900 1_555
Ce2 Se0 2.727199 1_545
Ce2 Se5 2.727660 1_555
Ce3 Se6 2.721966 1_656
Ce3 Se3 2.726900 1_555
Ce3 Se0 2.727199 1_655
Ce3 Se4 2.727660 1_556
