# generated using pymatgen
data_Sr3Pr3Mn2Cu2O13
_symmetry_space_group_name_H-M   'P 1'
_cell_length_a   10.33662314
_cell_length_b   10.33662314
_cell_length_c   5.43342668
_cell_angle_alpha   90.00000000
_cell_angle_beta   90.00000000
_cell_angle_gamma   149.52960250
_symmetry_Int_Tables_number   1
_chemical_formula_structural   Sr3Pr3Mn2Cu2O13
_chemical_formula_sum   'Sr3 Pr3 Mn2 Cu2 O13'
_cell_volume   294.38718401
_cell_formula_units_Z   1
loop_
 _symmetry_equiv_pos_site_id
 _symmetry_equiv_pos_as_xyz
  1  'x, y, z'
loop_
 _atom_site_type_symbol
 _atom_site_label
 _atom_site_symmetry_multiplicity
 _atom_site_fract_x
 _atom_site_fract_y
 _atom_site_fract_z
 _atom_site_occupancy
  Sr  Sr0  1  0.68116718  0.31883282  -0.00000000  1
  Sr  Sr1  1  0.00077759  0.99922241  0.50000000  1
  Sr  Sr2  1  0.50310814  0.49689186  -0.00000000  1
  Pr  Pr0  1  0.17687173  0.82312827  0.50000000  1
  Pr  Pr1  1  0.32064899  0.67935101  -0.00000000  1
  Pr  Pr2  1  0.82124724  0.17875276  0.50000000  1
  Mn  Mn0  1  0.90598172  0.09401828  -0.00000000  1
  Mn  Mn1  1  0.09437291  0.90562709  -0.00000000  1
  Cu  Cu0  1  0.40455961  0.59544039  0.50000000  1
  Cu  Cu1  1  0.59766804  0.40233196  0.50000000  1
  O  O0  1  0.80746924  0.19253076  -0.00000000  1
  O  O1  1  0.29286330  0.70713670  0.50000000  1
  O  O2  1  0.70813353  0.29186647  0.50000000  1
  O  O3  1  0.19669952  0.80330048  -0.00000000  1
  O  O4  1  0.15207563  0.34559935  0.24444687  1
  O  O5  1  0.65440065  0.84792437  0.75555313  1
  O  O6  1  0.65440065  0.84792437  0.24444687  1
  O  O7  1  0.15207563  0.34559935  0.75555313  1
  O  O8  1  0.33740989  0.14951188  0.24966493  1
  O  O9  1  0.85048812  0.66259011  0.75033507  1
  O  O10  1  0.85048812  0.66259011  0.24966493  1
  O  O11  1  0.33740989  0.14951188  0.75033507  1
  O  O12  1  0.99968066  0.00031934  -0.00000000  1
loop_
_geom_bond_atom_site_label_1
_geom_bond_atom_site_label_2
_geom_bond_distance
_geom_bond_site_symmetry_2
Mn0 O12 1.868984 1_555
Mn0 O7 1.895915 1_654
Mn0 O5 1.895915 1_544
Mn0 O4 1.895915 1_655
Mn0 O6 1.895915 1_545
Mn0 O0 1.964998 1_555
Mn1 O12 1.888797 1_465
Mn1 O11 1.894617 1_564
Mn1 O8 1.894617 1_565
Mn1 O9 1.894617 1_454
Mn1 O10 1.894617 1_455
Mn1 O3 2.041077 1_555
Cu0 O5 1.946906 1_555
Cu0 O6 1.946906 1_555
Cu0 O4 1.946906 1_555
Cu0 O7 1.946906 1_555
Cu0 O1 2.227972 1_555
Cu1 O11 1.948816 1_555
Cu1 O8 1.948816 1_555
Cu1 O9 1.948816 1_555
Cu1 O10 1.948816 1_555
Cu1 O2 2.203421 1_555
O0 Sr0 2.519308 1_555
O0 Pr1 2.728970 1_545
O0 Pr1 2.728970 1_655
O0 Pr2 2.730579 1_554
O0 Pr2 2.730579 1_555
O1 Pr0 2.313648 1_555
O1 Pr1 2.772671 1_555
O1 Pr1 2.772671 1_556
O1 Pr2 2.774655 1_455
O1 Pr2 2.774655 1_565
O2 Pr2 2.256244 1_555
O2 Sr0 2.769451 1_556
O2 Sr0 2.769451 1_555
O2 Pr0 2.786935 1_545
O2 Pr0 2.786935 1_655
O3 Pr1 2.472382 1_555
O3 Sr0 2.733890 1_565
O3 Sr0 2.733890 1_455
O3 Pr0 2.745351 1_554
O3 Pr0 2.745351 1_555
O4 Pr1 2.517870 1_555
O4 Pr2 2.535770 1_455
O4 Sr1 2.746044 1_545
O4 Sr2 2.755753 1_555
O5 Pr1 2.517870 1_556
O5 Pr2 2.535770 1_565
O5 Sr1 2.746044 1_655
O5 Sr2 2.755753 1_556
O6 Pr1 2.517870 1_555
O6 Pr2 2.535770 1_565
O6 Sr1 2.746044 1_655
O6 Sr2 2.755753 1_555
O7 Pr1 2.517870 1_556
O7 Pr2 2.535770 1_455
O7 Sr1 2.746044 1_545
O7 Sr2 2.755753 1_556
O8 Pr0 2.516986 1_545
O8 Sr0 2.609424 1_555
O8 Sr1 2.655800 1_545
O8 Sr2 2.658146 1_555
O9 Pr0 2.516986 1_655
O9 Sr0 2.609424 1_556
O9 Sr1 2.655800 1_655
O9 Sr2 2.658146 1_556
O10 Pr0 2.516986 1_655
O10 Sr0 2.609424 1_555
O10 Sr1 2.655800 1_655
O10 Sr2 2.658146 1_555
O11 Pr0 2.516986 1_545
O11 Sr0 2.609424 1_556
O11 Sr1 2.655800 1_545
O11 Sr2 2.658146 1_556
O12 Sr1 2.716801 1_645
O12 Sr1 2.716801 1_644
O12 Sr2 2.717138 1_545
O12 Sr2 2.717138 1_655
