# generated using pymatgen
data_Ca(AlH4)2
_symmetry_space_group_name_H-M   'P 1'
_cell_length_a   11.83415000
_cell_length_b   4.22001800
_cell_length_c   4.37152315
_cell_angle_alpha   86.22854147
_cell_angle_beta   90.00000000
_cell_angle_gamma   90.00000000
_symmetry_Int_Tables_number   1
_chemical_formula_structural   Ca(AlH4)2
_chemical_formula_sum   'Ca2 Al4 H16'
_cell_volume   217.84249873
_cell_formula_units_Z   2
loop_
 _symmetry_equiv_pos_site_id
 _symmetry_equiv_pos_as_xyz
  1  'x, y, z'
loop_
 _atom_site_type_symbol
 _atom_site_label
 _atom_site_symmetry_multiplicity
 _atom_site_fract_x
 _atom_site_fract_y
 _atom_site_fract_z
 _atom_site_occupancy
  Ca  Ca0  1  0.50000000  0.00000000  0.50000000  1
  Ca  Ca1  1  0.00000000  0.00000000  0.00000000  1
  Al  Al0  1  0.18458400  0.67896900  0.62518200  1
  Al  Al1  1  0.81541600  0.32103100  0.37481800  1
  Al  Al2  1  0.68458400  0.32103100  0.87481800  1
  Al  Al3  1  0.31541600  0.67896900  0.12518200  1
  H  H0  1  0.19860900  0.90852600  0.94995400  1
  H  H1  1  0.80139100  0.09147400  0.05004600  1
  H  H2  1  0.69860900  0.09147400  0.55004600  1
  H  H3  1  0.30139100  0.90852600  0.44995400  1
  H  H4  1  0.40709600  0.94816400  0.97085200  1
  H  H5  1  0.59290400  0.05183600  0.02914800  1
  H  H6  1  0.90709600  0.05183600  0.52914800  1
  H  H7  1  0.09290400  0.94816400  0.47085200  1
  H  H8  1  0.07908100  0.48084500  0.81921500  1
  H  H9  1  0.92091900  0.51915500  0.18078500  1
  H  H10  1  0.57908100  0.51915500  0.68078500  1
  H  H11  1  0.42091900  0.48084500  0.31921500  1
  H  H12  1  0.29504900  0.45877800  0.81128200  1
  H  H13  1  0.70495100  0.54122200  0.18871800  1
  H  H14  1  0.79504900  0.54122200  0.68871800  1
  H  H15  1  0.20495100  0.45877800  0.31128200  1
loop_
_geom_bond_atom_site_label_1
_geom_bond_atom_site_label_2
_geom_bond_distance
_geom_bond_site_symmetry_2
Ca0 H11 2.325294 1_555
Ca0 H10 2.325294 1_545
Ca0 H5 2.331127 1_555
Ca0 H4 2.331127 1_545
Ca0 H2 2.394205 1_555
Ca0 H3 2.394205 1_545
Ca0 H10 2.554992 1_555
Ca0 H11 2.554992 1_545
Ca0 H5 2.583409 1_556
Ca0 H4 2.583409 1_544
Ca1 H8 2.325294 1_554
Ca1 H9 2.325294 1_445
Ca1 H7 2.331127 1_545
Ca1 H6 2.331127 1_454
Ca1 H0 2.394205 1_544
Ca1 H1 2.394205 1_455
Ca1 H9 2.554992 1_455
Ca1 H8 2.554992 1_544
Ca1 H6 2.583409 1_455
Ca1 H7 2.583409 1_544
Al0 H7 1.679874 1_555
Al0 H8 1.698255 1_555
Al0 H15 1.724024 1_555
Al0 H12 1.770525 1_555
Al0 H0 1.778374 1_555
Al0 H3 1.827125 1_555
Al1 H6 1.679874 1_555
Al1 H9 1.698255 1_555
Al1 H14 1.724024 1_555
Al1 H13 1.770525 1_555
Al1 H1 1.778374 1_555
Al1 H2 1.827125 1_555
Al2 H5 1.679874 1_556
Al2 H10 1.698255 1_555
Al2 H13 1.724024 1_556
Al2 H14 1.770525 1_555
Al2 H2 1.778374 1_555
Al2 H1 1.827125 1_556
Al3 H4 1.679874 1_554
Al3 H11 1.698255 1_555
Al3 H12 1.724024 1_554
Al3 H15 1.770525 1_555
Al3 H3 1.778374 1_555
Al3 H0 1.827125 1_554
