# generated using pymatgen
data_Mn(CoN)2
_symmetry_space_group_name_H-M   'P 1'
_cell_length_a   2.81174000
_cell_length_b   2.84216700
_cell_length_c   11.52484700
_cell_angle_alpha   90.00000000
_cell_angle_beta   90.00000000
_cell_angle_gamma   90.00000000
_symmetry_Int_Tables_number   1
_chemical_formula_structural   Mn(CoN)2
_chemical_formula_sum   'Mn2 Co4 N4'
_cell_volume   92.10006154
_cell_formula_units_Z   2
loop_
 _symmetry_equiv_pos_site_id
 _symmetry_equiv_pos_as_xyz
  1  'x, y, z'
loop_
 _atom_site_type_symbol
 _atom_site_label
 _atom_site_symmetry_multiplicity
 _atom_site_fract_x
 _atom_site_fract_y
 _atom_site_fract_z
 _atom_site_occupancy
  Mn  Mn0  1  0.75000000  0.83284600  0.75000000  1
  Mn  Mn1  1  0.25000000  0.16715400  0.25000000  1
  Co  Co0  1  0.75000000  0.71217400  0.08841700  1
  Co  Co1  1  0.75000000  0.71217400  0.41158300  1
  Co  Co2  1  0.25000000  0.28782600  0.91158300  1
  Co  Co3  1  0.25000000  0.28782600  0.58841700  1
  N  N0  1  0.75000000  0.75376800  0.58989100  1
  N  N1  1  0.75000000  0.75376800  0.91010900  1
  N  N2  1  0.25000000  0.24623200  0.41010900  1
  N  N3  1  0.25000000  0.24623200  0.08989100  1
loop_
_geom_bond_atom_site_label_1
_geom_bond_atom_site_label_2
_geom_bond_distance
_geom_bond_site_symmetry_2
Mn0 N1 1.858869 1_555
Mn0 N0 1.858869 1_555
Mn1 N3 1.858869 1_555
Mn1 N2 1.858869 1_555
Co0 N3 1.931448 1_655
Co0 N3 1.931448 1_555
Co0 N1 2.058370 1_554
Co0 N3 2.068991 1_565
Co0 N3 2.068991 1_665
Co1 N2 1.931448 1_555
Co1 N2 1.931448 1_655
Co1 N0 2.058370 1_555
Co1 N2 2.068991 1_665
Co1 N2 2.068991 1_565
Co2 N1 1.931448 1_455
Co2 N1 1.931448 1_555
Co2 N3 2.058370 1_556
Co2 N1 2.068991 1_545
Co2 N1 2.068991 1_445
Co3 N0 1.931448 1_555
Co3 N0 1.931448 1_455
Co3 N2 2.058370 1_555
Co3 N0 2.068991 1_445
Co3 N0 2.068991 1_545
