# generated using pymatgen
data_SmSi3Ni
_symmetry_space_group_name_H-M   'P 1'
_cell_length_a   3.95688449
_cell_length_b   4.01565305
_cell_length_c   10.73646350
_cell_angle_alpha   90.00000091
_cell_angle_beta   100.60721444
_cell_angle_gamma   89.99999978
_symmetry_Int_Tables_number   1
_chemical_formula_structural   SmSi3Ni
_chemical_formula_sum   'Sm2 Si6 Ni2'
_cell_volume   167.68164444
_cell_formula_units_Z   2
loop_
 _symmetry_equiv_pos_site_id
 _symmetry_equiv_pos_as_xyz
  1  'x, y, z'
loop_
 _atom_site_type_symbol
 _atom_site_label
 _atom_site_symmetry_multiplicity
 _atom_site_fract_x
 _atom_site_fract_y
 _atom_site_fract_z
 _atom_site_occupancy
  Sm  Sm0  1  0.33177628  0.50000001  0.66333518  1
  Sm  Sm1  1  0.66823527  0.50000004  0.33668705  1
  Si  Si0  1  0.44418457  0.00000005  0.88855835  1
  Si  Si1  1  0.55580986  1.00000002  0.11143026  1
  Si  Si2  1  0.21737637  0.00000003  0.43466225  1
  Si  Si3  1  0.78262703  1.00000001  0.56534511  1
  Si  Si4  1  0.94391168  0.49999999  0.88847863  1
  Si  Si5  1  0.05608180  0.50000001  0.11151114  1
  Ni  Ni0  1  0.10850738  0.99999990  0.21705756  1
  Ni  Ni1  1  0.89148977  -0.00000007  0.78293446  1
loop_
_geom_bond_atom_site_label_1
_geom_bond_atom_site_label_2
_geom_bond_distance
_geom_bond_site_symmetry_2
Si0 Si1 2.351968 1_546
Si0 Si4 2.818147 1_555
Si0 Si4 2.818147 1_545
Si0 Si4 2.819442 1_455
Si0 Si4 2.819442 1_445
Si0 Sm0 3.111342 1_555
Si0 Sm0 3.111343 1_545
Si1 Si5 2.818151 1_565
Si1 Si5 2.818151 1_555
Si1 Si5 2.819437 1_665
Si1 Si5 2.819438 1_655
Si1 Sm1 3.111613 1_555
Si1 Sm1 3.111614 1_565
Si2 Si3 2.411601 1_545
Si2 Si3 2.411734 1_445
Si2 Sm1 3.001898 1_545
Si2 Sm1 3.001898 1_555
Si2 Sm1 3.002973 1_445
Si2 Sm1 3.002973 1_455
Si2 Sm0 3.139241 1_555
Si2 Sm0 3.139241 1_545
Si3 Sm0 3.001950 1_565
Si3 Sm0 3.001950 1_555
Si3 Sm0 3.003029 1_665
Si3 Sm0 3.003029 1_655
Si3 Sm1 3.139120 1_555
Si3 Sm1 3.139120 1_565
Si4 Si5 2.353664 1_656
Si4 Sm0 3.091017 1_555
Si4 Sm0 3.092614 1_655
Si5 Sm1 3.091285 1_555
Si5 Sm1 3.092872 1_455
Ni0 Si1 2.270645 1_455
Ni0 Si1 2.271054 1_555
Ni0 Si5 2.296081 1_555
Ni0 Si5 2.296082 1_565
Ni0 Si2 2.296383 1_565
Ni0 Sm1 3.088531 1_555
Ni0 Sm1 3.088532 1_565
Ni0 Sm1 3.088646 1_455
Ni0 Sm1 3.088646 1_465
Ni1 Si0 2.270623 1_655
Ni1 Si0 2.271040 1_555
Ni1 Si4 2.296070 1_545
Ni1 Si4 2.296070 1_555
Ni1 Si3 2.296221 1_545
Ni1 Sm0 3.088403 1_545
Ni1 Sm0 3.088403 1_555
Ni1 Sm0 3.088514 1_645
Ni1 Sm0 3.088514 1_655
