# generated using pymatgen
data_Ba2La4Ti5O18
_symmetry_space_group_name_H-M   'P 1'
_cell_length_a   13.94542306
_cell_length_b   13.94542306
_cell_length_c   13.94542278
_cell_angle_alpha   23.25181338
_cell_angle_beta   23.25181338
_cell_angle_gamma   23.25181234
_symmetry_Int_Tables_number   1
_chemical_formula_structural   Ba2La4Ti5O18
_chemical_formula_sum   'Ba2 La4 Ti5 O18'
_cell_volume   371.05410474
_cell_formula_units_Z   1
loop_
 _symmetry_equiv_pos_site_id
 _symmetry_equiv_pos_as_xyz
  1  'x, y, z'
loop_
 _atom_site_type_symbol
 _atom_site_label
 _atom_site_symmetry_multiplicity
 _atom_site_fract_x
 _atom_site_fract_y
 _atom_site_fract_z
 _atom_site_occupancy
  Ba  Ba0  1  0.91360100  0.91360100  0.91360100  1
  Ba  Ba1  1  0.36208400  0.36208400  0.36208400  1
  La  La0  1  0.08909400  0.08909400  0.08909400  1
  La  La1  1  0.18496200  0.18496200  0.18496200  1
  La  La2  1  0.81336300  0.81336300  0.81336300  1
  La  La3  1  0.63601000  0.63601000  0.63601000  1
  Ti  Ti0  1  0.54837600  0.54837600  0.54837600  1
  Ti  Ti1  1  0.44967200  0.44967200  0.44967200  1
  Ti  Ti2  1  0.00017400  0.00017400  0.00017400  1
  Ti  Ti3  1  0.27490000  0.27490000  0.27490000  1
  Ti  Ti4  1  0.72408800  0.72408800  0.72408800  1
  O  O0  1  0.91385000  0.41995100  0.41995100  1
  O  O1  1  0.41995100  0.91385000  0.41995100  1
  O  O2  1  0.41995100  0.41995100  0.91385000  1
  O  O3  1  0.07913700  0.58792400  0.58792400  1
  O  O4  1  0.58792400  0.07913700  0.58792400  1
  O  O5  1  0.58792400  0.58792400  0.07913700  1
  O  O6  1  0.64053900  0.13890400  0.13890400  1
  O  O7  1  0.13890400  0.64053900  0.13890400  1
  O  O8  1  0.13890400  0.13890400  0.64053900  1
  O  O9  1  0.36366000  0.86041500  0.86041500  1
  O  O10  1  0.86041500  0.36366000  0.86041500  1
  O  O11  1  0.86041500  0.86041500  0.36366000  1
  O  O12  1  0.69362900  0.19259100  0.69362900  1
  O  O13  1  0.69362900  0.69362900  0.19259100  1
  O  O14  1  0.19259100  0.69362900  0.69362900  1
  O  O15  1  0.29702600  0.81728300  0.29702600  1
  O  O16  1  0.29702600  0.29702600  0.81728300  1
  O  O17  1  0.81728300  0.29702600  0.29702600  1
loop_
_geom_bond_atom_site_label_1
_geom_bond_atom_site_label_2
_geom_bond_distance
_geom_bond_site_symmetry_2
Ba0 O12 2.717897 1_565
Ba0 O14 2.717897 1_655
Ba0 O13 2.717897 1_556
Ba0 O2 2.815845 1_655
Ba0 O2 2.815845 1_565
Ba0 O0 2.815845 1_556
Ba0 O1 2.815845 1_556
Ba0 O0 2.815845 1_565
Ba0 O1 2.815845 1_655
Ba0 O7 2.900632 1_656
Ba0 O6 2.900632 1_566
Ba0 O8 2.900632 1_665
Ba1 O7 2.799215 1_555
Ba1 O6 2.799215 1_555
Ba1 O8 2.799216 1_555
Ba1 O11 2.810414 1_545
Ba1 O11 2.810414 1_455
Ba1 O9 2.810414 1_554
Ba1 O10 2.810414 1_554
Ba1 O10 2.810414 1_455
Ba1 O9 2.810414 1_545
Ba1 O3 2.821875 1_555
Ba1 O4 2.821875 1_555
Ba1 O5 2.821875 1_555
La0 O15 2.498134 1_545
La0 O17 2.498134 1_455
La0 O16 2.498134 1_554
La0 O5 2.815382 1_545
La0 O5 2.815382 1_455
La0 O3 2.815382 1_554
La0 O4 2.815382 1_554
La0 O3 2.815382 1_545
La0 O4 2.815382 1_455
La0 O10 2.968667 1_454
La0 O9 2.968667 1_544
La0 O11 2.968667 1_445
La1 O16 2.492812 1_554
La1 O15 2.492813 1_545
La1 O17 2.492813 1_455
La1 O13 2.830615 1_545
La1 O13 2.830615 1_455
La1 O12 2.830615 1_455
La1 O14 2.830615 1_545
La1 O14 2.830615 1_554
La1 O12 2.830615 1_554
La1 O1 3.157815 1_545
La1 O0 3.157815 1_455
La1 O2 3.157816 1_554
La2 O13 2.492915 1_556
La2 O12 2.492915 1_565
La2 O14 2.492915 1_655
La2 O16 2.837984 1_565
La2 O16 2.837984 1_655
La2 O17 2.837984 1_565
La2 O15 2.837984 1_655
La2 O17 2.837984 1_556
La2 O15 2.837984 1_556
La2 O4 2.973793 1_565
La2 O3 2.973793 1_655
La2 O5 2.973793 1_556
La3 O1 2.635701 1_555
La3 O0 2.635701 1_555
La3 O2 2.635701 1_555
La3 O8 2.813779 1_565
La3 O8 2.813779 1_655
La3 O6 2.813779 1_556
La3 O7 2.813779 1_556
La3 O6 2.813779 1_565
La3 O7 2.813779 1_655
La3 O9 2.885517 1_555
La3 O10 2.885517 1_555
La3 O11 2.885517 1_555
O0 Ti3 1.903451 1_655
O0 Ti0 2.176952 1_555
O1 Ti3 1.903451 1_565
O1 Ti0 2.176952 1_555
O2 Ti3 1.903451 1_556
O2 Ti0 2.176952 1_555
O3 Ti4 1.949245 1_455
O3 Ti1 2.086224 1_555
O4 Ti4 1.949245 1_545
O4 Ti1 2.086224 1_555
O5 Ti4 1.949244 1_554
O5 Ti1 2.086224 1_555
O6 Ti2 1.964057 1_655
O6 Ti3 2.064698 1_555
O7 Ti2 1.964057 1_565
O7 Ti3 2.064698 1_555
O8 Ti2 1.964057 1_556
O8 Ti3 2.064698 1_555
O9 Ti2 1.990926 1_566
O9 Ti4 2.003917 1_555
O10 Ti2 1.990926 1_656
O10 Ti4 2.003917 1_555
O11 Ti2 1.990926 1_665
O11 Ti4 2.003916 1_555
O12 Ti0 1.851317 1_555
O13 Ti0 1.851317 1_555
O14 Ti0 1.851317 1_555
O15 Ti1 1.888013 1_555
O16 Ti1 1.888013 1_555
O17 Ti1 1.888013 1_555
