# generated using pymatgen
data_MnBi2O5
_symmetry_space_group_name_H-M   'P 1'
_cell_length_a   6.55987400
_cell_length_b   7.34743400
_cell_length_c   9.71831100
_cell_angle_alpha   90.00000000
_cell_angle_beta   90.00000000
_cell_angle_gamma   90.00000000
_symmetry_Int_Tables_number   1
_chemical_formula_structural   MnBi2O5
_chemical_formula_sum   'Mn4 Bi8 O20'
_cell_volume   468.40549825
_cell_formula_units_Z   4
loop_
 _symmetry_equiv_pos_site_id
 _symmetry_equiv_pos_as_xyz
  1  'x, y, z'
loop_
 _atom_site_type_symbol
 _atom_site_label
 _atom_site_symmetry_multiplicity
 _atom_site_fract_x
 _atom_site_fract_y
 _atom_site_fract_z
 _atom_site_occupancy
  Mn  Mn0  1  0.50000000  0.35696200  0.38523200  1
  Mn  Mn1  1  0.50000000  0.64303800  0.61476800  1
  Mn  Mn2  1  0.50000000  0.14303800  0.88523200  1
  Mn  Mn3  1  0.50000000  0.85696200  0.11476800  1
  Bi  Bi0  1  0.00000000  0.04333000  0.16727500  1
  Bi  Bi1  1  0.00000000  0.95667000  0.83272500  1
  Bi  Bi2  1  0.00000000  0.45667000  0.66727500  1
  Bi  Bi3  1  0.00000000  0.54333000  0.33272500  1
  Bi  Bi4  1  0.25530600  0.00000000  0.50000000  1
  Bi  Bi5  1  0.74469400  0.00000000  0.50000000  1
  Bi  Bi6  1  0.74469400  0.50000000  0.00000000  1
  Bi  Bi7  1  0.25530600  0.50000000  0.00000000  1
  O  O0  1  0.26060900  0.00000000  0.00000000  1
  O  O1  1  0.73939100  0.00000000  0.00000000  1
  O  O2  1  0.73939100  0.50000000  0.50000000  1
  O  O3  1  0.26060900  0.50000000  0.50000000  1
  O  O4  1  0.00000000  0.34599000  0.09818900  1
  O  O5  1  0.00000000  0.65401000  0.90181100  1
  O  O6  1  0.00000000  0.15401000  0.59818900  1
  O  O7  1  0.00000000  0.84599000  0.40181100  1
  O  O8  1  0.50000000  0.33063900  0.07584000  1
  O  O9  1  0.50000000  0.66936100  0.92416000  1
  O  O10  1  0.50000000  0.16936100  0.57584000  1
  O  O11  1  0.50000000  0.83063900  0.42416000  1
  O  O12  1  0.25138300  0.16481700  0.32260100  1
  O  O13  1  0.74861700  0.83518300  0.67739900  1
  O  O14  1  0.25138300  0.83518300  0.67739900  1
  O  O15  1  0.74861700  0.33518300  0.82260100  1
  O  O16  1  0.74861700  0.16481700  0.32260100  1
  O  O17  1  0.25138300  0.66481700  0.17739900  1
  O  O18  1  0.74861700  0.66481700  0.17739900  1
  O  O19  1  0.25138300  0.33518300  0.82260100  1
loop_
_geom_bond_atom_site_label_1
_geom_bond_atom_site_label_2
_geom_bond_distance
_geom_bond_site_symmetry_2
Mn0 O2 2.194221 1_555
Mn0 O3 2.194221 1_555
Mn0 O12 2.241294 1_555
Mn0 O16 2.241294 1_555
Mn0 O10 2.308958 1_555
Mn1 O2 2.194221 1_555
Mn1 O3 2.194221 1_555
Mn1 O13 2.241294 1_555
Mn1 O14 2.241294 1_555
Mn1 O11 2.308958 1_555
Mn2 O1 2.194221 1_556
Mn2 O0 2.194221 1_556
Mn2 O15 2.241294 1_555
Mn2 O19 2.241294 1_555
Mn2 O8 2.308958 1_556
Mn3 O0 2.194221 1_565
Mn3 O1 2.194221 1_565
Mn3 O18 2.241294 1_555
Mn3 O17 2.241294 1_555
Mn3 O9 2.308958 1_554
Bi0 O4 2.322918 1_555
Bi0 O1 2.380469 1_455
Bi0 O0 2.380469 1_555
Bi0 O16 2.407221 1_455
Bi0 O12 2.407221 1_555
Bi0 O7 2.701391 1_545
Bi1 O5 2.322918 1_555
Bi1 O1 2.380469 1_466
Bi1 O0 2.380469 1_566
Bi1 O13 2.407221 1_455
Bi1 O14 2.407221 1_555
Bi1 O6 2.701391 1_565
Bi2 O6 2.322918 1_555
Bi2 O2 2.380469 1_455
Bi2 O3 2.380469 1_555
Bi2 O19 2.407221 1_555
Bi2 O15 2.407221 1_455
Bi2 O5 2.701391 1_555
Bi3 O7 2.322918 1_555
Bi3 O2 2.380469 1_455
Bi3 O3 2.380469 1_555
Bi3 O17 2.407221 1_555
Bi3 O18 2.407221 1_455
Bi3 O4 2.701391 1_555
Bi4 O12 2.106984 1_555
Bi4 O14 2.106984 1_545
Bi4 O10 2.160607 1_555
Bi4 O11 2.160607 1_545
Bi4 O6 2.235151 1_555
Bi4 O7 2.235151 1_545
Bi5 O16 2.106984 1_555
Bi5 O13 2.106984 1_545
Bi5 O10 2.160607 1_555
Bi5 O11 2.160607 1_545
Bi5 O6 2.235151 1_655
Bi5 O7 2.235151 1_645
Bi6 O15 2.106984 1_554
Bi6 O18 2.106984 1_555
Bi6 O8 2.160607 1_555
Bi6 O9 2.160607 1_554
Bi6 O5 2.235151 1_654
Bi6 O4 2.235151 1_655
Bi7 O19 2.106984 1_554
Bi7 O17 2.106984 1_555
Bi7 O8 2.160607 1_555
Bi7 O9 2.160607 1_554
Bi7 O4 2.235151 1_555
Bi7 O5 2.235151 1_554
