# generated using pymatgen
data_Lu5Pt3
_symmetry_space_group_name_H-M   'P 1'
_cell_length_a   8.23908200
_cell_length_b   8.23908200
_cell_length_c   5.97590420
_cell_angle_alpha   90.00000000
_cell_angle_beta   90.00000000
_cell_angle_gamma   120.00001217
_symmetry_Int_Tables_number   1
_chemical_formula_structural   Lu5Pt3
_chemical_formula_sum   'Lu10 Pt6'
_cell_volume   351.31108638
_cell_formula_units_Z   2
loop_
 _symmetry_equiv_pos_site_id
 _symmetry_equiv_pos_as_xyz
  1  'x, y, z'
loop_
 _atom_site_type_symbol
 _atom_site_label
 _atom_site_symmetry_multiplicity
 _atom_site_fract_x
 _atom_site_fract_y
 _atom_site_fract_z
 _atom_site_occupancy
  Lu  Lu0  1  0.66666700  0.33333300  0.50000000  1
  Lu  Lu1  1  0.33333300  0.66666700  0.50000000  1
  Lu  Lu2  1  0.33333300  0.66666700  -0.00000000  1
  Lu  Lu3  1  0.66666700  0.33333300  -0.00000000  1
  Lu  Lu4  1  0.75312932  0.75312932  0.25000000  1
  Lu  Lu5  1  0.24687068  0.00000000  0.25000000  1
  Lu  Lu6  1  0.00000000  0.24687068  0.25000000  1
  Lu  Lu7  1  0.24687068  0.24687068  0.75000000  1
  Lu  Lu8  1  0.75312932  1.00000000  0.75000000  1
  Lu  Lu9  1  1.00000000  0.75312932  0.75000000  1
  Pt  Pt0  1  0.39523167  0.39523167  0.25000000  1
  Pt  Pt1  1  0.60476833  1.00000000  0.25000000  1
  Pt  Pt2  1  1.00000000  0.60476833  0.25000000  1
  Pt  Pt3  1  0.60476833  0.60476833  0.75000000  1
  Pt  Pt4  1  0.39523167  0.00000000  0.75000000  1
  Pt  Pt5  1  0.00000000  0.39523167  0.75000000  1
loop_
_geom_bond_atom_site_label_1
_geom_bond_atom_site_label_2
_geom_bond_distance
_geom_bond_site_symmetry_2
Lu0 Pt1 2.938354 1_545
Lu0 Pt5 2.938354 1_655
Lu0 Pt2 2.938356 1_555
Lu0 Pt4 2.938356 1_555
Lu0 Pt0 2.938361 1_555
Lu0 Pt3 2.938361 1_555
Lu1 Pt2 2.938354 1_455
Lu1 Pt4 2.938354 1_565
Lu1 Pt1 2.938356 1_555
Lu1 Pt5 2.938356 1_555
Lu1 Pt0 2.938361 1_555
Lu1 Pt3 2.938361 1_555
Lu2 Pt2 2.938354 1_455
Lu2 Pt4 2.938354 1_564
Lu2 Pt1 2.938356 1_555
Lu2 Pt5 2.938356 1_554
Lu2 Pt0 2.938361 1_555
Lu2 Pt3 2.938361 1_554
Lu3 Pt1 2.938354 1_545
Lu3 Pt5 2.938354 1_654
Lu3 Pt2 2.938356 1_555
Lu3 Pt4 2.938356 1_554
Lu3 Pt0 2.938361 1_555
Lu3 Pt3 2.938361 1_554
Lu4 Pt1 2.849128 1_555
Lu4 Pt2 2.849128 1_555
Lu4 Pt0 2.948748 1_555
Lu4 Pt3 3.228315 1_554
Lu4 Pt3 3.228315 1_555
Lu5 Pt2 2.849127 1_445
Lu5 Pt0 2.849127 1_555
Lu5 Pt1 2.948748 1_545
Lu5 Pt4 3.228315 1_554
Lu5 Pt4 3.228315 1_555
Lu6 Pt1 2.849127 1_445
Lu6 Pt0 2.849127 1_555
Lu6 Pt2 2.948748 1_455
Lu6 Pt5 3.228315 1_555
Lu6 Pt5 3.228315 1_554
Lu7 Pt5 2.849128 1_555
Lu7 Pt4 2.849128 1_555
Lu7 Pt3 2.948748 1_555
Lu7 Pt0 3.228315 1_556
Lu7 Pt0 3.228315 1_555
Lu8 Pt5 2.849127 1_665
Lu8 Pt3 2.849127 1_555
Lu8 Pt4 2.948748 1_565
Lu8 Pt1 3.228315 1_555
Lu8 Pt1 3.228315 1_556
Lu9 Pt4 2.849127 1_665
Lu9 Pt3 2.849127 1_555
Lu9 Pt5 2.948748 1_655
Lu9 Pt2 3.228315 1_556
Lu9 Pt2 3.228315 1_555
