# generated using pymatgen
data_Li2V3CoO8
_symmetry_space_group_name_H-M   'P 1'
_cell_length_a   5.93115772
_cell_length_b   5.94933820
_cell_length_c   10.27273564
_cell_angle_alpha   106.73953102
_cell_angle_beta   90.01062471
_cell_angle_gamma   60.13064506
_symmetry_Int_Tables_number   1
_chemical_formula_structural   Li2V3CoO8
_chemical_formula_sum   'Li4 V6 Co2 O16'
_cell_volume   296.50341081
_cell_formula_units_Z   2
loop_
 _symmetry_equiv_pos_site_id
 _symmetry_equiv_pos_as_xyz
  1  'x, y, z'
loop_
 _atom_site_type_symbol
 _atom_site_label
 _atom_site_symmetry_multiplicity
 _atom_site_fract_x
 _atom_site_fract_y
 _atom_site_fract_z
 _atom_site_occupancy
  Li  Li0  1  0.31933700  0.36307600  0.56074000  1
  Li  Li1  1  0.81769100  0.36315600  0.06060800  1
  Li  Li2  1  0.74846400  0.50314000  0.75085000  1
  Li  Li3  1  0.24879400  0.50239300  0.24990300  1
  V  V0  1  0.75810200  0.00098700  0.75305000  1
  V  V1  1  0.25593000  0.00359700  0.25286600  1
  V  V2  1  0.99122000  0.00229800  0.50323300  1
  V  V3  1  0.49108800  0.00180100  0.00284200  1
  V  V4  1  0.24815100  0.00394400  0.74580400  1
  V  V5  1  0.74957000  0.00024000  0.24432600  1
  Co  Co0  1  0.18146500  0.63773900  0.93975700  1
  Co  Co1  1  0.67912000  0.64043000  0.44006200  1
  O  O0  1  0.11281500  0.77543400  0.62959500  1
  O  O1  1  0.61180200  0.77476900  0.12868200  1
  O  O2  1  0.38806400  0.22507200  0.87097800  1
  O  O3  1  0.88716200  0.22503700  0.37065500  1
  O  O4  1  0.67258000  0.21126900  0.61852500  1
  O  O5  1  0.17150300  0.21165200  0.11802600  1
  O  O6  1  0.87994000  0.21240800  0.85516200  1
  O  O7  1  0.38036600  0.21076800  0.35469900  1
  O  O8  1  0.13094500  0.21196200  0.63272500  1
  O  O9  1  0.63037900  0.21135500  0.13251100  1
  O  O10  1  0.36996100  0.78512700  0.86805600  1
  O  O11  1  0.87053000  0.78375600  0.36744500  1
  O  O12  1  0.62105500  0.78486300  0.64373300  1
  O  O13  1  0.12010900  0.78443700  0.14334400  1
  O  O14  1  0.83277300  0.78465600  0.88102600  1
  O  O15  1  0.33108600  0.78462600  0.38079800  1
loop_
_geom_bond_atom_site_label_1
_geom_bond_atom_site_label_2
_geom_bond_distance
_geom_bond_site_symmetry_2
Li0 O4 1.995315 1_555
Li0 O8 1.996870 1_555
Li0 O7 2.000224 1_555
Li0 O0 2.006685 1_555
Li1 O6 1.993734 1_554
Li1 O9 1.994849 1_555
Li1 O5 1.996467 1_655
Li1 O1 2.003066 1_555
Li2 O14 2.094559 1_555
Li2 O10 2.095255 1_555
Li2 O12 2.095621 1_555
Li2 O6 2.114706 1_555
Li2 O4 2.117574 1_555
Li2 O8 2.120273 1_655
Li3 O13 2.092493 1_555
Li3 O15 2.093122 1_555
Li3 O11 2.095119 1_455
Li3 O9 2.114120 1_555
Li3 O5 2.115921 1_555
Li3 O7 2.122520 1_555
Co0 O13 1.974984 1_556
Co0 O14 1.976863 1_455
Co0 O10 1.977408 1_555
Co0 O2 2.008188 1_555
Co1 O11 1.975699 1_555
Co1 O15 1.975910 1_555
Co1 O12 1.975953 1_555
Co1 O3 2.021455 1_555
O0 V0 2.010959 1_465
O0 V2 2.016470 1_465
O0 V4 2.017264 1_565
O1 V3 2.012545 1_565
O1 V5 2.012907 1_565
O1 V1 2.018515 1_565
O2 V4 2.045821 1_555
O2 V3 2.049508 1_556
O2 V0 2.053804 1_555
O3 V1 2.048482 1_655
O3 V2 2.053412 1_555
O3 V5 2.055647 1_555
O4 V2 1.825492 1_555
O4 V0 2.023787 1_555
O5 V3 1.828786 1_555
O5 V1 2.017824 1_555
O6 V0 1.830214 1_555
O6 V4 2.017467 1_655
O7 V1 1.822428 1_555
O7 V5 2.024984 1_555
O8 V4 1.826232 1_555
O8 V2 2.021299 1_455
O9 V5 1.828393 1_555
O9 V3 2.019916 1_555
O10 V4 1.948977 1_565
O10 V3 1.997225 1_566
O11 V5 1.946992 1_565
O11 V2 2.007635 1_565
O12 V0 1.945252 1_565
O12 V4 2.008070 1_565
O13 V1 1.953372 1_565
O13 V5 1.994403 1_465
O14 V3 1.950359 1_566
O14 V0 1.996904 1_565
O15 V2 1.945492 1_465
O15 V1 2.007625 1_565
