# generated using pymatgen
data_LiMg6Ga
_symmetry_space_group_name_H-M   'P 1'
_cell_length_a   4.98716300
_cell_length_b   6.25572000
_cell_length_c   10.93070100
_cell_angle_alpha   90.00000000
_cell_angle_beta   90.00000000
_cell_angle_gamma   90.00000000
_symmetry_Int_Tables_number   1
_chemical_formula_structural   LiMg6Ga
_chemical_formula_sum   'Li2 Mg12 Ga2'
_cell_volume   341.01923788
_cell_formula_units_Z   2
loop_
 _symmetry_equiv_pos_site_id
 _symmetry_equiv_pos_as_xyz
  1  'x, y, z'
loop_
 _atom_site_type_symbol
 _atom_site_label
 _atom_site_symmetry_multiplicity
 _atom_site_fract_x
 _atom_site_fract_y
 _atom_site_fract_z
 _atom_site_occupancy
  Li  Li0  1  0.50000000  0.00000000  0.16737200  1
  Li  Li1  1  0.50000000  0.50000000  0.66737200  1
  Mg  Mg0  1  0.50000000  0.24915100  0.41646300  1
  Mg  Mg1  1  0.50000000  0.75084900  0.41646300  1
  Mg  Mg2  1  0.00000000  0.74941700  0.08513400  1
  Mg  Mg3  1  0.00000000  0.25058300  0.08513400  1
  Mg  Mg4  1  0.00000000  0.00000000  0.33210200  1
  Mg  Mg5  1  0.00000000  0.50000000  0.33140500  1
  Mg  Mg6  1  0.50000000  0.74915100  0.91646300  1
  Mg  Mg7  1  0.50000000  0.25084900  0.91646300  1
  Mg  Mg8  1  0.00000000  0.24941700  0.58513400  1
  Mg  Mg9  1  0.00000000  0.75058300  0.58513400  1
  Mg  Mg10  1  0.00000000  0.50000000  0.83210200  1
  Mg  Mg11  1  0.00000000  0.00000000  0.83140500  1
  Ga  Ga0  1  0.50000000  0.50000000  0.16592300  1
  Ga  Ga1  1  0.50000000  0.00000000  0.66592300  1
loop_
_geom_bond_atom_site_label_1
_geom_bond_atom_site_label_2
_geom_bond_distance
_geom_bond_site_symmetry_2
Li0 Mg4 3.075737 1_655
Li0 Mg4 3.075737 1_555
Li0 Mg2 3.079497 1_645
Li0 Mg2 3.079497 1_545
Li0 Mg3 3.079497 1_655
Li0 Mg3 3.079497 1_555
Li0 Mg0 3.137292 1_555
Li0 Mg1 3.137292 1_545
Li0 Mg6 3.159816 1_544
Li0 Mg7 3.159816 1_554
Li1 Mg10 3.075737 1_655
Li1 Mg10 3.075737 1_555
Li1 Mg8 3.079497 1_655
Li1 Mg9 3.079497 1_555
Li1 Mg8 3.079497 1_555
Li1 Mg9 3.079497 1_655
Li1 Mg6 3.137292 1_555
Li1 Mg7 3.137292 1_555
Li1 Mg1 3.159816 1_555
Li1 Mg0 3.159816 1_555
Mg0 Mg4 3.081810 1_555
Mg0 Mg4 3.081810 1_655
Mg0 Mg5 3.089480 1_655
Mg0 Mg5 3.089480 1_555
Mg0 Mg8 3.101153 1_655
Mg0 Mg8 3.101153 1_555
Mg0 Mg1 3.117238 1_545
Mg0 Mg1 3.138482 1_555
Mg1 Mg4 3.081810 1_565
Mg1 Mg4 3.081810 1_665
Mg1 Mg5 3.089480 1_655
Mg1 Mg5 3.089480 1_555
Mg1 Mg9 3.101153 1_555
Mg1 Mg9 3.101153 1_655
Mg2 Mg6 3.101153 1_454
Mg2 Mg6 3.101153 1_554
Mg2 Mg5 3.111412 1_555
Mg2 Mg3 3.120566 1_555
Mg2 Mg4 3.121663 1_565
Mg2 Mg3 3.135154 1_565
Mg3 Mg7 3.101153 1_554
Mg3 Mg7 3.101153 1_454
Mg3 Mg5 3.111412 1_555
Mg3 Mg4 3.121663 1_555
Mg4 Mg5 3.127869 1_555
Mg4 Mg5 3.127869 1_545
Mg4 Mg9 3.175567 1_545
Mg4 Mg8 3.175567 1_555
Mg5 Mg8 3.185788 1_555
Mg5 Mg9 3.185788 1_555
Mg6 Mg7 3.117238 1_555
Mg6 Mg7 3.138482 1_565
Mg8 Mg9 3.120566 1_545
Mg8 Mg9 3.135154 1_555
Mg10 Mg6 3.081810 1_455
Mg10 Mg7 3.081810 1_455
Mg10 Mg7 3.081810 1_555
Mg10 Mg6 3.081810 1_555
Mg10 Mg9 3.121663 1_555
Mg10 Mg8 3.121663 1_555
Mg10 Mg11 3.127869 1_565
Mg10 Mg11 3.127869 1_555
Mg10 Mg3 3.175567 1_556
Mg10 Mg2 3.175567 1_556
Mg11 Mg6 3.089480 1_445
Mg11 Mg6 3.089480 1_545
Mg11 Mg7 3.089480 1_455
Mg11 Mg7 3.089480 1_555
Mg11 Mg8 3.111412 1_555
Mg11 Mg9 3.111412 1_545
Mg11 Mg3 3.185788 1_556
Mg11 Mg2 3.185788 1_546
Ga0 Mg3 3.071199 1_655
Ga0 Mg2 3.071199 1_655
Ga0 Mg3 3.071199 1_555
Ga0 Mg2 3.071199 1_555
Ga0 Mg5 3.080557 1_655
Ga0 Mg5 3.080557 1_555
Ga0 Li0 3.127900 1_565
Ga0 Li0 3.127900 1_555
Ga0 Mg6 3.140793 1_554
Ga0 Mg7 3.140793 1_554
Ga0 Mg1 3.156315 1_555
Ga0 Mg0 3.156315 1_555
Ga1 Mg9 3.071199 1_545
Ga1 Mg8 3.071199 1_555
Ga1 Mg8 3.071199 1_655
Ga1 Mg9 3.071199 1_645
Ga1 Mg11 3.080557 1_655
Ga1 Mg11 3.080557 1_555
Ga1 Li1 3.127900 1_555
Ga1 Li1 3.127900 1_545
Ga1 Mg0 3.140793 1_555
Ga1 Mg1 3.140793 1_545
Ga1 Mg6 3.156315 1_545
Ga1 Mg7 3.156315 1_555
