# generated using pymatgen
data_Eu2CuSe2O
_symmetry_space_group_name_H-M   'P 1'
_cell_length_a   4.09065600
_cell_length_b   4.09065600
_cell_length_c   14.26056400
_cell_angle_alpha   90.00000000
_cell_angle_beta   90.00000000
_cell_angle_gamma   90.00000000
_symmetry_Int_Tables_number   1
_chemical_formula_structural   Eu2CuSe2O
_chemical_formula_sum   'Eu2 Cu1 Se2 O1'
_cell_volume   238.62867011
_cell_formula_units_Z   1
loop_
 _symmetry_equiv_pos_site_id
 _symmetry_equiv_pos_as_xyz
  1  'x, y, z'
loop_
 _atom_site_type_symbol
 _atom_site_label
 _atom_site_symmetry_multiplicity
 _atom_site_fract_x
 _atom_site_fract_y
 _atom_site_fract_z
 _atom_site_occupancy
  Eu  Eu0  1  0.50000000  0.50000000  0.64778100  1
  Eu  Eu1  1  0.50000000  0.50000000  0.35221900  1
  Cu  Cu0  1  0.50000000  0.50000000  0.00000000  1
  Se  Se0  1  0.50000000  0.50000000  0.15523700  1
  Se  Se1  1  0.50000000  0.50000000  0.84476300  1
  O  O0  1  0.50000000  0.50000000  0.50000000  1
loop_
_geom_bond_atom_site_label_1
_geom_bond_atom_site_label_2
_geom_bond_distance
_geom_bond_site_symmetry_2
Eu0 O0 2.107440 1_555
Eu0 Se1 2.809074 1_555
Eu1 O0 2.107440 1_555
Eu1 Se0 2.809074 1_555
Cu0 Se1 2.213767 1_554
Cu0 Se0 2.213767 1_555
