# generated using pymatgen
data_MgCd4Cu4As4(HO5)4
_symmetry_space_group_name_H-M   'P 1'
_cell_length_a   6.01660767
_cell_length_b   7.72246180
_cell_length_c   9.86199641
_cell_angle_alpha   88.48792620
_cell_angle_beta   90.00000000
_cell_angle_gamma   90.00000000
_symmetry_Int_Tables_number   1
_chemical_formula_structural   MgCd4Cu4As4(HO5)4
_chemical_formula_sum   'Mg1 Cd4 Cu4 As4 H4 O20'
_cell_volume   458.05860748
_cell_formula_units_Z   1
loop_
 _symmetry_equiv_pos_site_id
 _symmetry_equiv_pos_as_xyz
  1  'x, y, z'
loop_
 _atom_site_type_symbol
 _atom_site_label
 _atom_site_symmetry_multiplicity
 _atom_site_fract_x
 _atom_site_fract_y
 _atom_site_fract_z
 _atom_site_occupancy
  Mg  Mg0  1  0.75000000  0.30272617  0.12531068  1
  Cd  Cd0  1  0.25000000  0.59967789  0.28970391  1
  Cd  Cd1  1  0.25000000  0.04829486  0.19072827  1
  Cd  Cd2  1  0.75000000  0.39310821  0.68444352  1
  Cd  Cd3  1  0.75000000  0.88056279  0.81630199  1
  Cu  Cu0  1  0.47245290  0.50085156  0.95496058  1
  Cu  Cu1  1  0.00496118  0.00755891  0.51665809  1
  Cu  Cu2  1  0.02754710  0.50085156  0.95496058  1
  Cu  Cu3  1  0.49503882  0.00755891  0.51665809  1
  As  As0  1  0.25000000  0.62636025  0.64150060  1
  As  As1  1  0.25000000  0.11071274  0.87257927  1
  As  As2  1  0.75000000  0.39263830  0.38476421  1
  As  As3  1  0.75000000  0.85318625  0.15524737  1
  H  H0  1  0.25000000  0.74111157  0.02329610  1
  H  H1  1  0.25000000  0.24458438  0.42279125  1
  H  H2  1  0.75000000  0.24579987  0.90121774  1
  H  H3  1  0.75000000  0.76407748  0.55023345  1
  O  O0  1  0.53273419  0.37865906  0.26773413  1
  O  O1  1  0.98721556  0.83175430  0.25361109  1
  O  O2  1  0.01827561  0.59400532  0.74673834  1
  O  O3  1  0.49302176  0.11830628  0.77799641  1
  O  O4  1  0.48172439  0.59400532  0.74673834  1
  O  O5  1  0.00697824  0.11830628  0.77799641  1
  O  O6  1  0.96726581  0.37865906  0.26773413  1
  O  O7  1  0.51278444  0.83175430  0.25361109  1
  O  O8  1  0.25000000  0.48846023  0.50748099  1
  O  O9  1  0.25000000  0.93177320  0.97956099  1
  O  O10  1  0.75000000  0.56612995  0.48469036  1
  O  O11  1  0.75000000  0.06127720  0.08845773  1
  O  O12  1  0.25000000  0.83925704  0.57820481  1
  O  O13  1  0.25000000  0.27277611  0.99570705  1
  O  O14  1  0.75000000  0.21124995  0.49689001  1
  O  O15  1  0.75000000  0.72053436  0.01308254  1
  O  O16  1  0.25000000  0.61623122  0.05545864  1
  O  O17  1  0.25000000  0.11795413  0.41410871  1
  O  O18  1  0.75000000  0.36910491  0.92693021  1
  O  O19  1  0.75000000  0.88299709  0.58734128  1
loop_
_geom_bond_atom_site_label_1
_geom_bond_atom_site_label_2
_geom_bond_distance
_geom_bond_site_symmetry_2
Mg0 O11 1.909061 1_555
Mg0 O18 2.009340 1_554
Mg0 O0 2.017162 1_555
Mg0 O6 2.017162 1_555
Cd0 O8 2.291943 1_555
Cd0 O16 2.310290 1_555
Cd0 O1 2.409316 1_455
Cd0 O7 2.409316 1_555
Cd0 O6 2.423510 1_455
Cd0 O0 2.423510 1_555
Cd1 O17 2.281454 1_555
Cd1 O9 2.290313 1_544
Cd1 O1 2.371915 1_445
Cd1 O7 2.371915 1_545
Cd1 O13 2.555055 1_554
Cd2 O4 2.332377 1_555
Cd2 O2 2.332377 1_655
Cd2 O10 2.350990 1_555
Cd2 O14 2.351728 1_555
Cd2 O18 2.393695 1_555
Cd2 H2 2.395005 1_555
Cd2 O5 2.764407 1_655
Cd2 O3 2.764407 1_555
Cd3 O19 2.257592 1_555
Cd3 O15 2.273056 1_556
Cd3 O3 2.422275 1_565
Cd3 O5 2.422275 1_665
Cu0 O16 1.901095 1_556
Cu0 O18 1.978615 1_555
Cu0 O4 2.158579 1_555
Cu0 O13 2.240014 1_555
Cu0 O15 2.458963 1_556
Cu1 O19 1.931059 1_445
Cu1 O17 1.969181 1_555
Cu1 O12 2.046847 1_545
Cu1 O14 2.202113 1_455
Cu2 O16 1.901095 1_556
Cu2 O18 1.978615 1_455
Cu2 O2 2.158579 1_555
Cu2 O13 2.240014 1_555
Cu2 O15 2.458963 1_456
Cu3 O19 1.931059 1_545
Cu3 O17 1.969181 1_555
Cu3 O12 2.046847 1_545
Cu3 O14 2.202113 1_555
As0 O8 1.719083 1_555
As0 O12 1.743134 1_555
As0 O4 1.752046 1_555
As0 O2 1.752046 1_555
As1 O9 1.716308 1_545
As1 O3 1.734518 1_555
As1 O5 1.734518 1_555
As1 O13 1.766640 1_555
As2 O10 1.683999 1_555
As2 O6 1.749020 1_555
As2 O0 1.749020 1_555
As2 O14 1.761577 1_555
As3 O11 1.720571 1_565
As3 O7 1.731166 1_555
As3 O1 1.731166 1_555
As3 O15 1.758089 1_555
H0 O16 1.007224 1_555
H0 O9 1.523290 1_554
H1 O17 0.983887 1_555
H2 O18 0.991849 1_555
H3 O19 0.997513 1_555
H3 O10 1.675323 1_555
