# generated using pymatgen
data_CeO2
_symmetry_space_group_name_H-M   'P 1'
_cell_length_a   3.82006583
_cell_length_b   3.82006583
_cell_length_c   5.99813200
_cell_angle_alpha   90.00000000
_cell_angle_beta   90.00000000
_cell_angle_gamma   119.99999700
_symmetry_Int_Tables_number   1
_chemical_formula_structural   CeO2
_chemical_formula_sum   'Ce2 O4'
_cell_volume   75.80334270
_cell_formula_units_Z   2
loop_
 _symmetry_equiv_pos_site_id
 _symmetry_equiv_pos_as_xyz
  1  'x, y, z'
loop_
 _atom_site_type_symbol
 _atom_site_label
 _atom_site_symmetry_multiplicity
 _atom_site_fract_x
 _atom_site_fract_y
 _atom_site_fract_z
 _atom_site_occupancy
  Ce  Ce0  1  0.66666700  0.33333300  0.75000000  1
  Ce  Ce1  1  0.33333300  0.66666700  0.25000000  1
  O  O0  1  0.66666700  0.33333300  0.25000000  1
  O  O1  1  0.33333300  0.66666700  0.75000000  1
  O  O2  1  0.00000000  0.00000000  0.00000000  1
  O  O3  1  0.00000000  0.00000000  0.50000000  1
loop_
_geom_bond_atom_site_label_1
_geom_bond_atom_site_label_2
_geom_bond_distance
_geom_bond_site_symmetry_2
Ce0 O1 2.205514 1_545
Ce0 O1 2.205514 1_655
Ce0 O1 2.205520 1_555
Ce0 O3 2.667000 1_655
Ce0 O2 2.667000 1_656
Ce0 O3 2.667003 1_555
Ce0 O2 2.667003 1_556
Ce0 O3 2.667003 1_665
Ce0 O2 2.667003 1_666
Ce1 O0 2.205514 1_455
Ce1 O0 2.205514 1_565
Ce1 O0 2.205520 1_555
Ce1 O3 2.667000 1_565
Ce1 O2 2.667000 1_565
Ce1 O3 2.667003 1_555
Ce1 O2 2.667003 1_555
Ce1 O3 2.667003 1_665
Ce1 O2 2.667003 1_665
