# generated using pymatgen
data_Sm2In3Cu
_symmetry_space_group_name_H-M   'P 1'
_cell_length_a   7.42602200
_cell_length_b   9.58319605
_cell_length_c   16.67571242
_cell_angle_alpha   89.97721650
_cell_angle_beta   90.00000000
_cell_angle_gamma   90.00000000
_symmetry_Int_Tables_number   1
_chemical_formula_structural   Sm2In3Cu
_chemical_formula_sum   'Sm16 In24 Cu8'
_cell_volume   1186.72739211
_cell_formula_units_Z   8
loop_
 _symmetry_equiv_pos_site_id
 _symmetry_equiv_pos_as_xyz
  1  'x, y, z'
loop_
 _atom_site_type_symbol
 _atom_site_label
 _atom_site_symmetry_multiplicity
 _atom_site_fract_x
 _atom_site_fract_y
 _atom_site_fract_z
 _atom_site_occupancy
  Sm  Sm0_0  1  0.00000000  0.49998100  0.00391100  1
  Sm  Sm0_1  1  0.00000000  0.49998100  0.50391100  1
  Sm  Sm0_2  1  0.00000000  0.99998100  0.00391100  1
  Sm  Sm0_3  1  0.00000000  0.99998100  0.50391100  1
  Sm  Sm0_4  1  0.50000000  0.49998100  0.00391100  1
  Sm  Sm0_5  1  0.50000000  0.49998100  0.50391100  1
  Sm  Sm0_6  1  0.50000000  0.99998100  0.00391100  1
  Sm  Sm0_7  1  0.50000000  0.99998100  0.50391100  1
  Sm  Sm1_0  1  0.00000000  0.24997000  0.24805800  1
  Sm  Sm1_1  1  0.00000000  0.24997000  0.74805800  1
  Sm  Sm1_2  1  0.00000000  0.74997000  0.24805800  1
  Sm  Sm1_3  1  0.00000000  0.74997000  0.74805800  1
  Sm  Sm1_4  1  0.50000000  0.24997000  0.24805800  1
  Sm  Sm1_5  1  0.50000000  0.24997000  0.74805800  1
  Sm  Sm1_6  1  0.50000000  0.74997000  0.24805800  1
  Sm  Sm1_7  1  0.50000000  0.74997000  0.74805800  1
  In  In0_0  1  0.25000000  0.24993100  0.41865000  1
  In  In0_1  1  0.25000000  0.24993100  0.91865000  1
  In  In0_2  1  0.25000000  0.74993100  0.41865000  1
  In  In0_3  1  0.25000000  0.74993100  0.91865000  1
  In  In0_4  1  0.75000000  0.24993100  0.41865000  1
  In  In0_5  1  0.75000000  0.24993100  0.91865000  1
  In  In0_6  1  0.75000000  0.74993100  0.41865000  1
  In  In0_7  1  0.75000000  0.74993100  0.91865000  1
  In  In1_0  1  0.25000000  0.25004900  0.09136600  1
  In  In1_1  1  0.25000000  0.25004900  0.59136600  1
  In  In1_2  1  0.25000000  0.75004900  0.09136600  1
  In  In1_3  1  0.25000000  0.75004900  0.59136600  1
  In  In1_4  1  0.75000000  0.25004900  0.09136600  1
  In  In1_5  1  0.75000000  0.25004900  0.59136600  1
  In  In1_6  1  0.75000000  0.75004900  0.09136600  1
  In  In1_7  1  0.75000000  0.75004900  0.59136600  1
  In  In2_0  1  0.25000000  0.49997450  0.32333950  1
  In  In2_1  1  0.25000000  0.49997450  0.82333950  1
  In  In2_2  1  0.25000000  0.99997450  0.32333950  1
  In  In2_3  1  0.25000000  0.99997450  0.82333950  1
  In  In2_4  1  0.75000000  0.49997450  0.32333950  1
  In  In2_5  1  0.75000000  0.49997450  0.82333950  1
  In  In2_6  1  0.75000000  0.99997450  0.32333950  1
  In  In2_7  1  0.75000000  0.99997450  0.82333950  1
  Cu  Cu0_0  1  0.25000000  0.49999400  0.16467550  1
  Cu  Cu0_1  1  0.25000000  0.49999400  0.66467550  1
  Cu  Cu0_2  1  0.25000000  0.99999400  0.16467550  1
  Cu  Cu0_3  1  0.25000000  0.99999400  0.66467550  1
  Cu  Cu0_4  1  0.75000000  0.49999400  0.16467550  1
  Cu  Cu0_5  1  0.75000000  0.49999400  0.66467550  1
  Cu  Cu0_6  1  0.75000000  0.99999400  0.16467550  1
  Cu  Cu0_7  1  0.75000000  0.99999400  0.66467550  1
loop_
_geom_bond_atom_site_label_1
_geom_bond_atom_site_label_2
_geom_bond_distance
_geom_bond_site_symmetry_2
Sm0_0 Sm0_4 3.713011 1_455
Sm0_0 Sm0_4 3.713011 1_555
Sm0_1 Sm0_5 3.713011 1_455
Sm0_1 Sm0_5 3.713011 1_555
Sm0_2 Sm0_6 3.713011 1_555
Sm0_2 Sm0_6 3.713011 1_455
Sm0_3 Sm0_7 3.713011 1_555
Sm0_3 Sm0_7 3.713011 1_455
Sm1_0 Sm1_4 3.713011 1_455
Sm1_0 Sm1_4 3.713011 1_555
Sm1_1 Sm1_5 3.713011 1_555
Sm1_1 Sm1_5 3.713011 1_455
Sm1_2 Sm1_6 3.713011 1_555
Sm1_2 Sm1_6 3.713011 1_455
Sm1_3 Sm1_7 3.713011 1_455
Sm1_3 Sm1_7 3.713011 1_555
In0_0 In2_0 2.874877 1_555
In0_0 In2_2 2.875236 1_545
In0_0 In1_1 2.880163 1_555
In0_0 Sm0_7 3.347080 1_545
In0_0 Sm0_3 3.347080 1_545
In0_0 Sm0_5 3.348575 1_555
In0_0 Sm0_1 3.348575 1_555
In0_0 Sm1_0 3.396936 1_555
In0_0 Sm1_4 3.396936 1_555
In0_1 In2_1 2.874877 1_555
In0_1 In2_3 2.875236 1_545
In0_1 In1_0 2.880163 1_556
In0_1 Sm0_2 3.347080 1_546
In0_1 Sm0_6 3.347080 1_546
In0_1 Sm0_4 3.348575 1_556
In0_1 Sm0_0 3.348575 1_556
In0_1 Sm1_1 3.396936 1_555
In0_1 Sm1_5 3.396936 1_555
In0_2 In2_2 2.874877 1_555
In0_2 In2_0 2.875236 1_555
In0_2 In1_3 2.880163 1_555
In0_2 Sm0_1 3.347080 1_555
In0_2 Sm0_5 3.347080 1_555
In0_2 Sm0_3 3.348575 1_555
In0_2 Sm0_7 3.348575 1_555
In0_2 Sm1_2 3.396936 1_555
In0_2 Sm1_6 3.396936 1_555
In0_3 In2_3 2.874877 1_555
In0_3 In2_1 2.875236 1_555
In0_3 In1_2 2.880163 1_556
In0_3 Sm0_0 3.347080 1_556
In0_3 Sm0_4 3.347080 1_556
In0_3 Sm0_6 3.348575 1_556
In0_3 Sm0_2 3.348575 1_556
In0_3 Sm1_3 3.396936 1_555
In0_3 Sm1_7 3.396936 1_555
In0_4 In2_4 2.874877 1_555
In0_4 In2_6 2.875236 1_545
In0_4 In1_5 2.880163 1_555
In0_4 Sm0_3 3.347080 1_645
In0_4 Sm0_7 3.347080 1_545
In0_4 Sm0_1 3.348575 1_655
In0_4 Sm0_5 3.348575 1_555
In0_4 Sm1_0 3.396936 1_655
In0_4 Sm1_4 3.396936 1_555
In0_5 In2_5 2.874877 1_555
In0_5 In2_7 2.875236 1_545
In0_5 In1_4 2.880163 1_556
In0_5 Sm0_2 3.347080 1_646
In0_5 Sm0_6 3.347080 1_546
In0_5 Sm0_0 3.348575 1_656
In0_5 Sm0_4 3.348575 1_556
In0_5 Sm1_1 3.396936 1_655
In0_5 Sm1_5 3.396936 1_555
In0_6 In2_6 2.874877 1_555
In0_6 In2_4 2.875236 1_555
In0_6 In1_7 2.880163 1_555
In0_6 Sm0_1 3.347080 1_655
In0_6 Sm0_5 3.347080 1_555
In0_6 Sm0_3 3.348575 1_655
In0_6 Sm0_7 3.348575 1_555
In0_6 Sm1_2 3.396936 1_655
In0_6 Sm1_6 3.396936 1_555
In0_7 In2_7 2.874877 1_555
In0_7 In2_5 2.875236 1_555
In0_7 In1_6 2.880163 1_556
In0_7 Sm0_0 3.347080 1_656
In0_7 Sm0_4 3.347080 1_556
In0_7 Sm0_2 3.348575 1_656
In0_7 Sm0_6 3.348575 1_556
In0_7 Sm1_3 3.396936 1_655
In0_7 Sm1_7 3.396936 1_555
In1_0 Sm1_4 3.205327 1_555
In1_0 Sm1_0 3.205327 1_555
In1_0 Sm0_4 3.362651 1_555
In1_0 Sm0_0 3.362651 1_555
In1_0 Sm0_2 3.364405 1_545
In1_0 Sm0_6 3.364405 1_545
In1_1 Sm1_1 3.205327 1_555
In1_1 Sm1_5 3.205327 1_555
In1_1 Sm0_1 3.362651 1_555
In1_1 Sm0_5 3.362651 1_555
In1_1 Sm0_7 3.364405 1_545
In1_1 Sm0_3 3.364405 1_545
In1_2 Sm1_2 3.205327 1_555
In1_2 Sm1_6 3.205327 1_555
In1_2 Sm0_2 3.362651 1_555
In1_2 Sm0_6 3.362651 1_555
In1_2 Sm0_0 3.364405 1_555
In1_2 Sm0_4 3.364405 1_555
In1_3 Sm1_3 3.205327 1_555
In1_3 Sm1_7 3.205327 1_555
In1_3 Sm0_7 3.362651 1_555
In1_3 Sm0_3 3.362651 1_555
In1_3 Sm0_5 3.364405 1_555
In1_3 Sm0_1 3.364405 1_555
In1_4 Sm1_0 3.205327 1_655
In1_4 Sm1_4 3.205327 1_555
In1_4 Sm0_0 3.362651 1_655
In1_4 Sm0_4 3.362651 1_555
In1_4 Sm0_2 3.364405 1_645
In1_4 Sm0_6 3.364405 1_545
In1_5 Sm1_1 3.205327 1_655
In1_5 Sm1_5 3.205327 1_555
In1_5 Sm0_1 3.362651 1_655
In1_5 Sm0_5 3.362651 1_555
In1_5 Sm0_3 3.364405 1_645
In1_5 Sm0_7 3.364405 1_545
In1_6 Sm1_2 3.205327 1_655
In1_6 Sm1_6 3.205327 1_555
In1_6 Sm0_2 3.362651 1_655
In1_6 Sm0_6 3.362651 1_555
In1_6 Sm0_0 3.364405 1_655
In1_6 Sm0_4 3.364405 1_555
In1_7 Sm1_3 3.205327 1_655
In1_7 Sm1_7 3.205327 1_555
In1_7 Sm0_3 3.362651 1_655
In1_7 Sm0_7 3.362651 1_555
In1_7 Sm0_1 3.364405 1_655
In1_7 Sm0_5 3.364405 1_555
In2_0 Sm1_2 3.280218 1_555
In2_0 Sm1_6 3.280218 1_555
In2_0 Sm1_0 3.281010 1_555
In2_0 Sm1_4 3.281010 1_555
In2_0 Sm0_1 3.537469 1_555
In2_0 Sm0_5 3.537469 1_555
In2_1 Sm1_7 3.280218 1_555
In2_1 Sm1_3 3.280218 1_555
In2_1 Sm1_1 3.281010 1_555
In2_1 Sm1_5 3.281010 1_555
In2_1 Sm0_0 3.537469 1_556
In2_1 Sm0_4 3.537469 1_556
In2_2 Sm1_4 3.280218 1_565
In2_2 Sm1_0 3.280218 1_565
In2_2 Sm1_2 3.281010 1_555
In2_2 Sm1_6 3.281010 1_555
In2_2 Sm0_7 3.537469 1_555
In2_2 Sm0_3 3.537469 1_555
In2_3 Sm1_1 3.280218 1_565
In2_3 Sm1_5 3.280218 1_565
In2_3 Sm1_3 3.281010 1_555
In2_3 Sm1_7 3.281010 1_555
In2_3 Sm0_2 3.537469 1_556
In2_3 Sm0_6 3.537469 1_556
In2_4 Sm1_2 3.280218 1_655
In2_4 Sm1_6 3.280218 1_555
In2_4 Sm1_0 3.281010 1_655
In2_4 Sm1_4 3.281010 1_555
In2_4 Sm0_1 3.537469 1_655
In2_4 Sm0_5 3.537469 1_555
In2_5 Sm1_3 3.280218 1_655
In2_5 Sm1_7 3.280218 1_555
In2_5 Sm1_1 3.281010 1_655
In2_5 Sm1_5 3.281010 1_555
In2_5 Sm0_0 3.537469 1_656
In2_5 Sm0_4 3.537469 1_556
In2_6 Sm1_0 3.280218 1_665
In2_6 Sm1_4 3.280218 1_565
In2_6 Sm1_2 3.281010 1_655
In2_6 Sm1_6 3.281010 1_555
In2_6 Sm0_3 3.537469 1_655
In2_6 Sm0_7 3.537469 1_555
In2_7 Sm1_1 3.280218 1_665
In2_7 Sm1_5 3.280218 1_565
In2_7 Sm1_3 3.281010 1_655
In2_7 Sm1_7 3.281010 1_555
In2_7 Sm0_2 3.537469 1_656
In2_7 Sm0_6 3.537469 1_556
Cu0_0 In2_0 2.645835 1_555
Cu0_0 In1_0 2.689634 1_555
Cu0_0 In1_2 2.689707 1_555
Cu0_0 Sm0_4 3.260926 1_555
Cu0_0 Sm0_0 3.260926 1_555
Cu0_0 Sm1_4 3.334412 1_555
Cu0_0 Sm1_0 3.334412 1_555
Cu0_0 Sm1_2 3.334876 1_555
Cu0_0 Sm1_6 3.334876 1_555
Cu0_1 In2_1 2.645835 1_555
Cu0_1 In1_1 2.689634 1_555
Cu0_1 In1_3 2.689707 1_555
Cu0_1 Sm0_1 3.260926 1_555
Cu0_1 Sm0_5 3.260926 1_555
Cu0_1 Sm1_5 3.334412 1_555
Cu0_1 Sm1_1 3.334412 1_555
Cu0_1 Sm1_3 3.334876 1_555
Cu0_1 Sm1_7 3.334876 1_555
Cu0_2 In2_2 2.645835 1_555
Cu0_2 In1_2 2.689634 1_555
Cu0_2 In1_0 2.689707 1_565
Cu0_2 Sm0_2 3.260926 1_555
Cu0_2 Sm0_6 3.260926 1_555
Cu0_2 Sm1_6 3.334412 1_555
Cu0_2 Sm1_2 3.334412 1_555
Cu0_2 Sm1_0 3.334876 1_565
Cu0_2 Sm1_4 3.334876 1_565
Cu0_3 In2_3 2.645835 1_555
Cu0_3 In1_3 2.689634 1_555
Cu0_3 In1_1 2.689707 1_565
Cu0_3 Sm0_3 3.260926 1_555
Cu0_3 Sm0_7 3.260926 1_555
Cu0_3 Sm1_3 3.334412 1_555
Cu0_3 Sm1_7 3.334412 1_555
Cu0_3 Sm1_5 3.334876 1_565
Cu0_3 Sm1_1 3.334876 1_565
Cu0_4 In2_4 2.645835 1_555
Cu0_4 In1_4 2.689634 1_555
Cu0_4 In1_6 2.689707 1_555
Cu0_4 Sm0_0 3.260926 1_655
Cu0_4 Sm0_4 3.260926 1_555
Cu0_4 Sm1_0 3.334412 1_655
Cu0_4 Sm1_4 3.334412 1_555
Cu0_4 Sm1_2 3.334876 1_655
Cu0_4 Sm1_6 3.334876 1_555
Cu0_5 In2_5 2.645835 1_555
Cu0_5 In1_5 2.689634 1_555
Cu0_5 In1_7 2.689707 1_555
Cu0_5 Sm0_1 3.260926 1_655
Cu0_5 Sm0_5 3.260926 1_555
Cu0_5 Sm1_1 3.334412 1_655
Cu0_5 Sm1_5 3.334412 1_555
Cu0_5 Sm1_3 3.334876 1_655
Cu0_5 Sm1_7 3.334876 1_555
Cu0_6 In2_6 2.645835 1_555
Cu0_6 In1_6 2.689634 1_555
Cu0_6 In1_4 2.689707 1_565
Cu0_6 Sm0_2 3.260926 1_655
Cu0_6 Sm0_6 3.260926 1_555
Cu0_6 Sm1_2 3.334412 1_655
Cu0_6 Sm1_6 3.334412 1_555
Cu0_6 Sm1_0 3.334876 1_665
Cu0_6 Sm1_4 3.334876 1_565
Cu0_7 In2_7 2.645835 1_555
Cu0_7 In1_7 2.689634 1_555
Cu0_7 In1_5 2.689707 1_565
Cu0_7 Sm0_3 3.260926 1_655
Cu0_7 Sm0_7 3.260926 1_555
Cu0_7 Sm1_3 3.334412 1_655
Cu0_7 Sm1_7 3.334412 1_555
Cu0_7 Sm1_1 3.334876 1_665
Cu0_7 Sm1_5 3.334876 1_565
