# generated using pymatgen
data_CaV4(PO5)4
_symmetry_space_group_name_H-M   'P 1'
_cell_length_a   5.29897852
_cell_length_b   10.40791587
_cell_length_c   7.41990988
_cell_angle_alpha   70.33399512
_cell_angle_beta   68.26391763
_cell_angle_gamma   74.81351474
_symmetry_Int_Tables_number   1
_chemical_formula_structural   CaV4(PO5)4
_chemical_formula_sum   'Ca1 V4 P4 O20'
_cell_volume   353.51075367
_cell_formula_units_Z   1
loop_
 _symmetry_equiv_pos_site_id
 _symmetry_equiv_pos_as_xyz
  1  'x, y, z'
loop_
 _atom_site_type_symbol
 _atom_site_label
 _atom_site_symmetry_multiplicity
 _atom_site_fract_x
 _atom_site_fract_y
 _atom_site_fract_z
 _atom_site_occupancy
  Ca  Ca0  1  0.00000000  0.75000000  0.75000000  1
  V  V0  1  0.05209200  0.46880900  0.04291100  1
  V  V1  1  0.00000000  0.75000000  0.25000000  1
  V  V2  1  0.50000000  0.24999900  0.75000000  1
  V  V3  1  0.94790900  0.03119100  0.45708900  1
  P  P0  1  0.59744400  0.04530100  0.17189200  1
  P  P1  1  0.40255700  0.45470000  0.32810800  1
  P  P2  1  0.32846100  0.96409400  0.79010400  1
  P  P3  1  0.67154000  0.53590700  0.70989600  1
  O  O0  1  0.28292800  0.07682600  0.26442600  1
  O  O1  1  0.25278600  0.39948700  0.23525800  1
  O  O2  1  0.04008600  0.84639900  0.39886000  1
  O  O3  1  0.24695100  0.86208800  0.00092800  1
  O  O4  1  0.30854400  0.61298100  0.30396100  1
  O  O5  1  0.27709500  0.11617100  0.79716800  1
  O  O6  1  0.33310200  0.37821500  0.55437600  1
  O  O7  1  0.22327200  0.32481900  0.93910800  1
  O  O8  1  0.74721500  0.10051300  0.26474200  1
  O  O9  1  0.15995500  0.95075200  0.66684400  1
  O  O10  1  0.71707300  0.42317400  0.23557500  1
  O  O11  1  0.35987800  0.57713900  0.81278900  1
  O  O12  1  0.77672700  0.17518100  0.56089300  1
  O  O13  1  0.66689700  0.12178500  0.94562500  1
  O  O14  1  0.84004500  0.54924900  0.83315600  1
  O  O15  1  0.69145700  0.88701800  0.19603900  1
  O  O16  1  0.75304900  0.63791300  0.49907200  1
  O  O17  1  0.95991500  0.65360000  0.10114000  1
  O  O18  1  0.64012300  0.92286000  0.68721000  1
  O  O19  1  0.72290500  0.38382900  0.70283200  1
loop_
_geom_bond_atom_site_label_1
_geom_bond_atom_site_label_2
_geom_bond_distance
_geom_bond_site_symmetry_2
Ca0 O14 2.266606 1_455
Ca0 O9 2.266616 1_555
Ca0 O18 2.320949 1_455
Ca0 O11 2.320956 1_555
Ca0 O2 2.404643 1_555
Ca0 O17 2.404644 1_456
O0 P0 1.540866 1_555
O0 V3 1.877718 1_455
O1 P1 1.531371 1_555
O1 V0 1.928086 1_555
O2 V1 1.817432 1_555
O2 V3 2.008766 1_465
O3 P2 1.543606 1_554
O3 V1 2.011536 1_555
O4 P1 1.559358 1_555
O4 V1 1.935484 1_555
O5 P2 1.549729 1_545
O5 V2 1.919742 1_555
O6 P1 1.544056 1_555
O6 V2 1.923162 1_555
O7 V0 1.791412 1_556
O7 V2 1.827225 1_555
O8 P0 1.531364 1_555
O8 V3 1.928086 1_555
O9 P2 1.551876 1_555
O9 V3 2.076319 1_465
O10 P1 1.540866 1_555
O10 V0 1.877720 1_655
O11 P3 1.552350 1_555
O11 V0 2.109922 1_556
O12 V3 1.791418 1_555
O12 V2 1.827208 1_555
O13 P0 1.544048 1_556
O13 V2 1.923157 1_555
O14 P3 1.551871 1_555
O14 V0 2.076323 1_656
O15 P0 1.559378 1_565
O15 V1 1.935476 1_655
O16 P3 1.543605 1_555
O16 V1 2.011531 1_655
O17 V1 1.817438 1_655
O17 V0 2.008756 1_655
O18 P2 1.552355 1_555
O18 V3 2.109924 1_565
O19 P3 1.549740 1_555
O19 V2 1.919760 1_555
