# generated using pymatgen
data_Mg2Zn
_symmetry_space_group_name_H-M   'P 1'
_cell_length_a   16.15227519
_cell_length_b   16.15227557
_cell_length_c   9.71194400
_cell_angle_alpha   90.00000000
_cell_angle_beta   90.00000000
_cell_angle_gamma   157.90573799
_symmetry_Int_Tables_number   1
_chemical_formula_structural   Mg2Zn
_chemical_formula_sum   'Mg32 Zn16'
_cell_volume   953.04468626
_cell_formula_units_Z   16
loop_
 _symmetry_equiv_pos_site_id
 _symmetry_equiv_pos_as_xyz
  1  'x, y, z'
loop_
 _atom_site_type_symbol
 _atom_site_label
 _atom_site_symmetry_multiplicity
 _atom_site_fract_x
 _atom_site_fract_y
 _atom_site_fract_z
 _atom_site_occupancy
  Mg  Mg0_0  1  0.00138500  0.49861500  0.00000000  1
  Mg  Mg0_1  1  0.00138500  0.49861500  0.50000000  1
  Mg  Mg0_2  1  0.00138500  0.99861500  0.00000000  1
  Mg  Mg0_3  1  0.00138500  0.99861500  0.50000000  1
  Mg  Mg0_4  1  0.50138500  0.49861500  0.00000000  1
  Mg  Mg0_5  1  0.50138500  0.49861500  0.50000000  1
  Mg  Mg0_6  1  0.50138500  0.99861500  0.00000000  1
  Mg  Mg0_7  1  0.50138500  0.99861500  0.50000000  1
  Mg  Mg1_0  1  0.16535750  0.33464250  0.00000000  1
  Mg  Mg1_1  1  0.16535750  0.33464250  0.50000000  1
  Mg  Mg1_2  1  0.16535750  0.83464250  0.00000000  1
  Mg  Mg1_3  1  0.16535750  0.83464250  0.50000000  1
  Mg  Mg1_4  1  0.66535750  0.33464250  0.00000000  1
  Mg  Mg1_5  1  0.66535750  0.33464250  0.50000000  1
  Mg  Mg1_6  1  0.66535750  0.83464250  0.00000000  1
  Mg  Mg1_7  1  0.66535750  0.83464250  0.50000000  1
  Mg  Mg2_0  1  0.33323800  0.16676200  0.00000000  1
  Mg  Mg2_1  1  0.33323800  0.16676200  0.50000000  1
  Mg  Mg2_2  1  0.33323800  0.66676200  0.00000000  1
  Mg  Mg2_3  1  0.33323800  0.66676200  0.50000000  1
  Mg  Mg2_4  1  0.83323800  0.16676200  0.00000000  1
  Mg  Mg2_5  1  0.83323800  0.16676200  0.50000000  1
  Mg  Mg2_6  1  0.83323800  0.66676200  0.00000000  1
  Mg  Mg2_7  1  0.83323800  0.66676200  0.50000000  1
  Mg  Mg3_0  1  0.22232650  0.27767350  0.25000000  1
  Mg  Mg3_1  1  0.22232650  0.27767350  0.75000000  1
  Mg  Mg3_2  1  0.22232650  0.77767350  0.25000000  1
  Mg  Mg3_3  1  0.22232650  0.77767350  0.75000000  1
  Mg  Mg3_4  1  0.72232650  0.27767350  0.25000000  1
  Mg  Mg3_5  1  0.72232650  0.27767350  0.75000000  1
  Mg  Mg3_6  1  0.72232650  0.77767350  0.25000000  1
  Mg  Mg3_7  1  0.72232650  0.77767350  0.75000000  1
  Zn  Zn0_0  1  0.05642050  0.44357950  0.25000000  1
  Zn  Zn0_1  1  0.05642050  0.44357950  0.75000000  1
  Zn  Zn0_2  1  0.05642050  0.94357950  0.25000000  1
  Zn  Zn0_3  1  0.05642050  0.94357950  0.75000000  1
  Zn  Zn0_4  1  0.55642050  0.44357950  0.25000000  1
  Zn  Zn0_5  1  0.55642050  0.44357950  0.75000000  1
  Zn  Zn0_6  1  0.55642050  0.94357950  0.25000000  1
  Zn  Zn0_7  1  0.55642050  0.94357950  0.75000000  1
  Zn  Zn1_0  1  0.38793850  0.11206150  0.25000000  1
  Zn  Zn1_1  1  0.38793850  0.11206150  0.75000000  1
  Zn  Zn1_2  1  0.38793850  0.61206150  0.25000000  1
  Zn  Zn1_3  1  0.38793850  0.61206150  0.75000000  1
  Zn  Zn1_4  1  0.88793850  0.11206150  0.25000000  1
  Zn  Zn1_5  1  0.88793850  0.11206150  0.75000000  1
  Zn  Zn1_6  1  0.88793850  0.61206150  0.25000000  1
  Zn  Zn1_7  1  0.88793850  0.61206150  0.75000000  1
loop_
_geom_bond_atom_site_label_1
_geom_bond_atom_site_label_2
_geom_bond_distance
_geom_bond_site_symmetry_2
Mg0_0 Zn0_1 2.989979 1_554
Mg0_0 Zn0_0 2.989979 1_555
Mg0_0 Mg2_2 3.021592 1_555
Mg0_0 Mg2_4 3.021593 1_455
Mg0_0 Mg3_5 3.023041 1_454
Mg0_0 Mg3_4 3.023041 1_455
Mg0_0 Mg3_3 3.023041 1_554
Mg0_0 Mg3_2 3.023041 1_555
Mg0_0 Mg0_6 3.095041 1_445
Mg0_0 Mg0_6 3.095041 1_555
Mg0_0 Mg1_4 3.136005 1_455
Mg0_0 Mg1_2 3.136005 1_555
Mg0_1 Zn0_0 2.989979 1_555
Mg0_1 Zn0_1 2.989979 1_555
Mg0_1 Mg2_3 3.021592 1_555
Mg0_1 Mg2_5 3.021593 1_455
Mg0_1 Mg3_4 3.023041 1_455
Mg0_1 Mg3_5 3.023041 1_455
Mg0_1 Mg3_3 3.023041 1_555
Mg0_1 Mg3_2 3.023041 1_555
Mg0_1 Mg0_7 3.095041 1_445
Mg0_1 Mg0_7 3.095041 1_555
Mg0_1 Mg1_5 3.136005 1_455
Mg0_1 Mg1_3 3.136005 1_555
Mg0_2 Zn0_2 2.989979 1_555
Mg0_2 Zn0_3 2.989979 1_554
Mg0_2 Mg2_0 3.021592 1_565
Mg0_2 Mg2_6 3.021593 1_455
Mg0_2 Mg3_7 3.023041 1_454
Mg0_2 Mg3_6 3.023041 1_455
Mg0_2 Mg3_0 3.023041 1_565
Mg0_2 Mg3_1 3.023041 1_564
Mg0_2 Mg0_4 3.095041 1_565
Mg0_2 Mg0_4 3.095041 1_455
Mg0_2 Mg1_6 3.136005 1_455
Mg0_2 Mg1_0 3.136005 1_565
Mg0_3 Zn0_2 2.989979 1_555
Mg0_3 Zn0_3 2.989979 1_555
Mg0_3 Mg2_1 3.021592 1_565
Mg0_3 Mg2_7 3.021593 1_455
Mg0_3 Mg3_7 3.023041 1_455
Mg0_3 Mg3_6 3.023041 1_455
Mg0_3 Mg3_0 3.023041 1_565
Mg0_3 Mg3_1 3.023041 1_565
Mg0_3 Mg0_5 3.095041 1_565
Mg0_3 Mg0_5 3.095041 1_455
Mg0_3 Mg1_7 3.136005 1_455
Mg0_3 Mg1_1 3.136005 1_565
Mg0_4 Zn0_5 2.989979 1_554
Mg0_4 Zn0_4 2.989979 1_555
Mg0_4 Mg2_6 3.021592 1_555
Mg0_4 Mg2_0 3.021593 1_555
Mg0_4 Mg3_0 3.023041 1_555
Mg0_4 Mg3_1 3.023041 1_554
Mg0_4 Mg3_6 3.023041 1_555
Mg0_4 Mg3_7 3.023041 1_554
Mg0_4 Mg1_0 3.136005 1_555
Mg0_4 Mg1_6 3.136005 1_555
Mg0_5 Zn0_5 2.989979 1_555
Mg0_5 Zn0_4 2.989979 1_555
Mg0_5 Mg2_7 3.021592 1_555
Mg0_5 Mg2_1 3.021593 1_555
Mg0_5 Mg3_0 3.023041 1_555
Mg0_5 Mg3_1 3.023041 1_555
Mg0_5 Mg3_7 3.023041 1_555
Mg0_5 Mg3_6 3.023041 1_555
Mg0_5 Mg1_1 3.136005 1_555
Mg0_5 Mg1_7 3.136005 1_555
Mg0_6 Zn0_7 2.989979 1_554
Mg0_6 Zn0_6 2.989979 1_555
Mg0_6 Mg2_4 3.021592 1_565
Mg0_6 Mg2_2 3.021593 1_555
Mg0_6 Mg3_3 3.023041 1_554
Mg0_6 Mg3_2 3.023041 1_555
Mg0_6 Mg3_5 3.023041 1_564
Mg0_6 Mg3_4 3.023041 1_565
Mg0_6 Mg1_2 3.136005 1_555
Mg0_6 Mg1_4 3.136005 1_565
Mg0_7 Zn0_7 2.989979 1_555
Mg0_7 Zn0_6 2.989979 1_555
Mg0_7 Mg2_5 3.021592 1_565
Mg0_7 Mg2_3 3.021593 1_555
Mg0_7 Mg3_3 3.023041 1_555
Mg0_7 Mg3_2 3.023041 1_555
Mg0_7 Mg3_5 3.023041 1_565
Mg0_7 Mg3_4 3.023041 1_565
Mg0_7 Mg1_3 3.136005 1_555
Mg0_7 Mg1_5 3.136005 1_565
Mg1_0 Zn1_4 3.007606 1_455
Mg1_0 Zn1_5 3.007606 1_454
Mg1_0 Zn1_3 3.007607 1_554
Mg1_0 Zn1_2 3.007607 1_555
Mg1_0 Mg3_0 3.026165 1_555
Mg1_0 Mg3_1 3.026165 1_554
Mg1_0 Mg2_4 3.028853 1_455
Mg1_0 Mg2_2 3.028853 1_555
Mg1_0 Mg1_6 3.095041 1_555
Mg1_0 Mg1_6 3.095041 1_445
Mg1_1 Zn1_4 3.007606 1_455
Mg1_1 Zn1_5 3.007606 1_455
Mg1_1 Zn1_2 3.007607 1_555
Mg1_1 Zn1_3 3.007607 1_555
Mg1_1 Mg3_0 3.026165 1_555
Mg1_1 Mg3_1 3.026165 1_555
Mg1_1 Mg2_5 3.028853 1_455
Mg1_1 Mg2_3 3.028853 1_555
Mg1_1 Mg1_7 3.095041 1_445
Mg1_1 Mg1_7 3.095041 1_555
Mg1_2 Zn1_6 3.007606 1_455
Mg1_2 Zn1_7 3.007606 1_454
Mg1_2 Zn1_0 3.007607 1_565
Mg1_2 Zn1_1 3.007607 1_564
Mg1_2 Mg3_2 3.026165 1_555
Mg1_2 Mg3_3 3.026165 1_554
Mg1_2 Mg2_6 3.028853 1_455
Mg1_2 Mg2_0 3.028853 1_565
Mg1_2 Mg1_4 3.095041 1_565
Mg1_2 Mg1_4 3.095041 1_455
Mg1_3 Zn1_6 3.007606 1_455
Mg1_3 Zn1_7 3.007606 1_455
Mg1_3 Zn1_1 3.007607 1_565
Mg1_3 Zn1_0 3.007607 1_565
Mg1_3 Mg3_2 3.026165 1_555
Mg1_3 Mg3_3 3.026165 1_555
Mg1_3 Mg2_7 3.028853 1_455
Mg1_3 Mg2_1 3.028853 1_565
Mg1_3 Mg1_5 3.095041 1_565
Mg1_3 Mg1_5 3.095041 1_455
Mg1_4 Zn1_0 3.007606 1_555
Mg1_4 Zn1_1 3.007606 1_554
Mg1_4 Zn1_7 3.007607 1_554
Mg1_4 Zn1_6 3.007607 1_555
Mg1_4 Mg3_5 3.026165 1_554
Mg1_4 Mg3_4 3.026165 1_555
Mg1_4 Mg2_0 3.028853 1_555
Mg1_4 Mg2_6 3.028853 1_555
Mg1_5 Zn1_0 3.007606 1_555
Mg1_5 Zn1_1 3.007606 1_555
Mg1_5 Zn1_7 3.007607 1_555
Mg1_5 Zn1_6 3.007607 1_555
Mg1_5 Mg3_5 3.026165 1_555
Mg1_5 Mg3_4 3.026165 1_555
Mg1_5 Mg2_1 3.028853 1_555
Mg1_5 Mg2_7 3.028853 1_555
Mg1_6 Zn1_3 3.007606 1_554
Mg1_6 Zn1_2 3.007606 1_555
Mg1_6 Zn1_5 3.007607 1_564
Mg1_6 Zn1_4 3.007607 1_565
Mg1_6 Mg3_7 3.026165 1_554
Mg1_6 Mg3_6 3.026165 1_555
Mg1_6 Mg2_2 3.028853 1_555
Mg1_6 Mg2_4 3.028853 1_565
Mg1_7 Zn1_3 3.007606 1_555
Mg1_7 Zn1_2 3.007606 1_555
Mg1_7 Zn1_4 3.007607 1_565
Mg1_7 Zn1_5 3.007607 1_565
Mg1_7 Mg3_7 3.026165 1_555
Mg1_7 Mg3_6 3.026165 1_555
Mg1_7 Mg2_3 3.028853 1_555
Mg1_7 Mg2_5 3.028853 1_565
Mg2_0 Zn1_1 2.983793 1_554
Mg2_0 Zn1_0 2.983793 1_555
Mg2_0 Zn0_2 3.002150 1_545
Mg2_0 Zn0_3 3.002150 1_544
Mg2_0 Zn0_5 3.002150 1_554
Mg2_0 Zn0_4 3.002150 1_555
Mg2_0 Mg2_6 3.095041 1_445
Mg2_0 Mg2_6 3.095041 1_555
Mg2_1 Zn1_0 2.983793 1_555
Mg2_1 Zn1_1 2.983793 1_555
Mg2_1 Zn0_2 3.002150 1_545
Mg2_1 Zn0_3 3.002150 1_545
Mg2_1 Zn0_4 3.002150 1_555
Mg2_1 Zn0_5 3.002150 1_555
Mg2_1 Mg2_7 3.095041 1_445
Mg2_1 Mg2_7 3.095041 1_555
Mg2_2 Zn1_3 2.983793 1_554
Mg2_2 Zn1_2 2.983793 1_555
Mg2_2 Zn0_1 3.002150 1_554
Mg2_2 Zn0_0 3.002150 1_555
Mg2_2 Zn0_7 3.002150 1_554
Mg2_2 Zn0_6 3.002150 1_555
Mg2_2 Mg2_4 3.095041 1_565
Mg2_2 Mg2_4 3.095041 1_455
Mg2_3 Zn1_3 2.983793 1_555
Mg2_3 Zn1_2 2.983793 1_555
Mg2_3 Zn0_1 3.002150 1_555
Mg2_3 Zn0_0 3.002150 1_555
Mg2_3 Zn0_6 3.002150 1_555
Mg2_3 Zn0_7 3.002150 1_555
Mg2_3 Mg2_5 3.095041 1_565
Mg2_3 Mg2_5 3.095041 1_455
Mg2_4 Zn1_5 2.983793 1_554
Mg2_4 Zn1_4 2.983793 1_555
Mg2_4 Zn0_7 3.002150 1_544
Mg2_4 Zn0_6 3.002150 1_545
Mg2_4 Zn0_0 3.002150 1_655
Mg2_4 Zn0_1 3.002150 1_654
Mg2_5 Zn1_4 2.983793 1_555
Mg2_5 Zn1_5 2.983793 1_555
Mg2_5 Zn0_6 3.002150 1_545
Mg2_5 Zn0_7 3.002150 1_545
Mg2_5 Zn0_1 3.002150 1_655
Mg2_5 Zn0_0 3.002150 1_655
Mg2_6 Zn1_6 2.983793 1_555
Mg2_6 Zn1_7 2.983793 1_554
Mg2_6 Zn0_5 3.002150 1_554
Mg2_6 Zn0_4 3.002150 1_555
Mg2_6 Zn0_2 3.002150 1_655
Mg2_6 Zn0_3 3.002150 1_654
Mg2_7 Zn1_6 2.983793 1_555
Mg2_7 Zn1_7 2.983793 1_555
Mg2_7 Zn0_5 3.002150 1_555
Mg2_7 Zn0_4 3.002150 1_555
Mg2_7 Zn0_2 3.002150 1_655
Mg2_7 Zn0_3 3.002150 1_655
Mg3_0 Zn0_4 3.082834 1_555
Mg3_0 Zn0_2 3.082834 1_545
Mg3_0 Zn1_4 3.090900 1_455
Mg3_0 Zn1_2 3.090900 1_555
Mg3_0 Mg3_6 3.095041 1_445
Mg3_0 Mg3_6 3.095041 1_555
Mg3_1 Zn0_5 3.082834 1_555
Mg3_1 Zn0_3 3.082834 1_545
Mg3_1 Zn1_5 3.090900 1_455
Mg3_1 Zn1_3 3.090900 1_555
Mg3_1 Mg3_7 3.095041 1_445
Mg3_1 Mg3_7 3.095041 1_555
Mg3_2 Zn0_6 3.082834 1_555
Mg3_2 Zn0_0 3.082834 1_555
Mg3_2 Zn1_6 3.090900 1_455
Mg3_2 Zn1_0 3.090900 1_565
Mg3_2 Mg3_4 3.095041 1_565
Mg3_2 Mg3_4 3.095041 1_455
Mg3_3 Zn0_7 3.082834 1_555
Mg3_3 Zn0_1 3.082834 1_555
Mg3_3 Zn1_7 3.090900 1_455
Mg3_3 Zn1_1 3.090900 1_565
Mg3_3 Mg3_5 3.095041 1_565
Mg3_3 Mg3_5 3.095041 1_455
Mg3_4 Zn0_0 3.082834 1_655
Mg3_4 Zn0_6 3.082834 1_545
Mg3_4 Zn1_0 3.090900 1_555
Mg3_4 Zn1_6 3.090900 1_555
Mg3_5 Zn0_1 3.082834 1_655
Mg3_5 Zn0_7 3.082834 1_545
Mg3_5 Zn1_1 3.090900 1_555
Mg3_5 Zn1_7 3.090900 1_555
Mg3_6 Zn0_2 3.082834 1_655
Mg3_6 Zn0_4 3.082834 1_555
Mg3_6 Zn1_2 3.090900 1_555
Mg3_6 Zn1_4 3.090900 1_565
Mg3_7 Zn0_3 3.082834 1_655
Mg3_7 Zn0_5 3.082834 1_555
Mg3_7 Zn1_3 3.090900 1_555
Mg3_7 Zn1_5 3.090900 1_565
Zn0_0 Zn1_2 3.012475 1_555
Zn0_0 Zn1_4 3.012475 1_455
Zn0_0 Zn0_6 3.095041 1_555
Zn0_0 Zn0_6 3.095041 1_445
Zn0_1 Zn1_3 3.012475 1_555
Zn0_1 Zn1_5 3.012475 1_455
Zn0_1 Zn0_7 3.095041 1_445
Zn0_1 Zn0_7 3.095041 1_555
Zn0_2 Zn1_0 3.012475 1_565
Zn0_2 Zn1_6 3.012475 1_455
Zn0_2 Zn0_4 3.095041 1_565
Zn0_2 Zn0_4 3.095041 1_455
Zn0_3 Zn1_1 3.012475 1_565
Zn0_3 Zn1_7 3.012475 1_455
Zn0_3 Zn0_5 3.095041 1_565
Zn0_3 Zn0_5 3.095041 1_455
Zn0_4 Zn1_6 3.012475 1_555
Zn0_4 Zn1_0 3.012475 1_555
Zn0_5 Zn1_7 3.012475 1_555
Zn0_5 Zn1_1 3.012475 1_555
Zn0_6 Zn1_4 3.012475 1_565
Zn0_6 Zn1_2 3.012475 1_555
Zn0_7 Zn1_5 3.012475 1_565
Zn0_7 Zn1_3 3.012475 1_555
Zn1_0 Zn1_6 3.095041 1_555
Zn1_0 Zn1_6 3.095041 1_445
Zn1_1 Zn1_7 3.095041 1_555
Zn1_1 Zn1_7 3.095041 1_445
Zn1_2 Zn1_4 3.095041 1_565
Zn1_2 Zn1_4 3.095041 1_455
Zn1_3 Zn1_5 3.095041 1_565
Zn1_3 Zn1_5 3.095041 1_455
