# generated using pymatgen
data_BaSrLaBiO6
_symmetry_space_group_name_H-M   'P 1'
_cell_length_a   8.84368988
_cell_length_b   8.82491764
_cell_length_c   8.79128961
_cell_angle_alpha   90.00000000
_cell_angle_beta   90.00000000
_cell_angle_gamma   90.00000000
_symmetry_Int_Tables_number   1
_chemical_formula_structural   BaSrLaBiO6
_chemical_formula_sum   'Ba4 Sr4 La4 Bi4 O24'
_cell_volume   686.11474551
_cell_formula_units_Z   4
loop_
 _symmetry_equiv_pos_site_id
 _symmetry_equiv_pos_as_xyz
  1  'x, y, z'
loop_
 _atom_site_type_symbol
 _atom_site_label
 _atom_site_symmetry_multiplicity
 _atom_site_fract_x
 _atom_site_fract_y
 _atom_site_fract_z
 _atom_site_occupancy
  Ba  Ba0  1  -0.00000000  -0.00000000  -0.00000000  1
  Ba  Ba1  1  0.50000000  0.50000000  0.50000000  1
  Ba  Ba2  1  0.50000000  -0.00000000  0.50000000  1
  Ba  Ba3  1  -0.00000000  0.50000000  -0.00000000  1
  Sr  Sr0  1  0.25000000  0.25000000  0.25000000  1
  Sr  Sr1  1  0.75000000  0.75000000  0.25000000  1
  Sr  Sr2  1  0.75000000  0.25000000  0.75000000  1
  Sr  Sr3  1  0.25000000  0.75000000  0.75000000  1
  La  La0  1  -0.00000000  0.50000000  0.50000000  1
  La  La1  1  0.50000000  0.50000000  -0.00000000  1
  La  La2  1  0.50000000  0.00000000  -0.00000000  1
  La  La3  1  -0.00000000  -0.00000000  0.50000000  1
  Bi  Bi0  1  0.75000000  0.75000000  0.75000000  1
  Bi  Bi1  1  0.25000000  0.25000000  0.75000000  1
  Bi  Bi2  1  0.25000000  0.75000000  0.25000000  1
  Bi  Bi3  1  0.75000000  0.25000000  0.25000000  1
  O  O0  1  0.98153073  0.18439134  0.29853192  1
  O  O1  1  0.01846927  0.81560866  0.29853192  1
  O  O2  1  0.01846927  0.18439134  0.70146808  1
  O  O3  1  0.98153073  0.81560866  0.70146808  1
  O  O4  1  0.30959009  0.98098710  0.19437145  1
  O  O5  1  0.30959009  0.01901290  0.80562855  1
  O  O6  1  0.69040991  0.01901290  0.19437145  1
  O  O7  1  0.69040991  0.98098710  0.80562855  1
  O  O8  1  0.20933426  0.28614726  0.98226918  1
  O  O9  1  0.79066574  0.28614726  0.01773082  1
  O  O10  1  0.20933426  0.71385274  0.01773082  1
  O  O11  1  0.79066574  0.71385274  0.98226918  1
  O  O12  1  0.51846927  0.31560866  0.20146808  1
  O  O13  1  0.48153073  0.68439134  0.20146808  1
  O  O14  1  0.48153073  0.31560866  0.79853192  1
  O  O15  1  0.51846927  0.68439134  0.79853192  1
  O  O16  1  0.19040991  0.51901290  0.30562855  1
  O  O17  1  0.19040991  0.48098710  0.69437145  1
  O  O18  1  0.80959009  0.48098710  0.30562855  1
  O  O19  1  0.80959009  0.51901290  0.69437145  1
  O  O20  1  0.29066574  0.21385274  0.51773082  1
  O  O21  1  0.70933426  0.21385274  0.48226918  1
  O  O22  1  0.29066574  0.78614726  0.48226918  1
  O  O23  1  0.70933426  0.78614726  0.51773082  1
loop_
_geom_bond_atom_site_label_1
_geom_bond_atom_site_label_2
_geom_bond_distance
_geom_bond_site_symmetry_2
Ba0 O2 3.092326 1_554
Ba0 O3 3.092326 1_444
Ba0 O1 3.092326 1_545
Ba0 O0 3.092326 1_455
Ba0 O11 3.135017 1_444
Ba0 O10 3.135017 1_545
Ba0 O8 3.135017 1_554
Ba0 O9 3.135017 1_455
Ba0 O4 3.231759 1_545
Ba0 O5 3.231759 1_554
Ba0 O7 3.231759 1_444
Ba0 O6 3.231759 1_455
Ba1 O12 3.092326 1_555
Ba1 O13 3.092326 1_555
Ba1 O15 3.092326 1_555
Ba1 O14 3.092326 1_555
Ba1 O22 3.135017 1_555
Ba1 O20 3.135017 1_555
Ba1 O23 3.135017 1_555
Ba1 O21 3.135017 1_555
Ba1 O16 3.231759 1_555
Ba1 O17 3.231759 1_555
Ba1 O18 3.231759 1_555
Ba1 O19 3.231759 1_555
Ba2 O23 2.648247 1_545
Ba2 O22 2.648247 1_545
Ba2 O20 2.648247 1_555
Ba2 O21 2.648247 1_555
Ba2 O5 3.175378 1_555
Ba2 O6 3.175378 1_555
Ba2 O7 3.175378 1_545
Ba2 O4 3.175378 1_545
Ba3 O9 2.648247 1_455
Ba3 O10 2.648247 1_555
Ba3 O11 2.648247 1_454
Ba3 O8 2.648247 1_554
Ba3 O18 3.175378 1_455
Ba3 O19 3.175378 1_454
Ba3 O16 3.175378 1_555
Ba3 O17 3.175378 1_554
La0 O18 2.404927 1_455
La0 O19 2.404927 1_455
La0 O17 2.404927 1_555
La0 O16 2.404927 1_555
La1 O14 2.410727 1_554
La1 O15 2.410727 1_554
La1 O12 2.410727 1_555
La1 O13 2.410727 1_555
La2 O7 2.404927 1_544
La2 O6 2.404927 1_555
La2 O5 2.404927 1_554
La2 O4 2.404927 1_545
La3 O0 2.410727 1_455
La3 O1 2.410727 1_545
La3 O2 2.410727 1_555
La3 O3 2.410727 1_445
Bi0 O23 2.097770 1_555
Bi0 O11 2.097770 1_555
Bi0 O7 2.161513 1_555
Bi0 O19 2.161513 1_555
Bi0 O3 2.170225 1_555
Bi0 O15 2.170225 1_555
Bi1 O20 2.097770 1_555
Bi1 O8 2.097770 1_555
Bi1 O17 2.161513 1_555
Bi1 O5 2.161513 1_555
Bi1 O2 2.170225 1_555
Bi1 O14 2.170225 1_555
Bi2 O10 2.097770 1_555
Bi2 O22 2.097770 1_555
Bi2 O16 2.161513 1_555
Bi2 O4 2.161513 1_555
Bi2 O13 2.170225 1_555
Bi2 O1 2.170225 1_555
Bi3 O9 2.097770 1_555
Bi3 O21 2.097770 1_555
Bi3 O6 2.161513 1_555
Bi3 O18 2.161513 1_555
Bi3 O0 2.170225 1_555
Bi3 O12 2.170225 1_555
O0 Sr0 2.480801 1_655
O1 Sr1 2.480801 1_455
O2 Sr2 2.480801 1_455
O3 Sr3 2.480801 1_655
O4 Sr0 2.480493 1_565
O5 Sr3 2.480493 1_545
O6 Sr1 2.480493 1_545
O7 Sr2 2.480493 1_565
O8 Sr0 2.402290 1_556
O9 Sr2 2.402290 1_554
O10 Sr3 2.402290 1_554
O11 Sr1 2.402290 1_556
O12 Sr0 2.480801 1_555
O13 Sr1 2.480801 1_555
O14 Sr2 2.480801 1_555
O15 Sr3 2.480801 1_555
O16 Sr0 2.480493 1_555
O17 Sr3 2.480493 1_555
O18 Sr1 2.480493 1_555
O19 Sr2 2.480493 1_555
O20 Sr0 2.402290 1_555
O21 Sr2 2.402290 1_555
O22 Sr3 2.402290 1_555
O23 Sr1 2.402290 1_555
