# generated using pymatgen
data_MgMn4(AgO4)4
_symmetry_space_group_name_H-M   'P 1'
_cell_length_a   5.61006256
_cell_length_b   7.50750764
_cell_length_c   8.97732913
_cell_angle_alpha   97.33344022
_cell_angle_beta   85.84424537
_cell_angle_gamma   96.36924924
_symmetry_Int_Tables_number   1
_chemical_formula_structural   MgMn4(AgO4)4
_chemical_formula_sum   'Mg1 Mn4 Ag4 O16'
_cell_volume   372.04325117
_cell_formula_units_Z   1
loop_
 _symmetry_equiv_pos_site_id
 _symmetry_equiv_pos_as_xyz
  1  'x, y, z'
loop_
 _atom_site_type_symbol
 _atom_site_label
 _atom_site_symmetry_multiplicity
 _atom_site_fract_x
 _atom_site_fract_y
 _atom_site_fract_z
 _atom_site_occupancy
  Mg  Mg0  1  0.72838600  0.81717500  0.23616000  1
  Mn  Mn0  1  0.75187900  0.17509700  0.31776600  1
  Mn  Mn1  1  0.27668600  0.63638100  0.18640000  1
  Mn  Mn2  1  0.72411000  0.35659200  0.81590200  1
  Mn  Mn3  1  0.23339100  0.84809000  0.67729700  1
  Ag  Ag0  1  0.26144000  0.13932000  0.06650000  1
  Ag  Ag1  1  0.72763800  0.61073800  0.50530600  1
  Ag  Ag2  1  0.24145100  0.30993000  0.53698000  1
  Ag  Ag3  1  0.71465400  0.87946700  0.90638800  1
  O  O0  1  0.87634800  0.06027100  0.15474600  1
  O  O1  1  0.48300200  0.23095600  0.28958200  1
  O  O2  1  0.22618200  0.99722200  0.56403700  1
  O  O3  1  0.24988600  0.45100600  0.07147100  1
  O  O4  1  0.74602300  0.54531900  0.92614400  1
  O  O5  1  0.51319200  0.80510000  0.69121400  1
  O  O6  1  0.71217800  0.00351800  0.42199000  1
  O  O7  1  0.08116800  0.65908900  0.61254600  1
  O  O8  1  0.58963900  0.18975700  0.90431600  1
  O  O9  1  0.11382300  0.92096200  0.84476500  1
  O  O10  1  0.44112100  0.80944200  0.10160200  1
  O  O11  1  0.99048300  0.30471900  0.75751100  1
  O  O12  1  0.01946100  0.70533900  0.26491700  1
  O  O13  1  0.57356700  0.38189300  0.66958300  1
  O  O14  1  0.94175300  0.34302000  0.39349300  1
  O  O15  1  0.48045400  0.62515400  0.31775700  1
loop_
_geom_bond_atom_site_label_1
_geom_bond_atom_site_label_2
_geom_bond_distance
_geom_bond_site_symmetry_2
Mg0 O12 1.964368 1_655
Mg0 O6 2.039340 1_565
Mg0 O15 2.055838 1_555
Mg0 O10 2.074423 1_555
Mg0 O0 2.114350 1_565
Mn0 O1 1.654677 1_555
Mn0 O14 1.665642 1_555
Mn0 O6 1.672770 1_555
Mn0 O0 1.742382 1_555
Mn1 O3 1.622793 1_555
Mn1 O12 1.665059 1_555
Mn1 O15 1.716574 1_555
Mn1 O10 1.733022 1_555
Mn2 O11 1.619584 1_555
Mn2 O4 1.619601 1_555
Mn2 O8 1.650836 1_555
Mn2 O13 1.653739 1_555
Mn3 O2 1.611089 1_555
Mn3 O7 1.634953 1_555
Mn3 O9 1.653723 1_555
Mn3 O5 1.653741 1_555
Ag0 O0 2.287922 1_455
Ag0 O8 2.291474 1_554
Ag0 O3 2.342712 1_555
Ag0 O1 2.418335 1_555
Ag0 O9 2.537775 1_544
Ag1 O7 2.240533 1_655
Ag1 O15 2.277657 1_555
Ag1 O5 2.416346 1_555
Ag1 O13 2.450787 1_555
Ag1 O14 2.517141 1_555
Ag1 O12 2.731862 1_655
Ag2 O14 2.244127 1_455
Ag2 O13 2.261506 1_555
Ag2 O11 2.346683 1_455
Ag2 O2 2.382389 1_545
Ag2 O1 2.554697 1_555
Ag3 O9 2.264398 1_655
Ag3 O5 2.285085 1_555
Ag3 O10 2.317083 1_556
Ag3 O8 2.508836 1_565
Ag3 O4 2.563523 1_555
Ag3 O0 2.623694 1_566
