# generated using pymatgen
data_Hf9BW4
_symmetry_space_group_name_H-M   'P 1'
_cell_length_a   8.58545377
_cell_length_b   8.58545377
_cell_length_c   8.54572800
_cell_angle_alpha   90.00000000
_cell_angle_beta   90.00000000
_cell_angle_gamma   119.99999822
_symmetry_Int_Tables_number   1
_chemical_formula_structural   Hf9BW4
_chemical_formula_sum   'Hf18 B2 W8'
_cell_volume   545.51439229
_cell_formula_units_Z   2
loop_
 _symmetry_equiv_pos_site_id
 _symmetry_equiv_pos_as_xyz
  1  'x, y, z'
loop_
 _atom_site_type_symbol
 _atom_site_label
 _atom_site_symmetry_multiplicity
 _atom_site_fract_x
 _atom_site_fract_y
 _atom_site_fract_z
 _atom_site_occupancy
  Hf  Hf0  1  0.53884200  0.07768400  0.25000000  1
  Hf  Hf1  1  0.46115800  0.92231600  0.75000000  1
  Hf  Hf2  1  0.92231600  0.46115800  0.25000000  1
  Hf  Hf3  1  0.07768400  0.53884200  0.75000000  1
  Hf  Hf4  1  0.53884200  0.46115800  0.25000000  1
  Hf  Hf5  1  0.46115800  0.53884200  0.75000000  1
  Hf  Hf6  1  0.20299400  0.40598700  0.05541300  1
  Hf  Hf7  1  0.79700600  0.59401300  0.94458700  1
  Hf  Hf8  1  0.59401300  0.79700600  0.05541300  1
  Hf  Hf9  1  0.79700600  0.59401300  0.55541300  1
  Hf  Hf10  1  0.40598700  0.20299400  0.94458700  1
  Hf  Hf11  1  0.20299400  0.40598700  0.44458700  1
  Hf  Hf12  1  0.20299400  0.79700600  0.05541300  1
  Hf  Hf13  1  0.40598700  0.20299400  0.55541300  1
  Hf  Hf14  1  0.79700600  0.20299400  0.94458700  1
  Hf  Hf15  1  0.59401300  0.79700600  0.44458700  1
  Hf  Hf16  1  0.79700600  0.20299400  0.55541300  1
  Hf  Hf17  1  0.20299400  0.79700600  0.44458700  1
  B  B0  1  0.33333300  0.66666700  0.25000000  1
  B  B1  1  0.66666700  0.33333300  0.75000000  1
  W  W0  1  0.00000000  0.00000000  0.00000000  1
  W  W1  1  0.00000000  0.00000000  0.50000000  1
  W  W2  1  0.88854100  0.77708200  0.25000000  1
  W  W3  1  0.11145900  0.22291800  0.75000000  1
  W  W4  1  0.22291800  0.11145900  0.25000000  1
  W  W5  1  0.77708200  0.88854100  0.75000000  1
  W  W6  1  0.88854100  0.11145900  0.25000000  1
  W  W7  1  0.11145900  0.88854100  0.75000000  1
loop_
_geom_bond_atom_site_label_1
_geom_bond_atom_site_label_2
_geom_bond_distance
_geom_bond_site_symmetry_2
Hf0 W4 2.868352 1_555
Hf0 W6 2.868352 1_555
Hf1 W5 2.868352 1_555
Hf1 W7 2.868352 1_555
Hf2 W2 2.868352 1_555
Hf2 W6 2.868352 1_555
Hf3 W3 2.868352 1_555
Hf3 W7 2.868352 1_555
Hf4 W4 2.868352 1_555
Hf4 W2 2.868352 1_555
Hf5 W5 2.868352 1_555
Hf5 W3 2.868352 1_555
Hf6 W3 2.943591 1_554
Hf6 W0 3.055521 1_555
Hf6 W4 3.101790 1_555
Hf6 W6 3.101794 1_455
Hf7 W2 2.943591 1_556
Hf7 W0 3.055521 1_666
Hf7 W5 3.101790 1_555
Hf7 W7 3.101794 1_655
Hf8 W5 2.943591 1_554
Hf8 W0 3.055521 1_665
Hf8 W2 3.101790 1_555
Hf8 W6 3.101794 1_565
Hf9 W2 2.943591 1_555
Hf9 W1 3.055521 1_665
Hf9 W5 3.101790 1_555
Hf9 W7 3.101794 1_655
Hf10 W4 2.943591 1_556
Hf10 W0 3.055521 1_556
Hf10 W3 3.101790 1_555
Hf10 W7 3.101794 1_545
Hf11 W3 2.943591 1_555
Hf11 W1 3.055521 1_555
Hf11 W4 3.101790 1_555
Hf11 W6 3.101794 1_455
Hf12 W7 2.943595 1_554
Hf12 W0 3.055528 1_565
Hf12 W4 3.101797 1_565
Hf12 W2 3.101797 1_455
Hf13 W4 2.943591 1_555
Hf13 W1 3.055521 1_555
Hf13 W3 3.101790 1_555
Hf13 W7 3.101794 1_545
Hf14 W6 2.943595 1_556
Hf14 W0 3.055528 1_656
Hf14 W3 3.101797 1_655
Hf14 W5 3.101797 1_545
Hf15 W5 2.943591 1_555
Hf15 W1 3.055521 1_665
Hf15 W2 3.101790 1_555
Hf15 W6 3.101794 1_565
Hf16 W6 2.943595 1_555
Hf16 W1 3.055528 1_655
Hf16 W3 3.101797 1_655
Hf16 W5 3.101797 1_545
Hf17 W7 2.943595 1_555
Hf17 W1 3.055528 1_565
Hf17 W4 3.101797 1_565
Hf17 W2 3.101797 1_455
B0 Hf17 2.553783 1_555
B0 Hf12 2.553783 1_555
B0 Hf8 2.553795 1_555
B0 Hf15 2.553795 1_555
B0 Hf6 2.553795 1_555
B0 Hf11 2.553795 1_555
B0 Hf2 3.056002 1_455
B0 Hf0 3.056002 1_565
B0 Hf4 3.056010 1_555
B1 Hf16 2.553783 1_555
B1 Hf14 2.553783 1_555
B1 Hf13 2.553795 1_555
B1 Hf10 2.553795 1_555
B1 Hf9 2.553795 1_555
B1 Hf7 2.553795 1_555
B1 Hf1 3.056002 1_545
B1 Hf3 3.056002 1_655
B1 Hf5 3.056010 1_555
W0 W7 2.703972 1_544
W0 W6 2.703972 1_455
W0 W5 2.703972 1_444
W0 W3 2.703972 1_554
W0 W4 2.703972 1_555
W0 W2 2.703972 1_445
W1 W7 2.703972 1_545
W1 W6 2.703972 1_455
W1 W4 2.703972 1_555
W1 W3 2.703972 1_555
W1 W5 2.703972 1_445
W1 W2 2.703972 1_445
W2 W6 2.870778 1_565
W2 W4 2.870778 1_665
W3 W7 2.870778 1_545
W3 W5 2.870778 1_445
W4 W6 2.870778 1_455
W5 W7 2.870778 1_655
