# generated using pymatgen
data_Rb2TmCl5
_symmetry_space_group_name_H-M   'P 1'
_cell_length_a   7.28727055
_cell_length_b   9.32771605
_cell_length_c   14.69042526
_cell_angle_alpha   90.00000000
_cell_angle_beta   90.00000000
_cell_angle_gamma   90.00000000
_symmetry_Int_Tables_number   1
_chemical_formula_structural   Rb2TmCl5
_chemical_formula_sum   'Rb8 Tm4 Cl20'
_cell_volume   998.56095045
_cell_formula_units_Z   4
loop_
 _symmetry_equiv_pos_site_id
 _symmetry_equiv_pos_as_xyz
  1  'x, y, z'
loop_
 _atom_site_type_symbol
 _atom_site_label
 _atom_site_symmetry_multiplicity
 _atom_site_fract_x
 _atom_site_fract_y
 _atom_site_fract_z
 _atom_site_occupancy
  Rb  Rb0  1  0.25000000  0.66928266  0.91561939  1
  Rb  Rb1  1  0.75000000  0.33071734  0.08438061  1
  Rb  Rb2  1  0.75000000  0.83071734  0.41561939  1
  Rb  Rb3  1  0.25000000  0.16928266  0.58438061  1
  Rb  Rb4  1  0.25000000  0.96884733  0.20911335  1
  Rb  Rb5  1  0.75000000  0.03115267  0.79088665  1
  Rb  Rb6  1  0.75000000  0.53115267  0.70911335  1
  Rb  Rb7  1  0.25000000  0.46884733  0.29088665  1
  Tm  Tm0  1  0.25000000  0.68669160  0.56344561  1
  Tm  Tm1  1  0.75000000  0.31330840  0.43655439  1
  Tm  Tm2  1  0.75000000  0.81330840  0.06344561  1
  Tm  Tm3  1  0.25000000  0.18669160  0.93655439  1
  Cl  Cl0  1  0.25000000  0.53103674  0.70609525  1
  Cl  Cl1  1  0.75000000  0.46896326  0.29390475  1
  Cl  Cl2  1  0.75000000  0.96896326  0.20609525  1
  Cl  Cl3  1  0.25000000  0.03103674  0.79390475  1
  Cl  Cl4  1  0.50814745  0.84741371  0.61390977  1
  Cl  Cl5  1  0.49185255  0.15258629  0.38609023  1
  Cl  Cl6  1  0.49185255  0.65258629  0.11390977  1
  Cl  Cl7  1  0.00814745  0.15258629  0.38609023  1
  Cl  Cl8  1  0.50814745  0.34741371  0.88609023  1
  Cl  Cl9  1  0.99185255  0.84741371  0.61390977  1
  Cl  Cl10  1  0.99185255  0.34741371  0.88609023  1
  Cl  Cl11  1  0.00814745  0.65258629  0.11390977  1
  Cl  Cl12  1  0.25000000  0.78338196  0.39764397  1
  Cl  Cl13  1  0.75000000  0.21661804  0.60235603  1
  Cl  Cl14  1  0.75000000  0.71661804  0.89764397  1
  Cl  Cl15  1  0.25000000  0.28338196  0.10235603  1
  Cl  Cl16  1  0.00000000  0.50000000  0.50000000  1
  Cl  Cl17  1  0.00000000  -0.00000000  -0.00000000  1
  Cl  Cl18  1  0.50000000  0.50000000  0.50000000  1
  Cl  Cl19  1  0.50000000  -0.00000000  -0.00000000  1
loop_
_geom_bond_atom_site_label_1
_geom_bond_atom_site_label_2
_geom_bond_distance
_geom_bond_site_symmetry_2
Cl0 Tm0 2.549411 1_555
Cl0 Rb0 3.337205 1_555
Cl0 Rb6 3.643905 1_455
Cl0 Rb6 3.643905 1_555
Cl0 Rb3 3.818802 1_555
Cl1 Tm1 2.549411 1_555
Cl1 Rb1 3.337205 1_555
Cl1 Rb7 3.643905 1_555
Cl1 Rb7 3.643905 1_655
Cl1 Rb2 3.818802 1_555
Cl2 Tm2 2.549411 1_555
Cl2 Rb2 3.337205 1_555
Cl2 Rb4 3.643905 1_655
Cl2 Rb4 3.643905 1_555
Cl2 Rb1 3.818802 1_565
Cl3 Tm3 2.549411 1_555
Cl3 Rb3 3.337205 1_555
Cl3 Rb5 3.643905 1_455
Cl3 Rb5 3.643905 1_555
Cl3 Rb0 3.818802 1_545
Cl4 Tm0 2.517136 1_555
Cl4 Rb2 3.408205 1_555
Cl4 Rb3 3.569436 1_565
Cl4 Rb5 3.578107 1_565
Cl4 Rb6 3.710081 1_555
Cl5 Tm1 2.517136 1_555
Cl5 Rb3 3.408205 1_555
Cl5 Rb2 3.569436 1_545
Cl5 Rb4 3.578107 1_545
Cl5 Rb7 3.710081 1_555
Cl6 Tm2 2.517136 1_555
Cl6 Rb0 3.408205 1_554
Cl6 Rb1 3.569436 1_555
Cl6 Rb7 3.578107 1_555
Cl6 Rb4 3.710081 1_555
Cl7 Tm1 2.517136 1_455
Cl7 Rb3 3.408205 1_555
Cl7 Rb2 3.569436 1_445
Cl7 Rb4 3.578107 1_545
Cl7 Rb7 3.710081 1_555
Cl8 Tm3 2.517136 1_555
Cl8 Rb1 3.408205 1_556
Cl8 Rb0 3.569436 1_555
Cl8 Rb6 3.578107 1_555
Cl8 Rb5 3.710081 1_555
Cl9 Tm0 2.517136 1_655
Cl9 Rb2 3.408205 1_555
Cl9 Rb3 3.569436 1_665
Cl9 Rb5 3.578107 1_565
Cl9 Rb6 3.710081 1_555
Cl10 Tm3 2.517136 1_655
Cl10 Rb1 3.408205 1_556
Cl10 Rb0 3.569436 1_655
Cl10 Rb6 3.578107 1_555
Cl10 Rb5 3.710081 1_555
Cl11 Tm2 2.517136 1_455
Cl11 Rb0 3.408205 1_554
Cl11 Rb1 3.569436 1_455
Cl11 Rb7 3.578107 1_555
Cl11 Rb4 3.710081 1_555
Cl12 Tm0 2.597314 1_555
Cl12 Rb4 3.265493 1_555
Cl12 Rb7 3.326756 1_555
Cl12 Rb2 3.679777 1_455
Cl12 Rb2 3.679777 1_555
Cl13 Tm1 2.597314 1_555
Cl13 Rb5 3.265493 1_555
Cl13 Rb6 3.326756 1_555
Cl13 Rb3 3.679777 1_555
Cl13 Rb3 3.679777 1_655
Cl14 Tm2 2.597314 1_556
Cl14 Rb6 3.265493 1_555
Cl14 Rb5 3.326756 1_565
Cl14 Rb0 3.679777 1_555
Cl14 Rb0 3.679777 1_655
Cl15 Tm3 2.597314 1_554
Cl15 Rb7 3.265493 1_555
Cl15 Rb4 3.326756 1_545
Cl15 Rb1 3.679777 1_555
Cl15 Rb1 3.679777 1_455
Cl16 Tm0 2.687047 1_555
Cl16 Tm1 2.687047 1_455
Cl16 Rb6 3.583353 1_455
Cl16 Rb7 3.583353 1_555
Cl16 Rb3 3.791018 1_555
Cl16 Rb2 3.791018 1_455
Cl17 Tm2 2.687047 1_445
Cl17 Tm3 2.687047 1_554
Cl17 Rb4 3.583353 1_545
Cl17 Rb5 3.583353 1_454
Cl17 Rb0 3.791018 1_544
Cl17 Rb1 3.791018 1_455
Cl18 Tm0 2.687047 1_555
Cl18 Tm1 2.687047 1_555
Cl18 Rb7 3.583353 1_555
Cl18 Rb6 3.583353 1_555
Cl18 Rb3 3.791018 1_555
Cl18 Rb2 3.791018 1_555
Cl19 Tm2 2.687047 1_545
Cl19 Tm3 2.687047 1_554
Cl19 Rb5 3.583353 1_554
Cl19 Rb4 3.583353 1_545
Cl19 Rb0 3.791018 1_544
Cl19 Rb1 3.791018 1_555
