# generated using pymatgen
data_ZnCo(SiO3)2
_symmetry_space_group_name_H-M   'P 1'
_cell_length_a   5.38702497
_cell_length_b   9.36536993
_cell_length_c   9.30700639
_cell_angle_alpha   90.00612544
_cell_angle_beta   89.99385714
_cell_angle_gamma   99.91226502
_symmetry_Int_Tables_number   1
_chemical_formula_structural   ZnCo(SiO3)2
_chemical_formula_sum   'Zn4 Co4 Si8 O24'
_cell_volume   462.54301603
_cell_formula_units_Z   4
loop_
 _symmetry_equiv_pos_site_id
 _symmetry_equiv_pos_as_xyz
  1  'x, y, z'
loop_
 _atom_site_type_symbol
 _atom_site_label
 _atom_site_symmetry_multiplicity
 _atom_site_fract_x
 _atom_site_fract_y
 _atom_site_fract_z
 _atom_site_occupancy
  Zn  Zn0  1  0.25007000  0.49994600  0.27066800  1
  Zn  Zn1  1  0.75019400  0.00007500  0.77063400  1
  Zn  Zn2  1  0.75000400  0.50002900  0.72933300  1
  Zn  Zn3  1  0.24973300  0.99995300  0.22935500  1
  Co  Co0  1  0.25037300  0.00013600  0.89133200  1
  Co  Co1  1  0.25003800  0.50003300  0.60870500  1
  Co  Co2  1  0.75008700  0.49998500  0.39129600  1
  Co  Co3  1  0.74951800  0.99985100  0.10865200  1
  Si  Si0  1  0.53201300  0.30380800  0.08366900  1
  Si  Si1  1  0.03211600  0.80386800  0.58374600  1
  Si  Si2  1  0.96785300  0.69609600  0.08375500  1
  Si  Si3  1  0.46787900  0.19614500  0.58367900  1
  Si  Si4  1  0.03209600  0.30387800  0.91625600  1
  Si  Si5  1  0.53217400  0.80388500  0.41630400  1
  Si  Si6  1  0.46793300  0.69616700  0.91632500  1
  Si  Si7  1  0.96793100  0.19615400  0.41626700  1
  O  O0  1  0.82022200  0.35657100  0.02274100  1
  O  O1  1  0.32030500  0.85662100  0.52275200  1
  O  O2  1  0.67969000  0.64333400  0.02276100  1
  O  O3  1  0.17970600  0.14336800  0.52273700  1
  O  O4  1  0.17973100  0.64341800  0.97726400  1
  O  O5  1  0.67973900  0.14338400  0.47724100  1
  O  O6  1  0.32026600  0.35666000  0.97723700  1
  O  O7  1  0.82032800  0.85663800  0.47727000  1
  O  O8  1  0.50637800  0.38001400  0.23944100  1
  O  O9  1  0.00645500  0.88010200  0.73948300  1
  O  O10  1  0.99354100  0.61975300  0.23943500  1
  O  O11  1  0.49356200  0.11983000  0.73939400  1
  O  O12  1  0.49358700  0.61992900  0.76055900  1
  O  O13  1  0.99356600  0.11995300  0.26051900  1
  O  O14  1  0.00641200  0.38017500  0.76056500  1
  O  O15  1  0.50649000  0.88024500  0.26060700  1
  O  O16  1  0.97913400  0.12481400  0.91626500  1
  O  O17  1  0.47912000  0.62482100  0.41628100  1
  O  O18  1  0.52114200  0.87525100  0.91647000  1
  O  O19  1  0.02101300  0.37523200  0.41644500  1
  O  O20  1  0.47878900  0.12472600  0.08347000  1
  O  O21  1  0.97905600  0.62479800  0.58363500  1
  O  O22  1  0.02081100  0.87514400  0.08381000  1
  O  O23  1  0.52094200  0.37521500  0.58363900  1
loop_
_geom_bond_atom_site_label_1
_geom_bond_atom_site_label_2
_geom_bond_distance
_geom_bond_site_symmetry_2
Co0 O18 2.034157 1_545
Co0 O16 2.034588 1_455
Co0 O11 2.113494 1_555
Co0 O9 2.116395 1_545
Co0 O20 2.362005 1_556
Co0 O22 2.368605 1_546
Co1 O23 2.034171 1_555
Co1 O21 2.034236 1_455
Co1 O12 2.114826 1_555
Co1 O14 2.114904 1_555
Co1 O19 2.365095 1_555
Co1 O17 2.366324 1_555
Co2 O19 2.033996 1_655
Co2 O17 2.034480 1_555
Co2 O10 2.114063 1_555
Co2 O8 2.115586 1_555
Co2 O21 2.365565 1_555
Co2 O23 2.365833 1_555
Co3 O20 2.033963 1_565
Co3 O22 2.034919 1_655
Co3 O15 2.112792 1_555
Co3 O13 2.117148 1_565
Co3 O18 2.362259 1_554
Co3 O16 2.367982 1_564
O0 Si0 1.646816 1_555
O0 Si4 1.649855 1_654
O1 Si1 1.646919 1_555
O1 Si5 1.649797 1_555
O2 Si2 1.646884 1_555
O2 Si6 1.649872 1_554
O3 Si3 1.646785 1_555
O3 Si7 1.649950 1_455
O4 Si6 1.646800 1_555
O4 Si2 1.649846 1_456
O5 Si7 1.646891 1_555
O5 Si3 1.649803 1_555
O6 Si4 1.646902 1_555
O6 Si0 1.649884 1_556
O7 Si5 1.646740 1_555
O7 Si1 1.649973 1_655
O8 Si0 1.632158 1_555
O8 Zn0 1.945834 1_555
O9 Si1 1.632009 1_555
O9 Zn1 1.945792 1_465
O10 Si2 1.632185 1_555
O10 Zn0 1.946067 1_655
O11 Si3 1.632351 1_555
O11 Zn1 1.946186 1_555
O12 Si6 1.632260 1_555
O12 Zn2 1.946098 1_555
O13 Si7 1.631938 1_555
O13 Zn3 1.945578 1_645
O14 Si4 1.632078 1_555
O14 Zn2 1.945846 1_455
O15 Si5 1.632394 1_555
O15 Zn3 1.946440 1_555
O16 Si4 1.651971 1_655
O16 Zn1 2.055934 1_555
O17 Si5 1.651970 1_555
O17 Zn0 2.056713 1_555
O18 Si6 1.652153 1_555
O18 Zn1 2.057855 1_565
O19 Si7 1.652099 1_455
O19 Zn0 2.057028 1_555
O20 Si0 1.652135 1_555
O20 Zn3 2.057945 1_545
O21 Si1 1.652025 1_655
O21 Zn2 2.056769 1_555
O22 Si2 1.651823 1_455
O22 Zn3 2.055662 1_555
O23 Si3 1.652025 1_555
O23 Zn2 2.056977 1_555
