# generated using pymatgen
data_CsUAgS3
_symmetry_space_group_name_H-M   'P 1'
_cell_length_a   8.06236363
_cell_length_b   8.06236363
_cell_length_c   10.54877600
_cell_angle_alpha   90.00000000
_cell_angle_beta   90.00000000
_cell_angle_gamma   150.26704824
_symmetry_Int_Tables_number   1
_chemical_formula_structural   CsUAgS3
_chemical_formula_sum   'Cs2 U2 Ag2 S6'
_cell_volume   340.07277546
_cell_formula_units_Z   2
loop_
 _symmetry_equiv_pos_site_id
 _symmetry_equiv_pos_as_xyz
  1  'x, y, z'
loop_
 _atom_site_type_symbol
 _atom_site_label
 _atom_site_symmetry_multiplicity
 _atom_site_fract_x
 _atom_site_fract_y
 _atom_site_fract_z
 _atom_site_occupancy
  Cs  Cs0  1  0.73896300  0.26103700  0.25000000  1
  Cs  Cs1  1  0.26103700  0.73896300  0.75000000  1
  U  U0  1  0.00000000  0.00000000  0.50000000  1
  U  U1  1  0.00000000  0.00000000  0.00000000  1
  Ag  Ag0  1  0.54490900  0.45509100  0.75000000  1
  Ag  Ag1  1  0.45509100  0.54490900  0.25000000  1
  S  S0  1  0.61316800  0.38683200  0.53663400  1
  S  S1  1  0.38683200  0.61316800  0.46336600  1
  S  S2  1  0.38683200  0.61316800  0.03663400  1
  S  S3  1  0.94710200  0.05289800  0.75000000  1
  S  S4  1  0.05289800  0.94710200  0.25000000  1
  S  S5  1  0.61316800  0.38683200  0.96336600  1
loop_
_geom_bond_atom_site_label_1
_geom_bond_atom_site_label_2
_geom_bond_distance
_geom_bond_site_symmetry_2
Cs0 S4 3.561994 1_545
Cs0 S4 3.561994 1_655
Cs0 S0 3.603608 1_555
Cs0 S5 3.603608 1_554
Cs0 S2 3.828265 1_655
Cs0 S2 3.828265 1_545
Cs0 S1 3.828265 1_545
Cs0 S1 3.828265 1_655
Cs1 S3 3.561994 1_455
Cs1 S3 3.561994 1_565
Cs1 S1 3.603608 1_555
Cs1 S2 3.603608 1_556
Cs1 S5 3.828265 1_565
Cs1 S0 3.828265 1_455
Cs1 S0 3.828265 1_565
Cs1 S5 3.828265 1_455
Ag0 S0 2.489494 1_555
Ag0 S5 2.489494 1_555
Ag0 S3 2.569514 1_565
Ag0 S3 2.569514 1_455
Ag1 S2 2.489494 1_555
Ag1 S1 2.489494 1_555
Ag1 S4 2.569514 1_655
Ag1 S4 2.569514 1_545
S0 U0 2.745706 1_555
S0 U0 2.745706 1_665
S1 U0 2.745706 1_555
S1 U0 2.745706 1_665
S2 U1 2.745706 1_555
S2 U1 2.745706 1_665
S3 U1 2.763051 1_656
S3 U0 2.763051 1_655
S4 U0 2.763051 1_565
S4 U1 2.763051 1_565
S5 U1 2.745706 1_556
S5 U1 2.745706 1_666
