# generated using pymatgen
data_Er(Al2Cr)4
_symmetry_space_group_name_H-M   'P 1'
_cell_length_a   5.06287300
_cell_length_b   6.77492974
_cell_length_c   6.77492974
_cell_angle_alpha   81.97456953
_cell_angle_beta   68.05924213
_cell_angle_gamma   68.05924213
_symmetry_Int_Tables_number   1
_chemical_formula_structural   Er(Al2Cr)4
_chemical_formula_sum   'Er1 Al8 Cr4'
_cell_volume   199.94044723
_cell_formula_units_Z   1
loop_
 _symmetry_equiv_pos_site_id
 _symmetry_equiv_pos_as_xyz
  1  'x, y, z'
loop_
 _atom_site_type_symbol
 _atom_site_label
 _atom_site_symmetry_multiplicity
 _atom_site_fract_x
 _atom_site_fract_y
 _atom_site_fract_z
 _atom_site_occupancy
  Er  Er0  1  0.00000000  0.00000000  0.00000000  1
  Al  Al0  1  0.00000000  0.33529400  0.66470600  1
  Al  Al1  1  0.00000000  0.66470600  0.33529400  1
  Al  Al2  1  0.66470600  0.33529400  0.33529400  1
  Al  Al3  1  0.33529400  0.66470600  0.66470600  1
  Al  Al4  1  0.50000000  0.77813700  0.22186300  1
  Al  Al5  1  0.50000000  0.22186300  0.77813700  1
  Al  Al6  1  0.72186300  0.77813700  0.77813700  1
  Al  Al7  1  0.27813700  0.22186300  0.22186300  1
  Cr  Cr0  1  0.00000000  0.00000000  0.50000000  1
  Cr  Cr1  1  0.50000000  0.00000000  0.50000000  1
  Cr  Cr2  1  0.50000000  0.50000000  0.00000000  1
  Cr  Cr3  1  0.00000000  0.50000000  0.00000000  1
loop_
_geom_bond_atom_site_label_1
_geom_bond_atom_site_label_2
_geom_bond_distance
_geom_bond_site_symmetry_2
Al0 Cr2 2.667037 1_456
Al0 Cr1 2.667037 1_555
Al0 Cr3 2.667037 1_556
Al0 Cr0 2.667037 1_555
Al0 Al5 2.724778 1_555
Al0 Al5 2.724778 1_455
Al0 Al6 2.872768 1_455
Al0 Al7 2.872768 1_555
Al0 Al1 2.927563 1_555
Al0 Er0 2.979838 1_556
Al1 Cr2 2.667037 1_555
Al1 Cr1 2.667037 1_465
Al1 Cr3 2.667037 1_555
Al1 Cr0 2.667037 1_565
Al1 Al4 2.724778 1_555
Al1 Al4 2.724778 1_455
Al1 Al6 2.872768 1_455
Al1 Al7 2.872768 1_555
Al1 Er0 2.979838 1_565
Al2 Cr3 2.667037 1_655
Al2 Cr0 2.667037 1_655
Al2 Cr2 2.667037 1_555
Al2 Cr1 2.667037 1_555
Al2 Al7 2.724777 1_655
Al2 Al7 2.724778 1_555
Al2 Al4 2.872768 1_555
Al2 Al5 2.872768 1_555
Al2 Al3 2.927563 1_555
Al2 Er0 2.979838 1_655
Al3 Cr3 2.667037 1_556
Al3 Cr0 2.667037 1_565
Al3 Cr1 2.667037 1_565
Al3 Cr2 2.667037 1_556
Al3 Al6 2.724777 1_455
Al3 Al6 2.724778 1_555
Al3 Al4 2.872768 1_555
Al3 Al5 2.872768 1_555
Al3 Er0 2.979838 1_566
Al4 Cr3 2.569243 1_655
Al4 Cr0 2.569243 1_565
Al4 Cr2 2.569243 1_555
Al4 Cr1 2.569243 1_565
Al4 Al7 2.788475 1_565
Al4 Al6 2.788475 1_554
Al4 Er0 3.208733 1_565
Al4 Er0 3.208733 1_665
Al5 Cr0 2.569243 1_655
Al5 Cr3 2.569243 1_556
Al5 Cr1 2.569243 1_555
Al5 Cr2 2.569243 1_556
Al5 Al7 2.788475 1_556
Al5 Al6 2.788475 1_545
Al5 Er0 3.208733 1_556
Al5 Er0 3.208733 1_656
Al6 Cr3 2.569243 1_656
Al6 Cr0 2.569243 1_665
Al6 Cr1 2.569243 1_565
Al6 Cr2 2.569243 1_556
Al6 Er0 3.208733 1_566
Al6 Er0 3.208733 1_666
Al7 Cr0 2.569243 1_555
Al7 Cr3 2.569243 1_555
Al7 Cr2 2.569243 1_555
Al7 Cr1 2.569243 1_555
Al7 Er0 3.208733 1_655
Al7 Er0 3.208733 1_555
Cr0 Cr1 2.531436 1_555
Cr0 Cr1 2.531436 1_455
Cr0 Er0 3.387465 1_556
Cr0 Er0 3.387465 1_555
Cr1 Er0 3.387465 1_556
Cr1 Er0 3.387465 1_655
Cr2 Cr3 2.531436 1_555
Cr2 Cr3 2.531436 1_655
Cr2 Er0 3.387465 1_565
Cr2 Er0 3.387465 1_655
Cr3 Er0 3.387465 1_565
Cr3 Er0 3.387465 1_555
