# generated using pymatgen
data_YMg14Zr
_symmetry_space_group_name_H-M   'P 1'
_cell_length_a   6.53595027
_cell_length_b   6.53594971
_cell_length_c   10.18551477
_cell_angle_alpha   90.00000000
_cell_angle_beta   90.00000000
_cell_angle_gamma   120.00000277
_symmetry_Int_Tables_number   1
_chemical_formula_structural   YMg14Zr
_chemical_formula_sum   'Y1 Mg14 Zr1'
_cell_volume   376.81748237
_cell_formula_units_Z   1
loop_
 _symmetry_equiv_pos_site_id
 _symmetry_equiv_pos_as_xyz
  1  'x, y, z'
loop_
 _atom_site_type_symbol
 _atom_site_label
 _atom_site_symmetry_multiplicity
 _atom_site_fract_x
 _atom_site_fract_y
 _atom_site_fract_z
 _atom_site_occupancy
  Y  Y0  1  0.16666700  0.33333300  0.12500000  1
  Mg  Mg0  1  0.17168814  0.83584357  0.12500000  1
  Mg  Mg1  1  0.16935558  0.83467729  0.62500000  1
  Mg  Mg2  1  0.66415643  0.32831186  0.12500000  1
  Mg  Mg3  1  0.66532271  0.33064442  0.62500000  1
  Mg  Mg4  1  0.66415643  0.83584357  0.12500000  1
  Mg  Mg5  1  0.66532271  0.83467729  0.62500000  1
  Mg  Mg6  1  0.33355648  0.16644352  0.37899368  1
  Mg  Mg7  1  0.33355648  0.16644352  0.87100632  1
  Mg  Mg8  1  0.33355648  0.66711397  0.37899368  1
  Mg  Mg9  1  0.33355648  0.66711397  0.87100632  1
  Mg  Mg10  1  0.83288603  0.16644352  0.37899368  1
  Mg  Mg11  1  0.83288603  0.16644352  0.87100632  1
  Mg  Mg12  1  0.83333300  0.66666700  0.37383917  1
  Mg  Mg13  1  0.83333300  0.66666700  0.87616083  1
  Zr  Zr0  1  0.16666700  0.33333300  0.62500000  1
loop_
_geom_bond_atom_site_label_1
_geom_bond_atom_site_label_2
_geom_bond_distance
_geom_bond_site_symmetry_2
Mg0 Mg12 3.176779 1_455
Mg0 Mg13 3.176779 1_454
Mg0 Mg9 3.192971 1_554
Mg0 Mg8 3.192971 1_555
Mg0 Mg6 3.192978 1_565
Mg0 Mg7 3.192978 1_564
Mg0 Mg2 3.218748 1_565
Mg0 Mg4 3.218748 1_555
Mg0 Y0 3.268098 1_555
Mg0 Y0 3.268098 1_565
Mg0 Mg2 3.317202 1_455
Mg0 Mg4 3.317202 1_455
Mg1 Mg8 3.131311 1_555
Mg1 Mg9 3.131311 1_555
Mg1 Mg6 3.131318 1_565
Mg1 Mg7 3.131318 1_565
Mg1 Mg12 3.187783 1_455
Mg1 Mg13 3.187783 1_455
Mg1 Mg3 3.241616 1_565
Mg1 Mg5 3.241616 1_555
Mg1 Zr0 3.268010 1_555
Mg1 Zr0 3.268010 1_565
Mg1 Mg3 3.294333 1_455
Mg1 Mg5 3.294334 1_455
Mg2 Mg6 3.192978 1_555
Mg2 Mg7 3.192978 1_554
Mg2 Mg4 3.218748 1_545
Mg2 Y0 3.268099 1_555
Mg2 Y0 3.268099 1_655
Mg2 Mg4 3.317202 1_555
Mg3 Mg6 3.131318 1_555
Mg3 Mg7 3.131318 1_555
Mg3 Mg5 3.241616 1_545
Mg3 Zr0 3.268011 1_555
Mg3 Zr0 3.268011 1_655
Mg3 Mg5 3.294333 1_555
Mg4 Mg9 3.192978 1_554
Mg4 Mg8 3.192978 1_555
Mg4 Y0 3.268098 1_555
Mg4 Y0 3.268098 1_665
Mg5 Mg8 3.131318 1_555
Mg5 Mg9 3.131318 1_555
Mg5 Zr0 3.268010 1_555
Mg5 Zr0 3.268010 1_665
Mg6 Zr0 3.138144 1_555
Mg6 Y0 3.203478 1_555
Mg6 Mg8 3.263593 1_545
Mg6 Mg8 3.272357 1_555
Mg7 Zr0 3.138144 1_555
Mg7 Y0 3.203478 1_556
Mg7 Mg9 3.263593 1_545
Mg7 Mg9 3.272357 1_555
Mg8 Zr0 3.138151 1_555
Mg8 Y0 3.203485 1_555
Mg9 Zr0 3.138151 1_555
Mg9 Y0 3.203485 1_556
Mg10 Mg3 3.131311 1_555
Mg10 Mg5 3.131318 1_545
Mg10 Zr0 3.138151 1_655
Mg10 Mg2 3.192971 1_555
Mg10 Mg4 3.192978 1_545
Mg10 Y0 3.203485 1_655
Mg10 Mg8 3.263593 1_545
Mg10 Mg6 3.263593 1_555
Mg10 Mg12 3.268398 1_555
Mg10 Mg12 3.268398 1_545
Mg10 Mg8 3.272357 1_655
Mg10 Mg6 3.272357 1_655
Mg11 Mg3 3.131311 1_555
Mg11 Mg5 3.131318 1_545
Mg11 Zr0 3.138151 1_655
Mg11 Mg2 3.192971 1_556
Mg11 Mg4 3.192978 1_546
Mg11 Y0 3.203485 1_656
Mg11 Mg9 3.263593 1_545
Mg11 Mg7 3.263593 1_555
Mg11 Mg13 3.268398 1_555
Mg11 Mg13 3.268398 1_545
Mg11 Mg9 3.272357 1_655
Mg11 Mg7 3.272357 1_655
Mg12 Mg4 3.176772 1_555
Mg12 Mg2 3.176779 1_555
Mg12 Mg5 3.187776 1_555
Mg12 Mg3 3.187783 1_555
Mg12 Mg6 3.268398 1_555
Mg12 Mg6 3.268398 1_665
Mg12 Mg8 3.268398 1_655
Mg12 Mg8 3.268398 1_555
Mg13 Mg4 3.176772 1_556
Mg13 Mg2 3.176779 1_556
Mg13 Mg5 3.187776 1_555
Mg13 Mg3 3.187783 1_555
Mg13 Mg7 3.268398 1_555
Mg13 Mg7 3.268398 1_665
Mg13 Mg9 3.268398 1_655
Mg13 Mg9 3.268398 1_555
