# generated using pymatgen
data_Mn5CrO12
_symmetry_space_group_name_H-M   'P 1'
_cell_length_a   5.06148731
_cell_length_b   5.06148731
_cell_length_c   9.34448914
_cell_angle_alpha   89.95596949
_cell_angle_beta   89.95596949
_cell_angle_gamma   120.29303936
_symmetry_Int_Tables_number   1
_chemical_formula_structural   Mn5CrO12
_chemical_formula_sum   'Mn5 Cr1 O12'
_cell_volume   206.70547684
_cell_formula_units_Z   1
loop_
 _symmetry_equiv_pos_site_id
 _symmetry_equiv_pos_as_xyz
  1  'x, y, z'
loop_
 _atom_site_type_symbol
 _atom_site_label
 _atom_site_symmetry_multiplicity
 _atom_site_fract_x
 _atom_site_fract_y
 _atom_site_fract_z
 _atom_site_occupancy
  Mn  Mn0  1  0.16667600  0.83332400  0.50000000  1
  Mn  Mn1  1  0.66672300  0.33327700  0.00000000  1
  Mn  Mn2  1  0.33327700  0.66672300  0.00000000  1
  Mn  Mn3  1  0.83332400  0.16667600  0.50000000  1
  Mn  Mn4  1  0.50000000  0.50000000  0.50000000  1
  Cr  Cr0  1  0.00000000  0.00000000  0.00000000  1
  O  O0  1  0.33480100  0.99863600  0.10318800  1
  O  O1  1  0.00136400  0.66519900  0.89681200  1
  O  O2  1  0.49986400  0.83277100  0.39712100  1
  O  O3  1  0.83277100  0.49986400  0.39712100  1
  O  O4  1  0.16722900  0.50013600  0.60287900  1
  O  O5  1  0.83317600  0.83317600  0.60296500  1
  O  O6  1  0.50013600  0.16722900  0.60287900  1
  O  O7  1  0.99863600  0.33480100  0.10318800  1
  O  O8  1  0.66783000  0.66783000  0.10346400  1
  O  O9  1  0.66519900  0.00136400  0.89681200  1
  O  O10  1  0.33217000  0.33217000  0.89653600  1
  O  O11  1  0.16682400  0.16682400  0.39703500  1
loop_
_geom_bond_atom_site_label_1
_geom_bond_atom_site_label_2
_geom_bond_distance
_geom_bond_site_symmetry_2
Mn0 O3 1.938155 1_455
Mn0 O6 1.938155 1_565
Mn0 O2 1.941781 1_555
Mn0 O4 1.941781 1_555
Mn0 O5 1.941992 1_455
Mn0 O11 1.941992 1_565
Mn1 O9 1.934310 1_554
Mn1 O7 1.934310 1_555
Mn1 O1 1.935293 1_654
Mn1 O0 1.935293 1_545
Mn1 O10 1.948104 1_554
Mn1 O8 1.948104 1_555
Mn2 O1 1.934310 1_554
Mn2 O0 1.934310 1_555
Mn2 O9 1.935293 1_564
Mn2 O7 1.935293 1_455
Mn2 O10 1.948104 1_554
Mn2 O8 1.948104 1_555
Mn3 O2 1.938155 1_545
Mn3 O4 1.938155 1_655
Mn3 O6 1.941781 1_555
Mn3 O3 1.941781 1_555
Mn3 O5 1.941992 1_545
Mn3 O11 1.941992 1_655
Mn4 O5 1.936338 1_555
Mn4 O11 1.936338 1_555
Mn4 O2 1.939021 1_555
Mn4 O6 1.939021 1_555
Mn4 O3 1.939021 1_555
Mn4 O4 1.939021 1_555
Cr0 O8 1.931689 1_445
Cr0 O10 1.931689 1_554
Cr0 O9 1.953394 1_454
Cr0 O1 1.953394 1_544
Cr0 O7 1.953394 1_455
Cr0 O0 1.953394 1_545
