# generated using pymatgen
data_BaBOF3
_symmetry_space_group_name_H-M   'P 1'
_cell_length_a   5.18189800
_cell_length_b   6.95176300
_cell_length_c   9.35712100
_cell_angle_alpha   90.00000000
_cell_angle_beta   90.00000000
_cell_angle_gamma   90.00000000
_symmetry_Int_Tables_number   1
_chemical_formula_structural   BaBOF3
_chemical_formula_sum   'Ba4 B4 O4 F12'
_cell_volume   337.07462756
_cell_formula_units_Z   4
loop_
 _symmetry_equiv_pos_site_id
 _symmetry_equiv_pos_as_xyz
  1  'x, y, z'
loop_
 _atom_site_type_symbol
 _atom_site_label
 _atom_site_symmetry_multiplicity
 _atom_site_fract_x
 _atom_site_fract_y
 _atom_site_fract_z
 _atom_site_occupancy
  Ba  Ba0  1  0.25000000  0.32417100  0.69185400  1
  Ba  Ba1  1  0.75000000  0.67582900  0.30814600  1
  Ba  Ba2  1  0.75000000  0.82417100  0.80814600  1
  Ba  Ba3  1  0.25000000  0.17582900  0.19185400  1
  B  B0  1  0.25000000  0.82449300  0.57865900  1
  B  B1  1  0.75000000  0.17550700  0.42134100  1
  B  B2  1  0.75000000  0.32449300  0.92134100  1
  B  B3  1  0.25000000  0.67550700  0.07865900  1
  O  O0  1  0.75000000  0.43687200  0.80368900  1
  O  O1  1  0.75000000  0.06312800  0.30368900  1
  O  O2  1  0.25000000  0.93687200  0.69631100  1
  O  O3  1  0.25000000  0.56312800  0.19631100  1
  F  F0  1  0.25000000  0.58938400  0.93688000  1
  F  F1  1  0.75000000  0.41061600  0.06312000  1
  F  F2  1  0.75000000  0.08938400  0.56312000  1
  F  F3  1  0.25000000  0.91061600  0.43688000  1
  F  F4  1  0.52646300  0.31517600  0.42850300  1
  F  F5  1  0.97353700  0.18482400  0.92850300  1
  F  F6  1  0.47353700  0.81517600  0.07149700  1
  F  F7  1  0.02646300  0.68482400  0.57149700  1
  F  F8  1  0.02646300  0.81517600  0.07149700  1
  F  F9  1  0.52646300  0.18482400  0.92850300  1
  F  F10  1  0.97353700  0.31517600  0.42850300  1
  F  F11  1  0.47353700  0.68482400  0.57149700  1
loop_
_geom_bond_atom_site_label_1
_geom_bond_atom_site_label_2
_geom_bond_distance
_geom_bond_site_symmetry_2
Ba0 O2 2.692734 1_545
Ba0 F5 2.809645 1_455
Ba0 F9 2.809645 1_555
Ba0 F10 2.851066 1_455
Ba0 F4 2.851066 1_555
Ba0 O0 2.902052 1_455
Ba0 O0 2.902052 1_555
Ba0 F0 2.942086 1_555
Ba0 F7 2.982617 1_555
Ba0 F11 2.982617 1_555
Ba0 F2 3.290601 1_455
Ba0 F2 3.290601 1_555
Ba1 O1 2.692734 1_565
Ba1 F8 2.809645 1_655
Ba1 F6 2.809645 1_555
Ba1 F7 2.851066 1_655
Ba1 F11 2.851066 1_555
Ba1 O3 2.902052 1_555
Ba1 O3 2.902052 1_655
Ba1 F1 2.942086 1_555
Ba1 F4 2.982617 1_555
Ba1 F10 2.982617 1_555
Ba1 F3 3.290601 1_555
Ba1 F3 3.290601 1_655
Ba2 O0 2.692734 1_555
Ba2 F11 2.809645 1_555
Ba2 F7 2.809645 1_655
Ba2 F8 2.851066 1_656
Ba2 F6 2.851066 1_556
Ba2 O2 2.902052 1_655
Ba2 O2 2.902052 1_555
Ba2 F2 2.942086 1_565
Ba2 F5 2.982617 1_565
Ba2 F9 2.982617 1_565
Ba2 F0 3.290601 1_555
Ba2 F0 3.290601 1_655
Ba3 O3 2.692734 1_555
Ba3 F10 2.809645 1_455
Ba3 F4 2.809645 1_555
Ba3 F9 2.851066 1_554
Ba3 F5 2.851066 1_454
Ba3 O1 2.902052 1_555
Ba3 O1 2.902052 1_455
Ba3 F3 2.942086 1_545
Ba3 F6 2.982617 1_545
Ba3 F8 2.982617 1_545
Ba3 F1 3.290601 1_455
Ba3 F1 3.290601 1_555
B0 O2 1.349915 1_555
B0 F3 1.455483 1_555
B0 F7 1.512942 1_555
B0 F11 1.512942 1_555
B1 O1 1.349915 1_555
B1 F2 1.455483 1_555
B1 F4 1.512942 1_555
B1 F10 1.512942 1_555
B2 O0 1.349915 1_555
B2 F1 1.455483 1_556
B2 F9 1.512942 1_555
B2 F5 1.512942 1_555
B3 O3 1.349915 1_555
B3 F0 1.455483 1_554
B3 F8 1.512942 1_555
B3 F6 1.512942 1_555
