# generated using pymatgen
data_LiPr3
_symmetry_space_group_name_H-M   'P 1'
_cell_length_a   5.06957100
_cell_length_b   5.06957100
_cell_length_c   5.06957100
_cell_angle_alpha   90.00000000
_cell_angle_beta   90.00000000
_cell_angle_gamma   90.00000000
_symmetry_Int_Tables_number   1
_chemical_formula_structural   LiPr3
_chemical_formula_sum   'Li1 Pr3'
_cell_volume   130.29076359
_cell_formula_units_Z   1
loop_
 _symmetry_equiv_pos_site_id
 _symmetry_equiv_pos_as_xyz
  1  'x, y, z'
loop_
 _atom_site_type_symbol
 _atom_site_label
 _atom_site_symmetry_multiplicity
 _atom_site_fract_x
 _atom_site_fract_y
 _atom_site_fract_z
 _atom_site_occupancy
  Li  Li0  1  0.00000000  0.00000000  0.00000000  1
  Pr  Pr0  1  0.00000000  0.50000000  0.50000000  1
  Pr  Pr1  1  0.50000000  0.50000000  0.00000000  1
  Pr  Pr2  1  0.50000000  0.00000000  0.50000000  1
loop_
_geom_bond_atom_site_label_1
_geom_bond_atom_site_label_2
_geom_bond_distance
_geom_bond_site_symmetry_2
Li0 Pr2 3.584728 1_554
Li0 Pr0 3.584728 1_545
Li0 Pr0 3.584728 1_544
Li0 Pr0 3.584728 1_555
Li0 Pr2 3.584728 1_455
Li0 Pr1 3.584728 1_445
Li0 Pr2 3.584728 1_555
Li0 Pr0 3.584728 1_554
Li0 Pr1 3.584728 1_545
Li0 Pr1 3.584728 1_555
Li0 Pr1 3.584728 1_455
Li0 Pr2 3.584728 1_454
Pr0 Pr2 3.584728 1_465
Pr0 Pr1 3.584728 1_556
Pr0 Pr2 3.584728 1_455
Pr0 Pr2 3.584728 1_555
Pr0 Pr1 3.584728 1_555
Pr0 Pr1 3.584728 1_455
Pr0 Pr2 3.584728 1_565
Pr0 Pr1 3.584728 1_456
Pr1 Pr2 3.584728 1_564
Pr1 Pr2 3.584728 1_554
Pr1 Pr2 3.584728 1_555
Pr1 Pr2 3.584728 1_565
