# generated using pymatgen
data_Mg2Sc
_symmetry_space_group_name_H-M   'P 1'
_cell_length_a   12.40500680
_cell_length_b   12.40500680
_cell_length_c   15.21169129
_cell_angle_alpha   75.26419764
_cell_angle_beta   75.26419764
_cell_angle_gamma   29.56560490
_symmetry_Int_Tables_number   1
_chemical_formula_structural   Mg2Sc
_chemical_formula_sum   'Mg32 Sc16'
_cell_volume   1114.33286361
_cell_formula_units_Z   16
loop_
 _symmetry_equiv_pos_site_id
 _symmetry_equiv_pos_as_xyz
  1  'x, y, z'
loop_
 _atom_site_type_symbol
 _atom_site_label
 _atom_site_symmetry_multiplicity
 _atom_site_fract_x
 _atom_site_fract_y
 _atom_site_fract_z
 _atom_site_occupancy
  Mg  Mg0_0  1  0.09880635  0.09880635  0.42921152  1
  Mg  Mg0_1  1  0.09880636  0.09880636  0.92921152  1
  Mg  Mg0_2  1  0.09880636  0.59880636  0.42921152  1
  Mg  Mg0_3  1  0.09880636  0.59880636  0.92921152  1
  Mg  Mg0_4  1  0.59880636  0.09880636  0.42921152  1
  Mg  Mg0_5  1  0.59880636  0.09880636  0.92921152  1
  Mg  Mg0_6  1  0.59880636  0.59880636  0.42921152  1
  Mg  Mg0_7  1  0.59880636  0.59880636  0.92921152  1
  Mg  Mg1_0  1  0.42889839  0.42889839  0.26595948  1
  Mg  Mg1_1  1  0.42889839  0.42889839  0.76595947  1
  Mg  Mg1_2  1  0.42889839  0.92889839  0.26595948  1
  Mg  Mg1_3  1  0.42889839  0.92889839  0.76595948  1
  Mg  Mg1_4  1  0.92889839  0.42889839  0.26595948  1
  Mg  Mg1_5  1  0.92889839  0.42889839  0.76595948  1
  Mg  Mg1_6  1  0.92889839  0.92889839  0.26595948  1
  Mg  Mg1_7  1  0.92889839  0.92889839  0.76595948  1
  Mg  Mg2_0  1  0.07110161  0.07110161  0.23404053  1
  Mg  Mg2_1  1  0.07110161  0.07110161  0.73404053  1
  Mg  Mg2_2  1  0.07110161  0.57110161  0.23404053  1
  Mg  Mg2_3  1  0.07110161  0.57110161  0.73404053  1
  Mg  Mg2_4  1  0.57110161  0.07110161  0.23404053  1
  Mg  Mg2_5  1  0.57110161  0.07110161  0.73404053  1
  Mg  Mg2_6  1  0.57110161  0.57110161  0.23404052  1
  Mg  Mg2_7  1  0.57110161  0.57110161  0.73404052  1
  Mg  Mg3_0  1  0.40119364  0.40119364  0.07078848  1
  Mg  Mg3_1  1  0.40119364  0.40119364  0.57078848  1
  Mg  Mg3_2  1  0.40119365  0.90119364  0.07078848  1
  Mg  Mg3_3  1  0.40119364  0.90119364  0.57078848  1
  Mg  Mg3_4  1  0.90119364  0.40119364  0.07078848  1
  Mg  Mg3_5  1  0.90119364  0.40119364  0.57078848  1
  Mg  Mg3_6  1  0.90119364  0.90119364  0.07078848  1
  Mg  Mg3_7  1  0.90119364  0.90119364  0.57078848  1
  Sc  Sc0_0  1  0.23816820  0.23816820  0.40176865  1
  Sc  Sc0_1  1  0.23816820  0.23816821  0.90176865  1
  Sc  Sc0_2  1  0.23816821  0.73816821  0.40176865  1
  Sc  Sc0_3  1  0.23816821  0.73816821  0.90176865  1
  Sc  Sc0_4  1  0.73816821  0.23816820  0.40176865  1
  Sc  Sc0_5  1  0.73816821  0.23816821  0.90176865  1
  Sc  Sc0_6  1  0.73816821  0.73816821  0.40176865  1
  Sc  Sc0_7  1  0.73816821  0.73816821  0.90176865  1
  Sc  Sc1_0  1  0.26183179  0.26183179  0.09823135  1
  Sc  Sc1_1  1  0.26183180  0.26183180  0.59823135  1
  Sc  Sc1_2  1  0.26183180  0.76183179  0.09823135  1
  Sc  Sc1_3  1  0.26183180  0.76183180  0.59823135  1
  Sc  Sc1_4  1  0.76183179  0.26183180  0.09823135  1
  Sc  Sc1_5  1  0.76183179  0.26183180  0.59823135  1
  Sc  Sc1_6  1  0.76183180  0.76183180  0.09823135  1
  Sc  Sc1_7  1  0.76183180  0.76183180  0.59823135  1
loop_
_geom_bond_atom_site_label_1
_geom_bond_atom_site_label_2
_geom_bond_distance
_geom_bond_site_symmetry_2
Mg0_0 Mg1_4 3.138900 1_455
Mg0_0 Mg1_2 3.138900 1_545
Mg0_0 Mg0_6 3.165206 1_455
Mg0_0 Mg0_6 3.165206 1_545
Mg0_0 Mg3_5 3.185284 1_455
Mg0_0 Mg3_3 3.185284 1_545
Mg0_0 Mg2_0 3.208441 1_555
Mg0_0 Sc0_2 3.210290 1_545
Mg0_0 Sc0_4 3.210290 1_455
Mg0_0 Sc0_0 3.258292 1_555
Mg0_0 Sc1_3 3.262792 1_545
Mg0_0 Sc1_5 3.262792 1_455
Mg0_1 Mg1_5 3.138900 1_455
Mg0_1 Mg1_3 3.138900 1_545
Mg0_1 Mg0_7 3.165206 1_455
Mg0_1 Mg0_7 3.165206 1_545
Mg0_1 Mg3_4 3.185284 1_456
Mg0_1 Mg3_2 3.185284 1_546
Mg0_1 Mg2_1 3.208441 1_555
Mg0_1 Sc0_3 3.210290 1_545
Mg0_1 Sc0_5 3.210290 1_455
Mg0_1 Sc0_1 3.258292 1_555
Mg0_1 Sc1_2 3.262792 1_546
Mg0_1 Sc1_4 3.262792 1_456
Mg0_2 Mg1_6 3.138900 1_455
Mg0_2 Mg1_0 3.138900 1_555
Mg0_2 Mg0_4 3.165206 1_555
Mg0_2 Mg0_4 3.165206 1_465
Mg0_2 Mg3_1 3.185284 1_555
Mg0_2 Mg3_7 3.185284 1_455
Mg0_2 Mg2_2 3.208441 1_555
Mg0_2 Sc0_6 3.210290 1_455
Mg0_2 Sc0_0 3.210290 1_555
Mg0_2 Sc0_2 3.258292 1_555
Mg0_2 Sc1_7 3.262792 1_455
Mg0_2 Sc1_1 3.262792 1_555
Mg0_3 Mg1_7 3.138900 1_455
Mg0_3 Mg1_1 3.138900 1_555
Mg0_3 Mg0_5 3.165206 1_465
Mg0_3 Mg0_5 3.165206 1_555
Mg0_3 Mg3_6 3.185284 1_456
Mg0_3 Mg3_0 3.185284 1_556
Mg0_3 Mg2_3 3.208441 1_555
Mg0_3 Sc0_7 3.210290 1_455
Mg0_3 Sc0_1 3.210290 1_555
Mg0_3 Sc0_3 3.258292 1_555
Mg0_3 Sc1_6 3.262792 1_456
Mg0_3 Sc1_0 3.262792 1_556
Mg0_4 Mg1_0 3.138900 1_555
Mg0_4 Mg1_6 3.138900 1_545
Mg0_4 Mg3_1 3.185284 1_555
Mg0_4 Mg3_7 3.185284 1_545
Mg0_4 Mg2_4 3.208441 1_555
Mg0_4 Sc0_0 3.210290 1_555
Mg0_4 Sc0_6 3.210290 1_545
Mg0_4 Sc0_4 3.258292 1_555
Mg0_4 Sc1_7 3.262792 1_545
Mg0_4 Sc1_1 3.262792 1_555
Mg0_5 Mg1_7 3.138900 1_545
Mg0_5 Mg1_1 3.138900 1_555
Mg0_5 Mg3_6 3.185284 1_546
Mg0_5 Mg3_0 3.185284 1_556
Mg0_5 Mg2_5 3.208441 1_555
Mg0_5 Sc0_1 3.210290 1_555
Mg0_5 Sc0_7 3.210290 1_545
Mg0_5 Sc0_5 3.258292 1_555
Mg0_5 Sc1_6 3.262792 1_546
Mg0_5 Sc1_0 3.262792 1_556
Mg0_6 Mg1_2 3.138900 1_555
Mg0_6 Mg1_4 3.138900 1_555
Mg0_6 Mg3_5 3.185284 1_555
Mg0_6 Mg3_3 3.185284 1_555
Mg0_6 Mg2_6 3.208441 1_555
Mg0_6 Sc0_4 3.210290 1_555
Mg0_6 Sc0_2 3.210290 1_555
Mg0_6 Sc0_6 3.258292 1_555
Mg0_6 Sc1_3 3.262792 1_555
Mg0_6 Sc1_5 3.262792 1_555
Mg0_7 Mg1_5 3.138900 1_555
Mg0_7 Mg1_3 3.138900 1_555
Mg0_7 Mg3_4 3.185284 1_556
Mg0_7 Mg3_2 3.185284 1_556
Mg0_7 Mg2_7 3.208441 1_555
Mg0_7 Sc0_3 3.210290 1_555
Mg0_7 Sc0_5 3.210290 1_555
Mg0_7 Sc0_7 3.258292 1_555
Mg0_7 Sc1_2 3.262792 1_556
Mg0_7 Sc1_4 3.262792 1_556
Mg1_0 Mg1_6 3.165206 1_545
Mg1_0 Mg1_6 3.165206 1_455
Mg1_0 Mg2_2 3.176153 1_555
Mg1_0 Mg2_4 3.176153 1_555
Mg1_0 Mg3_0 3.208441 1_555
Mg1_0 Sc1_2 3.209632 1_555
Mg1_0 Sc1_4 3.209632 1_555
Mg1_0 Sc0_4 3.215510 1_555
Mg1_0 Sc0_2 3.215510 1_555
Mg1_0 Mg2_6 3.316800 1_555
Mg1_1 Mg1_7 3.165206 1_455
Mg1_1 Mg1_7 3.165206 1_545
Mg1_1 Mg2_3 3.176153 1_555
Mg1_1 Mg2_5 3.176153 1_555
Mg1_1 Mg3_1 3.208441 1_555
Mg1_1 Sc1_5 3.209632 1_555
Mg1_1 Sc1_3 3.209632 1_555
Mg1_1 Sc0_5 3.215510 1_555
Mg1_1 Sc0_3 3.215510 1_555
Mg1_1 Mg2_7 3.316800 1_555
Mg1_2 Mg1_4 3.165206 1_555
Mg1_2 Mg1_4 3.165206 1_465
Mg1_2 Mg2_6 3.176153 1_555
Mg1_2 Mg2_0 3.176153 1_565
Mg1_2 Mg3_2 3.208441 1_555
Mg1_2 Sc1_0 3.209632 1_565
Mg1_2 Sc1_6 3.209632 1_555
Mg1_2 Sc0_0 3.215510 1_565
Mg1_2 Sc0_6 3.215510 1_555
Mg1_2 Mg2_4 3.316800 1_565
Mg1_3 Mg1_5 3.165206 1_555
Mg1_3 Mg1_5 3.165206 1_465
Mg1_3 Mg2_1 3.176153 1_565
Mg1_3 Mg2_7 3.176153 1_555
Mg1_3 Mg3_3 3.208441 1_555
Mg1_3 Sc1_1 3.209632 1_565
Mg1_3 Sc1_7 3.209632 1_555
Mg1_3 Sc0_7 3.215510 1_555
Mg1_3 Sc0_1 3.215510 1_565
Mg1_3 Mg2_5 3.316800 1_565
Mg1_4 Mg2_6 3.176153 1_555
Mg1_4 Mg2_0 3.176153 1_655
Mg1_4 Mg3_4 3.208441 1_555
Mg1_4 Sc1_0 3.209632 1_655
Mg1_4 Sc1_6 3.209632 1_555
Mg1_4 Sc0_0 3.215510 1_655
Mg1_4 Sc0_6 3.215510 1_555
Mg1_4 Mg2_2 3.316800 1_655
Mg1_5 Mg2_1 3.176153 1_655
Mg1_5 Mg2_7 3.176153 1_555
Mg1_5 Mg3_5 3.208441 1_555
Mg1_5 Sc1_1 3.209632 1_655
Mg1_5 Sc1_7 3.209632 1_555
Mg1_5 Sc0_7 3.215510 1_555
Mg1_5 Sc0_1 3.215510 1_655
Mg1_5 Mg2_3 3.316800 1_655
Mg1_6 Mg2_2 3.176153 1_655
Mg1_6 Mg2_4 3.176153 1_565
Mg1_6 Mg3_6 3.208441 1_555
Mg1_6 Sc1_4 3.209632 1_565
Mg1_6 Sc1_2 3.209632 1_655
Mg1_6 Sc0_2 3.215510 1_655
Mg1_6 Sc0_4 3.215510 1_565
Mg1_6 Mg2_0 3.316800 1_665
Mg1_7 Mg2_3 3.176153 1_655
Mg1_7 Mg2_5 3.176153 1_565
Mg1_7 Mg3_7 3.208441 1_555
Mg1_7 Sc1_5 3.209632 1_565
Mg1_7 Sc1_3 3.209632 1_655
Mg1_7 Sc0_5 3.215510 1_565
Mg1_7 Sc0_3 3.215510 1_655
Mg1_7 Mg2_1 3.316800 1_665
Mg2_0 Mg3_4 3.138900 1_455
Mg2_0 Mg3_2 3.138900 1_545
Mg2_0 Mg2_6 3.165206 1_455
Mg2_0 Mg2_6 3.165206 1_545
Mg2_0 Sc0_2 3.209632 1_545
Mg2_0 Sc0_4 3.209632 1_455
Mg2_0 Sc1_2 3.215510 1_545
Mg2_0 Sc1_4 3.215510 1_455
Mg2_1 Mg3_5 3.138900 1_455
Mg2_1 Mg3_3 3.138900 1_545
Mg2_1 Mg2_7 3.165206 1_455
Mg2_1 Mg2_7 3.165206 1_545
Mg2_1 Sc0_3 3.209632 1_545
Mg2_1 Sc0_5 3.209632 1_455
Mg2_1 Sc1_3 3.215510 1_545
Mg2_1 Sc1_5 3.215510 1_455
Mg2_2 Mg3_0 3.138900 1_555
Mg2_2 Mg3_6 3.138900 1_455
Mg2_2 Mg2_4 3.165206 1_465
Mg2_2 Mg2_4 3.165206 1_555
Mg2_2 Sc0_6 3.209632 1_455
Mg2_2 Sc0_0 3.209632 1_555
Mg2_2 Sc1_6 3.215510 1_455
Mg2_2 Sc1_0 3.215510 1_555
Mg2_3 Mg3_7 3.138900 1_455
Mg2_3 Mg3_1 3.138900 1_555
Mg2_3 Mg2_5 3.165206 1_465
Mg2_3 Mg2_5 3.165206 1_555
Mg2_3 Sc0_7 3.209632 1_455
Mg2_3 Sc0_1 3.209632 1_555
Mg2_3 Sc1_7 3.215510 1_455
Mg2_3 Sc1_1 3.215510 1_555
Mg2_4 Mg3_6 3.138900 1_545
Mg2_4 Mg3_0 3.138900 1_555
Mg2_4 Sc0_6 3.209632 1_545
Mg2_4 Sc0_0 3.209632 1_555
Mg2_4 Sc1_6 3.215510 1_545
Mg2_4 Sc1_0 3.215510 1_555
Mg2_5 Mg3_7 3.138900 1_545
Mg2_5 Mg3_1 3.138900 1_555
Mg2_5 Sc0_7 3.209632 1_545
Mg2_5 Sc0_1 3.209632 1_555
Mg2_5 Sc1_7 3.215510 1_545
Mg2_5 Sc1_1 3.215510 1_555
Mg2_6 Mg3_4 3.138900 1_555
Mg2_6 Mg3_2 3.138900 1_555
Mg2_6 Sc0_2 3.209632 1_555
Mg2_6 Sc0_4 3.209632 1_555
Mg2_6 Sc1_2 3.215510 1_555
Mg2_6 Sc1_4 3.215510 1_555
Mg2_7 Mg3_5 3.138900 1_555
Mg2_7 Mg3_3 3.138900 1_555
Mg2_7 Sc0_3 3.209632 1_555
Mg2_7 Sc0_5 3.209632 1_555
Mg2_7 Sc1_3 3.215510 1_555
Mg2_7 Sc1_5 3.215510 1_555
Mg3_0 Mg3_6 3.165206 1_545
Mg3_0 Mg3_6 3.165206 1_455
Mg3_0 Sc1_4 3.210290 1_555
Mg3_0 Sc1_2 3.210290 1_555
Mg3_0 Sc1_0 3.258292 1_555
Mg3_0 Sc0_5 3.262792 1_554
Mg3_0 Sc0_3 3.262792 1_554
Mg3_1 Mg3_7 3.165206 1_455
Mg3_1 Mg3_7 3.165206 1_545
Mg3_1 Sc1_5 3.210290 1_555
Mg3_1 Sc1_3 3.210290 1_555
Mg3_1 Sc1_1 3.258292 1_555
Mg3_1 Sc0_4 3.262792 1_555
Mg3_1 Sc0_2 3.262792 1_555
Mg3_2 Mg3_4 3.165206 1_555
Mg3_2 Mg3_4 3.165206 1_465
Mg3_2 Sc1_0 3.210290 1_565
Mg3_2 Sc1_6 3.210290 1_555
Mg3_2 Sc1_2 3.258292 1_555
Mg3_2 Sc0_7 3.262792 1_554
Mg3_2 Sc0_1 3.262792 1_564
Mg3_3 Mg3_5 3.165206 1_555
Mg3_3 Mg3_5 3.165206 1_465
Mg3_3 Sc1_1 3.210290 1_565
Mg3_3 Sc1_7 3.210290 1_555
Mg3_3 Sc1_3 3.258292 1_555
Mg3_3 Sc0_0 3.262792 1_565
Mg3_3 Sc0_6 3.262792 1_555
Mg3_4 Sc1_0 3.210290 1_655
Mg3_4 Sc1_6 3.210290 1_555
Mg3_4 Sc1_4 3.258292 1_555
Mg3_4 Sc0_7 3.262792 1_554
Mg3_4 Sc0_1 3.262792 1_654
Mg3_5 Sc1_1 3.210290 1_655
Mg3_5 Sc1_7 3.210290 1_555
Mg3_5 Sc1_5 3.258292 1_555
Mg3_5 Sc0_6 3.262792 1_555
Mg3_5 Sc0_0 3.262792 1_655
Mg3_6 Sc1_4 3.210290 1_565
Mg3_6 Sc1_2 3.210290 1_655
Mg3_6 Sc1_6 3.258292 1_555
Mg3_6 Sc0_5 3.262792 1_564
Mg3_6 Sc0_3 3.262792 1_654
Mg3_7 Sc1_5 3.210290 1_565
Mg3_7 Sc1_3 3.210290 1_655
Mg3_7 Sc1_7 3.258292 1_555
Mg3_7 Sc0_2 3.262792 1_655
Mg3_7 Sc0_4 3.262792 1_565
Sc0_0 Sc0_6 3.165206 1_455
Sc0_0 Sc0_6 3.165206 1_545
Sc0_0 Sc1_1 3.185299 1_555
Sc0_1 Sc0_7 3.165206 1_545
Sc0_1 Sc0_7 3.165206 1_455
Sc0_1 Sc1_0 3.185299 1_556
Sc0_2 Sc0_4 3.165206 1_465
Sc0_2 Sc0_4 3.165206 1_555
Sc0_2 Sc1_3 3.185299 1_555
Sc0_3 Sc0_5 3.165206 1_555
Sc0_3 Sc0_5 3.165206 1_465
Sc0_3 Sc1_2 3.185299 1_556
Sc0_4 Sc1_5 3.185299 1_555
Sc0_5 Sc1_4 3.185299 1_556
Sc0_6 Sc1_7 3.185299 1_555
Sc0_7 Sc1_6 3.185299 1_556
Sc1_0 Sc1_6 3.165206 1_545
Sc1_0 Sc1_6 3.165206 1_455
Sc1_1 Sc1_7 3.165206 1_455
Sc1_1 Sc1_7 3.165206 1_545
Sc1_2 Sc1_4 3.165206 1_555
Sc1_2 Sc1_4 3.165206 1_465
Sc1_3 Sc1_5 3.165206 1_555
Sc1_3 Sc1_5 3.165206 1_465
