# generated using pymatgen
data_BaPd
_symmetry_space_group_name_H-M   'P 1'
_cell_length_a   4.48646778
_cell_length_b   4.67999054
_cell_length_c   6.35458567
_cell_angle_alpha   90.00002159
_cell_angle_beta   69.34529690
_cell_angle_gamma   90.00000000
_symmetry_Int_Tables_number   1
_chemical_formula_structural   BaPd
_chemical_formula_sum   'Ba2 Pd2'
_cell_volume   124.84873868
_cell_formula_units_Z   2
loop_
 _symmetry_equiv_pos_site_id
 _symmetry_equiv_pos_as_xyz
  1  'x, y, z'
loop_
 _atom_site_type_symbol
 _atom_site_label
 _atom_site_symmetry_multiplicity
 _atom_site_fract_x
 _atom_site_fract_y
 _atom_site_fract_z
 _atom_site_occupancy
  Ba  Ba0  1  0.13833441  0.75000000  0.72301595  1
  Ba  Ba1  1  0.86166459  0.25000000  0.27698405  1
  Pd  Pd0  1  0.43279286  0.75000000  0.13435478  1
  Pd  Pd1  1  0.56720814  0.25000000  0.86564522  1
loop_
_geom_bond_atom_site_label_1
_geom_bond_atom_site_label_2
_geom_bond_distance
_geom_bond_site_symmetry_2
Ba0 Pd0 3.318697 1_556
Ba0 Pd0 3.318894 1_456
Ba0 Pd1 3.350263 1_465
Ba0 Pd1 3.350264 1_455
Ba0 Pd1 3.351061 1_565
Ba0 Pd1 3.351061 1_555
Ba0 Pd0 3.500258 1_555
Ba1 Pd1 3.318691 1_554
Ba1 Pd1 3.318900 1_654
Ba1 Pd0 3.350269 1_645
Ba1 Pd0 3.350270 1_655
Ba1 Pd0 3.351055 1_545
Ba1 Pd0 3.351055 1_555
Ba1 Pd1 3.500258 1_555
Pd0 Pd1 2.833458 1_554
Pd0 Pd1 2.833459 1_564
