# generated using pymatgen
data_BiTeO4
_symmetry_space_group_name_H-M   'P 1'
_cell_length_a   6.96778931
_cell_length_b   6.96778931
_cell_length_c   10.27445533
_cell_angle_alpha   67.48140290
_cell_angle_beta   67.48140290
_cell_angle_gamma   47.22644740
_symmetry_Int_Tables_number   1
_chemical_formula_structural   BiTeO4
_chemical_formula_sum   'Bi4 Te4 O16'
_cell_volume   332.63996898
_cell_formula_units_Z   4
loop_
 _symmetry_equiv_pos_site_id
 _symmetry_equiv_pos_as_xyz
  1  'x, y, z'
loop_
 _atom_site_type_symbol
 _atom_site_label
 _atom_site_symmetry_multiplicity
 _atom_site_fract_x
 _atom_site_fract_y
 _atom_site_fract_z
 _atom_site_occupancy
  Bi  Bi0  1  0.02577597  0.97422403  0.50000000  1
  Bi  Bi1  1  0.95084044  0.04915956  0.00000000  1
  Bi  Bi2  1  0.68748987  0.76576266  0.90104727  1
  Bi  Bi3  1  0.23423734  0.31251013  0.09895273  1
  Te  Te0  1  0.50250782  0.49689034  0.75032357  1
  Te  Te1  1  0.50310966  0.49749218  0.24967643  1
  Te  Te2  1  0.34949848  0.18645224  0.63362704  1
  Te  Te3  1  0.81354776  0.65050152  0.36637296  1
  O  O0  1  0.78758841  0.35128541  0.59338327  1
  O  O1  1  0.64871459  0.21241159  0.40661673  1
  O  O2  1  0.20122848  0.64084156  0.90560006  1
  O  O3  1  0.35915844  0.79877152  0.09439994  1
  O  O4  1  0.71817778  0.48097510  0.83419518  1
  O  O5  1  0.51902490  0.28182222  0.16580482  1
  O  O6  1  0.29339726  0.48742564  0.66810285  1
  O  O7  1  0.51257436  0.70660274  0.33189715  1
  O  O8  1  0.91145593  0.71681181  0.15919517  1
  O  O9  1  0.28318819  0.08854407  0.84080483  1
  O  O10  1  0.07809011  0.28895315  0.34595936  1
  O  O11  1  0.71104685  0.92190989  0.65404064  1
  O  O12  1  0.15186941  0.64931212  0.35960029  1
  O  O13  1  0.35068788  0.84813059  0.64039971  1
  O  O14  1  0.84705842  0.36046836  0.12587472  1
  O  O15  1  0.63953164  0.15294158  0.87412528  1
loop_
_geom_bond_atom_site_label_1
_geom_bond_atom_site_label_2
_geom_bond_distance
_geom_bond_site_symmetry_2
Bi0 O1 2.316568 1_465
Bi0 O0 2.316568 1_465
Bi0 O11 2.330702 1_455
Bi0 O10 2.330702 1_565
Bi0 O12 2.609076 1_555
Bi0 O13 2.609076 1_555
Bi0 O6 2.711889 1_555
Bi0 O7 2.711889 1_555
Bi1 O9 2.394013 1_654
Bi1 O8 2.394013 1_545
Bi1 O5 2.479408 1_555
Bi1 O4 2.479408 1_554
Bi1 O2 2.480892 1_644
Bi1 O3 2.480892 1_645
Bi1 O14 2.490517 1_555
Bi1 O15 2.490517 1_554
Bi2 O4 2.193244 1_555
Bi2 O9 2.245297 1_565
Bi2 O3 2.321071 1_556
Bi2 O11 2.336646 1_555
Bi2 O15 2.396037 1_565
Bi2 O14 2.693177 1_556
Bi3 O5 2.193244 1_555
Bi3 O8 2.245297 1_455
Bi3 O2 2.321071 1_554
Bi3 O10 2.336646 1_555
Bi3 O14 2.396037 1_455
Bi3 O15 2.693177 1_554
O0 Te0 1.907254 1_555
O0 Te3 2.506764 1_555
O1 Te1 1.907254 1_555
O1 Te2 2.506764 1_555
O2 Te0 1.938741 1_555
O3 Te1 1.938741 1_555
O4 Te0 1.924964 1_555
O5 Te1 1.924964 1_555
O6 Te0 1.989205 1_555
O6 Te2 2.006416 1_555
O7 Te1 1.989205 1_555
O7 Te3 2.006416 1_555
O8 Te3 1.942279 1_555
O9 Te2 1.942279 1_555
O10 Te3 1.894640 1_455
O11 Te2 1.894640 1_565
O12 Te1 1.914638 1_555
O12 Te3 2.326003 1_455
O13 Te0 1.914638 1_555
O13 Te2 2.326003 1_565
O14 Te1 1.939209 1_555
O15 Te0 1.939209 1_555
