# generated using pymatgen
data_Co(PtO2)3
_symmetry_space_group_name_H-M   'P 1'
_cell_length_a   6.38989253
_cell_length_b   10.43247552
_cell_length_c   7.05692930
_cell_angle_alpha   90.00228327
_cell_angle_beta   90.00008345
_cell_angle_gamma   72.15669974
_symmetry_Int_Tables_number   1
_chemical_formula_structural   Co(PtO2)3
_chemical_formula_sum   'Co4 Pt12 O24'
_cell_volume   447.80315949
_cell_formula_units_Z   4
loop_
 _symmetry_equiv_pos_site_id
 _symmetry_equiv_pos_as_xyz
  1  'x, y, z'
loop_
 _atom_site_type_symbol
 _atom_site_label
 _atom_site_symmetry_multiplicity
 _atom_site_fract_x
 _atom_site_fract_y
 _atom_site_fract_z
 _atom_site_occupancy
  Co  Co0  1  0.50000433  -0.00000264  0.49999969  1
  Co  Co1  1  0.25000286  0.50000225  -0.00000057  1
  Co  Co2  1  0.75000126  0.50000393  -0.00000062  1
  Co  Co3  1  0.00000453  -0.00000242  0.49999937  1
  Pt  Pt0  1  0.74999704  0.50000899  0.49999961  1
  Pt  Pt1  1  0.49999965  0.00000038  -0.00000041  1
  Pt  Pt2  1  0.24999668  0.50000920  0.49999956  1
  Pt  Pt3  1  -0.00000047  0.00000037  -0.00000045  1
  Pt  Pt4  1  0.37499782  0.75004963  0.75001239  1
  Pt  Pt5  1  0.12500702  0.24994576  0.24999265  1
  Pt  Pt6  1  0.87499094  0.75005467  0.75000707  1
  Pt  Pt7  1  0.62500382  0.24994526  0.24999330  1
  Pt  Pt8  1  0.62500431  0.24994565  0.75000571  1
  Pt  Pt9  1  0.37499356  0.75005615  0.24999383  1
  Pt  Pt10  1  0.12500761  0.24994613  0.75000624  1
  Pt  Pt11  1  0.87499080  0.75005556  0.24999228  1
  O  O0  1  0.42687343  0.64627748  -0.00000905  1
  O  O1  1  0.17685438  0.14631052  0.49998915  1
  O  O2  1  0.92687479  0.64627633  -0.00000916  1
  O  O3  1  0.67685479  0.14630976  0.49998940  1
  O  O4  1  0.57314544  0.35368407  0.00000868  1
  O  O5  1  0.32312619  0.85372841  0.50000936  1
  O  O6  1  0.07314369  0.35368514  0.00000860  1
  O  O7  1  0.82312939  0.85372727  0.50000881  1
  O  O8  1  0.68655796  0.62703814  0.71465037  1
  O  O9  1  0.43650693  0.12700013  0.21467258  1
  O  O10  1  0.18655920  0.62703653  0.71464965  1
  O  O11  1  0.93650768  0.12699890  0.21467199  1
  O  O12  1  0.81343731  0.37296426  0.28534000  1
  O  O13  1  0.56349507  0.87299386  0.78533897  1
  O  O14  1  0.31343866  0.37296264  0.28533956  1
  O  O15  1  0.06349460  0.87299428  0.78534066  1
  O  O16  1  0.81343803  0.37296313  0.71464821  1
  O  O17  1  0.56349614  0.87299239  0.21464917  1
  O  O18  1  0.31343962  0.37296145  0.71464898  1
  O  O19  1  0.06349513  0.87299345  0.21464808  1
  O  O20  1  0.68655728  0.62703996  0.28536167  1
  O  O21  1  0.43650627  0.12700208  0.78534027  1
  O  O22  1  0.18655868  0.62703839  0.28536214  1
  O  O23  1  0.93650659  0.12700157  0.78534128  1
loop_
_geom_bond_atom_site_label_1
_geom_bond_atom_site_label_2
_geom_bond_distance
_geom_bond_site_symmetry_2
Co0 O7 2.158897 1_545
Co0 O1 2.159201 1_555
Co0 O5 2.159368 1_545
Co0 O3 2.159631 1_555
Co0 O9 2.375964 1_555
Co0 O21 2.375966 1_555
Co0 O17 2.376027 1_545
Co0 O13 2.376040 1_545
Co1 O2 2.158929 1_455
Co1 O4 2.159188 1_555
Co1 O0 2.159389 1_555
Co1 O6 2.159714 1_555
Co1 O18 2.376215 1_554
Co1 O14 2.376236 1_555
Co1 O22 2.376264 1_555
Co1 O10 2.376266 1_554
Co2 O0 2.158925 1_555
Co2 O6 2.159190 1_655
Co2 O2 2.159378 1_555
Co2 O4 2.159723 1_555
Co2 O16 2.376220 1_554
Co2 O12 2.376239 1_555
Co2 O8 2.376261 1_554
Co2 O20 2.376261 1_555
Co3 O5 2.158877 1_545
Co3 O3 2.159196 1_455
Co3 O7 2.159366 1_445
Co3 O1 2.159633 1_555
Co3 O11 2.375958 1_455
Co3 O23 2.375970 1_455
Co3 O19 2.376027 1_545
Co3 O15 2.376051 1_545
O0 Pt4 2.043065 1_554
O0 Pt9 2.043172 1_555
O1 Pt5 2.042489 1_555
O1 Pt10 2.042543 1_555
O2 Pt6 2.043128 1_554
O2 Pt11 2.043166 1_555
O3 Pt7 2.042488 1_555
O3 Pt8 2.042539 1_555
O4 Pt7 2.042935 1_555
O4 Pt8 2.042971 1_554
O5 Pt9 2.042717 1_555
O5 Pt4 2.042747 1_555
O6 Pt5 2.042934 1_555
O6 Pt10 2.042970 1_554
O7 Pt6 2.042687 1_555
O7 Pt11 2.042720 1_555
O8 Pt0 1.971224 1_555
O8 Pt6 2.026331 1_555
O8 Pt4 2.026542 1_555
O9 Pt1 1.971158 1_555
O9 Pt5 2.025974 1_555
O9 Pt7 2.026014 1_555
O10 Pt2 1.971209 1_555
O10 Pt4 2.026335 1_555
O10 Pt6 2.026602 1_455
O11 Pt3 1.971147 1_655
O11 Pt7 2.025998 1_555
O11 Pt5 2.026041 1_655
O12 Pt0 1.971371 1_555
O12 Pt7 2.026346 1_555
O12 Pt5 2.026602 1_655
O13 Pt1 1.971134 1_566
O13 Pt6 2.025942 1_555
O13 Pt4 2.026013 1_555
O14 Pt2 1.971385 1_555
O14 Pt5 2.026318 1_555
O14 Pt7 2.026574 1_555
O15 Pt3 1.971122 1_566
O15 Pt4 2.025995 1_555
O15 Pt6 2.026012 1_455
O16 Pt0 1.971399 1_555
O16 Pt8 2.026356 1_555
O16 Pt10 2.026617 1_655
O17 Pt1 1.971163 1_565
O17 Pt11 2.025949 1_555
O17 Pt9 2.026001 1_555
O18 Pt2 1.971415 1_555
O18 Pt10 2.026329 1_555
O18 Pt8 2.026588 1_555
O19 Pt3 1.971151 1_565
O19 Pt9 2.025972 1_555
O19 Pt11 2.026023 1_455
O20 Pt0 1.971246 1_555
O20 Pt11 2.026350 1_555
O20 Pt9 2.026594 1_555
O21 Pt1 1.971176 1_556
O21 Pt10 2.025987 1_555
O21 Pt8 2.026032 1_555
O22 Pt2 1.971232 1_555
O22 Pt9 2.026374 1_555
O22 Pt11 2.026620 1_455
O23 Pt3 1.971167 1_656
O23 Pt8 2.026006 1_555
O23 Pt10 2.026055 1_655
