# generated using pymatgen
data_Na2CeO3
_symmetry_space_group_name_H-M   'P 1'
_cell_length_a   7.64928008
_cell_length_b   7.64928008
_cell_length_c   18.38083542
_cell_angle_alpha   83.18441494
_cell_angle_beta   83.18441494
_cell_angle_gamma   85.44007675
_symmetry_Int_Tables_number   1
_chemical_formula_structural   Na2CeO3
_chemical_formula_sum   'Na24 Ce12 O36'
_cell_volume   1058.00654480
_cell_formula_units_Z   12
loop_
 _symmetry_equiv_pos_site_id
 _symmetry_equiv_pos_as_xyz
  1  'x, y, z'
loop_
 _atom_site_type_symbol
 _atom_site_label
 _atom_site_symmetry_multiplicity
 _atom_site_fract_x
 _atom_site_fract_y
 _atom_site_fract_z
 _atom_site_occupancy
  Na  Na0  1  0.66929900  0.82560500  0.33434700  1
  Na  Na1  1  0.67145200  0.81763900  0.99562800  1
  Na  Na2  1  0.08582200  0.91417800  0.25000000  1
  Na  Na3  1  0.66092200  0.83686300  0.66544000  1
  Na  Na4  1  0.83686300  0.66092200  0.16544000  1
  Na  Na5  1  0.49045800  0.00560600  0.16827900  1
  Na  Na6  1  0.82560500  0.66929900  0.83434700  1
  Na  Na7  1  0.58339800  0.41795500  0.41807000  1
  Na  Na8  1  0.50954200  0.99439400  0.83172100  1
  Na  Na9  1  0.81763900  0.67145200  0.49562800  1
  Na  Na10  1  0.58204500  0.41660200  0.08193000  1
  Na  Na11  1  0.50000000  0.00000000  0.50000000  1
  Na  Na12  1  0.99439400  0.50954200  0.33172100  1
  Na  Na13  1  0.00000000  0.50000000  0.00000000  1
  Na  Na14  1  0.00560600  0.49045800  0.66827900  1
  Na  Na15  1  0.41795500  0.58339800  0.91807000  1
  Na  Na16  1  0.18236100  0.32854800  0.50437200  1
  Na  Na17  1  0.41660200  0.58204500  0.58193000  1
  Na  Na18  1  0.17439500  0.33070100  0.16565300  1
  Na  Na19  1  0.16313700  0.33907800  0.83456000  1
  Na  Na20  1  0.33907800  0.16313700  0.33456000  1
  Na  Na21  1  0.91417800  0.08582200  0.75000000  1
  Na  Na22  1  0.32854800  0.18236100  0.00437200  1
  Na  Na23  1  0.33070100  0.17439500  0.66565300  1
  Ce  Ce0  1  0.08546000  0.91693600  0.91387000  1
  Ce  Ce1  1  0.08306400  0.91454000  0.58613000  1
  Ce  Ce2  1  0.26207200  0.73913200  0.41934000  1
  Ce  Ce3  1  0.26086800  0.73792800  0.08066000  1
  Ce  Ce4  1  0.24958800  0.75041200  0.75000000  1
  Ce  Ce5  1  0.58539300  0.41460700  0.75000000  1
  Ce  Ce6  1  0.41460700  0.58539300  0.25000000  1
  Ce  Ce7  1  0.75041200  0.24958800  0.25000000  1
  Ce  Ce8  1  0.73913200  0.26207200  0.91934000  1
  Ce  Ce9  1  0.73792800  0.26086800  0.58066000  1
  Ce  Ce10  1  0.91693600  0.08546000  0.41387000  1
  Ce  Ce11  1  0.91454000  0.08306400  0.08613000  1
  O  O0  1  0.51626100  0.71736500  0.45538600  1
  O  O1  1  0.51395500  0.70401200  0.13338600  1
  O  O2  1  0.18917000  0.02068800  0.46170200  1
  O  O3  1  0.52761400  0.69644700  0.78074600  1
  O  O4  1  0.18902400  0.02443300  0.11656700  1
  O  O5  1  0.97556700  0.81097600  0.38343300  1
  O  O6  1  0.20515900  0.01032100  0.80046400  1
  O  O7  1  0.97931200  0.81083000  0.03829800  1
  O  O8  1  0.37025600  0.84152000  0.30040900  1
  O  O9  1  0.69644700  0.52761400  0.28074600  1
  O  O10  1  0.98967900  0.79484100  0.69953600  1
  O  O11  1  0.34143000  0.87054000  0.96303400  1
  O  O12  1  0.71736500  0.51626100  0.95538600  1
  O  O13  1  0.33959800  0.87409700  0.63413200  1
  O  O14  1  0.15848000  0.62974400  0.19959100  1
  O  O15  1  0.87054000  0.34143000  0.46303400  1
  O  O16  1  0.70401200  0.51395500  0.63338600  1
  O  O17  1  0.12590300  0.66040200  0.86586800  1
  O  O18  1  0.87409700  0.33959800  0.13413200  1
  O  O19  1  0.29598800  0.48604500  0.36661400  1
  O  O20  1  0.12946000  0.65857000  0.53696600  1
  O  O21  1  0.84152000  0.37025600  0.80040900  1
  O  O22  1  0.66040200  0.12590300  0.36586800  1
  O  O23  1  0.28263500  0.48373900  0.04461400  1
  O  O24  1  0.65857000  0.12946000  0.03696600  1
  O  O25  1  0.01032100  0.20515900  0.30046400  1
  O  O26  1  0.30355300  0.47238600  0.71925400  1
  O  O27  1  0.62974400  0.15848000  0.69959100  1
  O  O28  1  0.02068800  0.18917000  0.96170200  1
  O  O29  1  0.79484100  0.98967900  0.19953600  1
  O  O30  1  0.02443300  0.18902400  0.61656700  1
  O  O31  1  0.81097600  0.97556700  0.88343300  1
  O  O32  1  0.47238600  0.30355300  0.21925400  1
  O  O33  1  0.81083000  0.97931200  0.53829800  1
  O  O34  1  0.48604500  0.29598800  0.86661400  1
  O  O35  1  0.48373900  0.28263500  0.54461400  1
loop_
_geom_bond_atom_site_label_1
_geom_bond_atom_site_label_2
_geom_bond_distance
_geom_bond_site_symmetry_2
Na0 O22 2.428679 1_565
Na0 O8 2.431630 1_555
Na0 O0 2.470702 1_555
Na0 O9 2.572692 1_555
Na0 O5 2.598265 1_555
Na0 O29 2.743396 1_555
Na1 O31 2.437731 1_555
Na1 O12 2.489845 1_555
Na1 O7 2.563713 1_556
Na1 O24 2.579006 1_566
Na1 O11 2.652248 1_555
Na1 O1 2.745634 1_556
Na2 O14 2.462747 1_555
Na2 O8 2.462747 1_555
Na2 O25 2.511290 1_565
Na2 O29 2.511290 1_455
Na2 O5 2.550516 1_455
Na2 O4 2.550516 1_565
Na3 O3 2.409624 1_555
Na3 O13 2.576634 1_555
Na3 O16 2.593570 1_555
Na3 O27 2.596326 1_565
Na3 O33 2.630947 1_555
Na3 O10 2.649114 1_555
Na4 O9 2.409624 1_555
Na4 O18 2.576634 1_555
Na4 O1 2.593570 1_555
Na4 O14 2.596326 1_655
Na4 O7 2.630947 1_555
Na4 O29 2.649114 1_555
Na5 O29 2.453923 1_545
Na5 O1 2.454320 1_545
Na5 O32 2.552884 1_555
Na5 O4 2.583718 1_555
Na5 O8 2.692424 1_545
Na5 O24 2.700214 1_555
Na6 O17 2.428679 1_655
Na6 O21 2.431630 1_555
Na6 O12 2.470702 1_555
Na6 O3 2.572692 1_555
Na6 O31 2.598265 1_555
Na6 O10 2.743396 1_555
Na7 O15 2.441641 1_555
Na7 O0 2.466123 1_555
Na7 O19 2.488708 1_555
Na7 O35 2.489164 1_555
Na7 O22 2.534505 1_555
Na7 O9 2.630087 1_555
Na8 O6 2.453923 1_565
Na8 O34 2.454320 1_565
Na8 O3 2.552884 1_555
Na8 O31 2.583718 1_555
Na8 O27 2.692424 1_565
Na8 O11 2.700214 1_555
Na9 O5 2.437731 1_555
Na9 O0 2.489845 1_555
Na9 O33 2.563713 1_555
Na9 O20 2.579006 1_655
Na9 O15 2.652248 1_555
Na9 O16 2.745634 1_555
Na10 O24 2.441641 1_555
Na10 O23 2.466123 1_555
Na10 O1 2.488708 1_555
Na10 O12 2.489164 1_554
Na10 O18 2.534505 1_555
Na10 O32 2.630087 1_555
Na11 O35 2.390777 1_555
Na11 O0 2.390777 1_545
Na11 O33 2.546504 1_545
Na11 O2 2.546504 1_555
Na11 O13 2.723556 1_545
Na11 O22 2.723556 1_555
Na12 O25 2.453923 1_655
Na12 O19 2.454320 1_655
Na12 O9 2.552884 1_555
Na12 O5 2.583718 1_555
Na12 O14 2.692424 1_655
Na12 O15 2.700214 1_555
Na13 O23 2.390777 1_555
Na13 O12 2.390777 1_454
Na13 O7 2.546504 1_455
Na13 O28 2.546504 1_554
Na13 O17 2.723556 1_554
Na13 O18 2.723556 1_455
Na14 O10 2.453923 1_455
Na14 O16 2.454320 1_455
Na14 O26 2.552884 1_555
Na14 O30 2.583718 1_555
Na14 O21 2.692424 1_455
Na14 O20 2.700214 1_555
Na15 O11 2.441641 1_555
Na15 O12 2.466123 1_555
Na15 O34 2.488708 1_555
Na15 O23 2.489164 1_556
Na15 O17 2.534505 1_555
Na15 O3 2.630087 1_555
Na16 O30 2.437731 1_555
Na16 O35 2.489845 1_555
Na16 O2 2.563713 1_555
Na16 O15 2.579006 1_455
Na16 O20 2.652248 1_555
Na16 O19 2.745634 1_555
Na17 O20 2.441641 1_555
Na17 O35 2.466123 1_555
Na17 O16 2.488708 1_555
Na17 O0 2.489164 1_555
Na17 O13 2.534505 1_555
Na17 O26 2.630087 1_555
Na18 O18 2.428679 1_455
Na18 O14 2.431630 1_555
Na18 O23 2.470702 1_555
Na18 O32 2.572692 1_555
Na18 O4 2.598265 1_555
Na18 O25 2.743396 1_555
Na19 O26 2.409624 1_555
Na19 O17 2.576634 1_555
Na19 O34 2.593570 1_555
Na19 O21 2.596326 1_455
Na19 O28 2.630947 1_555
Na19 O6 2.649114 1_555
Na20 O32 2.409624 1_555
Na20 O22 2.576634 1_555
Na20 O19 2.593570 1_555
Na20 O8 2.596326 1_545
Na20 O2 2.630947 1_555
Na20 O25 2.649114 1_555
Na21 O21 2.462747 1_555
Na21 O27 2.462747 1_555
Na21 O6 2.511290 1_655
Na21 O10 2.511290 1_545
Na21 O31 2.550516 1_545
Na21 O30 2.550516 1_655
Na22 O4 2.437731 1_555
Na22 O23 2.489845 1_555
Na22 O28 2.563713 1_554
Na22 O11 2.579006 1_544
Na22 O24 2.652248 1_555
Na22 O34 2.745634 1_554
Na23 O13 2.428679 1_545
Na23 O27 2.431630 1_555
Na23 O35 2.470702 1_555
Na23 O26 2.572692 1_555
Na23 O30 2.598265 1_555
Na23 O6 2.743396 1_555
Ce0 O17 2.230345 1_555
Ce0 O6 2.234126 1_565
Ce0 O31 2.234277 1_455
Ce0 O11 2.238223 1_555
Ce0 O28 2.349878 1_565
Ce0 O7 2.402550 1_456
Ce1 O13 2.230345 1_555
Ce1 O10 2.234126 1_455
Ce1 O30 2.234277 1_565
Ce1 O20 2.238223 1_555
Ce1 O33 2.349878 1_455
Ce1 O2 2.402550 1_565
Ce2 O0 2.115503 1_555
Ce2 O19 2.249482 1_555
Ce2 O8 2.311783 1_555
Ce2 O20 2.312114 1_555
Ce2 O5 2.367753 1_455
Ce2 O2 2.379012 1_565
Ce3 O23 2.115503 1_555
Ce3 O1 2.249482 1_555
Ce3 O14 2.311783 1_555
Ce3 O11 2.312114 1_554
Ce3 O4 2.367753 1_565
Ce3 O7 2.379012 1_455
Ce4 O26 2.258967 1_555
Ce4 O3 2.258967 1_555
Ce4 O17 2.276463 1_555
Ce4 O13 2.276463 1_555
Ce4 O6 2.276826 1_565
Ce4 O10 2.276826 1_455
Ce5 O21 2.250019 1_555
Ce5 O27 2.250019 1_555
Ce5 O3 2.289300 1_555
Ce5 O26 2.289300 1_555
Ce5 O34 2.292735 1_555
Ce5 O16 2.292735 1_555
Ce6 O14 2.250019 1_555
Ce6 O8 2.250019 1_555
Ce6 O9 2.289300 1_555
Ce6 O32 2.289300 1_555
Ce6 O19 2.292735 1_555
Ce6 O1 2.292735 1_555
Ce7 O32 2.258967 1_555
Ce7 O9 2.258967 1_555
Ce7 O22 2.276463 1_555
Ce7 O18 2.276463 1_555
Ce7 O29 2.276826 1_545
Ce7 O25 2.276826 1_655
Ce8 O12 2.115503 1_555
Ce8 O34 2.249482 1_555
Ce8 O21 2.311783 1_555
Ce8 O24 2.312114 1_556
Ce8 O31 2.367753 1_545
Ce8 O28 2.379012 1_655
Ce9 O35 2.115503 1_555
Ce9 O16 2.249482 1_555
Ce9 O27 2.311783 1_555
Ce9 O15 2.312114 1_555
Ce9 O30 2.367753 1_655
Ce9 O33 2.379012 1_545
Ce10 O22 2.230345 1_555
Ce10 O25 2.234126 1_655
Ce10 O5 2.234277 1_545
Ce10 O15 2.238223 1_555
Ce10 O2 2.349878 1_655
Ce10 O33 2.402550 1_545
Ce11 O18 2.230345 1_555
Ce11 O29 2.234126 1_545
Ce11 O4 2.234277 1_655
Ce11 O24 2.238223 1_555
Ce11 O7 2.349878 1_545
Ce11 O28 2.402550 1_654
