# generated using pymatgen
data_K2NaCa2TiSi7O20
_symmetry_space_group_name_H-M   'P 1'
_cell_length_a   7.16255004
_cell_length_b   10.49861867
_cell_length_c   12.34099038
_cell_angle_alpha   93.09877036
_cell_angle_beta   90.94421370
_cell_angle_gamma   99.17336996
_symmetry_Int_Tables_number   1
_chemical_formula_structural   K2NaCa2TiSi7O20
_chemical_formula_sum   'K4 Na2 Ca4 Ti2 Si14 O40'
_cell_volume   914.49919032
_cell_formula_units_Z   2
loop_
 _symmetry_equiv_pos_site_id
 _symmetry_equiv_pos_as_xyz
  1  'x, y, z'
loop_
 _atom_site_type_symbol
 _atom_site_label
 _atom_site_symmetry_multiplicity
 _atom_site_fract_x
 _atom_site_fract_y
 _atom_site_fract_z
 _atom_site_occupancy
  K  K0  1  0.92946400  0.65136700  0.99409900  1
  K  K1  1  0.38051200  0.53843700  0.75589700  1
  K  K2  1  0.36525400  0.32424100  0.19712300  1
  K  K3  1  0.84116700  0.42272000  0.44586800  1
  Na  Na0  1  0.50111500  0.99738600  0.98949200  1
  Na  Na1  1  0.72681800  0.96537200  0.21320300  1
  Ca  Ca0  1  0.02553900  0.10253600  0.69238400  1
  Ca  Ca1  1  0.52201000  0.10547300  0.68100100  1
  Ca  Ca2  1  0.20363700  0.85988000  0.51026100  1
  Ca  Ca3  1  0.70633600  0.85598200  0.52159800  1
  Ti  Ti0  1  0.01808200  0.99381500  0.00055500  1
  Ti  Ti1  1  0.21080900  0.97135200  0.20471700  1
  Si  Si0  1  0.54272100  0.29150700  0.91161400  1
  Si  Si1  1  0.11638600  0.29786300  0.92109900  1
  Si  Si2  1  0.98413200  0.11174100  0.40998100  1
  Si  Si3  1  0.53755500  0.10840300  0.40257700  1
  Si  Si4  1  0.24214900  0.85176500  0.79403000  1
  Si  Si5  1  0.69007700  0.85593000  0.79970200  1
  Si  Si6  1  0.11345900  0.66718800  0.28411500  1
  Si  Si7  1  0.68342700  0.67116100  0.28906400  1
  Si  Si8  1  0.31012100  0.29675700  0.51594700  1
  Si  Si9  1  0.83531800  0.26170800  0.09260000  1
  Si  Si10  1  0.39757300  0.70354800  0.11160200  1
  Si  Si11  1  0.38232200  0.58394100  0.45095100  1
  Si  Si12  1  0.91691700  0.66629400  0.68648500  1
  Si  Si13  1  0.84434300  0.37837800  0.75109600  1
  O  O0  1  0.82973100  0.30969400  0.22056100  1
  O  O1  1  0.10827500  0.25590700  0.44601400  1
  O  O2  1  0.47904000  0.25257700  0.43839200  1
  O  O3  1  0.35290000  0.45626400  0.52486700  1
  O  O4  1  0.05872500  0.06162900  0.29422100  1
  O  O5  1  0.70308700  0.81420300  0.34053100  1
  O  O6  1  0.38527600  0.66044900  0.98199000  1
  O  O7  1  0.82476100  0.10605600  0.07697600  1
  O  O8  1  0.03079800  0.33746800  0.03962900  1
  O  O9  1  0.65136900  0.30929600  0.03276000  1
  O  O10  1  0.58316800  0.65313500  0.16549100  1
  O  O11  1  0.20577900  0.62701400  0.16795700  1
  O  O12  1  0.88472000  0.61586000  0.27244400  1
  O  O13  1  0.55486600  0.56404400  0.36545200  1
  O  O14  1  0.18486900  0.57576400  0.37685900  1
  O  O15  1  0.76817900  0.14039000  0.38770300  1
  O  O16  1  0.03764300  0.38881100  0.82992500  1
  O  O17  1  0.05613500  0.14633600  0.88779400  1
  O  O18  1  0.34507100  0.35125700  0.93128900  1
  O  O19  1  0.16914200  0.90098500  0.91058000  1
  O  O20  1  0.78775400  0.90513100  0.91741000  1
  O  O21  1  0.74556800  0.71142500  0.76137000  1
  O  O22  1  0.23360100  0.94805400  0.69657100  1
  O  O23  1  0.73776200  0.95375500  0.70298400  1
  O  O24  1  0.80875100  0.24861700  0.67482100  1
  O  O25  1  0.30282800  0.23911100  0.63355700  1
  O  O26  1  0.92780200  0.72367600  0.56894600  1
  O  O27  1  0.42131800  0.71375500  0.52747500  1
  O  O28  1  0.48919800  0.01094400  0.49924600  1
  O  O29  1  0.11612900  0.70691200  0.75977100  1
  O  O30  1  0.45954200  0.82568200  0.81482100  1
  O  O31  1  0.87545800  0.50667100  0.67768600  1
  O  O32  1  0.44305100  0.05926400  0.28406900  1
  O  O33  1  0.98983600  0.01342600  0.50613300  1
  O  O34  1  0.51428800  0.14742600  0.86196300  1
  O  O35  1  0.99590200  0.88362200  0.11428100  1
  O  O36  1  0.23378300  0.08010500  0.08987500  1
  O  O37  1  0.66711200  0.39656800  0.83286100  1
  O  O38  1  0.17584800  0.81877500  0.31688300  1
  O  O39  1  0.40769200  0.85919500  0.12778400  1
loop_
_geom_bond_atom_site_label_1
_geom_bond_atom_site_label_2
_geom_bond_distance
_geom_bond_site_symmetry_2
K0 O35 2.754558 1_556
K0 O11 2.943891 1_656
K0 O19 3.129395 1_655
K0 O20 3.182279 1_555
K0 O29 3.248309 1_655
K0 O6 3.257077 1_655
K0 O21 3.273743 1_555
K0 O10 3.287816 1_556
K1 O29 2.788996 1_555
K1 O16 2.886582 1_555
K1 O37 2.897934 1_555
K1 O3 2.928046 1_555
K1 O21 2.933692 1_555
K1 O18 2.988346 1_555
K1 O6 3.003965 1_555
K1 O30 3.024661 1_555
K2 O36 2.833822 1_555
K2 O9 2.922983 1_555
K2 O8 3.085041 1_555
K2 O32 3.161965 1_555
K2 O2 3.233189 1_555
K2 O13 3.278648 1_555
K2 O18 3.310904 1_554
K2 O0 3.363021 1_555
K3 O1 2.792104 1_655
K3 O14 2.884990 1_655
K3 O2 2.902388 1_555
K3 O13 2.907514 1_555
K3 O31 2.942259 1_555
K3 O0 2.958175 1_555
K3 O15 2.972849 1_555
K3 O12 3.013132 1_555
Na0 O34 2.278747 1_565
Na0 O39 2.336901 1_556
Na0 O36 2.539154 1_566
Na0 O20 2.558428 1_555
Na0 O19 2.583858 1_555
Na0 O7 2.604239 1_566
Na0 O30 2.715231 1_555
Na1 O5 2.282374 1_555
Na1 O7 2.340286 1_565
Na1 O35 2.536382 1_555
Na1 O32 2.543963 1_565
Na1 O39 2.561181 1_555
Na1 O4 2.592086 1_665
Na1 O15 2.734805 1_565
Ca0 O24 2.365215 1_455
Ca0 O22 2.372989 1_545
Ca0 O23 2.389556 1_445
Ca0 O25 2.404085 1_555
Ca0 O33 2.428103 1_455
Ca0 O17 2.430149 1_555
Ca1 O34 2.256093 1_555
Ca1 O24 2.348573 1_555
Ca1 O25 2.353012 1_555
Ca1 O28 2.395609 1_555
Ca1 O23 2.411739 1_545
Ca1 O22 2.448357 1_545
Ca2 O27 2.369925 1_555
Ca2 O28 2.390687 1_565
Ca2 O26 2.393939 1_455
Ca2 O33 2.395762 1_465
Ca2 O38 2.401402 1_555
Ca2 O22 2.424834 1_555
Ca3 O5 2.252819 1_555
Ca3 O27 2.333896 1_555
Ca3 O26 2.355163 1_555
Ca3 O23 2.403422 1_555
Ca3 O33 2.422522 1_565
Ca3 O28 2.445981 1_565
O0 Si9 1.634523 1_555
O1 Si8 1.655319 1_555
O1 Si2 1.662617 1_455
O2 Si8 1.662565 1_555
O2 Si3 1.672762 1_555
O3 Si11 1.649768 1_555
O3 Si8 1.650956 1_555
O4 Si2 1.623773 1_455
O4 Ti1 1.886959 1_545
O5 Si7 1.582714 1_555
O6 Si10 1.635673 1_556
O7 Si9 1.624603 1_555
O7 Ti0 2.153712 1_645
O8 Si1 1.653323 1_554
O8 Si9 1.658809 1_455
O9 Si9 1.657888 1_555
O9 Si0 1.661568 1_554
O10 Si10 1.650086 1_555
O10 Si7 1.663291 1_555
O11 Si6 1.650719 1_555
O11 Si10 1.660244 1_555
O12 Si6 1.642458 1_655
O12 Si7 1.649733 1_555
O13 Si11 1.669059 1_555
O13 Si7 1.677599 1_555
O14 Si6 1.657976 1_555
O14 Si11 1.659450 1_555
O15 Si2 1.643723 1_555
O15 Si3 1.647690 1_555
O16 Si1 1.662156 1_555
O16 Si13 1.664640 1_455
O17 Si1 1.609491 1_555
O17 Ti0 2.165428 1_546
O18 Si1 1.644936 1_555
O18 Si0 1.653664 1_555
O19 Si4 1.624771 1_555
O19 Ti0 1.900591 1_556
O20 Si5 1.623755 1_555
O20 Ti0 1.998134 1_656
O21 Si12 1.661405 1_555
O21 Si5 1.674580 1_555
O22 Si4 1.618955 1_555
O23 Si5 1.621800 1_555
O24 Si13 1.596766 1_555
O25 Si8 1.600943 1_555
O26 Si12 1.598849 1_555
O27 Si11 1.599395 1_555
O28 Si3 1.619473 1_555
O29 Si12 1.660583 1_455
O29 Si4 1.669258 1_555
O30 Si4 1.641866 1_555
O30 Si5 1.646679 1_555
O31 Si13 1.651492 1_555
O31 Si12 1.651951 1_555
O32 Si3 1.624102 1_555
O32 Ti1 1.984179 1_545
O33 Si2 1.618443 1_555
O34 Si0 1.581929 1_555
O35 Ti0 1.859483 1_655
O35 Ti1 1.960491 1_655
O36 Ti1 1.860659 1_545
O36 Ti0 1.952520 1_545
O37 Si13 1.662767 1_555
O37 Si0 1.669154 1_555
O38 Si6 1.610484 1_555
O38 Ti1 2.160555 1_555
O39 Si10 1.625370 1_555
O39 Ti1 2.174678 1_555
