# generated using pymatgen
data_LuCuSn
_symmetry_space_group_name_H-M   'P 1'
_cell_length_a   4.49307021
_cell_length_b   4.49307021
_cell_length_c   7.15563800
_cell_angle_alpha   90.00000000
_cell_angle_beta   90.00000000
_cell_angle_gamma   120.00000305
_symmetry_Int_Tables_number   1
_chemical_formula_structural   LuCuSn
_chemical_formula_sum   'Lu2 Cu2 Sn2'
_cell_volume   125.10232747
_cell_formula_units_Z   2
loop_
 _symmetry_equiv_pos_site_id
 _symmetry_equiv_pos_as_xyz
  1  'x, y, z'
loop_
 _atom_site_type_symbol
 _atom_site_label
 _atom_site_symmetry_multiplicity
 _atom_site_fract_x
 _atom_site_fract_y
 _atom_site_fract_z
 _atom_site_occupancy
  Lu  Lu0  1  0.00000000  0.00000000  0.50000000  1
  Lu  Lu1  1  0.00000000  0.00000000  0.00000000  1
  Cu  Cu0  1  0.33333300  0.66666700  0.25000000  1
  Cu  Cu1  1  0.66666700  0.33333300  0.75000000  1
  Sn  Sn0  1  0.33333300  0.66666700  0.75000000  1
  Sn  Sn1  1  0.66666700  0.33333300  0.25000000  1
loop_
_geom_bond_atom_site_label_1
_geom_bond_atom_site_label_2
_geom_bond_distance
_geom_bond_site_symmetry_2
Lu0 Sn0 3.151097 1_545
Lu0 Sn1 3.151097 1_455
Lu0 Sn0 3.151100 1_555
Lu0 Sn1 3.151100 1_445
Lu0 Sn0 3.151100 1_445
Lu0 Sn1 3.151100 1_555
Lu1 Sn0 3.151097 1_544
Lu1 Sn1 3.151097 1_455
Lu1 Sn1 3.151100 1_445
Lu1 Sn0 3.151100 1_554
Lu1 Sn0 3.151100 1_444
Lu1 Sn1 3.151100 1_555
Cu0 Sn1 2.594073 1_455
Cu0 Sn1 2.594073 1_565
Cu0 Sn1 2.594081 1_555
Cu0 Lu1 3.151097 1_565
Cu0 Lu0 3.151097 1_565
Cu0 Lu1 3.151100 1_555
Cu0 Lu0 3.151100 1_555
Cu0 Lu1 3.151100 1_665
Cu0 Lu0 3.151100 1_665
Cu1 Sn0 2.594073 1_545
Cu1 Sn0 2.594073 1_655
Cu1 Sn0 2.594081 1_555
Cu1 Lu0 3.151097 1_655
Cu1 Lu1 3.151097 1_656
Cu1 Lu0 3.151100 1_665
Cu1 Lu1 3.151100 1_666
Cu1 Lu0 3.151100 1_555
Cu1 Lu1 3.151100 1_556
