# generated using pymatgen
data_Nd3Pt2
_symmetry_space_group_name_H-M   'P 1'
_cell_length_a   7.70172695
_cell_length_b   7.70191503
_cell_length_c   7.70184668
_cell_angle_alpha   71.39027492
_cell_angle_beta   71.38926961
_cell_angle_gamma   71.38940420
_symmetry_Int_Tables_number   1
_chemical_formula_structural   Nd3Pt2
_chemical_formula_sum   'Nd9 Pt6'
_cell_volume   398.14120728
_cell_formula_units_Z   3
loop_
 _symmetry_equiv_pos_site_id
 _symmetry_equiv_pos_as_xyz
  1  'x, y, z'
loop_
 _atom_site_type_symbol
 _atom_site_label
 _atom_site_symmetry_multiplicity
 _atom_site_fract_x
 _atom_site_fract_y
 _atom_site_fract_z
 _atom_site_occupancy
  Nd  Nd0  1  -0.00000000  0.00000000  -0.00000000  1
  Nd  Nd1  1  0.80118808  0.80127416  0.80123352  1
  Nd  Nd2  1  0.19881192  0.19872584  0.19876648  1
  Nd  Nd3  1  0.60389616  0.33313472  0.83840534  1
  Nd  Nd4  1  0.33316907  0.83842086  0.60388677  1
  Nd  Nd5  1  0.83837183  0.60392280  0.33315819  1
  Nd  Nd6  1  0.39610284  0.66686728  0.16159666  1
  Nd  Nd7  1  0.66682893  0.16158114  0.39611223  1
  Nd  Nd8  1  0.16162817  0.39607620  0.66684081  1
  Pt  Pt0  1  0.95721307  0.16655296  0.58826274  1
  Pt  Pt1  1  0.16657820  0.58827951  0.95720993  1
  Pt  Pt2  1  0.58825252  0.95721985  0.16655189  1
  Pt  Pt3  1  0.04278693  0.83344704  0.41173626  1
  Pt  Pt4  1  0.83342180  0.41171849  0.04279007  1
  Pt  Pt5  1  0.41174848  0.04277915  0.83344811  1
loop_
_geom_bond_atom_site_label_1
_geom_bond_atom_site_label_2
_geom_bond_distance
_geom_bond_site_symmetry_2
Nd0 Pt4 3.100068 1_455
Nd0 Pt1 3.100082 1_544
Nd0 Pt2 3.100175 1_445
Nd0 Pt3 3.100175 1_545
Nd0 Pt5 3.100180 1_554
Nd0 Pt0 3.100183 1_454
Nd0 Nd1 3.393851 1_444
Nd0 Nd2 3.393851 1_555
Nd0 Nd6 3.581641 1_545
Nd0 Nd3 3.581646 1_454
Nd0 Nd8 3.581707 1_554
Nd0 Nd5 3.581710 1_445
Nd0 Nd4 3.581723 1_544
Nd0 Nd7 3.581729 1_455
Nd1 Pt5 2.962461 1_565
Nd1 Pt3 2.963086 1_655
Nd1 Pt4 2.963372 1_556
Nd1 Pt2 3.162763 1_556
Nd1 Pt0 3.162888 1_565
Nd1 Pt1 3.163392 1_655
Nd2 Pt2 2.962470 1_545
Nd2 Pt0 2.963080 1_455
Nd2 Pt1 2.963360 1_554
Nd2 Pt5 3.162768 1_554
Nd2 Pt3 3.162887 1_545
Nd2 Pt4 3.163390 1_455
Nd3 Pt0 2.960658 1_555
Nd3 Pt4 3.006034 1_556
Nd3 Pt5 3.065182 1_555
Nd3 Pt2 3.184743 1_546
Nd3 Pt1 3.316483 1_555
Nd4 Pt1 2.960766 1_555
Nd4 Pt5 3.006098 1_565
Nd4 Pt3 3.065401 1_555
Nd4 Pt0 3.184821 1_465
Nd4 Pt2 3.316446 1_555
Nd5 Pt2 2.960601 1_555
Nd5 Pt3 3.006193 1_655
Nd5 Pt4 3.065552 1_555
Nd5 Pt1 3.185065 1_654
Nd5 Pt0 3.316799 1_555
Nd6 Pt3 2.960637 1_555
Nd6 Pt1 3.006057 1_554
Nd6 Pt2 3.065166 1_555
Nd6 Pt5 3.184736 1_564
Nd6 Pt4 3.316502 1_555
Nd7 Pt4 2.960751 1_555
Nd7 Pt2 3.006096 1_545
Nd7 Pt0 3.065408 1_555
Nd7 Pt3 3.184839 1_645
Nd7 Pt5 3.316447 1_555
Nd8 Pt5 2.960608 1_555
Nd8 Pt0 3.006187 1_455
Nd8 Pt1 3.065554 1_555
Nd8 Pt4 3.185070 1_456
Nd8 Pt3 3.316805 1_555
Pt0 Pt3 3.072452 1_645
Pt1 Pt4 3.072935 1_456
Pt2 Pt5 3.072338 1_564
