# generated using pymatgen
data_Li7Co5O12
_symmetry_space_group_name_H-M   'P 1'
_cell_length_a   5.08957400
_cell_length_b   5.77486431
_cell_length_c   7.75142906
_cell_angle_alpha   79.06360877
_cell_angle_beta   78.12368912
_cell_angle_gamma   73.23039917
_symmetry_Int_Tables_number   1
_chemical_formula_structural   Li7Co5O12
_chemical_formula_sum   'Li7 Co5 O12'
_cell_volume   211.39309967
_cell_formula_units_Z   1
loop_
 _symmetry_equiv_pos_site_id
 _symmetry_equiv_pos_as_xyz
  1  'x, y, z'
loop_
 _atom_site_type_symbol
 _atom_site_label
 _atom_site_symmetry_multiplicity
 _atom_site_fract_x
 _atom_site_fract_y
 _atom_site_fract_z
 _atom_site_occupancy
  Li  Li0  1  0.49793600  0.66899200  0.83804100  1
  Li  Li1  1  0.50023900  0.83853500  0.16112200  1
  Li  Li2  1  0.50206400  0.33100800  0.16195900  1
  Li  Li3  1  0.50000000  0.50000000  0.50000000  1
  Li  Li4  1  0.50000000  0.00000000  0.50000000  1
  Li  Li5  1  0.49976100  0.16146500  0.83887800  1
  Li  Li6  1  0.00000000  0.00000000  0.00000000  1
  Co  Co0  1  0.00028800  0.83437400  0.67205300  1
  Co  Co1  1  0.00000000  0.50000000  0.00000000  1
  Co  Co2  1  0.99971200  0.16562600  0.32794700  1
  Co  Co3  1  0.99828600  0.32792200  0.67497600  1
  Co  Co4  1  0.00171400  0.67207800  0.32502400  1
  O  O0  1  0.77930700  0.65561200  0.58430600  1
  O  O1  1  0.77631800  0.80781200  0.91477700  1
  O  O2  1  0.78108300  0.34738700  0.91468400  1
  O  O3  1  0.77295500  0.49922100  0.23201000  1
  O  O4  1  0.76924800  0.99077500  0.26213600  1
  O  O5  1  0.76423800  0.16497700  0.58150300  1
  O  O6  1  0.21891700  0.65261300  0.08531600  1
  O  O7  1  0.23576200  0.83502300  0.41849700  1
  O  O8  1  0.22069300  0.34438800  0.41569400  1
  O  O9  1  0.22704500  0.50077900  0.76799000  1
  O  O10  1  0.23075200  0.00922500  0.73786400  1
  O  O11  1  0.22368200  0.19218800  0.08522300  1
loop_
_geom_bond_atom_site_label_1
_geom_bond_atom_site_label_2
_geom_bond_distance
_geom_bond_site_symmetry_2
Li0 O1 2.046257 1_555
Li0 O2 2.065984 1_555
Li0 O9 2.102490 1_555
Li0 O6 2.141925 1_556
Li0 O10 2.150942 1_565
Li0 O0 2.181652 1_555
Li1 O3 2.098580 1_555
Li1 O1 2.128958 1_554
Li1 O4 2.158152 1_555
Li1 O7 2.165068 1_555
Li1 O11 2.173581 1_565
Li1 O6 2.240738 1_555
Li2 O11 2.046257 1_555
Li2 O6 2.065984 1_555
Li2 O3 2.102490 1_555
Li2 O2 2.141925 1_554
Li2 O4 2.150942 1_545
Li2 O8 2.181652 1_555
Li3 O7 2.082158 1_555
Li3 O5 2.082158 1_555
Li3 O0 2.144240 1_555
Li3 O8 2.144240 1_555
Li3 O3 2.248842 1_555
Li3 O9 2.248842 1_555
Li4 O4 2.058019 1_545
Li4 O10 2.058019 1_555
Li4 O5 2.105444 1_555
Li4 O7 2.105444 1_545
Li4 O8 2.158929 1_555
Li4 O0 2.158929 1_545
Li5 O9 2.098580 1_555
Li5 O11 2.128958 1_556
Li5 O10 2.158152 1_555
Li5 O5 2.165068 1_555
Li5 O1 2.173581 1_545
Li5 O2 2.240738 1_555
Li6 O6 2.052641 1_545
Li6 O2 2.052641 1_454
Li6 O11 2.069079 1_555
Li6 O1 2.069079 1_444
Li6 O10 2.126891 1_554
Li6 O4 2.126891 1_445
Co0 O10 1.944437 1_565
Co0 O1 1.992850 1_455
Co0 O0 2.011105 1_455
Co0 O5 2.023869 1_465
Co0 O9 2.030498 1_555
Co0 O7 2.080742 1_555
Co1 O6 1.883234 1_555
Co1 O2 1.883234 1_454
Co1 O1 1.894320 1_454
Co1 O11 1.894320 1_555
Co1 O9 1.927219 1_554
Co1 O3 1.927219 1_455
Co2 O4 1.944437 1_545
Co2 O11 1.992850 1_655
Co2 O8 2.011105 1_655
Co2 O7 2.023869 1_645
Co2 O3 2.030498 1_555
Co2 O5 2.080742 1_555
Co3 O10 1.914449 1_655
Co3 O2 1.961953 1_555
Co3 O0 1.979360 1_555
Co3 O5 2.022413 1_555
Co3 O9 2.039878 1_655
Co3 O8 2.093536 1_655
Co4 O4 1.914449 1_455
Co4 O6 1.961953 1_555
Co4 O8 1.979360 1_555
Co4 O7 2.022413 1_555
Co4 O3 2.039878 1_455
Co4 O0 2.093536 1_455
