# generated using pymatgen
data_V7S8
_symmetry_space_group_name_H-M   'P 1'
_cell_length_a   6.38601679
_cell_length_b   6.38601679
_cell_length_c   18.03187700
_cell_angle_alpha   90.00000000
_cell_angle_beta   90.00000000
_cell_angle_gamma   120.00000821
_symmetry_Int_Tables_number   1
_chemical_formula_structural   V7S8
_chemical_formula_sum   'V21 S24'
_cell_volume   636.84192212
_cell_formula_units_Z   3
loop_
 _symmetry_equiv_pos_site_id
 _symmetry_equiv_pos_as_xyz
  1  'x, y, z'
loop_
 _atom_site_type_symbol
 _atom_site_label
 _atom_site_symmetry_multiplicity
 _atom_site_fract_x
 _atom_site_fract_y
 _atom_site_fract_z
 _atom_site_occupancy
  V  V0  1  0.50010400  0.49975900  0.83541900  1
  V  V1  1  0.00058800  0.00058800  0.50000000  1
  V  V2  1  0.50024100  0.00034500  0.16875200  1
  V  V3  1  0.99941200  0.00000000  0.83333300  1
  V  V4  1  0.49975900  0.50010400  0.16458100  1
  V  V5  1  0.49989600  0.99965500  0.49791400  1
  V  V6  1  0.50148600  0.50181000  0.66761300  1
  V  V7  1  0.00056700  0.00000000  0.33333300  1
  V  V8  1  0.49819000  0.99967600  0.00094600  1
  V  V9  1  0.99943300  0.99943300  0.00000000  1
  V  V10  1  0.50181000  0.50148600  0.33238700  1
  V  V11  1  0.49851400  0.00032400  0.66572000  1
  V  V12  1  0.00034500  0.50024100  0.83124800  1
  V  V13  1  0.99965500  0.49989600  0.50208600  1
  V  V14  1  0.00000000  0.50121700  0.16666700  1
  V  V15  1  0.00032400  0.49851400  0.33428000  1
  V  V16  1  0.99967600  0.49819000  0.99905400  1
  V  V17  1  0.00000000  0.00056700  0.66666700  1
  V  V18  1  0.50121700  0.00000000  0.83333300  1
  V  V19  1  0.49878300  0.49878300  0.50000000  1
  V  V20  1  0.00000000  0.99941200  0.16666700  1
  S  S0  1  0.66718800  0.83372400  0.75077800  1
  S  S1  1  0.66449800  0.83638000  0.41514000  1
  S  S2  1  0.66524800  0.82918600  0.08212300  1
  S  S3  1  0.33550200  0.17188200  0.91819300  1
  S  S4  1  0.33475200  0.16393800  0.25121000  1
  S  S5  1  0.33281200  0.16653600  0.58255500  1
  S  S6  1  0.83638000  0.66449800  0.58486000  1
  S  S7  1  0.82811800  0.16362000  0.25152600  1
  S  S8  1  0.33642800  0.66500200  0.91788900  1
  S  S9  1  0.17188200  0.33550200  0.08180700  1
  S  S10  1  0.66357200  0.32857400  0.41544500  1
  S  S11  1  0.16362000  0.82811800  0.74847400  1
  S  S12  1  0.83372400  0.66718800  0.24922200  1
  S  S13  1  0.83346400  0.16627600  0.91588800  1
  S  S14  1  0.32857400  0.66357200  0.58455500  1
  S  S15  1  0.16653600  0.33281200  0.41744500  1
  S  S16  1  0.67142600  0.33499800  0.74877800  1
  S  S17  1  0.16627600  0.83346400  0.08411200  1
  S  S18  1  0.82918600  0.66524800  0.91787700  1
  S  S19  1  0.83606200  0.17081400  0.58454300  1
  S  S20  1  0.33499800  0.67142600  0.25122200  1
  S  S21  1  0.16393800  0.33475200  0.74879000  1
  S  S22  1  0.66500200  0.33642800  0.08211100  1
  S  S23  1  0.17081400  0.83606200  0.41545700  1
loop_
_geom_bond_atom_site_label_1
_geom_bond_atom_site_label_2
_geom_bond_distance
_geom_bond_site_symmetry_2
S0 V3 2.364709 1_565
S0 V18 2.364808 1_565
S0 V6 2.370321 1_555
S0 V17 2.384981 1_665
S0 V0 2.395981 1_555
S0 V11 2.406360 1_565
S1 V5 2.348589 1_555
S1 V7 2.373027 1_665
S1 V10 2.378632 1_555
S1 V1 2.407684 1_665
S1 V19 2.414080 1_555
S2 V4 2.350133 1_555
S2 V9 2.368352 1_555
S2 V8 2.372271 1_555
S2 V20 2.398294 1_655
S2 V2 2.428360 1_565
S3 V0 2.348589 1_555
S3 V9 2.373027 1_446
S3 V8 2.378632 1_546
S3 V3 2.407684 1_455
S3 V18 2.414080 1_555
S4 V2 2.350133 1_555
S4 V7 2.368352 1_555
S4 V10 2.372271 1_555
S4 V20 2.398283 1_545
S4 V4 2.428359 1_555
S5 V1 2.364709 1_555
S5 V19 2.364807 1_555
S5 V11 2.370321 1_555
S5 V17 2.384993 1_555
S5 V5 2.395981 1_545
S5 V6 2.406360 1_555
S6 V13 2.348589 1_555
S6 V17 2.373027 1_665
S6 V6 2.378632 1_555
S6 V1 2.407684 1_665
S6 V19 2.414080 1_555
S7 V2 2.348589 1_555
S7 V7 2.373028 1_655
S7 V15 2.378644 1_655
S7 V20 2.407673 1_645
S7 V14 2.414069 1_655
S8 V0 2.349570 1_555
S8 V16 2.368670 1_455
S8 V8 2.381201 1_556
S8 V18 2.399475 1_565
S8 V12 2.428158 1_555
S9 V4 2.348589 1_555
S9 V9 2.373027 1_445
S9 V16 2.378632 1_454
S9 V20 2.407684 1_545
S9 V14 2.414080 1_555
S10 V5 2.349558 1_545
S10 V15 2.368670 1_655
S10 V10 2.381213 1_555
S10 V19 2.399464 1_555
S10 V13 2.428158 1_555
S11 V12 2.348589 1_555
S11 V17 2.373028 1_565
S11 V11 2.378644 1_565
S11 V3 2.407673 1_465
S11 V18 2.414069 1_565
S12 V20 2.364709 1_655
S12 V14 2.364808 1_655
S12 V10 2.370321 1_555
S12 V7 2.384981 1_665
S12 V4 2.395981 1_555
S12 V15 2.406360 1_655
S13 V3 2.364709 1_555
S13 V18 2.364807 1_555
S13 V16 2.370332 1_555
S13 V9 2.384993 1_546
S13 V12 2.395969 1_655
S13 V8 2.406360 1_546
S14 V13 2.349558 1_455
S14 V11 2.368670 1_565
S14 V6 2.381213 1_555
S14 V19 2.399464 1_555
S14 V5 2.428158 1_555
S15 V1 2.364709 1_555
S15 V19 2.364807 1_555
S15 V15 2.370321 1_555
S15 V7 2.384993 1_555
S15 V13 2.395981 1_455
S15 V10 2.406360 1_555
S16 V12 2.349570 1_655
S16 V6 2.368671 1_555
S16 V11 2.381213 1_555
S16 V18 2.399464 1_555
S16 V0 2.428158 1_555
S17 V20 2.364709 1_555
S17 V14 2.364807 1_555
S17 V8 2.370332 1_555
S17 V9 2.384993 1_455
S17 V2 2.395969 1_565
S17 V16 2.406360 1_454
S18 V0 2.350133 1_555
S18 V9 2.368352 1_556
S18 V16 2.372271 1_555
S18 V3 2.398294 1_565
S18 V12 2.428360 1_655
S19 V13 2.350122 1_555
S19 V17 2.368363 1_655
S19 V11 2.372271 1_555
S19 V1 2.398283 1_655
S19 V5 2.428359 1_545
S20 V2 2.349570 1_565
S20 V10 2.368671 1_555
S20 V15 2.381213 1_555
S20 V14 2.399464 1_555
S20 V4 2.428158 1_555
S21 V12 2.350133 1_555
S21 V17 2.368352 1_555
S21 V6 2.372271 1_555
S21 V3 2.398283 1_455
S21 V0 2.428359 1_555
S22 V4 2.349570 1_555
S22 V8 2.368670 1_545
S22 V16 2.381201 1_554
S22 V14 2.399475 1_655
S22 V2 2.428158 1_555
S23 V5 2.350122 1_555
S23 V7 2.368363 1_565
S23 V15 2.372271 1_555
S23 V1 2.398283 1_565
S23 V13 2.428359 1_455
