# generated using pymatgen
data_Rb2Zn3S4
_symmetry_space_group_name_H-M   'P 1'
_cell_length_a   5.74755332
_cell_length_b   9.21597959
_cell_length_c   9.21597959
_cell_angle_alpha   74.16807299
_cell_angle_beta   71.83072371
_cell_angle_gamma   71.83072371
_symmetry_Int_Tables_number   1
_chemical_formula_structural   Rb2Zn3S4
_chemical_formula_sum   'Rb4 Zn6 S8'
_cell_volume   432.28200173
_cell_formula_units_Z   2
loop_
 _symmetry_equiv_pos_site_id
 _symmetry_equiv_pos_as_xyz
  1  'x, y, z'
loop_
 _atom_site_type_symbol
 _atom_site_label
 _atom_site_symmetry_multiplicity
 _atom_site_fract_x
 _atom_site_fract_y
 _atom_site_fract_z
 _atom_site_occupancy
  Rb  Rb0  1  0.73452560  0.37879403  0.62120597  1
  Rb  Rb1  1  0.26547440  0.62120597  0.37879403  1
  Rb  Rb2  1  0.76547440  0.87879403  0.12120597  1
  Rb  Rb3  1  0.23452560  0.12120597  0.87879403  1
  Zn  Zn0  1  0.75000000  0.75000000  0.75000000  1
  Zn  Zn1  1  0.25000000  0.25000000  0.25000000  1
  Zn  Zn2  1  0.25000000  0.52590039  0.97409961  1
  Zn  Zn3  1  0.25000000  0.97409961  0.52590039  1
  Zn  Zn4  1  0.75000000  0.47409961  0.02590039  1
  Zn  Zn5  1  0.75000000  0.02590039  0.47409961  1
  S  S0  1  0.57054194  0.28425912  0.01889753  1
  S  S1  1  0.12630141  0.01889753  0.28425912  1
  S  S2  1  0.92945806  0.48110247  0.21574088  1
  S  S3  1  0.37369859  0.21574088  0.48110247  1
  S  S4  1  0.42945806  0.71574088  0.98110247  1
  S  S5  1  0.87369859  0.98110247  0.71574088  1
  S  S6  1  0.07054194  0.51889753  0.78425912  1
  S  S7  1  0.62630141  0.78425912  0.51889753  1
loop_
_geom_bond_atom_site_label_1
_geom_bond_atom_site_label_2
_geom_bond_distance
_geom_bond_site_symmetry_2
Rb0 S0 3.419930 1_556
Rb0 S5 3.419930 1_545
Rb0 S3 3.475459 1_655
Rb0 S6 3.475459 1_655
Rb0 S2 3.497577 1_555
Rb0 S7 3.497577 1_555
Rb0 S6 3.591437 1_555
Rb0 S3 3.591437 1_555
Rb1 S4 3.419930 1_554
Rb1 S1 3.419930 1_565
Rb1 S7 3.475459 1_455
Rb1 S2 3.475459 1_455
Rb1 S6 3.497577 1_555
Rb1 S3 3.497577 1_555
Rb1 S2 3.591437 1_555
Rb1 S7 3.591437 1_555
Rb2 S2 3.419930 1_555
Rb2 S7 3.419930 1_555
Rb2 S1 3.475459 1_565
Rb2 S4 3.475459 1_554
Rb2 S0 3.497577 1_565
Rb2 S5 3.497577 1_554
Rb2 S4 3.591437 1_654
Rb2 S1 3.591437 1_665
Rb3 S6 3.419930 1_555
Rb3 S3 3.419930 1_555
Rb3 S5 3.475459 1_545
Rb3 S0 3.475459 1_556
Rb3 S4 3.497577 1_545
Rb3 S1 3.497577 1_556
Rb3 S0 3.591437 1_456
Rb3 S5 3.591437 1_445
S0 Zn4 2.314644 1_555
S0 Zn1 2.361949 1_555
S0 Zn2 2.436796 1_554
S1 Zn5 2.314644 1_455
S1 Zn1 2.361949 1_555
S1 Zn3 2.436796 1_545
S2 Zn4 2.314644 1_555
S2 Zn1 2.361949 1_655
S2 Zn2 2.436796 1_654
S3 Zn5 2.314644 1_555
S3 Zn1 2.361949 1_555
S3 Zn3 2.436796 1_545
S4 Zn2 2.314644 1_555
S4 Zn0 2.361949 1_555
S4 Zn4 2.436796 1_556
S5 Zn3 2.314644 1_655
S5 Zn0 2.361949 1_555
S5 Zn5 2.436796 1_565
S6 Zn2 2.314644 1_555
S6 Zn0 2.361949 1_455
S6 Zn4 2.436796 1_456
S7 Zn3 2.314644 1_555
S7 Zn0 2.361949 1_555
S7 Zn5 2.436796 1_565
