# generated using pymatgen
data_BaCa2Mg(SiO4)2
_symmetry_space_group_name_H-M   'P 1'
_cell_length_a   5.48468291
_cell_length_b   5.48468291
_cell_length_c   6.89719900
_cell_angle_alpha   90.00000000
_cell_angle_beta   90.00000000
_cell_angle_gamma   120.00001103
_symmetry_Int_Tables_number   1
_chemical_formula_structural   BaCa2Mg(SiO4)2
_chemical_formula_sum   'Ba1 Ca2 Mg1 Si2 O8'
_cell_volume   179.68275161
_cell_formula_units_Z   1
loop_
 _symmetry_equiv_pos_site_id
 _symmetry_equiv_pos_as_xyz
  1  'x, y, z'
loop_
 _atom_site_type_symbol
 _atom_site_label
 _atom_site_symmetry_multiplicity
 _atom_site_fract_x
 _atom_site_fract_y
 _atom_site_fract_z
 _atom_site_occupancy
  Ba  Ba0  1  0.00000000  0.00000000  0.50000000  1
  Ca  Ca0  1  0.33333300  0.66666700  0.83833000  1
  Ca  Ca1  1  0.66666700  0.33333300  0.16167000  1
  Mg  Mg0  1  0.00000000  0.00000000  0.00000000  1
  Si  Si0  1  0.33333300  0.66666700  0.27227200  1
  Si  Si1  1  0.66666700  0.33333300  0.72772800  1
  O  O0  1  0.33333300  0.66666700  0.50753300  1
  O  O1  1  0.66666700  0.33333300  0.49246700  1
  O  O2  1  0.64599400  0.88305400  0.17585500  1
  O  O3  1  0.11694600  0.76294000  0.17585500  1
  O  O4  1  0.23706000  0.35400600  0.17585500  1
  O  O5  1  0.35400600  0.11694600  0.82414500  1
  O  O6  1  0.88305400  0.23706000  0.82414500  1
  O  O7  1  0.76294000  0.64599400  0.82414500  1
loop_
_geom_bond_atom_site_label_1
_geom_bond_atom_site_label_2
_geom_bond_distance
_geom_bond_site_symmetry_2
Ba0 O7 2.816773 1_445
Ba0 O4 2.816773 1_555
Ba0 O5 2.816773 1_555
Ba0 O2 2.816773 1_445
Ba0 O6 2.816773 1_455
Ba0 O3 2.816773 1_545
Ba0 O1 3.167006 1_455
Ba0 O0 3.167006 1_545
Ba0 O1 3.167011 1_555
Ba0 O0 3.167011 1_555
Ba0 O0 3.167011 1_445
Ba0 O1 3.167011 1_445
Ca0 O0 2.281573 1_555
Ca0 O5 2.416923 1_565
Ca0 O6 2.416925 1_455
Ca0 O7 2.416929 1_555
Ca1 O1 2.281573 1_555
Ca1 O2 2.416923 1_545
Ca1 O3 2.416925 1_655
Ca1 O4 2.416929 1_555
Mg0 O4 2.099293 1_555
Mg0 O7 2.099293 1_444
Mg0 O2 2.099293 1_445
Mg0 O5 2.099293 1_554
Mg0 O3 2.099293 1_545
Mg0 O6 2.099293 1_454
O0 Si0 1.622642 1_555
O1 Si1 1.622642 1_555
O2 Si0 1.660198 1_555
O3 Si0 1.660194 1_555
O4 Si0 1.660199 1_555
O5 Si1 1.660198 1_555
O6 Si1 1.660194 1_555
O7 Si1 1.660199 1_555
