# generated using pymatgen
data_MgNiMoP2O9
_symmetry_space_group_name_H-M   'P 1'
_cell_length_a   6.46611101
_cell_length_b   7.61773077
_cell_length_c   14.15662068
_cell_angle_alpha   90.04163414
_cell_angle_beta   89.94474255
_cell_angle_gamma   90.03298063
_symmetry_Int_Tables_number   1
_chemical_formula_structural   MgNiMoP2O9
_chemical_formula_sum   'Mg4 Ni4 Mo4 P8 O36'
_cell_volume   697.31335558
_cell_formula_units_Z   4
loop_
 _symmetry_equiv_pos_site_id
 _symmetry_equiv_pos_as_xyz
  1  'x, y, z'
loop_
 _atom_site_type_symbol
 _atom_site_label
 _atom_site_symmetry_multiplicity
 _atom_site_fract_x
 _atom_site_fract_y
 _atom_site_fract_z
 _atom_site_occupancy
  Mg  Mg0  1  0.75009300  0.94731700  0.78410500  1
  Mg  Mg1  1  0.74998600  0.55279200  0.28398400  1
  Mg  Mg2  1  0.24992900  0.05249900  0.21589100  1
  Mg  Mg3  1  0.25007500  0.44731500  0.71598100  1
  Ni  Ni0  1  0.50001000  0.00004700  0.00003800  1
  Ni  Ni1  1  0.49994500  0.49998700  0.50004400  1
  Ni  Ni2  1  0.99994200  0.49996400  0.50006400  1
  Ni  Ni3  1  0.99995200  0.00009400  0.99996300  1
  Mo  Mo0  1  0.75015900  0.35809800  0.88302200  1
  Mo  Mo1  1  0.24987800  0.64197500  0.11695100  1
  Mo  Mo2  1  0.25020800  0.85903200  0.61720800  1
  Mo  Mo3  1  0.74984800  0.14100100  0.38278600  1
  P  P0  1  0.25014000  0.34758200  0.92531000  1
  P  P1  1  0.74987900  0.65249700  0.07465200  1
  P  P2  1  0.75013000  0.84746100  0.57465400  1
  P  P3  1  0.24986100  0.15252200  0.42533100  1
  P  P4  1  0.75006400  0.37789000  0.68865300  1
  P  P5  1  0.24996100  0.62202800  0.31136000  1
  P  P6  1  0.25013400  0.87775500  0.81166900  1
  P  P7  1  0.74991300  0.12223500  0.18832200  1
  O  O0  1  0.04280400  0.61535600  0.36635300  1
  O  O1  1  0.54287100  0.38465700  0.63380900  1
  O  O2  1  0.95707800  0.11534300  0.13362500  1
  O  O3  1  0.45706400  0.88447800  0.86617400  1
  O  O4  1  0.95722100  0.38455600  0.63368900  1
  O  O5  1  0.45712500  0.61524000  0.36621300  1
  O  O6  1  0.04290500  0.88468700  0.86630900  1
  O  O7  1  0.54295200  0.11555000  0.13383100  1
  O  O8  1  0.24965800  0.33459900  0.47036300  1
  O  O9  1  0.75011700  0.66536300  0.52971600  1
  O  O10  1  0.75000100  0.83453500  0.02967500  1
  O  O11  1  0.24994600  0.16554400  0.97029900  1
  O  O12  1  0.74904800  0.12790500  0.93672000  1
  O  O13  1  0.25066900  0.87220600  0.06327300  1
  O  O14  1  0.25011400  0.62741900  0.56334500  1
  O  O15  1  0.74975600  0.37245000  0.43682700  1
  O  O16  1  0.74999000  0.20740900  0.75247500  1
  O  O17  1  0.25007400  0.79253900  0.24754800  1
  O  O18  1  0.24976000  0.70745100  0.74724800  1
  O  O19  1  0.75031600  0.29254700  0.25275200  1
  O  O20  1  0.43154800  0.12359300  0.35609600  1
  O  O21  1  0.93182800  0.87676500  0.64376900  1
  O  O22  1  0.56840100  0.62339000  0.14396300  1
  O  O23  1  0.06839700  0.37660700  0.85616500  1
  O  O24  1  0.56848900  0.87649200  0.64394900  1
  O  O25  1  0.06823200  0.12319400  0.35621500  1
  O  O26  1  0.43164000  0.37663300  0.85601300  1
  O  O27  1  0.93164200  0.62342200  0.14378600  1
  O  O28  1  0.74980800  0.97407800  0.26515000  1
  O  O29  1  0.25026500  0.02587700  0.73480800  1
  O  O30  1  0.25003100  0.47399500  0.23470300  1
  O  O31  1  0.74998800  0.52602000  0.76526100  1
  O  O32  1  0.75003300  0.98633200  0.49585700  1
  O  O33  1  0.25006300  0.01354500  0.50409400  1
  O  O34  1  0.24993800  0.48671300  0.00407300  1
  O  O35  1  0.75012300  0.51342000  0.99586800  1
loop_
_geom_bond_atom_site_label_1
_geom_bond_atom_site_label_2
_geom_bond_distance
_geom_bond_site_symmetry_2
Mg0 O16 2.031597 1_565
Mg0 O3 2.272575 1_555
Mg0 O6 2.274375 1_655
Mg0 O24 2.368334 1_555
Mg0 O21 2.368826 1_555
Mg0 O12 2.560467 1_565
Mg1 O19 2.030870 1_555
Mg1 O5 2.272305 1_555
Mg1 O0 2.274688 1_655
Mg1 O22 2.367241 1_555
Mg1 O27 2.367419 1_555
Mg1 O15 2.563865 1_555
Mg2 O17 2.030701 1_545
Mg2 O7 2.272818 1_555
Mg2 O2 2.275379 1_455
Mg2 O25 2.368809 1_555
Mg2 O20 2.369429 1_555
Mg2 O13 2.559295 1_545
Mg3 O18 2.030167 1_555
Mg3 O1 2.271878 1_555
Mg3 O4 2.274633 1_455
Mg3 O26 2.367453 1_555
Mg3 O23 2.367458 1_555
Mg3 O14 2.560419 1_555
Ni0 O12 2.083722 1_554
Ni0 O13 2.084671 1_545
Ni0 O10 2.093588 1_545
Ni0 O11 2.094175 1_554
Ni0 O7 2.106427 1_555
Ni0 O3 2.107544 1_544
Ni1 O15 2.086092 1_555
Ni1 O14 2.086328 1_555
Ni1 O9 2.092480 1_555
Ni1 O8 2.093135 1_555
Ni1 O1 2.106789 1_555
Ni1 O5 2.107293 1_555
Ni2 O14 2.088469 1_655
Ni2 O15 2.088480 1_555
Ni2 O8 2.090727 1_655
Ni2 O9 2.091290 1_555
Ni2 O4 2.104468 1_555
Ni2 O0 2.105630 1_655
Ni3 O11 2.091648 1_655
Ni3 O10 2.092070 1_546
Ni3 O13 2.094382 1_646
Ni3 O12 2.094639 1_555
Ni3 O2 2.103547 1_556
Ni3 O6 2.104014 1_645
Mo0 O12 1.911746 1_555
Mo0 O35 1.987280 1_555
Mo0 O23 2.096916 1_655
Mo0 O26 2.099984 1_555
Mo0 O31 2.102055 1_555
Mo0 O16 2.174880 1_555
Mo1 O13 1.911894 1_555
Mo1 O34 1.987372 1_555
Mo1 O27 2.096869 1_455
Mo1 O22 2.100043 1_555
Mo1 O30 2.102223 1_555
Mo1 O17 2.174980 1_555
Mo2 O14 1.921579 1_555
Mo2 O33 1.988055 1_565
Mo2 O29 2.093785 1_565
Mo2 O21 2.096796 1_455
Mo2 O24 2.097056 1_555
Mo2 O18 2.173807 1_555
Mo3 O15 1.921432 1_555
Mo3 O32 1.988270 1_545
Mo3 O28 2.094551 1_545
Mo3 O25 2.096883 1_655
Mo3 O20 2.097021 1_555
Mo3 O19 2.173593 1_555
O0 P5 1.549483 1_555
O1 P4 1.549997 1_555
O2 P7 1.547500 1_555
O3 P6 1.546022 1_555
O4 P4 1.549276 1_555
O5 P5 1.549904 1_555
O6 P6 1.547465 1_555
O7 P7 1.546088 1_555
O8 P3 1.526084 1_555
O9 P2 1.525674 1_555
O10 P1 1.526329 1_555
O11 P0 1.526400 1_555
O16 P4 1.582589 1_555
O17 P5 1.582696 1_555
O18 P6 1.585265 1_555
O19 P7 1.585389 1_555
O20 P3 1.545045 1_555
O21 P2 1.545673 1_555
O22 P1 1.544905 1_555
O23 P0 1.546257 1_555
O24 P2 1.545468 1_555
O25 P3 1.545369 1_555
O26 P0 1.544826 1_555
O27 P1 1.546312 1_555
O28 P7 1.567958 1_565
O29 P6 1.568091 1_545
O30 P5 1.564462 1_555
O31 P4 1.564514 1_555
O32 P2 1.537911 1_555
O33 P3 1.538119 1_555
O34 P0 1.537809 1_554
O35 P1 1.537741 1_556
