# generated using pymatgen
data_LaOs2
_symmetry_space_group_name_H-M   'P 1'
_cell_length_a   5.34316161
_cell_length_b   5.34316161
_cell_length_c   9.32678600
_cell_angle_alpha   90.00000000
_cell_angle_beta   90.00000000
_cell_angle_gamma   119.88318616
_symmetry_Int_Tables_number   1
_chemical_formula_structural   LaOs2
_chemical_formula_sum   'La4 Os8'
_cell_volume   230.87093809
_cell_formula_units_Z   4
loop_
 _symmetry_equiv_pos_site_id
 _symmetry_equiv_pos_as_xyz
  1  'x, y, z'
loop_
 _atom_site_type_symbol
 _atom_site_label
 _atom_site_symmetry_multiplicity
 _atom_site_fract_x
 _atom_site_fract_y
 _atom_site_fract_z
 _atom_site_occupancy
  La  La0  1  0.66661009  0.33338991  0.56512167  1
  La  La1  1  0.33338991  0.66661009  0.43487833  1
  La  La2  1  0.33338991  0.66661009  0.06512167  1
  La  La3  1  0.66661009  0.33338991  0.93487833  1
  Os  Os0  1  0.00000000  -0.00000000  0.50000000  1
  Os  Os1  1  0.00000000  -0.00000000  0.00000000  1
  Os  Os2  1  0.16904929  0.33841099  0.75000000  1
  Os  Os3  1  0.16915357  0.83084643  0.75000000  1
  Os  Os4  1  0.66158901  0.83095071  0.75000000  1
  Os  Os5  1  0.83095071  0.66158901  0.25000000  1
  Os  Os6  1  0.83084643  0.16915357  0.25000000  1
  Os  Os7  1  0.33841099  0.16904929  0.25000000  1
loop_
_geom_bond_atom_site_label_1
_geom_bond_atom_site_label_2
_geom_bond_distance
_geom_bond_site_symmetry_2
La0 Os0 3.142830 1_655
La0 Os0 3.147407 1_665
La0 Os0 3.147407 1_555
La0 Os4 3.179526 1_545
La0 Os2 3.179526 1_655
La0 Os4 3.180087 1_555
La0 Os2 3.180087 1_555
La0 Os3 3.183771 1_655
La0 Os3 3.183771 1_545
La0 Os6 3.308423 1_555
La0 Os7 3.309075 1_555
La0 Os5 3.309075 1_555
La1 Os0 3.142830 1_565
La1 Os0 3.147407 1_665
La1 Os0 3.147407 1_555
La1 Os7 3.179526 1_565
La1 Os5 3.179526 1_455
La1 Os5 3.180087 1_555
La1 Os7 3.180087 1_555
La1 Os6 3.183771 1_565
La1 Os6 3.183771 1_455
La1 Os3 3.308423 1_555
La1 Os4 3.309075 1_555
La1 Os2 3.309075 1_555
La2 Os1 3.142830 1_565
La2 Os1 3.147407 1_555
La2 Os1 3.147407 1_665
La2 Os7 3.179526 1_565
La2 Os5 3.179526 1_455
La2 Os5 3.180087 1_555
La2 Os7 3.180087 1_555
La2 Os6 3.183771 1_565
La2 Os6 3.183771 1_455
La2 Os3 3.308423 1_554
La2 Os2 3.309075 1_554
La2 Os4 3.309075 1_554
La3 Os1 3.142830 1_656
La3 Os1 3.147407 1_666
La3 Os1 3.147407 1_556
La3 Os4 3.179526 1_545
La3 Os2 3.179526 1_655
La3 Os4 3.180087 1_555
La3 Os2 3.180087 1_555
La3 Os3 3.183771 1_655
La3 Os3 3.183771 1_545
La3 Os6 3.308423 1_556
La3 Os5 3.309075 1_556
La3 Os7 3.309075 1_556
Os0 Os6 2.807947 1_455
Os0 Os3 2.807947 1_545
Os0 Os7 2.809756 1_555
Os0 Os5 2.809756 1_445
Os0 Os2 2.809756 1_555
Os0 Os4 2.809756 1_445
Os1 Os6 2.807947 1_455
Os1 Os3 2.807947 1_544
Os1 Os7 2.809756 1_555
Os1 Os5 2.809756 1_445
Os1 Os4 2.809756 1_444
Os1 Os2 2.809756 1_554
Os2 Os3 2.630885 1_555
Os2 Os4 2.636365 1_555
Os2 Os3 2.712277 1_545
Os2 Os4 2.716228 1_445
Os3 Os4 2.630885 1_555
Os3 Os4 2.712277 1_455
Os5 Os6 2.630885 1_555
Os5 Os7 2.636365 1_555
Os5 Os6 2.712277 1_565
Os5 Os7 2.716228 1_665
Os6 Os7 2.630885 1_555
Os6 Os7 2.712277 1_655
