# generated using pymatgen
data_Mn9Ir2N9
_symmetry_space_group_name_H-M   'P 1'
_cell_length_a   6.55381380
_cell_length_b   7.64689300
_cell_length_c   17.00585495
_cell_angle_alpha   90.00000000
_cell_angle_beta   106.07728845
_cell_angle_gamma   90.00000000
_symmetry_Int_Tables_number   1
_chemical_formula_structural   Mn9Ir2N9
_chemical_formula_sum   'Mn36 Ir8 N36'
_cell_volume   818.93758937
_cell_formula_units_Z   4
loop_
 _symmetry_equiv_pos_site_id
 _symmetry_equiv_pos_as_xyz
  1  'x, y, z'
loop_
 _atom_site_type_symbol
 _atom_site_label
 _atom_site_symmetry_multiplicity
 _atom_site_fract_x
 _atom_site_fract_y
 _atom_site_fract_z
 _atom_site_occupancy
  Mn  Mn0  1  0.48217600  0.86420100  0.07687100  1
  Mn  Mn1  1  0.51782400  0.36420100  0.42312900  1
  Mn  Mn2  1  0.51782400  0.13579900  0.92312900  1
  Mn  Mn3  1  0.48217600  0.63579900  0.57687100  1
  Mn  Mn4  1  0.61545000  0.12720200  0.57999200  1
  Mn  Mn5  1  0.38455000  0.62720200  0.92000800  1
  Mn  Mn6  1  0.38455000  0.87279800  0.42000800  1
  Mn  Mn7  1  0.61545000  0.37279800  0.07999200  1
  Mn  Mn8  1  0.76625900  0.87212400  0.72333600  1
  Mn  Mn9  1  0.23374100  0.37212400  0.77666400  1
  Mn  Mn10  1  0.23374100  0.12787600  0.27666400  1
  Mn  Mn11  1  0.76625900  0.62787600  0.22333600  1
  Mn  Mn12  1  0.83455300  0.30849800  0.71153300  1
  Mn  Mn13  1  0.16544700  0.80849800  0.78846700  1
  Mn  Mn14  1  0.16544700  0.69150200  0.28846700  1
  Mn  Mn15  1  0.83455300  0.19150200  0.21153300  1
  Mn  Mn16  1  0.69242500  0.41423600  0.89160800  1
  Mn  Mn17  1  0.30757500  0.91423600  0.60839200  1
  Mn  Mn18  1  0.30757500  0.58576400  0.10839200  1
  Mn  Mn19  1  0.69242500  0.08576400  0.39160800  1
  Mn  Mn20  1  0.83246100  0.12181500  0.85207900  1
  Mn  Mn21  1  0.16753900  0.62181500  0.64792100  1
  Mn  Mn22  1  0.16753900  0.87818500  0.14792100  1
  Mn  Mn23  1  0.83246100  0.37818500  0.35207900  1
  Mn  Mn24  1  0.06379300  0.13482200  0.63661600  1
  Mn  Mn25  1  0.93620700  0.63482200  0.86338400  1
  Mn  Mn26  1  0.93620700  0.86517800  0.36338400  1
  Mn  Mn27  1  0.06379300  0.36517800  0.13661600  1
  Mn  Mn28  1  0.30724900  0.33672300  0.58044600  1
  Mn  Mn29  1  0.69275100  0.83672300  0.91955400  1
  Mn  Mn30  1  0.69275100  0.66327700  0.41955400  1
  Mn  Mn31  1  0.30724900  0.16327700  0.08044600  1
  Mn  Mn32  1  0.82741800  0.44370100  0.56977500  1
  Mn  Mn33  1  0.17258200  0.94370100  0.93022500  1
  Mn  Mn34  1  0.17258200  0.55629900  0.43022500  1
  Mn  Mn35  1  0.82741800  0.05629900  0.06977500  1
  Ir  Ir0  1  0.47087300  0.14793500  0.71744200  1
  Ir  Ir1  1  0.52912700  0.64793500  0.78255800  1
  Ir  Ir2  1  0.52912700  0.85206500  0.28255800  1
  Ir  Ir3  1  0.47087300  0.35206500  0.21744300  1
  Ir  Ir4  1  0.84292600  0.82520300  0.57155700  1
  Ir  Ir5  1  0.15707400  0.32520300  0.92844300  1
  Ir  Ir6  1  0.15707400  0.17479700  0.42844300  1
  Ir  Ir7  1  0.84292600  0.67479700  0.07155700  1
  N  N0  1  0.60333100  0.39631000  0.61431700  1
  N  N1  1  0.39666900  0.89631000  0.88568300  1
  N  N2  1  0.39666900  0.60369000  0.38568300  1
  N  N3  1  0.60333100  0.10369000  0.11431700  1
  N  N4  1  0.48483800  0.24462800  0.82500900  1
  N  N5  1  0.51516200  0.74462800  0.67499100  1
  N  N6  1  0.51516200  0.75537200  0.17499100  1
  N  N7  1  0.48483800  0.25537200  0.32500900  1
  N  N8  1  0.79566400  0.06250000  0.95673600  1
  N  N9  1  0.20433600  0.56250000  0.54326400  1
  N  N10  1  0.20433600  0.93750000  0.04326400  1
  N  N11  1  0.79566400  0.43750000  0.45673600  1
  N  N12  1  0.51184600  0.86429200  0.53952900  1
  N  N13  1  0.48815400  0.36429200  0.96047100  1
  N  N14  1  0.48815400  0.13570800  0.46047100  1
  N  N15  1  0.51184600  0.63570800  0.03952900  1
  N  N16  1  0.83194400  0.07807500  0.67702500  1
  N  N17  1  0.16805600  0.57807500  0.82297500  1
  N  N18  1  0.16805600  0.92192500  0.32297500  1
  N  N19  1  0.83194400  0.42192500  0.17702500  1
  N  N20  1  0.06515700  0.38337600  0.66144900  1
  N  N21  1  0.93484300  0.88337600  0.83855100  1
  N  N22  1  0.93484300  0.61662400  0.33855100  1
  N  N23  1  0.06515700  0.11662400  0.16144900  1
  N  N24  1  0.03599400  0.24068000  0.81294000  1
  N  N25  1  0.96400600  0.74068000  0.68706000  1
  N  N26  1  0.96400600  0.75932000  0.18706000  1
  N  N27  1  0.03599400  0.25932000  0.31294000  1
  N  N28  1  0.18417400  0.11994600  0.54685200  1
  N  N29  1  0.81582600  0.61994600  0.95314800  1
  N  N30  1  0.81582600  0.88005400  0.45314800  1
  N  N31  1  0.18417400  0.38005400  0.04685200  1
  N  N32  1  0.24081200  0.97315300  0.70820900  1
  N  N33  1  0.75918800  0.47315300  0.79179100  1
  N  N34  1  0.75918800  0.02684700  0.29179100  1
  N  N35  1  0.24081200  0.52684700  0.20820900  1
loop_
_geom_bond_atom_site_label_1
_geom_bond_atom_site_label_2
_geom_bond_distance
_geom_bond_site_symmetry_2
Mn0 N6 1.823123 1_555
Mn0 N10 1.838511 1_555
Mn0 N15 1.887431 1_555
Mn0 N3 2.027257 1_565
Mn1 N7 1.823123 1_555
Mn1 N11 1.838511 1_555
Mn1 N14 1.887431 1_555
Mn1 N2 2.027257 1_555
Mn2 N4 1.823123 1_555
Mn2 N8 1.838511 1_555
Mn2 N13 1.887431 1_555
Mn2 N1 2.027257 1_545
Mn3 N5 1.823123 1_555
Mn3 N9 1.838511 1_555
Mn3 N12 1.887431 1_555
Mn3 N0 2.027257 1_555
Mn4 N16 1.892207 1_555
Mn4 N14 1.972900 1_555
Mn4 N0 2.146492 1_555
Mn4 N12 2.172013 1_545
Mn5 N17 1.892207 1_555
Mn5 N15 1.972900 1_556
Mn5 N1 2.146492 1_555
Mn5 N13 2.172013 1_555
Mn6 N18 1.892207 1_555
Mn6 N12 1.972900 1_555
Mn6 N2 2.146492 1_555
Mn6 N14 2.172013 1_565
Mn7 N19 1.892207 1_555
Mn7 N13 1.972900 1_554
Mn7 N3 2.146492 1_555
Mn7 N15 2.172013 1_555
Mn8 N16 1.863762 1_565
Mn8 N25 1.874381 1_555
Mn8 N5 1.893470 1_555
Mn8 N21 1.966748 1_555
Mn9 N17 1.863762 1_555
Mn9 N24 1.874381 1_555
Mn9 N4 1.893470 1_555
Mn9 N20 1.966748 1_555
Mn10 N18 1.863762 1_545
Mn10 N27 1.874381 1_555
Mn10 N7 1.893470 1_555
Mn10 N23 1.966748 1_555
Mn11 N19 1.863762 1_555
Mn11 N26 1.874381 1_555
Mn11 N6 1.893470 1_555
Mn11 N22 1.966748 1_555
Mn12 N16 1.855755 1_555
Mn12 N24 1.929983 1_655
Mn12 N20 2.012555 1_655
Mn12 N33 2.016312 1_555
Mn12 N0 2.023090 1_555
Mn13 N17 1.855755 1_555
Mn13 N25 1.929983 1_455
Mn13 N21 2.012555 1_455
Mn13 N32 2.016312 1_555
Mn13 N1 2.023090 1_555
Mn14 N18 1.855755 1_555
Mn14 N26 1.929983 1_455
Mn14 N22 2.012555 1_455
Mn14 N35 2.016312 1_555
Mn14 N2 2.023090 1_555
Mn15 N19 1.855755 1_555
Mn15 N27 1.929983 1_655
Mn15 N23 2.012555 1_655
Mn15 N34 2.016312 1_555
Mn15 N3 2.023090 1_555
Mn16 N33 1.920214 1_555
Mn16 N29 1.937781 1_555
Mn16 N4 1.990568 1_555
Mn16 N13 2.043986 1_555
Mn17 N32 1.920214 1_555
Mn17 N28 1.937781 1_565
Mn17 N5 1.990568 1_555
Mn17 N12 2.043986 1_555
Mn18 N35 1.920214 1_555
Mn18 N31 1.937781 1_555
Mn18 N6 1.990568 1_555
Mn18 N15 2.043986 1_555
Mn19 N34 1.920214 1_555
Mn19 N30 1.937781 1_545
Mn19 N7 1.990568 1_555
Mn19 N14 2.043986 1_555
Mn20 N24 1.881564 1_655
Mn20 N8 1.915526 1_555
Mn20 N21 1.978166 1_545
Mn20 N4 2.388192 1_555
Mn21 N25 1.881564 1_455
Mn21 N9 1.915526 1_555
Mn21 N20 1.978166 1_555
Mn21 N5 2.388192 1_555
Mn22 N26 1.881564 1_455
Mn22 N10 1.915526 1_555
Mn22 N23 1.978166 1_565
Mn22 N6 2.388192 1_555
Mn23 N27 1.881564 1_655
Mn23 N11 1.915526 1_555
Mn23 N22 1.978166 1_555
Mn23 N7 2.388192 1_555
Mn24 N16 1.883543 1_455
Mn24 N32 1.890576 1_545
Mn24 N28 1.905960 1_555
Mn24 N20 1.946500 1_555
Mn25 N17 1.883543 1_655
Mn25 N33 1.890576 1_555
Mn25 N29 1.905960 1_555
Mn25 N21 1.946500 1_555
Mn26 N18 1.883543 1_655
Mn26 N34 1.890576 1_565
Mn26 N30 1.905960 1_555
Mn26 N22 1.946500 1_555
Mn27 N19 1.883543 1_455
Mn27 N35 1.890576 1_555
Mn27 N31 1.905960 1_555
Mn27 N23 1.946500 1_555
Mn28 N28 1.862697 1_555
Mn28 N9 1.897181 1_555
Mn28 N0 1.919829 1_555
Mn28 N20 2.398493 1_555
Mn29 N29 1.862697 1_555
Mn29 N8 1.897181 1_565
Mn29 N1 1.919829 1_555
Mn29 N21 2.398493 1_555
Mn30 N30 1.862697 1_555
Mn30 N11 1.897181 1_555
Mn30 N2 1.919829 1_555
Mn30 N22 2.398493 1_555
Mn31 N31 1.862697 1_555
Mn31 N10 1.897181 1_545
Mn31 N3 1.919829 1_555
Mn31 N23 2.398493 1_555
Mn32 N0 1.864967 1_555
Mn32 N11 1.875983 1_555
Mn32 N20 1.930168 1_655
Mn33 N1 1.864967 1_555
Mn33 N10 1.875983 1_556
Mn33 N21 1.930168 1_455
Mn34 N2 1.864967 1_555
Mn34 N9 1.875983 1_555
Mn34 N22 1.930168 1_455
Mn35 N3 1.864967 1_555
Mn35 N8 1.875983 1_554
Mn35 N23 1.930168 1_655
Ir0 N4 1.951560 1_555
Ir0 N32 1.988280 1_545
Ir1 N5 1.951560 1_555
Ir1 N33 1.988280 1_555
Ir2 N6 1.951560 1_555
Ir2 N34 1.988280 1_565
Ir3 N7 1.951544 1_555
Ir3 N35 1.988278 1_555
Ir4 N25 2.010556 1_555
Ir4 N30 2.015976 1_555
Ir4 N12 2.107040 1_555
Ir5 N24 2.010556 1_555
Ir5 N31 2.015976 1_556
Ir5 N13 2.107040 1_555
Ir6 N27 2.010556 1_555
Ir6 N28 2.015976 1_555
Ir6 N14 2.107040 1_555
Ir7 N26 2.010556 1_555
Ir7 N29 2.015976 1_554
Ir7 N15 2.107040 1_555
