# generated using pymatgen
data_KLaMg6
_symmetry_space_group_name_H-M   'P 1'
_cell_length_a   5.33559800
_cell_length_b   7.18989800
_cell_length_c   12.19121200
_cell_angle_alpha   90.00000000
_cell_angle_beta   90.00000000
_cell_angle_gamma   90.00000000
_symmetry_Int_Tables_number   1
_chemical_formula_structural   KLaMg6
_chemical_formula_sum   'K2 La2 Mg12'
_cell_volume   467.68421693
_cell_formula_units_Z   2
loop_
 _symmetry_equiv_pos_site_id
 _symmetry_equiv_pos_as_xyz
  1  'x, y, z'
loop_
 _atom_site_type_symbol
 _atom_site_label
 _atom_site_symmetry_multiplicity
 _atom_site_fract_x
 _atom_site_fract_y
 _atom_site_fract_z
 _atom_site_occupancy
  K  K0  1  0.50000000  0.00000000  0.82693900  1
  K  K1  1  0.50000000  0.50000000  0.32693900  1
  La  La0  1  0.50000000  0.00000000  0.34143300  1
  La  La1  1  0.50000000  0.50000000  0.84143300  1
  Mg  Mg0  1  0.50000000  0.26486200  0.58021200  1
  Mg  Mg1  1  0.50000000  0.73513800  0.58021200  1
  Mg  Mg2  1  0.00000000  0.24219900  0.43323800  1
  Mg  Mg3  1  0.00000000  0.75780100  0.43323800  1
  Mg  Mg4  1  0.00000000  0.00000000  0.64315900  1
  Mg  Mg5  1  0.00000000  0.00000000  0.16157400  1
  Mg  Mg6  1  0.50000000  0.76486200  0.08021200  1
  Mg  Mg7  1  0.50000000  0.23513800  0.08021200  1
  Mg  Mg8  1  0.00000000  0.74219900  0.93323800  1
  Mg  Mg9  1  0.00000000  0.25780100  0.93323800  1
  Mg  Mg10  1  0.00000000  0.50000000  0.14315900  1
  Mg  Mg11  1  0.00000000  0.50000000  0.66157400  1
loop_
_geom_bond_atom_site_label_1
_geom_bond_atom_site_label_2
_geom_bond_distance
_geom_bond_site_symmetry_2
K0 Mg4 3.483819 1_655
K0 Mg4 3.483819 1_555
K0 Mg9 3.497462 1_655
K0 Mg9 3.497462 1_555
K0 Mg8 3.497462 1_645
K0 Mg8 3.497462 1_545
K0 Mg7 3.520243 1_556
K0 Mg6 3.520243 1_546
K0 Mg1 3.560048 1_545
K0 Mg0 3.560048 1_555
K0 La1 3.599289 1_555
K0 La1 3.599289 1_545
K1 Mg10 3.483819 1_655
K1 Mg10 3.483819 1_555
K1 Mg2 3.497462 1_655
K1 Mg3 3.497462 1_555
K1 Mg3 3.497462 1_655
K1 Mg2 3.497462 1_555
K1 Mg1 3.520243 1_555
K1 Mg0 3.520243 1_555
K1 Mg6 3.560048 1_555
K1 Mg7 3.560048 1_555
K1 La0 3.599289 1_555
K1 La0 3.599289 1_565
La0 Mg3 3.376717 1_545
La0 Mg2 3.376717 1_555
La0 Mg3 3.376717 1_645
La0 Mg2 3.376717 1_655
La0 Mg5 3.453271 1_555
La0 Mg5 3.453271 1_655
La0 Mg0 3.478567 1_555
La0 Mg1 3.478567 1_545
La0 Mg7 3.605533 1_555
La0 Mg6 3.605533 1_545
La1 Mg8 3.376717 1_555
La1 Mg8 3.376717 1_655
La1 Mg9 3.376717 1_655
La1 Mg9 3.376717 1_555
La1 Mg11 3.453271 1_655
La1 Mg11 3.453271 1_555
La1 Mg6 3.478567 1_556
La1 Mg7 3.478567 1_556
La1 Mg0 3.605533 1_555
La1 Mg1 3.605533 1_555
Mg0 Mg2 3.217797 1_555
Mg0 Mg2 3.217797 1_655
Mg0 Mg11 3.310470 1_555
Mg0 Mg11 3.310470 1_655
Mg0 Mg4 3.366382 1_555
Mg0 Mg4 3.366382 1_655
Mg0 Mg1 3.381236 1_555
Mg1 Mg3 3.217797 1_555
Mg1 Mg3 3.217797 1_655
Mg1 Mg11 3.310470 1_555
Mg1 Mg11 3.310470 1_655
Mg1 Mg4 3.366382 1_565
Mg1 Mg4 3.366382 1_665
Mg2 Mg4 3.095462 1_555
Mg2 Mg3 3.482772 1_545
Mg3 Mg4 3.095462 1_565
Mg5 Mg7 3.310470 1_555
Mg5 Mg7 3.310470 1_455
Mg5 Mg6 3.310470 1_545
Mg5 Mg6 3.310470 1_445
Mg5 Mg9 3.344344 1_554
Mg5 Mg8 3.344344 1_544
Mg6 Mg8 3.217797 1_654
Mg6 Mg8 3.217797 1_554
Mg6 Mg7 3.381236 1_565
Mg7 Mg9 3.217797 1_554
Mg7 Mg9 3.217797 1_654
Mg8 Mg9 3.482772 1_555
Mg10 Mg8 3.095462 1_554
Mg10 Mg9 3.095462 1_554
Mg10 Mg6 3.366382 1_555
Mg10 Mg6 3.366382 1_455
Mg10 Mg7 3.366382 1_455
Mg10 Mg7 3.366382 1_555
Mg11 Mg2 3.344344 1_555
Mg11 Mg3 3.344344 1_555
