# generated using pymatgen
data_AgPt
_symmetry_space_group_name_H-M   'P 1'
_cell_length_a   5.59069151
_cell_length_b   5.59069150
_cell_length_c   10.02674323
_cell_angle_alpha   73.81206674
_cell_angle_beta   90.00000000
_cell_angle_gamma   120.00000008
_symmetry_Int_Tables_number   1
_chemical_formula_structural   AgPt
_chemical_formula_sum   'Ag8 Pt8'
_cell_volume   256.95969216
_cell_formula_units_Z   8
loop_
 _symmetry_equiv_pos_site_id
 _symmetry_equiv_pos_as_xyz
  1  'x, y, z'
loop_
 _atom_site_type_symbol
 _atom_site_label
 _atom_site_symmetry_multiplicity
 _atom_site_fract_x
 _atom_site_fract_y
 _atom_site_fract_z
 _atom_site_occupancy
  Ag  Ag0_0  1  0.00000000  0.00000000  0.00000000  1
  Ag  Ag0_1  1  0.00000000  0.00000000  0.50000000  1
  Ag  Ag0_2  1  0.00000000  0.50000000  0.00000000  1
  Ag  Ag0_3  1  0.00000000  0.50000000  0.50000000  1
  Ag  Ag0_4  1  0.50000000  1.00000000  0.00000000  1
  Ag  Ag0_5  1  0.50000000  1.00000000  0.50000000  1
  Ag  Ag0_6  1  0.50000000  0.50000000  0.00000000  1
  Ag  Ag0_7  1  0.50000000  0.50000000  0.50000000  1
  Pt  Pt0_0  1  0.25000000  0.00000000  0.25000000  1
  Pt  Pt0_1  1  0.25000000  0.00000000  0.75000000  1
  Pt  Pt0_2  1  0.25000000  0.50000000  0.25000000  1
  Pt  Pt0_3  1  0.25000000  0.50000000  0.75000000  1
  Pt  Pt0_4  1  0.75000000  1.00000000  0.25000000  1
  Pt  Pt0_5  1  0.75000000  1.00000000  0.75000000  1
  Pt  Pt0_6  1  0.75000000  0.50000000  0.25000000  1
  Pt  Pt0_7  1  0.75000000  0.50000000  0.75000000  1
loop_
_geom_bond_atom_site_label_1
_geom_bond_atom_site_label_2
_geom_bond_distance
_geom_bond_site_symmetry_2
Ag0_0 Ag0_6 2.795346 1_555
Ag0_0 Ag0_2 2.795346 1_545
Ag0_0 Ag0_2 2.795346 1_555
Ag0_0 Ag0_6 2.795346 1_445
Ag0_0 Ag0_4 2.795346 1_445
Ag0_0 Ag0_4 2.795346 1_545
Ag0_0 Pt0_4 2.870011 1_445
Ag0_0 Pt0_1 2.870011 1_554
Ag0_0 Pt0_5 2.870011 1_444
Ag0_0 Pt0_0 2.870011 1_555
Ag0_0 Pt0_6 2.870011 1_445
Ag0_0 Pt0_3 2.870011 1_554
Ag0_1 Ag0_3 2.795346 1_545
Ag0_1 Ag0_7 2.795346 1_555
Ag0_1 Ag0_7 2.795346 1_445
Ag0_1 Ag0_3 2.795346 1_555
Ag0_1 Ag0_5 2.795346 1_445
Ag0_1 Ag0_5 2.795346 1_545
Ag0_1 Pt0_1 2.870011 1_555
Ag0_1 Pt0_0 2.870011 1_555
Ag0_1 Pt0_5 2.870011 1_445
Ag0_1 Pt0_4 2.870011 1_445
Ag0_1 Pt0_7 2.870011 1_445
Ag0_1 Pt0_2 2.870011 1_555
Ag0_2 Ag0_4 2.795346 1_555
Ag0_2 Ag0_4 2.795346 1_445
Ag0_2 Ag0_6 2.795346 1_555
Ag0_2 Ag0_6 2.795346 1_455
Ag0_2 Pt0_6 2.870011 1_455
Ag0_2 Pt0_2 2.870011 1_555
Ag0_2 Pt0_3 2.870011 1_554
Ag0_2 Pt0_7 2.870011 1_454
Ag0_2 Pt0_4 2.870011 1_445
Ag0_2 Pt0_1 2.870011 1_564
Ag0_3 Ag0_5 2.795346 1_555
Ag0_3 Ag0_5 2.795346 1_445
Ag0_3 Ag0_7 2.795346 1_455
Ag0_3 Ag0_7 2.795346 1_555
Ag0_3 Pt0_7 2.870011 1_455
Ag0_3 Pt0_3 2.870011 1_555
Ag0_3 Pt0_6 2.870011 1_455
Ag0_3 Pt0_2 2.870011 1_555
Ag0_3 Pt0_0 2.870011 1_565
Ag0_3 Pt0_5 2.870011 1_445
Ag0_4 Ag0_6 2.795346 1_555
Ag0_4 Ag0_6 2.795346 1_565
Ag0_4 Pt0_4 2.870011 1_555
Ag0_4 Pt0_1 2.870011 1_564
Ag0_4 Pt0_5 2.870011 1_554
Ag0_4 Pt0_0 2.870011 1_565
Ag0_4 Pt0_2 2.870011 1_555
Ag0_4 Pt0_7 2.870011 1_564
Ag0_5 Ag0_7 2.795346 1_555
Ag0_5 Ag0_7 2.795346 1_565
Ag0_5 Pt0_0 2.870011 1_565
Ag0_5 Pt0_5 2.870011 1_555
Ag0_5 Pt0_4 2.870011 1_555
Ag0_5 Pt0_1 2.870011 1_565
Ag0_5 Pt0_3 2.870011 1_555
Ag0_5 Pt0_6 2.870011 1_565
Ag0_6 Pt0_6 2.870011 1_555
Ag0_6 Pt0_2 2.870011 1_555
Ag0_6 Pt0_3 2.870011 1_554
Ag0_6 Pt0_7 2.870011 1_554
Ag0_6 Pt0_5 2.870011 1_554
Ag0_6 Pt0_0 2.870011 1_555
Ag0_7 Pt0_7 2.870011 1_555
Ag0_7 Pt0_3 2.870011 1_555
Ag0_7 Pt0_6 2.870011 1_555
Ag0_7 Pt0_2 2.870011 1_555
Ag0_7 Pt0_1 2.870011 1_555
Ag0_7 Pt0_4 2.870011 1_555
Pt0_0 Pt0_2 2.795346 1_555
Pt0_0 Pt0_6 2.795346 1_555
Pt0_0 Pt0_2 2.795346 1_545
Pt0_0 Pt0_6 2.795346 1_445
Pt0_0 Pt0_4 2.795346 1_445
Pt0_0 Pt0_4 2.795346 1_545
Pt0_1 Pt0_7 2.795346 1_555
Pt0_1 Pt0_3 2.795346 1_555
Pt0_1 Pt0_3 2.795346 1_545
Pt0_1 Pt0_7 2.795346 1_445
Pt0_1 Pt0_5 2.795346 1_445
Pt0_1 Pt0_5 2.795346 1_545
Pt0_2 Pt0_4 2.795346 1_555
Pt0_2 Pt0_4 2.795346 1_445
Pt0_2 Pt0_6 2.795346 1_455
Pt0_2 Pt0_6 2.795346 1_555
Pt0_3 Pt0_5 2.795346 1_445
Pt0_3 Pt0_5 2.795346 1_555
Pt0_3 Pt0_7 2.795346 1_455
Pt0_3 Pt0_7 2.795346 1_555
Pt0_4 Pt0_6 2.795346 1_555
Pt0_4 Pt0_6 2.795346 1_565
Pt0_5 Pt0_7 2.795346 1_555
Pt0_5 Pt0_7 2.795346 1_565
