# generated using pymatgen
data_NaLaNb2O7
_symmetry_space_group_name_H-M   'P 1'
_cell_length_a   3.93106900
_cell_length_b   3.93106900
_cell_length_c   11.18403110
_cell_angle_alpha   79.87800305
_cell_angle_beta   79.87800305
_cell_angle_gamma   90.00000000
_symmetry_Int_Tables_number   1
_chemical_formula_structural   NaLaNb2O7
_chemical_formula_sum   'Na1 La1 Nb2 O7'
_cell_volume   167.40707379
_cell_formula_units_Z   1
loop_
 _symmetry_equiv_pos_site_id
 _symmetry_equiv_pos_as_xyz
  1  'x, y, z'
loop_
 _atom_site_type_symbol
 _atom_site_label
 _atom_site_symmetry_multiplicity
 _atom_site_fract_x
 _atom_site_fract_y
 _atom_site_fract_z
 _atom_site_occupancy
  Na  Na0  1  0.75000000  0.25000000  0.50000000  1
  La  La0  1  0.00000000  0.00000000  0.00000000  1
  Nb  Nb0  1  0.39345700  0.39345700  0.21308600  1
  Nb  Nb1  1  0.60654300  0.60654300  0.78691400  1
  O  O0  1  0.58643100  0.08643100  0.82713700  1
  O  O1  1  0.08565200  0.58565200  0.82869500  1
  O  O2  1  0.41434800  0.91434800  0.17130500  1
  O  O3  1  0.91356900  0.41356900  0.17286300  1
  O  O4  1  0.31004800  0.31004800  0.37990500  1
  O  O5  1  0.68995200  0.68995200  0.62009500  1
  O  O6  1  0.50000000  0.50000000  0.00000000  1
loop_
_geom_bond_atom_site_label_1
_geom_bond_atom_site_label_2
_geom_bond_distance
_geom_bond_site_symmetry_2
Na0 O5 2.357100 1_555
Na0 O4 2.357100 1_555
Na0 O5 2.357103 1_545
Na0 O4 2.357103 1_655
La0 O2 2.703179 1_445
La0 O1 2.703179 1_554
La0 O2 2.703181 1_545
La0 O1 2.703181 1_544
La0 O0 2.714793 1_554
La0 O3 2.714793 1_445
La0 O3 2.714796 1_455
La0 O0 2.714796 1_454
La0 O6 2.779686 1_555
La0 O6 2.779686 1_545
La0 O6 2.779686 1_445
La0 O6 2.779686 1_455
Nb0 O4 1.807166 1_555
Nb0 O3 2.013253 1_455
Nb0 O3 2.013257 1_555
Nb0 O2 2.016973 1_545
Nb0 O2 2.016977 1_555
Nb0 O6 2.308380 1_555
Nb1 O5 1.807166 1_555
Nb1 O0 2.013253 1_565
Nb1 O0 2.013257 1_555
Nb1 O1 2.016973 1_655
Nb1 O1 2.016977 1_555
Nb1 O6 2.308380 1_556
