# generated using pymatgen
data_KMg14BiO16
_symmetry_space_group_name_H-M   'P 1'
_cell_length_a   8.72028155
_cell_length_b   8.93740147
_cell_length_c   4.47048991
_cell_angle_alpha   90.00000000
_cell_angle_beta   90.00000000
_cell_angle_gamma   90.00000000
_symmetry_Int_Tables_number   1
_chemical_formula_structural   KMg14BiO16
_chemical_formula_sum   'K1 Mg14 Bi1 O16'
_cell_volume   348.41503938
_cell_formula_units_Z   1
loop_
 _symmetry_equiv_pos_site_id
 _symmetry_equiv_pos_as_xyz
  1  'x, y, z'
loop_
 _atom_site_type_symbol
 _atom_site_label
 _atom_site_symmetry_multiplicity
 _atom_site_fract_x
 _atom_site_fract_y
 _atom_site_fract_z
 _atom_site_occupancy
  K  K0  1  -0.00000000  0.00000000  0.00000000  1
  Mg  Mg0  1  0.50000000  0.00000000  0.00000000  1
  Mg  Mg1  1  0.50000000  0.50000000  0.00000000  1
  Mg  Mg2  1  -0.00000000  0.23247483  0.50000000  1
  Mg  Mg3  1  -0.00000000  0.76752517  0.50000000  1
  Mg  Mg4  1  0.50000000  0.24652328  0.50000000  1
  Mg  Mg5  1  0.50000000  0.75347672  0.50000000  1
  Mg  Mg6  1  0.25377479  0.00000000  0.50000000  1
  Mg  Mg7  1  0.26392313  0.50000000  0.50000000  1
  Mg  Mg8  1  0.74622521  0.00000000  0.50000000  1
  Mg  Mg9  1  0.73607687  0.50000000  0.50000000  1
  Mg  Mg10  1  0.25896184  0.24014724  0.00000000  1
  Mg  Mg11  1  0.25896184  0.75985276  -0.00000000  1
  Mg  Mg12  1  0.74103816  0.24014724  0.00000000  1
  Mg  Mg13  1  0.74103816  0.75985276  -0.00000000  1
  Bi  Bi0  1  -0.00000000  0.50000000  0.00000000  1
  O  O0  1  0.27651354  0.00000000  -0.00000000  1
  O  O1  1  0.26912104  0.50000000  -0.00000000  1
  O  O2  1  0.72348646  0.00000000  0.00000000  1
  O  O3  1  0.73087896  0.50000000  0.00000000  1
  O  O4  1  0.25012731  0.25135232  0.50000000  1
  O  O5  1  0.25012731  0.74864768  0.50000000  1
  O  O6  1  0.74987269  0.25135232  0.50000000  1
  O  O7  1  0.74987269  0.74864768  0.50000000  1
  O  O8  1  -0.00000000  0.00000000  0.50000000  1
  O  O9  1  -0.00000000  0.50000000  0.50000000  1
  O  O10  1  0.50000000  0.00000000  0.50000000  1
  O  O11  1  0.50000000  0.50000000  0.50000000  1
  O  O12  1  -0.00000000  0.25352794  0.00000000  1
  O  O13  1  -0.00000000  0.74647206  0.00000000  1
  O  O14  1  0.50000000  0.25328168  -0.00000000  1
  O  O15  1  0.50000000  0.74671832  0.00000000  1
loop_
_geom_bond_atom_site_label_1
_geom_bond_atom_site_label_2
_geom_bond_distance
_geom_bond_site_symmetry_2
K0 O8 2.235245 1_554
K0 O8 2.235245 1_555
K0 O13 2.265881 1_545
K0 O12 2.265881 1_555
K0 O2 2.411276 1_455
K0 O0 2.411276 1_555
Mg0 O0 1.948865 1_555
Mg0 O2 1.948865 1_555
Mg0 O10 2.235245 1_555
Mg0 O10 2.235245 1_554
Mg0 O15 2.263680 1_545
Mg0 O14 2.263680 1_555
Mg1 O3 2.013330 1_555
Mg1 O1 2.013330 1_555
Mg1 O14 2.205021 1_555
Mg1 O15 2.205021 1_555
Mg1 O11 2.235245 1_554
Mg1 O11 2.235245 1_555
Mg2 O8 2.077721 1_555
Mg2 O4 2.187696 1_555
Mg2 O6 2.187696 1_455
Mg2 O12 2.243151 1_556
Mg2 O12 2.243151 1_555
Mg2 O9 2.390980 1_555
Mg3 O8 2.077721 1_565
Mg3 O7 2.187696 1_455
Mg3 O5 2.187696 1_555
Mg3 O13 2.243151 1_556
Mg3 O13 2.243151 1_555
Mg3 O9 2.390980 1_555
Mg4 O4 2.179388 1_555
Mg4 O6 2.179388 1_555
Mg4 O10 2.203278 1_555
Mg4 O14 2.236061 1_556
Mg4 O14 2.236061 1_555
Mg4 O11 2.265423 1_555
Mg5 O5 2.179388 1_555
Mg5 O7 2.179388 1_555
Mg5 O10 2.203278 1_565
Mg5 O15 2.236061 1_556
Mg5 O15 2.236061 1_555
Mg5 O11 2.265423 1_555
Mg6 O10 2.147153 1_555
Mg6 O8 2.212988 1_555
Mg6 O0 2.244023 1_555
Mg6 O0 2.244023 1_556
Mg6 O5 2.246662 1_545
Mg6 O4 2.246662 1_555
Mg7 O11 2.058657 1_555
Mg7 O4 2.225518 1_555
Mg7 O5 2.225518 1_555
Mg7 O1 2.235704 1_555
Mg7 O1 2.235704 1_556
Mg7 O9 2.301484 1_555
Mg8 O10 2.147153 1_555
Mg8 O8 2.212988 1_655
Mg8 O2 2.244023 1_556
Mg8 O2 2.244023 1_555
Mg8 O7 2.246662 1_545
Mg8 O6 2.246662 1_555
Mg9 O11 2.058657 1_555
Mg9 O6 2.225518 1_555
Mg9 O7 2.225518 1_555
Mg9 O3 2.235704 1_556
Mg9 O3 2.235704 1_555
Mg9 O9 2.301484 1_655
Mg10 O14 2.105196 1_555
Mg10 O0 2.151743 1_555
Mg10 O4 2.238813 1_554
Mg10 O4 2.238813 1_555
Mg10 O12 2.261384 1_555
Mg10 O1 2.324098 1_555
Mg11 O15 2.105196 1_555
Mg11 O0 2.151743 1_565
Mg11 O5 2.238813 1_555
Mg11 O5 2.238813 1_554
Mg11 O13 2.261384 1_555
Mg11 O1 2.324098 1_555
Mg12 O14 2.105196 1_555
Mg12 O2 2.151743 1_555
Mg12 O6 2.238813 1_555
Mg12 O6 2.238813 1_554
Mg12 O12 2.261384 1_655
Mg12 O3 2.324098 1_555
Mg13 O15 2.105196 1_555
Mg13 O2 2.151743 1_565
Mg13 O7 2.238813 1_555
Mg13 O7 2.238813 1_554
Mg13 O13 2.261384 1_655
Mg13 O3 2.324098 1_555
Bi0 O12 2.202820 1_555
Bi0 O13 2.202820 1_555
Bi0 O9 2.235245 1_555
Bi0 O9 2.235245 1_554
Bi0 O1 2.346811 1_555
Bi0 O3 2.346811 1_455
