# generated using pymatgen
data_HgPd5Se
_symmetry_space_group_name_H-M   'P 1'
_cell_length_a   4.04640941
_cell_length_b   4.04640941
_cell_length_c   7.12557664
_cell_angle_alpha   90.00000000
_cell_angle_beta   90.00000000
_cell_angle_gamma   90.00000000
_symmetry_Int_Tables_number   1
_chemical_formula_structural   HgPd5Se
_chemical_formula_sum   'Hg1 Pd5 Se1'
_cell_volume   116.67012401
_cell_formula_units_Z   1
loop_
 _symmetry_equiv_pos_site_id
 _symmetry_equiv_pos_as_xyz
  1  'x, y, z'
loop_
 _atom_site_type_symbol
 _atom_site_label
 _atom_site_symmetry_multiplicity
 _atom_site_fract_x
 _atom_site_fract_y
 _atom_site_fract_z
 _atom_site_occupancy
  Hg  Hg0  1  0.50000000  0.50000000  -0.00000000  1
  Pd  Pd0  1  0.00000000  -0.00000000  -0.00000000  1
  Pd  Pd1  1  0.50000000  0.00000000  0.71339049  1
  Pd  Pd2  1  -0.00000000  0.50000000  0.71339049  1
  Pd  Pd3  1  0.50000000  -0.00000000  0.28660951  1
  Pd  Pd4  1  0.00000000  0.50000000  0.28660951  1
  Se  Se0  1  0.00000000  -0.00000000  0.50000000  1
loop_
_geom_bond_atom_site_label_1
_geom_bond_atom_site_label_2
_geom_bond_distance
_geom_bond_site_symmetry_2
Hg0 Pd0 2.861244 1_565
Hg0 Pd0 2.861244 1_665
Hg0 Pd0 2.861244 1_655
Hg0 Pd0 2.861244 1_555
Hg0 Pd4 2.874748 1_555
Hg0 Pd4 2.874748 1_655
Hg0 Pd2 2.874748 1_654
Hg0 Pd3 2.874748 1_555
Hg0 Pd3 2.874748 1_565
Hg0 Pd1 2.874748 1_554
Hg0 Pd2 2.874748 1_554
Hg0 Pd1 2.874748 1_564
Pd0 Pd4 2.874748 1_555
Pd0 Pd1 2.874748 1_454
Pd0 Pd4 2.874748 1_545
Pd0 Pd3 2.874748 1_555
Pd0 Pd2 2.874748 1_544
Pd0 Pd1 2.874748 1_554
Pd0 Pd2 2.874748 1_554
Pd0 Pd3 2.874748 1_455
Pd1 Se0 2.530883 1_555
Pd1 Se0 2.530883 1_655
Pd2 Se0 2.530883 1_555
Pd2 Se0 2.530883 1_565
Pd3 Se0 2.530883 1_555
Pd3 Se0 2.530883 1_655
Pd4 Se0 2.530883 1_555
Pd4 Se0 2.530883 1_565
