# generated using pymatgen
data_LiLaO2
_symmetry_space_group_name_H-M   'P 1'
_cell_length_a   6.23922600
_cell_length_b   5.89516300
_cell_length_c   5.92689458
_cell_angle_alpha   77.10286514
_cell_angle_beta   90.00000000
_cell_angle_gamma   90.00000000
_symmetry_Int_Tables_number   1
_chemical_formula_structural   LiLaO2
_chemical_formula_sum   'Li4 La4 O8'
_cell_volume   212.49902529
_cell_formula_units_Z   4
loop_
 _symmetry_equiv_pos_site_id
 _symmetry_equiv_pos_as_xyz
  1  'x, y, z'
loop_
 _atom_site_type_symbol
 _atom_site_label
 _atom_site_symmetry_multiplicity
 _atom_site_fract_x
 _atom_site_fract_y
 _atom_site_fract_z
 _atom_site_occupancy
  Li  Li0  1  0.63885800  0.32701800  0.65492500  1
  Li  Li1  1  0.13885800  0.17298200  0.34507500  1
  Li  Li2  1  0.36114200  0.67298200  0.34507500  1
  Li  Li3  1  0.86114200  0.82701800  0.65492500  1
  La  La0  1  0.56843700  0.19421500  0.20000800  1
  La  La1  1  0.06843700  0.30578500  0.79999200  1
  La  La2  1  0.43156300  0.80578500  0.79999200  1
  La  La3  1  0.93156300  0.69421500  0.20000800  1
  O  O0  1  0.76063300  0.01337400  0.91294000  1
  O  O1  1  0.26063300  0.48662600  0.08706000  1
  O  O2  1  0.23936700  0.98662600  0.08706000  1
  O  O3  1  0.73936700  0.51337400  0.91294000  1
  O  O4  1  0.63217900  0.79168100  0.42817900  1
  O  O5  1  0.13217900  0.70831900  0.57182100  1
  O  O6  1  0.36782100  0.20831900  0.57182100  1
  O  O7  1  0.86782100  0.29168100  0.42817900  1
loop_
_geom_bond_atom_site_label_1
_geom_bond_atom_site_label_2
_geom_bond_distance
_geom_bond_site_symmetry_2
Li0 O6 1.935407 1_555
Li0 O7 2.003796 1_555
Li0 O3 2.165334 1_555
Li0 O0 2.252184 1_555
Li1 O7 1.935407 1_455
Li1 O6 2.003796 1_555
Li1 O2 2.165334 1_545
Li1 O1 2.252184 1_555
Li2 O4 1.935407 1_555
Li2 O5 2.003796 1_555
Li2 O1 2.165334 1_555
Li2 O2 2.252184 1_555
Li3 O5 1.935407 1_655
Li3 O4 2.003796 1_555
Li3 O0 2.165334 1_565
Li3 O3 2.252184 1_555
La0 O7 2.448466 1_555
La0 O3 2.478545 1_554
La0 O4 2.487085 1_545
La0 O0 2.505806 1_554
La0 O6 2.551805 1_555
La0 O2 2.554770 1_545
La0 O1 2.567623 1_555
La1 O6 2.448466 1_555
La1 O2 2.478545 1_546
La1 O5 2.487085 1_555
La1 O1 2.505806 1_556
La1 O7 2.551805 1_455
La1 O3 2.554770 1_455
La1 O0 2.567623 1_455
La2 O5 2.448466 1_555
La2 O1 2.478545 1_556
La2 O6 2.487085 1_565
La2 O2 2.505806 1_556
La2 O4 2.551805 1_555
La2 O0 2.554770 1_565
La2 O3 2.567623 1_555
La3 O4 2.448466 1_555
La3 O0 2.478545 1_564
La3 O7 2.487085 1_555
La3 O3 2.505806 1_554
La3 O5 2.551805 1_655
La3 O1 2.554770 1_655
La3 O2 2.567623 1_655
