# generated using pymatgen
data_Rb
_symmetry_space_group_name_H-M   'P 1'
_cell_length_a   10.28523021
_cell_length_b   10.28086875
_cell_length_c   17.59503727
_cell_angle_alpha   82.68175631
_cell_angle_beta   83.36339542
_cell_angle_gamma   122.00921581
_symmetry_Int_Tables_number   1
_chemical_formula_structural   Rb
_chemical_formula_sum   Rb16
_cell_volume   1527.27148107
_cell_formula_units_Z   16
loop_
 _symmetry_equiv_pos_site_id
 _symmetry_equiv_pos_as_xyz
  1  'x, y, z'
loop_
 _atom_site_type_symbol
 _atom_site_label
 _atom_site_symmetry_multiplicity
 _atom_site_fract_x
 _atom_site_fract_y
 _atom_site_fract_z
 _atom_site_occupancy
  Rb  Rb0_0  1  0.06202151  0.17960206  0.37590565  1
  Rb  Rb0_1  1  0.06202151  0.17960205  0.87590565  1
  Rb  Rb0_2  1  0.06202151  0.67960205  0.37590565  1
  Rb  Rb0_3  1  0.06202151  0.67960205  0.87590565  1
  Rb  Rb0_4  1  0.56202151  0.17960205  0.37590565  1
  Rb  Rb0_5  1  0.56202151  0.17960206  0.87590565  1
  Rb  Rb0_6  1  0.56202151  0.67960205  0.37590565  1
  Rb  Rb0_7  1  0.56202151  0.67960206  0.87590565  1
  Rb  Rb1_0  1  0.42894649  0.30738894  0.12556435  1
  Rb  Rb1_1  1  0.42894649  0.30738895  0.62556435  1
  Rb  Rb1_2  1  0.42894649  0.80738894  0.12556435  1
  Rb  Rb1_3  1  0.42894649  0.80738894  0.62556435  1
  Rb  Rb1_4  1  0.92894649  0.30738894  0.12556435  1
  Rb  Rb1_5  1  0.92894649  0.30738894  0.62556435  1
  Rb  Rb1_6  1  0.92894649  0.80738894  0.12556435  1
  Rb  Rb1_7  1  0.92894649  0.80738894  0.62556435  1
loop_
_geom_bond_atom_site_label_1
_geom_bond_atom_site_label_2
_geom_bond_distance
_geom_bond_site_symmetry_2
Rb0_0 Rb1_7 4.958678 1_445
Rb0_0 Rb1_0 4.979725 1_555
Rb0_0 Rb1_4 4.982649 1_455
Rb0_0 Rb0_6 4.984598 1_555
Rb0_0 Rb0_6 4.984598 1_445
Rb0_0 Rb1_5 4.988222 1_455
Rb0_0 Rb0_2 5.140434 1_555
Rb0_0 Rb0_2 5.140434 1_545
Rb0_0 Rb0_4 5.142615 1_555
Rb0_0 Rb0_4 5.142615 1_455
Rb0_1 Rb1_6 4.958678 1_446
Rb0_1 Rb1_1 4.979725 1_555
Rb0_1 Rb1_5 4.982649 1_455
Rb0_1 Rb0_7 4.984598 1_555
Rb0_1 Rb0_7 4.984598 1_445
Rb0_1 Rb1_4 4.988222 1_456
Rb0_1 Rb0_3 5.140434 1_555
Rb0_1 Rb0_3 5.140434 1_545
Rb0_1 Rb0_5 5.142615 1_555
Rb0_1 Rb0_5 5.142615 1_455
Rb0_2 Rb1_5 4.958678 1_455
Rb0_2 Rb1_2 4.979725 1_555
Rb0_2 Rb1_6 4.982649 1_455
Rb0_2 Rb0_4 4.984598 1_565
Rb0_2 Rb0_4 4.984598 1_455
Rb0_2 Rb1_7 4.988222 1_455
Rb0_2 Rb0_6 5.142615 1_555
Rb0_2 Rb0_6 5.142615 1_455
Rb0_3 Rb1_4 4.958678 1_456
Rb0_3 Rb1_3 4.979725 1_555
Rb0_3 Rb1_7 4.982649 1_455
Rb0_3 Rb0_5 4.984598 1_455
Rb0_3 Rb0_5 4.984598 1_565
Rb0_3 Rb1_6 4.988222 1_456
Rb0_3 Rb0_7 5.142615 1_555
Rb0_3 Rb0_7 5.142615 1_455
Rb0_4 Rb1_3 4.958678 1_545
Rb0_4 Rb1_4 4.979725 1_555
Rb0_4 Rb1_0 4.982649 1_555
Rb0_4 Rb1_1 4.988222 1_555
Rb0_4 Rb0_6 5.140434 1_555
Rb0_4 Rb0_6 5.140434 1_545
Rb0_5 Rb1_2 4.958678 1_546
Rb0_5 Rb1_5 4.979725 1_555
Rb0_5 Rb1_1 4.982649 1_555
Rb0_5 Rb1_0 4.988222 1_556
Rb0_5 Rb0_7 5.140434 1_545
Rb0_5 Rb0_7 5.140434 1_555
Rb0_6 Rb1_1 4.958678 1_555
Rb0_6 Rb1_6 4.979725 1_555
Rb0_6 Rb1_2 4.982649 1_555
Rb0_6 Rb1_3 4.988222 1_555
Rb0_7 Rb1_0 4.958678 1_556
Rb0_7 Rb1_7 4.979725 1_555
Rb0_7 Rb1_3 4.982649 1_555
Rb0_7 Rb1_2 4.988222 1_556
Rb1_0 Rb1_6 4.984598 1_555
Rb1_0 Rb1_6 4.984598 1_445
Rb1_0 Rb1_2 5.140434 1_545
Rb1_0 Rb1_2 5.140434 1_555
Rb1_0 Rb1_4 5.142615 1_555
Rb1_0 Rb1_4 5.142615 1_455
Rb1_1 Rb1_7 4.984598 1_555
Rb1_1 Rb1_7 4.984598 1_445
Rb1_1 Rb1_3 5.140434 1_555
Rb1_1 Rb1_3 5.140434 1_545
Rb1_1 Rb1_5 5.142615 1_555
Rb1_1 Rb1_5 5.142615 1_455
Rb1_2 Rb1_4 4.984598 1_455
Rb1_2 Rb1_4 4.984598 1_565
Rb1_2 Rb1_6 5.142615 1_555
Rb1_2 Rb1_6 5.142615 1_455
Rb1_3 Rb1_5 4.984598 1_455
Rb1_3 Rb1_5 4.984598 1_565
Rb1_3 Rb1_7 5.142615 1_455
Rb1_3 Rb1_7 5.142615 1_555
Rb1_4 Rb1_6 5.140434 1_555
Rb1_4 Rb1_6 5.140434 1_545
Rb1_5 Rb1_7 5.140434 1_555
Rb1_5 Rb1_7 5.140434 1_545
