# generated using pymatgen
data_LiZr2(AsO4)3
_symmetry_space_group_name_H-M   'P 1'
_cell_length_a   9.33996000
_cell_length_b   9.30935800
_cell_length_c   15.91503228
_cell_angle_alpha   54.83565605
_cell_angle_beta   90.00000000
_cell_angle_gamma   90.00000000
_symmetry_Int_Tables_number   1
_chemical_formula_structural   LiZr2(AsO4)3
_chemical_formula_sum   'Li4 Zr8 As12 O48'
_cell_volume   1131.25854553
_cell_formula_units_Z   4
loop_
 _symmetry_equiv_pos_site_id
 _symmetry_equiv_pos_as_xyz
  1  'x, y, z'
loop_
 _atom_site_type_symbol
 _atom_site_label
 _atom_site_symmetry_multiplicity
 _atom_site_fract_x
 _atom_site_fract_y
 _atom_site_fract_z
 _atom_site_occupancy
  Li  Li0  1  0.71667200  0.97456900  0.82662300  1
  Li  Li1  1  0.78332800  0.97456900  0.32662300  1
  Li  Li2  1  0.28332800  0.02543100  0.17337700  1
  Li  Li3  1  0.21667200  0.02543100  0.67337700  1
  Zr  Zr0  1  0.96124000  0.14267800  0.11222100  1
  Zr  Zr1  1  0.53876000  0.14267800  0.61222100  1
  Zr  Zr2  1  0.03876000  0.85732200  0.88777900  1
  Zr  Zr3  1  0.46124000  0.85732200  0.38777900  1
  Zr  Zr4  1  0.52247300  0.37008700  0.87945500  1
  Zr  Zr5  1  0.97752700  0.37008700  0.37945500  1
  Zr  Zr6  1  0.47752700  0.62991300  0.12054500  1
  Zr  Zr7  1  0.02247300  0.62991300  0.62054500  1
  As  As0  1  0.60326900  0.96677400  0.14447100  1
  As  As1  1  0.89673100  0.96677400  0.64447100  1
  As  As2  1  0.39673100  0.03322600  0.85552900  1
  As  As3  1  0.10326900  0.03322600  0.35552900  1
  As  As4  1  0.87752800  0.24528400  0.85445100  1
  As  As5  1  0.62247200  0.24528400  0.35445100  1
  As  As6  1  0.12247200  0.75471600  0.14554900  1
  As  As7  1  0.37752800  0.75471600  0.64554900  1
  As  As8  1  0.75219200  0.54034300  0.99078600  1
  As  As9  1  0.74780800  0.54034300  0.49078600  1
  As  As10  1  0.24780800  0.45965700  0.00921400  1
  As  As11  1  0.25219200  0.45965700  0.50921400  1
  O  O0  1  0.91979300  0.17041900  0.97818800  1
  O  O1  1  0.58020700  0.17041900  0.47818800  1
  O  O2  1  0.08020700  0.82958100  0.02181200  1
  O  O3  1  0.41979300  0.82958100  0.52181200  1
  O  O4  1  0.76493800  0.00552000  0.18053700  1
  O  O5  1  0.73506200  0.00552000  0.68053700  1
  O  O6  1  0.23506200  0.99448000  0.81946300  1
  O  O7  1  0.26493800  0.99448000  0.31946300  1
  O  O8  1  0.87925300  0.38363300  0.06130000  1
  O  O9  1  0.62074700  0.38363300  0.56130000  1
  O  O10  1  0.12074700  0.61636700  0.93870000  1
  O  O11  1  0.37925300  0.61636700  0.43870000  1
  O  O12  1  0.09720800  0.92195800  0.16051500  1
  O  O13  1  0.40279200  0.92195800  0.66051500  1
  O  O14  1  0.90279200  0.07804200  0.83948500  1
  O  O15  1  0.59720800  0.07804200  0.33948500  1
  O  O16  1  0.97625600  0.07025800  0.26637700  1
  O  O17  1  0.52374400  0.07025800  0.76637700  1
  O  O18  1  0.02374400  0.92974200  0.73362300  1
  O  O19  1  0.47625600  0.92974200  0.23362300  1
  O  O20  1  0.17185200  0.25304400  0.08098800  1
  O  O21  1  0.32814800  0.25304400  0.58098800  1
  O  O22  1  0.82814800  0.74695600  0.91901200  1
  O  O23  1  0.67185200  0.74695600  0.41901200  1
  O  O24  1  0.54153000  0.14876700  0.03319100  1
  O  O25  1  0.95847000  0.14876700  0.53319100  1
  O  O26  1  0.45847000  0.85123300  0.96680900  1
  O  O27  1  0.04153000  0.85123300  0.46680900  1
  O  O28  1  0.69834900  0.28655200  0.83519300  1
  O  O29  1  0.80165100  0.28655200  0.33519300  1
  O  O30  1  0.30165100  0.71344800  0.16480700  1
  O  O31  1  0.19834900  0.71344800  0.66480700  1
  O  O32  1  0.67163100  0.50720400  0.90765000  1
  O  O33  1  0.82836900  0.50720400  0.40765000  1
  O  O34  1  0.32836900  0.49279600  0.09235000  1
  O  O35  1  0.17163100  0.49279600  0.59235000  1
  O  O36  1  0.38364100  0.21111800  0.85945700  1
  O  O37  1  0.11635900  0.21111800  0.35945700  1
  O  O38  1  0.61635900  0.78888200  0.14054300  1
  O  O39  1  0.88364100  0.78888200  0.64054300  1
  O  O40  1  0.48512300  0.58226500  0.72645300  1
  O  O41  1  0.01487700  0.58226500  0.22645300  1
  O  O42  1  0.51487700  0.41773500  0.27354700  1
  O  O43  1  0.98512300  0.41773500  0.77354700  1
  O  O44  1  0.36164500  0.46632100  0.92402400  1
  O  O45  1  0.13835500  0.46632100  0.42402400  1
  O  O46  1  0.63835500  0.53367900  0.07597600  1
  O  O47  1  0.86164500  0.53367900  0.57597600  1
loop_
_geom_bond_atom_site_label_1
_geom_bond_atom_site_label_2
_geom_bond_distance
_geom_bond_site_symmetry_2
Li0 O17 1.994000 1_565
Li0 O22 2.036469 1_555
Li0 O14 2.053967 1_565
Li0 O5 2.178613 1_565
Li1 O16 1.994000 1_565
Li1 O23 2.036469 1_555
Li1 O15 2.053967 1_565
Li1 O4 2.178613 1_565
Li2 O19 1.994000 1_545
Li2 O20 2.036469 1_555
Li2 O12 2.053967 1_545
Li2 O7 2.178613 1_545
Li3 O18 1.994000 1_545
Li3 O21 2.036469 1_555
Li3 O13 2.053967 1_545
Li3 O6 2.178613 1_545
As0 O38 1.697245 1_555
As0 O24 1.698035 1_565
As0 O19 1.725075 1_555
As0 O4 1.725716 1_565
As1 O39 1.697245 1_555
As1 O25 1.698035 1_565
As1 O18 1.725075 1_655
As1 O5 1.725716 1_565
As2 O36 1.697245 1_555
As2 O26 1.698035 1_545
As2 O17 1.725075 1_555
As2 O6 1.725716 1_545
As3 O37 1.697245 1_555
As3 O27 1.698035 1_545
As3 O16 1.725075 1_455
As3 O7 1.725716 1_545
As4 O43 1.692371 1_555
As4 O28 1.704872 1_555
As4 O0 1.714274 1_555
As4 O14 1.721494 1_555
As5 O42 1.692371 1_555
As5 O29 1.704872 1_555
As5 O1 1.714274 1_555
As5 O15 1.721494 1_555
As6 O41 1.692371 1_555
As6 O30 1.704872 1_555
As6 O2 1.714274 1_555
As6 O12 1.721494 1_555
As7 O40 1.692371 1_555
As7 O31 1.704872 1_555
As7 O3 1.714274 1_555
As7 O13 1.721494 1_555
As8 O46 1.695768 1_556
As8 O32 1.697682 1_555
As8 O8 1.705953 1_556
As8 O22 1.725388 1_555
As9 O47 1.695768 1_555
As9 O33 1.697682 1_555
As9 O9 1.705953 1_555
As9 O23 1.725388 1_555
As10 O44 1.695768 1_554
As10 O34 1.697682 1_555
As10 O10 1.705953 1_554
As10 O20 1.725388 1_555
As11 O45 1.695768 1_555
As11 O35 1.697682 1_555
As11 O11 1.705953 1_555
As11 O21 1.725388 1_555
O0 Zr0 2.032806 1_556
O1 Zr1 2.032806 1_555
O2 Zr2 2.032806 1_554
O3 Zr3 2.032806 1_555
O4 Zr0 2.138914 1_555
O5 Zr1 2.138914 1_555
O6 Zr2 2.138914 1_555
O7 Zr3 2.138914 1_555
O8 Zr0 2.044727 1_555
O9 Zr1 2.044727 1_555
O10 Zr2 2.044727 1_555
O11 Zr3 2.044727 1_555
O12 Zr0 2.146259 1_465
O13 Zr1 2.146259 1_565
O14 Zr2 2.146259 1_645
O15 Zr3 2.146259 1_545
O16 Zr0 2.141997 1_555
O17 Zr1 2.141997 1_555
O18 Zr2 2.141997 1_555
O19 Zr3 2.141997 1_555
O20 Zr0 2.141018 1_455
O21 Zr1 2.141018 1_555
O22 Zr2 2.141018 1_655
O23 Zr3 2.141018 1_555
O24 Zr4 2.111058 1_554
O25 Zr5 2.111058 1_555
O26 Zr6 2.111058 1_556
O27 Zr7 2.111058 1_555
O28 Zr4 2.104838 1_555
O29 Zr5 2.104838 1_555
O30 Zr6 2.104838 1_555
O31 Zr7 2.104838 1_555
O32 Zr4 2.105066 1_555
O33 Zr5 2.105066 1_555
O34 Zr6 2.105066 1_555
O35 Zr7 2.105066 1_555
O36 Zr4 2.124927 1_555
O37 Zr5 2.124927 1_455
O38 Zr6 2.124927 1_555
O39 Zr7 2.124927 1_655
O40 Zr4 2.100601 1_555
O41 Zr5 2.100601 1_455
O42 Zr6 2.100601 1_555
O43 Zr7 2.100601 1_655
O44 Zr4 2.072213 1_555
O45 Zr5 2.072213 1_455
O46 Zr6 2.072213 1_555
O47 Zr7 2.072213 1_655
