# generated using pymatgen
data_Rb2Nd2Mg(WO4)4
_symmetry_space_group_name_H-M   'P 1'
_cell_length_a   7.60622789
_cell_length_b   8.36620631
_cell_length_c   7.54259997
_cell_angle_alpha   64.37263266
_cell_angle_beta   61.22714186
_cell_angle_gamma   87.71013077
_symmetry_Int_Tables_number   1
_chemical_formula_structural   Rb2Nd2Mg(WO4)4
_chemical_formula_sum   'Rb2 Nd2 Mg1 W4 O16'
_cell_volume   370.63382298
_cell_formula_units_Z   1
loop_
 _symmetry_equiv_pos_site_id
 _symmetry_equiv_pos_as_xyz
  1  'x, y, z'
loop_
 _atom_site_type_symbol
 _atom_site_label
 _atom_site_symmetry_multiplicity
 _atom_site_fract_x
 _atom_site_fract_y
 _atom_site_fract_z
 _atom_site_occupancy
  Rb  Rb0  1  0.79717800  0.20553100  0.75174700  1
  Rb  Rb1  1  0.20957900  0.80287900  0.23890600  1
  Nd  Nd0  1  0.25866600  0.83987900  0.70229000  1
  Nd  Nd1  1  0.73857200  0.16242000  0.28678200  1
  Mg  Mg0  1  0.07657700  0.47184000  0.05455900  1
  W  W0  1  0.68712200  0.68731200  0.80192400  1
  W  W1  1  0.68956000  0.67633900  0.30543700  1
  W  W2  1  0.33416200  0.31739700  0.20325400  1
  W  W3  1  0.31427900  0.32376000  0.70278500  1
  O  O0  1  0.60881100  0.38624600  0.45197900  1
  O  O1  1  0.26206600  0.08164900  0.78095700  1
  O  O2  1  0.04360200  0.33983600  0.90122400  1
  O  O3  1  0.39994600  0.08080000  0.34524800  1
  O  O4  1  0.74622400  0.62024900  0.56800600  1
  O  O5  1  0.38565500  0.27453800  0.92696500  1
  O  O6  1  0.60965000  0.90357100  0.65518200  1
  O  O7  1  0.38150100  0.60591900  0.55940000  1
  O  O8  1  0.03378300  0.24198300  0.30938700  1
  O  O9  1  0.75438200  0.92188400  0.21035600  1
  O  O10  1  0.35374000  0.57957600  0.97174000  1
  O  O11  1  0.97161300  0.67468100  0.08288400  1
  O  O12  1  0.24833500  0.36830700  0.45173800  1
  O  O13  1  0.61077400  0.71920100  0.06965700  1
  O  O14  1  0.95975300  0.77230600  0.68023800  1
  O  O15  1  0.64113300  0.41689600  0.02307200  1
loop_
_geom_bond_atom_site_label_1
_geom_bond_atom_site_label_2
_geom_bond_distance
_geom_bond_site_symmetry_2
Nd0 O3 2.271893 1_565
Nd0 O1 2.345461 1_565
Nd0 O11 2.386073 1_456
Nd0 O14 2.462646 1_455
Nd0 O6 2.563985 1_555
Nd0 O7 2.564192 1_555
Nd0 O10 2.618475 1_555
Nd1 O9 2.305168 1_545
Nd1 O6 2.390343 1_545
Nd1 O3 2.466056 1_555
Nd1 O2 2.467621 1_654
Nd1 O8 2.469885 1_655
Nd1 O15 2.582285 1_555
Nd1 O0 2.592294 1_555
Mg0 O11 1.898433 1_455
Mg0 O8 1.936167 1_555
Mg0 O2 2.006589 1_554
Mg0 O10 2.010976 1_554
O0 W3 2.007254 1_555
O0 W1 2.152729 1_555
O0 Rb0 3.072351 1_555
O1 W3 1.847695 1_555
O1 Rb1 3.050908 1_546
O2 W3 1.919009 1_555
O2 Rb0 3.057021 1_455
O3 W2 1.979502 1_555
O3 Rb1 3.338662 1_545
O4 W0 1.924166 1_555
O4 W1 2.080816 1_555
O4 Rb1 3.105644 1_655
O4 Rb0 3.218578 1_555
O5 W3 1.893937 1_555
O5 W2 2.115226 1_556
O5 Rb0 2.900157 1_555
O5 Rb1 3.501142 1_546
O6 W0 1.912107 1_555
O6 Rb0 3.439010 1_565
O7 W1 2.078462 1_555
O7 W3 2.087871 1_555
O7 Rb1 3.113542 1_555
O8 W2 2.043662 1_555
O8 Rb0 2.801328 1_455
O9 W1 1.855699 1_555
O9 Rb0 3.095118 1_564
O10 W2 2.084500 1_556
O10 W0 2.222705 1_555
O10 Rb1 3.117524 1_556
O11 W1 1.992853 1_555
O11 Rb1 3.018095 1_655
O12 W2 1.900190 1_555
O12 W3 2.065172 1_555
O12 Rb0 2.997218 1_455
O12 Rb1 3.347172 1_555
O13 W0 1.952210 1_554
O13 W1 2.026703 1_555
O13 Rb1 2.878205 1_555
O14 W0 1.835554 1_555
O14 Rb1 2.823133 1_655
O15 W2 2.028194 1_555
O15 W0 2.064006 1_554
O15 Rb0 3.057489 1_554
