# generated using pymatgen
data_Sr2ZrMnO6
_symmetry_space_group_name_H-M   'P 1'
_cell_length_a   5.67555015
_cell_length_b   5.67555015
_cell_length_c   9.83034123
_cell_angle_alpha   73.22134512
_cell_angle_beta   90.00000000
_cell_angle_gamma   120.00000000
_symmetry_Int_Tables_number   1
_chemical_formula_structural   Sr2ZrMnO6
_chemical_formula_sum   'Sr4 Zr2 Mn2 O12'
_cell_volume   258.54663812
_cell_formula_units_Z   2
loop_
 _symmetry_equiv_pos_site_id
 _symmetry_equiv_pos_as_xyz
  1  'x, y, z'
loop_
 _atom_site_type_symbol
 _atom_site_label
 _atom_site_symmetry_multiplicity
 _atom_site_fract_x
 _atom_site_fract_y
 _atom_site_fract_z
 _atom_site_occupancy
  Sr  Sr0  1  0.62500000  0.25000000  0.12500000  1
  Sr  Sr1  1  0.12500000  0.25000000  0.62500000  1
  Sr  Sr2  1  0.87500000  0.75000000  0.37500000  1
  Sr  Sr3  1  0.37500000  0.75000000  0.87500000  1
  Zr  Zr0  1  0.00000000  0.00000000  0.00000000  1
  Zr  Zr1  1  0.50000000  0.00000000  0.50000000  1
  Mn  Mn0  1  0.75000000  0.50000000  0.75000000  1
  Mn  Mn1  1  0.25000000  0.50000000  0.25000000  1
  O  O0  1  0.13011000  0.26022000  0.13011000  1
  O  O1  1  0.63011000  0.26022000  0.63011000  1
  O  O2  1  0.36989000  0.26022000  0.36989000  1
  O  O3  1  0.86989000  0.26022000  0.86989000  1
  O  O4  1  0.60967000  0.73978000  0.13011000  1
  O  O5  1  0.10967000  0.73978000  0.63011000  1
  O  O6  1  0.36989000  0.73978000  0.36989000  1
  O  O7  1  0.86989000  0.73978000  0.86989000  1
  O  O8  1  0.13011000  0.73978000  0.13011000  1
  O  O9  1  0.63011000  0.73978000  0.63011000  1
  O  O10  1  0.89033000  0.26022000  0.36989000  1
  O  O11  1  0.39033000  0.26022000  0.86989000  1
loop_
_geom_bond_atom_site_label_1
_geom_bond_atom_site_label_2
_geom_bond_distance
_geom_bond_site_symmetry_2
Mn0 O1 1.924580 1_555
Mn0 O5 1.924580 1_655
Mn0 O9 1.924580 1_555
Mn0 O11 1.924580 1_555
Mn0 O3 1.924580 1_555
Mn0 O7 1.924580 1_555
Mn1 O10 1.924580 1_455
Mn1 O0 1.924580 1_555
Mn1 O4 1.924580 1_555
Mn1 O8 1.924580 1_555
Mn1 O2 1.924580 1_555
Mn1 O6 1.924580 1_555
O0 Zr0 2.088640 1_555
O0 Sr3 2.838960 1_554
O0 Sr0 2.838960 1_455
O0 Sr2 2.838960 1_445
O0 Sr0 2.838960 1_555
O1 Zr1 2.088640 1_555
O1 Sr3 2.838960 1_545
O1 Sr1 2.838960 1_655
O1 Sr1 2.838960 1_555
O1 Sr2 2.838960 1_555
O2 Zr1 2.088640 1_555
O2 Sr2 2.838960 1_555
O2 Sr1 2.838960 1_555
O2 Sr0 2.838960 1_555
O2 Sr2 2.838960 1_445
O3 Zr0 2.088640 1_656
O3 Sr0 2.838960 1_556
O3 Sr3 2.838960 1_655
O3 Sr1 2.838960 1_655
O3 Sr3 2.838960 1_545
O4 Zr0 2.088640 1_665
O4 Sr2 2.838960 1_555
O4 Sr0 2.838960 1_565
O4 Sr3 2.838960 1_554
O4 Sr0 2.838960 1_555
O5 Zr1 2.088640 1_565
O5 Sr1 2.838960 1_565
O5 Sr3 2.838960 1_555
O5 Sr2 2.838960 1_455
O5 Sr1 2.838960 1_555
O6 Zr1 2.088640 1_565
O6 Sr1 2.838960 1_555
O6 Sr2 2.838960 1_455
O6 Sr0 2.838960 1_565
O6 Sr2 2.838960 1_555
O7 Zr0 2.088640 1_666
O7 Sr1 2.838960 1_665
O7 Sr3 2.838960 1_555
O7 Sr3 2.838960 1_655
O7 Sr0 2.838960 1_556
O8 Zr0 2.088640 1_565
O8 Sr0 2.838960 1_565
O8 Sr2 2.838960 1_455
O8 Sr0 2.838960 1_455
O8 Sr3 2.838960 1_554
O9 Zr1 2.088640 1_565
O9 Sr1 2.838960 1_665
O9 Sr3 2.838960 1_555
O9 Sr1 2.838960 1_555
O9 Sr2 2.838960 1_555
O10 Zr1 2.088640 1_555
O10 Sr1 2.838960 1_655
O10 Sr2 2.838960 1_555
O10 Sr2 2.838960 1_545
O10 Sr0 2.838960 1_555
O11 Zr0 2.088640 1_556
O11 Sr0 2.838960 1_556
O11 Sr3 2.838960 1_555
O11 Sr1 2.838960 1_555
O11 Sr3 2.838960 1_545
