# generated using pymatgen
data_MnOsN2
_symmetry_space_group_name_H-M   'P 1'
_cell_length_a   5.17307200
_cell_length_b   6.36845500
_cell_length_c   5.20409800
_cell_angle_alpha   90.00000000
_cell_angle_beta   90.00000000
_cell_angle_gamma   90.00000000
_symmetry_Int_Tables_number   1
_chemical_formula_structural   MnOsN2
_chemical_formula_sum   'Mn4 Os4 N8'
_cell_volume   171.44628293
_cell_formula_units_Z   4
loop_
 _symmetry_equiv_pos_site_id
 _symmetry_equiv_pos_as_xyz
  1  'x, y, z'
loop_
 _atom_site_type_symbol
 _atom_site_label
 _atom_site_symmetry_multiplicity
 _atom_site_fract_x
 _atom_site_fract_y
 _atom_site_fract_z
 _atom_site_occupancy
  Mn  Mn0  1  0.62850100  0.88267300  0.99321300  1
  Mn  Mn1  1  0.37149900  0.11732700  0.49321300  1
  Mn  Mn2  1  0.87149900  0.38267300  0.49321300  1
  Mn  Mn3  1  0.12850100  0.61732700  0.99321300  1
  Os  Os0  1  0.56395800  0.33851500  0.00125800  1
  Os  Os1  1  0.43604200  0.66148500  0.50125800  1
  Os  Os2  1  0.93604200  0.83851500  0.50125800  1
  Os  Os3  1  0.06395800  0.16148500  0.00125800  1
  N  N0  1  0.58519400  0.91584900  0.34676300  1
  N  N1  1  0.41480700  0.08415100  0.84676300  1
  N  N2  1  0.91480600  0.41584900  0.84676300  1
  N  N3  1  0.08519400  0.58415100  0.34676300  1
  N  N4  1  0.53558700  0.36756700  0.38076400  1
  N  N5  1  0.46441300  0.63243300  0.88076400  1
  N  N6  1  0.96441300  0.86756700  0.88076400  1
  N  N7  1  0.03558700  0.13243300  0.38076400  1
loop_
_geom_bond_atom_site_label_1
_geom_bond_atom_site_label_2
_geom_bond_distance
_geom_bond_site_symmetry_2
Mn0 N6 1.836110 1_555
Mn0 N1 1.857213 1_565
Mn0 N0 1.865501 1_556
Mn0 N5 1.898072 1_555
Mn1 N7 1.836110 1_555
Mn1 N0 1.857217 1_545
Mn1 N1 1.865501 1_555
Mn1 N4 1.898072 1_555
Mn2 N4 1.836110 1_555
Mn2 N3 1.857217 1_655
Mn2 N2 1.865501 1_555
Mn2 N7 1.898072 1_655
Mn3 N5 1.836110 1_555
Mn3 N2 1.857217 1_455
Mn3 N3 1.865501 1_556
Mn3 N6 1.898072 1_455
N0 Os1 1.966176 1_555
N0 Os2 2.045255 1_555
N1 Os0 1.966174 1_556
N1 Os3 2.045260 1_556
N2 Os3 1.966176 1_656
N2 Os0 2.045255 1_556
N3 Os2 1.966176 1_455
N3 Os1 2.045255 1_555
N4 Os0 1.989056 1_555
N4 Os1 2.040106 1_555
N5 Os1 1.989056 1_555
N5 Os0 2.040106 1_556
N6 Os2 1.989056 1_555
N6 Os3 2.040106 1_666
N7 Os3 1.989056 1_555
N7 Os2 2.040106 1_445
