# generated using pymatgen
data_Gd(Re2Si)2
_symmetry_space_group_name_H-M   'P 1'
_cell_length_a   7.38357914
_cell_length_b   7.38358922
_cell_length_c   4.13749601
_cell_angle_alpha   90.00000000
_cell_angle_beta   90.00000000
_cell_angle_gamma   90.00045341
_symmetry_Int_Tables_number   1
_chemical_formula_structural   Gd(Re2Si)2
_chemical_formula_sum   'Gd2 Re8 Si4'
_cell_volume   225.56517470
_cell_formula_units_Z   2
loop_
 _symmetry_equiv_pos_site_id
 _symmetry_equiv_pos_as_xyz
  1  'x, y, z'
loop_
 _atom_site_type_symbol
 _atom_site_label
 _atom_site_symmetry_multiplicity
 _atom_site_fract_x
 _atom_site_fract_y
 _atom_site_fract_z
 _atom_site_occupancy
  Gd  Gd0  1  0.50000000  0.50000000  0.00000000  1
  Gd  Gd1  1  0.00000000  -0.00000000  0.50000000  1
  Re  Re0  1  0.59343966  0.15735348  0.50000000  1
  Re  Re1  1  0.40656034  0.84264652  0.50000000  1
  Re  Re2  1  0.09333549  0.34283212  0.00000000  1
  Re  Re3  1  0.90666451  0.65716788  -0.00000000  1
  Re  Re4  1  0.15716788  0.59333649  0.50000000  1
  Re  Re5  1  0.84283212  0.40666351  0.50000000  1
  Re  Re6  1  0.34264752  0.09343966  0.00000000  1
  Re  Re7  1  0.65735248  0.90656034  -0.00000000  1
  Si  Si0  1  0.70974506  0.70969942  0.50000000  1
  Si  Si1  1  0.29025494  0.29030058  0.50000000  1
  Si  Si2  1  0.20970042  0.79025294  -0.00000000  1
  Si  Si3  1  0.79029958  0.20974706  0.00000000  1
loop_
_geom_bond_atom_site_label_1
_geom_bond_atom_site_label_2
_geom_bond_distance
_geom_bond_site_symmetry_2
Gd0 Si0 3.012540 1_555
Gd0 Si0 3.012540 1_554
Gd0 Si1 3.012540 1_554
Gd0 Si1 3.012540 1_555
Gd0 Si2 3.031067 1_555
Gd0 Si3 3.031067 1_555
Gd0 Re7 3.218856 1_555
Gd0 Re6 3.218856 1_555
Gd0 Re2 3.219078 1_555
Gd0 Re3 3.219078 1_555
Gd0 Re1 3.340125 1_555
Gd0 Re1 3.340125 1_554
Gd0 Re0 3.340125 1_554
Gd0 Re0 3.340125 1_555
Gd0 Re5 3.341004 1_554
Gd0 Re4 3.341004 1_554
Gd0 Re5 3.341004 1_555
Gd0 Re4 3.341004 1_555
Gd1 Si3 3.012564 1_455
Gd1 Si2 3.012564 1_545
Gd1 Si3 3.012564 1_456
Gd1 Si2 3.012564 1_546
Gd1 Si0 3.031058 1_445
Gd1 Si1 3.031058 1_555
Gd1 Re0 3.218872 1_455
Gd1 Re1 3.218872 1_545
Gd1 Re4 3.219092 1_545
Gd1 Re5 3.219092 1_455
Gd1 Re7 3.340120 1_446
Gd1 Re7 3.340120 1_445
Gd1 Re6 3.340120 1_555
Gd1 Re6 3.340120 1_556
Gd1 Re3 3.340997 1_445
Gd1 Re2 3.340997 1_555
Gd1 Re2 3.340997 1_556
Gd1 Re3 3.340997 1_446
Re0 Si1 2.444362 1_555
Re0 Si3 2.557756 1_555
Re0 Si3 2.557756 1_556
Re0 Re5 2.603707 1_555
Re0 Re1 2.702468 1_545
Re0 Re6 2.816267 1_556
Re0 Re6 2.816267 1_555
Re0 Re7 2.816277 1_545
Re0 Re7 2.816277 1_546
Re1 Si0 2.444362 1_555
Re1 Si2 2.557756 1_556
Re1 Si2 2.557756 1_555
Re1 Re4 2.603707 1_555
Re1 Re7 2.816267 1_556
Re1 Re7 2.816267 1_555
Re1 Re6 2.816277 1_566
Re1 Re6 2.816277 1_565
Re2 Si3 2.443751 1_455
Re2 Si1 2.558164 1_554
Re2 Si1 2.558164 1_555
Re2 Re6 2.603738 1_555
Re2 Re3 2.699344 1_455
Re2 Re5 2.814769 1_455
Re2 Re5 2.814769 1_454
Re2 Re4 2.814771 1_554
Re2 Re4 2.814771 1_555
Re3 Si2 2.443751 1_655
Re3 Si0 2.558164 1_554
Re3 Si0 2.558164 1_555
Re3 Re7 2.603738 1_555
Re3 Re4 2.814769 1_654
Re3 Re4 2.814769 1_655
Re3 Re5 2.814771 1_554
Re3 Re5 2.814771 1_555
Re4 Si1 2.443773 1_555
Re4 Si2 2.558150 1_556
Re4 Si2 2.558150 1_555
Re4 Re5 2.699331 1_455
Re5 Si0 2.443773 1_555
Re5 Si3 2.558150 1_556
Re5 Si3 2.558150 1_555
Re6 Si2 2.444363 1_545
Re6 Si1 2.557764 1_554
Re6 Si1 2.557764 1_555
Re6 Re7 2.702472 1_545
Re7 Si3 2.444363 1_565
Re7 Si0 2.557764 1_555
Re7 Si0 2.557764 1_554
