# generated using pymatgen
data_KGd2CuS4
_symmetry_space_group_name_H-M   'P 1'
_cell_length_a   7.12085016
_cell_length_b   7.12085016
_cell_length_c   13.81212700
_cell_angle_alpha   90.00000000
_cell_angle_beta   90.00000000
_cell_angle_gamma   147.38310892
_symmetry_Int_Tables_number   1
_chemical_formula_structural   KGd2CuS4
_chemical_formula_sum   'K2 Gd4 Cu2 S8'
_cell_volume   377.50997301
_cell_formula_units_Z   2
loop_
 _symmetry_equiv_pos_site_id
 _symmetry_equiv_pos_as_xyz
  1  'x, y, z'
loop_
 _atom_site_type_symbol
 _atom_site_label
 _atom_site_symmetry_multiplicity
 _atom_site_fract_x
 _atom_site_fract_y
 _atom_site_fract_z
 _atom_site_occupancy
  K  K0  1  0.39156500  0.60843500  0.25000000  1
  K  K1  1  0.60843500  0.39156500  0.75000000  1
  Gd  Gd0  1  0.86586600  0.13413400  0.93780200  1
  Gd  Gd1  1  0.13413400  0.86586600  0.06219800  1
  Gd  Gd2  1  0.13413400  0.86586600  0.43780200  1
  Gd  Gd3  1  0.86586600  0.13413400  0.56219800  1
  Cu  Cu0  1  0.66294500  0.33705500  0.25000000  1
  Cu  Cu1  1  0.33705500  0.66294500  0.75000000  1
  S  S0  1  0.76212300  0.23787700  0.38798600  1
  S  S1  1  0.23787700  0.76212300  0.61201400  1
  S  S2  1  0.50000000  0.50000000  0.00000000  1
  S  S3  1  0.50000000  0.50000000  0.50000000  1
  S  S4  1  0.76212300  0.23787700  0.11201400  1
  S  S5  1  0.23787700  0.76212300  0.88798600  1
  S  S6  1  0.92944800  0.07055200  0.75000000  1
  S  S7  1  0.07055200  0.92944800  0.25000000  1
loop_
_geom_bond_atom_site_label_1
_geom_bond_atom_site_label_2
_geom_bond_distance
_geom_bond_site_symmetry_2
K0 S7 3.159716 1_655
K0 S7 3.159716 1_545
K0 S0 3.280423 1_455
K0 S4 3.280423 1_455
K0 S0 3.280423 1_565
K0 S4 3.280423 1_565
K1 S6 3.159716 1_565
K1 S6 3.159716 1_455
K1 S5 3.280423 1_545
K1 S1 3.280423 1_545
K1 S1 3.280423 1_655
K1 S5 3.280423 1_655
Gd0 S6 2.735663 1_555
Gd0 S5 2.744512 1_655
Gd0 S5 2.744512 1_545
Gd0 S4 2.792989 1_556
Gd0 S2 2.845677 1_546
Gd0 S2 2.845677 1_656
Gd1 S7 2.735663 1_555
Gd1 S4 2.744512 1_455
Gd1 S4 2.744512 1_565
Gd1 S5 2.792989 1_554
Gd1 S2 2.845677 1_455
Gd1 S2 2.845677 1_565
Gd2 S7 2.735663 1_555
Gd2 S0 2.744512 1_565
Gd2 S0 2.744512 1_455
Gd2 S1 2.792989 1_555
Gd2 S3 2.845677 1_455
Gd2 S3 2.845677 1_565
Gd3 S6 2.735663 1_555
Gd3 S1 2.744512 1_655
Gd3 S1 2.744512 1_545
Gd3 S0 2.792989 1_555
Gd3 S3 2.845677 1_655
Gd3 S3 2.845677 1_545
Cu0 S4 2.338828 1_555
Cu0 S0 2.338828 1_555
Cu0 S7 2.365008 1_545
Cu0 S7 2.365008 1_655
Cu1 S1 2.338828 1_555
Cu1 S5 2.338828 1_555
Cu1 S6 2.365008 1_455
Cu1 S6 2.365008 1_565
