# generated using pymatgen
data_Mg14CdCo
_symmetry_space_group_name_H-M   'P 1'
_cell_length_a   6.29605846
_cell_length_b   6.33044413
_cell_length_c   9.88881896
_cell_angle_alpha   90.00000000
_cell_angle_beta   90.00000000
_cell_angle_gamma   120.18083398
_symmetry_Int_Tables_number   1
_chemical_formula_structural   Mg14CdCo
_chemical_formula_sum   'Mg14 Cd1 Co1'
_cell_volume   340.70909709
_cell_formula_units_Z   1
loop_
 _symmetry_equiv_pos_site_id
 _symmetry_equiv_pos_as_xyz
  1  'x, y, z'
loop_
 _atom_site_type_symbol
 _atom_site_label
 _atom_site_symmetry_multiplicity
 _atom_site_fract_x
 _atom_site_fract_y
 _atom_site_fract_z
 _atom_site_occupancy
  Mg  Mg0  1  0.16775398  0.33387649  0.62500000  1
  Mg  Mg1  1  0.17127184  0.83563542  0.62500000  1
  Mg  Mg2  1  0.67431999  0.33879763  0.12500000  1
  Mg  Mg3  1  0.66471349  0.32964289  0.62500000  1
  Mg  Mg4  1  0.67431999  0.83552136  0.12500000  1
  Mg  Mg5  1  0.66471349  0.83506961  0.62500000  1
  Mg  Mg6  1  0.32509749  0.17299528  0.35748997  1
  Mg  Mg7  1  0.32509749  0.17299528  0.89251003  1
  Mg  Mg8  1  0.32509749  0.65210321  0.35748997  1
  Mg  Mg9  1  0.32509749  0.65210321  0.89251003  1
  Mg  Mg10  1  0.84519548  0.17259824  0.36323812  1
  Mg  Mg11  1  0.84519548  0.17259824  0.88676188  1
  Mg  Mg12  1  0.83218502  0.66609301  0.37886217  1
  Mg  Mg13  1  0.83218502  0.66609301  0.87113783  1
  Cd  Cd0  1  0.16265097  0.83132499  0.12500000  1
  Co  Co0  1  0.16510528  0.33255214  0.12500000  1
loop_
_geom_bond_atom_site_label_1
_geom_bond_atom_site_label_2
_geom_bond_distance
_geom_bond_site_symmetry_2
Mg0 Mg10 3.127679 1_455
Mg0 Mg11 3.127679 1_455
Mg0 Mg5 3.142445 1_555
Mg0 Mg3 3.142445 1_555
Mg0 Mg5 3.153784 1_445
Mg0 Mg3 3.153784 1_455
Mg0 Mg1 3.165280 1_555
Mg0 Mg1 3.165280 1_545
Mg0 Mg6 3.167170 1_555
Mg0 Mg7 3.167170 1_555
Mg0 Mg8 3.167176 1_555
Mg0 Mg9 3.167176 1_555
Mg1 Mg13 3.054557 1_455
Mg1 Mg12 3.054557 1_455
Mg1 Mg3 3.108539 1_565
Mg1 Mg5 3.108540 1_555
Mg1 Mg3 3.187522 1_455
Mg1 Mg5 3.187522 1_455
Mg1 Mg8 3.227562 1_555
Mg1 Mg9 3.227562 1_555
Mg1 Mg6 3.227569 1_565
Mg1 Mg7 3.227569 1_565
Mg2 Mg7 2.983505 1_554
Mg2 Mg6 2.983505 1_555
Mg2 Mg4 3.144482 1_555
Mg2 Mg4 3.185962 1_545
Mg3 Mg5 3.130869 1_545
Mg3 Mg5 3.199576 1_555
Mg3 Mg6 3.228220 1_555
Mg3 Mg7 3.228220 1_555
Mg4 Mg8 2.983505 1_555
Mg4 Mg9 2.983505 1_554
Mg5 Mg8 3.228219 1_555
Mg5 Mg9 3.228219 1_555
Mg6 Mg8 3.032966 1_555
Mg6 Mg8 3.297478 1_545
Mg7 Mg9 3.032966 1_555
Mg7 Mg9 3.297478 1_545
Mg10 Mg2 2.992108 1_555
Mg10 Mg4 2.992115 1_545
Mg10 Mg8 3.020763 1_655
Mg10 Mg6 3.020763 1_655
Mg10 Mg12 3.169782 1_545
Mg10 Mg12 3.169782 1_555
Mg10 Mg3 3.180545 1_555
Mg10 Mg5 3.180552 1_545
Mg10 Mg8 3.276325 1_545
Mg10 Mg6 3.276325 1_555
Mg11 Mg2 2.992108 1_556
Mg11 Mg4 2.992115 1_546
Mg11 Mg9 3.020763 1_655
Mg11 Mg7 3.020763 1_655
Mg11 Mg13 3.169782 1_545
Mg11 Mg13 3.169782 1_555
Mg11 Mg3 3.180545 1_555
Mg11 Mg5 3.180552 1_545
Mg11 Mg9 3.276325 1_545
Mg11 Mg7 3.276325 1_555
Mg12 Mg5 3.051968 1_555
Mg12 Mg3 3.051975 1_555
Mg12 Mg4 3.084190 1_555
Mg12 Mg2 3.084197 1_555
Mg12 Mg6 3.155944 1_665
Mg12 Mg8 3.155944 1_655
Mg12 Mg6 3.156145 1_555
Mg12 Mg8 3.156145 1_555
Mg13 Mg5 3.051968 1_555
Mg13 Mg3 3.051975 1_555
Mg13 Mg4 3.084190 1_556
Mg13 Mg2 3.084197 1_556
Mg13 Mg7 3.155944 1_665
Mg13 Mg9 3.155944 1_655
Mg13 Mg7 3.156145 1_555
Mg13 Mg9 3.156145 1_555
Cd0 Mg9 2.964058 1_554
Cd0 Mg8 2.964058 1_555
Cd0 Mg7 2.964065 1_564
Cd0 Mg6 2.964065 1_565
Cd0 Mg2 3.088001 1_455
Cd0 Mg4 3.088001 1_455
Cd0 Mg13 3.088206 1_454
Cd0 Mg12 3.088206 1_455
Cd0 Co0 3.165250 1_565
Cd0 Co0 3.165250 1_555
Cd0 Mg2 3.208225 1_565
Cd0 Mg4 3.208225 1_555
Co0 Mg7 2.888526 1_554
Co0 Mg6 2.888526 1_555
Co0 Mg9 2.888532 1_554
Co0 Mg8 2.888532 1_555
Co0 Mg10 2.929469 1_455
Co0 Mg11 2.929469 1_454
Co0 Mg4 3.110077 1_445
Co0 Mg2 3.110077 1_455
Co0 Mg4 3.186352 1_555
Co0 Mg2 3.186353 1_555
