# generated using pymatgen
data_W3C7NCl6O7
_symmetry_space_group_name_H-M   'P 1'
_cell_length_a   11.74262700
_cell_length_b   12.78603100
_cell_length_c   14.94537400
_cell_angle_alpha   90.00000000
_cell_angle_beta   90.00000000
_cell_angle_gamma   90.00000000
_symmetry_Int_Tables_number   1
_chemical_formula_structural   W3C7NCl6O7
_chemical_formula_sum   'W12 C28 N4 Cl24 O28'
_cell_volume   2243.92225800
_cell_formula_units_Z   4
loop_
 _symmetry_equiv_pos_site_id
 _symmetry_equiv_pos_as_xyz
  1  'x, y, z'
loop_
 _atom_site_type_symbol
 _atom_site_label
 _atom_site_symmetry_multiplicity
 _atom_site_fract_x
 _atom_site_fract_y
 _atom_site_fract_z
 _atom_site_occupancy
  W  W0  1  0.37709400  0.95844300  0.20566600  1
  W  W1  1  0.12290600  0.45844300  0.29433400  1
  W  W2  1  0.87709400  0.04155700  0.79433400  1
  W  W3  1  0.62290600  0.54155700  0.70566600  1
  W  W4  1  0.62290600  0.04155700  0.79433400  1
  W  W5  1  0.87709400  0.54155700  0.70566600  1
  W  W6  1  0.12290600  0.95844300  0.20566600  1
  W  W7  1  0.37709400  0.45844300  0.29433400  1
  W  W8  1  0.25000000  0.95683200  0.41494400  1
  W  W9  1  0.25000000  0.45683200  0.08505600  1
  W  W10  1  0.75000000  0.04316800  0.58505600  1
  W  W11  1  0.75000000  0.54316800  0.91494400  1
  C  C0  1  0.45836100  0.09305600  0.36720200  1
  C  C1  1  0.04163900  0.59305600  0.13279800  1
  C  C2  1  0.95836100  0.90694400  0.63279800  1
  C  C3  1  0.54163900  0.40694400  0.86720200  1
  C  C4  1  0.54163900  0.90694400  0.63279800  1
  C  C5  1  0.95836100  0.40694400  0.86720200  1
  C  C6  1  0.04163900  0.09305600  0.36720200  1
  C  C7  1  0.45836100  0.59305600  0.13279800  1
  C  C8  1  0.25000000  0.04561800  0.11637900  1
  C  C9  1  0.25000000  0.54561800  0.38362100  1
  C  C10  1  0.75000000  0.95438200  0.88362100  1
  C  C11  1  0.75000000  0.45438200  0.61637900  1
  C  C12  1  0.67178200  0.70331400  0.40450800  1
  C  C13  1  0.82821800  0.20331400  0.09549200  1
  C  C14  1  0.17178200  0.29668600  0.59549200  1
  C  C15  1  0.32821800  0.79668600  0.90450800  1
  C  C16  1  0.32821800  0.29668600  0.59549200  1
  C  C17  1  0.17178200  0.79668600  0.90450800  1
  C  C18  1  0.82821800  0.70331400  0.40450800  1
  C  C19  1  0.67178200  0.20331400  0.09549200  1
  C  C20  1  0.75000000  0.77954400  0.35968400  1
  C  C21  1  0.75000000  0.27954400  0.14031600  1
  C  C22  1  0.25000000  0.22045600  0.64031600  1
  C  C23  1  0.25000000  0.72045600  0.85968400  1
  C  C24  1  0.75000000  0.68707700  0.29860900  1
  C  C25  1  0.75000000  0.18707700  0.20139100  1
  C  C26  1  0.25000000  0.31292300  0.70139100  1
  C  C27  1  0.25000000  0.81292300  0.79860900  1
  N  N0  1  0.75000000  0.61736900  0.37787100  1
  N  N1  1  0.75000000  0.11736900  0.12212900  1
  N  N2  1  0.25000000  0.38263100  0.62212900  1
  N  N3  1  0.25000000  0.88263100  0.87787100  1
  Cl  Cl0  1  0.39859800  0.84220000  0.34621700  1
  Cl  Cl1  1  0.10140200  0.34220000  0.15378300  1
  Cl  Cl2  1  0.89859800  0.15780000  0.65378300  1
  Cl  Cl3  1  0.60140200  0.65780000  0.84621700  1
  Cl  Cl4  1  0.60140200  0.15780000  0.65378300  1
  Cl  Cl5  1  0.89859800  0.65780000  0.84621700  1
  Cl  Cl6  1  0.10140200  0.84220000  0.34621700  1
  Cl  Cl7  1  0.39859800  0.34220000  0.15378300  1
  Cl  Cl8  1  0.25000000  0.89999800  0.56288700  1
  Cl  Cl9  1  0.25000000  0.39999800  0.93711300  1
  Cl  Cl10  1  0.75000000  0.10000200  0.43711300  1
  Cl  Cl11  1  0.75000000  0.60000200  0.06288700  1
  Cl  Cl12  1  0.25000000  0.81591000  0.14037000  1
  Cl  Cl13  1  0.25000000  0.31591000  0.35963000  1
  Cl  Cl14  1  0.75000000  0.18409000  0.85963000  1
  Cl  Cl15  1  0.75000000  0.68409000  0.64037000  1
  Cl  Cl16  1  0.54448300  0.88780600  0.14591800  1
  Cl  Cl17  1  0.95551700  0.38780600  0.35408200  1
  Cl  Cl18  1  0.04448300  0.11219400  0.85408200  1
  Cl  Cl19  1  0.45551700  0.61219400  0.64591800  1
  Cl  Cl20  1  0.45551700  0.11219400  0.85408200  1
  Cl  Cl21  1  0.04448300  0.61219400  0.64591800  1
  Cl  Cl22  1  0.95551700  0.88780600  0.14591800  1
  Cl  Cl23  1  0.54448300  0.38780600  0.35408200  1
  O  O0  1  0.25000000  0.01678400  0.29117800  1
  O  O1  1  0.25000000  0.51678400  0.20882200  1
  O  O2  1  0.75000000  0.98321600  0.70882200  1
  O  O3  1  0.75000000  0.48321600  0.79117800  1
  O  O4  1  0.47328500  0.07217900  0.28651500  1
  O  O5  1  0.02671500  0.57217900  0.21348500  1
  O  O6  1  0.97328500  0.92782100  0.71348500  1
  O  O7  1  0.52671500  0.42782100  0.78651500  1
  O  O8  1  0.52671500  0.92782100  0.71348500  1
  O  O9  1  0.97328500  0.42782100  0.78651500  1
  O  O10  1  0.02671500  0.07217900  0.28651500  1
  O  O11  1  0.47328500  0.57217900  0.21348500  1
  O  O12  1  0.38976300  0.06799100  0.42752700  1
  O  O13  1  0.11023700  0.56799100  0.07247300  1
  O  O14  1  0.88976300  0.93200900  0.57247300  1
  O  O15  1  0.61023700  0.43200900  0.92752700  1
  O  O16  1  0.61023700  0.93200900  0.57247300  1
  O  O17  1  0.88976300  0.43200900  0.92752700  1
  O  O18  1  0.11023700  0.06799100  0.42752700  1
  O  O19  1  0.38976300  0.56799100  0.07247300  1
  O  O20  1  0.34986100  0.07042700  0.09392800  1
  O  O21  1  0.15013900  0.57042700  0.40607200  1
  O  O22  1  0.84986100  0.92957300  0.90607200  1
  O  O23  1  0.65013900  0.42957300  0.59392800  1
  O  O24  1  0.65013900  0.92957300  0.90607200  1
  O  O25  1  0.84986100  0.42957300  0.59392800  1
  O  O26  1  0.15013900  0.07042700  0.09392800  1
  O  O27  1  0.34986100  0.57042700  0.40607200  1
loop_
_geom_bond_atom_site_label_1
_geom_bond_atom_site_label_2
_geom_bond_distance
_geom_bond_site_symmetry_2
C0 O4 1.247459 1_555
C0 O12 1.250767 1_555
C1 O5 1.247459 1_555
C1 O13 1.250767 1_555
C2 O6 1.247459 1_555
C2 O14 1.250767 1_555
C3 O7 1.247459 1_555
C3 O15 1.250767 1_555
C4 O8 1.247459 1_555
C4 O16 1.250767 1_555
C5 O9 1.247459 1_555
C5 O17 1.250767 1_555
C6 O10 1.247459 1_555
C6 O18 1.250767 1_555
C7 O11 1.247459 1_555
C7 O19 1.250767 1_555
C8 O20 1.260266 1_555
C8 O26 1.260266 1_555
C8 W6 2.291373 1_545
C8 W0 2.291373 1_545
C9 O27 1.260266 1_555
C9 O21 1.260266 1_555
C9 W7 2.291373 1_555
C9 W1 2.291373 1_555
C10 O22 1.260266 1_555
C10 O24 1.260266 1_555
C10 W2 2.291373 1_565
C10 W4 2.291373 1_565
C11 O23 1.260266 1_555
C11 O25 1.260266 1_555
C11 W5 2.291373 1_555
C11 W3 2.291373 1_555
C12 N0 1.486496 1_555
C12 C20 1.497463 1_555
C13 N1 1.486496 1_555
C13 C21 1.497463 1_555
C14 N2 1.486496 1_555
C14 C22 1.497463 1_555
C15 N3 1.486496 1_555
C15 C23 1.497463 1_555
C16 N2 1.486496 1_555
C16 C22 1.497463 1_555
C17 N3 1.486496 1_555
C17 C23 1.497463 1_555
C18 N0 1.486496 1_555
C18 C20 1.497463 1_555
C19 N1 1.486496 1_555
C19 C21 1.497463 1_555
C20 C24 1.493648 1_555
C21 C25 1.493648 1_555
C22 C26 1.493648 1_555
C23 C27 1.493648 1_555
C24 N0 1.482455 1_555
C25 N1 1.482455 1_555
C26 N2 1.482455 1_555
C27 N3 1.482455 1_555
Cl0 W8 2.499613 1_555
Cl0 W0 2.585590 1_555
Cl1 W9 2.499613 1_555
Cl1 W1 2.585590 1_555
Cl2 W10 2.499613 1_555
Cl2 W2 2.585590 1_555
Cl3 W11 2.499613 1_555
Cl3 W3 2.585590 1_555
Cl4 W10 2.499613 1_555
Cl4 W4 2.585590 1_555
Cl5 W11 2.499613 1_555
Cl5 W5 2.585590 1_555
Cl6 W8 2.499613 1_555
Cl6 W6 2.585590 1_555
Cl7 W9 2.499613 1_555
Cl7 W7 2.585590 1_555
Cl8 W8 2.327416 1_555
Cl9 W9 2.327416 1_556
Cl10 W10 2.327416 1_555
Cl11 W11 2.327416 1_554
Cl12 W6 2.549685 1_555
Cl12 W0 2.549685 1_555
Cl13 W1 2.549685 1_555
Cl13 W7 2.549685 1_555
Cl14 W4 2.549685 1_555
Cl14 W2 2.549685 1_555
Cl15 W3 2.549685 1_555
Cl15 W5 2.549685 1_555
Cl16 W0 2.340216 1_555
Cl17 W1 2.340216 1_655
Cl18 W2 2.340216 1_455
Cl19 W3 2.340216 1_555
Cl20 W4 2.340216 1_555
Cl21 W5 2.340216 1_455
Cl22 W6 2.340216 1_655
Cl23 W7 2.340216 1_555
O0 W8 2.002272 1_545
O0 W0 2.101680 1_545
O0 W6 2.101680 1_545
O1 W9 2.002272 1_555
O1 W1 2.101680 1_555
O1 W7 2.101680 1_555
O2 W10 2.002272 1_565
O2 W4 2.101680 1_565
O2 W2 2.101680 1_565
O3 W11 2.002272 1_555
O3 W3 2.101680 1_555
O3 W5 2.101680 1_555
O4 W0 2.202425 1_545
O5 W1 2.202425 1_555
O6 W2 2.202425 1_565
O7 W3 2.202425 1_555
O8 W4 2.202425 1_565
O9 W5 2.202425 1_555
O10 W6 2.202425 1_545
O11 W7 2.202425 1_555
O12 W8 2.179196 1_545
O13 W9 2.179196 1_555
O14 W10 2.179196 1_565
O15 W11 2.179196 1_555
O16 W10 2.179196 1_565
O17 W11 2.179196 1_555
O18 W8 2.179196 1_545
O19 W9 2.179196 1_555
O20 W0 2.222879 1_545
O21 W1 2.222879 1_555
O22 W2 2.222879 1_565
O23 W3 2.222879 1_555
O24 W4 2.222879 1_565
O25 W5 2.222879 1_555
O26 W6 2.222879 1_545
O27 W7 2.222879 1_555
