# generated using pymatgen
data_Si2WO6
_symmetry_space_group_name_H-M   'P 1'
_cell_length_a   5.14227200
_cell_length_b   10.71450900
_cell_length_c   19.86359800
_cell_angle_alpha   90.00000000
_cell_angle_beta   90.00000000
_cell_angle_gamma   90.00000000
_symmetry_Int_Tables_number   1
_chemical_formula_structural   Si2WO6
_chemical_formula_sum   'Si16 W8 O48'
_cell_volume   1094.42306246
_cell_formula_units_Z   8
loop_
 _symmetry_equiv_pos_site_id
 _symmetry_equiv_pos_as_xyz
  1  'x, y, z'
loop_
 _atom_site_type_symbol
 _atom_site_label
 _atom_site_symmetry_multiplicity
 _atom_site_fract_x
 _atom_site_fract_y
 _atom_site_fract_z
 _atom_site_occupancy
  Si  Si0  1  0.61937800  0.17025700  0.77534300  1
  Si  Si1  1  0.75753300  0.32919900  0.47399000  1
  Si  Si2  1  0.74246700  0.32919900  0.97399000  1
  Si  Si3  1  0.88062200  0.67025700  0.22465700  1
  Si  Si4  1  0.11937800  0.82974300  0.72465700  1
  Si  Si5  1  0.38062200  0.32974300  0.27534300  1
  Si  Si6  1  0.25753300  0.17080100  0.47399000  1
  Si  Si7  1  0.75753300  0.82919900  0.02601000  1
  Si  Si8  1  0.74246700  0.82919900  0.52601000  1
  Si  Si9  1  0.88062200  0.17025700  0.27534300  1
  Si  Si10  1  0.38062200  0.82974300  0.22465700  1
  Si  Si11  1  0.61937800  0.67025700  0.72465700  1
  Si  Si12  1  0.24246700  0.67080100  0.52601000  1
  Si  Si13  1  0.11937800  0.32974300  0.77534300  1
  Si  Si14  1  0.24246700  0.17080100  0.97399000  1
  Si  Si15  1  0.25753300  0.67080100  0.02601000  1
  W  W0  1  0.43570100  0.54841900  0.87383400  1
  W  W1  1  0.56429900  0.45158100  0.12616600  1
  W  W2  1  0.93570100  0.45158100  0.62616600  1
  W  W3  1  0.06429900  0.54841900  0.37383400  1
  W  W4  1  0.43570100  0.04841900  0.62616600  1
  W  W5  1  0.56429900  0.95158100  0.37383400  1
  W  W6  1  0.93570100  0.95158100  0.87383400  1
  W  W7  1  0.06429900  0.04841900  0.12616600  1
  O  O0  1  0.81245900  0.04516200  0.31856700  1
  O  O1  1  0.32108900  0.54568000  0.06920300  1
  O  O2  1  0.18754100  0.95483800  0.68143300  1
  O  O3  1  0.76349800  0.85494000  0.94479600  1
  O  O4  1  0.26349800  0.64506000  0.94479600  1
  O  O5  1  0.96469300  0.71829000  0.04532600  1
  O  O6  1  0.86486900  0.14117300  0.19448900  1
  O  O7  1  0.13513100  0.35882700  0.69448900  1
  O  O8  1  0.76349800  0.35494000  0.55520400  1
  O  O9  1  0.86486900  0.64117300  0.30551100  1
  O  O10  1  0.31245900  0.95483800  0.18143300  1
  O  O11  1  0.73650200  0.85494000  0.44479600  1
  O  O12  1  0.67891100  0.45432000  0.93079700  1
  O  O13  1  0.36486900  0.35882700  0.19448900  1
  O  O14  1  0.68754100  0.54516200  0.68143300  1
  O  O15  1  0.32108900  0.04568000  0.43079700  1
  O  O16  1  0.31245900  0.45483800  0.31856700  1
  O  O17  1  0.17378900  0.21818800  0.29401100  1
  O  O18  1  0.32621100  0.21818800  0.79401100  1
  O  O19  1  0.53530700  0.21829000  0.95467400  1
  O  O20  1  0.73650200  0.35494000  0.05520400  1
  O  O21  1  0.63513100  0.14117300  0.69448900  1
  O  O22  1  0.82108900  0.95432000  0.06920300  1
  O  O23  1  0.17378900  0.71818800  0.20598900  1
  O  O24  1  0.23650200  0.64506000  0.44479600  1
  O  O25  1  0.63513100  0.64117300  0.80551100  1
  O  O26  1  0.67891100  0.95432000  0.56920300  1
  O  O27  1  0.26349800  0.14506000  0.55520400  1
  O  O28  1  0.17891100  0.04568000  0.93079700  1
  O  O29  1  0.67378900  0.28181200  0.29401100  1
  O  O30  1  0.18754100  0.45483800  0.81856700  1
  O  O31  1  0.82621100  0.28181200  0.79401100  1
  O  O32  1  0.82621100  0.78181200  0.70598900  1
  O  O33  1  0.82108900  0.45432000  0.43079700  1
  O  O34  1  0.23650200  0.14506000  0.05520400  1
  O  O35  1  0.17891100  0.54568000  0.56920300  1
  O  O36  1  0.32621100  0.71818800  0.70598900  1
  O  O37  1  0.03530700  0.28171000  0.95467400  1
  O  O38  1  0.46469300  0.28171000  0.45467400  1
  O  O39  1  0.67378900  0.78181200  0.20598900  1
  O  O40  1  0.46469300  0.78171000  0.04532600  1
  O  O41  1  0.53530700  0.71829000  0.54532600  1
  O  O42  1  0.03530700  0.78171000  0.54532600  1
  O  O43  1  0.36486900  0.85882700  0.30551100  1
  O  O44  1  0.68754100  0.04516200  0.81856700  1
  O  O45  1  0.96469300  0.21829000  0.45467400  1
  O  O46  1  0.13513100  0.85882700  0.80551100  1
  O  O47  1  0.81245900  0.54516200  0.18143300  1
loop_
_geom_bond_atom_site_label_1
_geom_bond_atom_site_label_2
_geom_bond_distance
_geom_bond_site_symmetry_2
O0 Si9 1.629882 1_555
O0 W5 1.959329 1_545
O1 Si15 1.624856 1_555
O1 W1 1.964922 1_555
O2 Si4 1.629882 1_555
O2 W4 1.959329 1_565
O3 Si7 1.636896 1_556
O3 W6 1.960402 1_555
O4 Si15 1.636896 1_556
O4 W0 1.960402 1_555
O5 Si15 1.635156 1_655
O5 Si7 1.641390 1_555
O6 Si9 1.638008 1_555
O6 W7 1.970075 1_655
O7 Si13 1.638008 1_555
O7 W2 1.970075 1_455
O8 Si1 1.636896 1_555
O8 W2 1.960402 1_555
O9 Si3 1.638008 1_555
O9 W3 1.970075 1_655
O10 Si10 1.629882 1_555
O10 W7 1.959329 1_565
O11 Si8 1.636896 1_555
O11 W5 1.960402 1_555
O12 Si2 1.624856 1_555
O12 W0 1.964922 1_555
O13 Si5 1.638008 1_555
O13 W1 1.970075 1_555
O14 Si11 1.629882 1_555
O14 W2 1.959329 1_555
O15 Si6 1.624856 1_555
O15 W5 1.964922 1_545
O16 Si5 1.629882 1_555
O16 W3 1.959329 1_555
O17 Si9 1.635217 1_455
O17 Si5 1.642367 1_555
O18 Si0 1.635217 1_555
O18 Si13 1.642367 1_555
O19 Si14 1.635156 1_555
O19 Si2 1.641390 1_555
O20 Si2 1.636896 1_554
O20 W1 1.960402 1_555
O21 Si0 1.638008 1_555
O21 W4 1.970075 1_555
O22 Si7 1.624856 1_555
O22 W7 1.964922 1_665
O23 Si3 1.635217 1_455
O23 Si10 1.642367 1_555
O24 Si12 1.636896 1_555
O24 W3 1.960402 1_555
O25 Si11 1.638008 1_555
O25 W0 1.970075 1_555
O26 Si8 1.624856 1_555
O26 W4 1.964922 1_565
O27 Si6 1.636896 1_555
O27 W4 1.960402 1_555
O28 Si14 1.624856 1_555
O28 W6 1.964922 1_445
O29 Si5 1.635217 1_555
O29 Si9 1.642367 1_555
O30 Si13 1.629882 1_555
O30 W0 1.959329 1_555
O31 Si13 1.635217 1_655
O31 Si0 1.642367 1_555
O32 Si4 1.635217 1_655
O32 Si11 1.642367 1_555
O33 Si1 1.624856 1_555
O33 W3 1.964922 1_655
O34 Si14 1.636896 1_554
O34 W7 1.960402 1_555
O35 Si12 1.624856 1_555
O35 W2 1.964922 1_455
O36 Si11 1.635217 1_555
O36 Si4 1.642367 1_555
O37 Si2 1.635156 1_455
O37 Si14 1.641390 1_555
O38 Si1 1.635156 1_555
O38 Si6 1.641390 1_555
O39 Si10 1.635217 1_555
O39 Si3 1.642367 1_555
O40 Si7 1.635156 1_555
O40 Si15 1.641390 1_555
O41 Si12 1.635156 1_555
O41 Si8 1.641390 1_555
O42 Si8 1.635156 1_455
O42 Si12 1.641390 1_555
O43 Si10 1.638008 1_555
O43 W5 1.970075 1_555
O44 Si0 1.629882 1_555
O44 W6 1.959329 1_545
O45 Si6 1.635156 1_655
O45 Si1 1.641390 1_555
O46 Si4 1.638008 1_555
O46 W6 1.970075 1_455
O47 Si3 1.629882 1_555
O47 W1 1.959329 1_555
