# generated using pymatgen
data_TiMoN3
_symmetry_space_group_name_H-M   'P 1'
_cell_length_a   10.52231057
_cell_length_b   5.08570807
_cell_length_c   10.00114370
_cell_angle_alpha   132.29659732
_cell_angle_beta   109.87708409
_cell_angle_gamma   104.15787158
_symmetry_Int_Tables_number   1
_chemical_formula_structural   TiMoN3
_chemical_formula_sum   'Ti4 Mo4 N12'
_cell_volume   272.76706554
_cell_formula_units_Z   4
loop_
 _symmetry_equiv_pos_site_id
 _symmetry_equiv_pos_as_xyz
  1  'x, y, z'
loop_
 _atom_site_type_symbol
 _atom_site_label
 _atom_site_symmetry_multiplicity
 _atom_site_fract_x
 _atom_site_fract_y
 _atom_site_fract_z
 _atom_site_occupancy
  Ti  Ti0  1  0.67395140  0.50404952  0.36806602  1
  Ti  Ti1  1  0.32604860  0.49595048  0.63193398  1
  Ti  Ti2  1  0.69667340  0.35707120  0.66398068  1
  Ti  Ti3  1  0.30332660  0.64292880  0.33601932  1
  Mo  Mo0  1  0.96956500  0.64838528  0.66107799  1
  Mo  Mo1  1  0.03043500  0.35161472  0.33892201  1
  Mo  Mo2  1  0.63740925  0.65881149  0.99584899  1
  Mo  Mo3  1  0.36259075  0.34118851  0.00415101  1
  N  N0  1  0.76226143  0.67883398  0.63061968  1
  N  N1  1  0.23773857  0.32116602  0.36938032  1
  N  N2  1  0.84002748  0.39647338  0.34519282  1
  N  N3  1  0.15997252  0.60352662  0.65480718  1
  N  N4  1  0.86482453  0.22247957  0.61272391  1
  N  N5  1  0.13517547  0.77752043  0.38727609  1
  N  N6  1  0.50373446  0.36058889  0.67307614  1
  N  N7  1  0.49626554  0.63941111  0.32692386  1
  N  N8  1  0.83168723  0.68124828  0.98627100  1
  N  N9  1  0.16831277  0.31875172  0.01372900  1
  N  N10  1  0.45097143  0.75215704  0.03219448  1
  N  N11  1  0.54902857  0.24784296  0.96780552  1
loop_
_geom_bond_atom_site_label_1
_geom_bond_atom_site_label_2
_geom_bond_distance
_geom_bond_site_symmetry_2
Mo0 N4 1.788893 1_555
Mo0 N9 1.936113 1_666
Mo0 N2 2.061509 1_555
Mo0 N3 2.088034 1_655
Mo0 N0 2.156799 1_555
Mo1 N5 1.788893 1_555
Mo1 N8 1.936113 1_444
Mo1 N3 2.061509 1_555
Mo1 N2 2.088034 1_455
Mo1 N1 2.156799 1_555
Mo2 N11 1.842472 1_555
Mo2 N6 1.994616 1_555
Mo2 N2 2.051061 1_566
Mo2 N8 2.057894 1_555
Mo2 N10 2.216803 1_556
Mo3 N10 1.842472 1_555
Mo3 N7 1.994616 1_555
Mo3 N3 2.051061 1_544
Mo3 N9 2.057894 1_555
Mo3 N11 2.216803 1_554
N0 Ti0 1.828600 1_555
N0 Ti2 1.898516 1_555
N1 Ti1 1.828600 1_555
N1 Ti3 1.898516 1_555
N2 Ti0 1.994117 1_555
N3 Ti1 1.994117 1_555
N4 Ti0 2.099085 1_545
N4 Ti2 2.144488 1_555
N5 Ti1 2.099085 1_565
N5 Ti3 2.144488 1_555
N6 Ti3 1.993202 1_545
N6 Ti2 2.066716 1_555
N6 Ti1 2.150956 1_555
N7 Ti2 1.993202 1_565
N7 Ti3 2.066716 1_555
N7 Ti0 2.150956 1_555
N8 Ti2 1.927112 1_555
N9 Ti3 1.927112 1_555
N10 Ti0 2.091422 1_565
N10 Ti1 2.830863 1_554
N11 Ti1 2.091422 1_545
N11 Ti0 2.830863 1_556
