# generated using pymatgen
data_Ba2Mg3Tl2(FeO3)4
_symmetry_space_group_name_H-M   'P 1'
_cell_length_a   3.89148431
_cell_length_b   3.89148462
_cell_length_c   21.34036384
_cell_angle_alpha   95.23129825
_cell_angle_beta   95.23129699
_cell_angle_gamma   90.00000022
_symmetry_Int_Tables_number   1
_chemical_formula_structural   Ba2Mg3Tl2(FeO3)4
_chemical_formula_sum   'Ba2 Mg3 Tl2 Fe4 O12'
_cell_volume   320.47319446
_cell_formula_units_Z   1
loop_
 _symmetry_equiv_pos_site_id
 _symmetry_equiv_pos_as_xyz
  1  'x, y, z'
loop_
 _atom_site_type_symbol
 _atom_site_label
 _atom_site_symmetry_multiplicity
 _atom_site_fract_x
 _atom_site_fract_y
 _atom_site_fract_z
 _atom_site_occupancy
  Ba  Ba0  1  0.15766400  0.15766400  0.31532700  1
  Ba  Ba1  1  0.84233600  0.84233600  0.68467300  1
  Mg  Mg0  1  0.07478900  0.07478900  0.14957700  1
  Mg  Mg1  1  0.92521100  0.92521100  0.85042300  1
  Mg  Mg2  1  0.00000000  0.00000000  0.00000000  1
  Tl  Tl0  1  0.72259200  0.72259200  0.44518300  1
  Tl  Tl1  1  0.27740800  0.27740800  0.55481700  1
  Fe  Fe0  1  0.53472400  0.53472400  0.06944800  1
  Fe  Fe1  1  0.39551900  0.39551900  0.79103600  1
  Fe  Fe2  1  0.60448100  0.60448100  0.20896400  1
  Fe  Fe3  1  0.46527600  0.46527600  0.93055200  1
  O  O0  1  0.39743100  0.89743100  0.79486100  1
  O  O1  1  0.53382300  0.03382300  0.06764600  1
  O  O2  1  0.22546100  0.22546100  0.45092100  1
  O  O3  1  0.96617700  0.46617700  0.93235400  1
  O  O4  1  0.77453900  0.77453900  0.54907900  1
  O  O5  1  0.10256900  0.60256900  0.20513900  1
  O  O6  1  0.60256900  0.10256900  0.20513900  1
  O  O7  1  0.32880900  0.32880900  0.65761800  1
  O  O8  1  0.89743100  0.39743100  0.79486100  1
  O  O9  1  0.03382300  0.53382300  0.06764600  1
  O  O10  1  0.46617700  0.96617700  0.93235400  1
  O  O11  1  0.67119100  0.67119100  0.34238200  1
loop_
_geom_bond_atom_site_label_1
_geom_bond_atom_site_label_2
_geom_bond_distance
_geom_bond_site_symmetry_2
Ba0 O11 2.810626 1_555
Ba0 O11 2.810628 1_455
Ba0 O11 2.810628 1_545
Ba0 O11 2.810631 1_445
Ba0 O2 2.869469 1_555
Ba0 O6 3.036987 1_555
Ba0 O5 3.036987 1_555
Ba0 O6 3.036992 1_455
Ba0 O5 3.036992 1_545
Ba1 O7 2.810626 1_555
Ba1 O7 2.810628 1_655
Ba1 O7 2.810628 1_565
Ba1 O7 2.810631 1_665
Ba1 O4 2.869469 1_555
Ba1 O0 3.036987 1_555
Ba1 O8 3.036987 1_555
Ba1 O0 3.036992 1_655
Ba1 O8 3.036992 1_565
Mg0 O6 2.273420 1_555
Mg0 O5 2.273420 1_555
Mg0 O6 2.273427 1_455
Mg0 O5 2.273427 1_545
Mg0 O1 2.606168 1_555
Mg0 O9 2.606168 1_555
Mg0 O1 2.606171 1_455
Mg0 O9 2.606171 1_545
Mg1 O0 2.273420 1_555
Mg1 O8 2.273420 1_555
Mg1 O0 2.273427 1_655
Mg1 O8 2.273427 1_565
Mg1 O10 2.606168 1_555
Mg1 O3 2.606168 1_555
Mg1 O10 2.606171 1_655
Mg1 O3 2.606171 1_565
Mg2 O1 2.415619 1_455
Mg2 O10 2.415619 1_544
Mg2 O9 2.415619 1_545
Mg2 O3 2.415619 1_454
Mg2 O1 2.415619 1_555
Mg2 O10 2.415619 1_444
Mg2 O9 2.415620 1_555
Mg2 O3 2.415620 1_444
Fe0 O9 1.946116 1_655
Fe0 O9 1.946116 1_555
Fe0 O1 1.946116 1_565
Fe0 O1 1.946116 1_555
Fe1 O8 1.947423 1_555
Fe1 O0 1.947423 1_555
Fe1 O8 1.947427 1_455
Fe1 O0 1.947427 1_545
Fe2 O5 1.947423 1_555
Fe2 O6 1.947423 1_555
Fe2 O5 1.947427 1_655
Fe2 O6 1.947427 1_565
Fe3 O3 1.946116 1_455
Fe3 O3 1.946116 1_555
Fe3 O10 1.946116 1_545
Fe3 O10 1.946116 1_555
O2 Tl1 2.198669 1_555
O2 Tl0 2.754373 1_555
O2 Tl0 2.754373 1_545
O2 Tl0 2.754373 1_445
O2 Tl0 2.754373 1_455
O4 Tl0 2.198669 1_555
O4 Tl1 2.754373 1_555
O4 Tl1 2.754373 1_565
O4 Tl1 2.754373 1_665
O4 Tl1 2.754373 1_655
O7 Tl1 2.175497 1_555
O11 Tl0 2.175497 1_555
