# generated using pymatgen
data_Er3ReB7
_symmetry_space_group_name_H-M   'P 1'
_cell_length_a   8.03335044
_cell_length_b   8.03335044
_cell_length_c   9.28720800
_cell_angle_alpha   90.00000000
_cell_angle_beta   90.00000000
_cell_angle_gamma   154.73910561
_symmetry_Int_Tables_number   1
_chemical_formula_structural   Er3ReB7
_chemical_formula_sum   'Er6 Re2 B14'
_cell_volume   255.76591741
_cell_formula_units_Z   2
loop_
 _symmetry_equiv_pos_site_id
 _symmetry_equiv_pos_as_xyz
  1  'x, y, z'
loop_
 _atom_site_type_symbol
 _atom_site_label
 _atom_site_symmetry_multiplicity
 _atom_site_fract_x
 _atom_site_fract_y
 _atom_site_fract_z
 _atom_site_occupancy
  Er  Er0  1  0.89454600  0.10545400  0.44048400  1
  Er  Er1  1  0.10545400  0.89454600  0.55951600  1
  Er  Er2  1  0.89454600  0.10545400  0.05951600  1
  Er  Er3  1  0.10545400  0.89454600  0.94048400  1
  Er  Er4  1  0.24226100  0.75773900  0.25000000  1
  Er  Er5  1  0.75773900  0.24226100  0.75000000  1
  Re  Re0  1  0.05279100  0.94720900  0.25000000  1
  Re  Re1  1  0.94720900  0.05279100  0.75000000  1
  B  B0  1  0.72718300  0.27281700  0.46646400  1
  B  B1  1  0.27281700  0.72718300  0.53353600  1
  B  B2  1  0.72718300  0.27281700  0.03353600  1
  B  B3  1  0.27281700  0.72718300  0.96646400  1
  B  B4  1  0.63223200  0.36776800  0.15010500  1
  B  B5  1  0.36776800  0.63223200  0.84989500  1
  B  B6  1  0.63223200  0.36776800  0.34989500  1
  B  B7  1  0.36776800  0.63223200  0.65010500  1
  B  B8  1  0.52017000  0.47983000  0.09502800  1
  B  B9  1  0.47983000  0.52017000  0.90497200  1
  B  B10  1  0.52017000  0.47983000  0.40497200  1
  B  B11  1  0.47983000  0.52017000  0.59502800  1
  B  B12  1  0.45599500  0.54400500  0.25000000  1
  B  B13  1  0.54400500  0.45599500  0.75000000  1
loop_
_geom_bond_atom_site_label_1
_geom_bond_atom_site_label_2
_geom_bond_distance
_geom_bond_site_symmetry_2
B0 B6 1.840665 1_555
B0 B1 1.996366 1_655
B0 B1 1.996366 1_545
B0 Er0 2.634970 1_555
B0 Er5 2.676479 1_555
B0 Er4 2.680106 1_545
B0 Er4 2.680106 1_655
B0 Er1 2.733977 1_545
B0 Er1 2.733977 1_655
B1 B7 1.840665 1_555
B1 Er1 2.634970 1_555
B1 Er4 2.676479 1_555
B1 Er5 2.680106 1_455
B1 Er5 2.680106 1_565
B1 Er0 2.733977 1_455
B1 Er0 2.733977 1_565
B2 B4 1.840665 1_555
B2 B3 1.996366 1_654
B2 B3 1.996366 1_544
B2 Er2 2.634970 1_555
B2 Er5 2.676479 1_554
B2 Er4 2.680106 1_545
B2 Er4 2.680106 1_655
B2 Er3 2.733977 1_544
B2 Er3 2.733977 1_654
B3 B5 1.840665 1_555
B3 Er3 2.634970 1_555
B3 Er4 2.676479 1_556
B3 Er5 2.680106 1_455
B3 Er5 2.680106 1_565
B3 Er2 2.733977 1_456
B3 Er2 2.733977 1_566
B4 B8 1.829844 1_555
B4 B6 1.855491 1_555
B4 Re0 2.344675 1_655
B4 Re0 2.344675 1_545
B4 Er4 2.630972 1_545
B4 Er4 2.630972 1_655
B4 Er3 2.655533 1_544
B4 Er3 2.655533 1_654
B5 B9 1.829844 1_555
B5 B7 1.855491 1_555
B5 Re1 2.344675 1_565
B5 Re1 2.344675 1_455
B5 Er5 2.630972 1_455
B5 Er5 2.630972 1_565
B5 Er2 2.655533 1_456
B5 Er2 2.655533 1_566
B6 Re0 2.344675 1_655
B6 Re0 2.344675 1_545
B6 Er4 2.630972 1_545
B6 Er4 2.630972 1_655
B6 Er1 2.655533 1_545
B6 Er1 2.655533 1_655
B7 Re1 2.344675 1_455
B7 Re1 2.344675 1_565
B7 Er5 2.630972 1_455
B7 Er5 2.630972 1_565
B7 Er0 2.655533 1_455
B7 Er0 2.655533 1_565
B8 B9 1.874975 1_554
B8 Re0 2.327793 1_545
B8 Re0 2.327793 1_655
B8 Er3 2.633135 1_654
B8 Er3 2.633135 1_544
B8 Er2 2.659583 1_565
B8 Er2 2.659583 1_455
B9 Re1 2.327793 1_455
B9 Re1 2.327793 1_565
B9 Er2 2.633135 1_456
B9 Er2 2.633135 1_566
B9 Er3 2.659583 1_655
B9 Er3 2.659583 1_545
B10 B12 1.756063 1_555
B10 B6 1.829844 1_555
B10 B11 1.874975 1_555
B10 Re0 2.327793 1_545
B10 Re0 2.327793 1_655
B10 Er1 2.633135 1_655
B10 Er1 2.633135 1_545
B10 Er0 2.659583 1_565
B10 Er0 2.659583 1_455
B11 B13 1.756063 1_555
B11 B7 1.829844 1_555
B11 Re1 2.327793 1_455
B11 Re1 2.327793 1_565
B11 Er0 2.633135 1_455
B11 Er0 2.633135 1_565
B11 Er1 2.659583 1_655
B11 Er1 2.659583 1_545
B12 B8 1.756063 1_555
B12 Re0 2.321331 1_545
B12 Re0 2.321331 1_655
B12 Er2 2.672697 1_565
B12 Er2 2.672697 1_455
B12 Er0 2.672697 1_455
B12 Er0 2.672697 1_565
B12 Er4 3.350900 1_555
B13 B9 1.756063 1_555
B13 Re1 2.321331 1_455
B13 Re1 2.321331 1_565
B13 Er3 2.672697 1_655
B13 Er1 2.672697 1_655
B13 Er1 2.672697 1_545
B13 Er3 2.672697 1_545
B13 Er5 3.350900 1_555
