# generated using pymatgen
data_Sr7OsN6
_symmetry_space_group_name_H-M   'P 1'
_cell_length_a   11.97249713
_cell_length_b   6.76122157
_cell_length_c   14.03842381
_cell_angle_alpha   90.00000000
_cell_angle_beta   90.00000000
_cell_angle_gamma   90.00000000
_symmetry_Int_Tables_number   1
_chemical_formula_structural   Sr7OsN6
_chemical_formula_sum   'Sr28 Os4 N24'
_cell_volume   1136.39223948
_cell_formula_units_Z   4
loop_
 _symmetry_equiv_pos_site_id
 _symmetry_equiv_pos_as_xyz
  1  'x, y, z'
loop_
 _atom_site_type_symbol
 _atom_site_label
 _atom_site_symmetry_multiplicity
 _atom_site_fract_x
 _atom_site_fract_y
 _atom_site_fract_z
 _atom_site_occupancy
  Sr  Sr0  1  0.03493730  0.73007209  0.98416669  1
  Sr  Sr1  1  0.46506270  0.76992791  0.48416669  1
  Sr  Sr2  1  0.53493730  0.76992791  0.01583331  1
  Sr  Sr3  1  0.96506270  0.73007209  0.51583331  1
  Sr  Sr4  1  0.96506270  0.26992791  0.01583331  1
  Sr  Sr5  1  0.53493730  0.23007209  0.51583331  1
  Sr  Sr6  1  0.46506270  0.23007209  0.98416669  1
  Sr  Sr7  1  0.03493730  0.26992791  0.48416669  1
  Sr  Sr8  1  0.21623883  0.87151506  0.62509291  1
  Sr  Sr9  1  0.28376117  0.62848494  0.12509291  1
  Sr  Sr10  1  0.71623883  0.62848494  0.37490709  1
  Sr  Sr11  1  0.78376117  0.87151506  0.87490709  1
  Sr  Sr12  1  0.78376117  0.12848494  0.37490709  1
  Sr  Sr13  1  0.71623883  0.37151506  0.87490709  1
  Sr  Sr14  1  0.28376117  0.37151506  0.62509291  1
  Sr  Sr15  1  0.21623883  0.12848494  0.12509291  1
  Sr  Sr16  1  0.28624606  0.60907744  0.87911558  1
  Sr  Sr17  1  0.21375394  0.89092256  0.37911558  1
  Sr  Sr18  1  0.78624606  0.89092256  0.12088442  1
  Sr  Sr19  1  0.71375394  0.60907744  0.62088442  1
  Sr  Sr20  1  0.71375394  0.39092256  0.12088442  1
  Sr  Sr21  1  0.78624606  0.10907744  0.62088442  1
  Sr  Sr22  1  0.21375394  0.10907744  0.87911558  1
  Sr  Sr23  1  0.28624606  0.39092256  0.37911558  1
  Sr  Sr24  1  0.00000000  0.42870928  0.75000000  1
  Sr  Sr25  1  0.50000000  0.07129072  0.25000000  1
  Sr  Sr26  1  0.00000000  0.57129072  0.25000000  1
  Sr  Sr27  1  0.50000000  0.92870928  0.75000000  1
  Os  Os0  1  0.00000000  0.92265879  0.75000000  1
  Os  Os1  1  0.50000000  0.57734121  0.25000000  1
  Os  Os2  1  0.00000000  0.07734121  0.25000000  1
  Os  Os3  1  0.50000000  0.42265879  0.75000000  1
  N  N0  1  0.11893524  0.75880714  0.79461093  1
  N  N1  1  0.38106476  0.74119286  0.29461093  1
  N  N2  1  0.61893524  0.74119286  0.20538907  1
  N  N3  1  0.88106476  0.75880714  0.70538907  1
  N  N4  1  0.88106476  0.24119286  0.20538907  1
  N  N5  1  0.61893524  0.25880714  0.70538907  1
  N  N6  1  0.38106476  0.25880714  0.79461093  1
  N  N7  1  0.11893524  0.24119286  0.29461093  1
  N  N8  1  0.16785224  0.59361678  0.50506010  1
  N  N9  1  0.33214776  0.90638322  0.00506010  1
  N  N10  1  0.66785224  0.90638322  0.49493990  1
  N  N11  1  0.83214776  0.59361678  0.99493990  1
  N  N12  1  0.83214776  0.40638322  0.49493990  1
  N  N13  1  0.66785224  0.09361678  0.99493990  1
  N  N14  1  0.33214776  0.09361678  0.50506010  1
  N  N15  1  0.16785224  0.40638322  0.00506010  1
  N  N16  1  0.47074934  0.59062313  0.64269393  1
  N  N17  1  0.02925066  0.90937687  0.14269393  1
  N  N18  1  0.97074934  0.90937687  0.35730607  1
  N  N19  1  0.52925066  0.59062313  0.85730607  1
  N  N20  1  0.52925066  0.40937687  0.35730607  1
  N  N21  1  0.97074934  0.09062313  0.85730607  1
  N  N22  1  0.02925066  0.09062313  0.64269393  1
  N  N23  1  0.47074934  0.40937687  0.14269393  1
loop_
_geom_bond_atom_site_label_1
_geom_bond_atom_site_label_2
_geom_bond_distance
_geom_bond_site_symmetry_2
N0 Os0 1.909752 1_555
N0 Sr16 2.538646 1_555
N0 Sr24 2.720491 1_555
N0 Sr8 2.757017 1_555
N0 Sr0 2.851380 1_555
N0 Sr22 2.881785 1_565
N1 Os1 1.909752 1_555
N1 Sr17 2.538646 1_555
N1 Sr25 2.720491 1_565
N1 Sr9 2.757017 1_555
N1 Sr1 2.851380 1_555
N1 Sr23 2.881785 1_555
N2 Os1 1.909752 1_555
N2 Sr18 2.538646 1_555
N2 Sr25 2.720491 1_565
N2 Sr10 2.757017 1_555
N2 Sr2 2.851380 1_555
N2 Sr20 2.881785 1_555
N3 Os0 1.909752 1_655
N3 Sr19 2.538646 1_555
N3 Sr24 2.720491 1_655
N3 Sr11 2.757017 1_555
N3 Sr3 2.851380 1_555
N3 Sr21 2.881785 1_565
N4 Os2 1.909752 1_655
N4 Sr20 2.538646 1_555
N4 Sr26 2.720491 1_655
N4 Sr12 2.757017 1_555
N4 Sr4 2.851380 1_555
N4 Sr18 2.881785 1_545
N5 Os3 1.909752 1_555
N5 Sr21 2.538646 1_555
N5 Sr27 2.720491 1_545
N5 Sr13 2.757017 1_555
N5 Sr5 2.851380 1_555
N5 Sr19 2.881785 1_555
N6 Os3 1.909752 1_555
N6 Sr22 2.538646 1_555
N6 Sr27 2.720491 1_545
N6 Sr14 2.757017 1_555
N6 Sr6 2.851380 1_555
N6 Sr16 2.881785 1_555
N7 Os2 1.909752 1_555
N7 Sr23 2.538646 1_555
N7 Sr26 2.720491 1_555
N7 Sr15 2.757017 1_555
N7 Sr7 2.851380 1_555
N7 Sr17 2.881785 1_545
N8 Sr8 2.589488 1_555
N8 Sr3 2.601684 1_455
N8 Sr23 2.648288 1_555
N8 Sr14 2.649579 1_555
N8 Sr7 2.721767 1_555
N8 Sr17 2.732904 1_555
N9 Sr9 2.589488 1_555
N9 Sr2 2.601684 1_555
N9 Sr22 2.648288 1_564
N9 Sr15 2.649579 1_565
N9 Sr6 2.721767 1_564
N9 Sr16 2.732904 1_554
N10 Sr10 2.589488 1_555
N10 Sr1 2.601684 1_555
N10 Sr21 2.648288 1_565
N10 Sr12 2.649579 1_565
N10 Sr5 2.721767 1_565
N10 Sr19 2.732904 1_555
N11 Sr11 2.589488 1_555
N11 Sr0 2.601684 1_655
N11 Sr20 2.648288 1_556
N11 Sr13 2.649579 1_555
N11 Sr4 2.721767 1_556
N11 Sr18 2.732904 1_556
N12 Sr12 2.589488 1_555
N12 Sr7 2.601684 1_655
N12 Sr19 2.648288 1_555
N12 Sr10 2.649579 1_555
N12 Sr3 2.721767 1_555
N12 Sr21 2.732904 1_555
N13 Sr13 2.589488 1_555
N13 Sr6 2.601684 1_555
N13 Sr18 2.648288 1_546
N13 Sr11 2.649579 1_545
N13 Sr2 2.721767 1_546
N13 Sr20 2.732904 1_556
N14 Sr14 2.589488 1_555
N14 Sr5 2.601684 1_555
N14 Sr17 2.648288 1_545
N14 Sr8 2.649579 1_545
N14 Sr1 2.721767 1_545
N14 Sr23 2.732904 1_555
N15 Sr15 2.589488 1_555
N15 Sr4 2.601684 1_455
N15 Sr16 2.648288 1_554
N15 Sr9 2.649579 1_555
N15 Sr0 2.721767 1_554
N15 Sr22 2.732904 1_554
N16 Os3 1.918748 1_555
N16 Sr1 2.535169 1_555
N16 Sr14 2.695841 1_555
N16 Sr27 2.759916 1_555
N16 Sr19 2.928097 1_555
N16 Sr5 3.115279 1_555
N17 Os2 1.918748 1_565
N17 Sr0 2.535169 1_554
N17 Sr15 2.695841 1_565
N17 Sr26 2.759916 1_555
N17 Sr18 2.928097 1_455
N17 Sr4 3.115279 1_465
N18 Os2 1.918748 1_665
N18 Sr3 2.535169 1_555
N18 Sr12 2.695841 1_565
N18 Sr26 2.759916 1_655
N18 Sr17 2.928097 1_655
N18 Sr7 3.115279 1_665
N19 Os3 1.918748 1_555
N19 Sr2 2.535169 1_556
N19 Sr13 2.695841 1_555
N19 Sr27 2.759916 1_555
N19 Sr16 2.928097 1_555
N19 Sr6 3.115279 1_555
N20 Os1 1.918748 1_555
N20 Sr5 2.535169 1_555
N20 Sr10 2.695841 1_555
N20 Sr25 2.759916 1_555
N20 Sr23 2.928097 1_555
N20 Sr1 3.115279 1_555
N21 Os0 1.918748 1_645
N21 Sr4 2.535169 1_556
N21 Sr11 2.695841 1_545
N21 Sr24 2.759916 1_655
N21 Sr22 2.928097 1_655
N21 Sr0 3.115279 1_645
N22 Os0 1.918748 1_545
N22 Sr7 2.535169 1_555
N22 Sr8 2.695841 1_545
N22 Sr24 2.759916 1_555
N22 Sr21 2.928097 1_455
N22 Sr3 3.115279 1_445
N23 Os1 1.918748 1_555
N23 Sr6 2.535169 1_554
N23 Sr9 2.695841 1_555
N23 Sr25 2.759916 1_555
N23 Sr20 2.928097 1_555
N23 Sr2 3.115279 1_555
