# generated using pymatgen
data_Y4Co3
_symmetry_space_group_name_H-M   'P 1'
_cell_length_a   11.33571598
_cell_length_b   11.33571598
_cell_length_c   4.09641400
_cell_angle_alpha   90.00000000
_cell_angle_beta   90.00000000
_cell_angle_gamma   119.99999987
_symmetry_Int_Tables_number   1
_chemical_formula_structural   Y4Co3
_chemical_formula_sum   'Y12 Co9'
_cell_volume   455.86094428
_cell_formula_units_Z   3
loop_
 _symmetry_equiv_pos_site_id
 _symmetry_equiv_pos_as_xyz
  1  'x, y, z'
loop_
 _atom_site_type_symbol
 _atom_site_label
 _atom_site_symmetry_multiplicity
 _atom_site_fract_x
 _atom_site_fract_y
 _atom_site_fract_z
 _atom_site_occupancy
  Y  Y0  1  0.24957900  0.02668900  0.25159300  1
  Y  Y1  1  0.77711000  0.75042100  0.25159300  1
  Y  Y2  1  0.97331100  0.22289000  0.25159300  1
  Y  Y3  1  0.75042100  0.97331100  0.74840700  1
  Y  Y4  1  0.22289000  0.24957900  0.74840700  1
  Y  Y5  1  0.02668900  0.77711000  0.74840700  1
  Y  Y6  1  0.86375100  0.48405200  0.25045200  1
  Y  Y7  1  0.62030100  0.13624900  0.25045200  1
  Y  Y8  1  0.51594800  0.37969900  0.25045200  1
  Y  Y9  1  0.13624900  0.51594800  0.74954800  1
  Y  Y10  1  0.37969900  0.86375100  0.74954800  1
  Y  Y11  1  0.48405200  0.62030100  0.74954800  1
  Co  Co0  1  0.33333300  0.66666700  0.25128700  1
  Co  Co1  1  0.66666700  0.33333300  0.74871300  1
  Co  Co2  1  0.55831400  0.84183400  0.25125400  1
  Co  Co3  1  0.28352000  0.44168600  0.25125400  1
  Co  Co4  1  0.15816600  0.71648000  0.25125400  1
  Co  Co5  1  0.44168600  0.15816600  0.74874600  1
  Co  Co6  1  0.71648000  0.55831400  0.74874600  1
  Co  Co7  1  0.84183400  0.28352000  0.74874600  1
  Co  Co8  1  0.00000000  0.00000000  0.50000000  1
loop_
_geom_bond_atom_site_label_1
_geom_bond_atom_site_label_2
_geom_bond_distance
_geom_bond_site_symmetry_2
Co0 Co4 2.320098 1_555
Co0 Co2 2.320105 1_555
Co0 Co3 2.320109 1_555
Co0 Y10 2.873882 1_555
Co0 Y9 2.873885 1_555
Co0 Y11 2.873890 1_555
Co0 Y10 2.884019 1_554
Co0 Y9 2.884021 1_554
Co0 Y11 2.884026 1_554
Co1 Co7 2.320098 1_555
Co1 Co5 2.320105 1_555
Co1 Co6 2.320109 1_555
Co1 Y7 2.873882 1_555
Co1 Y6 2.873885 1_555
Co1 Y8 2.873890 1_555
Co1 Y7 2.884019 1_556
Co1 Y6 2.884021 1_556
Co1 Y8 2.884026 1_556
Co2 Y3 2.804540 1_555
Co2 Y3 2.821523 1_554
Co2 Y10 2.971676 1_555
Co2 Y10 2.981294 1_554
Co2 Y11 3.011235 1_555
Co2 Y11 3.020727 1_554
Co2 Y7 3.047448 1_565
Co2 Y1 3.129743 1_555
Co3 Y4 2.804540 1_555
Co3 Y4 2.821523 1_554
Co3 Y11 2.971676 1_555
Co3 Y11 2.981294 1_554
Co3 Y9 3.011235 1_555
Co3 Y9 3.020727 1_554
Co3 Y8 3.047448 1_555
Co3 Y2 3.129743 1_455
Co4 Y5 2.804540 1_555
Co4 Y5 2.821523 1_554
Co4 Y9 2.971676 1_555
Co4 Y9 2.981294 1_554
Co4 Y10 3.011235 1_555
Co4 Y10 3.020727 1_554
Co4 Y6 3.047448 1_455
Co4 Y0 3.129743 1_565
Co5 Y0 2.804540 1_555
Co5 Y0 2.821523 1_556
Co5 Y7 2.971676 1_555
Co5 Y7 2.981294 1_556
Co5 Y8 3.011235 1_555
Co5 Y8 3.020727 1_556
Co5 Y10 3.047448 1_545
Co5 Y4 3.129743 1_555
Co6 Y1 2.804540 1_555
Co6 Y1 2.821523 1_556
Co6 Y8 2.971676 1_555
Co6 Y8 2.981294 1_556
Co6 Y6 3.011235 1_555
Co6 Y6 3.020727 1_556
Co6 Y11 3.047448 1_555
Co6 Y5 3.129743 1_655
Co7 Y2 2.804540 1_555
Co7 Y2 2.821523 1_556
Co7 Y6 2.971676 1_555
Co7 Y6 2.981294 1_556
Co7 Y7 3.011235 1_555
Co7 Y7 3.020727 1_556
Co7 Y9 3.047448 1_655
Co7 Y3 3.129743 1_545
Co8 Y2 2.876663 1_455
Co8 Y5 2.876663 1_545
Co8 Y0 2.876663 1_555
Co8 Y3 2.876663 1_445
Co8 Y4 2.876663 1_555
Co8 Y1 2.876663 1_445
