# generated using pymatgen
data_K2Si6GeO15
_symmetry_space_group_name_H-M   'P 1'
_cell_length_a   7.34943827
_cell_length_b   7.34943827
_cell_length_c   15.00824126
_cell_angle_alpha   75.42566699
_cell_angle_beta   75.42566699
_cell_angle_gamma   59.52989367
_symmetry_Int_Tables_number   1
_chemical_formula_structural   K2Si6GeO15
_chemical_formula_sum   'K4 Si12 Ge2 O30'
_cell_volume   668.70169004
_cell_formula_units_Z   2
loop_
 _symmetry_equiv_pos_site_id
 _symmetry_equiv_pos_as_xyz
  1  'x, y, z'
loop_
 _atom_site_type_symbol
 _atom_site_label
 _atom_site_symmetry_multiplicity
 _atom_site_fract_x
 _atom_site_fract_y
 _atom_site_fract_z
 _atom_site_occupancy
  K  K0  1  0.78700000  0.92131100  0.21180700  1
  K  K1  1  0.92131100  0.78700000  0.71180700  1
  K  K2  1  0.20900600  0.57599300  0.40104000  1
  K  K3  1  0.57599300  0.20900600  0.90104000  1
  Si  Si0  1  0.56448800  0.59091300  0.16953500  1
  Si  Si1  1  0.59091300  0.56448800  0.66953500  1
  Si  Si2  1  0.69294000  0.13313700  0.47747000  1
  Si  Si3  1  0.13313700  0.69294000  0.97747000  1
  Si  Si4  1  0.11902500  0.04583500  0.49339000  1
  Si  Si5  1  0.04583500  0.11902500  0.99339000  1
  Si  Si6  1  0.19560600  0.05087500  0.18767500  1
  Si  Si7  1  0.05087500  0.19560600  0.68767500  1
  Si  Si8  1  0.29278900  0.39749100  0.17156000  1
  Si  Si9  1  0.39749100  0.29278900  0.67156000  1
  Si  Si10  1  0.59799400  0.77107000  0.45999500  1
  Si  Si11  1  0.77107000  0.59799400  0.95999500  1
  Ge  Ge0  1  0.89467700  0.39541700  0.32691600  1
  Ge  Ge1  1  0.39541700  0.89467700  0.82691600  1
  O  O0  1  0.33411000  0.78959600  0.20721700  1
  O  O1  1  0.78959600  0.33411000  0.70721700  1
  O  O2  1  0.36435000  0.15046700  0.15966400  1
  O  O3  1  0.15046700  0.36435000  0.65966400  1
  O  O4  1  0.93981200  0.96655200  0.49996300  1
  O  O5  1  0.96655200  0.93981200  0.99996300  1
  O  O6  1  0.34597500  0.84014200  0.46038100  1
  O  O7  1  0.84014200  0.34597500  0.96038100  1
  O  O8  1  0.06466300  0.11952100  0.10032200  1
  O  O9  1  0.11952100  0.06466300  0.60032200  1
  O  O10  1  0.22210300  0.54993800  0.07414200  1
  O  O11  1  0.54993800  0.22210300  0.57414200  1
  O  O12  1  0.62106300  0.66928700  0.05878700  1
  O  O13  1  0.66928700  0.62106300  0.55878700  1
  O  O14  1  0.60142200  0.99725100  0.45012900  1
  O  O15  1  0.99725100  0.60142200  0.95012900  1
  O  O16  1  0.75065500  0.54124200  0.22268400  1
  O  O17  1  0.54124200  0.75065500  0.72268400  1
  O  O18  1  0.47791500  0.11024600  0.75928900  1
  O  O19  1  0.11024600  0.47791500  0.25928900  1
  O  O20  1  0.66154200  0.75975500  0.87214900  1
  O  O21  1  0.75975500  0.66154200  0.37214900  1
  O  O22  1  0.33216000  0.67337100  0.89701500  1
  O  O23  1  0.67337100  0.33216000  0.39701500  1
  O  O24  1  0.26916200  0.06331800  0.92594400  1
  O  O25  1  0.06331800  0.26916200  0.42594400  1
  O  O26  1  0.12838900  0.03018100  0.78056900  1
  O  O27  1  0.03018100  0.12838900  0.28056900  1
  O  O28  1  0.38857300  0.51427100  0.68425900  1
  O  O29  1  0.51427100  0.38857300  0.18425900  1
loop_
_geom_bond_atom_site_label_1
_geom_bond_atom_site_label_2
_geom_bond_distance
_geom_bond_site_symmetry_2
K0 O21 2.703516 1_555
K0 O2 2.889992 1_565
K0 O16 2.899270 1_555
K0 O19 2.933049 1_655
K0 O29 2.950132 1_565
K0 O8 3.025849 1_665
K0 O5 3.117911 1_554
K0 O27 3.324564 1_665
K1 O20 2.703516 1_555
K1 O3 2.889992 1_655
K1 O17 2.899270 1_555
K1 O18 2.933049 1_565
K1 O28 2.950132 1_655
K1 O9 3.025849 1_665
K1 O4 3.117911 1_555
K1 O26 3.324564 1_665
K2 O19 2.766204 1_555
K2 O25 2.862603 1_555
K2 O23 2.934368 1_555
K2 O6 2.979703 1_555
K2 O4 3.043784 1_455
K2 O0 3.096989 1_555
K2 O21 3.156386 1_455
K3 O18 2.766204 1_555
K3 O24 2.862603 1_555
K3 O22 2.934368 1_555
K3 O7 2.979703 1_555
K3 O5 3.043784 1_545
K3 O1 3.096989 1_555
K3 O20 3.156386 1_545
Ge0 O16 1.885530 1_555
Ge0 O23 1.904714 1_555
Ge0 O21 1.905798 1_555
Ge0 O25 1.916428 1_655
Ge0 O27 1.919194 1_655
Ge0 O19 1.939856 1_655
Ge1 O17 1.885530 1_555
Ge1 O22 1.904714 1_555
Ge1 O20 1.905798 1_555
Ge1 O24 1.916428 1_565
Ge1 O26 1.919194 1_565
Ge1 O18 1.939856 1_565
O0 Si6 1.641338 1_565
O0 Si0 1.656833 1_555
O1 Si7 1.641338 1_655
O1 Si1 1.656833 1_555
O2 Si8 1.658911 1_555
O2 Si6 1.659478 1_555
O3 Si9 1.658911 1_555
O3 Si7 1.659478 1_555
O4 Si2 1.658987 1_565
O4 Si4 1.663752 1_665
O5 Si3 1.658987 1_655
O5 Si5 1.663752 1_665
O6 Si4 1.648220 1_565
O6 Si10 1.652534 1_555
O7 Si5 1.648220 1_655
O7 Si11 1.652534 1_555
O8 Si6 1.645936 1_555
O8 Si5 1.646195 1_554
O9 Si7 1.645936 1_555
O9 Si4 1.646195 1_555
O10 Si8 1.621845 1_555
O10 Si3 1.627950 1_554
O11 Si9 1.621845 1_555
O11 Si2 1.627950 1_555
O12 Si11 1.634268 1_554
O12 Si0 1.637255 1_555
O13 Si10 1.634268 1_555
O13 Si1 1.637255 1_555
O14 Si2 1.626204 1_565
O14 Si10 1.643938 1_555
O15 Si3 1.626204 1_655
O15 Si11 1.643938 1_555
O16 Si0 1.593029 1_555
O17 Si1 1.593029 1_555
O18 Si9 1.606635 1_555
O19 Si8 1.606635 1_555
O20 Si11 1.604459 1_555
O21 Si10 1.604459 1_555
O22 Si3 1.613504 1_555
O23 Si2 1.613504 1_555
O24 Si5 1.605344 1_555
O25 Si4 1.605344 1_555
O26 Si7 1.609542 1_555
O27 Si6 1.609542 1_555
O28 Si9 1.652845 1_555
O28 Si1 1.657302 1_555
O29 Si8 1.652845 1_555
O29 Si0 1.657302 1_555
