# generated using pymatgen
data_KNaAl6Si6(HO6)4
_symmetry_space_group_name_H-M   'P 1'
_cell_length_a   9.02010200
_cell_length_b   5.19526700
_cell_length_c   19.88538910
_cell_angle_alpha   85.31069417
_cell_angle_beta   90.00000000
_cell_angle_gamma   90.00000000
_symmetry_Int_Tables_number   1
_chemical_formula_structural   KNaAl6Si6(HO6)4
_chemical_formula_sum   'K2 Na2 Al12 Si12 H8 O48'
_cell_volume   928.74661846
_cell_formula_units_Z   2
loop_
 _symmetry_equiv_pos_site_id
 _symmetry_equiv_pos_as_xyz
  1  'x, y, z'
loop_
 _atom_site_type_symbol
 _atom_site_label
 _atom_site_symmetry_multiplicity
 _atom_site_fract_x
 _atom_site_fract_y
 _atom_site_fract_z
 _atom_site_occupancy
  K  K0  1  0.39911100  0.00000000  0.00000000  1
  K  K1  1  0.90069500  0.50000000  0.00000000  1
  Na  Na0  1  0.58123000  0.00000000  0.50000000  1
  Na  Na1  1  0.11499700  0.50000000  0.50000000  1
  Al  Al0  1  0.08650400  0.26497500  0.25845800  1
  Al  Al1  1  0.26038500  0.05517200  0.39586300  1
  Al  Al2  1  0.08650400  0.73502500  0.74154200  1
  Al  Al3  1  0.26038500  0.94482800  0.60413700  1
  Al  Al4  1  0.91454600  0.76232300  0.25606800  1
  Al  Al5  1  0.74034900  0.97084900  0.11841400  1
  Al  Al6  1  0.91454600  0.23767700  0.74393200  1
  Al  Al7  1  0.74034900  0.02915100  0.88158600  1
  Al  Al8  1  0.58520900  0.76676600  0.25629300  1
  Al  Al9  1  0.58520900  0.23323400  0.74370700  1
  Al  Al10  1  0.41635100  0.26050700  0.25797000  1
  Al  Al11  1  0.41635100  0.73949300  0.74203000  1
  Si  Si0  1  0.92945400  0.06247200  0.39542600  1
  Si  Si1  1  0.92945400  0.93752800  0.60457400  1
  Si  Si2  1  0.07066000  0.96654000  0.11902500  1
  Si  Si3  1  0.07066000  0.03346000  0.88097500  1
  Si  Si4  1  0.43046800  0.53783600  0.39604500  1
  Si  Si5  1  0.75675800  0.57192600  0.39453000  1
  Si  Si6  1  0.43046800  0.46216400  0.60395500  1
  Si  Si7  1  0.75675800  0.42807400  0.60547000  1
  Si  Si8  1  0.57071000  0.48929200  0.11832200  1
  Si  Si9  1  0.24458300  0.45537900  0.12013500  1
  Si  Si10  1  0.57071000  0.51070800  0.88167800  1
  Si  Si11  1  0.24458300  0.54462100  0.87986500  1
  H  H0  1  0.65907200  0.15570700  0.31221600  1
  H  H1  1  0.65907200  0.84429300  0.68778400  1
  H  H2  1  0.34160900  0.87091100  0.20317500  1
  H  H3  1  0.34160900  0.12908900  0.79682500  1
  H  H4  1  0.14617100  0.64143100  0.32615600  1
  H  H5  1  0.14617100  0.35856900  0.67384400  1
  H  H6  1  0.85459800  0.38520000  0.18854700  1
  H  H7  1  0.85459800  0.61480000  0.81145300  1
  O  O0  1  0.94294800  0.05525200  0.31296400  1
  O  O1  1  0.25121400  0.13591700  0.30838500  1
  O  O2  1  0.56659900  0.06209100  0.30684900  1
  O  O3  1  0.08521600  0.13221800  0.42966700  1
  O  O4  1  0.80066800  0.26906900  0.41754200  1
  O  O5  1  0.87335500  0.77189700  0.42723700  1
  O  O6  1  0.94294800  0.94474800  0.68703600  1
  O  O7  1  0.25121400  0.86408300  0.69161500  1
  O  O8  1  0.56659900  0.93790900  0.69315100  1
  O  O9  1  0.08521600  0.86778200  0.57033300  1
  O  O10  1  0.80066800  0.73093100  0.58245800  1
  O  O11  1  0.87335500  0.22810300  0.57276300  1
  O  O12  1  0.05824500  0.97264800  0.20145700  1
  O  O13  1  0.75042000  0.89028200  0.20600700  1
  O  O14  1  0.43439600  0.96513800  0.20734800  1
  O  O15  1  0.91537700  0.91416400  0.08279900  1
  O  O16  1  0.19309200  0.75238500  0.09613700  1
  O  O17  1  0.13386400  0.25013200  0.08636600  1
  O  O18  1  0.05824500  0.02735200  0.79854300  1
  O  O19  1  0.75042000  0.10971800  0.79399300  1
  O  O20  1  0.43439600  0.03486200  0.79265200  1
  O  O21  1  0.91537700  0.08583600  0.91720100  1
  O  O22  1  0.19309200  0.24761500  0.90386300  1
  O  O23  1  0.13386400  0.74986800  0.91363400  1
  O  O24  1  0.44885300  0.55068400  0.31301800  1
  O  O25  1  0.75202700  0.62281000  0.31279400  1
  O  O26  1  0.05911600  0.56186900  0.30753300  1
  O  O27  1  0.59292100  0.63012800  0.42681500  1
  O  O28  1  0.29693300  0.72579200  0.41745800  1
  O  O29  1  0.39832800  0.24692300  0.42983000  1
  O  O30  1  0.44885300  0.44931600  0.68698200  1
  O  O31  1  0.75202700  0.37719000  0.68720600  1
  O  O32  1  0.05911600  0.43813100  0.69246700  1
  O  O33  1  0.59292100  0.36987200  0.57318500  1
  O  O34  1  0.29693300  0.27420800  0.58254200  1
  O  O35  1  0.39832800  0.75307700  0.57017000  1
  O  O36  1  0.55207500  0.47703600  0.20150000  1
  O  O37  1  0.24925600  0.40488500  0.20182800  1
  O  O38  1  0.94226700  0.46581900  0.20651900  1
  O  O39  1  0.40753800  0.41042600  0.08663100  1
  O  O40  1  0.69902600  0.29506000  0.09669700  1
  O  O41  1  0.60793400  0.77518300  0.08369800  1
  O  O42  1  0.55207500  0.52296400  0.79850000  1
  O  O43  1  0.24925600  0.59511500  0.79817200  1
  O  O44  1  0.94226700  0.53418100  0.79348100  1
  O  O45  1  0.40753800  0.58957400  0.91336900  1
  O  O46  1  0.69902600  0.70494000  0.90330300  1
  O  O47  1  0.60793400  0.22481700  0.91630200  1
loop_
_geom_bond_atom_site_label_1
_geom_bond_atom_site_label_2
_geom_bond_distance
_geom_bond_site_symmetry_2
K0 O41 2.713748 1_545
K0 O47 2.713748 1_554
K0 O39 2.849671 1_555
K0 O45 2.849671 1_544
K0 O22 2.891503 1_554
K0 O16 2.891503 1_545
K1 O40 2.793796 1_555
K1 O46 2.793796 1_554
K1 O15 2.817358 1_555
K1 O21 2.817358 1_554
K1 O23 2.948498 1_654
K1 O17 2.948498 1_655
Na0 O29 2.453941 1_555
Na0 O35 2.453941 1_545
Na0 O33 2.505750 1_555
Na0 O27 2.505750 1_545
Na0 O10 2.861083 1_545
Na0 O4 2.861083 1_555
Na1 O9 2.473066 1_555
Na1 O3 2.473066 1_555
Na1 O34 2.539391 1_555
Na1 O28 2.539391 1_555
Na1 O5 2.916433 1_455
Na1 O11 2.916433 1_455
Al0 O1 1.879817 1_555
Al0 O26 1.907514 1_555
Al0 O38 1.916239 1_455
Al0 O37 1.953911 1_555
Al0 O0 1.961016 1_455
Al0 O12 1.984372 1_545
Al1 O1 1.757692 1_555
Al1 O28 1.761022 1_545
Al1 O29 1.762623 1_555
Al1 O3 1.775558 1_555
Al2 O7 1.879817 1_555
Al2 O32 1.907514 1_555
Al2 O44 1.916239 1_455
Al2 O43 1.953911 1_555
Al2 O6 1.961016 1_455
Al2 O18 1.984372 1_565
Al3 O7 1.757692 1_555
Al3 O34 1.761022 1_565
Al3 O35 1.762623 1_555
Al3 O9 1.775558 1_555
Al4 O13 1.875206 1_555
Al4 O38 1.911646 1_555
Al4 O26 1.912626 1_655
Al4 O25 1.952707 1_555
Al4 O12 1.964524 1_655
Al4 O0 1.985757 1_565
Al5 O40 1.744584 1_565
Al5 O41 1.746781 1_555
Al5 O13 1.760166 1_555
Al5 O15 1.764913 1_555
Al6 O19 1.875206 1_555
Al6 O44 1.911646 1_555
Al6 O32 1.912626 1_655
Al6 O31 1.952707 1_555
Al6 O18 1.964524 1_655
Al6 O6 1.985757 1_545
Al7 O46 1.744584 1_545
Al7 O47 1.746781 1_555
Al7 O19 1.760166 1_555
Al7 O21 1.764913 1_555
Al8 O13 1.878172 1_555
Al8 O2 1.909217 1_565
Al8 O14 1.922489 1_555
Al8 O36 1.952017 1_555
Al8 O24 1.959168 1_555
Al8 O25 1.987075 1_555
Al9 O19 1.878172 1_555
Al9 O8 1.909217 1_545
Al9 O20 1.922489 1_555
Al9 O42 1.952017 1_555
Al9 O30 1.959168 1_555
Al9 O31 1.987075 1_555
Al10 O1 1.880608 1_555
Al10 O14 1.909747 1_545
Al10 O2 1.918392 1_555
Al10 O36 1.954139 1_555
Al10 O24 1.956203 1_555
Al10 O37 1.985890 1_555
Al11 O7 1.880608 1_555
Al11 O20 1.909747 1_565
Al11 O8 1.918392 1_555
Al11 O42 1.954139 1_555
Al11 O30 1.956203 1_555
Al11 O43 1.985890 1_555
H0 O2 0.975793 1_555
H1 O8 0.975793 1_555
H2 O14 0.976552 1_555
H3 O20 0.976552 1_555
H4 O26 0.974491 1_555
H5 O32 0.974491 1_555
H6 O38 0.976195 1_555
H7 O44 0.976195 1_555
O0 Si0 1.647782 1_555
O3 Si0 1.615317 1_455
O4 Si5 1.650518 1_555
O4 Si0 1.664957 1_555
O5 Si5 1.648913 1_555
O5 Si0 1.667034 1_565
O6 Si1 1.647782 1_555
O9 Si1 1.615317 1_455
O10 Si7 1.650518 1_555
O10 Si1 1.664957 1_555
O11 Si7 1.648913 1_555
O11 Si1 1.667034 1_545
O12 Si2 1.645905 1_555
O15 Si2 1.608383 1_655
O16 Si9 1.644378 1_555
O16 Si2 1.657527 1_555
O17 Si9 1.643904 1_555
O17 Si2 1.661644 1_545
O18 Si3 1.645905 1_555
O21 Si3 1.608383 1_655
O22 Si11 1.644378 1_555
O22 Si3 1.657527 1_555
O23 Si11 1.643904 1_555
O23 Si3 1.661644 1_565
O24 Si4 1.655240 1_555
O25 Si5 1.625799 1_555
O27 Si5 1.649032 1_555
O27 Si4 1.673168 1_555
O28 Si4 1.628996 1_555
O29 Si4 1.628993 1_555
O30 Si6 1.655240 1_555
O31 Si7 1.625799 1_555
O33 Si7 1.649032 1_555
O33 Si6 1.673168 1_555
O34 Si6 1.628996 1_555
O35 Si6 1.628993 1_555
O36 Si8 1.658582 1_555
O37 Si9 1.624779 1_555
O39 Si9 1.638407 1_555
O39 Si8 1.665386 1_555
O40 Si8 1.616711 1_555
O41 Si8 1.620382 1_555
O42 Si10 1.658582 1_555
O43 Si11 1.624779 1_555
O45 Si11 1.638407 1_555
O45 Si10 1.665386 1_555
O46 Si10 1.616711 1_555
O47 Si10 1.620382 1_555
