# generated using pymatgen
data_Ca4Sn5(TeO6)3
_symmetry_space_group_name_H-M   'P 1'
_cell_length_a   9.41435621
_cell_length_b   9.41435621
_cell_length_c   11.85769685
_cell_angle_alpha   87.80794698
_cell_angle_beta   87.80794698
_cell_angle_gamma   67.62745073
_symmetry_Int_Tables_number   1
_chemical_formula_structural   Ca4Sn5(TeO6)3
_chemical_formula_sum   'Ca8 Sn10 Te6 O36'
_cell_volume   970.81201968
_cell_formula_units_Z   2
loop_
 _symmetry_equiv_pos_site_id
 _symmetry_equiv_pos_as_xyz
  1  'x, y, z'
loop_
 _atom_site_type_symbol
 _atom_site_label
 _atom_site_symmetry_multiplicity
 _atom_site_fract_x
 _atom_site_fract_y
 _atom_site_fract_z
 _atom_site_occupancy
  Ca  Ca0  1  0.38143400  0.06948500  0.12478500  1
  Ca  Ca1  1  0.35903800  0.69460300  0.97359600  1
  Ca  Ca2  1  0.93051500  0.61856600  0.37521500  1
  Ca  Ca3  1  0.30539700  0.64096200  0.52640400  1
  Ca  Ca4  1  0.69460300  0.35903800  0.47359600  1
  Ca  Ca5  1  0.06948500  0.38143400  0.62478500  1
  Ca  Ca6  1  0.61856600  0.93051500  0.87521500  1
  Ca  Ca7  1  0.64096200  0.30539700  0.02640400  1
  Sn  Sn0  1  0.26844700  0.97979100  0.73968900  1
  Sn  Sn1  1  0.97979100  0.26844700  0.23968900  1
  Sn  Sn2  1  0.09942800  0.53851500  0.08837800  1
  Sn  Sn3  1  0.53851500  0.09942800  0.58837800  1
  Sn  Sn4  1  0.46148500  0.90057200  0.41162200  1
  Sn  Sn5  1  0.84012400  0.15987600  0.75000000  1
  Sn  Sn6  1  0.15987600  0.84012400  0.25000000  1
  Sn  Sn7  1  0.90057200  0.46148500  0.91162200  1
  Sn  Sn8  1  0.73155300  0.02020900  0.26031100  1
  Sn  Sn9  1  0.02020900  0.73155300  0.76031100  1
  Te  Te0  1  0.67173600  0.64959700  0.66942600  1
  Te  Te1  1  0.00000000  0.00000000  0.00000000  1
  Te  Te2  1  0.00000000  0.00000000  0.50000000  1
  Te  Te3  1  0.64959700  0.67173600  0.16942600  1
  Te  Te4  1  0.32826400  0.35040300  0.33057400  1
  Te  Te5  1  0.35040300  0.32826400  0.83057400  1
  O  O0  1  0.85028700  0.60269900  0.57235200  1
  O  O1  1  0.21778100  0.89598700  0.59893000  1
  O  O2  1  0.37794500  0.82534600  0.27189200  1
  O  O3  1  0.93395500  0.91829000  0.17484000  1
  O  O4  1  0.10401300  0.78221900  0.90107000  1
  O  O5  1  0.08171000  0.06604500  0.32516000  1
  O  O6  1  0.59811800  0.55732100  0.05730900  1
  O  O7  1  0.91319400  0.21358200  0.58816200  1
  O  O8  1  0.08680600  0.78641800  0.41183800  1
  O  O9  1  0.16393700  0.30613600  0.17216900  1
  O  O10  1  0.41549300  0.83709900  0.84236200  1
  O  O11  1  0.83606300  0.69386400  0.82783100  1
  O  O12  1  0.78221900  0.10401300  0.40107000  1
  O  O13  1  0.59211100  0.87521500  0.66628000  1
  O  O14  1  0.16290100  0.58450700  0.65763800  1
  O  O15  1  0.40188200  0.44267900  0.94269100  1
  O  O16  1  0.58450700  0.16290100  0.15763800  1
  O  O17  1  0.12478500  0.40788900  0.83372000  1
  O  O18  1  0.17465400  0.62205500  0.22810800  1
  O  O19  1  0.83709900  0.41549300  0.34236200  1
  O  O20  1  0.60269900  0.85028700  0.07235200  1
  O  O21  1  0.40788900  0.12478500  0.33372000  1
  O  O22  1  0.78641800  0.08680600  0.91183800  1
  O  O23  1  0.55732100  0.59811800  0.55730900  1
  O  O24  1  0.62205500  0.17465400  0.72810800  1
  O  O25  1  0.91829000  0.93395500  0.67484000  1
  O  O26  1  0.30613600  0.16393700  0.67216900  1
  O  O27  1  0.44267900  0.40188200  0.44269100  1
  O  O28  1  0.89598700  0.21778100  0.09893000  1
  O  O29  1  0.87521500  0.59211100  0.16628000  1
  O  O30  1  0.14971300  0.39730100  0.42764800  1
  O  O31  1  0.06604500  0.08171000  0.82516000  1
  O  O32  1  0.21358200  0.91319400  0.08816200  1
  O  O33  1  0.69386400  0.83606300  0.32783100  1
  O  O34  1  0.82534600  0.37794500  0.77189200  1
  O  O35  1  0.39730100  0.14971300  0.92764800  1
loop_
_geom_bond_atom_site_label_1
_geom_bond_atom_site_label_2
_geom_bond_distance
_geom_bond_site_symmetry_2
Ca0 O20 2.389753 1_545
Ca0 O16 2.437885 1_555
Ca0 O35 2.445655 1_554
Ca0 O9 2.450909 1_555
Ca0 O21 2.591446 1_555
Ca0 O32 2.592682 1_545
Ca0 O2 2.841288 1_545
Ca1 O10 2.196242 1_555
Ca1 O15 2.291048 1_555
Ca1 O6 2.362210 1_556
Ca1 O4 2.404242 1_555
Ca1 O32 2.425267 1_556
Ca2 O30 2.389753 1_655
Ca2 O19 2.437885 1_555
Ca2 O0 2.445655 1_555
Ca2 O33 2.450909 1_555
Ca2 O29 2.591446 1_555
Ca2 O8 2.592682 1_655
Ca2 O18 2.841288 1_655
Ca3 O14 2.196242 1_555
Ca3 O23 2.291048 1_555
Ca3 O27 2.362210 1_555
Ca3 O1 2.404242 1_555
Ca3 O8 2.425267 1_555
Ca4 O19 2.196242 1_555
Ca4 O27 2.291048 1_555
Ca4 O23 2.362210 1_555
Ca4 O12 2.404242 1_555
Ca4 O7 2.425267 1_555
Ca5 O0 2.389753 1_455
Ca5 O14 2.437885 1_555
Ca5 O30 2.445655 1_555
Ca5 O26 2.450909 1_555
Ca5 O17 2.591446 1_555
Ca5 O7 2.592682 1_455
Ca5 O34 2.841288 1_455
Ca6 O35 2.389753 1_565
Ca6 O10 2.437885 1_555
Ca6 O20 2.445655 1_556
Ca6 O11 2.450909 1_555
Ca6 O13 2.591446 1_555
Ca6 O22 2.592682 1_565
Ca6 O24 2.841288 1_565
Ca7 O16 2.196242 1_555
Ca7 O6 2.291048 1_555
Ca7 O15 2.362210 1_554
Ca7 O28 2.404242 1_555
Ca7 O22 2.425267 1_554
O0 Te0 1.916080 1_555
O1 Sn0 2.020870 1_555
O1 Te2 2.259726 1_565
O2 Sn6 2.030281 1_555
O2 Sn4 2.116315 1_555
O2 Te3 2.681287 1_555
O3 Sn8 2.028181 1_565
O3 Sn6 2.182400 1_655
O3 Te1 2.328088 1_665
O4 Sn9 2.020870 1_555
O4 Te1 2.259726 1_566
O5 Sn1 2.028181 1_455
O5 Sn6 2.182400 1_545
O5 Te2 2.328088 1_555
O6 Te3 1.928415 1_555
O7 Sn5 2.121574 1_555
O7 Te2 2.155994 1_655
O8 Sn6 2.121574 1_555
O8 Te2 2.155994 1_565
O9 Sn1 2.027975 1_455
O9 Sn2 2.238414 1_555
O9 Te4 2.620694 1_555
O10 Sn0 1.947143 1_555
O11 Sn9 2.027975 1_655
O11 Sn7 2.238414 1_555
O11 Te0 2.620694 1_555
O12 Sn8 2.020870 1_555
O12 Te2 2.259726 1_655
O13 Te0 1.964405 1_555
O13 Sn3 2.153872 1_565
O14 Sn9 1.947143 1_555
O15 Te5 1.928415 1_555
O16 Sn8 1.947143 1_555
O17 Te5 1.964405 1_555
O17 Sn7 2.153872 1_455
O18 Sn6 2.030281 1_555
O18 Sn2 2.116315 1_555
O18 Te4 2.681287 1_555
O19 Sn1 1.947143 1_555
O20 Te3 1.916080 1_555
O21 Te4 1.964405 1_555
O21 Sn4 2.153872 1_545
O22 Sn5 2.121574 1_555
O22 Te1 2.155994 1_656
O23 Te0 1.928415 1_555
O24 Sn5 2.030281 1_555
O24 Sn3 2.116315 1_555
O24 Te5 2.681287 1_555
O25 Sn9 2.028181 1_655
O25 Sn5 2.182400 1_565
O25 Te2 2.328088 1_665
O26 Sn0 2.027975 1_545
O26 Sn3 2.238414 1_555
O26 Te5 2.620694 1_555
O27 Te4 1.928415 1_555
O28 Sn1 2.020870 1_555
O28 Te1 2.259726 1_655
O29 Te3 1.964405 1_555
O29 Sn2 2.153872 1_655
O30 Te4 1.916080 1_555
O31 Sn0 2.028181 1_545
O31 Sn5 2.182400 1_455
O31 Te1 2.328088 1_556
O32 Sn6 2.121574 1_555
O32 Te1 2.155994 1_565
O33 Sn8 2.027975 1_565
O33 Sn4 2.238414 1_555
O33 Te3 2.620694 1_555
O34 Sn5 2.030281 1_555
O34 Sn7 2.116315 1_555
O34 Te0 2.681287 1_555
O35 Te5 1.916080 1_555
