# generated using pymatgen
data_Ba4GeP4
_symmetry_space_group_name_H-M   'P 1'
_cell_length_a   13.22419100
_cell_length_b   13.22419100
_cell_length_c   13.22419100
_cell_angle_alpha   90.00000000
_cell_angle_beta   90.00000000
_cell_angle_gamma   90.00000000
_symmetry_Int_Tables_number   1
_chemical_formula_structural   Ba4GeP4
_chemical_formula_sum   'Ba32 Ge8 P32'
_cell_volume   2312.63630777
_cell_formula_units_Z   8
loop_
 _symmetry_equiv_pos_site_id
 _symmetry_equiv_pos_as_xyz
  1  'x, y, z'
loop_
 _atom_site_type_symbol
 _atom_site_label
 _atom_site_symmetry_multiplicity
 _atom_site_fract_x
 _atom_site_fract_y
 _atom_site_fract_z
 _atom_site_occupancy
  Ba  Ba0  1  0.90489900  0.86771600  0.64491500  1
  Ba  Ba1  1  0.90489900  0.13228400  0.35508500  1
  Ba  Ba2  1  0.86771600  0.64491500  0.90489900  1
  Ba  Ba3  1  0.13228400  0.64491500  0.09510100  1
  Ba  Ba4  1  0.64491500  0.90489900  0.86771600  1
  Ba  Ba5  1  0.35508500  0.09510100  0.86771600  1
  Ba  Ba6  1  0.59510100  0.85508500  0.36771600  1
  Ba  Ba7  1  0.59510100  0.14491500  0.63228400  1
  Ba  Ba8  1  0.40489900  0.85508500  0.63228400  1
  Ba  Ba9  1  0.14491500  0.63228400  0.59510100  1
  Ba  Ba10  1  0.63228400  0.40489900  0.85508500  1
  Ba  Ba11  1  0.63228400  0.59510100  0.14491500  1
  Ba  Ba12  1  0.85508500  0.36771600  0.59510100  1
  Ba  Ba13  1  0.36771600  0.59510100  0.85508500  1
  Ba  Ba14  1  0.85508500  0.63228400  0.40489900  1
  Ba  Ba15  1  0.14491500  0.36771600  0.40489900  1
  Ba  Ba16  1  0.36771600  0.40489900  0.14491500  1
  Ba  Ba17  1  0.35508500  0.90489900  0.13228400  1
  Ba  Ba18  1  0.64491500  0.09510100  0.13228400  1
  Ba  Ba19  1  0.86771600  0.35508500  0.09510100  1
  Ba  Ba20  1  0.13228400  0.35508500  0.90489900  1
  Ba  Ba21  1  0.09510100  0.13228400  0.64491500  1
  Ba  Ba22  1  0.09510100  0.86771600  0.35508500  1
  Ba  Ba23  1  0.40489900  0.14491500  0.36771600  1
  Ba  Ba24  1  0.14497800  0.14497800  0.14497800  1
  Ba  Ba25  1  0.35502200  0.64497800  0.35502200  1
  Ba  Ba26  1  0.64497800  0.35502200  0.35502200  1
  Ba  Ba27  1  0.35502200  0.35502200  0.64497800  1
  Ba  Ba28  1  0.14497800  0.85502200  0.85502200  1
  Ba  Ba29  1  0.85502200  0.85502200  0.14497800  1
  Ba  Ba30  1  0.85502200  0.14497800  0.85502200  1
  Ba  Ba31  1  0.64497800  0.64497800  0.64497800  1
  Ge  Ge0  1  0.75000000  0.00000000  0.50000000  1
  Ge  Ge1  1  0.50000000  0.75000000  0.00000000  1
  Ge  Ge2  1  0.50000000  0.25000000  0.00000000  1
  Ge  Ge3  1  0.00000000  0.50000000  0.25000000  1
  Ge  Ge4  1  0.00000000  0.50000000  0.75000000  1
  Ge  Ge5  1  0.25000000  0.00000000  0.50000000  1
  Ge  Ge6  1  0.50000000  0.50000000  0.50000000  1
  Ge  Ge7  1  0.00000000  0.00000000  0.00000000  1
  P  P0  1  0.65097000  0.89640500  0.61219700  1
  P  P1  1  0.65097000  0.10359500  0.38780300  1
  P  P2  1  0.89640500  0.61219700  0.65097000  1
  P  P3  1  0.10359500  0.61219700  0.34903000  1
  P  P4  1  0.61219700  0.65097000  0.89640500  1
  P  P5  1  0.38780300  0.34903000  0.89640500  1
  P  P6  1  0.84903000  0.88780300  0.39640500  1
  P  P7  1  0.84903000  0.11219700  0.60359500  1
  P  P8  1  0.15097000  0.88780300  0.60359500  1
  P  P9  1  0.11219700  0.60359500  0.84903000  1
  P  P10  1  0.60359500  0.15097000  0.88780300  1
  P  P11  1  0.60359500  0.84903000  0.11219700  1
  P  P12  1  0.88780300  0.39640500  0.84903000  1
  P  P13  1  0.39640500  0.84903000  0.88780300  1
  P  P14  1  0.88780300  0.60359500  0.15097000  1
  P  P15  1  0.11219700  0.39640500  0.15097000  1
  P  P16  1  0.39640500  0.15097000  0.11219700  1
  P  P17  1  0.38780300  0.65097000  0.10359500  1
  P  P18  1  0.61219700  0.34903000  0.10359500  1
  P  P19  1  0.89640500  0.38780300  0.34903000  1
  P  P20  1  0.10359500  0.38780300  0.65097000  1
  P  P21  1  0.34903000  0.10359500  0.61219700  1
  P  P22  1  0.34903000  0.89640500  0.38780300  1
  P  P23  1  0.15097000  0.11219700  0.39640500  1
  P  P24  1  0.89546000  0.89546000  0.89546000  1
  P  P25  1  0.60454000  0.39546000  0.60454000  1
  P  P26  1  0.39546000  0.60454000  0.60454000  1
  P  P27  1  0.60454000  0.60454000  0.39546000  1
  P  P28  1  0.89546000  0.10454000  0.10454000  1
  P  P29  1  0.10454000  0.10454000  0.89546000  1
  P  P30  1  0.10454000  0.89546000  0.10454000  1
  P  P31  1  0.39546000  0.39546000  0.39546000  1
loop_
_geom_bond_atom_site_label_1
_geom_bond_atom_site_label_2
_geom_bond_distance
_geom_bond_site_symmetry_2
Ba0 Ge0 3.305866 1_565
Ba0 P8 3.310323 1_655
Ba0 P24 3.335843 1_555
Ba0 P7 3.361121 1_565
Ba0 P6 3.378827 1_555
Ba0 P2 3.381847 1_555
Ba0 P0 3.406955 1_555
Ba1 Ge0 3.305866 1_555
Ba1 P23 3.310323 1_655
Ba1 P28 3.335843 1_555
Ba1 P6 3.361121 1_545
Ba1 P7 3.378827 1_555
Ba1 P19 3.381847 1_555
Ba1 P1 3.406955 1_555
Ba2 Ge4 3.305866 1_655
Ba2 P14 3.310323 1_556
Ba2 P24 3.335843 1_555
Ba2 P9 3.361121 1_655
Ba2 P12 3.378827 1_555
Ba2 P4 3.381847 1_555
Ba2 P2 3.406955 1_555
Ba3 Ge3 3.305866 1_555
Ba3 P9 3.310323 1_554
Ba3 P30 3.335843 1_555
Ba3 P14 3.361121 1_455
Ba3 P15 3.378827 1_555
Ba3 P17 3.381847 1_555
Ba3 P3 3.406955 1_555
Ba4 Ge1 3.305866 1_556
Ba4 P10 3.310323 1_565
Ba4 P24 3.335843 1_555
Ba4 P11 3.361121 1_556
Ba4 P13 3.378827 1_555
Ba4 P0 3.381847 1_555
Ba4 P4 3.406955 1_555
Ba5 Ge2 3.305866 1_556
Ba5 P13 3.310323 1_545
Ba5 P29 3.335843 1_555
Ba5 P16 3.361121 1_556
Ba5 P10 3.378827 1_555
Ba5 P21 3.381847 1_555
Ba5 P5 3.406955 1_555
Ba6 Ge0 3.305866 1_565
Ba6 P22 3.310323 1_555
Ba6 P27 3.335843 1_555
Ba6 P0 3.361121 1_555
Ba6 P1 3.378827 1_565
Ba6 P11 3.381847 1_555
Ba6 P6 3.406955 1_555
Ba7 Ge0 3.305866 1_555
Ba7 P21 3.310323 1_555
Ba7 P25 3.335843 1_555
Ba7 P1 3.361121 1_555
Ba7 P0 3.378827 1_545
Ba7 P10 3.381847 1_555
Ba7 P7 3.406955 1_555
Ba8 Ge5 3.305866 1_565
Ba8 P0 3.310323 1_555
Ba8 P26 3.335843 1_555
Ba8 P22 3.361121 1_555
Ba8 P21 3.378827 1_565
Ba8 P13 3.381847 1_555
Ba8 P8 3.406955 1_555
Ba9 Ge4 3.305866 1_555
Ba9 P3 3.310323 1_555
Ba9 P26 3.335843 1_555
Ba9 P20 3.361121 1_555
Ba9 P2 3.378827 1_455
Ba9 P8 3.381847 1_555
Ba9 P9 3.406955 1_555
Ba10 Ge2 3.305866 1_556
Ba10 P4 3.310323 1_555
Ba10 P25 3.335843 1_555
Ba10 P5 3.361121 1_555
Ba10 P18 3.378827 1_556
Ba10 P12 3.381847 1_555
Ba10 P10 3.406955 1_555
Ba11 Ge1 3.305866 1_555
Ba11 P18 3.310323 1_555
Ba11 P27 3.335843 1_555
Ba11 P17 3.361121 1_555
Ba11 P4 3.378827 1_554
Ba11 P14 3.381847 1_555
Ba11 P11 3.406955 1_555
Ba12 Ge4 3.305866 1_655
Ba12 P19 3.310323 1_555
Ba12 P25 3.335843 1_555
Ba12 P2 3.361121 1_555
Ba12 P20 3.378827 1_655
Ba12 P7 3.381847 1_555
Ba12 P12 3.406955 1_555
Ba13 Ge1 3.305866 1_556
Ba13 P5 3.310323 1_555
Ba13 P26 3.335843 1_555
Ba13 P4 3.361121 1_555
Ba13 P17 3.378827 1_556
Ba13 P9 3.381847 1_555
Ba13 P13 3.406955 1_555
Ba14 Ge3 3.305866 1_655
Ba14 P2 3.310323 1_555
Ba14 P27 3.335843 1_555
Ba14 P19 3.361121 1_555
Ba14 P3 3.378827 1_655
Ba14 P6 3.381847 1_555
Ba14 P14 3.406955 1_555
Ba15 Ge3 3.305866 1_555
Ba15 P20 3.310323 1_555
Ba15 P31 3.335843 1_555
Ba15 P3 3.361121 1_555
Ba15 P19 3.378827 1_455
Ba15 P23 3.381847 1_555
Ba15 P15 3.406955 1_555
Ba16 Ge2 3.305866 1_555
Ba16 P17 3.310323 1_555
Ba16 P31 3.335843 1_555
Ba16 P18 3.361121 1_555
Ba16 P5 3.378827 1_554
Ba16 P15 3.381847 1_555
Ba16 P16 3.406955 1_555
Ba17 Ge1 3.305866 1_555
Ba17 P16 3.310323 1_565
Ba17 P30 3.335843 1_555
Ba17 P13 3.361121 1_554
Ba17 P11 3.378827 1_555
Ba17 P22 3.381847 1_555
Ba17 P17 3.406955 1_555
Ba18 Ge2 3.305866 1_555
Ba18 P11 3.310323 1_545
Ba18 P28 3.335843 1_555
Ba18 P10 3.361121 1_554
Ba18 P16 3.378827 1_555
Ba18 P1 3.381847 1_555
Ba18 P18 3.406955 1_555
Ba19 Ge3 3.305866 1_655
Ba19 P12 3.310323 1_554
Ba19 P28 3.335843 1_555
Ba19 P15 3.361121 1_655
Ba19 P14 3.378827 1_555
Ba19 P18 3.381847 1_555
Ba19 P19 3.406955 1_555
Ba20 Ge4 3.305866 1_555
Ba20 P15 3.310323 1_556
Ba20 P29 3.335843 1_555
Ba20 P12 3.361121 1_455
Ba20 P9 3.378827 1_555
Ba20 P5 3.381847 1_555
Ba20 P20 3.406955 1_555
Ba21 Ge5 3.305866 1_555
Ba21 P7 3.310323 1_455
Ba21 P29 3.335843 1_555
Ba21 P8 3.361121 1_545
Ba21 P23 3.378827 1_555
Ba21 P20 3.381847 1_555
Ba21 P21 3.406955 1_555
Ba22 Ge5 3.305866 1_565
Ba22 P6 3.310323 1_455
Ba22 P30 3.335843 1_555
Ba22 P23 3.361121 1_565
Ba22 P8 3.378827 1_555
Ba22 P3 3.381847 1_555
Ba22 P22 3.406955 1_555
Ba23 Ge5 3.305866 1_555
Ba23 P1 3.310323 1_555
Ba23 P31 3.335843 1_555
Ba23 P21 3.361121 1_555
Ba23 P22 3.378827 1_545
Ba23 P16 3.381847 1_555
Ba23 P23 3.406955 1_555
Ba24 Ge7 3.320717 1_555
Ba24 P15 3.353996 1_555
Ba24 P16 3.353996 1_555
Ba24 P23 3.353996 1_555
Ba24 P29 3.385230 1_554
Ba24 P30 3.385230 1_545
Ba24 P28 3.385230 1_455
Ba25 Ge6 3.320717 1_555
Ba25 P3 3.353996 1_555
Ba25 P22 3.353996 1_555
Ba25 P17 3.353996 1_555
Ba25 P31 3.385230 1_555
Ba25 P27 3.385230 1_555
Ba25 P26 3.385230 1_555
Ba26 Ge6 3.320717 1_555
Ba26 P18 3.353996 1_555
Ba26 P19 3.353996 1_555
Ba26 P1 3.353996 1_555
Ba26 P31 3.385230 1_555
Ba26 P25 3.385230 1_555
Ba26 P27 3.385230 1_555
Ba27 Ge6 3.320717 1_555
Ba27 P21 3.353996 1_555
Ba27 P5 3.353996 1_555
Ba27 P20 3.353996 1_555
Ba27 P31 3.385230 1_555
Ba27 P25 3.385230 1_555
Ba27 P26 3.385230 1_555
Ba28 Ge7 3.320717 1_566
Ba28 P8 3.353996 1_555
Ba28 P13 3.353996 1_555
Ba28 P9 3.353996 1_555
Ba28 P24 3.385230 1_455
Ba28 P29 3.385230 1_565
Ba28 P30 3.385230 1_556
Ba29 Ge7 3.320717 1_665
Ba29 P14 3.353996 1_555
Ba29 P6 3.353996 1_555
Ba29 P11 3.353996 1_555
Ba29 P24 3.385230 1_554
Ba29 P30 3.385230 1_655
Ba29 P28 3.385230 1_565
Ba30 Ge7 3.320717 1_656
Ba30 P10 3.353996 1_555
Ba30 P12 3.353996 1_555
Ba30 P7 3.353996 1_555
Ba30 P24 3.385230 1_545
Ba30 P29 3.385230 1_655
Ba30 P28 3.385230 1_556
Ba31 Ge6 3.320717 1_555
Ba31 P0 3.353996 1_555
Ba31 P2 3.353996 1_555
Ba31 P4 3.353996 1_555
Ba31 P27 3.385230 1_555
Ba31 P26 3.385230 1_555
Ba31 P25 3.385230 1_555
Ge0 P7 2.406913 1_555
Ge0 P1 2.406913 1_555
Ge0 P0 2.406913 1_545
Ge0 P6 2.406913 1_545
Ge1 P11 2.406913 1_555
Ge1 P17 2.406913 1_555
Ge1 P4 2.406913 1_554
Ge1 P13 2.406913 1_554
Ge2 P16 2.406913 1_555
Ge2 P18 2.406913 1_555
Ge2 P5 2.406913 1_554
Ge2 P10 2.406913 1_554
Ge3 P15 2.406913 1_555
Ge3 P3 2.406913 1_555
Ge3 P14 2.406913 1_455
Ge3 P19 2.406913 1_455
Ge4 P9 2.406913 1_555
Ge4 P20 2.406913 1_555
Ge4 P2 2.406913 1_455
Ge4 P12 2.406913 1_455
Ge5 P23 2.406913 1_555
Ge5 P21 2.406913 1_555
Ge5 P8 2.406913 1_545
Ge5 P22 2.406913 1_545
Ge6 P31 2.394486 1_555
Ge6 P25 2.394486 1_555
Ge6 P27 2.394486 1_555
Ge6 P26 2.394486 1_555
Ge7 P24 2.394486 1_444
Ge7 P28 2.394486 1_455
Ge7 P30 2.394486 1_545
Ge7 P29 2.394486 1_554
