# generated using pymatgen
data_TmH9C5(NO4)2
_symmetry_space_group_name_H-M   'P 1'
_cell_length_a   6.71505800
_cell_length_b   8.53143000
_cell_length_c   9.72906564
_cell_angle_alpha   90.00000000
_cell_angle_beta   110.18807876
_cell_angle_gamma   90.00000000
_symmetry_Int_Tables_number   1
_chemical_formula_structural   TmH9C5(NO4)2
_chemical_formula_sum   'Tm2 H18 C10 N4 O16'
_cell_volume   523.12685742
_cell_formula_units_Z   2
loop_
 _symmetry_equiv_pos_site_id
 _symmetry_equiv_pos_as_xyz
  1  'x, y, z'
loop_
 _atom_site_type_symbol
 _atom_site_label
 _atom_site_symmetry_multiplicity
 _atom_site_fract_x
 _atom_site_fract_y
 _atom_site_fract_z
 _atom_site_occupancy
  Tm  Tm0  1  0.85782800  0.25000000  0.71565700  1
  Tm  Tm1  1  0.14217200  0.75000000  0.28434300  1
  H  H0  1  0.31316700  0.25000000  0.62633400  1
  H  H1  1  0.68683300  0.75000000  0.37366600  1
  H  H2  1  0.07642700  0.94051100  0.57960300  1
  H  H3  1  0.49682300  0.05948900  0.42039700  1
  H  H4  1  0.92357300  0.44051100  0.42039700  1
  H  H5  1  0.50317700  0.55948900  0.57960300  1
  H  H6  1  0.76566400  0.50000000  0.00000000  1
  H  H7  1  0.23433600  0.00000000  0.00000000  1
  H  H8  1  0.65522100  0.25000000  0.31044100  1
  H  H9  1  0.34477900  0.75000000  0.68955900  1
  H  H10  1  0.65852200  0.17061900  0.01143900  1
  H  H11  1  0.64708300  0.82938100  0.98856100  1
  H  H12  1  0.34147800  0.67061900  0.98856100  1
  H  H13  1  0.35291700  0.32938100  0.01143900  1
  H  H14  1  0.82867800  0.10193200  0.18562900  1
  H  H15  1  0.64304800  0.89806800  0.81437100  1
  H  H16  1  0.17132200  0.60193200  0.81437100  1
  H  H17  1  0.35695200  0.39806800  0.18562900  1
  C  C0  1  0.37380700  0.25000000  0.74761400  1
  C  C1  1  0.62619300  0.75000000  0.25238600  1
  C  C2  1  0.00613500  0.02433800  0.48855000  1
  C  C3  1  0.51758400  0.97566200  0.51145000  1
  C  C4  1  0.99386500  0.52433800  0.51145000  1
  C  C5  1  0.48241600  0.47566200  0.48855000  1
  C  C6  1  0.93039800  0.50000000  0.00000000  1
  C  C7  1  0.06960200  0.00000000  0.00000000  1
  C  C8  1  0.59529600  0.25000000  0.19059200  1
  C  C9  1  0.40470400  0.75000000  0.80940800  1
  N  N0  1  0.69910000  0.16612600  0.12344800  1
  N  N1  1  0.57565200  0.83387400  0.87655200  1
  N  N2  1  0.30090000  0.66612600  0.87655200  1
  N  N3  1  0.42434800  0.33387400  0.12344800  1
  O  O0  1  0.97042800  0.42526700  0.90032600  1
  O  O1  1  0.07010200  0.57473300  0.09967400  1
  O  O2  1  0.02957200  0.92526700  0.09967400  1
  O  O3  1  0.92989800  0.07473300  0.90032600  1
  O  O4  1  0.24005200  0.23483600  0.81262300  1
  O  O5  1  0.42742800  0.76516400  0.18737700  1
  O  O6  1  0.75994800  0.73483600  0.18737700  1
  O  O7  1  0.57257200  0.26516400  0.81262300  1
  O  O8  1  0.93169900  0.15227200  0.51701600  1
  O  O9  1  0.41468300  0.84772800  0.48298400  1
  O  O10  1  0.06830100  0.65227200  0.48298400  1
  O  O11  1  0.58531700  0.34772800  0.51701600  1
  O  O12  1  0.99494900  0.48457800  0.63727100  1
  O  O13  1  0.35767800  0.51542200  0.36272900  1
  O  O14  1  0.00505100  0.98457800  0.36272900  1
  O  O15  1  0.64232200  0.01542200  0.63727100  1
loop_
_geom_bond_atom_site_label_1
_geom_bond_atom_site_label_2
_geom_bond_distance
_geom_bond_site_symmetry_2
H10 N0 1.028741 1_555
H11 N1 1.028741 1_555
H12 N2 1.028741 1_555
H13 N3 1.028741 1_555
H14 N0 1.029425 1_555
H15 N1 1.029420 1_555
H16 N2 1.029425 1_555
H17 N3 1.029420 1_555
C0 H0 1.107451 1_555
C0 O4 1.271049 1_555
C0 O7 1.271055 1_555
C1 H1 1.107451 1_555
C1 O6 1.271049 1_555
C1 O5 1.271055 1_555
C2 H2 1.109236 1_545
C2 O14 1.267848 1_545
C2 O8 1.270186 1_455
C3 H3 1.109236 1_565
C3 O15 1.267850 1_565
C3 O9 1.270183 1_555
C4 H4 1.109236 1_555
C4 O12 1.267848 1_555
C4 O10 1.270186 1_655
C5 H5 1.109236 1_555
C5 O13 1.267850 1_555
C5 O11 1.270183 1_555
C6 H6 1.106198 1_555
C6 O1 1.264541 1_655
C6 O0 1.264541 1_554
C7 H7 1.106198 1_555
C7 O3 1.264541 1_454
C7 O2 1.264541 1_545
C8 H8 1.094384 1_555
C8 N0 1.318684 1_555
C8 N3 1.318684 1_555
C9 H9 1.094384 1_555
C9 N2 1.318684 1_555
C9 N1 1.318684 1_555
O0 Tm0 2.257856 1_555
O1 Tm1 2.257855 1_555
O2 Tm1 2.257856 1_555
O3 Tm0 2.257855 1_555
O4 Tm0 2.413133 1_455
O5 Tm1 2.413120 1_555
O6 Tm1 2.413133 1_655
O7 Tm0 2.413120 1_555
O8 Tm0 2.310368 1_555
O9 Tm1 2.310364 1_555
O10 Tm1 2.310368 1_555
O11 Tm0 2.310364 1_555
O12 Tm0 2.432947 1_555
O13 Tm1 2.432944 1_555
O14 Tm1 2.432947 1_555
O15 Tm0 2.432944 1_555
