# generated using pymatgen
data_Mg(BiO3)2
_symmetry_space_group_name_H-M   'P 1'
_cell_length_a   5.46672500
_cell_length_b   5.81851300
_cell_length_c   7.99415200
_cell_angle_alpha   90.00000000
_cell_angle_beta   90.00000000
_cell_angle_gamma   90.00000000
_symmetry_Int_Tables_number   1
_chemical_formula_structural   Mg(BiO3)2
_chemical_formula_sum   'Mg2 Bi4 O12'
_cell_volume   254.27966942
_cell_formula_units_Z   2
loop_
 _symmetry_equiv_pos_site_id
 _symmetry_equiv_pos_as_xyz
  1  'x, y, z'
loop_
 _atom_site_type_symbol
 _atom_site_label
 _atom_site_symmetry_multiplicity
 _atom_site_fract_x
 _atom_site_fract_y
 _atom_site_fract_z
 _atom_site_occupancy
  Mg  Mg0  1  0.53901800  0.32510100  0.50000000  1
  Mg  Mg1  1  0.03901800  0.67489900  0.00000000  1
  Bi  Bi0  1  0.50943600  0.76011200  0.74902300  1
  Bi  Bi1  1  0.00943600  0.23988800  0.75097700  1
  Bi  Bi2  1  0.00943600  0.23988800  0.24902300  1
  Bi  Bi3  1  0.50943600  0.76011200  0.25097700  1
  O  O0  1  0.66335800  0.08060900  0.31912100  1
  O  O1  1  0.16335800  0.91939100  0.18087900  1
  O  O2  1  0.78027700  0.51440200  0.66782100  1
  O  O3  1  0.28027700  0.48559800  0.83217900  1
  O  O4  1  0.28027700  0.48559800  0.16782100  1
  O  O5  1  0.78027700  0.51440200  0.33217900  1
  O  O6  1  0.16335800  0.91939100  0.81912100  1
  O  O7  1  0.66335800  0.08060900  0.68087900  1
  O  O8  1  0.17436100  0.20958900  0.50000000  1
  O  O9  1  0.67436100  0.79041100  0.00000000  1
  O  O10  1  0.39075000  0.66993100  0.50000000  1
  O  O11  1  0.89075000  0.33006900  0.00000000  1
loop_
_geom_bond_atom_site_label_1
_geom_bond_atom_site_label_2
_geom_bond_distance
_geom_bond_site_symmetry_2
Mg0 O8 2.103732 1_555
Mg0 O7 2.139302 1_555
Mg0 O0 2.139302 1_555
Mg0 O10 2.163933 1_555
Mg0 O5 2.180031 1_555
Mg0 O2 2.180031 1_555
Mg1 O9 2.103732 1_455
Mg1 O1 2.139302 1_555
Mg1 O6 2.139302 1_554
Mg1 O11 2.163933 1_455
Mg1 O4 2.180031 1_555
Mg1 O3 2.180031 1_554
Bi0 O7 2.117152 1_565
Bi0 O3 2.136010 1_555
Bi0 O2 2.158135 1_555
Bi0 O10 2.158541 1_555
Bi0 O6 2.179966 1_555
Bi0 O9 2.206671 1_556
Bi1 O6 2.117152 1_545
Bi1 O2 2.136010 1_455
Bi1 O3 2.158135 1_555
Bi1 O11 2.158541 1_456
Bi1 O7 2.179966 1_455
Bi1 O8 2.206671 1_555
Bi2 O1 2.117152 1_545
Bi2 O5 2.136010 1_455
Bi2 O4 2.158135 1_555
Bi2 O11 2.158541 1_455
Bi2 O0 2.179966 1_455
Bi2 O8 2.206671 1_555
Bi3 O0 2.117152 1_565
Bi3 O4 2.136010 1_555
Bi3 O5 2.158135 1_555
Bi3 O10 2.158541 1_555
Bi3 O1 2.179966 1_555
Bi3 O9 2.206671 1_555
