# generated using pymatgen
data_Ba5(GeN3)2
_symmetry_space_group_name_H-M   'P 1'
_cell_length_a   6.47043162
_cell_length_b   7.15660221
_cell_length_c   14.37764105
_cell_angle_alpha   90.00000095
_cell_angle_beta   97.83870119
_cell_angle_gamma   123.57469339
_symmetry_Int_Tables_number   1
_chemical_formula_structural   Ba5(GeN3)2
_chemical_formula_sum   'Ba10 Ge4 N12'
_cell_volume   547.21884341
_cell_formula_units_Z   2
loop_
 _symmetry_equiv_pos_site_id
 _symmetry_equiv_pos_as_xyz
  1  'x, y, z'
loop_
 _atom_site_type_symbol
 _atom_site_label
 _atom_site_symmetry_multiplicity
 _atom_site_fract_x
 _atom_site_fract_y
 _atom_site_fract_z
 _atom_site_occupancy
  Ba  Ba0  1  0.10333400  0.78167700  0.99192000  1
  Ba  Ba1  1  0.89666600  0.67834300  0.50808000  1
  Ba  Ba2  1  0.89666600  0.21832300  0.00808000  1
  Ba  Ba3  1  0.10333400  0.32165700  0.49192000  1
  Ba  Ba4  1  0.31255300  0.08533800  0.71106300  1
  Ba  Ba5  1  0.68744700  0.77278500  0.78893700  1
  Ba  Ba6  1  0.68744700  0.91466200  0.28893700  1
  Ba  Ba7  1  0.31255300  0.22721500  0.21106300  1
  Ba  Ba8  1  0.00000000  0.38925000  0.75000000  1
  Ba  Ba9  1  0.00000000  0.61075000  0.25000000  1
  Ge  Ge0  1  0.55096900  0.90830500  0.57520700  1
  Ge  Ge1  1  0.44903100  0.35733600  0.92479300  1
  Ge  Ge2  1  0.44903100  0.09169500  0.42479300  1
  Ge  Ge3  1  0.55096900  0.64266400  0.07520700  1
  N  N0  1  0.87360400  0.98173400  0.62343200  1
  N  N1  1  0.12639600  0.10813000  0.87656800  1
  N  N2  1  0.12639600  0.01826600  0.37656800  1
  N  N3  1  0.87360400  0.89187000  0.12343200  1
  N  N4  1  0.29953100  0.71518000  0.64839300  1
  N  N5  1  0.70046900  0.41565000  0.85160700  1
  N  N6  1  0.70046900  0.28482000  0.35160700  1
  N  N7  1  0.29953100  0.58435000  0.14839300  1
  N  N8  1  0.58022200  0.19981500  0.55750900  1
  N  N9  1  0.41977800  0.61959400  0.94249100  1
  N  N10  1  0.41977800  0.80018500  0.44249100  1
  N  N11  1  0.58022200  0.38040600  0.05750900  1
loop_
_geom_bond_atom_site_label_1
_geom_bond_atom_site_label_2
_geom_bond_distance
_geom_bond_site_symmetry_2
Ba0 N1 2.813012 1_565
Ba0 N3 2.910306 1_456
Ba0 N5 2.956301 1_455
Ba0 N9 3.011111 1_555
Ba0 N7 3.141801 1_556
Ba0 N11 3.272990 1_456
Ba1 N0 2.813012 1_555
Ba1 N2 2.910306 1_665
Ba1 N4 2.956304 1_655
Ba1 N8 3.011116 1_555
Ba1 N6 3.141796 1_555
Ba1 N10 3.272988 1_655
Ba2 N3 2.813012 1_545
Ba2 N1 2.910306 1_654
Ba2 N7 2.956301 1_655
Ba2 N11 3.011111 1_555
Ba2 N5 3.141801 1_554
Ba2 N9 3.272990 1_654
Ba3 N2 2.813012 1_555
Ba3 N0 2.910306 1_445
Ba3 N6 2.956304 1_455
Ba3 N10 3.011116 1_555
Ba3 N4 3.141796 1_555
Ba3 N8 3.272988 1_455
Ba4 N0 2.626513 1_445
Ba4 N4 2.751180 1_545
Ba4 N8 2.831699 1_555
Ba4 N5 2.832884 1_555
Ba4 N1 2.852885 1_555
Ba5 N1 2.626513 1_665
Ba5 N5 2.751173 1_555
Ba5 N9 2.831699 1_555
Ba5 N4 2.832882 1_555
Ba5 N0 2.852885 1_555
Ba6 N2 2.626513 1_665
Ba6 N6 2.751180 1_565
Ba6 N10 2.831699 1_555
Ba6 N7 2.832884 1_555
Ba6 N3 2.852885 1_555
Ba7 N3 2.626513 1_445
Ba7 N7 2.751173 1_555
Ba7 N11 2.831699 1_555
Ba7 N6 2.832882 1_555
Ba7 N2 2.852885 1_555
Ba8 N4 2.665206 1_555
Ba8 N5 2.665210 1_455
Ba8 N0 3.072760 1_445
Ba8 N1 3.072760 1_555
Ba8 N8 3.278959 1_455
Ba8 N9 3.278960 1_555
Ba9 N6 2.665206 1_455
Ba9 N7 2.665210 1_555
Ba9 N2 3.072760 1_565
Ba9 N3 3.072760 1_455
Ba9 N10 3.278959 1_555
Ba9 N11 3.278960 1_455
Ge0 N0 1.872628 1_555
Ge0 N4 1.908985 1_555
Ge0 N10 1.947306 1_555
Ge0 N8 2.007306 1_565
Ge1 N1 1.872628 1_555
Ge1 N5 1.908983 1_555
Ge1 N11 1.947307 1_556
Ge1 N9 2.007313 1_555
Ge2 N2 1.872628 1_555
Ge2 N6 1.908985 1_555
Ge2 N8 1.947306 1_555
Ge2 N10 2.007306 1_545
Ge3 N3 1.872628 1_555
Ge3 N7 1.908983 1_555
Ge3 N9 1.947307 1_554
Ge3 N11 2.007313 1_555
