# generated using pymatgen
data_Er3B7W
_symmetry_space_group_name_H-M   'P 1'
_cell_length_a   8.11793416
_cell_length_b   8.11793416
_cell_length_c   9.43608900
_cell_angle_alpha   90.00000000
_cell_angle_beta   90.00000000
_cell_angle_gamma   155.49422745
_symmetry_Int_Tables_number   1
_chemical_formula_structural   Er3B7W
_chemical_formula_sum   'Er6 B14 W2'
_cell_volume   257.93248088
_cell_formula_units_Z   2
loop_
 _symmetry_equiv_pos_site_id
 _symmetry_equiv_pos_as_xyz
  1  'x, y, z'
loop_
 _atom_site_type_symbol
 _atom_site_label
 _atom_site_symmetry_multiplicity
 _atom_site_fract_x
 _atom_site_fract_y
 _atom_site_fract_z
 _atom_site_occupancy
  Er  Er0  1  0.89302000  0.10698000  0.44020000  1
  Er  Er1  1  0.10698000  0.89302000  0.55980000  1
  Er  Er2  1  0.89302000  0.10698000  0.05980000  1
  Er  Er3  1  0.10698000  0.89302000  0.94020000  1
  Er  Er4  1  0.24357300  0.75642700  0.25000000  1
  Er  Er5  1  0.75642700  0.24357300  0.75000000  1
  B  B0  1  0.72766300  0.27233700  0.46713300  1
  B  B1  1  0.27233700  0.72766300  0.53286700  1
  B  B2  1  0.72766300  0.27233700  0.03286700  1
  B  B3  1  0.27233700  0.72766300  0.96713300  1
  B  B4  1  0.63473800  0.36526200  0.14653100  1
  B  B5  1  0.36526200  0.63473800  0.85346900  1
  B  B6  1  0.63473800  0.36526200  0.35346900  1
  B  B7  1  0.36526200  0.63473800  0.64653100  1
  B  B8  1  0.51910500  0.48089500  0.09138000  1
  B  B9  1  0.48089500  0.51910500  0.90862000  1
  B  B10  1  0.51910500  0.48089500  0.40862000  1
  B  B11  1  0.48089500  0.51910500  0.59138000  1
  B  B12  1  0.45393500  0.54606500  0.25000000  1
  B  B13  1  0.54606500  0.45393500  0.75000000  1
  W  W0  1  0.05281200  0.94718800  0.25000000  1
  W  W1  1  0.94718800  0.05281200  0.75000000  1
loop_
_geom_bond_atom_site_label_1
_geom_bond_atom_site_label_2
_geom_bond_distance
_geom_bond_site_symmetry_2
B0 B6 1.823200 1_555
B0 B1 1.963498 1_655
B0 B1 1.963498 1_545
B0 Er0 2.635838 1_555
B0 Er4 2.688837 1_545
B0 Er4 2.688837 1_655
B0 Er5 2.707892 1_555
B0 Er1 2.720128 1_545
B0 Er1 2.720128 1_655
B1 B7 1.823200 1_555
B1 Er1 2.635838 1_555
B1 Er5 2.688837 1_455
B1 Er5 2.688837 1_565
B1 Er4 2.707892 1_555
B1 Er0 2.720128 1_455
B1 Er0 2.720128 1_565
B2 B4 1.823200 1_555
B2 B3 1.963498 1_654
B2 B3 1.963498 1_544
B2 Er2 2.635838 1_555
B2 Er4 2.688837 1_545
B2 Er4 2.688837 1_655
B2 Er5 2.707892 1_554
B2 Er3 2.720128 1_654
B2 Er3 2.720128 1_544
B3 B5 1.823200 1_555
B3 Er3 2.635838 1_555
B3 Er5 2.688837 1_455
B3 Er5 2.688837 1_565
B3 Er4 2.707892 1_556
B3 Er2 2.720128 1_456
B3 Er2 2.720128 1_566
B4 B8 1.907017 1_555
B4 B6 1.952685 1_555
B4 W0 2.368759 1_655
B4 W0 2.368759 1_545
B4 Er4 2.627394 1_545
B4 Er4 2.627394 1_655
B4 Er3 2.636815 1_654
B4 Er3 2.636815 1_544
B5 B9 1.907017 1_555
B5 B7 1.952685 1_555
B5 W1 2.368759 1_565
B5 W1 2.368759 1_455
B5 Er5 2.627394 1_455
B5 Er5 2.627394 1_565
B5 Er2 2.636815 1_456
B5 Er2 2.636815 1_566
B6 W0 2.368759 1_655
B6 W0 2.368759 1_545
B6 Er4 2.627394 1_545
B6 Er4 2.627394 1_655
B6 Er1 2.636815 1_655
B6 Er1 2.636815 1_545
B7 W1 2.368759 1_565
B7 W1 2.368759 1_455
B7 Er5 2.627394 1_455
B7 Er5 2.627394 1_565
B7 Er0 2.636815 1_455
B7 Er0 2.636815 1_565
B8 B9 1.827995 1_554
B8 W0 2.344028 1_545
B8 W0 2.344028 1_655
B8 Er3 2.635735 1_544
B8 Er3 2.635735 1_654
B8 Er2 2.656852 1_565
B8 Er2 2.656852 1_455
B9 W1 2.344028 1_455
B9 W1 2.344028 1_565
B9 Er2 2.635735 1_456
B9 Er2 2.635735 1_566
B9 Er3 2.656852 1_545
B9 Er3 2.656852 1_655
B10 B12 1.819176 1_555
B10 B11 1.827995 1_555
B10 B6 1.907017 1_555
B10 W0 2.344028 1_545
B10 W0 2.344028 1_655
B10 Er1 2.635735 1_545
B10 Er1 2.635735 1_655
B10 Er0 2.656852 1_455
B10 Er0 2.656852 1_565
B11 B13 1.819176 1_555
B11 B7 1.907017 1_555
B11 W1 2.344028 1_455
B11 W1 2.344028 1_565
B11 Er0 2.635735 1_455
B11 Er0 2.635735 1_565
B11 Er1 2.656852 1_545
B11 Er1 2.656852 1_655
B12 B8 1.819176 1_555
B12 W0 2.330081 1_545
B12 W0 2.330081 1_655
B12 Er0 2.668966 1_455
B12 Er0 2.668966 1_565
B12 Er2 2.668966 1_565
B12 Er2 2.668966 1_455
B13 B9 1.819176 1_555
B13 W1 2.330081 1_455
B13 W1 2.330081 1_565
B13 Er3 2.668966 1_545
B13 Er1 2.668966 1_545
B13 Er3 2.668966 1_655
B13 Er1 2.668966 1_655
