# generated using pymatgen
data_LiZn4(SnO2)4
_symmetry_space_group_name_H-M   'P 1'
_cell_length_a   3.38472283
_cell_length_b   8.18306961
_cell_length_c   9.96883380
_cell_angle_alpha   90.49877822
_cell_angle_beta   81.91120105
_cell_angle_gamma   84.98562163
_symmetry_Int_Tables_number   1
_chemical_formula_structural   LiZn4(SnO2)4
_chemical_formula_sum   'Li1 Zn4 Sn4 O8'
_cell_volume   272.25604390
_cell_formula_units_Z   1
loop_
 _symmetry_equiv_pos_site_id
 _symmetry_equiv_pos_as_xyz
  1  'x, y, z'
loop_
 _atom_site_type_symbol
 _atom_site_label
 _atom_site_symmetry_multiplicity
 _atom_site_fract_x
 _atom_site_fract_y
 _atom_site_fract_z
 _atom_site_occupancy
  Li  Li0  1  0.74685700  0.68176200  0.63134500  1
  Zn  Zn0  1  0.66089700  0.05020100  0.29377300  1
  Zn  Zn1  1  0.34502900  0.96308900  0.73557200  1
  Zn  Zn2  1  0.30371100  0.79244000  0.10133700  1
  Zn  Zn3  1  0.75072100  0.23120300  0.92528400  1
  Sn  Sn0  1  0.91278600  0.27261700  0.56949800  1
  Sn  Sn1  1  0.09638400  0.38179700  0.17592800  1
  Sn  Sn2  1  0.96881200  0.61869100  0.87456300  1
  Sn  Sn3  1  0.30425200  0.69638400  0.40541100  1
  O  O0  1  0.23913500  0.78528300  0.60947600  1
  O  O1  1  0.21679400  0.36447700  0.95656400  1
  O  O2  1  0.83517700  0.65122300  0.08742600  1
  O  O3  1  0.48692900  0.14840300  0.48111100  1
  O  O4  1  0.81464300  0.10895700  0.74855300  1
  O  O5  1  0.68068500  0.20294300  0.13577400  1
  O  O6  1  0.20221800  0.91610400  0.27519700  1
  O  O7  1  0.36753000  0.80970200  0.89737200  1
loop_
_geom_bond_atom_site_label_1
_geom_bond_atom_site_label_2
_geom_bond_distance
_geom_bond_site_symmetry_2
Li0 O0 1.890115 1_555
Li0 O0 1.920724 1_655
Li0 Sn2 2.678815 1_555
O0 Zn1 2.002929 1_555
O0 Sn3 2.129824 1_555
O1 Zn3 2.010853 1_555
O1 Zn3 2.051458 1_455
O1 Sn1 2.168408 1_556
O1 Sn2 2.370158 1_455
O2 Zn2 2.038173 1_555
O2 Zn2 2.061315 1_655
O2 Sn2 2.115971 1_554
O2 Sn1 2.516647 1_655
O3 Zn0 2.015413 1_555
O3 Sn0 2.117813 1_555
O3 Sn0 2.177901 1_455
O4 Zn3 1.993906 1_555
O4 Zn1 2.054668 1_645
O4 Zn1 2.086855 1_545
O4 Sn0 2.245564 1_555
O5 Zn0 2.016627 1_555
O5 Zn3 2.095412 1_554
O5 Sn1 2.188673 1_655
O5 Sn1 2.339785 1_555
O6 Zn2 1.971577 1_555
O6 Zn0 2.005954 1_565
O6 Zn0 2.035919 1_465
O6 Sn3 2.257273 1_555
O7 Zn2 2.021788 1_556
O7 Zn1 2.058156 1_555
O7 Sn2 2.182899 1_455
O7 Sn2 2.438087 1_555
