# generated using pymatgen
data_GaCo2Ni
_symmetry_space_group_name_H-M   'P 1'
_cell_length_a   4.37357224
_cell_length_b   4.37357224
_cell_length_c   4.37357224
_cell_angle_alpha   131.55547191
_cell_angle_beta   131.55547191
_cell_angle_gamma   70.93202332
_symmetry_Int_Tables_number   1
_chemical_formula_structural   GaCo2Ni
_chemical_formula_sum   'Ga1 Co2 Ni1'
_cell_volume   45.87687725
_cell_formula_units_Z   1
loop_
 _symmetry_equiv_pos_site_id
 _symmetry_equiv_pos_as_xyz
  1  'x, y, z'
loop_
 _atom_site_type_symbol
 _atom_site_label
 _atom_site_symmetry_multiplicity
 _atom_site_fract_x
 _atom_site_fract_y
 _atom_site_fract_z
 _atom_site_occupancy
  Ga  Ga0  1  0.00000000  0.00000000  0.00000000  1
  Co  Co0  1  0.75000000  0.25000000  0.50000000  1
  Co  Co1  1  0.25000000  0.75000000  0.50000000  1
  Ni  Ni0  1  0.50000000  0.50000000  0.00000000  1
loop_
_geom_bond_atom_site_label_1
_geom_bond_atom_site_label_2
_geom_bond_distance
_geom_bond_site_symmetry_2
Ga0 Ni0 2.537634 1_556
Ga0 Ni0 2.537634 1_455
Ga0 Ni0 2.537634 1_545
Ga0 Ni0 2.537634 1_444
Co0 Ga0 2.528227 1_666
Co0 Ga0 2.528227 1_656
Co0 Ga0 2.528227 1_555
Co0 Ni0 2.528227 1_555
Co0 Ni0 2.528227 1_556
Co0 Ga0 2.528227 1_655
Co0 Ni0 2.528227 1_545
Co0 Ni0 2.528227 1_656
Co0 Co1 2.537634 1_544
Co0 Co1 2.537634 1_555
Co0 Co1 2.537634 1_656
Co0 Co1 2.537634 1_645
Co1 Ga0 2.528227 1_666
Co1 Ga0 2.528227 1_555
Co1 Ga0 2.528227 1_566
Co1 Ni0 2.528227 1_566
Co1 Ni0 2.528227 1_556
Co1 Ga0 2.528227 1_565
Co1 Ni0 2.528227 1_455
Co1 Ni0 2.528227 1_555
