# generated using pymatgen
data_YbNi3
_symmetry_space_group_name_H-M   'P 1'
_cell_length_a   8.48105484
_cell_length_b   8.48105484
_cell_length_c   8.48105528
_cell_angle_alpha   33.40202857
_cell_angle_beta   33.40202857
_cell_angle_gamma   33.40202671
_symmetry_Int_Tables_number   1
_chemical_formula_structural   YbNi3
_chemical_formula_sum   'Yb3 Ni9'
_cell_volume   164.63144193
_cell_formula_units_Z   3
loop_
 _symmetry_equiv_pos_site_id
 _symmetry_equiv_pos_as_xyz
  1  'x, y, z'
loop_
 _atom_site_type_symbol
 _atom_site_label
 _atom_site_symmetry_multiplicity
 _atom_site_fract_x
 _atom_site_fract_y
 _atom_site_fract_z
 _atom_site_occupancy
  Yb  Yb0  1  0.85991900  0.85991900  0.85991900  1
  Yb  Yb1  1  0.14008100  0.14008100  0.14008100  1
  Yb  Yb2  1  0.00000000  0.00000000  0.00000000  1
  Ni  Ni0  1  0.41791300  0.91695100  0.41791300  1
  Ni  Ni1  1  0.41791300  0.41791300  0.91695100  1
  Ni  Ni2  1  0.91695100  0.41791300  0.41791300  1
  Ni  Ni3  1  0.58208700  0.08304900  0.58208700  1
  Ni  Ni4  1  0.58208700  0.58208700  0.08304900  1
  Ni  Ni5  1  0.08304900  0.58208700  0.58208700  1
  Ni  Ni6  1  0.66750900  0.66750900  0.66750900  1
  Ni  Ni7  1  0.33249100  0.33249100  0.33249100  1
  Ni  Ni8  1  0.50000000  0.50000000  0.50000000  1
loop_
_geom_bond_atom_site_label_1
_geom_bond_atom_site_label_2
_geom_bond_distance
_geom_bond_site_symmetry_2
Ni0 Ni7 2.412522 1_565
Ni0 Ni2 2.432575 1_555
Ni0 Ni1 2.432575 1_555
Ni0 Ni2 2.441953 1_465
Ni0 Ni1 2.441953 1_564
Ni0 Ni6 2.442330 1_555
Ni0 Ni8 2.462182 1_555
Ni0 Yb0 2.802927 1_455
Ni0 Yb0 2.802927 1_554
Ni0 Yb1 3.010920 1_565
Ni0 Yb2 3.138850 1_665
Ni0 Yb2 3.138850 1_566
Ni1 Ni7 2.412522 1_556
Ni1 Ni2 2.432575 1_555
Ni1 Ni2 2.441953 1_456
Ni1 Ni6 2.442329 1_555
Ni1 Ni8 2.462182 1_555
Ni1 Yb0 2.802927 1_545
Ni1 Yb0 2.802927 1_455
Ni1 Yb1 3.010920 1_556
Ni1 Yb2 3.138850 1_566
Ni1 Yb2 3.138850 1_656
Ni2 Ni7 2.412522 1_655
Ni2 Ni6 2.442330 1_555
Ni2 Ni8 2.462182 1_555
Ni2 Yb0 2.802927 1_545
Ni2 Yb0 2.802927 1_554
Ni2 Yb1 3.010920 1_655
Ni2 Yb2 3.138850 1_665
Ni2 Yb2 3.138850 1_656
Ni3 Ni6 2.412522 1_545
Ni3 Ni5 2.432575 1_555
Ni3 Ni4 2.432575 1_555
Ni3 Ni5 2.441953 1_645
Ni3 Ni4 2.441953 1_546
Ni3 Ni7 2.442330 1_555
Ni3 Ni8 2.462182 1_555
Ni3 Yb1 2.802927 1_655
Ni3 Yb1 2.802927 1_556
Ni3 Yb0 3.010920 1_545
Ni3 Yb2 3.138850 1_556
Ni3 Yb2 3.138850 1_655
Ni4 Ni6 2.412522 1_554
Ni4 Ni5 2.432575 1_555
Ni4 Ni5 2.441953 1_654
Ni4 Ni7 2.442329 1_555
Ni4 Ni8 2.462182 1_555
Ni4 Yb1 2.802927 1_655
Ni4 Yb1 2.802927 1_565
Ni4 Yb0 3.010920 1_554
Ni4 Yb2 3.138850 1_655
Ni4 Yb2 3.138850 1_565
Ni5 Ni6 2.412522 1_455
Ni5 Ni7 2.442330 1_555
Ni5 Ni8 2.462182 1_555
Ni5 Yb1 2.802927 1_565
Ni5 Yb1 2.802927 1_556
Ni5 Yb0 3.010920 1_455
Ni5 Yb2 3.138850 1_556
Ni5 Yb2 3.138850 1_565
Ni6 Yb2 2.814383 1_656
Ni6 Yb2 2.814383 1_566
Ni6 Yb2 2.814383 1_665
Ni7 Yb2 2.814383 1_565
Ni7 Yb2 2.814383 1_655
Ni7 Yb2 2.814383 1_556
Ni8 Yb1 2.885742 1_565
Ni8 Yb0 2.885742 1_455
Ni8 Yb0 2.885742 1_545
Ni8 Yb1 2.885742 1_655
Ni8 Yb1 2.885742 1_556
Ni8 Yb0 2.885742 1_554
