# generated using pymatgen
data_V(PO4)2
_symmetry_space_group_name_H-M   'P 1'
_cell_length_a   7.50835928
_cell_length_b   8.31823694
_cell_length_c   9.92365600
_cell_angle_alpha   90.00000000
_cell_angle_beta   90.00000000
_cell_angle_gamma   106.46203206
_symmetry_Int_Tables_number   1
_chemical_formula_structural   V(PO4)2
_chemical_formula_sum   'V4 P8 O32'
_cell_volume   594.38814944
_cell_formula_units_Z   4
loop_
 _symmetry_equiv_pos_site_id
 _symmetry_equiv_pos_as_xyz
  1  'x, y, z'
loop_
 _atom_site_type_symbol
 _atom_site_label
 _atom_site_symmetry_multiplicity
 _atom_site_fract_x
 _atom_site_fract_y
 _atom_site_fract_z
 _atom_site_occupancy
  V  V0  1  0.76266100  0.74057400  0.10028600  1
  V  V1  1  0.23733900  0.75942600  0.60028600  1
  V  V2  1  0.23733900  0.25942600  0.89971400  1
  V  V3  1  0.76266100  0.24057400  0.39971400  1
  P  P0  1  0.56921000  0.31406400  0.12951500  1
  P  P1  1  0.43079000  0.18593600  0.62951500  1
  P  P2  1  0.43079000  0.68593600  0.87048500  1
  P  P3  1  0.56921000  0.81406400  0.37048500  1
  P  P4  1  0.87071100  0.66955400  0.40393400  1
  P  P5  1  0.12928900  0.83044600  0.90393400  1
  P  P6  1  0.12928900  0.33044600  0.59606600  1
  P  P7  1  0.87071100  0.16955400  0.09606600  1
  O  O0  1  0.67724700  0.70059300  0.45239800  1
  O  O1  1  0.32275300  0.79940700  0.95239800  1
  O  O2  1  0.32275300  0.29940700  0.54760200  1
  O  O3  1  0.67724700  0.20059300  0.04760200  1
  O  O4  1  0.90492900  0.24373700  0.24038400  1
  O  O5  1  0.09507100  0.25626300  0.74038400  1
  O  O6  1  0.09507100  0.75626300  0.75961600  1
  O  O7  1  0.90492900  0.74373700  0.25961600  1
  O  O8  1  0.37830500  0.26725200  0.06056200  1
  O  O9  1  0.62169500  0.23274800  0.56056200  1
  O  O10  1  0.62169500  0.73274800  0.93943800  1
  O  O11  1  0.37830500  0.76725200  0.43943800  1
  O  O12  1  0.84583300  0.98350400  0.09071700  1
  O  O13  1  0.15416700  0.51649600  0.59071700  1
  O  O14  1  0.15416700  0.01649600  0.90928300  1
  O  O15  1  0.84583300  0.48350400  0.40928300  1
  O  O16  1  0.67669000  0.49656400  0.11200700  1
  O  O17  1  0.32331000  0.00343600  0.61200700  1
  O  O18  1  0.32331000  0.50343600  0.88799300  1
  O  O19  1  0.67669000  0.99656400  0.38799300  1
  O  O20  1  0.01871400  0.27201700  0.00098300  1
  O  O21  1  0.98128600  0.22798300  0.50098300  1
  O  O22  1  0.98128600  0.72798300  0.99901700  1
  O  O23  1  0.01871400  0.77201700  0.49901700  1
  O  O24  1  0.55430800  0.25394400  0.27649700  1
  O  O25  1  0.44569200  0.24605600  0.77649700  1
  O  O26  1  0.44569200  0.74605600  0.72350300  1
  O  O27  1  0.55430800  0.75394400  0.22350300  1
  O  O28  1  0.81570300  0.46064200  0.80298700  1
  O  O29  1  0.18429700  0.03935800  0.30298700  1
  O  O30  1  0.18429700  0.53935800  0.19701300  1
  O  O31  1  0.81570300  0.96064200  0.69701300  1
loop_
_geom_bond_atom_site_label_1
_geom_bond_atom_site_label_2
_geom_bond_distance
_geom_bond_site_symmetry_2
O0 P4 1.618816 1_555
O0 P3 1.625925 1_555
O1 P5 1.618816 1_555
O1 P2 1.625925 1_555
O2 P6 1.618816 1_555
O2 P1 1.625925 1_555
O3 P7 1.618816 1_555
O3 P0 1.625925 1_555
O4 P7 1.551780 1_555
O4 V3 1.904155 1_555
O5 P6 1.551780 1_555
O5 V2 1.904155 1_555
O6 P5 1.551780 1_555
O6 V1 1.904155 1_555
O7 P4 1.551780 1_555
O7 V0 1.904155 1_555
O8 P0 1.535610 1_555
O8 V2 1.906122 1_554
O9 P1 1.535610 1_555
O9 V3 1.906122 1_555
O10 P2 1.535610 1_555
O10 V0 1.906122 1_556
O11 P3 1.535610 1_555
O11 V1 1.906122 1_555
O12 P7 1.506307 1_565
O12 V0 1.940932 1_555
O13 P6 1.506307 1_555
O13 V1 1.940932 1_555
O14 P5 1.506307 1_545
O14 V2 1.940932 1_555
O15 P4 1.506307 1_555
O15 V3 1.940932 1_555
O16 P0 1.513825 1_555
O16 V0 1.951269 1_555
O17 P1 1.513825 1_555
O17 V1 1.951269 1_545
O18 P2 1.513825 1_555
O18 V2 1.951269 1_555
O19 P3 1.513825 1_555
O19 V3 1.951269 1_565
O20 P7 1.521466 1_455
O20 V2 1.952671 1_554
O21 P6 1.521466 1_655
O21 V3 1.952671 1_555
O22 P5 1.521466 1_655
O22 V0 1.952671 1_556
O23 P4 1.521466 1_455
O23 V1 1.952671 1_555
O24 P0 1.535711 1_555
O24 V3 2.013315 1_555
O25 P1 1.535711 1_555
O25 V2 2.013315 1_555
O26 P2 1.535711 1_555
O26 V1 2.013315 1_555
O27 P3 1.535711 1_555
O27 V0 2.013315 1_555
