# generated using pymatgen
data_NaMg30BO31
_symmetry_space_group_name_H-M   'P 1'
_cell_length_a   8.50088400
_cell_length_b   8.50088400
_cell_length_c   8.55277200
_cell_angle_alpha   90.00000000
_cell_angle_beta   90.00000000
_cell_angle_gamma   90.00000000
_symmetry_Int_Tables_number   1
_chemical_formula_structural   NaMg30BO31
_chemical_formula_sum   'Na1 Mg30 B1 O31'
_cell_volume   618.06631474
_cell_formula_units_Z   1
loop_
 _symmetry_equiv_pos_site_id
 _symmetry_equiv_pos_as_xyz
  1  'x, y, z'
loop_
 _atom_site_type_symbol
 _atom_site_label
 _atom_site_symmetry_multiplicity
 _atom_site_fract_x
 _atom_site_fract_y
 _atom_site_fract_z
 _atom_site_occupancy
  Na  Na0  1  0.00000000  0.00000000  0.00493200  1
  Mg  Mg0  1  0.00000000  0.50000000  0.00091300  1
  Mg  Mg1  1  0.50000000  0.00000000  0.00091300  1
  Mg  Mg2  1  0.00000000  0.00000000  0.49631300  1
  Mg  Mg3  1  0.00000000  0.50000000  0.49977100  1
  Mg  Mg4  1  0.50000000  0.00000000  0.49977100  1
  Mg  Mg5  1  0.50000000  0.50000000  0.50008000  1
  Mg  Mg6  1  0.25148000  0.25148000  0.99986900  1
  Mg  Mg7  1  0.25148000  0.74852000  0.99986900  1
  Mg  Mg8  1  0.74852000  0.25148000  0.99986900  1
  Mg  Mg9  1  0.74852000  0.74852000  0.99986900  1
  Mg  Mg10  1  0.24939300  0.24939300  0.50051800  1
  Mg  Mg11  1  0.24939300  0.75060700  0.50051800  1
  Mg  Mg12  1  0.75060700  0.24939300  0.50051800  1
  Mg  Mg13  1  0.75060700  0.75060700  0.50051800  1
  Mg  Mg14  1  0.00000000  0.25293600  0.24915700  1
  Mg  Mg15  1  0.00000000  0.74706400  0.24915700  1
  Mg  Mg16  1  0.50000000  0.25969800  0.24864900  1
  Mg  Mg17  1  0.50000000  0.74030200  0.24864900  1
  Mg  Mg18  1  0.00000000  0.24659400  0.75159700  1
  Mg  Mg19  1  0.00000000  0.75340600  0.75159700  1
  Mg  Mg20  1  0.50000000  0.24455800  0.75042000  1
  Mg  Mg21  1  0.50000000  0.75544200  0.75042000  1
  Mg  Mg22  1  0.25293600  0.00000000  0.24915700  1
  Mg  Mg23  1  0.25969800  0.50000000  0.24864900  1
  Mg  Mg24  1  0.74706400  0.00000000  0.24915700  1
  Mg  Mg25  1  0.74030200  0.50000000  0.24864900  1
  Mg  Mg26  1  0.24659400  0.00000000  0.75159700  1
  Mg  Mg27  1  0.24455800  0.50000000  0.75042000  1
  Mg  Mg28  1  0.75340600  0.00000000  0.75159700  1
  Mg  Mg29  1  0.75544200  0.50000000  0.75042000  1
  B  B0  1  0.50000000  0.50000000  0.95121400  1
  O  O0  1  0.00000000  0.50000000  0.24787800  1
  O  O1  1  0.50000000  0.00000000  0.24787800  1
  O  O2  1  0.50000000  0.50000000  0.26931400  1
  O  O3  1  0.00000000  0.00000000  0.73741100  1
  O  O4  1  0.00000000  0.50000000  0.75346000  1
  O  O5  1  0.50000000  0.00000000  0.75346000  1
  O  O6  1  0.50000000  0.50000000  0.77959200  1
  O  O7  1  0.25265500  0.25265500  0.24899300  1
  O  O8  1  0.25265500  0.74734500  0.24899300  1
  O  O9  1  0.74734500  0.25265500  0.24899300  1
  O  O10  1  0.74734500  0.74734500  0.24899300  1
  O  O11  1  0.25043000  0.25043000  0.75102700  1
  O  O12  1  0.25043000  0.74957000  0.75102700  1
  O  O13  1  0.74957000  0.25043000  0.75102700  1
  O  O14  1  0.74957000  0.74957000  0.75102700  1
  O  O15  1  0.00000000  0.26738400  0.00005800  1
  O  O16  1  0.00000000  0.73261600  0.00005800  1
  O  O17  1  0.50000000  0.28717800  0.99470300  1
  O  O18  1  0.50000000  0.71282200  0.99470300  1
  O  O19  1  0.00000000  0.25401400  0.50036100  1
  O  O20  1  0.00000000  0.74598600  0.50036100  1
  O  O21  1  0.50000000  0.25193800  0.50642300  1
  O  O22  1  0.50000000  0.74806200  0.50642300  1
  O  O23  1  0.26738400  0.00000000  0.00005800  1
  O  O24  1  0.28717800  0.50000000  0.99470300  1
  O  O25  1  0.73261600  0.00000000  0.00005800  1
  O  O26  1  0.71282200  0.50000000  0.99470300  1
  O  O27  1  0.25401400  0.00000000  0.50036100  1
  O  O28  1  0.25193800  0.50000000  0.50642300  1
  O  O29  1  0.74598600  0.00000000  0.50036100  1
  O  O30  1  0.74806200  0.50000000  0.50642300  1
loop_
_geom_bond_atom_site_label_1
_geom_bond_atom_site_label_2
_geom_bond_distance
_geom_bond_site_symmetry_2
Na0 O15 2.273383 1_555
Na0 O23 2.273383 1_555
Na0 O25 2.273383 1_455
Na0 O16 2.273383 1_545
Na0 O3 2.288046 1_554
Mg0 O15 1.977455 1_555
Mg0 O16 1.977455 1_555
Mg0 O0 2.112235 1_555
Mg0 O4 2.116409 1_554
Mg0 O26 2.441845 1_454
Mg0 O24 2.441845 1_554
Mg1 O23 1.977455 1_555
Mg1 O25 1.977455 1_555
Mg1 O1 2.112235 1_555
Mg1 O5 2.116409 1_554
Mg1 O18 2.441845 1_544
Mg1 O17 2.441845 1_554
Mg2 O3 2.062056 1_555
Mg2 O29 2.159621 1_455
Mg2 O20 2.159621 1_545
Mg2 O19 2.159621 1_555
Mg2 O27 2.159621 1_555
Mg3 O19 2.091105 1_555
Mg3 O20 2.091105 1_555
Mg3 O30 2.142451 1_455
Mg3 O28 2.142451 1_555
Mg3 O0 2.154383 1_555
Mg3 O4 2.169744 1_555
Mg4 O27 2.091105 1_555
Mg4 O29 2.091105 1_555
Mg4 O22 2.142451 1_545
Mg4 O21 2.142451 1_555
Mg4 O1 2.154383 1_555
Mg4 O5 2.169744 1_555
Mg5 O2 1.973689 1_555
Mg5 O21 2.109444 1_555
Mg5 O28 2.109444 1_555
Mg5 O22 2.109444 1_555
Mg5 O30 2.109444 1_555
Mg5 O6 2.390602 1_555
Mg6 O11 2.128326 1_555
Mg6 O7 2.130748 1_556
Mg6 O24 2.134781 1_555
Mg6 O17 2.134781 1_555
Mg6 O23 2.142074 1_556
Mg6 O15 2.142074 1_556
Mg7 O12 2.128326 1_555
Mg7 O8 2.130748 1_556
Mg7 O24 2.134781 1_555
Mg7 O18 2.134781 1_555
Mg7 O16 2.142074 1_556
Mg7 O23 2.142074 1_566
Mg8 O13 2.128326 1_555
Mg8 O9 2.130748 1_556
Mg8 O17 2.134781 1_555
Mg8 O26 2.134781 1_555
Mg8 O25 2.142074 1_556
Mg8 O15 2.142074 1_656
Mg9 O14 2.128326 1_555
Mg9 O10 2.130748 1_556
Mg9 O26 2.134781 1_555
Mg9 O18 2.134781 1_555
Mg9 O25 2.142074 1_566
Mg9 O16 2.142074 1_656
Mg10 O19 2.120425 1_555
Mg10 O27 2.120425 1_555
Mg10 O28 2.131089 1_555
Mg10 O21 2.131089 1_555
Mg10 O11 2.142583 1_555
Mg10 O7 2.151593 1_555
Mg11 O27 2.120425 1_565
Mg11 O20 2.120425 1_555
Mg11 O28 2.131089 1_555
Mg11 O22 2.131089 1_555
Mg11 O12 2.142583 1_555
Mg11 O8 2.151593 1_555
Mg12 O19 2.120425 1_655
Mg12 O29 2.120425 1_555
Mg12 O21 2.131089 1_555
Mg12 O30 2.131089 1_555
Mg12 O13 2.142583 1_555
Mg12 O9 2.151593 1_555
Mg13 O20 2.120425 1_655
Mg13 O29 2.120425 1_565
Mg13 O22 2.131089 1_555
Mg13 O30 2.131089 1_555
Mg13 O14 2.142583 1_555
Mg13 O10 2.151593 1_555
Mg14 O0 2.100291 1_555
Mg14 O15 2.134024 1_555
Mg14 O9 2.147793 1_455
Mg14 O7 2.147793 1_555
Mg14 O19 2.148510 1_555
Mg15 O0 2.100291 1_555
Mg15 O16 2.134024 1_555
Mg15 O10 2.147793 1_455
Mg15 O8 2.147793 1_555
Mg15 O20 2.148510 1_555
Mg16 O2 2.050411 1_555
Mg16 O7 2.103505 1_555
Mg16 O9 2.103505 1_555
Mg16 O17 2.184469 1_554
Mg16 O21 2.205669 1_555
Mg16 O1 2.207672 1_555
Mg17 O2 2.050411 1_555
Mg17 O8 2.103505 1_555
Mg17 O10 2.103505 1_555
Mg17 O18 2.184469 1_554
Mg17 O22 2.205669 1_555
Mg17 O1 2.207672 1_565
Mg18 O3 2.099775 1_555
Mg18 O11 2.129132 1_555
Mg18 O13 2.129132 1_455
Mg18 O15 2.132367 1_556
Mg18 O19 2.149690 1_555
Mg18 O4 2.154234 1_555
Mg19 O3 2.099775 1_565
Mg19 O12 2.129132 1_555
Mg19 O14 2.129132 1_455
Mg19 O16 2.132367 1_556
Mg19 O20 2.149690 1_555
Mg19 O4 2.154234 1_555
Mg20 O5 2.079122 1_555
Mg20 O21 2.087794 1_555
Mg20 O17 2.120478 1_555
Mg20 O13 2.122159 1_555
Mg20 O11 2.122159 1_555
Mg20 O6 2.185770 1_555
Mg21 O5 2.079122 1_565
Mg21 O22 2.087794 1_555
Mg21 O18 2.120478 1_555
Mg21 O14 2.122159 1_555
Mg21 O12 2.122159 1_555
Mg21 O6 2.185770 1_555
Mg22 O1 2.100291 1_555
Mg22 O23 2.134024 1_555
Mg22 O8 2.147793 1_545
Mg22 O7 2.147793 1_555
Mg22 O27 2.148510 1_555
Mg23 O2 2.050411 1_555
Mg23 O7 2.103505 1_555
Mg23 O8 2.103505 1_555
Mg23 O24 2.184469 1_554
Mg23 O28 2.205669 1_555
Mg23 O0 2.207672 1_555
Mg24 O1 2.100291 1_555
Mg24 O25 2.134024 1_555
Mg24 O10 2.147793 1_545
Mg24 O9 2.147793 1_555
Mg24 O29 2.148510 1_555
Mg25 O2 2.050411 1_555
Mg25 O9 2.103505 1_555
Mg25 O10 2.103505 1_555
Mg25 O26 2.184469 1_554
Mg25 O30 2.205669 1_555
Mg25 O0 2.207672 1_655
Mg26 O3 2.099775 1_555
Mg26 O11 2.129132 1_555
Mg26 O12 2.129132 1_545
Mg26 O23 2.132367 1_556
Mg26 O27 2.149690 1_555
Mg26 O5 2.154234 1_555
Mg27 O4 2.079122 1_555
Mg27 O28 2.087794 1_555
Mg27 O24 2.120478 1_555
Mg27 O12 2.122159 1_555
Mg27 O11 2.122159 1_555
Mg27 O6 2.185770 1_555
Mg28 O3 2.099775 1_655
Mg28 O13 2.129132 1_555
Mg28 O14 2.129132 1_545
Mg28 O25 2.132367 1_556
Mg28 O29 2.149690 1_555
Mg28 O5 2.154234 1_555
Mg29 O4 2.079122 1_655
Mg29 O30 2.087794 1_555
Mg29 O26 2.120478 1_555
Mg29 O14 2.122159 1_555
Mg29 O13 2.122159 1_555
Mg29 O6 2.185770 1_555
B0 O6 1.467844 1_555
B0 O18 1.847015 1_555
B0 O26 1.847015 1_555
B0 O17 1.847015 1_555
B0 O24 1.847015 1_555
