# generated using pymatgen
data_Er2Ga3Cu
_symmetry_space_group_name_H-M   'P 1'
_cell_length_a   4.30884360
_cell_length_b   4.30884360
_cell_length_c   7.10180584
_cell_angle_alpha   90.00000000
_cell_angle_beta   90.00000000
_cell_angle_gamma   120.00000431
_symmetry_Int_Tables_number   1
_chemical_formula_structural   Er2Ga3Cu
_chemical_formula_sum   'Er2 Ga3 Cu1'
_cell_volume   114.18810583
_cell_formula_units_Z   1
loop_
 _symmetry_equiv_pos_site_id
 _symmetry_equiv_pos_as_xyz
  1  'x, y, z'
loop_
 _atom_site_type_symbol
 _atom_site_label
 _atom_site_symmetry_multiplicity
 _atom_site_fract_x
 _atom_site_fract_y
 _atom_site_fract_z
 _atom_site_occupancy
  Er  Er0  1  0.33333300  0.66666700  0.73057010  1
  Er  Er1  1  0.33333300  0.66666700  0.26155920  1
  Ga  Ga0  1  0.66666700  0.33333300  0.47727753  1
  Ga  Ga1  1  0.66666700  0.33333300  0.04487524  1
  Ga  Ga2  1  -0.00000000  0.00000000  0.94895183  1
  Cu  Cu0  1  -0.00000000  0.00000000  0.53676511  1
loop_
_geom_bond_atom_site_label_1
_geom_bond_atom_site_label_2
_geom_bond_distance
_geom_bond_site_symmetry_2
Er0 Ga2 2.931553 1_565
Er0 Ga2 2.931556 1_555
Er0 Ga2 2.931556 1_665
Er0 Ga0 3.069936 1_455
Er0 Ga0 3.069936 1_565
Er0 Ga0 3.069942 1_555
Er0 Er1 3.330824 1_555
Er0 Ga1 3.342323 1_566
Er0 Ga1 3.342323 1_456
Er0 Ga1 3.342328 1_556
Er1 Ga0 2.921590 1_455
Er1 Ga0 2.921590 1_565
Er1 Ga0 2.921597 1_555
Er1 Ga1 2.925192 1_455
Er1 Ga1 2.925192 1_565
Er1 Ga1 2.925199 1_555
Er1 Ga2 3.334283 1_564
Er1 Ga2 3.334285 1_664
Er1 Ga2 3.334285 1_554
Ga0 Ga1 3.070837 1_555
Ga1 Ga2 2.579297 1_654
Ga1 Ga2 2.579300 1_664
Ga1 Ga2 2.579300 1_554
Cu0 Ga0 2.523327 1_455
Cu0 Ga0 2.523331 1_445
Cu0 Ga0 2.523331 1_555
Cu0 Er0 2.843076 1_545
Cu0 Er0 2.843079 1_555
Cu0 Er0 2.843079 1_445
Cu0 Ga2 2.927270 1_555
Cu0 Er1 3.163639 1_545
Cu0 Er1 3.163641 1_555
Cu0 Er1 3.163641 1_445
