# generated using pymatgen
data_TeMoN
_symmetry_space_group_name_H-M   'P 1'
_cell_length_a   3.50687100
_cell_length_b   3.50687100
_cell_length_c   9.35979400
_cell_angle_alpha   90.00000000
_cell_angle_beta   90.00000000
_cell_angle_gamma   90.00000000
_symmetry_Int_Tables_number   1
_chemical_formula_structural   TeMoN
_chemical_formula_sum   'Te2 Mo2 N2'
_cell_volume   115.10809639
_cell_formula_units_Z   2
loop_
 _symmetry_equiv_pos_site_id
 _symmetry_equiv_pos_as_xyz
  1  'x, y, z'
loop_
 _atom_site_type_symbol
 _atom_site_label
 _atom_site_symmetry_multiplicity
 _atom_site_fract_x
 _atom_site_fract_y
 _atom_site_fract_z
 _atom_site_occupancy
  Te  Te0  1  0.50000000  0.00000000  0.70145100  1
  Te  Te1  1  0.00000000  0.50000000  0.29854900  1
  Mo  Mo0  1  0.50000000  0.00000000  0.11209200  1
  Mo  Mo1  1  0.00000000  0.50000000  0.88790800  1
  N  N0  1  0.50000000  0.50000000  0.00000000  1
  N  N1  1  0.00000000  0.00000000  0.00000000  1
loop_
_geom_bond_atom_site_label_1
_geom_bond_atom_site_label_2
_geom_bond_distance
_geom_bond_site_symmetry_2
Mo0 N1 2.043347 1_555
Mo0 N0 2.043347 1_545
Mo0 N0 2.043347 1_555
Mo0 N1 2.043347 1_655
Mo0 Te1 3.032292 1_645
Mo0 Te1 3.032292 1_545
Mo0 Te1 3.032292 1_555
Mo0 Te1 3.032292 1_655
Mo1 N1 2.043347 1_556
Mo1 N0 2.043347 1_456
Mo1 N0 2.043347 1_556
Mo1 N1 2.043347 1_566
Mo1 Te0 3.032292 1_455
Mo1 Te0 3.032292 1_465
Mo1 Te0 3.032292 1_565
Mo1 Te0 3.032292 1_555
