# generated using pymatgen
data_Sc3InS6
_symmetry_space_group_name_H-M   'P 1'
_cell_length_a   3.68268200
_cell_length_b   12.84213800
_cell_length_c   16.16754100
_cell_angle_alpha   90.00000000
_cell_angle_beta   90.00000000
_cell_angle_gamma   90.00000000
_symmetry_Int_Tables_number   1
_chemical_formula_structural   Sc3InS6
_chemical_formula_sum   'Sc12 In4 S24'
_cell_volume   764.61976930
_cell_formula_units_Z   4
loop_
 _symmetry_equiv_pos_site_id
 _symmetry_equiv_pos_as_xyz
  1  'x, y, z'
loop_
 _atom_site_type_symbol
 _atom_site_label
 _atom_site_symmetry_multiplicity
 _atom_site_fract_x
 _atom_site_fract_y
 _atom_site_fract_z
 _atom_site_occupancy
  Sc  Sc0  1  0.25229900  0.03495700  0.77368100  1
  Sc  Sc1  1  0.25229900  0.96504300  0.22631900  1
  Sc  Sc2  1  0.74770100  0.46504300  0.27368100  1
  Sc  Sc3  1  0.74770100  0.53495700  0.72631900  1
  Sc  Sc4  1  0.26797300  0.24685400  0.61360000  1
  Sc  Sc5  1  0.26797300  0.75314600  0.38640000  1
  Sc  Sc6  1  0.73202700  0.25314600  0.11360000  1
  Sc  Sc7  1  0.73202700  0.74685400  0.88640000  1
  Sc  Sc8  1  0.74871800  0.30869800  0.85560900  1
  Sc  Sc9  1  0.74871800  0.69130200  0.14439100  1
  Sc  Sc10  1  0.25128200  0.19130200  0.35560900  1
  Sc  Sc11  1  0.25128200  0.80869800  0.64439100  1
  In  In0  1  0.75529100  0.00000000  0.50000000  1
  In  In1  1  0.24470900  0.50000000  0.00000000  1
  In  In2  1  0.36752000  0.50000000  0.50000000  1
  In  In3  1  0.63248000  0.00000000  0.00000000  1
  S  S0  1  0.77257000  0.39579300  0.59803300  1
  S  S1  1  0.77257000  0.60420700  0.40196700  1
  S  S2  1  0.22743000  0.10420700  0.09803300  1
  S  S3  1  0.22743000  0.89579300  0.90196700  1
  S  S4  1  0.24911600  0.30114400  0.97740400  1
  S  S5  1  0.24911600  0.69885600  0.02259600  1
  S  S6  1  0.75088400  0.19885600  0.47740400  1
  S  S7  1  0.75088400  0.80114400  0.52259600  1
  S  S8  1  0.74853600  0.10856600  0.87758900  1
  S  S9  1  0.74853600  0.89143400  0.12241100  1
  S  S10  1  0.25146400  0.39143400  0.37758900  1
  S  S11  1  0.25146400  0.60856600  0.62241100  1
  S  S12  1  0.76233200  0.18056100  0.71630500  1
  S  S13  1  0.76233200  0.81943900  0.28369500  1
  S  S14  1  0.23766800  0.31943900  0.21630500  1
  S  S15  1  0.23766800  0.68056100  0.78369500  1
  S  S16  1  0.25177000  0.38179300  0.75651600  1
  S  S17  1  0.25177000  0.61820700  0.24348400  1
  S  S18  1  0.74823000  0.11820700  0.25651600  1
  S  S19  1  0.74823000  0.88179300  0.74348400  1
  S  S20  1  0.25420200  0.02148800  0.60973300  1
  S  S21  1  0.25420200  0.97851200  0.39026700  1
  S  S22  1  0.74579800  0.47851200  0.10973300  1
  S  S23  1  0.74579800  0.52148800  0.89026700  1
loop_
_geom_bond_atom_site_label_1
_geom_bond_atom_site_label_2
_geom_bond_distance
_geom_bond_site_symmetry_2
In0 S20 2.568932 1_655
In0 S21 2.568932 1_645
In0 S20 2.574674 1_555
In0 S21 2.574674 1_545
In0 S6 2.579785 1_555
In0 S7 2.579785 1_545
In1 S23 2.568932 1_454
In1 S22 2.568932 1_455
In1 S23 2.574674 1_554
In1 S22 2.574674 1_555
In1 S4 2.579785 1_554
In1 S5 2.579785 1_555
In2 S10 2.458311 1_555
In2 S11 2.458311 1_555
In2 S1 2.555004 1_555
In2 S0 2.555004 1_555
In2 S1 3.017200 1_455
In2 S0 3.017200 1_455
In3 S9 2.458311 1_545
In3 S8 2.458311 1_554
In3 S2 2.555004 1_555
In3 S3 2.555004 1_544
In3 S2 3.017200 1_655
In3 S3 3.017200 1_644
S0 Sc4 2.655226 1_655
S0 Sc4 2.678603 1_555
S0 Sc3 2.739362 1_555
S1 Sc5 2.655226 1_655
S1 Sc5 2.678603 1_555
S1 Sc2 2.739362 1_555
S2 Sc6 2.655226 1_455
S2 Sc6 2.678603 1_555
S2 Sc1 2.739362 1_545
S3 Sc7 2.655226 1_455
S3 Sc7 2.678603 1_555
S3 Sc0 2.739362 1_565
S4 Sc8 2.696666 1_555
S4 Sc8 2.698667 1_455
S4 Sc6 2.896771 1_556
S4 Sc6 2.975703 1_456
S5 Sc9 2.696666 1_555
S5 Sc9 2.698667 1_455
S5 Sc7 2.896771 1_554
S5 Sc7 2.975703 1_454
S6 Sc10 2.696666 1_555
S6 Sc10 2.698667 1_655
S6 Sc4 2.896771 1_555
S6 Sc4 2.975703 1_655
S7 Sc11 2.696666 1_555
S7 Sc11 2.698667 1_655
S7 Sc5 2.896771 1_555
S7 Sc5 2.975703 1_655
S8 Sc8 2.594574 1_555
S8 Sc0 2.656213 1_555
S8 Sc0 2.675357 1_655
S9 Sc9 2.594574 1_555
S9 Sc1 2.656213 1_555
S9 Sc1 2.675357 1_655
S10 Sc10 2.594574 1_555
S10 Sc2 2.656213 1_555
S10 Sc2 2.675357 1_455
S11 Sc11 2.594574 1_555
S11 Sc3 2.656213 1_555
S11 Sc3 2.675357 1_455
S12 Sc4 2.607004 1_555
S12 Sc4 2.636186 1_655
S12 Sc0 2.759118 1_655
S12 Sc8 2.789763 1_555
S12 Sc0 2.808001 1_555
S13 Sc5 2.607004 1_555
S13 Sc5 2.636186 1_655
S13 Sc1 2.759118 1_655
S13 Sc9 2.789763 1_555
S13 Sc1 2.808001 1_555
S14 Sc6 2.607004 1_555
S14 Sc6 2.636186 1_455
S14 Sc2 2.759118 1_455
S14 Sc10 2.789763 1_555
S14 Sc2 2.808001 1_555
S15 Sc7 2.607004 1_555
S15 Sc7 2.636186 1_455
S15 Sc3 2.759118 1_455
S15 Sc11 2.789763 1_555
S15 Sc3 2.808001 1_555
S16 Sc8 2.607128 1_555
S16 Sc8 2.622956 1_455
S16 Sc3 2.728155 1_555
S16 Sc3 2.748309 1_455
S16 Sc4 2.888840 1_555
S17 Sc9 2.607128 1_555
S17 Sc9 2.622956 1_455
S17 Sc2 2.728155 1_555
S17 Sc2 2.748309 1_455
S17 Sc5 2.888840 1_555
S18 Sc10 2.607128 1_555
S18 Sc10 2.622956 1_655
S18 Sc1 2.728155 1_545
S18 Sc1 2.748309 1_645
S18 Sc6 2.888840 1_555
S19 Sc11 2.607128 1_555
S19 Sc11 2.622956 1_655
S19 Sc0 2.728155 1_565
S19 Sc0 2.748309 1_665
S19 Sc7 2.888840 1_555
S20 Sc0 2.656283 1_555
S20 Sc11 2.789556 1_545
S20 Sc4 2.895301 1_555
S21 Sc1 2.656283 1_555
S21 Sc10 2.789556 1_565
S21 Sc5 2.895301 1_555
S22 Sc2 2.656283 1_555
S22 Sc9 2.789556 1_555
S22 Sc6 2.895301 1_555
S23 Sc3 2.656283 1_555
S23 Sc8 2.789556 1_555
S23 Sc7 2.895301 1_555
