# generated using pymatgen
data_TiNb6Tl2O18
_symmetry_space_group_name_H-M   'P 1'
_cell_length_a   7.69205961
_cell_length_b   7.69205961
_cell_length_c   8.30039080
_cell_angle_alpha   89.86479703
_cell_angle_beta   89.86479703
_cell_angle_gamma   59.94909189
_symmetry_Int_Tables_number   1
_chemical_formula_structural   TiNb6Tl2O18
_chemical_formula_sum   'Ti1 Nb6 Tl2 O18'
_cell_volume   425.09875048
_cell_formula_units_Z   1
loop_
 _symmetry_equiv_pos_site_id
 _symmetry_equiv_pos_as_xyz
  1  'x, y, z'
loop_
 _atom_site_type_symbol
 _atom_site_label
 _atom_site_symmetry_multiplicity
 _atom_site_fract_x
 _atom_site_fract_y
 _atom_site_fract_z
 _atom_site_occupancy
  Ti  Ti0  1  0.99800900  0.00199100  0.50000000  1
  Nb  Nb0  1  0.33391600  0.83610400  0.84719700  1
  Nb  Nb1  1  0.83057400  0.33838600  0.84781000  1
  Nb  Nb2  1  0.82924300  0.83577700  0.84831500  1
  Nb  Nb3  1  0.66161400  0.16942600  0.15219000  1
  Nb  Nb4  1  0.16389600  0.66608400  0.15280300  1
  Nb  Nb5  1  0.16422300  0.17075700  0.15168500  1
  Tl  Tl0  1  0.62488800  0.68796400  0.29689700  1
  Tl  Tl1  1  0.31203600  0.37511200  0.70310300  1
  O  O0  1  0.89721800  0.55227800  0.83820200  1
  O  O1  1  0.55188600  0.89621300  0.83890200  1
  O  O2  1  0.55100200  0.55274700  0.83805400  1
  O  O3  1  0.10378700  0.44811400  0.16109800  1
  O  O4  1  0.44772200  0.10278200  0.16179800  1
  O  O5  1  0.44725300  0.44899800  0.16194600  1
  O  O6  1  0.24119200  0.87825300  0.63578100  1
  O  O7  1  0.88014600  0.24006300  0.63718200  1
  O  O8  1  0.88143300  0.87870300  0.63709700  1
  O  O9  1  0.75993700  0.11985400  0.36281800  1
  O  O10  1  0.12174700  0.75880800  0.36421900  1
  O  O11  1  0.12129700  0.11856700  0.36290300  1
  O  O12  1  0.71473700  0.14294000  0.89808500  1
  O  O13  1  0.14328900  0.71450400  0.89694400  1
  O  O14  1  0.14237700  0.14197900  0.89734700  1
  O  O15  1  0.28549600  0.85671100  0.10305600  1
  O  O16  1  0.85706000  0.28526300  0.10191500  1
  O  O17  1  0.85802100  0.85762300  0.10265300  1
loop_
_geom_bond_atom_site_label_1
_geom_bond_atom_site_label_2
_geom_bond_distance
_geom_bond_site_symmetry_2
Nb0 O6 1.861423 1_555
Nb0 O1 1.950730 1_555
Nb0 O2 1.974785 1_555
Nb0 O14 2.099909 1_565
Nb0 O13 2.136451 1_555
Nb0 O15 2.147743 1_556
Nb1 O7 1.867671 1_555
Nb1 O2 1.949048 1_555
Nb1 O0 1.954472 1_555
Nb1 O12 2.136615 1_555
Nb1 O16 2.138145 1_556
Nb1 O14 2.139289 1_655
Nb2 O8 1.862947 1_555
Nb2 O1 1.944507 1_555
Nb2 O0 1.973459 1_555
Nb2 O12 2.108912 1_565
Nb2 O17 2.138957 1_556
Nb2 O13 2.148131 1_655
Nb3 O9 1.867671 1_555
Nb3 O5 1.949048 1_555
Nb3 O4 1.954472 1_555
Nb3 O16 2.136615 1_555
Nb3 O12 2.138145 1_554
Nb3 O17 2.139289 1_545
Nb4 O10 1.861423 1_555
Nb4 O3 1.950730 1_555
Nb4 O5 1.974785 1_555
Nb4 O17 2.099909 1_455
Nb4 O15 2.136451 1_555
Nb4 O13 2.147743 1_554
Nb5 O11 1.862947 1_555
Nb5 O3 1.944507 1_555
Nb5 O4 1.973459 1_555
Nb5 O16 2.108912 1_455
Nb5 O14 2.138957 1_554
Nb5 O15 2.148131 1_545
O6 Ti0 1.974063 1_465
O7 Ti0 1.952997 1_555
O8 Ti0 1.959635 1_565
O9 Ti0 1.952997 1_555
O10 Ti0 1.974063 1_465
O11 Ti0 1.959635 1_455
O13 Tl1 2.775799 1_555
O15 Tl0 2.775799 1_555
