# generated using pymatgen
data_MnSb2H18(Se2N3)2
_symmetry_space_group_name_H-M   'P 1'
_cell_length_a   18.58328400
_cell_length_b   12.72646500
_cell_length_c   7.71192900
_cell_angle_alpha   90.00000000
_cell_angle_beta   90.00000000
_cell_angle_gamma   90.00000000
_symmetry_Int_Tables_number   1
_chemical_formula_structural   MnSb2H18(Se2N3)2
_chemical_formula_sum   'Mn4 Sb8 H72 Se16 N24'
_cell_volume   1823.86745596
_cell_formula_units_Z   4
loop_
 _symmetry_equiv_pos_site_id
 _symmetry_equiv_pos_as_xyz
  1  'x, y, z'
loop_
 _atom_site_type_symbol
 _atom_site_label
 _atom_site_symmetry_multiplicity
 _atom_site_fract_x
 _atom_site_fract_y
 _atom_site_fract_z
 _atom_site_occupancy
  Mn  Mn0  1  0.68021000  0.53604000  0.08663200  1
  Mn  Mn1  1  0.31979000  0.46396000  0.58663200  1
  Mn  Mn2  1  0.81979000  0.03604000  0.58663200  1
  Mn  Mn3  1  0.18021000  0.96396000  0.08663200  1
  Sb  Sb0  1  0.95952300  0.65370700  0.92456800  1
  Sb  Sb1  1  0.04047700  0.34629300  0.42456800  1
  Sb  Sb2  1  0.54047700  0.15370700  0.42456800  1
  Sb  Sb3  1  0.45952300  0.84629300  0.92456800  1
  Sb  Sb4  1  0.91680000  0.58518900  0.43720100  1
  Sb  Sb5  1  0.08320000  0.41481100  0.93720100  1
  Sb  Sb6  1  0.58320000  0.08518900  0.93720100  1
  Sb  Sb7  1  0.41680000  0.91481100  0.43720100  1
  H  H0  1  0.77076600  0.40048400  0.28863100  1
  H  H1  1  0.22923400  0.59951600  0.78863100  1
  H  H2  1  0.72923400  0.90048400  0.78863100  1
  H  H3  1  0.27076600  0.09951600  0.28863100  1
  H  H4  1  0.74414600  0.49799600  0.41206700  1
  H  H5  1  0.25585400  0.50200400  0.91206700  1
  H  H6  1  0.75585400  0.99799600  0.91206700  1
  H  H7  1  0.24414600  0.00200400  0.41206700  1
  H  H8  1  0.68853800  0.39857900  0.36936800  1
  H  H9  1  0.31146200  0.60142100  0.86936800  1
  H  H10  1  0.81146200  0.89857900  0.86936800  1
  H  H11  1  0.18853800  0.10142100  0.36936800  1
  H  H12  1  0.71515400  0.74843200  0.10124500  1
  H  H13  1  0.28484600  0.25156800  0.60124500  1
  H  H14  1  0.78484600  0.24843200  0.60124500  1
  H  H15  1  0.21515400  0.75156800  0.10124500  1
  H  H16  1  0.77267600  0.68716200  0.23011500  1
  H  H17  1  0.22732400  0.31283800  0.73011500  1
  H  H18  1  0.72732400  0.18716200  0.73011500  1
  H  H19  1  0.27267600  0.81283800  0.23011500  1
  H  H20  1  0.78693300  0.69183400  0.01796800  1
  H  H21  1  0.21306700  0.30816600  0.51796800  1
  H  H22  1  0.71306700  0.19183400  0.51796800  1
  H  H23  1  0.28693300  0.80816600  0.01796800  1
  H  H24  1  0.59097000  0.55712500  0.37797500  1
  H  H25  1  0.40903000  0.44287500  0.87797500  1
  H  H26  1  0.90903000  0.05712500  0.87797500  1
  H  H27  1  0.09097000  0.94287500  0.37797500  1
  H  H28  1  0.63055700  0.67213600  0.36184500  1
  H  H29  1  0.36944300  0.32786400  0.86184500  1
  H  H30  1  0.86944300  0.17213600  0.86184500  1
  H  H31  1  0.13055700  0.82786400  0.36184500  1
  H  H32  1  0.56077200  0.64409800  0.23714300  1
  H  H33  1  0.43922800  0.35590200  0.73714300  1
  H  H34  1  0.93922800  0.14409800  0.73714300  1
  H  H35  1  0.06077200  0.85590200  0.23714300  1
  H  H36  1  0.74238300  0.37543100  0.88928100  1
  H  H37  1  0.25761700  0.62456900  0.38928100  1
  H  H38  1  0.75761700  0.87543100  0.38928100  1
  H  H39  1  0.24238300  0.12456900  0.88928100  1
  H  H40  1  0.77151400  0.48758900  0.80157200  1
  H  H41  1  0.22848600  0.51241100  0.30157200  1
  H  H42  1  0.72848600  0.98758900  0.30157200  1
  H  H43  1  0.27151400  0.01241100  0.80157200  1
  H  H44  1  0.81067000  0.43909000  0.97364200  1
  H  H45  1  0.18933000  0.56091000  0.47364200  1
  H  H46  1  0.68933000  0.93909000  0.47364200  1
  H  H47  1  0.31067000  0.06091000  0.97364200  1
  H  H48  1  0.57086600  0.39040500  0.16396800  1
  H  H49  1  0.42913400  0.60959500  0.66396800  1
  H  H50  1  0.92913400  0.89040500  0.66396800  1
  H  H51  1  0.07086600  0.10959500  0.16396800  1
  H  H52  1  0.54680700  0.45630800  0.98947000  1
  H  H53  1  0.45319300  0.54369200  0.48947000  1
  H  H54  1  0.95319300  0.95630800  0.48947000  1
  H  H55  1  0.04680700  0.04369200  0.98947000  1
  H  H56  1  0.60231100  0.35577000  0.97449300  1
  H  H57  1  0.39768900  0.64423000  0.47449300  1
  H  H58  1  0.89768900  0.85577000  0.47449300  1
  H  H59  1  0.10231100  0.14423000  0.97449300  1
  H  H60  1  0.57773000  0.62963100  0.85935900  1
  H  H61  1  0.42227000  0.37036900  0.35935900  1
  H  H62  1  0.92227000  0.12963100  0.35935900  1
  H  H63  1  0.07773000  0.87036900  0.85935900  1
  H  H64  1  0.65567700  0.68052300  0.80211600  1
  H  H65  1  0.34432300  0.31947700  0.30211600  1
  H  H66  1  0.84432300  0.18052300  0.30211600  1
  H  H67  1  0.15567700  0.81947700  0.80211600  1
  H  H68  1  0.63442700  0.56239100  0.73651100  1
  H  H69  1  0.36557300  0.43760900  0.23651100  1
  H  H70  1  0.86557300  0.06239100  0.23651100  1
  H  H71  1  0.13442700  0.93760900  0.73651100  1
  Se  Se0  1  0.08354300  0.60465800  0.07939700  1
  Se  Se1  1  0.91645700  0.39534200  0.57939700  1
  Se  Se2  1  0.41645700  0.10465800  0.57939700  1
  Se  Se3  1  0.58354300  0.89534200  0.07939700  1
  Se  Se4  1  0.02239100  0.66959700  0.61807400  1
  Se  Se5  1  0.97760900  0.33040300  0.11807400  1
  Se  Se6  1  0.47760900  0.16959700  0.11807400  1
  Se  Se7  1  0.52239100  0.83040300  0.61807400  1
  Se  Se8  1  0.94696900  0.84346300  0.01981100  1
  Se  Se9  1  0.05303100  0.15653700  0.51981100  1
  Se  Se10  1  0.55303100  0.34346300  0.51981100  1
  Se  Se11  1  0.44696900  0.65653700  0.01981100  1
  Se  Se12  1  0.80541600  0.65755900  0.58623700  1
  Se  Se13  1  0.19458400  0.34244100  0.08623700  1
  Se  Se14  1  0.69458400  0.15755900  0.08623700  1
  Se  Se15  1  0.30541600  0.84244100  0.58623700  1
  N  N0  1  0.72729100  0.44668500  0.31658400  1
  N  N1  1  0.27270900  0.55331500  0.81658400  1
  N  N2  1  0.77270900  0.94668500  0.81658400  1
  N  N3  1  0.22729100  0.05331500  0.31658400  1
  N  N4  1  0.74787800  0.68372000  0.11080600  1
  N  N5  1  0.25212200  0.31628000  0.61080600  1
  N  N6  1  0.75212200  0.18372000  0.61080600  1
  N  N7  1  0.24787800  0.81628000  0.11080600  1
  N  N8  1  0.60702300  0.61340600  0.29116600  1
  N  N9  1  0.39297700  0.38659400  0.79116600  1
  N  N10  1  0.89297700  0.11340600  0.79116600  1
  N  N11  1  0.10702300  0.88659400  0.29116600  1
  N  N12  1  0.76141800  0.44930600  0.91662100  1
  N  N13  1  0.23858200  0.55069400  0.41662100  1
  N  N14  1  0.73858200  0.94930600  0.41662100  1
  N  N15  1  0.26141800  0.05069400  0.91662100  1
  N  N16  1  0.58962100  0.42009800  0.04834000  1
  N  N17  1  0.41037900  0.57990200  0.54834000  1
  N  N18  1  0.91037900  0.92009800  0.54834000  1
  N  N19  1  0.08962100  0.07990200  0.04834000  1
  N  N20  1  0.63135000  0.61225500  0.84033500  1
  N  N21  1  0.36865000  0.38774500  0.34033500  1
  N  N22  1  0.86865000  0.11225500  0.34033500  1
  N  N23  1  0.13135000  0.88774500  0.84033500  1
loop_
_geom_bond_atom_site_label_1
_geom_bond_atom_site_label_2
_geom_bond_distance
_geom_bond_site_symmetry_2
Mn0 N16 2.257958 1_555
Mn0 N4 2.268999 1_555
Mn0 N0 2.281118 1_555
Mn0 N12 2.283604 1_554
Mn0 N8 2.303740 1_555
Mn0 N20 2.317982 1_554
Mn1 N17 2.257958 1_555
Mn1 N5 2.268999 1_555
Mn1 N1 2.281118 1_555
Mn1 N13 2.283604 1_555
Mn1 N9 2.303740 1_555
Mn1 N21 2.317982 1_555
Mn2 N18 2.257958 1_545
Mn2 N6 2.268999 1_555
Mn2 N2 2.281118 1_545
Mn2 N14 2.283604 1_545
Mn2 N10 2.303740 1_555
Mn2 N22 2.317982 1_555
Mn3 N19 2.257958 1_565
Mn3 N7 2.268999 1_555
Mn3 N3 2.281118 1_565
Mn3 N15 2.283604 1_564
Mn3 N11 2.303740 1_555
Mn3 N23 2.317982 1_554
Sb0 Se8 2.534912 1_556
Sb0 Se4 2.644370 1_655
Sb0 Se0 2.669643 1_656
Sb1 Se9 2.534912 1_555
Sb1 Se5 2.644370 1_455
Sb1 Se1 2.669643 1_455
Sb2 Se10 2.534912 1_555
Sb2 Se6 2.644370 1_555
Sb2 Se2 2.669643 1_555
Sb3 Se11 2.534912 1_556
Sb3 Se7 2.644370 1_555
Sb3 Se3 2.669643 1_556
Sb4 Se12 2.540411 1_555
Sb4 Se4 2.636279 1_655
Sb4 Se1 2.653306 1_555
Sb5 Se13 2.540411 1_556
Sb5 Se5 2.636279 1_456
Sb5 Se0 2.653306 1_556
Sb6 Se14 2.540411 1_556
Sb6 Se6 2.636279 1_556
Sb6 Se3 2.653306 1_546
Sb7 Se15 2.540411 1_555
Sb7 Se7 2.636279 1_555
Sb7 Se2 2.653306 1_565
H0 N0 1.022204 1_555
H1 N1 1.022204 1_555
H2 N2 1.022204 1_555
H3 N3 1.022204 1_555
H4 N0 1.032836 1_555
H5 N1 1.032836 1_555
H6 N2 1.032836 1_555
H7 N3 1.032836 1_555
H8 N0 1.029147 1_555
H9 N1 1.029147 1_555
H10 N2 1.029147 1_555
H11 N3 1.029147 1_555
H12 N4 1.026396 1_555
H13 N5 1.026396 1_555
H14 N6 1.026396 1_555
H15 N7 1.026396 1_555
H16 N4 1.029986 1_555
H17 N5 1.029986 1_555
H18 N6 1.029986 1_555
H19 N7 1.029986 1_555
H20 N4 1.024697 1_555
H21 N5 1.024697 1_555
H22 N6 1.024697 1_555
H23 N7 1.024697 1_555
H24 N8 1.024794 1_555
H25 N9 1.024794 1_555
H26 N10 1.024794 1_555
H27 N11 1.024794 1_555
H28 N8 1.023236 1_555
H29 N9 1.023236 1_555
H30 N10 1.023236 1_555
H31 N11 1.023236 1_555
H32 N8 1.031928 1_555
H33 N9 1.031928 1_555
H34 N10 1.031928 1_555
H35 N11 1.031928 1_555
H36 N12 1.026400 1_555
H37 N13 1.026400 1_555
H38 N14 1.026400 1_555
H39 N15 1.026400 1_555
H40 N12 1.029458 1_555
H41 N13 1.029458 1_555
H42 N14 1.029458 1_555
H43 N15 1.029458 1_555
H44 N12 1.023711 1_555
H45 N13 1.023711 1_555
H46 N14 1.023711 1_555
H47 N15 1.023711 1_555
H48 N16 1.029285 1_555
H49 N17 1.029285 1_555
H50 N18 1.029285 1_555
H51 N19 1.029285 1_555
H52 N16 1.025425 1_556
H53 N17 1.025425 1_555
H54 N18 1.025425 1_555
H55 N19 1.025425 1_556
H56 N16 1.024775 1_556
H57 N17 1.024775 1_555
H58 N18 1.024775 1_555
H59 N19 1.024775 1_556
H60 N20 1.031169 1_555
H61 N21 1.031169 1_555
H62 N22 1.031169 1_555
H63 N23 1.031169 1_555
H64 N20 1.022779 1_555
H65 N21 1.022779 1_555
H66 N22 1.022779 1_555
H67 N23 1.022779 1_555
H68 N20 1.023265 1_555
H69 N21 1.023265 1_555
H70 N22 1.023265 1_555
H71 N23 1.023265 1_555
