# generated using pymatgen
data_LuCo4B
_symmetry_space_group_name_H-M   'P 1'
_cell_length_a   4.92291462
_cell_length_b   5.02148419
_cell_length_c   6.72285950
_cell_angle_alpha   90.00000000
_cell_angle_beta   90.00000000
_cell_angle_gamma   120.66167670
_symmetry_Int_Tables_number   1
_chemical_formula_structural   LuCo4B
_chemical_formula_sum   'Lu2 Co8 B2'
_cell_volume   142.95673726
_cell_formula_units_Z   2
loop_
 _symmetry_equiv_pos_site_id
 _symmetry_equiv_pos_as_xyz
  1  'x, y, z'
loop_
 _atom_site_type_symbol
 _atom_site_label
 _atom_site_symmetry_multiplicity
 _atom_site_fract_x
 _atom_site_fract_y
 _atom_site_fract_z
 _atom_site_occupancy
  Lu  Lu0  1  -0.00000000  -0.00000000  0.50000000  1
  Lu  Lu1  1  -0.00000000  -0.00000000  -0.00000000  1
  Co  Co0  1  0.34173305  0.67087570  0.50000000  1
  Co  Co1  1  0.65826695  0.32912430  0.50000000  1
  Co  Co2  1  0.50000000  -0.00000000  0.21248515  1
  Co  Co3  1  0.50000000  -0.00000000  0.78751485  1
  Co  Co4  1  -0.00000000  0.50000000  0.21826359  1
  Co  Co5  1  -0.00000000  0.50000000  0.78173641  1
  Co  Co6  1  0.50000000  0.50000000  0.21248927  1
  Co  Co7  1  0.50000000  0.50000000  0.78751073  1
  B  B0  1  0.33600010  0.66803185  -0.00000000  1
  B  B1  1  0.66399990  0.33196815  -0.00000000  1
loop_
_geom_bond_atom_site_label_1
_geom_bond_atom_site_label_2
_geom_bond_distance
_geom_bond_site_symmetry_2
Co0 Co4 2.383628 1_555
Co0 Co5 2.383628 1_555
Co0 Co6 2.400259 1_555
Co0 Co7 2.400259 1_555
Co0 Co2 2.400269 1_565
Co0 Co3 2.400269 1_565
Co0 Lu0 2.787536 1_665
Co0 Lu0 2.897825 1_565
Co0 Lu0 2.898032 1_555
Co1 Co4 2.383628 1_655
Co1 Co5 2.383628 1_655
Co1 Co6 2.400259 1_555
Co1 Co7 2.400259 1_555
Co1 Co2 2.400269 1_555
Co1 Co3 2.400269 1_555
Co1 Lu0 2.787536 1_555
Co1 Lu0 2.897825 1_655
Co1 Lu0 2.898032 1_665
Co2 Lu1 2.845946 1_655
Co2 Lu1 2.845946 1_555
Co2 Lu0 3.129690 1_555
Co2 Lu0 3.129690 1_655
Co3 Lu1 2.845946 1_556
Co3 Lu1 2.845946 1_656
Co3 Lu0 3.129690 1_555
Co3 Lu0 3.129690 1_655
Co4 Lu1 2.908085 1_565
Co4 Lu1 2.908085 1_555
Co4 Lu0 3.145051 1_555
Co4 Lu0 3.145051 1_565
Co5 Lu1 2.908085 1_566
Co5 Lu1 2.908085 1_556
Co5 Lu0 3.145051 1_555
Co5 Lu0 3.145051 1_565
Co6 Lu1 2.846054 1_665
Co6 Lu1 2.846054 1_555
Co6 Lu0 3.129759 1_665
Co6 Lu0 3.129759 1_555
Co7 Lu1 2.846054 1_556
Co7 Lu1 2.846054 1_666
Co7 Lu0 3.129759 1_555
Co7 Lu0 3.129759 1_665
B0 Co2 2.024497 1_565
B0 Co3 2.024497 1_564
B0 Co7 2.024670 1_554
B0 Co6 2.024670 1_555
B0 Co5 2.043923 1_554
B0 Co4 2.043923 1_555
B0 Lu1 2.811813 1_665
B0 Lu1 2.885681 1_565
B0 Lu1 2.886084 1_555
B1 Co2 2.024497 1_555
B1 Co3 2.024497 1_554
B1 Co7 2.024670 1_554
B1 Co6 2.024670 1_555
B1 Co5 2.043923 1_654
B1 Co4 2.043923 1_655
B1 Lu1 2.811813 1_555
B1 Lu1 2.885681 1_655
B1 Lu1 2.886084 1_665
