# generated using pymatgen
data_MgSi2
_symmetry_space_group_name_H-M   'P 1'
_cell_length_a   6.37645200
_cell_length_b   7.23596640
_cell_length_c   9.61970361
_cell_angle_alpha   92.86236581
_cell_angle_beta   105.52207946
_cell_angle_gamma   97.34707574
_symmetry_Int_Tables_number   1
_chemical_formula_structural   MgSi2
_chemical_formula_sum   'Mg8 Si16'
_cell_volume   422.50345110
_cell_formula_units_Z   8
loop_
 _symmetry_equiv_pos_site_id
 _symmetry_equiv_pos_as_xyz
  1  'x, y, z'
loop_
 _atom_site_type_symbol
 _atom_site_label
 _atom_site_symmetry_multiplicity
 _atom_site_fract_x
 _atom_site_fract_y
 _atom_site_fract_z
 _atom_site_occupancy
  Mg  Mg0  1  0.86350700  0.39896500  0.85662300  1
  Mg  Mg1  1  0.13649300  0.60103500  0.14337700  1
  Mg  Mg2  1  0.21296700  0.93802700  0.46271800  1
  Mg  Mg3  1  0.46666100  0.23946000  0.30353900  1
  Mg  Mg4  1  0.16814100  0.40276100  0.63100000  1
  Mg  Mg5  1  0.83185900  0.59723900  0.36900000  1
  Mg  Mg6  1  0.53333900  0.76054000  0.69646100  1
  Mg  Mg7  1  0.78703300  0.06197300  0.53728200  1
  Si  Si0  1  0.66429100  0.05367200  0.95388300  1
  Si  Si1  1  0.04901400  0.26795800  0.33351000  1
  Si  Si2  1  0.34202600  0.57393800  0.42432800  1
  Si  Si3  1  0.70503100  0.34679500  0.12084700  1
  Si  Si4  1  0.50317000  0.14656900  0.70392900  1
  Si  Si5  1  0.68751400  0.65195300  0.02754500  1
  Si  Si6  1  0.29496900  0.65320500  0.87915300  1
  Si  Si7  1  0.05999600  0.16244900  0.09060700  1
  Si  Si8  1  0.95098600  0.73204200  0.66649000  1
  Si  Si9  1  0.31248600  0.34804700  0.97245500  1
  Si  Si10  1  0.94000400  0.83755100  0.90939300  1
  Si  Si11  1  0.49683000  0.85343100  0.29607100  1
  Si  Si12  1  0.16150100  0.08883600  0.77755100  1
  Si  Si13  1  0.65797400  0.42606200  0.57567200  1
  Si  Si14  1  0.83849900  0.91116400  0.22244900  1
  Si  Si15  1  0.33570900  0.94632800  0.04611700  1
loop_
_geom_bond_atom_site_label_1
_geom_bond_atom_site_label_2
_geom_bond_distance
_geom_bond_site_symmetry_2
Mg0 Si13 2.698763 1_555
Mg0 Si4 2.761309 1_555
Mg0 Si9 2.859530 1_655
Mg0 Si5 2.919987 1_556
Mg0 Si0 2.964708 1_555
Mg0 Si7 2.998141 1_656
Mg0 Si3 2.999523 1_556
Mg0 Mg1 3.025469 1_656
Mg0 Si6 3.057289 1_655
Mg0 Si10 3.142924 1_555
Mg0 Si8 3.179260 1_555
Mg0 Mg4 3.276210 1_655
Mg0 Si12 3.304348 1_655
Mg1 Si2 2.698763 1_555
Mg1 Si11 2.761309 1_555
Mg1 Si5 2.859530 1_455
Mg1 Si9 2.919987 1_554
Mg1 Si15 2.964708 1_555
Mg1 Si10 2.998141 1_454
Mg1 Si6 2.999523 1_554
Mg1 Si3 3.057289 1_455
Mg1 Si7 3.142924 1_555
Mg1 Si1 3.179260 1_555
Mg1 Mg5 3.276210 1_455
Mg1 Si14 3.304348 1_455
Mg2 Si4 2.779115 1_565
Mg2 Si11 2.821216 1_555
Mg2 Si14 2.822064 1_455
Mg2 Si2 2.893852 1_555
Mg2 Si1 2.928584 1_565
Mg2 Si8 3.203480 1_455
Mg3 Si3 2.695586 1_555
Mg3 Si13 2.771438 1_555
Mg3 Si1 2.786259 1_555
Mg3 Si7 2.811388 1_555
Mg3 Si11 2.823020 1_545
Mg3 Si2 2.923142 1_555
Mg3 Si15 3.040425 1_545
Mg4 Si12 2.734299 1_555
Mg4 Si2 2.791188 1_555
Mg4 Si6 2.792219 1_555
Mg4 Si1 2.843660 1_555
Mg4 Si8 2.954077 1_455
Mg4 Si4 2.972056 1_555
Mg4 Si13 3.180666 1_455
Mg5 Si14 2.734299 1_555
Mg5 Si13 2.791188 1_555
Mg5 Si3 2.792219 1_555
Mg5 Si8 2.843660 1_555
Mg5 Si1 2.954077 1_655
Mg5 Si11 2.972056 1_555
Mg5 Si2 3.180666 1_655
Mg6 Si6 2.695586 1_555
Mg6 Si2 2.771438 1_555
Mg6 Si8 2.786259 1_555
Mg6 Si10 2.811388 1_555
Mg6 Si4 2.823020 1_565
Mg6 Si13 2.923142 1_555
Mg6 Si0 3.040425 1_565
Mg7 Si11 2.779115 1_545
Mg7 Si4 2.821216 1_555
Mg7 Si12 2.822064 1_655
Mg7 Si13 2.893852 1_555
Mg7 Si8 2.928584 1_545
Mg7 Si1 3.203480 1_655
Si0 Si4 2.510935 1_555
Si0 Si7 2.515629 1_656
Si0 Si15 2.535338 1_546
Si0 Si3 2.538005 1_556
Si0 Si10 2.599736 1_545
Si0 Si14 2.827528 1_546
Si1 Si7 2.443524 1_555
Si1 Si2 2.651666 1_555
Si1 Si3 2.712282 1_455
Si1 Si14 2.771159 1_445
Si3 Si5 2.429233 1_555
Si3 Si9 2.529378 1_554
Si3 Si7 2.841279 1_655
Si5 Si6 2.529378 1_554
Si6 Si9 2.429233 1_555
Si6 Si8 2.712282 1_455
Si7 Si9 2.503266 1_554
Si10 Si8 2.443524 1_555
Si10 Si5 2.503266 1_556
Si10 Si15 2.515629 1_656
Si10 Si12 2.727952 1_665
Si10 Si7 2.750999 1_666
Si10 Si6 2.841279 1_655
Si11 Si14 2.458688 1_555
Si11 Si15 2.510935 1_555
Si11 Si2 2.641437 1_555
Si12 Si4 2.458688 1_555
Si12 Si9 2.486174 1_555
Si12 Si8 2.771159 1_445
Si12 Si15 2.827528 1_546
Si13 Si2 2.541726 1_555
Si13 Si4 2.641437 1_555
Si13 Si8 2.651666 1_555
Si14 Si5 2.486174 1_555
Si14 Si7 2.727952 1_665
Si15 Si6 2.538005 1_554
Si15 Si7 2.599736 1_565
