# generated using pymatgen
data_CaCr2O4
_symmetry_space_group_name_H-M   'P 1'
_cell_length_a   3.04639500
_cell_length_b   5.15527956
_cell_length_c   10.09651300
_cell_angle_alpha   89.99922223
_cell_angle_beta   90.00014333
_cell_angle_gamma   107.18430228
_symmetry_Int_Tables_number   1
_chemical_formula_structural   CaCr2O4
_chemical_formula_sum   'Ca2 Cr4 O8'
_cell_volume   151.48743061
_cell_formula_units_Z   2
loop_
 _symmetry_equiv_pos_site_id
 _symmetry_equiv_pos_as_xyz
  1  'x, y, z'
loop_
 _atom_site_type_symbol
 _atom_site_label
 _atom_site_symmetry_multiplicity
 _atom_site_fract_x
 _atom_site_fract_y
 _atom_site_fract_z
 _atom_site_occupancy
  Ca  Ca0  1  0.38852600  0.77709300  0.74999900  1
  Ca  Ca1  1  0.61146100  0.22289300  0.24999800  1
  Cr  Cr0  1  0.13427700  0.26857800  0.93135300  1
  Cr  Cr1  1  0.86571100  0.73137100  0.43136000  1
  Cr  Cr2  1  0.86573100  0.73140800  0.06864500  1
  Cr  Cr3  1  0.13434300  0.26873600  0.56867000  1
  O  O0  1  0.94244700  0.88479200  0.25000000  1
  O  O1  1  0.05754000  0.11518700  0.74999300  1
  O  O2  1  0.49999100  0.99997800  0.99998900  1
  O  O3  1  0.49999700  0.00000000  0.50000100  1
  O  O4  1  0.23536000  0.47062800  0.39301600  1
  O  O5  1  0.76463600  0.52938300  0.60699400  1
  O  O6  1  0.76462100  0.52934400  0.89300400  1
  O  O7  1  0.23535900  0.47060900  0.10697800  1
loop_
_geom_bond_atom_site_label_1
_geom_bond_atom_site_label_2
_geom_bond_distance
_geom_bond_site_symmetry_2
Ca0 O1 2.256697 1_665
Ca0 O1 2.256792 1_565
Ca0 O5 2.427534 1_555
Ca0 O6 2.427616 1_555
Ca0 O5 2.427691 1_455
Ca0 O6 2.427764 1_455
Ca0 O2 2.752421 1_555
Ca0 O3 2.752512 1_565
Ca1 O0 2.256715 1_445
Ca1 O0 2.256824 1_545
Ca1 O7 2.427606 1_555
Ca1 O4 2.427681 1_555
Ca1 O7 2.427791 1_655
Ca1 O4 2.427825 1_655
Ca1 O3 2.752530 1_555
Ca1 O2 2.752656 1_544
Cr0 O1 1.980837 1_555
Cr0 O6 2.029581 1_555
Cr0 O6 2.029723 1_455
Cr0 O7 2.033316 1_556
Cr0 O2 2.133150 1_445
Cr0 O2 2.133174 1_545
Cr1 O0 1.980875 1_555
Cr1 O4 2.029547 1_555
Cr1 O4 2.029607 1_655
Cr1 O5 2.033268 1_555
Cr1 O3 2.133233 1_665
Cr1 O3 2.133325 1_565
Cr2 O0 1.980778 1_555
Cr2 O7 2.029679 1_555
Cr2 O7 2.029769 1_655
Cr2 O6 2.033537 1_554
Cr2 O2 2.133100 1_654
Cr2 O2 2.133172 1_554
Cr3 O1 1.980770 1_555
Cr3 O5 2.029187 1_555
Cr3 O5 2.029293 1_455
Cr3 O4 2.033213 1_555
Cr3 O3 2.133666 1_455
Cr3 O3 2.133729 1_555
