# generated using pymatgen
data_Ce2ThS5
_symmetry_space_group_name_H-M   'P 1'
_cell_length_a   7.60128504
_cell_length_b   8.30766738
_cell_length_c   12.10215420
_cell_angle_alpha   90.00000000
_cell_angle_beta   90.00000000
_cell_angle_gamma   90.00000000
_symmetry_Int_Tables_number   1
_chemical_formula_structural   Ce2ThS5
_chemical_formula_sum   'Ce8 Th4 S20'
_cell_volume   764.23830352
_cell_formula_units_Z   4
loop_
 _symmetry_equiv_pos_site_id
 _symmetry_equiv_pos_as_xyz
  1  'x, y, z'
loop_
 _atom_site_type_symbol
 _atom_site_label
 _atom_site_symmetry_multiplicity
 _atom_site_fract_x
 _atom_site_fract_y
 _atom_site_fract_z
 _atom_site_occupancy
  Ce  Ce0  1  0.52139178  0.50000438  0.32281505  1
  Ce  Ce1  1  0.97860822  -0.00000438  0.82281505  1
  Ce  Ce2  1  0.47860822  0.00000438  0.67718495  1
  Ce  Ce3  1  0.02139178  0.49999562  0.17718495  1
  Ce  Ce4  1  0.47860822  0.49999562  0.67718495  1
  Ce  Ce5  1  0.02139178  0.00000438  0.17718495  1
  Ce  Ce6  1  0.52139178  -0.00000438  0.32281505  1
  Ce  Ce7  1  0.97860822  0.50000438  0.82281505  1
  Th  Th0  1  0.07369513  0.75000000  0.49159878  1
  Th  Th1  1  0.42630487  0.75000000  0.99159878  1
  Th  Th2  1  0.92630487  0.25000000  0.50840122  1
  Th  Th3  1  0.57369513  0.25000000  0.00840122  1
  S  S0  1  0.83689081  0.95868189  0.59889486  1
  S  S1  1  0.66310919  0.54131811  0.09889486  1
  S  S2  1  0.16310919  0.45868189  0.40110514  1
  S  S3  1  0.33689081  0.04131811  0.90110514  1
  S  S4  1  0.16310919  0.04131811  0.40110514  1
  S  S5  1  0.33689081  0.45868189  0.90110514  1
  S  S6  1  0.83689081  0.54131811  0.59889486  1
  S  S7  1  0.66310919  0.95868189  0.09889486  1
  S  S8  1  0.83147055  0.75000000  0.31199159  1
  S  S9  1  0.66852945  0.75000000  0.81199159  1
  S  S10  1  0.16852945  0.25000000  0.68800841  1
  S  S11  1  0.33147055  0.25000000  0.18800841  1
  S  S12  1  0.45709033  0.75000000  0.49909654  1
  S  S13  1  0.04290967  0.75000000  0.99909654  1
  S  S14  1  0.54290967  0.25000000  0.50090346  1
  S  S15  1  0.95709033  0.25000000  0.00090346  1
  S  S16  1  0.19634471  0.75000000  0.71686927  1
  S  S17  1  0.30365529  0.75000000  0.21686927  1
  S  S18  1  0.80365529  0.25000000  0.28313073  1
  S  S19  1  0.69634471  0.25000000  0.78313073  1
loop_
_geom_bond_atom_site_label_1
_geom_bond_atom_site_label_2
_geom_bond_distance
_geom_bond_site_symmetry_2
Ce0 S2 2.903880 1_555
Ce0 S1 2.936304 1_555
Ce0 S17 2.949013 1_555
Ce0 S14 2.997600 1_555
Ce0 S11 3.009897 1_555
Ce0 S12 3.017228 1_555
Ce0 S18 3.024540 1_555
Ce0 S8 3.144205 1_555
Ce1 S3 2.903880 1_655
Ce1 S0 2.936304 1_545
Ce1 S16 2.949013 1_645
Ce1 S15 2.997600 1_556
Ce1 S10 3.009897 1_655
Ce1 S13 3.017228 1_645
Ce1 S19 3.024540 1_555
Ce1 S9 3.144205 1_545
Ce2 S0 2.903880 1_545
Ce2 S3 2.936304 1_555
Ce2 S19 2.949013 1_555
Ce2 S12 2.997600 1_545
Ce2 S9 3.009897 1_545
Ce2 S14 3.017228 1_555
Ce2 S16 3.024540 1_545
Ce2 S10 3.144205 1_555
Ce3 S1 2.903880 1_455
Ce3 S2 2.936304 1_555
Ce3 S18 2.949013 1_455
Ce3 S13 2.997600 1_554
Ce3 S8 3.009897 1_455
Ce3 S15 3.017228 1_455
Ce3 S17 3.024540 1_555
Ce3 S11 3.144205 1_555
Ce4 S6 2.903880 1_555
Ce4 S5 2.936304 1_555
Ce4 S19 2.949013 1_555
Ce4 S12 2.997600 1_555
Ce4 S9 3.009897 1_555
Ce4 S14 3.017228 1_555
Ce4 S16 3.024540 1_555
Ce4 S10 3.144205 1_555
Ce5 S7 2.903880 1_445
Ce5 S4 2.936304 1_555
Ce5 S18 2.949013 1_455
Ce5 S13 2.997600 1_544
Ce5 S8 3.009897 1_445
Ce5 S15 3.017228 1_455
Ce5 S17 3.024540 1_545
Ce5 S11 3.144205 1_555
Ce6 S4 2.903880 1_555
Ce6 S7 2.936304 1_545
Ce6 S17 2.949013 1_545
Ce6 S14 2.997600 1_555
Ce6 S11 3.009897 1_555
Ce6 S12 3.017228 1_545
Ce6 S18 3.024540 1_555
Ce6 S8 3.144205 1_545
Ce7 S5 2.903880 1_655
Ce7 S6 2.936304 1_555
Ce7 S16 2.949013 1_655
Ce7 S15 2.997600 1_556
Ce7 S10 3.009897 1_655
Ce7 S13 3.017228 1_655
Ce7 S19 3.024540 1_555
Ce7 S9 3.144205 1_555
S0 Th2 2.742002 1_565
S0 Th0 2.816341 1_655
S1 Th3 2.742002 1_555
S1 Th1 2.816341 1_554
S2 Th0 2.742002 1_555
S2 Th2 2.816341 1_455
S3 Th1 2.742002 1_545
S3 Th3 2.816341 1_556
S4 Th0 2.742002 1_545
S4 Th2 2.816341 1_455
S5 Th1 2.742002 1_555
S5 Th3 2.816341 1_556
S6 Th2 2.742002 1_555
S6 Th0 2.816341 1_655
S7 Th3 2.742002 1_565
S7 Th1 2.816341 1_554
S8 Th0 2.848643 1_655
S9 Th1 2.848643 1_555
S10 Th2 2.848643 1_455
S11 Th3 2.848643 1_555
S12 Th0 2.915708 1_555
S13 Th1 2.915708 1_555
S14 Th2 2.915708 1_555
S15 Th3 2.915708 1_555
S16 Th0 2.881260 1_555
S17 Th1 2.881260 1_554
S18 Th2 2.881260 1_555
S19 Th3 2.881260 1_556
