# generated using pymatgen
data_HoGaPt
_symmetry_space_group_name_H-M   'P 1'
_cell_length_a   4.39872667
_cell_length_b   6.88349816
_cell_length_c   7.58320655
_cell_angle_alpha   89.99996746
_cell_angle_beta   90.00000000
_cell_angle_gamma   90.00000000
_symmetry_Int_Tables_number   1
_chemical_formula_structural   HoGaPt
_chemical_formula_sum   'Ho4 Ga4 Pt4'
_cell_volume   229.60908213
_cell_formula_units_Z   4
loop_
 _symmetry_equiv_pos_site_id
 _symmetry_equiv_pos_as_xyz
  1  'x, y, z'
loop_
 _atom_site_type_symbol
 _atom_site_label
 _atom_site_symmetry_multiplicity
 _atom_site_fract_x
 _atom_site_fract_y
 _atom_site_fract_z
 _atom_site_occupancy
  Ho  Ho0  1  0.25000000  0.01237130  0.79970659  1
  Ho  Ho1  1  0.25000000  0.51237130  0.70029341  1
  Ho  Ho2  1  0.75000000  0.98762870  0.20029341  1
  Ho  Ho3  1  0.75000000  0.48762970  0.29970659  1
  Ga  Ga0  1  0.25000000  0.17511921  0.42205319  1
  Ga  Ga1  1  0.25000000  0.67511921  0.07794781  1
  Ga  Ga2  1  0.75000000  0.82488079  0.57794681  1
  Ga  Ga3  1  0.75000000  0.32488079  0.92205219  1
  Pt  Pt0  1  0.25000000  0.77753628  0.40587767  1
  Pt  Pt1  1  0.25000000  0.27753728  0.09412133  1
  Pt  Pt2  1  0.75000000  0.22246372  0.59412233  1
  Pt  Pt3  1  0.75000000  0.72246272  0.90587767  1
loop_
_geom_bond_atom_site_label_1
_geom_bond_atom_site_label_2
_geom_bond_distance
_geom_bond_site_symmetry_2
Ho0 Pt1 2.883774 1_556
Ho0 Pt2 3.059256 1_555
Ho0 Pt2 3.059256 1_455
Ho0 Pt3 3.076974 1_445
Ho0 Pt3 3.076974 1_545
Ho0 Pt0 3.395899 1_545
Ho1 Pt0 2.883774 1_555
Ho1 Pt3 3.059254 1_455
Ho1 Pt3 3.059254 1_555
Ho1 Pt2 3.076970 1_555
Ho1 Pt2 3.076970 1_455
Ho1 Pt1 3.395888 1_556
Ho2 Pt3 2.883780 1_554
Ho2 Pt0 3.059256 1_555
Ho2 Pt0 3.059256 1_655
Ho2 Pt1 3.076976 1_565
Ho2 Pt1 3.076976 1_665
Ho2 Pt2 3.395899 1_565
Ho3 Pt2 2.883778 1_555
Ho3 Pt1 3.059261 1_555
Ho3 Pt1 3.059261 1_655
Ho3 Pt0 3.076966 1_555
Ho3 Pt0 3.076966 1_655
Ho3 Pt3 3.395891 1_554
Ga0 Pt2 2.577985 1_555
Ga0 Pt2 2.577985 1_455
Ga0 Pt1 2.584776 1_555
Ga0 Pt0 2.739509 1_545
Ga0 Ho2 3.054631 1_545
Ga0 Ho2 3.054631 1_445
Ga0 Ho0 3.075142 1_555
Ga0 Ho1 3.137061 1_555
Ga0 Ho3 3.213329 1_455
Ga0 Ho3 3.213329 1_555
Ga1 Pt3 2.577987 1_454
Ga1 Pt3 2.577987 1_554
Ga1 Pt0 2.584760 1_555
Ga1 Pt1 2.739501 1_555
Ga1 Ho3 3.054624 1_555
Ga1 Ho3 3.054624 1_455
Ga1 Ho1 3.075150 1_554
Ga1 Ho0 3.137064 1_564
Ga1 Ho2 3.213323 1_455
Ga1 Ho2 3.213323 1_555
Ga2 Pt0 2.577985 1_555
Ga2 Pt0 2.577985 1_655
Ga2 Pt3 2.584768 1_555
Ga2 Pt2 2.739509 1_565
Ga2 Ho0 3.054631 1_665
Ga2 Ho0 3.054631 1_565
Ga2 Ho2 3.075142 1_555
Ga2 Ho3 3.137056 1_555
Ga2 Ho1 3.213325 1_655
Ga2 Ho1 3.213325 1_555
Ga3 Pt1 2.577983 1_656
Ga3 Pt1 2.577983 1_556
Ga3 Pt2 2.584760 1_555
Ga3 Pt3 2.739502 1_555
Ga3 Ho1 3.054626 1_655
Ga3 Ho1 3.054626 1_555
Ga3 Ho3 3.075153 1_556
Ga3 Ho2 3.137064 1_546
Ga3 Ho0 3.213323 1_555
Ga3 Ho0 3.213323 1_655
