# generated using pymatgen
data_Na4Ga8Ge15
_symmetry_space_group_name_H-M   'P 1'
_cell_length_a   10.85739660
_cell_length_b   10.85739660
_cell_length_c   10.85739660
_cell_angle_alpha   90.00000000
_cell_angle_beta   90.00000000
_cell_angle_gamma   90.00000000
_symmetry_Int_Tables_number   1
_chemical_formula_structural   Na4Ga8Ge15
_chemical_formula_sum   'Na8 Ga16 Ge30'
_cell_volume   1279.90314494
_cell_formula_units_Z   2
loop_
 _symmetry_equiv_pos_site_id
 _symmetry_equiv_pos_as_xyz
  1  'x, y, z'
loop_
 _atom_site_type_symbol
 _atom_site_label
 _atom_site_symmetry_multiplicity
 _atom_site_fract_x
 _atom_site_fract_y
 _atom_site_fract_z
 _atom_site_occupancy
  Na  Na0  1  0.50000000  0.50000000  0.50000000  1
  Na  Na1  1  0.00000000  0.00000000  -0.00000000  1
  Na  Na2  1  0.50000000  0.00000000  0.75000000  1
  Na  Na3  1  0.00000000  0.25000000  0.50000000  1
  Na  Na4  1  0.75000000  0.50000000  -0.00000000  1
  Na  Na5  1  0.50000000  0.00000000  0.25000000  1
  Na  Na6  1  0.00000000  0.75000000  0.50000000  1
  Na  Na7  1  0.25000000  0.50000000  -0.00000000  1
  Ga  Ga0  1  0.68218528  0.31781472  0.68218528  1
  Ga  Ga1  1  0.31781472  0.68218528  0.31781472  1
  Ga  Ga2  1  0.68218528  0.68218528  0.31781472  1
  Ga  Ga3  1  0.31781472  0.31781472  0.68218528  1
  Ga  Ga4  1  0.31781472  0.68218528  0.68218528  1
  Ga  Ga5  1  0.68218528  0.31781472  0.31781472  1
  Ga  Ga6  1  0.31781472  0.31781472  0.31781472  1
  Ga  Ga7  1  0.68218528  0.68218528  0.68218528  1
  Ga  Ga8  1  0.18218528  0.18218528  0.81781472  1
  Ga  Ga9  1  0.81781472  0.81781472  0.18218528  1
  Ga  Ga10  1  0.18218528  0.81781472  0.18218528  1
  Ga  Ga11  1  0.81781472  0.18218528  0.81781472  1
  Ga  Ga12  1  0.81781472  0.18218528  0.18218528  1
  Ga  Ga13  1  0.18218528  0.81781472  0.81781472  1
  Ga  Ga14  1  0.81781472  0.81781472  0.81781472  1
  Ga  Ga15  1  0.18218528  0.18218528  0.18218528  1
  Ge  Ge0  1  0.00000000  0.50000000  0.75000000  1
  Ge  Ge1  1  0.50000000  0.25000000  -0.00000000  1
  Ge  Ge2  1  0.75000000  0.00000000  0.50000000  1
  Ge  Ge3  1  0.00000000  0.50000000  0.25000000  1
  Ge  Ge4  1  0.50000000  0.75000000  -0.00000000  1
  Ge  Ge5  1  0.25000000  0.00000000  0.50000000  1
  Ge  Ge6  1  0.61526883  0.18859421  0.50000000  1
  Ge  Ge7  1  0.81140579  0.50000000  0.61526883  1
  Ge  Ge8  1  0.50000000  0.38473117  0.81140579  1
  Ge  Ge9  1  0.38473117  0.81140579  0.50000000  1
  Ge  Ge10  1  0.18859421  0.50000000  0.38473117  1
  Ge  Ge11  1  0.50000000  0.61526883  0.18859421  1
  Ge  Ge12  1  0.61526883  0.81140579  0.50000000  1
  Ge  Ge13  1  0.81140579  0.50000000  0.38473117  1
  Ge  Ge14  1  0.38473117  0.18859421  0.50000000  1
  Ge  Ge15  1  0.18859421  0.50000000  0.61526883  1
  Ge  Ge16  1  0.50000000  0.61526883  0.81140579  1
  Ge  Ge17  1  0.50000000  0.38473117  0.18859421  1
  Ge  Ge18  1  0.11526883  0.00000000  0.68859421  1
  Ge  Ge19  1  0.31140579  0.11526883  -0.00000000  1
  Ge  Ge20  1  -0.00000000  0.31140579  0.88473117  1
  Ge  Ge21  1  0.88473117  0.00000000  0.31140579  1
  Ge  Ge22  1  0.68859421  0.88473117  -0.00000000  1
  Ge  Ge23  1  0.00000000  0.68859421  0.11526883  1
  Ge  Ge24  1  0.11526883  0.00000000  0.31140579  1
  Ge  Ge25  1  0.31140579  0.88473117  -0.00000000  1
  Ge  Ge26  1  0.88473117  0.00000000  0.68859421  1
  Ge  Ge27  1  0.68859421  0.11526883  -0.00000000  1
  Ge  Ge28  1  0.00000000  0.31140579  0.11526883  1
  Ge  Ge29  1  -0.00000000  0.68859421  0.88473117  1
loop_
_geom_bond_atom_site_label_1
_geom_bond_atom_site_label_2
_geom_bond_distance
_geom_bond_site_symmetry_2
Ga0 Ge7 2.531595 1_555
Ga0 Ge8 2.531595 1_555
Ga0 Ge6 2.531595 1_555
Ga0 Ga11 2.550588 1_555
Ga0 Na0 3.426097 1_555
Ga1 Ge11 2.531595 1_555
Ga1 Ge10 2.531595 1_555
Ga1 Ge9 2.531595 1_555
Ga1 Ga10 2.550588 1_555
Ga1 Na0 3.426097 1_555
Ga2 Ge11 2.531595 1_555
Ga2 Ge12 2.531595 1_555
Ga2 Ge13 2.531595 1_555
Ga2 Ga9 2.550588 1_555
Ga2 Na0 3.426097 1_555
Ga3 Ge8 2.531595 1_555
Ga3 Ge14 2.531595 1_555
Ga3 Ge15 2.531595 1_555
Ga3 Ga8 2.550588 1_555
Ga3 Na0 3.426097 1_555
Ga4 Ge16 2.531595 1_555
Ga4 Ge15 2.531595 1_555
Ga4 Ge9 2.531595 1_555
Ga4 Na0 3.426097 1_555
Ga5 Ge17 2.531595 1_555
Ga5 Ge6 2.531595 1_555
Ga5 Ge13 2.531595 1_555
Ga5 Na0 3.426097 1_555
Ga6 Ge17 2.531595 1_555
Ga6 Ge14 2.531595 1_555
Ga6 Ge10 2.531595 1_555
Ga6 Na0 3.426097 1_555
Ga7 Ge7 2.531595 1_555
Ga7 Ge16 2.531595 1_555
Ga7 Ge12 2.531595 1_555
Ga7 Na0 3.426097 1_555
Ga8 Ge20 2.531595 1_555
Ga8 Ge18 2.531595 1_555
Ga8 Ge19 2.531595 1_556
Ga8 Na1 3.426097 1_556
Ga9 Ge23 2.531595 1_655
Ga9 Ge21 2.531595 1_565
Ga9 Ge22 2.531595 1_555
Ga9 Na1 3.426097 1_665
Ga10 Ge23 2.531595 1_555
Ga10 Ge24 2.531595 1_565
Ga10 Ge25 2.531595 1_555
Ga10 Na1 3.426097 1_565
Ga11 Ge26 2.531595 1_555
Ga11 Ge20 2.531595 1_655
Ga11 Ge27 2.531595 1_556
Ga11 Na1 3.426097 1_656
Ga12 Ge28 2.531595 1_655
Ga12 Ge27 2.531595 1_555
Ga12 Ge21 2.531595 1_555
Ga12 Ga5 2.550588 1_555
Ga12 Na1 3.426097 1_655
Ga13 Ge29 2.531595 1_555
Ga13 Ge18 2.531595 1_565
Ga13 Ge25 2.531595 1_556
Ga13 Ga4 2.550588 1_555
Ga13 Na1 3.426097 1_566
Ga14 Ge26 2.531595 1_565
Ga14 Ge29 2.531595 1_655
Ga14 Ge22 2.531595 1_556
Ga14 Ga7 2.550588 1_555
Ga14 Na1 3.426097 1_666
Ga15 Ge19 2.531595 1_555
Ga15 Ge24 2.531595 1_555
Ga15 Ge28 2.531595 1_555
Ga15 Ga6 2.550588 1_555
Ga15 Na1 3.426097 1_555
Ge0 Ge20 2.516487 1_555
Ge0 Ge7 2.516487 1_455
Ge0 Ge29 2.516487 1_555
Ge0 Ge15 2.516487 1_555
Ge1 Ge27 2.516487 1_555
Ge1 Ge19 2.516487 1_555
Ge1 Ge8 2.516487 1_554
Ge1 Ge17 2.516487 1_555
Ge2 Ge6 2.516487 1_555
Ge2 Ge26 2.516487 1_555
Ge2 Ge21 2.516487 1_555
Ge5 Ge9 2.516487 1_545
Ge6 Na5 3.623097 1_555
Ge6 Na2 3.623097 1_555
Ge7 Na6 3.623097 1_655
Ge7 Na3 3.623097 1_655
Ge8 Na7 3.623097 1_556
Ge8 Na4 3.623097 1_556
Ge9 Na2 3.623097 1_565
Ge9 Na5 3.623097 1_565
Ge10 Ge15 2.503039 1_555
Ge10 Ge3 2.516487 1_555
Ge10 Na3 3.623097 1_555
Ge10 Na6 3.623097 1_555
Ge11 Ge17 2.503039 1_555
Ge11 Ge4 2.516487 1_555
Ge11 Na4 3.623097 1_555
Ge11 Na7 3.623097 1_555
Ge12 Ge9 2.503039 1_555
Ge12 Ge2 2.516487 1_565
Ge12 Na2 3.623097 1_565
Ge12 Na5 3.623097 1_565
Ge13 Ge7 2.503039 1_555
Ge13 Ge3 2.516487 1_655
Ge13 Na6 3.623097 1_655
Ge13 Na3 3.623097 1_655
Ge14 Ge6 2.503039 1_555
Ge14 Ge5 2.516487 1_555
Ge14 Na2 3.623097 1_555
Ge14 Na5 3.623097 1_555
Ge15 Na3 3.623097 1_555
Ge15 Na6 3.623097 1_555
Ge16 Ge8 2.503039 1_555
Ge16 Ge4 2.516487 1_556
Ge16 Na7 3.623097 1_556
Ge16 Na4 3.623097 1_556
Ge17 Na4 3.623097 1_555
Ge17 Na7 3.623097 1_555
Ge18 Ge26 2.503039 1_455
Ge18 Ge5 2.516487 1_555
Ge18 Na3 3.623097 1_555
Ge18 Na6 3.623097 1_545
Ge19 Ge25 2.503039 1_545
Ge19 Na5 3.623097 1_555
Ge19 Na2 3.623097 1_554
Ge20 Ge28 2.503039 1_556
Ge20 Na7 3.623097 1_556
Ge20 Na4 3.623097 1_456
Ge21 Ge24 2.503039 1_655
Ge21 Na3 3.623097 1_655
Ge21 Na6 3.623097 1_645
Ge22 Ge27 2.503039 1_565
Ge22 Ge4 2.516487 1_555
Ge22 Na2 3.623097 1_564
Ge22 Na5 3.623097 1_565
Ge23 Ge29 2.503039 1_554
Ge23 Ge3 2.516487 1_555
Ge23 Na4 3.623097 1_455
Ge23 Na7 3.623097 1_555
Ge24 Ge5 2.516487 1_555
Ge24 Na3 3.623097 1_555
Ge24 Na6 3.623097 1_545
Ge25 Ge4 2.516487 1_555
Ge25 Na2 3.623097 1_564
Ge25 Na5 3.623097 1_565
Ge26 Na3 3.623097 1_655
Ge26 Na6 3.623097 1_645
Ge27 Na5 3.623097 1_555
Ge27 Na2 3.623097 1_554
Ge28 Ge3 2.516487 1_555
Ge28 Na4 3.623097 1_455
Ge28 Na7 3.623097 1_555
Ge29 Na7 3.623097 1_556
Ge29 Na4 3.623097 1_456
