# generated using pymatgen
data_K2GaP2H3(O4F)2
_symmetry_space_group_name_H-M   'P 1'
_cell_length_a   8.39329100
_cell_length_b   4.79619100
_cell_length_c   11.00850263
_cell_angle_alpha   86.44144559
_cell_angle_beta   90.00000000
_cell_angle_gamma   90.00000000
_symmetry_Int_Tables_number   1
_chemical_formula_structural   K2GaP2H3(O4F)2
_chemical_formula_sum   'K4 Ga2 P4 H6 O16 F4'
_cell_volume   442.30191942
_cell_formula_units_Z   2
loop_
 _symmetry_equiv_pos_site_id
 _symmetry_equiv_pos_as_xyz
  1  'x, y, z'
loop_
 _atom_site_type_symbol
 _atom_site_label
 _atom_site_symmetry_multiplicity
 _atom_site_fract_x
 _atom_site_fract_y
 _atom_site_fract_z
 _atom_site_occupancy
  K  K0  1  0.59856500  0.49092000  0.57939100  1
  K  K1  1  0.09856500  0.50908000  0.42060900  1
  K  K2  1  0.39838600  0.50135200  0.91571200  1
  K  K3  1  0.89838600  0.49864800  0.08428800  1
  Ga  Ga0  1  0.00365900  0.49927800  0.74979000  1
  Ga  Ga1  1  0.50365900  0.50072200  0.25021000  1
  P  P0  1  0.76751400  0.98466900  0.83585200  1
  P  P1  1  0.26751400  0.01533100  0.16414800  1
  P  P2  1  0.24236400  0.01425100  0.66709600  1
  P  P3  1  0.74236400  0.98574900  0.33290400  1
  H  H0  1  0.66025900  0.95242200  0.02293300  1
  H  H1  1  0.16025900  0.04757800  0.97706700  1
  H  H2  1  0.34062800  0.04361500  0.47825500  1
  H  H3  1  0.84062800  0.95638500  0.52174500  1
  H  H4  1  0.51621100  0.97856300  0.75320000  1
  H  H5  1  0.01621100  0.02143700  0.24680000  1
  O  O0  1  0.81340800  0.24651800  0.75837100  1
  O  O1  1  0.31340800  0.75348200  0.24162900  1
  O  O2  1  0.19120600  0.75112800  0.74379700  1
  O  O3  1  0.69120600  0.24887200  0.25620300  1
  O  O4  1  0.71209900  0.09450700  0.96418600  1
  O  O5  1  0.21209900  0.90549300  0.03581400  1
  O  O6  1  0.28728500  0.90275500  0.53608100  1
  O  O7  1  0.78728500  0.09724500  0.46391900  1
  O  O8  1  0.89585300  0.76263000  0.85908200  1
  O  O9  1  0.39585300  0.23737000  0.14091800  1
  O  O10  1  0.11216300  0.23634000  0.64485500  1
  O  O11  1  0.61216300  0.76366000  0.35514500  1
  O  O12  1  0.61874900  0.84167100  0.77929600  1
  O  O13  1  0.11874900  0.15832900  0.22070400  1
  O  O14  1  0.39393800  0.14046900  0.72094500  1
  O  O15  1  0.89393800  0.85953100  0.27905500  1
  F  F0  1  0.90792200  0.67944900  0.60434900  1
  F  F1  1  0.40792200  0.32055100  0.39565100  1
  F  F2  1  0.09079200  0.31559400  0.89854200  1
  F  F3  1  0.59079200  0.68440600  0.10145800  1
loop_
_geom_bond_atom_site_label_1
_geom_bond_atom_site_label_2
_geom_bond_distance
_geom_bond_site_symmetry_2
K0 O11 2.723485 1_555
K0 O14 2.806799 1_555
K0 O7 2.826288 1_555
K0 O12 2.856777 1_555
K0 O0 2.867247 1_555
K1 O10 2.723485 1_555
K1 O15 2.806799 1_455
K1 O6 2.826288 1_555
K1 O13 2.856777 1_555
K1 O1 2.867247 1_555
K2 O9 2.712962 1_556
K2 O2 2.785535 1_555
K2 O12 2.834789 1_555
K2 O14 2.838152 1_555
K2 O5 2.875425 1_556
K3 O8 2.712962 1_554
K3 O3 2.785535 1_555
K3 O13 2.834789 1_655
K3 O15 2.838152 1_555
K3 O4 2.875425 1_554
Ga0 O2 1.982785 1_555
Ga0 O10 1.983693 1_555
Ga0 O0 2.003551 1_455
Ga0 O8 2.012544 1_455
Ga1 O3 1.982785 1_555
Ga1 O11 1.983693 1_555
Ga1 O1 2.003551 1_555
Ga1 O9 2.012544 1_555
H0 O4 1.008588 1_564
H1 O5 1.008588 1_546
H2 O6 1.004352 1_545
H3 O7 1.004352 1_565
H4 O12 1.109447 1_555
H4 O14 1.322154 1_565
H5 O13 1.109447 1_555
H5 O15 1.322154 1_445
O0 P0 1.523206 1_545
O1 P1 1.523206 1_565
O2 P2 1.535466 1_565
O3 P3 1.535466 1_545
O4 P0 1.606906 1_545
O5 P1 1.606906 1_565
O6 P2 1.613701 1_565
O7 P3 1.613701 1_545
O8 P0 1.525130 1_555
O9 P1 1.525130 1_555
O10 P2 1.535066 1_555
O11 P3 1.535066 1_555
O12 P0 1.571652 1_555
O13 P1 1.571652 1_555
O14 P2 1.543026 1_555
O15 P3 1.543026 1_555
F0 H3 1.661388 1_555
F0 Ga0 1.945289 1_655
F0 K1 2.743096 1_655
F0 K0 2.768732 1_555
F1 H2 1.661388 1_555
F1 Ga1 1.945289 1_555
F1 K0 2.743096 1_555
F1 K1 2.768732 1_555
F2 H1 1.612970 1_555
F2 Ga0 1.952798 1_555
F2 K2 2.741477 1_555
F2 K3 2.789764 1_456
F3 H0 1.612970 1_555
F3 Ga1 1.952798 1_555
F3 K3 2.741477 1_555
F3 K2 2.789764 1_554
