# generated using pymatgen
data_MoPd2Rh
_symmetry_space_group_name_H-M   'P 1'
_cell_length_a   18.45527399
_cell_length_b   18.45527399
_cell_length_c   18.45527453
_cell_angle_alpha   17.32387310
_cell_angle_beta   17.32387310
_cell_angle_gamma   17.32387374
_symmetry_Int_Tables_number   1
_chemical_formula_structural   MoPd2Rh
_chemical_formula_sum   'Mo8 Pd16 Rh8'
_cell_volume   486.35946870
_cell_formula_units_Z   8
loop_
 _symmetry_equiv_pos_site_id
 _symmetry_equiv_pos_as_xyz
  1  'x, y, z'
loop_
 _atom_site_type_symbol
 _atom_site_label
 _atom_site_symmetry_multiplicity
 _atom_site_fract_x
 _atom_site_fract_y
 _atom_site_fract_z
 _atom_site_occupancy
  Mo  Mo0_0  1  0.49909600  0.49909600  0.49909600  1
  Mo  Mo0_1  1  0.49909600  0.49909600  0.99909600  1
  Mo  Mo0_2  1  0.49909600  0.99909600  0.49909600  1
  Mo  Mo0_3  1  0.49909600  0.99909600  0.99909600  1
  Mo  Mo0_4  1  0.99909600  0.49909600  0.49909600  1
  Mo  Mo0_5  1  0.99909600  0.49909600  0.99909600  1
  Mo  Mo0_6  1  0.99909600  0.99909600  0.49909600  1
  Mo  Mo0_7  1  0.99909600  0.99909600  0.99909600  1
  Pd  Pd0_0  1  0.25032750  0.25032750  0.25032750  1
  Pd  Pd0_1  1  0.25032750  0.25032750  0.75032750  1
  Pd  Pd0_2  1  0.25032750  0.75032750  0.25032750  1
  Pd  Pd0_3  1  0.25032750  0.75032750  0.75032750  1
  Pd  Pd0_4  1  0.75032750  0.25032750  0.25032750  1
  Pd  Pd0_5  1  0.75032750  0.25032750  0.75032750  1
  Pd  Pd0_6  1  0.75032750  0.75032750  0.25032750  1
  Pd  Pd0_7  1  0.75032750  0.75032750  0.75032750  1
  Pd  Pd1_0  1  0.37401300  0.37401300  0.37401300  1
  Pd  Pd1_1  1  0.37401300  0.37401300  0.87401300  1
  Pd  Pd1_2  1  0.37401300  0.87401300  0.37401300  1
  Pd  Pd1_3  1  0.37401300  0.87401300  0.87401300  1
  Pd  Pd1_4  1  0.87401300  0.37401300  0.37401300  1
  Pd  Pd1_5  1  0.87401300  0.37401300  0.87401300  1
  Pd  Pd1_6  1  0.87401300  0.87401300  0.37401300  1
  Pd  Pd1_7  1  0.87401300  0.87401300  0.87401300  1
  Rh  Rh0_0  1  0.12656300  0.12656300  0.12656300  1
  Rh  Rh0_1  1  0.12656300  0.12656300  0.62656300  1
  Rh  Rh0_2  1  0.12656300  0.62656300  0.12656300  1
  Rh  Rh0_3  1  0.12656300  0.62656300  0.62656300  1
  Rh  Rh0_4  1  0.62656300  0.12656300  0.12656300  1
  Rh  Rh0_5  1  0.62656300  0.12656300  0.62656300  1
  Rh  Rh0_6  1  0.62656300  0.62656300  0.12656300  1
  Rh  Rh0_7  1  0.62656300  0.62656300  0.62656300  1
loop_
_geom_bond_atom_site_label_1
_geom_bond_atom_site_label_2
_geom_bond_distance
_geom_bond_site_symmetry_2
Mo0_0 Rh0_5 2.672628 1_555
Mo0_0 Rh0_3 2.672628 1_555
Mo0_0 Rh0_6 2.672629 1_555
Mo0_0 Pd1_4 2.777668 1_555
Mo0_0 Pd1_2 2.777668 1_555
Mo0_0 Pd1_1 2.777669 1_555
Mo0_0 Mo0_5 2.779440 1_554
Mo0_0 Mo0_3 2.779440 1_554
Mo0_0 Mo0_5 2.779440 1_455
Mo0_0 Mo0_3 2.779440 1_545
Mo0_0 Mo0_6 2.779440 1_455
Mo0_0 Mo0_6 2.779440 1_545
Mo0_1 Rh0_2 2.672628 1_556
Mo0_1 Rh0_4 2.672628 1_556
Mo0_1 Rh0_7 2.672629 1_555
Mo0_1 Pd1_5 2.777668 1_555
Mo0_1 Pd1_3 2.777668 1_555
Mo0_1 Pd1_0 2.777669 1_556
Mo0_1 Mo0_4 2.779440 1_555
Mo0_1 Mo0_2 2.779440 1_546
Mo0_1 Mo0_2 2.779440 1_555
Mo0_1 Mo0_4 2.779440 1_456
Mo0_1 Mo0_7 2.779440 1_455
Mo0_1 Mo0_7 2.779440 1_545
Mo0_2 Rh0_1 2.672628 1_565
Mo0_2 Rh0_7 2.672628 1_555
Mo0_2 Rh0_4 2.672629 1_565
Mo0_2 Pd1_6 2.777668 1_555
Mo0_2 Pd1_0 2.777668 1_565
Mo0_2 Pd1_3 2.777669 1_555
Mo0_2 Mo0_7 2.779440 1_554
Mo0_2 Mo0_7 2.779440 1_455
Mo0_2 Mo0_4 2.779440 1_465
Mo0_2 Mo0_4 2.779440 1_555
Mo0_3 Rh0_0 2.672628 1_566
Mo0_3 Rh0_6 2.672628 1_556
Mo0_3 Rh0_5 2.672629 1_565
Mo0_3 Pd1_1 2.777668 1_565
Mo0_3 Pd1_7 2.777668 1_555
Mo0_3 Pd1_2 2.777669 1_556
Mo0_3 Mo0_6 2.779440 1_555
Mo0_3 Mo0_6 2.779440 1_456
Mo0_3 Mo0_5 2.779440 1_555
Mo0_3 Mo0_5 2.779440 1_465
Mo0_4 Rh0_7 2.672628 1_555
Mo0_4 Rh0_1 2.672628 1_655
Mo0_4 Rh0_2 2.672629 1_655
Mo0_4 Pd1_6 2.777668 1_555
Mo0_4 Pd1_0 2.777668 1_655
Mo0_4 Pd1_5 2.777669 1_555
Mo0_4 Mo0_7 2.779440 1_554
Mo0_4 Mo0_7 2.779440 1_545
Mo0_5 Rh0_0 2.672628 1_656
Mo0_5 Rh0_6 2.672628 1_556
Mo0_5 Rh0_3 2.672629 1_655
Mo0_5 Pd1_1 2.777668 1_655
Mo0_5 Pd1_7 2.777668 1_555
Mo0_5 Pd1_4 2.777669 1_556
Mo0_5 Mo0_6 2.779440 1_555
Mo0_5 Mo0_6 2.779440 1_546
Mo0_6 Rh0_5 2.672628 1_565
Mo0_6 Rh0_3 2.672628 1_655
Mo0_6 Rh0_0 2.672629 1_665
Mo0_6 Pd1_2 2.777668 1_655
Mo0_6 Pd1_4 2.777668 1_565
Mo0_6 Pd1_7 2.777669 1_555
Mo0_7 Rh0_4 2.672628 1_566
Mo0_7 Rh0_2 2.672628 1_656
Mo0_7 Rh0_1 2.672629 1_665
Mo0_7 Pd1_5 2.777668 1_565
Mo0_7 Pd1_3 2.777668 1_655
Mo0_7 Pd1_6 2.777669 1_556
Pd0_0 Pd0_5 2.779440 1_455
Pd0_0 Pd0_3 2.779440 1_545
Pd0_0 Pd0_5 2.779440 1_554
Pd0_0 Pd0_3 2.779440 1_554
Pd0_0 Pd0_6 2.779440 1_455
Pd0_0 Pd0_6 2.779440 1_545
Pd0_0 Rh0_4 2.836650 1_555
Pd0_0 Rh0_2 2.836650 1_555
Pd0_0 Rh0_1 2.836650 1_555
Pd0_0 Pd1_2 2.840202 1_545
Pd0_0 Pd1_4 2.840202 1_455
Pd0_0 Pd1_1 2.840203 1_554
Pd0_1 Pd0_2 2.779440 1_555
Pd0_1 Pd0_4 2.779440 1_555
Pd0_1 Pd0_2 2.779440 1_546
Pd0_1 Pd0_4 2.779440 1_456
Pd0_1 Pd0_7 2.779440 1_455
Pd0_1 Pd0_7 2.779440 1_545
Pd0_1 Rh0_3 2.836650 1_555
Pd0_1 Rh0_5 2.836650 1_555
Pd0_1 Rh0_0 2.836650 1_556
Pd0_1 Pd1_5 2.840202 1_455
Pd0_1 Pd1_3 2.840202 1_545
Pd0_1 Pd1_0 2.840203 1_555
Pd0_2 Pd0_7 2.779440 1_455
Pd0_2 Pd0_7 2.779440 1_554
Pd0_2 Pd0_4 2.779440 1_555
Pd0_2 Pd0_4 2.779440 1_465
Pd0_2 Rh0_6 2.836650 1_555
Pd0_2 Rh0_0 2.836650 1_565
Pd0_2 Rh0_3 2.836650 1_555
Pd0_2 Pd1_0 2.840202 1_555
Pd0_2 Pd1_6 2.840202 1_455
Pd0_2 Pd1_3 2.840203 1_554
Pd0_3 Pd0_6 2.779440 1_555
Pd0_3 Pd0_6 2.779440 1_456
Pd0_3 Pd0_5 2.779440 1_465
Pd0_3 Pd0_5 2.779440 1_555
Pd0_3 Rh0_7 2.836650 1_555
Pd0_3 Rh0_1 2.836650 1_565
Pd0_3 Rh0_2 2.836650 1_556
Pd0_3 Pd1_7 2.840202 1_455
Pd0_3 Pd1_1 2.840202 1_555
Pd0_3 Pd1_2 2.840203 1_555
Pd0_4 Pd0_7 2.779440 1_545
Pd0_4 Pd0_7 2.779440 1_554
Pd0_4 Rh0_6 2.836650 1_555
Pd0_4 Rh0_0 2.836650 1_655
Pd0_4 Rh0_5 2.836650 1_555
Pd0_4 Pd1_0 2.840202 1_555
Pd0_4 Pd1_6 2.840202 1_545
Pd0_4 Pd1_5 2.840203 1_554
Pd0_5 Pd0_6 2.779440 1_555
Pd0_5 Pd0_6 2.779440 1_546
Pd0_5 Rh0_1 2.836650 1_655
Pd0_5 Rh0_7 2.836650 1_555
Pd0_5 Rh0_4 2.836650 1_556
Pd0_5 Pd1_7 2.840202 1_545
Pd0_5 Pd1_1 2.840202 1_555
Pd0_5 Pd1_4 2.840203 1_555
Pd0_6 Rh0_4 2.836650 1_565
Pd0_6 Rh0_2 2.836650 1_655
Pd0_6 Rh0_7 2.836650 1_555
Pd0_6 Pd1_4 2.840202 1_555
Pd0_6 Pd1_2 2.840202 1_555
Pd0_6 Pd1_7 2.840203 1_554
Pd0_7 Rh0_5 2.836650 1_565
Pd0_7 Rh0_3 2.836650 1_655
Pd0_7 Rh0_6 2.836650 1_556
Pd0_7 Pd1_5 2.840202 1_555
Pd0_7 Pd1_3 2.840202 1_555
Pd0_7 Pd1_6 2.840203 1_555
Pd1_0 Pd1_5 2.779440 1_455
Pd1_0 Pd1_3 2.779440 1_545
Pd1_0 Pd1_5 2.779440 1_554
Pd1_0 Pd1_3 2.779440 1_554
Pd1_0 Pd1_6 2.779440 1_545
Pd1_0 Pd1_6 2.779440 1_455
Pd1_1 Pd1_2 2.779440 1_546
Pd1_1 Pd1_4 2.779440 1_456
Pd1_1 Pd1_4 2.779440 1_555
Pd1_1 Pd1_2 2.779440 1_555
Pd1_1 Pd1_7 2.779440 1_455
Pd1_1 Pd1_7 2.779440 1_545
Pd1_2 Pd1_7 2.779440 1_554
Pd1_2 Pd1_7 2.779440 1_455
Pd1_2 Pd1_4 2.779440 1_465
Pd1_2 Pd1_4 2.779440 1_555
Pd1_3 Pd1_6 2.779440 1_555
Pd1_3 Pd1_6 2.779440 1_456
Pd1_3 Pd1_5 2.779440 1_555
Pd1_3 Pd1_5 2.779440 1_465
Pd1_4 Pd1_7 2.779440 1_545
Pd1_4 Pd1_7 2.779440 1_554
Pd1_5 Pd1_6 2.779440 1_555
Pd1_5 Pd1_6 2.779440 1_546
Rh0_0 Rh0_3 2.779440 1_545
Rh0_0 Rh0_5 2.779440 1_455
Rh0_0 Rh0_5 2.779440 1_554
Rh0_0 Rh0_3 2.779440 1_554
Rh0_0 Rh0_6 2.779440 1_545
Rh0_0 Rh0_6 2.779440 1_455
Rh0_1 Rh0_4 2.779440 1_555
Rh0_1 Rh0_4 2.779440 1_456
Rh0_1 Rh0_2 2.779440 1_555
Rh0_1 Rh0_2 2.779440 1_546
Rh0_1 Rh0_7 2.779440 1_545
Rh0_1 Rh0_7 2.779440 1_455
Rh0_2 Rh0_7 2.779440 1_455
Rh0_2 Rh0_7 2.779440 1_554
Rh0_2 Rh0_4 2.779440 1_555
Rh0_2 Rh0_4 2.779440 1_465
Rh0_3 Rh0_6 2.779440 1_555
Rh0_3 Rh0_6 2.779440 1_456
Rh0_3 Rh0_5 2.779440 1_465
Rh0_3 Rh0_5 2.779440 1_555
Rh0_4 Rh0_7 2.779440 1_545
Rh0_4 Rh0_7 2.779440 1_554
Rh0_5 Rh0_6 2.779440 1_555
Rh0_5 Rh0_6 2.779440 1_546
