# generated using pymatgen
data_ZrTi(PbO3)2
_symmetry_space_group_name_H-M   'P 1'
_cell_length_a   4.16560600
_cell_length_b   4.23040517
_cell_length_c   8.11104562
_cell_angle_alpha   89.19832938
_cell_angle_beta   89.54298777
_cell_angle_gamma   88.74291222
_symmetry_Int_Tables_number   1
_chemical_formula_structural   ZrTi(PbO3)2
_chemical_formula_sum   'Zr1 Ti1 Pb2 O6'
_cell_volume   142.88188353
_cell_formula_units_Z   1
loop_
 _symmetry_equiv_pos_site_id
 _symmetry_equiv_pos_as_xyz
  1  'x, y, z'
loop_
 _atom_site_type_symbol
 _atom_site_label
 _atom_site_symmetry_multiplicity
 _atom_site_fract_x
 _atom_site_fract_y
 _atom_site_fract_z
 _atom_site_occupancy
  Zr  Zr0  1  0.53604600  0.53900600  0.26602900  1
  Ti  Ti0  1  0.50963100  0.51553200  0.76642700  1
  Pb  Pb0  1  0.99178800  0.98388100  0.98508500  1
  Pb  Pb1  1  0.98783500  0.98196100  0.50906700  1
  O  O0  1  0.04736100  0.58652200  0.28667100  1
  O  O1  1  0.06670900  0.58149600  0.77779200  1
  O  O2  1  0.57066000  0.59157100  0.01062800  1
  O  O3  1  0.56863400  0.58709900  0.53751800  1
  O  O4  1  0.56584900  0.05945100  0.28637200  1
  O  O5  1  0.56288700  0.08608200  0.77811000  1
loop_
_geom_bond_atom_site_label_1
_geom_bond_atom_site_label_2
_geom_bond_distance
_geom_bond_site_symmetry_2
O0 Zr0 2.046934 1_555
O0 Zr0 2.151856 1_455
O0 Pb1 2.484552 1_455
O1 Ti0 1.861707 1_555
O1 Ti0 2.346049 1_455
O1 Pb0 2.422901 1_455
O2 Ti0 2.029982 1_554
O2 Zr0 2.084560 1_555
O2 Pb0 2.446840 1_554
O3 Ti0 1.891991 1_555
O3 Zr0 2.219776 1_555
O3 Pb1 2.450236 1_555
O4 Zr0 2.034261 1_555
O4 Zr0 2.216433 1_545
O4 Pb1 2.543403 1_545
O5 Ti0 1.826636 1_555
O5 Ti0 2.431906 1_545
O5 Pb0 2.488160 1_545
