# generated using pymatgen
data_MnFe3
_symmetry_space_group_name_H-M   'P 1'
_cell_length_a   4.94055240
_cell_length_b   4.94055240
_cell_length_c   15.65308200
_cell_angle_alpha   90.00000000
_cell_angle_beta   90.00000000
_cell_angle_gamma   120.00000533
_symmetry_Int_Tables_number   1
_chemical_formula_structural   MnFe3
_chemical_formula_sum   'Mn8 Fe24'
_cell_volume   330.88835861
_cell_formula_units_Z   8
loop_
 _symmetry_equiv_pos_site_id
 _symmetry_equiv_pos_as_xyz
  1  'x, y, z'
loop_
 _atom_site_type_symbol
 _atom_site_label
 _atom_site_symmetry_multiplicity
 _atom_site_fract_x
 _atom_site_fract_y
 _atom_site_fract_z
 _atom_site_occupancy
  Mn  Mn0_0  1  0.33333350  0.16666650  0.00000000  1
  Mn  Mn0_1  1  0.33333350  0.16666650  0.50000000  1
  Mn  Mn0_2  1  0.33333350  0.66666650  0.00000000  1
  Mn  Mn0_3  1  0.33333350  0.66666650  0.50000000  1
  Mn  Mn0_4  1  0.83333350  0.16666650  0.00000000  1
  Mn  Mn0_5  1  0.83333350  0.16666650  0.50000000  1
  Mn  Mn0_6  1  0.83333350  0.66666650  0.00000000  1
  Mn  Mn0_7  1  0.83333350  0.66666650  0.50000000  1
  Fe  Fe0_0  1  0.33333350  0.16666650  0.25000000  1
  Fe  Fe0_1  1  0.33333350  0.16666650  0.75000000  1
  Fe  Fe0_2  1  0.33333350  0.66666650  0.25000000  1
  Fe  Fe0_3  1  0.33333350  0.66666650  0.75000000  1
  Fe  Fe0_4  1  0.83333350  0.16666650  0.25000000  1
  Fe  Fe0_5  1  0.83333350  0.16666650  0.75000000  1
  Fe  Fe0_6  1  0.83333350  0.66666650  0.25000000  1
  Fe  Fe0_7  1  0.83333350  0.66666650  0.75000000  1
  Fe  Fe1_0  1  0.16666650  0.33333350  0.12526000  1
  Fe  Fe1_1  1  0.16666650  0.33333350  0.62526000  1
  Fe  Fe1_2  1  0.16666650  0.83333350  0.12526000  1
  Fe  Fe1_3  1  0.16666650  0.83333350  0.62526000  1
  Fe  Fe1_4  1  0.66666650  0.33333350  0.12526000  1
  Fe  Fe1_5  1  0.66666650  0.33333350  0.62526000  1
  Fe  Fe1_6  1  0.66666650  0.83333350  0.12526000  1
  Fe  Fe1_7  1  0.66666650  0.83333350  0.62526000  1
  Fe  Fe2_0  1  0.16666650  0.33333350  0.37474000  1
  Fe  Fe2_1  1  0.16666650  0.33333350  0.87474000  1
  Fe  Fe2_2  1  0.16666650  0.83333350  0.37474000  1
  Fe  Fe2_3  1  0.16666650  0.83333350  0.87474000  1
  Fe  Fe2_4  1  0.66666650  0.33333350  0.37474000  1
  Fe  Fe2_5  1  0.66666650  0.33333350  0.87474000  1
  Fe  Fe2_6  1  0.66666650  0.83333350  0.37474000  1
  Fe  Fe2_7  1  0.66666650  0.83333350  0.87474000  1
loop_
_geom_bond_atom_site_label_1
_geom_bond_atom_site_label_2
_geom_bond_distance
_geom_bond_site_symmetry_2
Mn0_0 Mn0_6 2.470276 1_555
Mn0_0 Mn0_6 2.470276 1_445
Mn0_0 Mn0_4 2.470276 1_455
Mn0_0 Mn0_2 2.470276 1_555
Mn0_0 Mn0_2 2.470276 1_545
Mn0_0 Mn0_4 2.470276 1_555
Mn0_1 Mn0_7 2.470276 1_555
Mn0_1 Mn0_7 2.470276 1_445
Mn0_1 Mn0_3 2.470276 1_555
Mn0_1 Mn0_5 2.470276 1_455
Mn0_1 Mn0_3 2.470276 1_545
Mn0_1 Mn0_5 2.470276 1_555
Mn0_2 Mn0_4 2.470276 1_455
Mn0_2 Mn0_4 2.470276 1_565
Mn0_2 Mn0_6 2.470276 1_455
Mn0_2 Mn0_6 2.470276 1_555
Mn0_3 Mn0_5 2.470276 1_455
Mn0_3 Mn0_5 2.470276 1_565
Mn0_3 Mn0_7 2.470276 1_455
Mn0_3 Mn0_7 2.470276 1_555
Mn0_4 Mn0_6 2.470276 1_555
Mn0_4 Mn0_6 2.470276 1_545
Mn0_5 Mn0_7 2.470276 1_555
Mn0_5 Mn0_7 2.470276 1_545
Fe0_0 Fe1_2 2.417973 1_545
Fe0_0 Fe1_4 2.417973 1_555
Fe0_0 Fe2_4 2.417973 1_555
Fe0_0 Fe2_2 2.417973 1_545
Fe0_0 Fe1_0 2.417976 1_555
Fe0_0 Fe2_0 2.417976 1_555
Fe0_0 Fe0_6 2.470276 1_445
Fe0_0 Fe0_6 2.470276 1_555
Fe0_0 Fe0_2 2.470276 1_555
Fe0_0 Fe0_4 2.470276 1_455
Fe0_0 Fe0_4 2.470276 1_555
Fe0_0 Fe0_2 2.470276 1_545
Fe0_1 Fe2_3 2.417973 1_545
Fe0_1 Fe2_5 2.417973 1_555
Fe0_1 Fe1_5 2.417973 1_555
Fe0_1 Fe1_3 2.417973 1_545
Fe0_1 Fe2_1 2.417976 1_555
Fe0_1 Fe1_1 2.417976 1_555
Fe0_1 Fe0_7 2.470276 1_445
Fe0_1 Fe0_7 2.470276 1_555
Fe0_1 Fe0_5 2.470276 1_455
Fe0_1 Fe0_3 2.470276 1_555
Fe0_1 Fe0_3 2.470276 1_545
Fe0_1 Fe0_5 2.470276 1_555
Fe0_2 Fe1_6 2.417973 1_555
Fe0_2 Fe1_0 2.417973 1_555
Fe0_2 Fe2_6 2.417973 1_555
Fe0_2 Fe2_0 2.417973 1_555
Fe0_2 Fe1_2 2.417976 1_555
Fe0_2 Fe2_2 2.417976 1_555
Fe0_2 Fe0_4 2.470276 1_455
Fe0_2 Fe0_4 2.470276 1_565
Fe0_2 Fe0_6 2.470276 1_455
Fe0_2 Fe0_6 2.470276 1_555
Fe0_3 Fe2_7 2.417973 1_555
Fe0_3 Fe2_1 2.417973 1_555
Fe0_3 Fe1_7 2.417973 1_555
Fe0_3 Fe1_1 2.417973 1_555
Fe0_3 Fe2_3 2.417976 1_555
Fe0_3 Fe1_3 2.417976 1_555
Fe0_3 Fe0_5 2.470276 1_455
Fe0_3 Fe0_5 2.470276 1_565
Fe0_3 Fe0_7 2.470276 1_455
Fe0_3 Fe0_7 2.470276 1_555
Fe0_4 Fe1_6 2.417973 1_545
Fe0_4 Fe1_0 2.417973 1_655
Fe0_4 Fe2_6 2.417973 1_545
Fe0_4 Fe2_0 2.417973 1_655
Fe0_4 Fe1_4 2.417976 1_555
Fe0_4 Fe2_4 2.417976 1_555
Fe0_4 Fe0_6 2.470276 1_555
Fe0_4 Fe0_6 2.470276 1_545
Fe0_5 Fe2_7 2.417973 1_545
Fe0_5 Fe2_1 2.417973 1_655
Fe0_5 Fe1_1 2.417973 1_655
Fe0_5 Fe1_7 2.417973 1_545
Fe0_5 Fe2_5 2.417976 1_555
Fe0_5 Fe1_5 2.417976 1_555
Fe0_5 Fe0_7 2.470276 1_555
Fe0_5 Fe0_7 2.470276 1_545
Fe0_6 Fe1_2 2.417973 1_655
Fe0_6 Fe1_4 2.417973 1_555
Fe0_6 Fe2_2 2.417973 1_655
Fe0_6 Fe2_4 2.417973 1_555
Fe0_6 Fe1_6 2.417976 1_555
Fe0_6 Fe2_6 2.417976 1_555
Fe0_7 Fe2_3 2.417973 1_655
Fe0_7 Fe2_5 2.417973 1_555
Fe0_7 Fe1_5 2.417973 1_555
Fe0_7 Fe1_3 2.417973 1_655
Fe0_7 Fe2_7 2.417976 1_555
Fe0_7 Fe1_7 2.417976 1_555
Fe1_0 Mn0_2 2.424551 1_555
Fe1_0 Mn0_4 2.424551 1_455
Fe1_0 Mn0_0 2.424554 1_555
Fe1_0 Fe1_6 2.470276 1_555
Fe1_0 Fe1_6 2.470276 1_445
Fe1_0 Fe1_2 2.470276 1_545
Fe1_0 Fe1_4 2.470276 1_555
Fe1_0 Fe1_2 2.470276 1_555
Fe1_0 Fe1_4 2.470276 1_455
Fe1_1 Mn0_5 2.424551 1_455
Fe1_1 Mn0_3 2.424551 1_555
Fe1_1 Mn0_1 2.424554 1_555
Fe1_1 Fe1_7 2.470276 1_555
Fe1_1 Fe1_7 2.470276 1_445
Fe1_1 Fe1_3 2.470276 1_545
Fe1_1 Fe1_5 2.470276 1_555
Fe1_1 Fe1_5 2.470276 1_455
Fe1_1 Fe1_3 2.470276 1_555
Fe1_2 Mn0_0 2.424551 1_565
Fe1_2 Mn0_6 2.424551 1_455
Fe1_2 Mn0_2 2.424554 1_555
Fe1_2 Fe1_4 2.470276 1_565
Fe1_2 Fe1_4 2.470276 1_455
Fe1_2 Fe1_6 2.470276 1_555
Fe1_2 Fe1_6 2.470276 1_455
Fe1_3 Mn0_1 2.424551 1_565
Fe1_3 Mn0_7 2.424551 1_455
Fe1_3 Mn0_3 2.424554 1_555
Fe1_3 Fe1_5 2.470276 1_565
Fe1_3 Fe1_5 2.470276 1_455
Fe1_3 Fe1_7 2.470276 1_555
Fe1_3 Fe1_7 2.470276 1_455
Fe1_4 Mn0_6 2.424551 1_555
Fe1_4 Mn0_0 2.424551 1_555
Fe1_4 Mn0_4 2.424554 1_555
Fe1_4 Fe1_6 2.470276 1_545
Fe1_4 Fe1_6 2.470276 1_555
Fe1_5 Mn0_7 2.424551 1_555
Fe1_5 Mn0_1 2.424551 1_555
Fe1_5 Mn0_5 2.424554 1_555
Fe1_5 Fe1_7 2.470276 1_545
Fe1_5 Fe1_7 2.470276 1_555
Fe1_6 Mn0_2 2.424551 1_555
Fe1_6 Mn0_4 2.424551 1_565
Fe1_6 Mn0_6 2.424554 1_555
Fe1_7 Mn0_3 2.424551 1_555
Fe1_7 Mn0_5 2.424551 1_565
Fe1_7 Mn0_7 2.424554 1_555
Fe2_0 Mn0_5 2.424551 1_455
Fe2_0 Mn0_3 2.424551 1_555
Fe2_0 Mn0_1 2.424554 1_555
Fe2_0 Fe2_6 2.470276 1_555
Fe2_0 Fe2_6 2.470276 1_445
Fe2_0 Fe2_4 2.470276 1_555
Fe2_0 Fe2_2 2.470276 1_545
Fe2_0 Fe2_2 2.470276 1_555
Fe2_0 Fe2_4 2.470276 1_455
Fe2_1 Mn0_2 2.424551 1_556
Fe2_1 Mn0_4 2.424551 1_456
Fe2_1 Mn0_0 2.424554 1_556
Fe2_1 Fe2_7 2.470276 1_445
Fe2_1 Fe2_7 2.470276 1_555
Fe2_1 Fe2_3 2.470276 1_545
Fe2_1 Fe2_5 2.470276 1_555
Fe2_1 Fe2_5 2.470276 1_455
Fe2_1 Fe2_3 2.470276 1_555
Fe2_2 Mn0_7 2.424551 1_455
Fe2_2 Mn0_1 2.424551 1_565
Fe2_2 Mn0_3 2.424554 1_555
Fe2_2 Fe2_4 2.470276 1_565
Fe2_2 Fe2_4 2.470276 1_455
Fe2_2 Fe2_6 2.470276 1_555
Fe2_2 Fe2_6 2.470276 1_455
Fe2_3 Mn0_6 2.424551 1_456
Fe2_3 Mn0_0 2.424551 1_566
Fe2_3 Mn0_2 2.424554 1_556
Fe2_3 Fe2_5 2.470276 1_565
Fe2_3 Fe2_5 2.470276 1_455
Fe2_3 Fe2_7 2.470276 1_555
Fe2_3 Fe2_7 2.470276 1_455
Fe2_4 Mn0_7 2.424551 1_555
Fe2_4 Mn0_1 2.424551 1_555
Fe2_4 Mn0_5 2.424554 1_555
Fe2_4 Fe2_6 2.470276 1_545
Fe2_4 Fe2_6 2.470276 1_555
Fe2_5 Mn0_6 2.424551 1_556
Fe2_5 Mn0_0 2.424551 1_556
Fe2_5 Mn0_4 2.424554 1_556
Fe2_5 Fe2_7 2.470276 1_545
Fe2_5 Fe2_7 2.470276 1_555
Fe2_6 Mn0_3 2.424551 1_555
Fe2_6 Mn0_5 2.424551 1_565
Fe2_6 Mn0_7 2.424554 1_555
Fe2_7 Mn0_4 2.424551 1_566
Fe2_7 Mn0_2 2.424551 1_556
Fe2_7 Mn0_6 2.424554 1_556
