# generated using pymatgen
data_TiSiO4
_symmetry_space_group_name_H-M   'P 1'
_cell_length_a   4.84458823
_cell_length_b   4.84458823
_cell_length_c   6.27845700
_cell_angle_alpha   90.00000000
_cell_angle_beta   90.00000000
_cell_angle_gamma   112.96506220
_symmetry_Int_Tables_number   1
_chemical_formula_structural   TiSiO4
_chemical_formula_sum   'Ti2 Si2 O8'
_cell_volume   135.67663422
_cell_formula_units_Z   2
loop_
 _symmetry_equiv_pos_site_id
 _symmetry_equiv_pos_as_xyz
  1  'x, y, z'
loop_
 _atom_site_type_symbol
 _atom_site_label
 _atom_site_symmetry_multiplicity
 _atom_site_fract_x
 _atom_site_fract_y
 _atom_site_fract_z
 _atom_site_occupancy
  Ti  Ti0  1  0.00000000  0.00000000  0.00000000  1
  Ti  Ti1  1  0.00000000  0.00000000  0.50000000  1
  Si  Si0  1  0.65273000  0.34727000  0.75000000  1
  Si  Si1  1  0.34727000  0.65273000  0.25000000  1
  O  O0  1  0.77183500  0.22816500  0.95725400  1
  O  O1  1  0.22816500  0.77183500  0.04274600  1
  O  O2  1  0.77183500  0.22816500  0.54274600  1
  O  O3  1  0.22816500  0.77183500  0.45725400  1
  O  O4  1  0.27877300  0.21759800  0.75000000  1
  O  O5  1  0.21759800  0.27877300  0.25000000  1
  O  O6  1  0.72122700  0.78240200  0.25000000  1
  O  O7  1  0.78240200  0.72122700  0.75000000  1
loop_
_geom_bond_atom_site_label_1
_geom_bond_atom_site_label_2
_geom_bond_distance
_geom_bond_site_symmetry_2
O0 Si0 1.618307 1_555
O0 Ti0 1.862562 1_656
O1 Si1 1.618307 1_555
O1 Ti0 1.862562 1_565
O2 Si0 1.618307 1_555
O2 Ti1 1.862562 1_655
O3 Si1 1.618307 1_555
O3 Ti1 1.862562 1_565
O4 Si0 1.669933 1_555
O4 Ti1 2.070738 1_555
O4 Ti0 2.070738 1_556
O5 Si1 1.669933 1_555
O5 Ti1 2.070738 1_555
O5 Ti0 2.070738 1_555
O6 Si1 1.669933 1_555
O6 Ti1 2.070738 1_665
O6 Ti0 2.070738 1_665
O7 Si0 1.669933 1_555
O7 Ti1 2.070738 1_665
O7 Ti0 2.070738 1_666
