# generated using pymatgen
data_KYb2Cd2Sb3
_symmetry_space_group_name_H-M   'P 1'
_cell_length_a   4.84595300
_cell_length_b   12.41750700
_cell_length_c   15.99037900
_cell_angle_alpha   90.00000000
_cell_angle_beta   90.00000000
_cell_angle_gamma   90.00000000
_symmetry_Int_Tables_number   1
_chemical_formula_structural   KYb2Cd2Sb3
_chemical_formula_sum   'K4 Yb8 Cd8 Sb12'
_cell_volume   962.21554443
_cell_formula_units_Z   4
loop_
 _symmetry_equiv_pos_site_id
 _symmetry_equiv_pos_as_xyz
  1  'x, y, z'
loop_
 _atom_site_type_symbol
 _atom_site_label
 _atom_site_symmetry_multiplicity
 _atom_site_fract_x
 _atom_site_fract_y
 _atom_site_fract_z
 _atom_site_occupancy
  K  K0  1  0.25000000  0.40982200  0.46274700  1
  K  K1  1  0.25000000  0.90982200  0.03725300  1
  K  K2  1  0.75000000  0.59017800  0.53725300  1
  K  K3  1  0.75000000  0.09017800  0.96274700  1
  Yb  Yb0  1  0.25000000  0.10021800  0.57913100  1
  Yb  Yb1  1  0.25000000  0.60021800  0.92086900  1
  Yb  Yb2  1  0.75000000  0.89978200  0.42086900  1
  Yb  Yb3  1  0.75000000  0.39978200  0.07913100  1
  Yb  Yb4  1  0.25000000  0.35464000  0.72570500  1
  Yb  Yb5  1  0.25000000  0.85464000  0.77429500  1
  Yb  Yb6  1  0.75000000  0.64536000  0.27429500  1
  Yb  Yb7  1  0.75000000  0.14536000  0.22570500  1
  Cd  Cd0  1  0.25000000  0.30062300  0.92890900  1
  Cd  Cd1  1  0.25000000  0.80062300  0.57109100  1
  Cd  Cd2  1  0.75000000  0.69937700  0.07109100  1
  Cd  Cd3  1  0.75000000  0.19937700  0.42890900  1
  Cd  Cd4  1  0.25000000  0.37833300  0.22222200  1
  Cd  Cd5  1  0.25000000  0.87833300  0.27777800  1
  Cd  Cd6  1  0.75000000  0.62166700  0.77777800  1
  Cd  Cd7  1  0.75000000  0.12166700  0.72222200  1
  Sb  Sb0  1  0.25000000  0.08196000  0.37661200  1
  Sb  Sb1  1  0.25000000  0.58196000  0.12338800  1
  Sb  Sb2  1  0.75000000  0.91804000  0.62338800  1
  Sb  Sb3  1  0.75000000  0.41804000  0.87661200  1
  Sb  Sb4  1  0.25000000  0.10899100  0.81289200  1
  Sb  Sb5  1  0.25000000  0.60899100  0.68710800  1
  Sb  Sb6  1  0.75000000  0.89100900  0.18710800  1
  Sb  Sb7  1  0.75000000  0.39100900  0.31289200  1
  Sb  Sb8  1  0.25000000  0.71107600  0.40410900  1
  Sb  Sb9  1  0.25000000  0.21107600  0.09589100  1
  Sb  Sb10  1  0.75000000  0.28892400  0.59589100  1
  Sb  Sb11  1  0.75000000  0.78892400  0.90410900  1
loop_
_geom_bond_atom_site_label_1
_geom_bond_atom_site_label_2
_geom_bond_distance
_geom_bond_site_symmetry_2
K0 Sb7 3.415750 1_555
K0 Sb7 3.415750 1_455
K0 Sb10 3.557711 1_455
K0 Sb10 3.557711 1_555
K0 Sb8 3.856545 1_555
K1 Sb6 3.415750 1_455
K1 Sb6 3.415750 1_555
K1 Sb11 3.557711 1_454
K1 Sb11 3.557711 1_554
K1 Sb9 3.856545 1_565
K2 Sb5 3.415750 1_555
K2 Sb5 3.415750 1_655
K2 Sb8 3.557711 1_655
K2 Sb8 3.557711 1_555
K2 Sb10 3.856545 1_555
K3 Sb4 3.415750 1_655
K3 Sb4 3.415750 1_555
K3 Sb9 3.557711 1_556
K3 Sb9 3.557711 1_656
K3 Sb11 3.856545 1_545
Cd0 Sb9 2.892386 1_556
Cd0 Sb3 2.948893 1_455
Cd0 Sb3 2.948893 1_555
Cd0 Sb4 3.017293 1_555
Cd0 Yb4 3.317819 1_555
Cd0 K3 3.604499 1_455
Cd0 K3 3.604499 1_555
Cd0 Yb3 3.627265 1_456
Cd0 Yb3 3.627265 1_556
Cd0 Yb1 3.722444 1_555
Cd1 Sb8 2.892386 1_555
Cd1 Sb2 2.948893 1_455
Cd1 Sb2 2.948893 1_555
Cd1 Sb5 3.017293 1_555
Cd1 Yb5 3.317819 1_555
Cd1 K2 3.604499 1_555
Cd1 K2 3.604499 1_455
Cd1 Yb2 3.627265 1_555
Cd1 Yb2 3.627265 1_455
Cd1 Yb0 3.722444 1_565
Cd2 Sb11 2.892386 1_554
Cd2 Sb1 2.948893 1_555
Cd2 Sb1 2.948893 1_655
Cd2 Sb6 3.017293 1_555
Cd2 Yb6 3.317819 1_555
Cd2 K1 3.604499 1_555
Cd2 K1 3.604499 1_655
Cd2 Yb1 3.627265 1_654
Cd2 Yb1 3.627265 1_554
Cd2 Yb3 3.722444 1_555
Cd3 Sb10 2.892386 1_555
Cd3 Sb0 2.948893 1_555
Cd3 Sb0 2.948893 1_655
Cd3 Sb7 3.017293 1_555
Cd3 Yb7 3.317819 1_555
Cd3 K0 3.604499 1_555
Cd3 K0 3.604499 1_655
Cd3 Yb0 3.627265 1_555
Cd3 Yb0 3.627265 1_655
Cd3 Yb2 3.722444 1_545
Cd4 Sb7 2.828012 1_455
Cd4 Sb7 2.828012 1_555
Cd4 Sb9 2.897292 1_555
Cd4 Sb1 2.981804 1_555
Cd4 Yb3 3.343211 1_455
Cd4 Yb3 3.343211 1_555
Cd4 Yb7 3.773995 1_455
Cd4 Yb7 3.773995 1_555
Cd4 K0 3.865911 1_555
Cd5 Sb6 2.828012 1_455
Cd5 Sb6 2.828012 1_555
Cd5 Sb8 2.897292 1_555
Cd5 Sb0 2.981804 1_565
Cd5 Yb2 3.343211 1_455
Cd5 Yb2 3.343211 1_555
Cd5 Yb6 3.773995 1_555
Cd5 Yb6 3.773995 1_455
Cd5 K1 3.865911 1_555
Cd6 Sb5 2.828012 1_555
Cd6 Sb5 2.828012 1_655
Cd6 Sb11 2.897292 1_555
Cd6 Sb3 2.981804 1_555
Cd6 Yb1 3.343211 1_655
Cd6 Yb1 3.343211 1_555
Cd6 Yb5 3.773995 1_555
Cd6 Yb5 3.773995 1_655
Cd6 K2 3.865911 1_555
Cd7 Sb4 2.828012 1_555
Cd7 Sb4 2.828012 1_655
Cd7 Sb10 2.897292 1_555
Cd7 Sb2 2.981804 1_545
Cd7 Yb0 3.343211 1_555
Cd7 Yb0 3.343211 1_655
Cd7 Yb4 3.773995 1_555
Cd7 Yb4 3.773995 1_655
Cd7 K3 3.865911 1_555
Sb0 Yb0 3.246282 1_555
Sb0 Yb2 3.389568 1_545
Sb0 Yb2 3.389568 1_445
Sb0 Yb7 3.509055 1_455
Sb0 Yb7 3.509055 1_555
Sb1 Yb1 3.246282 1_554
Sb1 Yb3 3.389568 1_455
Sb1 Yb3 3.389568 1_555
Sb1 Yb6 3.509055 1_555
Sb1 Yb6 3.509055 1_455
Sb2 Yb2 3.246282 1_555
Sb2 Yb0 3.389568 1_665
Sb2 Yb0 3.389568 1_565
Sb2 Yb5 3.509055 1_555
Sb2 Yb5 3.509055 1_655
Sb3 Yb3 3.246282 1_556
Sb3 Yb1 3.389568 1_555
Sb3 Yb1 3.389568 1_655
Sb3 Yb4 3.509055 1_555
Sb3 Yb4 3.509055 1_655
Sb4 Yb5 3.218142 1_545
Sb4 Yb4 3.353847 1_555
Sb4 Yb0 3.739514 1_555
Sb5 Yb4 3.218142 1_555
Sb5 Yb5 3.353847 1_555
Sb5 Yb1 3.739514 1_555
Sb6 Yb7 3.218142 1_565
Sb6 Yb6 3.353847 1_555
Sb6 Yb2 3.739514 1_555
Sb7 Yb6 3.218142 1_555
Sb7 Yb7 3.353847 1_555
Sb7 Yb3 3.739514 1_555
Sb8 Yb6 3.293260 1_555
Sb8 Yb6 3.293260 1_455
Sb8 Yb2 3.381345 1_555
Sb8 Yb2 3.381345 1_455
Sb9 Yb7 3.293260 1_455
Sb9 Yb7 3.293260 1_555
Sb9 Yb3 3.381345 1_455
Sb9 Yb3 3.381345 1_555
Sb10 Yb4 3.293260 1_555
Sb10 Yb4 3.293260 1_655
Sb10 Yb0 3.381345 1_655
Sb10 Yb0 3.381345 1_555
Sb11 Yb5 3.293260 1_555
Sb11 Yb5 3.293260 1_655
Sb11 Yb1 3.381345 1_655
Sb11 Yb1 3.381345 1_555
