# generated using pymatgen
data_Li4MnCo2O7
_symmetry_space_group_name_H-M   'P 1'
_cell_length_a   17.03308597
_cell_length_b   17.03308597
_cell_length_c   5.16299655
_cell_angle_alpha   86.01132673
_cell_angle_beta   86.01132673
_cell_angle_gamma   9.79039295
_symmetry_Int_Tables_number   1
_chemical_formula_structural   Li4MnCo2O7
_chemical_formula_sum   'Li8 Mn2 Co4 O14'
_cell_volume   254.09115696
_cell_formula_units_Z   2
loop_
 _symmetry_equiv_pos_site_id
 _symmetry_equiv_pos_as_xyz
  1  'x, y, z'
loop_
 _atom_site_type_symbol
 _atom_site_label
 _atom_site_symmetry_multiplicity
 _atom_site_fract_x
 _atom_site_fract_y
 _atom_site_fract_z
 _atom_site_occupancy
  Li  Li0  1  0.50024400  0.50024400  0.50355800  1
  Li  Li1  1  0.92731600  0.92731600  0.35964100  1
  Li  Li2  1  0.35586900  0.35586900  0.21584000  1
  Li  Li3  1  0.78511700  0.78511700  0.06943900  1
  Li  Li4  1  0.21377400  0.21377400  0.92810800  1
  Li  Li5  1  0.07480400  0.07480400  0.63662400  1
  Li  Li6  1  0.64321900  0.64321900  0.77456900  1
  Li  Li7  1  0.14335400  0.14335400  0.29524500  1
  Mn  Mn0  1  0.00003700  0.00003700  0.00724400  1
  Mn  Mn1  1  0.57500400  0.57500400  0.16115000  1
  Co  Co0  1  0.42761500  0.42761500  0.84901200  1
  Co  Co1  1  0.85578500  0.85578500  0.70771300  1
  Co  Co2  1  0.28443200  0.28443200  0.56230800  1
  Co  Co3  1  0.71128900  0.71128900  0.41716200  1
  O  O0  1  0.53432000  0.53432000  0.86000600  1
  O  O1  1  0.96000100  0.96000100  0.69456400  1
  O  O2  1  0.38945500  0.38945500  0.54421500  1
  O  O3  1  0.81963300  0.81963300  0.40642000  1
  O  O4  1  0.24898100  0.24898100  0.26454000  1
  O  O5  1  0.10356600  0.10356600  0.98145600  1
  O  O6  1  0.68372300  0.68372300  0.14365800  1
  O  O7  1  0.46743500  0.46743500  0.17062400  1
  O  O8  1  0.89562200  0.89562200  0.00711700  1
  O  O9  1  0.32201700  0.32201700  0.87281200  1
  O  O10  1  0.74968400  0.74968400  0.70931100  1
  O  O11  1  0.18183300  0.18183300  0.60330800  1
  O  O12  1  0.04073900  0.04073900  0.31580400  1
  O  O13  1  0.60513300  0.60513300  0.43855100  1
loop_
_geom_bond_atom_site_label_1
_geom_bond_atom_site_label_2
_geom_bond_distance
_geom_bond_site_symmetry_2
Li0 O7 2.112375 1_555
Li0 O12 2.180705 1_655
Li0 O12 2.180705 1_565
Li0 O1 2.182389 1_455
Li0 O1 2.182389 1_545
Li0 O0 2.240935 1_555
Li1 O1 2.118670 1_555
Li1 O2 2.121600 1_655
Li1 O2 2.121600 1_565
Li1 O7 2.175712 1_655
Li1 O7 2.175712 1_565
Li1 O8 2.177918 1_555
Li2 O3 2.103460 1_545
Li2 O3 2.103460 1_455
Li2 O2 2.108027 1_555
Li2 O9 2.177376 1_554
Li2 O8 2.211674 1_455
Li2 O8 2.211674 1_545
Li3 O4 2.111671 1_655
Li3 O4 2.111671 1_565
Li3 O9 2.129401 1_654
Li3 O9 2.129401 1_564
Li3 O3 2.164283 1_555
Li3 O10 2.283807 1_554
Li4 O6 2.057432 1_546
Li4 O6 2.057432 1_456
Li4 O11 2.059451 1_555
Li4 O10 2.163815 1_545
Li4 O10 2.163815 1_455
Li4 O4 2.176004 1_556
Li5 O13 2.017715 1_545
Li5 O13 2.017715 1_455
Li5 O12 2.085166 1_555
Li5 O5 2.089360 1_555
Li5 O0 2.260457 1_545
Li5 O0 2.260457 1_455
Li6 O11 2.109604 1_655
Li6 O11 2.109604 1_565
Li6 O5 2.205517 1_655
Li6 O5 2.205517 1_565
Li6 O13 2.234722 1_555
Li6 O6 2.426346 1_556
Li7 O13 2.051590 1_545
Li7 O13 2.051590 1_455
Li7 O6 2.110186 1_545
Li7 O6 2.110186 1_455
Li7 O11 2.127346 1_555
Li7 O5 2.180364 1_554
Mn0 O7 1.979483 1_455
Mn0 O7 1.979483 1_545
Mn0 O0 1.980164 1_544
Mn0 O0 1.980164 1_454
Mn0 O12 2.180322 1_555
Mn0 O1 2.181534 1_444
Mn1 O13 1.817015 1_555
Mn1 O5 1.946181 1_654
Mn1 O5 1.946181 1_564
Mn1 O12 1.993277 1_655
Mn1 O12 1.993277 1_565
Mn1 O0 2.150365 1_554
Co0 O8 1.958161 1_546
Co0 O8 1.958161 1_456
Co0 O1 1.958175 1_545
Co0 O1 1.958175 1_455
Co0 O2 2.106804 1_555
Co0 O7 2.212983 1_556
Co1 O2 1.999139 1_565
Co1 O2 1.999139 1_655
Co1 O9 2.004115 1_565
Co1 O9 2.004115 1_655
Co1 O3 2.047445 1_555
Co1 O8 2.123607 1_556
Co2 O10 1.988645 1_545
Co2 O10 1.988645 1_455
Co2 O3 2.013373 1_455
Co2 O3 2.013373 1_545
Co2 O4 2.017347 1_555
Co2 O9 2.117313 1_555
Co3 O6 1.747551 1_555
Co3 O11 1.975276 1_655
Co3 O11 1.975276 1_565
Co3 O4 2.056577 1_565
Co3 O4 2.056577 1_655
Co3 O10 2.061058 1_555
