# generated using pymatgen
data_RbPt2Se3
_symmetry_space_group_name_H-M   'P 1'
_cell_length_a   8.07646393
_cell_length_b   8.07646432
_cell_length_c   8.07646295
_cell_angle_alpha   54.82711624
_cell_angle_beta   54.82711116
_cell_angle_gamma   54.82711546
_symmetry_Int_Tables_number   1
_chemical_formula_structural   RbPt2Se3
_chemical_formula_sum   'Rb2 Pt4 Se6'
_cell_volume   327.65233262
_cell_formula_units_Z   2
loop_
 _symmetry_equiv_pos_site_id
 _symmetry_equiv_pos_as_xyz
  1  'x, y, z'
loop_
 _atom_site_type_symbol
 _atom_site_label
 _atom_site_symmetry_multiplicity
 _atom_site_fract_x
 _atom_site_fract_y
 _atom_site_fract_z
 _atom_site_occupancy
  Rb  Rb0  1  0.80032942  0.80032942  0.80032942  1
  Rb  Rb1  1  0.19967058  0.19967058  0.19967058  1
  Pt  Pt0  1  0.00000000  -0.00000000  0.00000000  1
  Pt  Pt1  1  0.50000000  0.50000000  0.00000000  1
  Pt  Pt2  1  0.00000000  0.50000000  0.50000000  1
  Pt  Pt3  1  0.50000000  -0.00000000  0.50000000  1
  Se  Se0  1  0.76853892  0.76853892  0.28123638  1
  Se  Se1  1  0.76853892  0.28123638  0.76853892  1
  Se  Se2  1  0.28123638  0.76853892  0.76853892  1
  Se  Se3  1  0.23146108  0.71876362  0.23146108  1
  Se  Se4  1  0.23146108  0.23146108  0.71876362  1
  Se  Se5  1  0.71876362  0.23146108  0.23146108  1
loop_
_geom_bond_atom_site_label_1
_geom_bond_atom_site_label_2
_geom_bond_distance
_geom_bond_site_symmetry_2
Rb0 Se0 3.604946 1_556
Rb0 Se2 3.604946 1_655
Rb0 Se1 3.604946 1_565
Rb1 Se4 3.604946 1_554
Rb1 Se5 3.604946 1_455
Rb1 Se3 3.604946 1_545
Pt0 Se2 2.527990 1_544
Pt0 Se5 2.527990 1_455
Pt0 Se4 2.527990 1_554
Pt0 Se0 2.527990 1_445
Pt0 Se1 2.527990 1_454
Pt0 Se3 2.527990 1_545
Pt1 Se1 2.457558 1_554
Pt1 Se3 2.457558 1_555
Pt1 Se2 2.457558 1_554
Pt1 Se5 2.457558 1_555
Pt1 Rb1 3.483243 1_555
Pt1 Rb0 3.483243 1_554
Pt2 Se1 2.457558 1_455
Pt2 Se3 2.457558 1_555
Pt2 Se0 2.457558 1_455
Pt2 Se4 2.457558 1_555
Pt2 Rb1 3.483242 1_555
Pt2 Rb0 3.483242 1_455
Pt3 Se0 2.457558 1_545
Pt3 Se4 2.457558 1_555
Pt3 Se2 2.457558 1_545
Pt3 Se5 2.457558 1_555
Pt3 Rb1 3.483242 1_555
Pt3 Rb0 3.483242 1_545
