# generated using pymatgen
data_LiMg6Fe
_symmetry_space_group_name_H-M   'P 1'
_cell_length_a   4.88184700
_cell_length_b   6.32150300
_cell_length_c   10.53194000
_cell_angle_alpha   90.00000000
_cell_angle_beta   90.00000000
_cell_angle_gamma   90.00000000
_symmetry_Int_Tables_number   1
_chemical_formula_structural   LiMg6Fe
_chemical_formula_sum   'Li2 Mg12 Fe2'
_cell_volume   325.02209769
_cell_formula_units_Z   2
loop_
 _symmetry_equiv_pos_site_id
 _symmetry_equiv_pos_as_xyz
  1  'x, y, z'
loop_
 _atom_site_type_symbol
 _atom_site_label
 _atom_site_symmetry_multiplicity
 _atom_site_fract_x
 _atom_site_fract_y
 _atom_site_fract_z
 _atom_site_occupancy
  Li  Li0  1  0.50000000  0.50000000  0.83526300  1
  Li  Li1  1  0.50000000  0.00000000  0.33526300  1
  Mg  Mg0  1  0.50000000  0.25089400  0.08484000  1
  Mg  Mg1  1  0.50000000  0.74910600  0.08484000  1
  Mg  Mg2  1  0.00000000  0.24051000  0.90995600  1
  Mg  Mg3  1  0.00000000  0.75949000  0.90995600  1
  Mg  Mg4  1  0.00000000  0.50000000  0.17218500  1
  Mg  Mg5  1  0.00000000  0.50000000  0.66795400  1
  Mg  Mg6  1  0.50000000  0.75089400  0.58484000  1
  Mg  Mg7  1  0.50000000  0.24910600  0.58484000  1
  Mg  Mg8  1  0.00000000  0.74051000  0.40995600  1
  Mg  Mg9  1  0.00000000  0.25949000  0.40995600  1
  Mg  Mg10  1  0.00000000  0.00000000  0.67218500  1
  Mg  Mg11  1  0.00000000  0.00000000  0.16795400  1
  Fe  Fe0  1  0.50000000  0.50000000  0.33500900  1
  Fe  Fe1  1  0.50000000  0.00000000  0.83500900  1
loop_
_geom_bond_atom_site_label_1
_geom_bond_atom_site_label_2
_geom_bond_distance
_geom_bond_site_symmetry_2
Li0 Mg5 3.010492 1_555
Li0 Mg5 3.010492 1_655
Li0 Mg2 3.044298 1_555
Li0 Mg3 3.044298 1_655
Li0 Mg2 3.044298 1_655
Li0 Mg3 3.044298 1_555
Li0 Mg1 3.064136 1_556
Li0 Mg0 3.064136 1_556
Li0 Mg6 3.077592 1_555
Li0 Mg7 3.077592 1_555
Li1 Mg11 3.010492 1_655
Li1 Mg11 3.010492 1_555
Li1 Mg8 3.044298 1_645
Li1 Mg8 3.044298 1_545
Li1 Mg9 3.044298 1_555
Li1 Mg9 3.044298 1_655
Li1 Mg6 3.064136 1_545
Li1 Mg7 3.064136 1_555
Li1 Mg0 3.077592 1_555
Li1 Mg1 3.077592 1_545
Mg0 Mg11 3.039709 1_555
Mg0 Mg11 3.039709 1_655
Mg0 Mg4 3.046983 1_555
Mg0 Mg4 3.046983 1_655
Mg0 Mg2 3.058577 1_654
Mg0 Mg2 3.058577 1_554
Mg0 Mg1 3.149449 1_555
Mg0 Mg1 3.172054 1_545
Mg1 Mg11 3.039709 1_565
Mg1 Mg11 3.039709 1_665
Mg1 Mg4 3.046983 1_555
Mg1 Mg4 3.046983 1_655
Mg1 Mg3 3.058577 1_654
Mg1 Mg3 3.058577 1_554
Mg2 Mg5 3.030995 1_555
Mg2 Mg3 3.040769 1_545
Mg2 Mg4 3.212201 1_556
Mg2 Mg3 3.280734 1_555
Mg3 Mg5 3.030995 1_555
Mg3 Mg4 3.212201 1_556
Mg4 Mg9 2.929597 1_555
Mg4 Mg8 2.929597 1_555
Mg5 Mg6 3.039709 1_455
Mg5 Mg6 3.039709 1_555
Mg5 Mg7 3.039709 1_455
Mg5 Mg7 3.039709 1_555
Mg5 Mg9 3.113656 1_555
Mg5 Mg8 3.113656 1_555
Mg6 Mg8 3.058577 1_555
Mg6 Mg8 3.058577 1_655
Mg6 Mg7 3.149449 1_565
Mg6 Mg7 3.172054 1_555
Mg7 Mg9 3.058577 1_655
Mg7 Mg9 3.058577 1_555
Mg8 Mg9 3.040769 1_555
Mg8 Mg9 3.280734 1_565
Mg10 Mg2 2.929597 1_555
Mg10 Mg3 2.929597 1_545
Mg10 Mg6 3.046983 1_545
Mg10 Mg7 3.046983 1_455
Mg10 Mg7 3.046983 1_555
Mg10 Mg6 3.046983 1_445
Mg10 Mg5 3.161066 1_555
Mg10 Mg5 3.161066 1_545
Mg10 Mg9 3.212201 1_555
Mg10 Mg8 3.212201 1_545
Mg11 Mg9 3.030995 1_555
Mg11 Mg8 3.030995 1_545
Mg11 Mg3 3.113656 1_544
Mg11 Mg2 3.113656 1_554
Mg11 Mg4 3.161066 1_545
Mg11 Mg4 3.161066 1_555
Fe0 Mg9 2.982068 1_655
Fe0 Mg9 2.982068 1_555
Fe0 Mg8 2.982068 1_555
Fe0 Mg8 2.982068 1_655
Fe0 Mg4 2.983090 1_655
Fe0 Mg4 2.983090 1_555
Fe0 Mg1 3.069486 1_555
Fe0 Mg0 3.069486 1_555
Fe0 Mg6 3.072250 1_555
Fe0 Mg7 3.072250 1_555
Fe0 Li1 3.160753 1_565
Fe0 Li1 3.160753 1_555
Fe1 Mg3 2.982068 1_645
Fe1 Mg3 2.982068 1_545
Fe1 Mg2 2.982068 1_655
Fe1 Mg2 2.982068 1_555
Fe1 Mg10 2.983090 1_555
Fe1 Mg10 2.983090 1_655
Fe1 Mg6 3.069486 1_545
Fe1 Mg7 3.069486 1_555
Fe1 Mg0 3.072250 1_556
Fe1 Mg1 3.072250 1_546
Fe1 Li0 3.160753 1_545
Fe1 Li0 3.160753 1_555
