# generated using pymatgen
data_MgCd2
_symmetry_space_group_name_H-M   'P 1'
_cell_length_a   16.05714307
_cell_length_b   16.05714307
_cell_length_c   10.23670448
_cell_angle_alpha   90.00000000
_cell_angle_beta   90.00000000
_cell_angle_gamma   157.10030723
_symmetry_Int_Tables_number   1
_chemical_formula_structural   MgCd2
_chemical_formula_sum   'Mg16 Cd32'
_cell_volume   1027.02063360
_cell_formula_units_Z   16
loop_
 _symmetry_equiv_pos_site_id
 _symmetry_equiv_pos_as_xyz
  1  'x, y, z'
loop_
 _atom_site_type_symbol
 _atom_site_label
 _atom_site_symmetry_multiplicity
 _atom_site_fract_x
 _atom_site_fract_y
 _atom_site_fract_z
 _atom_site_occupancy
  Mg  Mg0_0  1  0.14012790  0.35987210  0.12500000  1
  Mg  Mg0_1  1  0.14012790  0.35987210  0.62500000  1
  Mg  Mg0_2  1  0.14012790  0.85987210  0.12500000  1
  Mg  Mg0_3  1  0.14012790  0.85987210  0.62500000  1
  Mg  Mg0_4  1  0.64012790  0.35987210  0.12500000  1
  Mg  Mg0_5  1  0.64012790  0.35987210  0.62500000  1
  Mg  Mg0_6  1  0.64012790  0.85987210  0.12500000  1
  Mg  Mg0_7  1  0.64012790  0.85987210  0.62500000  1
  Mg  Mg1_0  1  0.35987210  0.14012789  0.37500000  1
  Mg  Mg1_1  1  0.35987210  0.14012789  0.87500000  1
  Mg  Mg1_2  1  0.35987211  0.64012789  0.37500000  1
  Mg  Mg1_3  1  0.35987211  0.64012789  0.87500000  1
  Mg  Mg1_4  1  0.85987210  0.14012789  0.37500000  1
  Mg  Mg1_5  1  0.85987210  0.14012789  0.87500000  1
  Mg  Mg1_6  1  0.85987211  0.64012790  0.37500000  1
  Mg  Mg1_7  1  0.85987211  0.64012790  0.87500000  1
  Cd  Cd0_0  1  0.30793309  0.19206691  0.12500000  1
  Cd  Cd0_1  1  0.30793309  0.19206691  0.62500000  1
  Cd  Cd0_2  1  0.30793309  0.69206691  0.12500000  1
  Cd  Cd0_3  1  0.30793309  0.69206691  0.62500000  1
  Cd  Cd0_4  1  0.80793309  0.19206691  0.12500000  1
  Cd  Cd0_5  1  0.80793309  0.19206691  0.62500000  1
  Cd  Cd0_6  1  0.80793309  0.69206691  0.12500000  1
  Cd  Cd0_7  1  0.80793309  0.69206691  0.62500000  1
  Cd  Cd1_0  1  0.47304669  0.02695330  0.12500000  1
  Cd  Cd1_1  1  0.47304669  0.02695330  0.62500000  1
  Cd  Cd1_2  1  0.47304670  0.52695330  0.12500000  1
  Cd  Cd1_3  1  0.47304670  0.52695330  0.62500000  1
  Cd  Cd1_4  1  0.97304669  0.02695330  0.12500000  1
  Cd  Cd1_5  1  0.97304669  0.02695330  0.62500000  1
  Cd  Cd1_6  1  0.97304670  0.52695330  0.12500000  1
  Cd  Cd1_7  1  0.97304670  0.52695330  0.62500000  1
  Cd  Cd2_0  1  0.02695331  0.47304670  0.37500000  1
  Cd  Cd2_1  1  0.02695331  0.47304670  0.87500000  1
  Cd  Cd2_2  1  0.02695331  0.97304669  0.37500000  1
  Cd  Cd2_3  1  0.02695331  0.97304669  0.87500000  1
  Cd  Cd2_4  1  0.52695330  0.47304669  0.37500000  1
  Cd  Cd2_5  1  0.52695330  0.47304669  0.87500000  1
  Cd  Cd2_6  1  0.52695331  0.97304670  0.37500000  1
  Cd  Cd2_7  1  0.52695331  0.97304670  0.87500000  1
  Cd  Cd3_0  1  0.19206691  0.30793309  0.37500000  1
  Cd  Cd3_1  1  0.19206691  0.30793309  0.87500000  1
  Cd  Cd3_2  1  0.19206691  0.80793309  0.37500000  1
  Cd  Cd3_3  1  0.19206691  0.80793309  0.87500000  1
  Cd  Cd3_4  1  0.69206691  0.30793309  0.37500000  1
  Cd  Cd3_5  1  0.69206691  0.30793309  0.87500000  1
  Cd  Cd3_6  1  0.69206691  0.80793309  0.37500000  1
  Cd  Cd3_7  1  0.69206691  0.80793309  0.87500000  1
loop_
_geom_bond_atom_site_label_1
_geom_bond_atom_site_label_2
_geom_bond_distance
_geom_bond_site_symmetry_2
Cd0_0 Mg1_1 3.036761 1_554
Cd0_0 Mg1_0 3.036761 1_555
Cd0_0 Mg0_4 3.038604 1_555
Cd0_0 Mg0_2 3.038604 1_545
Cd0_0 Cd1_2 3.111051 1_555
Cd0_0 Cd1_4 3.111051 1_455
Cd0_0 Cd2_2 3.168633 1_545
Cd0_0 Cd2_3 3.168633 1_544
Cd0_0 Cd2_4 3.168633 1_555
Cd0_0 Cd2_5 3.168633 1_554
Cd0_0 Cd0_6 3.187505 1_555
Cd0_0 Cd0_6 3.187505 1_445
Cd0_1 Mg1_0 3.036761 1_555
Cd0_1 Mg1_1 3.036761 1_555
Cd0_1 Mg0_5 3.038604 1_555
Cd0_1 Mg0_3 3.038604 1_545
Cd0_1 Cd1_3 3.111051 1_555
Cd0_1 Cd1_5 3.111051 1_455
Cd0_1 Cd2_2 3.168633 1_545
Cd0_1 Cd2_3 3.168633 1_545
Cd0_1 Cd2_4 3.168633 1_555
Cd0_1 Cd2_5 3.168633 1_555
Cd0_1 Cd0_7 3.187505 1_555
Cd0_1 Cd0_7 3.187505 1_445
Cd0_2 Mg1_2 3.036761 1_555
Cd0_2 Mg1_3 3.036761 1_554
Cd0_2 Mg0_0 3.038604 1_555
Cd0_2 Mg0_6 3.038604 1_555
Cd0_2 Cd1_6 3.111051 1_455
Cd0_2 Cd1_0 3.111051 1_565
Cd0_2 Cd2_1 3.168633 1_554
Cd0_2 Cd2_7 3.168633 1_554
Cd0_2 Cd2_6 3.168633 1_555
Cd0_2 Cd2_0 3.168633 1_555
Cd0_2 Cd0_4 3.187505 1_565
Cd0_2 Cd0_4 3.187505 1_455
Cd0_3 Mg1_3 3.036761 1_555
Cd0_3 Mg1_2 3.036761 1_555
Cd0_3 Mg0_1 3.038604 1_555
Cd0_3 Mg0_7 3.038604 1_555
Cd0_3 Cd1_7 3.111051 1_455
Cd0_3 Cd1_1 3.111051 1_565
Cd0_3 Cd2_7 3.168633 1_555
Cd0_3 Cd2_1 3.168633 1_555
Cd0_3 Cd2_6 3.168633 1_555
Cd0_3 Cd2_0 3.168633 1_555
Cd0_3 Cd0_5 3.187505 1_565
Cd0_3 Cd0_5 3.187505 1_455
Cd0_4 Mg1_4 3.036761 1_555
Cd0_4 Mg1_5 3.036761 1_554
Cd0_4 Mg0_0 3.038604 1_655
Cd0_4 Mg0_6 3.038604 1_545
Cd0_4 Cd1_6 3.111051 1_555
Cd0_4 Cd1_0 3.111051 1_555
Cd0_4 Cd2_6 3.168633 1_545
Cd0_4 Cd2_7 3.168633 1_544
Cd0_4 Cd2_0 3.168633 1_655
Cd0_4 Cd2_1 3.168633 1_654
Cd0_5 Mg1_5 3.036761 1_555
Cd0_5 Mg1_4 3.036761 1_555
Cd0_5 Mg0_1 3.038604 1_655
Cd0_5 Mg0_7 3.038604 1_545
Cd0_5 Cd1_7 3.111051 1_555
Cd0_5 Cd1_1 3.111051 1_555
Cd0_5 Cd2_6 3.168633 1_545
Cd0_5 Cd2_7 3.168633 1_545
Cd0_5 Cd2_1 3.168633 1_655
Cd0_5 Cd2_0 3.168633 1_655
Cd0_6 Mg1_6 3.036761 1_555
Cd0_6 Mg1_7 3.036761 1_554
Cd0_6 Mg0_4 3.038604 1_555
Cd0_6 Mg0_2 3.038604 1_655
Cd0_6 Cd1_4 3.111051 1_565
Cd0_6 Cd1_2 3.111051 1_555
Cd0_6 Cd2_2 3.168633 1_655
Cd0_6 Cd2_3 3.168633 1_654
Cd0_6 Cd2_4 3.168633 1_555
Cd0_6 Cd2_5 3.168633 1_554
Cd0_7 Mg1_6 3.036761 1_555
Cd0_7 Mg1_7 3.036761 1_555
Cd0_7 Mg0_5 3.038604 1_555
Cd0_7 Mg0_3 3.038604 1_655
Cd0_7 Cd1_3 3.111051 1_555
Cd0_7 Cd1_5 3.111051 1_565
Cd0_7 Cd2_2 3.168633 1_655
Cd0_7 Cd2_3 3.168633 1_655
Cd0_7 Cd2_4 3.168633 1_555
Cd0_7 Cd2_5 3.168633 1_555
Cd1_0 Mg0_2 3.058029 1_545
Cd1_0 Mg0_4 3.058029 1_555
Cd1_0 Cd2_6 3.070544 1_545
Cd1_0 Cd2_7 3.070544 1_544
Cd1_0 Cd3_3 3.168633 1_544
Cd1_0 Cd3_2 3.168633 1_545
Cd1_0 Cd3_4 3.168633 1_555
Cd1_0 Cd3_5 3.168633 1_554
Cd1_0 Cd1_6 3.187505 1_445
Cd1_0 Cd1_6 3.187505 1_555
Cd1_1 Mg0_3 3.058029 1_545
Cd1_1 Mg0_5 3.058029 1_555
Cd1_1 Cd2_7 3.070544 1_545
Cd1_1 Cd2_6 3.070544 1_545
Cd1_1 Cd3_3 3.168633 1_545
Cd1_1 Cd3_2 3.168633 1_545
Cd1_1 Cd3_5 3.168633 1_555
Cd1_1 Cd3_4 3.168633 1_555
Cd1_1 Cd1_7 3.187505 1_445
Cd1_1 Cd1_7 3.187505 1_555
Cd1_2 Mg0_6 3.058029 1_555
Cd1_2 Mg0_0 3.058029 1_555
Cd1_2 Cd2_5 3.070544 1_554
Cd1_2 Cd2_4 3.070544 1_555
Cd1_2 Cd3_0 3.168633 1_555
Cd1_2 Cd3_1 3.168633 1_554
Cd1_2 Cd3_6 3.168633 1_555
Cd1_2 Cd3_7 3.168633 1_554
Cd1_2 Cd1_4 3.187505 1_565
Cd1_2 Cd1_4 3.187505 1_455
Cd1_3 Mg0_7 3.058029 1_555
Cd1_3 Mg0_1 3.058029 1_555
Cd1_3 Cd2_5 3.070544 1_555
Cd1_3 Cd2_4 3.070544 1_555
Cd1_3 Cd3_0 3.168633 1_555
Cd1_3 Cd3_1 3.168633 1_555
Cd1_3 Cd3_6 3.168633 1_555
Cd1_3 Cd3_7 3.168633 1_555
Cd1_3 Cd1_5 3.187505 1_565
Cd1_3 Cd1_5 3.187505 1_455
Cd1_4 Mg0_6 3.058029 1_545
Cd1_4 Mg0_0 3.058029 1_655
Cd1_4 Cd2_3 3.070544 1_644
Cd1_4 Cd2_2 3.070544 1_645
Cd1_4 Cd3_6 3.168633 1_545
Cd1_4 Cd3_7 3.168633 1_544
Cd1_4 Cd3_0 3.168633 1_655
Cd1_4 Cd3_1 3.168633 1_654
Cd1_5 Mg0_7 3.058029 1_545
Cd1_5 Mg0_1 3.058029 1_655
Cd1_5 Cd2_3 3.070544 1_645
Cd1_5 Cd2_2 3.070544 1_645
Cd1_5 Cd3_6 3.168633 1_545
Cd1_5 Cd3_7 3.168633 1_545
Cd1_5 Cd3_0 3.168633 1_655
Cd1_5 Cd3_1 3.168633 1_655
Cd1_6 Mg0_2 3.058029 1_655
Cd1_6 Mg0_4 3.058029 1_555
Cd1_6 Cd2_0 3.070544 1_655
Cd1_6 Cd2_1 3.070544 1_654
Cd1_6 Cd3_3 3.168633 1_654
Cd1_6 Cd3_2 3.168633 1_655
Cd1_6 Cd3_5 3.168633 1_554
Cd1_6 Cd3_4 3.168633 1_555
Cd1_7 Mg0_3 3.058029 1_655
Cd1_7 Mg0_5 3.058029 1_555
Cd1_7 Cd2_0 3.070544 1_655
Cd1_7 Cd2_1 3.070544 1_655
Cd1_7 Cd3_3 3.168633 1_655
Cd1_7 Cd3_2 3.168633 1_655
Cd1_7 Cd3_4 3.168633 1_555
Cd1_7 Cd3_5 3.168633 1_555
Cd2_0 Mg1_4 3.058029 1_455
Cd2_0 Mg1_2 3.058029 1_555
Cd2_0 Cd3_2 3.111051 1_555
Cd2_0 Cd3_4 3.111051 1_455
Cd2_0 Cd2_6 3.187505 1_445
Cd2_0 Cd2_6 3.187505 1_555
Cd2_1 Mg1_5 3.058029 1_455
Cd2_1 Mg1_3 3.058029 1_555
Cd2_1 Cd3_3 3.111051 1_555
Cd2_1 Cd3_5 3.111051 1_455
Cd2_1 Cd2_7 3.187505 1_445
Cd2_1 Cd2_7 3.187505 1_555
Cd2_2 Mg1_0 3.058029 1_565
Cd2_2 Mg1_6 3.058029 1_455
Cd2_2 Cd3_0 3.111051 1_565
Cd2_2 Cd3_6 3.111051 1_455
Cd2_2 Cd2_4 3.187505 1_565
Cd2_2 Cd2_4 3.187505 1_455
Cd2_3 Mg1_1 3.058029 1_565
Cd2_3 Mg1_7 3.058029 1_455
Cd2_3 Cd3_7 3.111051 1_455
Cd2_3 Cd3_1 3.111051 1_565
Cd2_3 Cd2_5 3.187505 1_565
Cd2_3 Cd2_5 3.187505 1_455
Cd2_4 Mg1_0 3.058029 1_555
Cd2_4 Mg1_6 3.058029 1_555
Cd2_4 Cd3_6 3.111051 1_555
Cd2_4 Cd3_0 3.111051 1_555
Cd2_5 Mg1_1 3.058029 1_555
Cd2_5 Mg1_7 3.058029 1_555
Cd2_5 Cd3_7 3.111051 1_555
Cd2_5 Cd3_1 3.111051 1_555
Cd2_6 Mg1_4 3.058029 1_565
Cd2_6 Mg1_2 3.058029 1_555
Cd2_6 Cd3_2 3.111051 1_555
Cd2_6 Cd3_4 3.111051 1_565
Cd2_7 Mg1_5 3.058029 1_565
Cd2_7 Mg1_3 3.058029 1_555
Cd2_7 Cd3_3 3.111051 1_555
Cd2_7 Cd3_5 3.111051 1_565
Cd3_0 Mg0_1 3.036761 1_555
Cd3_0 Mg0_0 3.036761 1_555
Cd3_0 Mg1_2 3.038604 1_555
Cd3_0 Mg1_4 3.038604 1_455
Cd3_0 Cd3_6 3.187505 1_445
Cd3_0 Cd3_6 3.187505 1_555
Cd3_1 Mg0_1 3.036761 1_555
Cd3_1 Mg0_0 3.036761 1_556
Cd3_1 Mg1_3 3.038604 1_555
Cd3_1 Mg1_5 3.038604 1_455
Cd3_1 Cd3_7 3.187505 1_445
Cd3_1 Cd3_7 3.187505 1_555
Cd3_2 Mg0_2 3.036761 1_555
Cd3_2 Mg0_3 3.036761 1_555
Cd3_2 Mg1_6 3.038604 1_455
Cd3_2 Mg1_0 3.038604 1_565
Cd3_2 Cd3_4 3.187505 1_565
Cd3_2 Cd3_4 3.187505 1_455
Cd3_3 Mg0_3 3.036761 1_555
Cd3_3 Mg0_2 3.036761 1_556
Cd3_3 Mg1_7 3.038604 1_455
Cd3_3 Mg1_1 3.038604 1_565
Cd3_3 Cd3_5 3.187505 1_565
Cd3_3 Cd3_5 3.187505 1_455
Cd3_4 Mg0_5 3.036761 1_555
Cd3_4 Mg0_4 3.036761 1_555
Cd3_4 Mg1_6 3.038604 1_555
Cd3_4 Mg1_0 3.038604 1_555
Cd3_5 Mg0_5 3.036761 1_555
Cd3_5 Mg0_4 3.036761 1_556
Cd3_5 Mg1_7 3.038604 1_555
Cd3_5 Mg1_1 3.038604 1_555
Cd3_6 Mg0_6 3.036761 1_555
Cd3_6 Mg0_7 3.036761 1_555
Cd3_6 Mg1_2 3.038604 1_555
Cd3_6 Mg1_4 3.038604 1_565
Cd3_7 Mg0_6 3.036761 1_556
Cd3_7 Mg0_7 3.036761 1_555
Cd3_7 Mg1_3 3.038604 1_555
Cd3_7 Mg1_5 3.038604 1_565
