# generated using pymatgen
data_Na3Mo15Se19
_symmetry_space_group_name_H-M   'P 1'
_cell_length_a   9.92306940
_cell_length_b   9.85890051
_cell_length_c   19.82190827
_cell_angle_alpha   90.00000000
_cell_angle_beta   90.00000000
_cell_angle_gamma   59.48534192
_symmetry_Int_Tables_number   1
_chemical_formula_structural   Na3Mo15Se19
_chemical_formula_sum   'Na6 Mo30 Se38'
_cell_volume   1670.60930914
_cell_formula_units_Z   2
loop_
 _symmetry_equiv_pos_site_id
 _symmetry_equiv_pos_as_xyz
  1  'x, y, z'
loop_
 _atom_site_type_symbol
 _atom_site_label
 _atom_site_symmetry_multiplicity
 _atom_site_fract_x
 _atom_site_fract_y
 _atom_site_fract_z
 _atom_site_occupancy
  Na  Na0  1  0.33559079  0.33001480  0.62077140  1
  Na  Na1  1  0.66440921  0.66998520  0.12077140  1
  Na  Na2  1  0.66440921  0.66998520  0.37922860  1
  Na  Na3  1  0.33559079  0.33001480  0.87922860  1
  Na  Na4  1  0.04482341  0.78268057  0.75000000  1
  Na  Na5  1  0.95517659  0.21731943  0.25000000  1
  Mo  Mo0  1  0.51271736  0.83091393  0.75000000  1
  Mo  Mo1  1  0.65712110  0.51152585  0.75000000  1
  Mo  Mo2  1  0.82762690  0.65188992  0.75000000  1
  Mo  Mo3  1  0.48728264  0.16908607  0.25000000  1
  Mo  Mo4  1  0.34287890  0.48847415  0.25000000  1
  Mo  Mo5  1  0.17237310  0.34811008  0.25000000  1
  Mo  Mo6  1  0.50344243  0.68587178  0.63439619  1
  Mo  Mo7  1  0.81080577  0.50081448  0.63424433  1
  Mo  Mo8  1  0.68249277  0.81107677  0.63516139  1
  Mo  Mo9  1  0.49655757  0.31412822  0.13439619  1
  Mo  Mo10  1  0.18919423  0.49918552  0.13424433  1
  Mo  Mo11  1  0.31750723  0.18892323  0.13516139  1
  Mo  Mo12  1  0.49655757  0.31412822  0.36560381  1
  Mo  Mo13  1  0.18919423  0.49918552  0.36575567  1
  Mo  Mo14  1  0.31750723  0.18892323  0.36483861  1
  Mo  Mo15  1  0.50344243  0.68587178  0.86560381  1
  Mo  Mo16  1  0.81080577  0.50081448  0.86575567  1
  Mo  Mo17  1  0.68249277  0.81107677  0.86483861  1
  Mo  Mo18  1  0.16787710  0.98421935  0.55709154  1
  Mo  Mo19  1  0.84845877  0.16896262  0.55640383  1
  Mo  Mo20  1  0.98655727  0.85430725  0.55729642  1
  Mo  Mo21  1  0.83212290  0.01578065  0.05709154  1
  Mo  Mo22  1  0.15154123  0.83103738  0.05640383  1
  Mo  Mo23  1  0.01344273  0.14569275  0.05729642  1
  Mo  Mo24  1  0.83212290  0.01578065  0.44290846  1
  Mo  Mo25  1  0.15154123  0.83103738  0.44359617  1
  Mo  Mo26  1  0.01344273  0.14569275  0.44270358  1
  Mo  Mo27  1  0.16787710  0.98421935  0.94290846  1
  Mo  Mo28  1  0.84845877  0.16896262  0.94359617  1
  Mo  Mo29  1  0.98655727  0.85430725  0.94270358  1
  Se  Se0  1  0.35755549  0.68597933  0.75000000  1
  Se  Se1  1  0.95960046  0.34823453  0.75000000  1
  Se  Se2  1  0.68501041  0.95947092  0.75000000  1
  Se  Se3  1  0.64244451  0.31402067  0.25000000  1
  Se  Se4  1  0.04039954  0.65176547  0.25000000  1
  Se  Se5  1  0.31498959  0.04052908  0.25000000  1
  Se  Se6  1  0.29072750  0.67895478  0.55187424  1
  Se  Se7  1  0.03183340  0.28732270  0.54929806  1
  Se  Se8  1  0.68015025  0.03368156  0.55106493  1
  Se  Se9  1  0.70927250  0.32104522  0.05187424  1
  Se  Se10  1  0.96816660  0.71267730  0.04929806  1
  Se  Se11  1  0.31984975  0.96631844  0.05106493  1
  Se  Se12  1  0.70927250  0.32104522  0.44812576  1
  Se  Se13  1  0.96816660  0.71267730  0.45070194  1
  Se  Se14  1  0.31984975  0.96631844  0.44893507  1
  Se  Se15  1  0.29072750  0.67895478  0.94812576  1
  Se  Se16  1  0.03183340  0.28732270  0.95070194  1
  Se  Se17  1  0.68015025  0.03368156  0.94893507  1
  Se  Se18  1  0.99922865  0.01598134  0.65837599  1
  Se  Se19  1  0.00077135  0.98401866  0.15837599  1
  Se  Se20  1  0.00077135  0.98401866  0.34162401  1
  Se  Se21  1  0.99922865  0.01598134  0.84162401  1
  Se  Se22  1  0.37478487  0.99428286  0.64334332  1
  Se  Se23  1  0.63009472  0.37723283  0.64255525  1
  Se  Se24  1  0.99307177  0.62310901  0.64055271  1
  Se  Se25  1  0.62521513  0.00571714  0.14334332  1
  Se  Se26  1  0.36990528  0.62276717  0.14255525  1
  Se  Se27  1  0.00692823  0.37689099  0.14055271  1
  Se  Se28  1  0.62521513  0.00571714  0.35665668  1
  Se  Se29  1  0.36990528  0.62276717  0.35744475  1
  Se  Se30  1  0.00692823  0.37689099  0.35944729  1
  Se  Se31  1  0.37478487  0.99428286  0.85665668  1
  Se  Se32  1  0.63009472  0.37723283  0.85744475  1
  Se  Se33  1  0.99307177  0.62310901  0.85944729  1
  Se  Se34  1  0.33263447  0.33378800  0.03181811  1
  Se  Se35  1  0.66736553  0.66621200  0.53181811  1
  Se  Se36  1  0.66736553  0.66621200  0.96818189  1
  Se  Se37  1  0.33263447  0.33378800  0.46818189  1
loop_
_geom_bond_atom_site_label_1
_geom_bond_atom_site_label_2
_geom_bond_distance
_geom_bond_site_symmetry_2
Na0 Se37 3.024803 1_555
Na0 Se22 3.162262 1_545
Na0 Se24 3.175205 1_455
Na0 Se23 3.213255 1_555
Na0 Se8 3.462750 1_555
Na0 Se6 3.513221 1_555
Na0 Se7 3.543740 1_555
Na1 Se36 3.024803 1_554
Na1 Se25 3.162262 1_565
Na1 Se27 3.175205 1_655
Na1 Se26 3.213255 1_555
Na1 Se11 3.462750 1_555
Na1 Se9 3.513221 1_555
Na1 Se10 3.543740 1_555
Na2 Se35 3.024803 1_555
Na2 Se28 3.162262 1_565
Na2 Se30 3.175205 1_655
Na2 Se29 3.213255 1_555
Na2 Se14 3.462750 1_555
Na2 Se12 3.513221 1_555
Na2 Se13 3.543740 1_555
Na3 Se34 3.024803 1_556
Na3 Se31 3.162262 1_545
Na3 Se33 3.175205 1_455
Na3 Se32 3.213255 1_555
Na3 Se17 3.462750 1_555
Na3 Se15 3.513221 1_555
Na3 Se16 3.543740 1_555
Na4 Se0 2.744938 1_555
Na4 Se21 2.781503 1_465
Na4 Se18 2.781503 1_465
Na4 Se33 2.875002 1_455
Na4 Se24 2.875002 1_455
Na4 Se2 3.076735 1_455
Na5 Se3 2.744938 1_555
Na5 Se19 2.781503 1_645
Na5 Se20 2.781503 1_645
Na5 Se27 2.875002 1_655
Na5 Se30 2.875002 1_655
Na5 Se5 3.076735 1_655
Mo0 Se0 2.578090 1_555
Mo0 Se22 2.588128 1_555
Mo0 Se31 2.588128 1_555
Mo0 Se2 2.594204 1_555
Mo0 Mo2 2.697971 1_555
Mo1 Se0 2.569543 1_555
Mo1 Se1 2.587234 1_555
Mo1 Se23 2.592549 1_555
Mo1 Se32 2.592549 1_555
Mo1 Mo2 2.674951 1_555
Mo2 Se1 2.587654 1_555
Mo2 Se2 2.615386 1_555
Mo2 Se24 2.647495 1_555
Mo2 Se33 2.647495 1_555
Mo2 Mo8 2.724607 1_555
Mo2 Mo7 2.786302 1_555
Mo2 Na4 3.021595 1_655
Mo3 Se3 2.578090 1_555
Mo3 Se25 2.588128 1_555
Mo3 Se28 2.588128 1_555
Mo3 Se5 2.594204 1_555
Mo3 Mo5 2.697971 1_555
Mo4 Se3 2.569543 1_555
Mo4 Se4 2.587234 1_555
Mo4 Se26 2.592549 1_555
Mo4 Se29 2.592549 1_555
Mo4 Mo5 2.674951 1_555
Mo5 Se4 2.587654 1_555
Mo5 Se5 2.615386 1_555
Mo5 Se27 2.647495 1_555
Mo5 Se30 2.647495 1_555
Mo5 Na5 3.021595 1_455
Mo6 Se35 2.549034 1_555
Mo6 Se22 2.639029 1_555
Mo6 Se23 2.642160 1_555
Mo6 Se6 2.698498 1_555
Mo6 Se0 2.710173 1_555
Mo7 Se35 2.539683 1_555
Mo7 Se23 2.635506 1_555
Mo7 Se24 2.637232 1_555
Mo7 Se7 2.718042 1_655
Mo7 Se1 2.729850 1_555
Mo8 Se35 2.544841 1_555
Mo8 Se22 2.647889 1_555
Mo8 Se24 2.672796 1_555
Mo8 Se2 2.712887 1_555
Mo8 Se8 2.746617 1_565
Mo9 Se34 2.549034 1_555
Mo9 Se25 2.639029 1_555
Mo9 Se26 2.642160 1_555
Mo9 Se9 2.698498 1_555
Mo9 Se3 2.710173 1_555
Mo10 Se34 2.539683 1_555
Mo10 Se26 2.635506 1_555
Mo10 Se27 2.637232 1_555
Mo10 Se10 2.718042 1_455
Mo10 Se4 2.729850 1_555
Mo10 Mo5 2.786302 1_555
Mo11 Se34 2.544841 1_555
Mo11 Se25 2.647889 1_555
Mo11 Se27 2.672796 1_555
Mo11 Se5 2.712887 1_555
Mo11 Mo5 2.724607 1_555
Mo11 Se11 2.746617 1_545
Mo12 Se37 2.549034 1_555
Mo12 Se28 2.639029 1_555
Mo12 Se29 2.642160 1_555
Mo12 Se12 2.698498 1_555
Mo12 Se3 2.710173 1_555
Mo13 Se37 2.539683 1_555
Mo13 Se29 2.635506 1_555
Mo13 Se30 2.637232 1_555
Mo13 Se13 2.718042 1_455
Mo13 Se4 2.729850 1_555
Mo13 Mo5 2.786302 1_555
Mo14 Se37 2.544841 1_555
Mo14 Se28 2.647889 1_555
Mo14 Se30 2.672796 1_555
Mo14 Se5 2.712887 1_555
Mo14 Mo5 2.724607 1_555
Mo14 Se14 2.746617 1_545
Mo15 Se36 2.549034 1_555
Mo15 Se31 2.639029 1_555
Mo15 Se32 2.642160 1_555
Mo15 Se15 2.698498 1_555
Mo15 Se0 2.710173 1_555
Mo16 Se36 2.539683 1_555
Mo16 Se32 2.635506 1_555
Mo16 Se33 2.637232 1_555
Mo16 Se16 2.718042 1_655
Mo16 Se1 2.729850 1_555
Mo16 Mo2 2.786302 1_555
Mo17 Se36 2.544841 1_555
Mo17 Se31 2.647889 1_555
Mo17 Se33 2.672796 1_555
Mo17 Se2 2.712887 1_555
Mo17 Mo2 2.724607 1_555
Mo17 Se17 2.746617 1_565
Mo18 Se18 2.529265 1_465
Mo18 Se14 2.575114 1_555
Mo18 Se7 2.584443 1_565
Mo18 Se6 2.613150 1_555
Mo18 Se22 2.712041 1_555
Mo19 Se18 2.511409 1_555
Mo19 Se12 2.580544 1_555
Mo19 Se8 2.615614 1_555
Mo19 Se7 2.617034 1_655
Mo19 Se23 2.703562 1_555
Mo20 Se13 2.589622 1_555
Mo20 Se18 2.602753 1_565
Mo20 Se6 2.609872 1_655
Mo20 Se8 2.631898 1_565
Mo20 Se24 2.788102 1_555
Mo21 Se19 2.529265 1_645
Mo21 Se17 2.575114 1_554
Mo21 Se10 2.584443 1_545
Mo21 Se9 2.613150 1_555
Mo21 Se25 2.712041 1_555
Mo22 Se19 2.511409 1_555
Mo22 Se15 2.580544 1_554
Mo22 Se11 2.615614 1_555
Mo22 Se10 2.617034 1_455
Mo22 Se26 2.703562 1_555
Mo23 Se16 2.589622 1_554
Mo23 Se19 2.602753 1_545
Mo23 Se9 2.609872 1_455
Mo23 Se11 2.631898 1_545
Mo23 Se27 2.788102 1_555
Mo24 Se20 2.529265 1_645
Mo24 Se8 2.575114 1_555
Mo24 Se13 2.584443 1_545
Mo24 Se12 2.613150 1_555
Mo24 Se28 2.712041 1_555
Mo25 Se20 2.511409 1_555
Mo25 Se6 2.580544 1_555
Mo25 Se14 2.615614 1_555
Mo25 Se13 2.617034 1_455
Mo25 Se29 2.703562 1_555
Mo26 Se7 2.589622 1_555
Mo26 Se20 2.602753 1_545
Mo26 Se12 2.609872 1_455
Mo26 Se14 2.631898 1_545
Mo26 Se30 2.788102 1_555
Mo27 Se21 2.529265 1_465
Mo27 Se11 2.575114 1_556
Mo27 Se16 2.584443 1_565
Mo27 Se15 2.613150 1_555
Mo27 Se31 2.712041 1_555
Mo28 Se21 2.511409 1_555
Mo28 Se9 2.580544 1_556
Mo28 Se17 2.615614 1_555
Mo28 Se16 2.617034 1_655
Mo28 Se32 2.703562 1_555
Mo29 Se10 2.589622 1_556
Mo29 Se21 2.602753 1_565
Mo29 Se15 2.609872 1_655
Mo29 Se17 2.631898 1_565
Mo29 Se33 2.788102 1_555
