# generated using pymatgen
data_Li(TiTe2)5
_symmetry_space_group_name_H-M   'P 1'
_cell_length_a   6.62770171
_cell_length_b   7.99015115
_cell_length_c   9.66371987
_cell_angle_alpha   110.76364334
_cell_angle_beta   110.18891833
_cell_angle_gamma   89.85803917
_symmetry_Int_Tables_number   1
_chemical_formula_structural   Li(TiTe2)5
_chemical_formula_sum   'Li1 Ti5 Te10'
_cell_volume   444.90771388
_cell_formula_units_Z   1
loop_
 _symmetry_equiv_pos_site_id
 _symmetry_equiv_pos_as_xyz
  1  'x, y, z'
loop_
 _atom_site_type_symbol
 _atom_site_label
 _atom_site_symmetry_multiplicity
 _atom_site_fract_x
 _atom_site_fract_y
 _atom_site_fract_z
 _atom_site_occupancy
  Li  Li0  1  -0.00000000  0.50000000  0.00000000  1
  Ti  Ti0  1  0.70571428  0.39886597  0.40002371  1
  Ti  Ti1  1  0.29428572  0.60113403  0.59997629  1
  Ti  Ti2  1  0.50000000  -0.00000000  0.00000000  1
  Ti  Ti3  1  0.89394489  0.79763625  0.79722713  1
  Ti  Ti4  1  0.10605511  0.20236375  0.20277287  1
  Te  Te0  1  0.28389249  0.65582272  0.89659434  1
  Te  Te1  1  0.48377017  0.05525599  0.29644576  1
  Te  Te2  1  0.67626481  0.45197225  0.69234534  1
  Te  Te3  1  0.88261737  0.85935147  0.09895964  1
  Te  Te4  1  0.08436678  0.25426611  0.49680711  1
  Te  Te5  1  0.11738263  0.14064853  0.90104036  1
  Te  Te6  1  0.32373519  0.54802775  0.30765466  1
  Te  Te7  1  0.51622983  0.94474401  0.70355424  1
  Te  Te8  1  0.71610751  0.34417728  0.10340566  1
  Te  Te9  1  0.91563322  0.74573389  0.50319289  1
loop_
_geom_bond_atom_site_label_1
_geom_bond_atom_site_label_2
_geom_bond_distance
_geom_bond_site_symmetry_2
Li0 Te0 2.877584 1_554
Li0 Te8 2.877584 1_455
Li0 Te3 2.884368 1_455
Li0 Te5 2.884368 1_554
Li0 Te2 2.895213 1_454
Li0 Te6 2.895213 1_555
Te0 Ti1 2.767702 1_555
Te0 Ti2 2.774141 1_566
Te0 Ti3 2.815925 1_455
Te1 Ti4 2.764713 1_555
Te1 Ti2 2.780122 1_555
Te1 Ti0 2.785440 1_555
Te2 Ti0 2.780028 1_555
Te2 Ti3 2.786125 1_555
Te2 Ti1 2.793922 1_555
Te3 Ti2 2.771665 1_565
Te3 Ti4 2.784989 1_665
Te3 Ti3 2.807573 1_554
Te4 Ti0 2.763951 1_455
Te4 Ti4 2.777173 1_555
Te4 Ti1 2.777323 1_555
Te5 Ti2 2.771665 1_556
Te5 Ti3 2.784989 1_445
Te5 Ti4 2.807573 1_556
Te6 Ti1 2.780028 1_555
Te6 Ti4 2.786125 1_555
Te6 Ti0 2.793922 1_555
Te7 Ti3 2.764713 1_555
Te7 Ti2 2.780122 1_566
Te7 Ti1 2.785440 1_555
Te8 Ti0 2.767702 1_555
Te8 Ti2 2.774141 1_555
Te8 Ti4 2.815925 1_655
Te9 Ti1 2.763951 1_655
Te9 Ti3 2.777173 1_555
Te9 Ti0 2.777323 1_555
