# generated using pymatgen
data_K2SnHOF6
_symmetry_space_group_name_H-M   'P 1'
_cell_length_a   11.37385076
_cell_length_b   10.92864782
_cell_length_c   9.34736477
_cell_angle_alpha   67.72481704
_cell_angle_beta   62.76692733
_cell_angle_gamma   49.50825563
_symmetry_Int_Tables_number   1
_chemical_formula_structural   K2SnHOF6
_chemical_formula_sum   'K8 Sn4 H4 O4 F24'
_cell_volume   779.88108687
_cell_formula_units_Z   4
loop_
 _symmetry_equiv_pos_site_id
 _symmetry_equiv_pos_as_xyz
  1  'x, y, z'
loop_
 _atom_site_type_symbol
 _atom_site_label
 _atom_site_symmetry_multiplicity
 _atom_site_fract_x
 _atom_site_fract_y
 _atom_site_fract_z
 _atom_site_occupancy
  K  K0  1  0.24971500  0.49929300  0.74772800  1
  K  K1  1  0.50326400  0.74772800  0.49929300  1
  K  K2  1  0.75070700  0.00028500  0.74673600  1
  K  K3  1  0.50227200  0.74673600  0.00028500  1
  K  K4  1  0.65548900  0.34451100  0.34451100  1
  K  K5  1  0.09268800  0.90731200  0.90731200  1
  K  K6  1  0.34268800  0.15731200  0.15731200  1
  K  K7  1  0.90548900  0.59451100  0.59451100  1
  Sn  Sn0  1  0.59049900  0.40508100  0.84396100  1
  Sn  Sn1  1  0.16045900  0.84396100  0.40508100  1
  Sn  Sn2  1  0.40603900  0.08954100  0.65950100  1
  Sn  Sn3  1  0.84491900  0.65950100  0.08954100  1
  H  H0  1  0.75219300  0.14593500  0.11289400  1
  H  H1  1  0.98897900  0.11289400  0.14593500  1
  H  H2  1  0.13710600  0.26102100  0.49780700  1
  H  H3  1  0.10406500  0.49780700  0.26102100  1
  O  O0  1  0.83566700  0.08179900  0.16853800  1
  O  O1  1  0.91399600  0.16853800  0.08179900  1
  O  O2  1  0.16820100  0.41433300  0.33600400  1
  O  O3  1  0.08146200  0.33600400  0.41433300  1
  F  F0  1  0.67308400  0.54396300  0.75159300  1
  F  F1  1  0.03135900  0.75159300  0.54396300  1
  F  F2  1  0.49238600  0.28166000  0.92196800  1
  F  F3  1  0.30398600  0.92196800  0.28166000  1
  F  F4  1  0.32803200  0.94601400  0.75761400  1
  F  F5  1  0.96834000  0.75761400  0.94601400  1
  F  F6  1  0.49840700  0.21864100  0.57691600  1
  F  F7  1  0.70603700  0.57691600  0.21864100  1
  F  F8  1  0.57223400  0.40865900  0.06578500  1
  F  F9  1  0.95332200  0.06578500  0.40865900  1
  F  F10  1  0.80408800  0.18789600  0.82840100  1
  F  F11  1  0.17961400  0.82840100  0.18789600  1
  F  F12  1  0.42159900  0.07038600  0.44591200  1
  F  F13  1  0.06210400  0.44591200  0.07038600  1
  F  F14  1  0.18421500  0.29667800  0.67776600  1
  F  F15  1  0.84134100  0.67776600  0.29667800  1
  F  F16  1  0.36556600  0.60964900  0.86044600  1
  F  F17  1  0.16434000  0.86044600  0.60964900  1
  F  F18  1  0.60465300  0.41512400  0.61780500  1
  F  F19  1  0.36241800  0.61780500  0.41512400  1
  F  F20  1  0.63219500  0.88758200  0.64534700  1
  F  F21  1  0.83487600  0.64534700  0.88758200  1
  F  F22  1  0.38955400  0.08566000  0.88443400  1
  F  F23  1  0.64035100  0.88443400  0.08566000  1
loop_
_geom_bond_atom_site_label_1
_geom_bond_atom_site_label_2
_geom_bond_distance
_geom_bond_site_symmetry_2
K4 O0 2.828871 1_555
K4 O1 2.828871 1_555
K5 O0 2.811029 1_466
K5 O1 2.811029 1_466
K6 O2 2.811029 1_555
K6 O3 2.811029 1_555
K7 O2 2.828871 1_655
K7 O3 2.828871 1_655
H0 O0 0.987199 1_555
H1 O1 0.987207 1_555
H2 O3 0.987200 1_555
H3 O2 0.987206 1_555
F0 Sn0 2.011773 1_555
F0 K7 2.679105 1_555
F0 K3 2.875741 1_556
F0 K1 2.975423 1_555
F1 Sn1 2.011781 1_555
F1 K7 2.679095 1_455
F1 K2 2.875739 1_465
F1 K0 2.975429 1_555
F2 Sn0 2.015123 1_555
F2 K6 2.625946 1_556
F2 K2 2.907221 1_555
F2 K0 2.929131 1_555
F3 Sn1 2.015123 1_555
F3 K6 2.625946 1_565
F3 K3 2.907221 1_555
F3 K1 2.929131 1_555
F4 Sn2 2.015123 1_565
F4 K5 2.625946 1_555
F4 K1 2.907221 1_555
F4 K3 2.929131 1_556
F5 Sn3 2.015123 1_556
F5 K5 2.625946 1_655
F5 K0 2.907221 1_655
F5 K2 2.929131 1_565
F6 Sn2 2.011783 1_555
F6 K4 2.679098 1_555
F6 K0 2.875734 1_555
F6 K2 2.975423 1_555
F7 Sn3 2.011773 1_555
F7 K4 2.679105 1_555
F7 K1 2.875733 1_555
F7 K3 2.975431 1_555
F8 Sn0 2.000162 1_554
F8 K4 2.861320 1_555
F8 K3 3.093841 1_555
F9 Sn1 2.000162 1_645
F9 K4 2.861320 1_555
F9 K2 3.093841 1_555
F10 Sn0 2.001626 1_555
F10 K5 2.855018 1_645
F10 K2 2.895270 1_555
F11 Sn1 2.001630 1_555
F11 K5 2.855012 1_554
F11 K3 2.895279 1_555
F12 Sn2 2.001621 1_555
F12 K6 2.855021 1_555
F12 K1 2.895280 1_545
F13 Sn3 2.001626 1_455
F13 K6 2.855015 1_555
F13 K0 2.895276 1_554
F14 Sn2 2.000162 1_555
F14 K7 2.861320 1_455
F14 K0 3.093841 1_555
F15 Sn3 2.000162 1_555
F15 K7 2.861320 1_555
F15 K1 3.093841 1_555
F16 Sn0 2.009857 1_555
F16 K5 2.670406 1_555
F16 K0 2.932350 1_555
F16 K1 3.239541 1_555
F17 Sn1 2.009863 1_555
F17 K5 2.670403 1_555
F17 K1 2.932340 1_555
F17 K0 3.239545 1_555
F18 Sn0 2.010568 1_555
F18 K4 2.649327 1_555
F18 K1 2.905581 1_555
F18 K0 3.186801 1_555
F19 Sn1 2.010568 1_555
F19 K4 2.649327 1_555
F19 K0 2.905581 1_555
F19 K1 3.186801 1_555
F20 Sn2 2.010568 1_565
F20 K7 2.649327 1_555
F20 K2 2.905581 1_565
F20 K3 3.186801 1_556
F21 Sn3 2.010568 1_556
F21 K7 2.649327 1_555
F21 K3 2.905581 1_556
F21 K2 3.186801 1_565
F22 Sn2 2.009854 1_555
F22 K6 2.670412 1_556
F22 K3 2.932341 1_546
F22 K2 3.239546 1_555
F23 Sn3 2.009858 1_555
F23 K6 2.670407 1_565
F23 K2 2.932343 1_564
F23 K3 3.239535 1_555
