# generated using pymatgen
data_BaEu2PdO5
_symmetry_space_group_name_H-M   'P 1'
_cell_length_a   6.77868300
_cell_length_b   6.77868300
_cell_length_c   5.93051100
_cell_angle_alpha   90.00000000
_cell_angle_beta   90.00000000
_cell_angle_gamma   90.00000000
_symmetry_Int_Tables_number   1
_chemical_formula_structural   BaEu2PdO5
_chemical_formula_sum   'Ba2 Eu4 Pd2 O10'
_cell_volume   272.51020199
_cell_formula_units_Z   2
loop_
 _symmetry_equiv_pos_site_id
 _symmetry_equiv_pos_as_xyz
  1  'x, y, z'
loop_
 _atom_site_type_symbol
 _atom_site_label
 _atom_site_symmetry_multiplicity
 _atom_site_fract_x
 _atom_site_fract_y
 _atom_site_fract_z
 _atom_site_occupancy
  Ba  Ba0  1  0.00000000  0.00000000  0.00000000  1
  Ba  Ba1  1  0.50000000  0.50000000  0.00000000  1
  Eu  Eu0  1  0.32453200  0.17546800  0.50000000  1
  Eu  Eu1  1  0.67546800  0.82453200  0.50000000  1
  Eu  Eu2  1  0.82453200  0.32453200  0.50000000  1
  Eu  Eu3  1  0.17546800  0.67546800  0.50000000  1
  Pd  Pd0  1  0.50000000  0.00000000  0.00000000  1
  Pd  Pd1  1  0.00000000  0.50000000  0.00000000  1
  O  O0  1  0.14008900  0.35991100  0.75022900  1
  O  O1  1  0.64008900  0.14008900  0.24977100  1
  O  O2  1  0.85991100  0.64008900  0.75022900  1
  O  O3  1  0.14008900  0.35991100  0.24977100  1
  O  O4  1  0.50000000  0.50000000  0.50000000  1
  O  O5  1  0.35991100  0.85991100  0.75022900  1
  O  O6  1  0.64008900  0.14008900  0.75022900  1
  O  O7  1  0.85991100  0.64008900  0.24977100  1
  O  O8  1  0.35991100  0.85991100  0.24977100  1
  O  O9  1  0.00000000  0.00000000  0.50000000  1
loop_
_geom_bond_atom_site_label_1
_geom_bond_atom_site_label_2
_geom_bond_distance
_geom_bond_site_symmetry_2
Ba0 O9 2.965256 1_555
Ba0 O9 2.965256 1_554
Ba0 O3 3.008020 1_555
Ba0 O1 3.008020 1_455
Ba0 O8 3.008020 1_545
Ba0 O7 3.008020 1_445
Ba0 O6 3.008020 1_454
Ba0 O0 3.008020 1_554
Ba0 O2 3.008020 1_444
Ba0 O5 3.008020 1_544
Ba1 O4 2.965256 1_555
Ba1 O4 2.965256 1_554
Ba1 O3 3.008020 1_555
Ba1 O7 3.008020 1_555
Ba1 O1 3.008020 1_555
Ba1 O8 3.008020 1_555
Ba1 O6 3.008020 1_554
Ba1 O2 3.008020 1_554
Ba1 O5 3.008020 1_554
Ba1 O0 3.008020 1_554
Eu0 O0 2.308380 1_555
Eu0 O3 2.308380 1_555
Eu0 O9 2.500866 1_555
Eu0 O4 2.500866 1_555
Eu0 O5 2.614443 1_545
Eu0 O8 2.614443 1_545
Eu0 O6 2.614443 1_555
Eu0 O1 2.614443 1_555
Eu1 O2 2.308380 1_555
Eu1 O7 2.308380 1_555
Eu1 O4 2.500866 1_555
Eu1 O9 2.500866 1_665
Eu1 O5 2.614443 1_555
Eu1 O8 2.614443 1_555
Eu1 O6 2.614443 1_565
Eu1 O1 2.614443 1_565
Eu2 O6 2.308380 1_555
Eu2 O1 2.308380 1_555
Eu2 O4 2.500866 1_555
Eu2 O9 2.500866 1_655
Eu2 O2 2.614443 1_555
Eu2 O7 2.614443 1_555
Eu2 O0 2.614443 1_655
Eu2 O3 2.614443 1_655
Eu3 O5 2.308380 1_555
Eu3 O8 2.308380 1_555
Eu3 O9 2.500866 1_565
Eu3 O4 2.500866 1_555
Eu3 O2 2.614443 1_455
Eu3 O7 2.614443 1_455
Eu3 O0 2.614443 1_555
Eu3 O3 2.614443 1_555
O0 Pd1 1.999428 1_556
O1 Pd0 1.999428 1_555
O2 Pd1 1.999428 1_656
O3 Pd1 1.999428 1_555
O5 Pd0 1.999428 1_566
O6 Pd0 1.999428 1_556
O7 Pd1 1.999428 1_655
O8 Pd0 1.999428 1_565
