# generated using pymatgen
data_SmTl(MoO4)2
_symmetry_space_group_name_H-M   'P 1'
_cell_length_a   5.11864368
_cell_length_b   8.09774810
_cell_length_c   18.66908537
_cell_angle_alpha   90.00000000
_cell_angle_beta   90.00000000
_cell_angle_gamma   90.00000000
_symmetry_Int_Tables_number   1
_chemical_formula_structural   SmTl(MoO4)2
_chemical_formula_sum   'Sm4 Tl4 Mo8 O32'
_cell_volume   773.82401385
_cell_formula_units_Z   4
loop_
 _symmetry_equiv_pos_site_id
 _symmetry_equiv_pos_as_xyz
  1  'x, y, z'
loop_
 _atom_site_type_symbol
 _atom_site_label
 _atom_site_symmetry_multiplicity
 _atom_site_fract_x
 _atom_site_fract_y
 _atom_site_fract_z
 _atom_site_occupancy
  Sm  Sm0  1  0.50000000  0.75000000  0.49340954  1
  Sm  Sm1  1  -0.00000000  0.25000000  0.00659046  1
  Sm  Sm2  1  0.50000000  0.25000000  0.50659046  1
  Sm  Sm3  1  -0.00000000  0.75000000  0.99340954  1
  Tl  Tl0  1  -0.00000000  0.75000000  0.23036828  1
  Tl  Tl1  1  0.50000000  0.25000000  0.26963172  1
  Tl  Tl2  1  -0.00000000  0.25000000  0.76963172  1
  Tl  Tl3  1  0.50000000  0.75000000  0.73036828  1
  Mo  Mo0  1  0.48141299  0.51680080  0.10110048  1
  Mo  Mo1  1  0.98141299  0.48319920  0.39889952  1
  Mo  Mo2  1  0.01858701  0.01680080  0.39889952  1
  Mo  Mo3  1  0.51858701  0.98319920  0.10110048  1
  Mo  Mo4  1  0.51858701  0.48319920  0.89889952  1
  Mo  Mo5  1  0.01858701  0.51680080  0.60110048  1
  Mo  Mo6  1  0.98141299  0.98319920  0.60110048  1
  Mo  Mo7  1  0.48141299  0.01680080  0.89889952  1
  O  O0  1  0.60872831  0.52436089  0.18656333  1
  O  O1  1  0.10872831  0.47563911  0.31343667  1
  O  O2  1  0.89127169  0.02436089  0.31343667  1
  O  O3  1  0.39127169  0.97563911  0.18656333  1
  O  O4  1  0.39127169  0.47563911  0.81343667  1
  O  O5  1  0.89127169  0.52436089  0.68656333  1
  O  O6  1  0.10872831  0.97563911  0.68656333  1
  O  O7  1  0.60872831  0.02436089  0.81343667  1
  O  O8  1  0.74754150  0.49722440  0.03577277  1
  O  O9  1  0.24754150  0.50277560  0.46422723  1
  O  O10  1  0.75245850  0.99722440  0.46422723  1
  O  O11  1  0.25245850  0.00277560  0.03577277  1
  O  O12  1  0.25245850  0.50277560  0.96422723  1
  O  O13  1  0.75245850  0.49722440  0.53577277  1
  O  O14  1  0.24754150  0.00277560  0.53577277  1
  O  O15  1  0.74754150  0.99722440  0.96422723  1
  O  O16  1  0.27704585  0.84179615  0.90067280  1
  O  O17  1  0.77704685  0.15820385  0.59932720  1
  O  O18  1  0.22295415  0.34179615  0.59932720  1
  O  O19  1  0.72295315  0.65820385  0.90067280  1
  O  O20  1  0.72295315  0.15820385  0.09932720  1
  O  O21  1  0.22295415  0.84179615  0.40067280  1
  O  O22  1  0.77704685  0.65820385  0.40067280  1
  O  O23  1  0.27704585  0.34179615  0.09932720  1
  O  O24  1  0.26250276  0.18766293  0.90798698  1
  O  O25  1  0.76250276  0.81233707  0.59201302  1
  O  O26  1  0.23749724  0.68766293  0.59201302  1
  O  O27  1  0.73749724  0.31233707  0.90798698  1
  O  O28  1  0.73749724  0.81233707  0.09201302  1
  O  O29  1  0.23749724  0.18766293  0.40798698  1
  O  O30  1  0.76250276  0.31233707  0.40798698  1
  O  O31  1  0.26250276  0.68766293  0.09201302  1
loop_
_geom_bond_atom_site_label_1
_geom_bond_atom_site_label_2
_geom_bond_distance
_geom_bond_site_symmetry_2
Mo0 O0 1.724558 1_555
Mo0 O23 1.761727 1_555
Mo0 O31 1.788491 1_555
Mo0 O8 1.835268 1_555
Mo1 O1 1.724558 1_655
Mo1 O22 1.761724 1_555
Mo1 O30 1.788491 1_555
Mo1 O9 1.835268 1_655
Mo2 O2 1.724558 1_455
Mo2 O21 1.761727 1_545
Mo2 O29 1.788491 1_555
Mo2 O10 1.835268 1_445
Mo3 O3 1.724558 1_555
Mo3 O20 1.761724 1_565
Mo3 O28 1.788491 1_555
Mo3 O11 1.835268 1_565
Mo4 O4 1.724558 1_555
Mo4 O19 1.761724 1_555
Mo4 O27 1.788491 1_555
Mo4 O12 1.835268 1_555
Mo5 O5 1.724558 1_455
Mo5 O18 1.761727 1_555
Mo5 O26 1.788491 1_555
Mo5 O13 1.835268 1_455
Mo6 O6 1.724558 1_655
Mo6 O17 1.761724 1_565
Mo6 O25 1.788491 1_555
Mo6 O14 1.835268 1_665
Mo7 O7 1.724558 1_555
Mo7 O16 1.761727 1_545
Mo7 O24 1.788491 1_555
Mo7 O15 1.835268 1_545
O0 Tl1 2.765995 1_555
O0 Tl0 2.831690 1_655
O1 Tl0 2.765995 1_555
O1 Tl1 2.831690 1_555
O2 Tl0 2.765995 1_645
O2 Tl1 2.831690 1_555
O3 Tl1 2.765995 1_565
O3 Tl0 2.831690 1_555
O4 Tl3 2.765995 1_555
O4 Tl2 2.831690 1_555
O5 Tl2 2.765995 1_655
O5 Tl3 2.831690 1_555
O6 Tl2 2.765995 1_565
O6 Tl3 2.831690 1_555
O7 Tl3 2.765995 1_545
O7 Tl2 2.831690 1_655
O8 Sm1 2.444291 1_655
O8 Sm3 2.546615 1_654
O9 Sm0 2.444291 1_555
O9 Sm2 2.546615 1_555
O10 Sm0 2.444291 1_555
O10 Sm2 2.546615 1_565
O11 Sm1 2.444291 1_555
O11 Sm3 2.546615 1_544
O12 Sm3 2.444291 1_555
O12 Sm1 2.546615 1_556
O13 Sm2 2.444291 1_555
O13 Sm0 2.546615 1_555
O14 Sm2 2.444291 1_555
O14 Sm0 2.546615 1_545
O15 Sm3 2.444291 1_655
O15 Sm1 2.546615 1_666
O16 Sm3 2.358177 1_555
O17 Sm2 2.358180 1_555
O18 Sm2 2.358177 1_555
O19 Sm3 2.358180 1_655
O20 Sm1 2.358180 1_655
O21 Sm0 2.358177 1_555
O22 Sm0 2.358180 1_555
O23 Sm1 2.358177 1_555
O24 Sm1 2.334290 1_556
O25 Sm0 2.334290 1_555
O26 Sm0 2.334290 1_555
O27 Sm1 2.334290 1_656
O28 Sm3 2.334290 1_654
O29 Sm2 2.334290 1_555
O30 Sm2 2.334290 1_555
O31 Sm3 2.334290 1_554
