# generated using pymatgen
data_AlNiO3
_symmetry_space_group_name_H-M   'P 1'
_cell_length_a   5.41073838
_cell_length_b   5.41073838
_cell_length_c   11.02935700
_cell_angle_alpha   90.00000000
_cell_angle_beta   90.00000000
_cell_angle_gamma   120.00000465
_symmetry_Int_Tables_number   1
_chemical_formula_structural   AlNiO3
_chemical_formula_sum   'Al6 Ni6 O18'
_cell_volume   279.63651207
_cell_formula_units_Z   6
loop_
 _symmetry_equiv_pos_site_id
 _symmetry_equiv_pos_as_xyz
  1  'x, y, z'
loop_
 _atom_site_type_symbol
 _atom_site_label
 _atom_site_symmetry_multiplicity
 _atom_site_fract_x
 _atom_site_fract_y
 _atom_site_fract_z
 _atom_site_occupancy
  Al  Al0  1  0.66666700  0.33333300  0.24383000  1
  Al  Al1  1  0.33333300  0.66666700  0.74383000  1
  Al  Al2  1  0.66666700  0.33333300  0.74383000  1
  Al  Al3  1  0.33333300  0.66666700  0.24383000  1
  Al  Al4  1  0.00000000  0.00000000  0.76494700  1
  Al  Al5  1  0.00000000  0.00000000  0.26494700  1
  Ni  Ni0  1  0.66713700  0.00000000  0.50105000  1
  Ni  Ni1  1  0.66713700  0.66713700  0.00105000  1
  Ni  Ni2  1  0.00000000  0.33286300  0.00105000  1
  Ni  Ni3  1  0.00000000  0.66713700  0.50105000  1
  Ni  Ni4  1  0.33286300  0.33286300  0.50105000  1
  Ni  Ni5  1  0.33286300  0.00000000  0.00105000  1
  O  O0  1  0.66666700  0.33333300  0.02143400  1
  O  O1  1  0.33333300  0.66666700  0.52143400  1
  O  O2  1  0.66666700  0.33333300  0.52143400  1
  O  O3  1  0.33333300  0.66666700  0.02143400  1
  O  O4  1  0.00000000  0.00000000  0.96638800  1
  O  O5  1  0.00000000  0.00000000  0.46638800  1
  O  O6  1  0.35935800  0.00000000  0.83064000  1
  O  O7  1  0.35935800  0.35935800  0.33064000  1
  O  O8  1  0.00000000  0.64064200  0.33064000  1
  O  O9  1  0.00000000  0.35935800  0.83064000  1
  O  O10  1  0.64064200  0.64064200  0.83064000  1
  O  O11  1  0.64064200  0.00000000  0.33064000  1
  O  O12  1  0.31216300  0.00000000  0.17268900  1
  O  O13  1  0.31216300  0.31216300  0.67268900  1
  O  O14  1  0.00000000  0.68783700  0.67268900  1
  O  O15  1  0.00000000  0.31216300  0.17268900  1
  O  O16  1  0.68783700  0.68783700  0.17268900  1
  O  O17  1  0.68783700  0.00000000  0.67268900  1
loop_
_geom_bond_atom_site_label_1
_geom_bond_atom_site_label_2
_geom_bond_distance
_geom_bond_site_symmetry_2
Al0 O11 1.983804 1_555
Al0 O8 1.983806 1_655
Al0 O7 1.983809 1_555
Al0 O15 2.021945 1_655
Al0 O12 2.021948 1_555
Al0 O16 2.021950 1_555
Al1 O6 1.983804 1_565
Al1 O9 1.983806 1_555
Al1 O10 1.983809 1_555
Al1 O14 2.021945 1_555
Al1 O17 2.021948 1_565
Al1 O13 2.021950 1_555
Al2 O9 1.983804 1_655
Al2 O6 1.983806 1_555
Al2 O10 1.983809 1_555
Al2 O17 2.021945 1_555
Al2 O14 2.021948 1_655
Al2 O13 2.021950 1_555
Al3 O8 1.983804 1_555
Al3 O11 1.983806 1_565
Al3 O7 1.983809 1_555
Al3 O12 2.021945 1_565
Al3 O15 2.021948 1_555
Al3 O16 2.021950 1_555
Al4 O13 1.971860 1_555
Al4 O17 1.971860 1_455
Al4 O14 1.971860 1_545
Al4 O10 2.075002 1_445
Al4 O9 2.075003 1_555
Al4 O6 2.075003 1_555
Al4 O4 2.221765 1_555
Al5 O16 1.971860 1_445
Al5 O15 1.971860 1_555
Al5 O12 1.971860 1_555
Al5 O7 2.075002 1_555
Al5 O8 2.075003 1_545
Al5 O11 2.075003 1_455
Al5 O5 2.221765 1_555
Ni0 O2 1.818799 1_555
Ni0 O1 1.818802 1_545
Ni0 O5 1.841162 1_655
Ni0 O11 1.884972 1_555
Ni0 O17 1.896378 1_555
Ni1 O0 1.818805 1_555
Ni1 O3 1.818805 1_555
Ni1 O4 1.841162 1_664
Ni1 O10 1.884972 1_554
Ni1 O16 1.896378 1_555
Ni2 O0 1.818799 1_455
Ni2 O3 1.818802 1_555
Ni2 O4 1.841162 1_554
Ni2 O9 1.884972 1_554
Ni2 O15 1.896378 1_555
Ni3 O1 1.818799 1_555
Ni3 O2 1.818802 1_455
Ni3 O5 1.841162 1_565
Ni3 O8 1.884972 1_555
Ni3 O14 1.896378 1_555
Ni4 O1 1.818805 1_555
Ni4 O2 1.818805 1_555
Ni4 O5 1.841162 1_555
Ni4 O7 1.884972 1_555
Ni4 O13 1.896378 1_555
Ni5 O3 1.818799 1_545
Ni5 O0 1.818802 1_555
Ni5 O4 1.841162 1_554
Ni5 O6 1.884972 1_554
Ni5 O12 1.896378 1_555
