# generated using pymatgen
data_MgMn8(OF)8
_symmetry_space_group_name_H-M   'P 1'
_cell_length_a   4.82461222
_cell_length_b   4.96662390
_cell_length_c   12.48834164
_cell_angle_alpha   87.10768344
_cell_angle_beta   89.75173928
_cell_angle_gamma   88.37541010
_symmetry_Int_Tables_number   1
_chemical_formula_structural   MgMn8(OF)8
_chemical_formula_sum   'Mg1 Mn8 O8 F8'
_cell_volume   298.74347713
_cell_formula_units_Z   1
loop_
 _symmetry_equiv_pos_site_id
 _symmetry_equiv_pos_as_xyz
  1  'x, y, z'
loop_
 _atom_site_type_symbol
 _atom_site_label
 _atom_site_symmetry_multiplicity
 _atom_site_fract_x
 _atom_site_fract_y
 _atom_site_fract_z
 _atom_site_occupancy
  Mg  Mg0  1  0.50689200  0.02129800  0.87193000  1
  Mn  Mn0  1  0.98389700  0.95394700  0.00963000  1
  Mn  Mn1  1  0.04803400  0.03012800  0.24915200  1
  Mn  Mn2  1  0.97932800  0.93437700  0.49149500  1
  Mn  Mn3  1  0.04534100  0.01532100  0.73162200  1
  Mn  Mn4  1  0.47055100  0.50330400  0.61770500  1
  Mn  Mn5  1  0.54810700  0.47549700  0.12887600  1
  Mn  Mn6  1  0.47927500  0.51131600  0.37302400  1
  Mn  Mn7  1  0.45865300  0.52861000  0.87540300  1
  O  O0  1  0.19100800  0.79985200  0.36754100  1
  O  O1  1  0.16212500  0.77048600  0.61476400  1
  O  O2  1  0.16860300  0.81128500  0.87171600  1
  O  O3  1  0.34658200  0.30843600  0.25095100  1
  O  O4  1  0.34304600  0.31272600  0.75855000  1
  O  O5  1  0.64696600  0.71330300  0.98779600  1
  O  O6  1  0.65227500  0.67236500  0.49504300  1
  O  O7  1  0.84771500  0.19706100  0.12487100  1
  F  F0  1  0.22600000  0.76070600  0.12837200  1
  F  F1  1  0.33844300  0.23456800  0.99161100  1
  F  F2  1  0.27712900  0.26837600  0.49896500  1
  F  F3  1  0.73364400  0.72103700  0.24629200  1
  F  F4  1  0.65921600  0.79018000  0.75694000  1
  F  F5  1  0.79807400  0.19457700  0.38005600  1
  F  F6  1  0.78799300  0.21810900  0.61915400  1
  F  F7  1  0.81499200  0.25313900  0.87625400  1
loop_
_geom_bond_atom_site_label_1
_geom_bond_atom_site_label_2
_geom_bond_distance
_geom_bond_site_symmetry_2
Mg0 O2 1.961788 1_545
Mg0 O4 2.112519 1_555
Mg0 O5 2.148696 1_545
Mn0 O7 2.020651 1_565
Mn0 O5 2.071754 1_554
Mn0 O2 2.082448 1_654
Mn1 O0 1.939903 1_545
Mn1 O7 1.966735 1_455
Mn1 O3 2.025368 1_555
Mn2 O1 1.911752 1_655
Mn2 O0 1.984347 1_655
Mn2 O6 2.072479 1_555
Mn3 O1 2.014691 1_545
Mn3 O2 2.058494 1_545
Mn3 O4 2.128969 1_555
Mn4 O6 1.928877 1_555
Mn4 O1 1.964714 1_555
Mn4 O4 2.055180 1_555
Mn5 O3 1.965494 1_555
Mn5 O7 1.974167 1_555
Mn5 O5 2.131023 1_554
Mn6 O6 1.957125 1_555
Mn6 O0 1.967357 1_555
Mn6 O3 1.987281 1_555
Mn7 O4 1.946578 1_555
Mn7 O2 1.952964 1_555
Mn7 O5 1.955817 1_555
F0 Mn0 2.071777 1_455
F0 Mn5 2.072678 1_555
F0 Mn1 2.220404 1_565
F1 Mg0 2.028982 1_555
F1 Mn7 2.098113 1_555
F1 Mn0 2.240381 1_446
F1 Mn5 2.384172 1_556
F2 Mn4 2.163212 1_555
F2 Mn6 2.177757 1_555
F2 Mn2 2.230856 1_445
F3 Mn5 2.166180 1_555
F3 Mn1 2.190130 1_665
F3 Mn6 2.232751 1_555
F4 Mg0 2.007305 1_565
F4 Mn7 2.162775 1_555
F4 Mn3 2.213156 1_665
F4 Mn4 2.493862 1_555
F5 Mn2 2.033853 1_545
F5 Mn6 2.167524 1_555
F5 Mn1 2.203572 1_655
F6 Mn4 2.055948 1_555
F6 Mn3 2.080902 1_655
F6 Mn2 2.349426 1_545
F7 Mg0 1.908504 1_555
F7 Mn7 2.166319 1_555
F7 Mn0 2.310817 1_546
F7 Mn3 2.452772 1_655
