# generated using pymatgen
data_LiNd4Nb2In2O14
_symmetry_space_group_name_H-M   'P 1'
_cell_length_a   7.71428505
_cell_length_b   7.60856908
_cell_length_c   7.59845775
_cell_angle_alpha   90.00000000
_cell_angle_beta   60.49545009
_cell_angle_gamma   120.60932572
_symmetry_Int_Tables_number   1
_chemical_formula_structural   LiNd4Nb2In2O14
_chemical_formula_sum   'Li1 Nd4 Nb2 In2 O14'
_cell_volume   314.78897693
_cell_formula_units_Z   1
loop_
 _symmetry_equiv_pos_site_id
 _symmetry_equiv_pos_as_xyz
  1  'x, y, z'
loop_
 _atom_site_type_symbol
 _atom_site_label
 _atom_site_symmetry_multiplicity
 _atom_site_fract_x
 _atom_site_fract_y
 _atom_site_fract_z
 _atom_site_occupancy
  Li  Li0  1  0.95780500  0.22351600  0.77109800  1
  Nd  Nd0  1  0.51884900  0.99511900  0.49057600  1
  Nd  Nd1  1  0.50608400  0.50167500  0.49695800  1
  Nd  Nd2  1  0.99734700  0.52088000  0.00595200  1
  Nd  Nd3  1  0.99734700  0.52088000  0.49670000  1
  Nb  Nb0  1  0.01170700  0.00647700  0.48065600  1
  Nb  Nb1  1  0.01170700  0.00647700  0.00763700  1
  In  In0  1  0.51127500  0.51028800  0.99436200  1
  In  In1  1  0.48659900  0.99885200  0.00670100  1
  O  O0  1  0.82063700  0.91802500  0.33968200  1
  O  O1  1  0.70147600  0.34936400  0.89926200  1
  O  O2  1  0.25372200  0.92260400  0.88862000  1
  O  O3  1  0.26016100  0.32412400  0.33610800  1
  O  O4  1  0.26016100  0.32412400  0.90373100  1
  O  O5  1  0.25372200  0.92260400  0.35765800  1
  O  O6  1  0.10788400  0.07340800  0.69605800  1
  O  O7  1  0.30089800  0.65321800  0.09955100  1
  O  O8  1  0.77107500  0.08985200  0.07676800  1
  O  O9  1  0.76289500  0.67570700  0.64105200  1
  O  O10  1  0.76289500  0.67570700  0.09605400  1
  O  O11  1  0.77107500  0.08985200  0.65215700  1
  O  O12  1  0.73628700  0.36445600  0.38185700  1
  O  O13  1  0.23839400  0.60064400  0.63080300  1
loop_
_geom_bond_atom_site_label_1
_geom_bond_atom_site_label_2
_geom_bond_distance
_geom_bond_site_symmetry_2
Li0 O6 1.914744 1_655
Li0 O8 1.927824 1_556
Li0 O11 1.927831 1_555
Li0 O13 2.336092 1_655
Li0 O1 2.409714 1_555
Nd0 O12 2.286432 1_565
Nd0 O0 2.416627 1_555
Nd0 O13 2.437421 1_555
Nd0 O2 2.528441 1_555
Nd0 O5 2.528447 1_555
Nd0 O11 2.595707 1_565
Nd0 O8 2.595713 1_565
Nd1 O12 2.316649 1_555
Nd1 O13 2.319620 1_555
Nd1 O10 2.518334 1_555
Nd1 O9 2.518340 1_555
Nd1 O3 2.567449 1_555
Nd1 O4 2.567449 1_555
Nd1 O0 2.582066 1_555
Nd1 O6 2.751702 1_555
Nd2 O12 2.350299 1_555
Nd2 O13 2.362512 1_654
Nd2 O10 2.465285 1_555
Nd2 O2 2.481118 1_654
Nd2 O7 2.498481 1_655
Nd2 O1 2.521705 1_554
Nd2 O8 2.708659 1_555
Nd2 O4 2.914548 1_654
Nd3 O12 2.350287 1_555
Nd3 O13 2.362518 1_655
Nd3 O9 2.465286 1_555
Nd3 O5 2.481118 1_655
Nd3 O7 2.498475 1_655
Nd3 O1 2.521710 1_555
Nd3 O11 2.708660 1_555
Nd3 O3 2.914548 1_655
Nb0 O3 1.982470 1_555
Nb0 O5 2.064200 1_545
Nb0 O9 2.068765 1_445
Nb0 O6 2.073647 1_555
Nb0 O0 2.077965 1_445
Nb0 O11 2.088768 1_455
Nb1 O4 1.982470 1_554
Nb1 O2 2.064200 1_544
Nb1 O10 2.068764 1_445
Nb1 O6 2.073647 1_554
Nb1 O0 2.077972 1_445
Nb1 O8 2.088768 1_455
In0 O4 2.180116 1_555
In0 O3 2.180121 1_556
In0 O9 2.222228 1_555
In0 O10 2.222240 1_556
In0 O1 2.226962 1_555
In0 O7 2.230459 1_556
In1 O7 2.152606 1_555
In1 O1 2.166034 1_564
In1 O5 2.212513 1_555
In1 O2 2.212520 1_554
In1 O8 2.276461 1_565
In1 O11 2.276467 1_564
