# generated using pymatgen
data_PrTl(MoO4)2
_symmetry_space_group_name_H-M   'P 1'
_cell_length_a   6.41509300
_cell_length_b   6.41509300
_cell_length_c   9.76429200
_cell_angle_alpha   90.00000000
_cell_angle_beta   90.00000000
_cell_angle_gamma   90.00000000
_symmetry_Int_Tables_number   1
_chemical_formula_structural   PrTl(MoO4)2
_chemical_formula_sum   'Pr2 Tl2 Mo4 O16'
_cell_volume   401.83399209
_cell_formula_units_Z   2
loop_
 _symmetry_equiv_pos_site_id
 _symmetry_equiv_pos_as_xyz
  1  'x, y, z'
loop_
 _atom_site_type_symbol
 _atom_site_label
 _atom_site_symmetry_multiplicity
 _atom_site_fract_x
 _atom_site_fract_y
 _atom_site_fract_z
 _atom_site_occupancy
  Pr  Pr0  1  0.50000000  0.50000000  0.50000000  1
  Pr  Pr1  1  0.00000000  0.00000000  0.00000000  1
  Tl  Tl0  1  0.50000000  0.50000000  0.00000000  1
  Tl  Tl1  1  0.00000000  0.00000000  0.50000000  1
  Mo  Mo0  1  0.00000000  0.50000000  0.75000000  1
  Mo  Mo1  1  0.00000000  0.50000000  0.25000000  1
  Mo  Mo2  1  0.50000000  0.00000000  0.75000000  1
  Mo  Mo3  1  0.50000000  0.00000000  0.25000000  1
  O  O0  1  0.88528000  0.69280100  0.86044300  1
  O  O1  1  0.11472000  0.30719900  0.86044300  1
  O  O2  1  0.11472000  0.69280100  0.13955700  1
  O  O3  1  0.88528000  0.30719900  0.13955700  1
  O  O4  1  0.61472000  0.80719900  0.63955700  1
  O  O5  1  0.38528000  0.19280100  0.63955700  1
  O  O6  1  0.38528000  0.80719900  0.36044300  1
  O  O7  1  0.61472000  0.19280100  0.36044300  1
  O  O8  1  0.69280100  0.88528000  0.13955700  1
  O  O9  1  0.30719900  0.11472000  0.13955700  1
  O  O10  1  0.69280100  0.11472000  0.86044300  1
  O  O11  1  0.30719900  0.88528000  0.86044300  1
  O  O12  1  0.80719900  0.61472000  0.36044300  1
  O  O13  1  0.19280100  0.38528000  0.36044300  1
  O  O14  1  0.80719900  0.38528000  0.63955700  1
  O  O15  1  0.19280100  0.61472000  0.63955700  1
loop_
_geom_bond_atom_site_label_1
_geom_bond_atom_site_label_2
_geom_bond_distance
_geom_bond_site_symmetry_2
Mo0 O0 1.798419 1_455
Mo0 O1 1.798419 1_555
Mo0 O14 1.798419 1_455
Mo0 O15 1.798419 1_555
Mo1 O13 1.798419 1_555
Mo1 O12 1.798419 1_455
Mo1 O3 1.798419 1_455
Mo1 O2 1.798419 1_555
Mo2 O11 1.798419 1_545
Mo2 O10 1.798419 1_555
Mo2 O5 1.798419 1_555
Mo2 O4 1.798419 1_545
Mo3 O6 1.798419 1_545
Mo3 O7 1.798419 1_555
Mo3 O8 1.798419 1_545
Mo3 O9 1.798419 1_555
O0 Pr1 2.506430 1_666
O1 Pr1 2.506430 1_556
O2 Pr1 2.506430 1_565
O3 Pr1 2.506430 1_655
O4 Pr0 2.506430 1_555
O5 Pr0 2.506430 1_555
O6 Pr0 2.506430 1_555
O7 Pr0 2.506430 1_555
O8 Pr1 2.506430 1_665
O9 Pr1 2.506430 1_555
O10 Pr1 2.506430 1_656
O11 Pr1 2.506430 1_566
O12 Pr0 2.506430 1_555
O13 Pr0 2.506430 1_555
O14 Pr0 2.506430 1_555
O15 Pr0 2.506430 1_555
