# generated using pymatgen
data_Mg6CuSb
_symmetry_space_group_name_H-M   'P 1'
_cell_length_a   4.88635700
_cell_length_b   6.49392800
_cell_length_c   10.61908000
_cell_angle_alpha   90.00000000
_cell_angle_beta   90.00000000
_cell_angle_gamma   90.00000000
_symmetry_Int_Tables_number   1
_chemical_formula_structural   Mg6CuSb
_chemical_formula_sum   'Mg12 Cu2 Sb2'
_cell_volume   336.96093562
_cell_formula_units_Z   2
loop_
 _symmetry_equiv_pos_site_id
 _symmetry_equiv_pos_as_xyz
  1  'x, y, z'
loop_
 _atom_site_type_symbol
 _atom_site_label
 _atom_site_symmetry_multiplicity
 _atom_site_fract_x
 _atom_site_fract_y
 _atom_site_fract_z
 _atom_site_occupancy
  Mg  Mg0  1  0.50000000  0.74816200  0.08637100  1
  Mg  Mg1  1  0.50000000  0.25183800  0.08637100  1
  Mg  Mg2  1  0.00000000  0.77005100  0.91276900  1
  Mg  Mg3  1  0.00000000  0.22994900  0.91276900  1
  Mg  Mg4  1  0.00000000  0.50000000  0.17011300  1
  Mg  Mg5  1  0.00000000  0.50000000  0.66188300  1
  Mg  Mg6  1  0.50000000  0.24816200  0.58637100  1
  Mg  Mg7  1  0.50000000  0.75183800  0.58637100  1
  Mg  Mg8  1  0.00000000  0.27005100  0.41276900  1
  Mg  Mg9  1  0.00000000  0.72994900  0.41276900  1
  Mg  Mg10  1  0.00000000  0.00000000  0.67011300  1
  Mg  Mg11  1  0.00000000  0.00000000  0.16188300  1
  Cu  Cu0  1  0.50000000  0.50000000  0.33349300  1
  Cu  Cu1  1  0.50000000  0.00000000  0.83349300  1
  Sb  Sb0  1  0.50000000  0.50000000  0.83623600  1
  Sb  Sb1  1  0.50000000  0.00000000  0.33623600  1
loop_
_geom_bond_atom_site_label_1
_geom_bond_atom_site_label_2
_geom_bond_distance
_geom_bond_site_symmetry_2
Mg0 Sb0 3.106847 1_554
Mg0 Sb1 3.116855 1_565
Mg1 Sb0 3.106847 1_554
Mg1 Sb1 3.116855 1_555
Mg2 Sb0 3.115293 1_455
Mg2 Sb0 3.115293 1_555
Mg3 Sb0 3.115293 1_555
Mg3 Sb0 3.115293 1_455
Mg5 Sb0 3.065462 1_555
Mg5 Sb0 3.065462 1_455
Mg6 Sb1 3.106847 1_555
Mg6 Sb0 3.116855 1_555
Mg7 Sb1 3.106847 1_565
Mg7 Sb0 3.116855 1_555
Mg8 Sb1 3.115293 1_555
Mg8 Sb1 3.115293 1_455
Mg9 Sb1 3.115293 1_465
Mg9 Sb1 3.115293 1_565
Mg11 Sb1 3.065462 1_555
Mg11 Sb1 3.065462 1_455
Cu0 Mg9 2.984573 1_655
Cu0 Mg8 2.984573 1_555
Cu0 Mg9 2.984573 1_555
Cu0 Mg8 2.984573 1_655
Cu0 Mg4 2.996524 1_655
Cu0 Mg4 2.996524 1_555
Cu0 Mg1 3.079537 1_555
Cu0 Mg0 3.079537 1_555
Cu0 Mg6 3.144137 1_555
Cu0 Mg7 3.144137 1_555
Cu0 Sb1 3.247095 1_555
Cu0 Sb1 3.247095 1_565
Cu1 Mg2 2.984573 1_645
Cu1 Mg3 2.984573 1_655
Cu1 Mg2 2.984573 1_545
Cu1 Mg3 2.984573 1_555
Cu1 Mg10 2.996524 1_655
Cu1 Mg10 2.996524 1_555
Cu1 Mg7 3.079537 1_545
Cu1 Mg6 3.079537 1_555
Cu1 Mg0 3.144137 1_546
Cu1 Mg1 3.144137 1_556
Cu1 Sb0 3.247095 1_545
Cu1 Sb0 3.247095 1_555
