# generated using pymatgen
data_TlP(HO2)2
_symmetry_space_group_name_H-M   'P 1'
_cell_length_a   4.55746000
_cell_length_b   6.63027100
_cell_length_c   14.51954883
_cell_angle_alpha   88.36700367
_cell_angle_beta   90.00000000
_cell_angle_gamma   90.00000000
_symmetry_Int_Tables_number   1
_chemical_formula_structural   TlP(HO2)2
_chemical_formula_sum   'Tl4 P4 H8 O16'
_cell_volume   438.56185078
_cell_formula_units_Z   4
loop_
 _symmetry_equiv_pos_site_id
 _symmetry_equiv_pos_as_xyz
  1  'x, y, z'
loop_
 _atom_site_type_symbol
 _atom_site_label
 _atom_site_symmetry_multiplicity
 _atom_site_fract_x
 _atom_site_fract_y
 _atom_site_fract_z
 _atom_site_occupancy
  Tl  Tl0  1  0.74847700  0.74478500  0.63020200  1
  Tl  Tl1  1  0.26025200  0.26511800  0.86876800  1
  Tl  Tl2  1  0.73974800  0.26511800  0.36876800  1
  Tl  Tl3  1  0.25152300  0.74478500  0.13020200  1
  P  P0  1  0.23249800  0.23493800  0.62465600  1
  P  P1  1  0.72745800  0.75097400  0.87651800  1
  P  P2  1  0.27254200  0.75097400  0.37651800  1
  P  P3  1  0.76750200  0.23493800  0.12465600  1
  H  H0  1  0.76170100  0.24491200  0.68326300  1
  H  H1  1  0.26325500  0.76076400  0.81606300  1
  H  H2  1  0.73674500  0.76076400  0.31606300  1
  H  H3  1  0.23829900  0.24491200  0.18326300  1
  H  H4  1  0.23966300  0.98846200  0.48865200  1
  H  H5  1  0.76033700  0.98846200  0.98865200  1
  H  H6  1  0.23058600  0.48057900  0.50979100  1
  H  H7  1  0.76941400  0.48057900  0.00979100  1
  O  O0  1  0.34248800  0.04782900  0.57551900  1
  O  O1  1  0.84968900  0.94575000  0.92415000  1
  O  O2  1  0.15031100  0.94575000  0.42415000  1
  O  O3  1  0.65751200  0.04782900  0.07551900  1
  O  O4  1  0.96995800  0.17307000  0.69119100  1
  O  O5  1  0.47218300  0.82819200  0.80972400  1
  O  O6  1  0.52781700  0.82819200  0.30972400  1
  O  O7  1  0.03004200  0.17307000  0.19119100  1
  O  O8  1  0.08994700  0.39241500  0.55375200  1
  O  O9  1  0.59863800  0.60052200  0.94803200  1
  O  O10  1  0.40136200  0.60052200  0.44803200  1
  O  O11  1  0.91005300  0.39241500  0.05375200  1
  O  O12  1  0.47576800  0.33375500  0.68129900  1
  O  O13  1  0.97435100  0.66823500  0.81681900  1
  O  O14  1  0.02564900  0.66823500  0.31681900  1
  O  O15  1  0.52423200  0.33375500  0.18129900  1
loop_
_geom_bond_atom_site_label_1
_geom_bond_atom_site_label_2
_geom_bond_distance
_geom_bond_site_symmetry_2
H0 O4 1.066701 1_555
H0 O12 1.430029 1_555
H1 O5 1.054819 1_555
H1 O13 1.452489 1_455
H2 O6 1.054819 1_555
H2 O14 1.452489 1_655
H3 O7 1.066701 1_555
H3 O15 1.430029 1_555
H4 O2 1.066887 1_555
H4 O0 1.411963 1_565
H5 O1 1.066887 1_555
H5 O3 1.411963 1_566
H6 O8 1.067089 1_555
H6 O10 1.414793 1_555
H7 O11 1.067089 1_555
H7 O9 1.414793 1_554
O0 P0 1.532898 1_555
O0 Tl0 2.828452 1_545
O1 P1 1.583441 1_555
O2 P2 1.583441 1_555
O3 P3 1.532898 1_555
O3 Tl3 2.828452 1_545
O4 P0 1.584487 1_655
O5 P1 1.589931 1_555
O6 P2 1.589931 1_555
O7 P3 1.584487 1_455
O8 P0 1.584564 1_555
O9 P1 1.535870 1_555
O10 P2 1.535870 1_555
O11 P3 1.584564 1_555
O12 P0 1.538041 1_555
O13 P1 1.531495 1_555
O14 P2 1.531495 1_555
O15 P3 1.538041 1_555
