# generated using pymatgen
data_Li7PSe6
_symmetry_space_group_name_H-M   'P 1'
_cell_length_a   7.42333740
_cell_length_b   10.31639694
_cell_length_c   14.94025895
_cell_angle_alpha   90.00000000
_cell_angle_beta   90.00000000
_cell_angle_gamma   90.00000000
_symmetry_Int_Tables_number   1
_chemical_formula_structural   Li7PSe6
_chemical_formula_sum   'Li28 P4 Se24'
_cell_volume   1144.15633379
_cell_formula_units_Z   4
loop_
 _symmetry_equiv_pos_site_id
 _symmetry_equiv_pos_as_xyz
  1  'x, y, z'
loop_
 _atom_site_type_symbol
 _atom_site_label
 _atom_site_symmetry_multiplicity
 _atom_site_fract_x
 _atom_site_fract_y
 _atom_site_fract_z
 _atom_site_occupancy
  Li  Li0  1  0.22784275  0.19492024  0.31457413  1
  Li  Li1  1  0.77215725  0.69492024  0.68542587  1
  Li  Li2  1  0.27215725  0.19492024  0.81457413  1
  Li  Li3  1  0.72784275  0.69492024  0.18542587  1
  Li  Li4  1  0.96983070  0.48405485  0.27545662  1
  Li  Li5  1  0.03016930  0.98405485  0.72454338  1
  Li  Li6  1  0.53016930  0.48405485  0.77545662  1
  Li  Li7  1  0.46983070  0.98405485  0.22454338  1
  Li  Li8  1  0.16084508  0.32949665  0.02693473  1
  Li  Li9  1  0.83915492  0.82949665  0.97306527  1
  Li  Li10  1  0.33915492  0.32949665  0.52693473  1
  Li  Li11  1  0.66084508  0.82949665  0.47306527  1
  Li  Li12  1  0.06599330  0.00103551  0.10812276  1
  Li  Li13  1  0.93400670  0.50103551  0.89187724  1
  Li  Li14  1  0.43400670  0.00103551  0.60812276  1
  Li  Li15  1  0.56599330  0.50103551  0.39187724  1
  Li  Li16  1  0.45390313  0.98496905  0.04045984  1
  Li  Li17  1  0.54609687  0.48496905  0.95954016  1
  Li  Li18  1  0.04609687  0.98496905  0.54045984  1
  Li  Li19  1  0.95390313  0.48496905  0.45954016  1
  Li  Li20  1  0.39080660  0.38069343  0.22015997  1
  Li  Li21  1  0.60919340  0.88069343  0.77984003  1
  Li  Li22  1  0.10919340  0.38069343  0.72015997  1
  Li  Li23  1  0.89080660  0.88069343  0.27984003  1
  Li  Li24  1  0.65404651  0.17224510  0.12530004  1
  Li  Li25  1  0.34595349  0.67224510  0.87469996  1
  Li  Li26  1  0.84595349  0.17224510  0.62530004  1
  Li  Li27  1  0.15404651  0.67224510  0.37469996  1
  P  P0  1  0.22991397  0.68300581  0.11948551  1
  P  P1  1  0.77008603  0.18300581  0.88051449  1
  P  P2  1  0.27008603  0.68300581  0.61948551  1
  P  P3  1  0.72991397  0.18300581  0.38051449  1
  Se  Se0  1  0.24063422  0.43012333  0.37186153  1
  Se  Se1  1  0.75936578  0.93012333  0.62813847  1
  Se  Se2  1  0.25936578  0.43012333  0.87186153  1
  Se  Se3  1  0.74063422  0.93012333  0.12813847  1
  Se  Se4  1  0.72760833  0.31006997  0.26176265  1
  Se  Se5  1  0.27239167  0.81006997  0.73823735  1
  Se  Se6  1  0.77239167  0.31006997  0.76176265  1
  Se  Se7  1  0.22760833  0.81006997  0.23823735  1
  Se  Se8  1  0.30289816  0.16987853  0.14037357  1
  Se  Se9  1  0.69710184  0.66987853  0.85962643  1
  Se  Se10  1  0.19710184  0.16987853  0.64037357  1
  Se  Se11  1  0.80289816  0.66987853  0.35962643  1
  Se  Se12  1  0.49778390  0.05119257  0.38772818  1
  Se  Se13  1  0.50221610  0.55119257  0.61227182  1
  Se  Se14  1  0.00221610  0.05119257  0.88772818  1
  Se  Se15  1  0.99778390  0.55119257  0.11227182  1
  Se  Se16  1  0.97712929  0.06463595  0.38321419  1
  Se  Se17  1  0.02287071  0.56463595  0.61678581  1
  Se  Se18  1  0.52287071  0.06463595  0.88321419  1
  Se  Se19  1  0.47712929  0.56463595  0.11678581  1
  Se  Se20  1  0.21118993  0.81317801  0.00185758  1
  Se  Se21  1  0.78881007  0.31317801  -0.00185758  1
  Se  Se22  1  0.28881007  0.81317801  0.50185758  1
  Se  Se23  1  0.71118993  0.31317801  0.49814242  1
loop_
_geom_bond_atom_site_label_1
_geom_bond_atom_site_label_2
_geom_bond_distance
_geom_bond_site_symmetry_2
Li0 Se16 2.514352 1_455
Li0 Se0 2.574726 1_555
Li0 Se8 2.674080 1_555
Li0 Se12 2.721864 1_555
Li1 Se17 2.514352 1_655
Li1 Se1 2.574726 1_555
Li1 Se9 2.674080 1_555
Li1 Se13 2.721864 1_555
Li2 Se18 2.514352 1_555
Li2 Se2 2.574726 1_555
Li2 Se10 2.674080 1_555
Li2 Se14 2.721864 1_555
Li3 Se19 2.514352 1_555
Li3 Se3 2.574726 1_555
Li3 Se11 2.674080 1_555
Li3 Se15 2.721864 1_555
Li4 Se0 2.534804 1_655
Li4 Se15 2.542978 1_555
Li4 Se4 2.548857 1_555
Li4 Se11 2.606141 1_555
Li5 Se1 2.534804 1_455
Li5 Se14 2.542978 1_565
Li5 Se5 2.548857 1_555
Li5 Se10 2.606141 1_565
Li6 Se2 2.534804 1_555
Li6 Se13 2.542978 1_555
Li6 Se6 2.548857 1_555
Li6 Se9 2.606141 1_555
Li7 Se3 2.534804 1_555
Li7 Se12 2.542978 1_565
Li7 Se7 2.548857 1_555
Li7 Se8 2.606141 1_565
Li8 Se8 2.587648 1_555
Li8 Se2 2.642018 1_554
Li8 Se21 2.800107 1_455
Li8 Se15 2.884713 1_455
Li9 Se9 2.587648 1_555
Li9 Se3 2.642018 1_556
Li9 Se20 2.800107 1_656
Li9 Se14 2.884713 1_665
Li10 Se10 2.587648 1_555
Li10 Se0 2.642018 1_555
Li10 Se23 2.800107 1_555
Li10 Se13 2.884713 1_555
Li11 Se11 2.587648 1_555
Li11 Se1 2.642018 1_555
Li11 Se22 2.800107 1_555
Li11 Se12 2.884713 1_565
Li12 Se8 2.521700 1_555
Li12 Se3 2.541267 1_445
Li12 Se20 2.727307 1_545
Li12 Se7 3.016531 1_545
Li13 Se9 2.521700 1_555
Li13 Se2 2.541267 1_655
Li13 Se21 2.727307 1_556
Li13 Se6 3.016531 1_555
Li14 Se10 2.521700 1_555
Li14 Se1 2.541267 1_545
Li14 Se22 2.727307 1_545
Li14 Se5 3.016531 1_545
Li15 Se11 2.521700 1_555
Li15 Se0 2.541267 1_555
Li15 Se23 2.727307 1_555
Li15 Se4 3.016531 1_555
Li16 Se18 2.541015 1_564
Li16 Se3 2.562539 1_555
Li16 Se20 2.592260 1_555
Li16 Se8 2.669036 1_565
Li17 Se19 2.541015 1_556
Li17 Se2 2.562539 1_555
Li17 Se21 2.592260 1_556
Li17 Se9 2.669036 1_555
Li18 Se16 2.541015 1_465
Li18 Se1 2.562539 1_455
Li18 Se22 2.592260 1_555
Li18 Se10 2.669036 1_565
Li19 Se17 2.541015 1_655
Li19 Se0 2.562539 1_655
Li19 Se23 2.592260 1_555
Li19 Se11 2.669036 1_555
Li20 Se19 2.529207 1_555
Li20 Se8 2.564520 1_555
Li20 Se0 2.576745 1_555
Li20 Se4 2.677335 1_555
Li21 Se18 2.529207 1_565
Li21 Se9 2.564520 1_555
Li21 Se1 2.576745 1_555
Li21 Se5 2.677335 1_555
Li22 Se17 2.529207 1_555
Li22 Se10 2.564520 1_555
Li22 Se2 2.576745 1_555
Li22 Se6 2.677335 1_455
Li23 Se16 2.529207 1_565
Li23 Se11 2.564520 1_555
Li23 Se3 2.576745 1_555
Li23 Se7 2.677335 1_655
Li24 Se4 2.544901 1_555
Li24 Se3 2.579550 1_545
Li24 Se21 2.593027 1_555
Li24 Se8 2.616517 1_555
Li25 Se5 2.544901 1_555
Li25 Se2 2.579550 1_555
Li25 Se20 2.593027 1_556
Li25 Se9 2.616517 1_555
Li26 Se6 2.544901 1_555
Li26 Se1 2.579550 1_545
Li26 Se23 2.593027 1_555
Li26 Se10 2.616517 1_655
Li27 Se7 2.544901 1_555
Li27 Se0 2.579550 1_555
Li27 Se22 2.593027 1_555
Li27 Se11 2.616517 1_455
P0 Se15 2.197754 1_455
P0 Se19 2.204690 1_555
P0 Se7 2.205976 1_555
P0 Se20 2.216111 1_555
P1 Se14 2.197754 1_655
P1 Se18 2.204690 1_555
P1 Se6 2.205976 1_555
P1 Se21 2.216111 1_556
P2 Se13 2.197754 1_555
P2 Se17 2.204690 1_555
P2 Se5 2.205976 1_555
P2 Se22 2.216111 1_555
P3 Se12 2.197754 1_555
P3 Se16 2.204690 1_555
P3 Se4 2.205976 1_555
P3 Se23 2.216111 1_555
