# generated using pymatgen
data_KAs3(PbO3)4
_symmetry_space_group_name_H-M   'P 1'
_cell_length_a   10.33036703
_cell_length_b   10.33036703
_cell_length_c   7.52598200
_cell_angle_alpha   90.00000000
_cell_angle_beta   90.00000000
_cell_angle_gamma   119.99999380
_symmetry_Int_Tables_number   1
_chemical_formula_structural   KAs3(PbO3)4
_chemical_formula_sum   'K2 As6 Pb8 O24'
_cell_volume   695.54516838
_cell_formula_units_Z   2
loop_
 _symmetry_equiv_pos_site_id
 _symmetry_equiv_pos_as_xyz
  1  'x, y, z'
loop_
 _atom_site_type_symbol
 _atom_site_label
 _atom_site_symmetry_multiplicity
 _atom_site_fract_x
 _atom_site_fract_y
 _atom_site_fract_z
 _atom_site_occupancy
  K  K0  1  0.66666700  0.33333300  0.48445900  1
  K  K1  1  0.33333300  0.66666700  0.98445900  1
  As  As0  1  0.98368400  0.37429800  0.25375100  1
  As  As1  1  0.39061400  0.01631600  0.25375100  1
  As  As2  1  0.62570200  0.60938600  0.25375100  1
  As  As3  1  0.01631600  0.62570200  0.75375100  1
  As  As4  1  0.60938600  0.98368400  0.75375100  1
  As  As5  1  0.37429800  0.39061400  0.75375100  1
  Pb  Pb0  1  0.73975600  0.74000500  0.74986600  1
  Pb  Pb1  1  0.00024900  0.26024400  0.74986600  1
  Pb  Pb2  1  0.25999500  0.99975100  0.74986600  1
  Pb  Pb3  1  0.26024400  0.25999500  0.24986600  1
  Pb  Pb4  1  0.99975100  0.73975600  0.24986600  1
  Pb  Pb5  1  0.74000500  0.00024900  0.24986600  1
  Pb  Pb6  1  0.33333300  0.66666700  0.48293200  1
  Pb  Pb7  1  0.66666700  0.33333300  0.98293200  1
  O  O0  1  0.30404900  0.82480100  0.26041600  1
  O  O1  1  0.52075100  0.69595100  0.26041600  1
  O  O2  1  0.17519900  0.47924900  0.26041600  1
  O  O3  1  0.69595100  0.17519900  0.76041600  1
  O  O4  1  0.47924900  0.30404900  0.76041600  1
  O  O5  1  0.82480100  0.52075100  0.76041600  1
  O  O6  1  0.65931600  0.91187900  0.93062000  1
  O  O7  1  0.25256300  0.34068400  0.93062000  1
  O  O8  1  0.08812100  0.74743700  0.93062000  1
  O  O9  1  0.34068400  0.08812100  0.43062000  1
  O  O10  1  0.74743700  0.65931600  0.43062000  1
  O  O11  1  0.91187900  0.25256300  0.43062000  1
  O  O12  1  0.34478600  0.08505500  0.06968400  1
  O  O13  1  0.74026900  0.65521400  0.06968400  1
  O  O14  1  0.91494500  0.25973100  0.06968400  1
  O  O15  1  0.65521400  0.91494500  0.56968400  1
  O  O16  1  0.25973100  0.34478600  0.56968400  1
  O  O17  1  0.08505500  0.74026900  0.56968400  1
  O  O18  1  0.90360800  0.48755900  0.24653500  1
  O  O19  1  0.58395200  0.09639200  0.24653500  1
  O  O20  1  0.51244100  0.41604800  0.24653500  1
  O  O21  1  0.09639200  0.51244100  0.74653500  1
  O  O22  1  0.41604800  0.90360800  0.74653500  1
  O  O23  1  0.48755900  0.58395200  0.74653500  1
loop_
_geom_bond_atom_site_label_1
_geom_bond_atom_site_label_2
_geom_bond_distance
_geom_bond_site_symmetry_2
K0 O3 2.750924 1_555
K0 O4 2.750924 1_555
K0 O5 2.750924 1_555
K0 O20 2.799304 1_555
K0 O19 2.799304 1_555
K0 O18 2.799304 1_555
K0 O11 3.064429 1_555
K0 O9 3.064437 1_555
K0 O10 3.064439 1_555
K1 O0 2.750924 1_556
K1 O1 2.750924 1_556
K1 O2 2.750924 1_556
K1 O23 2.799304 1_555
K1 O22 2.799304 1_555
K1 O21 2.799304 1_555
K1 O8 3.064429 1_555
K1 O6 3.064437 1_555
K1 O7 3.064439 1_555
As0 O2 1.716725 1_655
As0 O11 1.723582 1_555
As0 O14 1.727298 1_555
As0 O18 1.738983 1_555
As1 O0 1.716725 1_545
As1 O9 1.723582 1_555
As1 O12 1.727298 1_555
As1 O19 1.738992 1_555
As2 O1 1.716734 1_555
As2 O10 1.723582 1_555
As2 O13 1.727298 1_555
As2 O20 1.738991 1_555
As3 O5 1.716725 1_455
As3 O8 1.723582 1_555
As3 O17 1.727298 1_555
As3 O21 1.738983 1_555
As4 O3 1.716725 1_565
As4 O6 1.723582 1_555
As4 O15 1.727298 1_555
As4 O22 1.738992 1_555
As5 O4 1.716734 1_555
As5 O7 1.723582 1_555
As5 O16 1.727298 1_555
As5 O23 1.738991 1_555
O0 Pb6 2.461452 1_555
O0 Pb4 2.810353 1_455
O1 Pb6 2.461452 1_555
O1 Pb5 2.810356 1_565
O2 Pb6 2.461452 1_555
O2 Pb3 2.810363 1_555
O3 Pb7 2.461452 1_555
O3 Pb1 2.810353 1_655
O4 Pb7 2.461452 1_555
O4 Pb2 2.810356 1_545
O5 Pb7 2.461452 1_555
O5 Pb0 2.810363 1_555
O6 Pb5 2.557326 1_566
O6 Pb0 2.677492 1_555
O7 Pb3 2.557326 1_556
O7 Pb1 2.677492 1_555
O8 Pb4 2.557326 1_456
O8 Pb2 2.677492 1_555
O9 Pb2 2.557326 1_545
O9 Pb3 2.677492 1_555
O10 Pb0 2.557326 1_555
O10 Pb4 2.677492 1_555
O11 Pb1 2.557326 1_655
O11 Pb5 2.677492 1_555
O12 Pb2 2.562283 1_544
O12 Pb3 2.728712 1_555
O13 Pb0 2.562282 1_554
O13 Pb4 2.728712 1_555
O14 Pb1 2.562282 1_654
O14 Pb5 2.728712 1_555
O15 Pb5 2.562283 1_565
O15 Pb0 2.728712 1_555
O16 Pb3 2.562282 1_555
O16 Pb1 2.728712 1_555
O17 Pb4 2.562282 1_455
O17 Pb2 2.728712 1_555
O18 Pb4 2.277506 1_555
O19 Pb5 2.277496 1_555
O20 Pb3 2.277504 1_555
O21 Pb1 2.277506 1_555
O22 Pb2 2.277496 1_555
O23 Pb0 2.277504 1_555
