# generated using pymatgen
data_Zr6Ga16Rh7
_symmetry_space_group_name_H-M   'P 1'
_cell_length_a   8.79237078
_cell_length_b   8.79237078
_cell_length_c   8.79237078
_cell_angle_alpha   60.00000000
_cell_angle_beta   60.00000000
_cell_angle_gamma   60.00000000
_symmetry_Int_Tables_number   1
_chemical_formula_structural   Zr6Ga16Rh7
_chemical_formula_sum   'Zr6 Ga16 Rh7'
_cell_volume   480.62126786
_cell_formula_units_Z   1
loop_
 _symmetry_equiv_pos_site_id
 _symmetry_equiv_pos_as_xyz
  1  'x, y, z'
loop_
 _atom_site_type_symbol
 _atom_site_label
 _atom_site_symmetry_multiplicity
 _atom_site_fract_x
 _atom_site_fract_y
 _atom_site_fract_z
 _atom_site_occupancy
  Zr  Zr0  1  0.69524800  0.69524800  0.30475200  1
  Zr  Zr1  1  0.30475200  0.69524800  0.30475200  1
  Zr  Zr2  1  0.69524800  0.30475200  0.30475200  1
  Zr  Zr3  1  0.30475200  0.30475200  0.69524800  1
  Zr  Zr4  1  0.69524800  0.30475200  0.69524800  1
  Zr  Zr5  1  0.30475200  0.69524800  0.69524800  1
  Ga  Ga0  1  0.87810800  0.87810800  0.36567700  1
  Ga  Ga1  1  0.87810800  0.36567700  0.87810800  1
  Ga  Ga2  1  0.36567700  0.87810800  0.87810800  1
  Ga  Ga3  1  0.87810800  0.87810800  0.87810800  1
  Ga  Ga4  1  0.12189200  0.12189200  0.63432300  1
  Ga  Ga5  1  0.12189200  0.63432300  0.12189200  1
  Ga  Ga6  1  0.63432300  0.12189200  0.12189200  1
  Ga  Ga7  1  0.12189200  0.12189200  0.12189200  1
  Ga  Ga8  1  0.65731600  0.65731600  0.02805100  1
  Ga  Ga9  1  0.65731600  0.02805100  0.65731600  1
  Ga  Ga10  1  0.02805100  0.65731600  0.65731600  1
  Ga  Ga11  1  0.65731600  0.65731600  0.65731600  1
  Ga  Ga12  1  0.34268400  0.34268400  0.97194900  1
  Ga  Ga13  1  0.34268400  0.97194900  0.34268400  1
  Ga  Ga14  1  0.97194900  0.34268400  0.34268400  1
  Ga  Ga15  1  0.34268400  0.34268400  0.34268400  1
  Rh  Rh0  1  0.00000000  0.00000000  0.00000000  1
  Rh  Rh1  1  0.00000000  0.00000000  0.50000000  1
  Rh  Rh2  1  0.50000000  0.00000000  0.50000000  1
  Rh  Rh3  1  0.00000000  0.50000000  0.50000000  1
  Rh  Rh4  1  0.50000000  0.50000000  0.00000000  1
  Rh  Rh5  1  0.00000000  0.50000000  0.00000000  1
  Rh  Rh6  1  0.50000000  0.00000000  0.00000000  1
loop_
_geom_bond_atom_site_label_1
_geom_bond_atom_site_label_2
_geom_bond_distance
_geom_bond_site_symmetry_2
Zr0 Zr1 3.433386 1_555
Zr0 Zr4 3.433386 1_555
Zr0 Zr2 3.433386 1_555
Zr0 Zr5 3.433386 1_555
Zr1 Zr5 3.433386 1_555
Zr1 Zr2 3.433386 1_555
Zr1 Zr3 3.433386 1_555
Zr2 Zr4 3.433386 1_555
Zr2 Zr3 3.433386 1_555
Zr3 Zr4 3.433386 1_555
Zr3 Zr5 3.433386 1_555
Zr4 Zr5 3.433386 1_555
Ga0 Rh0 2.625173 1_665
Ga0 Rh1 2.715141 1_665
Ga0 Rh2 2.715148 1_565
Ga0 Rh3 2.715148 1_655
Ga0 Ga9 2.815162 1_565
Ga0 Ga10 2.815162 1_655
Ga0 Ga11 2.815173 1_555
Ga0 Ga7 3.031281 1_665
Ga0 Ga5 3.031293 1_655
Ga0 Ga6 3.031293 1_565
Ga0 Zr1 3.124770 1_655
Ga0 Zr2 3.124770 1_565
Ga0 Zr0 3.124778 1_555
Ga1 Rh0 2.625173 1_656
Ga1 Rh5 2.715141 1_656
Ga1 Rh3 2.715148 1_655
Ga1 Rh4 2.715148 1_556
Ga1 Ga8 2.815162 1_556
Ga1 Ga10 2.815162 1_655
Ga1 Ga11 2.815173 1_555
Ga1 Ga7 3.031281 1_656
Ga1 Ga6 3.031293 1_556
Ga1 Ga4 3.031293 1_655
Ga1 Zr2 3.124770 1_556
Ga1 Zr3 3.124770 1_655
Ga1 Zr4 3.124778 1_555
Ga2 Rh0 2.625173 1_566
Ga2 Rh6 2.715141 1_566
Ga2 Rh2 2.715148 1_565
Ga2 Rh4 2.715148 1_556
Ga2 Ga9 2.815162 1_565
Ga2 Ga8 2.815162 1_556
Ga2 Ga7 3.031281 1_566
Ga2 Ga4 3.031293 1_565
Ga2 Ga5 3.031293 1_556
Ga2 Zr1 3.124770 1_556
Ga2 Zr3 3.124770 1_565
Ga2 Zr5 3.124778 1_555
Ga3 Rh0 2.625166 1_666
Ga3 Rh6 2.715148 1_566
Ga3 Rh5 2.715148 1_656
Ga3 Rh1 2.715148 1_665
Ga3 Ga8 2.815176 1_556
Ga3 Ga9 2.815176 1_565
Ga3 Ga4 3.031281 1_665
Ga3 Ga5 3.031281 1_656
Ga3 Ga6 3.031281 1_566
Ga3 Zr4 3.124772 1_565
Ga3 Zr0 3.124772 1_556
Ga3 Zr5 3.124772 1_655
Ga4 Rh0 2.625173 1_556
Ga4 Rh1 2.715141 1_555
Ga4 Rh2 2.715148 1_555
Ga4 Rh3 2.715148 1_555
Ga4 Zr5 3.124770 1_545
Ga4 Zr4 3.124770 1_455
Ga4 Zr3 3.124778 1_555
Ga5 Rh0 2.625173 1_565
Ga5 Rh5 2.715141 1_555
Ga5 Rh3 2.715148 1_555
Ga5 Rh4 2.715148 1_555
Ga5 Zr5 3.124770 1_554
Ga5 Zr0 3.124770 1_455
Ga5 Zr1 3.124778 1_555
Ga6 Rh0 2.625173 1_655
Ga6 Rh6 2.715141 1_555
Ga6 Rh2 2.715148 1_555
Ga6 Rh4 2.715148 1_555
Ga6 Zr4 3.124770 1_554
Ga6 Zr0 3.124770 1_545
Ga6 Zr2 3.124778 1_555
Ga7 Rh0 2.625166 1_555
Ga7 Rh1 2.715148 1_555
Ga7 Rh6 2.715148 1_555
Ga7 Rh5 2.715148 1_555
Ga7 Zr3 3.124772 1_554
Ga7 Zr1 3.124772 1_545
Ga7 Zr2 3.124772 1_455
Ga8 Rh4 2.546110 1_555
Ga8 Rh6 2.546117 1_565
Ga8 Rh5 2.546117 1_655
Ga8 Zr1 2.806285 1_555
Ga8 Zr2 2.806285 1_555
Ga8 Zr0 2.806290 1_555
Ga9 Rh2 2.546110 1_555
Ga9 Rh1 2.546117 1_655
Ga9 Rh6 2.546117 1_556
Ga9 Zr3 2.806285 1_555
Ga9 Zr2 2.806285 1_555
Ga9 Zr4 2.806290 1_555
Ga10 Rh3 2.546110 1_555
Ga10 Rh5 2.546117 1_556
Ga10 Rh1 2.546117 1_565
Ga10 Zr3 2.806285 1_555
Ga10 Zr1 2.806285 1_555
Ga10 Zr5 2.806290 1_555
Ga10 Ga3 2.815176 1_455
Ga11 Rh4 2.546115 1_556
Ga11 Rh2 2.546115 1_565
Ga11 Rh3 2.546115 1_655
Ga11 Zr5 2.806281 1_555
Ga11 Zr4 2.806281 1_555
Ga11 Zr0 2.806281 1_555
Ga11 Ga2 2.815173 1_555
Ga12 Rh4 2.546110 1_556
Ga12 Rh5 2.546117 1_556
Ga12 Rh6 2.546117 1_556
Ga12 Zr5 2.806285 1_555
Ga12 Zr4 2.806285 1_555
Ga12 Zr3 2.806290 1_555
Ga12 Ga6 2.815162 1_556
Ga12 Ga5 2.815162 1_556
Ga12 Ga7 2.815176 1_556
Ga13 Rh2 2.546110 1_565
Ga13 Rh1 2.546117 1_565
Ga13 Rh6 2.546117 1_565
Ga13 Zr0 2.806285 1_555
Ga13 Zr5 2.806285 1_555
Ga13 Zr1 2.806290 1_555
Ga13 Ga6 2.815162 1_565
Ga13 Ga4 2.815162 1_565
Ga13 Ga7 2.815176 1_565
Ga14 Rh3 2.546110 1_655
Ga14 Rh5 2.546117 1_655
Ga14 Rh1 2.546117 1_655
Ga14 Zr4 2.806285 1_555
Ga14 Zr0 2.806285 1_555
Ga14 Zr2 2.806290 1_555
Ga14 Ga4 2.815162 1_655
Ga14 Ga5 2.815162 1_655
Ga14 Ga7 2.815176 1_655
Ga15 Rh4 2.546115 1_555
Ga15 Rh2 2.546115 1_555
Ga15 Rh3 2.546115 1_555
Ga15 Zr2 2.806281 1_555
Ga15 Zr1 2.806281 1_555
Ga15 Zr3 2.806281 1_555
Ga15 Ga5 2.815173 1_555
Ga15 Ga6 2.815173 1_555
Ga15 Ga4 2.815173 1_555
Rh1 Zr5 3.182250 1_545
Rh1 Zr4 3.182250 1_455
Rh1 Zr1 3.182250 1_545
Rh1 Zr2 3.182250 1_455
Rh2 Zr2 3.182250 1_555
Rh2 Zr3 3.182250 1_555
Rh2 Zr0 3.182250 1_545
Rh2 Zr5 3.182250 1_545
Rh3 Zr1 3.182250 1_555
Rh3 Zr3 3.182250 1_555
Rh3 Zr4 3.182250 1_455
Rh3 Zr0 3.182250 1_455
Rh4 Zr2 3.182250 1_555
Rh4 Zr1 3.182250 1_555
Rh4 Zr4 3.182250 1_554
Rh4 Zr5 3.182250 1_554
Rh5 Zr5 3.182250 1_554
Rh5 Zr0 3.182250 1_455
Rh5 Zr3 3.182250 1_554
Rh5 Zr2 3.182250 1_455
Rh6 Zr4 3.182250 1_554
Rh6 Zr0 3.182250 1_545
Rh6 Zr3 3.182250 1_554
Rh6 Zr1 3.182250 1_545
