# generated using pymatgen
data_Na4Co7(PO4)6
_symmetry_space_group_name_H-M   'P 1'
_cell_length_a   9.01306790
_cell_length_b   9.01306790
_cell_length_c   6.54024630
_cell_angle_alpha   80.72568802
_cell_angle_beta   80.72568802
_cell_angle_gamma   107.80473266
_symmetry_Int_Tables_number   1
_chemical_formula_structural   Na4Co7(PO4)6
_chemical_formula_sum   'Na4 Co7 P6 O24'
_cell_volume   486.55911900
_cell_formula_units_Z   1
loop_
 _symmetry_equiv_pos_site_id
 _symmetry_equiv_pos_as_xyz
  1  'x, y, z'
loop_
 _atom_site_type_symbol
 _atom_site_label
 _atom_site_symmetry_multiplicity
 _atom_site_fract_x
 _atom_site_fract_y
 _atom_site_fract_z
 _atom_site_occupancy
  Na  Na0  1  0.05943300  0.05943300  0.47986800  1
  Na  Na1  1  0.67602200  0.67602200  0.55784400  1
  Na  Na2  1  0.52043400  0.29112700  0.51086500  1
  Na  Na3  1  0.29112700  0.52043400  0.51086500  1
  Co  Co0  1  0.99662200  0.63950500  0.81767100  1
  Co  Co1  1  0.63950500  0.99662200  0.81767100  1
  Co  Co2  1  0.35689000  0.98444100  0.18427400  1
  Co  Co3  1  0.98444100  0.35689000  0.18427400  1
  Co  Co4  1  0.65239200  0.33741800  0.99794700  1
  Co  Co5  1  0.33741800  0.65239200  0.99794700  1
  Co  Co6  1  0.99498800  0.99498800  0.00359500  1
  P  P0  1  0.32055100  0.32055100  0.94341900  1
  P  P1  1  0.66673300  0.66673300  0.07740500  1
  P  P2  1  0.08020900  0.71447300  0.28972200  1
  P  P3  1  0.71447300  0.08020900  0.28972200  1
  P  P4  1  0.27800600  0.90345800  0.71137800  1
  P  P5  1  0.90345800  0.27800600  0.71137800  1
  O  O0  1  0.44166300  0.44166300  0.74946000  1
  O  O1  1  0.54784900  0.54784900  0.27288800  1
  O  O2  1  0.19489300  0.19489300  0.87415200  1
  O  O3  1  0.79482700  0.79482700  0.13959700  1
  O  O4  1  0.74749800  0.57592300  0.92816300  1
  O  O5  1  0.57592300  0.74749800  0.92816300  1
  O  O6  1  0.41353900  0.23777300  0.08457600  1
  O  O7  1  0.23777300  0.41353900  0.08457600  1
  O  O8  1  0.34243200  0.01616800  0.48985900  1
  O  O9  1  0.01616800  0.34243200  0.48985900  1
  O  O10  1  0.97214200  0.64984400  0.51301900  1
  O  O11  1  0.64984400  0.97214200  0.51301900  1
  O  O12  1  0.38737400  0.96636400  0.86374100  1
  O  O13  1  0.96636400  0.38737400  0.86374100  1
  O  O14  1  0.01626800  0.60690100  0.13626400  1
  O  O15  1  0.60690100  0.01626800  0.13626400  1
  O  O16  1  0.09796300  0.88820600  0.78372000  1
  O  O17  1  0.26001000  0.71980100  0.27062000  1
  O  O18  1  0.71980100  0.26001000  0.27062000  1
  O  O19  1  0.26779100  0.72363100  0.72557400  1
  O  O20  1  0.72363100  0.26779100  0.72557400  1
  O  O21  1  0.89692300  0.10421500  0.22004200  1
  O  O22  1  0.10421500  0.89692300  0.22004200  1
  O  O23  1  0.88820600  0.09796300  0.78372000  1
loop_
_geom_bond_atom_site_label_1
_geom_bond_atom_site_label_2
_geom_bond_distance
_geom_bond_site_symmetry_2
Na0 O16 2.452184 1_545
Na0 O23 2.452184 1_455
Na0 O22 2.477648 1_545
Na0 O21 2.477648 1_455
Na0 O9 2.704834 1_555
Na0 O8 2.704834 1_555
Na1 O0 2.461513 1_555
Na1 O1 2.591177 1_555
Na1 O3 2.680746 1_555
Na1 O4 2.692397 1_555
Na1 O5 2.692397 1_555
Na1 O11 2.723988 1_555
Na1 O10 2.723988 1_555
Na2 O18 2.305772 1_555
Na2 O0 2.386301 1_555
Na2 O1 2.490590 1_555
Na2 O20 2.517856 1_555
Na2 O8 2.546312 1_555
Na3 O17 2.305772 1_555
Na3 O0 2.386301 1_555
Na3 O1 2.490590 1_555
Na3 O19 2.517856 1_555
Na3 O9 2.546312 1_555
Co0 O10 2.030233 1_555
Co0 O14 2.100667 1_656
Co0 O16 2.104822 1_655
Co0 O4 2.109247 1_555
Co0 O13 2.168666 1_555
Co0 O19 2.270718 1_655
Co1 O11 2.030233 1_555
Co1 O15 2.100667 1_566
Co1 O23 2.104822 1_565
Co1 O5 2.109247 1_555
Co1 O12 2.168666 1_555
Co1 O20 2.270718 1_565
Co2 O8 2.053342 1_565
Co2 O12 2.109170 1_554
Co2 O22 2.129225 1_555
Co2 O6 2.144569 1_565
Co2 O15 2.146193 1_565
Co2 O17 2.214460 1_555
Co3 O9 2.053342 1_655
Co3 O13 2.109170 1_554
Co3 O21 2.129225 1_555
Co3 O7 2.144569 1_655
Co3 O14 2.146193 1_655
Co3 O18 2.214460 1_555
Co4 O4 1.998727 1_555
Co4 O6 2.005641 1_556
Co4 O20 2.053656 1_555
Co4 O18 2.060012 1_556
Co5 O5 1.998727 1_555
Co5 O7 2.005641 1_556
Co5 O19 2.053656 1_555
Co5 O17 2.060012 1_556
Co6 O2 2.059315 1_664
Co6 O3 2.067766 1_555
Co6 O21 2.081444 1_565
Co6 O22 2.081444 1_655
Co6 O23 2.101858 1_564
Co6 O16 2.101858 1_654
O0 P0 1.539797 1_555
O1 P1 1.531531 1_555
O2 P0 1.522154 1_555
O3 P1 1.522782 1_555
O4 P1 1.595424 1_556
O5 P1 1.595424 1_556
O6 P0 1.587813 1_554
O7 P0 1.587813 1_554
O8 P4 1.536834 1_545
O9 P5 1.536834 1_455
O10 P2 1.530088 1_655
O11 P3 1.530088 1_565
O12 P4 1.563034 1_555
O13 P5 1.563034 1_555
O14 P2 1.561364 1_555
O15 P3 1.561364 1_555
O16 P4 1.572000 1_555
O17 P2 1.590390 1_555
O18 P3 1.590390 1_555
O19 P4 1.581629 1_555
O20 P5 1.581629 1_555
O21 P3 1.570904 1_555
O22 P2 1.570904 1_555
O23 P5 1.572000 1_555
