# generated using pymatgen
data_Ca8Ti3Mn5O24
_symmetry_space_group_name_H-M   'P 1'
_cell_length_a   10.86515120
_cell_length_b   15.22945251
_cell_length_c   10.70820318
_cell_angle_alpha   90.00000000
_cell_angle_beta   90.01640191
_cell_angle_gamma   90.00000000
_symmetry_Int_Tables_number   1
_chemical_formula_structural   Ca8Ti3Mn5O24
_chemical_formula_sum   'Ca32 Ti12 Mn20 O96'
_cell_volume   1771.88956534
_cell_formula_units_Z   4
loop_
 _symmetry_equiv_pos_site_id
 _symmetry_equiv_pos_as_xyz
  1  'x, y, z'
loop_
 _atom_site_type_symbol
 _atom_site_label
 _atom_site_symmetry_multiplicity
 _atom_site_fract_x
 _atom_site_fract_y
 _atom_site_fract_z
 _atom_site_occupancy
  Ca  Ca0  1  0.01942132  0.12500000  0.49622752  1
  Ca  Ca1  1  0.01943532  0.12500000  0.99594300  1
  Ca  Ca2  1  0.02257051  0.62500000  0.49743019  1
  Ca  Ca3  1  0.01942025  0.62500000  0.99478448  1
  Ca  Ca4  1  0.52428522  0.12500000  0.49557234  1
  Ca  Ca5  1  0.52431062  0.12500000  0.99524256  1
  Ca  Ca6  1  0.52355404  0.62500000  0.49570384  1
  Ca  Ca7  1  0.52398635  0.62500000  0.99514603  1
  Ca  Ca8  1  0.48045378  0.37470623  0.00425620  1
  Ca  Ca9  1  0.47937971  0.37611252  0.50561345  1
  Ca  Ca10  1  0.48045378  0.87529377  0.00425620  1
  Ca  Ca11  1  0.47937971  0.87388748  0.50561345  1
  Ca  Ca12  1  0.97602591  0.37577730  0.00279792  1
  Ca  Ca13  1  0.97625089  0.37581658  0.50512777  1
  Ca  Ca14  1  0.97602591  0.87422270  0.00279792  1
  Ca  Ca15  1  0.97625089  0.87418342  0.50512777  1
  Ca  Ca16  1  0.23034041  0.37530358  0.24690642  1
  Ca  Ca17  1  0.22921684  0.37653110  0.74464243  1
  Ca  Ca18  1  0.23034041  0.87469642  0.24690642  1
  Ca  Ca19  1  0.22921684  0.87346890  0.74464343  1
  Ca  Ca20  1  0.72591229  0.37483036  0.24584425  1
  Ca  Ca21  1  0.72641687  0.37517019  0.74498672  1
  Ca  Ca22  1  0.72591229  0.87516964  0.24584425  1
  Ca  Ca23  1  0.72641687  0.87482981  0.74498772  1
  Ca  Ca24  1  0.27421462  0.12500000  0.25398176  1
  Ca  Ca25  1  0.27439472  0.12500000  0.75378795  1
  Ca  Ca26  1  0.27416100  0.62500000  0.25554446  1
  Ca  Ca27  1  0.27288364  0.62500000  0.75184658  1
  Ca  Ca28  1  0.76925682  0.12500000  0.25517948  1
  Ca  Ca29  1  0.76920984  0.12500000  0.75477203  1
  Ca  Ca30  1  0.76906292  0.62500000  0.25460418  1
  Ca  Ca31  1  0.77295170  0.62500000  0.75512442  1
  Ti  Ti0  1  0.99866502  0.99990523  0.25007273  1
  Ti  Ti1  1  0.99843574  0.99924550  0.74977350  1
  Ti  Ti2  1  0.99888417  0.49976575  0.25040739  1
  Ti  Ti3  1  0.25122621  0.99983239  0.00005715  1
  Ti  Ti4  1  0.25106343  0.99930825  0.50076795  1
  Ti  Ti5  1  0.25074366  0.49997788  0.99921692  1
  Ti  Ti6  1  0.25122621  0.25016761  0.00005715  1
  Ti  Ti7  1  0.25106343  0.25069175  0.50076795  1
  Ti  Ti8  1  0.25074366  0.75002212  0.99921692  1
  Ti  Ti9  1  0.99866502  0.25009477  0.25007273  1
  Ti  Ti10  1  0.99843574  0.25075450  0.74977350  1
  Ti  Ti11  1  0.99888417  0.75023425  0.25040739  1
  Mn  Mn0  1  0.00079037  0.50136133  0.74964544  1
  Mn  Mn1  1  0.50151655  0.00025510  0.25171332  1
  Mn  Mn2  1  0.50168798  0.00007442  0.75160828  1
  Mn  Mn3  1  0.50036575  0.49951938  0.25148273  1
  Mn  Mn4  1  0.50155238  0.50072326  0.75000925  1
  Mn  Mn5  1  0.25180454  0.50128722  0.49888878  1
  Mn  Mn6  1  0.74835337  0.99984193  0.00172979  1
  Mn  Mn7  1  0.74831203  0.99964959  0.50161364  1
  Mn  Mn8  1  0.74852161  0.49931256  0.00020243  1
  Mn  Mn9  1  0.75009665  0.50054584  0.50188033  1
  Mn  Mn10  1  0.25180454  0.74871278  0.49888878  1
  Mn  Mn11  1  0.74835337  0.25015807  0.00172979  1
  Mn  Mn12  1  0.74831203  0.25035041  0.50161364  1
  Mn  Mn13  1  0.74852161  0.75068744  0.00020243  1
  Mn  Mn14  1  0.75009665  0.74945416  0.50188033  1
  Mn  Mn15  1  0.00079037  0.74863867  0.74964544  1
  Mn  Mn16  1  0.50151655  0.24974490  0.25171332  1
  Mn  Mn17  1  0.50168798  0.24992558  0.75160828  1
  Mn  Mn18  1  0.50036575  0.75048062  0.25148273  1
  Mn  Mn19  1  0.50155238  0.74927674  0.75000925  1
  O  O0  1  0.10506353  0.27028324  0.10389347  1
  O  O1  1  0.10498147  0.26961456  0.60368766  1
  O  O2  1  0.10561228  0.77023463  0.10491663  1
  O  O3  1  0.10423492  0.77024589  0.60255283  1
  O  O4  1  0.60289023  0.27043017  0.10245515  1
  O  O5  1  0.60273239  0.27050436  0.60234866  1
  O  O6  1  0.60289126  0.77029678  0.10263351  1
  O  O7  1  0.60388981  0.77030016  0.60293951  1
  O  O8  1  0.39720713  0.23086699  0.39397665  1
  O  O9  1  0.39762143  0.23022413  0.89394538  1
  O  O10  1  0.39707453  0.72888124  0.39726408  1
  O  O11  1  0.39666062  0.73025043  0.89313565  1
  O  O12  1  0.89271485  0.23078838  0.39751116  1
  O  O13  1  0.89303894  0.23129155  0.89753858  1
  O  O14  1  0.89252492  0.73050440  0.39734146  1
  O  O15  1  0.89629817  0.72967169  0.89747241  1
  O  O16  1  0.14520953  0.23023414  0.35405252  1
  O  O17  1  0.14422496  0.23034963  0.85370303  1
  O  O18  1  0.14671919  0.73002823  0.35556280  1
  O  O19  1  0.14353210  0.72973279  0.85266607  1
  O  O20  1  0.64703535  0.22962362  0.35240519  1
  O  O21  1  0.64713241  0.22957998  0.85258241  1
  O  O22  1  0.64628491  0.72966753  0.35280420  1
  O  O23  1  0.64672967  0.72945500  0.85266939  1
  O  O24  1  0.35723328  0.26916253  0.14764078  1
  O  O25  1  0.35696280  0.26882428  0.64766381  1
  O  O26  1  0.35672200  0.76948891  0.14726503  1
  O  O27  1  0.35426627  0.77015130  0.64689906  1
  O  O28  1  0.85230111  0.26977533  0.14386157  1
  O  O29  1  0.85242696  0.26944105  0.64388004  1
  O  O30  1  0.85288658  0.76971035  0.14396026  1
  O  O31  1  0.85385582  0.77078414  0.64734236  1
  O  O32  1  0.35672200  0.48051009  0.14726503  1
  O  O33  1  0.35426627  0.47984770  0.64689906  1
  O  O34  1  0.35723328  0.98083647  0.14764078  1
  O  O35  1  0.35696280  0.98117472  0.64766381  1
  O  O36  1  0.85288758  0.48028865  0.14396026  1
  O  O37  1  0.85385682  0.47921486  0.64734136  1
  O  O38  1  0.85230111  0.98022367  0.14386157  1
  O  O39  1  0.85242696  0.98055795  0.64388004  1
  O  O40  1  0.14520953  0.01976486  0.35405252  1
  O  O41  1  0.14422496  0.01964937  0.85370303  1
  O  O42  1  0.14671919  0.51997077  0.35556280  1
  O  O43  1  0.14353210  0.52026621  0.85266607  1
  O  O44  1  0.64703435  0.02037538  0.35240519  1
  O  O45  1  0.64713141  0.02041902  0.85258241  1
  O  O46  1  0.64628391  0.52033147  0.35280420  1
  O  O47  1  0.64672867  0.52054400  0.85266939  1
  O  O48  1  0.39720713  0.01913201  0.39397665  1
  O  O49  1  0.39762143  0.01977487  0.89394538  1
  O  O50  1  0.39707453  0.52111776  0.39726408  1
  O  O51  1  0.39666062  0.51974857  0.89313565  1
  O  O52  1  0.89271385  0.01921062  0.39751216  1
  O  O53  1  0.89303794  0.01870745  0.89753858  1
  O  O54  1  0.89252492  0.51949460  0.39734146  1
  O  O55  1  0.89629817  0.52032731  0.89747241  1
  O  O56  1  0.10561228  0.47976437  0.10491763  1
  O  O57  1  0.10423492  0.47975311  0.60255283  1
  O  O58  1  0.10506353  0.97971576  0.10389347  1
  O  O59  1  0.10498147  0.98038444  0.60368766  1
  O  O60  1  0.60289126  0.47970222  0.10263251  1
  O  O61  1  0.60388981  0.47969884  0.60293851  1
  O  O62  1  0.60289023  0.97956883  0.10245615  1
  O  O63  1  0.60273239  0.97949464  0.60234866  1
  O  O64  1  0.00869061  0.37503769  0.28733489  1
  O  O65  1  0.00899881  0.37738629  0.78630230  1
  O  O66  1  0.00869161  0.87496231  0.28733489  1
  O  O67  1  0.00899981  0.87261371  0.78630230  1
  O  O68  1  0.51064652  0.37494227  0.29067546  1
  O  O69  1  0.51028405  0.37525837  0.79021366  1
  O  O70  1  0.51064652  0.87505773  0.29067546  1
  O  O71  1  0.51028405  0.87474163  0.79021366  1
  O  O72  1  0.49009675  0.12500000  0.21040249  1
  O  O73  1  0.49028791  0.12500000  0.71032377  1
  O  O74  1  0.48975060  0.62500000  0.21080241  1
  O  O75  1  0.49020732  0.62500000  0.70985930  1
  O  O76  1  0.99085578  0.12500000  0.21250412  1
  O  O77  1  0.99058710  0.12500000  0.71276502  1
  O  O78  1  0.99220940  0.62500000  0.21325769  1
  O  O79  1  0.98879602  0.62500000  0.70956382  1
  O  O80  1  0.24079632  0.12500000  0.03704034  1
  O  O81  1  0.24109713  0.12500000  0.53693375  1
  O  O82  1  0.24089834  0.62500000  0.03672686  1
  O  O83  1  0.24026986  0.62500000  0.53976149  1
  O  O84  1  0.73941219  0.12500000  0.04083118  1
  O  O85  1  0.73919814  0.12500000  0.54072616  1
  O  O86  1  0.74034076  0.62500000  0.03969749  1
  O  O87  1  0.73891842  0.62500000  0.54053813  1
  O  O88  1  0.25894174  0.37745683  0.46299742  1
  O  O89  1  0.25935252  0.37499513  0.96258544  1
  O  O90  1  0.25894274  0.87254317  0.46299842  1
  O  O91  1  0.25935352  0.87500487  0.96258644  1
  O  O92  1  0.76013741  0.37523069  0.46064936  1
  O  O93  1  0.75953830  0.37499263  0.96012194  1
  O  O94  1  0.76013741  0.87476931  0.46064936  1
  O  O95  1  0.75953830  0.87500737  0.96012294  1
loop_
_geom_bond_atom_site_label_1
_geom_bond_atom_site_label_2
_geom_bond_distance
_geom_bond_site_symmetry_2
Ca0 O77 2.339885 1_455
Ca0 O12 2.368011 1_455
Ca0 O52 2.368023 1_455
Ca0 O81 2.447544 1_555
Ca0 O16 2.599118 1_555
Ca0 O40 2.599128 1_555
Ca0 O1 2.652975 1_555
Ca0 O59 2.652988 1_545
Ca1 O76 2.339766 1_456
Ca1 O13 2.369792 1_455
Ca1 O53 2.369809 1_455
Ca1 O80 2.444927 1_556
Ca1 O17 2.594923 1_555
Ca1 O41 2.594933 1_555
Ca1 O0 2.663967 1_556
Ca1 O58 2.663980 1_546
Ca2 O79 2.301124 1_455
Ca2 O14 2.392910 1_455
Ca2 O54 2.392920 1_455
Ca2 O83 2.408252 1_555
Ca2 O18 2.585916 1_555
Ca2 O42 2.585925 1_555
Ca2 O3 2.635693 1_555
Ca2 O57 2.635706 1_555
Ca3 O15 2.327171 1_455
Ca3 O55 2.327181 1_455
Ca3 O78 2.358147 1_456
Ca3 O82 2.447820 1_556
Ca3 O19 2.584509 1_555
Ca3 O43 2.584518 1_555
Ca3 O2 2.675710 1_556
Ca3 O56 2.675727 1_556
Ca4 O73 2.329185 1_555
Ca4 O85 2.384461 1_555
Ca4 O8 2.385074 1_555
Ca4 O48 2.385084 1_555
Ca4 O20 2.582441 1_555
Ca4 O44 2.582445 1_555
Ca4 O5 2.635089 1_555
Ca4 O63 2.635101 1_545
Ca5 O72 2.333878 1_556
Ca5 O9 2.374555 1_555
Ca5 O49 2.374565 1_555
Ca5 O84 2.387414 1_556
Ca5 O21 2.579213 1_555
Ca5 O45 2.579217 1_555
Ca5 O4 2.636635 1_556
Ca5 O62 2.636652 1_546
Ca6 O75 2.321768 1_555
Ca6 O10 2.345570 1_555
Ca6 O50 2.345580 1_555
Ca6 O87 2.388575 1_555
Ca6 O22 2.581046 1_555
Ca6 O46 2.581050 1_555
Ca6 O7 2.641321 1_555
Ca6 O61 2.641329 1_555
Ca7 O74 2.339164 1_556
Ca7 O11 2.382331 1_555
Ca7 O51 2.382341 1_555
Ca7 O86 2.398510 1_556
Ca7 O23 2.576433 1_555
Ca7 O47 2.576437 1_555
Ca7 O6 2.637358 1_556
Ca7 O60 2.637366 1_556
Ca8 O69 2.314921 1_554
Ca8 O4 2.323048 1_555
Ca8 O60 2.331421 1_555
Ca8 O89 2.443267 1_554
Ca8 O24 2.595123 1_555
Ca8 O32 2.598073 1_555
Ca8 O9 2.654498 1_554
Ca8 O51 2.668975 1_554
Ca9 O61 2.324684 1_555
Ca9 O68 2.326700 1_555
Ca9 O5 2.335653 1_555
Ca9 O88 2.438136 1_555
Ca9 O33 2.575627 1_555
Ca9 O25 2.598805 1_555
Ca9 O50 2.649914 1_555
Ca9 O8 2.668061 1_555
Ca10 O71 2.314921 1_554
Ca10 O62 2.323043 1_555
Ca10 O6 2.331436 1_555
Ca10 O91 2.443255 1_554
Ca10 O34 2.595113 1_555
Ca10 O26 2.598082 1_555
Ca10 O49 2.654485 1_564
Ca10 O11 2.668987 1_554
Ca11 O7 2.324699 1_555
Ca11 O70 2.326700 1_555
Ca11 O63 2.335642 1_555
Ca11 O90 2.438123 1_555
Ca11 O27 2.575637 1_555
Ca11 O35 2.598796 1_555
Ca11 O10 2.649926 1_555
Ca11 O48 2.668049 1_565
Ca12 O65 2.346027 1_654
Ca12 O56 2.384386 1_655
Ca12 O0 2.391215 1_655
Ca12 O93 2.396052 1_554
Ca12 O36 2.570885 1_555
Ca12 O28 2.587689 1_555
Ca12 O55 2.620709 1_554
Ca12 O13 2.631500 1_554
Ca13 O57 2.350908 1_655
Ca13 O64 2.358784 1_655
Ca13 O1 2.384386 1_655
Ca13 O92 2.395806 1_555
Ca13 O37 2.562882 1_555
Ca13 O29 2.577450 1_555
Ca13 O54 2.635728 1_555
Ca13 O12 2.651327 1_555
Ca14 O67 2.346028 1_654
Ca14 O2 2.384391 1_655
Ca14 O58 2.391204 1_655
Ca14 O95 2.396050 1_554
Ca14 O30 2.570900 1_555
Ca14 O38 2.587679 1_555
Ca14 O15 2.620722 1_554
Ca14 O53 2.631491 1_564
Ca15 O3 2.350918 1_655
Ca15 O66 2.358785 1_655
Ca15 O59 2.384376 1_655
Ca15 O94 2.395806 1_555
Ca15 O31 2.562903 1_555
Ca15 O39 2.577441 1_555
Ca15 O14 2.635741 1_555
Ca15 O52 2.651313 1_565
Ca16 O88 2.334862 1_555
Ca16 O32 2.364742 1_555
Ca16 O24 2.375823 1_555
Ca16 O64 2.446986 1_555
Ca16 O56 2.584185 1_555
Ca16 O0 2.599010 1_555
Ca16 O42 2.652159 1_555
Ca16 O16 2.655877 1_555
Ca17 O33 2.327677 1_555
Ca17 O89 2.356658 1_555
Ca17 O25 2.386705 1_555
Ca17 O65 2.434094 1_555
Ca17 O57 2.574705 1_555
Ca17 O1 2.598152 1_555
Ca17 O43 2.645209 1_555
Ca17 O17 2.678336 1_555
Ca18 O90 2.334874 1_555
Ca18 O26 2.364753 1_555
Ca18 O34 2.375812 1_555
Ca18 O66 2.446975 1_555
Ca18 O2 2.584201 1_555
Ca18 O58 2.599000 1_555
Ca18 O18 2.652172 1_555
Ca18 O40 2.655864 1_565
Ca19 O27 2.327692 1_555
Ca19 O91 2.356660 1_555
Ca19 O35 2.386699 1_555
Ca19 O67 2.434081 1_555
Ca19 O3 2.574720 1_555
Ca19 O59 2.598148 1_555
Ca19 O19 2.645217 1_555
Ca19 O41 2.678319 1_565
Ca20 O92 2.329944 1_555
Ca20 O28 2.374654 1_555
Ca20 O36 2.381997 1_555
Ca20 O68 2.387789 1_555
Ca20 O4 2.582829 1_555
Ca20 O60 2.586125 1_555
Ca20 O20 2.632006 1_555
Ca20 O46 2.640292 1_555
Ca21 O93 2.331550 1_555
Ca21 O37 2.349929 1_555
Ca21 O29 2.374920 1_555
Ca21 O69 2.397871 1_555
Ca21 O61 2.572744 1_555
Ca21 O5 2.584289 1_555
Ca21 O47 2.642247 1_555
Ca21 O21 2.643170 1_555
Ca22 O94 2.329944 1_555
Ca22 O38 2.374644 1_555
Ca22 O30 2.382001 1_555
Ca22 O70 2.387789 1_555
Ca22 O62 2.582814 1_555
Ca22 O6 2.586128 1_555
Ca22 O44 2.631997 1_565
Ca22 O22 2.640301 1_555
Ca23 O95 2.331550 1_555
Ca23 O31 2.349933 1_555
Ca23 O39 2.374915 1_555
Ca23 O71 2.397869 1_555
Ca23 O7 2.572753 1_555
Ca23 O63 2.584286 1_555
Ca23 O23 2.642252 1_555
Ca23 O45 2.643156 1_565
Ca24 O80 2.351155 1_555
Ca24 O16 2.383758 1_555
Ca24 O40 2.383768 1_555
Ca24 O72 2.391693 1_555
Ca24 O8 2.575154 1_555
Ca24 O48 2.575164 1_555
Ca24 O24 2.632715 1_555
Ca24 O34 2.632728 1_545
Ca25 O81 2.350030 1_555
Ca25 O73 2.391570 1_555
Ca25 O17 2.391655 1_555
Ca25 O41 2.391665 1_555
Ca25 O9 2.571375 1_555
Ca25 O49 2.571384 1_555
Ca25 O25 2.625738 1_555
Ca25 O35 2.625751 1_545
Ca26 O82 2.370749 1_555
Ca26 O18 2.371439 1_555
Ca26 O42 2.371449 1_555
Ca26 O74 2.391043 1_555
Ca26 O10 2.566753 1_555
Ca26 O50 2.566763 1_555
Ca26 O26 2.644202 1_555
Ca26 O32 2.644215 1_555
Ca27 O83 2.298429 1_555
Ca27 O19 2.384473 1_555
Ca27 O43 2.384483 1_555
Ca27 O75 2.403805 1_555
Ca27 O11 2.581822 1_555
Ca27 O51 2.581831 1_555
Ca27 O27 2.632870 1_555
Ca27 O33 2.632883 1_555
Ca28 O84 2.317985 1_555
Ca28 O20 2.320984 1_555
Ca28 O44 2.321001 1_555
Ca28 O76 2.450818 1_555
Ca28 O12 2.591665 1_555
Ca28 O52 2.591675 1_555
Ca28 O28 2.664019 1_555
Ca28 O38 2.664032 1_545
Ca29 O85 2.315033 1_555
Ca29 O21 2.322450 1_555
Ca29 O45 2.322467 1_555
Ca29 O77 2.447123 1_555
Ca29 O13 2.601254 1_555
Ca29 O53 2.601258 1_555
Ca29 O29 2.658405 1_555
Ca29 O39 2.658417 1_545
Ca30 O86 2.322239 1_555
Ca30 O22 2.329601 1_555
Ca30 O46 2.329618 1_555
Ca30 O78 2.464739 1_555
Ca30 O14 2.591560 1_555
Ca30 O54 2.591569 1_555
Ca30 O30 2.662863 1_555
Ca30 O36 2.662879 1_555
Ca31 O87 2.327292 1_555
Ca31 O23 2.345908 1_555
Ca31 O47 2.345924 1_555
Ca31 O79 2.395527 1_555
Ca31 O15 2.580601 1_555
Ca31 O55 2.580611 1_555
Ca31 O31 2.652300 1_555
Ca31 O37 2.652321 1_555
Mn0 O43 1.924633 1_555
Mn0 O65 1.930500 1_555
Mn0 O79 1.935630 1_455
Mn0 O57 1.963029 1_555
Mn0 O37 1.965077 1_455
Mn0 O55 1.969564 1_455
Mn1 O48 1.920623 1_555
Mn1 O44 1.937856 1_555
Mn1 O34 1.945757 1_545
Mn1 O70 1.954314 1_545
Mn1 O72 1.954553 1_555
Mn1 O62 1.966702 1_545
Mn2 O49 1.921612 1_555
Mn2 O45 1.939423 1_555
Mn2 O35 1.947660 1_545
Mn2 O71 1.955229 1_545
Mn2 O73 1.957150 1_555
Mn2 O63 1.964462 1_545
Mn3 O32 1.940117 1_555
Mn3 O68 1.946307 1_555
Mn3 O46 1.946845 1_555
Mn3 O50 1.950794 1_555
Mn3 O74 1.963405 1_555
Mn3 O60 1.968140 1_555
Mn4 O51 1.932028 1_555
Mn4 O75 1.944786 1_555
Mn4 O47 1.945937 1_555
Mn4 O61 1.954499 1_555
Mn4 O69 1.960952 1_555
Mn4 O33 1.969789 1_555
Mn5 O88 1.926199 1_555
Mn5 O42 1.933674 1_555
Mn5 O83 1.938310 1_555
Mn5 O50 1.941055 1_555
Mn5 O33 1.963909 1_555
Mn5 O57 1.977771 1_555
Mn6 O38 1.918399 1_555
Mn6 O62 1.938450 1_555
Mn6 O53 1.949253 1_564
Mn6 O84 1.953958 1_565
Mn6 O95 1.956455 1_554
Mn6 O45 1.964045 1_564
Mn7 O39 1.919381 1_555
Mn7 O63 1.939249 1_555
Mn7 O52 1.947817 1_565
Mn7 O94 1.956022 1_555
Mn7 O85 1.956935 1_565
Mn7 O44 1.965278 1_565
Mn8 O36 1.933521 1_555
Mn8 O93 1.945055 1_554
Mn8 O60 1.948566 1_555
Mn8 O47 1.955144 1_554
Mn8 O86 1.962335 1_555
Mn8 O55 1.972703 1_554
Mn9 O54 1.931877 1_555
Mn9 O87 1.943852 1_555
Mn9 O61 1.948424 1_555
Mn9 O37 1.949792 1_555
Mn9 O92 1.961928 1_555
Mn9 O46 1.977450 1_555
Mn10 O90 1.926198 1_555
Mn10 O18 1.933676 1_555
Mn10 O83 1.938310 1_555
Mn10 O10 1.941058 1_555
Mn10 O27 1.963906 1_555
Mn10 O3 1.977769 1_555
Mn11 O28 1.918397 1_555
Mn11 O4 1.938442 1_555
Mn11 O13 1.949264 1_554
Mn11 O84 1.953958 1_555
Mn11 O93 1.956458 1_554
Mn11 O21 1.964041 1_554
Mn12 O29 1.919378 1_555
Mn12 O5 1.939246 1_555
Mn12 O12 1.947834 1_555
Mn12 O92 1.956022 1_555
Mn12 O85 1.956935 1_555
Mn12 O20 1.965274 1_555
Mn13 O30 1.933512 1_555
Mn13 O95 1.945053 1_554
Mn13 O6 1.948570 1_555
Mn13 O23 1.955140 1_554
Mn13 O86 1.962335 1_555
Mn13 O15 1.972705 1_554
Mn14 O14 1.931879 1_555
Mn14 O87 1.943852 1_555
Mn14 O7 1.948427 1_555
Mn14 O31 1.949792 1_555
Mn14 O94 1.961928 1_555
Mn14 O22 1.977447 1_555
Mn15 O19 1.924635 1_555
Mn15 O67 1.930500 1_555
Mn15 O79 1.935630 1_455
Mn15 O3 1.963026 1_555
Mn15 O31 1.965078 1_455
Mn15 O15 1.969567 1_455
Mn16 O8 1.920625 1_555
Mn16 O20 1.937868 1_555
Mn16 O24 1.945754 1_555
Mn16 O68 1.954314 1_555
Mn16 O72 1.954553 1_555
Mn16 O4 1.966708 1_555
Mn17 O9 1.921614 1_555
Mn17 O21 1.939435 1_555
Mn17 O25 1.947657 1_555
Mn17 O69 1.955229 1_555
Mn17 O73 1.957150 1_555
Mn17 O5 1.964459 1_555
Mn18 O26 1.940115 1_555
Mn18 O70 1.946307 1_555
Mn18 O22 1.946856 1_555
Mn18 O10 1.950796 1_555
Mn18 O74 1.963405 1_555
Mn18 O6 1.968129 1_555
Mn19 O11 1.932030 1_555
Mn19 O75 1.944786 1_555
Mn19 O23 1.945948 1_555
Mn19 O7 1.954488 1_555
Mn19 O71 1.960952 1_555
Mn19 O27 1.969787 1_555
O0 Ti6 1.962952 1_555
O0 Ti9 1.970331 1_455
O1 Ti7 1.953933 1_555
O1 Ti10 1.967421 1_455
O2 Ti8 1.965555 1_554
O2 Ti11 1.966142 1_455
O8 Ti7 1.980209 1_555
O9 Ti6 1.978488 1_556
O11 Ti8 1.973723 1_555
O12 Ti9 1.976179 1_555
O13 Ti10 1.975839 1_555
O14 Ti11 1.975436 1_555
O16 Ti9 1.966063 1_455
O16 Ti7 1.971556 1_555
O17 Ti10 1.960415 1_455
O17 Ti6 1.974269 1_556
O18 Ti11 1.985354 1_455
O19 Ti8 1.978394 1_555
O24 Ti6 1.976555 1_555
O25 Ti7 1.968103 1_555
O26 Ti8 1.981414 1_554
O28 Ti9 1.977692 1_555
O29 Ti10 1.970391 1_555
O30 Ti11 1.975480 1_555
O32 Ti5 1.981416 1_554
O34 Ti3 1.976557 1_555
O35 Ti4 1.968106 1_555
O36 Ti2 1.975473 1_555
O38 Ti0 1.977694 1_555
O39 Ti1 1.970394 1_555
O40 Ti0 1.966061 1_445
O40 Ti4 1.971553 1_545
O41 Ti1 1.960413 1_445
O41 Ti3 1.974266 1_546
O42 Ti2 1.985352 1_455
O43 Ti5 1.978392 1_555
O48 Ti4 1.980207 1_545
O49 Ti3 1.978486 1_546
O51 Ti5 1.973721 1_555
O52 Ti0 1.976192 1_545
O53 Ti1 1.975843 1_545
O54 Ti2 1.975433 1_555
O56 Ti5 1.965563 1_554
O56 Ti2 1.966136 1_455
O58 Ti3 1.962954 1_555
O58 Ti0 1.970333 1_455
O59 Ti4 1.953936 1_555
O59 Ti1 1.967423 1_455
O64 Ti2 1.943179 1_455
O64 Ti9 1.947240 1_455
O65 Ti10 1.971139 1_455
O66 Ti11 1.943179 1_455
O66 Ti0 1.947241 1_455
O67 Ti1 1.971140 1_455
O76 Ti0 1.948979 1_545
O76 Ti9 1.948979 1_555
O77 Ti10 1.957597 1_555
O77 Ti1 1.957597 1_545
O78 Ti2 1.949639 1_555
O78 Ti11 1.949639 1_555
O80 Ti6 1.950239 1_555
O80 Ti3 1.950239 1_545
O81 Ti4 1.956004 1_545
O81 Ti7 1.956004 1_555
O82 Ti8 1.948868 1_554
O82 Ti5 1.948868 1_554
O88 Ti7 1.974336 1_555
O89 Ti6 1.944950 1_556
O89 Ti5 1.945672 1_555
O90 Ti4 1.974334 1_555
O91 Ti3 1.944948 1_556
O91 Ti8 1.945670 1_555
