# generated using pymatgen
data_Sc3In
_symmetry_space_group_name_H-M   'P 1'
_cell_length_a   6.40658579
_cell_length_b   6.40658484
_cell_length_c   5.22519347
_cell_angle_alpha   90.00000000
_cell_angle_beta   90.00000000
_cell_angle_gamma   120.00000486
_symmetry_Int_Tables_number   1
_chemical_formula_structural   Sc3In
_chemical_formula_sum   'Sc6 In2'
_cell_volume   185.73177688
_cell_formula_units_Z   2
loop_
 _symmetry_equiv_pos_site_id
 _symmetry_equiv_pos_as_xyz
  1  'x, y, z'
loop_
 _atom_site_type_symbol
 _atom_site_label
 _atom_site_symmetry_multiplicity
 _atom_site_fract_x
 _atom_site_fract_y
 _atom_site_fract_z
 _atom_site_occupancy
  Sc  Sc0  1  0.83081911  0.16918089  0.25000000  1
  Sc  Sc1  1  0.66163822  0.83081911  0.75000000  1
  Sc  Sc2  1  0.16918089  0.33836178  0.75000000  1
  Sc  Sc3  1  0.83081911  0.66163822  0.25000000  1
  Sc  Sc4  1  0.33836178  0.16918089  0.25000000  1
  Sc  Sc5  1  0.16918089  0.83081911  0.75000000  1
  In  In0  1  0.33333300  0.66666700  0.25000000  1
  In  In1  1  0.66666700  0.33333300  0.75000000  1
loop_
_geom_bond_atom_site_label_1
_geom_bond_atom_site_label_2
_geom_bond_distance
_geom_bond_site_symmetry_2
Sc0 Sc3 3.154970 1_555
Sc0 Sc4 3.154970 1_555
Sc0 Sc1 3.217141 1_544
Sc0 Sc1 3.217141 1_545
Sc0 Sc2 3.217141 1_654
Sc0 Sc2 3.217141 1_655
Sc0 Sc3 3.251615 1_545
Sc0 Sc4 3.251616 1_655
Sc1 Sc2 3.154970 1_555
Sc1 Sc5 3.154970 1_555
Sc1 Sc3 3.217141 1_556
Sc1 Sc3 3.217141 1_555
Sc1 Sc2 3.251615 1_665
Sc1 Sc5 3.251616 1_655
Sc2 Sc5 3.154970 1_555
Sc2 Sc4 3.217141 1_555
Sc2 Sc4 3.217141 1_556
Sc2 Sc5 3.251615 1_545
Sc3 Sc4 3.154970 1_555
Sc3 Sc5 3.217141 1_655
Sc3 Sc5 3.217141 1_654
Sc3 Sc4 3.251615 1_665
Sc4 Sc5 3.217141 1_544
Sc4 Sc5 3.217141 1_545
In0 Sc5 3.184901 1_555
In0 Sc5 3.184901 1_554
In0 Sc2 3.184904 1_554
In0 Sc2 3.184904 1_555
In0 Sc1 3.184904 1_554
In0 Sc1 3.184904 1_555
In0 Sc4 3.203411 1_565
In0 Sc3 3.203411 1_455
In0 Sc0 3.203414 1_565
In0 Sc0 3.203414 1_455
In0 Sc4 3.203417 1_555
In0 Sc3 3.203418 1_555
In1 Sc0 3.184901 1_555
In1 Sc0 3.184901 1_556
In1 Sc3 3.184904 1_555
In1 Sc3 3.184904 1_556
In1 Sc4 3.184904 1_556
In1 Sc4 3.184904 1_555
In1 Sc1 3.203411 1_545
In1 Sc2 3.203411 1_655
In1 Sc5 3.203414 1_545
In1 Sc5 3.203414 1_655
In1 Sc1 3.203417 1_555
In1 Sc2 3.203418 1_555
