# generated using pymatgen
data_Li2Mg
_symmetry_space_group_name_H-M   'P 1'
_cell_length_a   6.22378979
_cell_length_b   6.22378979
_cell_length_c   30.30113384
_cell_angle_alpha   90.00000000
_cell_angle_beta   90.00000000
_cell_angle_gamma   120.00000498
_symmetry_Int_Tables_number   1
_chemical_formula_structural   Li2Mg
_chemical_formula_sum   'Li32 Mg16'
_cell_volume   1016.48113063
_cell_formula_units_Z   16
loop_
 _symmetry_equiv_pos_site_id
 _symmetry_equiv_pos_as_xyz
  1  'x, y, z'
loop_
 _atom_site_type_symbol
 _atom_site_label
 _atom_site_symmetry_multiplicity
 _atom_site_fract_x
 _atom_site_fract_y
 _atom_site_fract_z
 _atom_site_occupancy
  Li  Li0_0  1  0.16666650  0.33333350  0.45812611  1
  Li  Li0_1  1  0.16666650  0.33333350  0.95812611  1
  Li  Li0_2  1  0.16666650  0.83333350  0.45812611  1
  Li  Li0_3  1  0.16666650  0.83333350  0.95812611  1
  Li  Li0_4  1  0.66666650  0.33333350  0.45812611  1
  Li  Li0_5  1  0.66666650  0.33333350  0.95812611  1
  Li  Li0_6  1  0.66666650  0.83333350  0.45812611  1
  Li  Li0_7  1  0.66666650  0.83333350  0.95812611  1
  Li  Li1_0  1  0.33333350  0.16666650  0.37575770  1
  Li  Li1_1  1  0.33333350  0.16666650  0.87575770  1
  Li  Li1_2  1  0.33333350  0.66666650  0.37575770  1
  Li  Li1_3  1  0.33333350  0.66666650  0.87575770  1
  Li  Li1_4  1  0.83333350  0.16666650  0.37575770  1
  Li  Li1_5  1  0.83333350  0.16666650  0.87575770  1
  Li  Li1_6  1  0.83333350  0.66666650  0.37575770  1
  Li  Li1_7  1  0.83333350  0.66666650  0.87575770  1
  Li  Li2_0  1  0.16666650  0.33333350  0.12424229  1
  Li  Li2_1  1  0.16666650  0.33333350  0.62424229  1
  Li  Li2_2  1  0.16666650  0.83333350  0.12424229  1
  Li  Li2_3  1  0.16666650  0.83333350  0.62424229  1
  Li  Li2_4  1  0.66666650  0.33333350  0.12424229  1
  Li  Li2_5  1  0.66666650  0.33333350  0.62424229  1
  Li  Li2_6  1  0.66666650  0.83333350  0.12424229  1
  Li  Li2_7  1  0.66666650  0.83333350  0.62424229  1
  Li  Li3_0  1  0.33333350  0.16666650  0.04187389  1
  Li  Li3_1  1  0.33333350  0.16666650  0.54187389  1
  Li  Li3_2  1  0.33333350  0.66666650  0.04187389  1
  Li  Li3_3  1  0.33333350  0.66666650  0.54187389  1
  Li  Li3_4  1  0.83333350  0.16666650  0.04187389  1
  Li  Li3_5  1  0.83333350  0.16666650  0.54187389  1
  Li  Li3_6  1  0.83333350  0.66666650  0.04187389  1
  Li  Li3_7  1  0.83333350  0.66666650  0.54187389  1
  Mg  Mg0_0  1  0.16666650  0.33333350  0.29340837  1
  Mg  Mg0_1  1  0.16666650  0.33333350  0.79340837  1
  Mg  Mg0_2  1  0.16666650  0.83333350  0.29340837  1
  Mg  Mg0_3  1  0.16666650  0.83333350  0.79340837  1
  Mg  Mg0_4  1  0.66666650  0.33333350  0.29340837  1
  Mg  Mg0_5  1  0.66666650  0.33333350  0.79340837  1
  Mg  Mg0_6  1  0.66666650  0.83333350  0.29340837  1
  Mg  Mg0_7  1  0.66666650  0.83333350  0.79340837  1
  Mg  Mg1_0  1  0.33333350  0.16666650  0.20659163  1
  Mg  Mg1_1  1  0.33333350  0.16666650  0.70659163  1
  Mg  Mg1_2  1  0.33333350  0.66666650  0.20659163  1
  Mg  Mg1_3  1  0.33333350  0.66666650  0.70659163  1
  Mg  Mg1_4  1  0.83333350  0.16666650  0.20659163  1
  Mg  Mg1_5  1  0.83333350  0.16666650  0.70659163  1
  Mg  Mg1_6  1  0.83333350  0.66666650  0.20659163  1
  Mg  Mg1_7  1  0.83333350  0.66666650  0.70659163  1
loop_
_geom_bond_atom_site_label_1
_geom_bond_atom_site_label_2
_geom_bond_distance
_geom_bond_site_symmetry_2
Li0_0 Li1_4 3.075265 1_455
Li0_0 Li1_2 3.075265 1_555
Li0_0 Li1_0 3.075268 1_555
Li0_0 Li3_3 3.109283 1_555
Li0_0 Li3_5 3.109283 1_455
Li0_0 Li3_1 3.109286 1_555
Li0_0 Li0_6 3.111895 1_555
Li0_0 Li0_6 3.111895 1_445
Li0_0 Li0_4 3.111895 1_455
Li0_0 Li0_2 3.111895 1_555
Li0_0 Li0_2 3.111895 1_545
Li0_0 Li0_4 3.111895 1_555
Li0_1 Li1_3 3.075265 1_555
Li0_1 Li1_5 3.075265 1_455
Li0_1 Li1_1 3.075268 1_555
Li0_1 Li3_2 3.109283 1_556
Li0_1 Li3_4 3.109283 1_456
Li0_1 Li3_0 3.109286 1_556
Li0_1 Li0_7 3.111895 1_555
Li0_1 Li0_7 3.111895 1_445
Li0_1 Li0_3 3.111895 1_555
Li0_1 Li0_5 3.111895 1_455
Li0_1 Li0_3 3.111895 1_545
Li0_1 Li0_5 3.111895 1_555
Li0_2 Li1_6 3.075265 1_455
Li0_2 Li1_0 3.075265 1_565
Li0_2 Li1_2 3.075268 1_555
Li0_2 Li3_1 3.109283 1_565
Li0_2 Li3_7 3.109283 1_455
Li0_2 Li3_3 3.109286 1_555
Li0_2 Li0_4 3.111895 1_455
Li0_2 Li0_4 3.111895 1_565
Li0_2 Li0_6 3.111895 1_455
Li0_2 Li0_6 3.111895 1_555
Li0_3 Li1_1 3.075265 1_565
Li0_3 Li1_7 3.075265 1_455
Li0_3 Li1_3 3.075268 1_555
Li0_3 Li3_0 3.109283 1_566
Li0_3 Li3_6 3.109283 1_456
Li0_3 Li3_2 3.109286 1_556
Li0_3 Li0_5 3.111895 1_565
Li0_3 Li0_5 3.111895 1_455
Li0_3 Li0_7 3.111895 1_555
Li0_3 Li0_7 3.111895 1_455
Li0_4 Li1_0 3.075265 1_555
Li0_4 Li1_6 3.075265 1_555
Li0_4 Li1_4 3.075268 1_555
Li0_4 Li3_7 3.109283 1_555
Li0_4 Li3_1 3.109283 1_555
Li0_4 Li3_5 3.109286 1_555
Li0_4 Li0_6 3.111895 1_555
Li0_4 Li0_6 3.111895 1_545
Li0_5 Li1_1 3.075265 1_555
Li0_5 Li1_7 3.075265 1_555
Li0_5 Li1_5 3.075268 1_555
Li0_5 Li3_6 3.109283 1_556
Li0_5 Li3_0 3.109283 1_556
Li0_5 Li3_4 3.109286 1_556
Li0_5 Li0_7 3.111895 1_555
Li0_5 Li0_7 3.111895 1_545
Li0_6 Li1_2 3.075265 1_555
Li0_6 Li1_4 3.075265 1_565
Li0_6 Li1_6 3.075268 1_555
Li0_6 Li3_3 3.109283 1_555
Li0_6 Li3_5 3.109283 1_565
Li0_6 Li3_7 3.109286 1_555
Li0_7 Li1_3 3.075265 1_555
Li0_7 Li1_5 3.075265 1_565
Li0_7 Li1_7 3.075268 1_555
Li0_7 Li3_2 3.109283 1_556
Li0_7 Li3_4 3.109283 1_566
Li0_7 Li3_6 3.109286 1_556
Li1_0 Mg0_2 3.074796 1_545
Li1_0 Mg0_4 3.074796 1_555
Li1_0 Mg0_0 3.074799 1_555
Li1_0 Li1_6 3.111895 1_445
Li1_0 Li1_6 3.111895 1_555
Li1_0 Li1_2 3.111895 1_545
Li1_0 Li1_4 3.111895 1_555
Li1_0 Li1_4 3.111895 1_455
Li1_0 Li1_2 3.111895 1_555
Li1_1 Mg0_3 3.074796 1_545
Li1_1 Mg0_5 3.074796 1_555
Li1_1 Mg0_1 3.074799 1_555
Li1_1 Li1_7 3.111895 1_555
Li1_1 Li1_7 3.111895 1_445
Li1_1 Li1_5 3.111895 1_555
Li1_1 Li1_3 3.111895 1_545
Li1_1 Li1_3 3.111895 1_555
Li1_1 Li1_5 3.111895 1_455
Li1_2 Mg0_0 3.074796 1_555
Li1_2 Mg0_6 3.074796 1_555
Li1_2 Mg0_2 3.074799 1_555
Li1_2 Li1_4 3.111895 1_565
Li1_2 Li1_4 3.111895 1_455
Li1_2 Li1_6 3.111895 1_555
Li1_2 Li1_6 3.111895 1_455
Li1_3 Mg0_7 3.074796 1_555
Li1_3 Mg0_1 3.074796 1_555
Li1_3 Mg0_3 3.074799 1_555
Li1_3 Li1_5 3.111895 1_455
Li1_3 Li1_5 3.111895 1_565
Li1_3 Li1_7 3.111895 1_555
Li1_3 Li1_7 3.111895 1_455
Li1_4 Mg0_6 3.074796 1_545
Li1_4 Mg0_0 3.074796 1_655
Li1_4 Mg0_4 3.074799 1_555
Li1_4 Li1_6 3.111895 1_545
Li1_4 Li1_6 3.111895 1_555
Li1_5 Mg0_1 3.074796 1_655
Li1_5 Mg0_7 3.074796 1_545
Li1_5 Mg0_5 3.074799 1_555
Li1_5 Li1_7 3.111895 1_545
Li1_5 Li1_7 3.111895 1_555
Li1_6 Mg0_2 3.074796 1_655
Li1_6 Mg0_4 3.074796 1_555
Li1_6 Mg0_6 3.074799 1_555
Li1_7 Mg0_3 3.074796 1_655
Li1_7 Mg0_5 3.074796 1_555
Li1_7 Mg0_7 3.074799 1_555
Li2_0 Mg1_4 3.074796 1_455
Li2_0 Mg1_2 3.074796 1_555
Li2_0 Mg1_0 3.074799 1_555
Li2_0 Li3_4 3.075265 1_455
Li2_0 Li3_2 3.075265 1_555
Li2_0 Li3_0 3.075268 1_555
Li2_0 Li2_6 3.111895 1_555
Li2_0 Li2_6 3.111895 1_445
Li2_0 Li2_4 3.111895 1_455
Li2_0 Li2_2 3.111895 1_555
Li2_0 Li2_2 3.111895 1_545
Li2_0 Li2_4 3.111895 1_555
Li2_1 Mg1_3 3.074796 1_555
Li2_1 Mg1_5 3.074796 1_455
Li2_1 Mg1_1 3.074799 1_555
Li2_1 Li3_5 3.075265 1_455
Li2_1 Li3_3 3.075265 1_555
Li2_1 Li3_1 3.075268 1_555
Li2_1 Li2_7 3.111895 1_445
Li2_1 Li2_7 3.111895 1_555
Li2_1 Li2_3 3.111895 1_555
Li2_1 Li2_5 3.111895 1_455
Li2_1 Li2_5 3.111895 1_555
Li2_1 Li2_3 3.111895 1_545
Li2_2 Mg1_0 3.074796 1_565
Li2_2 Mg1_6 3.074796 1_455
Li2_2 Mg1_2 3.074799 1_555
Li2_2 Li3_0 3.075265 1_565
Li2_2 Li3_6 3.075265 1_455
Li2_2 Li3_2 3.075268 1_555
Li2_2 Li2_4 3.111895 1_455
Li2_2 Li2_4 3.111895 1_565
Li2_2 Li2_6 3.111895 1_455
Li2_2 Li2_6 3.111895 1_555
Li2_3 Mg1_7 3.074796 1_455
Li2_3 Mg1_1 3.074796 1_565
Li2_3 Mg1_3 3.074799 1_555
Li2_3 Li3_1 3.075265 1_565
Li2_3 Li3_7 3.075265 1_455
Li2_3 Li3_3 3.075268 1_555
Li2_3 Li2_5 3.111895 1_565
Li2_3 Li2_5 3.111895 1_455
Li2_3 Li2_7 3.111895 1_455
Li2_3 Li2_7 3.111895 1_555
Li2_4 Mg1_6 3.074796 1_555
Li2_4 Mg1_0 3.074796 1_555
Li2_4 Mg1_4 3.074799 1_555
Li2_4 Li3_6 3.075265 1_555
Li2_4 Li3_0 3.075265 1_555
Li2_4 Li3_4 3.075268 1_555
Li2_4 Li2_6 3.111895 1_555
Li2_4 Li2_6 3.111895 1_545
Li2_5 Mg1_1 3.074796 1_555
Li2_5 Mg1_7 3.074796 1_555
Li2_5 Mg1_5 3.074799 1_555
Li2_5 Li3_1 3.075265 1_555
Li2_5 Li3_7 3.075265 1_555
Li2_5 Li3_5 3.075268 1_555
Li2_5 Li2_7 3.111895 1_555
Li2_5 Li2_7 3.111895 1_545
Li2_6 Mg1_2 3.074796 1_555
Li2_6 Mg1_4 3.074796 1_565
Li2_6 Mg1_6 3.074799 1_555
Li2_6 Li3_4 3.075265 1_565
Li2_6 Li3_2 3.075265 1_555
Li2_6 Li3_6 3.075268 1_555
Li2_7 Mg1_3 3.074796 1_555
Li2_7 Mg1_5 3.074796 1_565
Li2_7 Mg1_7 3.074799 1_555
Li2_7 Li3_3 3.075265 1_555
Li2_7 Li3_5 3.075265 1_565
Li2_7 Li3_7 3.075268 1_555
Li3_0 Li3_6 3.111895 1_445
Li3_0 Li3_6 3.111895 1_555
Li3_0 Li3_4 3.111895 1_555
Li3_0 Li3_2 3.111895 1_545
Li3_0 Li3_4 3.111895 1_455
Li3_0 Li3_2 3.111895 1_555
Li3_1 Li3_7 3.111895 1_445
Li3_1 Li3_7 3.111895 1_555
Li3_1 Li3_5 3.111895 1_555
Li3_1 Li3_3 3.111895 1_545
Li3_1 Li3_5 3.111895 1_455
Li3_1 Li3_3 3.111895 1_555
Li3_2 Li3_4 3.111895 1_565
Li3_2 Li3_4 3.111895 1_455
Li3_2 Li3_6 3.111895 1_555
Li3_2 Li3_6 3.111895 1_455
Li3_3 Li3_5 3.111895 1_455
Li3_3 Li3_5 3.111895 1_565
Li3_3 Li3_7 3.111895 1_555
Li3_3 Li3_7 3.111895 1_455
Li3_4 Li3_6 3.111895 1_555
Li3_4 Li3_6 3.111895 1_545
Li3_5 Li3_7 3.111895 1_555
Li3_5 Li3_7 3.111895 1_545
Mg0_0 Mg0_6 3.111895 1_445
Mg0_0 Mg0_6 3.111895 1_555
Mg0_0 Mg0_4 3.111895 1_455
Mg0_0 Mg0_2 3.111895 1_555
Mg0_0 Mg0_4 3.111895 1_555
Mg0_0 Mg0_2 3.111895 1_545
Mg0_0 Mg1_2 3.185632 1_555
Mg0_0 Mg1_4 3.185632 1_455
Mg0_0 Mg1_0 3.185635 1_555
Mg0_1 Mg0_7 3.111895 1_445
Mg0_1 Mg0_7 3.111895 1_555
Mg0_1 Mg0_3 3.111895 1_555
Mg0_1 Mg0_5 3.111895 1_455
Mg0_1 Mg0_5 3.111895 1_555
Mg0_1 Mg0_3 3.111895 1_545
Mg0_1 Mg1_3 3.185632 1_555
Mg0_1 Mg1_5 3.185632 1_455
Mg0_1 Mg1_1 3.185635 1_555
Mg0_2 Mg0_4 3.111895 1_455
Mg0_2 Mg0_4 3.111895 1_565
Mg0_2 Mg0_6 3.111895 1_455
Mg0_2 Mg0_6 3.111895 1_555
Mg0_2 Mg1_0 3.185632 1_565
Mg0_2 Mg1_6 3.185632 1_455
Mg0_2 Mg1_2 3.185635 1_555
Mg0_3 Mg0_5 3.111895 1_565
Mg0_3 Mg0_5 3.111895 1_455
Mg0_3 Mg0_7 3.111895 1_555
Mg0_3 Mg0_7 3.111895 1_455
Mg0_3 Mg1_7 3.185632 1_455
Mg0_3 Mg1_1 3.185632 1_565
Mg0_3 Mg1_3 3.185635 1_555
Mg0_4 Mg0_6 3.111895 1_555
Mg0_4 Mg0_6 3.111895 1_545
Mg0_4 Mg1_6 3.185632 1_555
Mg0_4 Mg1_0 3.185632 1_555
Mg0_4 Mg1_4 3.185635 1_555
Mg0_5 Mg0_7 3.111895 1_555
Mg0_5 Mg0_7 3.111895 1_545
Mg0_5 Mg1_1 3.185632 1_555
Mg0_5 Mg1_7 3.185632 1_555
Mg0_5 Mg1_5 3.185635 1_555
Mg0_6 Mg1_4 3.185632 1_565
Mg0_6 Mg1_2 3.185632 1_555
Mg0_6 Mg1_6 3.185635 1_555
Mg0_7 Mg1_3 3.185632 1_555
Mg0_7 Mg1_5 3.185632 1_565
Mg0_7 Mg1_7 3.185635 1_555
Mg1_0 Mg1_6 3.111895 1_555
Mg1_0 Mg1_6 3.111895 1_445
Mg1_0 Mg1_4 3.111895 1_555
Mg1_0 Mg1_2 3.111895 1_545
Mg1_0 Mg1_2 3.111895 1_555
Mg1_0 Mg1_4 3.111895 1_455
Mg1_1 Mg1_7 3.111895 1_445
Mg1_1 Mg1_7 3.111895 1_555
Mg1_1 Mg1_3 3.111895 1_545
Mg1_1 Mg1_5 3.111895 1_555
Mg1_1 Mg1_3 3.111895 1_555
Mg1_1 Mg1_5 3.111895 1_455
Mg1_2 Mg1_4 3.111895 1_565
Mg1_2 Mg1_4 3.111895 1_455
Mg1_2 Mg1_6 3.111895 1_555
Mg1_2 Mg1_6 3.111895 1_455
Mg1_3 Mg1_5 3.111895 1_455
Mg1_3 Mg1_5 3.111895 1_565
Mg1_3 Mg1_7 3.111895 1_555
Mg1_3 Mg1_7 3.111895 1_455
Mg1_4 Mg1_6 3.111895 1_555
Mg1_4 Mg1_6 3.111895 1_545
Mg1_5 Mg1_7 3.111895 1_555
Mg1_5 Mg1_7 3.111895 1_545
