# generated using pymatgen
data_LiMnO2
_symmetry_space_group_name_H-M   'P 1'
_cell_length_a   5.97114081
_cell_length_b   8.42782810
_cell_length_c   5.97135231
_cell_angle_alpha   90.30333668
_cell_angle_beta   90.54711843
_cell_angle_gamma   89.92139458
_symmetry_Int_Tables_number   1
_chemical_formula_structural   LiMnO2
_chemical_formula_sum   'Li8 Mn8 O16'
_cell_volume   300.48265681
_cell_formula_units_Z   8
loop_
 _symmetry_equiv_pos_site_id
 _symmetry_equiv_pos_as_xyz
  1  'x, y, z'
loop_
 _atom_site_type_symbol
 _atom_site_label
 _atom_site_symmetry_multiplicity
 _atom_site_fract_x
 _atom_site_fract_y
 _atom_site_fract_z
 _atom_site_occupancy
  Li  Li0  1  0.25309500  0.74849200  0.25291500  1
  Li  Li1  1  0.74687200  0.25146000  0.74715200  1
  Li  Li2  1  0.25167100  0.25163300  0.25335400  1
  Li  Li3  1  0.74842800  0.74832900  0.74667800  1
  Li  Li4  1  0.74484100  0.75327000  0.24594400  1
  Li  Li5  1  0.25529400  0.24651300  0.75414600  1
  Li  Li6  1  0.49996800  0.99996800  0.99997000  1
  Li  Li7  1  0.00003600  0.49996300  0.49994900  1
  Mn  Mn0  1  0.50000000  0.50007000  0.50023100  1
  Mn  Mn1  1  0.99992000  0.99992400  0.00046000  1
  Mn  Mn2  1  0.00019300  0.49997100  0.99963900  1
  Mn  Mn3  1  0.50018000  0.00006600  0.49994100  1
  Mn  Mn4  1  0.74864700  0.25142700  0.25171800  1
  Mn  Mn5  1  0.25131700  0.74874400  0.74821200  1
  Mn  Mn6  1  0.49976700  0.50002500  0.00011700  1
  Mn  Mn7  1  0.99996200  0.00004300  0.50007300  1
  O  O0  1  0.51748500  0.27191100  0.01750200  1
  O  O1  1  0.01828500  0.76320100  0.51798500  1
  O  O2  1  0.98155700  0.23687700  0.48200100  1
  O  O3  1  0.48236800  0.72811600  0.98239800  1
  O  O4  1  0.72826000  0.99218600  0.24690500  1
  O  O5  1  0.24862200  0.48353800  0.78478400  1
  O  O6  1  0.75132700  0.51641300  0.21476700  1
  O  O7  1  0.27177100  0.00776300  0.75298600  1
  O  O8  1  0.28494300  0.50089800  0.24776100  1
  O  O9  1  0.75487200  0.00004000  0.72357500  1
  O  O10  1  0.51408400  0.26837700  0.48571300  1
  O  O11  1  0.01495300  0.73790100  0.98423500  1
  O  O12  1  0.24508600  0.99994800  0.27658400  1
  O  O13  1  0.71511200  0.49914300  0.75238700  1
  O  O14  1  0.98504900  0.26204800  0.01567900  1
  O  O15  1  0.48603500  0.73174400  0.51423900  1
loop_
_geom_bond_atom_site_label_1
_geom_bond_atom_site_label_2
_geom_bond_distance
_geom_bond_site_symmetry_2
Li0 O15 2.085652 1_555
Li0 O8 2.095158 1_555
Li0 O12 2.123692 1_555
Li0 O1 2.127527 1_555
Li0 O3 2.133477 1_554
Li0 O11 2.135252 1_554
Li1 O10 2.085665 1_555
Li1 O13 2.095863 1_555
Li1 O9 2.123355 1_555
Li1 O2 2.127337 1_555
Li1 O0 2.133206 1_556
Li1 O14 2.134708 1_556
Li2 O10 2.087407 1_555
Li2 O8 2.110878 1_555
Li2 O14 2.124692 1_455
Li2 O12 2.126863 1_545
Li2 O2 2.127301 1_455
Li2 O0 2.139603 1_555
Li3 O15 2.087545 1_555
Li3 O13 2.110255 1_555
Li3 O11 2.123801 1_655
Li3 O1 2.126369 1_655
Li3 O9 2.127011 1_565
Li3 O3 2.140131 1_555
Li4 O6 2.004227 1_555
Li4 O4 2.015820 1_555
Li4 O3 2.219942 1_554
Li4 O15 2.244744 1_555
Li4 O11 2.259597 1_654
Li4 O1 2.293486 1_655
Li5 O5 2.005377 1_555
Li5 O7 2.014392 1_555
Li5 O0 2.218161 1_556
Li5 O10 2.245517 1_555
Li5 O14 2.259510 1_456
Li5 O2 2.295073 1_455
Li6 O7 1.999626 1_565
Li6 O4 1.999791 1_556
Li6 O9 2.255808 1_565
Li6 O12 2.256682 1_556
Li6 O3 2.295474 1_555
Li6 O0 2.296206 1_566
Li7 O2 2.222107 1_455
Li7 O1 2.223338 1_555
Li7 O5 2.251453 1_555
Li7 O6 2.253498 1_455
Li7 O8 2.282771 1_555
Li7 O13 2.283836 1_455
Mn0 O15 1.955556 1_555
Mn0 O10 1.955863 1_555
Mn0 O13 1.969832 1_555
Mn0 O8 1.971037 1_555
Mn0 O5 2.282851 1_555
Mn0 O6 2.286632 1_555
Mn1 O12 2.194451 1_655
Mn1 O9 2.197378 1_564
Mn1 O4 2.201830 1_555
Mn1 O7 2.206861 1_664
Mn1 O11 2.211634 1_654
Mn1 O14 2.212220 1_565
Mn2 O5 1.974739 1_555
Mn2 O6 1.977791 1_456
Mn2 O11 2.009921 1_555
Mn2 O14 2.010167 1_456
Mn2 O13 2.242655 1_455
Mn2 O8 2.244556 1_556
Mn3 O9 2.014284 1_555
Mn3 O12 2.014996 1_545
Mn3 O4 2.044550 1_545
Mn3 O7 2.045871 1_555
Mn3 O10 2.264990 1_555
Mn3 O15 2.265156 1_545
Mn4 O2 1.950612 1_555
Mn4 O0 1.963699 1_555
Mn4 O10 1.992279 1_555
Mn4 O14 2.006711 1_555
Mn4 O4 2.188416 1_545
Mn4 O6 2.245386 1_555
Mn5 O1 1.950842 1_555
Mn5 O3 1.963221 1_555
Mn5 O15 1.992872 1_555
Mn5 O11 2.006575 1_555
Mn5 O7 2.186569 1_565
Mn5 O5 2.246999 1_555
Mn6 O3 1.928384 1_554
Mn6 O0 1.928560 1_555
Mn6 O8 1.966808 1_555
Mn6 O13 1.969249 1_554
Mn6 O6 1.969820 1_555
Mn6 O5 1.970631 1_554
Mn7 O9 1.990030 1_555
Mn7 O12 1.990124 1_645
Mn7 O1 2.002278 1_645
Mn7 O2 2.002293 1_555
Mn7 O7 2.207178 1_655
Mn7 O4 2.207775 1_545
