# generated using pymatgen
data_Nd3Y3(Fe5O12)2
_symmetry_space_group_name_H-M   'P 1'
_cell_length_a   10.97396734
_cell_length_b   10.97396734
_cell_length_c   10.97396734
_cell_angle_alpha   109.47122063
_cell_angle_beta   109.47122063
_cell_angle_gamma   109.47122063
_symmetry_Int_Tables_number   1
_chemical_formula_structural   Nd3Y3(Fe5O12)2
_chemical_formula_sum   'Nd6 Y6 Fe20 O48'
_cell_volume   1017.34697885
_cell_formula_units_Z   2
loop_
 _symmetry_equiv_pos_site_id
 _symmetry_equiv_pos_as_xyz
  1  'x, y, z'
loop_
 _atom_site_type_symbol
 _atom_site_label
 _atom_site_symmetry_multiplicity
 _atom_site_fract_x
 _atom_site_fract_y
 _atom_site_fract_z
 _atom_site_occupancy
  Nd  Nd0  1  0.75000000  0.62500000  0.87500000  1
  Nd  Nd1  1  0.25000000  0.87500000  0.62500000  1
  Nd  Nd2  1  0.62500000  0.87500000  0.75000000  1
  Nd  Nd3  1  0.87500000  0.62500000  0.25000000  1
  Nd  Nd4  1  0.87500000  0.75000000  0.62500000  1
  Nd  Nd5  1  0.62500000  0.25000000  0.87500000  1
  Y  Y0  1  0.25000000  0.37500000  0.12500000  1
  Y  Y1  1  0.75000000  0.12500000  0.37500000  1
  Y  Y2  1  0.37500000  0.12500000  0.25000000  1
  Y  Y3  1  0.12500000  0.37500000  0.75000000  1
  Y  Y4  1  0.12500000  0.25000000  0.37500000  1
  Y  Y5  1  0.37500000  0.75000000  0.12500000  1
  Fe  Fe0  1  0.25000000  0.12718100  0.87718100  1
  Fe  Fe1  1  0.75000000  0.37281900  0.62281900  1
  Fe  Fe2  1  0.12718100  0.87718100  0.25000000  1
  Fe  Fe3  1  0.37281900  0.62281900  0.75000000  1
  Fe  Fe4  1  0.87718100  0.25000000  0.12718100  1
  Fe  Fe5  1  0.62281900  0.75000000  0.37281900  1
  Fe  Fe6  1  0.75000000  0.87718100  0.12718100  1
  Fe  Fe7  1  0.25000000  0.62281900  0.37281900  1
  Fe  Fe8  1  0.87718100  0.12718100  0.75000000  1
  Fe  Fe9  1  0.62281900  0.37281900  0.25000000  1
  Fe  Fe10  1  0.12718100  0.75000000  0.87718100  1
  Fe  Fe11  1  0.37281900  0.25000000  0.62281900  1
  Fe  Fe12  1  0.00308500  0.50000000  0.00000000  1
  Fe  Fe13  1  0.00000000  0.00308500  0.50000000  1
  Fe  Fe14  1  0.50000000  0.00000000  0.00308500  1
  Fe  Fe15  1  0.49691500  0.49691500  0.49691500  1
  Fe  Fe16  1  0.49691500  0.50000000  0.00000000  1
  Fe  Fe17  1  0.50000000  0.00000000  0.49691500  1
  Fe  Fe18  1  0.00000000  0.49691500  0.50000000  1
  Fe  Fe19  1  0.00308500  0.00308500  0.00308500  1
  O  O0  1  0.03182600  0.32305400  0.90522800  1
  O  O1  1  0.91782600  0.12659800  0.59477200  1
  O  O2  1  0.58217400  0.17694600  0.20877200  1
  O  O3  1  0.46817400  0.37340200  0.29122800  1
  O  O4  1  0.32305400  0.90522800  0.03182600  1
  O  O5  1  0.12659800  0.59477200  0.91782600  1
  O  O6  1  0.17694600  0.20877200  0.58217400  1
  O  O7  1  0.37340200  0.29122800  0.46817400  1
  O  O8  1  0.90522800  0.03182600  0.32305400  1
  O  O9  1  0.59477200  0.91782600  0.12659800  1
  O  O10  1  0.20877200  0.58217400  0.17694600  1
  O  O11  1  0.29122800  0.46817400  0.37340200  1
  O  O12  1  0.97640200  0.67889600  0.09539700  1
  O  O13  1  0.08349900  0.88100400  0.40460300  1
  O  O14  1  0.41650100  0.82110400  0.79750600  1
  O  O15  1  0.52359800  0.61899600  0.70249400  1
  O  O16  1  0.67889600  0.09539700  0.97640200  1
  O  O17  1  0.88100400  0.40460300  0.08349900  1
  O  O18  1  0.82110400  0.79750600  0.41650100  1
  O  O19  1  0.61899600  0.70249400  0.52359800  1
  O  O20  1  0.09539700  0.97640200  0.67889600  1
  O  O21  1  0.40460300  0.08349900  0.88100400  1
  O  O22  1  0.79750600  0.41650100  0.82110400  1
  O  O23  1  0.70249400  0.52359800  0.61899600  1
  O  O24  1  0.52359800  0.40460300  0.82110400  1
  O  O25  1  0.41650100  0.09539700  0.61899600  1
  O  O26  1  0.08349900  0.70249400  0.67889600  1
  O  O27  1  0.97640200  0.79750600  0.88100400  1
  O  O28  1  0.82110400  0.52359800  0.40460300  1
  O  O29  1  0.61899600  0.41650100  0.09539700  1
  O  O30  1  0.67889600  0.08349900  0.70249400  1
  O  O31  1  0.88100400  0.97640200  0.79750600  1
  O  O32  1  0.40460300  0.82110400  0.52359800  1
  O  O33  1  0.09539700  0.61899600  0.41650100  1
  O  O34  1  0.70249400  0.67889600  0.08349900  1
  O  O35  1  0.79750600  0.88100400  0.97640200  1
  O  O36  1  0.46817400  0.59477200  0.17694600  1
  O  O37  1  0.58217400  0.90522800  0.37340200  1
  O  O38  1  0.91782600  0.29122800  0.32305400  1
  O  O39  1  0.03182600  0.20877200  0.12659800  1
  O  O40  1  0.17694600  0.46817400  0.59477200  1
  O  O41  1  0.37340200  0.58217400  0.90522800  1
  O  O42  1  0.32305400  0.91782600  0.29122800  1
  O  O43  1  0.12659800  0.03182600  0.20877200  1
  O  O44  1  0.59477200  0.17694600  0.46817400  1
  O  O45  1  0.90522800  0.37340200  0.58217400  1
  O  O46  1  0.29122800  0.32305400  0.91782600  1
  O  O47  1  0.20877200  0.12659800  0.03182600  1
loop_
_geom_bond_atom_site_label_1
_geom_bond_atom_site_label_2
_geom_bond_distance
_geom_bond_site_symmetry_2
Nd0 O35 2.440363 1_555
Nd0 O23 2.440363 1_555
Nd0 O22 2.440373 1_555
Nd0 O34 2.440373 1_556
Nd0 O12 2.536344 1_556
Nd0 O24 2.536344 1_555
Nd0 O27 2.536350 1_555
Nd0 O15 2.536350 1_555
Nd1 O33 2.440367 1_555
Nd1 O21 2.440367 1_565
Nd1 O32 2.440373 1_555
Nd1 O20 2.440373 1_555
Nd1 O25 2.536337 1_565
Nd1 O13 2.536337 1_555
Nd1 O14 2.536344 1_555
Nd1 O26 2.536344 1_555
Nd2 O31 2.440363 1_555
Nd2 O15 2.440363 1_555
Nd2 O14 2.440373 1_555
Nd2 O30 2.440373 1_565
Nd2 O32 2.536344 1_555
Nd2 O16 2.536344 1_565
Nd2 O35 2.536350 1_555
Nd2 O19 2.536350 1_555
Nd3 O29 2.440367 1_555
Nd3 O13 2.440367 1_655
Nd3 O12 2.440373 1_555
Nd3 O28 2.440373 1_555
Nd3 O33 2.536337 1_655
Nd3 O17 2.536337 1_555
Nd3 O34 2.536344 1_555
Nd3 O18 2.536344 1_555
Nd4 O19 2.440363 1_555
Nd4 O27 2.440363 1_555
Nd4 O26 2.440373 1_655
Nd4 O18 2.440373 1_555
Nd4 O20 2.536344 1_655
Nd4 O28 2.536344 1_555
Nd4 O23 2.536350 1_555
Nd4 O31 2.536350 1_555
Nd5 O17 2.440367 1_556
Nd5 O25 2.440367 1_555
Nd5 O24 2.440373 1_555
Nd5 O16 2.440373 1_555
Nd5 O29 2.536337 1_556
Nd5 O21 2.536337 1_555
Nd5 O30 2.536344 1_555
Nd5 O22 2.536344 1_555
Fe0 O47 1.897885 1_556
Fe0 O46 1.897885 1_555
Fe0 O20 1.902150 1_545
Fe0 O21 1.902152 1_555
Fe1 O44 1.897885 1_555
Fe1 O45 1.897885 1_555
Fe1 O23 1.902147 1_555
Fe1 O22 1.902150 1_555
Fe2 O43 1.897885 1_565
Fe2 O42 1.897885 1_555
Fe2 O12 1.902150 1_455
Fe2 O13 1.902152 1_555
Fe3 O40 1.897885 1_555
Fe3 O41 1.897885 1_555
Fe3 O15 1.902147 1_555
Fe3 O14 1.902150 1_555
Fe4 O39 1.897885 1_655
Fe4 O38 1.897885 1_555
Fe4 O16 1.902150 1_554
Fe4 O17 1.902152 1_555
Fe5 O36 1.897885 1_555
Fe5 O37 1.897885 1_555
Fe5 O19 1.902147 1_555
Fe5 O18 1.902150 1_555
Fe6 O8 1.897885 1_565
Fe6 O9 1.897885 1_555
Fe6 O35 1.902147 1_554
Fe6 O34 1.902150 1_555
Fe7 O11 1.897885 1_555
Fe7 O10 1.897885 1_555
Fe7 O32 1.902150 1_555
Fe7 O33 1.902152 1_555
Fe8 O0 1.897885 1_655
Fe8 O1 1.897885 1_555
Fe8 O31 1.902147 1_545
Fe8 O30 1.902150 1_555
Fe9 O3 1.897885 1_555
Fe9 O2 1.897885 1_555
Fe9 O28 1.902150 1_555
Fe9 O29 1.902152 1_555
Fe10 O4 1.897885 1_556
Fe10 O5 1.897885 1_555
Fe10 O27 1.902147 1_455
Fe10 O26 1.902150 1_555
Fe11 O6 1.897885 1_555
Fe11 O7 1.897885 1_555
Fe11 O24 1.902150 1_555
Fe11 O25 1.902152 1_555
Fe12 O5 2.057268 1_554
Fe12 O0 2.057268 1_554
Fe12 O10 2.057268 1_555
Fe12 O22 2.062354 1_454
Fe12 O12 2.062354 1_455
Fe12 O17 2.062360 1_455
Fe13 O1 2.057268 1_455
Fe13 O8 2.057268 1_455
Fe13 O6 2.057268 1_555
Fe13 O18 2.062354 1_445
Fe13 O20 2.062354 1_545
Fe13 O13 2.062360 1_545
Fe14 O9 2.057268 1_545
Fe14 O4 2.057268 1_545
Fe14 O2 2.057268 1_555
Fe14 O14 2.062354 1_544
Fe14 O16 2.062354 1_554
Fe14 O21 2.062360 1_554
Fe15 O3 2.057268 1_555
Fe15 O7 2.057268 1_555
Fe15 O11 2.057268 1_555
Fe15 O15 2.062356 1_555
Fe15 O19 2.062356 1_555
Fe15 O23 2.062356 1_555
Fe16 O41 2.057268 1_554
Fe16 O46 2.057268 1_554
Fe16 O36 2.057268 1_555
Fe16 O34 2.062354 1_555
Fe16 O24 2.062354 1_554
Fe16 O29 2.062360 1_555
Fe17 O37 2.057268 1_545
Fe17 O44 2.057268 1_555
Fe17 O42 2.057268 1_545
Fe17 O30 2.062354 1_555
Fe17 O32 2.062354 1_545
Fe17 O25 2.062360 1_555
Fe18 O45 2.057268 1_455
Fe18 O38 2.057268 1_455
Fe18 O40 2.057268 1_555
Fe18 O26 2.062354 1_555
Fe18 O28 2.062354 1_455
Fe18 O33 2.062360 1_555
Fe19 O43 2.057268 1_555
Fe19 O39 2.057268 1_555
Fe19 O47 2.057268 1_555
Fe19 O27 2.062356 1_444
Fe19 O31 2.062356 1_444
Fe19 O35 2.062356 1_444
O0 Y3 2.385838 1_555
O0 Y0 2.489566 1_556
O1 Y3 2.385838 1_655
O1 Y1 2.489566 1_555
O2 Y2 2.385838 1_555
O2 Y1 2.489566 1_555
O3 Y2 2.385838 1_555
O3 Y0 2.489566 1_555
O4 Y5 2.385838 1_555
O4 Y2 2.489566 1_565
O5 Y5 2.385838 1_556
O5 Y3 2.489566 1_555
O6 Y4 2.385838 1_555
O6 Y3 2.489566 1_555
O7 Y4 2.385838 1_555
O7 Y2 2.489566 1_555
O8 Y1 2.385838 1_555
O8 Y4 2.489566 1_655
O9 Y1 2.385838 1_565
O9 Y5 2.489566 1_555
O10 Y0 2.385838 1_555
O10 Y5 2.489566 1_555
O11 Y0 2.385838 1_555
O11 Y4 2.489566 1_555
O36 Y5 2.385838 1_555
O36 Y0 2.489566 1_555
O37 Y5 2.385838 1_555
O37 Y1 2.489566 1_565
O38 Y4 2.385838 1_655
O38 Y1 2.489566 1_555
O39 Y4 2.385838 1_555
O39 Y0 2.489566 1_555
O40 Y3 2.385838 1_555
O40 Y4 2.489566 1_555
O41 Y3 2.385838 1_555
O41 Y5 2.489566 1_556
O42 Y2 2.385838 1_565
O42 Y5 2.489566 1_555
O43 Y2 2.385838 1_555
O43 Y4 2.489566 1_555
O44 Y1 2.385838 1_555
O44 Y2 2.489566 1_555
O45 Y1 2.385838 1_555
O45 Y3 2.489566 1_655
O46 Y0 2.385838 1_556
O46 Y3 2.489566 1_555
O47 Y0 2.385838 1_555
O47 Y2 2.489566 1_555
