# generated using pymatgen
data_Mn7Si3O14
_symmetry_space_group_name_H-M   'P 1'
_cell_length_a   4.90408600
_cell_length_b   10.61707161
_cell_length_c   11.30194418
_cell_angle_alpha   104.17488553
_cell_angle_beta   90.00000000
_cell_angle_gamma   90.00000000
_symmetry_Int_Tables_number   1
_chemical_formula_structural   Mn7Si3O14
_chemical_formula_sum   'Mn14 Si6 O28'
_cell_volume   570.54176205
_cell_formula_units_Z   2
loop_
 _symmetry_equiv_pos_site_id
 _symmetry_equiv_pos_as_xyz
  1  'x, y, z'
loop_
 _atom_site_type_symbol
 _atom_site_label
 _atom_site_symmetry_multiplicity
 _atom_site_fract_x
 _atom_site_fract_y
 _atom_site_fract_z
 _atom_site_occupancy
  Mn  Mn0  1  0.48557200  0.42156800  0.70484100  1
  Mn  Mn1  1  0.98557200  0.07843200  0.29515900  1
  Mn  Mn2  1  0.49513800  0.57771300  0.29930600  1
  Mn  Mn3  1  0.99513800  0.92228700  0.70069400  1
  Mn  Mn4  1  0.52432900  0.17717800  0.84781600  1
  Mn  Mn5  1  0.02432900  0.32282200  0.15218400  1
  Mn  Mn6  1  0.47581900  0.81805300  0.14592500  1
  Mn  Mn7  1  0.97581900  0.68194700  0.85407500  1
  Mn  Mn8  1  0.49314200  0.49721900  0.00321100  1
  Mn  Mn9  1  0.99314200  0.00278100  0.99678900  1
  Mn  Mn10  1  0.97303800  0.15881200  0.59151100  1
  Mn  Mn11  1  0.47303800  0.34118800  0.40848900  1
  Mn  Mn12  1  0.00499400  0.82688000  0.42557800  1
  Mn  Mn13  1  0.50499400  0.67312000  0.57442200  1
  Si  Si0  1  0.07038600  0.36631700  0.85736800  1
  Si  Si1  1  0.57038600  0.13368300  0.14263200  1
  Si  Si2  1  0.91780100  0.63131400  0.14832600  1
  Si  Si3  1  0.41780100  0.86868600  0.85167400  1
  Si  Si4  1  0.90941700  0.47933900  0.55814400  1
  Si  Si5  1  0.40941700  0.02066100  0.44185600  1
  O  O0  1  0.24645000  0.98229300  0.55461100  1
  O  O1  1  0.74645000  0.51770700  0.44538900  1
  O  O2  1  0.74169900  0.02108300  0.43712300  1
  O  O3  1  0.24169900  0.47891700  0.56287700  1
  O  O4  1  0.27193500  0.01004300  0.84544400  1
  O  O5  1  0.77193500  0.48995700  0.15455600  1
  O  O6  1  0.70644300  0.98896900  0.14366300  1
  O  O7  1  0.20644300  0.51103100  0.85633700  1
  O  O8  1  0.79124600  0.08075600  0.71740400  1
  O  O9  1  0.29124600  0.41924400  0.28259600  1
  O  O10  1  0.26766200  0.92107800  0.31682300  1
  O  O11  1  0.76766200  0.57892200  0.68317700  1
  O  O12  1  0.77605200  0.33329300  0.55892400  1
  O  O13  1  0.27605200  0.16670700  0.44107600  1
  O  O14  1  0.30002500  0.69335700  0.43130900  1
  O  O15  1  0.80002500  0.80664300  0.56869100  1
  O  O16  1  0.70869900  0.16950600  0.02173500  1
  O  O17  1  0.20869900  0.33049400  0.97826500  1
  O  O18  1  0.27914900  0.83302800  0.97255400  1
  O  O19  1  0.77914900  0.66697200  0.02744600  1
  O  O20  1  0.22010100  0.26855800  0.73777000  1
  O  O21  1  0.72010100  0.23144200  0.26223000  1
  O  O22  1  0.76846600  0.72736400  0.26946600  1
  O  O23  1  0.26846600  0.77263600  0.73053400  1
  O  O24  1  0.73815500  0.36836300  0.85414000  1
  O  O25  1  0.23815500  0.13163700  0.14586000  1
  O  O26  1  0.24868100  0.63370200  0.14783900  1
  O  O27  1  0.74868100  0.86629800  0.85216100  1
loop_
_geom_bond_atom_site_label_1
_geom_bond_atom_site_label_2
_geom_bond_distance
_geom_bond_site_symmetry_2
Mn0 O20 2.183711 1_555
Mn0 O3 2.203151 1_555
Mn0 O12 2.206896 1_555
Mn0 O7 2.216104 1_555
Mn0 O11 2.228250 1_555
Mn0 O24 2.273209 1_555
Mn1 O21 2.183711 1_555
Mn1 O2 2.203151 1_555
Mn1 O13 2.206896 1_655
Mn1 O6 2.216104 1_545
Mn1 O10 2.228250 1_645
Mn1 O25 2.273209 1_655
Mn2 O9 1.926287 1_555
Mn2 O14 1.936923 1_555
Mn2 O5 2.154195 1_555
Mn2 O22 2.167342 1_555
Mn2 O1 2.272853 1_555
Mn2 O26 2.289776 1_555
Mn3 O8 1.926287 1_565
Mn3 O15 1.936923 1_555
Mn3 O4 2.154195 1_665
Mn3 O23 2.167342 1_655
Mn3 O0 2.272853 1_655
Mn3 O27 2.289776 1_555
Mn4 O8 2.048135 1_555
Mn4 O4 2.158302 1_555
Mn4 O16 2.183172 1_556
Mn4 O24 2.270209 1_555
Mn4 O20 2.303272 1_555
Mn4 O17 2.458418 1_555
Mn5 O9 2.048135 1_555
Mn5 O5 2.158302 1_455
Mn5 O17 2.183172 1_554
Mn5 O25 2.270209 1_555
Mn5 O21 2.303272 1_455
Mn5 O16 2.458418 1_455
Mn6 O6 2.143690 1_555
Mn6 O10 2.221354 1_555
Mn6 O18 2.224287 1_554
Mn6 O26 2.256742 1_555
Mn6 O19 2.350924 1_555
Mn6 O22 2.365321 1_555
Mn7 O7 2.143690 1_655
Mn7 O11 2.221354 1_555
Mn7 O19 2.224287 1_556
Mn7 O27 2.256742 1_555
Mn7 O18 2.350924 1_655
Mn7 O23 2.365321 1_655
Mn8 O5 2.205816 1_555
Mn8 O7 2.207492 1_554
Mn8 O17 2.216814 1_554
Mn8 O24 2.241660 1_554
Mn8 O19 2.246944 1_555
Mn8 O26 2.246953 1_555
Mn9 O4 2.205816 1_655
Mn9 O6 2.207492 1_546
Mn9 O16 2.216814 1_556
Mn9 O25 2.241660 1_656
Mn9 O18 2.246944 1_645
Mn9 O27 2.246953 1_545
Mn10 O8 2.020783 1_555
Mn10 O20 2.148208 1_655
Mn10 O12 2.198792 1_555
Mn10 O0 2.258601 1_645
Mn10 O13 2.275027 1_655
Mn10 O2 2.284808 1_555
Mn11 O9 2.020783 1_555
Mn11 O21 2.148208 1_555
Mn11 O13 2.198792 1_555
Mn11 O1 2.258601 1_555
Mn11 O12 2.275027 1_555
Mn11 O3 2.284808 1_555
Mn12 O15 1.960339 1_455
Mn12 O14 2.037699 1_555
Mn12 O22 2.159125 1_455
Mn12 O10 2.184578 1_555
Mn12 O0 2.252319 1_555
Mn12 O2 2.409110 1_465
Mn13 O14 1.960339 1_555
Mn13 O15 2.037699 1_555
Mn13 O23 2.159125 1_555
Mn13 O11 2.184578 1_555
Mn13 O1 2.252319 1_555
Mn13 O3 2.409110 1_555
O0 Si5 1.637950 1_565
O1 Si4 1.637950 1_555
O2 Si5 1.630459 1_555
O3 Si4 1.630459 1_455
O4 Si3 1.679528 1_545
O5 Si2 1.679528 1_555
O6 Si1 1.677722 1_565
O7 Si0 1.677722 1_555
O10 Si5 1.693007 1_565
O11 Si4 1.693007 1_555
O12 Si4 1.684884 1_555
O13 Si5 1.684884 1_555
O16 Si1 1.651131 1_555
O17 Si0 1.651131 1_555
O18 Si3 1.650888 1_555
O19 Si2 1.650888 1_555
O20 Si0 1.660209 1_555
O21 Si1 1.660209 1_555
O22 Si2 1.663415 1_555
O23 Si3 1.663415 1_555
O24 Si0 1.629962 1_655
O25 Si1 1.629962 1_555
O26 Si2 1.622892 1_455
O27 Si3 1.622892 1_555
