# generated using pymatgen
data_TlIn3
_symmetry_space_group_name_H-M   'P 1'
_cell_length_a   6.77218102
_cell_length_b   6.77218102
_cell_length_c   5.56379316
_cell_angle_alpha   90.00000000
_cell_angle_beta   90.00000000
_cell_angle_gamma   119.99999960
_symmetry_Int_Tables_number   1
_chemical_formula_structural   TlIn3
_chemical_formula_sum   'Tl2 In6'
_cell_volume   220.98292927
_cell_formula_units_Z   2
loop_
 _symmetry_equiv_pos_site_id
 _symmetry_equiv_pos_as_xyz
  1  'x, y, z'
loop_
 _atom_site_type_symbol
 _atom_site_label
 _atom_site_symmetry_multiplicity
 _atom_site_fract_x
 _atom_site_fract_y
 _atom_site_fract_z
 _atom_site_occupancy
  Tl  Tl0  1  0.33333300  0.66666700  0.75000000  1
  Tl  Tl1  1  0.66666700  0.33333300  0.25000000  1
  In  In0  1  0.16376263  0.32752626  0.25000000  1
  In  In1  1  0.67247374  0.83623737  0.25000000  1
  In  In2  1  0.16376263  0.83623737  0.25000000  1
  In  In3  1  0.83623737  0.67247374  0.75000000  1
  In  In4  1  0.32752626  0.16376263  0.75000000  1
  In  In5  1  0.83623737  0.16376263  0.75000000  1
loop_
_geom_bond_atom_site_label_1
_geom_bond_atom_site_label_2
_geom_bond_distance
_geom_bond_site_symmetry_2
In0 In2 3.327097 1_545
In0 In1 3.327097 1_445
In0 In5 3.380650 1_455
In0 In5 3.380650 1_454
In0 In4 3.380656 1_554
In0 In4 3.380656 1_555
In0 Tl1 3.386255 1_455
In0 Tl1 3.386269 1_555
In0 Tl0 3.419817 1_554
In0 Tl0 3.419817 1_555
In0 In2 3.445084 1_555
In0 In1 3.445084 1_555
In1 In2 3.327097 1_655
In1 In5 3.380650 1_565
In1 In5 3.380650 1_564
In1 In3 3.380656 1_555
In1 In3 3.380656 1_554
In1 Tl1 3.386255 1_565
In1 Tl1 3.386269 1_555
In1 Tl0 3.419817 1_554
In1 Tl0 3.419817 1_555
In1 In2 3.445084 1_555
In2 In4 3.380650 1_564
In2 In4 3.380650 1_565
In2 In3 3.380650 1_455
In2 In3 3.380650 1_454
In2 Tl1 3.386262 1_455
In2 Tl1 3.386262 1_565
In2 Tl0 3.419817 1_555
In2 Tl0 3.419817 1_554
In3 In5 3.327097 1_565
In3 In4 3.327097 1_665
In3 Tl0 3.386255 1_655
In3 Tl0 3.386269 1_555
In3 Tl1 3.419817 1_555
In3 Tl1 3.419817 1_556
In3 In5 3.445084 1_555
In3 In4 3.445084 1_555
In4 In5 3.327097 1_455
In4 Tl0 3.386255 1_545
In4 Tl0 3.386269 1_555
In4 Tl1 3.419817 1_555
In4 Tl1 3.419817 1_556
In4 In5 3.445084 1_555
In5 Tl0 3.386262 1_545
In5 Tl0 3.386262 1_655
In5 Tl1 3.419817 1_555
In5 Tl1 3.419817 1_556
