# generated using pymatgen
data_TiCoSi
_symmetry_space_group_name_H-M   'P 1'
_cell_length_a   5.96493398
_cell_length_b   5.96495525
_cell_length_c   3.67628078
_cell_angle_alpha   90.00000000
_cell_angle_beta   90.00000000
_cell_angle_gamma   120.00074791
_symmetry_Int_Tables_number   1
_chemical_formula_structural   TiCoSi
_chemical_formula_sum   'Ti3 Co3 Si3'
_cell_volume   113.27885830
_cell_formula_units_Z   3
loop_
 _symmetry_equiv_pos_site_id
 _symmetry_equiv_pos_as_xyz
  1  'x, y, z'
loop_
 _atom_site_type_symbol
 _atom_site_label
 _atom_site_symmetry_multiplicity
 _atom_site_fract_x
 _atom_site_fract_y
 _atom_site_fract_z
 _atom_site_occupancy
  Ti  Ti0  1  0.56491994  0.56492027  0.50000000  1
  Ti  Ti1  1  0.43506792  0.99999719  0.50000000  1
  Ti  Ti2  1  0.99999677  0.43506252  0.50000000  1
  Co  Co0  1  0.75722798  0.00005015  0.00000000  1
  Co  Co1  1  0.24275073  0.24276022  0.00000000  1
  Co  Co2  1  0.00003991  0.75721144  0.00000000  1
  Si  Si0  1  0.66666905  0.33332677  -0.00000000  1
  Si  Si1  1  0.33332671  0.66666707  -0.00000000  1
  Si  Si2  1  0.00000099  0.00000438  0.50000000  1
loop_
_geom_bond_atom_site_label_1
_geom_bond_atom_site_label_2
_geom_bond_distance
_geom_bond_site_symmetry_2
Co0 Si0 2.306024 1_555
Co0 Si1 2.306449 1_545
Co0 Si2 2.340133 1_655
Co0 Si2 2.340133 1_654
Co0 Co1 2.508087 1_655
Co0 Co2 2.508780 1_645
Co0 Ti1 2.659125 1_545
Co0 Ti1 2.659125 1_544
Co0 Ti2 2.907101 1_554
Co0 Ti2 2.907101 1_555
Co0 Ti0 2.907572 1_544
Co0 Ti0 2.907572 1_545
Co1 Si1 2.306398 1_555
Co1 Si0 2.306473 1_555
Co1 Si2 2.339965 1_555
Co1 Si2 2.339965 1_554
Co1 Co2 2.508230 1_545
Co1 Ti0 2.659245 1_555
Co1 Ti0 2.659245 1_554
Co1 Ti2 2.907283 1_455
Co1 Ti2 2.907283 1_454
Co1 Ti1 2.907378 1_544
Co1 Ti1 2.907378 1_545
Co2 Si1 2.306020 1_555
Co2 Si0 2.306364 1_455
Co2 Si2 2.340197 1_564
Co2 Si2 2.340197 1_565
Co2 Ti2 2.659103 1_455
Co2 Ti2 2.659103 1_454
Co2 Ti1 2.907160 1_554
Co2 Ti1 2.907160 1_555
Co2 Ti0 2.907529 1_455
Co2 Ti0 2.907529 1_454
Si0 Ti2 2.548267 1_554
Si0 Ti2 2.548267 1_555
Si0 Ti1 2.548278 1_544
Si0 Ti1 2.548278 1_545
Si0 Ti0 2.548326 1_555
Si0 Ti0 2.548326 1_554
Si1 Ti1 2.548276 1_555
Si1 Ti1 2.548276 1_554
Si1 Ti2 2.548279 1_455
Si1 Ti2 2.548279 1_454
Si1 Ti0 2.548316 1_555
Si1 Ti0 2.548316 1_554
Si2 Ti2 2.595115 1_455
Si2 Ti1 2.595167 1_545
Si2 Ti0 2.595214 1_445
