# generated using pymatgen
data_MoPd
_symmetry_space_group_name_H-M   'P 1'
_cell_length_a   5.58779215
_cell_length_b   5.58779215
_cell_length_c   9.13274200
_cell_angle_alpha   90.00000000
_cell_angle_beta   90.00000000
_cell_angle_gamma   120.00000181
_symmetry_Int_Tables_number   1
_chemical_formula_structural   MoPd
_chemical_formula_sum   'Mo8 Pd8'
_cell_volume   246.95185895
_cell_formula_units_Z   8
loop_
 _symmetry_equiv_pos_site_id
 _symmetry_equiv_pos_as_xyz
  1  'x, y, z'
loop_
 _atom_site_type_symbol
 _atom_site_label
 _atom_site_symmetry_multiplicity
 _atom_site_fract_x
 _atom_site_fract_y
 _atom_site_fract_z
 _atom_site_occupancy
  Mo  Mo0_0  1  0.33333350  0.16666650  0.25000000  1
  Mo  Mo0_1  1  0.33333350  0.16666650  0.75000000  1
  Mo  Mo0_2  1  0.33333350  0.66666650  0.25000000  1
  Mo  Mo0_3  1  0.33333350  0.66666650  0.75000000  1
  Mo  Mo0_4  1  0.83333350  0.16666650  0.25000000  1
  Mo  Mo0_5  1  0.83333350  0.16666650  0.75000000  1
  Mo  Mo0_6  1  0.83333350  0.66666650  0.25000000  1
  Mo  Mo0_7  1  0.83333350  0.66666650  0.75000000  1
  Pd  Pd0_0  1  0.16666650  0.33333350  0.00000000  1
  Pd  Pd0_1  1  0.16666650  0.33333350  0.50000000  1
  Pd  Pd0_2  1  0.16666650  0.83333350  0.00000000  1
  Pd  Pd0_3  1  0.16666650  0.83333350  0.50000000  1
  Pd  Pd0_4  1  0.66666650  0.33333350  0.00000000  1
  Pd  Pd0_5  1  0.66666650  0.33333350  0.50000000  1
  Pd  Pd0_6  1  0.66666650  0.83333350  0.00000000  1
  Pd  Pd0_7  1  0.66666650  0.83333350  0.50000000  1
loop_
_geom_bond_atom_site_label_1
_geom_bond_atom_site_label_2
_geom_bond_distance
_geom_bond_site_symmetry_2
Mo0_0 Mo0_6 2.793896 1_445
Mo0_0 Mo0_6 2.793896 1_555
Mo0_0 Mo0_4 2.793896 1_555
Mo0_0 Mo0_4 2.793896 1_455
Mo0_0 Mo0_2 2.793896 1_545
Mo0_0 Mo0_2 2.793896 1_555
Mo0_0 Pd0_3 2.795511 1_545
Mo0_0 Pd0_5 2.795511 1_555
Mo0_0 Pd0_2 2.795511 1_545
Mo0_0 Pd0_4 2.795511 1_555
Mo0_0 Pd0_0 2.795514 1_555
Mo0_0 Pd0_1 2.795514 1_555
Mo0_1 Mo0_7 2.793896 1_445
Mo0_1 Mo0_7 2.793896 1_555
Mo0_1 Mo0_5 2.793896 1_555
Mo0_1 Mo0_3 2.793896 1_545
Mo0_1 Mo0_3 2.793896 1_555
Mo0_1 Mo0_5 2.793896 1_455
Mo0_1 Pd0_3 2.795511 1_545
Mo0_1 Pd0_5 2.795511 1_555
Mo0_1 Pd0_2 2.795511 1_546
Mo0_1 Pd0_4 2.795511 1_556
Mo0_1 Pd0_0 2.795514 1_556
Mo0_1 Pd0_1 2.795514 1_555
Mo0_2 Mo0_4 2.793896 1_565
Mo0_2 Mo0_4 2.793896 1_455
Mo0_2 Mo0_6 2.793896 1_555
Mo0_2 Mo0_6 2.793896 1_455
Mo0_2 Pd0_6 2.795511 1_555
Mo0_2 Pd0_1 2.795511 1_555
Mo0_2 Pd0_0 2.795511 1_555
Mo0_2 Pd0_7 2.795511 1_555
Mo0_2 Pd0_3 2.795514 1_555
Mo0_2 Pd0_2 2.795514 1_555
Mo0_3 Mo0_5 2.793896 1_565
Mo0_3 Mo0_5 2.793896 1_455
Mo0_3 Mo0_7 2.793896 1_555
Mo0_3 Mo0_7 2.793896 1_455
Mo0_3 Pd0_6 2.795511 1_556
Mo0_3 Pd0_0 2.795511 1_556
Mo0_3 Pd0_1 2.795511 1_555
Mo0_3 Pd0_7 2.795511 1_555
Mo0_3 Pd0_3 2.795514 1_555
Mo0_3 Pd0_2 2.795514 1_556
Mo0_4 Mo0_6 2.793896 1_545
Mo0_4 Mo0_6 2.793896 1_555
Mo0_4 Pd0_1 2.795511 1_655
Mo0_4 Pd0_7 2.795511 1_545
Mo0_4 Pd0_6 2.795511 1_545
Mo0_4 Pd0_0 2.795511 1_655
Mo0_4 Pd0_5 2.795514 1_555
Mo0_4 Pd0_4 2.795514 1_555
Mo0_5 Mo0_7 2.793896 1_545
Mo0_5 Mo0_7 2.793896 1_555
Mo0_5 Pd0_1 2.795511 1_655
Mo0_5 Pd0_7 2.795511 1_545
Mo0_5 Pd0_6 2.795511 1_546
Mo0_5 Pd0_0 2.795511 1_656
Mo0_5 Pd0_5 2.795514 1_555
Mo0_5 Pd0_4 2.795514 1_556
Mo0_6 Pd0_5 2.795511 1_555
Mo0_6 Pd0_2 2.795511 1_655
Mo0_6 Pd0_3 2.795511 1_655
Mo0_6 Pd0_4 2.795511 1_555
Mo0_6 Pd0_7 2.795514 1_555
Mo0_6 Pd0_6 2.795514 1_555
Mo0_7 Pd0_5 2.795511 1_555
Mo0_7 Pd0_2 2.795511 1_656
Mo0_7 Pd0_4 2.795511 1_556
Mo0_7 Pd0_3 2.795511 1_655
Mo0_7 Pd0_7 2.795514 1_555
Mo0_7 Pd0_6 2.795514 1_556
Pd0_0 Pd0_6 2.793896 1_555
Pd0_0 Pd0_6 2.793896 1_445
Pd0_0 Pd0_4 2.793896 1_555
Pd0_0 Pd0_2 2.793896 1_545
Pd0_0 Pd0_4 2.793896 1_455
Pd0_0 Pd0_2 2.793896 1_555
Pd0_1 Pd0_7 2.793896 1_555
Pd0_1 Pd0_7 2.793896 1_445
Pd0_1 Pd0_5 2.793896 1_555
Pd0_1 Pd0_3 2.793896 1_555
Pd0_1 Pd0_5 2.793896 1_455
Pd0_1 Pd0_3 2.793896 1_545
Pd0_2 Pd0_4 2.793896 1_565
Pd0_2 Pd0_4 2.793896 1_455
Pd0_2 Pd0_6 2.793896 1_455
Pd0_2 Pd0_6 2.793896 1_555
Pd0_3 Pd0_5 2.793896 1_565
Pd0_3 Pd0_5 2.793896 1_455
Pd0_3 Pd0_7 2.793896 1_455
Pd0_3 Pd0_7 2.793896 1_555
Pd0_4 Pd0_6 2.793896 1_555
Pd0_4 Pd0_6 2.793896 1_545
Pd0_5 Pd0_7 2.793896 1_555
Pd0_5 Pd0_7 2.793896 1_545
