# generated using pymatgen
data_BaBAsF10
_symmetry_space_group_name_H-M   'P 1'
_cell_length_a   6.49185900
_cell_length_b   10.70630300
_cell_length_c   12.13367400
_cell_angle_alpha   90.00000000
_cell_angle_beta   90.00000000
_cell_angle_gamma   90.00000000
_symmetry_Int_Tables_number   1
_chemical_formula_structural   BaBAsF10
_chemical_formula_sum   'Ba4 B4 As4 F40'
_cell_volume   843.33656608
_cell_formula_units_Z   4
loop_
 _symmetry_equiv_pos_site_id
 _symmetry_equiv_pos_as_xyz
  1  'x, y, z'
loop_
 _atom_site_type_symbol
 _atom_site_label
 _atom_site_symmetry_multiplicity
 _atom_site_fract_x
 _atom_site_fract_y
 _atom_site_fract_z
 _atom_site_occupancy
  Ba  Ba0  1  0.75000000  0.26486200  0.61074900  1
  Ba  Ba1  1  0.75000000  0.76486200  0.88925100  1
  Ba  Ba2  1  0.25000000  0.73513800  0.38925100  1
  Ba  Ba3  1  0.25000000  0.23513800  0.11074900  1
  B  B0  1  0.75000000  0.64163000  0.57145900  1
  B  B1  1  0.75000000  0.14163000  0.92854100  1
  B  B2  1  0.25000000  0.35837000  0.42854100  1
  B  B3  1  0.25000000  0.85837000  0.07145900  1
  As  As0  1  0.25000000  0.98270100  0.69918400  1
  As  As1  1  0.25000000  0.48270100  0.80081600  1
  As  As2  1  0.75000000  0.01729900  0.30081600  1
  As  As3  1  0.75000000  0.51729900  0.19918400  1
  F  F0  1  0.57316500  0.68601400  0.51597200  1
  F  F1  1  0.92683500  0.18601400  0.98402800  1
  F  F2  1  0.07316500  0.31398600  0.48402800  1
  F  F3  1  0.42683500  0.81398600  0.01597200  1
  F  F4  1  0.42683500  0.31398600  0.48402800  1
  F  F5  1  0.07316500  0.81398600  0.01597200  1
  F  F6  1  0.92683500  0.68601400  0.51597200  1
  F  F7  1  0.57316500  0.18601400  0.98402800  1
  F  F8  1  0.75000000  0.50964100  0.57166800  1
  F  F9  1  0.75000000  0.00964100  0.92833200  1
  F  F10  1  0.25000000  0.49035900  0.42833200  1
  F  F11  1  0.25000000  0.99035900  0.07166800  1
  F  F12  1  0.75000000  0.68570700  0.68141200  1
  F  F13  1  0.75000000  0.18570700  0.81858800  1
  F  F14  1  0.25000000  0.31429300  0.31858800  1
  F  F15  1  0.25000000  0.81429300  0.18141200  1
  F  F16  1  0.25000000  0.88945200  0.57771800  1
  F  F17  1  0.25000000  0.38945200  0.92228200  1
  F  F18  1  0.75000000  0.11054800  0.42228200  1
  F  F19  1  0.75000000  0.61054800  0.07771800  1
  F  F20  1  0.44328900  0.88453400  0.75632200  1
  F  F21  1  0.05671100  0.38453400  0.74367800  1
  F  F22  1  0.94328900  0.11546600  0.24367800  1
  F  F23  1  0.55671100  0.61546600  0.25632200  1
  F  F24  1  0.55671100  0.11546600  0.24367800  1
  F  F25  1  0.94328900  0.61546600  0.25632200  1
  F  F26  1  0.05671100  0.88453400  0.75632200  1
  F  F27  1  0.44328900  0.38453400  0.74367800  1
  F  F28  1  0.25000000  0.07608900  0.81670200  1
  F  F29  1  0.25000000  0.57608900  0.68329800  1
  F  F30  1  0.75000000  0.92391100  0.18329800  1
  F  F31  1  0.75000000  0.42391100  0.31670200  1
  F  F32  1  0.05546100  0.07789500  0.63841200  1
  F  F33  1  0.44453900  0.57789500  0.86158800  1
  F  F34  1  0.55546100  0.92210500  0.36158800  1
  F  F35  1  0.94453900  0.42210500  0.13841200  1
  F  F36  1  0.94453900  0.92210500  0.36158800  1
  F  F37  1  0.55546100  0.42210500  0.13841200  1
  F  F38  1  0.44453900  0.07789500  0.63841200  1
  F  F39  1  0.05546100  0.57789500  0.86158800  1
loop_
_geom_bond_atom_site_label_1
_geom_bond_atom_site_label_2
_geom_bond_distance
_geom_bond_site_symmetry_2
Ba0 F2 2.653706 1_655
Ba0 F4 2.653706 1_555
Ba0 F13 2.660435 1_555
Ba0 F8 2.663234 1_555
Ba0 F18 2.821167 1_555
Ba0 F38 2.837586 1_555
Ba0 F32 2.837586 1_655
Ba0 F21 2.864903 1_655
Ba0 F27 2.864903 1_555
Ba1 F3 2.653706 1_556
Ba1 F5 2.653706 1_656
Ba1 F12 2.660435 1_555
Ba1 F9 2.663234 1_565
Ba1 F19 2.821167 1_556
Ba1 F39 2.837586 1_655
Ba1 F33 2.837586 1_555
Ba1 F26 2.864903 1_655
Ba1 F20 2.864903 1_555
Ba2 F6 2.653706 1_455
Ba2 F0 2.653706 1_555
Ba2 F15 2.660435 1_555
Ba2 F10 2.663234 1_555
Ba2 F16 2.821167 1_555
Ba2 F34 2.837586 1_555
Ba2 F36 2.837586 1_455
Ba2 F25 2.864903 1_455
Ba2 F23 2.864903 1_555
Ba3 F1 2.653706 1_454
Ba3 F7 2.653706 1_554
Ba3 F14 2.660435 1_555
Ba3 F11 2.663234 1_545
Ba3 F17 2.821167 1_554
Ba3 F37 2.837586 1_555
Ba3 F35 2.837586 1_455
Ba3 F22 2.864903 1_455
Ba3 F24 2.864903 1_555
B0 F8 1.413117 1_555
B0 F0 1.413139 1_555
B0 F6 1.413139 1_555
B0 F12 1.415134 1_555
B1 F9 1.413117 1_555
B1 F1 1.413139 1_555
B1 F7 1.413139 1_555
B1 F13 1.415134 1_555
B2 F10 1.413117 1_555
B2 F4 1.413139 1_555
B2 F2 1.413139 1_555
B2 F14 1.415134 1_555
B3 F11 1.413117 1_555
B3 F5 1.413139 1_555
B3 F3 1.413139 1_555
B3 F15 1.415134 1_555
As0 F28 1.741535 1_565
As0 F20 1.777584 1_555
As0 F26 1.777584 1_555
As0 F16 1.780134 1_555
As0 F32 1.782534 1_565
As0 F38 1.782534 1_565
As1 F29 1.741535 1_555
As1 F21 1.777584 1_555
As1 F27 1.777584 1_555
As1 F17 1.780134 1_555
As1 F39 1.782534 1_555
As1 F33 1.782534 1_555
As2 F30 1.741535 1_545
As2 F24 1.777584 1_555
As2 F22 1.777584 1_555
As2 F18 1.780134 1_555
As2 F34 1.782534 1_545
As2 F36 1.782534 1_545
As3 F31 1.741535 1_555
As3 F25 1.777584 1_555
As3 F23 1.777584 1_555
As3 F19 1.780134 1_555
As3 F35 1.782534 1_555
As3 F37 1.782534 1_555
