# generated using pymatgen
data_Ba2EuV3O11
_symmetry_space_group_name_H-M   'P 1'
_cell_length_a   7.82569600
_cell_length_b   12.51535276
_cell_length_c   11.45396532
_cell_angle_alpha   103.14795404
_cell_angle_beta   90.00000000
_cell_angle_gamma   90.00000000
_symmetry_Int_Tables_number   1
_chemical_formula_structural   Ba2EuV3O11
_chemical_formula_sum   'Ba8 Eu4 V12 O44'
_cell_volume   1092.40939601
_cell_formula_units_Z   4
loop_
 _symmetry_equiv_pos_site_id
 _symmetry_equiv_pos_as_xyz
  1  'x, y, z'
loop_
 _atom_site_type_symbol
 _atom_site_label
 _atom_site_symmetry_multiplicity
 _atom_site_fract_x
 _atom_site_fract_y
 _atom_site_fract_z
 _atom_site_occupancy
  Ba  Ba0  1  0.27353300  0.76599000  0.94149800  1
  Ba  Ba1  1  0.72646700  0.23401000  0.05850200  1
  Ba  Ba2  1  0.77353300  0.23401000  0.55850200  1
  Ba  Ba3  1  0.22646700  0.76599000  0.44149800  1
  Ba  Ba4  1  0.74737800  0.55431600  0.88932800  1
  Ba  Ba5  1  0.25262200  0.44568400  0.11067200  1
  Ba  Ba6  1  0.24737800  0.44568400  0.61067200  1
  Ba  Ba7  1  0.75262200  0.55431600  0.38932800  1
  Eu  Eu0  1  0.49890300  0.99768500  0.71843600  1
  Eu  Eu1  1  0.50109700  0.00231500  0.28156400  1
  Eu  Eu2  1  0.99890300  0.00231500  0.78156400  1
  Eu  Eu3  1  0.00109700  0.99768500  0.21843600  1
  V  V0  1  0.75378100  0.90399100  0.97530400  1
  V  V1  1  0.24621900  0.09600900  0.02469600  1
  V  V2  1  0.25378100  0.09600900  0.52469600  1
  V  V3  1  0.74621900  0.90399100  0.47530400  1
  V  V4  1  0.52000200  0.68310400  0.67332900  1
  V  V5  1  0.47999800  0.31689600  0.32667100  1
  V  V6  1  0.02000200  0.31689600  0.82667100  1
  V  V7  1  0.97999800  0.68310400  0.17332900  1
  V  V8  1  0.98058800  0.68650800  0.67038500  1
  V  V9  1  0.01941200  0.31349200  0.32961500  1
  V  V10  1  0.48058800  0.31349200  0.82961500  1
  V  V11  1  0.51941200  0.68650800  0.17038500  1
  O  O0  1  0.44242400  0.81536800  0.71944100  1
  O  O1  1  0.55757600  0.18463200  0.28055900  1
  O  O2  1  0.94242400  0.18463200  0.78055900  1
  O  O3  1  0.05757600  0.81536800  0.21944100  1
  O  O4  1  0.55234400  0.18010800  0.80956900  1
  O  O5  1  0.44765600  0.81989200  0.19043100  1
  O  O6  1  0.05234400  0.81989200  0.69043100  1
  O  O7  1  0.94765600  0.18010800  0.30956900  1
  O  O8  1  0.75034300  0.66751800  0.66760500  1
  O  O9  1  0.24965700  0.33248200  0.33239500  1
  O  O10  1  0.25034300  0.33248200  0.83239500  1
  O  O11  1  0.74965700  0.66751800  0.16760500  1
  O  O12  1  0.94490800  0.37565000  0.96592600  1
  O  O13  1  0.05509200  0.62435000  0.03407400  1
  O  O14  1  0.44490800  0.62435000  0.53407400  1
  O  O15  1  0.55509200  0.37565000  0.46592600  1
  O  O16  1  0.94167600  0.39306200  0.73219400  1
  O  O17  1  0.05832400  0.60693800  0.26780600  1
  O  O18  1  0.44167600  0.60693800  0.76780600  1
  O  O19  1  0.55832400  0.39306200  0.23219400  1
  O  O20  1  0.78355900  0.98645300  0.62089900  1
  O  O21  1  0.21644100  0.01354700  0.37910100  1
  O  O22  1  0.28355900  0.01354700  0.87910100  1
  O  O23  1  0.71644100  0.98645300  0.12089900  1
  O  O24  1  0.97034900  0.87907000  0.97234100  1
  O  O25  1  0.02965100  0.12093000  0.02765900  1
  O  O26  1  0.47034900  0.12093000  0.52765900  1
  O  O27  1  0.52965100  0.87907000  0.47234100  1
  O  O28  1  0.63771600  0.78571000  0.94641300  1
  O  O29  1  0.36228400  0.21429000  0.05358700  1
  O  O30  1  0.13771600  0.21429000  0.55358700  1
  O  O31  1  0.86228400  0.78571000  0.44641300  1
  O  O32  1  0.72090100  0.98297000  0.86592000  1
  O  O33  1  0.27909900  0.01703000  0.13408000  1
  O  O34  1  0.22090100  0.01703000  0.63408000  1
  O  O35  1  0.77909900  0.98297000  0.36592000  1
  O  O36  1  0.55890400  0.37055300  0.71938900  1
  O  O37  1  0.44109600  0.62944700  0.28061100  1
  O  O38  1  0.05890400  0.62944700  0.78061100  1
  O  O39  1  0.94109600  0.37055300  0.21938900  1
  O  O40  1  0.56266900  0.38826400  0.96139500  1
  O  O41  1  0.43733100  0.61173600  0.03860500  1
  O  O42  1  0.06266900  0.61173600  0.53860500  1
  O  O43  1  0.93733100  0.38826400  0.46139500  1
loop_
_geom_bond_atom_site_label_1
_geom_bond_atom_site_label_2
_geom_bond_distance
_geom_bond_site_symmetry_2
Ba0 O24 2.744011 1_455
Ba0 O41 2.753921 1_556
Ba0 O38 2.775728 1_555
Ba0 O18 2.801823 1_555
Ba0 O13 2.836212 1_556
Ba0 O28 2.860101 1_555
Ba0 O0 3.051701 1_555
Ba0 O5 3.092984 1_556
Ba0 O22 3.335197 1_565
Ba0 O33 3.403815 1_566
Ba1 O25 2.744011 1_655
Ba1 O40 2.753921 1_554
Ba1 O39 2.775728 1_555
Ba1 O19 2.801823 1_555
Ba1 O12 2.836212 1_554
Ba1 O29 2.860101 1_555
Ba1 O1 3.051701 1_555
Ba1 O4 3.092984 1_554
Ba1 O23 3.335197 1_545
Ba1 O32 3.403815 1_544
Ba2 O26 2.744011 1_555
Ba2 O43 2.753921 1_555
Ba2 O36 2.775728 1_555
Ba2 O16 2.801823 1_555
Ba2 O15 2.836212 1_555
Ba2 O30 2.860101 1_655
Ba2 O2 3.051701 1_555
Ba2 O7 3.092984 1_555
Ba2 O20 3.335197 1_545
Ba2 O35 3.403815 1_545
Ba3 O27 2.744011 1_555
Ba3 O42 2.753921 1_555
Ba3 O37 2.775728 1_555
Ba3 O17 2.801823 1_555
Ba3 O14 2.836212 1_555
Ba3 O31 2.860101 1_455
Ba3 O3 3.051701 1_555
Ba3 O6 3.092984 1_555
Ba3 O21 3.335197 1_565
Ba3 O34 3.403815 1_565
Ba4 O40 2.805371 1_555
Ba4 O16 2.823432 1_555
Ba4 O18 2.917434 1_555
Ba4 O13 2.941883 1_656
Ba4 O28 2.947753 1_555
Ba4 O41 2.961081 1_556
Ba4 O38 2.985103 1_655
Ba4 O12 3.008615 1_555
Ba4 O36 3.035952 1_555
Ba4 O8 3.177140 1_555
Ba4 O11 3.180020 1_556
Ba5 O41 2.805371 1_555
Ba5 O17 2.823432 1_555
Ba5 O19 2.917434 1_555
Ba5 O12 2.941883 1_454
Ba5 O29 2.947753 1_555
Ba5 O40 2.961081 1_554
Ba5 O39 2.985103 1_455
Ba5 O13 3.008615 1_555
Ba5 O37 3.035952 1_555
Ba5 O9 3.177140 1_555
Ba5 O10 3.180020 1_554
Ba6 O42 2.805371 1_555
Ba6 O18 2.823432 1_555
Ba6 O16 2.917434 1_455
Ba6 O15 2.941883 1_555
Ba6 O30 2.947753 1_555
Ba6 O43 2.961081 1_455
Ba6 O36 2.985103 1_555
Ba6 O14 3.008615 1_555
Ba6 O38 3.035952 1_555
Ba6 O10 3.177140 1_555
Ba6 O9 3.180020 1_555
Ba7 O43 2.805371 1_555
Ba7 O19 2.823432 1_555
Ba7 O17 2.917434 1_655
Ba7 O14 2.941883 1_555
Ba7 O31 2.947753 1_555
Ba7 O42 2.961081 1_655
Ba7 O37 2.985103 1_555
Ba7 O15 3.008615 1_555
Ba7 O39 3.035952 1_555
Ba7 O11 3.177140 1_555
Ba7 O8 3.180020 1_555
Eu0 O4 2.322241 1_565
Eu0 O0 2.326773 1_555
Eu0 O34 2.414883 1_565
Eu0 O32 2.459121 1_555
Eu0 O22 2.469755 1_565
Eu0 O20 2.481685 1_555
Eu0 O27 2.881569 1_555
Eu0 O26 2.955900 1_565
Eu1 O5 2.322241 1_545
Eu1 O1 2.326773 1_555
Eu1 O35 2.414883 1_545
Eu1 O33 2.459121 1_555
Eu1 O23 2.469755 1_545
Eu1 O21 2.481685 1_555
Eu1 O26 2.881569 1_555
Eu1 O27 2.955900 1_545
Eu2 O6 2.322241 1_645
Eu2 O2 2.326773 1_555
Eu2 O32 2.414883 1_545
Eu2 O34 2.459121 1_655
Eu2 O20 2.469755 1_545
Eu2 O22 2.481685 1_655
Eu2 O25 2.881569 1_656
Eu2 O24 2.955900 1_545
Eu3 O7 2.322241 1_465
Eu3 O3 2.326773 1_555
Eu3 O33 2.414883 1_565
Eu3 O35 2.459121 1_455
Eu3 O21 2.469755 1_565
Eu3 O23 2.481685 1_455
Eu3 O24 2.881569 1_454
Eu3 O25 2.955900 1_565
O0 V4 1.729135 1_555
O1 V5 1.729135 1_555
O2 V6 1.729135 1_655
O3 V7 1.729135 1_455
O4 V10 1.726383 1_555
O5 V11 1.726383 1_555
O6 V8 1.726383 1_455
O7 V9 1.726383 1_655
O8 V4 1.812683 1_555
O8 V8 1.816766 1_555
O9 V5 1.812683 1_555
O9 V9 1.816766 1_555
O10 V6 1.812683 1_555
O10 V10 1.816766 1_555
O11 V7 1.812683 1_555
O11 V11 1.816766 1_555
O12 V6 1.701933 1_655
O13 V7 1.701933 1_455
O14 V4 1.701933 1_555
O15 V5 1.701933 1_555
O16 V6 1.710172 1_655
O17 V7 1.710172 1_455
O18 V4 1.710172 1_555
O19 V5 1.710172 1_555
O20 V3 1.774415 1_555
O21 V2 1.774415 1_555
O22 V1 1.774415 1_556
O23 V0 1.774415 1_554
O24 V0 1.722192 1_555
O25 V1 1.722192 1_555
O26 V2 1.722192 1_555
O27 V3 1.722192 1_555
O28 V0 1.703823 1_555
O29 V1 1.703823 1_555
O30 V2 1.703823 1_555
O31 V3 1.703823 1_555
O32 V0 1.782230 1_555
O33 V1 1.782230 1_555
O34 V2 1.782230 1_555
O35 V3 1.782230 1_555
O36 V10 1.699928 1_555
O37 V11 1.699928 1_555
O38 V8 1.699928 1_455
O39 V9 1.699928 1_655
O40 V10 1.709979 1_555
O41 V11 1.709979 1_555
O42 V8 1.709979 1_455
O43 V9 1.709979 1_655
