# generated using pymatgen
data_Tm2Si2O7
_symmetry_space_group_name_H-M   'P 1'
_cell_length_a   6.50796724
_cell_length_b   6.53214894
_cell_length_c   11.88019061
_cell_angle_alpha   94.04005291
_cell_angle_beta   91.86482052
_cell_angle_gamma   92.43916611
_symmetry_Int_Tables_number   1
_chemical_formula_structural   Tm2Si2O7
_chemical_formula_sum   'Tm8 Si8 O28'
_cell_volume   503.00733390
_cell_formula_units_Z   4
loop_
 _symmetry_equiv_pos_site_id
 _symmetry_equiv_pos_as_xyz
  1  'x, y, z'
loop_
 _atom_site_type_symbol
 _atom_site_label
 _atom_site_symmetry_multiplicity
 _atom_site_fract_x
 _atom_site_fract_y
 _atom_site_fract_z
 _atom_site_occupancy
  Tm  Tm0  1  0.82448189  0.32593128  0.11117945  1
  Tm  Tm1  1  0.17551811  0.67406872  0.88882055  1
  Tm  Tm2  1  0.86727875  0.71195566  0.63486304  1
  Tm  Tm3  1  0.13272125  0.28804434  0.36513696  1
  Tm  Tm4  1  0.61880544  0.58635424  0.35419461  1
  Tm  Tm5  1  0.38119456  0.41364576  0.64580539  1
  Tm  Tm6  1  0.54799168  0.82694082  0.11352247  1
  Tm  Tm7  1  0.45200832  0.17305918  0.88647753  1
  Si  Si0  1  0.64348518  0.12107969  0.37499337  1
  Si  Si1  1  0.35651482  0.87892031  0.62500663  1
  Si  Si2  1  0.12248978  0.77790693  0.40661684  1
  Si  Si3  1  0.87750922  0.22209307  0.59338316  1
  Si  Si4  1  0.01366566  0.83544937  0.17435854  1
  Si  Si5  1  0.98633434  0.16455063  0.82564146  1
  Si  Si6  1  0.65722973  0.64875633  0.88595821  1
  Si  Si7  1  0.34277027  0.35124367  0.11404179  1
  O  O0  1  0.50156089  0.48317089  0.81462824  1
  O  O1  1  0.49843911  0.51682911  0.18537176  1
  O  O2  1  0.50051522  0.83445544  0.91792147  1
  O  O3  1  0.49948478  0.16554456  0.08207853  1
  O  O4  1  0.85304969  0.71077858  0.81577973  1
  O  O5  1  0.14695031  0.28922142  0.18422027  1
  O  O6  1  0.73021412  0.58221751  0.00798027  1
  O  O7  1  0.26978488  0.41778249  0.99201973  1
  O  O8  1  0.57482564  0.90783734  0.30592131  1
  O  O9  1  0.42517436  0.09216266  0.69407869  1
  O  O10  1  0.46050717  0.26981097  0.41345406  1
  O  O11  1  0.53949283  0.73018903  0.58654594  1
  O  O12  1  0.79155619  0.28078511  0.30938764  1
  O  O13  1  0.20844381  0.71921489  0.69061236  1
  O  O14  1  0.78142143  0.06996150  0.48744871  1
  O  O15  1  0.21857857  0.93003850  0.51255129  1
  O  O16  1  0.14884964  0.01288730  0.87663355  1
  O  O17  1  0.85115036  0.98711270  0.12336645  1
  O  O18  1  0.11136802  0.36668333  0.78574902  1
  O  O19  1  0.88863198  0.63331667  0.21425098  1
  O  O20  1  0.79756582  0.20459336  0.90709355  1
  O  O21  1  0.20243418  0.79540664  0.09290645  1
  O  O22  1  0.90011955  0.06124385  0.69400011  1
  O  O23  1  0.09988045  0.93875715  0.30599989  1
  O  O24  1  0.08895662  0.32628008  0.55080498  1
  O  O25  1  0.91104338  0.67371992  0.44919502  1
  O  O26  1  0.72406621  0.40158044  0.62157070  1
  O  O27  1  0.27593379  0.59841956  0.37842930  1
loop_
_geom_bond_atom_site_label_1
_geom_bond_atom_site_label_2
_geom_bond_distance
_geom_bond_site_symmetry_2
O0 Si6 1.623601 1_555
O0 Tm5 2.140471 1_555
O0 Tm7 2.267598 1_555
O0 Tm1 2.650710 1_555
O1 Si7 1.623601 1_555
O1 Tm4 2.140471 1_555
O1 Tm6 2.267598 1_555
O1 Tm0 2.650710 1_555
O2 Si6 1.649662 1_555
O2 Tm7 2.302061 1_565
O2 Tm1 2.324526 1_555
O2 Tm6 2.338472 1_556
O3 Si7 1.649662 1_555
O3 Tm6 2.302061 1_545
O3 Tm0 2.324526 1_555
O3 Tm7 2.338472 1_554
O4 Si6 1.598787 1_555
O4 Tm2 2.154867 1_555
O4 Tm1 2.273387 1_655
O5 Si7 1.598787 1_555
O5 Tm3 2.154867 1_555
O5 Tm0 2.273387 1_455
O6 Si6 1.605470 1_554
O6 Tm0 2.238258 1_555
O6 Tm6 2.347264 1_555
O7 Si7 1.605471 1_556
O7 Tm1 2.238256 1_555
O7 Tm7 2.347267 1_555
O8 Si0 1.604799 1_565
O8 Tm4 2.242965 1_555
O8 Tm6 2.308742 1_555
O9 Si1 1.604799 1_545
O9 Tm5 2.242965 1_555
O9 Tm7 2.308742 1_555
O10 Si0 1.625433 1_555
O10 Tm3 2.201334 1_555
O10 Tm4 2.429685 1_555
O10 Tm5 2.921888 1_555
O11 Si1 1.625433 1_555
O11 Tm2 2.201334 1_555
O11 Tm5 2.429685 1_555
O11 Tm4 2.921888 1_555
O12 Si0 1.643860 1_555
O12 Tm3 2.293797 1_655
O12 Tm4 2.368894 1_555
O12 Tm0 2.408951 1_555
O13 Si1 1.643860 1_555
O13 Tm2 2.293797 1_455
O13 Tm5 2.368894 1_555
O13 Tm1 2.408951 1_555
O14 Si3 1.637716 1_555
O14 Si0 1.646975 1_555
O15 Si2 1.637718 1_555
O15 Si1 1.646975 1_555
O16 Si5 1.612177 1_455
O16 Tm7 2.189272 1_555
O16 Tm1 2.241787 1_545
O17 Si4 1.612177 1_655
O17 Tm6 2.189272 1_555
O17 Tm0 2.241787 1_565
O18 Si5 1.628471 1_455
O18 Tm1 2.292217 1_555
O18 Tm5 2.481499 1_555
O19 Si4 1.628471 1_655
O19 Tm0 2.292217 1_555
O19 Tm4 2.481499 1_555
O20 Si5 1.607190 1_555
O20 Tm7 2.253326 1_555
O20 Tm0 2.495443 1_556
O21 Si4 1.607190 1_555
O21 Tm6 2.253326 1_555
O21 Tm1 2.495443 1_554
O22 Si3 1.653223 1_555
O22 Si5 1.725689 1_555
O22 Tm2 2.338339 1_545
O23 Si2 1.653227 1_555
O23 Si4 1.725691 1_555
O23 Tm3 2.338333 1_565
O24 Si3 1.620731 1_455
O24 Tm5 2.212184 1_555
O24 Tm3 2.231198 1_555
O25 Si2 1.620725 1_655
O25 Tm4 2.212184 1_555
O25 Tm2 2.231198 1_555
O26 Si3 1.596889 1_555
O26 Tm2 2.188263 1_555
O26 Tm5 2.263145 1_555
O27 Si2 1.596893 1_555
O27 Tm3 2.188263 1_555
O27 Tm4 2.263145 1_555
