# generated using pymatgen
data_Ti2Al2CrCuS8
_symmetry_space_group_name_H-M   'P 1'
_cell_length_a   7.00601233
_cell_length_b   7.00601233
_cell_length_c   7.17713941
_cell_angle_alpha   60.58483012
_cell_angle_beta   60.58483012
_cell_angle_gamma   59.80827826
_symmetry_Int_Tables_number   1
_chemical_formula_structural   Ti2Al2CrCuS8
_chemical_formula_sum   'Ti2 Al2 Cr1 Cu1 S8'
_cell_volume   250.90951725
_cell_formula_units_Z   1
loop_
 _symmetry_equiv_pos_site_id
 _symmetry_equiv_pos_as_xyz
  1  'x, y, z'
loop_
 _atom_site_type_symbol
 _atom_site_label
 _atom_site_symmetry_multiplicity
 _atom_site_fract_x
 _atom_site_fract_y
 _atom_site_fract_z
 _atom_site_occupancy
  Ti  Ti0  1  0.48587700  0.03469400  0.99318500  1
  Ti  Ti1  1  0.03469400  0.48587700  0.99318500  1
  Al  Al0  1  0.86873800  0.86873800  0.38641300  1
  Al  Al1  1  0.49622900  0.49622900  0.50952200  1
  Cr  Cr0  1  0.49094400  0.49094400  0.99617700  1
  Cu  Cu0  1  0.12698000  0.12698000  0.61797900  1
  S  S0  1  0.25614200  0.25614200  0.24254100  1
  S  S1  1  0.25627600  0.25627600  0.74963100  1
  S  S2  1  0.26411700  0.73138100  0.75125100  1
  S  S3  1  0.73138100  0.26411700  0.75125100  1
  S  S4  1  0.73888800  0.73888800  0.77423700  1
  S  S5  1  0.74147200  0.74147200  0.24509600  1
  S  S6  1  0.73800000  0.27026300  0.24476600  1
  S  S7  1  0.27026300  0.73800000  0.24476600  1
loop_
_geom_bond_atom_site_label_1
_geom_bond_atom_site_label_2
_geom_bond_distance
_geom_bond_site_symmetry_2
Al0 S5 2.279234 1_555
Al0 S4 2.293621 1_555
Al0 S6 2.302154 1_565
Al0 S7 2.302154 1_655
Al1 S2 2.389621 1_555
Al1 S3 2.389621 1_555
Al1 S1 2.402741 1_555
Al1 S5 2.463586 1_555
Al1 S6 2.466242 1_555
Al1 S7 2.466242 1_555
Cr0 S0 2.355039 1_556
Cr0 S2 2.365583 1_555
Cr0 S3 2.365583 1_555
Cr0 S4 2.484233 1_555
Cr0 S7 2.490342 1_556
Cr0 S6 2.490342 1_556
Cu0 S0 2.220770 1_555
Cu0 S1 2.245159 1_555
Cu0 S3 2.267157 1_455
Cu0 S2 2.267157 1_545
S0 Ti0 2.363656 1_554
S0 Ti1 2.363656 1_554
S1 Ti1 2.374431 1_555
S1 Ti0 2.374431 1_555
S2 Ti1 2.379606 1_555
S3 Ti0 2.379606 1_555
S4 Ti1 2.583476 1_655
S4 Ti0 2.583476 1_565
S5 Ti1 2.554909 1_654
S5 Ti0 2.554909 1_564
S6 Ti1 2.579766 1_654
S7 Ti0 2.579766 1_564
