# generated using pymatgen
data_NaNb3O8
_symmetry_space_group_name_H-M   'P 1'
_cell_length_a   7.35116854
_cell_length_b   7.35116854
_cell_length_c   7.35116854
_cell_angle_alpha   121.52247622
_cell_angle_beta   118.81552417
_cell_angle_gamma   89.72359884
_symmetry_Int_Tables_number   1
_chemical_formula_structural   NaNb3O8
_chemical_formula_sum   'Na2 Nb6 O16'
_cell_volume   279.98384388
_cell_formula_units_Z   2
loop_
 _symmetry_equiv_pos_site_id
 _symmetry_equiv_pos_as_xyz
  1  'x, y, z'
loop_
 _atom_site_type_symbol
 _atom_site_label
 _atom_site_symmetry_multiplicity
 _atom_site_fract_x
 _atom_site_fract_y
 _atom_site_fract_z
 _atom_site_occupancy
  Na  Na0  1  0.00000000  0.75000000  0.75000000  1
  Na  Na1  1  0.00000000  0.25000000  0.25000000  1
  Nb  Nb0  1  0.00860700  0.76347500  0.24513300  1
  Nb  Nb1  1  0.99139300  0.23652500  0.75486700  1
  Nb  Nb2  1  0.48165800  0.73652500  0.74513300  1
  Nb  Nb3  1  0.51834200  0.26347500  0.25486700  1
  Nb  Nb4  1  0.50000000  0.75000000  0.25000000  1
  Nb  Nb5  1  0.50000000  0.25000000  0.75000000  1
  O  O0  1  0.83694500  0.43857600  0.99816900  1
  O  O1  1  0.16305500  0.16122400  0.60163200  1
  O  O2  1  0.55959200  0.06142400  0.89836800  1
  O  O3  1  0.44040800  0.33877600  0.50183100  1
  O  O4  1  0.16305500  0.56142400  0.00183100  1
  O  O5  1  0.83694500  0.83877600  0.39836800  1
  O  O6  1  0.44040800  0.93857600  0.10163200  1
  O  O7  1  0.55959200  0.66122400  0.49816900  1
  O  O8  1  0.14657900  0.16462700  0.98195300  1
  O  O9  1  0.85342100  0.83537300  0.01804700  1
  O  O10  1  0.81732600  0.33537300  0.48195300  1
  O  O11  1  0.18267400  0.66462700  0.51804700  1
  O  O12  1  0.52613700  0.42177900  0.10435800  1
  O  O13  1  0.47386300  0.57822100  0.89564200  1
  O  O14  1  0.68257800  0.07822100  0.60435800  1
  O  O15  1  0.31742200  0.92177900  0.39564200  1
loop_
_geom_bond_atom_site_label_1
_geom_bond_atom_site_label_2
_geom_bond_distance
_geom_bond_site_symmetry_2
Na0 O9 2.486916 1_456
Na0 O8 2.486921 1_565
Na0 O11 2.486922 1_555
Na0 O10 2.486922 1_455
Na0 O4 2.704437 1_556
Na0 O6 2.704443 1_556
Na0 O7 2.704444 1_455
Na0 O5 2.704444 1_455
Na1 O8 2.486916 1_554
Na1 O9 2.486921 1_445
Na1 O11 2.486922 1_555
Na1 O10 2.486922 1_455
Na1 O0 2.704437 1_454
Na1 O2 2.704443 1_454
Na1 O3 2.704444 1_555
Na1 O1 2.704444 1_555
Nb0 O9 1.857007 1_455
Nb0 O5 1.969590 1_455
Nb0 O0 1.969600 1_454
Nb0 O15 1.997462 1_555
Nb0 O11 2.287158 1_555
Nb0 O1 2.420231 1_565
Nb0 O4 2.420235 1_555
Nb1 O8 1.857007 1_655
Nb1 O1 1.969590 1_655
Nb1 O4 1.969600 1_656
Nb1 O14 1.997462 1_555
Nb1 O10 2.287158 1_555
Nb1 O5 2.420231 1_545
Nb1 O0 2.420235 1_555
Nb2 O11 1.857010 1_555
Nb2 O7 1.969597 1_555
Nb2 O2 1.969603 1_565
Nb2 O13 1.997449 1_555
Nb2 O9 2.287163 1_556
Nb2 O6 2.420231 1_556
Nb2 O3 2.420231 1_555
Nb3 O10 1.857010 1_555
Nb3 O3 1.969597 1_555
Nb3 O6 1.969603 1_545
Nb3 O12 1.997449 1_555
Nb3 O8 2.287163 1_554
Nb3 O2 2.420231 1_554
Nb3 O7 2.420231 1_555
Nb4 O6 2.101843 1_555
Nb4 O4 2.101848 1_555
Nb4 O7 2.101850 1_555
Nb4 O5 2.101850 1_555
Nb4 O15 2.120711 1_555
Nb4 O14 2.120717 1_565
Nb4 O13 2.120717 1_554
Nb4 O12 2.120717 1_555
Nb5 O2 2.101843 1_555
Nb5 O0 2.101848 1_555
Nb5 O1 2.101850 1_555
Nb5 O3 2.101850 1_555
Nb5 O14 2.120711 1_555
Nb5 O15 2.120717 1_545
Nb5 O12 2.120717 1_556
Nb5 O13 2.120717 1_555
