# generated using pymatgen
data_Nd4MgTa4Ti4O24
_symmetry_space_group_name_H-M   'P 1'
_cell_length_a   5.34272157
_cell_length_b   7.61344949
_cell_length_c   11.30752749
_cell_angle_alpha   90.20099214
_cell_angle_beta   90.55960726
_cell_angle_gamma   90.18881103
_symmetry_Int_Tables_number   1
_chemical_formula_structural   Nd4MgTa4Ti4O24
_chemical_formula_sum   'Nd4 Mg1 Ta4 Ti4 O24'
_cell_volume   459.92378507
_cell_formula_units_Z   1
loop_
 _symmetry_equiv_pos_site_id
 _symmetry_equiv_pos_as_xyz
  1  'x, y, z'
loop_
 _atom_site_type_symbol
 _atom_site_label
 _atom_site_symmetry_multiplicity
 _atom_site_fract_x
 _atom_site_fract_y
 _atom_site_fract_z
 _atom_site_occupancy
  Nd  Nd0  1  0.54467129  0.24907199  0.04842062  1
  Nd  Nd1  1  0.94379380  0.24773968  0.57158105  1
  Nd  Nd2  1  0.45594889  0.74820938  0.94809201  1
  Nd  Nd3  1  0.04690712  0.74739032  0.44863037  1
  Mg  Mg0  1  0.10148008  0.24058089  0.31503216  1
  Ta  Ta0  1  0.56026651  0.00154244  0.36092567  1
  Ta  Ta1  1  0.44759664  0.50847926  0.64126597  1
  Ta  Ta2  1  0.04761594  0.51687015  0.13570797  1
  Ta  Ta3  1  0.95330938  0.00553329  0.85895359  1
  Ti  Ti0  1  0.95298217  0.49474259  0.85932081  1
  Ti  Ti1  1  0.04544274  0.98764256  0.13121120  1
  Ti  Ti2  1  0.45553099  0.99248777  0.64399305  1
  Ti  Ti3  1  0.55938732  0.49392494  0.36474677  1
  O  O0  1  0.83891291  0.25013918  0.87981987  1
  O  O1  1  0.72617585  0.24784117  0.38072434  1
  O  O2  1  0.17883768  0.75291283  0.12085155  1
  O  O3  1  0.33289264  0.75154889  0.61223771  1
  O  O4  1  0.36469273  0.07301299  0.22067347  1
  O  O5  1  0.11917073  0.44928392  0.71602245  1
  O  O6  1  0.61983147  0.55803044  0.78643561  1
  O  O7  1  0.88210545  0.94513185  0.28300717  1
  O  O8  1  0.61877033  0.94047096  0.78604733  1
  O  O9  1  0.88355308  0.55465886  0.28634606  1
  O  O10  1  0.35911450  0.42881300  0.22418970  1
  O  O11  1  0.12384250  0.05018321  0.71376175  1
  O  O12  1  0.95225495  0.25146603  0.14622804  1
  O  O13  1  0.52793073  0.25007770  0.64253999  1
  O  O14  1  0.03979424  0.75007146  0.86174915  1
  O  O15  1  0.46800568  0.75131408  0.35944303  1
  O  O16  1  0.75849045  0.53936725  0.02739224  1
  O  O17  1  0.72626277  0.96119601  0.52462397  1
  O  O18  1  0.23619114  0.03860850  0.97514146  1
  O  O19  1  0.25455761  0.44779802  0.47095659  1
  O  O20  1  0.23310413  0.46234627  0.97933050  1
  O  O21  1  0.24940190  0.06042220  0.45767876  1
  O  O22  1  0.76104220  0.96237567  0.02325164  1
  O  O23  1  0.73013146  0.53870627  0.52699938  1
loop_
_geom_bond_atom_site_label_1
_geom_bond_atom_site_label_2
_geom_bond_distance
_geom_bond_site_symmetry_2
Nd0 O18 2.432496 1_554
Nd0 O12 2.432694 1_555
Nd0 O20 2.453399 1_554
Nd0 O0 2.482853 1_554
Nd0 O22 2.490069 1_545
Nd0 O16 2.497733 1_555
Nd0 O4 2.561542 1_555
Nd0 O10 2.614200 1_555
Nd1 O13 2.369741 1_555
Nd1 O11 2.401802 1_655
Nd1 O5 2.417253 1_655
Nd1 O1 2.441369 1_555
Nd1 O17 2.520928 1_545
Nd1 O21 2.530253 1_655
Nd1 O19 2.530539 1_655
Nd1 O23 2.545166 1_555
Nd2 O14 2.419672 1_555
Nd2 O16 2.437938 1_556
Nd2 O22 2.446149 1_556
Nd2 O2 2.462863 1_556
Nd2 O6 2.495095 1_555
Nd2 O20 2.505107 1_555
Nd2 O8 2.509652 1_555
Nd2 O18 2.525808 1_565
Nd3 O3 2.387916 1_555
Nd3 O15 2.474608 1_555
Nd3 O23 2.489056 1_455
Nd3 O9 2.494706 1_455
Nd3 O17 2.521944 1_455
Nd3 O19 2.551947 1_555
Nd3 O7 2.558402 1_455
Nd3 O21 2.615329 1_565
Mg0 O12 2.063414 1_455
Mg0 O1 2.145921 1_455
Mg0 O4 2.185219 1_555
Mg0 O10 2.242437 1_555
Mg0 O21 2.259518 1_555
Mg0 O19 2.492032 1_555
Mg0 O7 2.556014 1_445
Mg0 O9 2.682386 1_455
O0 Ti0 1.972695 1_555
O0 Ta3 1.976006 1_555
O1 Ta0 2.081915 1_555
O1 Ti3 2.084974 1_555
O2 Ti1 1.929753 1_555
O2 Ta2 1.935307 1_555
O3 Ti2 1.976372 1_555
O3 Ta1 1.978844 1_555
O4 Ta0 1.969879 1_555
O4 Ti1 2.075921 1_545
O5 Ti0 1.886764 1_455
O5 Ta1 2.005749 1_555
O6 Ta1 1.909846 1_555
O6 Ti0 2.014779 1_555
O7 Ti1 1.960548 1_655
O7 Ta0 1.987260 1_565
O8 Ti2 1.864668 1_555
O8 Ta3 2.020426 1_565
O9 Ta2 1.944189 1_655
O9 Ti3 2.006710 1_555
O10 Ti3 1.968362 1_555
O10 Ta2 2.049327 1_555
O11 Ta3 1.916286 1_455
O11 Ti2 1.996433 1_545
O12 Ti1 2.077755 1_645
O12 Ta2 2.086337 1_655
O13 Ti2 1.997835 1_545
O13 Ta1 2.015054 1_555
O14 Ti0 1.997045 1_455
O14 Ta3 2.000846 1_465
O15 Ta0 1.966238 1_565
O15 Ti3 2.022036 1_555
O16 Ta2 1.970239 1_655
O16 Ti0 2.200763 1_554
O17 Ti2 2.002246 1_555
O17 Ta0 2.069034 1_565
O18 Ta3 2.007502 1_455
O18 Ti1 2.083478 1_546
O19 Ti3 2.062877 1_555
O19 Ta1 2.222064 1_555
O20 Ti0 2.026643 1_455
O20 Ta2 2.076752 1_556
O21 Ta0 2.047755 1_555
O21 Ti2 2.425869 1_545
O22 Ti1 1.948394 1_655
O22 Ta3 2.157299 1_564
O23 Ta1 2.009704 1_555
O23 Ti3 2.067686 1_555
