# generated using pymatgen
data_Sr5Ca3Mn7FeO24
_symmetry_space_group_name_H-M   'P 1'
_cell_length_a   7.73113083
_cell_length_b   7.73113083
_cell_length_c   7.72780120
_cell_angle_alpha   89.99074773
_cell_angle_beta   89.99074773
_cell_angle_gamma   90.01270273
_symmetry_Int_Tables_number   1
_chemical_formula_structural   Sr5Ca3Mn7FeO24
_chemical_formula_sum   'Sr5 Ca3 Mn7 Fe1 O24'
_cell_volume   461.89362077
_cell_formula_units_Z   1
loop_
 _symmetry_equiv_pos_site_id
 _symmetry_equiv_pos_as_xyz
  1  'x, y, z'
loop_
 _atom_site_type_symbol
 _atom_site_label
 _atom_site_symmetry_multiplicity
 _atom_site_fract_x
 _atom_site_fract_y
 _atom_site_fract_z
 _atom_site_occupancy
  Sr  Sr0  1  0.24981500  0.75028800  0.75017900  1
  Sr  Sr1  1  0.24971600  0.24971600  0.75034600  1
  Sr  Sr2  1  0.75023100  0.75023100  0.75039900  1
  Sr  Sr3  1  0.75028800  0.24981500  0.75017900  1
  Sr  Sr4  1  0.75025800  0.75025800  0.24973800  1
  Ca  Ca0  1  0.24985800  0.74986900  0.25012800  1
  Ca  Ca1  1  0.25019900  0.25019900  0.24997000  1
  Ca  Ca2  1  0.74986900  0.24985800  0.25012800  1
  Mn  Mn0  1  0.00084900  0.49950700  0.00252600  1
  Mn  Mn1  1  0.00085000  0.00085000  0.49840800  1
  Mn  Mn2  1  0.00068200  0.49952300  0.49850400  1
  Mn  Mn3  1  0.49950700  0.00084900  0.00252600  1
  Mn  Mn4  1  0.49956700  0.49956700  0.00207900  1
  Mn  Mn5  1  0.49952300  0.00068200  0.49850400  1
  Mn  Mn6  1  0.49949400  0.49949400  0.49830800  1
  Fe  Fe0  1  0.00080600  0.00080600  0.00245100  1
  O  O0  1  0.25478000  0.00093500  0.00638800  1
  O  O1  1  0.25066100  0.49921500  0.00770600  1
  O  O2  1  0.25057900  0.00036400  0.49227300  1
  O  O3  1  0.25003100  0.49947600  0.49218000  1
  O  O4  1  0.74522000  0.00290300  0.00457600  1
  O  O5  1  0.74929200  0.49641100  0.00445600  1
  O  O6  1  0.74933100  0.00376700  0.49497600  1
  O  O7  1  0.74997600  0.49633800  0.49537500  1
  O  O8  1  0.00079700  0.00079700  0.74525400  1
  O  O9  1  0.00042600  0.49934000  0.74921400  1
  O  O10  1  0.00263300  0.00263300  0.25490800  1
  O  O11  1  0.00362100  0.49654600  0.25058700  1
  O  O12  1  0.49934000  0.00042600  0.74921400  1
  O  O13  1  0.49946800  0.49946800  0.74997500  1
  O  O14  1  0.49654600  0.00362100  0.25058700  1
  O  O15  1  0.49637500  0.49637500  0.25002700  1
  O  O16  1  0.00290300  0.74522000  0.00457600  1
  O  O17  1  0.00093500  0.25478000  0.00638800  1
  O  O18  1  0.00376700  0.74933100  0.49497600  1
  O  O19  1  0.00036400  0.25057900  0.49227300  1
  O  O20  1  0.49641100  0.74929200  0.00445600  1
  O  O21  1  0.49921500  0.25066100  0.00770600  1
  O  O22  1  0.49633800  0.74997600  0.49537500  1
  O  O23  1  0.49947600  0.25003100  0.49218000  1
loop_
_geom_bond_atom_site_label_1
_geom_bond_atom_site_label_2
_geom_bond_distance
_geom_bond_site_symmetry_2
Ca0 O18 2.683053 1_555
Ca0 O22 2.687791 1_555
Ca0 O20 2.690078 1_555
Ca0 O3 2.691676 1_555
Ca0 O16 2.692295 1_555
Ca0 O2 2.693182 1_565
Ca0 O1 2.695555 1_555
Ca0 O0 2.704744 1_565
Ca0 O11 2.730936 1_555
Ca0 O15 2.733997 1_555
Ca0 O10 2.734028 1_565
Ca0 O14 2.735745 1_565
Ca1 O1 2.685173 1_555
Ca1 O21 2.685173 1_555
Ca1 O23 2.686762 1_555
Ca1 O3 2.686762 1_555
Ca1 O2 2.689927 1_555
Ca1 O19 2.689927 1_555
Ca1 O15 2.691260 1_555
Ca1 O0 2.694323 1_555
Ca1 O17 2.694323 1_555
Ca1 O11 2.694994 1_555
Ca1 O14 2.694994 1_555
Ca1 O10 2.706716 1_555
Ca2 O6 2.683053 1_555
Ca2 O7 2.687791 1_555
Ca2 O5 2.690078 1_555
Ca2 O23 2.691676 1_555
Ca2 O4 2.692295 1_555
Ca2 O19 2.693182 1_655
Ca2 O21 2.695555 1_555
Ca2 O17 2.704744 1_655
Ca2 O14 2.730936 1_555
Ca2 O15 2.733997 1_555
Ca2 O10 2.734028 1_655
Ca2 O11 2.735745 1_655
Mn0 O17 1.892247 1_555
Mn0 O16 1.899771 1_555
Mn0 O11 1.917222 1_555
Mn0 O1 1.931752 1_555
Mn0 O5 1.945017 1_455
Mn0 O9 1.957549 1_554
Mn1 O10 1.881816 1_555
Mn1 O8 1.907577 1_555
Mn1 O19 1.931266 1_555
Mn1 O2 1.931266 1_555
Mn1 O6 1.944847 1_455
Mn1 O18 1.944847 1_545
Mn2 O11 1.916126 1_555
Mn2 O19 1.925230 1_555
Mn2 O3 1.928361 1_555
Mn2 O18 1.931628 1_555
Mn2 O9 1.937438 1_555
Mn2 O7 1.938547 1_455
Mn3 O0 1.892247 1_555
Mn3 O4 1.899771 1_555
Mn3 O14 1.917222 1_555
Mn3 O21 1.931752 1_555
Mn3 O20 1.945017 1_545
Mn3 O12 1.957549 1_554
Mn4 O15 1.916403 1_555
Mn4 O1 1.924810 1_555
Mn4 O21 1.924810 1_555
Mn4 O20 1.930907 1_555
Mn4 O5 1.930907 1_555
Mn4 O13 1.948210 1_554
Mn5 O14 1.916126 1_555
Mn5 O2 1.925230 1_555
Mn5 O23 1.928361 1_555
Mn5 O6 1.931628 1_555
Mn5 O12 1.937438 1_555
Mn5 O22 1.938547 1_545
Mn6 O15 1.918977 1_555
Mn6 O23 1.929220 1_555
Mn6 O3 1.929220 1_555
Mn6 O7 1.936797 1_555
Mn6 O22 1.936797 1_555
Mn6 O13 1.944833 1_555
Fe0 O10 1.951044 1_555
Fe0 O0 1.963747 1_555
Fe0 O17 1.963747 1_555
Fe0 O4 1.976105 1_455
Fe0 O16 1.976105 1_545
Fe0 O8 1.987567 1_554
O0 Sr1 2.759473 1_554
O0 Sr0 2.770893 1_544
O1 Sr1 2.770815 1_554
O1 Sr0 2.779776 1_554
O2 Sr1 2.773982 1_555
O2 Sr0 2.776497 1_545
O3 Sr1 2.776236 1_555
O3 Sr0 2.781422 1_555
O4 Sr4 2.721188 1_545
O4 Sr3 2.740270 1_554
O4 Sr2 2.770717 1_544
O5 Sr4 2.728670 1_555
O5 Sr3 2.738086 1_554
O5 Sr2 2.775614 1_554
O6 Sr4 2.726555 1_545
O6 Sr3 2.740283 1_555
O6 Sr2 2.781546 1_545
O7 Sr4 2.730532 1_555
O7 Sr3 2.740167 1_555
O7 Sr2 2.781745 1_555
O8 Sr1 2.721540 1_555
O8 Sr3 2.731362 1_455
O8 Sr0 2.731362 1_545
O8 Sr2 2.739532 1_445
O9 Sr1 2.727748 1_555
O9 Sr3 2.731233 1_455
O9 Sr0 2.734932 1_555
O9 Sr2 2.739626 1_455
O10 Sr4 2.759327 1_445
O11 Sr4 2.772360 1_455
O12 Sr1 2.727748 1_555
O12 Sr0 2.731233 1_545
O12 Sr3 2.734932 1_555
O12 Sr2 2.739626 1_545
O13 Sr1 2.730354 1_555
O13 Sr3 2.736264 1_555
O13 Sr0 2.736264 1_555
O13 Sr2 2.741409 1_555
O14 Sr4 2.772360 1_545
O15 Sr4 2.775515 1_555
O16 Sr4 2.721188 1_455
O16 Sr0 2.740270 1_554
O16 Sr2 2.770717 1_454
O17 Sr1 2.759473 1_554
O17 Sr3 2.770893 1_454
O18 Sr4 2.726555 1_455
O18 Sr0 2.740283 1_555
O18 Sr2 2.781546 1_455
O19 Sr1 2.773982 1_555
O19 Sr3 2.776497 1_455
O20 Sr4 2.728670 1_555
O20 Sr0 2.738086 1_554
O20 Sr2 2.775614 1_554
O21 Sr1 2.770815 1_554
O21 Sr3 2.779776 1_554
O22 Sr4 2.730532 1_555
O22 Sr0 2.740167 1_555
O22 Sr2 2.781745 1_555
O23 Sr1 2.776236 1_555
O23 Sr3 2.781422 1_555
