# generated using pymatgen
data_V2CuH14C2N2(OF2)4
_symmetry_space_group_name_H-M   'P 1'
_cell_length_a   6.76129751
_cell_length_b   7.06427251
_cell_length_c   7.63790965
_cell_angle_alpha   80.99191008
_cell_angle_beta   67.22116825
_cell_angle_gamma   70.40957565
_symmetry_Int_Tables_number   1
_chemical_formula_structural   V2CuH14C2N2(OF2)4
_chemical_formula_sum   'V2 Cu1 H14 C2 N2 O4 F8'
_cell_volume   316.74004497
_cell_formula_units_Z   1
loop_
 _symmetry_equiv_pos_site_id
 _symmetry_equiv_pos_as_xyz
  1  'x, y, z'
loop_
 _atom_site_type_symbol
 _atom_site_label
 _atom_site_symmetry_multiplicity
 _atom_site_fract_x
 _atom_site_fract_y
 _atom_site_fract_z
 _atom_site_occupancy
  V  V0  1  0.54502000  0.65739400  0.30314900  1
  V  V1  1  0.45498000  0.34260600  0.69685100  1
  Cu  Cu0  1  0.00000000  0.50000000  0.50000000  1
  H  H0  1  0.03237200  0.90815200  0.29303300  1
  H  H1  1  0.96762800  0.09184800  0.70696700  1
  H  H2  1  0.86584600  0.14715900  0.34317400  1
  H  H3  1  0.13415400  0.85284100  0.65682600  1
  H  H4  1  0.75983600  0.98335700  0.30337400  1
  H  H5  1  0.24016400  0.01664300  0.69662600  1
  H  H6  1  0.84038300  0.21752800  0.03923000  1
  H  H7  1  0.15961700  0.78247200  0.96077000  1
  H  H8  1  0.12640700  0.13554200  0.02216800  1
  H  H9  1  0.87359300  0.86445800  0.97783200  1
  H  H10  1  0.75276900  0.65768600  0.82784600  1
  H  H11  1  0.24723100  0.34231400  0.17215400  1
  H  H12  1  0.69069100  0.82009500  0.67135100  1
  H  H13  1  0.30930900  0.17990500  0.32864900  1
  C  C0  1  0.97620800  0.08756400  0.05875100  1
  C  C1  1  0.02379200  0.91243600  0.94124900  1
  N  N0  1  0.90523500  0.02629600  0.26296000  1
  N  N1  1  0.09476500  0.97370400  0.73704000  1
  O  O0  1  0.64299500  0.62805100  0.07153700  1
  O  O1  1  0.35700500  0.37194900  0.92846300  1
  O  O2  1  0.81558400  0.70842000  0.69329600  1
  O  O3  1  0.18441600  0.29158000  0.30670400  1
  F  F0  1  0.22073500  0.72704500  0.36366400  1
  F  F1  1  0.77926500  0.27295500  0.63633600  1
  F  F2  1  0.16334200  0.37501900  0.66780100  1
  F  F3  1  0.83665800  0.62498100  0.33219900  1
  F  F4  1  0.56415700  0.37013400  0.38517300  1
  F  F5  1  0.43584300  0.62986600  0.61482700  1
  F  F6  1  0.49887700  0.94151900  0.32605700  1
  F  F7  1  0.50112300  0.05848100  0.67394300  1
loop_
_geom_bond_atom_site_label_1
_geom_bond_atom_site_label_2
_geom_bond_distance
_geom_bond_site_symmetry_2
Cu0 F2 1.931238 1_555
Cu0 F3 1.931238 1_455
Cu0 O2 1.981493 1_455
Cu0 O3 1.981493 1_555
Cu0 F0 2.400639 1_555
Cu0 F1 2.400639 1_455
H0 N0 1.048814 1_465
H1 N1 1.048814 1_645
H2 N0 1.029687 1_555
H3 N1 1.029687 1_555
H4 N0 1.043752 1_565
H5 N1 1.043752 1_545
H10 O2 1.006834 1_555
H11 O3 1.006834 1_555
H12 O2 0.992471 1_555
H13 O3 0.992471 1_555
C0 H8 1.098043 1_655
C0 H6 1.098305 1_555
C0 N0 1.482789 1_555
C1 H9 1.098043 1_455
C1 H7 1.098305 1_555
C1 N1 1.482789 1_555
O0 V0 1.651234 1_555
O1 V1 1.651234 1_555
F0 H0 1.665264 1_555
F0 V0 1.956065 1_555
F1 H1 1.665264 1_555
F1 V1 1.956065 1_555
F2 V1 2.002490 1_555
F3 V0 2.002490 1_555
F4 V0 2.003947 1_555
F4 V1 2.200085 1_555
F5 V1 2.003947 1_555
F5 V0 2.200085 1_555
F6 V0 1.950469 1_555
F7 V1 1.950469 1_555
