# generated using pymatgen
data_Sr4TiN4
_symmetry_space_group_name_H-M   'P 1'
_cell_length_a   6.31535893
_cell_length_b   6.43394275
_cell_length_c   9.29666018
_cell_angle_alpha   72.35218238
_cell_angle_beta   80.19304403
_cell_angle_gamma   67.81687643
_symmetry_Int_Tables_number   1
_chemical_formula_structural   Sr4TiN4
_chemical_formula_sum   'Sr8 Ti2 N8'
_cell_volume   332.65742972
_cell_formula_units_Z   2
loop_
 _symmetry_equiv_pos_site_id
 _symmetry_equiv_pos_as_xyz
  1  'x, y, z'
loop_
 _atom_site_type_symbol
 _atom_site_label
 _atom_site_symmetry_multiplicity
 _atom_site_fract_x
 _atom_site_fract_y
 _atom_site_fract_z
 _atom_site_occupancy
  Sr  Sr0  1  0.78104062  0.56776702  0.16287096  1
  Sr  Sr1  1  0.21895938  0.43223298  0.83712904  1
  Sr  Sr2  1  0.73176780  0.22152948  0.97134124  1
  Sr  Sr3  1  0.26823220  0.77847052  0.02865876  1
  Sr  Sr4  1  0.72461391  0.48985598  0.56842824  1
  Sr  Sr5  1  0.27538609  0.51014402  0.43157176  1
  Sr  Sr6  1  0.22607443  0.96028375  0.61662065  1
  Sr  Sr7  1  0.77392557  0.03971625  0.38337935  1
  Ti  Ti0  1  0.72459912  0.84586889  0.75508894  1
  Ti  Ti1  1  0.27540088  0.15413111  0.24491106  1
  N  N0  1  0.96299665  0.70903701  0.61275753  1
  N  N1  1  0.03700335  0.29096299  0.38724247  1
  N  N2  1  0.90309859  0.82206311  0.91664174  1
  N  N3  1  0.09690141  0.17793689  0.08335826  1
  N  N4  1  0.53475361  0.64936092  0.80830743  1
  N  N5  1  0.46524639  0.35063908  0.19169257  1
  N  N6  1  0.46942293  0.83707209  0.35169100  1
  N  N7  1  0.53057707  0.16292791  0.64830900  1
loop_
_geom_bond_atom_site_label_1
_geom_bond_atom_site_label_2
_geom_bond_distance
_geom_bond_site_symmetry_2
N0 Ti0 1.954335 1_555
N0 Sr4 2.567458 1_555
N0 Sr5 2.575938 1_655
N0 Sr7 2.588013 1_565
N0 Sr1 2.618792 1_655
N0 Sr6 2.730997 1_655
N1 Ti1 1.954335 1_555
N1 Sr5 2.567458 1_555
N1 Sr4 2.575938 1_455
N1 Sr6 2.588013 1_545
N1 Sr0 2.618792 1_455
N1 Sr7 2.730997 1_455
N2 Ti0 1.963885 1_555
N2 Sr2 2.557348 1_565
N2 Sr0 2.567396 1_556
N2 Sr3 2.575484 1_656
N2 Sr1 2.767687 1_655
N3 Ti1 1.963885 1_555
N3 Sr3 2.557348 1_545
N3 Sr1 2.567396 1_554
N3 Sr2 2.575484 1_454
N3 Sr0 2.767687 1_455
N4 Ti0 1.960631 1_555
N4 Sr3 2.553617 1_556
N4 Sr2 2.636071 1_555
N4 Sr4 2.647953 1_555
N4 Sr6 2.656097 1_555
N4 Sr1 2.774112 1_555
N5 Ti1 1.960631 1_555
N5 Sr2 2.553617 1_554
N5 Sr3 2.636071 1_555
N5 Sr5 2.647953 1_555
N5 Sr7 2.656097 1_555
N5 Sr0 2.774112 1_555
N6 Ti1 1.986758 1_565
N6 Sr5 2.677099 1_555
N6 Sr4 2.702983 1_555
N6 Sr7 2.793561 1_565
N6 Sr6 2.833881 1_555
N6 Sr0 2.837076 1_555
N7 Ti0 1.986758 1_545
N7 Sr4 2.677099 1_555
N7 Sr5 2.702983 1_555
N7 Sr6 2.793561 1_545
N7 Sr7 2.833881 1_555
N7 Sr1 2.837076 1_555
