# generated using pymatgen
data_KZnP(CO3)2
_symmetry_space_group_name_H-M   'P 1'
_cell_length_a   5.21794800
_cell_length_b   10.70595600
_cell_length_c   12.33186500
_cell_angle_alpha   90.00000000
_cell_angle_beta   90.00000000
_cell_angle_gamma   90.00000000
_symmetry_Int_Tables_number   1
_chemical_formula_structural   KZnP(CO3)2
_chemical_formula_sum   'K4 Zn4 P4 C8 O24'
_cell_volume   688.89647526
_cell_formula_units_Z   4
loop_
 _symmetry_equiv_pos_site_id
 _symmetry_equiv_pos_as_xyz
  1  'x, y, z'
loop_
 _atom_site_type_symbol
 _atom_site_label
 _atom_site_symmetry_multiplicity
 _atom_site_fract_x
 _atom_site_fract_y
 _atom_site_fract_z
 _atom_site_occupancy
  K  K0  1  0.63326400  0.85705500  0.24277400  1
  K  K1  1  0.13326400  0.14294500  0.75722600  1
  K  K2  1  0.13326400  0.64294500  0.74277400  1
  K  K3  1  0.63326400  0.35705500  0.25722600  1
  Zn  Zn0  1  0.15454600  0.59566700  0.38155900  1
  Zn  Zn1  1  0.65454600  0.40433300  0.61844100  1
  Zn  Zn2  1  0.65454600  0.90433300  0.88155900  1
  Zn  Zn3  1  0.15454600  0.09566700  0.11844100  1
  P  P0  1  0.65781800  0.67148200  0.51441800  1
  P  P1  1  0.15781800  0.32851800  0.48558200  1
  P  P2  1  0.15781800  0.82851800  0.01441800  1
  P  P3  1  0.65781800  0.17148200  0.98558200  1
  C  C0  1  0.61551800  0.84066600  0.55057900  1
  C  C1  1  0.11551800  0.15933400  0.44942100  1
  C  C2  1  0.11551800  0.65933400  0.05057900  1
  C  C3  1  0.61551800  0.34066600  0.94942100  1
  C  C4  1  0.65302300  0.88316600  0.66875800  1
  C  C5  1  0.15302300  0.11683400  0.33124200  1
  C  C6  1  0.15302300  0.61683400  0.16875800  1
  C  C7  1  0.65302300  0.38316600  0.83124200  1
  O  O0  1  0.95158400  0.67065000  0.50090500  1
  O  O1  1  0.45158400  0.32935000  0.49909500  1
  O  O2  1  0.45158400  0.82935000  0.00090500  1
  O  O3  1  0.95158400  0.17065000  0.99909500  1
  O  O4  1  0.51367300  0.64885500  0.40730100  1
  O  O5  1  0.01367300  0.35114500  0.59269900  1
  O  O6  1  0.01367300  0.85114500  0.90730100  1
  O  O7  1  0.51367300  0.14885500  0.09269900  1
  O  O8  1  0.57140000  0.58730300  0.60903100  1
  O  O9  1  0.07140000  0.41269700  0.39096900  1
  O  O10  1  0.07140000  0.91269700  0.10903100  1
  O  O11  1  0.57140000  0.08730300  0.89096900  1
  O  O12  1  0.58941900  0.91607800  0.47712800  1
  O  O13  1  0.08941900  0.08392200  0.52287200  1
  O  O14  1  0.08941900  0.58392200  0.97712800  1
  O  O15  1  0.58941900  0.41607800  0.02287200  1
  O  O16  1  0.50131200  0.83541900  0.74062900  1
  O  O17  1  0.00131200  0.16458100  0.25937100  1
  O  O18  1  0.00131200  0.66458100  0.24062900  1
  O  O19  1  0.50131200  0.33541900  0.75937100  1
  O  O20  1  0.83104500  0.95631100  0.69031900  1
  O  O21  1  0.33104500  0.04368900  0.30968100  1
  O  O22  1  0.33104500  0.54368900  0.19031900  1
  O  O23  1  0.83104500  0.45631100  0.80968100  1
loop_
_geom_bond_atom_site_label_1
_geom_bond_atom_site_label_2
_geom_bond_distance
_geom_bond_site_symmetry_2
K0 O21 2.675812 1_565
K0 O18 2.816912 1_655
K0 O10 2.881255 1_655
K0 O12 2.967130 1_555
K0 O4 3.078033 1_555
K0 O2 3.143748 1_555
K1 O20 2.675812 1_445
K1 O19 2.816912 1_555
K1 O11 2.881255 1_555
K1 O13 2.967130 1_555
K1 O5 3.078033 1_555
K1 O3 3.143748 1_455
K2 O23 2.675812 1_455
K2 O16 2.816912 1_555
K2 O8 2.881255 1_555
K2 O14 2.967130 1_555
K2 O6 3.078033 1_555
K2 O0 3.143748 1_455
K3 O22 2.675812 1_555
K3 O17 2.816912 1_655
K3 O9 2.881255 1_655
K3 O15 2.967130 1_555
K3 O7 3.078033 1_555
K3 O1 3.143748 1_555
C0 O12 1.220993 1_555
C0 C4 1.539236 1_555
C0 P0 1.878376 1_555
C1 O13 1.220993 1_555
C1 C5 1.539236 1_555
C1 P1 1.878376 1_555
C2 O14 1.220993 1_554
C2 C6 1.539236 1_555
C2 P2 1.878376 1_555
C3 O15 1.220993 1_556
C3 C7 1.539236 1_555
C3 P3 1.878376 1_555
C4 O20 1.243702 1_555
C4 O16 1.293638 1_555
C5 O21 1.243702 1_555
C5 O17 1.293638 1_555
C6 O22 1.243702 1_555
C6 O18 1.293638 1_555
C7 O23 1.243702 1_555
C7 O19 1.293638 1_555
O0 P0 1.541913 1_555
O0 Zn0 1.982948 1_655
O1 P1 1.541913 1_555
O1 Zn1 1.982948 1_555
O2 P2 1.541913 1_555
O2 Zn2 1.982948 1_554
O3 P3 1.541913 1_555
O3 Zn3 1.982948 1_656
O4 P0 1.539257 1_555
O4 Zn0 1.984073 1_555
O5 P1 1.539257 1_555
O5 Zn1 1.984073 1_455
O6 P2 1.539257 1_556
O6 Zn2 1.984073 1_455
O7 P3 1.539257 1_554
O7 Zn3 1.984073 1_555
O8 P0 1.541701 1_555
O8 Zn1 2.009692 1_555
O9 P1 1.541701 1_555
O9 Zn0 2.009692 1_555
O10 P2 1.541701 1_555
O10 Zn3 2.009692 1_565
O11 P3 1.541701 1_555
O11 Zn2 2.009692 1_545
O16 Zn2 2.050376 1_555
O17 Zn3 2.050376 1_555
O18 Zn0 2.050376 1_555
O19 Zn1 2.050376 1_555
