# generated using pymatgen
data_Na3V3H6O7
_symmetry_space_group_name_H-M   'P 1'
_cell_length_a   7.00727000
_cell_length_b   7.23666914
_cell_length_c   8.93616932
_cell_angle_alpha   77.21084638
_cell_angle_beta   76.46798663
_cell_angle_gamma   65.44957544
_symmetry_Int_Tables_number   1
_chemical_formula_structural   Na3V3H6O7
_chemical_formula_sum   'Na3 V3 H6 O7'
_cell_volume   396.76998469
_cell_formula_units_Z   1
loop_
 _symmetry_equiv_pos_site_id
 _symmetry_equiv_pos_as_xyz
  1  'x, y, z'
loop_
 _atom_site_type_symbol
 _atom_site_label
 _atom_site_symmetry_multiplicity
 _atom_site_fract_x
 _atom_site_fract_y
 _atom_site_fract_z
 _atom_site_occupancy
  Na  Na0  1  0.59428500  0.75156300  0.18149100  1
  Na  Na1  1  0.44017500  0.34462800  0.04846000  1
  Na  Na2  1  0.84144700  0.87893900  0.61050400  1
  V  V0  1  0.00504000  0.01788700  0.19106200  1
  V  V1  1  0.82801700  0.97895400  0.92605800  1
  V  V2  1  0.33222700  0.91788900  0.93093000  1
  H  H0  1  0.03834800  0.53886600  0.16629400  1
  H  H1  1  0.15469400  0.53827000  0.43817800  1
  H  H2  1  0.82723400  0.65365000  0.39938500  1
  H  H3  1  0.20105100  0.62846900  0.19704400  1
  H  H4  1  0.26635000  0.65846900  0.48006400  1
  H  H5  1  0.73284100  0.89475500  0.37446700  1
  O  O0  1  0.82876300  0.06817400  0.36517500  1
  O  O1  1  0.63947300  0.88337100  0.89287300  1
  O  O2  1  0.27109300  0.78862000  0.16418500  1
  O  O3  1  0.99939300  0.09839400  0.96935200  1
  O  O4  1  0.15245900  0.49648600  0.22726800  1
  O  O5  1  0.15678200  0.60277200  0.52370100  1
  O  O6  1  0.69032700  0.77003400  0.40331800  1
loop_
_geom_bond_atom_site_label_1
_geom_bond_atom_site_label_2
_geom_bond_distance
_geom_bond_site_symmetry_2
Na0 O2 2.205795 1_555
Na0 O6 2.283989 1_555
Na0 O1 2.538050 1_554
Na1 O4 2.292210 1_555
Na2 O0 2.313074 1_565
Na2 O5 2.385973 1_655
Na2 O1 2.588043 1_555
H0 O4 0.977978 1_555
H1 O5 0.985402 1_555
H2 O6 0.978176 1_555
H3 O4 1.101880 1_555
H3 O2 1.387398 1_555
H4 O5 0.975426 1_555
H5 O6 1.026797 1_555
H5 O0 1.631674 1_565
H5 Na2 2.369223 1_555
O0 V0 1.748364 1_655
O1 V1 1.829065 1_555
O1 V2 2.015275 1_555
O2 V0 1.918999 1_565
O2 V2 2.110744 1_554
O3 V1 1.888623 1_545
O3 V0 1.942369 1_656
O3 V2 2.134434 1_645
