# generated using pymatgen
data_PmZr
_symmetry_space_group_name_H-M   'P 1'
_cell_length_a   6.80220000
_cell_length_b   6.80220000
_cell_length_c   11.13604800
_cell_angle_alpha   90.00000000
_cell_angle_beta   90.00000000
_cell_angle_gamma   119.99999999
_symmetry_Int_Tables_number   1
_chemical_formula_structural   PmZr
_chemical_formula_sum   'Pm8 Zr8'
_cell_volume   446.23180358
_cell_formula_units_Z   8
loop_
 _symmetry_equiv_pos_site_id
 _symmetry_equiv_pos_as_xyz
  1  'x, y, z'
loop_
 _atom_site_type_symbol
 _atom_site_label
 _atom_site_symmetry_multiplicity
 _atom_site_fract_x
 _atom_site_fract_y
 _atom_site_fract_z
 _atom_site_occupancy
  Pm  Pm0_0  1  0.16666650  0.33333350  0.25000000  1
  Pm  Pm0_1  1  0.16666650  0.33333350  0.75000000  1
  Pm  Pm0_2  1  0.16666650  0.83333350  0.25000000  1
  Pm  Pm0_3  1  0.16666650  0.83333350  0.75000000  1
  Pm  Pm0_4  1  0.66666650  0.33333350  0.25000000  1
  Pm  Pm0_5  1  0.66666650  0.33333350  0.75000000  1
  Pm  Pm0_6  1  0.66666650  0.83333350  0.25000000  1
  Pm  Pm0_7  1  0.66666650  0.83333350  0.75000000  1
  Zr  Zr0_0  1  0.00000000  0.00000000  0.00000000  1
  Zr  Zr0_1  1  0.00000000  0.00000000  0.50000000  1
  Zr  Zr0_2  1  0.00000000  0.50000000  0.00000000  1
  Zr  Zr0_3  1  0.00000000  0.50000000  0.50000000  1
  Zr  Zr0_4  1  0.50000000  0.00000000  0.00000000  1
  Zr  Zr0_5  1  0.50000000  0.00000000  0.50000000  1
  Zr  Zr0_6  1  0.50000000  0.50000000  0.00000000  1
  Zr  Zr0_7  1  0.50000000  0.50000000  0.50000000  1
loop_
_geom_bond_atom_site_label_1
_geom_bond_atom_site_label_2
_geom_bond_distance
_geom_bond_site_symmetry_2
Pm0_0 Pm0_4 3.401100 1_455
Pm0_0 Pm0_2 3.401100 1_555
Pm0_0 Pm0_4 3.401100 1_555
Pm0_0 Pm0_2 3.401100 1_545
Pm0_0 Pm0_6 3.401100 1_445
Pm0_0 Pm0_6 3.401100 1_555
Pm0_0 Zr0_3 3.406838 1_555
Pm0_0 Zr0_2 3.406838 1_555
Pm0_0 Zr0_6 3.406839 1_555
Pm0_0 Zr0_7 3.406839 1_555
Pm0_0 Zr0_0 3.406839 1_555
Pm0_0 Zr0_1 3.406839 1_555
Pm0_1 Pm0_3 3.401100 1_555
Pm0_1 Pm0_5 3.401100 1_455
Pm0_1 Pm0_5 3.401100 1_555
Pm0_1 Pm0_3 3.401100 1_545
Pm0_1 Pm0_7 3.401100 1_445
Pm0_1 Pm0_7 3.401100 1_555
Pm0_1 Zr0_3 3.406838 1_555
Pm0_1 Zr0_2 3.406838 1_556
Pm0_1 Zr0_6 3.406839 1_556
Pm0_1 Zr0_0 3.406839 1_556
Pm0_1 Zr0_7 3.406839 1_555
Pm0_1 Zr0_1 3.406839 1_555
Pm0_2 Pm0_6 3.401100 1_555
Pm0_2 Pm0_6 3.401100 1_455
Pm0_2 Pm0_4 3.401100 1_455
Pm0_2 Pm0_4 3.401100 1_565
Pm0_2 Zr0_0 3.406838 1_565
Pm0_2 Zr0_1 3.406838 1_565
Pm0_2 Zr0_2 3.406839 1_555
Pm0_2 Zr0_3 3.406839 1_555
Pm0_2 Zr0_5 3.406839 1_565
Pm0_2 Zr0_4 3.406839 1_565
Pm0_3 Pm0_7 3.401100 1_555
Pm0_3 Pm0_7 3.401100 1_455
Pm0_3 Pm0_5 3.401100 1_455
Pm0_3 Pm0_5 3.401100 1_565
Pm0_3 Zr0_0 3.406838 1_566
Pm0_3 Zr0_1 3.406838 1_565
Pm0_3 Zr0_2 3.406839 1_556
Pm0_3 Zr0_3 3.406839 1_555
Pm0_3 Zr0_5 3.406839 1_565
Pm0_3 Zr0_4 3.406839 1_566
Pm0_4 Pm0_6 3.401100 1_545
Pm0_4 Pm0_6 3.401100 1_555
Pm0_4 Zr0_6 3.406838 1_555
Pm0_4 Zr0_7 3.406838 1_555
Pm0_4 Zr0_2 3.406839 1_655
Pm0_4 Zr0_3 3.406839 1_655
Pm0_4 Zr0_4 3.406839 1_555
Pm0_4 Zr0_5 3.406839 1_555
Pm0_5 Pm0_7 3.401100 1_545
Pm0_5 Pm0_7 3.401100 1_555
Pm0_5 Zr0_6 3.406838 1_556
Pm0_5 Zr0_7 3.406838 1_555
Pm0_5 Zr0_2 3.406839 1_656
Pm0_5 Zr0_3 3.406839 1_655
Pm0_5 Zr0_4 3.406839 1_556
Pm0_5 Zr0_5 3.406839 1_555
Pm0_6 Zr0_4 3.406838 1_565
Pm0_6 Zr0_5 3.406838 1_565
Pm0_6 Zr0_0 3.406839 1_665
Pm0_6 Zr0_1 3.406839 1_665
Pm0_6 Zr0_7 3.406839 1_555
Pm0_6 Zr0_6 3.406839 1_555
Pm0_7 Zr0_5 3.406838 1_565
Pm0_7 Zr0_4 3.406838 1_566
Pm0_7 Zr0_0 3.406839 1_666
Pm0_7 Zr0_1 3.406839 1_665
Pm0_7 Zr0_7 3.406839 1_555
Pm0_7 Zr0_6 3.406839 1_556
Zr0_0 Zr0_4 3.401100 1_555
Zr0_0 Zr0_4 3.401100 1_455
Zr0_0 Zr0_2 3.401100 1_555
Zr0_0 Zr0_2 3.401100 1_545
Zr0_0 Zr0_6 3.401100 1_555
Zr0_0 Zr0_6 3.401100 1_445
Zr0_1 Zr0_5 3.401100 1_455
Zr0_1 Zr0_3 3.401100 1_545
Zr0_1 Zr0_5 3.401100 1_555
Zr0_1 Zr0_3 3.401100 1_555
Zr0_1 Zr0_7 3.401100 1_555
Zr0_1 Zr0_7 3.401100 1_445
Zr0_2 Zr0_6 3.401100 1_455
Zr0_2 Zr0_6 3.401100 1_555
Zr0_2 Zr0_4 3.401100 1_455
Zr0_2 Zr0_4 3.401100 1_565
Zr0_3 Zr0_7 3.401100 1_455
Zr0_3 Zr0_7 3.401100 1_555
Zr0_3 Zr0_5 3.401100 1_455
Zr0_3 Zr0_5 3.401100 1_565
Zr0_4 Zr0_6 3.401100 1_545
Zr0_4 Zr0_6 3.401100 1_555
Zr0_5 Zr0_7 3.401100 1_555
Zr0_5 Zr0_7 3.401100 1_545
