# generated using pymatgen
data_Dy13Zn58
_symmetry_space_group_name_H-M   'P 1'
_cell_length_a   13.98171157
_cell_length_b   14.26557419
_cell_length_c   14.26557419
_cell_angle_alpha   119.99968227
_cell_angle_beta   90.00000000
_cell_angle_gamma   90.00000000
_symmetry_Int_Tables_number   1
_chemical_formula_structural   Dy13Zn58
_chemical_formula_sum   'Dy26 Zn116'
_cell_volume   2464.17118231
_cell_formula_units_Z   2
loop_
 _symmetry_equiv_pos_site_id
 _symmetry_equiv_pos_as_xyz
  1  'x, y, z'
loop_
 _atom_site_type_symbol
 _atom_site_label
 _atom_site_symmetry_multiplicity
 _atom_site_fract_x
 _atom_site_fract_y
 _atom_site_fract_z
 _atom_site_occupancy
  Dy  Dy0  1  0.50000000  -0.00000000  0.00000000  1
  Dy  Dy1  1  -0.00000000  -0.00000000  0.00000000  1
  Dy  Dy2  1  0.75000000  0.45583145  0.91166560  1
  Dy  Dy3  1  0.75000000  0.45583247  0.54416753  1
  Dy  Dy4  1  0.75000000  0.08833440  0.54416855  1
  Dy  Dy5  1  0.25000000  0.54416855  0.08833440  1
  Dy  Dy6  1  0.25000000  0.54416753  0.45583247  1
  Dy  Dy7  1  0.25000000  0.91166560  0.45583145  1
  Dy  Dy8  1  0.75000000  0.12782110  0.25564210  1
  Dy  Dy9  1  0.75000000  0.12781929  0.87218071  1
  Dy  Dy10  1  0.75000000  0.74435790  0.87217890  1
  Dy  Dy11  1  0.25000000  0.87217890  0.74435790  1
  Dy  Dy12  1  0.25000000  0.87218071  0.12781929  1
  Dy  Dy13  1  0.25000000  0.25564210  0.12782110  1
  Dy  Dy14  1  0.55212049  0.79434646  0.58869209  1
  Dy  Dy15  1  0.55212178  0.79434753  0.20565247  1
  Dy  Dy16  1  0.55212049  0.41130791  0.20565354  1
  Dy  Dy17  1  0.44787951  0.20565354  0.41130791  1
  Dy  Dy18  1  0.44787822  0.20565247  0.79434753  1
  Dy  Dy19  1  0.44787951  0.58869209  0.79434646  1
  Dy  Dy20  1  0.05212049  0.20565354  0.41130791  1
  Dy  Dy21  1  0.05212178  0.20565247  0.79434753  1
  Dy  Dy22  1  0.05212049  0.58869209  0.79434646  1
  Dy  Dy23  1  0.94787951  0.79434646  0.58869209  1
  Dy  Dy24  1  0.94787822  0.79434753  0.20565247  1
  Dy  Dy25  1  0.94787951  0.41130791  0.20565354  1
  Zn  Zn0  1  0.75000000  0.00000012  0.99999988  1
  Zn  Zn1  1  0.25000000  0.99999988  0.00000012  1
  Zn  Zn2  1  0.25000000  0.66667050  0.33332950  1
  Zn  Zn3  1  0.75000000  0.33332950  0.66667050  1
  Zn  Zn4  1  0.59630279  0.66667269  0.33332731  1
  Zn  Zn5  1  0.40369721  0.33332731  0.66667269  1
  Zn  Zn6  1  0.09630279  0.33332731  0.66667269  1
  Zn  Zn7  1  0.90369721  0.66667269  0.33332731  1
  Zn  Zn8  1  0.50000000  0.50000000  0.00000000  1
  Zn  Zn9  1  0.50000000  0.50000000  0.50000000  1
  Zn  Zn10  1  0.50000000  -0.00000000  0.50000000  1
  Zn  Zn11  1  -0.00000000  0.50000000  0.00000000  1
  Zn  Zn12  1  -0.00000000  0.50000000  0.50000000  1
  Zn  Zn13  1  -0.00000000  -0.00000000  0.50000000  1
  Zn  Zn14  1  0.75000000  0.73048019  0.46095706  1
  Zn  Zn15  1  0.75000000  0.73048207  0.26951793  1
  Zn  Zn16  1  0.75000000  0.53904294  0.26951981  1
  Zn  Zn17  1  0.25000000  0.26951981  0.53904294  1
  Zn  Zn18  1  0.25000000  0.26951793  0.73048207  1
  Zn  Zn19  1  0.25000000  0.46095706  0.73048019  1
  Zn  Zn20  1  0.49999974  0.79880152  0.99999882  1
  Zn  Zn21  1  0.50000000  0.20119894  0.20119894  1
  Zn  Zn22  1  0.50000026  0.99999882  0.79880152  1
  Zn  Zn23  1  0.50000026  0.20119848  0.00000118  1
  Zn  Zn24  1  0.49999974  0.00000118  0.20119848  1
  Zn  Zn25  1  0.50000000  0.79880106  0.79880106  1
  Zn  Zn26  1  0.99999974  0.20119848  0.00000118  1
  Zn  Zn27  1  -0.00000000  0.79880106  0.79880106  1
  Zn  Zn28  1  0.00000026  0.00000118  0.20119848  1
  Zn  Zn29  1  0.00000026  0.79880152  0.99999882  1
  Zn  Zn30  1  0.99999974  0.99999882  0.79880152  1
  Zn  Zn31  1  -0.00000000  0.20119894  0.20119894  1
  Zn  Zn32  1  0.75000000  0.91569278  0.63545515  1
  Zn  Zn33  1  0.75000000  0.71976334  0.08430343  1
  Zn  Zn34  1  0.75000000  0.36454562  0.28023850  1
  Zn  Zn35  1  0.75000000  0.71976150  0.63545438  1
  Zn  Zn36  1  0.75000000  0.36454485  0.08430722  1
  Zn  Zn37  1  0.75000000  0.91569657  0.28023666  1
  Zn  Zn38  1  0.25000000  0.08430722  0.36454485  1
  Zn  Zn39  1  0.25000000  0.28023666  0.91569657  1
  Zn  Zn40  1  0.25000000  0.63545438  0.71976150  1
  Zn  Zn41  1  0.25000000  0.28023850  0.36454562  1
  Zn  Zn42  1  0.25000000  0.63545515  0.91569278  1
  Zn  Zn43  1  0.25000000  0.08430343  0.71976334  1
  Zn  Zn44  1  0.65674230  0.90502790  0.81005702  1
  Zn  Zn45  1  0.65674251  0.90502965  0.09497035  1
  Zn  Zn46  1  0.65674230  0.18994298  0.09497210  1
  Zn  Zn47  1  0.34325770  0.09497210  0.18994298  1
  Zn  Zn48  1  0.34325749  0.09497035  0.90502965  1
  Zn  Zn49  1  0.34325770  0.81005702  0.90502790  1
  Zn  Zn50  1  0.15674230  0.09497210  0.18994298  1
  Zn  Zn51  1  0.15674251  0.09497035  0.90502965  1
  Zn  Zn52  1  0.15674230  0.81005702  0.90502790  1
  Zn  Zn53  1  0.84325770  0.90502790  0.81005702  1
  Zn  Zn54  1  0.84325749  0.90502965  0.09497035  1
  Zn  Zn55  1  0.84325770  0.18994298  0.09497210  1
  Zn  Zn56  1  0.14176787  0.43672581  0.87345227  1
  Zn  Zn57  1  0.14176347  0.43671977  0.56328023  1
  Zn  Zn58  1  0.14176787  0.12654773  0.56327419  1
  Zn  Zn59  1  0.85823213  0.56327419  0.12654773  1
  Zn  Zn60  1  0.85823653  0.56328023  0.43671977  1
  Zn  Zn61  1  0.85823213  0.87345227  0.43672581  1
  Zn  Zn62  1  0.64176787  0.56327419  0.12654773  1
  Zn  Zn63  1  0.64176347  0.56328023  0.43671977  1
  Zn  Zn64  1  0.64176787  0.87345227  0.43672581  1
  Zn  Zn65  1  0.35823213  0.43672581  0.87345227  1
  Zn  Zn66  1  0.35823653  0.43671977  0.56328023  1
  Zn  Zn67  1  0.35823213  0.12654773  0.56327419  1
  Zn  Zn68  1  0.55130141  0.39840919  0.79682247  1
  Zn  Zn69  1  0.55129394  0.39840874  0.60159126  1
  Zn  Zn70  1  0.55130141  0.20317753  0.60159081  1
  Zn  Zn71  1  0.44869859  0.60159081  0.20317753  1
  Zn  Zn72  1  0.44870606  0.60159126  0.39840874  1
  Zn  Zn73  1  0.44869859  0.79682247  0.39840919  1
  Zn  Zn74  1  0.05130141  0.60159081  0.20317753  1
  Zn  Zn75  1  0.05129394  0.60159126  0.39840874  1
  Zn  Zn76  1  0.05130141  0.79682247  0.39840919  1
  Zn  Zn77  1  0.94869859  0.39840919  0.79682247  1
  Zn  Zn78  1  0.94870606  0.39840874  0.60159126  1
  Zn  Zn79  1  0.94869859  0.20317753  0.60159081  1
  Zn  Zn80  1  0.15703364  0.76440123  0.52880259  1
  Zn  Zn81  1  0.15703268  0.76440560  0.23559440  1
  Zn  Zn82  1  0.15703364  0.47119741  0.23559877  1
  Zn  Zn83  1  0.84296636  0.23559877  0.47119741  1
  Zn  Zn84  1  0.84296732  0.23559440  0.76440560  1
  Zn  Zn85  1  0.84296636  0.52880259  0.76440123  1
  Zn  Zn86  1  0.65703364  0.23559877  0.47119741  1
  Zn  Zn87  1  0.65703268  0.23559440  0.76440560  1
  Zn  Zn88  1  0.65703364  0.52880259  0.76440123  1
  Zn  Zn89  1  0.34296636  0.76440123  0.52880259  1
  Zn  Zn90  1  0.34296732  0.76440560  0.23559440  1
  Zn  Zn91  1  0.34296636  0.47119741  0.23559877  1
  Zn  Zn92  1  0.60277338  0.63456374  0.96375373  1
  Zn  Zn93  1  0.60277424  0.32919041  0.36543658  1
  Zn  Zn94  1  0.60277345  0.03624394  0.67080890  1
  Zn  Zn95  1  0.60277345  0.32919110  0.96375606  1
  Zn  Zn96  1  0.60277338  0.03624627  0.36543626  1
  Zn  Zn97  1  0.60277424  0.63456342  0.67080959  1
  Zn  Zn98  1  0.39722662  0.36543626  0.03624627  1
  Zn  Zn99  1  0.39722576  0.67080959  0.63456342  1
  Zn  Zn100  1  0.39722655  0.96375606  0.32919110  1
  Zn  Zn101  1  0.39722655  0.67080890  0.03624394  1
  Zn  Zn102  1  0.39722662  0.96375373  0.63456374  1
  Zn  Zn103  1  0.39722576  0.36543658  0.32919041  1
  Zn  Zn104  1  0.10277338  0.36543626  0.03624627  1
  Zn  Zn105  1  0.10277424  0.67080959  0.63456342  1
  Zn  Zn106  1  0.10277345  0.96375606  0.32919110  1
  Zn  Zn107  1  0.10277345  0.67080890  0.03624394  1
  Zn  Zn108  1  0.10277338  0.96375373  0.63456374  1
  Zn  Zn109  1  0.10277424  0.36543658  0.32919041  1
  Zn  Zn110  1  0.89722662  0.63456374  0.96375373  1
  Zn  Zn111  1  0.89722576  0.32919041  0.36543658  1
  Zn  Zn112  1  0.89722655  0.03624394  0.67080890  1
  Zn  Zn113  1  0.89722655  0.32919110  0.96375606  1
  Zn  Zn114  1  0.89722662  0.03624627  0.36543626  1
  Zn  Zn115  1  0.89722576  0.63456342  0.67080959  1
loop_
_geom_bond_atom_site_label_1
_geom_bond_atom_site_label_2
_geom_bond_distance
_geom_bond_site_symmetry_2
Dy0 Zn22 2.870203 1_544
Dy0 Zn20 2.870203 1_544
Dy0 Zn24 2.870203 1_555
Dy0 Zn23 2.870203 1_555
Dy0 Zn21 2.870232 1_555
Dy0 Zn25 2.870232 1_544
Dy0 Zn45 3.210807 1_545
Dy0 Zn48 3.210807 1_554
Dy0 Zn49 3.210834 1_544
Dy0 Zn44 3.210834 1_544
Dy0 Zn47 3.210834 1_555
Dy0 Zn46 3.210834 1_555
Dy0 Zn0 3.495428 1_554
Dy0 Zn1 3.495428 1_545
Dy1 Zn29 2.870203 1_544
Dy1 Zn30 2.870203 1_444
Dy1 Zn28 2.870203 1_555
Dy1 Zn26 2.870203 1_455
Dy1 Zn31 2.870232 1_555
Dy1 Zn27 2.870232 1_544
Dy1 Zn54 3.210807 1_445
Dy1 Zn51 3.210807 1_554
Dy1 Zn52 3.210834 1_544
Dy1 Zn53 3.210834 1_444
Dy1 Zn50 3.210834 1_555
Dy1 Zn55 3.210834 1_455
Dy1 Zn0 3.495428 1_454
Dy1 Zn1 3.495428 1_545
Dy2 Zn3 3.026765 1_555
Dy2 Zn59 3.055752 1_556
Dy2 Zn62 3.055752 1_556
Dy2 Zn88 3.061611 1_555
Dy2 Zn85 3.061611 1_555
Dy2 Zn87 3.061635 1_555
Dy2 Zn84 3.061635 1_555
Dy2 Zn95 3.065257 1_555
Dy2 Zn113 3.065257 1_555
Dy2 Zn92 3.065283 1_555
Dy2 Zn110 3.065283 1_555
Dy2 Zn68 3.119477 1_555
Dy2 Zn77 3.119477 1_555
Dy2 Zn36 3.311890 1_556
Dy2 Zn33 3.311939 1_556
Dy3 Zn3 3.026884 1_555
Dy3 Zn63 3.055915 1_555
Dy3 Zn60 3.055915 1_555
Dy3 Zn83 3.061600 1_555
Dy3 Zn86 3.061600 1_555
Dy3 Zn88 3.061600 1_555
Dy3 Zn85 3.061600 1_555
Dy3 Zn93 3.065264 1_555
Dy3 Zn111 3.065264 1_555
Dy3 Zn115 3.065264 1_555
Dy3 Zn97 3.065264 1_555
Dy3 Zn69 3.119591 1_555
Dy3 Zn78 3.119591 1_555
Dy3 Zn34 3.311912 1_555
Dy3 Zn35 3.311912 1_555
Dy4 Zn3 3.026765 1_555
Dy4 Zn64 3.055752 1_545
Dy4 Zn61 3.055752 1_545
Dy4 Zn83 3.061611 1_555
Dy4 Zn86 3.061611 1_555
Dy4 Zn87 3.061635 1_555
Dy4 Zn84 3.061635 1_555
Dy4 Zn112 3.065257 1_555
Dy4 Zn94 3.065257 1_555
Dy4 Zn114 3.065283 1_555
Dy4 Zn96 3.065283 1_555
Dy4 Zn79 3.119477 1_555
Dy4 Zn70 3.119477 1_555
Dy4 Zn32 3.311890 1_545
Dy4 Zn37 3.311939 1_545
Dy5 Zn2 3.026765 1_555
Dy5 Zn56 3.055752 1_554
Dy5 Zn65 3.055752 1_554
Dy5 Zn82 3.061611 1_555
Dy5 Zn91 3.061611 1_555
Dy5 Zn81 3.061635 1_555
Dy5 Zn90 3.061635 1_555
Dy5 Zn101 3.065257 1_555
Dy5 Zn107 3.065257 1_555
Dy5 Zn98 3.065283 1_555
Dy5 Zn104 3.065283 1_555
Dy5 Zn74 3.119477 1_555
Dy5 Zn71 3.119477 1_555
Dy5 Zn42 3.311890 1_554
Dy5 Zn39 3.311939 1_554
Dy6 Zn2 3.026884 1_555
Dy6 Zn57 3.055915 1_555
Dy6 Zn66 3.055915 1_555
Dy6 Zn91 3.061600 1_555
Dy6 Zn82 3.061600 1_555
Dy6 Zn80 3.061600 1_555
Dy6 Zn89 3.061600 1_555
Dy6 Zn109 3.065264 1_555
Dy6 Zn103 3.065264 1_555
Dy6 Zn99 3.065264 1_555
Dy6 Zn105 3.065264 1_555
Dy6 Zn75 3.119591 1_555
Dy6 Zn72 3.119591 1_555
Dy6 Zn41 3.311912 1_555
Dy6 Zn40 3.311912 1_555
Dy7 Zn2 3.026765 1_555
Dy7 Zn67 3.055752 1_565
Dy7 Zn58 3.055752 1_565
Dy7 Zn80 3.061611 1_555
Dy7 Zn89 3.061611 1_555
Dy7 Zn90 3.061635 1_555
Dy7 Zn81 3.061635 1_555
Dy7 Zn106 3.065257 1_555
Dy7 Zn100 3.065257 1_555
Dy7 Zn102 3.065283 1_555
Dy7 Zn108 3.065283 1_555
Dy7 Zn73 3.119477 1_555
Dy7 Zn76 3.119477 1_555
Dy7 Zn38 3.311890 1_565
Dy7 Zn43 3.311939 1_565
Dy8 Zn86 2.963345 1_555
Dy8 Zn83 2.963345 1_555
Dy8 Zn46 3.125735 1_555
Dy8 Zn55 3.125735 1_555
Dy8 Zn45 3.125749 1_545
Dy8 Zn54 3.125749 1_545
Dy8 Zn0 3.158303 1_554
Dy8 Zn37 3.215891 1_545
Dy8 Zn34 3.215961 1_555
Dy8 Zn114 3.231605 1_555
Dy8 Zn96 3.231605 1_555
Dy8 Zn93 3.231611 1_555
Dy8 Zn111 3.231611 1_555
Dy9 Zn87 2.963283 1_555
Dy9 Zn84 2.963283 1_555
Dy9 Zn44 3.125730 1_545
Dy9 Zn53 3.125730 1_545
Dy9 Zn46 3.125730 1_556
Dy9 Zn55 3.125730 1_556
Dy9 Zn0 3.158240 1_555
Dy9 Zn36 3.215973 1_556
Dy9 Zn32 3.215973 1_545
Dy9 Zn112 3.231641 1_555
Dy9 Zn94 3.231641 1_555
Dy9 Zn113 3.231641 1_555
Dy9 Zn95 3.231641 1_555
Dy10 Zn88 2.963345 1_555
Dy10 Zn85 2.963345 1_555
Dy10 Zn44 3.125735 1_555
Dy10 Zn53 3.125735 1_555
Dy10 Zn45 3.125749 1_556
Dy10 Zn54 3.125749 1_556
Dy10 Zn0 3.158303 1_565
Dy10 Zn33 3.215891 1_556
Dy10 Zn35 3.215961 1_555
Dy10 Zn110 3.231605 1_555
Dy10 Zn92 3.231605 1_555
Dy10 Zn115 3.231611 1_555
Dy10 Zn97 3.231611 1_555
Dy11 Zn89 2.963345 1_555
Dy11 Zn80 2.963345 1_555
Dy11 Zn52 3.125735 1_555
Dy11 Zn49 3.125735 1_555
Dy11 Zn51 3.125749 1_565
Dy11 Zn48 3.125749 1_565
Dy11 Zn1 3.158303 1_556
Dy11 Zn43 3.215891 1_565
Dy11 Zn40 3.215961 1_555
Dy11 Zn108 3.231605 1_555
Dy11 Zn102 3.231605 1_555
Dy11 Zn99 3.231611 1_555
Dy11 Zn105 3.231611 1_555
Dy12 Zn81 2.963283 1_555
Dy12 Zn90 2.963283 1_555
Dy12 Zn49 3.125730 1_554
Dy12 Zn52 3.125730 1_554
Dy12 Zn50 3.125730 1_565
Dy12 Zn47 3.125730 1_565
Dy12 Zn1 3.158240 1_555
Dy12 Zn38 3.215973 1_565
Dy12 Zn42 3.215973 1_554
Dy12 Zn101 3.231641 1_555
Dy12 Zn107 3.231641 1_555
Dy12 Zn100 3.231641 1_555
Dy12 Zn106 3.231641 1_555
Dy13 Zn82 2.963345 1_555
Dy13 Zn91 2.963345 1_555
Dy13 Zn50 3.125735 1_555
Dy13 Zn47 3.125735 1_555
Dy13 Zn51 3.125749 1_554
Dy13 Zn48 3.125749 1_554
Dy13 Zn1 3.158303 1_545
Dy13 Zn39 3.215891 1_554
Dy13 Zn41 3.215961 1_555
Dy13 Zn98 3.231605 1_555
Dy13 Zn104 3.231605 1_555
Dy13 Zn109 3.231611 1_555
Dy13 Zn103 3.231611 1_555
Dy14 Zn89 3.016483 1_555
Dy14 Zn25 3.054272 1_555
Dy14 Zn22 3.054275 1_555
Dy14 Zn102 3.062248 1_555
Dy14 Zn99 3.062262 1_555
Dy14 Zn72 3.091312 1_555
Dy14 Zn73 3.091370 1_555
Dy14 Zn44 3.101459 1_555
Dy14 Zn94 3.120822 1_565
Dy14 Zn97 3.120852 1_555
Dy14 Zn32 3.153007 1_555
Dy14 Zn35 3.153010 1_555
Dy14 Zn63 3.160754 1_555
Dy14 Zn64 3.160808 1_555
Dy14 Zn14 3.185115 1_555
Dy14 Zn4 3.214786 1_555
Dy15 Zn90 3.016470 1_555
Dy15 Zn24 3.054262 1_565
Dy15 Zn20 3.054262 1_554
Dy15 Zn101 3.062283 1_555
Dy15 Zn100 3.062283 1_555
Dy15 Zn71 3.091358 1_555
Dy15 Zn73 3.091358 1_555
Dy15 Zn45 3.101433 1_555
Dy15 Zn96 3.120844 1_565
Dy15 Zn92 3.120844 1_554
Dy15 Zn33 3.153007 1_555
Dy15 Zn37 3.153007 1_555
Dy15 Zn64 3.160828 1_555
Dy15 Zn62 3.160828 1_555
Dy15 Zn15 3.185071 1_555
Dy15 Zn4 3.214585 1_555
Dy16 Zn91 3.016483 1_555
Dy16 Zn21 3.054272 1_555
Dy16 Zn23 3.054275 1_555
Dy16 Zn98 3.062248 1_555
Dy16 Zn103 3.062262 1_555
Dy16 Zn72 3.091312 1_555
Dy16 Zn71 3.091370 1_555
Dy16 Zn46 3.101459 1_555
Dy16 Zn95 3.120822 1_554
Dy16 Zn93 3.120852 1_555
Dy16 Zn36 3.153007 1_555
Dy16 Zn34 3.153010 1_555
Dy16 Zn63 3.160754 1_555
Dy16 Zn62 3.160808 1_555
Dy16 Zn16 3.185115 1_555
Dy16 Zn4 3.214786 1_555
Dy17 Zn86 3.016483 1_555
Dy17 Zn21 3.054272 1_555
Dy17 Zn24 3.054275 1_555
Dy17 Zn96 3.062248 1_555
Dy17 Zn93 3.062262 1_555
Dy17 Zn69 3.091312 1_555
Dy17 Zn70 3.091370 1_555
Dy17 Zn47 3.101459 1_555
Dy17 Zn100 3.120822 1_545
Dy17 Zn103 3.120852 1_555
Dy17 Zn38 3.153007 1_555
Dy17 Zn41 3.153010 1_555
Dy17 Zn66 3.160754 1_555
Dy17 Zn67 3.160808 1_555
Dy17 Zn17 3.185115 1_555
Dy17 Zn5 3.214786 1_555
Dy18 Zn87 3.016470 1_555
Dy18 Zn23 3.054262 1_556
Dy18 Zn22 3.054262 1_545
Dy18 Zn95 3.062283 1_555
Dy18 Zn94 3.062283 1_555
Dy18 Zn70 3.091358 1_555
Dy18 Zn68 3.091358 1_555
Dy18 Zn48 3.101433 1_555
Dy18 Zn98 3.120844 1_556
Dy18 Zn102 3.120844 1_545
Dy18 Zn43 3.153007 1_555
Dy18 Zn39 3.153007 1_555
Dy18 Zn65 3.160828 1_555
Dy18 Zn67 3.160828 1_555
Dy18 Zn18 3.185071 1_555
Dy18 Zn5 3.214585 1_555
Dy19 Zn88 3.016483 1_555
Dy19 Zn25 3.054272 1_555
Dy19 Zn20 3.054275 1_555
Dy19 Zn92 3.062248 1_555
Dy19 Zn97 3.062262 1_555
Dy19 Zn69 3.091312 1_555
Dy19 Zn68 3.091370 1_555
Dy19 Zn49 3.101459 1_555
Dy19 Zn101 3.120822 1_556
Dy19 Zn99 3.120852 1_555
Dy19 Zn42 3.153007 1_555
Dy19 Zn40 3.153010 1_555
Dy19 Zn66 3.160754 1_555
Dy19 Zn65 3.160808 1_555
Dy19 Zn19 3.185115 1_555
Dy19 Zn5 3.214786 1_555
Dy20 Zn83 3.016483 1_455
Dy20 Zn31 3.054272 1_555
Dy20 Zn28 3.054275 1_555
Dy20 Zn114 3.062248 1_455
Dy20 Zn111 3.062262 1_455
Dy20 Zn78 3.091312 1_455
Dy20 Zn79 3.091370 1_455
Dy20 Zn50 3.101459 1_555
Dy20 Zn106 3.120822 1_545
Dy20 Zn109 3.120852 1_555
Dy20 Zn38 3.153007 1_555
Dy20 Zn41 3.153010 1_555
Dy20 Zn57 3.160754 1_555
Dy20 Zn58 3.160808 1_555
Dy20 Zn17 3.185115 1_555
Dy20 Zn6 3.214786 1_555
Dy21 Zn84 3.016470 1_455
Dy21 Zn26 3.054262 1_456
Dy21 Zn30 3.054262 1_445
Dy21 Zn112 3.062283 1_455
Dy21 Zn113 3.062283 1_455
Dy21 Zn79 3.091358 1_455
Dy21 Zn77 3.091358 1_455
Dy21 Zn51 3.101433 1_555
Dy21 Zn104 3.120844 1_556
Dy21 Zn108 3.120844 1_545
Dy21 Zn43 3.153007 1_555
Dy21 Zn39 3.153007 1_555
Dy21 Zn56 3.160828 1_555
Dy21 Zn58 3.160828 1_555
Dy21 Zn18 3.185071 1_555
Dy21 Zn6 3.214585 1_555
Dy22 Zn85 3.016483 1_455
Dy22 Zn27 3.054272 1_555
Dy22 Zn29 3.054275 1_555
Dy22 Zn110 3.062248 1_455
Dy22 Zn115 3.062262 1_455
Dy22 Zn78 3.091312 1_455
Dy22 Zn77 3.091370 1_455
Dy22 Zn52 3.101459 1_555
Dy22 Zn107 3.120822 1_556
Dy22 Zn105 3.120852 1_555
Dy22 Zn42 3.153007 1_555
Dy22 Zn40 3.153010 1_555
Dy22 Zn57 3.160754 1_555
Dy22 Zn56 3.160808 1_555
Dy22 Zn19 3.185115 1_555
Dy22 Zn6 3.214786 1_555
Dy23 Zn80 3.016483 1_655
Dy23 Zn27 3.054272 1_655
Dy23 Zn30 3.054275 1_555
Dy23 Zn108 3.062248 1_655
Dy23 Zn105 3.062262 1_655
Dy23 Zn75 3.091312 1_655
Dy23 Zn76 3.091370 1_655
Dy23 Zn53 3.101459 1_555
Dy23 Zn112 3.120822 1_565
Dy23 Zn115 3.120852 1_555
Dy23 Zn32 3.153007 1_555
Dy23 Zn35 3.153010 1_555
Dy23 Zn60 3.160754 1_555
Dy23 Zn61 3.160808 1_555
Dy23 Zn14 3.185115 1_555
Dy23 Zn7 3.214786 1_555
Dy24 Zn81 3.016470 1_655
Dy24 Zn28 3.054262 1_665
Dy24 Zn29 3.054262 1_654
Dy24 Zn107 3.062283 1_655
Dy24 Zn106 3.062283 1_655
Dy24 Zn74 3.091358 1_655
Dy24 Zn76 3.091358 1_655
Dy24 Zn54 3.101433 1_555
Dy24 Zn114 3.120844 1_565
Dy24 Zn110 3.120844 1_554
Dy24 Zn33 3.153007 1_555
Dy24 Zn37 3.153007 1_555
Dy24 Zn61 3.160828 1_555
Dy24 Zn59 3.160828 1_555
Dy24 Zn15 3.185071 1_555
Dy24 Zn7 3.214585 1_555
Dy25 Zn82 3.016483 1_655
Dy25 Zn31 3.054272 1_655
Dy25 Zn26 3.054275 1_555
Dy25 Zn104 3.062248 1_655
Dy25 Zn109 3.062262 1_655
Dy25 Zn75 3.091312 1_655
Dy25 Zn74 3.091370 1_655
Dy25 Zn55 3.101459 1_555
Dy25 Zn113 3.120822 1_554
Dy25 Zn111 3.120852 1_555
Dy25 Zn36 3.153007 1_555
Dy25 Zn34 3.153010 1_555
Dy25 Zn60 3.160754 1_555
Dy25 Zn59 3.160808 1_555
Dy25 Zn16 3.185115 1_555
Dy25 Zn7 3.214786 1_555
Zn0 Zn54 2.684521 1_546
Zn0 Zn45 2.684521 1_546
Zn0 Zn53 2.684553 1_545
Zn0 Zn44 2.684553 1_545
Zn0 Zn55 2.684553 1_556
Zn0 Zn46 2.684553 1_556
Zn1 Zn48 2.684521 1_564
Zn1 Zn51 2.684521 1_564
Zn1 Zn52 2.684553 1_554
Zn1 Zn49 2.684553 1_554
Zn1 Zn50 2.684553 1_565
Zn1 Zn47 2.684553 1_565
Zn2 Zn81 2.742508 1_555
Zn2 Zn90 2.742508 1_555
Zn2 Zn80 2.742543 1_555
Zn2 Zn89 2.742543 1_555
Zn2 Zn91 2.742543 1_555
Zn2 Zn82 2.742543 1_555
Zn3 Zn84 2.742508 1_555
Zn3 Zn87 2.742508 1_555
Zn3 Zn85 2.742543 1_555
Zn3 Zn88 2.742543 1_555
Zn3 Zn86 2.742543 1_555
Zn3 Zn83 2.742543 1_555
Zn4 Zn73 2.616202 1_555
Zn4 Zn71 2.616202 1_555
Zn4 Zn72 2.616214 1_555
Zn4 Zn62 2.632537 1_555
Zn4 Zn64 2.632537 1_555
Zn4 Zn63 2.632574 1_555
Zn5 Zn70 2.616202 1_555
Zn5 Zn68 2.616202 1_555
Zn5 Zn69 2.616214 1_555
Zn5 Zn67 2.632537 1_555
Zn5 Zn65 2.632537 1_555
Zn5 Zn66 2.632574 1_555
Zn6 Zn77 2.616202 1_455
Zn6 Zn79 2.616202 1_455
Zn6 Zn78 2.616214 1_455
Zn7 Zn76 2.616202 1_655
Zn7 Zn74 2.616202 1_655
Zn7 Zn75 2.616214 1_655
Zn8 Zn98 2.647591 1_555
Zn8 Zn92 2.647591 1_554
Zn8 Zn95 2.647592 1_554
Zn9 Zn97 2.647604 1_555
Zn9 Zn99 2.647604 1_555
Zn9 Zn93 2.647604 1_555
Zn10 Zn64 2.524526 1_545
Zn10 Zn67 2.524526 1_555
Zn10 Zn70 2.610607 1_555
Zn10 Zn73 2.610607 1_545
Zn10 Zn96 2.647591 1_555
Zn10 Zn102 2.647591 1_545
Zn10 Zn100 2.647592 1_545
Zn10 Zn94 2.647592 1_555
Zn11 Zn56 2.524526 1_554
Zn11 Zn59 2.524526 1_455
Zn11 Zn74 2.610607 1_555
Zn11 Zn77 2.610607 1_454
Zn11 Zn110 2.647591 1_454
Zn11 Zn113 2.647592 1_454
Zn12 Zn60 2.524570 1_455
Zn12 Zn57 2.524570 1_555
Zn12 Zn78 2.610626 1_455
Zn12 Zn75 2.610626 1_555
Zn13 Zn58 2.524526 1_555
Zn13 Zn61 2.524526 1_445
Zn13 Zn79 2.610607 1_455
Zn13 Zn76 2.610607 1_545
Zn14 Zn32 2.569164 1_555
Zn14 Zn35 2.569173 1_555
Zn14 Zn7 2.665379 1_555
Zn14 Zn4 2.665379 1_555
Zn14 Zn63 2.697076 1_555
Zn14 Zn60 2.697076 1_555
Zn14 Zn64 2.697106 1_555
Zn14 Zn61 2.697106 1_555
Zn14 Zn16 2.730975 1_555
Zn14 Zn15 2.731003 1_555
Zn15 Zn33 2.569153 1_555
Zn15 Zn37 2.569153 1_555
Zn15 Zn4 2.665294 1_555
Zn15 Zn7 2.665294 1_555
Zn15 Zn59 2.697140 1_555
Zn15 Zn61 2.697140 1_555
Zn15 Zn62 2.697140 1_555
Zn15 Zn64 2.697140 1_555
Zn15 Zn16 2.731003 1_555
Zn16 Zn36 2.569164 1_555
Zn16 Zn34 2.569173 1_555
Zn16 Zn7 2.665379 1_555
Zn16 Zn4 2.665379 1_555
Zn16 Zn60 2.697076 1_555
Zn16 Zn63 2.697076 1_555
Zn16 Zn62 2.697106 1_555
Zn16 Zn59 2.697106 1_555
Zn17 Zn38 2.569164 1_555
Zn17 Zn41 2.569173 1_555
Zn17 Zn5 2.665379 1_555
Zn17 Zn6 2.665379 1_555
Zn17 Zn57 2.697076 1_555
Zn17 Zn66 2.697076 1_555
Zn17 Zn67 2.697106 1_555
Zn17 Zn58 2.697106 1_555
Zn17 Zn19 2.730975 1_555
Zn17 Zn18 2.731003 1_555
Zn18 Zn43 2.569153 1_555
Zn18 Zn39 2.569153 1_555
Zn18 Zn5 2.665294 1_555
Zn18 Zn6 2.665294 1_555
Zn18 Zn67 2.697140 1_555
Zn18 Zn56 2.697140 1_555
Zn18 Zn65 2.697140 1_555
Zn18 Zn58 2.697140 1_555
Zn18 Zn19 2.731003 1_555
Zn19 Zn42 2.569164 1_555
Zn19 Zn40 2.569173 1_555
Zn19 Zn5 2.665379 1_555
Zn19 Zn6 2.665379 1_555
Zn19 Zn57 2.697076 1_555
Zn19 Zn66 2.697076 1_555
Zn19 Zn56 2.697106 1_555
Zn19 Zn65 2.697106 1_555
Zn20 Zn92 2.571021 1_555
Zn20 Zn49 2.623282 1_555
Zn20 Zn45 2.623304 1_556
Zn20 Zn25 2.870198 1_555
Zn20 Zn24 2.870242 1_566
Zn21 Zn93 2.571026 1_555
Zn21 Zn46 2.623288 1_555
Zn21 Zn47 2.623288 1_555
Zn21 Zn24 2.870198 1_555
Zn21 Zn23 2.870198 1_555
Zn22 Zn94 2.571013 1_565
Zn22 Zn44 2.623282 1_555
Zn22 Zn48 2.623304 1_565
Zn22 Zn25 2.870198 1_555
Zn22 Zn23 2.870242 1_566
Zn23 Zn95 2.571013 1_554
Zn23 Zn98 2.571021 1_555
Zn23 Zn46 2.623282 1_555
Zn23 Zn48 2.623304 1_554
Zn24 Zn96 2.571021 1_555
Zn24 Zn47 2.623282 1_555
Zn24 Zn45 2.623304 1_545
Zn25 Zn97 2.571026 1_555
Zn25 Zn99 2.571026 1_555
Zn25 Zn44 2.623288 1_555
Zn25 Zn49 2.623288 1_555
Zn26 Zn55 2.623282 1_555
Zn26 Zn51 2.623304 1_654
Zn26 Zn31 2.870198 1_655
Zn26 Zn30 2.870242 1_544
Zn27 Zn52 2.623288 1_555
Zn27 Zn53 2.623288 1_455
Zn27 Zn30 2.870198 1_455
Zn27 Zn29 2.870198 1_555
Zn28 Zn50 2.623282 1_555
Zn28 Zn54 2.623304 1_445
Zn28 Zn31 2.870198 1_555
Zn28 Zn29 2.870242 1_544
Zn29 Zn52 2.623282 1_555
Zn29 Zn54 2.623304 1_456
Zn30 Zn53 2.623282 1_555
Zn30 Zn51 2.623304 1_665
Zn31 Zn50 2.623288 1_555
Zn31 Zn55 2.623288 1_455
Zn32 Zn94 2.565512 1_565
Zn32 Zn35 2.795067 1_555
Zn32 Zn44 2.882069 1_555
Zn32 Zn53 2.882069 1_555
Zn32 Zn61 2.996990 1_555
Zn32 Zn64 2.996990 1_555
Zn33 Zn92 2.565510 1_554
Zn33 Zn37 2.795113 1_555
Zn33 Zn45 2.882051 1_555
Zn33 Zn54 2.882051 1_555
Zn33 Zn62 2.997020 1_555
Zn33 Zn59 2.997020 1_555
Zn34 Zn93 2.565514 1_555
Zn34 Zn36 2.795067 1_555
Zn34 Zn55 2.882082 1_555
Zn34 Zn46 2.882082 1_555
Zn34 Zn60 2.997042 1_555
Zn34 Zn63 2.997042 1_555
Zn35 Zn97 2.565514 1_555
Zn35 Zn44 2.882082 1_555
Zn35 Zn53 2.882082 1_555
Zn35 Zn60 2.997042 1_555
Zn35 Zn63 2.997042 1_555
Zn36 Zn95 2.565512 1_554
Zn36 Zn55 2.882069 1_555
Zn36 Zn46 2.882069 1_555
Zn36 Zn62 2.996990 1_555
Zn36 Zn59 2.996990 1_555
Zn37 Zn96 2.565510 1_565
Zn37 Zn45 2.882051 1_555
Zn37 Zn54 2.882051 1_555
Zn37 Zn64 2.997020 1_555
Zn37 Zn61 2.997020 1_555
Zn38 Zn41 2.795067 1_555
Zn38 Zn47 2.882069 1_555
Zn38 Zn50 2.882069 1_555
Zn38 Zn67 2.996990 1_555
Zn38 Zn58 2.996990 1_555
Zn39 Zn98 2.565510 1_556
Zn39 Zn43 2.795113 1_555
Zn39 Zn48 2.882051 1_555
Zn39 Zn51 2.882051 1_555
Zn39 Zn65 2.997020 1_555
Zn39 Zn56 2.997020 1_555
Zn40 Zn99 2.565514 1_555
Zn40 Zn42 2.795067 1_555
Zn40 Zn52 2.882082 1_555
Zn40 Zn49 2.882082 1_555
Zn40 Zn66 2.997042 1_555
Zn40 Zn57 2.997042 1_555
Zn41 Zn47 2.882082 1_555
Zn41 Zn50 2.882082 1_555
Zn41 Zn66 2.997042 1_555
Zn41 Zn57 2.997042 1_555
Zn42 Zn49 2.882069 1_555
Zn42 Zn52 2.882069 1_555
Zn42 Zn56 2.996990 1_555
Zn42 Zn65 2.996990 1_555
Zn43 Zn48 2.882051 1_555
Zn43 Zn51 2.882051 1_555
Zn43 Zn67 2.997020 1_555
Zn43 Zn58 2.997020 1_555
Zn44 Zn53 2.607805 1_555
Zn45 Zn54 2.607799 1_555
Zn46 Zn55 2.607805 1_555
Zn47 Zn50 2.607805 1_555
Zn48 Zn51 2.607799 1_555
Zn49 Zn52 2.607805 1_555
Zn56 Zn6 2.632537 1_555
Zn56 Zn77 2.860636 1_455
Zn56 Zn65 3.026541 1_555
Zn57 Zn6 2.632574 1_555
Zn57 Zn78 2.860446 1_455
Zn57 Zn66 3.026664 1_555
Zn58 Zn6 2.632537 1_555
Zn58 Zn79 2.860636 1_455
Zn58 Zn67 3.026541 1_555
Zn59 Zn7 2.632537 1_555
Zn59 Zn74 2.860636 1_655
Zn59 Zn62 3.026541 1_555
Zn60 Zn7 2.632574 1_555
Zn60 Zn75 2.860446 1_655
Zn60 Zn63 3.026664 1_555
Zn61 Zn7 2.632537 1_555
Zn61 Zn76 2.860636 1_655
Zn61 Zn64 3.026541 1_555
Zn62 Zn8 2.524526 1_555
Zn62 Zn71 2.860636 1_555
Zn62 Zn92 3.014399 1_554
Zn62 Zn95 3.014403 1_554
Zn63 Zn9 2.524570 1_555
Zn63 Zn72 2.860446 1_555
Zn63 Zn97 3.014498 1_555
Zn63 Zn93 3.014498 1_555
Zn64 Zn73 2.860636 1_555
Zn64 Zn96 3.014399 1_565
Zn64 Zn94 3.014403 1_565
Zn65 Zn8 2.524526 1_556
Zn65 Zn68 2.860636 1_555
Zn65 Zn98 3.014399 1_556
Zn66 Zn9 2.524570 1_555
Zn66 Zn69 2.860446 1_555
Zn66 Zn99 3.014498 1_555
Zn67 Zn70 2.860636 1_555
Zn68 Zn88 2.592251 1_555
Zn68 Zn87 2.592265 1_555
Zn68 Zn8 2.610607 1_556
Zn68 Zn69 2.785082 1_555
Zn68 Zn70 2.785105 1_555
Zn69 Zn86 2.592286 1_555
Zn69 Zn88 2.592286 1_555
Zn69 Zn9 2.610626 1_555
Zn69 Zn70 2.785082 1_555
Zn70 Zn86 2.592251 1_555
Zn70 Zn87 2.592265 1_555
Zn71 Zn91 2.592251 1_555
Zn71 Zn90 2.592265 1_555
Zn71 Zn8 2.610607 1_555
Zn71 Zn72 2.785082 1_555
Zn71 Zn73 2.785105 1_555
Zn72 Zn91 2.592286 1_555
Zn72 Zn89 2.592286 1_555
Zn72 Zn9 2.610626 1_555
Zn72 Zn73 2.785082 1_555
Zn73 Zn89 2.592251 1_555
Zn73 Zn90 2.592265 1_555
Zn74 Zn82 2.592251 1_555
Zn74 Zn81 2.592265 1_555
Zn74 Zn75 2.785082 1_555
Zn74 Zn76 2.785105 1_555
Zn75 Zn82 2.592286 1_555
Zn75 Zn80 2.592286 1_555
Zn75 Zn76 2.785082 1_555
Zn76 Zn80 2.592251 1_555
Zn76 Zn81 2.592265 1_555
Zn77 Zn85 2.592251 1_555
Zn77 Zn84 2.592265 1_555
Zn77 Zn78 2.785082 1_555
Zn77 Zn79 2.785105 1_555
Zn78 Zn83 2.592286 1_555
Zn78 Zn85 2.592286 1_555
Zn78 Zn79 2.785082 1_555
Zn79 Zn83 2.592251 1_555
Zn79 Zn84 2.592265 1_555
Zn80 Zn89 2.599658 1_555
Zn81 Zn90 2.599685 1_555
Zn82 Zn91 2.599658 1_555
Zn83 Zn86 2.599658 1_555
Zn84 Zn87 2.599685 1_555
Zn85 Zn88 2.599658 1_555
Zn86 Zn93 2.578522 1_555
Zn86 Zn96 2.578538 1_555
Zn87 Zn94 2.578506 1_555
Zn87 Zn95 2.578506 1_555
Zn88 Zn97 2.578522 1_555
Zn88 Zn92 2.578538 1_555
Zn89 Zn99 2.578522 1_555
Zn91 Zn98 2.578538 1_555
Zn100 Zn38 2.565512 1_565
Zn100 Zn24 2.571013 1_565
Zn100 Zn90 2.578506 1_555
Zn100 Zn67 3.014403 1_565
Zn101 Zn42 2.565512 1_554
Zn101 Zn20 2.571013 1_554
Zn101 Zn90 2.578506 1_555
Zn101 Zn8 2.647592 1_555
Zn101 Zn65 3.014403 1_554
Zn102 Zn43 2.565510 1_565
Zn102 Zn22 2.571021 1_555
Zn102 Zn89 2.578538 1_555
Zn102 Zn67 3.014399 1_565
Zn103 Zn41 2.565514 1_555
Zn103 Zn21 2.571026 1_555
Zn103 Zn91 2.578522 1_555
Zn103 Zn9 2.647604 1_555
Zn103 Zn66 3.014498 1_555
Zn104 Zn39 2.565510 1_554
Zn104 Zn26 2.571021 1_455
Zn104 Zn82 2.578538 1_555
Zn104 Zn11 2.647591 1_555
Zn104 Zn56 3.014399 1_554
Zn105 Zn40 2.565514 1_555
Zn105 Zn27 2.571026 1_555
Zn105 Zn80 2.578522 1_555
Zn105 Zn12 2.647604 1_555
Zn105 Zn57 3.014498 1_555
Zn106 Zn38 2.565512 1_565
Zn106 Zn28 2.571013 1_565
Zn106 Zn81 2.578506 1_555
Zn106 Zn13 2.647592 1_565
Zn106 Zn58 3.014403 1_565
Zn107 Zn42 2.565512 1_554
Zn107 Zn29 2.571013 1_554
Zn107 Zn81 2.578506 1_555
Zn107 Zn11 2.647592 1_555
Zn107 Zn56 3.014403 1_554
Zn108 Zn43 2.565510 1_565
Zn108 Zn30 2.571021 1_455
Zn108 Zn80 2.578538 1_555
Zn108 Zn13 2.647591 1_565
Zn108 Zn58 3.014399 1_565
Zn109 Zn41 2.565514 1_555
Zn109 Zn31 2.571026 1_555
Zn109 Zn82 2.578522 1_555
Zn109 Zn12 2.647604 1_555
Zn109 Zn57 3.014498 1_555
Zn110 Zn33 2.565510 1_556
Zn110 Zn29 2.571021 1_655
Zn110 Zn85 2.578538 1_555
Zn110 Zn59 3.014399 1_556
Zn111 Zn34 2.565514 1_555
Zn111 Zn31 2.571026 1_655
Zn111 Zn83 2.578522 1_555
Zn111 Zn12 2.647604 1_655
Zn111 Zn60 3.014498 1_555
Zn112 Zn32 2.565512 1_545
Zn112 Zn30 2.571013 1_545
Zn112 Zn84 2.578506 1_555
Zn112 Zn13 2.647592 1_655
Zn112 Zn61 3.014403 1_545
Zn113 Zn36 2.565512 1_556
Zn113 Zn26 2.571013 1_556
Zn113 Zn84 2.578506 1_555
Zn113 Zn59 3.014403 1_556
Zn114 Zn37 2.565510 1_545
Zn114 Zn28 2.571021 1_655
Zn114 Zn83 2.578538 1_555
Zn114 Zn13 2.647591 1_655
Zn114 Zn61 3.014399 1_545
Zn115 Zn35 2.565514 1_555
Zn115 Zn27 2.571026 1_655
Zn115 Zn85 2.578522 1_555
Zn115 Zn12 2.647604 1_655
Zn115 Zn60 3.014498 1_555
