# generated using pymatgen
data_CuP2(HO)4
_symmetry_space_group_name_H-M   'P 1'
_cell_length_a   5.54602900
_cell_length_b   6.59755381
_cell_length_c   7.58457691
_cell_angle_alpha   96.19807019
_cell_angle_beta   90.00000000
_cell_angle_gamma   90.00000000
_symmetry_Int_Tables_number   1
_chemical_formula_structural   CuP2(HO)4
_chemical_formula_sum   'Cu2 P4 H8 O8'
_cell_volume   275.89915067
_cell_formula_units_Z   2
loop_
 _symmetry_equiv_pos_site_id
 _symmetry_equiv_pos_as_xyz
  1  'x, y, z'
loop_
 _atom_site_type_symbol
 _atom_site_label
 _atom_site_symmetry_multiplicity
 _atom_site_fract_x
 _atom_site_fract_y
 _atom_site_fract_z
 _atom_site_occupancy
  Cu  Cu0  1  0.50000000  0.50000000  0.00000000  1
  Cu  Cu1  1  0.00000000  0.00000000  0.00000000  1
  P  P0  1  0.06051100  0.65741700  0.24945200  1
  P  P1  1  0.56051100  0.84258300  0.75054800  1
  P  P2  1  0.93948900  0.34258300  0.75054800  1
  P  P3  1  0.43948900  0.15741700  0.24945200  1
  H  H0  1  0.05594700  0.78741500  0.41060100  1
  H  H1  1  0.55594700  0.71258500  0.58939900  1
  H  H2  1  0.94405300  0.21258500  0.58939900  1
  H  H3  1  0.44405300  0.28741500  0.41060100  1
  H  H4  1  0.92685900  0.48418100  0.28522600  1
  H  H5  1  0.42685900  0.01581900  0.71477400  1
  H  H6  1  0.07314100  0.51581900  0.71477400  1
  H  H7  1  0.57314100  0.98418100  0.28522600  1
  O  O0  1  0.32563700  0.60078100  0.21748600  1
  O  O1  1  0.82563700  0.89921900  0.78251400  1
  O  O2  1  0.67436300  0.39921900  0.78251400  1
  O  O3  1  0.17436300  0.10078100  0.21748600  1
  O  O4  1  0.91466500  0.74901500  0.10532700  1
  O  O5  1  0.41466500  0.75098500  0.89467300  1
  O  O6  1  0.08533500  0.25098500  0.89467300  1
  O  O7  1  0.58533500  0.24901500  0.10532700  1
loop_
_geom_bond_atom_site_label_1
_geom_bond_atom_site_label_2
_geom_bond_distance
_geom_bond_site_symmetry_2
Cu0 O0 1.965040 1_555
Cu0 O2 1.965040 1_554
Cu0 O7 1.972249 1_555
Cu0 O5 1.972249 1_554
Cu1 O3 1.965040 1_555
Cu1 O1 1.965040 1_444
Cu1 O4 1.972249 1_445
Cu1 O6 1.972249 1_554
H0 P0 1.415545 1_555
H1 P1 1.415545 1_555
H2 P2 1.415545 1_555
H3 P3 1.415545 1_555
H4 P0 1.412910 1_655
H5 P1 1.412910 1_545
H6 P2 1.412910 1_455
H7 P3 1.412910 1_565
O0 P0 1.530002 1_555
O1 P1 1.530002 1_555
O2 P2 1.530002 1_555
O3 P3 1.530002 1_555
O4 P0 1.535266 1_655
O5 P1 1.535266 1_555
O6 P2 1.535266 1_455
O7 P3 1.535266 1_555
