# generated using pymatgen
data_MgIn
_symmetry_space_group_name_H-M   'P 1'
_cell_length_a   6.44822032
_cell_length_b   10.55806864
_cell_length_c   10.76929130
_cell_angle_alpha   90.00000000
_cell_angle_beta   90.00000000
_cell_angle_gamma   90.00000000
_symmetry_Int_Tables_number   1
_chemical_formula_structural   MgIn
_chemical_formula_sum   'Mg16 In16'
_cell_volume   733.18145823
_cell_formula_units_Z   16
loop_
 _symmetry_equiv_pos_site_id
 _symmetry_equiv_pos_as_xyz
  1  'x, y, z'
loop_
 _atom_site_type_symbol
 _atom_site_label
 _atom_site_symmetry_multiplicity
 _atom_site_fract_x
 _atom_site_fract_y
 _atom_site_fract_z
 _atom_site_occupancy
  Mg  Mg0_0  1  0.25000000  0.37500000  0.09468858  1
  Mg  Mg0_1  1  0.25000000  0.37500000  0.59468858  1
  Mg  Mg0_2  1  0.25000000  0.87500000  0.09468858  1
  Mg  Mg0_3  1  0.25000000  0.87500000  0.59468858  1
  Mg  Mg0_4  1  0.75000000  0.37500000  0.09468858  1
  Mg  Mg0_5  1  0.75000000  0.37500000  0.59468858  1
  Mg  Mg0_6  1  0.75000000  0.87500000  0.09468858  1
  Mg  Mg0_7  1  0.75000000  0.87500000  0.59468858  1
  Mg  Mg1_0  1  0.25000000  0.12500000  0.40531142  1
  Mg  Mg1_1  1  0.25000000  0.12500000  0.90531142  1
  Mg  Mg1_2  1  0.25000000  0.62500000  0.40531142  1
  Mg  Mg1_3  1  0.25000000  0.62500000  0.90531142  1
  Mg  Mg1_4  1  0.75000000  0.12500000  0.40531142  1
  Mg  Mg1_5  1  0.75000000  0.12500000  0.90531142  1
  Mg  Mg1_6  1  0.75000000  0.62500000  0.40531142  1
  Mg  Mg1_7  1  0.75000000  0.62500000  0.90531142  1
  In  In0_0  1  0.00000000  0.37500000  0.34576383  1
  In  In0_1  1  0.00000000  0.37500000  0.84576383  1
  In  In0_2  1  0.00000000  0.87500000  0.34576383  1
  In  In0_3  1  0.00000000  0.87500000  0.84576383  1
  In  In0_4  1  0.50000000  0.37500000  0.34576383  1
  In  In0_5  1  0.50000000  0.37500000  0.84576383  1
  In  In0_6  1  0.50000000  0.87500000  0.34576383  1
  In  In0_7  1  0.50000000  0.87500000  0.84576383  1
  In  In1_0  1  0.00000000  0.12500000  0.15423617  1
  In  In1_1  1  0.00000000  0.12500000  0.65423617  1
  In  In1_2  1  0.00000000  0.62500000  0.15423617  1
  In  In1_3  1  0.00000000  0.62500000  0.65423617  1
  In  In1_4  1  0.50000000  0.12500000  0.15423617  1
  In  In1_5  1  0.50000000  0.12500000  0.65423617  1
  In  In1_6  1  0.50000000  0.62500000  0.15423617  1
  In  In1_7  1  0.50000000  0.62500000  0.65423617  1
loop_
_geom_bond_atom_site_label_1
_geom_bond_atom_site_label_2
_geom_bond_distance
_geom_bond_site_symmetry_2
Mg0_0 Mg0_4 3.224110 1_555
Mg0_0 Mg0_4 3.224110 1_455
Mg0_0 Mg1_1 3.335632 1_554
Mg0_0 Mg1_3 3.335632 1_554
Mg0_1 Mg0_5 3.224110 1_555
Mg0_1 Mg0_5 3.224110 1_455
Mg0_1 Mg1_0 3.335632 1_555
Mg0_1 Mg1_2 3.335632 1_555
Mg0_2 Mg0_6 3.224110 1_555
Mg0_2 Mg0_6 3.224110 1_455
Mg0_2 Mg1_3 3.335632 1_554
Mg0_2 Mg1_1 3.335632 1_564
Mg0_3 Mg0_7 3.224110 1_555
Mg0_3 Mg0_7 3.224110 1_455
Mg0_3 Mg1_2 3.335632 1_555
Mg0_3 Mg1_0 3.335632 1_565
Mg0_4 Mg1_5 3.335632 1_554
Mg0_4 Mg1_7 3.335632 1_554
Mg0_5 Mg1_4 3.335632 1_555
Mg0_5 Mg1_6 3.335632 1_555
Mg0_6 Mg1_7 3.335632 1_554
Mg0_6 Mg1_5 3.335632 1_564
Mg0_7 Mg1_6 3.335632 1_555
Mg0_7 Mg1_4 3.335632 1_565
Mg1_0 Mg1_4 3.224110 1_555
Mg1_0 Mg1_4 3.224110 1_455
Mg1_1 Mg1_5 3.224110 1_555
Mg1_1 Mg1_5 3.224110 1_455
Mg1_2 Mg1_6 3.224110 1_555
Mg1_2 Mg1_6 3.224110 1_455
Mg1_3 Mg1_7 3.224110 1_555
Mg1_3 Mg1_7 3.224110 1_455
In0_0 Mg0_1 3.128115 1_555
In0_0 Mg0_5 3.128115 1_455
In0_0 Mg0_0 3.147985 1_555
In0_0 Mg0_4 3.147985 1_455
In0_0 Mg1_0 3.158642 1_555
In0_0 Mg1_4 3.158642 1_455
In0_0 Mg1_2 3.158642 1_555
In0_0 Mg1_6 3.158642 1_455
In0_0 In0_4 3.224110 1_455
In0_0 In0_4 3.224110 1_555
In0_0 In1_0 3.349842 1_555
In0_0 In1_2 3.349842 1_555
In0_1 Mg0_0 3.128115 1_556
In0_1 Mg0_4 3.128115 1_456
In0_1 Mg0_1 3.147985 1_555
In0_1 Mg0_5 3.147985 1_455
In0_1 Mg1_1 3.158642 1_555
In0_1 Mg1_5 3.158642 1_455
In0_1 Mg1_3 3.158642 1_555
In0_1 Mg1_7 3.158642 1_455
In0_1 In0_5 3.224110 1_455
In0_1 In0_5 3.224110 1_555
In0_1 In1_1 3.349842 1_555
In0_1 In1_3 3.349842 1_555
In0_2 Mg0_3 3.128115 1_555
In0_2 Mg0_7 3.128115 1_455
In0_2 Mg0_2 3.147985 1_555
In0_2 Mg0_6 3.147985 1_455
In0_2 Mg1_6 3.158642 1_455
In0_2 Mg1_2 3.158642 1_555
In0_2 Mg1_4 3.158642 1_465
In0_2 Mg1_0 3.158642 1_565
In0_2 In0_6 3.224110 1_555
In0_2 In0_6 3.224110 1_455
In0_2 In1_2 3.349842 1_555
In0_2 In1_0 3.349842 1_565
In0_3 Mg0_2 3.128115 1_556
In0_3 Mg0_6 3.128115 1_456
In0_3 Mg0_3 3.147985 1_555
In0_3 Mg0_7 3.147985 1_455
In0_3 Mg1_3 3.158642 1_555
In0_3 Mg1_7 3.158642 1_455
In0_3 Mg1_1 3.158642 1_565
In0_3 Mg1_5 3.158642 1_465
In0_3 In0_7 3.224110 1_455
In0_3 In0_7 3.224110 1_555
In0_3 In1_3 3.349842 1_555
In0_3 In1_1 3.349842 1_565
In0_4 Mg0_5 3.128115 1_555
In0_4 Mg0_1 3.128115 1_555
In0_4 Mg0_4 3.147985 1_555
In0_4 Mg0_0 3.147985 1_555
In0_4 Mg1_4 3.158642 1_555
In0_4 Mg1_0 3.158642 1_555
In0_4 Mg1_6 3.158642 1_555
In0_4 Mg1_2 3.158642 1_555
In0_4 In1_4 3.349842 1_555
In0_4 In1_6 3.349842 1_555
In0_5 Mg0_4 3.128115 1_556
In0_5 Mg0_0 3.128115 1_556
In0_5 Mg0_1 3.147985 1_555
In0_5 Mg0_5 3.147985 1_555
In0_5 Mg1_5 3.158642 1_555
In0_5 Mg1_1 3.158642 1_555
In0_5 Mg1_7 3.158642 1_555
In0_5 Mg1_3 3.158642 1_555
In0_5 In1_5 3.349842 1_555
In0_5 In1_7 3.349842 1_555
In0_6 Mg0_7 3.128115 1_555
In0_6 Mg0_3 3.128115 1_555
In0_6 Mg0_2 3.147985 1_555
In0_6 Mg0_6 3.147985 1_555
In0_6 Mg1_6 3.158642 1_555
In0_6 Mg1_2 3.158642 1_555
In0_6 Mg1_4 3.158642 1_565
In0_6 Mg1_0 3.158642 1_565
In0_6 In1_6 3.349842 1_555
In0_6 In1_4 3.349842 1_565
In0_7 Mg0_6 3.128115 1_556
In0_7 Mg0_2 3.128115 1_556
In0_7 Mg0_7 3.147985 1_555
In0_7 Mg0_3 3.147985 1_555
In0_7 Mg1_3 3.158642 1_555
In0_7 Mg1_7 3.158642 1_555
In0_7 Mg1_5 3.158642 1_565
In0_7 Mg1_1 3.158642 1_565
In0_7 In1_7 3.349842 1_555
In0_7 In1_5 3.349842 1_565
In1_0 Mg1_1 3.128115 1_554
In1_0 Mg1_5 3.128115 1_454
In1_0 Mg1_0 3.147985 1_555
In1_0 Mg1_4 3.147985 1_455
In1_0 Mg0_0 3.158642 1_555
In1_0 Mg0_4 3.158642 1_455
In1_0 Mg0_6 3.158642 1_445
In1_0 Mg0_2 3.158642 1_545
In1_0 In1_4 3.224110 1_555
In1_0 In1_4 3.224110 1_455
In1_1 Mg1_4 3.128115 1_455
In1_1 Mg1_0 3.128115 1_555
In1_1 Mg1_1 3.147985 1_555
In1_1 Mg1_5 3.147985 1_455
In1_1 Mg0_1 3.158642 1_555
In1_1 Mg0_5 3.158642 1_455
In1_1 Mg0_3 3.158642 1_545
In1_1 Mg0_7 3.158642 1_445
In1_1 In1_5 3.224110 1_555
In1_1 In1_5 3.224110 1_455
In1_2 Mg1_3 3.128115 1_554
In1_2 Mg1_7 3.128115 1_454
In1_2 Mg1_6 3.147985 1_455
In1_2 Mg1_2 3.147985 1_555
In1_2 Mg0_2 3.158642 1_555
In1_2 Mg0_6 3.158642 1_455
In1_2 Mg0_0 3.158642 1_555
In1_2 Mg0_4 3.158642 1_455
In1_2 In1_6 3.224110 1_455
In1_2 In1_6 3.224110 1_555
In1_3 Mg1_2 3.128115 1_555
In1_3 Mg1_6 3.128115 1_455
In1_3 Mg1_3 3.147985 1_555
In1_3 Mg1_7 3.147985 1_455
In1_3 Mg0_7 3.158642 1_455
In1_3 Mg0_3 3.158642 1_555
In1_3 Mg0_1 3.158642 1_555
In1_3 Mg0_5 3.158642 1_455
In1_3 In1_7 3.224110 1_455
In1_3 In1_7 3.224110 1_555
In1_4 Mg1_5 3.128115 1_554
In1_4 Mg1_1 3.128115 1_554
In1_4 Mg1_4 3.147985 1_555
In1_4 Mg1_0 3.147985 1_555
In1_4 Mg0_4 3.158642 1_555
In1_4 Mg0_0 3.158642 1_555
In1_4 Mg0_6 3.158642 1_545
In1_4 Mg0_2 3.158642 1_545
In1_5 Mg1_4 3.128115 1_555
In1_5 Mg1_0 3.128115 1_555
In1_5 Mg1_5 3.147985 1_555
In1_5 Mg1_1 3.147985 1_555
In1_5 Mg0_5 3.158642 1_555
In1_5 Mg0_1 3.158642 1_555
In1_5 Mg0_7 3.158642 1_545
In1_5 Mg0_3 3.158642 1_545
In1_6 Mg1_7 3.128115 1_554
In1_6 Mg1_3 3.128115 1_554
In1_6 Mg1_6 3.147985 1_555
In1_6 Mg1_2 3.147985 1_555
In1_6 Mg0_6 3.158642 1_555
In1_6 Mg0_2 3.158642 1_555
In1_6 Mg0_4 3.158642 1_555
In1_6 Mg0_0 3.158642 1_555
In1_7 Mg1_6 3.128115 1_555
In1_7 Mg1_2 3.128115 1_555
In1_7 Mg1_7 3.147985 1_555
In1_7 Mg1_3 3.147985 1_555
In1_7 Mg0_7 3.158642 1_555
In1_7 Mg0_3 3.158642 1_555
In1_7 Mg0_5 3.158642 1_555
In1_7 Mg0_1 3.158642 1_555
