# generated using pymatgen
data_UGaPd
_symmetry_space_group_name_H-M   'P 1'
_cell_length_a   6.94637233
_cell_length_b   6.94637233
_cell_length_c   4.21514100
_cell_angle_alpha   90.00000000
_cell_angle_beta   90.00000000
_cell_angle_gamma   120.00000317
_symmetry_Int_Tables_number   1
_chemical_formula_structural   UGaPd
_chemical_formula_sum   'U3 Ga3 Pd3'
_cell_volume   176.14034433
_cell_formula_units_Z   3
loop_
 _symmetry_equiv_pos_site_id
 _symmetry_equiv_pos_as_xyz
  1  'x, y, z'
loop_
 _atom_site_type_symbol
 _atom_site_label
 _atom_site_symmetry_multiplicity
 _atom_site_fract_x
 _atom_site_fract_y
 _atom_site_fract_z
 _atom_site_occupancy
  U  U0  1  0.00000000  0.42696600  0.50000000  1
  U  U1  1  0.57303400  0.57303400  0.50000000  1
  U  U2  1  0.42696600  0.00000000  0.50000000  1
  Ga  Ga0  1  0.00000000  0.76146300  0.00000000  1
  Ga  Ga1  1  0.23853700  0.23853700  0.00000000  1
  Ga  Ga2  1  0.76146300  0.00000000  0.00000000  1
  Pd  Pd0  1  0.33333300  0.66666700  0.00000000  1
  Pd  Pd1  1  0.66666700  0.33333300  0.00000000  1
  Pd  Pd2  1  0.00000000  0.00000000  0.50000000  1
loop_
_geom_bond_atom_site_label_1
_geom_bond_atom_site_label_2
_geom_bond_distance
_geom_bond_site_symmetry_2
Ga0 Pd2 2.680931 1_564
Ga0 Pd2 2.680931 1_565
Ga0 Pd0 2.705483 1_555
Ga0 Pd1 2.705488 1_455
Ga0 Ga1 2.869951 1_565
Ga0 Ga2 2.869951 1_465
Ga0 U0 3.136988 1_555
Ga0 U0 3.136988 1_554
Ga0 U2 3.327072 1_564
Ga0 U2 3.327072 1_565
Ga0 U1 3.327072 1_455
Ga0 U1 3.327072 1_454
Ga1 Pd2 2.680931 1_554
Ga1 Pd2 2.680931 1_555
Ga1 Pd1 2.705490 1_555
Ga1 Pd0 2.705490 1_555
Ga1 Ga2 2.869951 1_455
Ga1 U1 3.136988 1_555
Ga1 U1 3.136988 1_554
Ga1 U0 3.327072 1_555
Ga1 U2 3.327072 1_555
Ga1 U0 3.327072 1_554
Ga1 U2 3.327072 1_554
Ga2 Pd2 2.680931 1_654
Ga2 Pd2 2.680931 1_655
Ga2 Pd1 2.705483 1_555
Ga2 Pd0 2.705488 1_545
Ga2 U2 3.136988 1_555
Ga2 U2 3.136988 1_554
Ga2 U0 3.327072 1_655
Ga2 U0 3.327072 1_654
Ga2 U1 3.327072 1_544
Ga2 U1 3.327072 1_545
Pd0 U2 2.953003 1_564
Pd0 U2 2.953003 1_565
Pd0 U0 2.953004 1_555
Pd0 U0 2.953004 1_554
Pd0 U1 2.953007 1_555
Pd0 U1 2.953007 1_554
Pd1 U0 2.953003 1_655
Pd1 U0 2.953003 1_654
Pd1 U2 2.953004 1_554
Pd1 U2 2.953004 1_555
Pd1 U1 2.953007 1_555
Pd1 U1 2.953007 1_554
Pd2 U1 2.965865 1_445
Pd2 U0 2.965865 1_555
Pd2 U2 2.965865 1_555
