# generated using pymatgen
data_Y4AlGe8
_symmetry_space_group_name_H-M   'P 1'
_cell_length_a   4.04655400
_cell_length_b   4.17116200
_cell_length_c   16.37427900
_cell_angle_alpha   90.00000000
_cell_angle_beta   90.00000000
_cell_angle_gamma   90.00000000
_symmetry_Int_Tables_number   1
_chemical_formula_structural   Y4AlGe8
_chemical_formula_sum   'Y4 Al1 Ge8'
_cell_volume   276.37870888
_cell_formula_units_Z   1
loop_
 _symmetry_equiv_pos_site_id
 _symmetry_equiv_pos_as_xyz
  1  'x, y, z'
loop_
 _atom_site_type_symbol
 _atom_site_label
 _atom_site_symmetry_multiplicity
 _atom_site_fract_x
 _atom_site_fract_y
 _atom_site_fract_z
 _atom_site_occupancy
  Y  Y0  1  0.25000000  0.00000000  0.09248500  1
  Y  Y1  1  0.25000000  0.50000000  0.60858900  1
  Y  Y2  1  0.75000000  0.50000000  0.39692400  1
  Y  Y3  1  0.75000000  0.00000000  0.89214200  1
  Al  Al0  1  0.25000000  0.00000000  0.32196400  1
  Ge  Ge0  1  0.25000000  0.00000000  0.46940400  1
  Ge  Ge1  1  0.25000000  0.50000000  0.94179100  1
  Ge  Ge2  1  0.75000000  0.50000000  0.04335800  1
  Ge  Ge3  1  0.75000000  0.00000000  0.57045800  1
  Ge  Ge4  1  0.25000000  0.50000000  0.23155600  1
  Ge  Ge5  1  0.25000000  0.00000000  0.74695600  1
  Ge  Ge6  1  0.75000000  0.00000000  0.23008400  1
  Ge  Ge7  1  0.75000000  0.50000000  0.75268800  1
loop_
_geom_bond_atom_site_label_1
_geom_bond_atom_site_label_2
_geom_bond_distance
_geom_bond_site_symmetry_2
Al0 Ge0 2.414224 1_555
Al0 Ge6 2.521324 1_455
Al0 Ge6 2.521324 1_555
Al0 Ge4 2.557563 1_545
Al0 Ge4 2.557563 1_555
Al0 Y2 3.154338 1_545
Al0 Y2 3.154338 1_555
Al0 Y2 3.154338 1_445
Al0 Y2 3.154338 1_455
Ge0 Ge3 2.613740 1_555
Ge0 Ge3 2.613740 1_455
Ge0 Y1 3.089294 1_545
Ge0 Y1 3.089294 1_555
Ge0 Y2 3.138759 1_445
Ge0 Y2 3.138759 1_455
Ge0 Y2 3.138759 1_545
Ge0 Y2 3.138759 1_555
Ge1 Ge2 2.619066 1_556
Ge1 Ge2 2.619066 1_456
Ge1 Y3 3.017319 1_555
Ge1 Y3 3.017319 1_565
Ge1 Y3 3.017319 1_465
Ge1 Y3 3.017319 1_455
Ge1 Y0 3.230825 1_556
Ge1 Y0 3.230825 1_566
Ge2 Y0 3.015027 1_655
Ge2 Y0 3.015027 1_555
Ge2 Y0 3.015027 1_565
Ge2 Y0 3.015027 1_665
Ge2 Y3 3.237358 1_554
Ge2 Y3 3.237358 1_564
Ge3 Y1 2.972059 1_645
Ge3 Y1 2.972059 1_545
Ge3 Y1 2.972059 1_555
Ge3 Y1 2.972059 1_655
Ge3 Y2 3.524732 1_555
Ge3 Y2 3.524732 1_545
Ge4 Ge6 2.905835 1_465
Ge4 Ge6 2.905835 1_455
Ge4 Ge6 2.905835 1_565
Ge4 Ge6 2.905835 1_555
Ge4 Y0 3.087917 1_555
Ge4 Y0 3.087917 1_565
Ge4 Y2 3.380197 1_555
Ge4 Y2 3.380197 1_455
Ge5 Ge7 2.907251 1_555
Ge5 Ge7 2.907251 1_445
Ge5 Ge7 2.907251 1_545
Ge5 Ge7 2.907251 1_455
Ge5 Y1 3.079426 1_545
Ge5 Y1 3.079426 1_555
Ge5 Y3 3.121743 1_555
Ge5 Y3 3.121743 1_455
Ge6 Y0 3.028207 1_555
Ge6 Y0 3.028207 1_655
Ge6 Y2 3.436982 1_545
Ge6 Y2 3.436982 1_555
Ge7 Y3 3.092545 1_555
Ge7 Y3 3.092545 1_565
Ge7 Y1 3.108210 1_555
Ge7 Y1 3.108210 1_655
