# generated using pymatgen
data_HfMg6W
_symmetry_space_group_name_H-M   'P 1'
_cell_length_a   4.91733700
_cell_length_b   6.09323900
_cell_length_c   11.12841500
_cell_angle_alpha   90.00000000
_cell_angle_beta   90.00000000
_cell_angle_gamma   90.00000000
_symmetry_Int_Tables_number   1
_chemical_formula_structural   HfMg6W
_chemical_formula_sum   'Hf2 Mg12 W2'
_cell_volume   333.43524110
_cell_formula_units_Z   2
loop_
 _symmetry_equiv_pos_site_id
 _symmetry_equiv_pos_as_xyz
  1  'x, y, z'
loop_
 _atom_site_type_symbol
 _atom_site_label
 _atom_site_symmetry_multiplicity
 _atom_site_fract_x
 _atom_site_fract_y
 _atom_site_fract_z
 _atom_site_occupancy
  Hf  Hf0  1  0.50000000  0.50000000  0.19775900  1
  Hf  Hf1  1  0.50000000  0.00000000  0.69775900  1
  Mg  Mg0  1  0.00000000  0.74657800  0.07394900  1
  Mg  Mg1  1  0.00000000  0.25342200  0.07394900  1
  Mg  Mg2  1  0.00000000  0.00000000  0.32646100  1
  Mg  Mg3  1  0.50000000  0.25708400  0.42740900  1
  Mg  Mg4  1  0.50000000  0.74291600  0.42740900  1
  Mg  Mg5  1  0.50000000  0.00000000  0.16996100  1
  Mg  Mg6  1  0.00000000  0.24657800  0.57394900  1
  Mg  Mg7  1  0.00000000  0.75342200  0.57394900  1
  Mg  Mg8  1  0.00000000  0.50000000  0.82646100  1
  Mg  Mg9  1  0.50000000  0.75708400  0.92740900  1
  Mg  Mg10  1  0.50000000  0.24291600  0.92740900  1
  Mg  Mg11  1  0.50000000  0.50000000  0.66996100  1
  W  W0  1  0.00000000  0.50000000  0.30310300  1
  W  W1  1  0.00000000  0.00000000  0.80310300  1
loop_
_geom_bond_atom_site_label_1
_geom_bond_atom_site_label_2
_geom_bond_distance
_geom_bond_site_symmetry_2
Hf0 W0 2.723851 1_655
Hf0 W0 2.723851 1_555
Hf0 Mg4 2.953325 1_555
Hf0 Mg3 2.953325 1_555
Hf0 Mg5 3.062285 1_555
Hf0 Mg5 3.062285 1_565
Hf0 Mg9 3.391949 1_554
Hf0 Mg10 3.391949 1_554
Hf1 W1 2.723851 1_555
Hf1 W1 2.723851 1_655
Hf1 Mg9 2.953325 1_545
Hf1 Mg10 2.953325 1_555
Hf1 Mg11 3.062285 1_555
Hf1 Mg11 3.062285 1_545
Hf1 Mg3 3.391949 1_555
Hf1 Mg4 3.391949 1_545
Mg0 Mg9 2.951020 1_554
Mg0 Mg9 2.951020 1_454
Mg0 W0 2.959814 1_555
Mg0 Mg5 3.093718 1_465
Mg0 Mg5 3.093718 1_565
Mg0 W1 3.386614 1_564
Mg1 Mg10 2.951020 1_454
Mg1 Mg10 2.951020 1_554
Mg1 W0 2.959814 1_555
Mg1 Mg5 3.093718 1_555
Mg1 Mg5 3.093718 1_455
Mg1 W1 3.386614 1_554
Mg2 Mg5 3.013007 1_555
Mg2 Mg5 3.013007 1_455
Mg2 W0 3.057688 1_555
Mg2 W0 3.057688 1_545
Mg2 Mg3 3.124244 1_455
Mg2 Mg4 3.124244 1_445
Mg2 Mg3 3.124244 1_555
Mg2 Mg4 3.124244 1_545
Mg3 Mg6 2.951020 1_655
Mg3 Mg6 2.951020 1_555
Mg3 Mg4 2.960290 1_555
Mg3 Mg4 3.132949 1_545
Mg3 W0 3.185825 1_655
Mg3 W0 3.185825 1_555
Mg3 Mg5 3.265272 1_555
Mg4 Mg7 2.951020 1_555
Mg4 Mg7 2.951020 1_655
Mg4 W0 3.185825 1_655
Mg4 W0 3.185825 1_555
Mg4 Mg5 3.265272 1_565
Mg5 Mg9 3.078411 1_544
Mg6 W1 2.959814 1_555
Mg6 W0 3.386614 1_555
Mg7 W1 2.959814 1_565
Mg7 W0 3.386614 1_555
Mg8 W1 3.057688 1_565
Mg8 W1 3.057688 1_555
Mg8 Mg9 3.124244 1_455
Mg8 Mg9 3.124244 1_555
Mg9 W1 3.185825 1_565
Mg9 W1 3.185825 1_665
Mg10 Mg9 2.960290 1_545
Mg10 Mg5 3.078411 1_556
Mg10 Mg8 3.124244 1_655
Mg10 Mg8 3.124244 1_555
Mg10 Mg9 3.132949 1_555
Mg10 W1 3.185825 1_555
Mg10 W1 3.185825 1_655
Mg10 Mg11 3.265272 1_555
Mg11 Mg8 3.013007 1_555
Mg11 Mg8 3.013007 1_655
Mg11 Mg3 3.078411 1_555
Mg11 Mg4 3.078411 1_555
Mg11 Mg7 3.093718 1_655
Mg11 Mg7 3.093718 1_555
Mg11 Mg6 3.093718 1_555
Mg11 Mg6 3.093718 1_655
Mg11 Mg9 3.265272 1_555
