# generated using pymatgen
data_Sr2MnAlCu2O7
_symmetry_space_group_name_H-M   'P 1'
_cell_length_a   5.32989417
_cell_length_b   5.32069549
_cell_length_c   12.27435790
_cell_angle_alpha   102.51333180
_cell_angle_beta   102.50721746
_cell_angle_gamma   89.98727122
_symmetry_Int_Tables_number   1
_chemical_formula_structural   Sr2MnAlCu2O7
_chemical_formula_sum   'Sr4 Mn2 Al2 Cu4 O14'
_cell_volume   331.35404575
_cell_formula_units_Z   2
loop_
 _symmetry_equiv_pos_site_id
 _symmetry_equiv_pos_as_xyz
  1  'x, y, z'
loop_
 _atom_site_type_symbol
 _atom_site_label
 _atom_site_symmetry_multiplicity
 _atom_site_fract_x
 _atom_site_fract_y
 _atom_site_fract_z
 _atom_site_occupancy
  Sr  Sr0  1  0.33406700  0.34345600  0.70313900  1
  Sr  Sr1  1  0.63082500  0.65419400  0.29547000  1
  Sr  Sr2  1  0.83437400  0.85749300  0.70314000  1
  Sr  Sr3  1  0.13109300  0.14003000  0.29543200  1
  Mn  Mn0  1  0.27064600  0.68760000  0.49909500  1
  Mn  Mn1  1  0.77075700  0.30979900  0.49917100  1
  Al  Al0  1  0.97772200  0.99994200  0.99908600  1
  Al  Al1  1  0.47663700  0.49894500  0.99916200  1
  Cu  Cu0  1  0.91948900  0.44102700  0.88236600  1
  Cu  Cu1  1  0.03712600  0.55759500  0.11632800  1
  Cu  Cu2  1  0.41982100  0.93926500  0.88252200  1
  Cu  Cu3  1  0.53723200  0.05866200  0.11600700  1
  O  O0  1  0.13482000  0.33158000  0.49911800  1
  O  O1  1  0.63504900  0.66602100  0.49920100  1
  O  O2  1  0.24655700  0.26677400  0.89148300  1
  O  O3  1  0.35504400  0.73191300  0.10776000  1
  O  O4  1  0.74595600  0.12228200  0.89112900  1
  O  O5  1  0.85500300  0.87650200  0.10722800  1
  O  O6  1  0.60095700  0.62219000  0.89187600  1
  O  O7  1  0.70921700  0.37605900  0.10664400  1
  O  O8  1  0.10155800  0.76806100  0.89221200  1
  O  O9  1  0.20992400  0.23035700  0.10680500  1
  O  O10  1  0.30430400  0.83383600  0.65773300  1
  O  O11  1  0.64670300  0.16445200  0.34019200  1
  O  O12  1  0.80577000  0.32323000  0.65798200  1
  O  O13  1  0.14681500  0.67432500  0.34032800  1
loop_
_geom_bond_atom_site_label_1
_geom_bond_atom_site_label_2
_geom_bond_distance
_geom_bond_site_symmetry_2
Mn0 O10 1.902981 1_555
Mn0 O13 1.903041 1_555
Mn0 O1 1.945330 1_555
Mn0 O0 2.028125 1_555
Mn1 O12 1.903102 1_555
Mn1 O11 1.905395 1_555
Mn1 O0 1.944050 1_655
Mn1 O1 2.028479 1_555
Al0 O8 1.830844 1_655
Al0 O4 1.835753 1_565
Al0 O9 1.836399 1_666
Al0 O5 1.837151 1_556
Al1 O6 1.831809 1_555
Al1 O2 1.835168 1_555
Al1 O7 1.835689 1_556
Al1 O3 1.841499 1_556
Cu0 O8 1.960330 1_655
Cu0 O6 1.965053 1_555
Cu0 O4 1.966239 1_555
Cu0 O2 1.967422 1_655
Cu0 O12 2.621977 1_555
Cu1 O9 1.962439 1_555
Cu1 O7 1.965358 1_455
Cu1 O3 1.965370 1_555
Cu1 O5 1.966804 1_455
Cu1 O13 2.617445 1_555
Cu2 O6 1.956175 1_555
Cu2 O8 1.963775 1_555
Cu2 O4 1.964078 1_565
Cu2 O2 1.965122 1_565
Cu2 O10 2.626838 1_555
Cu3 O7 1.958532 1_555
Cu3 O9 1.961965 1_555
Cu3 O5 1.962811 1_545
Cu3 O3 1.964072 1_545
Cu3 O11 2.619700 1_555
O0 Sr3 2.482747 1_555
O0 Sr0 2.486468 1_555
O1 Sr1 2.482988 1_555
O1 Sr2 2.485196 1_555
O2 Sr0 2.569879 1_555
O3 Sr1 2.566284 1_555
O4 Sr2 2.567733 1_545
O5 Sr3 2.567661 1_665
O6 Sr0 2.583511 1_555
O7 Sr1 2.582493 1_555
O8 Sr2 2.585924 1_455
O9 Sr3 2.582949 1_555
O10 Sr0 2.644849 1_565
O10 Sr2 2.678426 1_455
O10 Sr2 2.756098 1_555
O10 Sr0 2.781218 1_555
O11 Sr1 2.648301 1_545
O11 Sr3 2.680730 1_555
O11 Sr3 2.750893 1_655
O11 Sr1 2.774552 1_555
O12 Sr2 2.651342 1_545
O12 Sr0 2.686491 1_555
O12 Sr0 2.746935 1_655
O12 Sr2 2.773437 1_555
O13 Sr3 2.649939 1_565
O13 Sr1 2.682685 1_455
O13 Sr1 2.749388 1_555
O13 Sr3 2.773730 1_555
