# generated using pymatgen
data_Mg4Si3
_symmetry_space_group_name_H-M   'P 1'
_cell_length_a   7.66124608
_cell_length_b   7.66124608
_cell_length_c   7.34429556
_cell_angle_alpha   63.20513362
_cell_angle_beta   63.20513362
_cell_angle_gamma   44.28110533
_symmetry_Int_Tables_number   1
_chemical_formula_structural   Mg4Si3
_chemical_formula_sum   'Mg8 Si6'
_cell_volume   262.91626032
_cell_formula_units_Z   2
loop_
 _symmetry_equiv_pos_site_id
 _symmetry_equiv_pos_as_xyz
  1  'x, y, z'
loop_
 _atom_site_type_symbol
 _atom_site_label
 _atom_site_symmetry_multiplicity
 _atom_site_fract_x
 _atom_site_fract_y
 _atom_site_fract_z
 _atom_site_occupancy
  Mg  Mg0  1  0.07792600  0.76576100  0.23195100  1
  Mg  Mg1  1  0.70335900  0.88285000  0.69166600  1
  Mg  Mg2  1  0.60973100  0.79270100  0.31515100  1
  Mg  Mg3  1  0.11715000  0.29664100  0.30833400  1
  Mg  Mg4  1  0.75219300  0.43938500  0.07081800  1
  Mg  Mg5  1  0.56061500  0.24780700  0.92918200  1
  Mg  Mg6  1  0.23423900  0.92207400  0.76804900  1
  Mg  Mg7  1  0.20729900  0.39026900  0.68484900  1
  Si  Si0  1  0.30676900  0.99064400  0.05896000  1
  Si  Si1  1  0.53011600  0.21128100  0.32797600  1
  Si  Si2  1  0.68573100  0.31426900  0.50000000  1
  Si  Si3  1  0.78871900  0.46988400  0.67202400  1
  Si  Si4  1  0.00935600  0.69323100  0.94104000  1
  Si  Si5  1  0.13434800  0.86565200  0.50000000  1
loop_
_geom_bond_atom_site_label_1
_geom_bond_atom_site_label_2
_geom_bond_distance
_geom_bond_site_symmetry_2
Mg0 Si5 2.692069 1_555
Mg0 Si4 2.765832 1_554
Mg0 Si0 2.828343 1_555
Mg0 Si1 2.958385 1_465
Mg0 Si1 2.995742 1_555
Mg1 Si4 2.748897 1_655
Mg1 Si1 2.753595 1_565
Mg1 Si3 2.796824 1_555
Mg1 Si0 2.866441 1_556
Mg1 Si5 2.873186 1_655
Mg1 Si2 2.874305 1_565
Mg2 Si3 2.721525 1_555
Mg2 Si0 2.748136 1_555
Mg2 Si1 2.843340 1_565
Mg2 Si4 2.909689 1_654
Mg2 Si5 2.954909 1_555
Mg2 Si2 2.964380 1_555
Mg3 Si0 2.748897 1_545
Mg3 Si3 2.753595 1_455
Mg3 Si1 2.796824 1_555
Mg3 Si4 2.866441 1_554
Mg3 Si5 2.873186 1_545
Mg3 Si2 2.874305 1_455
Mg4 Si3 2.729248 1_554
Mg4 Si2 2.764271 1_555
Mg4 Si1 2.810711 1_555
Mg4 Si0 2.964738 1_555
Mg4 Si0 2.983334 1_645
Mg5 Si1 2.729248 1_556
Mg5 Si2 2.764271 1_555
Mg5 Si3 2.810711 1_555
Mg5 Si4 2.964738 1_555
Mg5 Si4 2.983334 1_645
Mg6 Si5 2.692069 1_555
Mg6 Si0 2.765832 1_556
Mg6 Si4 2.828343 1_555
Mg6 Si3 2.958385 1_465
Mg6 Si3 2.995742 1_555
Mg7 Si1 2.721525 1_555
Mg7 Si4 2.748136 1_555
Mg7 Si3 2.843340 1_455
Mg7 Si0 2.909689 1_546
Mg7 Si5 2.954909 1_555
Mg7 Si2 2.964380 1_555
Si1 Si2 2.691414 1_555
Si2 Si5 2.590647 1_645
Si2 Si3 2.691414 1_555
