# generated using pymatgen
data_CaCu2(Si2O5)4
_symmetry_space_group_name_H-M   'P 1'
_cell_length_a   7.27088600
_cell_length_b   7.27088600
_cell_length_c   15.45834900
_cell_angle_alpha   90.00000000
_cell_angle_beta   90.00000000
_cell_angle_gamma   90.00000000
_symmetry_Int_Tables_number   1
_chemical_formula_structural   CaCu2(Si2O5)4
_chemical_formula_sum   'Ca2 Cu4 Si16 O40'
_cell_volume   817.21772725
_cell_formula_units_Z   2
loop_
 _symmetry_equiv_pos_site_id
 _symmetry_equiv_pos_as_xyz
  1  'x, y, z'
loop_
 _atom_site_type_symbol
 _atom_site_label
 _atom_site_symmetry_multiplicity
 _atom_site_fract_x
 _atom_site_fract_y
 _atom_site_fract_z
 _atom_site_occupancy
  Ca  Ca0  1  0.50000000  0.50000000  0.50000000  1
  Ca  Ca1  1  0.00000000  0.00000000  0.00000000  1
  Cu  Cu0  1  0.00000000  0.50000000  0.58708200  1
  Cu  Cu1  1  0.50000000  0.00000000  0.91291800  1
  Cu  Cu2  1  0.50000000  0.00000000  0.41291800  1
  Cu  Cu3  1  0.00000000  0.50000000  0.08708200  1
  Si  Si0  1  0.67982800  0.75434900  0.64887100  1
  Si  Si1  1  0.32017200  0.24565100  0.64887100  1
  Si  Si2  1  0.74938200  0.67906600  0.85347800  1
  Si  Si3  1  0.24938200  0.82093400  0.64652200  1
  Si  Si4  1  0.75061800  0.17906600  0.64652200  1
  Si  Si5  1  0.82017200  0.25434900  0.85112900  1
  Si  Si6  1  0.17982800  0.74565100  0.85112900  1
  Si  Si7  1  0.25061800  0.32093400  0.85347800  1
  Si  Si8  1  0.82093400  0.75061800  0.35347800  1
  Si  Si9  1  0.17906600  0.24938200  0.35347800  1
  Si  Si10  1  0.74565100  0.82017200  0.14887100  1
  Si  Si11  1  0.24565100  0.67982800  0.35112900  1
  Si  Si12  1  0.75434900  0.32017200  0.35112900  1
  Si  Si13  1  0.67906600  0.25061800  0.14652200  1
  Si  Si14  1  0.32093400  0.74938200  0.14652200  1
  Si  Si15  1  0.25434900  0.17982800  0.14887100  1
  O  O0  1  0.76196500  0.59643400  0.58439900  1
  O  O1  1  0.23803500  0.40356600  0.58439900  1
  O  O2  1  0.59677300  0.76911500  0.91611300  1
  O  O3  1  0.09677300  0.73088500  0.58388700  1
  O  O4  1  0.90322700  0.26911500  0.58388700  1
  O  O5  1  0.73803500  0.09643400  0.91560100  1
  O  O6  1  0.26196500  0.90356600  0.91560100  1
  O  O7  1  0.40322700  0.23088500  0.91611300  1
  O  O8  1  0.73088500  0.90322700  0.41611300  1
  O  O9  1  0.26911500  0.09677300  0.41611300  1
  O  O10  1  0.90356600  0.73803500  0.08439900  1
  O  O11  1  0.40356600  0.76196500  0.41560100  1
  O  O12  1  0.59643400  0.23803500  0.41560100  1
  O  O13  1  0.76911500  0.40322700  0.08388700  1
  O  O14  1  0.23088500  0.59677300  0.08388700  1
  O  O15  1  0.74056200  0.54157700  0.37530100  1
  O  O16  1  0.09643400  0.26196500  0.08439900  1
  O  O17  1  0.24846400  0.04045500  0.62798400  1
  O  O18  1  0.95842300  0.75943800  0.87530100  1
  O  O19  1  0.45842300  0.74056200  0.62469900  1
  O  O20  1  0.54157700  0.25943800  0.62469900  1
  O  O21  1  0.74846400  0.45954500  0.87201600  1
  O  O22  1  0.25153600  0.54045500  0.87201600  1
  O  O23  1  0.04157700  0.24056200  0.87530100  1
  O  O24  1  0.20934200  0.21153900  0.25035500  1
  O  O25  1  0.29065800  0.71153900  0.24964500  1
  O  O26  1  0.70934200  0.28846100  0.24964500  1
  O  O27  1  0.79065800  0.78846100  0.25035500  1
  O  O28  1  0.28846100  0.29065800  0.75035500  1
  O  O29  1  0.21153900  0.79065800  0.74964500  1
  O  O30  1  0.78846100  0.20934200  0.74964500  1
  O  O31  1  0.71153900  0.70934200  0.75035500  1
  O  O32  1  0.45954500  0.25153600  0.12798400  1
  O  O33  1  0.24056200  0.95842300  0.12469900  1
  O  O34  1  0.75943800  0.04157700  0.12469900  1
  O  O35  1  0.95954500  0.24846400  0.37201600  1
  O  O36  1  0.04045500  0.75153600  0.37201600  1
  O  O37  1  0.54045500  0.74846400  0.12798400  1
  O  O38  1  0.25943800  0.45842300  0.37530100  1
  O  O39  1  0.75153600  0.95954500  0.62798400  1
loop_
_geom_bond_atom_site_label_1
_geom_bond_atom_site_label_2
_geom_bond_distance
_geom_bond_site_symmetry_2
Ca0 O0 2.412828 1_555
Ca0 O12 2.412828 1_555
Ca0 O1 2.412828 1_555
Ca0 O11 2.412828 1_555
Ca0 O15 2.620407 1_555
Ca0 O19 2.620407 1_555
Ca0 O20 2.620407 1_555
Ca0 O38 2.620407 1_555
Ca1 O5 2.412828 1_454
Ca1 O16 2.412828 1_555
Ca1 O10 2.412828 1_445
Ca1 O6 2.412828 1_544
Ca1 O34 2.620407 1_455
Ca1 O33 2.620407 1_545
Ca1 O23 2.620407 1_554
Ca1 O18 2.620407 1_444
Cu0 O3 1.820904 1_555
Cu0 O4 1.820904 1_455
Cu0 O1 1.867821 1_555
Cu0 O0 1.867821 1_455
Cu1 O7 1.820904 1_555
Cu1 O2 1.820904 1_545
Cu1 O5 1.867821 1_555
Cu1 O6 1.867821 1_545
Cu2 O8 1.820904 1_545
Cu2 O9 1.820904 1_555
Cu2 O11 1.867821 1_545
Cu2 O12 1.867821 1_555
Cu3 O14 1.820904 1_555
Cu3 O13 1.820904 1_455
Cu3 O16 1.867821 1_555
Cu3 O10 1.867821 1_455
O0 Si0 1.633479 1_555
O1 Si1 1.633479 1_555
O2 Si2 1.611637 1_555
O3 Si3 1.611637 1_555
O4 Si4 1.611637 1_555
O5 Si5 1.633479 1_555
O6 Si6 1.633479 1_555
O7 Si7 1.611637 1_555
O8 Si8 1.611637 1_555
O9 Si9 1.611637 1_555
O10 Si10 1.633479 1_555
O11 Si11 1.633479 1_555
O12 Si12 1.633479 1_555
O13 Si13 1.611637 1_555
O14 Si14 1.611637 1_555
O15 Si12 1.655645 1_555
O15 Si8 1.662960 1_555
O16 Si15 1.633479 1_555
O17 Si1 1.613079 1_555
O17 Si3 1.621647 1_545
O18 Si6 1.655645 1_655
O18 Si2 1.662960 1_555
O19 Si0 1.655645 1_555
O19 Si3 1.662960 1_555
O20 Si1 1.655645 1_555
O20 Si4 1.662960 1_555
O21 Si5 1.613079 1_555
O21 Si2 1.621647 1_555
O22 Si6 1.613079 1_555
O22 Si7 1.621647 1_555
O23 Si5 1.655645 1_455
O23 Si7 1.662960 1_555
O24 Si15 1.619044 1_555
O24 Si9 1.632593 1_555
O25 Si11 1.619044 1_555
O25 Si14 1.632593 1_555
O26 Si12 1.619044 1_555
O26 Si13 1.632593 1_555
O27 Si10 1.619044 1_555
O27 Si8 1.632593 1_555
O28 Si1 1.619044 1_555
O28 Si7 1.632593 1_555
O29 Si6 1.619044 1_555
O29 Si3 1.632593 1_555
O30 Si5 1.619044 1_555
O30 Si4 1.632593 1_555
O31 Si0 1.619044 1_555
O31 Si2 1.632593 1_555
O32 Si15 1.613079 1_555
O32 Si13 1.621647 1_555
O33 Si15 1.655645 1_565
O33 Si14 1.662960 1_555
O34 Si10 1.655645 1_545
O34 Si13 1.662960 1_555
O35 Si12 1.613079 1_555
O35 Si9 1.621647 1_655
O36 Si11 1.613079 1_555
O36 Si8 1.621647 1_455
O37 Si10 1.613079 1_555
O37 Si14 1.621647 1_555
O38 Si11 1.655645 1_555
O38 Si9 1.662960 1_555
O39 Si0 1.613079 1_555
O39 Si4 1.621647 1_565
