# generated using pymatgen
data_Li6Zn3(PS4)4
_symmetry_space_group_name_H-M   'P 1'
_cell_length_a   9.28960200
_cell_length_b   11.59157600
_cell_length_c   11.59637537
_cell_angle_alpha   89.92715725
_cell_angle_beta   90.00000000
_cell_angle_gamma   90.00000000
_symmetry_Int_Tables_number   1
_chemical_formula_structural   Li6Zn3(PS4)4
_chemical_formula_sum   'Li12 Zn6 P8 S32'
_cell_volume   1248.70976686
_cell_formula_units_Z   2
loop_
 _symmetry_equiv_pos_site_id
 _symmetry_equiv_pos_as_xyz
  1  'x, y, z'
loop_
 _atom_site_type_symbol
 _atom_site_label
 _atom_site_symmetry_multiplicity
 _atom_site_fract_x
 _atom_site_fract_y
 _atom_site_fract_z
 _atom_site_occupancy
  Li  Li0  1  0.75142500  0.37774800  0.88012800  1
  Li  Li1  1  0.25142500  0.62225200  0.11987200  1
  Li  Li2  1  0.50046200  0.12341700  0.87566300  1
  Li  Li3  1  0.49841700  0.12614000  0.37343900  1
  Li  Li4  1  0.49862800  0.62664400  0.87341600  1
  Li  Li5  1  0.50257500  0.62315700  0.37719800  1
  Li  Li6  1  0.99841700  0.87386000  0.62656100  1
  Li  Li7  1  0.00046200  0.87658300  0.12433700  1
  Li  Li8  1  0.00257500  0.37684300  0.62280200  1
  Li  Li9  1  0.99862800  0.37335600  0.12658400  1
  Li  Li10  1  0.00031800  0.62659600  0.87278400  1
  Li  Li11  1  0.50031800  0.37340400  0.12721600  1
  Zn  Zn0  1  0.00657900  0.12345500  0.87771600  1
  Zn  Zn1  1  0.00002100  0.12649100  0.37404300  1
  Zn  Zn2  1  0.99394800  0.62540700  0.37644200  1
  Zn  Zn3  1  0.50002100  0.87350900  0.62595700  1
  Zn  Zn4  1  0.50657900  0.87654500  0.12228400  1
  Zn  Zn5  1  0.49394800  0.37459300  0.62355800  1
  P  P0  1  0.74736600  0.12575600  0.62482800  1
  P  P1  1  0.75332800  0.12444400  0.12036100  1
  P  P2  1  0.75239200  0.62893200  0.62506800  1
  P  P3  1  0.74672400  0.62116800  0.12906200  1
  P  P4  1  0.25332800  0.87555600  0.87963900  1
  P  P5  1  0.24736600  0.87424400  0.37517200  1
  P  P6  1  0.24672400  0.37883200  0.87093800  1
  P  P7  1  0.25239200  0.37106800  0.37493200  1
  S  S0  1  0.86231700  0.73073700  0.73387900  1
  S  S1  1  0.87094800  0.72871100  0.23220300  1
  S  S2  1  0.87004400  0.22877100  0.73624200  1
  S  S3  1  0.86473800  0.22858200  0.23408500  1
  S  S4  1  0.86585900  0.02308100  0.51566400  1
  S  S5  1  0.86904300  0.01802600  0.01255700  1
  S  S6  1  0.86139100  0.52048700  0.51369900  1
  S  S7  1  0.86954500  0.52091300  0.01906900  1
  S  S8  1  0.13718500  0.98442900  0.77326900  1
  S  S9  1  0.13451900  0.98563800  0.27076000  1
  S  S10  1  0.12854900  0.48222100  0.76795200  1
  S  S11  1  0.13092500  0.48584100  0.27200000  1
  S  S12  1  0.13510900  0.76232200  0.47933700  1
  S  S13  1  0.13338300  0.76722400  0.98138900  1
  S  S14  1  0.12905700  0.26619600  0.47952200  1
  S  S15  1  0.13520700  0.26618800  0.97890300  1
  S  S16  1  0.36585900  0.97691900  0.48433600  1
  S  S17  1  0.36904300  0.98197400  0.98744300  1
  S  S18  1  0.36139100  0.47951300  0.48630100  1
  S  S19  1  0.36954500  0.47908700  0.98093100  1
  S  S20  1  0.36473800  0.77141800  0.76591500  1
  S  S21  1  0.37004400  0.77122900  0.26375800  1
  S  S22  1  0.37094800  0.27128900  0.76779700  1
  S  S23  1  0.36231700  0.26926300  0.26612100  1
  S  S24  1  0.62905700  0.73380400  0.52047800  1
  S  S25  1  0.63520700  0.73381200  0.02109700  1
  S  S26  1  0.63510900  0.23767800  0.52066300  1
  S  S27  1  0.63338300  0.23277600  0.01861100  1
  S  S28  1  0.63451900  0.01436200  0.72924000  1
  S  S29  1  0.63718500  0.01557100  0.22673100  1
  S  S30  1  0.63092500  0.51415900  0.72800000  1
  S  S31  1  0.62854900  0.51777900  0.23204800  1
loop_
_geom_bond_atom_site_label_1
_geom_bond_atom_site_label_2
_geom_bond_distance
_geom_bond_site_symmetry_2
Li0 S7 2.561408 1_556
Li0 S27 2.568741 1_556
Li0 S30 2.618850 1_555
Li0 S2 2.643435 1_555
Li1 S19 2.561408 1_554
Li1 S13 2.568741 1_554
Li1 S11 2.618850 1_555
Li1 S21 2.643435 1_555
Li2 S17 2.419377 1_545
Li2 S27 2.425871 1_556
Li2 S22 2.438186 1_555
Li2 S28 2.457120 1_555
Li3 S23 2.427833 1_555
Li3 S16 2.481211 1_545
Li3 S29 2.490854 1_555
Li3 S26 2.490861 1_555
Li4 S20 2.431453 1_555
Li4 S19 2.431561 1_555
Li4 S30 2.461646 1_555
Li4 S25 2.468041 1_556
Li5 S31 2.387462 1_555
Li5 S24 2.406582 1_555
Li5 S18 2.467376 1_555
Li5 S21 2.487272 1_555
Li6 S0 2.427833 1_555
Li6 S4 2.481211 1_565
Li6 S8 2.490854 1_655
Li6 S12 2.490861 1_655
Li7 S5 2.419377 1_465
Li7 S13 2.425871 1_554
Li7 S1 2.438186 1_455
Li7 S9 2.457120 1_555
Li8 S10 2.387462 1_555
Li8 S14 2.406582 1_555
Li8 S6 2.467376 1_455
Li8 S2 2.487272 1_455
Li9 S3 2.431453 1_555
Li9 S7 2.431561 1_555
Li9 S11 2.461646 1_655
Li9 S15 2.468041 1_654
Li10 S0 2.385457 1_455
Li10 S10 2.388041 1_555
Li10 S13 2.403454 1_555
Li10 S7 2.418454 1_456
Li11 S23 2.385457 1_555
Li11 S31 2.388041 1_555
Li11 S27 2.403454 1_555
Li11 S19 2.418454 1_554
P0 S26 2.055658 1_555
P0 S28 2.056279 1_555
P0 S4 2.057790 1_555
P0 S2 2.097100 1_555
P1 S27 2.051069 1_555
P1 S5 2.060078 1_555
P1 S3 2.066766 1_555
P1 S29 2.067443 1_555
P2 S0 2.007814 1_555
P2 S24 2.063433 1_555
P2 S6 2.068208 1_555
P2 S30 2.112804 1_555
P3 S31 2.015949 1_555
P3 S7 2.069544 1_555
P3 S1 2.078472 1_555
P3 S25 2.083615 1_555
P4 S13 2.051069 1_555
P4 S17 2.060078 1_555
P4 S20 2.066766 1_555
P4 S8 2.067443 1_555
P5 S12 2.055658 1_555
P5 S9 2.056279 1_555
P5 S16 2.057790 1_555
P5 S21 2.097100 1_555
P6 S10 2.015949 1_555
P6 S19 2.069544 1_555
P6 S22 2.078472 1_555
P6 S15 2.083615 1_555
P7 S23 2.007814 1_555
P7 S14 2.063433 1_555
P7 S18 2.068208 1_555
P7 S11 2.112804 1_555
S1 Zn2 2.352052 1_555
S2 Zn0 2.405297 1_655
S3 Zn1 2.368343 1_655
S4 Zn1 2.383747 1_655
S5 Zn0 2.359258 1_654
S6 Zn2 2.350319 1_555
S8 Zn0 2.353945 1_565
S9 Zn1 2.380398 1_565
S11 Zn2 2.389198 1_455
S12 Zn2 2.380527 1_455
S14 Zn1 2.358075 1_555
S15 Zn0 2.355202 1_555
S16 Zn3 2.383747 1_555
S17 Zn4 2.359258 1_556
S18 Zn5 2.350319 1_555
S20 Zn3 2.368343 1_555
S21 Zn4 2.405297 1_555
S22 Zn5 2.352052 1_555
S24 Zn3 2.358075 1_555
S25 Zn4 2.355202 1_555
S26 Zn5 2.380527 1_555
S28 Zn3 2.380398 1_545
S29 Zn4 2.353945 1_545
S30 Zn5 2.389198 1_555
