# generated using pymatgen
data_Li4MnCo2O7
_symmetry_space_group_name_H-M   'P 1'
_cell_length_a   2.98473241
_cell_length_b   2.98473241
_cell_length_c   34.49033675
_cell_angle_alpha   86.38162092
_cell_angle_beta   86.38162092
_cell_angle_gamma   57.57735905
_symmetry_Int_Tables_number   1
_chemical_formula_structural   Li4MnCo2O7
_chemical_formula_sum   'Li8 Mn2 Co4 O14'
_cell_volume   258.69108678
_cell_formula_units_Z   2
loop_
 _symmetry_equiv_pos_site_id
 _symmetry_equiv_pos_as_xyz
  1  'x, y, z'
loop_
 _atom_site_type_symbol
 _atom_site_label
 _atom_site_symmetry_multiplicity
 _atom_site_fract_x
 _atom_site_fract_y
 _atom_site_fract_z
 _atom_site_occupancy
  Li  Li0  1  0.72658600  0.72658600  0.92441300  1
  Li  Li1  1  0.13125300  0.13125300  0.78699800  1
  Li  Li2  1  0.57075800  0.57075800  0.64314800  1
  Li  Li3  1  0.99901900  0.99901900  0.49998200  1
  Li  Li4  1  0.42452200  0.42452200  0.35919900  1
  Li  Li5  1  0.86088000  0.86088000  0.21267600  1
  Li  Li6  1  0.28237600  0.28237600  0.07388100  1
  Li  Li7  1  0.42867500  0.42867500  0.85586700  1
  Mn  Mn0  1  0.00266200  0.00266200  0.00107100  1
  Mn  Mn1  1  0.14367900  0.14367900  0.28611800  1
  Co  Co0  1  0.85765300  0.85765300  0.71257700  1
  Co  Co1  1  0.28491200  0.28491200  0.57182500  1
  Co  Co2  1  0.71177900  0.71177900  0.42978200  1
  Co  Co3  1  0.57168700  0.57168700  0.14306400  1
  O  O0  1  0.36993400  0.36993400  0.97003900  1
  O  O1  1  0.78754200  0.78754200  0.81826500  1
  O  O2  1  0.23272800  0.23272800  0.68097200  1
  O  O3  1  0.61446500  0.61446500  0.53908300  1
  O  O4  1  0.08921300  0.08921300  0.39801000  1
  O  O5  1  0.52433500  0.52433500  0.25311700  1
  O  O6  1  0.92132200  0.92132200  0.10964100  1
  O  O7  1  0.07132700  0.07132700  0.89340900  1
  O  O8  1  0.49154400  0.49154400  0.74172500  1
  O  O9  1  0.95471100  0.95471100  0.60439200  1
  O  O10  1  0.33514400  0.33514400  0.46114000  1
  O  O11  1  0.76038000  0.76038000  0.31984300  1
  O  O12  1  0.22207400  0.22207400  0.17633600  1
  O  O13  1  0.62883900  0.62883900  0.03342600  1
loop_
_geom_bond_atom_site_label_1
_geom_bond_atom_site_label_2
_geom_bond_distance
_geom_bond_site_symmetry_2
Li0 O7 1.998608 1_565
Li0 O7 1.998608 1_655
Li0 O7 2.029425 1_665
Li0 O0 2.296708 1_565
Li0 O0 2.296708 1_655
Li0 O0 2.352660 1_555
Li1 O1 2.006140 1_545
Li1 O1 2.006140 1_455
Li1 O1 2.029069 1_445
Li1 O8 2.280989 1_545
Li1 O8 2.280989 1_455
Li1 O8 2.359500 1_555
Li2 O9 2.082869 1_545
Li2 O9 2.082869 1_455
Li2 O2 2.120624 1_555
Li2 O2 2.155276 1_655
Li2 O2 2.155276 1_565
Li2 O9 2.331306 1_555
Li3 O3 2.089718 1_565
Li3 O3 2.089718 1_655
Li3 O10 2.132538 1_665
Li3 O10 2.182030 1_655
Li3 O10 2.182030 1_565
Li3 O3 2.339985 1_555
Li4 O4 2.128604 1_555
Li4 O11 2.141590 1_555
Li4 O4 2.183214 1_565
Li4 O4 2.183214 1_655
Li4 O11 2.194067 1_455
Li4 O11 2.194067 1_545
Li5 O12 2.072553 1_655
Li5 O12 2.072553 1_565
Li5 O5 2.166068 1_555
Li5 O12 2.191026 1_665
Li5 O5 2.216905 1_655
Li5 O5 2.216905 1_565
Li6 O6 2.060299 1_455
Li6 O6 2.060299 1_545
Li6 O6 2.180287 1_445
Li6 O13 2.195358 1_455
Li6 O13 2.195358 1_545
Li6 O13 2.206367 1_555
Li7 O1 2.105027 1_455
Li7 O1 2.105027 1_545
Li7 O7 2.106854 1_565
Li7 O7 2.106854 1_655
Li7 O7 2.196148 1_555
Li7 O1 2.203671 1_555
Mn0 O0 1.949577 1_544
Mn0 O0 1.949577 1_454
Mn0 O13 1.962967 1_545
Mn0 O13 1.962967 1_455
Mn0 O0 2.131031 1_554
Mn0 O13 2.180779 1_445
Mn1 O5 1.963111 1_455
Mn1 O5 1.963111 1_545
Mn1 O11 1.973355 1_455
Mn1 O11 1.973355 1_545
Mn1 O5 2.221483 1_555
Mn1 O11 2.244603 1_445
Co0 O8 1.915423 1_655
Co0 O8 1.915423 1_565
Co0 O2 1.945272 1_565
Co0 O2 1.945272 1_655
Co0 O8 2.098079 1_555
Co0 O2 2.175006 1_665
Co1 O9 1.991599 1_445
Co1 O3 1.991836 1_555
Co1 O9 2.064124 1_545
Co1 O9 2.064124 1_455
Co1 O3 2.069193 1_455
Co1 O3 2.069193 1_545
Co2 O10 1.937243 1_655
Co2 O10 1.937243 1_565
Co2 O4 1.944040 1_655
Co2 O4 1.944040 1_565
Co2 O10 2.178390 1_555
Co2 O4 2.188208 1_665
Co3 O12 2.032740 1_655
Co3 O12 2.032740 1_565
Co3 O6 2.035780 1_545
Co3 O6 2.035780 1_455
Co3 O12 2.088070 1_555
Co3 O6 2.090705 1_555
