# generated using pymatgen
data_SmMoO5
_symmetry_space_group_name_H-M   'P 1'
_cell_length_a   12.80044900
_cell_length_b   5.44173700
_cell_length_c   7.09425497
_cell_angle_alpha   63.45869680
_cell_angle_beta   90.00000000
_cell_angle_gamma   90.00000000
_symmetry_Int_Tables_number   1
_chemical_formula_structural   SmMoO5
_chemical_formula_sum   'Sm4 Mo4 O20'
_cell_volume   442.08369278
_cell_formula_units_Z   4
loop_
 _symmetry_equiv_pos_site_id
 _symmetry_equiv_pos_as_xyz
  1  'x, y, z'
loop_
 _atom_site_type_symbol
 _atom_site_label
 _atom_site_symmetry_multiplicity
 _atom_site_fract_x
 _atom_site_fract_y
 _atom_site_fract_z
 _atom_site_occupancy
  Sm  Sm0  1  0.06037500  0.65798900  0.71533300  1
  Sm  Sm1  1  0.93962500  0.34201100  0.28466700  1
  Sm  Sm2  1  0.56037500  0.34201100  0.78466700  1
  Sm  Sm3  1  0.43962500  0.65798900  0.21533300  1
  Mo  Mo0  1  0.36466200  0.91526200  0.64500600  1
  Mo  Mo1  1  0.63533800  0.08473800  0.35499400  1
  Mo  Mo2  1  0.86466200  0.08473800  0.85499400  1
  Mo  Mo3  1  0.13533800  0.91526200  0.14500600  1
  O  O0  1  0.44513700  0.45807500  0.98580400  1
  O  O1  1  0.55486300  0.54192500  0.01419600  1
  O  O2  1  0.94513700  0.54192500  0.51419600  1
  O  O3  1  0.05486300  0.45807500  0.48580400  1
  O  O4  1  0.92478600  0.98760000  0.66166300  1
  O  O5  1  0.07521400  0.01240000  0.33833700  1
  O  O6  1  0.42478600  0.01240000  0.83833700  1
  O  O7  1  0.57521400  0.98760000  0.16166300  1
  O  O8  1  0.43934700  0.70510000  0.54501700  1
  O  O9  1  0.56065300  0.29490000  0.45498300  1
  O  O10  1  0.93934700  0.29490000  0.95498300  1
  O  O11  1  0.06065300  0.70510000  0.04501700  1
  O  O12  1  0.23755200  0.78069500  0.72809200  1
  O  O13  1  0.76244800  0.21930500  0.27190800  1
  O  O14  1  0.73755200  0.21930500  0.77190800  1
  O  O15  1  0.26244800  0.78069500  0.22809200  1
  O  O16  1  0.65535600  0.76941700  0.57937600  1
  O  O17  1  0.34464400  0.23058300  0.42062400  1
  O  O18  1  0.15535600  0.23058300  0.92062400  1
  O  O19  1  0.84464400  0.76941700  0.07937600  1
loop_
_geom_bond_atom_site_label_1
_geom_bond_atom_site_label_2
_geom_bond_distance
_geom_bond_site_symmetry_2
Mo0 O17 1.761488 1_565
Mo0 O12 1.773489 1_555
Mo0 O6 1.844115 1_565
Mo0 O8 1.857427 1_555
Mo0 O0 2.778586 1_555
Mo1 O16 1.761488 1_545
Mo1 O13 1.773489 1_555
Mo1 O7 1.844115 1_545
Mo1 O9 1.857427 1_555
Mo1 O1 2.778586 1_555
Mo2 O19 1.761488 1_546
Mo2 O14 1.773489 1_555
Mo2 O4 1.844115 1_545
Mo2 O10 1.857427 1_555
Mo2 O2 2.778586 1_555
Mo3 O18 1.761488 1_564
Mo3 O15 1.773489 1_555
Mo3 O5 1.844115 1_565
Mo3 O11 1.857427 1_555
Mo3 O3 2.778586 1_555
O0 O1 1.517776 1_556
O0 Sm2 2.327300 1_555
O0 Sm3 2.328744 1_556
O1 Sm3 2.327300 1_555
O1 Sm2 2.328744 1_554
O2 O3 1.517776 1_655
O2 Sm0 2.327300 1_655
O2 Sm1 2.328744 1_555
O3 Sm1 2.327300 1_455
O3 Sm0 2.328744 1_555
O4 Sm0 2.400865 1_655
O4 Sm1 2.509761 1_565
O5 Sm1 2.400865 1_455
O5 Sm0 2.509761 1_545
O6 Sm2 2.400865 1_555
O6 Sm3 2.509761 1_546
O7 Sm3 2.400865 1_555
O7 Sm2 2.509761 1_564
O8 Sm3 2.464117 1_555
O8 Sm2 2.488452 1_555
O9 Sm2 2.464117 1_555
O9 Sm3 2.488452 1_555
O10 Sm1 2.464117 1_556
O10 Sm0 2.488452 1_655
O11 Sm0 2.464117 1_554
O11 Sm1 2.488452 1_455
O12 Sm0 2.377320 1_555
O13 Sm1 2.377320 1_555
O14 Sm2 2.377320 1_555
O15 Sm3 2.377320 1_555
O16 Sm2 2.445717 1_555
O17 Sm3 2.445717 1_555
O18 Sm0 2.445717 1_555
O19 Sm1 2.445717 1_555
