# generated using pymatgen
data_Mg(CoGe)6
_symmetry_space_group_name_H-M   'P 1'
_cell_length_a   5.01894469
_cell_length_b   5.01894654
_cell_length_c   7.60828437
_cell_angle_alpha   90.00000000
_cell_angle_beta   90.00000000
_cell_angle_gamma   120.00000131
_symmetry_Int_Tables_number   1
_chemical_formula_structural   Mg(CoGe)6
_chemical_formula_sum   'Mg1 Co6 Ge6'
_cell_volume   165.97487179
_cell_formula_units_Z   1
loop_
 _symmetry_equiv_pos_site_id
 _symmetry_equiv_pos_as_xyz
  1  'x, y, z'
loop_
 _atom_site_type_symbol
 _atom_site_label
 _atom_site_symmetry_multiplicity
 _atom_site_fract_x
 _atom_site_fract_y
 _atom_site_fract_z
 _atom_site_occupancy
  Mg  Mg0  1  0.00000000  -0.00000000  -0.00000000  1
  Co  Co0  1  0.50000000  0.00000000  0.74995737  1
  Co  Co1  1  0.00000000  0.50000000  0.74995737  1
  Co  Co2  1  0.50000000  0.50000000  0.74995737  1
  Co  Co3  1  0.00000000  0.50000000  0.25004263  1
  Co  Co4  1  0.50000000  -0.00000000  0.25004263  1
  Co  Co5  1  0.50000000  0.50000000  0.25004263  1
  Ge  Ge0  1  0.66666700  0.33333300  0.50000000  1
  Ge  Ge1  1  0.33333300  0.66666700  0.50000000  1
  Ge  Ge2  1  0.66666700  0.33333300  -0.00000000  1
  Ge  Ge3  1  0.00000000  0.00000000  0.33724728  1
  Ge  Ge4  1  -0.00000000  -0.00000000  0.66275272  1
  Ge  Ge5  1  0.33333300  0.66666700  -0.00000000  1
loop_
_geom_bond_atom_site_label_1
_geom_bond_atom_site_label_2
_geom_bond_distance
_geom_bond_site_symmetry_2
Co0 Ge1 2.390772 1_545
Co0 Ge0 2.390772 1_555
Co0 Ge5 2.391288 1_546
Co0 Ge2 2.391288 1_556
Co0 Co1 2.509473 1_545
Co0 Co1 2.509473 1_655
Co0 Co2 2.509473 1_555
Co0 Co2 2.509473 1_545
Co0 Ge4 2.595699 1_655
Co0 Ge4 2.595699 1_555
Co0 Mg0 3.149057 1_656
Co0 Mg0 3.149057 1_556
Co1 Ge0 2.390771 1_455
Co1 Ge1 2.390771 1_555
Co1 Ge2 2.391287 1_456
Co1 Ge5 2.391287 1_556
Co1 Co2 2.509472 1_555
Co1 Co2 2.509472 1_455
Co1 Ge4 2.595700 1_565
Co1 Ge4 2.595700 1_555
Co1 Mg0 3.149058 1_556
Co1 Mg0 3.149058 1_566
Co2 Ge0 2.390774 1_555
Co2 Ge1 2.390774 1_555
Co2 Ge5 2.391290 1_556
Co2 Ge2 2.391290 1_556
Co2 Ge4 2.595700 1_555
Co2 Ge4 2.595700 1_665
Co2 Mg0 3.149057 1_666
Co2 Mg0 3.149057 1_556
Co3 Ge1 2.390771 1_555
Co3 Ge0 2.390771 1_455
Co3 Ge5 2.391287 1_555
Co3 Ge2 2.391287 1_455
Co3 Co5 2.509472 1_555
Co3 Co5 2.509472 1_455
Co3 Co4 2.509473 1_455
Co3 Co4 2.509473 1_565
Co3 Ge3 2.595700 1_555
Co3 Ge3 2.595700 1_565
Co3 Mg0 3.149058 1_555
Co3 Mg0 3.149058 1_565
Co4 Ge0 2.390772 1_555
Co4 Ge1 2.390772 1_545
Co4 Ge5 2.391288 1_545
Co4 Ge2 2.391288 1_555
Co4 Co5 2.509473 1_555
Co4 Co5 2.509473 1_545
Co4 Ge3 2.595699 1_555
Co4 Ge3 2.595699 1_655
Co4 Mg0 3.149057 1_655
Co4 Mg0 3.149057 1_555
Co5 Ge1 2.390774 1_555
Co5 Ge0 2.390774 1_555
Co5 Ge5 2.391290 1_555
Co5 Ge2 2.391290 1_555
Co5 Ge3 2.595700 1_665
Co5 Ge3 2.595700 1_555
Co5 Mg0 3.149057 1_555
Co5 Mg0 3.149057 1_665
Ge2 Mg0 2.897687 1_655
Ge2 Mg0 2.897690 1_555
Ge2 Mg0 2.897692 1_665
Ge3 Ge4 2.476538 1_555
Ge3 Mg0 2.565873 1_555
Ge4 Mg0 2.565873 1_556
Ge5 Mg0 2.897687 1_565
Ge5 Mg0 2.897690 1_665
Ge5 Mg0 2.897692 1_555
