# generated using pymatgen
data_Li11(MoO2)12
_symmetry_space_group_name_H-M   'P 1'
_cell_length_a   7.04070000
_cell_length_b   8.29169803
_cell_length_c   9.35174905
_cell_angle_alpha   102.00897619
_cell_angle_beta   96.15142174
_cell_angle_gamma   92.77468948
_symmetry_Int_Tables_number   1
_chemical_formula_structural   Li11(MoO2)12
_chemical_formula_sum   'Li11 Mo12 O24'
_cell_volume   529.52124839
_cell_formula_units_Z   1
loop_
 _symmetry_equiv_pos_site_id
 _symmetry_equiv_pos_as_xyz
  1  'x, y, z'
loop_
 _atom_site_type_symbol
 _atom_site_label
 _atom_site_symmetry_multiplicity
 _atom_site_fract_x
 _atom_site_fract_y
 _atom_site_fract_z
 _atom_site_occupancy
  Li  Li0  1  0.83539600  0.32482100  0.16024900  1
  Li  Li1  1  0.16460400  0.67517900  0.83975100  1
  Li  Li2  1  0.50000000  0.00000000  0.50000000  1
  Li  Li3  1  0.00000000  0.50000000  0.50000000  1
  Li  Li4  1  0.32096300  0.83258700  0.15544700  1
  Li  Li5  1  0.67903700  0.16741300  0.84455300  1
  Li  Li6  1  0.83607300  0.84739500  0.68167500  1
  Li  Li7  1  0.16392700  0.15260500  0.31832500  1
  Li  Li8  1  0.50000000  0.50000000  0.00000000  1
  Li  Li9  1  0.33005500  0.32670000  0.67079900  1
  Li  Li10  1  0.66994500  0.67330000  0.32920100  1
  Mo  Mo0  1  0.24713600  0.50354100  0.25003000  1
  Mo  Mo1  1  0.59227100  0.83436000  0.91644300  1
  Mo  Mo2  1  0.91556100  0.16692600  0.57987100  1
  Mo  Mo3  1  0.75286400  0.49645900  0.74997000  1
  Mo  Mo4  1  0.08443900  0.83307400  0.42012900  1
  Mo  Mo5  1  0.40772900  0.16564000  0.08355700  1
  Mo  Mo6  1  0.91986900  0.67102300  0.08281100  1
  Mo  Mo7  1  0.24956500  0.99470800  0.75126800  1
  Mo  Mo8  1  0.57654400  0.34072500  0.41899600  1
  Mo  Mo9  1  0.08013100  0.32897700  0.91718900  1
  Mo  Mo10  1  0.42345600  0.65927500  0.58100400  1
  Mo  Mo11  1  0.75043500  0.00529200  0.24873200  1
  O  O0  1  0.86650300  0.73427400  0.86860800  1
  O  O1  1  0.19728700  0.07737800  0.54292600  1
  O  O2  1  0.52498800  0.41296700  0.20942400  1
  O  O3  1  0.03053800  0.40741100  0.70707300  1
  O  O4  1  0.36816200  0.74640400  0.37896800  1
  O  O5  1  0.68377000  0.08379000  0.04284200  1
  O  O6  1  0.13349700  0.26572600  0.13139200  1
  O  O7  1  0.47501200  0.58703300  0.79057600  1
  O  O8  1  0.80271300  0.92262200  0.45707400  1
  O  O9  1  0.96946200  0.59258900  0.29292700  1
  O  O10  1  0.31623000  0.91621000  0.95715800  1
  O  O11  1  0.63183800  0.25359600  0.62103200  1
  O  O12  1  0.19751600  0.57738000  0.04085300  1
  O  O13  1  0.53107600  0.89835100  0.70203500  1
  O  O14  1  0.84772600  0.25506900  0.37454300  1
  O  O15  1  0.80248400  0.42262000  0.95914700  1
  O  O16  1  0.15227400  0.74493100  0.62545700  1
  O  O17  1  0.46892400  0.10164900  0.29796500  1
  O  O18  1  0.29811200  0.42180900  0.46140200  1
  O  O19  1  0.64179600  0.76038700  0.12683200  1
  O  O20  1  0.96967000  0.08774000  0.78210900  1
  O  O21  1  0.70188800  0.57819100  0.53859800  1
  O  O22  1  0.03033000  0.91226000  0.21789100  1
  O  O23  1  0.35820400  0.23961300  0.87316800  1
loop_
_geom_bond_atom_site_label_1
_geom_bond_atom_site_label_2
_geom_bond_distance
_geom_bond_site_symmetry_2
Li0 O15 2.192618 1_554
Li0 O14 2.192725 1_555
Li0 O6 2.209973 1_655
Li0 O5 2.229017 1_555
Li0 O2 2.398377 1_555
Li0 O9 2.399947 1_555
Li1 O12 2.192618 1_556
Li1 O16 2.192725 1_555
Li1 O0 2.209973 1_455
Li1 O10 2.229017 1_555
Li1 O7 2.398377 1_555
Li1 O3 2.399947 1_555
Li2 O17 2.218094 1_555
Li2 O13 2.218094 1_545
Li2 O11 2.271501 1_555
Li2 O4 2.271501 1_545
Li2 O1 2.307348 1_555
Li2 O8 2.307348 1_545
Li3 O9 2.220594 1_455
Li3 O3 2.220594 1_555
Li3 O18 2.269982 1_555
Li3 O21 2.269982 1_455
Li3 O16 2.275644 1_555
Li3 O14 2.275644 1_455
Li4 O10 2.108205 1_554
Li4 O12 2.249532 1_555
Li4 O22 2.278387 1_555
Li4 O4 2.342266 1_555
Li4 O19 2.392988 1_555
Li4 O17 2.465551 1_565
Li5 O5 2.108205 1_556
Li5 O15 2.249532 1_555
Li5 O20 2.278387 1_555
Li5 O11 2.342266 1_555
Li5 O23 2.392988 1_555
Li5 O13 2.465551 1_545
Li6 O20 2.142130 1_565
Li6 O0 2.145514 1_555
Li6 O13 2.228913 1_555
Li6 O8 2.304262 1_555
Li6 O21 2.438742 1_555
Li6 O16 2.490506 1_655
Li7 O22 2.142130 1_545
Li7 O6 2.145514 1_555
Li7 O17 2.228913 1_555
Li7 O1 2.304262 1_555
Li7 O18 2.438742 1_555
Li7 O14 2.490506 1_455
Li8 O2 2.216746 1_555
Li8 O7 2.216746 1_554
Li8 O15 2.301719 1_554
Li8 O12 2.301719 1_555
Li8 O19 2.353065 1_555
Li8 O23 2.353065 1_554
Li9 O23 2.155092 1_555
Li9 O18 2.252235 1_555
Li9 O1 2.263222 1_555
Li9 O3 2.281556 1_555
Li9 O11 2.306053 1_555
Li9 O7 2.343375 1_555
Li10 O19 2.155092 1_555
Li10 O21 2.252235 1_555
Li10 O8 2.263222 1_555
Li10 O9 2.281556 1_555
Li10 O4 2.306053 1_555
Li10 O2 2.343375 1_555
Mo0 O6 2.122747 1_555
Mo0 O12 2.167057 1_555
Mo0 O9 2.170895 1_455
Mo0 O2 2.172095 1_555
Mo0 O4 2.199646 1_555
Mo0 O18 2.219093 1_555
Mo1 O10 2.135794 1_555
Mo1 O19 2.178241 1_556
Mo1 O13 2.183404 1_555
Mo1 O5 2.186365 1_566
Mo1 O0 2.191462 1_555
Mo1 O7 2.212700 1_555
Mo2 O20 2.130663 1_555
Mo2 O3 2.167210 1_655
Mo2 O8 2.175794 1_545
Mo2 O1 2.188118 1_655
Mo2 O11 2.200846 1_555
Mo2 O14 2.206936 1_555
Mo3 O0 2.122747 1_555
Mo3 O15 2.167057 1_555
Mo3 O3 2.170895 1_655
Mo3 O7 2.172095 1_555
Mo3 O11 2.199646 1_555
Mo3 O21 2.219093 1_555
Mo4 O22 2.130663 1_555
Mo4 O9 2.167210 1_455
Mo4 O1 2.175794 1_565
Mo4 O8 2.188118 1_455
Mo4 O4 2.200846 1_555
Mo4 O16 2.206936 1_555
Mo5 O5 2.135794 1_555
Mo5 O23 2.178241 1_554
Mo5 O17 2.183404 1_555
Mo5 O10 2.186365 1_544
Mo5 O6 2.191462 1_555
Mo5 O2 2.212700 1_555
Mo6 O0 2.173450 1_554
Mo6 O19 2.176664 1_555
Mo6 O12 2.182377 1_655
Mo6 O22 2.188385 1_655
Mo6 O9 2.193772 1_555
Mo6 O15 2.214029 1_554
Mo7 O23 2.169724 1_565
Mo7 O10 2.169940 1_555
Mo7 O20 2.176723 1_465
Mo7 O16 2.195172 1_555
Mo7 O1 2.197264 1_565
Mo7 O13 2.230381 1_555
Mo8 O14 2.121615 1_555
Mo8 O17 2.126504 1_555
Mo8 O21 2.147223 1_555
Mo8 O18 2.153033 1_555
Mo8 O11 2.163536 1_555
Mo8 O2 2.165354 1_555
Mo9 O6 2.173450 1_556
Mo9 O23 2.176664 1_555
Mo9 O15 2.182377 1_455
Mo9 O20 2.188385 1_455
Mo9 O3 2.193772 1_555
Mo9 O12 2.214029 1_556
Mo10 O16 2.121615 1_555
Mo10 O13 2.126504 1_555
Mo10 O18 2.147223 1_555
Mo10 O21 2.153033 1_555
Mo10 O4 2.163536 1_555
Mo10 O7 2.165354 1_555
Mo11 O19 2.169724 1_545
Mo11 O5 2.169940 1_555
Mo11 O22 2.176723 1_645
Mo11 O14 2.195172 1_555
Mo11 O8 2.197264 1_545
Mo11 O17 2.230381 1_555
