# generated using pymatgen
data_Bi14MoO24
_symmetry_space_group_name_H-M   'P 1'
_cell_length_a   8.71110000
_cell_length_b   8.71110000
_cell_length_c   10.56018247
_cell_angle_alpha   65.64115051
_cell_angle_beta   65.64115051
_cell_angle_gamma   90.00000000
_symmetry_Int_Tables_number   1
_chemical_formula_structural   Bi14MoO24
_chemical_formula_sum   'Bi14 Mo1 O24'
_cell_volume   650.89893442
_cell_formula_units_Z   1
loop_
 _symmetry_equiv_pos_site_id
 _symmetry_equiv_pos_as_xyz
  1  'x, y, z'
loop_
 _atom_site_type_symbol
 _atom_site_label
 _atom_site_symmetry_multiplicity
 _atom_site_fract_x
 _atom_site_fract_y
 _atom_site_fract_z
 _atom_site_occupancy
  Bi  Bi0  1  0.12843400  0.72001700  0.33294300  1
  Bi  Bi1  1  0.53862300  0.94704000  0.33294300  1
  Bi  Bi2  1  0.72001700  0.53862300  0.33294300  1
  Bi  Bi3  1  0.94704000  0.12843400  0.33294300  1
  Bi  Bi4  1  0.87156600  0.27998300  0.66705700  1
  Bi  Bi5  1  0.46137700  0.05296000  0.66705700  1
  Bi  Bi6  1  0.27998300  0.46137700  0.66705700  1
  Bi  Bi7  1  0.05296000  0.87156600  0.66705700  1
  Bi  Bi8  1  0.79744800  0.43824100  0.00000000  1
  Bi  Bi9  1  0.20255200  0.56175900  0.00000000  1
  Bi  Bi10  1  0.43824100  0.20255200  0.00000000  1
  Bi  Bi11  1  0.56175900  0.79744800  0.00000000  1
  Bi  Bi12  1  0.34027600  0.34027600  0.31944800  1
  Bi  Bi13  1  0.65972400  0.65972400  0.68055200  1
  Mo  Mo0  1  0.00000000  0.00000000  0.00000000  1
  O  O0  1  0.61559400  0.11559400  0.76881200  1
  O  O1  1  0.11559400  0.61559400  0.76881200  1
  O  O2  1  0.38440600  0.88440600  0.23118800  1
  O  O3  1  0.88440600  0.38440600  0.23118800  1
  O  O4  1  0.17477500  0.50159000  0.49254600  1
  O  O5  1  0.33267900  0.00586400  0.49254600  1
  O  O6  1  0.50159000  0.33267900  0.49254600  1
  O  O7  1  0.00586400  0.17477500  0.49254600  1
  O  O8  1  0.82522500  0.49841000  0.50745400  1
  O  O9  1  0.66732100  0.99413600  0.50745400  1
  O  O10  1  0.49841000  0.66732100  0.50745400  1
  O  O11  1  0.99413600  0.82522500  0.50745400  1
  O  O12  1  0.76361900  0.71292100  0.83715100  1
  O  O13  1  0.39923000  0.44992800  0.83715100  1
  O  O14  1  0.71292100  0.39923000  0.83715100  1
  O  O15  1  0.44992800  0.76361900  0.83715100  1
  O  O16  1  0.23638100  0.28707900  0.16284900  1
  O  O17  1  0.60077000  0.55007200  0.16284900  1
  O  O18  1  0.28707900  0.60077000  0.16284900  1
  O  O19  1  0.55007200  0.23638100  0.16284900  1
  O  O20  1  0.98757100  0.21663500  0.00000000  1
  O  O21  1  0.01242900  0.78336500  0.00000000  1
  O  O22  1  0.21663500  0.01242900  0.00000000  1
  O  O23  1  0.78336500  0.98757100  0.00000000  1
loop_
_geom_bond_atom_site_label_1
_geom_bond_atom_site_label_2
_geom_bond_distance
_geom_bond_site_symmetry_2
Bi0 O4 2.130705 1_555
Bi0 O2 2.220696 1_555
Bi0 O11 2.284622 1_455
Bi0 O18 2.388890 1_555
Bi0 O8 2.673815 1_455
Bi1 O5 2.130705 1_565
Bi1 O2 2.220696 1_555
Bi1 O10 2.284622 1_555
Bi1 O19 2.388890 1_565
Bi1 O9 2.673815 1_555
Bi2 O6 2.130705 1_555
Bi2 O3 2.220696 1_555
Bi2 O8 2.284622 1_555
Bi2 O17 2.388890 1_555
Bi2 O10 2.673815 1_555
Bi3 O7 2.130705 1_655
Bi3 O3 2.220696 1_555
Bi3 O9 2.284622 1_545
Bi3 O16 2.388890 1_655
Bi3 O11 2.673815 1_545
Bi4 O8 2.130705 1_555
Bi4 O0 2.220696 1_555
Bi4 O7 2.284622 1_655
Bi4 O14 2.388890 1_555
Bi4 O4 2.673815 1_655
Bi5 O9 2.130705 1_545
Bi5 O0 2.220696 1_555
Bi5 O6 2.284622 1_555
Bi5 O15 2.388890 1_545
Bi5 O5 2.673815 1_555
Bi6 O10 2.130705 1_555
Bi6 O1 2.220696 1_555
Bi6 O4 2.284622 1_555
Bi6 O13 2.388890 1_555
Bi6 O6 2.673815 1_555
Bi7 O11 2.130705 1_455
Bi7 O1 2.220696 1_555
Bi7 O5 2.284622 1_565
Bi7 O12 2.388890 1_455
Bi7 O7 2.673815 1_565
Bi8 O19 2.267531 1_555
Bi8 O14 2.267531 1_554
Bi8 O12 2.406920 1_554
Bi8 O17 2.406920 1_555
Bi8 O20 2.543521 1_555
Bi8 O3 2.708356 1_555
Bi8 O1 2.708356 1_654
Bi9 O15 2.267531 1_554
Bi9 O18 2.267531 1_555
Bi9 O16 2.406920 1_555
Bi9 O13 2.406920 1_554
Bi9 O21 2.543521 1_555
Bi9 O3 2.708356 1_455
Bi9 O1 2.708356 1_554
Bi10 O13 2.267531 1_554
Bi10 O16 2.267531 1_555
Bi10 O14 2.406920 1_554
Bi10 O19 2.406920 1_555
Bi10 O22 2.543521 1_555
Bi10 O2 2.708356 1_545
Bi10 O0 2.708356 1_554
Bi11 O17 2.267531 1_555
Bi11 O12 2.267531 1_554
Bi11 O18 2.406920 1_555
Bi11 O15 2.406920 1_554
Bi11 O23 2.543521 1_555
Bi11 O2 2.708356 1_555
Bi11 O0 2.708356 1_564
Bi12 O16 2.373894 1_555
Bi12 O18 2.373894 1_555
Bi12 O19 2.373894 1_555
Bi12 O17 2.373894 1_555
Bi12 O7 2.709156 1_555
Bi12 O5 2.709156 1_555
Bi12 O4 2.709156 1_555
Bi12 O6 2.709156 1_555
Bi13 O14 2.373894 1_555
Bi13 O13 2.373894 1_555
Bi13 O12 2.373894 1_555
Bi13 O15 2.373894 1_555
Bi13 O10 2.709156 1_555
Bi13 O8 2.709156 1_555
Bi13 O11 2.709156 1_555
Bi13 O9 2.709156 1_555
Mo0 O21 1.890232 1_545
Mo0 O22 1.890232 1_555
Mo0 O20 1.890232 1_455
Mo0 O23 1.890232 1_445
