# generated using pymatgen
data_Mg14ZrAl
_symmetry_space_group_name_H-M   'P 1'
_cell_length_a   6.37937891
_cell_length_b   6.23494524
_cell_length_c   10.24012025
_cell_angle_alpha   90.00000000
_cell_angle_beta   90.00000000
_cell_angle_gamma   119.25384065
_symmetry_Int_Tables_number   1
_chemical_formula_structural   Mg14ZrAl
_chemical_formula_sum   'Mg14 Zr1 Al1'
_cell_volume   355.35566386
_cell_formula_units_Z   1
loop_
 _symmetry_equiv_pos_site_id
 _symmetry_equiv_pos_as_xyz
  1  'x, y, z'
loop_
 _atom_site_type_symbol
 _atom_site_label
 _atom_site_symmetry_multiplicity
 _atom_site_fract_x
 _atom_site_fract_y
 _atom_site_fract_z
 _atom_site_occupancy
  Mg  Mg0  1  0.16530963  0.33265432  0.62500000  1
  Mg  Mg1  1  0.16637962  0.83318931  0.62500000  1
  Mg  Mg2  1  0.66413832  0.33472004  0.12500000  1
  Mg  Mg3  1  0.66603354  0.33206235  0.62500000  1
  Mg  Mg4  1  0.66413832  0.82941728  0.12500000  1
  Mg  Mg5  1  0.66603354  0.83397019  0.62500000  1
  Mg  Mg6  1  0.33243263  0.16527094  0.37232215  1
  Mg  Mg7  1  0.33243263  0.16527094  0.87767785  1
  Mg  Mg8  1  0.33243263  0.66716270  0.37232215  1
  Mg  Mg9  1  0.33243263  0.66716270  0.87767785  1
  Mg  Mg10  1  0.83659308  0.16829704  0.37058200  1
  Mg  Mg11  1  0.83659308  0.16829704  0.87941800  1
  Mg  Mg12  1  0.83730076  0.66865088  0.37521904  1
  Mg  Mg13  1  0.83730076  0.66865088  0.87478096  1
  Zr  Zr0  1  0.16005064  0.83002482  0.12500000  1
  Al  Al0  1  0.17039817  0.33519859  0.12500000  1
loop_
_geom_bond_atom_site_label_1
_geom_bond_atom_site_label_2
_geom_bond_distance
_geom_bond_site_symmetry_2
Mg0 Mg1 3.117478 1_555
Mg0 Mg1 3.117478 1_545
Mg0 Mg7 3.163571 1_555
Mg0 Mg6 3.163571 1_555
Mg0 Mg8 3.163577 1_555
Mg0 Mg9 3.163577 1_555
Mg0 Mg5 3.183269 1_445
Mg0 Mg3 3.183269 1_455
Mg0 Mg11 3.183510 1_455
Mg0 Mg10 3.183510 1_455
Mg0 Mg5 3.196113 1_555
Mg0 Mg3 3.196113 1_555
Mg1 Mg12 3.145943 1_455
Mg1 Mg13 3.145943 1_455
Mg1 Mg8 3.156005 1_555
Mg1 Mg9 3.156005 1_555
Mg1 Mg6 3.156011 1_565
Mg1 Mg7 3.156011 1_565
Mg1 Mg3 3.185105 1_565
Mg1 Mg5 3.185105 1_555
Mg1 Mg3 3.194279 1_455
Mg1 Mg5 3.194279 1_455
Mg2 Mg4 3.084410 1_555
Mg2 Mg7 3.134176 1_554
Mg2 Mg6 3.134176 1_555
Mg2 Mg4 3.150535 1_545
Mg2 Zr0 3.161763 1_655
Mg2 Zr0 3.217619 1_545
Mg3 Mg5 3.105577 1_545
Mg3 Mg5 3.129368 1_555
Mg3 Mg6 3.184716 1_555
Mg3 Mg7 3.184716 1_555
Mg4 Mg8 3.134176 1_555
Mg4 Mg9 3.134176 1_554
Mg4 Zr0 3.161763 1_655
Mg4 Zr0 3.217619 1_555
Mg5 Mg8 3.184716 1_555
Mg5 Mg9 3.184716 1_555
Mg6 Mg8 3.105678 1_545
Mg6 Zr0 3.121852 1_545
Mg6 Mg8 3.129268 1_555
Mg7 Mg9 3.105678 1_545
Mg7 Zr0 3.121852 1_546
Mg7 Mg9 3.129268 1_555
Mg8 Zr0 3.121845 1_555
Mg9 Zr0 3.121845 1_556
Mg10 Mg12 3.117837 1_555
Mg10 Mg12 3.117837 1_545
Mg10 Mg2 3.118800 1_555
Mg10 Mg4 3.118806 1_545
Mg10 Mg8 3.172461 1_655
Mg10 Mg6 3.172461 1_655
Mg10 Mg3 3.178008 1_555
Mg10 Mg5 3.178014 1_545
Mg10 Mg8 3.207102 1_545
Mg10 Mg6 3.207102 1_555
Mg11 Mg13 3.117837 1_555
Mg11 Mg13 3.117837 1_545
Mg11 Mg2 3.118800 1_556
Mg11 Mg4 3.118806 1_546
Mg11 Mg9 3.172461 1_655
Mg11 Mg7 3.172461 1_655
Mg11 Mg3 3.178008 1_555
Mg11 Mg5 3.178014 1_545
Mg11 Mg9 3.207102 1_545
Mg11 Mg7 3.207102 1_555
Mg12 Zr0 3.129237 1_655
Mg12 Mg4 3.142053 1_555
Mg12 Mg2 3.142059 1_555
Mg12 Mg5 3.146291 1_555
Mg12 Mg3 3.146297 1_555
Mg12 Mg6 3.163317 1_665
Mg12 Mg8 3.163318 1_655
Mg12 Mg6 3.216357 1_555
Mg12 Mg8 3.216358 1_555
Mg13 Zr0 3.129237 1_656
Mg13 Mg4 3.142053 1_556
Mg13 Mg2 3.142059 1_556
Mg13 Mg5 3.146291 1_555
Mg13 Mg3 3.146297 1_555
Mg13 Mg7 3.163317 1_665
Mg13 Mg9 3.163318 1_655
Mg13 Mg7 3.216357 1_555
Mg13 Mg9 3.216358 1_555
Al0 Mg6 3.110546 1_555
Al0 Mg7 3.110546 1_554
Al0 Mg9 3.110552 1_554
Al0 Mg8 3.110552 1_555
Al0 Zr0 3.118005 1_555
Al0 Zr0 3.118005 1_545
Al0 Mg10 3.126643 1_455
Al0 Mg11 3.126643 1_454
Al0 Mg4 3.151214 1_555
Al0 Mg2 3.151215 1_555
Al0 Mg4 3.228166 1_445
Al0 Mg2 3.228166 1_455
