# generated using pymatgen
data_Na2Zn2Se3
_symmetry_space_group_name_H-M   'P 1'
_cell_length_a   10.23537428
_cell_length_b   10.23537428
_cell_length_c   6.99793499
_cell_angle_alpha   70.19453228
_cell_angle_beta   70.19453228
_cell_angle_gamma   83.64532696
_symmetry_Int_Tables_number   1
_chemical_formula_structural   Na2Zn2Se3
_chemical_formula_sum   'Na8 Zn8 Se12'
_cell_volume   648.95112481
_cell_formula_units_Z   4
loop_
 _symmetry_equiv_pos_site_id
 _symmetry_equiv_pos_as_xyz
  1  'x, y, z'
loop_
 _atom_site_type_symbol
 _atom_site_label
 _atom_site_symmetry_multiplicity
 _atom_site_fract_x
 _atom_site_fract_y
 _atom_site_fract_z
 _atom_site_occupancy
  Na  Na0  1  0.43262481  0.56737519  0.75000000  1
  Na  Na1  1  0.56737519  0.43262481  0.25000000  1
  Na  Na2  1  0.71773204  0.28226796  0.75000000  1
  Na  Na3  1  0.28226796  0.71773204  0.25000000  1
  Na  Na4  1  0.80728518  0.97744803  0.64012731  1
  Na  Na5  1  0.02255197  0.19271482  0.85987269  1
  Na  Na6  1  0.19271482  0.02255197  0.35987269  1
  Na  Na7  1  0.97744803  0.80728518  0.14012731  1
  Zn  Zn0  1  0.36348184  0.20771147  0.79697413  1
  Zn  Zn1  1  0.79228853  0.63651816  0.70302587  1
  Zn  Zn2  1  0.63651816  0.79228853  0.20302587  1
  Zn  Zn3  1  0.20771147  0.36348184  0.29697413  1
  Zn  Zn4  1  0.08104481  0.54905098  0.76142491  1
  Zn  Zn5  1  0.45094902  0.91895519  0.73857509  1
  Zn  Zn6  1  0.91895519  0.45094902  0.23857509  1
  Zn  Zn7  1  0.54905098  0.08104481  0.26142491  1
  Se  Se0  1  0.27372189  0.42275662  0.57053357  1
  Se  Se1  1  0.57724338  0.72627811  0.92946643  1
  Se  Se2  1  0.72627811  0.57724338  0.42946643  1
  Se  Se3  1  0.42275662  0.27372189  0.07053357  1
  Se  Se4  1  0.58234726  0.14871349  0.55077196  1
  Se  Se5  1  0.85128651  0.41765274  0.94922804  1
  Se  Se6  1  0.41765274  0.85128651  0.44922804  1
  Se  Se7  1  0.14871349  0.58234726  0.05077196  1
  Se  Se8  1  0.00704732  0.77095185  0.55718415  1
  Se  Se9  1  0.22904815  0.99295268  0.94281585  1
  Se  Se10  1  0.99295268  0.22904815  0.44281585  1
  Se  Se11  1  0.77095185  0.00704732  0.05718415  1
loop_
_geom_bond_atom_site_label_1
_geom_bond_atom_site_label_2
_geom_bond_distance
_geom_bond_site_symmetry_2
Na0 Se6 2.978805 1_555
Na0 Se7 2.978805 1_556
Na0 Se2 3.069285 1_555
Na0 Se3 3.069285 1_556
Na0 Se1 3.096855 1_555
Na0 Se0 3.096855 1_555
Na1 Se5 2.978805 1_554
Na1 Se4 2.978805 1_555
Na1 Se0 3.069285 1_555
Na1 Se1 3.069285 1_554
Na1 Se2 3.096855 1_555
Na1 Se3 3.096855 1_555
Na2 Se4 2.958478 1_555
Na2 Se5 2.958478 1_555
Na2 Se11 3.033712 1_556
Na2 Se10 3.033712 1_555
Na2 Se2 3.080706 1_555
Na2 Se3 3.080706 1_556
Na3 Se7 2.958478 1_555
Na3 Se6 2.958478 1_555
Na3 Se8 3.033712 1_555
Na3 Se9 3.033712 1_554
Na3 Se0 3.080706 1_555
Na3 Se1 3.080706 1_554
Na4 Se8 2.838150 1_655
Na4 Se4 2.846747 1_565
Na4 Se11 2.930304 1_566
Na4 Se10 3.007541 1_565
Na4 Se1 3.291601 1_555
Na5 Se9 2.838150 1_545
Na5 Se5 2.846747 1_455
Na5 Se10 2.930304 1_455
Na5 Se11 3.007541 1_456
Na5 Se0 3.291601 1_555
Na6 Se10 2.838150 1_455
Na6 Se6 2.846747 1_545
Na6 Se9 2.930304 1_544
Na6 Se8 3.007541 1_545
Na6 Se3 3.291601 1_555
Na7 Se11 2.838150 1_565
Na7 Se7 2.846747 1_655
Na7 Se8 2.930304 1_655
Na7 Se9 3.007541 1_654
Na7 Se2 3.291601 1_555
Se0 Zn4 2.483012 1_555
Se0 Zn3 2.498720 1_555
Se0 Zn0 2.524899 1_555
Se1 Zn5 2.483012 1_555
Se1 Zn2 2.498720 1_556
Se1 Zn1 2.524899 1_555
Se2 Zn6 2.483012 1_555
Se2 Zn1 2.498720 1_555
Se2 Zn2 2.524899 1_555
Se3 Zn7 2.483012 1_555
Se3 Zn0 2.498720 1_554
Se3 Zn3 2.524899 1_555
Se4 Zn0 2.478209 1_555
Se4 Zn7 2.483152 1_555
Se4 Zn5 2.544461 1_545
Se5 Zn1 2.478209 1_555
Se5 Zn6 2.483152 1_556
Se5 Zn4 2.544461 1_655
Se6 Zn2 2.478209 1_555
Se6 Zn5 2.483152 1_555
Se6 Zn7 2.544461 1_565
Se7 Zn3 2.478209 1_555
Se7 Zn4 2.483152 1_554
Se7 Zn6 2.544461 1_455
Se8 Zn4 2.434734 1_555
Se8 Zn1 2.442208 1_455
Se9 Zn5 2.434734 1_555
Se9 Zn0 2.442208 1_565
Se10 Zn6 2.434734 1_555
Se10 Zn3 2.442208 1_655
Se11 Zn7 2.434734 1_555
Se11 Zn2 2.442208 1_545
