# generated using pymatgen
data_Ti3NbO8
_symmetry_space_group_name_H-M   'P 1'
_cell_length_a   9.89731984
_cell_length_b   9.89731984
_cell_length_c   4.71814766
_cell_angle_alpha   89.57389377
_cell_angle_beta   89.57389377
_cell_angle_gamma   35.27393771
_symmetry_Int_Tables_number   1
_chemical_formula_structural   Ti3NbO8
_chemical_formula_sum   'Ti6 Nb2 O16'
_cell_volume   266.89179344
_cell_formula_units_Z   2
loop_
 _symmetry_equiv_pos_site_id
 _symmetry_equiv_pos_as_xyz
  1  'x, y, z'
loop_
 _atom_site_type_symbol
 _atom_site_label
 _atom_site_symmetry_multiplicity
 _atom_site_fract_x
 _atom_site_fract_y
 _atom_site_fract_z
 _atom_site_occupancy
  Ti  Ti0  1  0.37146800  0.37146800  0.50465700  1
  Ti  Ti1  1  0.62853200  0.62853200  0.49534300  1
  Ti  Ti2  1  0.50000000  0.00000000  0.00000000  1
  Ti  Ti3  1  0.26217400  0.73782600  0.00000000  1
  Ti  Ti4  1  0.00000000  0.50000000  0.00000000  1
  Ti  Ti5  1  0.73782600  0.26217400  0.00000000  1
  Nb  Nb0  1  0.12204700  0.12204700  0.50385200  1
  Nb  Nb1  1  0.87795300  0.87795300  0.49614800  1
  O  O0  1  0.95008200  0.95008200  0.19446600  1
  O  O1  1  0.44951900  0.44951900  0.19574800  1
  O  O2  1  0.19933500  0.19933500  0.19213400  1
  O  O3  1  0.69969400  0.69969400  0.19750200  1
  O  O4  1  0.08021900  0.56611800  0.30302900  1
  O  O5  1  0.82218000  0.32468500  0.30359500  1
  O  O6  1  0.56611800  0.08021900  0.30302900  1
  O  O7  1  0.32468500  0.82218000  0.30359500  1
  O  O8  1  0.17782000  0.67531500  0.69640500  1
  O  O9  1  0.43388200  0.91978100  0.69697100  1
  O  O10  1  0.91978100  0.43388200  0.69697100  1
  O  O11  1  0.67531500  0.17782000  0.69640500  1
  O  O12  1  0.04991800  0.04991800  0.80553400  1
  O  O13  1  0.55048100  0.55048100  0.80425200  1
  O  O14  1  0.30030600  0.30030600  0.80249800  1
  O  O15  1  0.80066500  0.80066500  0.80786600  1
loop_
_geom_bond_atom_site_label_1
_geom_bond_atom_site_label_2
_geom_bond_distance
_geom_bond_site_symmetry_2
Nb0 O12 1.961420 1_555
Nb0 O7 2.004486 1_545
Nb0 O5 2.004486 1_455
Nb0 O2 2.062833 1_555
Nb0 O10 2.071151 1_455
Nb0 O9 2.071151 1_545
Nb1 O0 1.961420 1_555
Nb1 O11 2.004486 1_565
Nb1 O8 2.004486 1_655
Nb1 O15 2.062833 1_555
Nb1 O6 2.071151 1_565
Nb1 O4 2.071151 1_655
O0 Ti5 2.046331 1_565
O0 Ti3 2.046331 1_655
O1 Ti5 1.944373 1_555
O1 Ti3 1.944373 1_555
O1 Ti0 2.063643 1_555
O2 Ti4 1.992442 1_555
O2 Ti2 1.992442 1_555
O3 Ti1 1.935816 1_555
O3 Ti4 2.000801 1_655
O3 Ti2 2.000801 1_565
O4 Ti0 1.967682 1_555
O4 Ti4 1.995461 1_555
O5 Ti5 2.001487 1_555
O5 Ti1 2.034492 1_555
O6 Ti0 1.967682 1_555
O6 Ti2 1.995461 1_555
O7 Ti3 2.001487 1_555
O7 Ti1 2.034492 1_555
O8 Ti3 2.001487 1_556
O8 Ti0 2.034492 1_555
O9 Ti1 1.967682 1_555
O9 Ti2 1.995461 1_566
O10 Ti1 1.967682 1_555
O10 Ti4 1.995461 1_656
O11 Ti5 2.001487 1_556
O11 Ti0 2.034492 1_555
O12 Ti3 2.046331 1_546
O12 Ti5 2.046331 1_456
O13 Ti3 1.944373 1_556
O13 Ti5 1.944373 1_556
O13 Ti1 2.063643 1_555
O14 Ti0 1.935816 1_555
O14 Ti2 2.000801 1_556
O14 Ti4 2.000801 1_556
O15 Ti4 1.992442 1_656
O15 Ti2 1.992442 1_566
