# generated using pymatgen
data_Sr3TeO6
_symmetry_space_group_name_H-M   'P 1'
_cell_length_a   11.87289000
_cell_length_b   11.90936596
_cell_length_c   11.91685416
_cell_angle_alpha   119.88772310
_cell_angle_beta   90.25443337
_cell_angle_gamma   119.61103660
_symmetry_Int_Tables_number   1
_chemical_formula_structural   Sr3TeO6
_chemical_formula_sum   'Sr24 Te8 O48'
_cell_volume   1197.84477546
_cell_formula_units_Z   8
loop_
 _symmetry_equiv_pos_site_id
 _symmetry_equiv_pos_as_xyz
  1  'x, y, z'
loop_
 _atom_site_type_symbol
 _atom_site_label
 _atom_site_symmetry_multiplicity
 _atom_site_fract_x
 _atom_site_fract_y
 _atom_site_fract_z
 _atom_site_occupancy
  Sr  Sr0  1  0.99765400  0.21803700  0.27958500  1
  Sr  Sr1  1  0.00234600  0.78196300  0.72041500  1
  Sr  Sr2  1  0.50305300  0.72318400  0.22217500  1
  Sr  Sr3  1  0.49694700  0.27681600  0.77782500  1
  Sr  Sr4  1  0.05258600  0.27095200  0.73228200  1
  Sr  Sr5  1  0.94741400  0.72904800  0.26771800  1
  Sr  Sr6  1  0.53997000  0.73271500  0.73415700  1
  Sr  Sr7  1  0.46003000  0.26728500  0.26584300  1
  Sr  Sr8  1  0.76535300  0.92157500  0.87189100  1
  Sr  Sr9  1  0.23464700  0.07842500  0.12810900  1
  Sr  Sr10  1  0.22641800  0.38525100  0.39085800  1
  Sr  Sr11  1  0.77358200  0.61474900  0.60914200  1
  Sr  Sr12  1  0.20694500  0.36276000  0.92292000  1
  Sr  Sr13  1  0.79305500  0.63724000  0.07708000  1
  Sr  Sr14  1  0.23470700  0.62282500  0.11861600  1
  Sr  Sr15  1  0.76529300  0.37717500  0.88138400  1
  Sr  Sr16  1  0.70912700  0.87145100  0.37206000  1
  Sr  Sr17  1  0.29087300  0.12854900  0.62794000  1
  Sr  Sr18  1  0.72801900  0.11934900  0.64885600  1
  Sr  Sr19  1  0.27198100  0.88065100  0.35114400  1
  Sr  Sr20  1  0.27172400  0.85894000  0.86602400  1
  Sr  Sr21  1  0.72827600  0.14106000  0.13397600  1
  Sr  Sr22  1  0.25388900  0.64142000  0.63068800  1
  Sr  Sr23  1  0.74611100  0.35858000  0.36931200  1
  Te  Te0  1  0.00000000  0.00000000  0.50000000  1
  Te  Te1  1  0.50000000  0.50000000  0.00000000  1
  Te  Te2  1  0.50000000  0.50000000  0.50000000  1
  Te  Te3  1  0.50000000  0.00000000  0.00000000  1
  Te  Te4  1  0.00000000  0.50000000  0.00000000  1
  Te  Te5  1  0.50000000  0.00000000  0.50000000  1
  Te  Te6  1  0.00000000  0.50000000  0.50000000  1
  Te  Te7  1  0.00000000  0.00000000  0.00000000  1
  O  O0  1  0.97222100  0.10991400  0.62130500  1
  O  O1  1  0.02777900  0.89008600  0.37869500  1
  O  O2  1  0.83865100  0.99438900  0.48914300  1
  O  O3  1  0.16134900  0.00561100  0.51085700  1
  O  O4  1  0.83285800  0.83186800  0.66512200  1
  O  O5  1  0.16714200  0.16813200  0.33487800  1
  O  O6  1  0.27012900  0.41509100  0.10845600  1
  O  O7  1  0.72987100  0.58490900  0.89154400  1
  O  O8  1  0.52799300  0.67698200  0.99193900  1
  O  O9  1  0.47200700  0.32301800  0.00806100  1
  O  O10  1  0.50346600  0.50529700  0.83163600  1
  O  O11  1  0.49653400  0.49470300  0.16836400  1
  O  O12  1  0.46164300  0.61331500  0.42403800  1
  O  O13  1  0.53835700  0.38668500  0.57596200  1
  O  O14  1  0.67244700  0.52931300  0.31987600  1
  O  O15  1  0.32755300  0.47068700  0.68012400  1
  O  O16  1  0.66003700  0.66698700  0.50544300  1
  O  O17  1  0.33996300  0.33301300  0.49455700  1
  O  O18  1  0.72948200  0.13976400  0.87242300  1
  O  O19  1  0.27051800  0.86023600  0.12757700  1
  O  O20  1  0.54103800  0.91493000  0.10085900  1
  O  O21  1  0.45896200  0.08507000  0.89914100  1
  O  O22  1  0.51806800  0.89146700  0.87443000  1
  O  O23  1  0.48193200  0.10853300  0.12557000  1
  O  O24  1  0.98065300  0.37609100  0.12922200  1
  O  O25  1  0.01934700  0.62390900  0.87077800  1
  O  O26  1  0.00984300  0.62019000  0.10556500  1
  O  O27  1  0.99015700  0.37981000  0.89443500  1
  O  O28  1  0.23520500  0.60707500  0.89329400  1
  O  O29  1  0.76479500  0.39292500  0.10670600  1
  O  O30  1  0.46723100  0.87571500  0.39429000  1
  O  O31  1  0.53276900  0.12428500  0.60571000  1
  O  O32  1  0.72544900  0.10111400  0.36053400  1
  O  O33  1  0.27455100  0.89888600  0.63946600  1
  O  O34  1  0.49974500  0.87168200  0.60803300  1
  O  O35  1  0.50025500  0.12831800  0.39196700  1
  O  O36  1  0.05655800  0.43655600  0.60316500  1
  O  O37  1  0.94344200  0.56344400  0.39683500  1
  O  O38  1  0.21978800  0.60184900  0.33884700  1
  O  O39  1  0.78021200  0.39815100  0.66115300  1
  O  O40  1  0.95431900  0.34021600  0.43996900  1
  O  O41  1  0.04568100  0.65978400  0.56003100  1
  O  O42  1  0.77825800  0.84615500  0.13144400  1
  O  O43  1  0.22174200  0.15384500  0.86855600  1
  O  O44  1  0.93832400  0.11089400  0.95821400  1
  O  O45  1  0.06167600  0.88910600  0.04178600  1
  O  O46  1  0.99819600  0.92905900  0.85369800  1
  O  O47  1  0.00180400  0.07094100  0.14630200  1
loop_
_geom_bond_atom_site_label_1
_geom_bond_atom_site_label_2
_geom_bond_distance
_geom_bond_site_symmetry_2
Sr6 Te2 2.583395 1_555
Sr7 Te2 2.583395 1_555
Sr12 Sr14 2.631701 1_556
Sr13 Sr15 2.631701 1_554
Sr14 Te4 2.404028 1_555
Sr14 Sr19 2.732985 1_555
Sr14 Sr2 2.798990 1_555
Sr15 Te4 2.404028 1_656
Sr15 Sr18 2.732985 1_555
Sr15 Sr3 2.798990 1_555
O0 Sr4 1.410767 1_655
O0 Te0 1.567483 1_655
O1 Sr5 1.410767 1_455
O1 Te0 1.567483 1_565
O2 Sr16 1.474897 1_555
O2 Te0 1.885128 1_665
O2 Sr18 2.587208 1_565
O3 Sr17 1.474897 1_555
O3 Te0 1.885128 1_555
O3 Sr19 2.587208 1_545
O4 Sr11 2.026031 1_555
O4 Sr8 2.468890 1_555
O5 Sr10 2.026031 1_555
O5 Sr9 2.468890 1_555
O6 Sr12 1.997420 1_554
O6 Sr14 2.653723 1_555
O7 Sr13 1.997420 1_556
O7 Sr15 2.653723 1_555
O8 Te1 2.017937 1_556
O8 Sr2 2.565530 1_556
O9 Te1 2.017937 1_555
O9 Sr3 2.565530 1_554
O10 O8 1.851675 1_555
O10 Te1 2.038504 1_556
O10 Sr3 2.423602 1_555
O11 O9 1.851675 1_555
O11 Te1 2.038504 1_555
O11 Sr2 2.423602 1_555
O12 Te2 2.160822 1_555
O12 Sr10 2.599424 1_555
O13 Te2 2.160822 1_555
O13 Sr11 2.599424 1_555
O14 Sr7 2.592067 1_555
O14 Sr23 2.862346 1_555
O15 Sr6 2.592067 1_555
O15 Sr22 2.862346 1_555
O16 Te2 1.925013 1_555
O16 Sr11 2.304721 1_555
O17 Te2 1.925013 1_555
O17 Sr10 2.304721 1_555
O18 Sr18 2.550945 1_555
O18 Sr15 2.587885 1_555
O18 Sr8 2.830342 1_545
O18 Sr21 3.109359 1_556
O19 Sr19 2.550945 1_555
O19 Sr14 2.587885 1_555
O19 Sr9 2.830342 1_565
O19 Sr20 3.109359 1_554
O20 Te3 2.098723 1_565
O20 Sr21 2.316684 1_565
O21 Te3 2.098723 1_556
O21 Sr20 2.316684 1_545
O22 Te3 1.518284 1_566
O22 Sr6 1.943308 1_555
O23 Te3 1.518284 1_555
O23 Sr7 1.943308 1_555
O24 Te4 2.556289 1_655
O24 Sr21 2.947504 1_555
O24 Sr14 3.059964 1_655
O24 Sr0 3.244731 1_555
O25 Te4 2.556289 1_556
O25 Sr20 2.947504 1_555
O25 Sr15 3.059964 1_455
O25 Sr1 3.244731 1_555
O26 Te4 1.297655 1_555
O26 Sr5 2.104707 1_455
O26 Sr14 2.657364 1_555
O26 Sr15 2.804449 1_454
O27 Te4 1.297655 1_656
O27 Sr4 2.104707 1_655
O27 Sr15 2.657364 1_555
O27 Sr14 2.804449 1_656
O28 Sr14 2.597004 1_556
O28 Sr4 2.852732 1_555
O28 Sr12 2.960279 1_555
O28 Sr20 2.996396 1_555
O29 Sr15 2.597004 1_554
O29 Sr5 2.852732 1_555
O29 Sr13 2.960279 1_555
O29 Sr21 2.996396 1_555
O30 Te5 1.223701 1_565
O30 Sr2 2.178451 1_555
O30 Sr19 2.407487 1_555
O30 Sr14 3.053993 1_555
O31 Te5 1.223701 1_555
O31 Sr3 2.178451 1_555
O31 Sr18 2.407487 1_555
O31 Sr15 3.053993 1_555
O32 Sr16 2.718136 1_545
O32 Sr23 2.899969 1_555
O32 Sr21 2.963403 1_555
O33 Sr17 2.718136 1_565
O33 Sr22 2.899969 1_555
O33 Sr20 2.963403 1_555
O34 Te5 2.439054 1_565
O34 Sr18 2.634476 1_565
O34 Sr6 2.912029 1_555
O34 Sr22 2.991325 1_555
O35 Te5 2.439054 1_555
O35 Sr19 2.634476 1_545
O35 Sr7 2.912029 1_555
O35 Sr23 2.991325 1_555
O36 O40 1.717852 1_455
O36 Te6 1.988233 1_555
O36 Sr22 2.257468 1_555
O36 Sr4 3.031913 1_555
O37 O41 1.717852 1_655
O37 Te6 1.988233 1_655
O37 Sr23 2.257468 1_555
O37 Sr5 3.031913 1_555
O38 Sr14 2.755970 1_555
O38 Sr10 2.972882 1_555
O38 Sr19 2.985162 1_555
O38 Sr22 3.262946 1_555
O39 Sr15 2.755970 1_555
O39 Sr11 2.972882 1_555
O39 Sr18 2.985162 1_555
O39 Sr23 3.262946 1_555
O40 Te6 1.430733 1_655
O40 Sr0 2.002971 1_555
O41 Te6 1.430733 1_555
O41 Sr1 2.002971 1_555
O42 Sr13 2.338270 1_555
O42 Sr16 2.896672 1_555
O43 Sr12 2.338270 1_555
O43 Sr17 2.896672 1_555
O44 Sr8 1.858292 1_545
O44 Te7 2.033776 1_656
O45 Sr9 1.858292 1_565
O45 Te7 2.033776 1_565
O46 Te7 1.505891 1_666
O46 Sr1 1.705006 1_655
O47 Te7 1.505891 1_555
O47 Sr0 1.705006 1_455
