# generated using pymatgen
data_CdGeP2
_symmetry_space_group_name_H-M   'P 1'
_cell_length_a   7.03759999
_cell_length_b   7.03759999
_cell_length_c   7.03760027
_cell_angle_alpha   33.62060187
_cell_angle_beta   33.62060187
_cell_angle_gamma   33.62059517
_symmetry_Int_Tables_number   1
_chemical_formula_structural   CdGeP2
_chemical_formula_sum   'Cd1 Ge1 P2'
_cell_volume   95.19120258
_cell_formula_units_Z   1
loop_
 _symmetry_equiv_pos_site_id
 _symmetry_equiv_pos_as_xyz
  1  'x, y, z'
loop_
 _atom_site_type_symbol
 _atom_site_label
 _atom_site_symmetry_multiplicity
 _atom_site_fract_x
 _atom_site_fract_y
 _atom_site_fract_z
 _atom_site_occupancy
  Cd  Cd0  1  0.99564000  0.99564000  0.99564000  1
  Ge  Ge0  1  0.50678000  0.50678000  0.50678000  1
  P  P0  1  0.12730800  0.12730800  0.12730800  1
  P  P1  1  0.62027300  0.62027300  0.62027300  1
loop_
_geom_bond_atom_site_label_1
_geom_bond_atom_site_label_2
_geom_bond_distance
_geom_bond_site_symmetry_2
Cd0 P1 2.494595 1_655
Cd0 P1 2.494595 1_565
Cd0 P1 2.494595 1_556
Cd0 P0 2.620295 1_666
Ge0 P1 2.258599 1_555
Ge0 P0 2.523163 1_565
Ge0 P0 2.523163 1_655
Ge0 P0 2.523163 1_556
