# generated using pymatgen
data_BaMg14Fe
_symmetry_space_group_name_H-M   'P 1'
_cell_length_a   6.49295643
_cell_length_b   6.49295589
_cell_length_c   10.52237398
_cell_angle_alpha   90.00000000
_cell_angle_beta   90.00000000
_cell_angle_gamma   120.00000279
_symmetry_Int_Tables_number   1
_chemical_formula_structural   BaMg14Fe
_chemical_formula_sum   'Ba1 Mg14 Fe1'
_cell_volume   384.17517157
_cell_formula_units_Z   1
loop_
 _symmetry_equiv_pos_site_id
 _symmetry_equiv_pos_as_xyz
  1  'x, y, z'
loop_
 _atom_site_type_symbol
 _atom_site_label
 _atom_site_symmetry_multiplicity
 _atom_site_fract_x
 _atom_site_fract_y
 _atom_site_fract_z
 _atom_site_occupancy
  Ba  Ba0  1  0.16666700  0.33333300  0.62500000  1
  Mg  Mg0  1  0.14951500  0.82475700  0.12500000  1
  Mg  Mg1  1  0.17976372  0.83988136  0.62500000  1
  Mg  Mg2  1  0.67524300  0.35048500  0.12500000  1
  Mg  Mg3  1  0.66011864  0.32023628  0.62500000  1
  Mg  Mg4  1  0.67524300  0.82475700  0.12500000  1
  Mg  Mg5  1  0.66011864  0.83988136  0.62500000  1
  Mg  Mg6  1  0.32832938  0.17167062  0.33918121  1
  Mg  Mg7  1  0.32832938  0.17167062  0.91081879  1
  Mg  Mg8  1  0.32832938  0.65665977  0.33918121  1
  Mg  Mg9  1  0.32832938  0.65665977  0.91081879  1
  Mg  Mg10  1  0.84334023  0.17167062  0.33918121  1
  Mg  Mg11  1  0.84334023  0.17167062  0.91081879  1
  Mg  Mg12  1  0.83333300  0.66666700  0.38567952  1
  Mg  Mg13  1  0.83333300  0.66666700  0.86432048  1
  Fe  Fe0  1  0.16666700  0.33333300  0.12500000  1
loop_
_geom_bond_atom_site_label_1
_geom_bond_atom_site_label_2
_geom_bond_distance
_geom_bond_site_symmetry_2
Ba0 Mg5 3.247313 1_555
Ba0 Mg1 3.247313 1_555
Ba0 Mg5 3.247313 1_445
Ba0 Mg1 3.247313 1_545
Ba0 Mg3 3.247313 1_455
Ba0 Mg3 3.247313 1_555
Ba0 Mg6 3.514315 1_555
Ba0 Mg7 3.514315 1_555
Ba0 Mg8 3.514321 1_555
Ba0 Mg9 3.514321 1_555
Ba0 Mg11 3.514321 1_455
Ba0 Mg10 3.514321 1_455
Mg0 Mg8 2.980874 1_555
Mg0 Mg9 2.980874 1_554
Mg0 Mg6 2.980881 1_565
Mg0 Mg7 2.980881 1_564
Mg0 Mg2 3.079427 1_455
Mg0 Mg4 3.079427 1_455
Mg0 Mg12 3.268768 1_455
Mg0 Mg13 3.268768 1_454
Mg0 Mg2 3.413529 1_565
Mg0 Mg4 3.413529 1_555
Mg1 Mg13 3.183731 1_455
Mg1 Mg12 3.183731 1_455
Mg2 Mg7 2.980881 1_554
Mg2 Mg6 2.980881 1_555
Mg2 Mg4 3.079427 1_555
Mg2 Mg4 3.413529 1_545
Mg4 Mg9 2.980881 1_554
Mg4 Mg8 2.980881 1_555
Mg10 Mg2 2.980873 1_555
Mg10 Mg4 2.980881 1_545
Mg10 Mg12 3.283622 1_555
Mg10 Mg12 3.283622 1_545
Mg11 Mg2 2.980873 1_556
Mg11 Mg4 2.980881 1_546
Mg11 Mg13 3.283622 1_555
Mg11 Mg13 3.283622 1_545
Mg12 Mg5 3.183724 1_555
Mg12 Mg3 3.183731 1_555
Mg12 Mg4 3.268761 1_555
Mg12 Mg2 3.268767 1_555
Mg12 Mg6 3.283622 1_665
Mg12 Mg6 3.283622 1_555
Mg12 Mg8 3.283622 1_655
Mg12 Mg8 3.283622 1_555
Mg13 Mg5 3.183724 1_555
Mg13 Mg3 3.183731 1_555
Mg13 Mg4 3.268761 1_556
Mg13 Mg2 3.268767 1_556
Mg13 Mg7 3.283622 1_665
Mg13 Mg7 3.283622 1_555
Mg13 Mg9 3.283622 1_655
Mg13 Mg9 3.283622 1_555
Fe0 Mg7 2.895607 1_554
Fe0 Mg6 2.895607 1_555
Fe0 Mg8 2.895614 1_555
Fe0 Mg9 2.895614 1_554
Fe0 Mg10 2.895614 1_455
Fe0 Mg11 2.895614 1_454
Fe0 Mg4 3.247910 1_445
Fe0 Mg0 3.247910 1_545
Fe0 Mg4 3.247910 1_555
Fe0 Mg0 3.247910 1_555
Fe0 Mg2 3.247911 1_555
Fe0 Mg2 3.247911 1_455
