# generated using pymatgen
data_AlHg2O2F5
_symmetry_space_group_name_H-M   'P 1'
_cell_length_a   7.32753274
_cell_length_b   7.32753274
_cell_length_c   7.32753274
_cell_angle_alpha   104.77920748
_cell_angle_beta   104.77920748
_cell_angle_gamma   119.32810958
_symmetry_Int_Tables_number   1
_chemical_formula_structural   AlHg2O2F5
_chemical_formula_sum   'Al2 Hg4 O4 F10'
_cell_volume   296.04322735
_cell_formula_units_Z   2
loop_
 _symmetry_equiv_pos_site_id
 _symmetry_equiv_pos_as_xyz
  1  'x, y, z'
loop_
 _atom_site_type_symbol
 _atom_site_label
 _atom_site_symmetry_multiplicity
 _atom_site_fract_x
 _atom_site_fract_y
 _atom_site_fract_z
 _atom_site_occupancy
  Al  Al0  1  0.76222700  0.76222700  0.00000000  1
  Al  Al1  1  0.26222700  0.26222700  0.00000000  1
  Hg  Hg0  1  0.88862600  0.38862600  0.29078600  1
  Hg  Hg1  1  0.09784000  0.59784000  0.70921400  1
  Hg  Hg2  1  0.38862600  0.09784000  0.50000000  1
  Hg  Hg3  1  0.59784000  0.88862600  0.50000000  1
  O  O0  1  0.68547400  0.18547400  0.94202400  1
  O  O1  1  0.24345000  0.74345000  0.05797600  1
  O  O2  1  0.18547400  0.24345000  0.50000000  1
  O  O3  1  0.74345000  0.68547400  0.50000000  1
  F  F0  1  0.51341200  0.51341200  0.00000000  1
  F  F1  1  0.01341200  0.01341200  0.00000000  1
  F  F2  1  0.72165000  0.56203200  0.75864500  1
  F  F3  1  0.80338600  0.96300400  0.24135500  1
  F  F4  1  0.22165000  0.46300400  0.15961800  1
  F  F5  1  0.30338600  0.06203200  0.84038200  1
  F  F6  1  0.56203200  0.80338600  0.84038200  1
  F  F7  1  0.96300400  0.72165000  0.15961800  1
  F  F8  1  0.46300400  0.30338600  0.24135500  1
  F  F9  1  0.06203200  0.22165000  0.75864500  1
loop_
_geom_bond_atom_site_label_1
_geom_bond_atom_site_label_2
_geom_bond_distance
_geom_bond_site_symmetry_2
Al0 F7 1.829988 1_555
Al0 F6 1.829988 1_554
Al0 F3 1.829993 1_555
Al0 F2 1.829993 1_554
Al0 F0 1.841684 1_555
Al0 F1 1.859227 1_665
Al1 F4 1.829988 1_555
Al1 F5 1.829988 1_554
Al1 F8 1.829993 1_555
Al1 F9 1.829993 1_554
Al1 F1 1.841684 1_555
Al1 F0 1.859227 1_555
Hg0 O0 2.215911 1_554
Hg1 O1 2.215911 1_556
Hg2 O2 2.215911 1_555
Hg3 O3 2.215911 1_555
