# generated using pymatgen
data_K3Bi7(SO6)4
_symmetry_space_group_name_H-M   'P 1'
_cell_length_a   15.80182646
_cell_length_b   15.80182646
_cell_length_c   20.47392379
_cell_angle_alpha   50.24453341
_cell_angle_beta   50.24453341
_cell_angle_gamma   42.69289559
_symmetry_Int_Tables_number   1
_chemical_formula_structural   K3Bi7(SO6)4
_chemical_formula_sum   'K12 Bi28 S16 O96'
_cell_volume   2520.20213551
_cell_formula_units_Z   4
loop_
 _symmetry_equiv_pos_site_id
 _symmetry_equiv_pos_as_xyz
  1  'x, y, z'
loop_
 _atom_site_type_symbol
 _atom_site_label
 _atom_site_symmetry_multiplicity
 _atom_site_fract_x
 _atom_site_fract_y
 _atom_site_fract_z
 _atom_site_occupancy
  K  K0  1  0.80232000  0.55960600  0.99527800  1
  K  K1  1  0.44039400  0.19768000  0.50472200  1
  K  K2  1  0.19768000  0.44039400  0.00472200  1
  K  K3  1  0.55960600  0.80232000  0.49527800  1
  K  K4  1  0.12303800  0.37703400  0.24560700  1
  K  K5  1  0.62296600  0.87696200  0.25439300  1
  K  K6  1  0.87696200  0.62296600  0.75439300  1
  K  K7  1  0.37703400  0.12303800  0.74560700  1
  K  K8  1  0.04007500  0.77410000  0.15936900  1
  K  K9  1  0.22590000  0.95992500  0.34063100  1
  K  K10  1  0.95992500  0.22590000  0.84063100  1
  K  K11  1  0.77410000  0.04007500  0.65936900  1
  Bi  Bi0  1  0.13145200  0.86854800  0.25000000  1
  Bi  Bi1  1  0.86854800  0.13145200  0.75000000  1
  Bi  Bi2  1  0.62424000  0.37576000  0.25000000  1
  Bi  Bi3  1  0.37576000  0.62424000  0.75000000  1
  Bi  Bi4  1  0.29677600  0.03675900  0.01294700  1
  Bi  Bi5  1  0.96324100  0.70322400  0.48705300  1
  Bi  Bi6  1  0.70322400  0.96324100  0.98705300  1
  Bi  Bi7  1  0.03675900  0.29677600  0.51294700  1
  Bi  Bi8  1  0.26016600  0.51307200  0.32464400  1
  Bi  Bi9  1  0.48692800  0.73983400  0.17535600  1
  Bi  Bi10  1  0.73983400  0.48692800  0.67535600  1
  Bi  Bi11  1  0.51307200  0.26016600  0.82464400  1
  Bi  Bi12  1  0.53873600  0.29552800  0.17005200  1
  Bi  Bi13  1  0.70447200  0.46126400  0.32994800  1
  Bi  Bi14  1  0.46126400  0.70447200  0.82994800  1
  Bi  Bi15  1  0.29552800  0.53873600  0.67005200  1
  Bi  Bi16  1  0.41511600  0.65651900  0.09366000  1
  Bi  Bi17  1  0.34348100  0.58488400  0.40634000  1
  Bi  Bi18  1  0.58488400  0.34348100  0.90634000  1
  Bi  Bi19  1  0.65651900  0.41511600  0.59366000  1
  Bi  Bi20  1  0.90944600  0.16543800  0.09449700  1
  Bi  Bi21  1  0.83456200  0.09055400  0.40550300  1
  Bi  Bi22  1  0.09055400  0.83456200  0.90550300  1
  Bi  Bi23  1  0.16543800  0.90944600  0.59449700  1
  Bi  Bi24  1  0.76499800  0.00770400  0.32381700  1
  Bi  Bi25  1  0.99229600  0.23500200  0.17618300  1
  Bi  Bi26  1  0.23500200  0.99229600  0.67618300  1
  Bi  Bi27  1  0.00770400  0.76499800  0.82381700  1
  S  S0  1  0.38714600  0.14902900  0.37958700  1
  S  S1  1  0.85097100  0.61285400  0.12041300  1
  S  S2  1  0.61285400  0.85097100  0.62041300  1
  S  S3  1  0.14902900  0.38714600  0.87958700  1
  S  S4  1  0.35588800  0.09635300  0.11790100  1
  S  S5  1  0.90364700  0.64411200  0.38209900  1
  S  S6  1  0.64411200  0.90364700  0.88209900  1
  S  S7  1  0.09635300  0.35588800  0.61790100  1
  S  S8  1  0.29555500  0.52900700  0.05724600  1
  S  S9  1  0.47099300  0.70444500  0.44275400  1
  S  S10  1  0.70444500  0.47099300  0.94275400  1
  S  S11  1  0.52900700  0.29555500  0.55724600  1
  S  S12  1  0.77705300  0.04322100  0.06731200  1
  S  S13  1  0.95677900  0.22294700  0.43268800  1
  S  S14  1  0.22294700  0.95677900  0.93268800  1
  S  S15  1  0.04322100  0.77705300  0.56731200  1
  O  O0  1  0.44210100  0.23392700  0.32961500  1
  O  O1  1  0.76607300  0.55789900  0.17038500  1
  O  O2  1  0.55789900  0.76607300  0.67038500  1
  O  O3  1  0.23392700  0.44210100  0.82961500  1
  O  O4  1  0.49441300  0.03104400  0.35100200  1
  O  O5  1  0.96895600  0.50558700  0.14899800  1
  O  O6  1  0.50558700  0.96895600  0.64899800  1
  O  O7  1  0.03104400  0.49441300  0.85100200  1
  O  O8  1  0.34964400  0.11575800  0.47702700  1
  O  O9  1  0.88424200  0.65035600  0.02297300  1
  O  O10  1  0.65035600  0.88424200  0.52297300  1
  O  O11  1  0.11575800  0.34964400  0.97702700  1
  O  O12  1  0.27022400  0.23089100  0.35465600  1
  O  O13  1  0.76910900  0.72977600  0.14534400  1
  O  O14  1  0.72977600  0.76910900  0.64534400  1
  O  O15  1  0.23089100  0.27022400  0.85465600  1
  O  O16  1  0.29450400  0.04260900  0.12904400  1
  O  O17  1  0.95739100  0.70549600  0.37095600  1
  O  O18  1  0.70549600  0.95739100  0.87095600  1
  O  O19  1  0.04260900  0.29450400  0.62904400  1
  O  O20  1  0.24551900  0.20875600  0.15275000  1
  O  O21  1  0.79124400  0.75448100  0.34725000  1
  O  O22  1  0.75448100  0.79124400  0.84725000  1
  O  O23  1  0.20875600  0.24551900  0.65275000  1
  O  O24  1  0.44865500  0.98676200  0.16981700  1
  O  O25  1  0.01323800  0.55134500  0.33018300  1
  O  O26  1  0.55134500  0.01323800  0.83018300  1
  O  O27  1  0.98676200  0.44865500  0.66981700  1
  O  O28  1  0.42727900  0.13871300  0.01995400  1
  O  O29  1  0.86128700  0.57272100  0.48004600  1
  O  O30  1  0.57272100  0.86128700  0.98004600  1
  O  O31  1  0.13871300  0.42727900  0.51995400  1
  O  O32  1  0.15317500  0.61551000  0.06789100  1
  O  O33  1  0.38449000  0.84682500  0.43210900  1
  O  O34  1  0.84682500  0.38449000  0.93210900  1
  O  O35  1  0.61551000  0.15317500  0.56789100  1
  O  O36  1  0.35049900  0.39046600  0.07844800  1
  O  O37  1  0.60953400  0.64950100  0.42155200  1
  O  O38  1  0.64950100  0.60953400  0.92155200  1
  O  O39  1  0.39046600  0.35049900  0.57844800  1
  O  O40  1  0.31486300  0.53529100  0.11612300  1
  O  O41  1  0.46470900  0.68513700  0.38387700  1
  O  O42  1  0.68513700  0.46470900  0.88387700  1
  O  O43  1  0.53529100  0.31486300  0.61612300  1
  O  O44  1  0.37115200  0.57448400  0.95948600  1
  O  O45  1  0.42551600  0.62884800  0.54051400  1
  O  O46  1  0.62884800  0.42551600  0.04051400  1
  O  O47  1  0.57448400  0.37115200  0.45948600  1
  O  O48  1  0.68050400  0.04553900  0.06540800  1
  O  O49  1  0.95446100  0.31949600  0.43459200  1
  O  O50  1  0.31949600  0.95446100  0.93459200  1
  O  O51  1  0.04553900  0.68050400  0.56540800  1
  O  O52  1  0.91383400  0.93452900  0.03577900  1
  O  O53  1  0.06547100  0.08616600  0.46422100  1
  O  O54  1  0.08616600  0.06547100  0.96422100  1
  O  O55  1  0.93452900  0.91383400  0.53577900  1
  O  O56  1  0.74245400  0.01946400  0.16170000  1
  O  O57  1  0.98053600  0.25754600  0.33830000  1
  O  O58  1  0.25754600  0.98053600  0.83830000  1
  O  O59  1  0.01946400  0.74245400  0.66170000  1
  O  O60  1  0.76282100  0.17294700  0.00789900  1
  O  O61  1  0.82705300  0.23717900  0.49210100  1
  O  O62  1  0.23717900  0.82705300  0.99210100  1
  O  O63  1  0.17294700  0.76282100  0.50789900  1
  O  O64  1  0.40629800  0.44532600  0.36280200  1
  O  O65  1  0.55467400  0.59370200  0.13719800  1
  O  O66  1  0.59370200  0.55467400  0.63719800  1
  O  O67  1  0.44532600  0.40629800  0.86280200  1
  O  O68  1  0.23420900  0.69339700  0.21000500  1
  O  O69  1  0.30660300  0.76579100  0.28999500  1
  O  O70  1  0.76579100  0.30660300  0.78999500  1
  O  O71  1  0.69339700  0.23420900  0.71000500  1
  O  O72  1  0.33626900  0.84453000  0.11237700  1
  O  O73  1  0.15547000  0.66373100  0.38762300  1
  O  O74  1  0.66373100  0.15547000  0.88762300  1
  O  O75  1  0.84453000  0.33626900  0.61237700  1
  O  O76  1  0.94429200  0.98305700  0.21106500  1
  O  O77  1  0.01694300  0.05570800  0.28893500  1
  O  O78  1  0.05570800  0.01694300  0.78893500  1
  O  O79  1  0.98305700  0.94429200  0.71106500  1
  O  O80  1  0.69464200  0.15705600  0.36058200  1
  O  O81  1  0.84294400  0.30535800  0.13941800  1
  O  O82  1  0.30535800  0.84294400  0.63941800  1
  O  O83  1  0.15705600  0.69464200  0.86058200  1
  O  O84  1  0.45407600  0.45322100  0.20405000  1
  O  O85  1  0.54677900  0.54592400  0.29595000  1
  O  O86  1  0.54592400  0.54677900  0.79595000  1
  O  O87  1  0.45322100  0.45407600  0.70405000  1
  O  O88  1  0.69841800  0.20518200  0.20355700  1
  O  O89  1  0.79481800  0.30158200  0.29644300  1
  O  O90  1  0.30158200  0.79481800  0.79644300  1
  O  O91  1  0.20518200  0.69841800  0.70355700  1
  O  O92  1  0.09446300  0.09758800  0.10184000  1
  O  O93  1  0.90241200  0.90553700  0.39816000  1
  O  O94  1  0.90553700  0.90241200  0.89816000  1
  O  O95  1  0.09758800  0.09446300  0.60184000  1
loop_
_geom_bond_atom_site_label_1
_geom_bond_atom_site_label_2
_geom_bond_distance
_geom_bond_site_symmetry_2
K0 O7 2.759241 1_655
K0 O22 2.797982 1_555
K0 O65 2.899391 1_556
K0 O81 2.954559 1_556
K0 O9 2.959962 1_556
K0 O38 3.011747 1_555
K0 O30 3.179144 1_555
K0 O34 3.221456 1_555
K0 O1 3.233348 1_556
K0 O11 3.277358 1_655
K1 O6 2.759241 1_545
K1 O23 2.797982 1_555
K1 O64 2.899391 1_555
K1 O80 2.954559 1_555
K1 O8 2.959962 1_555
K1 O39 3.011747 1_555
K1 O31 3.179144 1_555
K1 O35 3.221456 1_555
K1 O0 3.233348 1_555
K1 O10 3.277358 1_545
K2 O5 2.759241 1_455
K2 O20 2.797982 1_555
K2 O67 2.899391 1_554
K2 O83 2.954559 1_554
K2 O11 2.959962 1_554
K2 O36 3.011747 1_555
K2 O28 3.179144 1_555
K2 O32 3.221456 1_555
K2 O3 3.233348 1_554
K2 O9 3.277358 1_455
K3 O4 2.759241 1_565
K3 O21 2.797982 1_555
K3 O66 2.899391 1_555
K3 O82 2.954559 1_555
K3 O10 2.959962 1_555
K3 O37 3.011747 1_555
K3 O29 3.179144 1_555
K3 O33 3.221456 1_555
K3 O2 3.233348 1_555
K3 O8 3.277358 1_565
K4 O5 2.777949 1_455
K4 O12 2.806917 1_555
K4 O57 2.904865 1_455
K4 O20 2.936906 1_555
K4 O49 2.961687 1_455
K4 O25 2.971233 1_555
K4 O36 3.022543 1_555
K4 O32 3.248222 1_555
K5 O4 2.777949 1_565
K5 O13 2.806917 1_555
K5 O56 2.904865 1_565
K5 O21 2.936906 1_555
K5 O48 2.961687 1_565
K5 O24 2.971233 1_555
K5 O37 3.022543 1_555
K5 O33 3.248222 1_555
K6 O7 2.777949 1_655
K6 O14 2.806917 1_555
K6 O59 2.904865 1_655
K6 O22 2.936906 1_555
K6 O51 2.961687 1_655
K6 O27 2.971233 1_555
K6 O38 3.022543 1_555
K6 O34 3.248222 1_555
K7 O6 2.777949 1_545
K7 O15 2.806917 1_555
K7 O58 2.904865 1_545
K7 O23 2.936906 1_555
K7 O50 2.961687 1_545
K7 O26 2.971233 1_555
K7 O39 3.022543 1_555
K7 O35 3.248222 1_555
K8 O52 2.761607 1_455
K8 O32 2.849595 1_555
K8 O62 2.941491 1_554
K8 O68 2.955955 1_555
K8 O40 3.024528 1_555
K8 O25 3.058262 1_555
K8 O76 3.064014 1_455
K8 O56 3.209045 1_465
K8 O17 3.238037 1_455
K8 O21 3.357793 1_455
K9 O53 2.761607 1_565
K9 O33 2.849595 1_555
K9 O63 2.941491 1_555
K9 O69 2.955955 1_555
K9 O41 3.024528 1_555
K9 O24 3.058262 1_555
K9 O77 3.064014 1_565
K9 O57 3.209045 1_465
K9 O16 3.238037 1_565
K9 O20 3.357793 1_565
K10 O54 2.761607 1_655
K10 O34 2.849595 1_555
K10 O60 2.941491 1_556
K10 O70 2.955955 1_555
K10 O42 3.024528 1_555
K10 O27 3.058262 1_555
K10 O78 3.064014 1_655
K10 O58 3.209045 1_645
K10 O19 3.238037 1_655
K10 O23 3.357793 1_655
K11 O55 2.761607 1_545
K11 O35 2.849595 1_555
K11 O61 2.941491 1_555
K11 O71 2.955955 1_555
K11 O43 3.024528 1_555
K11 O26 3.058262 1_555
K11 O79 3.064014 1_545
K11 O59 3.209045 1_645
K11 O18 3.238037 1_545
K11 O22 3.357793 1_545
Bi0 O69 2.357781 1_555
Bi0 O68 2.357781 1_555
Bi0 O76 2.441341 1_455
Bi0 O77 2.441341 1_565
Bi0 O73 2.540946 1_555
Bi0 O72 2.540946 1_555
Bi0 O93 2.785364 1_455
Bi0 O92 2.785364 1_565
Bi1 O70 2.357781 1_555
Bi1 O71 2.357781 1_555
Bi1 O78 2.441341 1_655
Bi1 O79 2.441341 1_545
Bi1 O74 2.540946 1_555
Bi1 O75 2.540946 1_555
Bi1 O94 2.785364 1_545
Bi1 O95 2.785364 1_655
Bi2 O81 2.422649 1_555
Bi2 O80 2.422649 1_555
Bi2 O64 2.431396 1_555
Bi2 O65 2.431396 1_555
Bi2 O85 2.556945 1_555
Bi2 O84 2.556945 1_555
Bi2 O89 2.598407 1_555
Bi2 O88 2.598407 1_555
Bi3 O82 2.422649 1_555
Bi3 O83 2.422649 1_555
Bi3 O67 2.431396 1_555
Bi3 O66 2.431396 1_555
Bi3 O86 2.556945 1_555
Bi3 O87 2.556945 1_555
Bi3 O90 2.598407 1_555
Bi3 O91 2.598407 1_555
Bi4 O72 2.165578 1_545
Bi4 O92 2.176025 1_555
Bi4 O50 2.374665 1_544
Bi4 O16 2.413874 1_555
Bi5 O73 2.165578 1_655
Bi5 O93 2.176025 1_555
Bi5 O51 2.374665 1_655
Bi5 O17 2.413874 1_555
Bi6 O74 2.165578 1_565
Bi6 O94 2.176025 1_555
Bi6 O48 2.374665 1_566
Bi6 O18 2.413874 1_555
Bi7 O75 2.165578 1_455
Bi7 O95 2.176025 1_555
Bi7 O49 2.374665 1_455
Bi7 O19 2.413874 1_555
Bi8 O64 2.166199 1_555
Bi8 O68 2.180766 1_555
Bi8 O84 2.330195 1_555
Bi8 O73 2.339960 1_555
Bi9 O65 2.166199 1_555
Bi9 O69 2.180766 1_555
Bi9 O85 2.330195 1_555
Bi9 O72 2.339960 1_555
Bi10 O66 2.166199 1_555
Bi10 O70 2.180766 1_555
Bi10 O86 2.330195 1_555
Bi10 O75 2.339960 1_555
Bi11 O67 2.166199 1_555
Bi11 O71 2.180766 1_555
Bi11 O87 2.330195 1_555
Bi11 O74 2.339960 1_555
Bi12 O88 2.131080 1_555
Bi12 O84 2.147229 1_555
Bi12 O0 2.385163 1_555
Bi12 O46 2.404621 1_555
Bi13 O89 2.131080 1_555
Bi13 O85 2.147229 1_555
Bi13 O1 2.385163 1_555
Bi13 O47 2.404621 1_555
Bi14 O90 2.131080 1_555
Bi14 O86 2.147229 1_555
Bi14 O2 2.385163 1_555
Bi14 O44 2.404621 1_555
Bi15 O91 2.131080 1_555
Bi15 O87 2.147229 1_555
Bi15 O3 2.385163 1_555
Bi15 O45 2.404621 1_555
Bi16 O68 2.191533 1_555
Bi16 O65 2.192677 1_555
Bi16 O84 2.322306 1_555
Bi16 O72 2.435108 1_555
Bi17 O69 2.191533 1_555
Bi17 O64 2.192677 1_555
Bi17 O85 2.322306 1_555
Bi17 O73 2.435108 1_555
Bi18 O70 2.191533 1_555
Bi18 O67 2.192677 1_555
Bi18 O86 2.322306 1_555
Bi18 O74 2.435108 1_555
Bi19 O71 2.191533 1_555
Bi19 O66 2.192677 1_555
Bi19 O87 2.322306 1_555
Bi19 O75 2.435108 1_555
Bi20 O81 2.188131 1_555
Bi20 O76 2.203538 1_545
Bi20 O92 2.338336 1_655
Bi20 O88 2.385706 1_555
Bi20 O54 2.604922 1_654
Bi21 O80 2.188131 1_555
Bi21 O77 2.203538 1_655
Bi21 O93 2.338336 1_545
Bi21 O89 2.385706 1_555
Bi21 O55 2.604922 1_545
Bi22 O83 2.188131 1_555
Bi22 O78 2.203538 1_565
Bi22 O94 2.338336 1_455
Bi22 O90 2.385706 1_555
Bi22 O52 2.604922 1_456
Bi23 O82 2.188131 1_555
Bi23 O79 2.203538 1_455
Bi23 O95 2.338336 1_565
Bi23 O91 2.385706 1_555
Bi23 O53 2.604922 1_565
Bi24 O76 2.161087 1_545
Bi24 O80 2.171910 1_555
Bi24 O88 2.359430 1_555
Bi24 O93 2.359922 1_545
Bi25 O77 2.161087 1_655
Bi25 O81 2.171910 1_555
Bi25 O89 2.359430 1_555
Bi25 O92 2.359922 1_655
Bi26 O78 2.161087 1_565
Bi26 O82 2.171910 1_555
Bi26 O90 2.359430 1_555
Bi26 O95 2.359922 1_565
Bi27 O79 2.161087 1_455
Bi27 O83 2.171910 1_555
Bi27 O91 2.359430 1_555
Bi27 O94 2.359922 1_455
O0 S0 1.556028 1_555
O1 S1 1.556028 1_555
O2 S2 1.556028 1_555
O3 S3 1.556028 1_555
O4 S0 1.474063 1_555
O5 S1 1.474063 1_555
O6 S2 1.474063 1_555
O7 S3 1.474063 1_555
O8 S0 1.487250 1_555
O9 S1 1.487250 1_555
O10 S2 1.487250 1_555
O11 S3 1.487250 1_555
O12 S0 1.481843 1_555
O13 S1 1.481843 1_555
O14 S2 1.481843 1_555
O15 S3 1.481843 1_555
O16 S4 1.547325 1_555
O17 S5 1.547325 1_555
O18 S6 1.547325 1_555
O19 S7 1.547325 1_555
O20 S4 1.476899 1_555
O21 S5 1.476899 1_555
O22 S6 1.476899 1_555
O23 S7 1.476899 1_555
O24 S4 1.478002 1_565
O25 S5 1.478002 1_455
O26 S6 1.478002 1_545
O27 S7 1.478002 1_655
O28 S4 1.497270 1_555
O29 S5 1.497270 1_555
O30 S6 1.497270 1_555
O31 S7 1.497270 1_555
O32 S8 1.486919 1_555
O33 S9 1.486919 1_555
O34 S10 1.486919 1_555
O35 S11 1.486919 1_555
O36 S8 1.485727 1_555
O37 S9 1.485727 1_555
O38 S10 1.485727 1_555
O39 S11 1.485727 1_555
O40 S8 1.491334 1_555
O41 S9 1.491334 1_555
O42 S10 1.491334 1_555
O43 S11 1.491334 1_555
O44 S8 1.521074 1_556
O45 S9 1.521074 1_555
O46 S10 1.521074 1_554
O47 S11 1.521074 1_555
O48 S12 1.523997 1_555
O49 S13 1.523997 1_555
O50 S14 1.523997 1_555
O51 S15 1.523997 1_555
O52 S12 1.488223 1_565
O53 S13 1.488223 1_455
O54 S14 1.488223 1_545
O55 S15 1.488223 1_655
O56 S12 1.482173 1_555
O57 S13 1.482173 1_555
O58 S14 1.482173 1_555
O59 S15 1.482173 1_555
O60 S12 1.488381 1_555
O61 S13 1.488381 1_555
O62 S14 1.488381 1_555
O63 S15 1.488381 1_555
