# generated using pymatgen
data_Li7Mn4CoO12
_symmetry_space_group_name_H-M   'P 1'
_cell_length_a   5.91780628
_cell_length_b   10.12160007
_cell_length_c   7.76780257
_cell_angle_alpha   77.15893475
_cell_angle_beta   79.31854813
_cell_angle_gamma   74.40443674
_symmetry_Int_Tables_number   1
_chemical_formula_structural   Li7Mn4CoO12
_chemical_formula_sum   'Li14 Mn8 Co2 O24'
_cell_volume   433.01007637
_cell_formula_units_Z   2
loop_
 _symmetry_equiv_pos_site_id
 _symmetry_equiv_pos_as_xyz
  1  'x, y, z'
loop_
 _atom_site_type_symbol
 _atom_site_label
 _atom_site_symmetry_multiplicity
 _atom_site_fract_x
 _atom_site_fract_y
 _atom_site_fract_z
 _atom_site_occupancy
  Li  Li0  1  0.17063200  0.99550500  0.33251500  1
  Li  Li1  1  0.16276000  0.50485800  0.33424000  1
  Li  Li2  1  0.66681100  0.24983500  0.83232800  1
  Li  Li3  1  0.66772500  0.74934400  0.83426700  1
  Li  Li4  1  0.16635400  0.25006300  0.83226200  1
  Li  Li5  1  0.16711800  0.75001400  0.83458600  1
  Li  Li6  1  0.33348900  0.25186100  0.15400700  1
  Li  Li7  1  0.32885900  0.75392500  0.15581500  1
  Li  Li8  1  0.99966100  0.24793000  0.50978800  1
  Li  Li9  1  0.00469200  0.74654700  0.51330100  1
  Li  Li10  1  0.49597900  0.00604700  0.99384100  1
  Li  Li11  1  0.50243100  0.50132100  0.99198700  1
  Li  Li12  1  0.83803500  0.49428600  0.67224200  1
  Li  Li13  1  0.83027500  0.99753300  0.67536800  1
  Mn  Mn0  1  0.99596700  0.00415200  0.99552300  1
  Mn  Mn1  1  0.00428600  0.49818300  0.99836200  1
  Mn  Mn2  1  0.32898000  0.00178400  0.66844500  1
  Mn  Mn3  1  0.33750900  0.49595600  0.67081900  1
  Mn  Mn4  1  0.83428200  0.25041400  0.16431400  1
  Mn  Mn5  1  0.82945500  0.75196200  0.16408200  1
  Mn  Mn6  1  0.49807100  0.24969300  0.50072600  1
  Mn  Mn7  1  0.50432300  0.74804600  0.50427500  1
  Co  Co0  1  0.66252200  0.50342600  0.32664800  1
  Co  Co1  1  0.67090700  0.99670400  0.33996700  1
  O  O0  1  0.98920400  0.37199400  0.23470700  1
  O  O1  1  0.99202100  0.87491100  0.22986400  1
  O  O2  1  0.34223100  0.12800000  0.43117300  1
  O  O3  1  0.34304200  0.62532600  0.43752500  1
  O  O4  1  0.81223600  0.14209800  0.41010100  1
  O  O5  1  0.81443200  0.63950300  0.40588400  1
  O  O6  1  0.52055900  0.35811300  0.25518000  1
  O  O7  1  0.51906800  0.86057800  0.26235900  1
  O  O8  1  0.13125200  0.12576300  0.09033500  1
  O  O9  1  0.12763600  0.62828200  0.09052000  1
  O  O10  1  0.20135800  0.37483800  0.57490800  1
  O  O11  1  0.20606900  0.87127600  0.57754000  1
  O  O12  1  0.64214100  0.37485700  0.57859700  1
  O  O13  1  0.66794200  0.85951400  0.58374000  1
  O  O14  1  0.69057000  0.12522800  0.08598100  1
  O  O15  1  0.66587900  0.64050200  0.08516900  1
  O  O16  1  0.49359800  0.12631900  0.72687900  1
  O  O17  1  0.50055100  0.62065100  0.72992200  1
  O  O18  1  0.83904400  0.37421900  0.93862300  1
  O  O19  1  0.83338300  0.87890300  0.93792700  1
  O  O20  1  0.34640700  0.38214700  0.89725600  1
  O  O21  1  0.30203900  0.89742200  0.91513300  1
  O  O22  1  0.98668000  0.11745400  0.76836100  1
  O  O23  1  0.03153200  0.60271000  0.75260800  1
loop_
_geom_bond_atom_site_label_1
_geom_bond_atom_site_label_2
_geom_bond_distance
_geom_bond_site_symmetry_2
Li0 O11 2.046950 1_555
Li0 O8 2.055807 1_565
Li0 O1 2.163711 1_455
Li0 O7 2.194067 1_555
Li0 O2 2.212356 1_565
Li0 O4 2.301002 1_465
Li1 O9 2.035417 1_555
Li1 O10 2.045006 1_555
Li1 O3 2.172616 1_555
Li1 O5 2.194875 1_455
Li1 O0 2.227172 1_455
Li1 O6 2.301951 1_555
Li2 O22 2.051562 1_555
Li2 O20 2.055090 1_555
Li2 O14 2.096522 1_556
Li2 O12 2.099027 1_555
Li2 O16 2.177167 1_555
Li2 O18 2.183934 1_555
Li3 O15 2.014053 1_556
Li3 O13 2.016385 1_555
Li3 O19 2.186832 1_555
Li3 O17 2.189023 1_555
Li3 O23 2.331177 1_655
Li3 O21 2.344072 1_555
Li4 O22 2.106568 1_455
Li4 O20 2.107814 1_555
Li4 O10 2.121117 1_555
Li4 O8 2.123621 1_556
Li4 O16 2.133778 1_555
Li4 O18 2.138472 1_455
Li5 O9 2.102105 1_556
Li5 O11 2.106776 1_555
Li5 O21 2.120308 1_555
Li5 O23 2.127650 1_555
Li5 O19 2.176980 1_455
Li5 O17 2.181330 1_555
Li6 O6 2.082808 1_555
Li6 O20 2.133326 1_554
Li6 O0 2.134435 1_455
Li6 O8 2.151106 1_555
Li6 O14 2.195040 1_555
Li6 O2 2.239715 1_555
Li7 O15 2.059127 1_555
Li7 O1 2.092703 1_455
Li7 O21 2.099779 1_554
Li7 O7 2.124401 1_555
Li7 O9 2.148799 1_555
Li7 O3 2.287592 1_555
Li8 O4 2.074409 1_555
Li8 O2 2.122173 1_655
Li8 O22 2.145348 1_555
Li8 O10 2.160451 1_655
Li8 O12 2.199319 1_555
Li8 O0 2.227341 1_555
Li9 O13 2.055917 1_455
Li9 O23 2.093422 1_555
Li9 O3 2.103380 1_555
Li9 O5 2.131620 1_455
Li9 O11 2.138309 1_555
Li9 O1 2.297477 1_455
Li10 O21 2.034012 1_545
Li10 O19 2.092100 1_545
Li10 O16 2.159146 1_555
Li10 O14 2.174790 1_556
Li10 O8 2.255314 1_556
Li10 O7 2.273654 1_546
Li11 O20 2.023422 1_555
Li11 O18 2.085178 1_555
Li11 O17 2.123951 1_555
Li11 O15 2.211211 1_556
Li11 O6 2.229960 1_556
Li11 O9 2.330644 1_556
Li12 O23 2.037262 1_655
Li12 O17 2.091609 1_555
Li12 O18 2.154396 1_555
Li12 O12 2.188876 1_555
Li12 O10 2.249925 1_655
Li12 O5 2.259585 1_555
Li13 O22 2.023218 1_565
Li13 O16 2.090155 1_565
Li13 O19 2.124895 1_555
Li13 O13 2.190430 1_555
Li13 O4 2.248477 1_565
Li13 O11 2.330940 1_655
Mn0 O22 1.879997 1_555
Mn0 O21 1.914717 1_645
Mn0 O19 1.949487 1_545
Mn0 O8 1.962102 1_656
Mn0 O1 1.991863 1_546
Mn0 O14 1.995729 1_556
Mn1 O18 1.957703 1_455
Mn1 O23 1.967074 1_555
Mn1 O9 1.977081 1_556
Mn1 O0 1.991992 1_456
Mn1 O20 2.153426 1_555
Mn1 O15 2.218170 1_456
Mn2 O16 1.955090 1_555
Mn2 O21 1.972489 1_545
Mn2 O11 1.973376 1_545
Mn2 O2 1.997205 1_555
Mn2 O22 2.149955 1_455
Mn2 O13 2.215620 1_545
Mn3 O20 1.877395 1_555
Mn3 O23 1.917429 1_555
Mn3 O17 1.952223 1_555
Mn3 O10 1.966382 1_555
Mn3 O3 1.986451 1_555
Mn3 O12 1.997229 1_555
Mn4 O18 1.915383 1_554
Mn4 O0 1.935301 1_555
Mn4 O8 1.940676 1_655
Mn4 O14 1.952683 1_555
Mn4 O6 1.975177 1_555
Mn4 O4 1.979465 1_555
Mn5 O15 1.923554 1_555
Mn5 O19 1.932641 1_554
Mn5 O9 1.940049 1_655
Mn5 O1 1.960571 1_555
Mn5 O5 1.968158 1_555
Mn5 O7 1.983111 1_555
Mn6 O16 1.916129 1_555
Mn6 O2 1.936709 1_555
Mn6 O10 1.942449 1_555
Mn6 O12 1.951989 1_555
Mn6 O4 1.976107 1_555
Mn6 O6 1.978387 1_555
Mn7 O13 1.926130 1_555
Mn7 O17 1.931778 1_555
Mn7 O11 1.937605 1_555
Mn7 O3 1.956990 1_555
Mn7 O7 1.969123 1_555
Mn7 O5 1.981959 1_555
Co0 O15 2.070760 1_555
Co0 O5 2.081263 1_555
Co0 O6 2.092233 1_555
Co0 O12 2.098342 1_555
Co0 O3 2.110216 1_555
Co0 O0 2.131862 1_555
Co1 O7 2.074818 1_555
Co1 O13 2.084742 1_555
Co1 O4 2.085427 1_565
Co1 O14 2.110374 1_565
Co1 O1 2.113956 1_555
Co1 O2 2.137522 1_565
