# generated using pymatgen
data_Ba2YNi3O7
_symmetry_space_group_name_H-M   'P 1'
_cell_length_a   3.89441705
_cell_length_b   3.99856504
_cell_length_c   11.50324500
_cell_angle_alpha   89.99984249
_cell_angle_beta   89.99945650
_cell_angle_gamma   90.01720759
_symmetry_Int_Tables_number   1
_chemical_formula_structural   Ba2YNi3O7
_chemical_formula_sum   'Ba2 Y1 Ni3 O7'
_cell_volume   179.12944174
_cell_formula_units_Z   1
loop_
 _symmetry_equiv_pos_site_id
 _symmetry_equiv_pos_as_xyz
  1  'x, y, z'
loop_
 _atom_site_type_symbol
 _atom_site_label
 _atom_site_symmetry_multiplicity
 _atom_site_fract_x
 _atom_site_fract_y
 _atom_site_fract_z
 _atom_site_occupancy
  Ba  Ba0  1  0.49999500  0.50000300  0.81648200  1
  Ba  Ba1  1  0.50000500  0.50000300  0.18333900  1
  Y  Y0  1  0.50000100  0.49999500  0.49996100  1
  Ni  Ni0  1  0.00000100  0.99999300  0.65782800  1
  Ni  Ni1  1  0.00000100  0.00000000  0.34220800  1
  Ni  Ni2  1  0.00000000  0.00000400  0.99999800  1
  O  O0  1  0.00000000  0.50000600  0.00001200  1
  O  O1  1  0.50000100  0.99999100  0.62404300  1
  O  O2  1  0.50000000  0.00000000  0.37611800  1
  O  O3  1  0.00000000  0.49999300  0.62381200  1
  O  O4  1  0.00000100  0.49999900  0.37625100  1
  O  O5  1  0.99998800  0.00001000  0.83743700  1
  O  O6  1  0.00000700  0.00000300  0.16251100  1
loop_
_geom_bond_atom_site_label_1
_geom_bond_atom_site_label_2
_geom_bond_distance
_geom_bond_site_symmetry_2
Ba0 O5 2.800804 1_455
Ba0 O5 2.800810 1_565
Ba0 O5 2.801604 1_555
Ba0 O5 2.801679 1_465
Ba0 O0 2.872036 1_556
Ba0 O0 2.872090 1_656
Ba0 O3 2.950209 1_655
Ba0 O3 2.950211 1_555
Ba0 O1 2.982828 1_555
Ba0 O1 2.982900 1_545
Ba1 O6 2.800678 1_555
Ba1 O6 2.800685 1_665
Ba1 O6 2.801512 1_565
Ba1 O6 2.801521 1_655
Ba1 O0 2.870320 1_655
Ba1 O0 2.870374 1_555
Ba1 O4 2.952299 1_555
Ba1 O4 2.952306 1_655
Ba1 O2 2.985764 1_565
Ba1 O2 2.985772 1_555
Ni0 O1 1.985610 1_555
Ni0 O1 1.985617 1_455
Ni0 O3 2.037213 1_565
Ni0 O3 2.037215 1_555
Ni0 O5 2.066086 1_465
Ni1 O2 1.985895 1_555
Ni1 O2 1.985895 1_455
Ni1 O4 2.037271 1_555
Ni1 O4 2.037277 1_545
Ni1 O6 2.067099 1_555
Ni2 O6 1.869427 1_556
Ni2 O5 1.869979 1_455
Ni2 O0 1.999275 1_546
Ni2 O0 1.999291 1_556
O1 Y0 2.456501 1_555
O1 Y0 2.456521 1_565
O2 Y0 2.454901 1_555
O2 Y0 2.454928 1_545
O3 Y0 2.412741 1_555
O3 Y0 2.412757 1_455
O4 Y0 2.411781 1_455
O4 Y0 2.411803 1_555
