# generated using pymatgen
data_Sr4MgMn2(GaO5)2
_symmetry_space_group_name_H-M   'P 1'
_cell_length_a   5.82549350
_cell_length_b   6.05055023
_cell_length_c   10.12871077
_cell_angle_alpha   67.95188476
_cell_angle_beta   74.54321759
_cell_angle_gamma   98.42932504
_symmetry_Int_Tables_number   1
_chemical_formula_structural   Sr4MgMn2(GaO5)2
_chemical_formula_sum   'Sr4 Mg1 Mn2 Ga2 O10'
_cell_volume   306.53899350
_cell_formula_units_Z   1
loop_
 _symmetry_equiv_pos_site_id
 _symmetry_equiv_pos_as_xyz
  1  'x, y, z'
loop_
 _atom_site_type_symbol
 _atom_site_label
 _atom_site_symmetry_multiplicity
 _atom_site_fract_x
 _atom_site_fract_y
 _atom_site_fract_z
 _atom_site_occupancy
  Sr  Sr0  1  0.10519700  0.63639200  0.79840000  1
  Sr  Sr1  1  0.89480300  0.36360800  0.20160000  1
  Sr  Sr2  1  0.78150500  0.06598700  0.64730300  1
  Sr  Sr3  1  0.21849500  0.93401300  0.35269700  1
  Mg  Mg0  1  0.50000000  0.00000000  0.00000000  1
  Mn  Mn0  1  0.50000000  0.50000000  0.00000000  1
  Mn  Mn1  1  0.00000000  0.00000000  0.00000000  1
  Ga  Ga0  1  0.60450900  0.65467300  0.54776300  1
  Ga  Ga1  1  0.39549100  0.34532700  0.45223700  1
  O  O0  1  0.23318000  0.14751100  0.08225200  1
  O  O1  1  0.23352500  0.74850100  0.99173800  1
  O  O2  1  0.76647500  0.25149900  0.00826200  1
  O  O3  1  0.76682000  0.85248900  0.91774800  1
  O  O4  1  0.56174100  0.60607200  0.74454400  1
  O  O5  1  0.43825900  0.39392800  0.25545600  1
  O  O6  1  0.20090000  0.02661000  0.57889500  1
  O  O7  1  0.79910000  0.97339000  0.42110500  1
  O  O8  1  0.28092300  0.56081500  0.53533300  1
  O  O9  1  0.71907700  0.43918500  0.46466700  1
loop_
_geom_bond_atom_site_label_1
_geom_bond_atom_site_label_2
_geom_bond_distance
_geom_bond_site_symmetry_2
Mg0 O0 2.044855 1_555
Mg0 O3 2.044855 1_544
Mg0 O2 2.050531 1_555
Mg0 O1 2.050531 1_544
Mn0 O3 2.159308 1_554
Mn0 O0 2.159308 1_555
Mn0 O2 2.310104 1_555
Mn0 O1 2.310104 1_554
Mn0 O5 2.329303 1_555
Mn0 O4 2.329303 1_554
Mn1 O0 2.035165 1_555
Mn1 O3 2.035165 1_444
Mn1 O1 2.194338 1_544
Mn1 O2 2.194338 1_455
Ga0 O7 1.837440 1_555
Ga0 O4 1.842537 1_555
Ga0 O9 1.906135 1_555
Ga0 O8 1.938579 1_555
Ga1 O6 1.837440 1_555
Ga1 O5 1.842537 1_555
Ga1 O8 1.906135 1_555
Ga1 O9 1.938579 1_555
O0 Sr3 2.523021 1_545
O0 Sr1 2.780052 1_455
O1 Sr0 2.546116 1_555
O1 Sr1 2.556543 1_456
O2 Sr1 2.546116 1_555
O2 Sr0 2.556543 1_654
O3 Sr2 2.523021 1_565
O3 Sr0 2.780052 1_655
O4 Sr2 2.564846 1_565
O4 Sr0 2.617161 1_555
O5 Sr3 2.564846 1_545
O5 Sr1 2.617161 1_555
O6 Sr0 2.416765 1_545
O6 Sr2 2.428635 1_455
O6 Sr3 2.535523 1_545
O7 Sr1 2.416765 1_565
O7 Sr3 2.428635 1_655
O7 Sr2 2.535523 1_565
O8 Sr3 2.473131 1_555
O8 Sr0 2.820439 1_555
O9 Sr2 2.473131 1_555
O9 Sr1 2.820439 1_555
