# generated using pymatgen
data_Ho5NiBi2
_symmetry_space_group_name_H-M   'P 1'
_cell_length_a   8.01237424
_cell_length_b   8.80663622
_cell_length_c   12.28071249
_cell_angle_alpha   90.00000000
_cell_angle_beta   90.00000000
_cell_angle_gamma   90.00000000
_symmetry_Int_Tables_number   1
_chemical_formula_structural   Ho5NiBi2
_chemical_formula_sum   'Ho20 Ni4 Bi8'
_cell_volume   866.55243530
_cell_formula_units_Z   4
loop_
 _symmetry_equiv_pos_site_id
 _symmetry_equiv_pos_as_xyz
  1  'x, y, z'
loop_
 _atom_site_type_symbol
 _atom_site_label
 _atom_site_symmetry_multiplicity
 _atom_site_fract_x
 _atom_site_fract_y
 _atom_site_fract_z
 _atom_site_occupancy
  Ho  Ho0  1  0.84376787  0.75000000  0.79953227  1
  Ho  Ho1  1  0.15623213  0.25000000  0.20046773  1
  Ho  Ho2  1  0.34376787  0.25000000  0.70046773  1
  Ho  Ho3  1  0.65623213  0.75000000  0.29953227  1
  Ho  Ho4  1  0.37897385  0.75000000  0.68855096  1
  Ho  Ho5  1  0.62102615  0.25000000  0.31144904  1
  Ho  Ho6  1  0.87897385  0.25000000  0.81144904  1
  Ho  Ho7  1  0.12102615  0.75000000  0.18855096  1
  Ho  Ho8  1  0.95024305  0.75000000  0.50143877  1
  Ho  Ho9  1  0.04975695  0.25000000  0.49856123  1
  Ho  Ho10  1  0.45024305  0.25000000  0.99856123  1
  Ho  Ho11  1  0.54975695  0.75000000  0.00143877  1
  Ho  Ho12  1  0.67652401  0.03944141  0.56493594  1
  Ho  Ho13  1  0.32347599  0.96055859  0.43506406  1
  Ho  Ho14  1  0.17652401  0.96055859  0.93506406  1
  Ho  Ho15  1  0.32347599  0.53944141  0.43506406  1
  Ho  Ho16  1  0.82347599  0.03944141  0.06493594  1
  Ho  Ho17  1  0.67652401  0.46055859  0.56493594  1
  Ho  Ho18  1  0.82347599  0.46055859  0.06493594  1
  Ho  Ho19  1  0.17652401  0.53944141  0.93506406  1
  Ni  Ni0  1  0.57340219  0.75000000  0.51017836  1
  Ni  Ni1  1  0.42659781  0.25000000  0.48982164  1
  Ni  Ni2  1  0.07340219  0.25000000  0.98982164  1
  Ni  Ni3  1  0.92659781  0.75000000  0.01017836  1
  Bi  Bi0  1  0.56806329  0.49131583  0.82637024  1
  Bi  Bi1  1  0.43193671  0.50868417  0.17362976  1
  Bi  Bi2  1  0.06806329  0.50868417  0.67362976  1
  Bi  Bi3  1  0.43193671  0.99131583  0.17362976  1
  Bi  Bi4  1  0.93193671  0.49131583  0.32637024  1
  Bi  Bi5  1  0.56806329  0.00868417  0.82637024  1
  Bi  Bi6  1  0.93193671  0.00868417  0.32637024  1
  Bi  Bi7  1  0.06806329  0.99131583  0.67362976  1
loop_
_geom_bond_atom_site_label_1
_geom_bond_atom_site_label_2
_geom_bond_distance
_geom_bond_site_symmetry_2
Ho0 Ni3 2.670659 1_556
Ho1 Ni2 2.670659 1_554
Ho2 Ni1 2.670659 1_555
Ho3 Ni0 2.670659 1_555
Ho4 Ni0 2.687995 1_555
Ho5 Ni1 2.687995 1_555
Ho6 Ni2 2.687995 1_655
Ho7 Ni3 2.687995 1_455
Ho8 Ni0 3.021297 1_555
Ho9 Ni1 3.021297 1_555
Ho10 Ni2 3.021297 1_555
Ho11 Ni3 3.021297 1_555
Ho12 Ni0 2.762666 1_545
Ho12 Ni1 2.880871 1_555
Ho13 Ni1 2.762666 1_565
Ho13 Ni0 2.880871 1_555
Ho14 Ni2 2.762666 1_565
Ho14 Ni3 2.880871 1_456
Ho15 Ni1 2.762666 1_555
Ho15 Ni0 2.880871 1_555
Ho16 Ni3 2.762666 1_545
Ho16 Ni2 2.880871 1_654
Ho17 Ni0 2.762666 1_555
Ho17 Ni1 2.880871 1_555
Ho18 Ni3 2.762666 1_555
Ho18 Ni2 2.880871 1_654
Ho19 Ni2 2.762666 1_555
Ho19 Ni3 2.880871 1_456
Bi0 Ho11 3.135886 1_556
Bi0 Ho10 3.143122 1_555
Bi0 Ho2 3.183826 1_555
Bi0 Ho0 3.190366 1_555
Bi0 Ho4 3.217130 1_555
Bi0 Ho6 3.279590 1_555
Bi0 Ho17 3.337144 1_555
Bi0 Ho19 3.435577 1_555
Bi0 Ho18 3.583971 1_556
Bi1 Ho10 3.135886 1_554
Bi1 Ho11 3.143122 1_555
Bi1 Ho3 3.183826 1_555
Bi1 Ho1 3.190366 1_555
Bi1 Ho5 3.217130 1_555
Bi1 Ho7 3.279590 1_555
Bi1 Ho15 3.337144 1_555
Bi1 Ho18 3.435577 1_555
Bi1 Ho19 3.583971 1_554
Bi2 Ho9 3.135886 1_555
Bi2 Ho8 3.143122 1_455
Bi2 Ho0 3.183826 1_455
Bi2 Ho2 3.190366 1_555
Bi2 Ho6 3.217130 1_455
Bi2 Ho4 3.279590 1_555
Bi2 Ho19 3.337144 1_555
Bi2 Ho17 3.435577 1_455
Bi2 Ho15 3.583971 1_555
Bi3 Ho10 3.135886 1_564
Bi3 Ho11 3.143122 1_555
Bi3 Ho3 3.183826 1_555
Bi3 Ho1 3.190366 1_565
Bi3 Ho5 3.217130 1_565
Bi3 Ho7 3.279590 1_555
Bi3 Ho13 3.337144 1_555
Bi3 Ho16 3.435577 1_565
Bi3 Ho14 3.583971 1_554
Bi4 Ho8 3.135886 1_555
Bi4 Ho9 3.143122 1_655
Bi4 Ho1 3.183826 1_655
Bi4 Ho3 3.190366 1_555
Bi4 Ho7 3.217130 1_655
Bi4 Ho5 3.279590 1_555
Bi4 Ho18 3.337144 1_555
Bi4 Ho15 3.435577 1_655
Bi4 Ho17 3.583971 1_555
Bi5 Ho11 3.135886 1_546
Bi5 Ho10 3.143122 1_555
Bi5 Ho2 3.183826 1_555
Bi5 Ho0 3.190366 1_545
Bi5 Ho4 3.217130 1_545
Bi5 Ho6 3.279590 1_555
Bi5 Ho12 3.337144 1_555
Bi5 Ho14 3.435577 1_545
Bi5 Ho16 3.583971 1_556
Bi6 Ho8 3.135886 1_545
Bi6 Ho9 3.143122 1_655
Bi6 Ho1 3.183826 1_655
Bi6 Ho3 3.190366 1_545
Bi6 Ho7 3.217130 1_645
Bi6 Ho5 3.279590 1_555
Bi6 Ho16 3.337144 1_555
Bi6 Ho13 3.435577 1_645
Bi6 Ho12 3.583971 1_555
Bi7 Ho9 3.135886 1_565
Bi7 Ho8 3.143122 1_455
Bi7 Ho0 3.183826 1_455
Bi7 Ho2 3.190366 1_565
Bi7 Ho6 3.217130 1_465
Bi7 Ho4 3.279590 1_555
Bi7 Ho14 3.337144 1_555
Bi7 Ho12 3.435577 1_465
Bi7 Ho13 3.583971 1_555
