# generated using pymatgen
data_Na2NiH8(SO6)2
_symmetry_space_group_name_H-M   'P 1'
_cell_length_a   7.45841658
_cell_length_b   7.11735700
_cell_length_c   12.90008574
_cell_angle_alpha   90.00000000
_cell_angle_beta   89.81502784
_cell_angle_gamma   90.00000000
_symmetry_Int_Tables_number   1
_chemical_formula_structural   Na2NiH8(SO6)2
_chemical_formula_sum   'Na4 Ni2 H16 S4 O24'
_cell_volume   684.78733589
_cell_formula_units_Z   2
loop_
 _symmetry_equiv_pos_site_id
 _symmetry_equiv_pos_as_xyz
  1  'x, y, z'
loop_
 _atom_site_type_symbol
 _atom_site_label
 _atom_site_symmetry_multiplicity
 _atom_site_fract_x
 _atom_site_fract_y
 _atom_site_fract_z
 _atom_site_occupancy
  Na  Na0  1  0.87185400  0.60684100  0.16478400  1
  Na  Na1  1  0.12814600  0.10684100  0.33521600  1
  Na  Na2  1  0.12814600  0.39315900  0.83521600  1
  Na  Na3  1  0.87185400  0.89315900  0.66478400  1
  Ni  Ni0  1  0.00000000  0.50000000  0.50000000  1
  Ni  Ni1  1  0.00000000  0.00000000  0.00000000  1
  H  H0  1  0.30105500  0.64895800  0.95343800  1
  H  H1  1  0.69894500  0.14895800  0.54656200  1
  H  H2  1  0.69894500  0.35104200  0.04656200  1
  H  H3  1  0.30105500  0.85104200  0.45343800  1
  H  H4  1  0.45896800  0.81682900  0.17268600  1
  H  H5  1  0.54103200  0.31682900  0.32731400  1
  H  H6  1  0.54103200  0.18317100  0.82731400  1
  H  H7  1  0.45896800  0.68317100  0.67268600  1
  H  H8  1  0.27245100  0.70344900  0.36726900  1
  H  H9  1  0.72754900  0.20344900  0.13273100  1
  H  H10  1  0.35458700  0.37343700  0.36508700  1
  H  H11  1  0.64541300  0.87343700  0.13491300  1
  H  H12  1  0.64541300  0.62656300  0.63491300  1
  H  H13  1  0.35458700  0.12656300  0.86508700  1
  H  H14  1  0.72754900  0.29655100  0.63273100  1
  H  H15  1  0.27245100  0.79655100  0.86726900  1
  S  S0  1  0.74691600  0.77738800  0.37732000  1
  S  S1  1  0.25308400  0.27738800  0.12268000  1
  S  S2  1  0.25308400  0.22261200  0.62268000  1
  S  S3  1  0.74691600  0.72261200  0.87732000  1
  O  O0  1  0.16184700  0.11786300  0.53883300  1
  O  O1  1  0.83815300  0.88213700  0.46116700  1
  O  O2  1  0.59448000  0.83675700  0.91143500  1
  O  O3  1  0.16184700  0.38213700  0.03883300  1
  O  O4  1  0.40552000  0.16324300  0.08856500  1
  O  O5  1  0.59448000  0.66324300  0.41143500  1
  O  O6  1  0.23556800  0.67182200  0.88964300  1
  O  O7  1  0.76443200  0.17182200  0.61035700  1
  O  O8  1  0.76443200  0.32817800  0.11035700  1
  O  O9  1  0.23556800  0.82817800  0.38964300  1
  O  O10  1  0.89020700  0.99213100  0.85631800  1
  O  O11  1  0.10979300  0.49213100  0.64368200  1
  O  O12  1  0.10979300  0.00786900  0.14368200  1
  O  O13  1  0.89020700  0.50786900  0.35631800  1
  O  O14  1  0.91649500  0.55132800  0.63395100  1
  O  O15  1  0.08350500  0.05132800  0.86604900  1
  O  O16  1  0.08350500  0.44867200  0.36604900  1
  O  O17  1  0.91649500  0.94867200  0.13395100  1
  O  O18  1  0.57811200  0.76538200  0.16069500  1
  O  O19  1  0.42188800  0.26538200  0.33930500  1
  O  O20  1  0.42188800  0.23461800  0.83930500  1
  O  O21  1  0.57811200  0.73461800  0.66069500  1
  O  O22  1  0.40552000  0.33675700  0.58856500  1
  O  O23  1  0.83815300  0.61786300  0.96116700  1
loop_
_geom_bond_atom_site_label_1
_geom_bond_atom_site_label_2
_geom_bond_distance
_geom_bond_site_symmetry_2
Na0 O8 2.252147 1_555
Na0 O18 2.465081 1_555
Na0 O17 2.487442 1_555
Na0 O13 2.573326 1_555
Na0 O23 2.640649 1_554
Na1 O9 2.252147 1_545
Na1 O19 2.465081 1_555
Na1 O16 2.487442 1_555
Na1 O12 2.573326 1_555
Na1 O0 2.640649 1_555
Na2 O6 2.252147 1_555
Na2 O20 2.465081 1_555
Na2 O15 2.487442 1_555
Na2 O11 2.573326 1_555
Na2 O3 2.640649 1_556
Na3 O7 2.252147 1_565
Na3 O21 2.465081 1_555
Na3 O14 2.487442 1_555
Na3 O10 2.573326 1_555
Na3 O1 2.640649 1_555
Ni0 O14 1.870914 1_455
Ni0 O16 1.870914 1_555
Ni0 O11 2.029533 1_555
Ni0 O13 2.029533 1_455
Ni1 O17 1.870914 1_445
Ni1 O15 1.870914 1_554
Ni1 O12 2.029533 1_555
Ni1 O10 2.029533 1_444
H0 O6 0.972062 1_555
H1 O7 0.972062 1_555
H2 O8 0.972062 1_555
H3 O9 0.972062 1_555
H4 O18 0.973023 1_555
H5 O19 0.973023 1_555
H6 O20 0.973023 1_555
H7 O21 0.973023 1_555
H8 O9 0.972908 1_555
H9 O8 0.972908 1_555
H10 O19 0.976198 1_555
H11 O18 0.976198 1_555
H12 O21 0.976198 1_555
H13 O20 0.976198 1_555
H14 O7 0.972908 1_555
H15 O6 0.972908 1_555
O0 S2 1.481069 1_555
O1 S0 1.481069 1_555
O2 S3 1.463923 1_555
O3 S1 1.481069 1_555
O4 S1 1.463923 1_555
O5 S0 1.463923 1_555
O10 O15 1.507625 1_665
O10 S3 2.212111 1_555
O11 O14 1.507625 1_455
O11 S2 2.212111 1_555
O12 O17 1.507625 1_445
O12 S1 2.212111 1_555
O13 O16 1.507625 1_655
O13 S0 2.212111 1_555
O22 S2 1.463923 1_555
O23 S3 1.481069 1_555
