# generated using pymatgen
data_Rb2Mo3O11
_symmetry_space_group_name_H-M   'P 1'
_cell_length_a   7.72471600
_cell_length_b   10.11666400
_cell_length_c   15.36777400
_cell_angle_alpha   90.00000000
_cell_angle_beta   90.00000000
_cell_angle_gamma   90.00000000
_symmetry_Int_Tables_number   1
_chemical_formula_structural   Rb2Mo3O11
_chemical_formula_sum   'Rb8 Mo12 O44'
_cell_volume   1200.96627759
_cell_formula_units_Z   4
loop_
 _symmetry_equiv_pos_site_id
 _symmetry_equiv_pos_as_xyz
  1  'x, y, z'
loop_
 _atom_site_type_symbol
 _atom_site_label
 _atom_site_symmetry_multiplicity
 _atom_site_fract_x
 _atom_site_fract_y
 _atom_site_fract_z
 _atom_site_occupancy
  Rb  Rb0  1  0.99986500  0.23116800  0.67159700  1
  Rb  Rb1  1  0.00013500  0.73116800  0.82840300  1
  Rb  Rb2  1  0.49986500  0.26883200  0.32840300  1
  Rb  Rb3  1  0.50013500  0.76883200  0.17159700  1
  Rb  Rb4  1  0.00123200  0.47556300  0.19457900  1
  Rb  Rb5  1  0.99876800  0.97556300  0.30542100  1
  Rb  Rb6  1  0.50123200  0.02443700  0.80542100  1
  Rb  Rb7  1  0.49876800  0.52443700  0.69457900  1
  Mo  Mo0  1  0.75049700  0.65715500  0.39865500  1
  Mo  Mo1  1  0.24950300  0.15715500  0.10134500  1
  Mo  Mo2  1  0.25049700  0.84284500  0.60134500  1
  Mo  Mo3  1  0.74950300  0.34284500  0.89865500  1
  Mo  Mo4  1  0.74941100  0.84287700  0.60148500  1
  Mo  Mo5  1  0.25058900  0.34287700  0.89851500  1
  Mo  Mo6  1  0.24941100  0.65712300  0.39851500  1
  Mo  Mo7  1  0.75058900  0.15712300  0.10148500  1
  Mo  Mo8  1  0.00015600  0.57387900  0.56657200  1
  Mo  Mo9  1  0.99984400  0.07387900  0.93342800  1
  Mo  Mo10  1  0.50015600  0.92612100  0.43342800  1
  Mo  Mo11  1  0.49984400  0.42612100  0.06657200  1
  O  O0  1  0.99995700  0.80118500  0.59500400  1
  O  O1  1  0.00004300  0.30118500  0.90499600  1
  O  O2  1  0.49995700  0.69881500  0.40499600  1
  O  O3  1  0.50004300  0.19881500  0.09500400  1
  O  O4  1  0.00001600  0.41464600  0.52346000  1
  O  O5  1  0.99998400  0.91464600  0.97654000  1
  O  O6  1  0.50001600  0.08535400  0.47654000  1
  O  O7  1  0.49998400  0.58535400  0.02346000  1
  O  O8  1  0.00009300  0.54407000  0.67945400  1
  O  O9  1  0.99990700  0.04407000  0.82054600  1
  O  O10  1  0.50009300  0.95593000  0.32054600  1
  O  O11  1  0.49990700  0.45593000  0.17945400  1
  O  O12  1  0.76290100  0.63597200  0.54469800  1
  O  O13  1  0.23709900  0.13597200  0.95530200  1
  O  O14  1  0.26290100  0.86402800  0.45530200  1
  O  O15  1  0.73709900  0.36402800  0.04469800  1
  O  O16  1  0.73683100  0.86375500  0.45516000  1
  O  O17  1  0.26316900  0.36375500  0.04484000  1
  O  O18  1  0.23683100  0.63624500  0.54484000  1
  O  O19  1  0.76316900  0.13624500  0.95516000  1
  O  O20  1  0.72352500  0.48807900  0.38290000  1
  O  O21  1  0.27647500  0.98807900  0.11710000  1
  O  O22  1  0.22352500  0.01192100  0.61710000  1
  O  O23  1  0.77647500  0.51192100  0.88290000  1
  O  O24  1  0.77628500  0.01167300  0.61735400  1
  O  O25  1  0.22371500  0.51167300  0.88264600  1
  O  O26  1  0.27628500  0.48832700  0.38264600  1
  O  O27  1  0.72371500  0.98832700  0.11735400  1
  O  O28  1  0.99986900  0.66008400  0.43049100  1
  O  O29  1  0.00013100  0.16008400  0.06950900  1
  O  O30  1  0.49986900  0.83991600  0.56950900  1
  O  O31  1  0.50013100  0.33991600  0.93049100  1
  O  O32  1  0.79368300  0.71700700  0.29334100  1
  O  O33  1  0.20631700  0.21700700  0.20665900  1
  O  O34  1  0.29368300  0.78299300  0.70665900  1
  O  O35  1  0.70631700  0.28299300  0.79334100  1
  O  O36  1  0.70624200  0.78288600  0.70669700  1
  O  O37  1  0.29375800  0.28288600  0.79330300  1
  O  O38  1  0.20624200  0.71711400  0.29330300  1
  O  O39  1  0.79375800  0.21711400  0.20669700  1
  O  O40  1  0.86883600  0.67884000  0.07017600  1
  O  O41  1  0.13116400  0.17884000  0.42982400  1
  O  O42  1  0.36883600  0.82116000  0.92982400  1
  O  O43  1  0.63116400  0.32116000  0.57017600  1
loop_
_geom_bond_atom_site_label_1
_geom_bond_atom_site_label_2
_geom_bond_distance
_geom_bond_site_symmetry_2
Mo0 O20 1.740055 1_555
Mo0 O32 1.759908 1_555
Mo0 O2 1.983105 1_555
Mo0 O28 1.987708 1_555
Mo0 O12 2.256599 1_555
Mo0 O16 2.265771 1_555
Mo1 O21 1.740055 1_545
Mo1 O33 1.759908 1_555
Mo1 O3 1.983105 1_555
Mo1 O29 1.987708 1_555
Mo1 O13 2.256599 1_554
Mo1 O17 2.265771 1_555
Mo2 O22 1.740055 1_565
Mo2 O34 1.759908 1_555
Mo2 O0 1.983105 1_455
Mo2 O30 1.987708 1_555
Mo2 O14 2.256599 1_555
Mo2 O18 2.265771 1_555
Mo3 O23 1.740055 1_555
Mo3 O35 1.759908 1_555
Mo3 O1 1.983105 1_655
Mo3 O31 1.987708 1_555
Mo3 O15 2.256599 1_556
Mo3 O19 2.265771 1_555
Mo4 O24 1.737425 1_565
Mo4 O36 1.758926 1_555
Mo4 O0 1.983326 1_555
Mo4 O30 1.989515 1_555
Mo4 O16 2.260677 1_555
Mo4 O12 2.270217 1_555
Mo5 O25 1.737425 1_555
Mo5 O37 1.758926 1_555
Mo5 O1 1.983326 1_555
Mo5 O31 1.989515 1_555
Mo5 O17 2.260677 1_556
Mo5 O13 2.270217 1_555
Mo6 O26 1.737425 1_555
Mo6 O38 1.758926 1_555
Mo6 O2 1.983326 1_555
Mo6 O28 1.989515 1_455
Mo6 O18 2.260677 1_555
Mo6 O14 2.270217 1_555
Mo7 O27 1.737425 1_545
Mo7 O39 1.758926 1_555
Mo7 O3 1.983326 1_555
Mo7 O29 1.989515 1_655
Mo7 O19 2.260677 1_554
Mo7 O15 2.270217 1_555
Mo8 O4 1.741831 1_555
Mo8 O8 1.760762 1_555
Mo8 O18 1.962678 1_555
Mo8 O12 1.966340 1_455
Mo8 O28 2.265823 1_455
Mo8 O0 2.340721 1_455
Mo9 O5 1.741831 1_545
Mo9 O9 1.760762 1_555
Mo9 O19 1.962678 1_555
Mo9 O13 1.966340 1_655
Mo9 O29 2.265823 1_656
Mo9 O1 2.340721 1_655
Mo10 O6 1.741831 1_565
Mo10 O10 1.760762 1_555
Mo10 O16 1.962678 1_555
Mo10 O14 1.966340 1_555
Mo10 O30 2.265823 1_555
Mo10 O2 2.340721 1_555
Mo11 O7 1.741831 1_555
Mo11 O11 1.760762 1_555
Mo11 O17 1.962678 1_555
Mo11 O15 1.966340 1_555
Mo11 O31 2.265823 1_554
Mo11 O3 2.340721 1_555
O4 Rb0 2.937353 1_455
O5 Rb1 2.937353 1_655
O6 Rb2 2.937353 1_555
O7 Rb3 2.937353 1_555
O8 Rb1 2.970237 1_555
O8 Rb0 3.167827 1_455
O9 Rb0 2.970237 1_555
O9 Rb1 3.167827 1_645
O10 Rb3 2.970237 1_555
O10 Rb2 3.167827 1_565
O11 Rb2 2.970237 1_555
O11 Rb3 3.167827 1_555
O12 Rb7 3.277438 1_555
O13 Rb6 3.277438 1_555
O14 Rb5 3.277438 1_455
O15 Rb4 3.277438 1_655
O16 Rb5 3.266322 1_555
O17 Rb4 3.266322 1_555
O18 Rb7 3.266322 1_555
O19 Rb6 3.266322 1_555
O20 Rb2 2.933619 1_555
O21 Rb3 2.933619 1_555
O22 Rb0 2.933619 1_455
O23 Rb1 2.933619 1_655
O24 Rb0 2.934042 1_555
O25 Rb1 2.934042 1_555
O26 Rb2 2.934042 1_555
O27 Rb3 2.934042 1_555
O32 Rb3 2.986164 1_555
O32 Rb5 3.063697 1_555
O32 Rb4 3.292467 1_655
O33 Rb2 2.986164 1_555
O33 Rb4 3.063697 1_555
O33 Rb5 3.292467 1_445
O34 Rb1 2.986164 1_555
O34 Rb7 3.063697 1_555
O34 Rb6 3.292467 1_565
O35 Rb0 2.986164 1_555
O35 Rb6 3.063697 1_555
O35 Rb7 3.292467 1_555
O36 Rb1 2.987633 1_655
O36 Rb7 3.072394 1_555
O36 Rb6 3.283497 1_565
O37 Rb0 2.987633 1_455
O37 Rb6 3.072394 1_555
O37 Rb7 3.283497 1_555
O38 Rb3 2.987633 1_555
O38 Rb5 3.072394 1_455
O38 Rb4 3.283497 1_555
O39 Rb2 2.987633 1_555
O39 Rb4 3.072394 1_655
O39 Rb5 3.283497 1_545
O40 Rb4 2.988320 1_655
O40 Rb3 3.371925 1_555
O41 Rb5 2.988320 1_445
O41 Rb2 3.371925 1_555
O42 Rb6 2.988320 1_565
O42 Rb1 3.371925 1_555
O43 Rb7 2.988320 1_555
O43 Rb0 3.371925 1_555
