# generated using pymatgen
data_K3NaSi6(SnO10)2
_symmetry_space_group_name_H-M   'P 1'
_cell_length_a   11.63809700
_cell_length_b   6.57226500
_cell_length_c   13.00409956
_cell_angle_alpha   76.01801932
_cell_angle_beta   90.00000000
_cell_angle_gamma   90.00000000
_symmetry_Int_Tables_number   1
_chemical_formula_structural   K3NaSi6(SnO10)2
_chemical_formula_sum   'K6 Na2 Si12 Sn4 O40'
_cell_volume   965.19591364
_cell_formula_units_Z   2
loop_
 _symmetry_equiv_pos_site_id
 _symmetry_equiv_pos_as_xyz
  1  'x, y, z'
loop_
 _atom_site_type_symbol
 _atom_site_label
 _atom_site_symmetry_multiplicity
 _atom_site_fract_x
 _atom_site_fract_y
 _atom_site_fract_z
 _atom_site_occupancy
  K  K0  1  0.62129100  0.04513200  0.63445500  1
  K  K1  1  0.12129100  0.95486800  0.36554500  1
  K  K2  1  0.38121400  0.45470400  0.86496800  1
  K  K3  1  0.88121400  0.54529600  0.13503200  1
  K  K4  1  0.04305300  0.52160200  0.65873500  1
  K  K5  1  0.54305300  0.47839800  0.34126500  1
  Na  Na0  1  0.95502300  0.94991200  0.86667700  1
  Na  Na1  1  0.45502300  0.05008800  0.13332300  1
  Si  Si0  1  0.02277200  0.43286800  0.40956300  1
  Si  Si1  1  0.52277200  0.56713200  0.59043700  1
  Si  Si2  1  0.97624500  0.06767200  0.08804500  1
  Si  Si3  1  0.47624500  0.93232800  0.91195500  1
  Si  Si4  1  0.76139600  0.96940900  0.23191900  1
  Si  Si5  1  0.26139600  0.03059100  0.76808100  1
  Si  Si6  1  0.23505100  0.53455700  0.26703000  1
  Si  Si7  1  0.73505100  0.46544300  0.73297000  1
  Si  Si8  1  0.80633700  0.17395900  0.41077200  1
  Si  Si9  1  0.30633700  0.82604100  0.58922800  1
  Si  Si10  1  0.19574300  0.32344300  0.08991700  1
  Si  Si11  1  0.69574300  0.67655700  0.91008300  1
  Sn  Sn0  1  0.78015600  0.64624800  0.47081700  1
  Sn  Sn1  1  0.28015600  0.35375200  0.52918300  1
  Sn  Sn2  1  0.21991900  0.85415700  0.02926100  1
  Sn  Sn3  1  0.71991900  0.14584300  0.97073900  1
  O  O0  1  0.95286700  0.62180600  0.44176100  1
  O  O1  1  0.45286700  0.37819400  0.55823900  1
  O  O2  1  0.04562000  0.87828000  0.05549500  1
  O  O3  1  0.54562100  0.12172000  0.94450500  1
  O  O4  1  0.59789500  0.46402400  0.69758600  1
  O  O5  1  0.09789500  0.53597600  0.30241400  1
  O  O6  1  0.39755800  0.03166500  0.80662500  1
  O  O7  1  0.89755800  0.96833500  0.19337500  1
  O  O8  1  0.60664100  0.69391700  0.49671100  1
  O  O9  1  0.10664100  0.30608300  0.50328900  1
  O  O10  1  0.39379100  0.80500800  0.00647300  1
  O  O11  1  0.89379100  0.19499200  0.99352700  1
  O  O12  1  0.80852300  0.94478100  0.49315300  1
  O  O13  1  0.30852300  0.05521900  0.50684700  1
  O  O14  1  0.19129800  0.55273800  0.00648400  1
  O  O15  1  0.69129800  0.44726200  0.99351600  1
  O  O16  1  0.98953600  0.97883500  0.64043500  1
  O  O17  1  0.48953600  0.02116500  0.35956500  1
  O  O18  1  0.01694600  0.55415900  0.88438500  1
  O  O19  1  0.51694600  0.44584100  0.11561500  1
  O  O20  1  0.73685800  0.34138700  0.46044500  1
  O  O21  1  0.23685800  0.65861300  0.53955500  1
  O  O22  1  0.26993300  0.15626600  0.04309200  1
  O  O23  1  0.76993300  0.84373400  0.95690800  1
  O  O24  1  0.43778100  0.73944300  0.62481400  1
  O  O25  1  0.93778100  0.26055700  0.37518600  1
  O  O26  1  0.56439300  0.76570000  0.87696500  1
  O  O27  1  0.06439300  0.23430000  0.12303500  1
  O  O28  1  0.73875100  0.73955000  0.30993700  1
  O  O29  1  0.23875100  0.26045000  0.69006300  1
  O  O30  1  0.26076800  0.76282800  0.18948100  1
  O  O31  1  0.76076800  0.23717200  0.81051900  1
  O  O32  1  0.74731900  0.15759900  0.29632200  1
  O  O33  1  0.24731900  0.84240100  0.70367800  1
  O  O34  1  0.25213700  0.34522200  0.20379200  1
  O  O35  1  0.75213700  0.65477800  0.79620800  1
  O  O36  1  0.81615800  0.51910500  0.62893500  1
  O  O37  1  0.31615800  0.48089500  0.37106500  1
  O  O38  1  0.17702600  0.97899700  0.87048300  1
  O  O39  1  0.67702600  0.02100300  0.12951700  1
loop_
_geom_bond_atom_site_label_1
_geom_bond_atom_site_label_2
_geom_bond_distance
_geom_bond_site_symmetry_2
K0 O1 2.927055 1_555
K0 O20 2.931112 1_555
K0 O24 2.955510 1_545
K0 O12 3.024101 1_545
K0 O4 3.069152 1_555
K0 O8 3.250194 1_545
K0 O35 3.273764 1_545
K0 O31 3.296421 1_555
K0 O26 3.310266 1_545
K0 O6 3.421218 1_555
K1 O0 2.927055 1_455
K1 O21 2.931112 1_555
K1 O25 2.955510 1_465
K1 O13 3.024101 1_565
K1 O5 3.069152 1_555
K1 O9 3.250194 1_565
K1 O34 3.273764 1_565
K1 O30 3.296421 1_555
K1 O27 3.310266 1_565
K1 O7 3.421218 1_455
K2 O3 2.902821 1_555
K2 O22 2.948625 1_556
K2 O26 2.983448 1_555
K2 O14 3.043028 1_556
K2 O6 3.059633 1_555
K2 O33 3.276803 1_555
K2 O10 3.279534 1_556
K2 O24 3.296111 1_555
K2 O29 3.309891 1_555
K2 O4 3.322105 1_555
K3 O2 2.902813 1_655
K3 O23 2.948625 1_554
K3 O27 2.983448 1_655
K3 O15 3.043028 1_554
K3 O7 3.059633 1_555
K3 O32 3.276803 1_555
K3 O11 3.279534 1_554
K3 O25 3.296111 1_555
K3 O28 3.309891 1_555
K3 O5 3.322105 1_655
K4 O36 2.669536 1_455
K4 O21 2.761486 1_555
K4 O29 2.821562 1_555
K4 O9 2.832633 1_555
K4 O0 2.932333 1_455
K4 O18 3.008666 1_555
K4 O16 3.021481 1_455
K5 O37 2.669536 1_555
K5 O20 2.761486 1_555
K5 O28 2.821562 1_555
K5 O8 2.832633 1_555
K5 O1 2.932333 1_555
K5 O19 3.008666 1_555
K5 O17 3.021481 1_555
Na0 O23 2.471481 1_555
Na0 O38 2.592109 1_655
Na0 O2 2.608405 1_656
Na0 O18 2.654830 1_655
Na0 O11 2.665957 1_565
Na0 O31 2.922746 1_565
Na0 O16 2.929678 1_555
Na1 O22 2.471481 1_555
Na1 O39 2.592109 1_555
Na1 O3 2.608409 1_554
Na1 O19 2.654830 1_555
Na1 O10 2.665957 1_545
Na1 O30 2.922746 1_545
Na1 O17 2.929678 1_555
O0 Si0 1.621847 1_655
O0 Sn0 2.058668 1_555
O1 Si1 1.621847 1_555
O1 Sn1 2.058668 1_555
O2 Si2 1.623274 1_465
O2 Sn2 2.069421 1_555
O3 Si3 1.623280 1_545
O3 Sn3 2.069409 1_555
O4 Si1 1.645846 1_555
O4 Si7 1.661882 1_555
O5 Si0 1.645846 1_555
O5 Si6 1.661882 1_555
O6 Si3 1.645866 1_545
O6 Si5 1.662576 1_555
O7 Si2 1.645866 1_565
O7 Si4 1.662576 1_555
O8 Si1 1.625364 1_555
O8 Sn0 2.083370 1_555
O9 Si0 1.625364 1_555
O9 Sn1 2.083370 1_555
O10 Si3 1.623201 1_554
O10 Sn2 2.081616 1_555
O11 Si2 1.623201 1_556
O11 Sn3 2.081616 1_555
O12 Si8 1.623965 1_565
O12 Sn0 2.078062 1_555
O13 Si9 1.623965 1_545
O13 Sn1 2.078062 1_555
O14 Si10 1.631179 1_555
O14 Sn2 2.099192 1_555
O15 Si11 1.631179 1_555
O15 Sn3 2.099192 1_555
O20 Si8 1.620312 1_555
O20 Sn0 2.101720 1_555
O21 Si9 1.620312 1_555
O21 Sn1 2.101720 1_555
O22 Si10 1.626900 1_555
O22 Sn2 2.118040 1_545
O23 Si11 1.626900 1_555
O23 Sn3 2.118040 1_565
O24 Si1 1.644801 1_555
O24 Si9 1.658602 1_555
O25 Si0 1.644801 1_655
O25 Si8 1.658602 1_555
O26 Si3 1.643029 1_555
O26 Si11 1.656384 1_555
O27 Si2 1.643029 1_455
O27 Si10 1.656384 1_555
O28 Si4 1.624909 1_555
O28 Sn0 2.089299 1_555
O29 Si5 1.624909 1_555
O29 Sn1 2.089299 1_555
O30 Si6 1.620564 1_555
O30 Sn2 2.079183 1_555
O31 Si7 1.620564 1_555
O31 Sn3 2.079183 1_555
O32 Si4 1.660894 1_545
O32 Si8 1.666061 1_555
O33 Si5 1.660894 1_565
O33 Si9 1.666061 1_555
O34 Si10 1.657276 1_555
O34 Si6 1.660943 1_555
O35 Si11 1.657276 1_555
O35 Si7 1.660943 1_555
O36 Si7 1.617130 1_555
O36 Sn0 2.066740 1_555
O37 Si6 1.617130 1_555
O37 Sn1 2.066740 1_555
O38 Si5 1.623022 1_565
O38 Sn2 2.089735 1_556
O39 Si4 1.623022 1_545
O39 Sn3 2.089735 1_554
