# generated using pymatgen
data_Rb2Th(Si2O5)3
_symmetry_space_group_name_H-M   'P 1'
_cell_length_a   7.42525100
_cell_length_b   12.43137194
_cell_length_c   17.78348441
_cell_angle_alpha   98.99696749
_cell_angle_beta   90.98445352
_cell_angle_gamma   106.35678086
_symmetry_Int_Tables_number   1
_chemical_formula_structural   Rb2Th(Si2O5)3
_chemical_formula_sum   'Rb8 Th4 Si24 O60'
_cell_volume   1552.45722224
_cell_formula_units_Z   4
loop_
 _symmetry_equiv_pos_site_id
 _symmetry_equiv_pos_as_xyz
  1  'x, y, z'
loop_
 _atom_site_type_symbol
 _atom_site_label
 _atom_site_symmetry_multiplicity
 _atom_site_fract_x
 _atom_site_fract_y
 _atom_site_fract_z
 _atom_site_occupancy
  Rb  Rb0  1  0.13953200  0.82340900  0.46784500  1
  Rb  Rb1  1  0.86046800  0.17659100  0.53215500  1
  Rb  Rb2  1  0.20444000  0.87723200  0.98669400  1
  Rb  Rb3  1  0.79556000  0.12276800  0.01330600  1
  Rb  Rb4  1  0.11797900  0.70719100  0.24816400  1
  Rb  Rb5  1  0.88202100  0.29280900  0.75183600  1
  Rb  Rb6  1  0.10491200  0.73854300  0.75828000  1
  Rb  Rb7  1  0.89508800  0.26145700  0.24172000  1
  Th  Th0  1  0.62487100  0.75791900  0.88902800  1
  Th  Th1  1  0.37512900  0.24208100  0.11097200  1
  Th  Th2  1  0.60411700  0.72373300  0.36492400  1
  Th  Th3  1  0.39588300  0.27626700  0.63507600  1
  Si  Si0  1  0.34187100  0.16512300  0.90331200  1
  Si  Si1  1  0.65812900  0.83487700  0.09668800  1
  Si  Si2  1  0.54220500  0.99715300  0.81145800  1
  Si  Si3  1  0.45779500  0.00284700  0.18854200  1
  Si  Si4  1  0.95277400  0.00875800  0.83035600  1
  Si  Si5  1  0.04722600  0.99124200  0.16964400  1
  Si  Si6  1  0.44032300  0.99345600  0.64096500  1
  Si  Si7  1  0.55967700  0.00654400  0.35903500  1
  Si  Si8  1  0.69191900  0.85963500  0.57187300  1
  Si  Si9  1  0.30808100  0.14036500  0.42812700  1
  Si  Si10  1  0.05722400  0.01840200  0.66433700  1
  Si  Si11  1  0.94277600  0.98159800  0.33566300  1
  Si  Si12  1  0.57874500  0.65982500  0.67078700  1
  Si  Si13  1  0.42125500  0.34017500  0.32921300  1
  Si  Si14  1  0.19755100  0.51002100  0.60091800  1
  Si  Si15  1  0.80244900  0.48997900  0.39908200  1
  Si  Si16  1  0.77491600  0.48218900  0.57935800  1
  Si  Si17  1  0.22508400  0.51781100  0.42064200  1
  Si  Si18  1  0.44261900  0.39527400  0.84286900  1
  Si  Si19  1  0.55738100  0.60472600  0.15713100  1
  Si  Si20  1  0.18782100  0.52832600  0.90279500  1
  Si  Si21  1  0.81217900  0.47167400  0.09720500  1
  Si  Si22  1  0.80762900  0.55565400  0.93425100  1
  Si  Si23  1  0.19237100  0.44434600  0.06574900  1
  O  O0  1  0.44996100  0.09971700  0.83980000  1
  O  O1  1  0.55003900  0.90028300  0.16020000  1
  O  O2  1  0.38282400  0.14406400  0.98831100  1
  O  O3  1  0.61717600  0.85593600  0.01168900  1
  O  O4  1  0.11540500  0.11882900  0.87660600  1
  O  O5  1  0.88459500  0.88117100  0.12339400  1
  O  O6  1  0.48297800  0.89193500  0.85738900  1
  O  O7  1  0.51702200  0.10806500  0.14261100  1
  O  O8  1  0.77214400  0.06013800  0.82061900  1
  O  O9  1  0.22785600  0.93986200  0.17938100  1
  O  O10  1  0.47729800  0.95026900  0.72089900  1
  O  O11  1  0.52270200  0.04973100  0.27910100  1
  O  O12  1  0.90111200  0.90180800  0.87483000  1
  O  O13  1  0.09888800  0.09819200  0.12517000  1
  O  O14  1  0.01916600  0.96932600  0.74507400  1
  O  O15  1  0.98083400  0.03067400  0.25492600  1
  O  O16  1  0.53281100  0.12746700  0.64199300  1
  O  O17  1  0.46718900  0.87253300  0.35800700  1
  O  O18  1  0.20907100  0.95652100  0.62321100  1
  O  O19  1  0.79092900  0.04347900  0.37678900  1
  O  O20  1  0.50618300  0.90852000  0.57304100  1
  O  O21  1  0.49381700  0.09148000  0.42695900  1
  O  O22  1  0.72479500  0.80886400  0.48627400  1
  O  O23  1  0.27520500  0.19113600  0.51372600  1
  O  O24  1  0.67675300  0.76881100  0.62982100  1
  O  O25  1  0.32324700  0.23118900  0.37017900  1
  O  O26  1  0.86697000  0.97280900  0.60690000  1
  O  O27  1  0.13303000  0.02719100  0.39310000  1
  O  O28  1  0.12920600  0.15510700  0.67530400  1
  O  O29  1  0.87079400  0.84489300  0.32469600  1
  O  O30  1  0.34828400  0.62389300  0.65142800  1
  O  O31  1  0.65171600  0.37610700  0.34857200  1
  O  O32  1  0.64693200  0.55211400  0.62831800  1
  O  O33  1  0.35306800  0.44788600  0.37168200  1
  O  O34  1  0.63525300  0.68898900  0.76110700  1
  O  O35  1  0.36474700  0.31101100  0.23889300  1
  O  O36  1  0.99493200  0.53952800  0.61442800  1
  O  O37  1  0.00506800  0.46047200  0.38557200  1
  O  O38  1  0.20342800  0.39416600  0.62933600  1
  O  O39  1  0.79657200  0.60583400  0.37066400  1
  O  O40  1  0.23518500  0.50204800  0.50995200  1
  O  O41  1  0.76481500  0.49795200  0.49004800  1
  O  O42  1  0.69244700  0.35137000  0.59048800  1
  O  O43  1  0.30755300  0.64863000  0.40951200  1
  O  O44  1  0.41841700  0.30088400  0.89931400  1
  O  O45  1  0.58158300  0.69911600  0.10068600  1
  O  O46  1  0.24397900  0.43109100  0.84035400  1
  O  O47  1  0.75602100  0.56890900  0.15964600  1
  O  O48  1  0.50128000  0.35190000  0.75950200  1
  O  O49  1  0.49872000  0.64810000  0.24049800  1
  O  O50  1  0.95938900  0.50516700  0.88245200  1
  O  O51  1  0.04061100  0.49483300  0.11754800  1
  O  O52  1  0.85721500  0.69202200  0.94424300  1
  O  O53  1  0.14278500  0.30797800  0.05575700  1
  O  O54  1  0.60097100  0.51205400  0.88578300  1
  O  O55  1  0.39902900  0.48794600  0.11421700  1
  O  O56  1  0.78759900  0.49975000  0.01155800  1
  O  O57  1  0.21240100  0.50025000  0.98844200  1
  O  O58  1  0.30939200  0.65528100  0.89497500  1
  O  O59  1  0.69060800  0.34471900  0.10502500  1
loop_
_geom_bond_atom_site_label_1
_geom_bond_atom_site_label_2
_geom_bond_distance
_geom_bond_site_symmetry_2
O0 Si2 1.628364 1_545
O0 Si0 1.640865 1_555
O1 Si3 1.628364 1_565
O1 Si1 1.640865 1_555
O2 Si0 1.612043 1_555
O2 Th1 2.336323 1_556
O2 Rb3 3.179123 1_556
O2 Rb2 3.201957 1_545
O3 Si1 1.612043 1_555
O3 Th0 2.336323 1_554
O3 Rb2 3.179123 1_554
O3 Rb3 3.201957 1_565
O4 Si4 1.640202 1_455
O4 Si0 1.651190 1_555
O4 Rb3 3.432072 1_456
O5 Si5 1.640202 1_655
O5 Si1 1.651190 1_555
O5 Rb2 3.432072 1_654
O6 Si2 1.610581 1_555
O6 Th0 2.337444 1_555
O6 Rb2 3.111358 1_555
O6 Rb6 3.222879 1_555
O7 Si3 1.610581 1_555
O7 Th1 2.337444 1_555
O7 Rb3 3.111358 1_555
O7 Rb7 3.222879 1_555
O8 Si4 1.657091 1_555
O8 Si2 1.658995 1_545
O8 Rb5 3.215536 1_555
O8 Rb3 3.383367 1_556
O9 Si5 1.657091 1_555
O9 Si3 1.658995 1_565
O9 Rb4 3.215536 1_555
O9 Rb2 3.383367 1_554
O10 Si2 1.639233 1_555
O10 Si6 1.640911 1_555
O10 Rb6 3.395060 1_555
O11 Si3 1.639233 1_555
O11 Si7 1.640911 1_555
O11 Rb7 3.395060 1_555
O12 Si4 1.610091 1_565
O12 Th0 2.358630 1_555
O12 Rb2 3.089865 1_655
O12 Rb6 3.350699 1_655
O13 Si5 1.610091 1_545
O13 Th1 2.358630 1_555
O13 Rb3 3.089865 1_455
O13 Rb7 3.350699 1_455
O14 Si10 1.644488 1_565
O14 Si4 1.647029 1_465
O14 Rb6 3.150524 1_555
O15 Si11 1.644488 1_545
O15 Si5 1.647029 1_645
O15 Rb7 3.150524 1_555
O16 Si6 1.610270 1_545
O16 Th3 2.365742 1_555
O16 Rb1 3.131621 1_555
O16 Rb5 3.214398 1_555
O17 Si7 1.610270 1_565
O17 Th2 2.365742 1_555
O17 Rb0 3.131621 1_555
O17 Rb4 3.214398 1_555
O18 Si10 1.654937 1_565
O18 Si6 1.658590 1_555
O18 Rb0 2.945931 1_555
O19 Si11 1.654937 1_545
O19 Si7 1.658590 1_555
O19 Rb1 2.945931 1_555
O20 Si6 1.650853 1_555
O20 Si8 1.655551 1_555
O20 Rb0 3.100737 1_555
O21 Si7 1.650853 1_555
O21 Si9 1.655551 1_555
O21 Rb1 3.100737 1_555
O22 Si8 1.604443 1_555
O22 Th2 2.294587 1_555
O22 Rb0 3.059931 1_655
O23 Si9 1.604443 1_555
O23 Th3 2.294587 1_555
O23 Rb1 3.059931 1_455
O24 Si8 1.626568 1_555
O24 Si12 1.633259 1_555
O25 Si9 1.626568 1_555
O25 Si13 1.633259 1_555
O26 Si10 1.636646 1_665
O26 Si8 1.650748 1_555
O26 Rb1 3.050670 1_565
O27 Si11 1.636646 1_445
O27 Si9 1.650748 1_555
O27 Rb0 3.050670 1_545
O28 Si10 1.610259 1_555
O28 Th3 2.325340 1_555
O28 Rb5 3.046014 1_455
O28 Rb1 3.297261 1_455
O29 Si11 1.610259 1_555
O29 Th2 2.325340 1_555
O29 Rb4 3.046014 1_655
O29 Rb0 3.297261 1_655
O30 Si14 1.654929 1_555
O30 Si12 1.657556 1_555
O30 Rb6 3.103115 1_555
O31 Si15 1.654929 1_555
O31 Si13 1.657556 1_555
O31 Rb7 3.103115 1_555
O32 Si16 1.635172 1_555
O32 Si12 1.642663 1_555
O33 Si17 1.635172 1_555
O33 Si13 1.642663 1_555
O34 Si12 1.611340 1_555
O34 Th0 2.312757 1_555
O34 Rb6 3.368864 1_655
O35 Si13 1.611340 1_555
O35 Th1 2.312757 1_555
O35 Rb7 3.368864 1_455
O36 Si16 1.654088 1_555
O36 Si14 1.658757 1_655
O36 Rb6 3.184779 1_655
O37 Si17 1.654088 1_555
O37 Si15 1.658757 1_455
O37 Rb7 3.184779 1_455
O38 Si14 1.610551 1_555
O38 Th3 2.328541 1_555
O38 Rb1 3.360764 1_455
O38 Rb5 3.372295 1_455
O39 Si15 1.610551 1_555
O39 Th2 2.328541 1_555
O39 Rb0 3.360764 1_655
O39 Rb4 3.372295 1_655
O40 Si17 1.633421 1_555
O40 Si14 1.638849 1_555
O41 Si16 1.633421 1_555
O41 Si15 1.638849 1_555
O42 Si16 1.613325 1_555
O42 Th3 2.341594 1_555
O42 Rb1 2.867007 1_555
O42 Rb5 3.440373 1_555
O43 Si17 1.613325 1_555
O43 Th2 2.341594 1_555
O43 Rb0 2.867007 1_555
O43 Rb4 3.440373 1_555
O44 Si18 1.634798 1_555
O44 Si0 1.635561 1_555
O45 Si19 1.634798 1_555
O45 Si1 1.635561 1_555
O46 Si20 1.657715 1_555
O46 Si18 1.658189 1_555
O46 Rb5 3.010391 1_455
O47 Si21 1.657715 1_555
O47 Si19 1.658189 1_555
O47 Rb4 3.010391 1_655
O48 Si18 1.607134 1_555
O48 Th3 2.295214 1_555
O48 Rb5 3.114850 1_555
O49 Si19 1.607134 1_555
O49 Th2 2.295214 1_555
O49 Rb4 3.114850 1_555
O50 Si20 1.661938 1_655
O50 Si22 1.662965 1_555
O50 Rb5 3.142712 1_555
O51 Si21 1.661938 1_455
O51 Si23 1.662965 1_555
O51 Rb4 3.142712 1_555
O52 Si22 1.610268 1_555
O52 Th0 2.366636 1_555
O52 Rb2 2.926489 1_655
O53 Si23 1.610268 1_555
O53 Th1 2.366636 1_555
O53 Rb3 2.926489 1_455
O54 Si22 1.652676 1_555
O54 Si18 1.653390 1_555
O55 Si23 1.652676 1_555
O55 Si19 1.653390 1_555
O56 Si22 1.625660 1_554
O56 Si21 1.633267 1_555
O57 Si23 1.625660 1_556
O57 Si20 1.633267 1_555
O58 Si20 1.611066 1_555
O58 Th0 2.343889 1_555
O58 Rb2 3.275339 1_555
O58 Rb6 3.291088 1_555
O59 Si21 1.611066 1_555
O59 Th1 2.343889 1_555
O59 Rb3 3.275339 1_555
O59 Rb7 3.291088 1_555
