# generated using pymatgen
data_LaMg6Cu
_symmetry_space_group_name_H-M   'P 1'
_cell_length_a   4.88021300
_cell_length_b   6.28245400
_cell_length_c   12.42740600
_cell_angle_alpha   90.00000000
_cell_angle_beta   90.00000000
_cell_angle_gamma   90.00000000
_symmetry_Int_Tables_number   1
_chemical_formula_structural   LaMg6Cu
_chemical_formula_sum   'La2 Mg12 Cu2'
_cell_volume   381.02070978
_cell_formula_units_Z   2
loop_
 _symmetry_equiv_pos_site_id
 _symmetry_equiv_pos_as_xyz
  1  'x, y, z'
loop_
 _atom_site_type_symbol
 _atom_site_label
 _atom_site_symmetry_multiplicity
 _atom_site_fract_x
 _atom_site_fract_y
 _atom_site_fract_z
 _atom_site_occupancy
  La  La0  1  0.50000000  0.00000000  0.70127200  1
  La  La1  1  0.50000000  0.50000000  0.20127200  1
  Mg  Mg0  1  0.00000000  0.24963400  0.55897600  1
  Mg  Mg1  1  0.00000000  0.75036600  0.55897600  1
  Mg  Mg2  1  0.00000000  0.50000000  0.80742100  1
  Mg  Mg3  1  0.50000000  0.74973900  0.92742900  1
  Mg  Mg4  1  0.50000000  0.25026100  0.92742900  1
  Mg  Mg5  1  0.50000000  0.50000000  0.65048700  1
  Mg  Mg6  1  0.00000000  0.74963400  0.05897600  1
  Mg  Mg7  1  0.00000000  0.25036600  0.05897600  1
  Mg  Mg8  1  0.00000000  0.00000000  0.30742100  1
  Mg  Mg9  1  0.50000000  0.24973900  0.42742900  1
  Mg  Mg10  1  0.50000000  0.75026100  0.42742900  1
  Mg  Mg11  1  0.50000000  0.00000000  0.15048700  1
  Cu  Cu0  1  0.00000000  0.00000000  0.86801100  1
  Cu  Cu1  1  0.00000000  0.50000000  0.36801100  1
loop_
_geom_bond_atom_site_label_1
_geom_bond_atom_site_label_2
_geom_bond_distance
_geom_bond_site_symmetry_2
La0 Mg5 3.204002 1_555
La0 Mg5 3.204002 1_545
La0 Mg4 3.220426 1_555
La0 Mg3 3.220426 1_545
La0 Mg1 3.397184 1_545
La0 Mg1 3.397184 1_645
La0 Mg0 3.397184 1_655
La0 Mg0 3.397184 1_555
La1 Mg11 3.204002 1_555
La1 Mg11 3.204002 1_565
La1 Mg9 3.220426 1_555
La1 Mg10 3.220426 1_555
La1 Mg6 3.397184 1_555
La1 Mg6 3.397184 1_655
La1 Mg7 3.397184 1_555
La1 Mg7 3.397184 1_655
Mg0 Mg9 2.937116 1_555
Mg0 Mg9 2.937116 1_455
Mg0 Mg5 3.117932 1_455
Mg0 Mg5 3.117932 1_555
Mg0 Mg1 3.136628 1_545
Mg0 Mg1 3.145826 1_555
Mg0 Mg2 3.465094 1_555
Mg0 Mg8 3.497511 1_555
Mg1 Mg10 2.937116 1_455
Mg1 Mg10 2.937116 1_555
Mg1 Mg5 3.117932 1_455
Mg1 Mg5 3.117932 1_555
Mg1 Mg2 3.465094 1_555
Mg1 Mg8 3.497511 1_565
Mg2 Mg5 3.123735 1_455
Mg2 Mg5 3.123735 1_555
Mg2 Mg3 3.261907 1_555
Mg2 Mg3 3.261907 1_455
Mg2 Mg4 3.261907 1_555
Mg2 Mg4 3.261907 1_455
Mg2 Mg6 3.497511 1_556
Mg2 Mg7 3.497511 1_556
Mg3 Mg6 2.937116 1_656
Mg3 Mg6 2.937116 1_556
Mg3 Mg4 3.137948 1_555
Mg3 Mg4 3.144506 1_565
Mg4 Mg7 2.937116 1_656
Mg4 Mg7 2.937116 1_556
Mg5 Mg9 3.186870 1_555
Mg6 Mg7 3.136628 1_555
Mg6 Mg7 3.145826 1_565
Mg6 Mg8 3.465094 1_565
Mg7 Mg8 3.465094 1_555
Mg8 Mg9 3.261907 1_455
Mg8 Mg9 3.261907 1_555
Mg10 Mg9 3.137948 1_565
Mg10 Mg9 3.144506 1_555
Mg10 Mg5 3.186870 1_555
Mg10 Mg8 3.261907 1_565
Mg10 Mg8 3.261907 1_665
Mg11 Mg7 3.117932 1_555
Mg11 Mg7 3.117932 1_655
Mg11 Mg6 3.117932 1_645
Mg11 Mg6 3.117932 1_545
Mg11 Mg8 3.123735 1_655
Mg11 Mg8 3.123735 1_555
Mg11 Mg4 3.186870 1_554
Mg11 Mg3 3.186870 1_544
Cu0 Mg7 2.847127 1_556
Cu0 Mg6 2.847127 1_546
Cu0 Mg4 2.995221 1_455
Cu0 Mg4 2.995221 1_555
Cu0 Mg3 2.995221 1_545
Cu0 Mg3 2.995221 1_445
Cu0 La0 3.201227 1_455
Cu0 La0 3.201227 1_555
Cu0 Mg2 3.230214 1_545
Cu0 Mg2 3.230214 1_555
Cu1 Mg1 2.847127 1_555
Cu1 Mg0 2.847127 1_555
Cu1 Mg9 2.995221 1_455
Cu1 Mg9 2.995221 1_555
Cu1 Mg10 2.995221 1_455
Cu1 Mg10 2.995221 1_555
Cu1 La1 3.201227 1_455
Cu1 La1 3.201227 1_555
Cu1 Mg8 3.230214 1_565
Cu1 Mg8 3.230214 1_555
