# generated using pymatgen
data_Na7As11O31
_symmetry_space_group_name_H-M   'P 1'
_cell_length_a   11.39584453
_cell_length_b   11.41330449
_cell_length_c   16.47133041
_cell_angle_alpha   89.87433120
_cell_angle_beta   90.34184135
_cell_angle_gamma   120.16682749
_symmetry_Int_Tables_number   1
_chemical_formula_structural   Na7As11O31
_chemical_formula_sum   'Na21 As33 O93'
_cell_volume   1852.15265365
_cell_formula_units_Z   3
loop_
 _symmetry_equiv_pos_site_id
 _symmetry_equiv_pos_as_xyz
  1  'x, y, z'
loop_
 _atom_site_type_symbol
 _atom_site_label
 _atom_site_symmetry_multiplicity
 _atom_site_fract_x
 _atom_site_fract_y
 _atom_site_fract_z
 _atom_site_occupancy
  Na  Na0  1  0.22860065  0.77397063  0.33158104  1
  Na  Na1  1  0.23186586  0.76885633  0.66370551  1
  Na  Na2  1  0.22967164  0.77126448  0.99653503  1
  Na  Na3  1  0.23058241  0.45922155  0.32995406  1
  Na  Na4  1  0.98247274  0.97631072  0.34212326  1
  Na  Na5  1  0.22800477  0.45196788  0.66300708  1
  Na  Na6  1  0.22861624  0.45408048  0.99743270  1
  Na  Na7  1  0.98575467  0.01457261  0.67205231  1
  Na  Na8  1  0.54646669  0.77329894  0.33005884  1
  Na  Na9  1  0.54739463  0.77242751  0.66295687  1
  Na  Na10  1  0.54881101  0.77372636  0.99608777  1
  Na  Na11  1  0.45758966  0.22151633  0.00173777  1
  Na  Na12  1  0.45837378  0.23633658  0.33506286  1
  Na  Na13  1  0.45678229  0.23728001  0.66834713  1
  Na  Na14  1  0.98832201  0.00819785  0.01346361  1
  Na  Na15  1  0.77136906  0.54643120  0.00451362  1
  Na  Na16  1  0.76181587  0.54263446  0.66856633  1
  Na  Na17  1  0.76374604  0.54524773  0.33402802  1
  Na  Na18  1  0.76364470  0.21808485  0.00115581  1
  Na  Na19  1  0.77060794  0.22574294  0.33815104  1
  Na  Na20  1  0.77436706  0.22445447  0.67005995  1
  As  As0  1  0.00185809  0.50872789  0.16697362  1
  As  As1  1  0.00190617  0.49294460  0.49952710  1
  As  As2  1  0.00169504  0.49432253  0.83310373  1
  As  As3  1  0.27691039  0.02282347  0.49297449  1
  As  As4  1  0.24974757  0.99463375  0.16702785  1
  As  As5  1  0.27609865  0.02325852  0.82597893  1
  As  As6  1  0.97643798  0.25487330  0.16199725  1
  As  As7  1  0.99954952  0.24655267  0.49821912  1
  As  As8  1  0.99935551  0.24804314  0.83398249  1
  As  As9  1  0.33375356  0.66769483  0.15898580  1
  As  As10  1  0.33393949  0.66592681  0.49157384  1
  As  As11  1  0.33370916  0.66606969  0.82529397  1
  As  As12  1  0.50106775  0.00239452  0.17024416  1
  As  As13  1  0.50649365  0.99795013  0.49994738  1
  As  As14  1  0.50573319  0.99823147  0.83280218  1
  As  As15  1  0.27676249  0.25338727  0.16090400  1
  As  As16  1  0.24912509  0.25401169  0.49875496  1
  As  As17  1  0.24885483  0.25479425  0.83384644  1
  As  As18  1  0.50094449  0.49841782  0.50221050  1
  As  As19  1  0.50633737  0.50840447  0.16697035  1
  As  As20  1  0.50127174  0.49911429  0.83609042  1
  As  As21  1  0.75355436  0.75338574  0.16699621  1
  As  As22  1  0.74513817  0.75005559  0.50092337  1
  As  As23  1  0.74560196  0.75138069  0.83368646  1
  As  As24  1  0.66763846  0.33400333  0.17462632  1
  As  As25  1  0.66768276  0.33257531  0.50759116  1
  As  As26  1  0.66748402  0.33362695  0.84066111  1
  As  As27  1  0.99962757  0.75283420  0.16627189  1
  As  As28  1  0.97691764  0.72176132  0.49402110  1
  As  As29  1  0.97677158  0.72349700  0.82606769  1
  As  As30  1  0.74442940  0.99475658  0.16876823  1
  As  As31  1  0.75319929  0.00009429  0.49931652  1
  As  As32  1  0.75264559  0.00074831  0.83376815  1
  O  O0  1  0.09721862  0.90602055  0.23141948  1
  O  O1  1  0.05963254  0.65422549  0.23270225  1
  O  O2  1  0.04999898  0.64692160  0.89602396  1
  O  O3  1  0.05090717  0.64591798  0.56331632  1
  O  O4  1  0.15523708  0.84471043  0.10315880  1
  O  O5  1  0.14253532  0.85615462  0.46501080  1
  O  O6  1  0.14386212  0.85603983  0.79703598  1
  O  O7  1  0.05037198  0.40476102  0.23081153  1
  O  O8  1  0.05953249  0.40486573  0.56491959  1
  O  O9  1  0.05922194  0.40659423  0.89963895  1
  O  O10  1  0.35055112  0.94441355  0.23503814  1
  O  O11  1  0.35398076  0.95033955  0.56317305  1
  O  O12  1  0.35428406  0.95181288  0.89630794  1
  O  O13  1  0.17483842  0.58994535  0.44182023  1
  O  O14  1  0.17460177  0.58494140  0.10912608  1
  O  O15  1  0.17465261  0.59018615  0.77536799  1
  O  O16  1  0.33334611  0.66686986  0.59304877  1
  O  O17  1  0.33283133  0.66500410  0.26031567  1
  O  O18  1  0.33307655  0.66800199  0.92664269  1
  O  O19  1  0.14187592  0.28492954  0.13379349  1
  O  O20  1  0.15536409  0.31077960  0.43520345  1
  O  O21  1  0.09656794  0.18958539  0.56272004  1
  O  O22  1  0.15444459  0.31103837  0.77098108  1
  O  O23  1  0.09658906  0.19101927  0.89885785  1
  O  O24  1  0.41244285  0.82556164  0.11085949  1
  O  O25  1  0.40909127  0.82479636  0.77562415  1
  O  O26  1  0.40939100  0.82453880  0.44236022  1
  O  O27  1  0.40909694  0.58458472  0.10986040  1
  O  O28  1  0.41250621  0.58711013  0.44344999  1
  O  O29  1  0.41214010  0.58732819  0.77709460  1
  O  O30  1  0.59421489  0.94509317  0.23600153  1
  O  O31  1  0.59556628  0.94182235  0.56597592  1
  O  O32  1  0.59475458  0.94283870  0.89972181  1
  O  O33  1  0.20261113  0.09988115  0.09923589  1
  O  O34  1  0.20247288  0.10212805  0.43123161  1
  O  O35  1  0.20112542  0.10280428  0.76535692  1
  O  O36  1  0.35518081  0.40277370  0.23092443  1
  O  O37  1  0.35109036  0.40588295  0.90152119  1
  O  O38  1  0.35102511  0.40465978  0.56719997  1
  O  O39  1  0.41311930  0.35718786  0.09505634  1
  O  O40  1  0.40801744  0.34977008  0.43624726  1
  O  O41  1  0.40715074  0.35004425  0.77051588  1
  O  O42  1  0.30152727  0.15276317  0.23356567  1
  O  O43  1  0.30061499  0.14707823  0.56587130  1
  O  O44  1  0.30063743  0.14741109  0.89950576  1
  O  O45  1  0.68782944  0.84472908  0.10532498  1
  O  O46  1  0.68813056  0.84322586  0.43753391  1
  O  O47  1  0.68813843  0.84492797  0.77095089  1
  O  O48  1  0.59590406  0.65258195  0.23366471  1
  O  O49  1  0.59514910  0.64956271  0.90137884  1
  O  O50  1  0.59498192  0.64830199  0.56841907  1
  O  O51  1  0.65162818  0.59709107  0.10104709  1
  O  O52  1  0.64963289  0.59139327  0.43737531  1
  O  O53  1  0.64946920  0.59227968  0.77038047  1
  O  O54  1  0.81131193  0.90702385  0.23206709  1
  O  O55  1  0.81152508  0.90412867  0.56427087  1
  O  O56  1  0.81104621  0.90472593  0.89805918  1
  O  O57  1  0.40812329  0.05842183  0.10433551  1
  O  O58  1  0.41358978  0.05614691  0.42761729  1
  O  O59  1  0.41285362  0.05670174  0.76047252  1
  O  O60  1  0.58753423  0.41239255  0.22257079  1
  O  O61  1  0.58950706  0.41039332  0.55901479  1
  O  O62  1  0.58950017  0.41118762  0.89232079  1
  O  O63  1  0.84652660  0.69173820  0.22928576  1
  O  O64  1  0.85406836  0.69981781  0.56737626  1
  O  O65  1  0.85340927  0.69998449  0.89957508  1
  O  O66  1  0.66608220  0.33187238  0.07307324  1
  O  O67  1  0.90504234  0.81139338  0.10129659  1
  O  O68  1  0.89522982  0.79397244  0.43274756  1
  O  O69  1  0.66620560  0.33448654  0.40596781  1
  O  O70  1  0.66577564  0.33350837  0.73894685  1
  O  O71  1  0.89667108  0.79782544  0.76523376  1
  O  O72  1  0.58935438  0.17818261  0.22674662  1
  O  O73  1  0.58703554  0.17385725  0.55551198  1
  O  O74  1  0.58687230  0.17477892  0.88872579  1
  O  O75  1  0.82684066  0.41311459  0.22296755  1
  O  O76  1  0.82703665  0.41343223  0.55565315  1
  O  O77  1  0.82662278  0.41425006  0.88888518  1
  O  O78  1  0.64948993  0.05842706  0.10520468  1
  O  O79  1  0.65135635  0.05472934  0.43367897  1
  O  O80  1  0.65114590  0.05541383  0.76726180  1
  O  O81  1  0.94367087  0.59660319  0.10076164  1
  O  O82  1  0.94252080  0.58526274  0.42801450  1
  O  O83  1  0.94245192  0.58625856  0.76055835  1
  O  O84  1  0.85298981  0.15353887  0.23514672  1
  O  O85  1  0.84655774  0.15448918  0.56159128  1
  O  O86  1  0.84560807  0.15514829  0.89639860  1
  O  O87  1  0.94226761  0.35713755  0.09557423  1
  O  O88  1  0.94386675  0.34827294  0.76753068  1
  O  O89  1  0.94379279  0.34756431  0.43300824  1
  O  O90  1  0.89460071  0.10130806  0.10054377  1
  O  O91  1  0.90349621  0.09651273  0.76840265  1
  O  O92  1  0.90435432  0.09385123  0.43325571  1
loop_
_geom_bond_atom_site_label_1
_geom_bond_atom_site_label_2
_geom_bond_distance
_geom_bond_site_symmetry_2
Na0 O10 2.353725 1_555
Na0 O1 2.357021 1_555
Na0 O17 2.417265 1_555
Na0 O26 2.583006 1_555
Na0 O13 2.605208 1_555
Na0 O5 2.762483 1_555
Na1 O16 2.328442 1_555
Na1 O3 2.452950 1_555
Na1 O11 2.466662 1_555
Na1 O25 2.559226 1_555
Na1 O15 2.574465 1_555
Na1 O6 2.803157 1_555
Na2 O4 2.290290 1_556
Na2 O18 2.349652 1_555
Na2 O2 2.448809 1_555
Na2 O12 2.461769 1_555
Na2 O24 2.632350 1_556
Na2 O14 2.647767 1_556
Na3 O20 2.270630 1_555
Na3 O17 2.333081 1_555
Na3 O7 2.439684 1_555
Na3 O36 2.458349 1_555
Na3 O28 2.616820 1_555
Na3 O13 2.646372 1_555
Na4 O68 2.339261 1_555
Na4 O92 2.463832 1_565
Na4 O54 2.475863 1_555
Na4 O0 2.601461 1_655
Na4 O34 2.617029 1_665
Na5 O22 2.258975 1_555
Na5 O8 2.348341 1_555
Na5 O38 2.353323 1_555
Na5 O16 2.414479 1_555
Na5 O29 2.651183 1_555
Na5 O15 2.696971 1_555
Na6 O9 2.351602 1_555
Na6 O37 2.355432 1_555
Na6 O18 2.412633 1_555
Na6 O27 2.601103 1_556
Na6 O14 2.635105 1_556
Na6 O19 2.799720 1_556
Na7 O91 2.275371 1_555
Na7 O55 2.476932 1_545
Na7 O21 2.510749 1_655
Na7 O35 2.622501 1_655
Na7 O71 2.642705 1_545
Na8 O46 2.248147 1_555
Na8 O30 2.337779 1_555
Na8 O48 2.353080 1_555
Na8 O17 2.392278 1_555
Na8 O28 2.662848 1_555
Na8 O26 2.676023 1_555
Na9 O47 2.249418 1_555
Na9 O50 2.348983 1_555
Na9 O31 2.349714 1_555
Na9 O16 2.397164 1_555
Na9 O29 2.667903 1_555
Na9 O25 2.696618 1_555
Na10 O45 2.255218 1_556
Na10 O49 2.343553 1_555
Na10 O32 2.345166 1_555
Na10 O18 2.408223 1_555
Na10 O27 2.696370 1_556
Na10 O24 2.702363 1_556
Na11 O44 2.280324 1_554
Na11 O66 2.361709 1_555
Na11 O57 2.362531 1_555
Na11 O39 2.413625 1_555
Na11 O74 2.597512 1_554
Na11 O62 2.634141 1_554
Na12 O42 2.270981 1_555
Na12 O69 2.352553 1_555
Na12 O40 2.355989 1_555
Na12 O58 2.398886 1_555
Na12 O60 2.584765 1_555
Na12 O72 2.623780 1_555
Na13 O43 2.281774 1_555
Na13 O41 2.358125 1_555
Na13 O70 2.361021 1_555
Na13 O59 2.399853 1_555
Na13 O61 2.539279 1_555
Na13 O73 2.701879 1_555
Na14 O90 2.343712 1_555
Na14 O67 2.428728 1_545
Na14 O33 2.539966 1_655
Na14 O56 2.579808 1_544
Na14 O23 2.619674 1_654
Na15 O65 2.300519 1_554
Na15 O81 2.352321 1_555
Na15 O51 2.355290 1_555
Na15 O66 2.400550 1_555
Na15 O62 2.616222 1_554
Na15 O77 2.698402 1_554
Na16 O64 2.283392 1_555
Na16 O53 2.351900 1_555
Na16 O70 2.369852 1_555
Na16 O83 2.391079 1_555
Na16 O61 2.526040 1_555
Na16 O76 2.704802 1_555
Na17 O63 2.254630 1_555
Na17 O52 2.363233 1_555
Na17 O69 2.396227 1_555
Na17 O82 2.405416 1_555
Na17 O60 2.570981 1_555
Na17 O75 2.693559 1_555
Na18 O86 2.250491 1_554
Na18 O78 2.362297 1_555
Na18 O66 2.408229 1_555
Na18 O87 2.409794 1_555
Na18 O74 2.586624 1_554
Na18 O77 2.707431 1_554
Na19 O84 2.289476 1_555
Na19 O79 2.340610 1_555
Na19 O89 2.341847 1_555
Na19 O69 2.389492 1_555
Na19 O72 2.600101 1_555
Na19 O75 2.683806 1_555
Na20 O85 2.278270 1_555
Na20 O88 2.352695 1_555
Na20 O80 2.355389 1_555
Na20 O70 2.437006 1_555
Na20 O73 2.677389 1_555
Na20 O76 2.694059 1_555
As0 O1 1.806584 1_555
As0 O81 1.813828 1_455
As0 O7 1.861785 1_555
As0 O87 1.912119 1_455
As0 O14 1.958957 1_555
As0 O75 1.962007 1_455
As1 O8 1.803405 1_555
As1 O89 1.813046 1_455
As1 O3 1.866881 1_555
As1 O82 1.912416 1_455
As1 O13 1.959031 1_555
As1 O76 1.962176 1_455
As2 O88 1.809642 1_455
As2 O9 1.810989 1_555
As2 O2 1.856887 1_555
As2 O83 1.918721 1_455
As2 O15 1.958757 1_555
As2 O77 1.960992 1_455
As3 O43 1.773251 1_555
As3 O58 1.775507 1_555
As3 O5 1.800951 1_545
As3 O34 1.824947 1_555
As3 O11 1.872606 1_545
As4 O4 1.826693 1_555
As4 O0 1.849210 1_555
As4 O10 1.883245 1_555
As4 O57 1.884699 1_565
As4 O33 1.900994 1_565
As4 O42 1.933184 1_565
As5 O44 1.777085 1_555
As5 O59 1.777364 1_555
As5 O6 1.801525 1_545
As5 O35 1.821181 1_555
As5 O12 1.874686 1_545
As6 O84 1.774059 1_555
As6 O87 1.776803 1_555
As6 O19 1.802115 1_655
As6 O90 1.822079 1_555
As6 O7 1.862702 1_655
As7 O85 1.846362 1_555
As7 O92 1.858335 1_555
As7 O20 1.864957 1_655
As7 O21 1.865277 1_655
As7 O89 1.899792 1_555
As7 O8 1.922886 1_655
As8 O86 1.844062 1_555
As8 O91 1.856478 1_555
As8 O22 1.859810 1_655
As8 O23 1.871058 1_655
As8 O88 1.902574 1_555
As8 O9 1.915358 1_655
As9 O17 1.669252 1_555
As9 O24 1.748510 1_555
As9 O14 1.766331 1_555
As9 O27 1.766891 1_555
As10 O16 1.671561 1_555
As10 O28 1.749344 1_555
As10 O26 1.763814 1_555
As10 O13 1.765242 1_555
As11 O18 1.669649 1_555
As11 O29 1.748056 1_555
As11 O15 1.766181 1_555
As11 O25 1.768325 1_555
As12 O78 1.830013 1_555
As12 O57 1.836641 1_555
As12 O10 1.843095 1_545
As12 O30 1.846209 1_545
As12 O72 1.967740 1_555
As12 O24 1.999590 1_545
As13 O31 1.805779 1_555
As13 O79 1.811034 1_565
As13 O11 1.862910 1_555
As13 O58 1.915641 1_565
As13 O26 1.958569 1_555
As13 O73 1.963891 1_565
As14 O80 1.807937 1_565
As14 O32 1.808872 1_555
As14 O12 1.858410 1_555
As14 O59 1.917382 1_565
As14 O25 1.955242 1_555
As14 O74 1.972076 1_565
As15 O42 1.773891 1_555
As15 O39 1.777294 1_555
As15 O19 1.799748 1_555
As15 O33 1.823454 1_555
As15 O36 1.871033 1_555
As16 O20 1.826648 1_555
As16 O21 1.845763 1_555
As16 O40 1.887213 1_555
As16 O38 1.887317 1_555
As16 O34 1.897312 1_555
As16 O43 1.939597 1_555
As17 O22 1.822012 1_555
As17 O23 1.853849 1_555
As17 O37 1.883426 1_555
As17 O41 1.889604 1_555
As17 O35 1.905431 1_555
As17 O44 1.932199 1_555
As18 O52 1.829510 1_555
As18 O40 1.835464 1_555
As18 O38 1.840976 1_555
As18 O50 1.848208 1_555
As18 O61 1.976609 1_555
As18 O28 1.996641 1_555
As19 O48 1.806354 1_555
As19 O51 1.810322 1_555
As19 O36 1.859904 1_555
As19 O39 1.913516 1_555
As19 O27 1.954772 1_555
As19 O60 1.974911 1_555
As20 O53 1.834720 1_555
As20 O41 1.836279 1_555
As20 O49 1.843248 1_555
As20 O37 1.846483 1_555
As20 O62 1.968425 1_555
As20 O29 2.000347 1_555
As21 O63 1.844812 1_555
As21 O45 1.857626 1_555
As21 O67 1.860128 1_555
As21 O54 1.869937 1_555
As21 O51 1.903218 1_555
As21 O48 1.922962 1_555
As22 O46 1.823274 1_555
As22 O55 1.847945 1_555
As22 O50 1.879504 1_555
As22 O52 1.890316 1_555
As22 O68 1.896468 1_555
As22 O64 1.940150 1_555
As23 O47 1.823824 1_555
As23 O56 1.852141 1_555
As23 O49 1.883591 1_555
As23 O53 1.892132 1_555
As23 O71 1.902472 1_555
As23 O65 1.933098 1_555
As24 O66 1.672803 1_555
As24 O75 1.755077 1_555
As24 O60 1.757819 1_555
As24 O72 1.761695 1_555
As25 O69 1.674061 1_555
As25 O76 1.754379 1_555
As25 O73 1.754520 1_555
As25 O61 1.762800 1_555
As26 O70 1.675362 1_555
As26 O77 1.753672 1_555
As26 O74 1.756725 1_555
As26 O62 1.760799 1_555
As27 O63 1.844790 1_555
As27 O67 1.860388 1_555
As27 O4 1.863653 1_655
As27 O0 1.866779 1_655
As27 O81 1.899448 1_555
As27 O1 1.921103 1_655
As28 O64 1.774542 1_555
As28 O82 1.775202 1_555
As28 O5 1.800332 1_655
As28 O68 1.822266 1_555
As28 O3 1.865672 1_655
As29 O65 1.775954 1_555
As29 O83 1.776903 1_555
As29 O6 1.804304 1_655
As29 O71 1.822240 1_555
As29 O2 1.872178 1_655
As30 O45 1.824786 1_555
As30 O54 1.850294 1_555
As30 O30 1.876881 1_555
As30 O78 1.888943 1_565
As30 O90 1.896227 1_565
As30 O84 1.936327 1_565
As31 O85 1.843892 1_555
As31 O46 1.858931 1_545
As31 O92 1.860352 1_555
As31 O55 1.871934 1_545
As31 O79 1.901072 1_555
As31 O31 1.922075 1_545
As32 O86 1.846773 1_555
As32 O91 1.854062 1_555
As32 O47 1.859791 1_545
As32 O56 1.866797 1_545
As32 O80 1.906399 1_555
As32 O32 1.918182 1_545
