# generated using pymatgen
data_GdIn2Cl5
_symmetry_space_group_name_H-M   'P 1'
_cell_length_a   8.11936952
_cell_length_b   8.62437518
_cell_length_c   12.82914074
_cell_angle_alpha   90.00000000
_cell_angle_beta   90.00000000
_cell_angle_gamma   90.00000000
_symmetry_Int_Tables_number   1
_chemical_formula_structural   GdIn2Cl5
_chemical_formula_sum   'Gd4 In8 Cl20'
_cell_volume   898.35402419
_cell_formula_units_Z   4
loop_
 _symmetry_equiv_pos_site_id
 _symmetry_equiv_pos_as_xyz
  1  'x, y, z'
loop_
 _atom_site_type_symbol
 _atom_site_label
 _atom_site_symmetry_multiplicity
 _atom_site_fract_x
 _atom_site_fract_y
 _atom_site_fract_z
 _atom_site_occupancy
  Gd  Gd0  1  0.92590514  0.75000000  0.50439891  1
  Gd  Gd1  1  0.07409486  0.25000000  0.49560109  1
  Gd  Gd2  1  0.42590514  0.25000000  0.99560109  1
  Gd  Gd3  1  0.57409486  0.75000000  0.00439891  1
  In  In0  1  0.94886187  0.00495165  0.82819400  1
  In  In1  1  0.05113813  0.99504835  0.17180600  1
  In  In2  1  0.44886187  0.99504835  0.67180600  1
  In  In3  1  0.05113813  0.50495165  0.17180600  1
  In  In4  1  0.55113813  0.00495165  0.32819400  1
  In  In5  1  0.94886187  0.49504835  0.82819400  1
  In  In6  1  0.55113813  0.49504835  0.32819400  1
  In  In7  1  0.44886187  0.50495165  0.67180600  1
  Cl  Cl0  1  0.10502164  0.75000000  0.68161073  1
  Cl  Cl1  1  0.89497836  0.25000000  0.31838927  1
  Cl  Cl2  1  0.60502164  0.25000000  0.81838927  1
  Cl  Cl3  1  0.39497836  0.75000000  0.18161073  1
  Cl  Cl4  1  0.83528000  0.04526085  0.57100730  1
  Cl  Cl5  1  0.16472000  0.95473915  0.42899270  1
  Cl  Cl6  1  0.33528000  0.95473915  0.92899270  1
  Cl  Cl7  1  0.16472000  0.54526085  0.42899270  1
  Cl  Cl8  1  0.66472000  0.04526085  0.07100730  1
  Cl  Cl9  1  0.83528000  0.45473915  0.57100730  1
  Cl  Cl10  1  0.66472000  0.45473915  0.07100730  1
  Cl  Cl11  1  0.33528000  0.54526085  0.92899270  1
  Cl  Cl12  1  0.58718172  0.75000000  0.50855257  1
  Cl  Cl13  1  0.41281828  0.25000000  0.49144743  1
  Cl  Cl14  1  0.08718172  0.25000000  0.99144743  1
  Cl  Cl15  1  0.91281828  0.75000000  0.00855257  1
  Cl  Cl16  1  0.65643280  0.75000000  0.79900424  1
  Cl  Cl17  1  0.34356720  0.25000000  0.20099576  1
  Cl  Cl18  1  0.15643280  0.25000000  0.70099576  1
  Cl  Cl19  1  0.84356720  0.75000000  0.29900424  1
loop_
_geom_bond_atom_site_label_1
_geom_bond_atom_site_label_2
_geom_bond_distance
_geom_bond_site_symmetry_2
Cl0 Gd0 2.698836 1_455
Cl0 In0 3.158917 1_465
Cl0 In5 3.158917 1_455
Cl1 Gd1 2.698836 1_655
Cl1 In3 3.158917 1_655
Cl1 In1 3.158917 1_645
Cl2 Gd2 2.698836 1_555
Cl2 In7 3.158917 1_555
Cl2 In2 3.158917 1_545
Cl3 Gd3 2.698836 1_555
Cl3 In4 3.158917 1_565
Cl3 In6 3.158917 1_555
Cl4 Gd0 2.784961 1_545
Cl4 Gd1 2.795271 1_655
Cl5 Gd1 2.784961 1_565
Cl5 Gd0 2.795271 1_455
Cl6 Gd2 2.784961 1_565
Cl6 Gd3 2.795271 1_556
Cl7 Gd1 2.784961 1_555
Cl7 Gd0 2.795271 1_455
Cl8 Gd3 2.784961 1_545
Cl8 Gd2 2.795271 1_554
Cl9 Gd0 2.784961 1_555
Cl9 Gd1 2.795271 1_655
Cl10 Gd3 2.784961 1_555
Cl10 Gd2 2.795271 1_554
Cl11 Gd2 2.784961 1_555
Cl11 Gd3 2.795271 1_556
Cl12 Gd0 2.750737 1_555
Cl12 In7 3.180285 1_555
Cl12 In2 3.180285 1_555
Cl12 In4 3.205346 1_565
Cl12 In6 3.205346 1_555
Cl13 Gd1 2.750737 1_555
Cl13 In6 3.180285 1_555
Cl13 In4 3.180285 1_555
Cl13 In2 3.205346 1_545
Cl13 In7 3.205346 1_555
Cl14 Gd2 2.750737 1_555
Cl14 In0 3.180285 1_455
Cl14 In5 3.180285 1_455
Cl14 In1 3.205346 1_546
Cl14 In3 3.205346 1_556
Cl15 Gd3 2.750737 1_555
Cl15 In3 3.180285 1_655
Cl15 In1 3.180285 1_655
Cl15 In5 3.205346 1_554
Cl15 In0 3.205346 1_564
Cl16 Gd3 2.718521 1_556
Cl16 In7 3.157486 1_555
Cl16 In2 3.157486 1_555
Cl16 In0 3.257674 1_565
Cl16 In5 3.257674 1_555
Cl17 Gd2 2.718521 1_554
Cl17 In6 3.157486 1_555
Cl17 In4 3.157486 1_555
Cl17 In1 3.257674 1_545
Cl17 In3 3.257674 1_555
Cl18 Gd1 2.718521 1_555
Cl18 In5 3.157486 1_455
Cl18 In0 3.157486 1_455
Cl18 In2 3.257674 1_545
Cl18 In7 3.257674 1_555
Cl19 Gd0 2.718521 1_555
Cl19 In1 3.157486 1_655
Cl19 In3 3.157486 1_655
Cl19 In6 3.257674 1_555
Cl19 In4 3.257674 1_565
