# generated using pymatgen
data_Sr(BeN)2
_symmetry_space_group_name_H-M   'P 1'
_cell_length_a   5.48144557
_cell_length_b   5.48144700
_cell_length_c   5.48144607
_cell_angle_alpha   92.70189862
_cell_angle_beta   118.45251220
_cell_angle_gamma   118.45250236
_symmetry_Int_Tables_number   1
_chemical_formula_structural   Sr(BeN)2
_chemical_formula_sum   'Sr2 Be4 N4'
_cell_volume   119.03913309
_cell_formula_units_Z   2
loop_
 _symmetry_equiv_pos_site_id
 _symmetry_equiv_pos_as_xyz
  1  'x, y, z'
loop_
 _atom_site_type_symbol
 _atom_site_label
 _atom_site_symmetry_multiplicity
 _atom_site_fract_x
 _atom_site_fract_y
 _atom_site_fract_z
 _atom_site_occupancy
  Sr  Sr0  1  -0.00000000  0.75000000  0.75000000  1
  Sr  Sr1  1  -0.00000000  0.25000000  0.25000000  1
  Be  Be0  1  0.75331679  0.12665839  0.62665839  1
  Be  Be1  1  0.50000000  0.62665839  0.87334161  1
  Be  Be2  1  0.24668321  0.87334161  0.37334161  1
  Be  Be3  1  0.50000000  0.37334161  0.12665839  1
  N  N0  1  0.50000000  0.16808175  0.33191825  1
  N  N1  1  0.83616151  0.66808175  0.16808175  1
  N  N2  1  0.16383849  0.33191825  0.83191825  1
  N  N3  1  0.50000000  0.83191825  0.66808175  1
loop_
_geom_bond_atom_site_label_1
_geom_bond_atom_site_label_2
_geom_bond_distance
_geom_bond_site_symmetry_2
Be0 N2 1.628241 1_655
Be0 N0 1.669491 1_555
Be0 N3 1.669491 1_545
Be0 Sr1 2.910129 1_655
Be0 Sr0 2.910130 1_645
Be0 Sr1 2.910130 1_656
Be0 Sr0 2.910130 1_655
Be1 N3 1.628233 1_555
Be1 N1 1.669484 1_556
Be1 N2 1.669485 1_555
Be1 Sr0 2.910129 1_555
Be1 Sr0 2.910129 1_655
Be1 Sr1 2.910130 1_555
Be1 Sr1 2.910130 1_666
Be2 N1 1.628241 1_455
Be2 N3 1.669491 1_555
Be2 N0 1.669491 1_565
Be2 Sr0 2.910129 1_555
Be2 Sr1 2.910130 1_565
Be2 Sr0 2.910130 1_554
Be2 Sr1 2.910130 1_555
Be3 N0 1.628233 1_555
Be3 N2 1.669484 1_554
Be3 N1 1.669485 1_555
Be3 Sr1 2.910129 1_655
Be3 Sr1 2.910129 1_555
Be3 Sr0 2.910130 1_655
Be3 Sr0 2.910130 1_544
N0 Sr1 2.816705 1_555
N0 Sr1 2.816705 1_655
N0 Sr0 2.816706 1_544
N0 Sr0 2.816706 1_655
N1 Sr0 2.816702 1_655
N1 Sr1 2.816703 1_665
N1 Sr0 2.816712 1_654
N1 Sr1 2.816712 1_655
N2 Sr1 2.816702 1_555
N2 Sr0 2.816703 1_545
N2 Sr1 2.816712 1_556
N2 Sr0 2.816712 1_555
N3 Sr0 2.816705 1_655
N3 Sr0 2.816705 1_555
N3 Sr1 2.816706 1_666
N3 Sr1 2.816706 1_555
