# generated using pymatgen
data_Ho3(Al3Os)4
_symmetry_space_group_name_H-M   'P 1'
_cell_length_a   8.76458836
_cell_length_b   8.76459134
_cell_length_c   9.50182891
_cell_angle_alpha   90.00003153
_cell_angle_beta   89.99997870
_cell_angle_gamma   119.99987386
_symmetry_Int_Tables_number   1
_chemical_formula_structural   Ho3(Al3Os)4
_chemical_formula_sum   'Ho6 Al24 Os8'
_cell_volume   632.12298904
_cell_formula_units_Z   2
loop_
 _symmetry_equiv_pos_site_id
 _symmetry_equiv_pos_as_xyz
  1  'x, y, z'
loop_
 _atom_site_type_symbol
 _atom_site_label
 _atom_site_symmetry_multiplicity
 _atom_site_fract_x
 _atom_site_fract_y
 _atom_site_fract_z
 _atom_site_occupancy
  Ho  Ho0  1  0.19338804  0.38677623  0.25000020  1
  Ho  Ho1  1  0.80661148  0.61322323  0.74999975  1
  Ho  Ho2  1  0.61322389  0.80661154  0.25000055  1
  Ho  Ho3  1  0.38677734  0.19338905  0.75000011  1
  Ho  Ho4  1  0.19338781  0.80661166  0.24999924  1
  Ho  Ho5  1  0.80661099  0.19338808  0.74999991  1
  Al  Al0  1  0.33333377  0.66666639  0.01200827  1
  Al  Al1  1  0.66666703  0.33333346  0.98799176  1
  Al  Al2  1  0.66666663  0.33333349  0.51199958  1
  Al  Al3  1  0.33333347  0.66666652  0.48800076  1
  Al  Al4  1  0.16311732  0.32623503  0.57531003  1
  Al  Al5  1  0.83688213  0.67376398  0.42468999  1
  Al  Al6  1  0.67376430  0.83688226  0.57531017  1
  Al  Al7  1  0.83688052  0.67376079  0.07530669  1
  Al  Al8  1  0.32623515  0.16311739  0.42468978  1
  Al  Al9  1  0.16311991  0.32623953  0.92469331  1
  Al  Al10  1  0.16311763  0.83688240  0.57531002  1
  Al  Al11  1  0.32623936  0.16311977  0.07530643  1
  Al  Al12  1  0.83688248  0.16311735  0.42468996  1
  Al  Al13  1  0.67376060  0.83688023  0.92469376  1
  Al  Al14  1  0.83688020  0.16311989  0.07530730  1
  Al  Al15  1  0.16311955  0.83688052  0.92469292  1
  Al  Al16  1  0.56096783  0.12193477  0.24999915  1
  Al  Al17  1  0.43903221  0.87806535  0.74999996  1
  Al  Al18  1  0.87806537  0.43903231  0.24999960  1
  Al  Al19  1  0.12193464  0.56096782  0.75000023  1
  Al  Al20  1  0.56096749  0.43903264  0.24999960  1
  Al  Al21  1  0.43903275  0.56096760  0.75000050  1
  Al  Al22  1  -0.00000006  -0.00000042  0.25000230  1
  Al  Al23  1  0.00000031  0.00000068  0.74999789  1
  Os  Os0  1  0.50000038  0.00000060  -0.00000003  1
  Os  Os1  1  0.00000005  0.49999987  0.00000015  1
  Os  Os2  1  0.49999971  -0.00000037  0.50000015  1
  Os  Os3  1  0.49999987  0.50000019  -0.00000022  1
  Os  Os4  1  -0.00000006  0.50000010  0.50000013  1
  Os  Os5  1  0.49999957  0.49999965  0.50000022  1
  Os  Os6  1  0.00000029  0.00000040  -0.00000005  1
  Os  Os7  1  0.00000004  0.00000003  0.49999992  1
loop_
_geom_bond_atom_site_label_1
_geom_bond_atom_site_label_2
_geom_bond_distance
_geom_bond_site_symmetry_2
Ho0 Os4 3.344024 1_555
Ho0 Os1 3.344024 1_555
Ho0 Os5 3.344026 1_555
Ho0 Os3 3.344029 1_555
Ho1 Os4 3.344020 1_655
Ho1 Os5 3.344024 1_555
Ho1 Os3 3.344026 1_556
Ho1 Os1 3.344029 1_656
Ho2 Os2 3.344023 1_565
Ho2 Os5 3.344026 1_555
Ho2 Os3 3.344029 1_555
Ho2 Os0 3.344034 1_565
Ho3 Os3 3.344021 1_556
Ho3 Os5 3.344022 1_555
Ho3 Os0 3.344023 1_556
Ho3 Os2 3.344024 1_555
Ho4 Os1 3.344021 1_555
Ho4 Os0 3.344027 1_565
Ho4 Os4 3.344033 1_555
Ho4 Os2 3.344034 1_565
Ho5 Os0 3.344022 1_556
Ho5 Os2 3.344024 1_555
Ho5 Os4 3.344029 1_655
Ho5 Os1 3.344030 1_656
Al0 Os3 2.532681 1_555
Al0 Os1 2.532696 1_555
Al0 Os0 2.532701 1_565
Al0 Ho4 3.102754 1_555
Al0 Ho0 3.102760 1_555
Al0 Ho2 3.102761 1_555
Al1 Os0 2.532691 1_556
Al1 Os1 2.532691 1_656
Al1 Os3 2.532693 1_556
Al1 Ho5 3.102750 1_555
Al1 Ho3 3.102754 1_555
Al1 Ho1 3.102758 1_555
Al2 Os5 2.532684 1_555
Al2 Os4 2.532689 1_655
Al2 Os2 2.532694 1_555
Al2 Ho5 3.102813 1_555
Al2 Ho1 3.102813 1_555
Al2 Ho3 3.102813 1_555
Al3 Os5 2.532683 1_555
Al3 Os2 2.532689 1_565
Al3 Os4 2.532691 1_555
Al3 Ho2 3.102817 1_555
Al3 Ho0 3.102819 1_555
Al3 Ho4 3.102826 1_555
Al4 Os7 2.577565 1_555
Al4 Os4 2.655706 1_555
Al4 Os5 2.655708 1_555
Al4 Ho0 3.125010 1_555
Al4 Ho3 3.199382 1_555
Al4 Ho5 3.199384 1_455
Al5 Os7 2.577572 1_665
Al5 Os4 2.655701 1_655
Al5 Os5 2.655712 1_555
Al5 Ho1 3.125009 1_555
Al5 Ho2 3.199375 1_555
Al5 Ho4 3.199383 1_655
Al6 Os7 2.577570 1_665
Al6 Os2 2.655703 1_565
Al6 Os5 2.655712 1_555
Al6 Ho2 3.125007 1_555
Al6 Ho1 3.199380 1_555
Al6 Ho5 3.199381 1_565
Al7 Os6 2.577590 1_665
Al7 Os1 2.655682 1_655
Al7 Os3 2.655689 1_555
Al7 Ho1 3.124978 1_554
Al7 Ho4 3.199400 1_655
Al7 Ho2 3.199403 1_555
Al8 Os7 2.577565 1_555
Al8 Os2 2.655706 1_555
Al8 Os5 2.655711 1_555
Al8 Ho3 3.125016 1_555
Al8 Ho0 3.199378 1_555
Al8 Ho4 3.199383 1_545
Al9 Os6 2.577587 1_556
Al9 Os1 2.655681 1_556
Al9 Os3 2.655683 1_556
Al9 Ho0 3.124977 1_556
Al9 Ho3 3.199404 1_555
Al9 Ho5 3.199415 1_455
Al10 Os7 2.577562 1_565
Al10 Os2 2.655707 1_565
Al10 Os4 2.655709 1_555
Al10 Ho4 3.125018 1_555
Al10 Ho1 3.199384 1_455
Al10 Ho3 3.199389 1_565
Al11 Os6 2.577585 1_555
Al11 Os0 2.655680 1_555
Al11 Os3 2.655688 1_555
Al11 Ho3 3.124973 1_554
Al11 Ho0 3.199405 1_555
Al11 Ho4 3.199408 1_545
Al12 Os7 2.577560 1_655
Al12 Os2 2.655713 1_555
Al12 Os4 2.655713 1_655
Al12 Ho5 3.125012 1_555
Al12 Ho2 3.199380 1_545
Al12 Ho0 3.199380 1_655
Al13 Os6 2.577589 1_666
Al13 Os0 2.655682 1_566
Al13 Os3 2.655683 1_556
Al13 Ho2 3.124976 1_556
Al13 Ho1 3.199408 1_555
Al13 Ho5 3.199412 1_565
Al14 Os6 2.577586 1_655
Al14 Os0 2.655684 1_555
Al14 Os1 2.655685 1_655
Al14 Ho5 3.124983 1_554
Al14 Ho0 3.199407 1_655
Al14 Ho2 3.199412 1_545
Al15 Os6 2.577582 1_566
Al15 Os0 2.655690 1_566
Al15 Os1 2.655691 1_556
Al15 Ho4 3.124972 1_556
Al15 Ho1 3.199410 1_455
Al15 Ho3 3.199413 1_565
Al16 Os0 2.549383 1_555
Al16 Os2 2.549403 1_555
Al16 Ho2 3.018850 1_545
Al16 Ho4 3.018860 1_545
Al17 Os2 2.549390 1_565
Al17 Os0 2.549394 1_566
Al17 Ho3 3.018848 1_565
Al17 Ho5 3.018852 1_565
Al18 Os1 2.549387 1_655
Al18 Os4 2.549397 1_655
Al18 Ho0 3.018845 1_655
Al18 Ho4 3.018854 1_655
Al19 Os1 2.549391 1_556
Al19 Os4 2.549393 1_555
Al19 Ho1 3.018845 1_455
Al19 Ho5 3.018860 1_455
Al20 Os3 2.549392 1_555
Al20 Os5 2.549397 1_555
Al20 Ho2 3.018848 1_555
Al20 Ho0 3.018851 1_555
Al21 Os3 2.549385 1_556
Al21 Os5 2.549394 1_555
Al21 Ho1 3.018848 1_555
Al21 Ho3 3.018848 1_555
Al22 Os7 2.375435 1_555
Al22 Os6 2.375480 1_555
Al22 Ho4 2.935765 1_545
Al22 Ho2 2.935772 1_445
Al22 Ho0 2.935777 1_555
Al23 Os7 2.375438 1_555
Al23 Os6 2.375477 1_556
Al23 Ho5 2.935772 1_455
Al23 Ho3 2.935779 1_555
Al23 Ho1 2.935783 1_445
