# generated using pymatgen
data_CrB4Mo
_symmetry_space_group_name_H-M   'P 1'
_cell_length_a   4.36408621
_cell_length_b   4.36408621
_cell_length_c   4.36408621
_cell_angle_alpha   139.60694168
_cell_angle_beta   106.57876570
_cell_angle_gamma   87.30897330
_symmetry_Int_Tables_number   1
_chemical_formula_structural   CrB4Mo
_chemical_formula_sum   'Cr1 B4 Mo1'
_cell_volume   49.64180245
_cell_formula_units_Z   1
loop_
 _symmetry_equiv_pos_site_id
 _symmetry_equiv_pos_as_xyz
  1  'x, y, z'
loop_
 _atom_site_type_symbol
 _atom_site_label
 _atom_site_symmetry_multiplicity
 _atom_site_fract_x
 _atom_site_fract_y
 _atom_site_fract_z
 _atom_site_occupancy
  Cr  Cr0  1  0.00000000  0.00000000  0.00000000  1
  B  B0  1  0.07961000  0.74621800  0.33339200  1
  B  B1  1  0.58717400  0.25378200  0.33339200  1
  B  B2  1  0.92039000  0.25378200  0.66660800  1
  B  B3  1  0.41282600  0.74621800  0.66660800  1
  Mo  Mo0  1  0.50000000  0.50000000  0.00000000  1
loop_
_geom_bond_atom_site_label_1
_geom_bond_atom_site_label_2
_geom_bond_distance
_geom_bond_site_symmetry_2
B0 B3 1.738545 1_555
B0 B2 1.740559 1_465
B0 B2 1.740559 1_454
B0 Cr0 2.333079 1_566
B0 Cr0 2.333079 1_555
B0 Mo0 2.333092 1_455
B0 Mo0 2.365180 1_566
B0 Mo0 2.365180 1_555
B0 Cr0 2.365194 1_565
B1 B2 1.738545 1_555
B1 B3 1.740559 1_555
B1 B3 1.740559 1_544
B1 Cr0 2.333079 1_666
B1 Cr0 2.333079 1_655
B1 Mo0 2.333092 1_555
B1 Mo0 2.365180 1_545
B1 Mo0 2.365180 1_556
B1 Cr0 2.365194 1_555
B2 Cr0 2.333079 1_666
B2 Cr0 2.333079 1_655
B2 Mo0 2.333092 1_656
B2 Mo0 2.365180 1_545
B2 Mo0 2.365180 1_556
B2 Cr0 2.365194 1_656
B3 Cr0 2.333079 1_555
B3 Cr0 2.333079 1_566
B3 Mo0 2.333092 1_556
B3 Mo0 2.365180 1_566
B3 Mo0 2.365180 1_555
B3 Cr0 2.365194 1_666
