# generated using pymatgen
data_MgSc5Al4
_symmetry_space_group_name_H-M   'P 1'
_cell_length_a   6.70885400
_cell_length_b   6.70885400
_cell_length_c   35.32329800
_cell_angle_alpha   90.00000000
_cell_angle_beta   90.00000000
_cell_angle_gamma   90.00000000
_symmetry_Int_Tables_number   1
_chemical_formula_structural   MgSc5Al4
_chemical_formula_sum   'Mg8 Sc40 Al32'
_cell_volume   1589.85649957
_cell_formula_units_Z   8
loop_
 _symmetry_equiv_pos_site_id
 _symmetry_equiv_pos_as_xyz
  1  'x, y, z'
loop_
 _atom_site_type_symbol
 _atom_site_label
 _atom_site_symmetry_multiplicity
 _atom_site_fract_x
 _atom_site_fract_y
 _atom_site_fract_z
 _atom_site_occupancy
  Mg  Mg0_0  1  0.25000000  0.25000000  0.00000000  1
  Mg  Mg0_1  1  0.25000000  0.25000000  0.50000000  1
  Mg  Mg0_2  1  0.25000000  0.75000000  0.00000000  1
  Mg  Mg0_3  1  0.25000000  0.75000000  0.50000000  1
  Mg  Mg0_4  1  0.75000000  0.25000000  0.00000000  1
  Mg  Mg0_5  1  0.75000000  0.25000000  0.50000000  1
  Mg  Mg0_6  1  0.75000000  0.75000000  0.00000000  1
  Mg  Mg0_7  1  0.75000000  0.75000000  0.50000000  1
  Sc  Sc0_0  1  0.00000000  0.00000000  0.44566200  1
  Sc  Sc0_1  1  0.00000000  0.00000000  0.94566200  1
  Sc  Sc0_2  1  0.00000000  0.50000000  0.44566200  1
  Sc  Sc0_3  1  0.00000000  0.50000000  0.94566200  1
  Sc  Sc0_4  1  0.50000000  0.00000000  0.44566200  1
  Sc  Sc0_5  1  0.50000000  0.00000000  0.94566200  1
  Sc  Sc0_6  1  0.50000000  0.50000000  0.44566200  1
  Sc  Sc0_7  1  0.50000000  0.50000000  0.94566200  1
  Sc  Sc1_0  1  0.00000000  0.00000000  0.05433800  1
  Sc  Sc1_1  1  0.00000000  0.00000000  0.55433800  1
  Sc  Sc1_2  1  0.00000000  0.50000000  0.05433800  1
  Sc  Sc1_3  1  0.00000000  0.50000000  0.55433800  1
  Sc  Sc1_4  1  0.50000000  0.00000000  0.05433800  1
  Sc  Sc1_5  1  0.50000000  0.00000000  0.55433800  1
  Sc  Sc1_6  1  0.50000000  0.50000000  0.05433800  1
  Sc  Sc1_7  1  0.50000000  0.50000000  0.55433800  1
  Sc  Sc2_0  1  0.00000000  0.00000000  0.15205450  1
  Sc  Sc2_1  1  0.00000000  0.00000000  0.65205450  1
  Sc  Sc2_2  1  0.00000000  0.50000000  0.15205450  1
  Sc  Sc2_3  1  0.00000000  0.50000000  0.65205450  1
  Sc  Sc2_4  1  0.50000000  0.00000000  0.15205450  1
  Sc  Sc2_5  1  0.50000000  0.00000000  0.65205450  1
  Sc  Sc2_6  1  0.50000000  0.50000000  0.15205450  1
  Sc  Sc2_7  1  0.50000000  0.50000000  0.65205450  1
  Sc  Sc3_0  1  0.00000000  0.00000000  0.25000000  1
  Sc  Sc3_1  1  0.00000000  0.00000000  0.75000000  1
  Sc  Sc3_2  1  0.00000000  0.50000000  0.25000000  1
  Sc  Sc3_3  1  0.00000000  0.50000000  0.75000000  1
  Sc  Sc3_4  1  0.50000000  0.00000000  0.25000000  1
  Sc  Sc3_5  1  0.50000000  0.00000000  0.75000000  1
  Sc  Sc3_6  1  0.50000000  0.50000000  0.25000000  1
  Sc  Sc3_7  1  0.50000000  0.50000000  0.75000000  1
  Sc  Sc4_0  1  0.00000000  0.00000000  0.34794550  1
  Sc  Sc4_1  1  0.00000000  0.00000000  0.84794550  1
  Sc  Sc4_2  1  0.00000000  0.50000000  0.34794550  1
  Sc  Sc4_3  1  0.00000000  0.50000000  0.84794550  1
  Sc  Sc4_4  1  0.50000000  0.00000000  0.34794550  1
  Sc  Sc4_5  1  0.50000000  0.00000000  0.84794550  1
  Sc  Sc4_6  1  0.50000000  0.50000000  0.34794550  1
  Sc  Sc4_7  1  0.50000000  0.50000000  0.84794550  1
  Al  Al0_0  1  0.25000000  0.25000000  0.10190300  1
  Al  Al0_1  1  0.25000000  0.25000000  0.60190300  1
  Al  Al0_2  1  0.25000000  0.75000000  0.10190300  1
  Al  Al0_3  1  0.25000000  0.75000000  0.60190300  1
  Al  Al0_4  1  0.75000000  0.25000000  0.10190300  1
  Al  Al0_5  1  0.75000000  0.25000000  0.60190300  1
  Al  Al0_6  1  0.75000000  0.75000000  0.10190300  1
  Al  Al0_7  1  0.75000000  0.75000000  0.60190300  1
  Al  Al1_0  1  0.25000000  0.25000000  0.20076650  1
  Al  Al1_1  1  0.25000000  0.25000000  0.70076650  1
  Al  Al1_2  1  0.25000000  0.75000000  0.20076650  1
  Al  Al1_3  1  0.25000000  0.75000000  0.70076650  1
  Al  Al1_4  1  0.75000000  0.25000000  0.20076650  1
  Al  Al1_5  1  0.75000000  0.25000000  0.70076650  1
  Al  Al1_6  1  0.75000000  0.75000000  0.20076650  1
  Al  Al1_7  1  0.75000000  0.75000000  0.70076650  1
  Al  Al2_0  1  0.25000000  0.25000000  0.29923350  1
  Al  Al2_1  1  0.25000000  0.25000000  0.79923350  1
  Al  Al2_2  1  0.25000000  0.75000000  0.29923350  1
  Al  Al2_3  1  0.25000000  0.75000000  0.79923350  1
  Al  Al2_4  1  0.75000000  0.25000000  0.29923350  1
  Al  Al2_5  1  0.75000000  0.25000000  0.79923350  1
  Al  Al2_6  1  0.75000000  0.75000000  0.29923350  1
  Al  Al2_7  1  0.75000000  0.75000000  0.79923350  1
  Al  Al3_0  1  0.25000000  0.25000000  0.39809700  1
  Al  Al3_1  1  0.25000000  0.25000000  0.89809700  1
  Al  Al3_2  1  0.25000000  0.75000000  0.39809700  1
  Al  Al3_3  1  0.25000000  0.75000000  0.89809700  1
  Al  Al3_4  1  0.75000000  0.25000000  0.39809700  1
  Al  Al3_5  1  0.75000000  0.25000000  0.89809700  1
  Al  Al3_6  1  0.75000000  0.75000000  0.39809700  1
  Al  Al3_7  1  0.75000000  0.75000000  0.89809700  1
loop_
_geom_bond_atom_site_label_1
_geom_bond_atom_site_label_2
_geom_bond_distance
_geom_bond_site_symmetry_2
Mg0_0 Sc0_5 3.051258 1_554
Mg0_0 Sc0_3 3.051258 1_554
Mg0_0 Sc0_7 3.051258 1_554
Mg0_0 Sc0_1 3.051258 1_554
Mg0_0 Sc1_4 3.051258 1_555
Mg0_0 Sc1_2 3.051258 1_555
Mg0_0 Sc1_6 3.051258 1_555
Mg0_0 Sc1_0 3.051258 1_555
Mg0_0 Mg0_2 3.354427 1_555
Mg0_0 Mg0_2 3.354427 1_545
Mg0_0 Mg0_4 3.354427 1_555
Mg0_0 Mg0_4 3.354427 1_455
Mg0_1 Sc1_1 3.051258 1_555
Mg0_1 Sc0_2 3.051258 1_555
Mg0_1 Sc1_5 3.051258 1_555
Mg0_1 Sc1_3 3.051258 1_555
Mg0_1 Sc0_4 3.051258 1_555
Mg0_1 Sc0_6 3.051258 1_555
Mg0_1 Sc1_7 3.051258 1_555
Mg0_1 Sc0_0 3.051258 1_555
Mg0_1 Mg0_5 3.354427 1_455
Mg0_1 Mg0_5 3.354427 1_555
Mg0_1 Mg0_3 3.354427 1_545
Mg0_1 Mg0_3 3.354427 1_555
Mg0_2 Sc0_5 3.051258 1_564
Mg0_2 Sc0_3 3.051258 1_554
Mg0_2 Sc0_7 3.051258 1_554
Mg0_2 Sc0_1 3.051258 1_564
Mg0_2 Sc1_4 3.051258 1_565
Mg0_2 Sc1_2 3.051258 1_555
Mg0_2 Sc1_6 3.051258 1_555
Mg0_2 Sc1_0 3.051258 1_565
Mg0_2 Mg0_6 3.354427 1_455
Mg0_2 Mg0_6 3.354427 1_555
Mg0_3 Sc0_2 3.051258 1_555
Mg0_3 Sc1_1 3.051258 1_565
Mg0_3 Sc1_3 3.051258 1_555
Mg0_3 Sc0_6 3.051258 1_555
Mg0_3 Sc1_7 3.051258 1_555
Mg0_3 Sc0_0 3.051258 1_565
Mg0_3 Sc0_4 3.051258 1_565
Mg0_3 Sc1_5 3.051258 1_565
Mg0_3 Mg0_7 3.354427 1_455
Mg0_3 Mg0_7 3.354427 1_555
Mg0_4 Sc0_5 3.051258 1_554
Mg0_4 Sc0_3 3.051258 1_654
Mg0_4 Sc0_1 3.051258 1_654
Mg0_4 Sc0_7 3.051258 1_554
Mg0_4 Sc1_4 3.051258 1_555
Mg0_4 Sc1_6 3.051258 1_555
Mg0_4 Sc1_2 3.051258 1_655
Mg0_4 Sc1_0 3.051258 1_655
Mg0_4 Mg0_6 3.354427 1_555
Mg0_4 Mg0_6 3.354427 1_545
Mg0_5 Sc1_5 3.051258 1_555
Mg0_5 Sc1_1 3.051258 1_655
Mg0_5 Sc0_4 3.051258 1_555
Mg0_5 Sc0_6 3.051258 1_555
Mg0_5 Sc1_7 3.051258 1_555
Mg0_5 Sc0_0 3.051258 1_655
Mg0_5 Sc0_2 3.051258 1_655
Mg0_5 Sc1_3 3.051258 1_655
Mg0_5 Mg0_7 3.354427 1_555
Mg0_5 Mg0_7 3.354427 1_545
Mg0_6 Sc0_3 3.051258 1_654
Mg0_6 Sc0_7 3.051258 1_554
Mg0_6 Sc0_5 3.051258 1_564
Mg0_6 Sc0_1 3.051258 1_664
Mg0_6 Sc1_4 3.051258 1_565
Mg0_6 Sc1_0 3.051258 1_665
Mg0_6 Sc1_6 3.051258 1_555
Mg0_6 Sc1_2 3.051258 1_655
Mg0_7 Sc0_6 3.051258 1_555
Mg0_7 Sc1_1 3.051258 1_665
Mg0_7 Sc1_7 3.051258 1_555
Mg0_7 Sc0_4 3.051258 1_565
Mg0_7 Sc1_5 3.051258 1_565
Mg0_7 Sc0_0 3.051258 1_665
Mg0_7 Sc0_2 3.051258 1_655
Mg0_7 Sc1_3 3.051258 1_655
Al0_0 Sc1_0 2.906717 1_555
Al0_0 Sc1_2 2.906717 1_555
Al0_0 Sc1_4 2.906717 1_555
Al0_0 Sc1_6 2.906717 1_555
Al0_0 Sc2_2 2.960466 1_555
Al0_0 Sc2_0 2.960466 1_555
Al0_0 Sc2_4 2.960466 1_555
Al0_0 Sc2_6 2.960466 1_555
Al0_1 Sc1_1 2.906717 1_555
Al0_1 Sc1_3 2.906717 1_555
Al0_1 Sc1_5 2.906717 1_555
Al0_1 Sc1_7 2.906717 1_555
Al0_1 Sc2_3 2.960466 1_555
Al0_1 Sc2_7 2.960466 1_555
Al0_1 Sc2_1 2.960466 1_555
Al0_1 Sc2_5 2.960466 1_555
Al0_2 Sc1_0 2.906717 1_565
Al0_2 Sc1_2 2.906717 1_555
Al0_2 Sc1_4 2.906717 1_565
Al0_2 Sc1_6 2.906717 1_555
Al0_2 Sc2_2 2.960466 1_555
Al0_2 Sc2_0 2.960466 1_565
Al0_2 Sc2_4 2.960466 1_565
Al0_2 Sc2_6 2.960466 1_555
Al0_3 Sc1_3 2.906717 1_555
Al0_3 Sc1_1 2.906717 1_565
Al0_3 Sc1_5 2.906717 1_565
Al0_3 Sc1_7 2.906717 1_555
Al0_3 Sc2_1 2.960466 1_565
Al0_3 Sc2_5 2.960466 1_565
Al0_3 Sc2_3 2.960466 1_555
Al0_3 Sc2_7 2.960466 1_555
Al0_4 Sc1_2 2.906717 1_655
Al0_4 Sc1_0 2.906717 1_655
Al0_4 Sc1_4 2.906717 1_555
Al0_4 Sc1_6 2.906717 1_555
Al0_4 Sc2_2 2.960466 1_655
Al0_4 Sc2_0 2.960466 1_655
Al0_4 Sc2_4 2.960466 1_555
Al0_4 Sc2_6 2.960466 1_555
Al0_5 Sc1_5 2.906717 1_555
Al0_5 Sc1_1 2.906717 1_655
Al0_5 Sc1_7 2.906717 1_555
Al0_5 Sc1_3 2.906717 1_655
Al0_5 Sc2_1 2.960466 1_655
Al0_5 Sc2_3 2.960466 1_655
Al0_5 Sc2_7 2.960466 1_555
Al0_5 Sc2_5 2.960466 1_555
Al0_6 Sc1_2 2.906717 1_655
Al0_6 Sc1_0 2.906717 1_665
Al0_6 Sc1_4 2.906717 1_565
Al0_6 Sc1_6 2.906717 1_555
Al0_6 Sc2_2 2.960466 1_655
Al0_6 Sc2_0 2.960466 1_665
Al0_6 Sc2_4 2.960466 1_565
Al0_6 Sc2_6 2.960466 1_555
Al0_7 Sc1_1 2.906717 1_665
Al0_7 Sc1_5 2.906717 1_565
Al0_7 Sc1_7 2.906717 1_555
Al0_7 Sc1_3 2.906717 1_655
Al0_7 Sc2_3 2.960466 1_655
Al0_7 Sc2_5 2.960466 1_565
Al0_7 Sc2_1 2.960466 1_665
Al0_7 Sc2_7 2.960466 1_555
Al1_0 Sc2_4 2.930323 1_555
Al1_0 Sc2_2 2.930323 1_555
Al1_0 Sc2_0 2.930323 1_555
Al1_0 Sc2_6 2.930323 1_555
Al1_0 Sc3_0 2.941177 1_555
Al1_0 Sc3_4 2.941177 1_555
Al1_0 Sc3_2 2.941177 1_555
Al1_0 Sc3_6 2.941177 1_555
Al1_1 Sc2_5 2.930323 1_555
Al1_1 Sc2_3 2.930323 1_555
Al1_1 Sc2_7 2.930323 1_555
Al1_1 Sc2_1 2.930323 1_555
Al1_1 Sc3_1 2.941177 1_555
Al1_1 Sc3_3 2.941177 1_555
Al1_1 Sc3_7 2.941177 1_555
Al1_1 Sc3_5 2.941177 1_555
Al1_2 Sc2_4 2.930323 1_565
Al1_2 Sc2_2 2.930323 1_555
Al1_2 Sc2_0 2.930323 1_565
Al1_2 Sc2_6 2.930323 1_555
Al1_2 Sc3_0 2.941177 1_565
Al1_2 Sc3_2 2.941177 1_555
Al1_2 Sc3_4 2.941177 1_565
Al1_2 Sc3_6 2.941177 1_555
Al1_3 Sc2_1 2.930323 1_565
Al1_3 Sc2_5 2.930323 1_565
Al1_3 Sc2_3 2.930323 1_555
Al1_3 Sc2_7 2.930323 1_555
Al1_3 Sc3_5 2.941177 1_565
Al1_3 Sc3_1 2.941177 1_565
Al1_3 Sc3_3 2.941177 1_555
Al1_3 Sc3_7 2.941177 1_555
Al1_4 Sc2_4 2.930323 1_555
Al1_4 Sc2_2 2.930323 1_655
Al1_4 Sc2_0 2.930323 1_655
Al1_4 Sc2_6 2.930323 1_555
Al1_4 Sc3_2 2.941177 1_655
Al1_4 Sc3_4 2.941177 1_555
Al1_4 Sc3_0 2.941177 1_655
Al1_4 Sc3_6 2.941177 1_555
Al1_5 Sc2_5 2.930323 1_555
Al1_5 Sc2_3 2.930323 1_655
Al1_5 Sc2_1 2.930323 1_655
Al1_5 Sc2_7 2.930323 1_555
Al1_5 Sc3_1 2.941177 1_655
Al1_5 Sc3_3 2.941177 1_655
Al1_5 Sc3_7 2.941177 1_555
Al1_5 Sc3_5 2.941177 1_555
Al1_6 Sc2_4 2.930323 1_565
Al1_6 Sc2_2 2.930323 1_655
Al1_6 Sc2_0 2.930323 1_665
Al1_6 Sc2_6 2.930323 1_555
Al1_6 Sc3_2 2.941177 1_655
Al1_6 Sc3_0 2.941177 1_665
Al1_6 Sc3_4 2.941177 1_565
Al1_6 Sc3_6 2.941177 1_555
Al1_7 Sc2_3 2.930323 1_655
Al1_7 Sc2_5 2.930323 1_565
Al1_7 Sc2_1 2.930323 1_665
Al1_7 Sc2_7 2.930323 1_555
Al1_7 Sc3_1 2.941177 1_665
Al1_7 Sc3_5 2.941177 1_565
Al1_7 Sc3_3 2.941177 1_655
Al1_7 Sc3_7 2.941177 1_555
Al2_0 Sc4_2 2.930323 1_555
Al2_0 Sc4_6 2.930323 1_555
Al2_0 Sc4_4 2.930323 1_555
Al2_0 Sc4_0 2.930323 1_555
Al2_0 Sc3_0 2.941177 1_555
Al2_0 Sc3_4 2.941177 1_555
Al2_0 Sc3_2 2.941177 1_555
Al2_0 Sc3_6 2.941177 1_555
Al2_1 Sc4_3 2.930323 1_555
Al2_1 Sc4_5 2.930323 1_555
Al2_1 Sc4_1 2.930323 1_555
Al2_1 Sc4_7 2.930323 1_555
Al2_1 Sc3_7 2.941177 1_555
Al2_1 Sc3_3 2.941177 1_555
Al2_1 Sc3_1 2.941177 1_555
Al2_1 Sc3_5 2.941177 1_555
Al2_2 Sc4_4 2.930323 1_565
Al2_2 Sc4_2 2.930323 1_555
Al2_2 Sc4_6 2.930323 1_555
Al2_2 Sc4_0 2.930323 1_565
Al2_2 Sc3_0 2.941177 1_565
Al2_2 Sc3_2 2.941177 1_555
Al2_2 Sc3_4 2.941177 1_565
Al2_2 Sc3_6 2.941177 1_555
Al2_3 Sc4_1 2.930323 1_565
Al2_3 Sc4_5 2.930323 1_565
Al2_3 Sc4_3 2.930323 1_555
Al2_3 Sc4_7 2.930323 1_555
Al2_3 Sc3_5 2.941177 1_565
Al2_3 Sc3_7 2.941177 1_555
Al2_3 Sc3_3 2.941177 1_555
Al2_3 Sc3_1 2.941177 1_565
Al2_4 Sc4_6 2.930323 1_555
Al2_4 Sc4_2 2.930323 1_655
Al2_4 Sc4_4 2.930323 1_555
Al2_4 Sc4_0 2.930323 1_655
Al2_4 Sc3_2 2.941177 1_655
Al2_4 Sc3_4 2.941177 1_555
Al2_4 Sc3_0 2.941177 1_655
Al2_4 Sc3_6 2.941177 1_555
Al2_5 Sc4_1 2.930323 1_655
Al2_5 Sc4_5 2.930323 1_555
Al2_5 Sc4_3 2.930323 1_655
Al2_5 Sc4_7 2.930323 1_555
Al2_5 Sc3_1 2.941177 1_655
Al2_5 Sc3_7 2.941177 1_555
Al2_5 Sc3_3 2.941177 1_655
Al2_5 Sc3_5 2.941177 1_555
Al2_6 Sc4_4 2.930323 1_565
Al2_6 Sc4_6 2.930323 1_555
Al2_6 Sc4_2 2.930323 1_655
Al2_6 Sc4_0 2.930323 1_665
Al2_6 Sc3_2 2.941177 1_655
Al2_6 Sc3_0 2.941177 1_665
Al2_6 Sc3_4 2.941177 1_565
Al2_6 Sc3_6 2.941177 1_555
Al2_7 Sc4_5 2.930323 1_565
Al2_7 Sc4_3 2.930323 1_655
Al2_7 Sc4_7 2.930323 1_555
Al2_7 Sc4_1 2.930323 1_665
Al2_7 Sc3_5 2.941177 1_565
Al2_7 Sc3_7 2.941177 1_555
Al2_7 Sc3_3 2.941177 1_655
Al2_7 Sc3_1 2.941177 1_665
Al3_0 Sc0_4 2.906717 1_555
Al3_0 Sc0_6 2.906717 1_555
Al3_0 Sc0_0 2.906717 1_555
Al3_0 Sc0_2 2.906717 1_555
Al3_0 Sc4_0 2.960466 1_555
Al3_0 Sc4_2 2.960466 1_555
Al3_0 Sc4_6 2.960466 1_555
Al3_0 Sc4_4 2.960466 1_555
Al3_1 Sc0_3 2.906717 1_555
Al3_1 Sc0_1 2.906717 1_555
Al3_1 Sc0_5 2.906717 1_555
Al3_1 Sc0_7 2.906717 1_555
Al3_1 Sc4_1 2.960466 1_555
Al3_1 Sc4_5 2.960466 1_555
Al3_1 Sc4_3 2.960466 1_555
Al3_1 Sc4_7 2.960466 1_555
Al3_2 Sc0_6 2.906717 1_555
Al3_2 Sc0_0 2.906717 1_565
Al3_2 Sc0_4 2.906717 1_565
Al3_2 Sc0_2 2.906717 1_555
Al3_2 Sc4_4 2.960466 1_565
Al3_2 Sc4_2 2.960466 1_555
Al3_2 Sc4_6 2.960466 1_555
Al3_2 Sc4_0 2.960466 1_565
Al3_3 Sc0_3 2.906717 1_555
Al3_3 Sc0_1 2.906717 1_565
Al3_3 Sc0_5 2.906717 1_565
Al3_3 Sc0_7 2.906717 1_555
Al3_3 Sc4_5 2.960466 1_565
Al3_3 Sc4_1 2.960466 1_565
Al3_3 Sc4_3 2.960466 1_555
Al3_3 Sc4_7 2.960466 1_555
Al3_4 Sc0_6 2.906717 1_555
Al3_4 Sc0_4 2.906717 1_555
Al3_4 Sc0_2 2.906717 1_655
Al3_4 Sc0_0 2.906717 1_655
Al3_4 Sc4_6 2.960466 1_555
Al3_4 Sc4_2 2.960466 1_655
Al3_4 Sc4_4 2.960466 1_555
Al3_4 Sc4_0 2.960466 1_655
Al3_5 Sc0_1 2.906717 1_655
Al3_5 Sc0_3 2.906717 1_655
Al3_5 Sc0_5 2.906717 1_555
Al3_5 Sc0_7 2.906717 1_555
Al3_5 Sc4_3 2.960466 1_655
Al3_5 Sc4_1 2.960466 1_655
Al3_5 Sc4_5 2.960466 1_555
Al3_5 Sc4_7 2.960466 1_555
Al3_6 Sc0_6 2.906717 1_555
Al3_6 Sc0_4 2.906717 1_565
Al3_6 Sc0_2 2.906717 1_655
Al3_6 Sc0_0 2.906717 1_665
Al3_6 Sc4_4 2.960466 1_565
Al3_6 Sc4_6 2.960466 1_555
Al3_6 Sc4_2 2.960466 1_655
Al3_6 Sc4_0 2.960466 1_665
Al3_7 Sc0_3 2.906717 1_655
Al3_7 Sc0_1 2.906717 1_665
Al3_7 Sc0_5 2.906717 1_565
Al3_7 Sc0_7 2.906717 1_555
Al3_7 Sc4_3 2.960466 1_655
Al3_7 Sc4_1 2.960466 1_665
Al3_7 Sc4_5 2.960466 1_565
Al3_7 Sc4_7 2.960466 1_555
