# generated using pymatgen
data_Rb(WO3)4
_symmetry_space_group_name_H-M   'P 1'
_cell_length_a   10.79570004
_cell_length_b   10.79570004
_cell_length_c   10.79570004
_cell_angle_alpha   139.21816748
_cell_angle_beta   105.78042870
_cell_angle_gamma   88.32937594
_symmetry_Int_Tables_number   1
_chemical_formula_structural   Rb(WO3)4
_chemical_formula_sum   'Rb3 W12 O36'
_cell_volume   758.94458317
_cell_formula_units_Z   3
loop_
 _symmetry_equiv_pos_site_id
 _symmetry_equiv_pos_as_xyz
  1  'x, y, z'
loop_
 _atom_site_type_symbol
 _atom_site_label
 _atom_site_symmetry_multiplicity
 _atom_site_fract_x
 _atom_site_fract_y
 _atom_site_fract_z
 _atom_site_occupancy
  Rb  Rb0  1  0.50000000  0.50000000  0.00000000  1
  Rb  Rb1  1  0.24036800  0.24036800  0.00000000  1
  Rb  Rb2  1  0.75963200  0.75963200  0.00000000  1
  W  W0  1  0.37478800  0.87478800  0.50000000  1
  W  W1  1  0.87561100  0.37561100  0.50000000  1
  W  W2  1  0.12614100  0.62385100  0.99967200  1
  W  W3  1  0.62417900  0.12646900  0.00032800  1
  W  W4  1  0.12614100  0.12646900  0.50229100  1
  W  W5  1  0.62417900  0.62385100  0.49770900  1
  W  W6  1  0.62521200  0.12521200  0.50000000  1
  W  W7  1  0.12438900  0.62438900  0.50000000  1
  W  W8  1  0.37582100  0.87353100  0.99967200  1
  W  W9  1  0.87385900  0.37614900  0.00032800  1
  W  W10  1  0.37582100  0.37614900  0.50229100  1
  W  W11  1  0.87385900  0.87353100  0.49770900  1
  O  O0  1  0.08676100  0.87408200  0.21267900  1
  O  O1  1  0.58507500  0.37517100  0.20990300  1
  O  O2  1  0.26976800  0.05961000  0.57907200  1
  O  O3  1  0.76757700  0.55612000  0.57549500  1
  O  O4  1  0.26976800  0.69069600  0.21015800  1
  O  O5  1  0.76757700  0.19208300  0.21145700  1
  O  O6  1  0.16526800  0.37517100  0.79009700  1
  O  O7  1  0.66140300  0.87408200  0.78732100  1
  O  O8  1  0.98062500  0.55612000  0.78854300  1
  O  O9  1  0.48053800  0.05961000  0.78984200  1
  O  O10  1  0.98062500  0.19208300  0.42450500  1
  O  O11  1  0.48053800  0.69069600  0.42092800  1
  O  O12  1  0.41492500  0.62482900  0.79009700  1
  O  O13  1  0.91323900  0.12591800  0.78732100  1
  O  O14  1  0.23242300  0.44388000  0.42450500  1
  O  O15  1  0.73023200  0.94039000  0.42092800  1
  O  O16  1  0.23242300  0.80791700  0.78854300  1
  O  O17  1  0.73023200  0.30930400  0.78984200  1
  O  O18  1  0.33859700  0.12591800  0.21267900  1
  O  O19  1  0.83473200  0.62482900  0.20990300  1
  O  O20  1  0.51946200  0.94039000  0.21015800  1
  O  O21  1  0.01937500  0.44388000  0.21145700  1
  O  O22  1  0.51946200  0.30930400  0.57907200  1
  O  O23  1  0.01937500  0.80791700  0.57549500  1
  O  O24  1  0.25038200  0.25048800  0.50087000  1
  O  O25  1  0.74961800  0.74951200  0.49913000  1
  O  O26  1  0.50000000  0.00000000  0.50000000  1
  O  O27  1  0.00000000  0.50000000  0.50000000  1
  O  O28  1  0.25038200  0.74951200  0.99989400  1
  O  O29  1  0.74961800  0.25048800  0.00010600  1
  O  O30  1  0.00000000  0.00000000  0.50000000  1
  O  O31  1  0.50000000  0.50000000  0.50000000  1
  O  O32  1  0.74977500  0.24977500  0.50000000  1
  O  O33  1  0.25022500  0.75022500  0.50000000  1
  O  O34  1  0.50000000  0.00000000  0.00000000  1
  O  O35  1  0.00000000  0.50000000  0.00000000  1
loop_
_geom_bond_atom_site_label_1
_geom_bond_atom_site_label_2
_geom_bond_distance
_geom_bond_site_symmetry_2
O0 W2 1.955391 1_554
O0 W4 1.955396 1_565
O0 Rb2 3.289130 1_455
O1 W3 1.939037 1_555
O1 W5 1.939039 1_555
O1 Rb0 3.348890 1_555
O1 Rb1 3.440398 1_555
O2 W4 1.937531 1_555
O2 W0 1.952016 1_545
O2 Rb0 3.355419 1_556
O2 Rb1 3.446419 1_556
O3 W5 1.947618 1_555
O3 W1 1.949686 1_555
O3 Rb2 3.285028 1_556
O4 W2 1.937537 1_554
O4 W0 1.952016 1_555
O4 Rb0 3.355419 1_555
O4 Rb1 3.446419 1_555
O5 W3 1.947607 1_555
O5 W1 1.949688 1_555
O5 Rb2 3.285038 1_545
O6 W4 1.939037 1_555
O6 W2 1.939043 1_555
O6 Rb0 3.348890 1_556
O6 Rb1 3.440389 1_556
O7 W3 1.955391 1_566
O7 W5 1.955396 1_555
O7 Rb2 3.289130 1_556
O8 W2 1.947612 1_655
O8 W1 1.949686 1_555
O8 Rb2 3.285028 1_556
O9 W3 1.937537 1_556
O9 W0 1.952016 1_545
O9 Rb0 3.355419 1_556
O9 Rb1 3.446419 1_556
O10 W4 1.947625 1_655
O10 W1 1.949679 1_555
O10 Rb2 3.285033 1_545
O11 W5 1.937531 1_555
O11 W0 1.952016 1_555
O11 Rb0 3.355419 1_555
O11 Rb1 3.446419 1_555
O12 W8 1.939037 1_555
O12 W10 1.939039 1_555
O12 Rb0 3.348890 1_556
O12 Rb2 3.440398 1_556
O13 W9 1.955391 1_556
O13 W11 1.955396 1_545
O13 Rb1 3.289130 1_656
O14 W10 1.947618 1_555
O14 W7 1.949686 1_555
O14 Rb1 3.285028 1_555
O15 W11 1.937531 1_555
O15 W6 1.952016 1_565
O15 Rb0 3.355419 1_555
O15 Rb2 3.446419 1_555
O16 W8 1.947607 1_555
O16 W7 1.949688 1_555
O16 Rb1 3.285038 1_566
O17 W9 1.937537 1_556
O17 W6 1.952016 1_555
O17 Rb0 3.355419 1_556
O17 Rb2 3.446419 1_556
O18 W8 1.955391 1_544
O18 W10 1.955396 1_555
O18 Rb1 3.289130 1_555
O19 W11 1.939037 1_555
O19 W9 1.939043 1_555
O19 Rb0 3.348890 1_555
O19 Rb2 3.440389 1_555
O20 W8 1.937537 1_554
O20 W6 1.952016 1_565
O20 Rb0 3.355419 1_555
O20 Rb2 3.446419 1_555
O21 W9 1.947612 1_455
O21 W7 1.949686 1_555
O21 Rb1 3.285028 1_555
O22 W10 1.937531 1_555
O22 W6 1.952016 1_555
O22 Rb0 3.355419 1_556
O22 Rb2 3.446419 1_556
O23 W11 1.947625 1_455
O23 W7 1.949679 1_555
O23 Rb1 3.285033 1_566
O24 W10 1.933587 1_555
O24 W4 1.933603 1_555
O25 W5 1.933587 1_555
O25 W11 1.933603 1_555
O26 W6 1.939331 1_555
O26 W0 1.939331 1_545
O27 W7 1.926584 1_555
O27 W1 1.926584 1_455
O28 W8 1.933595 1_555
O28 W2 1.933595 1_555
O29 W9 1.933595 1_555
O29 W3 1.933595 1_555
O30 W11 1.938585 1_445
O30 W4 1.938585 1_555
O31 W5 1.938600 1_555
O31 W10 1.938600 1_555
O32 W6 1.929279 1_555
O32 W1 1.948996 1_555
O33 W0 1.929279 1_555
O33 W7 1.948996 1_555
O34 W3 1.938593 1_555
O34 W8 1.938593 1_544
O35 W2 1.938593 1_554
O35 W9 1.938593 1_455
