# generated using pymatgen
data_TaFe4Si
_symmetry_space_group_name_H-M   'P 1'
_cell_length_a   4.78752452
_cell_length_b   4.78752452
_cell_length_c   7.51475900
_cell_angle_alpha   90.00000000
_cell_angle_beta   90.00000000
_cell_angle_gamma   120.00000712
_symmetry_Int_Tables_number   1
_chemical_formula_structural   TaFe4Si
_chemical_formula_sum   'Ta2 Fe8 Si2'
_cell_volume   149.16525657
_cell_formula_units_Z   2
loop_
 _symmetry_equiv_pos_site_id
 _symmetry_equiv_pos_as_xyz
  1  'x, y, z'
loop_
 _atom_site_type_symbol
 _atom_site_label
 _atom_site_symmetry_multiplicity
 _atom_site_fract_x
 _atom_site_fract_y
 _atom_site_fract_z
 _atom_site_occupancy
  Ta  Ta0  1  0.66666700  0.33333300  0.92062500  1
  Ta  Ta1  1  0.33333300  0.66666700  0.07937500  1
  Fe  Fe0  1  0.00000000  0.00000000  0.50000000  1
  Fe  Fe1  1  0.00000000  0.00000000  0.00000000  1
  Fe  Fe2  1  0.82944100  0.17055900  0.25607900  1
  Fe  Fe3  1  0.82944100  0.65888100  0.25607900  1
  Fe  Fe4  1  0.34111900  0.17055900  0.25607900  1
  Fe  Fe5  1  0.17055900  0.82944100  0.74392100  1
  Fe  Fe6  1  0.17055900  0.34111900  0.74392100  1
  Fe  Fe7  1  0.65888100  0.82944100  0.74392100  1
  Si  Si0  1  0.33333300  0.66666700  0.44252500  1
  Si  Si1  1  0.66666700  0.33333300  0.55747500  1
loop_
_geom_bond_atom_site_label_1
_geom_bond_atom_site_label_2
_geom_bond_distance
_geom_bond_site_symmetry_2
Fe0 Fe5 2.315212 1_545
Fe0 Fe2 2.315212 1_455
Fe0 Fe6 2.315214 1_555
Fe0 Fe7 2.315214 1_445
Fe0 Fe4 2.315214 1_555
Fe0 Fe3 2.315214 1_445
Fe0 Si1 2.797617 1_455
Fe0 Si0 2.797617 1_545
Fe0 Si1 2.797621 1_445
Fe0 Si1 2.797621 1_555
Fe0 Si0 2.797621 1_445
Fe0 Si0 2.797621 1_555
Fe1 Fe2 2.388199 1_455
Fe1 Fe5 2.388199 1_544
Fe1 Fe4 2.388202 1_555
Fe1 Fe3 2.388202 1_445
Fe1 Fe6 2.388202 1_554
Fe1 Fe7 2.388202 1_444
Fe1 Ta1 2.827704 1_545
Fe1 Ta0 2.827704 1_454
Fe1 Ta1 2.827708 1_555
Fe1 Ta1 2.827708 1_445
Fe1 Ta0 2.827708 1_444
Fe1 Ta0 2.827708 1_554
Fe2 Fe3 2.337854 1_555
Fe2 Fe4 2.337854 1_555
Fe2 Fe4 2.449671 1_655
Fe2 Fe3 2.449671 1_545
Fe2 Si1 2.636609 1_555
Fe2 Ta1 2.737595 1_545
Fe2 Ta1 2.737595 1_655
Fe2 Si0 2.773844 1_545
Fe2 Si0 2.773844 1_655
Fe2 Ta0 2.859470 1_554
Fe3 Fe4 2.337853 1_555
Fe3 Fe4 2.449671 1_665
Fe3 Si1 2.636609 1_555
Fe3 Ta1 2.737591 1_655
Fe3 Ta1 2.737599 1_555
Fe3 Si0 2.773840 1_655
Fe3 Si0 2.773848 1_555
Fe3 Ta0 2.859470 1_554
Fe4 Si1 2.636609 1_555
Fe4 Ta1 2.737591 1_545
Fe4 Ta1 2.737599 1_555
Fe4 Si0 2.773840 1_545
Fe4 Si0 2.773848 1_555
Fe4 Ta0 2.859470 1_554
Fe5 Fe7 2.337854 1_555
Fe5 Fe6 2.337854 1_555
Fe5 Fe6 2.449671 1_565
Fe5 Fe7 2.449671 1_455
Fe5 Si0 2.636609 1_555
Fe5 Ta0 2.737595 1_455
Fe5 Ta0 2.737595 1_565
Fe5 Si1 2.773844 1_455
Fe5 Si1 2.773844 1_565
Fe5 Ta1 2.859470 1_556
Fe6 Fe7 2.337853 1_555
Fe6 Fe7 2.449671 1_445
Fe6 Si0 2.636609 1_555
Fe6 Ta0 2.737591 1_455
Fe6 Ta0 2.737599 1_555
Fe6 Si1 2.773840 1_455
Fe6 Si1 2.773848 1_555
Fe6 Ta1 2.859470 1_556
Fe7 Si0 2.636609 1_555
Fe7 Ta0 2.737591 1_565
Fe7 Ta0 2.737599 1_555
Fe7 Si1 2.773840 1_565
Fe7 Si1 2.773848 1_555
Fe7 Ta1 2.859470 1_556
Si0 Ta1 2.728985 1_555
Si1 Ta0 2.728985 1_555
