# generated using pymatgen
data_CaMnO2
_symmetry_space_group_name_H-M   'P 1'
_cell_length_a   5.70820004
_cell_length_b   6.46281968
_cell_length_c   5.70569270
_cell_angle_alpha   90.00577571
_cell_angle_beta   69.46322882
_cell_angle_gamma   89.99486780
_symmetry_Int_Tables_number   1
_chemical_formula_structural   CaMnO2
_chemical_formula_sum   'Ca4 Mn4 O8'
_cell_volume   197.11192919
_cell_formula_units_Z   4
loop_
 _symmetry_equiv_pos_site_id
 _symmetry_equiv_pos_as_xyz
  1  'x, y, z'
loop_
 _atom_site_type_symbol
 _atom_site_label
 _atom_site_symmetry_multiplicity
 _atom_site_fract_x
 _atom_site_fract_y
 _atom_site_fract_z
 _atom_site_occupancy
  Ca  Ca0  1  0.96938897  0.88537569  0.53150605  1
  Ca  Ca1  1  0.46938737  0.88536303  0.03150760  1
  Ca  Ca2  1  0.96937133  0.61462574  0.03152285  1
  Ca  Ca3  1  0.46936962  0.61463588  0.53152426  1
  Mn  Mn0  1  0.47084754  0.37198879  0.03394857  1
  Mn  Mn1  1  0.47090744  0.12801376  0.53389297  1
  Mn  Mn2  1  0.97084443  0.37200145  0.53394155  1
  Mn  Mn3  1  0.97090589  0.12800331  0.03388699  1
  O  O0  1  0.21592383  0.14367639  0.27829073  1
  O  O1  1  0.71592006  0.14367602  0.77830157  1
  O  O2  1  0.21597875  0.35633220  0.77824086  1
  O  O3  1  0.71597250  0.35633338  0.27825496  1
  O  O4  1  0.21888000  0.88589418  0.78121732  1
  O  O5  1  0.71887819  0.88589728  0.28121335  1
  O  O6  1  0.21898862  0.61410550  0.28110792  1
  O  O7  1  0.71898946  0.61411038  0.78110148  1
loop_
_geom_bond_atom_site_label_1
_geom_bond_atom_site_label_2
_geom_bond_distance
_geom_bond_site_symmetry_2
Ca0 O0 2.329998 1_665
Ca0 O1 2.330794 1_565
Ca0 O4 2.341330 1_655
Ca0 O5 2.348841 1_555
Ca0 O6 2.390732 1_655
Ca0 O7 2.391103 1_555
Ca1 O1 2.330029 1_564
Ca1 O0 2.330814 1_565
Ca1 O5 2.341303 1_555
Ca1 O4 2.348813 1_554
Ca1 O7 2.390672 1_554
Ca1 O6 2.391075 1_555
Ca2 O2 2.329891 1_654
Ca2 O3 2.330843 1_555
Ca2 O6 2.341331 1_655
Ca2 O7 2.348839 1_554
Ca2 O4 2.390716 1_654
Ca2 O5 2.391151 1_555
Ca3 O3 2.329893 1_555
Ca3 O2 2.330842 1_555
Ca3 O7 2.341306 1_555
Ca3 O6 2.348811 1_555
Ca3 O5 2.390694 1_555
Ca3 O4 2.391087 1_555
Mn0 O0 2.194485 1_555
Mn0 O1 2.197586 1_554
Mn0 O6 2.254047 1_555
Mn0 O7 2.259047 1_554
Mn0 O3 2.297733 1_555
Mn0 O2 2.396811 1_554
Mn1 O2 2.194173 1_555
Mn1 O3 2.197941 1_555
Mn1 O4 2.255216 1_545
Mn1 O5 2.257853 1_545
Mn1 O1 2.297685 1_555
Mn1 O0 2.396857 1_555
Mn2 O1 2.194585 1_555
Mn2 O0 2.197664 1_655
Mn2 O7 2.254004 1_555
Mn2 O6 2.258941 1_655
Mn2 O2 2.297748 1_655
Mn2 O3 2.396730 1_555
Mn3 O3 2.194281 1_555
Mn3 O2 2.198020 1_654
Mn3 O5 2.255161 1_545
Mn3 O4 2.257804 1_644
Mn3 O0 2.297690 1_655
Mn3 O1 2.396792 1_554
