# generated using pymatgen
data_Cu5(Si2O7)2
_symmetry_space_group_name_H-M   'P 1'
_cell_length_a   5.56998400
_cell_length_b   9.48354200
_cell_length_c   20.01855400
_cell_angle_alpha   90.00000000
_cell_angle_beta   90.00000000
_cell_angle_gamma   90.00000000
_symmetry_Int_Tables_number   1
_chemical_formula_structural   Cu5(Si2O7)2
_chemical_formula_sum   'Cu20 Si16 O56'
_cell_volume   1057.44362530
_cell_formula_units_Z   4
loop_
 _symmetry_equiv_pos_site_id
 _symmetry_equiv_pos_as_xyz
  1  'x, y, z'
loop_
 _atom_site_type_symbol
 _atom_site_label
 _atom_site_symmetry_multiplicity
 _atom_site_fract_x
 _atom_site_fract_y
 _atom_site_fract_z
 _atom_site_occupancy
  Cu  Cu0  1  0.68195500  0.25341900  0.23509600  1
  Cu  Cu1  1  0.81804500  0.75341900  0.76490400  1
  Cu  Cu2  1  0.18195500  0.74658100  0.26490400  1
  Cu  Cu3  1  0.31804500  0.24658100  0.73509600  1
  Cu  Cu4  1  0.31804500  0.74658100  0.76490400  1
  Cu  Cu5  1  0.18195500  0.24658100  0.23509600  1
  Cu  Cu6  1  0.81804500  0.25341900  0.73509600  1
  Cu  Cu7  1  0.68195500  0.75341900  0.26490400  1
  Cu  Cu8  1  0.02862700  0.18209300  0.99695700  1
  Cu  Cu9  1  0.47137300  0.68209300  0.00304300  1
  Cu  Cu10  1  0.52862700  0.81790700  0.50304300  1
  Cu  Cu11  1  0.97137300  0.31790700  0.49695700  1
  Cu  Cu12  1  0.97137300  0.81790700  0.00304300  1
  Cu  Cu13  1  0.52862700  0.31790700  0.99695700  1
  Cu  Cu14  1  0.47137300  0.18209300  0.49695700  1
  Cu  Cu15  1  0.02862700  0.68209300  0.50304300  1
  Cu  Cu16  1  0.00000000  0.50000000  0.00000000  1
  Cu  Cu17  1  0.50000000  0.00000000  0.00000000  1
  Cu  Cu18  1  0.50000000  0.50000000  0.50000000  1
  Cu  Cu19  1  0.00000000  0.00000000  0.50000000  1
  Si  Si0  1  0.42367300  0.44091200  0.13765700  1
  Si  Si1  1  0.07632700  0.94091200  0.86234300  1
  Si  Si2  1  0.92367300  0.55908800  0.36234300  1
  Si  Si3  1  0.57632700  0.05908800  0.63765700  1
  Si  Si4  1  0.57632700  0.55908800  0.86234300  1
  Si  Si5  1  0.92367300  0.05908800  0.13765700  1
  Si  Si6  1  0.07632700  0.44091200  0.63765700  1
  Si  Si7  1  0.42367300  0.94091200  0.36234300  1
  Si  Si8  1  0.92249100  0.59140700  0.14830700  1
  Si  Si9  1  0.57750900  0.09140700  0.85169300  1
  Si  Si10  1  0.42249100  0.40859300  0.35169300  1
  Si  Si11  1  0.07750900  0.90859300  0.64830700  1
  Si  Si12  1  0.07750900  0.40859300  0.85169300  1
  Si  Si13  1  0.42249100  0.90859300  0.14830700  1
  Si  Si14  1  0.57750900  0.59140700  0.64830700  1
  Si  Si15  1  0.92249100  0.09140700  0.35169300  1
  O  O0  1  0.43120000  0.27987000  0.17025900  1
  O  O1  1  0.06880000  0.77987000  0.82974100  1
  O  O2  1  0.93120000  0.72013000  0.32974100  1
  O  O3  1  0.56880000  0.22013000  0.67025900  1
  O  O4  1  0.56880000  0.72013000  0.82974100  1
  O  O5  1  0.93120000  0.22013000  0.17025900  1
  O  O6  1  0.06880000  0.27987000  0.67025900  1
  O  O7  1  0.43120000  0.77987000  0.32974100  1
  O  O8  1  0.40325000  0.46108900  0.05719600  1
  O  O9  1  0.09675000  0.96108900  0.94280400  1
  O  O10  1  0.90325000  0.53891100  0.44280400  1
  O  O11  1  0.59675000  0.03891100  0.55719600  1
  O  O12  1  0.59675000  0.53891100  0.94280400  1
  O  O13  1  0.90325000  0.03891100  0.05719600  1
  O  O14  1  0.09675000  0.46108900  0.55719600  1
  O  O15  1  0.40325000  0.96108900  0.44280400  1
  O  O16  1  0.17137200  0.50745200  0.16802400  1
  O  O17  1  0.32862800  0.00745200  0.83197600  1
  O  O18  1  0.67137200  0.49254800  0.33197600  1
  O  O19  1  0.82862800  0.99254800  0.66802400  1
  O  O20  1  0.82862800  0.49254800  0.83197600  1
  O  O21  1  0.67137200  0.99254800  0.16802400  1
  O  O22  1  0.32862800  0.50745200  0.66802400  1
  O  O23  1  0.17137200  0.00745200  0.33197600  1
  O  O24  1  0.67499100  0.50672000  0.16875600  1
  O  O25  1  0.82500900  0.00672000  0.83124400  1
  O  O26  1  0.17499100  0.49328000  0.33124400  1
  O  O27  1  0.32500900  0.99328000  0.66875600  1
  O  O28  1  0.32500900  0.49328000  0.83124400  1
  O  O29  1  0.17499100  0.99328000  0.16875600  1
  O  O30  1  0.82500900  0.50672000  0.66875600  1
  O  O31  1  0.67499100  0.00672000  0.33124400  1
  O  O32  1  0.93046800  0.72803600  0.19972100  1
  O  O33  1  0.56953200  0.22803600  0.80027900  1
  O  O34  1  0.43046800  0.27196400  0.30027900  1
  O  O35  1  0.06953200  0.77196400  0.69972100  1
  O  O36  1  0.06953200  0.27196400  0.80027900  1
  O  O37  1  0.43046800  0.77196400  0.19972100  1
  O  O38  1  0.56953200  0.72803600  0.69972100  1
  O  O39  1  0.93046800  0.22803600  0.30027900  1
  O  O40  1  0.90353800  0.63666400  0.06916700  1
  O  O41  1  0.59646200  0.13666400  0.93083300  1
  O  O42  1  0.40353800  0.36333600  0.43083300  1
  O  O43  1  0.09646200  0.86333600  0.56916700  1
  O  O44  1  0.09646200  0.36333600  0.93083300  1
  O  O45  1  0.40353800  0.86333600  0.06916700  1
  O  O46  1  0.59646200  0.63666400  0.56916700  1
  O  O47  1  0.90353800  0.13666400  0.43083300  1
  O  O48  1  0.15157300  0.66139000  0.96846500  1
  O  O49  1  0.34842700  0.16139000  0.03153500  1
  O  O50  1  0.65157300  0.33861000  0.53153500  1
  O  O51  1  0.84842700  0.83861000  0.46846500  1
  O  O52  1  0.84842700  0.33861000  0.03153500  1
  O  O53  1  0.65157300  0.83861000  0.96846500  1
  O  O54  1  0.34842700  0.66139000  0.46846500  1
  O  O55  1  0.15157300  0.16139000  0.53153500  1
loop_
_geom_bond_atom_site_label_1
_geom_bond_atom_site_label_2
_geom_bond_distance
_geom_bond_site_symmetry_2
Cu0 O39 1.917466 1_555
Cu0 O34 1.922445 1_555
Cu0 O0 1.923111 1_555
Cu0 O5 1.926570 1_555
Cu1 O38 1.917466 1_555
Cu1 O35 1.922445 1_655
Cu1 O1 1.923111 1_655
Cu1 O4 1.926570 1_555
Cu2 O37 1.917466 1_555
Cu2 O32 1.922445 1_455
Cu2 O2 1.923111 1_455
Cu2 O7 1.926570 1_555
Cu3 O36 1.917466 1_555
Cu3 O33 1.922445 1_555
Cu3 O3 1.923111 1_555
Cu3 O6 1.926570 1_555
Cu4 O35 1.917466 1_555
Cu4 O38 1.922445 1_555
Cu4 O4 1.923111 1_555
Cu4 O1 1.926570 1_555
Cu5 O34 1.917466 1_555
Cu5 O39 1.922445 1_455
Cu5 O5 1.923111 1_455
Cu5 O0 1.926570 1_555
Cu6 O33 1.917466 1_555
Cu6 O36 1.922445 1_655
Cu6 O6 1.923111 1_655
Cu6 O3 1.926570 1_555
Cu7 O32 1.917466 1_555
Cu7 O37 1.922445 1_555
Cu7 O7 1.923111 1_555
Cu7 O2 1.926570 1_555
Cu8 O52 1.920893 1_456
Cu8 O49 1.921107 1_556
Cu8 O13 1.945687 1_456
Cu8 O44 2.202118 1_555
Cu8 O9 2.389974 1_545
Cu9 O53 1.920893 1_554
Cu9 O48 1.921107 1_554
Cu9 O12 1.945687 1_554
Cu9 O45 2.202118 1_555
Cu9 O8 2.389974 1_555
Cu10 O54 1.920893 1_555
Cu10 O51 1.921107 1_555
Cu10 O15 1.945687 1_555
Cu10 O46 2.202118 1_555
Cu10 O11 2.389974 1_565
Cu11 O55 1.920893 1_655
Cu11 O50 1.921107 1_555
Cu11 O14 1.945687 1_655
Cu11 O47 2.202118 1_555
Cu11 O10 2.389974 1_555
Cu12 O48 1.920893 1_654
Cu12 O53 1.921107 1_554
Cu12 O9 1.945687 1_654
Cu12 O40 2.202118 1_555
Cu12 O13 2.389974 1_565
Cu13 O49 1.920893 1_556
Cu13 O52 1.921107 1_556
Cu13 O8 1.945687 1_556
Cu13 O41 2.202118 1_555
Cu13 O12 2.389974 1_555
Cu14 O50 1.920893 1_555
Cu14 O55 1.921107 1_555
Cu14 O11 1.945687 1_555
Cu14 O42 2.202118 1_555
Cu14 O15 2.389974 1_545
Cu15 O51 1.920893 1_455
Cu15 O54 1.921107 1_555
Cu15 O10 1.945687 1_455
Cu15 O43 2.202118 1_555
Cu15 O14 2.389974 1_555
Cu16 O52 1.858460 1_455
Cu16 O48 1.858460 1_554
Cu16 O40 1.971201 1_455
Cu16 O44 1.971201 1_554
Cu16 O12 2.547960 1_454
Cu16 O8 2.547960 1_555
Cu17 O49 1.858460 1_555
Cu17 O53 1.858460 1_544
Cu17 O45 1.971201 1_545
Cu17 O41 1.971201 1_554
Cu17 O13 2.547960 1_555
Cu17 O9 2.547960 1_544
Cu18 O50 1.858460 1_555
Cu18 O54 1.858460 1_555
Cu18 O46 1.971201 1_555
Cu18 O42 1.971201 1_555
Cu18 O10 2.547960 1_555
Cu18 O14 2.547960 1_555
Cu19 O55 1.858460 1_555
Cu19 O51 1.858460 1_445
Cu19 O43 1.971201 1_545
Cu19 O47 1.971201 1_455
Cu19 O15 2.547960 1_545
Cu19 O11 2.547960 1_455
O0 Si0 1.661382 1_555
O1 Si1 1.661382 1_555
O2 Si2 1.661382 1_555
O3 Si3 1.661382 1_555
O4 Si4 1.661382 1_555
O5 Si5 1.661382 1_555
O6 Si6 1.661382 1_555
O7 Si7 1.661382 1_555
O8 Si0 1.626023 1_555
O9 Si1 1.626023 1_555
O10 Si2 1.626023 1_555
O11 Si3 1.626023 1_555
O12 Si4 1.626023 1_555
O13 Si5 1.626023 1_555
O14 Si6 1.626023 1_555
O15 Si7 1.626023 1_555
O16 Si8 1.646644 1_455
O16 Si0 1.656096 1_555
O17 Si9 1.646644 1_555
O17 Si1 1.656096 1_545
O18 Si10 1.646644 1_555
O18 Si2 1.656096 1_555
O19 Si11 1.646644 1_655
O19 Si3 1.656096 1_565
O20 Si12 1.646644 1_655
O20 Si4 1.656096 1_555
O21 Si13 1.646644 1_555
O21 Si5 1.656096 1_565
O22 Si14 1.646644 1_555
O22 Si6 1.656096 1_555
O23 Si15 1.646644 1_455
O23 Si7 1.656096 1_545
O24 Si8 1.647136 1_555
O24 Si0 1.654271 1_555
O25 Si9 1.647136 1_555
O25 Si1 1.654271 1_645
O26 Si10 1.647136 1_555
O26 Si2 1.654271 1_455
O27 Si11 1.647136 1_555
O27 Si3 1.654271 1_565
O28 Si12 1.647136 1_555
O28 Si4 1.654271 1_555
O29 Si13 1.647136 1_555
O29 Si5 1.654271 1_465
O30 Si14 1.647136 1_555
O30 Si6 1.654271 1_655
O31 Si15 1.647136 1_555
O31 Si7 1.654271 1_545
O32 Si8 1.655356 1_555
O33 Si9 1.655356 1_555
O34 Si10 1.655356 1_555
O35 Si11 1.655356 1_555
O36 Si12 1.655356 1_555
O37 Si13 1.655356 1_555
O38 Si14 1.655356 1_555
O39 Si15 1.655356 1_555
O40 Si8 1.644768 1_555
O41 Si9 1.644768 1_555
O42 Si10 1.644768 1_555
O43 Si11 1.644768 1_555
O44 Si12 1.644768 1_555
O45 Si13 1.644768 1_555
O46 Si14 1.644768 1_555
O47 Si15 1.644768 1_555
