# generated using pymatgen
data_ZrGaRh
_symmetry_space_group_name_H-M   'P 1'
_cell_length_a   14.53771828
_cell_length_b   14.53771828
_cell_length_c   6.63845846
_cell_angle_alpha   90.00000000
_cell_angle_beta   90.00000000
_cell_angle_gamma   119.99999271
_symmetry_Int_Tables_number   1
_chemical_formula_structural   ZrGaRh
_chemical_formula_sum   'Zr24 Ga24 Rh24'
_cell_volume   1215.03951672
_cell_formula_units_Z   24
loop_
 _symmetry_equiv_pos_site_id
 _symmetry_equiv_pos_as_xyz
  1  'x, y, z'
loop_
 _atom_site_type_symbol
 _atom_site_label
 _atom_site_symmetry_multiplicity
 _atom_site_fract_x
 _atom_site_fract_y
 _atom_site_fract_z
 _atom_site_occupancy
  Zr  Zr0_0  1  0.00000000  0.19651558  0.25000000  1
  Zr  Zr0_1  1  0.00000000  0.19651558  0.75000000  1
  Zr  Zr0_2  1  0.00000000  0.69651558  0.25000000  1
  Zr  Zr0_3  1  0.00000000  0.69651558  0.75000000  1
  Zr  Zr0_4  1  0.50000000  0.19651558  0.25000000  1
  Zr  Zr0_5  1  0.50000000  0.19651558  0.75000000  1
  Zr  Zr0_6  1  0.50000000  0.69651558  0.25000000  1
  Zr  Zr0_7  1  0.50000000  0.69651558  0.75000000  1
  Zr  Zr1_0  1  0.30348442  0.30348442  0.25000000  1
  Zr  Zr1_1  1  0.30348442  0.30348442  0.75000000  1
  Zr  Zr1_2  1  0.30348442  0.80348442  0.25000000  1
  Zr  Zr1_3  1  0.30348442  0.80348442  0.75000000  1
  Zr  Zr1_4  1  0.80348442  0.30348442  0.25000000  1
  Zr  Zr1_5  1  0.80348442  0.30348442  0.75000000  1
  Zr  Zr1_6  1  0.80348442  0.80348442  0.25000000  1
  Zr  Zr1_7  1  0.80348442  0.80348442  0.75000000  1
  Zr  Zr2_0  1  0.19651558  0.00000000  0.25000000  1
  Zr  Zr2_1  1  0.19651558  0.00000000  0.75000000  1
  Zr  Zr2_2  1  0.19651558  0.50000000  0.25000000  1
  Zr  Zr2_3  1  0.19651558  0.50000000  0.75000000  1
  Zr  Zr2_4  1  0.69651558  0.00000000  0.25000000  1
  Zr  Zr2_5  1  0.69651558  0.00000000  0.75000000  1
  Zr  Zr2_6  1  0.69651558  0.50000000  0.25000000  1
  Zr  Zr2_7  1  0.69651558  0.50000000  0.75000000  1
  Ga  Ga0_0  1  0.00000000  0.36349836  0.00000000  1
  Ga  Ga0_1  1  0.00000000  0.36349836  0.50000000  1
  Ga  Ga0_2  1  0.00000000  0.86349836  0.00000000  1
  Ga  Ga0_3  1  0.00000000  0.86349836  0.50000000  1
  Ga  Ga0_4  1  0.50000000  0.36349836  0.00000000  1
  Ga  Ga0_5  1  0.50000000  0.36349836  0.50000000  1
  Ga  Ga0_6  1  0.50000000  0.86349836  0.00000000  1
  Ga  Ga0_7  1  0.50000000  0.86349836  0.50000000  1
  Ga  Ga1_0  1  0.13650164  0.13650164  0.00000000  1
  Ga  Ga1_1  1  0.13650164  0.13650164  0.50000000  1
  Ga  Ga1_2  1  0.13650163  0.63650163  0.00000000  1
  Ga  Ga1_3  1  0.13650163  0.63650163  0.50000000  1
  Ga  Ga1_4  1  0.63650163  0.13650163  0.00000000  1
  Ga  Ga1_5  1  0.63650163  0.13650163  0.50000000  1
  Ga  Ga1_6  1  0.63650164  0.63650164  0.00000000  1
  Ga  Ga1_7  1  0.63650164  0.63650164  0.50000000  1
  Ga  Ga2_0  1  0.36349836  0.00000000  0.00000000  1
  Ga  Ga2_1  1  0.36349836  0.00000000  0.50000000  1
  Ga  Ga2_2  1  0.36349836  0.50000000  0.00000000  1
  Ga  Ga2_3  1  0.36349836  0.50000000  0.50000000  1
  Ga  Ga2_4  1  0.86349836  0.00000000  0.00000000  1
  Ga  Ga2_5  1  0.86349836  0.00000000  0.50000000  1
  Ga  Ga2_6  1  0.86349836  0.50000000  0.00000000  1
  Ga  Ga2_7  1  0.86349836  0.50000000  0.50000000  1
  Rh  Rh0_0  1  0.16666650  0.33333350  0.00000000  1
  Rh  Rh0_1  1  0.16666650  0.33333350  0.50000000  1
  Rh  Rh0_2  1  0.16666650  0.83333350  0.00000000  1
  Rh  Rh0_3  1  0.16666650  0.83333350  0.50000000  1
  Rh  Rh0_4  1  0.66666650  0.33333350  0.00000000  1
  Rh  Rh0_5  1  0.66666650  0.33333350  0.50000000  1
  Rh  Rh0_6  1  0.66666650  0.83333350  0.00000000  1
  Rh  Rh0_7  1  0.66666650  0.83333350  0.50000000  1
  Rh  Rh1_0  1  0.33333350  0.16666650  0.00000000  1
  Rh  Rh1_1  1  0.33333350  0.16666650  0.50000000  1
  Rh  Rh1_2  1  0.33333350  0.66666650  0.00000000  1
  Rh  Rh1_3  1  0.33333350  0.66666650  0.50000000  1
  Rh  Rh1_4  1  0.83333350  0.16666650  0.00000000  1
  Rh  Rh1_5  1  0.83333350  0.16666650  0.50000000  1
  Rh  Rh1_6  1  0.83333350  0.66666650  0.00000000  1
  Rh  Rh1_7  1  0.83333350  0.66666650  0.50000000  1
  Rh  Rh2_0  1  0.00000000  0.00000000  0.25000000  1
  Rh  Rh2_1  1  0.00000000  0.00000000  0.75000000  1
  Rh  Rh2_2  1  0.00000000  0.50000000  0.25000000  1
  Rh  Rh2_3  1  0.00000000  0.50000000  0.75000000  1
  Rh  Rh2_4  1  0.50000000  0.00000000  0.25000000  1
  Rh  Rh2_5  1  0.50000000  0.00000000  0.75000000  1
  Rh  Rh2_6  1  0.50000000  0.50000000  0.25000000  1
  Rh  Rh2_7  1  0.50000000  0.50000000  0.75000000  1
loop_
_geom_bond_atom_site_label_1
_geom_bond_atom_site_label_2
_geom_bond_distance
_geom_bond_site_symmetry_2
Zr0_0 Zr0_1 3.319229 1_554
Zr0_0 Zr0_1 3.319229 1_555
Zr0_2 Zr0_3 3.319229 1_554
Zr0_2 Zr0_3 3.319229 1_555
Zr0_4 Zr0_5 3.319229 1_555
Zr0_4 Zr0_5 3.319229 1_554
Zr0_6 Zr0_7 3.319229 1_554
Zr0_6 Zr0_7 3.319229 1_555
Zr1_0 Zr1_1 3.319229 1_555
Zr1_0 Zr1_1 3.319229 1_554
Zr1_2 Zr1_3 3.319229 1_555
Zr1_2 Zr1_3 3.319229 1_554
Zr1_4 Zr1_5 3.319229 1_555
Zr1_4 Zr1_5 3.319229 1_554
Zr1_6 Zr1_7 3.319229 1_554
Zr1_6 Zr1_7 3.319229 1_555
Zr2_0 Zr2_1 3.319229 1_555
Zr2_0 Zr2_1 3.319229 1_554
Zr2_2 Zr2_3 3.319229 1_554
Zr2_2 Zr2_3 3.319229 1_555
Zr2_4 Zr2_5 3.319229 1_555
Zr2_4 Zr2_5 3.319229 1_554
Zr2_6 Zr2_7 3.319229 1_554
Zr2_6 Zr2_7 3.319229 1_555
Ga0_0 Rh2_2 2.586939 1_555
Ga0_0 Rh2_3 2.586939 1_554
Ga0_0 Rh0_0 2.669369 1_555
Ga0_0 Rh1_4 2.669373 1_455
Ga0_0 Zr0_0 2.940631 1_555
Ga0_0 Zr0_1 2.940631 1_554
Ga0_0 Zr1_5 3.030642 1_454
Ga0_0 Zr1_4 3.030642 1_455
Ga0_0 Zr2_2 3.030642 1_555
Ga0_0 Zr2_3 3.030642 1_554
Ga0_1 Rh2_3 2.586939 1_555
Ga0_1 Rh2_2 2.586939 1_555
Ga0_1 Rh0_1 2.669369 1_555
Ga0_1 Rh1_5 2.669373 1_455
Ga0_1 Zr0_0 2.940631 1_555
Ga0_1 Zr0_1 2.940631 1_555
Ga0_1 Zr1_4 3.030642 1_455
Ga0_1 Zr1_5 3.030642 1_455
Ga0_1 Zr2_2 3.030642 1_555
Ga0_1 Zr2_3 3.030642 1_555
Ga0_2 Rh2_0 2.586939 1_565
Ga0_2 Rh2_1 2.586939 1_564
Ga0_2 Rh0_2 2.669369 1_555
Ga0_2 Rh1_6 2.669373 1_455
Ga0_2 Zr0_2 2.940631 1_555
Ga0_2 Zr0_3 2.940631 1_554
Ga0_2 Zr1_7 3.030642 1_454
Ga0_2 Zr1_6 3.030642 1_455
Ga0_2 Zr2_1 3.030642 1_564
Ga0_2 Zr2_0 3.030642 1_565
Ga0_3 Rh2_0 2.586939 1_565
Ga0_3 Rh2_1 2.586939 1_565
Ga0_3 Rh0_3 2.669369 1_555
Ga0_3 Rh1_7 2.669373 1_455
Ga0_3 Zr0_2 2.940631 1_555
Ga0_3 Zr0_3 2.940631 1_555
Ga0_3 Zr1_7 3.030642 1_455
Ga0_3 Zr1_6 3.030642 1_455
Ga0_3 Zr2_1 3.030642 1_565
Ga0_3 Zr2_0 3.030642 1_565
Ga0_4 Rh2_7 2.586939 1_554
Ga0_4 Rh2_6 2.586939 1_555
Ga0_4 Rh0_4 2.669369 1_555
Ga0_4 Rh1_0 2.669373 1_555
Ga0_4 Zr0_5 2.940631 1_554
Ga0_4 Zr0_4 2.940631 1_555
Ga0_4 Zr1_0 3.030642 1_555
Ga0_4 Zr1_1 3.030642 1_554
Ga0_4 Zr2_6 3.030642 1_555
Ga0_4 Zr2_7 3.030642 1_554
Ga0_5 Rh2_7 2.586939 1_555
Ga0_5 Rh2_6 2.586939 1_555
Ga0_5 Rh0_5 2.669369 1_555
Ga0_5 Rh1_1 2.669373 1_555
Ga0_5 Zr0_5 2.940631 1_555
Ga0_5 Zr0_4 2.940631 1_555
Ga0_5 Zr1_0 3.030642 1_555
Ga0_5 Zr1_1 3.030642 1_555
Ga0_5 Zr2_6 3.030642 1_555
Ga0_5 Zr2_7 3.030642 1_555
Ga0_6 Rh2_5 2.586939 1_564
Ga0_6 Rh2_4 2.586939 1_565
Ga0_6 Rh0_6 2.669369 1_555
Ga0_6 Rh1_2 2.669373 1_555
Ga0_6 Zr0_7 2.940631 1_554
Ga0_6 Zr0_6 2.940631 1_555
Ga0_6 Zr1_2 3.030642 1_555
Ga0_6 Zr1_3 3.030642 1_554
Ga0_6 Zr2_4 3.030642 1_565
Ga0_6 Zr2_5 3.030642 1_564
Ga0_7 Rh2_4 2.586939 1_565
Ga0_7 Rh2_5 2.586939 1_565
Ga0_7 Rh0_7 2.669369 1_555
Ga0_7 Rh1_3 2.669373 1_555
Ga0_7 Zr0_7 2.940631 1_555
Ga0_7 Zr0_6 2.940631 1_555
Ga0_7 Zr1_2 3.030642 1_555
Ga0_7 Zr1_3 3.030642 1_555
Ga0_7 Zr2_4 3.030642 1_565
Ga0_7 Zr2_5 3.030642 1_565
Ga1_0 Rh2_0 2.586939 1_555
Ga1_0 Rh2_1 2.586939 1_554
Ga1_0 Rh1_0 2.669376 1_555
Ga1_0 Rh0_0 2.669376 1_555
Ga1_0 Zr1_0 2.940632 1_555
Ga1_0 Zr1_1 2.940632 1_554
Ga1_0 Zr0_0 3.030642 1_555
Ga1_0 Zr2_0 3.030642 1_555
Ga1_0 Zr0_1 3.030642 1_554
Ga1_0 Zr2_1 3.030642 1_554
Ga1_1 Rh2_0 2.586939 1_555
Ga1_1 Rh2_1 2.586939 1_555
Ga1_1 Rh1_1 2.669376 1_555
Ga1_1 Rh0_1 2.669376 1_555
Ga1_1 Zr1_0 2.940632 1_555
Ga1_1 Zr1_1 2.940632 1_555
Ga1_1 Zr0_1 3.030642 1_555
Ga1_1 Zr0_0 3.030642 1_555
Ga1_1 Zr2_0 3.030642 1_555
Ga1_1 Zr2_1 3.030642 1_555
Ga1_2 Rh2_3 2.586939 1_554
Ga1_2 Rh2_2 2.586939 1_555
Ga1_2 Rh1_2 2.669376 1_555
Ga1_2 Rh0_2 2.669376 1_555
Ga1_2 Zr1_3 2.940632 1_554
Ga1_2 Zr1_2 2.940632 1_555
Ga1_2 Zr2_3 3.030642 1_554
Ga1_2 Zr0_2 3.030642 1_555
Ga1_2 Zr0_3 3.030642 1_554
Ga1_2 Zr2_2 3.030642 1_555
Ga1_3 Rh2_3 2.586939 1_555
Ga1_3 Rh2_2 2.586939 1_555
Ga1_3 Rh1_3 2.669376 1_555
Ga1_3 Rh0_3 2.669376 1_555
Ga1_3 Zr1_3 2.940632 1_555
Ga1_3 Zr1_2 2.940632 1_555
Ga1_3 Zr0_2 3.030642 1_555
Ga1_3 Zr0_3 3.030642 1_555
Ga1_3 Zr2_2 3.030642 1_555
Ga1_3 Zr2_3 3.030642 1_555
Ga1_4 Rh2_4 2.586939 1_555
Ga1_4 Rh2_5 2.586939 1_554
Ga1_4 Rh1_4 2.669376 1_555
Ga1_4 Rh0_4 2.669376 1_555
Ga1_4 Zr1_4 2.940632 1_555
Ga1_4 Zr1_5 2.940632 1_554
Ga1_4 Zr0_5 3.030642 1_554
Ga1_4 Zr0_4 3.030642 1_555
Ga1_4 Zr2_4 3.030642 1_555
Ga1_4 Zr2_5 3.030642 1_554
Ga1_5 Rh2_4 2.586939 1_555
Ga1_5 Rh2_5 2.586939 1_555
Ga1_5 Rh0_5 2.669376 1_555
Ga1_5 Rh1_5 2.669376 1_555
Ga1_5 Zr1_4 2.940632 1_555
Ga1_5 Zr1_5 2.940632 1_555
Ga1_5 Zr0_5 3.030642 1_555
Ga1_5 Zr2_5 3.030642 1_555
Ga1_5 Zr0_4 3.030642 1_555
Ga1_5 Zr2_4 3.030642 1_555
Ga1_6 Rh2_7 2.586939 1_554
Ga1_6 Rh2_6 2.586939 1_555
Ga1_6 Rh1_6 2.669376 1_555
Ga1_6 Rh0_6 2.669376 1_555
Ga1_6 Zr1_6 2.940632 1_555
Ga1_6 Zr1_7 2.940632 1_554
Ga1_6 Zr2_6 3.030642 1_555
Ga1_6 Zr2_7 3.030642 1_554
Ga1_6 Zr0_6 3.030642 1_555
Ga1_6 Zr0_7 3.030642 1_554
Ga1_7 Rh2_7 2.586939 1_555
Ga1_7 Rh2_6 2.586939 1_555
Ga1_7 Rh1_7 2.669376 1_555
Ga1_7 Rh0_7 2.669376 1_555
Ga1_7 Zr1_6 2.940632 1_555
Ga1_7 Zr1_7 2.940632 1_555
Ga1_7 Zr2_6 3.030642 1_555
Ga1_7 Zr0_6 3.030642 1_555
Ga1_7 Zr0_7 3.030642 1_555
Ga1_7 Zr2_7 3.030642 1_555
Ga2_0 Rh2_4 2.586939 1_555
Ga2_0 Rh2_5 2.586939 1_554
Ga2_0 Rh1_0 2.669369 1_555
Ga2_0 Rh0_2 2.669373 1_545
Ga2_0 Zr2_1 2.940631 1_554
Ga2_0 Zr2_0 2.940631 1_555
Ga2_0 Zr1_2 3.030642 1_545
Ga2_0 Zr1_3 3.030642 1_544
Ga2_0 Zr0_5 3.030642 1_554
Ga2_0 Zr0_4 3.030642 1_555
Ga2_1 Rh2_4 2.586939 1_555
Ga2_1 Rh2_5 2.586939 1_555
Ga2_1 Rh1_1 2.669369 1_555
Ga2_1 Rh0_3 2.669373 1_545
Ga2_1 Zr2_1 2.940631 1_555
Ga2_1 Zr2_0 2.940631 1_555
Ga2_1 Zr1_3 3.030642 1_545
Ga2_1 Zr1_2 3.030642 1_545
Ga2_1 Zr0_5 3.030642 1_555
Ga2_1 Zr0_4 3.030642 1_555
Ga2_2 Rh2_7 2.586939 1_554
Ga2_2 Rh2_6 2.586939 1_555
Ga2_2 Rh1_2 2.669369 1_555
Ga2_2 Rh0_0 2.669373 1_555
Ga2_2 Zr2_3 2.940631 1_554
Ga2_2 Zr2_2 2.940631 1_555
Ga2_2 Zr1_0 3.030642 1_555
Ga2_2 Zr1_1 3.030642 1_554
Ga2_2 Zr0_7 3.030642 1_554
Ga2_2 Zr0_6 3.030642 1_555
Ga2_3 Rh2_7 2.586939 1_555
Ga2_3 Rh2_6 2.586939 1_555
Ga2_3 Rh1_3 2.669369 1_555
Ga2_3 Rh0_1 2.669373 1_555
Ga2_3 Zr2_2 2.940631 1_555
Ga2_3 Zr2_3 2.940631 1_555
Ga2_3 Zr1_0 3.030642 1_555
Ga2_3 Zr1_1 3.030642 1_555
Ga2_3 Zr0_7 3.030642 1_555
Ga2_3 Zr0_6 3.030642 1_555
Ga2_4 Rh2_0 2.586939 1_655
Ga2_4 Rh2_1 2.586939 1_654
Ga2_4 Rh1_4 2.669369 1_555
Ga2_4 Rh0_6 2.669373 1_545
Ga2_4 Zr2_5 2.940631 1_554
Ga2_4 Zr2_4 2.940631 1_555
Ga2_4 Zr1_6 3.030642 1_545
Ga2_4 Zr1_7 3.030642 1_544
Ga2_4 Zr0_1 3.030642 1_654
Ga2_4 Zr0_0 3.030642 1_655
Ga2_5 Rh2_0 2.586939 1_655
Ga2_5 Rh2_1 2.586939 1_655
Ga2_5 Rh1_5 2.669369 1_555
Ga2_5 Rh0_7 2.669373 1_545
Ga2_5 Zr2_5 2.940631 1_555
Ga2_5 Zr2_4 2.940631 1_555
Ga2_5 Zr1_7 3.030642 1_545
Ga2_5 Zr1_6 3.030642 1_545
Ga2_5 Zr0_1 3.030642 1_655
Ga2_5 Zr0_0 3.030642 1_655
Ga2_6 Rh2_3 2.586939 1_654
Ga2_6 Rh2_2 2.586939 1_655
Ga2_6 Rh1_6 2.669369 1_555
Ga2_6 Rh0_4 2.669373 1_555
Ga2_6 Zr2_6 2.940631 1_555
Ga2_6 Zr2_7 2.940631 1_554
Ga2_6 Zr1_4 3.030642 1_555
Ga2_6 Zr1_5 3.030642 1_554
Ga2_6 Zr0_3 3.030642 1_654
Ga2_6 Zr0_2 3.030642 1_655
Ga2_7 Rh2_3 2.586939 1_655
Ga2_7 Rh2_2 2.586939 1_655
Ga2_7 Rh1_7 2.669369 1_555
Ga2_7 Rh0_5 2.669373 1_555
Ga2_7 Zr2_6 2.940631 1_555
Ga2_7 Zr2_7 2.940631 1_555
Ga2_7 Zr1_4 3.030642 1_555
Ga2_7 Zr1_5 3.030642 1_555
Ga2_7 Zr0_3 3.030642 1_655
Ga2_7 Zr0_2 3.030642 1_655
Rh0_0 Zr2_3 2.786019 1_554
Rh0_0 Zr2_2 2.786019 1_555
Rh0_0 Zr0_0 2.786021 1_555
Rh0_0 Zr0_1 2.786021 1_554
Rh0_0 Zr1_0 2.786025 1_555
Rh0_0 Zr1_1 2.786025 1_554
Rh0_1 Zr2_3 2.786019 1_555
Rh0_1 Zr2_2 2.786019 1_555
Rh0_1 Zr0_0 2.786021 1_555
Rh0_1 Zr0_1 2.786021 1_555
Rh0_1 Zr1_0 2.786025 1_555
Rh0_1 Zr1_1 2.786025 1_555
Rh0_2 Zr2_1 2.786019 1_564
Rh0_2 Zr2_0 2.786019 1_565
Rh0_2 Zr0_3 2.786021 1_554
Rh0_2 Zr0_2 2.786021 1_555
Rh0_2 Zr1_2 2.786025 1_555
Rh0_2 Zr1_3 2.786025 1_554
Rh0_3 Zr2_0 2.786019 1_565
Rh0_3 Zr2_1 2.786019 1_565
Rh0_3 Zr0_3 2.786021 1_555
Rh0_3 Zr0_2 2.786021 1_555
Rh0_3 Zr1_2 2.786025 1_555
Rh0_3 Zr1_3 2.786025 1_555
Rh0_4 Zr2_6 2.786019 1_555
Rh0_4 Zr2_7 2.786019 1_554
Rh0_4 Zr0_5 2.786021 1_554
Rh0_4 Zr0_4 2.786021 1_555
Rh0_4 Zr1_4 2.786025 1_555
Rh0_4 Zr1_5 2.786025 1_554
Rh0_5 Zr2_7 2.786019 1_555
Rh0_5 Zr2_6 2.786019 1_555
Rh0_5 Zr0_5 2.786021 1_555
Rh0_5 Zr0_4 2.786021 1_555
Rh0_5 Zr1_4 2.786025 1_555
Rh0_5 Zr1_5 2.786025 1_555
Rh0_6 Zr2_4 2.786019 1_565
Rh0_6 Zr2_5 2.786019 1_564
Rh0_6 Zr0_6 2.786021 1_555
Rh0_6 Zr0_7 2.786021 1_554
Rh0_6 Zr1_6 2.786025 1_555
Rh0_6 Zr1_7 2.786025 1_554
Rh0_7 Zr2_4 2.786019 1_565
Rh0_7 Zr2_5 2.786019 1_565
Rh0_7 Zr0_6 2.786021 1_555
Rh0_7 Zr0_7 2.786021 1_555
Rh0_7 Zr1_6 2.786025 1_555
Rh0_7 Zr1_7 2.786025 1_555
Rh1_0 Zr0_4 2.786019 1_555
Rh1_0 Zr0_5 2.786019 1_554
Rh1_0 Zr2_0 2.786021 1_555
Rh1_0 Zr2_1 2.786021 1_554
Rh1_0 Zr1_0 2.786025 1_555
Rh1_0 Zr1_1 2.786025 1_554
Rh1_1 Zr0_4 2.786019 1_555
Rh1_1 Zr0_5 2.786019 1_555
Rh1_1 Zr2_0 2.786021 1_555
Rh1_1 Zr2_1 2.786021 1_555
Rh1_1 Zr1_0 2.786025 1_555
Rh1_1 Zr1_1 2.786025 1_555
Rh1_2 Zr0_6 2.786019 1_555
Rh1_2 Zr0_7 2.786019 1_554
Rh1_2 Zr2_3 2.786021 1_554
Rh1_2 Zr2_2 2.786021 1_555
Rh1_2 Zr1_2 2.786025 1_555
Rh1_2 Zr1_3 2.786025 1_554
Rh1_3 Zr0_6 2.786019 1_555
Rh1_3 Zr0_7 2.786019 1_555
Rh1_3 Zr2_3 2.786021 1_555
Rh1_3 Zr2_2 2.786021 1_555
Rh1_3 Zr1_2 2.786025 1_555
Rh1_3 Zr1_3 2.786025 1_555
Rh1_4 Zr0_1 2.786019 1_654
Rh1_4 Zr0_0 2.786019 1_655
Rh1_4 Zr2_4 2.786021 1_555
Rh1_4 Zr2_5 2.786021 1_554
Rh1_4 Zr1_4 2.786025 1_555
Rh1_4 Zr1_5 2.786025 1_554
Rh1_5 Zr0_1 2.786019 1_655
Rh1_5 Zr0_0 2.786019 1_655
Rh1_5 Zr2_5 2.786021 1_555
Rh1_5 Zr2_4 2.786021 1_555
Rh1_5 Zr1_4 2.786025 1_555
Rh1_5 Zr1_5 2.786025 1_555
Rh1_6 Zr0_3 2.786019 1_654
Rh1_6 Zr0_2 2.786019 1_655
Rh1_6 Zr2_7 2.786021 1_554
Rh1_6 Zr2_6 2.786021 1_555
Rh1_6 Zr1_6 2.786025 1_555
Rh1_6 Zr1_7 2.786025 1_554
Rh1_7 Zr0_3 2.786019 1_655
Rh1_7 Zr0_2 2.786019 1_655
Rh1_7 Zr2_7 2.786021 1_555
Rh1_7 Zr2_6 2.786021 1_555
Rh1_7 Zr1_6 2.786025 1_555
Rh1_7 Zr1_7 2.786025 1_555
Rh2_0 Zr0_0 2.856888 1_555
Rh2_0 Zr2_0 2.856888 1_555
Rh2_0 Zr1_6 2.856888 1_445
Rh2_1 Zr0_1 2.856888 1_555
Rh2_1 Zr2_1 2.856888 1_555
Rh2_1 Zr1_7 2.856888 1_445
Rh2_2 Zr0_2 2.856888 1_555
Rh2_2 Zr2_2 2.856888 1_555
Rh2_2 Zr1_4 2.856888 1_455
Rh2_3 Zr0_3 2.856888 1_555
Rh2_3 Zr2_3 2.856888 1_555
Rh2_3 Zr1_5 2.856888 1_455
Rh2_4 Zr2_4 2.856888 1_555
Rh2_4 Zr0_4 2.856888 1_555
Rh2_4 Zr1_2 2.856888 1_545
Rh2_5 Zr2_5 2.856888 1_555
Rh2_5 Zr0_5 2.856888 1_555
Rh2_5 Zr1_3 2.856888 1_545
Rh2_6 Zr2_6 2.856888 1_555
Rh2_6 Zr0_6 2.856888 1_555
Rh2_6 Zr1_0 2.856888 1_555
Rh2_7 Zr0_7 2.856888 1_555
Rh2_7 Zr2_7 2.856888 1_555
Rh2_7 Zr1_1 2.856888 1_555
