# generated using pymatgen
data_MgV3CoSn2(PO4)6
_symmetry_space_group_name_H-M   'P 1'
_cell_length_a   9.19310477
_cell_length_b   8.48141847
_cell_length_c   8.45242549
_cell_angle_alpha   60.22667058
_cell_angle_beta   64.39349661
_cell_angle_gamma   62.82339873
_symmetry_Int_Tables_number   1
_chemical_formula_structural   MgV3CoSn2(PO4)6
_chemical_formula_sum   'Mg1 V3 Co1 Sn2 P6 O24'
_cell_volume   490.56088683
_cell_formula_units_Z   1
loop_
 _symmetry_equiv_pos_site_id
 _symmetry_equiv_pos_as_xyz
  1  'x, y, z'
loop_
 _atom_site_type_symbol
 _atom_site_label
 _atom_site_symmetry_multiplicity
 _atom_site_fract_x
 _atom_site_fract_y
 _atom_site_fract_z
 _atom_site_occupancy
  Mg  Mg0  1  0.20395000  0.25367300  0.92200200  1
  V  V0  1  0.05603400  0.65849000  0.64133100  1
  V  V1  1  0.45823800  0.84689200  0.84351800  1
  V  V2  1  0.95722900  0.35879400  0.34645100  1
  Co  Co0  1  0.51956700  0.15555500  0.16908100  1
  Sn  Sn0  1  0.92066900  0.01301200  0.02407900  1
  Sn  Sn1  1  0.55474600  0.48522000  0.46426700  1
  P  P0  1  0.25589300  0.25064100  0.54301300  1
  P  P1  1  0.25470000  0.95799300  0.25642000  1
  P  P2  1  0.23922100  0.54565700  0.96700200  1
  P  P3  1  0.76916200  0.45475300  0.02990900  1
  P  P4  1  0.74231400  0.04550800  0.74005800  1
  P  P5  1  0.74645900  0.74588900  0.46860300  1
  O  O0  1  0.10311900  0.14813300  0.23963700  1
  O  O1  1  0.07162600  0.54576100  0.12564400  1
  O  O2  1  0.08857800  0.29014100  0.50921200  1
  O  O3  1  0.28365300  0.05669500  0.70978800  1
  O  O4  1  0.40519800  0.27328400  0.36645000  1
  O  O5  1  0.22283000  0.39549200  0.63237000  1
  O  O6  1  0.30656900  0.96455100  0.05079500  1
  O  O7  1  0.19583800  0.77999900  0.40003000  1
  O  O8  1  0.63358000  0.64719300  0.98584300  1
  O  O9  1  0.19081100  0.62917400  0.77497100  1
  O  O10  1  0.72878100  0.29749000  0.02544500  1
  O  O11  1  0.58005100  0.04316000  0.73294300  1
  O  O12  1  0.40129400  0.95148300  0.30195500  1
  O  O13  1  0.32314600  0.66659100  0.95913200  1
  O  O14  1  0.77682400  0.39394200  0.23599200  1
  O  O15  1  0.35458800  0.33781600  0.98069500  1
  O  O16  1  0.76882300  0.24313900  0.59188300  1
  O  O17  1  0.71923300  0.03127700  0.94178500  1
  O  O18  1  0.76685600  0.59781500  0.39673500  1
  O  O19  1  0.58907800  0.75133900  0.63182600  1
  O  O20  1  0.73705500  0.94294700  0.30139300  1
  O  O21  1  0.91102600  0.67582500  0.52896600  1
  O  O22  1  0.95272500  0.45649400  0.89991200  1
  O  O23  1  0.90339300  0.88943900  0.69055600  1
loop_
_geom_bond_atom_site_label_1
_geom_bond_atom_site_label_2
_geom_bond_distance
_geom_bond_site_symmetry_2
Mg0 O6 2.052208 1_546
Mg0 O5 2.090232 1_555
Mg0 O15 2.126356 1_555
Mg0 O22 2.180044 1_455
Mg0 O0 2.255798 1_556
Co0 O4 2.016120 1_555
Co0 O12 2.042620 1_545
Co0 O15 2.174082 1_554
Co0 O20 2.266380 1_545
Co0 O10 2.295089 1_555
Co0 O17 2.316659 1_554
O0 P1 1.566370 1_545
O0 V2 2.042705 1_455
O1 P2 1.544673 1_554
O1 V2 1.997847 1_455
O2 P0 1.540723 1_555
O2 V2 1.920368 1_455
O3 P0 1.543591 1_555
O3 V1 1.995430 1_545
O4 P0 1.527616 1_555
O5 P0 1.598170 1_555
O5 V0 2.067742 1_555
O6 P1 1.569419 1_555
O6 V1 2.088837 1_554
O7 P1 1.550424 1_555
O7 V0 1.931414 1_555
O8 P3 1.515076 1_556
O8 V1 2.018142 1_555
O9 P2 1.590262 1_555
O9 V0 1.876794 1_555
O10 P3 1.559706 1_555
O10 Sn0 2.248465 1_555
O11 P4 1.528088 1_555
O11 V1 2.037538 1_545
O12 P1 1.525326 1_555
O13 P2 1.504155 1_555
O13 V1 2.009341 1_555
O14 P3 1.576647 1_555
O14 V2 2.078827 1_555
O14 Sn1 2.263862 1_555
O15 P2 1.562473 1_555
O16 P4 1.569076 1_555
O16 V2 2.165851 1_555
O16 Sn1 2.279603 1_555
O17 P4 1.572633 1_555
O17 Sn0 2.163658 1_556
O18 P5 1.557397 1_555
O18 V2 2.079687 1_555
O18 Sn1 2.288587 1_555
O19 P5 1.508538 1_555
O19 V1 1.998645 1_555
O20 P5 1.557566 1_555
O20 Sn0 2.193078 1_565
O21 P5 1.564328 1_555
O21 V0 1.864781 1_655
O22 P3 1.568172 1_556
O22 V0 2.141816 1_655
O23 P4 1.531011 1_565
O23 V0 1.942407 1_655
