# generated using pymatgen
data_Ba2Y2Mn4O11
_symmetry_space_group_name_H-M   'P 1'
_cell_length_a   3.85022600
_cell_length_b   8.18521601
_cell_length_c   8.77385433
_cell_angle_alpha   117.80900383
_cell_angle_beta   89.99986816
_cell_angle_gamma   90.00005776
_symmetry_Int_Tables_number   1
_chemical_formula_structural   Ba2Y2Mn4O11
_chemical_formula_sum   'Ba2 Y2 Mn4 O11'
_cell_volume   244.57293307
_cell_formula_units_Z   1
loop_
 _symmetry_equiv_pos_site_id
 _symmetry_equiv_pos_as_xyz
  1  'x, y, z'
loop_
 _atom_site_type_symbol
 _atom_site_label
 _atom_site_symmetry_multiplicity
 _atom_site_fract_x
 _atom_site_fract_y
 _atom_site_fract_z
 _atom_site_occupancy
  Ba  Ba0  1  0.49999000  0.50001900  0.49997300  1
  Ba  Ba1  1  0.49999000  0.99996900  0.49997700  1
  Y  Y0  1  0.49999100  0.22552700  0.99998200  1
  Y  Y1  1  0.49998900  0.77446200  0.99996700  1
  Mn  Mn0  1  0.99993800  0.38626400  0.77247600  1
  Mn  Mn1  1  0.00011700  0.61381300  0.22779000  1
  Mn  Mn2  1  0.00003400  0.12422600  0.24847400  1
  Mn  Mn3  1  0.00005000  0.87575300  0.75158900  1
  O  O0  1  0.49999700  0.41215200  0.82427300  1
  O  O1  1  0.49997700  0.58782700  0.17565500  1
  O  O2  1  0.50001900  0.11215200  0.22426500  1
  O  O3  1  0.49997800  0.88784100  0.77569700  1
  O  O4  1  0.99999500  0.24851400  0.49704300  1
  O  O5  1  0.99998700  0.75149400  0.50294900  1
  O  O6  1  0.99998700  0.36589200  0.19858600  1
  O  O7  1  0.99999100  0.63409300  0.80135300  1
  O  O8  1  0.99998700  0.83272900  0.19857800  1
  O  O9  1  0.99999200  0.16726000  0.80135900  1
  O  O10  1  0.99998900  0.00001300  0.00001500  1
loop_
_geom_bond_atom_site_label_1
_geom_bond_atom_site_label_2
_geom_bond_distance
_geom_bond_site_symmetry_2
Ba0 O5 2.809530 1_555
Ba0 O5 2.809548 1_455
Ba0 O4 2.809838 1_455
Ba0 O4 2.809867 1_555
Ba0 O3 2.960393 1_555
Ba0 O2 2.960603 1_555
Ba0 O7 3.032309 1_455
Ba0 O7 3.032320 1_555
Ba0 O6 3.032328 1_555
Ba0 O6 3.032349 1_455
Ba0 O1 3.243729 1_555
Ba0 O0 3.243879 1_555
Ba1 O5 2.809380 1_555
Ba1 O5 2.809393 1_455
Ba1 O4 2.809676 1_465
Ba1 O4 2.809700 1_565
Ba1 O3 2.960765 1_555
Ba1 O2 2.961009 1_565
Ba1 O9 3.032296 1_465
Ba1 O9 3.032312 1_565
Ba1 O8 3.032373 1_555
Ba1 O8 3.032394 1_455
Ba1 O1 3.243572 1_555
Ba1 O0 3.243694 1_565
Mn0 O7 1.923433 1_555
Mn0 O9 1.923922 1_555
Mn0 O0 1.966409 1_555
Mn0 O0 1.966855 1_655
Mn0 O4 2.137509 1_555
Mn1 O6 1.923150 1_455
Mn1 O8 1.924843 1_455
Mn1 O1 1.966642 1_555
Mn1 O1 1.967698 1_455
Mn1 O5 2.135383 1_455
Mn2 O10 1.928176 1_455
Mn2 O4 1.929030 1_455
Mn2 O2 1.934201 1_555
Mn2 O2 1.934317 1_455
Mn2 O8 2.215826 1_445
Mn2 O6 2.216368 1_455
Mn3 O10 1.927920 1_466
Mn3 O5 1.929581 1_455
Mn3 O3 1.933907 1_555
Mn3 O3 1.934458 1_455
Mn3 O7 2.215652 1_455
Mn3 O9 2.216244 1_465
O0 Y1 2.627837 1_555
O0 Y0 2.628199 1_555
O1 Y0 2.627756 1_554
O1 Y1 2.628111 1_554
O2 Y0 2.537204 1_554
O2 Y1 2.537228 1_544
O3 Y1 2.537120 1_555
O3 Y0 2.537173 1_565
O6 Y0 2.488860 1_554
O6 Y0 2.488880 1_654
O7 Y1 2.488913 1_655
O7 Y1 2.488921 1_555
O8 Y1 2.488907 1_554
O8 Y1 2.488913 1_654
O9 Y0 2.488974 1_655
O9 Y0 2.488974 1_555
O10 Y1 2.667156 1_544
O10 Y1 2.667159 1_644
O10 Y0 2.667173 1_554
O10 Y0 2.667182 1_654
