# generated using pymatgen
data_Ba2CaTi2CuF14
_symmetry_space_group_name_H-M   'P 1'
_cell_length_a   5.57239068
_cell_length_b   7.70683804
_cell_length_c   15.25835814
_cell_angle_alpha   93.16626964
_cell_angle_beta   90.06122160
_cell_angle_gamma   111.25474358
_symmetry_Int_Tables_number   1
_chemical_formula_structural   Ba2CaTi2CuF14
_chemical_formula_sum   'Ba4 Ca2 Ti4 Cu2 F28'
_cell_volume   609.61567875
_cell_formula_units_Z   2
loop_
 _symmetry_equiv_pos_site_id
 _symmetry_equiv_pos_as_xyz
  1  'x, y, z'
loop_
 _atom_site_type_symbol
 _atom_site_label
 _atom_site_symmetry_multiplicity
 _atom_site_fract_x
 _atom_site_fract_y
 _atom_site_fract_z
 _atom_site_occupancy
  Ba  Ba0  1  0.09372400  0.35768000  0.62304100  1
  Ba  Ba1  1  0.26312000  0.35904600  0.12275000  1
  Ba  Ba2  1  0.90319200  0.64147600  0.37692700  1
  Ba  Ba3  1  0.73716900  0.64203200  0.87745400  1
  Ca  Ca0  1  0.42755800  0.99915200  0.74982100  1
  Ca  Ca1  1  0.57169200  0.00089300  0.24983100  1
  Ti  Ti0  1  0.10082600  0.24873100  0.87623800  1
  Ti  Ti1  1  0.90012700  0.75123500  0.12363200  1
  Ti  Ti2  1  0.14661100  0.24884200  0.37644800  1
  Ti  Ti3  1  0.85105300  0.75035800  0.62389000  1
  Cu  Cu0  1  0.50155800  0.00063000  0.00022400  1
  Cu  Cu1  1  0.49680400  0.99680900  0.50009600  1
  F  F0  1  0.91440400  0.99420600  0.34397700  1
  F  F1  1  0.89261900  0.30251400  0.45088500  1
  F  F2  1  0.10616000  0.69809300  0.54933400  1
  F  F3  1  0.63968400  0.49103400  0.60444800  1
  F  F4  1  0.61941300  0.09892700  0.61887600  1
  F  F5  1  0.52150700  0.89996800  0.88084900  1
  F  F6  1  0.40970700  0.30403700  0.95076200  1
  F  F7  1  0.92133100  0.00525600  0.15677900  1
  F  F8  1  0.35137000  0.31937500  0.77931400  1
  F  F9  1  0.35970200  0.50738200  0.39598200  1
  F  F10  1  0.82977800  0.23413600  0.79115200  1
  F  F11  1  0.14350400  0.50666000  0.89684200  1
  F  F12  1  0.40348200  0.23549000  0.29163700  1
  F  F13  1  0.17313500  0.76473700  0.20769700  1
  F  F14  1  0.48033600  0.10211200  0.11916400  1
  F  F15  1  0.65023500  0.68037600  0.22085800  1
  F  F16  1  0.08489900  0.81628200  0.01962200  1
  F  F17  1  0.08288700  0.00571600  0.65612000  1
  F  F18  1  0.91714800  0.18335300  0.98048500  1
  F  F19  1  0.72837500  0.81217300  0.51953200  1
  F  F20  1  0.59126900  0.69865100  0.04937300  1
  F  F21  1  0.59271000  0.76368900  0.70812600  1
  F  F22  1  0.96317500  0.31671400  0.27929000  1
  F  F23  1  0.26765000  0.18466700  0.48038000  1
  F  F24  1  0.37782200  0.89872000  0.38054900  1
  F  F25  1  0.08042100  0.99445400  0.84364600  1
  F  F26  1  0.03399500  0.68284200  0.72110700  1
  F  F27  1  0.85428000  0.49282300  0.10301000  1
loop_
_geom_bond_atom_site_label_1
_geom_bond_atom_site_label_2
_geom_bond_distance
_geom_bond_site_symmetry_2
Ba0 F4 2.670333 1_455
Ba0 F17 2.765639 1_555
Ba0 F1 2.803864 1_455
Ba0 F23 2.841900 1_555
Ba0 F3 2.856474 1_555
Ba0 F8 2.865629 1_555
Ba0 F2 2.889069 1_555
Ba0 F26 2.970055 1_555
Ba0 F10 2.985312 1_455
Ba0 F3 3.074740 1_455
Ba1 F14 2.667397 1_555
Ba1 F7 2.779349 1_455
Ba1 F6 2.804715 1_554
Ba1 F18 2.834779 1_454
Ba1 F27 2.842492 1_455
Ba1 F22 2.881744 1_455
Ba1 F20 2.881933 1_555
Ba1 F15 2.955909 1_555
Ba1 F12 2.994305 1_555
Ba1 F27 3.095041 1_555
Ba2 F24 2.667305 1_655
Ba2 F0 2.770281 1_555
Ba2 F2 2.810504 1_655
Ba2 F19 2.834022 1_555
Ba2 F9 2.844370 1_555
Ba2 F15 2.850565 1_555
Ba2 F1 2.883640 1_555
Ba2 F22 2.965017 1_555
Ba2 F13 3.012634 1_655
Ba2 F9 3.092148 1_655
Ba3 F5 2.668207 1_555
Ba3 F25 2.773430 1_655
Ba3 F20 2.804978 1_556
Ba3 F16 2.836596 1_656
Ba3 F11 2.836938 1_655
Ba3 F26 2.870533 1_655
Ba3 F6 2.871625 1_555
Ba3 F8 2.958624 1_555
Ba3 F21 3.002128 1_555
Ba3 F11 3.107020 1_555
Ca0 F4 2.303154 1_565
Ca0 F5 2.304818 1_555
Ca0 F10 2.372516 1_565
Ca0 F21 2.372608 1_555
Ca0 F25 2.398653 1_555
Ca0 F17 2.410000 1_565
Ca0 F26 2.635909 1_555
Ca0 F8 2.666588 1_565
Ca1 F14 2.302245 1_555
Ca1 F24 2.307958 1_545
Ca1 F13 2.365435 1_545
Ca1 F12 2.378433 1_555
Ca1 F7 2.403472 1_555
Ca1 F0 2.405608 1_545
Ca1 F22 2.629177 1_555
Ca1 F15 2.674393 1_545
Cu0 F14 1.957038 1_555
Cu0 F5 1.959286 1_544
Cu0 F18 2.262904 1_554
Cu0 F16 2.270043 1_545
Cu1 F24 1.954498 1_555
Cu1 F4 1.954703 1_565
Cu1 F19 2.270463 1_555
Cu1 F23 2.281413 1_565
F0 Ti2 1.954763 1_665
F1 Ti2 1.959670 1_655
F2 Ti3 1.960917 1_455
F3 Ti3 1.922659 1_555
F6 Ti0 1.961535 1_555
F7 Ti1 1.955794 1_545
F8 Ti0 1.993739 1_555
F9 Ti2 1.920211 1_555
F10 Ti0 1.958553 1_655
F11 Ti0 1.922203 1_555
F12 Ti2 1.957071 1_555
F13 Ti1 1.958780 1_455
F15 Ti1 1.995153 1_555
F16 Ti1 1.883406 1_455
F17 Ti3 1.957605 1_445
F18 Ti0 1.884069 1_655
F19 Ti3 1.883452 1_555
F20 Ti1 1.962041 1_555
F21 Ti3 1.957441 1_555
F22 Ti2 1.996562 1_655
F23 Ti2 1.881652 1_555
F25 Ti0 1.957350 1_565
F26 Ti3 1.994238 1_455
F27 Ti1 1.921515 1_555
