# generated using pymatgen
data_Sn2Pt
_symmetry_space_group_name_H-M   'P 1'
_cell_length_a   4.58643080
_cell_length_b   4.58643131
_cell_length_c   4.58643039
_cell_angle_alpha   59.99999934
_cell_angle_beta   59.99999566
_cell_angle_gamma   59.99998805
_symmetry_Int_Tables_number   1
_chemical_formula_structural   Sn2Pt
_chemical_formula_sum   'Sn2 Pt1'
_cell_volume   68.21965072
_cell_formula_units_Z   1
loop_
 _symmetry_equiv_pos_site_id
 _symmetry_equiv_pos_as_xyz
  1  'x, y, z'
loop_
 _atom_site_type_symbol
 _atom_site_label
 _atom_site_symmetry_multiplicity
 _atom_site_fract_x
 _atom_site_fract_y
 _atom_site_fract_z
 _atom_site_occupancy
  Sn  Sn0  1  0.75000000  0.75000000  0.75000000  1
  Sn  Sn1  1  0.25000000  0.25000000  0.25000000  1
  Pt  Pt0  1  0.00000000  0.00000000  -0.00000000  1
loop_
_geom_bond_atom_site_label_1
_geom_bond_atom_site_label_2
_geom_bond_distance
_geom_bond_site_symmetry_2
Pt0 Sn1 2.808603 1_455
Pt0 Sn0 2.808603 1_544
Pt0 Sn1 2.808604 1_554
Pt0 Sn0 2.808604 1_445
Pt0 Sn1 2.808604 1_545
Pt0 Sn0 2.808604 1_454
Pt0 Sn0 2.808604 1_444
Pt0 Sn1 2.808604 1_555
