# generated using pymatgen
data_Pr2In3Cu
_symmetry_space_group_name_H-M   'P 1'
_cell_length_a   3.85523300
_cell_length_b   4.83933378
_cell_length_c   8.42356317
_cell_angle_alpha   89.99968063
_cell_angle_beta   90.00000000
_cell_angle_gamma   90.00000000
_symmetry_Int_Tables_number   1
_chemical_formula_structural   Pr2In3Cu
_chemical_formula_sum   'Pr2 In3 Cu1'
_cell_volume   157.15639037
_cell_formula_units_Z   1
loop_
 _symmetry_equiv_pos_site_id
 _symmetry_equiv_pos_as_xyz
  1  'x, y, z'
loop_
 _atom_site_type_symbol
 _atom_site_label
 _atom_site_symmetry_multiplicity
 _atom_site_fract_x
 _atom_site_fract_y
 _atom_site_fract_z
 _atom_site_occupancy
  Pr  Pr0  1  0.00000000  0.99998600  0.00659100  1
  Pr  Pr1  1  0.00000000  0.49998200  0.49551200  1
  In  In0  1  0.50000000  0.49998800  0.83688000  1
  In  In1  1  0.50000000  0.49997800  0.18239300  1
  In  In2  1  0.50000000  0.99989500  0.64812700  1
  Cu  Cu0  1  0.50000000  0.99997100  0.33049800  1
loop_
_geom_bond_atom_site_label_1
_geom_bond_atom_site_label_2
_geom_bond_distance
_geom_bond_site_symmetry_2
In0 In2 2.894923 1_555
In0 In2 2.895690 1_545
In0 In1 2.910451 1_556
In0 Pr0 3.407955 1_656
In0 Pr0 3.407955 1_556
In0 Pr0 3.407958 1_546
In0 Pr0 3.407958 1_646
In0 Pr1 3.461850 1_655
In0 Pr1 3.461850 1_555
In1 Pr1 3.266883 1_655
In1 Pr1 3.266883 1_555
In1 Pr0 3.429774 1_645
In1 Pr0 3.429774 1_545
In1 Pr0 3.429817 1_555
In1 Pr0 3.429817 1_655
In2 Pr1 3.349800 1_655
In2 Pr1 3.349800 1_555
In2 Pr1 3.350398 1_565
In2 Pr1 3.350398 1_665
In2 Pr0 3.582367 1_656
In2 Pr0 3.582367 1_556
Cu0 In2 2.675568 1_555
Cu0 In1 2.722332 1_555
Cu0 In1 2.722380 1_565
Cu0 Pr0 3.340681 1_555
Cu0 Pr0 3.340681 1_655
Cu0 Pr1 3.391506 1_655
Cu0 Pr1 3.391506 1_555
Cu0 Pr1 3.391593 1_665
Cu0 Pr1 3.391593 1_565
