# generated using pymatgen
data_V2(OF)3
_symmetry_space_group_name_H-M   'P 1'
_cell_length_a   5.10362814
_cell_length_b   12.96830751
_cell_length_c   5.07080335
_cell_angle_alpha   89.18033585
_cell_angle_beta   119.66884135
_cell_angle_gamma   90.58034368
_symmetry_Int_Tables_number   1
_chemical_formula_structural   V2(OF)3
_chemical_formula_sum   'V6 O9 F9'
_cell_volume   291.58299179
_cell_formula_units_Z   3
loop_
 _symmetry_equiv_pos_site_id
 _symmetry_equiv_pos_as_xyz
  1  'x, y, z'
loop_
 _atom_site_type_symbol
 _atom_site_label
 _atom_site_symmetry_multiplicity
 _atom_site_fract_x
 _atom_site_fract_y
 _atom_site_fract_z
 _atom_site_occupancy
  V  V0  1  0.99536782  0.49410053  0.01842932  1
  V  V1  1  0.02195667  0.00509283  0.99441774  1
  V  V2  1  0.61713232  0.83212373  0.33344204  1
  V  V3  1  0.30734878  0.66988966  0.69204018  1
  V  V4  1  0.68541834  0.34099372  0.37008265  1
  V  V5  1  0.37258351  0.16537516  0.65697914  1
  O  O0  1  0.41282446  0.75356266  0.97692509  1
  O  O1  1  0.32793279  0.91174650  0.24834197  1
  O  O2  1  0.09079408  0.58773248  0.75092121  1
  O  O3  1  0.41531401  0.24933979  0.42715805  1
  O  O4  1  0.58564511  0.74634509  0.55918109  1
  O  O5  1  0.91678301  0.41474968  0.23580283  1
  O  O6  1  0.23324093  0.08291981  0.92002730  1
  O  O7  1  0.76017234  0.41805285  0.65800687  1
  O  O8  1  0.65431549  0.08307125  0.75336067  1
  F  F0  1  0.00338848  0.74996824  0.39431038  1
  F  F1  1  0.34074170  0.41773446  0.06649830  1
  F  F2  1  0.06998607  0.08252804  0.34489919  1
  F  F3  1  0.26520812  0.58458356  0.33909427  1
  F  F4  1  0.57999013  0.24717367  0.00445924  1
  F  F5  1  -0.00080008  0.24436229  0.59282139  1
  F  F6  1  0.75442895  0.91610263  0.08409951  1
  F  F7  1  0.92358664  0.91376582  0.65644553  1
  F  F8  1  0.66664434  0.58868656  0.92225405  1
loop_
_geom_bond_atom_site_label_1
_geom_bond_atom_site_label_2
_geom_bond_distance
_geom_bond_site_symmetry_2
O0 V3 1.678464 1_555
O0 V2 1.886395 1_556
O1 V2 1.678837 1_555
O1 V1 1.888134 1_564
O2 V3 1.655153 1_555
O2 V0 2.036304 1_456
O3 V5 1.673859 1_555
O3 V4 1.936169 1_555
O4 V2 1.647910 1_555
O4 V3 2.086599 1_555
O5 V0 1.682736 1_555
O5 V4 1.878093 1_555
O6 V1 1.641176 1_555
O6 V5 2.076345 1_555
O7 V4 1.660849 1_555
O7 V0 1.899862 1_556
O8 V5 1.663127 1_555
O8 V1 1.941610 1_655
F0 V3 1.852966 1_555
F0 V2 2.132423 1_455
F1 V0 1.936562 1_455
F1 V4 1.940478 1_555
F2 V5 1.907674 1_555
F2 V1 1.960060 1_554
F3 V0 1.929364 1_455
F3 V3 2.035674 1_555
F4 V5 1.880083 1_554
F4 V4 2.066610 1_555
F5 V4 1.902674 1_455
F5 V5 2.050052 1_555
F6 V1 1.992638 1_664
F6 V2 2.024326 1_555
F7 V2 1.931292 1_555
F7 V1 1.945786 1_665
F8 V3 1.928468 1_555
F8 V0 1.942073 1_556
