# generated using pymatgen
data_Lu2PdO4
_symmetry_space_group_name_H-M   'P 1'
_cell_length_a   6.45042455
_cell_length_b   6.45042455
_cell_length_c   5.53087100
_cell_angle_alpha   90.00000000
_cell_angle_beta   90.00000000
_cell_angle_gamma   129.19022024
_symmetry_Int_Tables_number   1
_chemical_formula_structural   Lu2PdO4
_chemical_formula_sum   'Lu4 Pd2 O8'
_cell_volume   178.36152256
_cell_formula_units_Z   2
loop_
 _symmetry_equiv_pos_site_id
 _symmetry_equiv_pos_as_xyz
  1  'x, y, z'
loop_
 _atom_site_type_symbol
 _atom_site_label
 _atom_site_symmetry_multiplicity
 _atom_site_fract_x
 _atom_site_fract_y
 _atom_site_fract_z
 _atom_site_occupancy
  Lu  Lu0  1  0.66156700  0.33843300  0.00000000  1
  Lu  Lu1  1  0.83843300  0.16156700  0.50000000  1
  Lu  Lu2  1  0.33843300  0.66156700  0.00000000  1
  Lu  Lu3  1  0.16156700  0.83843300  0.50000000  1
  Pd  Pd0  1  0.00000000  0.00000000  0.00000000  1
  Pd  Pd1  1  0.50000000  0.50000000  0.50000000  1
  O  O0  1  0.49061000  0.99061000  0.25000000  1
  O  O1  1  0.00939000  0.50939000  0.75000000  1
  O  O2  1  0.50939000  0.00939000  0.75000000  1
  O  O3  1  0.99061000  0.49061000  0.25000000  1
  O  O4  1  0.83155700  0.83155700  0.33154300  1
  O  O5  1  0.33155700  0.33155700  0.16845700  1
  O  O6  1  0.66844300  0.66844300  0.83154300  1
  O  O7  1  0.16844300  0.16844300  0.66845700  1
loop_
_geom_bond_atom_site_label_1
_geom_bond_atom_site_label_2
_geom_bond_distance
_geom_bond_site_symmetry_2
Lu0 O2 2.178831 1_554
Lu0 O3 2.178831 1_555
Lu0 O0 2.243867 1_545
Lu0 O1 2.243867 1_654
Lu0 O5 2.298286 1_555
Lu0 O6 2.298286 1_554
Lu1 O2 2.178831 1_555
Lu1 O3 2.178831 1_555
Lu1 O1 2.243867 1_655
Lu1 O0 2.243867 1_545
Lu1 O7 2.298286 1_655
Lu1 O4 2.298286 1_545
Lu2 O1 2.178831 1_554
Lu2 O0 2.178831 1_555
Lu2 O3 2.243867 1_455
Lu2 O2 2.243867 1_564
Lu2 O5 2.298286 1_555
Lu2 O6 2.298286 1_554
Lu3 O0 2.178831 1_555
Lu3 O1 2.178831 1_555
Lu3 O3 2.243867 1_455
Lu3 O2 2.243867 1_565
Lu3 O7 2.298286 1_565
Lu3 O4 2.298286 1_455
O4 Pd0 2.057100 1_665
O4 Pd1 2.058026 1_555
O5 Pd1 2.057100 1_555
O5 Pd0 2.058026 1_555
O6 Pd1 2.057100 1_555
O6 Pd0 2.058026 1_666
O7 Pd0 2.057100 1_556
O7 Pd1 2.058026 1_555
