# generated using pymatgen
data_Mg2Si3
_symmetry_space_group_name_H-M   'P 1'
_cell_length_a   3.73260900
_cell_length_b   5.09196313
_cell_length_c   19.95019562
_cell_angle_alpha   89.63776628
_cell_angle_beta   95.02385619
_cell_angle_gamma   109.64100966
_symmetry_Int_Tables_number   1
_chemical_formula_structural   Mg2Si3
_chemical_formula_sum   'Mg8 Si12'
_cell_volume   355.63789245
_cell_formula_units_Z   4
loop_
 _symmetry_equiv_pos_site_id
 _symmetry_equiv_pos_as_xyz
  1  'x, y, z'
loop_
 _atom_site_type_symbol
 _atom_site_label
 _atom_site_symmetry_multiplicity
 _atom_site_fract_x
 _atom_site_fract_y
 _atom_site_fract_z
 _atom_site_occupancy
  Mg  Mg0  1  0.36079700  0.41947800  0.31231700  1
  Mg  Mg1  1  0.63920300  0.58052200  0.68768300  1
  Mg  Mg2  1  0.83043400  0.20843600  0.44228900  1
  Mg  Mg3  1  0.16956600  0.79156400  0.55771100  1
  Mg  Mg4  1  0.99714700  0.22570400  0.78357200  1
  Mg  Mg5  1  0.00285300  0.77429600  0.21642800  1
  Mg  Mg6  1  0.99632400  0.06861300  0.92656900  1
  Mg  Mg7  1  0.00367600  0.93138700  0.07343100  1
  Si  Si0  1  0.54190900  0.63895500  0.44974300  1
  Si  Si1  1  0.45809100  0.36104500  0.55025700  1
  Si  Si2  1  0.08920700  0.81094200  0.37542900  1
  Si  Si3  1  0.91079300  0.18905800  0.62457100  1
  Si  Si4  1  0.29315500  0.79280400  0.81522800  1
  Si  Si5  1  0.70684500  0.20719600  0.18477200  1
  Si  Si6  1  0.29187400  0.62576400  0.96782300  1
  Si  Si7  1  0.70812600  0.37423600  0.03217700  1
  Si  Si8  1  0.69842200  0.53111800  0.87410000  1
  Si  Si9  1  0.30157800  0.46888200  0.12590000  1
  Si  Si10  1  0.65318200  0.00961000  0.30022700  1
  Si  Si11  1  0.34681800  0.99039000  0.69977300  1
loop_
_geom_bond_atom_site_label_1
_geom_bond_atom_site_label_2
_geom_bond_distance
_geom_bond_site_symmetry_2
Mg0 Si10 2.681157 1_555
Mg0 Si10 2.753029 1_455
Mg0 Si10 2.848011 1_565
Mg0 Si2 2.863569 1_555
Mg0 Si0 2.903273 1_555
Mg0 Si2 2.956307 1_655
Mg0 Si2 3.205793 1_545
Mg1 Si11 2.681157 1_555
Mg1 Si11 2.753029 1_655
Mg1 Si11 2.848011 1_545
Mg1 Si3 2.863569 1_555
Mg1 Si1 2.903273 1_555
Mg1 Si3 2.956307 1_455
Mg1 Si3 3.205793 1_565
Mg2 Si0 2.741140 1_545
Mg2 Si0 2.758060 1_555
Mg2 Si0 2.810983 1_655
Mg2 Si2 2.895321 1_645
Mg2 Si1 2.906298 1_555
Mg2 Si1 2.940353 1_655
Mg2 Si10 2.958510 1_555
Mg2 Si2 3.025529 1_545
Mg2 Si2 3.210331 1_655
Mg3 Si1 2.741140 1_565
Mg3 Si1 2.758060 1_555
Mg3 Si1 2.810983 1_455
Mg3 Si3 2.895321 1_465
Mg3 Si0 2.906298 1_555
Mg3 Si0 2.940353 1_455
Mg3 Si11 2.958510 1_555
Mg3 Si3 3.025529 1_565
Mg3 Si3 3.210331 1_455
Mg4 Si11 2.719001 1_645
Mg4 Si11 2.735383 1_545
Mg4 Si4 2.777439 1_655
Mg4 Si4 2.824191 1_645
Mg4 Si8 2.911620 1_555
Mg4 Si4 2.922658 1_545
Mg4 Mg6 2.957947 1_555
Mg4 Si8 3.000508 1_655
Mg4 Si3 3.160525 1_555
Mg5 Si10 2.719001 1_465
Mg5 Si10 2.735383 1_565
Mg5 Si5 2.777439 1_455
Mg5 Si5 2.824191 1_465
Mg5 Si9 2.911620 1_555
Mg5 Si5 2.922658 1_565
Mg5 Mg7 2.957947 1_555
Mg5 Si9 3.000508 1_455
Mg5 Si2 3.160525 1_555
Mg6 Si8 2.758497 1_545
Mg6 Si6 2.776590 1_655
Mg6 Si6 2.910168 1_645
Mg6 Si6 3.007619 1_545
Mg6 Mg7 3.007722 1_646
Mg6 Si8 3.066572 1_555
Mg6 Si7 3.095457 1_556
Mg6 Si4 3.106526 1_645
Mg6 Si8 3.132115 1_655
Mg6 Si7 3.193957 1_656
Mg6 Si4 3.214906 1_545
Mg7 Si9 2.758497 1_565
Mg7 Si7 2.776590 1_455
Mg7 Si7 2.910168 1_465
Mg7 Si7 3.007619 1_565
Mg7 Si9 3.066572 1_555
Mg7 Si6 3.095457 1_554
Mg7 Si5 3.106526 1_465
Mg7 Si9 3.132115 1_455
Mg7 Si6 3.193957 1_454
Mg7 Si5 3.214906 1_565
Si0 Si1 2.428560 1_555
Si0 Si2 2.521883 1_555
Si0 Si2 2.539600 1_655
Si1 Si3 2.521883 1_555
Si1 Si3 2.539600 1_455
Si4 Si8 2.543101 1_555
Si4 Si8 2.555645 1_455
Si5 Si9 2.543101 1_555
Si5 Si9 2.555645 1_655
Si6 Si7 2.574771 1_456
Si6 Si7 2.582692 1_556
Si6 Si8 2.651625 1_555
Si6 Si8 2.683932 1_455
Si7 Si9 2.651625 1_555
Si7 Si9 2.683932 1_655
Si10 Si5 2.504757 1_555
Si10 Si2 2.565734 1_645
Si10 Si2 2.609223 1_545
Si11 Si4 2.504757 1_555
Si11 Si3 2.565734 1_465
Si11 Si3 2.609223 1_565
