# generated using pymatgen
data_DyAl7Fe5
_symmetry_space_group_name_H-M   'P 1'
_cell_length_a   6.62847926
_cell_length_b   6.62202396
_cell_length_c   6.62009621
_cell_angle_alpha   135.84049304
_cell_angle_beta   98.05949188
_cell_angle_gamma   98.19076975
_symmetry_Int_Tables_number   1
_chemical_formula_structural   DyAl7Fe5
_chemical_formula_sum   'Dy1 Al7 Fe5'
_cell_volume   187.58184710
_cell_formula_units_Z   1
loop_
 _symmetry_equiv_pos_site_id
 _symmetry_equiv_pos_as_xyz
  1  'x, y, z'
loop_
 _atom_site_type_symbol
 _atom_site_label
 _atom_site_symmetry_multiplicity
 _atom_site_fract_x
 _atom_site_fract_y
 _atom_site_fract_z
 _atom_site_occupancy
  Dy  Dy0  1  0.00460775  0.00007161  0.00464525  1
  Al  Al0  1  0.65908918  -0.00025981  0.65889140  1
  Al  Al1  1  0.33984854  0.00012499  0.33989423  1
  Al  Al2  1  0.33720326  0.34397235  0.99346613  1
  Al  Al3  1  0.64947804  0.65615272  0.99336293  1
  Al  Al4  1  0.77292317  0.50004014  0.27292628  1
  Al  Al5  1  0.79238291  0.28905629  0.50337485  1
  Al  Al6  1  0.21424951  0.71085992  0.50333557  1
  Fe  Fe0  1  0.49837271  0.49969286  0.49846956  1
  Fe  Fe1  1  0.49834815  -0.00012467  -0.00132756  1
  Fe  Fe2  1  0.99881704  0.00013642  0.49844802  1
  Fe  Fe3  1  0.99880034  0.50024981  -0.00136232  1
  Fe  Fe4  1  0.23588041  0.50002839  0.73587567  1
loop_
_geom_bond_atom_site_label_1
_geom_bond_atom_site_label_2
_geom_bond_distance
_geom_bond_site_symmetry_2
Dy0 Fe4 3.197245 1_555
Dy0 Fe4 3.199738 1_544
Dy0 Fe2 3.274317 1_455
Dy0 Fe3 3.276042 1_445
Dy0 Fe0 3.277345 1_555
Dy0 Fe1 3.278699 1_555
Dy0 Fe2 3.346218 1_454
Dy0 Fe3 3.346429 1_455
Dy0 Fe0 3.348987 1_444
Dy0 Fe1 3.350220 1_455
Al0 Fe0 2.619068 1_545
Al0 Fe1 2.619992 1_556
Al0 Fe3 2.621406 1_556
Al0 Fe2 2.621473 1_555
Al0 Al4 2.677396 1_545
Al0 Al4 2.678442 1_556
Al0 Al1 2.773749 1_555
Al0 Al5 2.848491 1_555
Al0 Al6 2.851150 1_545
Al0 Dy0 3.000984 1_656
Al1 Fe1 2.620518 1_555
Al1 Fe0 2.620570 1_555
Al1 Fe2 2.622395 1_455
Al1 Fe3 2.622496 1_445
Al1 Fe4 2.647321 1_544
Al1 Fe4 2.647807 1_555
Al1 Al6 2.881838 1_545
Al1 Al5 2.883240 1_555
Al1 Dy0 2.911926 1_555
Al2 Fe2 2.594664 1_455
Al2 Fe3 2.595332 1_456
Al2 Fe4 2.613819 1_555
Al2 Fe0 2.668270 1_556
Al2 Fe1 2.670224 1_556
Al2 Al3 2.709476 1_555
Al2 Al6 2.743966 1_556
Al2 Al6 2.745169 1_545
Al2 Al4 2.782111 1_556
Al2 Dy0 2.984784 1_556
Al3 Fe0 2.593109 1_555
Al3 Fe1 2.594293 1_566
Al3 Fe4 2.616083 1_555
Al3 Fe2 2.669978 1_566
Al3 Fe3 2.671830 1_556
Al3 Al5 2.744254 1_566
Al3 Al5 2.744527 1_555
Al3 Al4 2.779391 1_556
Al3 Dy0 2.985390 1_666
Al4 Fe3 2.510820 1_555
Al4 Fe2 2.510831 1_565
Al4 Fe1 2.511287 1_555
Al4 Fe0 2.511360 1_555
Al4 Al5 2.711177 1_555
Al4 Al6 2.713472 1_655
Al4 Dy0 3.199790 1_666
Al4 Dy0 3.201700 1_655
Al5 Fe3 2.489085 1_556
Al5 Fe2 2.490549 1_555
Al5 Fe1 2.561153 1_555
Al5 Fe0 2.562501 1_555
Al5 Fe4 2.727358 1_655
Al5 Dy0 3.089556 1_666
Al5 Dy0 3.089622 1_655
Al6 Fe1 2.489765 1_566
Al6 Fe0 2.491192 1_555
Al6 Fe3 2.560564 1_455
Al6 Fe2 2.562249 1_465
Al6 Fe4 2.723697 1_555
Al6 Dy0 3.088513 1_555
Al6 Dy0 3.089454 1_566
Fe0 Fe1 2.487815 1_555
Fe0 Fe1 2.489856 1_566
Fe0 Fe4 2.502059 1_555
Fe1 Fe4 2.501523 1_544
Fe2 Fe3 2.488040 1_545
Fe2 Fe3 2.489631 1_556
Fe2 Fe4 2.501526 1_655
Fe3 Fe4 2.501790 1_654
