# generated using pymatgen
data_Li8CoO5F
_symmetry_space_group_name_H-M   'P 1'
_cell_length_a   5.44128272
_cell_length_b   5.76753228
_cell_length_c   8.62255652
_cell_angle_alpha   81.75595730
_cell_angle_beta   84.83209125
_cell_angle_gamma   92.52430310
_symmetry_Int_Tables_number   1
_chemical_formula_structural   Li8CoO5F
_chemical_formula_sum   'Li16 Co2 O10 F2'
_cell_volume   266.26910208
_cell_formula_units_Z   2
loop_
 _symmetry_equiv_pos_site_id
 _symmetry_equiv_pos_as_xyz
  1  'x, y, z'
loop_
 _atom_site_type_symbol
 _atom_site_label
 _atom_site_symmetry_multiplicity
 _atom_site_fract_x
 _atom_site_fract_y
 _atom_site_fract_z
 _atom_site_occupancy
  Li  Li0  1  0.33844900  0.24101700  0.13061000  1
  Li  Li1  1  0.85745700  0.72762400  0.62279200  1
  Li  Li2  1  0.16852200  0.60149600  0.06258500  1
  Li  Li3  1  0.66419100  0.09063600  0.56784100  1
  Li  Li4  1  0.67631000  0.44595900  0.20784000  1
  Li  Li5  1  0.20069700  0.93673300  0.69954700  1
  Li  Li6  1  0.49938900  0.15228500  0.87921800  1
  Li  Li7  1  0.01086900  0.66132500  0.36220200  1
  Li  Li8  1  0.51868900  0.82463100  0.13953000  1
  Li  Li9  1  0.02389500  0.31695100  0.64490800  1
  Li  Li10  1  0.30920700  0.55140000  0.78623000  1
  Li  Li11  1  0.79837900  0.05558400  0.28435200  1
  Li  Li12  1  0.84047500  0.41219400  0.95606800  1
  Li  Li13  1  0.34927000  0.91385200  0.44190300  1
  Li  Li14  1  0.64303700  0.76843800  0.87326500  1
  Li  Li15  1  0.13735900  0.28161700  0.37913100  1
  Co  Co0  1  0.99028200  0.99884500  0.96083600  1
  Co  Co1  1  0.49385100  0.49938600  0.47540400  1
  O  O0  1  0.33352900  0.52500800  0.24812700  1
  O  O1  1  0.85494500  0.00700100  0.74956500  1
  O  O2  1  0.16254700  0.29484200  0.94240800  1
  O  O3  1  0.67092000  0.79841700  0.44375600  1
  O  O4  1  0.66601700  0.15528400  0.08626300  1
  O  O5  1  0.19421300  0.64412700  0.57928000  1
  O  O6  1  0.31500600  0.84022600  0.90127400  1
  O  O7  1  0.79740500  0.35217500  0.41454600  1
  O  O8  1  0.83681100  0.70444000  0.05556100  1
  O  O9  1  0.33505100  0.19911000  0.55255200  1
  F  F0  1  0.66572300  0.49253300  0.77555700  1
  F  F1  1  0.14750500  0.00686300  0.27684600  1
loop_
_geom_bond_atom_site_label_1
_geom_bond_atom_site_label_2
_geom_bond_distance
_geom_bond_site_symmetry_2
Li0 O4 1.891218 1_555
Li0 O2 1.951258 1_554
Li0 O0 2.045786 1_555
Li1 O3 1.928241 1_555
Li1 O5 1.932874 1_655
Li1 O1 2.072625 1_565
Li2 O6 1.902667 1_554
Li2 O0 1.910893 1_555
Li2 O8 1.928147 1_455
Li2 O2 2.174742 1_554
Li3 O7 1.925415 1_555
Li3 O9 1.932316 1_555
Li3 O1 1.971193 1_555
Li3 O3 2.121819 1_545
Li4 O0 1.952175 1_555
Li4 O8 1.956174 1_555
Li4 O7 1.967217 1_555
Li4 O4 2.102133 1_555
Li5 O9 1.901706 1_565
Li5 O6 1.915711 1_555
Li5 O1 1.964888 1_465
Li5 O5 2.104259 1_555
Li6 O6 1.997615 1_545
Li6 O4 2.075708 1_556
Li6 O2 2.100844 1_555
Li6 O1 2.390964 1_555
Li7 O7 2.055330 1_455
Li7 O3 2.143650 1_455
Li7 O0 2.168023 1_555
Li7 O5 2.191000 1_555
Li8 O8 2.006224 1_555
Li8 O4 2.009543 1_565
Li8 O0 2.022571 1_555
Li8 O6 2.413055 1_554
Li9 O9 1.994072 1_555
Li9 O1 2.024427 1_455
Li9 O5 2.045752 1_555
Li9 O7 2.419260 1_455
Li10 O2 1.941848 1_555
Li10 O5 1.954149 1_555
Li10 O6 2.057872 1_555
Li11 O3 1.929540 1_545
Li11 O4 1.934729 1_555
Li11 O7 2.176431 1_555
Li12 O4 1.887860 1_556
Li12 O2 1.906131 1_655
Li12 O8 1.997990 1_556
Li13 O3 1.900342 1_555
Li13 O5 1.926372 1_555
Li13 O9 2.017700 1_565
Li14 O6 1.852505 1_555
Li14 O1 1.891603 1_565
Li14 O8 1.971080 1_556
Li15 O0 1.892608 1_555
Li15 O7 1.918527 1_455
Li15 O9 1.936593 1_555
Co0 O2 1.890163 1_665
Co0 O8 1.897931 1_556
Co0 O1 2.020701 1_565
Co0 O6 2.082387 1_655
Co0 O4 2.274468 1_566
Co1 O9 1.903338 1_555
Co1 O3 1.910117 1_555
Co1 O7 1.954377 1_555
Co1 O5 2.056361 1_555
Co1 O0 2.204447 1_555
F0 Li12 1.907894 1_555
F0 Li14 1.907951 1_555
F0 Li1 1.943604 1_555
F0 Li10 1.980350 1_555
F0 Li6 2.159594 1_555
F0 Li9 2.489646 1_655
F1 Li13 1.906047 1_545
F1 Li0 1.909264 1_555
F1 Li15 1.921395 1_555
F1 Li11 1.929267 1_455
F1 Li7 2.101515 1_545
