# generated using pymatgen
data_LiTiH6(OF3)2
_symmetry_space_group_name_H-M   'P 1'
_cell_length_a   5.64721417
_cell_length_b   5.89864986
_cell_length_c   5.89864986
_cell_angle_alpha   118.43300771
_cell_angle_beta   89.42395291
_cell_angle_gamma   90.57604709
_symmetry_Int_Tables_number   1
_chemical_formula_structural   LiTiH6(OF3)2
_chemical_formula_sum   'Li1 Ti1 H6 O2 F6'
_cell_volume   172.77606654
_cell_formula_units_Z   1
loop_
 _symmetry_equiv_pos_site_id
 _symmetry_equiv_pos_as_xyz
  1  'x, y, z'
loop_
 _atom_site_type_symbol
 _atom_site_label
 _atom_site_symmetry_multiplicity
 _atom_site_fract_x
 _atom_site_fract_y
 _atom_site_fract_z
 _atom_site_occupancy
  Li  Li0  1  0.50000000  0.03862800  0.03862800  1
  Ti  Ti0  1  0.00000000  0.01095200  0.01095200  1
  H  H0  1  0.72652800  0.84077300  0.33349100  1
  H  H1  1  0.72533100  0.50792600  0.19485000  1
  H  H2  1  0.27045900  0.52546200  0.69466600  1
  H  H3  1  0.72954100  0.69466600  0.52546200  1
  H  H4  1  0.27347200  0.33349100  0.84077300  1
  H  H5  1  0.27466900  0.19485000  0.50792600  1
  O  O0  1  0.68198000  0.68065900  0.35200900  1
  O  O1  1  0.31802000  0.35200900  0.68065900  1
  F  F0  1  0.77457200  0.74013600  0.78834000  1
  F  F1  1  0.76529900  0.06075100  0.28807300  1
  F  F2  1  0.23848600  0.98155800  0.24743800  1
  F  F3  1  0.76151300  0.24743800  0.98155800  1
  F  F4  1  0.22542700  0.78834000  0.74013600  1
  F  F5  1  0.23470000  0.28807300  0.06075100  1
loop_
_geom_bond_atom_site_label_1
_geom_bond_atom_site_label_2
_geom_bond_distance
_geom_bond_site_symmetry_2
H0 O0 1.029625 1_555
H1 O0 1.028812 1_555
H2 O1 1.024870 1_555
H3 O0 1.024870 1_555
H4 O1 1.029625 1_555
H5 O1 1.028812 1_555
F0 H3 1.466820 1_555
F0 Ti0 1.972806 1_666
F0 Li0 2.284183 1_566
F1 H0 1.458611 1_545
F1 Ti0 2.005506 1_655
F1 Li0 2.069823 1_555
F2 H5 1.464870 1_565
F2 Ti0 2.015577 1_565
F2 Li0 2.039530 1_565
F3 H1 1.464869 1_556
F3 Ti0 2.015581 1_656
F3 Li0 2.039526 1_556
F4 H2 1.466821 1_555
F4 Ti0 1.972803 1_566
F4 Li0 2.284187 1_566
F5 H4 1.458612 1_554
F5 Ti0 2.005502 1_555
F5 Li0 2.069827 1_555
