# generated using pymatgen
data_Nd2SiS5
_symmetry_space_group_name_H-M   'P 1'
_cell_length_a   8.21262600
_cell_length_b   8.66037103
_cell_length_c   12.17465696
_cell_angle_alpha   92.77512853
_cell_angle_beta   90.00000000
_cell_angle_gamma   90.00000000
_symmetry_Int_Tables_number   1
_chemical_formula_structural   Nd2SiS5
_chemical_formula_sum   'Nd8 Si4 S20'
_cell_volume   864.89952571
_cell_formula_units_Z   4
loop_
 _symmetry_equiv_pos_site_id
 _symmetry_equiv_pos_as_xyz
  1  'x, y, z'
loop_
 _atom_site_type_symbol
 _atom_site_label
 _atom_site_symmetry_multiplicity
 _atom_site_fract_x
 _atom_site_fract_y
 _atom_site_fract_z
 _atom_site_occupancy
  Nd  Nd0  1  0.42705500  0.50475500  0.66095800  1
  Nd  Nd1  1  0.92705500  0.49524500  0.83904200  1
  Nd  Nd2  1  0.57294500  0.49524500  0.33904200  1
  Nd  Nd3  1  0.07294500  0.50475500  0.16095800  1
  Nd  Nd4  1  0.42561500  0.74398400  0.00748900  1
  Nd  Nd5  1  0.92561500  0.25601600  0.49251100  1
  Nd  Nd6  1  0.57438500  0.25601600  0.99251100  1
  Nd  Nd7  1  0.07438500  0.74398400  0.50748900  1
  Si  Si0  1  0.21608800  0.04010300  0.21547100  1
  Si  Si1  1  0.71608800  0.95989700  0.28452900  1
  Si  Si2  1  0.78391200  0.95989700  0.78452900  1
  Si  Si3  1  0.28391200  0.04010300  0.71547100  1
  S  S0  1  0.59130800  0.52607600  0.86773500  1
  S  S1  1  0.09130800  0.47392400  0.63226500  1
  S  S2  1  0.40869200  0.47392400  0.13226500  1
  S  S3  1  0.90869200  0.52607600  0.36773500  1
  S  S4  1  0.79887000  0.94636900  0.44342300  1
  S  S5  1  0.29887000  0.05363100  0.05657700  1
  S  S6  1  0.20113000  0.05363100  0.55657700  1
  S  S7  1  0.70113000  0.94636900  0.94342300  1
  S  S8  1  0.66929400  0.75898700  0.19296200  1
  S  S9  1  0.16929400  0.24101300  0.30703800  1
  S  S10  1  0.33070600  0.24101300  0.80703800  1
  S  S11  1  0.83070600  0.75898700  0.69296200  1
  S  S12  1  0.09951200  0.67969900  0.97973200  1
  S  S13  1  0.59951200  0.32030100  0.52026800  1
  S  S14  1  0.90048800  0.32030100  0.02026800  1
  S  S15  1  0.40048800  0.67969900  0.47973200  1
  S  S16  1  0.33004900  0.82698500  0.77145300  1
  S  S17  1  0.83004900  0.17301500  0.72854700  1
  S  S18  1  0.66995100  0.17301500  0.22854700  1
  S  S19  1  0.16995100  0.82698500  0.27145300  1
loop_
_geom_bond_atom_site_label_1
_geom_bond_atom_site_label_2
_geom_bond_distance
_geom_bond_site_symmetry_2
Nd0 S13 2.688253 1_555
Nd0 S15 2.744961 1_555
Nd0 S1 2.790582 1_555
Nd0 S0 2.854163 1_555
Nd0 S10 3.065873 1_555
Nd0 S16 3.141411 1_555
Nd1 S12 2.688253 1_655
Nd1 S14 2.744961 1_556
Nd1 S0 2.790582 1_555
Nd1 S1 2.854163 1_655
Nd1 S11 3.065873 1_555
Nd1 S17 3.141411 1_555
Nd2 S15 2.688253 1_555
Nd2 S13 2.744961 1_555
Nd2 S3 2.790582 1_555
Nd2 S2 2.854163 1_555
Nd2 S8 3.065873 1_555
Nd2 S18 3.141411 1_555
Nd3 S14 2.688253 1_455
Nd3 S12 2.744961 1_554
Nd3 S2 2.790582 1_555
Nd3 S3 2.854163 1_455
Nd3 S9 3.065873 1_555
Nd3 S19 3.141411 1_555
Nd4 S12 2.752904 1_554
Nd4 S0 2.827920 1_554
Nd4 S2 2.853263 1_555
Nd4 S5 2.911487 1_565
Nd4 S7 2.988750 1_554
Nd4 S8 3.015349 1_555
Nd4 S16 3.096872 1_554
Nd5 S13 2.752904 1_555
Nd5 S1 2.827920 1_655
Nd5 S3 2.853263 1_555
Nd5 S4 2.911487 1_545
Nd5 S6 2.988750 1_655
Nd5 S9 3.015349 1_655
Nd5 S17 3.096872 1_555
Nd6 S14 2.752904 1_556
Nd6 S2 2.827920 1_556
Nd6 S0 2.853263 1_555
Nd6 S7 2.911487 1_545
Nd6 S5 2.988750 1_556
Nd6 S10 3.015349 1_555
Nd6 S18 3.096872 1_556
Nd7 S15 2.752904 1_555
Nd7 S3 2.827920 1_455
Nd7 S1 2.853263 1_555
Nd7 S6 2.911487 1_565
Nd7 S4 2.988750 1_455
Nd7 S11 3.015349 1_455
Nd7 S19 3.096872 1_555
S4 Si1 2.059148 1_555
S5 Si0 2.059148 1_555
S6 Si3 2.059148 1_555
S7 Si2 2.059148 1_555
S8 Si1 2.056715 1_555
S9 Si0 2.056715 1_555
S10 Si3 2.056715 1_555
S11 Si2 2.056715 1_555
S16 Si3 2.033825 1_565
S17 Si2 2.033825 1_545
S18 Si1 2.033825 1_545
S19 Si0 2.033825 1_565
