# generated using pymatgen
data_Ta3AlFe8
_symmetry_space_group_name_H-M   'P 1'
_cell_length_a   4.72988786
_cell_length_b   4.72988786
_cell_length_c   7.83652100
_cell_angle_alpha   90.00000000
_cell_angle_beta   90.00000000
_cell_angle_gamma   119.99999800
_symmetry_Int_Tables_number   1
_chemical_formula_structural   Ta3AlFe8
_chemical_formula_sum   'Ta3 Al1 Fe8'
_cell_volume   151.82931413
_cell_formula_units_Z   1
loop_
 _symmetry_equiv_pos_site_id
 _symmetry_equiv_pos_as_xyz
  1  'x, y, z'
loop_
 _atom_site_type_symbol
 _atom_site_label
 _atom_site_symmetry_multiplicity
 _atom_site_fract_x
 _atom_site_fract_y
 _atom_site_fract_z
 _atom_site_occupancy
  Ta  Ta0  1  0.66666700  0.33333300  0.43866700  1
  Ta  Ta1  1  0.66666700  0.33333300  0.06737000  1
  Ta  Ta2  1  0.00000000  0.00000000  0.92615300  1
  Al  Al0  1  0.00000000  0.00000000  0.56152000  1
  Fe  Fe0  1  0.33333300  0.66666700  0.50235800  1
  Fe  Fe1  1  0.33333300  0.66666700  0.00531500  1
  Fe  Fe2  1  0.50345000  0.00690000  0.74865200  1
  Fe  Fe3  1  0.50345000  0.49655000  0.74865200  1
  Fe  Fe4  1  0.99310000  0.49655000  0.74865200  1
  Fe  Fe5  1  0.16294600  0.32589300  0.25090500  1
  Fe  Fe6  1  0.16294600  0.83705400  0.25090500  1
  Fe  Fe7  1  0.67410700  0.83705400  0.25090500  1
loop_
_geom_bond_atom_site_label_1
_geom_bond_atom_site_label_2
_geom_bond_distance
_geom_bond_site_symmetry_2
Ta0 Ta1 2.909677 1_555
Ta1 Ta2 2.946513 1_654
Ta1 Ta2 2.946517 1_554
Ta1 Ta2 2.946517 1_664
Al0 Fe0 2.769876 1_545
Al0 Fe0 2.769880 1_555
Al0 Fe0 2.769880 1_445
Al0 Fe6 2.776158 1_545
Al0 Fe5 2.776160 1_555
Al0 Fe7 2.776160 1_445
Al0 Fe2 2.782854 1_455
Al0 Fe4 2.782854 1_455
Al0 Fe2 2.782854 1_555
Al0 Fe4 2.782854 1_445
Al0 Fe3 2.782854 1_445
Al0 Fe3 2.782854 1_555
Al0 Ta2 2.857454 1_555
Al0 Ta0 2.895537 1_455
Al0 Ta0 2.895541 1_445
Al0 Ta0 2.895541 1_555
Fe0 Fe4 2.380659 1_455
Fe0 Fe2 2.380659 1_565
Fe0 Fe3 2.380662 1_555
Fe0 Fe6 2.414832 1_555
Fe0 Fe7 2.414832 1_555
Fe0 Fe5 2.414832 1_555
Fe0 Ta0 2.776037 1_455
Fe0 Ta0 2.776037 1_565
Fe0 Ta0 2.776045 1_555
Fe1 Fe6 2.377489 1_555
Fe1 Fe5 2.377489 1_555
Fe1 Fe7 2.377489 1_555
Fe1 Fe4 2.447000 1_454
Fe1 Fe2 2.447000 1_564
Fe1 Fe3 2.447002 1_554
Fe1 Ta1 2.773761 1_455
Fe1 Ta1 2.773761 1_565
Fe1 Ta1 2.773769 1_555
Fe1 Ta2 2.800376 1_564
Fe1 Ta2 2.800380 1_664
Fe1 Ta2 2.800380 1_554
Fe2 Fe3 2.315990 1_555
Fe2 Fe4 2.315990 1_555
Fe2 Fe3 2.413898 1_545
Fe2 Fe4 2.413898 1_445
Fe2 Ta2 2.743832 1_655
Fe2 Ta2 2.743832 1_555
Fe2 Ta0 2.772898 1_555
Fe2 Ta1 2.833044 1_556
Fe3 Fe4 2.315990 1_555
Fe3 Fe4 2.413898 1_455
Fe3 Ta2 2.743832 1_555
Fe3 Ta2 2.743832 1_665
Fe3 Ta0 2.772900 1_555
Fe3 Ta1 2.833046 1_556
Fe4 Ta2 2.743832 1_655
Fe4 Ta2 2.743832 1_665
Fe4 Ta0 2.772898 1_555
Fe4 Ta1 2.833044 1_556
Fe5 Fe6 2.312154 1_545
Fe5 Fe7 2.312154 1_445
Fe5 Fe6 2.417734 1_555
Fe5 Fe7 2.417734 1_555
Fe5 Ta1 2.768123 1_455
Fe5 Ta1 2.768131 1_555
Fe5 Ta0 2.785478 1_455
Fe5 Ta0 2.785486 1_555
Fe5 Ta2 2.873790 1_554
Fe6 Fe7 2.312154 1_455
Fe6 Fe7 2.417734 1_555
Fe6 Ta1 2.768127 1_455
Fe6 Ta1 2.768127 1_565
Fe6 Ta0 2.785482 1_455
Fe6 Ta0 2.785482 1_565
Fe6 Ta2 2.873788 1_564
Fe7 Ta1 2.768123 1_565
Fe7 Ta1 2.768131 1_555
Fe7 Ta0 2.785478 1_565
Fe7 Ta0 2.785486 1_555
Fe7 Ta2 2.873790 1_664
