# generated using pymatgen
data_CaMg6Mo
_symmetry_space_group_name_H-M   'P 1'
_cell_length_a   5.08892100
_cell_length_b   6.39018900
_cell_length_c   11.10503600
_cell_angle_alpha   90.00000000
_cell_angle_beta   90.00000000
_cell_angle_gamma   90.00000000
_symmetry_Int_Tables_number   1
_chemical_formula_structural   CaMg6Mo
_chemical_formula_sum   'Ca2 Mg12 Mo2'
_cell_volume   361.12652018
_cell_formula_units_Z   2
loop_
 _symmetry_equiv_pos_site_id
 _symmetry_equiv_pos_as_xyz
  1  'x, y, z'
loop_
 _atom_site_type_symbol
 _atom_site_label
 _atom_site_symmetry_multiplicity
 _atom_site_fract_x
 _atom_site_fract_y
 _atom_site_fract_z
 _atom_site_occupancy
  Ca  Ca0  1  0.00000000  0.50000000  0.32610100  1
  Ca  Ca1  1  0.00000000  0.00000000  0.82610100  1
  Mg  Mg0  1  0.00000000  0.26549400  0.08632200  1
  Mg  Mg1  1  0.00000000  0.73450600  0.08632200  1
  Mg  Mg2  1  0.00000000  0.00000000  0.33474400  1
  Mg  Mg3  1  0.50000000  0.75601500  0.41978600  1
  Mg  Mg4  1  0.50000000  0.24398500  0.41978600  1
  Mg  Mg5  1  0.50000000  0.00000000  0.16541000  1
  Mg  Mg6  1  0.00000000  0.76549400  0.58632200  1
  Mg  Mg7  1  0.00000000  0.23450600  0.58632200  1
  Mg  Mg8  1  0.00000000  0.50000000  0.83474400  1
  Mg  Mg9  1  0.50000000  0.25601500  0.91978600  1
  Mg  Mg10  1  0.50000000  0.74398500  0.91978600  1
  Mg  Mg11  1  0.50000000  0.50000000  0.66541000  1
  Mo  Mo0  1  0.50000000  0.50000000  0.16153000  1
  Mo  Mo1  1  0.50000000  0.00000000  0.66153000  1
loop_
_geom_bond_atom_site_label_1
_geom_bond_atom_site_label_2
_geom_bond_distance
_geom_bond_site_symmetry_2
Ca0 Mg1 3.055467 1_555
Ca0 Mg0 3.055467 1_555
Ca0 Mo0 3.132775 1_555
Ca0 Mo0 3.132775 1_455
Ca0 Mg2 3.196536 1_565
Ca0 Mg2 3.196536 1_555
Ca0 Mg3 3.198922 1_455
Ca0 Mg4 3.198922 1_455
Ca0 Mg3 3.198922 1_555
Ca0 Mg4 3.198922 1_555
Ca0 Mg6 3.350976 1_555
Ca0 Mg7 3.350976 1_555
Ca1 Mg7 3.055467 1_555
Ca1 Mg6 3.055467 1_545
Ca1 Mo1 3.132775 1_555
Ca1 Mo1 3.132775 1_455
Ca1 Mg8 3.196536 1_555
Ca1 Mg8 3.196536 1_545
Ca1 Mg9 3.198922 1_455
Ca1 Mg10 3.198922 1_545
Ca1 Mg9 3.198922 1_555
Ca1 Mg10 3.198922 1_445
Ca1 Mg0 3.350976 1_556
Ca1 Mg1 3.350976 1_546
Mg0 Mg1 2.997075 1_555
Mg0 Mo0 3.068784 1_555
Mg0 Mo0 3.068784 1_455
Mg0 Mg9 3.146138 1_554
Mg0 Mg9 3.146138 1_454
Mg0 Mg8 3.170306 1_554
Mg0 Mg5 3.181816 1_455
Mg0 Mg5 3.181816 1_555
Mg0 Mg2 3.238661 1_555
Mg0 Mg1 3.393114 1_545
Mg1 Mo0 3.068784 1_555
Mg1 Mo0 3.068784 1_455
Mg1 Mg10 3.146138 1_454
Mg1 Mg10 3.146138 1_554
Mg1 Mg8 3.170306 1_554
Mg1 Mg5 3.181816 1_465
Mg1 Mg5 3.181816 1_565
Mg1 Mg2 3.238661 1_565
Mg2 Mg4 3.130014 1_455
Mg2 Mg3 3.130014 1_545
Mg2 Mg3 3.130014 1_445
Mg2 Mg4 3.130014 1_555
Mg2 Mg5 3.163923 1_455
Mg2 Mg5 3.163923 1_555
Mg2 Mg6 3.170306 1_545
Mg2 Mg7 3.170306 1_555
Mg3 Mo1 3.104476 1_565
Mg3 Mg4 3.118221 1_565
Mg3 Mg6 3.146138 1_655
Mg3 Mg6 3.146138 1_555
Mg3 Mg5 3.226551 1_565
Mg3 Mg4 3.271968 1_555
Mg3 Mo0 3.301748 1_555
Mg4 Mo1 3.104476 1_555
Mg4 Mg7 3.146138 1_555
Mg4 Mg7 3.146138 1_655
Mg4 Mg5 3.226551 1_555
Mg4 Mo0 3.301748 1_555
Mg5 Mg9 3.180659 1_554
Mg5 Mo0 3.195385 1_555
Mg5 Mo0 3.195385 1_545
Mg6 Mg7 2.997075 1_565
Mg6 Mo1 3.068784 1_465
Mg6 Mo1 3.068784 1_565
Mg6 Mg8 3.238661 1_555
Mg6 Mg7 3.393114 1_555
Mg7 Mo1 3.068784 1_555
Mg7 Mo1 3.068784 1_455
Mg7 Mg8 3.238661 1_555
Mg8 Mg9 3.130014 1_455
Mg8 Mg9 3.130014 1_555
Mg9 Mo0 3.104476 1_556
Mg9 Mo1 3.301748 1_555
Mg10 Mo0 3.104476 1_556
Mg10 Mg9 3.118221 1_555
Mg10 Mg8 3.130014 1_555
Mg10 Mg8 3.130014 1_655
Mg10 Mg5 3.180659 1_566
Mg10 Mg11 3.226551 1_555
Mg10 Mg9 3.271968 1_565
Mg10 Mo1 3.301748 1_565
Mg11 Mg8 3.163923 1_655
Mg11 Mg8 3.163923 1_555
Mg11 Mg3 3.180659 1_555
Mg11 Mg4 3.180659 1_555
Mg11 Mg6 3.181816 1_555
Mg11 Mg7 3.181816 1_555
Mg11 Mg6 3.181816 1_655
Mg11 Mg7 3.181816 1_655
Mg11 Mo1 3.195385 1_565
Mg11 Mo1 3.195385 1_555
Mg11 Mg9 3.226551 1_555
