# generated using pymatgen
data_Er2Sn3(PbS4)3
_symmetry_space_group_name_H-M   'P 1'
_cell_length_a   3.94472500
_cell_length_b   11.63060500
_cell_length_c   20.34515800
_cell_angle_alpha   90.00000000
_cell_angle_beta   90.00000000
_cell_angle_gamma   90.00000000
_symmetry_Int_Tables_number   1
_chemical_formula_structural   Er2Sn3(PbS4)3
_chemical_formula_sum   'Er4 Sn6 Pb6 S24'
_cell_volume   933.42645586
_cell_formula_units_Z   2
loop_
 _symmetry_equiv_pos_site_id
 _symmetry_equiv_pos_as_xyz
  1  'x, y, z'
loop_
 _atom_site_type_symbol
 _atom_site_label
 _atom_site_symmetry_multiplicity
 _atom_site_fract_x
 _atom_site_fract_y
 _atom_site_fract_z
 _atom_site_occupancy
  Er  Er0  1  0.50000000  0.64975400  0.41175800  1
  Er  Er1  1  0.50000000  0.14975400  0.58824200  1
  Er  Er2  1  0.50000000  0.82494600  0.89508700  1
  Er  Er3  1  0.50000000  0.32494600  0.10491300  1
  Sn  Sn0  1  0.00000000  0.00085800  0.75055500  1
  Sn  Sn1  1  0.00000000  0.50085800  0.24944500  1
  Sn  Sn2  1  0.00000000  0.51899300  0.91194400  1
  Sn  Sn3  1  0.00000000  0.01899300  0.08805600  1
  Sn  Sn4  1  0.00000000  0.99372600  0.42459600  1
  Sn  Sn5  1  0.00000000  0.49372600  0.57540400  1
  Pb  Pb0  1  0.50000000  0.40377000  0.74219400  1
  Pb  Pb1  1  0.50000000  0.90377000  0.25780600  1
  Pb  Pb2  1  0.50000000  0.19720000  0.91401000  1
  Pb  Pb3  1  0.50000000  0.69720000  0.08599000  1
  Pb  Pb4  1  0.50000000  0.77087500  0.62237800  1
  Pb  Pb5  1  0.50000000  0.27087500  0.37762200  1
  S  S0  1  0.00000000  0.98918800  0.87641000  1
  S  S1  1  0.00000000  0.48918800  0.12359000  1
  S  S2  1  0.00000000  0.98746200  0.62589500  1
  S  S3  1  0.00000000  0.48746200  0.37410500  1
  S  S4  1  0.00000000  0.68285900  0.50940100  1
  S  S5  1  0.00000000  0.18285900  0.49059900  1
  S  S6  1  0.50000000  0.64579600  0.25766700  1
  S  S7  1  0.50000000  0.14579600  0.74233300  1
  S  S8  1  0.50000000  0.84921000  0.75789200  1
  S  S9  1  0.50000000  0.34921000  0.24210800  1
  S  S10  1  0.50000000  0.60167600  0.84158100  1
  S  S11  1  0.50000000  0.10167600  0.15841900  1
  S  S12  1  0.50000000  0.43986900  0.98381400  1
  S  S13  1  0.50000000  0.93986900  0.01618600  1
  S  S14  1  0.50000000  0.93614300  0.49047400  1
  S  S15  1  0.50000000  0.43614300  0.50952600  1
  S  S16  1  0.00000000  0.33653600  0.84267000  1
  S  S17  1  0.00000000  0.83653600  0.15733000  1
  S  S18  1  0.00000000  0.71523500  0.96847500  1
  S  S19  1  0.00000000  0.21523500  0.03152500  1
  S  S20  1  0.00000000  0.80306200  0.35927900  1
  S  S21  1  0.00000000  0.30306200  0.64072100  1
  S  S22  1  0.00000000  0.60214100  0.67861400  1
  S  S23  1  0.00000000  0.10214100  0.32138600  1
loop_
_geom_bond_atom_site_label_1
_geom_bond_atom_site_label_2
_geom_bond_distance
_geom_bond_site_symmetry_2
Er0 S4 2.825755 1_555
Er0 S4 2.825755 1_655
Er0 S3 2.835475 1_655
Er0 S3 2.835475 1_555
Er0 S20 2.865223 1_555
Er0 S20 2.865223 1_655
Er0 S6 3.135344 1_555
Er0 S15 3.182595 1_555
Er1 S5 2.825755 1_555
Er1 S5 2.825755 1_655
Er1 S2 2.835475 1_545
Er1 S2 2.835475 1_645
Er1 S21 2.865223 1_655
Er1 S21 2.865223 1_555
Er1 S7 3.135344 1_555
Er1 S14 3.182595 1_545
Er2 S0 2.771930 1_555
Er2 S0 2.771930 1_655
Er2 S18 2.783473 1_655
Er2 S18 2.783473 1_555
Er2 S13 2.802993 1_556
Er2 S8 2.805484 1_555
Er2 S10 2.815708 1_555
Er3 S1 2.771930 1_555
Er3 S1 2.771930 1_655
Er3 S19 2.783473 1_555
Er3 S19 2.783473 1_655
Er3 S12 2.802993 1_554
Er3 S9 2.805484 1_555
Er3 S11 2.815708 1_555
Pb0 S16 2.946260 1_555
Pb0 S16 2.946260 1_655
Pb0 S7 3.000395 1_555
Pb0 S10 3.063787 1_555
Pb0 S21 3.086137 1_555
Pb0 S21 3.086137 1_655
Pb1 S17 2.946260 1_555
Pb1 S17 2.946260 1_655
Pb1 S6 3.000395 1_555
Pb1 S11 3.063787 1_565
Pb1 S20 3.086137 1_555
Pb1 S20 3.086137 1_655
Pb2 S16 2.936506 1_555
Pb2 S16 2.936506 1_655
Pb2 S19 3.106514 1_556
Pb2 S19 3.106514 1_656
Pb2 S12 3.159551 1_555
Pb2 S0 3.213790 1_645
Pb2 S0 3.213790 1_545
Pb3 S17 2.936506 1_655
Pb3 S17 2.936506 1_555
Pb3 S18 3.106514 1_654
Pb3 S18 3.106514 1_554
Pb3 S13 3.159551 1_555
Pb3 S1 3.213790 1_555
Pb3 S1 3.213790 1_655
Pb4 S8 2.903690 1_555
Pb4 S22 3.008417 1_655
Pb4 S22 3.008417 1_555
Pb5 S9 2.903690 1_555
Pb5 S23 3.008417 1_555
Pb5 S23 3.008417 1_655
S0 Sn0 2.564135 1_565
S1 Sn1 2.564135 1_555
S2 Sn0 2.541008 1_565
S3 Sn1 2.541008 1_555
S4 Sn5 2.577216 1_555
S5 Sn4 2.577216 1_545
S6 Sn1 2.599969 1_555
S6 Sn1 2.599969 1_655
S7 Sn0 2.599969 1_555
S7 Sn0 2.599969 1_655
S8 Sn0 2.650158 1_665
S8 Sn0 2.650158 1_565
S9 Sn1 2.650158 1_655
S9 Sn1 2.650158 1_555
S10 Sn2 2.619984 1_555
S10 Sn2 2.619984 1_655
S11 Sn3 2.619984 1_655
S11 Sn3 2.619984 1_555
S12 Sn2 2.622049 1_555
S12 Sn2 2.622049 1_655
S13 Sn3 2.622049 1_665
S13 Sn3 2.622049 1_565
S14 Sn4 2.476923 1_555
S14 Sn4 2.476923 1_655
S15 Sn5 2.476923 1_555
S15 Sn5 2.476923 1_655
S16 Sn2 2.547475 1_555
S17 Sn3 2.547475 1_565
S18 Sn2 2.555820 1_555
S19 Sn3 2.555820 1_555
S20 Sn4 2.585229 1_555
S21 Sn5 2.585229 1_555
S22 Sn5 2.449328 1_555
S23 Sn4 2.449328 1_545
