# generated using pymatgen
data_K2Pt(Br2O)2
_symmetry_space_group_name_H-M   'P 1'
_cell_length_a   4.52476200
_cell_length_b   9.03425700
_cell_length_c   12.34397200
_cell_angle_alpha   90.00000000
_cell_angle_beta   90.00000000
_cell_angle_gamma   90.00000000
_symmetry_Int_Tables_number   1
_chemical_formula_structural   K2Pt(Br2O)2
_chemical_formula_sum   'K4 Pt2 Br8 O4'
_cell_volume   504.59519348
_cell_formula_units_Z   2
loop_
 _symmetry_equiv_pos_site_id
 _symmetry_equiv_pos_as_xyz
  1  'x, y, z'
loop_
 _atom_site_type_symbol
 _atom_site_label
 _atom_site_symmetry_multiplicity
 _atom_site_fract_x
 _atom_site_fract_y
 _atom_site_fract_z
 _atom_site_occupancy
  K  K0  1  0.50000000  0.82552400  0.32026600  1
  K  K1  1  0.50000000  0.17447600  0.67973400  1
  K  K2  1  0.50000000  0.32552400  0.17973400  1
  K  K3  1  0.50000000  0.67447600  0.82026600  1
  Pt  Pt0  1  0.00000000  0.50000000  0.50000000  1
  Pt  Pt1  1  0.00000000  0.00000000  0.00000000  1
  Br  Br0  1  0.00000000  0.76731100  0.53031000  1
  Br  Br1  1  0.00000000  0.23268900  0.46969000  1
  Br  Br2  1  0.00000000  0.26731100  0.96969000  1
  Br  Br3  1  0.00000000  0.73268900  0.03031000  1
  Br  Br4  1  0.00000000  0.54295900  0.30452700  1
  Br  Br5  1  0.00000000  0.45704100  0.69547300  1
  Br  Br6  1  0.00000000  0.04295900  0.19547300  1
  Br  Br7  1  0.00000000  0.95704100  0.80452700  1
  O  O0  1  0.50000000  0.63673700  0.14358700  1
  O  O1  1  0.50000000  0.36326300  0.85641300  1
  O  O2  1  0.50000000  0.13673700  0.35641300  1
  O  O3  1  0.50000000  0.86326300  0.64358700  1
loop_
_geom_bond_atom_site_label_1
_geom_bond_atom_site_label_2
_geom_bond_distance
_geom_bond_site_symmetry_2
K0 O0 2.768631 1_555
K0 O2 2.846764 1_565
K1 O1 2.768631 1_555
K1 O3 2.846764 1_545
K2 O2 2.768631 1_555
K2 O0 2.846764 1_555
K3 O3 2.768631 1_555
K3 O1 2.846764 1_555
Br0 Pt0 2.443767 1_555
Br0 K0 3.481012 1_455
Br0 K0 3.481012 1_555
Br1 Pt0 2.443767 1_555
Br1 K1 3.481012 1_555
Br1 K1 3.481012 1_455
Br2 Pt1 2.443767 1_556
Br2 K2 3.481012 1_556
Br2 K2 3.481012 1_456
Br3 Pt1 2.443767 1_565
Br3 K3 3.481012 1_554
Br3 K3 3.481012 1_454
Br4 Pt0 2.443926 1_555
Br4 K2 3.368984 1_455
Br4 K2 3.368984 1_555
Br4 K0 3.416536 1_455
Br4 K0 3.416536 1_555
Br5 Pt0 2.443926 1_555
Br5 K3 3.368984 1_455
Br5 K3 3.368984 1_555
Br5 K1 3.416536 1_555
Br5 K1 3.416536 1_455
Br6 Pt1 2.443926 1_555
Br6 K0 3.368984 1_445
Br6 K0 3.368984 1_545
Br6 K2 3.416536 1_455
Br6 K2 3.416536 1_555
Br7 Pt1 2.443926 1_566
Br7 K1 3.368984 1_465
Br7 K1 3.368984 1_565
Br7 K3 3.416536 1_555
Br7 K3 3.416536 1_455
