# generated using pymatgen
data_YCr3O6
_symmetry_space_group_name_H-M   'P 1'
_cell_length_a   6.19702245
_cell_length_b   6.19702245
_cell_length_c   15.14509400
_cell_angle_alpha   90.00000000
_cell_angle_beta   90.00000000
_cell_angle_gamma   120.00000481
_symmetry_Int_Tables_number   1
_chemical_formula_structural   YCr3O6
_chemical_formula_sum   'Y4 Cr12 O24'
_cell_volume   503.69625613
_cell_formula_units_Z   4
loop_
 _symmetry_equiv_pos_site_id
 _symmetry_equiv_pos_as_xyz
  1  'x, y, z'
loop_
 _atom_site_type_symbol
 _atom_site_label
 _atom_site_symmetry_multiplicity
 _atom_site_fract_x
 _atom_site_fract_y
 _atom_site_fract_z
 _atom_site_occupancy
  Y  Y0  1  0.00000000  0.00000000  0.62914900  1
  Y  Y1  1  0.33333300  0.66666700  0.94773700  1
  Y  Y2  1  0.00000000  0.00000000  0.37085100  1
  Y  Y3  1  0.66666700  0.33333300  0.05226300  1
  Cr  Cr0  1  0.34380600  0.17190300  0.83133400  1
  Cr  Cr1  1  0.00000000  0.50000000  0.50000000  1
  Cr  Cr2  1  0.65619400  0.82809700  0.16866600  1
  Cr  Cr3  1  0.82809700  0.17190300  0.83133400  1
  Cr  Cr4  1  0.50000000  0.50000000  0.50000000  1
  Cr  Cr5  1  0.17190300  0.82809700  0.16866600  1
  Cr  Cr6  1  0.66666700  0.33333300  0.67094500  1
  Cr  Cr7  1  0.33333300  0.66666700  0.32905500  1
  Cr  Cr8  1  0.00000000  0.00000000  0.00000000  1
  Cr  Cr9  1  0.82809700  0.65619400  0.83133400  1
  Cr  Cr10  1  0.50000000  0.00000000  0.50000000  1
  Cr  Cr11  1  0.17190300  0.34380600  0.16866600  1
  O  O0  1  0.00000000  0.00000000  0.77034200  1
  O  O1  1  0.66666700  0.33333300  0.43876500  1
  O  O2  1  0.33333300  0.66666700  0.09265900  1
  O  O3  1  0.52630800  0.05261600  0.75991800  1
  O  O4  1  0.18916600  0.37833100  0.42079800  1
  O  O5  1  0.85918800  0.71837600  0.08646800  1
  O  O6  1  0.94738400  0.47369200  0.75991800  1
  O  O7  1  0.62166900  0.81083400  0.42079800  1
  O  O8  1  0.28162400  0.14081200  0.08646800  1
  O  O9  1  0.52630800  0.47369200  0.75991800  1
  O  O10  1  0.18916600  0.81083400  0.42079800  1
  O  O11  1  0.85918800  0.14081200  0.08646800  1
  O  O12  1  0.81083400  0.62166900  0.57920200  1
  O  O13  1  0.47369200  0.94738400  0.24008200  1
  O  O14  1  0.14081200  0.28162400  0.91353200  1
  O  O15  1  0.33333300  0.66666700  0.56123500  1
  O  O16  1  0.00000000  0.00000000  0.22965800  1
  O  O17  1  0.66666700  0.33333300  0.90734100  1
  O  O18  1  0.37833100  0.18916600  0.57920200  1
  O  O19  1  0.05261600  0.52630800  0.24008200  1
  O  O20  1  0.71837600  0.85918800  0.91353200  1
  O  O21  1  0.81083400  0.18916600  0.57920200  1
  O  O22  1  0.47369200  0.52630800  0.24008200  1
  O  O23  1  0.14081200  0.85918800  0.91353200  1
loop_
_geom_bond_atom_site_label_1
_geom_bond_atom_site_label_2
_geom_bond_distance
_geom_bond_site_symmetry_2
Cr0 O9 1.957408 1_555
Cr0 O3 1.957408 1_555
Cr0 O0 2.063440 1_555
Cr0 O17 2.080250 1_555
Cr0 O23 2.109476 1_545
Cr0 O14 2.109476 1_555
Cr1 O15 2.015028 1_555
Cr1 O1 2.015028 1_455
Cr1 O10 2.065287 1_555
Cr1 O21 2.065287 1_455
Cr1 O4 2.065291 1_555
Cr1 O12 2.065291 1_455
Cr2 O22 1.957408 1_555
Cr2 O13 1.957408 1_555
Cr2 O16 2.063440 1_665
Cr2 O2 2.080250 1_555
Cr2 O11 2.109476 1_565
Cr2 O5 2.109476 1_555
Cr3 O3 1.957408 1_555
Cr3 O6 1.957408 1_555
Cr3 O0 2.063440 1_655
Cr3 O17 2.080245 1_555
Cr3 O14 2.109476 1_655
Cr3 O20 2.109476 1_545
Cr4 O15 2.015033 1_555
Cr4 O1 2.015033 1_555
Cr4 O7 2.065286 1_555
Cr4 O12 2.065286 1_555
Cr4 O4 2.065286 1_555
Cr4 O18 2.065286 1_555
Cr5 O19 1.957408 1_555
Cr5 O13 1.957408 1_555
Cr5 O16 2.063440 1_565
Cr5 O2 2.080245 1_555
Cr5 O8 2.109476 1_565
Cr5 O5 2.109476 1_455
Cr6 O6 2.021249 1_555
Cr6 O3 2.021249 1_555
Cr6 O9 2.021253 1_555
Cr6 O21 2.079691 1_555
Cr6 O18 2.079698 1_555
Cr6 O12 2.079698 1_555
Cr7 O13 2.021249 1_555
Cr7 O19 2.021249 1_555
Cr7 O22 2.021253 1_555
Cr7 O10 2.079691 1_555
Cr7 O4 2.079698 1_555
Cr7 O7 2.079698 1_555
Cr8 O8 1.999834 1_555
Cr8 O5 1.999834 1_445
Cr8 O14 1.999834 1_554
Cr8 O20 1.999834 1_444
Cr8 O11 1.999834 1_455
Cr8 O23 1.999834 1_544
Cr9 O9 1.957408 1_555
Cr9 O6 1.957408 1_555
Cr9 O0 2.063440 1_665
Cr9 O17 2.080250 1_555
Cr9 O23 2.109476 1_655
Cr9 O20 2.109476 1_555
Cr10 O15 2.015028 1_545
Cr10 O1 2.015028 1_555
Cr10 O21 2.065287 1_555
Cr10 O10 2.065287 1_545
Cr10 O18 2.065291 1_555
Cr10 O7 2.065291 1_545
Cr11 O22 1.957408 1_555
Cr11 O19 1.957408 1_555
Cr11 O16 2.063440 1_555
Cr11 O2 2.080250 1_555
Cr11 O11 2.109476 1_455
Cr11 O8 2.109476 1_555
O0 Y0 2.138381 1_555
O2 Y1 2.194857 1_554
O4 Y2 2.166753 1_555
O5 Y3 2.130385 1_555
O7 Y2 2.166753 1_665
O8 Y3 2.130385 1_555
O10 Y2 2.166758 1_565
O11 Y3 2.130380 1_555
O12 Y0 2.166753 1_665
O14 Y1 2.130385 1_555
O16 Y2 2.138381 1_555
O17 Y3 2.194857 1_556
O18 Y0 2.166753 1_555
O20 Y1 2.130385 1_555
O21 Y0 2.166758 1_655
O23 Y1 2.130380 1_555
