# generated using pymatgen
data_SrMg14B
_symmetry_space_group_name_H-M   'P 1'
_cell_length_a   6.59821771
_cell_length_b   6.20227001
_cell_length_c   10.41085338
_cell_angle_alpha   90.00000000
_cell_angle_beta   90.00000000
_cell_angle_gamma   118.03403335
_symmetry_Int_Tables_number   1
_chemical_formula_structural   SrMg14B
_chemical_formula_sum   'Sr1 Mg14 B1'
_cell_volume   376.06360495
_cell_formula_units_Z   1
loop_
 _symmetry_equiv_pos_site_id
 _symmetry_equiv_pos_as_xyz
  1  'x, y, z'
loop_
 _atom_site_type_symbol
 _atom_site_label
 _atom_site_symmetry_multiplicity
 _atom_site_fract_x
 _atom_site_fract_y
 _atom_site_fract_z
 _atom_site_occupancy
  Sr  Sr0  1  0.10866650  0.30433275  0.12500000  1
  Mg  Mg0  1  0.16798251  0.33399076  0.62500000  1
  Mg  Mg1  1  0.15040561  0.82520230  0.62500000  1
  Mg  Mg2  1  0.58031342  0.26865921  0.12500000  1
  Mg  Mg3  1  0.66052171  0.33718965  0.62500000  1
  Mg  Mg4  1  0.58031342  0.81165321  0.12500000  1
  Mg  Mg5  1  0.66052171  0.82333105  0.62500000  1
  Mg  Mg6  1  0.34648179  0.17173108  0.38383661  1
  Mg  Mg7  1  0.34648179  0.17173108  0.86616339  1
  Mg  Mg8  1  0.34648179  0.67475171  0.38383661  1
  Mg  Mg9  1  0.34648179  0.67475171  0.86616339  1
  Mg  Mg10  1  0.82876179  0.16438139  0.39373334  1
  Mg  Mg11  1  0.82876179  0.16438139  0.85626666  1
  Mg  Mg12  1  0.90749182  0.70374641  0.29550685  1
  Mg  Mg13  1  0.90749182  0.70374641  0.95449315  1
  B  B0  1  0.23284075  0.86641988  0.12500000  1
loop_
_geom_bond_atom_site_label_1
_geom_bond_atom_site_label_2
_geom_bond_distance
_geom_bond_site_symmetry_2
Mg0 Mg1 3.102824 1_555
Mg0 Mg1 3.102824 1_545
Mg0 Mg11 3.114494 1_455
Mg0 Mg10 3.114494 1_455
Mg0 Mg6 3.133340 1_555
Mg0 Mg7 3.133340 1_555
Mg0 Mg9 3.133346 1_555
Mg0 Mg8 3.133346 1_555
Mg0 Mg5 3.240603 1_555
Mg0 Mg3 3.240603 1_555
Mg0 Mg5 3.357707 1_445
Mg0 Mg3 3.357707 1_455
Mg1 Mg9 3.159595 1_555
Mg1 Mg8 3.159595 1_555
Mg1 Mg6 3.159601 1_565
Mg1 Mg7 3.159601 1_565
Mg1 Mg3 3.226922 1_455
Mg1 Mg5 3.226922 1_455
Mg1 Mg3 3.371327 1_565
Mg1 Mg5 3.371327 1_555
Mg2 Mg7 3.021829 1_554
Mg2 Mg6 3.021829 1_555
Mg2 Sr0 3.221943 1_555
Mg2 Sr0 3.387833 1_655
Mg3 Mg5 3.015180 1_555
Mg3 Mg7 3.106704 1_555
Mg3 Mg6 3.106704 1_555
Mg3 Mg5 3.187090 1_545
Mg4 Mg8 3.021829 1_555
Mg4 Mg9 3.021829 1_554
Mg4 Sr0 3.221943 1_555
Mg4 Sr0 3.387832 1_665
Mg5 Mg8 3.106704 1_555
Mg5 Mg9 3.106704 1_555
Mg6 Mg8 3.082400 1_545
Mg6 Mg8 3.119870 1_555
Mg6 Sr0 3.407813 1_555
Mg7 Mg9 3.082400 1_545
Mg7 Mg9 3.119870 1_555
Mg7 Sr0 3.407813 1_556
Mg8 Sr0 3.407819 1_555
Mg9 Sr0 3.407819 1_556
Mg10 Mg3 3.048997 1_555
Mg10 Mg5 3.049004 1_545
Mg10 Mg8 3.205522 1_545
Mg10 Mg6 3.205522 1_555
Mg10 Sr0 3.238031 1_655
Mg10 Mg12 3.297429 1_555
Mg10 Mg12 3.297429 1_545
Mg10 Mg8 3.396406 1_655
Mg10 Mg6 3.396406 1_655
Mg10 Mg2 3.453932 1_555
Mg10 Mg4 3.453937 1_545
Mg11 Mg3 3.048997 1_555
Mg11 Mg5 3.049004 1_545
Mg11 Mg9 3.205522 1_545
Mg11 Mg7 3.205522 1_555
Mg11 Sr0 3.238031 1_656
Mg11 Mg13 3.297429 1_555
Mg11 Mg13 3.297429 1_545
Mg11 Mg9 3.396406 1_655
Mg11 Mg7 3.396406 1_655
Mg11 Mg2 3.453932 1_556
Mg11 Mg4 3.453937 1_546
Mg12 Mg6 3.123720 1_665
Mg12 Mg8 3.123720 1_655
Mg13 Mg7 3.123720 1_665
Mg13 Mg9 3.123720 1_655
B0 Mg2 2.470607 1_565
B0 Mg4 2.470608 1_555
B0 Mg12 2.596439 1_455
B0 Mg13 2.596439 1_454
B0 Sr0 3.184345 1_555
B0 Sr0 3.184345 1_565
