# generated using pymatgen
data_NaGdP2H2CO7
_symmetry_space_group_name_H-M   'P 1'
_cell_length_a   15.22958300
_cell_length_b   6.66984200
_cell_length_c   6.76949582
_cell_angle_alpha   88.56271839
_cell_angle_beta   90.00000000
_cell_angle_gamma   90.00000000
_symmetry_Int_Tables_number   1
_chemical_formula_structural   NaGdP2H2CO7
_chemical_formula_sum   'Na4 Gd4 P8 H8 C4 O28'
_cell_volume   687.42167766
_cell_formula_units_Z   4
loop_
 _symmetry_equiv_pos_site_id
 _symmetry_equiv_pos_as_xyz
  1  'x, y, z'
loop_
 _atom_site_type_symbol
 _atom_site_label
 _atom_site_symmetry_multiplicity
 _atom_site_fract_x
 _atom_site_fract_y
 _atom_site_fract_z
 _atom_site_occupancy
  Na  Na0  1  0.52837100  0.86044800  0.70046300  1
  Na  Na1  1  0.02837100  0.63955200  0.29953700  1
  Na  Na2  1  0.47162900  0.13955200  0.29953700  1
  Na  Na3  1  0.97162900  0.36044800  0.70046300  1
  Gd  Gd0  1  0.39724100  0.40040000  0.82509100  1
  Gd  Gd1  1  0.89724100  0.09960000  0.17490900  1
  Gd  Gd2  1  0.60275900  0.59960000  0.17490900  1
  Gd  Gd3  1  0.10275900  0.90040000  0.82509100  1
  P  P0  1  0.59331100  0.36775100  0.67970000  1
  P  P1  1  0.09331100  0.13224900  0.32030000  1
  P  P2  1  0.40668900  0.63224900  0.32030000  1
  P  P3  1  0.90668900  0.86775100  0.67970000  1
  P  P4  1  0.34000300  0.89531200  0.96934200  1
  P  P5  1  0.84000300  0.60468800  0.03065800  1
  P  P6  1  0.65999700  0.10468800  0.03065800  1
  P  P7  1  0.15999700  0.39531200  0.96934200  1
  H  H0  1  0.26117300  0.67703700  0.19289100  1
  H  H1  1  0.76117300  0.82296300  0.80710900  1
  H  H2  1  0.73882700  0.32296300  0.80710900  1
  H  H3  1  0.23882700  0.17703700  0.19289100  1
  H  H4  1  0.29804400  0.89112900  0.31875800  1
  H  H5  1  0.79804400  0.60887100  0.68124200  1
  H  H6  1  0.70195600  0.10887100  0.68124200  1
  H  H7  1  0.20195600  0.39112900  0.31875800  1
  C  C0  1  0.31756600  0.77751600  0.21179600  1
  C  C1  1  0.81756600  0.72248400  0.78820400  1
  C  C2  1  0.68243400  0.22248400  0.78820400  1
  C  C3  1  0.18243400  0.27751600  0.21179600  1
  O  O0  1  0.39769800  0.75353500  0.85164700  1
  O  O1  1  0.89769800  0.74646500  0.14835300  1
  O  O2  1  0.60230200  0.24646500  0.14835300  1
  O  O3  1  0.10230200  0.25353500  0.85164700  1
  O  O4  1  0.51583400  0.22316400  0.63723500  1
  O  O5  1  0.01583400  0.27683600  0.36276500  1
  O  O6  1  0.48416600  0.77683600  0.36276500  1
  O  O7  1  0.98416600  0.72316400  0.63723500  1
  O  O8  1  0.62960600  0.47489000  0.49337500  1
  O  O9  1  0.12960600  0.02511000  0.50662500  1
  O  O10  1  0.37039400  0.52511000  0.50662500  1
  O  O11  1  0.87039400  0.97489000  0.49337500  1
  O  O12  1  0.38764900  0.09534100  0.00546800  1
  O  O13  1  0.88764900  0.40465900  0.99453200  1
  O  O14  1  0.61235100  0.90465900  0.99453200  1
  O  O15  1  0.11235100  0.59534100  0.00546800  1
  O  O16  1  0.24898500  0.93094500  0.87567600  1
  O  O17  1  0.74898500  0.56905500  0.12432400  1
  O  O18  1  0.75101500  0.06905500  0.12432400  1
  O  O19  1  0.25101500  0.43094500  0.87567600  1
  O  O20  1  0.55902900  0.52275400  0.82899200  1
  O  O21  1  0.05902900  0.97724600  0.17100800  1
  O  O22  1  0.44097100  0.47724600  0.17100800  1
  O  O23  1  0.94097100  0.02275400  0.82899200  1
  O  O24  1  0.33773000  0.16048400  0.58636600  1
  O  O25  1  0.83773000  0.33951600  0.41363400  1
  O  O26  1  0.66227000  0.83951600  0.41363400  1
  O  O27  1  0.16227000  0.66048400  0.58636600  1
loop_
_geom_bond_atom_site_label_1
_geom_bond_atom_site_label_2
_geom_bond_distance
_geom_bond_site_symmetry_2
Na0 O0 2.340897 1_555
Na0 O14 2.390622 1_555
Na0 O20 2.439237 1_555
Na0 O4 2.453675 1_565
Na0 O6 2.460527 1_555
Na0 O26 2.821646 1_555
Na1 O1 2.340897 1_455
Na1 O15 2.390622 1_555
Na1 O21 2.439237 1_555
Na1 O5 2.453675 1_555
Na1 O7 2.460527 1_455
Na1 O27 2.821646 1_555
Na2 O2 2.340897 1_555
Na2 O12 2.390622 1_555
Na2 O22 2.439237 1_555
Na2 O6 2.453675 1_545
Na2 O4 2.460527 1_555
Na2 O24 2.821646 1_555
Na3 O3 2.340897 1_655
Na3 O13 2.390622 1_555
Na3 O23 2.439237 1_555
Na3 O7 2.453675 1_555
Na3 O5 2.460527 1_655
Na3 O25 2.821646 1_555
Gd0 O19 2.263100 1_555
Gd0 O10 2.327404 1_555
Gd0 O12 2.351102 1_556
Gd0 O0 2.366707 1_555
Gd0 O24 2.474553 1_555
Gd0 O22 2.499989 1_556
Gd0 O4 2.520344 1_555
Gd0 O20 2.595936 1_555
Gd1 O18 2.263100 1_555
Gd1 O11 2.327404 1_545
Gd1 O13 2.351102 1_554
Gd1 O1 2.366707 1_545
Gd1 O25 2.474553 1_555
Gd1 O23 2.499989 1_554
Gd1 O5 2.520344 1_655
Gd1 O21 2.595936 1_645
Gd2 O17 2.263100 1_555
Gd2 O8 2.327404 1_555
Gd2 O14 2.351102 1_554
Gd2 O2 2.366707 1_555
Gd2 O26 2.474553 1_555
Gd2 O20 2.499989 1_554
Gd2 O6 2.520344 1_555
Gd2 O22 2.595936 1_555
Gd3 O16 2.263100 1_555
Gd3 O9 2.327404 1_565
Gd3 O15 2.351102 1_556
Gd3 O3 2.366707 1_565
Gd3 O27 2.474553 1_555
Gd3 O21 2.499989 1_556
Gd3 O7 2.520344 1_455
Gd3 O23 2.595936 1_465
C0 H0 1.098831 1_555
C0 H4 1.102017 1_555
C0 P2 1.812423 1_555
C0 P4 1.833904 1_554
C1 H1 1.098831 1_555
C1 H5 1.102017 1_555
C1 P3 1.812423 1_555
C1 P5 1.833904 1_556
C2 H2 1.098831 1_555
C2 H6 1.102017 1_555
C2 P0 1.812423 1_555
C2 P6 1.833904 1_556
C3 H3 1.098831 1_555
C3 H7 1.102017 1_555
C3 P1 1.812423 1_555
C3 P7 1.833904 1_554
O0 P4 1.529334 1_555
O1 P5 1.529334 1_555
O2 P6 1.529334 1_555
O3 P7 1.529334 1_555
O4 P0 1.555256 1_555
O5 P1 1.555256 1_555
O6 P2 1.555256 1_555
O7 P3 1.555256 1_555
O8 P0 1.536855 1_555
O9 P1 1.536855 1_555
O10 P2 1.536855 1_555
O11 P3 1.536855 1_555
O12 P4 1.543600 1_544
O13 P5 1.543600 1_556
O14 P6 1.543600 1_566
O15 P7 1.543600 1_554
O16 P4 1.540269 1_555
O17 P5 1.540269 1_555
O18 P6 1.540269 1_555
O19 P7 1.540269 1_555
O20 P0 1.554097 1_555
O21 P1 1.554097 1_565
O22 P2 1.554097 1_555
O23 P3 1.554097 1_545
