# generated using pymatgen
data_La6MnSb15
_symmetry_space_group_name_H-M   'P 1'
_cell_length_a   12.84192405
_cell_length_b   12.84192405
_cell_length_c   4.32674185
_cell_angle_alpha   80.34684324
_cell_angle_beta   80.34684324
_cell_angle_gamma   102.33424660
_symmetry_Int_Tables_number   1
_chemical_formula_structural   La6MnSb15
_chemical_formula_sum   'La6 Mn1 Sb15'
_cell_volume   671.68805895
_cell_formula_units_Z   1
loop_
 _symmetry_equiv_pos_site_id
 _symmetry_equiv_pos_as_xyz
  1  'x, y, z'
loop_
 _atom_site_type_symbol
 _atom_site_label
 _atom_site_symmetry_multiplicity
 _atom_site_fract_x
 _atom_site_fract_y
 _atom_site_fract_z
 _atom_site_occupancy
  La  La0  1  0.00374600  0.27017000  0.94888700  1
  La  La1  1  0.99566900  0.72554700  0.22020700  1
  La  La2  1  0.72554700  0.99566900  0.22020700  1
  La  La3  1  0.27017000  0.00374600  0.94888700  1
  La  La4  1  0.67959000  0.32342800  0.08529600  1
  La  La5  1  0.32342800  0.67959000  0.08529600  1
  Mn  Mn0  1  0.28354200  0.28354200  0.80376500  1
  Sb  Sb0  1  0.39687300  0.39687300  0.19311800  1
  Sb  Sb1  1  0.59002400  0.59002400  0.99684000  1
  Sb  Sb2  1  0.91155500  0.51285300  0.87373400  1
  Sb  Sb3  1  0.07577700  0.48596300  0.30741400  1
  Sb  Sb4  1  0.48596300  0.07577700  0.30741400  1
  Sb  Sb5  1  0.51285300  0.91155500  0.87373400  1
  Sb  Sb6  1  0.23824000  0.47577800  0.72917800  1
  Sb  Sb7  1  0.74958100  0.54268900  0.44468300  1
  Sb  Sb8  1  0.54268900  0.74958100  0.44468300  1
  Sb  Sb9  1  0.47577800  0.23824000  0.72917800  1
  Sb  Sb10  1  0.17042000  0.17042000  0.41523200  1
  Sb  Sb11  1  0.85595800  0.85595800  0.71886700  1
  Sb  Sb12  1  0.80088400  0.19832000  0.58457500  1
  Sb  Sb13  1  0.19832000  0.80088400  0.58457500  1
  Sb  Sb14  1  0.99059200  0.99059200  0.08443000  1
loop_
_geom_bond_atom_site_label_1
_geom_bond_atom_site_label_2
_geom_bond_distance
_geom_bond_site_symmetry_2
La0 Sb12 3.304855 1_456
La0 Sb12 3.310704 1_455
La0 Sb3 3.420951 1_555
La0 Sb6 3.427078 1_555
La0 Sb3 3.430646 1_556
La0 Sb10 3.470818 1_556
La0 Sb10 3.472693 1_555
La0 Sb14 3.502055 1_446
La0 Mn0 3.503977 1_555
La0 Sb2 3.547624 1_455
La1 Sb13 3.302124 1_654
La1 Sb13 3.317509 1_655
La1 Sb14 3.372170 1_555
La1 Sb7 3.388215 1_555
La1 Sb2 3.395646 1_554
La1 Sb2 3.427519 1_555
La1 Sb3 3.429281 1_655
La1 Sb11 3.446176 1_555
La1 Sb11 3.478448 1_554
La2 Sb12 3.302124 1_564
La2 Sb12 3.317509 1_565
La2 Sb14 3.372170 1_555
La2 Sb8 3.388215 1_555
La2 Sb5 3.395646 1_554
La2 Sb5 3.427519 1_555
La2 Sb4 3.429281 1_565
La2 Sb11 3.446176 1_555
La2 Sb11 3.478448 1_554
La3 Sb13 3.304855 1_546
La3 Sb13 3.310704 1_545
La3 Sb4 3.420951 1_555
La3 Sb9 3.427078 1_555
La3 Sb4 3.430646 1_556
La3 Sb10 3.470818 1_556
La3 Sb10 3.472693 1_555
La3 Sb14 3.502055 1_446
La3 Mn0 3.503977 1_555
La3 Sb5 3.547624 1_545
La4 Sb12 3.272291 1_555
La4 Sb12 3.287241 1_554
La4 Sb2 3.297268 1_554
La4 Sb9 3.334054 1_554
La4 Sb9 3.334332 1_555
La4 Sb7 3.447431 1_554
La4 Sb7 3.465548 1_555
La4 Sb4 3.466402 1_555
La4 Sb1 3.818516 1_554
La4 Sb0 3.915507 1_555
La5 Sb13 3.272291 1_555
La5 Sb13 3.287241 1_554
La5 Sb5 3.297268 1_554
La5 Sb6 3.334054 1_554
La5 Sb6 3.334332 1_555
La5 Sb8 3.447431 1_554
La5 Sb8 3.465548 1_555
La5 Sb3 3.466402 1_555
La5 Sb1 3.818516 1_554
La5 Sb0 3.915507 1_555
Mn0 Sb9 2.635591 1_555
Mn0 Sb6 2.635591 1_555
Mn0 Sb0 2.780819 1_555
Mn0 Sb10 2.782219 1_556
Mn0 Sb10 2.789828 1_555
Mn0 Sb0 2.795326 1_556
Sb0 Sb1 2.997474 1_554
Sb0 Sb9 3.262182 1_555
Sb0 Sb6 3.262182 1_555
Sb0 Sb6 3.282889 1_554
Sb0 Sb9 3.282889 1_554
Sb1 Sb8 3.106925 1_555
Sb1 Sb7 3.106925 1_555
Sb1 Sb8 3.129108 1_556
Sb1 Sb7 3.129108 1_556
Sb2 Sb7 3.052307 1_555
Sb2 Sb3 3.071280 1_655
Sb2 Sb3 3.083622 1_656
Sb2 Sb7 3.083946 1_556
Sb3 Sb6 3.002235 1_555
Sb3 Sb6 3.017465 1_554
Sb4 Sb9 3.002235 1_555
Sb4 Sb9 3.017465 1_554
Sb4 Sb5 3.071280 1_545
Sb4 Sb5 3.083622 1_544
Sb5 Sb8 3.052307 1_555
Sb5 Sb8 3.083946 1_556
Sb11 Sb14 3.006244 1_556
Sb11 Sb14 3.008888 1_555
