# generated using pymatgen
data_Li3Mn2SnO6
_symmetry_space_group_name_H-M   'P 1'
_cell_length_a   6.19586918
_cell_length_b   6.89697955
_cell_length_c   6.92089364
_cell_angle_alpha   106.68561883
_cell_angle_beta   76.83639905
_cell_angle_gamma   116.75783409
_symmetry_Int_Tables_number   1
_chemical_formula_structural   Li3Mn2SnO6
_chemical_formula_sum   'Li6 Mn4 Sn2 O12'
_cell_volume   251.27849497
_cell_formula_units_Z   2
loop_
 _symmetry_equiv_pos_site_id
 _symmetry_equiv_pos_as_xyz
  1  'x, y, z'
loop_
 _atom_site_type_symbol
 _atom_site_label
 _atom_site_symmetry_multiplicity
 _atom_site_fract_x
 _atom_site_fract_y
 _atom_site_fract_z
 _atom_site_occupancy
  Li  Li0  1  0.58430000  0.83226200  0.33364900  1
  Li  Li1  1  0.08255300  0.83412200  0.33268500  1
  Li  Li2  1  0.24766300  0.48555000  0.98890600  1
  Li  Li3  1  0.76582400  0.53343500  0.00128500  1
  Li  Li4  1  0.90053200  0.13231100  0.66494900  1
  Li  Li5  1  0.41966600  0.18181300  0.67729100  1
  Mn  Mn0  1  0.49862800  0.98486400  0.99112300  1
  Mn  Mn1  1  0.16797300  0.68171900  0.67563200  1
  Mn  Mn2  1  0.99597200  0.98811200  0.99587300  1
  Mn  Mn3  1  0.67071100  0.67863600  0.67078900  1
  Sn  Sn0  1  0.83337400  0.33332100  0.33342400  1
  Sn  Sn1  1  0.33324600  0.33344600  0.33337900  1
  O  O0  1  0.88557400  0.23160700  0.01680800  1
  O  O1  1  0.34116500  0.22959500  0.01395100  1
  O  O2  1  0.32562700  0.43721200  0.65289100  1
  O  O3  1  0.78091400  0.43510000  0.65000800  1
  O  O4  1  0.55444900  0.89702300  0.66101000  1
  O  O5  1  0.01128800  0.89916600  0.65966200  1
  O  O6  1  0.65516200  0.76746400  0.00723000  1
  O  O7  1  0.11210900  0.76968600  0.00571800  1
  O  O8  1  0.20214400  0.56661700  0.32824600  1
  O  O9  1  0.70077500  0.55795300  0.31249500  1
  O  O10  1  0.96598000  0.10882800  0.35428800  1
  O  O11  1  0.46436800  0.10015800  0.33871100  1
loop_
_geom_bond_atom_site_label_1
_geom_bond_atom_site_label_2
_geom_bond_distance
_geom_bond_site_symmetry_2
Li0 O6 2.154353 1_555
Li0 O4 2.160837 1_555
Li0 O8 2.249296 1_555
Li0 O9 2.267982 1_555
Li0 O11 2.270364 1_565
Li0 O10 2.277486 1_565
Li1 O5 2.158137 1_555
Li1 O7 2.158429 1_555
Li1 O11 2.248847 1_565
Li1 O8 2.267591 1_555
Li1 O10 2.270253 1_465
Li1 O9 2.276752 1_455
Li2 O0 2.144001 1_456
Li2 O1 2.150425 1_556
Li2 O2 2.222770 1_555
Li2 O8 2.234736 1_556
Li2 O6 2.398985 1_556
Li2 O7 2.421952 1_556
Li3 O6 2.005650 1_555
Li3 O7 2.027961 1_655
Li3 O9 2.070495 1_555
Li3 O3 2.320765 1_554
Li3 O1 2.521433 1_555
Li3 O0 2.539884 1_555
Li4 O5 2.001568 1_645
Li4 O4 2.024862 1_545
Li4 O10 2.067719 1_555
Li4 O0 2.324733 1_556
Li4 O2 2.525792 1_655
Li4 O3 2.544338 1_555
Li5 O3 2.138524 1_555
Li5 O2 2.147231 1_555
Li5 O1 2.227387 1_556
Li5 O11 2.229767 1_555
Li5 O5 2.404138 1_545
Li5 O4 2.423874 1_545
Mn0 O6 2.157762 1_556
Mn0 O7 2.173363 1_556
Mn0 O4 2.177235 1_555
Mn0 O0 2.241012 1_566
Mn0 O1 2.255057 1_566
Mn0 O11 2.298982 1_566
Mn1 O5 2.158447 1_555
Mn1 O4 2.173326 1_555
Mn1 O7 2.177115 1_556
Mn1 O3 2.241272 1_455
Mn1 O2 2.254670 1_555
Mn1 O8 2.297567 1_555
Mn2 O7 1.961956 1_656
Mn2 O6 1.969908 1_556
Mn2 O1 2.039271 1_666
Mn2 O0 2.039281 1_566
Mn2 O5 2.220779 1_655
Mn2 O10 2.371554 1_566
Mn3 O4 1.962106 1_555
Mn3 O5 1.968603 1_655
Mn3 O2 2.038587 1_555
Mn3 O3 2.038975 1_555
Mn3 O6 2.222207 1_556
Mn3 O9 2.370757 1_555
O0 Sn0 2.096939 1_555
O1 Sn1 2.115587 1_555
O2 Sn1 2.116223 1_555
O3 Sn0 2.096892 1_555
O8 Sn1 2.114121 1_555
O8 Sn0 2.120438 1_455
O9 Sn1 2.099431 1_555
O9 Sn0 2.103666 1_555
O10 Sn1 2.098443 1_655
O10 Sn0 2.102638 1_555
O11 Sn1 2.115414 1_555
O11 Sn0 2.121245 1_555
