# generated using pymatgen
data_Ti2O3
_symmetry_space_group_name_H-M   'P 1'
_cell_length_a   2.83804573
_cell_length_b   7.82893291
_cell_length_c   8.14506917
_cell_angle_alpha   90.00000000
_cell_angle_beta   90.00000000
_cell_angle_gamma   90.00000000
_symmetry_Int_Tables_number   1
_chemical_formula_structural   Ti2O3
_chemical_formula_sum   'Ti8 O12'
_cell_volume   180.97422990
_cell_formula_units_Z   4
loop_
 _symmetry_equiv_pos_site_id
 _symmetry_equiv_pos_as_xyz
  1  'x, y, z'
loop_
 _atom_site_type_symbol
 _atom_site_label
 _atom_site_symmetry_multiplicity
 _atom_site_fract_x
 _atom_site_fract_y
 _atom_site_fract_z
 _atom_site_occupancy
  Ti  Ti0  1  0.75000000  0.46930850  0.81593348  1
  Ti  Ti1  1  0.75000000  0.96930850  0.68406652  1
  Ti  Ti2  1  0.25000000  0.53069150  0.18406652  1
  Ti  Ti3  1  0.25000000  0.03069150  0.31593348  1
  Ti  Ti4  1  0.75000000  0.30355344  0.48091613  1
  Ti  Ti5  1  0.75000000  0.80355344  0.01908387  1
  Ti  Ti6  1  0.25000000  0.69644656  0.51908387  1
  Ti  Ti7  1  0.25000000  0.19644656  0.98091613  1
  O  O0  1  0.75000000  0.55781245  0.37548407  1
  O  O1  1  0.75000000  0.05781245  0.12451593  1
  O  O2  1  0.25000000  0.44218755  0.62451593  1
  O  O3  1  0.25000000  0.94218755  0.87548407  1
  O  O4  1  0.75000000  0.37881831  0.05283368  1
  O  O5  1  0.75000000  0.87881831  0.44716632  1
  O  O6  1  0.25000000  0.62118169  0.94716532  1
  O  O7  1  0.25000000  0.12118169  0.55283468  1
  O  O8  1  0.75000000  0.70694910  0.69047191  1
  O  O9  1  0.75000000  0.20694910  0.80952809  1
  O  O10  1  0.25000000  0.29305090  0.30952809  1
  O  O11  1  0.25000000  0.79305090  0.19047191  1
loop_
_geom_bond_atom_site_label_1
_geom_bond_atom_site_label_2
_geom_bond_distance
_geom_bond_site_symmetry_2
O0 Ti2 2.118851 1_655
O0 Ti2 2.118851 1_555
O0 Ti6 2.135336 1_555
O0 Ti6 2.135336 1_655
O0 Ti4 2.167914 1_555
O1 Ti3 2.118851 1_555
O1 Ti3 2.118851 1_655
O1 Ti7 2.135336 1_554
O1 Ti7 2.135336 1_654
O1 Ti5 2.167914 1_545
O2 Ti0 2.118851 1_455
O2 Ti0 2.118851 1_555
O2 Ti4 2.135336 1_455
O2 Ti4 2.135336 1_555
O2 Ti6 2.167914 1_555
O3 Ti1 2.118851 1_455
O3 Ti1 2.118851 1_555
O3 Ti5 2.135336 1_556
O3 Ti5 2.135336 1_456
O3 Ti7 2.167914 1_565
O4 Ti0 2.055511 1_554
O4 Ti7 2.096497 1_654
O4 Ti7 2.096497 1_554
O4 Ti2 2.137734 1_555
O4 Ti2 2.137734 1_655
O5 Ti1 2.055511 1_555
O5 Ti6 2.096497 1_555
O5 Ti6 2.096497 1_655
O5 Ti3 2.137734 1_565
O5 Ti3 2.137734 1_665
O6 Ti2 2.055518 1_556
O6 Ti5 2.096500 1_556
O6 Ti5 2.096500 1_456
O6 Ti0 2.137730 1_555
O6 Ti0 2.137730 1_455
O7 Ti3 2.055518 1_555
O7 Ti4 2.096500 1_455
O7 Ti4 2.096500 1_555
O7 Ti1 2.137730 1_545
O7 Ti1 2.137730 1_445
O8 Ti6 1.992263 1_555
O8 Ti6 1.992263 1_655
O8 Ti1 2.054657 1_555
O8 Ti0 2.122645 1_555
O9 Ti7 1.992263 1_655
O9 Ti7 1.992263 1_555
O9 Ti0 2.054657 1_555
O9 Ti1 2.122645 1_545
O10 Ti4 1.992263 1_555
O10 Ti4 1.992263 1_455
O10 Ti3 2.054657 1_555
O10 Ti2 2.122645 1_555
O11 Ti5 1.992263 1_555
O11 Ti5 1.992263 1_455
O11 Ti2 2.054657 1_555
O11 Ti3 2.122645 1_565
