# generated using pymatgen
data_ZnPt(CN)4
_symmetry_space_group_name_H-M   'P 1'
_cell_length_a   5.48995900
_cell_length_b   5.48995900
_cell_length_c   13.35931500
_cell_angle_alpha   90.00000000
_cell_angle_beta   90.00000000
_cell_angle_gamma   90.00000000
_symmetry_Int_Tables_number   1
_chemical_formula_structural   ZnPt(CN)4
_chemical_formula_sum   'Zn2 Pt2 C8 N8'
_cell_volume   402.64507596
_cell_formula_units_Z   2
loop_
 _symmetry_equiv_pos_site_id
 _symmetry_equiv_pos_as_xyz
  1  'x, y, z'
loop_
 _atom_site_type_symbol
 _atom_site_label
 _atom_site_symmetry_multiplicity
 _atom_site_fract_x
 _atom_site_fract_y
 _atom_site_fract_z
 _atom_site_occupancy
  Zn  Zn0  1  0.50000000  0.50000000  0.75000000  1
  Zn  Zn1  1  0.50000000  0.50000000  0.25000000  1
  Pt  Pt0  1  0.00000000  0.00000000  0.00000000  1
  Pt  Pt1  1  0.00000000  0.00000000  0.50000000  1
  C  C0  1  0.81418400  0.81418400  0.89801400  1
  C  C1  1  0.18581600  0.18581600  0.89801400  1
  C  C2  1  0.81418400  0.18581600  0.39801400  1
  C  C3  1  0.18581600  0.81418400  0.39801400  1
  C  C4  1  0.81418400  0.81418400  0.10198600  1
  C  C5  1  0.18581600  0.18581600  0.10198600  1
  C  C6  1  0.81418400  0.18581600  0.60198600  1
  C  C7  1  0.18581600  0.81418400  0.60198600  1
  N  N0  1  0.70094000  0.70094000  0.84034400  1
  N  N1  1  0.29906000  0.29906000  0.84034400  1
  N  N2  1  0.70094000  0.29906000  0.34034400  1
  N  N3  1  0.29906000  0.70094000  0.34034400  1
  N  N4  1  0.70094000  0.70094000  0.15965600  1
  N  N5  1  0.29906000  0.29906000  0.15965600  1
  N  N6  1  0.70094000  0.29906000  0.65965600  1
  N  N7  1  0.29906000  0.70094000  0.65965600  1
loop_
_geom_bond_atom_site_label_1
_geom_bond_atom_site_label_2
_geom_bond_distance
_geom_bond_site_symmetry_2
C0 N0 1.169016 1_555
C0 Pt0 1.984340 1_666
C1 N1 1.169016 1_555
C1 Pt0 1.984340 1_556
C2 N2 1.169016 1_555
C2 Pt1 1.984340 1_655
C3 N3 1.169016 1_555
C3 Pt1 1.984340 1_565
C4 N4 1.169016 1_555
C4 Pt0 1.984340 1_665
C5 N5 1.169016 1_555
C5 Pt0 1.984340 1_555
C6 N6 1.169016 1_555
C6 Pt1 1.984340 1_655
C7 N7 1.169016 1_555
C7 Pt1 1.984340 1_565
N0 Zn0 1.972455 1_555
N1 Zn0 1.972455 1_555
N2 Zn1 1.972455 1_555
N3 Zn1 1.972455 1_555
N4 Zn1 1.972455 1_555
N5 Zn1 1.972455 1_555
N6 Zn0 1.972455 1_555
N7 Zn0 1.972455 1_555
