# generated using pymatgen
data_Ce3SbAs2
_symmetry_space_group_name_H-M   'P 1'
_cell_length_a   7.49126727
_cell_length_b   7.49126727
_cell_length_c   7.49126727
_cell_angle_alpha   146.70127737
_cell_angle_beta   131.79856917
_cell_angle_gamma   59.84549943
_symmetry_Int_Tables_number   1
_chemical_formula_structural   Ce3SbAs2
_chemical_formula_sum   'Ce3 Sb1 As2'
_cell_volume   170.51539496
_cell_formula_units_Z   1
loop_
 _symmetry_equiv_pos_site_id
 _symmetry_equiv_pos_as_xyz
  1  'x, y, z'
loop_
 _atom_site_type_symbol
 _atom_site_label
 _atom_site_symmetry_multiplicity
 _atom_site_fract_x
 _atom_site_fract_y
 _atom_site_fract_z
 _atom_site_occupancy
  Ce  Ce0  1  0.00000000  0.00000000  0.00000000  1
  Ce  Ce1  1  0.67772400  0.67772400  0.00000000  1
  Ce  Ce2  1  0.32227600  0.32227600  0.00000000  1
  Sb  Sb0  1  0.50000000  0.00000000  0.50000000  1
  As  As0  1  0.16244600  0.66244600  0.50000000  1
  As  As1  1  0.83755400  0.33755400  0.50000000  1
loop_
_geom_bond_atom_site_label_1
_geom_bond_atom_site_label_2
_geom_bond_distance
_geom_bond_site_symmetry_2
Ce0 Sb0 3.058998 1_454
Ce0 Sb0 3.058998 1_555
Ce1 Sb0 3.151635 1_554
Ce1 Sb0 3.151635 1_565
Ce2 Sb0 3.151635 1_565
Ce2 Sb0 3.151635 1_554
As0 Ce2 2.985684 1_566
As0 Ce2 2.985684 1_555
As0 Ce0 3.009397 1_566
As0 Ce0 3.009397 1_555
As0 Ce1 3.065425 1_455
As0 Ce1 3.065425 1_556
As1 Ce1 2.985684 1_545
As1 Ce1 2.985684 1_556
As1 Ce0 3.009397 1_666
As1 Ce0 3.009397 1_655
As1 Ce2 3.065425 1_656
As1 Ce2 3.065425 1_555
