# generated using pymatgen
data_CaCr2(PO5)2
_symmetry_space_group_name_H-M   'P 1'
_cell_length_a   9.88648237
_cell_length_b   8.76764937
_cell_length_c   6.86859664
_cell_angle_alpha   77.38393399
_cell_angle_beta   59.93069579
_cell_angle_gamma   42.68537022
_symmetry_Int_Tables_number   1
_chemical_formula_structural   CaCr2(PO5)2
_chemical_formula_sum   'Ca2 Cr4 P4 O20'
_cell_volume   337.73414895
_cell_formula_units_Z   2
loop_
 _symmetry_equiv_pos_site_id
 _symmetry_equiv_pos_as_xyz
  1  'x, y, z'
loop_
 _atom_site_type_symbol
 _atom_site_label
 _atom_site_symmetry_multiplicity
 _atom_site_fract_x
 _atom_site_fract_y
 _atom_site_fract_z
 _atom_site_occupancy
  Ca  Ca0  1  0.25000000  0.25000000  0.25000000  1
  Ca  Ca1  1  0.00000000  0.00000000  0.00000000  1
  Cr  Cr0  1  0.62500000  0.62500000  0.12500000  1
  Cr  Cr1  1  0.62500000  0.12500000  0.62500000  1
  Cr  Cr2  1  0.62500000  0.62500000  0.62500000  1
  Cr  Cr3  1  0.12500000  0.62500000  0.62500000  1
  P  P0  1  0.79202300  0.79202300  0.20797700  1
  P  P1  1  0.45797700  0.45797700  0.04202300  1
  P  P2  1  0.20797700  0.20797700  0.79202300  1
  P  P3  1  0.04202300  0.04202300  0.45797700  1
  O  O0  1  0.97079900  0.32959500  0.00657900  1
  O  O1  1  0.41392600  0.41392600  0.58607400  1
  O  O2  1  0.89468000  0.07451600  0.39100500  1
  O  O3  1  0.24342100  0.55697300  0.27920100  1
  O  O4  1  0.32959500  0.97079900  0.69302700  1
  O  O5  1  0.35532000  0.17548400  0.85899500  1
  O  O6  1  0.83607400  0.83607400  0.66392600  1
  O  O7  1  0.58607400  0.58607400  0.41392600  1
  O  O8  1  0.66392600  0.66392600  0.83607400  1
  O  O9  1  0.27920100  0.92040500  0.24342100  1
  O  O10  1  0.69302700  0.00657900  0.32959500  1
  O  O11  1  0.55697300  0.24342100  0.92040500  1
  O  O12  1  0.00657900  0.69302700  0.97079900  1
  O  O13  1  0.07451600  0.89468000  0.63979900  1
  O  O14  1  0.61020100  0.85899500  0.17548400  1
  O  O15  1  0.39100500  0.63979900  0.89468000  1
  O  O16  1  0.85899500  0.61020100  0.35532000  1
  O  O17  1  0.63979900  0.39100500  0.07451600  1
  O  O18  1  0.92040500  0.27920100  0.55697300  1
  O  O19  1  0.17548400  0.35532000  0.61020100  1
loop_
_geom_bond_atom_site_label_1
_geom_bond_atom_site_label_2
_geom_bond_distance
_geom_bond_site_symmetry_2
Ca0 O16 2.384921 1_455
Ca0 O19 2.384921 1_555
Ca0 O14 2.384921 1_545
Ca0 O5 2.384921 1_554
Ca0 O3 2.693257 1_555
Ca0 O11 2.693257 1_554
Ca0 O18 2.693257 1_455
Ca0 O9 2.693257 1_545
Ca1 O2 2.384921 1_455
Ca1 O13 2.384921 1_544
Ca1 O17 2.384921 1_455
Ca1 O15 2.384921 1_544
Ca1 O0 2.693257 1_455
Ca1 O4 2.693257 1_544
Ca1 O10 2.693257 1_455
Ca1 O12 2.693257 1_544
Cr0 O7 1.826142 1_555
Cr0 O8 1.826142 1_554
Cr0 O14 2.041880 1_555
Cr0 O17 2.041880 1_555
Cr0 O9 2.042899 1_555
Cr0 O0 2.042899 1_555
Cr1 O1 1.826142 1_555
Cr1 O6 1.826142 1_545
Cr1 O5 2.041880 1_555
Cr1 O2 2.041880 1_555
Cr1 O11 2.042899 1_555
Cr1 O10 2.042899 1_555
Cr2 O8 1.826142 1_555
Cr2 O7 1.826142 1_555
Cr2 O16 2.041880 1_555
Cr2 O15 2.041880 1_555
Cr2 O18 2.042899 1_555
Cr2 O4 2.042899 1_555
Cr3 O1 1.826142 1_555
Cr3 O6 1.826142 1_455
Cr3 O19 2.041880 1_555
Cr3 O13 2.041880 1_555
Cr3 O12 2.042899 1_555
Cr3 O3 2.042899 1_555
O0 P2 1.534541 1_654
O2 P3 1.555275 1_655
O3 P1 1.534541 1_555
O4 P2 1.534541 1_565
O5 P2 1.555275 1_555
O9 P3 1.534541 1_565
O10 P0 1.534541 1_545
O11 P1 1.534541 1_556
O12 P0 1.534541 1_456
O13 P3 1.555275 1_565
O14 P0 1.555275 1_555
O15 P1 1.555275 1_556
O16 P0 1.555275 1_555
O17 P1 1.555275 1_555
O18 P3 1.534541 1_655
O19 P2 1.555275 1_555
