# generated using pymatgen
data_Ho3Ir
_symmetry_space_group_name_H-M   'P 1'
_cell_length_a   6.39435358
_cell_length_b   7.17291610
_cell_length_c   9.11776631
_cell_angle_alpha   90.00000000
_cell_angle_beta   90.00000000
_cell_angle_gamma   90.00000000
_symmetry_Int_Tables_number   1
_chemical_formula_structural   Ho3Ir
_chemical_formula_sum   'Ho12 Ir4'
_cell_volume   418.19694431
_cell_formula_units_Z   4
loop_
 _symmetry_equiv_pos_site_id
 _symmetry_equiv_pos_as_xyz
  1  'x, y, z'
loop_
 _atom_site_type_symbol
 _atom_site_label
 _atom_site_symmetry_multiplicity
 _atom_site_fract_x
 _atom_site_fract_y
 _atom_site_fract_z
 _atom_site_occupancy
  Ho  Ho0  1  0.32237611  0.67529772  0.06295306  1
  Ho  Ho1  1  0.17762389  0.17529772  0.43704694  1
  Ho  Ho2  1  0.67762489  0.32470228  0.56295306  1
  Ho  Ho3  1  0.82237511  0.82470228  0.93704694  1
  Ho  Ho4  1  0.67762489  0.32470228  0.93704694  1
  Ho  Ho5  1  0.82237511  0.82470228  0.56295306  1
  Ho  Ho6  1  0.32237611  0.67529772  0.43704694  1
  Ho  Ho7  1  0.17762389  0.17529772  0.06295306  1
  Ho  Ho8  1  0.87267082  0.53665089  0.25000000  1
  Ho  Ho9  1  0.62732918  0.03665089  0.25000000  1
  Ho  Ho10  1  0.12732918  0.46334911  0.75000000  1
  Ho  Ho11  1  0.37267082  0.96334911  0.75000000  1
  Ir  Ir0  1  0.03760968  0.88635676  0.25000000  1
  Ir  Ir1  1  0.46239032  0.38635676  0.25000000  1
  Ir  Ir2  1  0.96239032  0.11364324  0.75000000  1
  Ir  Ir3  1  0.53760968  0.61364324  0.75000000  1
loop_
_geom_bond_atom_site_label_1
_geom_bond_atom_site_label_2
_geom_bond_distance
_geom_bond_site_symmetry_2
Ho0 Ir1 2.829414 1_555
Ho0 Ir0 2.918244 1_555
Ho0 Ir3 3.198719 1_554
Ho1 Ir0 2.829414 1_545
Ho1 Ir1 2.918244 1_555
Ho1 Ir2 3.198719 1_455
Ho2 Ir3 2.829416 1_555
Ho2 Ir2 2.918240 1_555
Ho2 Ir1 3.198722 1_555
Ho3 Ir2 2.829416 1_565
Ho3 Ir3 2.918240 1_555
Ho3 Ir0 3.198722 1_656
Ho4 Ir3 2.829416 1_555
Ho4 Ir2 2.918240 1_555
Ho4 Ir1 3.198722 1_556
Ho5 Ir2 2.829416 1_565
Ho5 Ir3 2.918240 1_555
Ho5 Ir0 3.198722 1_655
Ho6 Ir1 2.829414 1_555
Ho6 Ir0 2.918244 1_555
Ho6 Ir3 3.198719 1_555
Ho7 Ir0 2.829414 1_545
Ho7 Ir1 2.918244 1_555
Ho7 Ir2 3.198719 1_454
Ho8 Ir0 2.721115 1_655
Ho8 Ir1 2.836340 1_555
Ho9 Ir1 2.721115 1_555
Ho9 Ir0 2.836340 1_645
Ho10 Ir2 2.721115 1_455
Ho10 Ir3 2.836340 1_555
Ho11 Ir3 2.721115 1_555
Ho11 Ir2 2.836340 1_465
