# generated using pymatgen
data_Hg8Br3O4
_symmetry_space_group_name_H-M   'P 1'
_cell_length_a   6.37154252
_cell_length_b   6.94871517
_cell_length_c   31.68044603
_cell_angle_alpha   83.68968203
_cell_angle_beta   90.00000000
_cell_angle_gamma   90.00000000
_symmetry_Int_Tables_number   1
_chemical_formula_structural   Hg8Br3O4
_chemical_formula_sum   'Hg32 Br12 O16'
_cell_volume   1394.12291792
_cell_formula_units_Z   4
loop_
 _symmetry_equiv_pos_site_id
 _symmetry_equiv_pos_as_xyz
  1  'x, y, z'
loop_
 _atom_site_type_symbol
 _atom_site_label
 _atom_site_symmetry_multiplicity
 _atom_site_fract_x
 _atom_site_fract_y
 _atom_site_fract_z
 _atom_site_occupancy
  Hg  Hg0  1  0.12840709  0.86182399  0.49287500  1
  Hg  Hg1  1  0.37159291  0.86182399  0.99287500  1
  Hg  Hg2  1  0.87159291  0.13817601  0.50712500  1
  Hg  Hg3  1  0.62840709  0.13817601  0.00712500  1
  Hg  Hg4  1  0.67186047  0.59155883  0.46085857  1
  Hg  Hg5  1  0.82813953  0.59155883  0.96085857  1
  Hg  Hg6  1  0.32813953  0.40844117  0.53914143  1
  Hg  Hg7  1  0.17186047  0.40844117  0.03914143  1
  Hg  Hg8  1  0.67571103  0.82416917  0.39169337  1
  Hg  Hg9  1  0.82428897  0.82416917  0.89169337  1
  Hg  Hg10  1  0.32428897  0.17583083  0.60830663  1
  Hg  Hg11  1  0.17571103  0.17583083  0.10830663  1
  Hg  Hg12  1  0.12965842  0.45373080  0.43018554  1
  Hg  Hg13  1  0.37034158  0.45373080  0.93018554  1
  Hg  Hg14  1  0.87034158  0.54626920  0.56981446  1
  Hg  Hg15  1  0.62965842  0.54626920  0.06981446  1
  Hg  Hg16  1  0.92626981  0.27337189  0.37621695  1
  Hg  Hg17  1  0.57373019  0.27337189  0.87621695  1
  Hg  Hg18  1  0.07373019  0.72662811  0.62378305  1
  Hg  Hg19  1  0.42626981  0.72662811  0.12378305  1
  Hg  Hg20  1  0.91115139  0.00355620  0.28797155  1
  Hg  Hg21  1  0.58884861  0.00355620  0.78797155  1
  Hg  Hg22  1  0.08884861  0.99644380  0.71202845  1
  Hg  Hg23  1  0.41115139  0.99644380  0.21202845  1
  Hg  Hg24  1  0.13119430  0.57212547  0.27973846  1
  Hg  Hg25  1  0.36880570  0.57212547  0.77973846  1
  Hg  Hg26  1  0.86880570  0.42787453  0.72026154  1
  Hg  Hg27  1  0.63119430  0.42787453  0.22026154  1
  Hg  Hg28  1  0.43035656  0.18987473  0.32197646  1
  Hg  Hg29  1  0.06964344  0.18987473  0.82197646  1
  Hg  Hg30  1  0.56964344  0.81012527  0.67802354  1
  Hg  Hg31  1  0.93035656  0.81012527  0.17802354  1
  Br  Br0  1  0.50091711  0.17288609  0.44331362  1
  Br  Br1  1  0.99908289  0.17288609  0.94331362  1
  Br  Br2  1  0.49908289  0.82711391  0.55668638  1
  Br  Br3  1  0.00091711  0.82711391  0.05668638  1
  Br  Br4  1  0.18387663  0.84249418  0.37155571  1
  Br  Br5  1  0.31612337  0.84249418  0.87155571  1
  Br  Br6  1  0.81612337  0.15750582  0.62844429  1
  Br  Br7  1  0.68387663  0.15750582  0.12844429  1
  Br  Br8  1  0.64819286  0.59769220  0.31242892  1
  Br  Br9  1  0.85180714  0.59769220  0.81242892  1
  Br  Br10  1  0.35180714  0.40230780  0.68757108  1
  Br  Br11  1  0.14819286  0.40230780  0.18757108  1
  O  O0  1  0.27471066  0.59324138  0.48004782  1
  O  O1  1  0.22528934  0.59324138  0.98004782  1
  O  O2  1  0.72528934  0.40675862  0.51995218  1
  O  O3  1  0.77471066  0.40675862  0.01995218  1
  O  O4  1  0.72364529  0.07695795  0.34218219  1
  O  O5  1  0.77635471  0.07695795  0.84218219  1
  O  O6  1  0.27635471  0.92304205  0.65781781  1
  O  O7  1  0.22364529  0.92304205  0.15781781  1
  O  O8  1  0.10871403  0.84907702  0.25012171  1
  O  O9  1  0.39128597  0.84907702  0.75012171  1
  O  O10  1  0.89128597  0.15092298  0.74987829  1
  O  O11  1  0.60871403  0.15092298  0.24987829  1
  O  O12  1  0.13198582  0.29078243  0.30695254  1
  O  O13  1  0.36801418  0.29078243  0.80695254  1
  O  O14  1  0.86801418  0.70921757  0.69304746  1
  O  O15  1  0.63198582  0.70921757  0.19304746  1
loop_
_geom_bond_atom_site_label_1
_geom_bond_atom_site_label_2
_geom_bond_distance
_geom_bond_site_symmetry_2
Hg0 O0 2.164233 1_555
Hg1 O1 2.164233 1_555
Hg2 O2 2.164233 1_555
Hg3 O3 2.164233 1_555
Hg4 O2 2.177429 1_555
Hg4 O0 2.602784 1_555
Hg5 O3 2.177429 1_556
Hg5 O1 2.602784 1_655
Hg6 O0 2.177429 1_555
Hg6 O2 2.602784 1_555
Hg7 O1 2.177429 1_554
Hg7 O3 2.602784 1_455
Hg8 O4 2.243525 1_565
Hg9 O5 2.243525 1_565
Hg10 O6 2.243525 1_545
Hg11 O7 2.243525 1_545
Hg12 O0 2.150787 1_555
Hg13 O1 2.150787 1_555
Hg14 O2 2.150787 1_555
Hg15 O3 2.150787 1_555
Hg16 O4 2.239553 1_555
Hg16 O12 2.547422 1_655
Hg17 O5 2.239553 1_555
Hg17 O13 2.547422 1_555
Hg18 O6 2.239553 1_555
Hg18 O14 2.547422 1_455
Hg19 O7 2.239553 1_555
Hg19 O15 2.547422 1_555
Hg20 O8 2.111296 1_645
Hg20 O4 2.197623 1_555
Hg20 O11 2.438572 1_555
Hg20 O12 2.566838 1_655
Hg21 O9 2.111296 1_545
Hg21 O5 2.197623 1_555
Hg21 O10 2.438572 1_555
Hg21 O13 2.566838 1_555
Hg22 O10 2.111296 1_465
Hg22 O6 2.197623 1_555
Hg22 O9 2.438572 1_555
Hg22 O14 2.566838 1_455
Hg23 O11 2.111296 1_565
Hg23 O7 2.197623 1_555
Hg23 O8 2.438572 1_555
Hg23 O15 2.566838 1_555
Hg24 O12 2.048106 1_555
Hg24 O8 2.051213 1_555
Hg25 O13 2.048106 1_555
Hg25 O9 2.051213 1_555
Hg26 O14 2.048106 1_555
Hg26 O10 2.051213 1_555
Hg27 O15 2.048106 1_555
Hg27 O11 2.051213 1_555
Hg28 O12 2.063720 1_555
Hg28 O4 2.099294 1_555
Hg28 O11 2.591856 1_555
Hg29 O13 2.063720 1_555
Hg29 O5 2.099294 1_455
Hg29 O10 2.591856 1_455
Hg30 O14 2.063720 1_555
Hg30 O6 2.099294 1_555
Hg30 O9 2.591856 1_555
Hg31 O15 2.063720 1_555
Hg31 O7 2.099294 1_655
Hg31 O8 2.591856 1_655
Br0 Hg12 3.065696 1_555
Br0 Hg2 3.100925 1_555
Br0 Hg4 3.211601 1_555
Br0 Hg8 3.264568 1_545
Br1 Hg13 3.065696 1_655
Br1 Hg3 3.100925 1_556
Br1 Hg5 3.211601 1_555
Br1 Hg9 3.264568 1_545
Br2 Hg14 3.065696 1_555
Br2 Hg0 3.100925 1_555
Br2 Hg6 3.211601 1_555
Br2 Hg10 3.264568 1_565
Br3 Hg15 3.065696 1_455
Br3 Hg1 3.100925 1_554
Br3 Hg7 3.211601 1_555
Br3 Hg11 3.264568 1_565
Br4 Hg12 3.124728 1_555
Br4 Hg28 3.150654 1_565
Br4 Hg8 3.197767 1_555
Br4 Hg20 3.260741 1_465
Br4 Hg8 3.299803 1_455
Br5 Hg13 3.124728 1_555
Br5 Hg29 3.150654 1_565
Br5 Hg9 3.197767 1_455
Br5 Hg21 3.260741 1_565
Br5 Hg9 3.299803 1_555
Br6 Hg14 3.124728 1_555
Br6 Hg30 3.150654 1_545
Br6 Hg10 3.197767 1_555
Br6 Hg22 3.260741 1_645
Br6 Hg10 3.299803 1_655
Br7 Hg15 3.124728 1_555
Br7 Hg31 3.150654 1_545
Br7 Hg11 3.197767 1_655
Br7 Hg23 3.260741 1_545
Br7 Hg11 3.299803 1_555
Br8 Hg8 3.111568 1_555
Br8 Hg28 3.140055 1_555
Br9 Hg9 3.111568 1_555
Br9 Hg29 3.140055 1_655
Br10 Hg10 3.111568 1_555
Br10 Hg30 3.140055 1_555
Br11 Hg11 3.111568 1_555
Br11 Hg31 3.140055 1_455
