# generated using pymatgen
data_NaNp3FeF15
_symmetry_space_group_name_H-M   'P 1'
_cell_length_a   9.83193765
_cell_length_b   9.82940211
_cell_length_c   13.16974553
_cell_angle_alpha   89.99999998
_cell_angle_beta   90.03686355
_cell_angle_gamma   119.99146201
_symmetry_Int_Tables_number   1
_chemical_formula_structural   NaNp3FeF15
_chemical_formula_sum   'Na4 Np12 Fe4 F60'
_cell_volume   1102.32960372
_cell_formula_units_Z   4
loop_
 _symmetry_equiv_pos_site_id
 _symmetry_equiv_pos_as_xyz
  1  'x, y, z'
loop_
 _atom_site_type_symbol
 _atom_site_label
 _atom_site_symmetry_multiplicity
 _atom_site_fract_x
 _atom_site_fract_y
 _atom_site_fract_z
 _atom_site_occupancy
  Na  Na0  1  0.99979852  0.00054209  0.49989503  1
  Na  Na1  1  0.99979852  0.99925643  0.99989503  1
  Na  Na2  1  0.33360591  0.66665202  0.65834568  1
  Na  Na3  1  0.33360591  0.66695388  0.15834568  1
  Np  Np0  1  0.68246328  0.60090107  0.60175528  1
  Np  Np1  1  0.39978303  0.08178416  0.60109526  1
  Np  Np2  1  0.91899492  0.31778516  0.60132635  1
  Np  Np3  1  0.68246328  0.08156221  0.10175528  1
  Np  Np4  1  0.91899492  0.60120976  0.10132635  1
  Np  Np5  1  0.39978303  0.31799887  0.10109526  1
  Np  Np6  1  0.31991921  0.39827031  0.39753777  1
  Np  Np7  1  0.60184043  0.92210189  0.39802128  1
  Np  Np8  1  0.07875004  0.68042394  0.39803517  1
  Np  Np9  1  0.31991921  0.92164890  0.89753777  1
  Np  Np10  1  0.07875004  0.39832610  0.89803517  1
  Np  Np11  1  0.60184043  0.67973855  0.89802128  1
  Fe  Fe0  1  0.00067454  0.00073857  0.74977759  1
  Fe  Fe1  1  0.00067454  0.99993596  0.24977759  1
  Fe  Fe2  1  0.66785140  0.33639715  0.35325620  1
  Fe  Fe3  1  0.66785140  0.33145425  0.85325620  1
  F  F0  1  0.31440678  0.88105299  0.71831486  1
  F  F1  1  0.11958830  0.43394710  0.71798644  1
  F  F2  1  0.56645152  0.68555545  0.71786821  1
  F  F3  1  0.31440678  0.43335380  0.21831486  1
  F  F4  1  0.56645152  0.88089608  0.21786821  1
  F  F5  1  0.11958830  0.68564120  0.21798644  1
  F  F6  1  0.69067799  0.15096806  0.28780973  1
  F  F7  1  0.85065357  0.54280998  0.28645654  1
  F  F8  1  0.46043308  0.30771287  0.28692578  1
  F  F9  1  0.69067799  0.53970993  0.78780973  1
  F  F10  1  0.46043308  0.15272021  0.78692578  1
  F  F11  1  0.85065357  0.30784359  0.78645654  1
  F  F12  1  0.19115055  0.87960305  0.52005483  1
  F  F13  1  0.12044318  0.31174012  0.51956449  1
  F  F14  1  0.68804596  0.80853676  0.51961368  1
  F  F15  1  0.19115055  0.31154750  0.02005483  1
  F  F16  1  0.68804596  0.87950920  0.01961368  1
  F  F17  1  0.12044318  0.80870306  0.01956449  1
  F  F18  1  0.80867834  0.11940683  0.48053432  1
  F  F19  1  0.88009170  0.68821277  0.48060937  1
  F  F20  1  0.31085733  0.19150670  0.48034500  1
  F  F21  1  0.80867834  0.68927151  0.98053432  1
  F  F22  1  0.31085733  0.11935063  0.98034500  1
  F  F23  1  0.88009170  0.19187893  0.98060937  1
  F  F24  1  0.89330430  0.80907287  0.65996627  1
  F  F25  1  0.19150690  0.08515652  0.66016762  1
  F  F26  1  0.91629008  0.10604360  0.65929543  1
  F  F27  1  0.89330430  0.08423143  0.15996627  1
  F  F28  1  0.91629008  0.81024648  0.15929543  1
  F  F29  1  0.19150690  0.10635038  0.16016762  1
  F  F30  1  0.10658950  0.18827084  0.34138522  1
  F  F31  1  0.81146528  0.91943593  0.34077418  1
  F  F32  1  0.07975765  0.89155598  0.34154576  1
  F  F33  1  0.10658950  0.91831866  0.84138522  1
  F  F34  1  0.07975765  0.18820167  0.84154576  1
  F  F35  1  0.81146528  0.89202935  0.84077418  1
  F  F36  1  0.11059022  0.57945595  0.54661275  1
  F  F37  1  0.42021813  0.53104514  0.54620883  1
  F  F38  1  0.46849919  0.88843466  0.54695083  1
  F  F39  1  0.11059022  0.53113427  0.04661275  1
  F  F40  1  0.46849919  0.58006453  0.04695083  1
  F  F41  1  0.42021813  0.88917299  0.04620883  1
  F  F42  1  0.86255719  0.40366342  0.44651793  1
  F  F43  1  0.59491503  0.45905113  0.44686472  1
  F  F44  1  0.53906346  0.13359721  0.44725552  1
  F  F45  1  0.86255719  0.45889377  0.94651793  1
  F  F46  1  0.53906346  0.40546626  0.94725552  1
  F  F47  1  0.59491503  0.13586389  0.94686472  1
  F  F48  1  0.51260197  0.34190745  0.63366240  1
  F  F49  1  0.65857234  0.17099911  0.63422929  1
  F  F50  1  0.82937886  0.48716674  0.63441128  1
  F  F51  1  0.51260197  0.17069453  0.13366240  1
  F  F52  1  0.82937886  0.34221212  0.13441128  1
  F  F53  1  0.65857234  0.48757323  0.13422929  1
  F  F54  1  0.48865334  0.65941815  0.36275540  1
  F  F55  1  0.34031810  0.82886410  0.36295699  1
  F  F56  1  0.17055887  0.51126485  0.36331071  1
  F  F57  1  0.48865334  0.82923519  0.86275540  1
  F  F58  1  0.17055887  0.65929402  0.86331071  1
  F  F59  1  0.34031810  0.51145400  0.86295699  1
loop_
_geom_bond_atom_site_label_1
_geom_bond_atom_site_label_2
_geom_bond_distance
_geom_bond_site_symmetry_2
F0 Np1 2.307955 1_565
F0 Na2 2.344900 1_555
F0 Np9 2.389872 1_555
F1 Np2 2.301878 1_455
F1 Na2 2.338142 1_555
F1 Np10 2.401470 1_555
F2 Np0 2.298457 1_555
F2 Na2 2.337187 1_555
F2 Np11 2.402550 1_555
F3 Np5 2.307955 1_555
F3 Na3 2.344900 1_555
F3 Np6 2.389872 1_555
F4 Np3 2.298457 1_565
F4 Na3 2.337187 1_555
F4 Np7 2.402550 1_555
F5 Np4 2.301878 1_455
F5 Na3 2.338142 1_555
F5 Np8 2.401470 1_555
F6 Fe2 2.127097 1_555
F6 Np7 2.442875 1_545
F6 Np3 2.533875 1_555
F7 Fe2 2.115921 1_555
F7 Np8 2.445695 1_655
F7 Np4 2.518316 1_555
F8 Fe2 2.103403 1_555
F8 Np6 2.460691 1_555
F8 Np5 2.532524 1_555
F9 Fe3 2.127098 1_555
F9 Np11 2.442875 1_555
F9 Np0 2.533875 1_555
F10 Fe3 2.103404 1_555
F10 Np9 2.460691 1_545
F10 Np1 2.532524 1_555
F11 Fe3 2.115921 1_555
F11 Np10 2.445695 1_655
F11 Np2 2.518316 1_555
F12 Np1 2.284278 1_565
F12 Np8 2.339085 1_555
F12 Na0 2.694146 1_465
F13 Np2 2.281726 1_455
F13 Np6 2.342837 1_555
F13 Na0 2.683857 1_455
F14 Np0 2.286212 1_555
F14 Np7 2.339416 1_555
F14 Na0 2.691109 1_565
F15 Np5 2.284278 1_555
F15 Np10 2.339085 1_554
F15 Na1 2.694146 1_444
F16 Np3 2.286212 1_565
F16 Np11 2.339416 1_554
F16 Na1 2.691108 1_554
F17 Np4 2.281727 1_455
F17 Np9 2.342837 1_554
F17 Na1 2.683857 1_454
F18 Np7 2.265368 1_545
F18 Np2 2.322218 1_555
F18 Na0 2.674944 1_555
F19 Np8 2.270613 1_655
F19 Np0 2.322584 1_555
F19 Na0 2.694807 1_565
F20 Np6 2.268663 1_555
F20 Np1 2.323233 1_555
F20 Na0 2.684172 1_455
F21 Np11 2.265368 1_555
F21 Np4 2.322218 1_556
F21 Na1 2.674944 1_555
F22 Np9 2.268663 1_545
F22 Np5 2.323234 1_556
F22 Na1 2.684172 1_445
F23 Np10 2.270613 1_655
F23 Np3 2.322584 1_556
F23 Na1 2.694807 1_545
F24 Fe0 2.018119 1_665
F24 Np0 2.197547 1_555
F24 Na0 2.667431 1_565
F25 Fe0 2.011955 1_555
F25 Np1 2.206707 1_555
F25 Na0 2.669709 1_455
F26 Fe0 2.009228 1_655
F26 Np2 2.204544 1_555
F26 Na0 2.647616 1_555
F27 Fe1 2.018119 1_645
F27 Np3 2.197546 1_555
F27 Na1 2.667431 1_544
F28 Fe1 2.009228 1_655
F28 Np4 2.204544 1_555
F28 Na1 2.647616 1_554
F29 Fe1 2.011955 1_545
F29 Np5 2.206708 1_555
F29 Na1 2.669709 1_444
F30 Fe1 2.009491 1_545
F30 Np6 2.208301 1_555
F30 Na0 2.632693 1_455
F31 Fe1 2.013510 1_655
F31 Np7 2.207462 1_555
F31 Na0 2.641009 1_565
F32 Fe1 2.006733 1_555
F32 Np8 2.199976 1_555
F32 Na0 2.637935 1_465
F33 Fe0 2.009491 1_565
F33 Np9 2.208300 1_555
F33 Na1 2.632693 1_455
F34 Fe0 2.006734 1_555
F34 Np10 2.199976 1_555
F34 Na1 2.637935 1_445
F35 Fe0 2.013510 1_665
F35 Np11 2.207462 1_555
F35 Na1 2.641009 1_555
F36 Np8 2.285077 1_555
F36 Na2 2.413450 1_555
F36 Np2 2.416842 1_455
F37 Np6 2.284774 1_555
F37 Na2 2.412315 1_555
F37 Np0 2.425337 1_555
F38 Np7 2.290145 1_555
F38 Na2 2.403238 1_555
F38 Np1 2.420982 1_565
F39 Np10 2.285077 1_554
F39 Na3 2.413450 1_555
F39 Np4 2.416842 1_455
F40 Np11 2.290145 1_554
F40 Na3 2.403238 1_555
F40 Np5 2.420982 1_555
F41 Np9 2.284774 1_554
F41 Na3 2.412315 1_555
F41 Np3 2.425337 1_565
F42 Fe2 2.083740 1_555
F42 Np2 2.375699 1_555
F42 Np8 2.558741 1_655
F43 Fe2 2.086388 1_555
F43 Np0 2.375698 1_555
F43 Np6 2.544012 1_555
F44 Fe2 2.141978 1_555
F44 Np1 2.354942 1_555
F44 Np7 2.531087 1_545
F45 Fe3 2.083740 1_555
F45 Np4 2.375699 1_556
F45 Np10 2.558741 1_655
F46 Fe3 2.141978 1_555
F46 Np5 2.354942 1_556
F46 Np11 2.531087 1_555
F47 Fe3 2.086388 1_555
F47 Np3 2.375698 1_556
F47 Np9 2.544013 1_545
F48 Np1 2.261822 1_555
F48 Np0 2.279688 1_555
F49 Np2 2.265733 1_555
F49 Np1 2.280632 1_555
F50 Np0 2.266019 1_555
F50 Np2 2.281495 1_555
F51 Np5 2.261822 1_555
F51 Np3 2.279688 1_555
F52 Np3 2.266019 1_555
F52 Np4 2.281496 1_555
F53 Np4 2.265733 1_555
F53 Np5 2.280632 1_555
F54 Np7 2.290778 1_555
F54 Np6 2.301035 1_555
F55 Np8 2.281716 1_555
F55 Np7 2.303733 1_555
F56 Np6 2.285391 1_555
F56 Np8 2.299920 1_555
F57 Np11 2.290777 1_555
F57 Np9 2.301034 1_555
F58 Np9 2.285392 1_555
F58 Np10 2.299920 1_555
F59 Np10 2.281716 1_555
F59 Np11 2.303733 1_555
