# generated using pymatgen
data_Te2Mo3WSe6
_symmetry_space_group_name_H-M   'P 1'
_cell_length_a   3.37972327
_cell_length_b   3.37972327
_cell_length_c   38.42081500
_cell_angle_alpha   90.00000000
_cell_angle_beta   90.00000000
_cell_angle_gamma   119.99998573
_symmetry_Int_Tables_number   1
_chemical_formula_structural   Te2Mo3WSe6
_chemical_formula_sum   'Te2 Mo3 W1 Se6'
_cell_volume   380.06646485
_cell_formula_units_Z   1
loop_
 _symmetry_equiv_pos_site_id
 _symmetry_equiv_pos_as_xyz
  1  'x, y, z'
loop_
 _atom_site_type_symbol
 _atom_site_label
 _atom_site_symmetry_multiplicity
 _atom_site_fract_x
 _atom_site_fract_y
 _atom_site_fract_z
 _atom_site_occupancy
  Te  Te0  1  0.00000000  0.00000000  0.70642500  1
  Te  Te1  1  0.00000000  0.00000000  0.60867200  1
  Mo  Mo0  1  0.00000000  0.00000000  0.09389800  1
  Mo  Mo1  1  0.33333300  0.66666700  0.28179200  1
  Mo  Mo2  1  0.33333300  0.66666700  0.65756000  1
  W  W0  1  0.00000000  0.00000000  0.46965100  1
  Se  Se0  1  0.00000000  0.00000000  0.32483200  1
  Se  Se1  1  0.33333300  0.66666700  0.05089600  1
  Se  Se2  1  0.33333300  0.66666700  0.42646900  1
  Se  Se3  1  0.33333300  0.66666700  0.13695200  1
  Se  Se4  1  0.33333300  0.66666700  0.51284000  1
  Se  Se5  1  0.00000000  0.00000000  0.23876200  1
loop_
_geom_bond_atom_site_label_1
_geom_bond_atom_site_label_2
_geom_bond_distance
_geom_bond_site_symmetry_2
Mo0 Se1 2.556790 1_545
Mo0 Se1 2.556792 1_445
Mo0 Se1 2.556792 1_555
Mo0 Se3 2.558081 1_545
Mo0 Se3 2.558084 1_445
Mo0 Se3 2.558084 1_555
Mo1 Se5 2.557485 1_565
Mo1 Se5 2.557488 1_665
Mo1 Se5 2.557488 1_555
Mo1 Se0 2.557733 1_565
Mo1 Se0 2.557736 1_665
Mo1 Se0 2.557736 1_555
Mo2 Te0 2.707814 1_565
Mo2 Te0 2.707816 1_555
Mo2 Te0 2.707816 1_665
Mo2 Te1 2.708427 1_565
Mo2 Te1 2.708429 1_665
Mo2 Te1 2.708429 1_555
Se2 W0 2.561264 1_565
Se2 W0 2.561267 1_555
Se2 W0 2.561267 1_665
Se4 W0 2.561438 1_565
Se4 W0 2.561441 1_665
Se4 W0 2.561441 1_555
