# generated using pymatgen
data_TaMn2Ga
_symmetry_space_group_name_H-M   'P 1'
_cell_length_a   4.21203018
_cell_length_b   4.21203018
_cell_length_c   4.21203018
_cell_angle_alpha   60.00000000
_cell_angle_beta   60.00000000
_cell_angle_gamma   60.00000000
_symmetry_Int_Tables_number   1
_chemical_formula_structural   TaMn2Ga
_chemical_formula_sum   'Ta1 Mn2 Ga1'
_cell_volume   52.83958815
_cell_formula_units_Z   1
loop_
 _symmetry_equiv_pos_site_id
 _symmetry_equiv_pos_as_xyz
  1  'x, y, z'
loop_
 _atom_site_type_symbol
 _atom_site_label
 _atom_site_symmetry_multiplicity
 _atom_site_fract_x
 _atom_site_fract_y
 _atom_site_fract_z
 _atom_site_occupancy
  Ta  Ta0  1  0.75000000  0.75000000  0.75000000  1
  Mn  Mn0  1  0.49999900  0.49999900  0.49999900  1
  Mn  Mn1  1  -0.00000000  0.00000000  -0.00000000  1
  Ga  Ga0  1  0.25000000  0.25000000  0.25000000  1
loop_
_geom_bond_atom_site_label_1
_geom_bond_atom_site_label_2
_geom_bond_distance
_geom_bond_site_symmetry_2
Mn0 Ta0 2.579328 1_455
Mn0 Ta0 2.579328 1_545
Mn0 Ta0 2.579328 1_554
Mn0 Ta0 2.579341 1_555
Mn1 Ta0 2.579331 1_454
Mn1 Ta0 2.579331 1_444
Mn1 Ta0 2.579331 1_445
Mn1 Ta0 2.579331 1_544
Ga0 Mn0 2.579321 1_555
Ga0 Mn1 2.579331 1_555
Ga0 Mn1 2.579331 1_556
Ga0 Mn1 2.579331 1_565
Ga0 Mn1 2.579331 1_655
Ga0 Mn0 2.579335 1_545
Ga0 Mn0 2.579335 1_554
Ga0 Mn0 2.579335 1_455
Ga0 Ta0 2.978355 1_554
Ga0 Ta0 2.978355 1_455
Ga0 Ta0 2.978355 1_544
Ga0 Ta0 2.978355 1_445
Ga0 Ta0 2.978355 1_454
Ga0 Ta0 2.978355 1_545
