# generated using pymatgen
data_ThV2PbO8
_symmetry_space_group_name_H-M   'P 1'
_cell_length_a   6.26121204
_cell_length_b   6.26121204
_cell_length_c   6.26121204
_cell_angle_alpha   106.07605109
_cell_angle_beta   106.07605109
_cell_angle_gamma   116.49847088
_symmetry_Int_Tables_number   1
_chemical_formula_structural   ThV2PbO8
_chemical_formula_sum   'Th1 V2 Pb1 O8'
_cell_volume   186.79595298
_cell_formula_units_Z   1
loop_
 _symmetry_equiv_pos_site_id
 _symmetry_equiv_pos_as_xyz
  1  'x, y, z'
loop_
 _atom_site_type_symbol
 _atom_site_label
 _atom_site_symmetry_multiplicity
 _atom_site_fract_x
 _atom_site_fract_y
 _atom_site_fract_z
 _atom_site_occupancy
  Th  Th0  1  0.25000000  0.75000000  0.50000000  1
  V  V0  1  0.75000000  0.25000000  0.50000000  1
  V  V1  1  0.50000000  0.50000000  0.00000000  1
  Pb  Pb0  1  0.00000000  0.00000000  0.00000000  1
  O  O0  1  0.92858500  0.59977600  0.67119000  1
  O  O1  1  0.47183100  0.65866800  0.81316300  1
  O  O2  1  0.84550600  0.65866800  0.18683700  1
  O  O3  1  0.92858500  0.25739500  0.32881000  1
  O  O4  1  0.34133200  0.15449400  0.81316300  1
  O  O5  1  0.74260500  0.07141500  0.67119000  1
  O  O6  1  0.40022400  0.07141500  0.32881000  1
  O  O7  1  0.34133200  0.52816900  0.18683700  1
loop_
_geom_bond_atom_site_label_1
_geom_bond_atom_site_label_2
_geom_bond_distance
_geom_bond_site_symmetry_2
O0 V0 1.745385 1_555
O0 Th0 2.479395 1_655
O0 Pb0 2.520114 1_666
O1 V1 1.752791 1_556
O1 Th0 2.433569 1_555
O1 Pb0 2.652959 1_666
O2 V1 1.752796 1_555
O2 Th0 2.433565 1_655
O2 Pb0 2.652958 1_665
O3 V0 1.745380 1_555
O3 Th0 2.479396 1_655
O3 Pb0 2.520118 1_655
O4 V1 1.752796 1_556
O4 Th0 2.433565 1_545
O4 Pb0 2.652958 1_556
O5 V0 1.745380 1_555
O5 Th0 2.479396 1_545
O5 Pb0 2.520118 1_656
O6 V0 1.745385 1_555
O6 Th0 2.479395 1_545
O6 Pb0 2.520114 1_555
O7 V1 1.752791 1_555
O7 Th0 2.433569 1_555
O7 Pb0 2.652959 1_555
