# generated using pymatgen
data_KBH4C4(N2O)4
_symmetry_space_group_name_H-M   'P 1'
_cell_length_a   10.35832871
_cell_length_b   10.74120148
_cell_length_c   11.78981900
_cell_angle_alpha   90.00000000
_cell_angle_beta   90.00000000
_cell_angle_gamma   107.34137242
_symmetry_Int_Tables_number   1
_chemical_formula_structural   KBH4C4(N2O)4
_chemical_formula_sum   'K4 B4 H16 C16 N32 O16'
_cell_volume   1252.12149195
_cell_formula_units_Z   4
loop_
 _symmetry_equiv_pos_site_id
 _symmetry_equiv_pos_as_xyz
  1  'x, y, z'
loop_
 _atom_site_type_symbol
 _atom_site_label
 _atom_site_symmetry_multiplicity
 _atom_site_fract_x
 _atom_site_fract_y
 _atom_site_fract_z
 _atom_site_occupancy
  K  K0  1  0.05897000  0.80730400  0.62827800  1
  K  K1  1  0.44103000  0.19269600  0.12827800  1
  K  K2  1  0.94103000  0.19269600  0.37172200  1
  K  K3  1  0.55897000  0.80730400  0.87172200  1
  B  B0  1  0.42783200  0.71683200  0.50932900  1
  B  B1  1  0.07216800  0.28316800  0.00932900  1
  B  B2  1  0.57216800  0.28316800  0.49067100  1
  B  B3  1  0.92783200  0.71683200  0.99067100  1
  H  H0  1  0.50732500  0.67994200  0.45358600  1
  H  H1  1  0.99267500  0.32005800  0.95358600  1
  H  H2  1  0.49267500  0.32005800  0.54641400  1
  H  H3  1  0.00732500  0.67994200  0.04641400  1
  H  H4  1  0.51291000  0.83904100  0.28934400  1
  H  H5  1  0.98709000  0.16095900  0.78934400  1
  H  H6  1  0.48709000  0.16095900  0.71065600  1
  H  H7  1  0.01291000  0.83904100  0.21065600  1
  H  H8  1  0.46893900  0.76034800  0.60138400  1
  H  H9  1  0.03106100  0.23965200  0.10138400  1
  H  H10  1  0.53106100  0.23965200  0.39861600  1
  H  H11  1  0.96893900  0.76034800  0.89861600  1
  H  H12  1  0.33036300  0.45489400  0.41331100  1
  H  H13  1  0.16963700  0.54510600  0.91331100  1
  H  H14  1  0.66963700  0.54510600  0.58668900  1
  H  H15  1  0.83036300  0.45489400  0.08668900  1
  C  C0  1  0.44072300  0.87435500  0.33650700  1
  C  C1  1  0.05927700  0.12564500  0.83650700  1
  C  C2  1  0.55927700  0.12564500  0.66349300  1
  C  C3  1  0.94072300  0.87435500  0.16349300  1
  C  C4  1  0.30851900  0.97232300  0.39239300  1
  C  C5  1  0.19148100  0.02767700  0.89239300  1
  C  C6  1  0.69148100  0.02767700  0.60760700  1
  C  C7  1  0.80851900  0.97232300  0.10760700  1
  C  C8  1  0.26729400  0.47956800  0.47777300  1
  C  C9  1  0.23270700  0.52043200  0.97777300  1
  C  C10  1  0.73270700  0.52043200  0.52222700  1
  C  C11  1  0.76729300  0.47956800  0.02222700  1
  C  C12  1  0.12014100  0.47811000  0.59656600  1
  C  C13  1  0.37985900  0.52189000  0.09656600  1
  C  C14  1  0.87985900  0.52189000  0.40343400  1
  C  C15  1  0.62014100  0.47811000  0.90343400  1
  N  N0  1  0.39048400  0.82405400  0.43881300  1
  N  N1  1  0.10951600  0.17594600  0.93881300  1
  N  N2  1  0.60951600  0.17594600  0.56118700  1
  N  N3  1  0.89048400  0.82405400  0.06118700  1
  N  N4  1  0.30417800  0.88740000  0.47591300  1
  N  N5  1  0.19582200  0.11260000  0.97591300  1
  N  N6  1  0.69582200  0.11260000  0.52408700  1
  N  N7  1  0.80417800  0.88740000  0.02408700  1
  N  N8  1  0.39106900  0.96973400  0.30422500  1
  N  N9  1  0.10893100  0.03026600  0.80422500  1
  N  N10  1  0.60893100  0.03026600  0.69577500  1
  N  N11  1  0.89106900  0.96973400  0.19577500  1
  N  N12  1  0.30003400  0.59858800  0.52817300  1
  N  N13  1  0.19996600  0.40141200  0.02817300  1
  N  N14  1  0.69996600  0.40141200  0.47182700  1
  N  N15  1  0.80003400  0.59858800  0.97182700  1
  N  N16  1  0.20457300  0.59877800  0.60598700  1
  N  N17  1  0.29542700  0.40122200  0.10598700  1
  N  N18  1  0.79542700  0.40122200  0.39401300  1
  N  N19  1  0.70457300  0.59877800  0.89401300  1
  N  N20  1  0.15239700  0.39994300  0.51871800  1
  N  N21  1  0.34760300  0.60005700  0.01871800  1
  N  N22  1  0.84760300  0.60005700  0.48128200  1
  N  N23  1  0.65239700  0.39994300  0.98128200  1
  N  N24  1  0.22502200  0.05827200  0.39584900  1
  N  N25  1  0.27497800  0.94172800  0.89584900  1
  N  N26  1  0.77497800  0.94172800  0.60415100  1
  N  N27  1  0.72502200  0.05827200  0.10415100  1
  N  N28  1  0.99923000  0.43561200  0.66489900  1
  N  N29  1  0.50077000  0.56438800  0.16489900  1
  N  N30  1  0.00077000  0.56438800  0.33510100  1
  N  N31  1  0.49923000  0.43561200  0.83510100  1
  O  O0  1  0.23334500  0.13510000  0.31531600  1
  O  O1  1  0.26665500  0.86490000  0.81531600  1
  O  O2  1  0.76665500  0.86490000  0.68468400  1
  O  O3  1  0.73334500  0.13510000  0.18468400  1
  O  O4  1  0.14717700  0.04983500  0.47801800  1
  O  O5  1  0.35282300  0.95016500  0.97801800  1
  O  O6  1  0.85282300  0.95016500  0.52198200  1
  O  O7  1  0.64717700  0.04983500  0.02198200  1
  O  O8  1  0.97577700  0.51489200  0.73247300  1
  O  O9  1  0.52422300  0.48510800  0.23247300  1
  O  O10  1  0.02422300  0.48510800  0.26752700  1
  O  O11  1  0.47577700  0.51489200  0.76752700  1
  O  O12  1  0.92528800  0.32177000  0.65066000  1
  O  O13  1  0.57471200  0.67823000  0.15066000  1
  O  O14  1  0.07471200  0.67823000  0.34934000  1
  O  O15  1  0.42528800  0.32177000  0.84934000  1
loop_
_geom_bond_atom_site_label_1
_geom_bond_atom_site_label_2
_geom_bond_distance
_geom_bond_site_symmetry_2
K0 O1 3.013299 1_555
K0 N4 3.019226 1_555
K0 O4 3.056250 1_565
K0 N16 3.061752 1_555
K0 N9 3.093138 1_565
K0 N22 3.137997 1_455
K0 O6 3.230822 1_455
K0 O8 3.240857 1_455
K0 O2 3.333136 1_455
K1 O0 3.013299 1_555
K1 N5 3.019226 1_554
K1 O5 3.056250 1_544
K1 N17 3.061752 1_555
K1 N8 3.093138 1_545
K1 N23 3.137997 1_554
K1 O7 3.230822 1_555
K1 O9 3.240857 1_555
K1 O3 3.333136 1_555
K2 O3 3.013299 1_555
K2 N6 3.019226 1_555
K2 O6 3.056250 1_545
K2 N18 3.061752 1_555
K2 N11 3.093138 1_545
K2 N20 3.137997 1_655
K2 O4 3.230822 1_655
K2 O10 3.240857 1_655
K2 O0 3.333136 1_655
K3 O2 3.013299 1_555
K3 N7 3.019226 1_556
K3 O7 3.056250 1_566
K3 N19 3.061752 1_555
K3 N10 3.093138 1_565
K3 N21 3.137997 1_556
K3 O5 3.230822 1_555
K3 O11 3.240857 1_555
K3 O1 3.333136 1_555
B0 H8 1.207907 1_555
B0 H0 1.208897 1_555
B0 N12 1.553246 1_555
B0 N0 1.559757 1_555
B1 H9 1.207907 1_555
B1 H1 1.208897 1_454
B1 N13 1.553246 1_555
B1 N1 1.559757 1_554
B2 H10 1.207907 1_555
B2 H2 1.208897 1_555
B2 N14 1.553246 1_555
B2 N2 1.559757 1_555
B3 H11 1.207907 1_555
B3 H3 1.208897 1_656
B3 N15 1.553246 1_555
B3 N3 1.559757 1_556
C0 H4 1.086854 1_555
C0 N8 1.331570 1_555
C0 N0 1.360132 1_555
C1 H5 1.086854 1_455
C1 N9 1.331570 1_555
C1 N1 1.360132 1_555
C2 H6 1.086854 1_555
C2 N10 1.331570 1_555
C2 N2 1.360132 1_555
C3 H7 1.086854 1_655
C3 N11 1.331570 1_555
C3 N3 1.360132 1_555
C4 N4 1.333882 1_555
C4 N8 1.351532 1_555
C4 N24 1.441516 1_565
C5 N5 1.333882 1_555
C5 N9 1.351532 1_555
C5 N25 1.441516 1_545
C6 N6 1.333882 1_555
C6 N10 1.351532 1_555
C6 N26 1.441516 1_545
C7 N7 1.333882 1_555
C7 N11 1.351532 1_555
C7 N27 1.441516 1_565
C8 H12 1.085281 1_555
C8 N20 1.331975 1_555
C8 N12 1.357936 1_555
C9 H13 1.085288 1_555
C9 N21 1.331968 1_556
C9 N13 1.357936 1_556
C10 H14 1.085288 1_555
C10 N22 1.331968 1_555
C10 N14 1.357936 1_555
C11 H15 1.085288 1_555
C11 N23 1.331968 1_554
C11 N15 1.357936 1_554
C12 N16 1.334691 1_555
C12 N20 1.351366 1_555
C12 N28 1.444023 1_455
C13 N17 1.334691 1_555
C13 N21 1.351366 1_555
C13 N29 1.444023 1_555
C14 N18 1.334691 1_555
C14 N22 1.351366 1_555
C14 N30 1.444023 1_655
C15 N19 1.334691 1_555
C15 N23 1.351366 1_555
C15 N31 1.444023 1_555
N0 N4 1.347629 1_555
N1 N5 1.347629 1_555
N2 N6 1.347629 1_555
N3 N7 1.347629 1_555
N12 N16 1.349300 1_555
N13 N17 1.349300 1_555
N14 N18 1.349300 1_555
N15 N19 1.349300 1_555
N24 O0 1.243990 1_555
N24 O4 1.246328 1_555
N25 O1 1.243990 1_555
N25 O5 1.246328 1_555
N26 O2 1.243990 1_555
N26 O6 1.246328 1_555
N27 O3 1.243990 1_555
N27 O7 1.246328 1_555
N28 O8 1.241856 1_555
N28 O12 1.245687 1_555
N29 O9 1.241856 1_555
N29 O13 1.245687 1_555
N30 O10 1.241856 1_555
N30 O14 1.245687 1_555
N31 O11 1.241856 1_555
N31 O15 1.245687 1_555
