# generated using pymatgen
data_Nd6Fe13Ag
_symmetry_space_group_name_H-M   'P 1'
_cell_length_a   12.87743881
_cell_length_b   12.87743881
_cell_length_c   12.87743881
_cell_angle_alpha   143.46654540
_cell_angle_beta   143.46654540
_cell_angle_gamma   52.62574489
_symmetry_Int_Tables_number   1
_chemical_formula_structural   Nd6Fe13Ag
_chemical_formula_sum   'Nd12 Fe26 Ag2'
_cell_volume   752.23878127
_cell_formula_units_Z   2
loop_
 _symmetry_equiv_pos_site_id
 _symmetry_equiv_pos_as_xyz
  1  'x, y, z'
loop_
 _atom_site_type_symbol
 _atom_site_label
 _atom_site_symmetry_multiplicity
 _atom_site_fract_x
 _atom_site_fract_y
 _atom_site_fract_z
 _atom_site_occupancy
  Nd  Nd0  1  0.47616200  0.97616200  0.82390200  1
  Nd  Nd1  1  0.15226000  0.65226000  0.17609800  1
  Nd  Nd2  1  0.97616200  0.15226000  0.50000000  1
  Nd  Nd3  1  0.65226000  0.47616200  0.50000000  1
  Nd  Nd4  1  0.52383800  0.02383800  0.17609800  1
  Nd  Nd5  1  0.84774000  0.34774000  0.82390200  1
  Nd  Nd6  1  0.02383800  0.84774000  0.50000000  1
  Nd  Nd7  1  0.34774000  0.52383800  0.50000000  1
  Nd  Nd8  1  0.60565700  0.60565700  0.00000000  1
  Nd  Nd9  1  0.10565700  0.10565700  0.00000000  1
  Nd  Nd10  1  0.39434300  0.39434300  0.00000000  1
  Nd  Nd11  1  0.89434300  0.89434300  0.00000000  1
  Fe  Fe0  1  0.61915700  0.11915700  0.85720400  1
  Fe  Fe1  1  0.26195300  0.76195300  0.14279600  1
  Fe  Fe2  1  0.11915700  0.26195300  0.50000000  1
  Fe  Fe3  1  0.76195300  0.61915700  0.50000000  1
  Fe  Fe4  1  0.38084300  0.88084300  0.14279600  1
  Fe  Fe5  1  0.73804700  0.23804700  0.85720400  1
  Fe  Fe6  1  0.88084300  0.73804700  0.50000000  1
  Fe  Fe7  1  0.23804700  0.38084300  0.50000000  1
  Fe  Fe8  1  0.56668200  0.71041300  0.27709400  1
  Fe  Fe9  1  0.43331800  0.28958700  0.72290600  1
  Fe  Fe10  1  0.06668200  0.78958700  0.85626900  1
  Fe  Fe11  1  0.93331800  0.21041300  0.14373100  1
  Fe  Fe12  1  0.28958700  0.56668200  0.85626900  1
  Fe  Fe13  1  0.71041300  0.43331800  0.14373100  1
  Fe  Fe14  1  0.21041300  0.06668200  0.27709400  1
  Fe  Fe15  1  0.78958700  0.93331800  0.72290600  1
  Fe  Fe16  1  0.79051000  0.29051000  0.27242200  1
  Fe  Fe17  1  0.01808800  0.51808800  0.72757800  1
  Fe  Fe18  1  0.29051000  0.01808800  0.50000000  1
  Fe  Fe19  1  0.51808800  0.79051000  0.50000000  1
  Fe  Fe20  1  0.20949000  0.70949000  0.72757800  1
  Fe  Fe21  1  0.98191200  0.48191200  0.27242200  1
  Fe  Fe22  1  0.70949000  0.98191200  0.50000000  1
  Fe  Fe23  1  0.48191200  0.20949000  0.50000000  1
  Fe  Fe24  1  0.50000000  0.00000000  0.50000000  1
  Fe  Fe25  1  0.00000000  0.50000000  0.50000000  1
  Ag  Ag0  1  0.25000000  0.25000000  0.00000000  1
  Ag  Ag1  1  0.75000000  0.75000000  0.00000000  1
loop_
_geom_bond_atom_site_label_1
_geom_bond_atom_site_label_2
_geom_bond_distance
_geom_bond_site_symmetry_2
Fe0 Fe24 2.457825 1_555
Fe0 Fe13 2.485441 1_556
Fe0 Fe11 2.485441 1_556
Fe0 Fe16 2.513609 1_556
Fe0 Fe19 2.558452 1_545
Fe0 Fe18 2.558452 1_555
Fe0 Fe9 2.570372 1_555
Fe0 Fe15 2.570372 1_545
Fe0 Fe5 2.744734 1_555
Fe0 Nd0 2.923008 1_545
Fe0 Nd10 3.154130 1_556
Fe0 Nd11 3.154130 1_546
Fe1 Fe24 2.457825 1_565
Fe1 Fe12 2.485441 1_554
Fe1 Fe10 2.485441 1_554
Fe1 Fe17 2.513609 1_554
Fe1 Fe18 2.558452 1_565
Fe1 Fe19 2.558452 1_555
Fe1 Fe14 2.570384 1_565
Fe1 Fe8 2.570384 1_555
Fe1 Fe4 2.744734 1_555
Fe1 Nd1 2.923008 1_555
Fe1 Nd11 3.154130 1_455
Fe1 Nd10 3.154130 1_555
Fe2 Fe25 2.457825 1_555
Fe2 Fe9 2.485438 1_555
Fe2 Fe7 2.744734 1_555
Fe2 Nd2 2.923008 1_455
Fe2 Nd11 3.154130 1_445
Fe2 Nd10 3.154130 1_556
Fe3 Fe8 2.485450 1_555
Fe3 Fe6 2.744734 1_555
Fe3 Nd3 2.923008 1_555
Fe3 Nd11 3.154130 1_556
Fe3 Nd10 3.154130 1_555
Fe4 Fe8 2.570372 1_555
Fe4 Nd4 2.923008 1_565
Fe4 Nd9 3.154130 1_565
Fe4 Nd8 3.154130 1_555
Fe5 Fe9 2.570384 1_555
Fe5 Nd5 2.923008 1_555
Fe5 Nd9 3.154130 1_656
Fe5 Nd8 3.154130 1_556
Fe6 Fe8 2.485438 1_555
Fe6 Nd6 2.923008 1_655
Fe6 Nd9 3.154130 1_666
Fe6 Nd8 3.154130 1_555
Fe7 Fe9 2.485450 1_555
Fe7 Nd7 2.923008 1_555
Fe7 Nd8 3.154130 1_556
Fe7 Nd9 3.154130 1_555
Fe8 Nd8 3.020720 1_555
Fe8 Nd10 3.020738 1_555
Fe9 Nd10 3.020720 1_556
Fe9 Nd8 3.020738 1_556
Fe10 Fe25 2.398906 1_555
Fe10 Fe4 2.485441 1_556
Fe10 Fe14 2.519902 1_566
Fe10 Fe15 2.519905 1_455
Fe10 Fe12 2.544780 1_555
Fe10 Fe6 2.570380 1_455
Fe10 Fe3 2.570380 1_455
Fe10 Fe20 2.653298 1_555
Fe10 Fe17 2.653298 1_555
Fe10 Nd9 3.020732 1_566
Fe10 Nd11 3.020732 1_456
Fe11 Fe25 2.398906 1_655
Fe11 Fe5 2.485441 1_554
Fe11 Fe15 2.519902 1_544
Fe11 Fe14 2.519905 1_655
Fe11 Fe13 2.544780 1_555
Fe11 Fe7 2.570380 1_655
Fe11 Fe2 2.570380 1_655
Fe11 Fe16 2.653298 1_555
Fe11 Fe21 2.653298 1_555
Fe11 Nd9 3.020732 1_655
Fe11 Nd11 3.020732 1_545
Fe12 Fe25 2.398906 1_555
Fe12 Fe4 2.485441 1_556
Fe12 Fe8 2.519902 1_556
Fe12 Fe9 2.519905 1_555
Fe12 Fe7 2.570380 1_555
Fe12 Fe2 2.570380 1_555
Fe12 Fe20 2.653298 1_555
Fe12 Fe17 2.653298 1_555
Fe12 Nd8 3.020732 1_556
Fe12 Nd10 3.020732 1_556
Fe13 Fe25 2.398906 1_655
Fe13 Fe5 2.485441 1_554
Fe13 Fe9 2.519902 1_554
Fe13 Fe8 2.519905 1_555
Fe13 Fe3 2.570380 1_555
Fe13 Fe6 2.570380 1_555
Fe13 Fe16 2.653298 1_555
Fe13 Fe21 2.653298 1_555
Fe13 Nd10 3.020732 1_555
Fe13 Nd8 3.020732 1_555
Fe14 Fe24 2.398909 1_555
Fe14 Fe7 2.485438 1_555
Fe14 Fe2 2.485450 1_555
Fe14 Fe9 2.544791 1_555
Fe14 Fe4 2.570372 1_545
Fe14 Fe23 2.653291 1_555
Fe14 Fe18 2.653310 1_555
Fe14 Nd9 3.020720 1_555
Fe14 Nd11 3.020738 1_445
Fe15 Fe24 2.398909 1_565
Fe15 Fe3 2.485438 1_555
Fe15 Fe6 2.485450 1_555
Fe15 Fe8 2.544791 1_555
Fe15 Fe5 2.570384 1_565
Fe15 Fe19 2.653291 1_555
Fe15 Fe22 2.653310 1_555
Fe15 Nd11 3.020720 1_556
Fe15 Nd9 3.020738 1_666
Fe16 Fe2 2.558452 1_655
Fe16 Fe3 2.558452 1_555
Fe16 Fe25 2.562997 1_655
Fe16 Fe17 2.598129 1_655
Fe16 Nd2 3.071088 1_555
Fe16 Nd3 3.071088 1_555
Fe16 Nd11 3.258362 1_545
Fe16 Nd10 3.258362 1_555
Fe16 Nd0 3.298553 1_544
Fe17 Fe3 2.558452 1_455
Fe17 Fe2 2.558452 1_555
Fe17 Fe25 2.562997 1_555
Fe17 Nd2 3.071088 1_455
Fe17 Nd3 3.071088 1_455
Fe17 Nd11 3.258362 1_456
Fe17 Nd10 3.258362 1_556
Fe17 Nd1 3.298553 1_556
Fe18 Fe2 2.513609 1_555
Fe18 Fe24 2.562997 1_555
Fe18 Fe19 2.598129 1_545
Fe18 Fe9 2.653291 1_555
Fe18 Nd1 3.071088 1_545
Fe18 Nd0 3.071088 1_545
Fe18 Nd10 3.258362 1_556
Fe18 Nd11 3.258362 1_445
Fe18 Nd2 3.298553 1_455
Fe19 Fe3 2.513609 1_555
Fe19 Fe24 2.562997 1_565
Fe19 Fe8 2.653310 1_555
Fe19 Nd1 3.071088 1_555
Fe19 Nd0 3.071088 1_555
Fe19 Nd10 3.258362 1_555
Fe19 Nd11 3.258362 1_556
Fe19 Nd3 3.298553 1_555
Fe20 Fe4 2.513609 1_556
Fe20 Fe7 2.558452 1_555
Fe20 Fe6 2.558452 1_455
Fe20 Fe25 2.562997 1_555
Fe20 Fe21 2.598129 1_455
Fe20 Nd7 3.071088 1_555
Fe20 Nd6 3.071088 1_555
Fe20 Nd9 3.258362 1_566
Fe20 Nd8 3.258362 1_556
Fe20 Nd4 3.298553 1_566
Fe21 Fe5 2.513609 1_554
Fe21 Fe6 2.558452 1_555
Fe21 Fe7 2.558452 1_655
Fe21 Fe25 2.562997 1_655
Fe21 Nd7 3.071088 1_655
Fe21 Nd6 3.071088 1_655
Fe21 Nd9 3.258362 1_655
Fe21 Nd8 3.258362 1_555
Fe21 Nd5 3.298553 1_554
Fe22 Fe6 2.513609 1_555
Fe22 Fe5 2.558452 1_565
Fe22 Fe4 2.558452 1_555
Fe22 Fe24 2.562997 1_565
Fe22 Fe23 2.598129 1_565
Fe22 Fe8 2.653291 1_555
Fe22 Nd5 3.071088 1_565
Fe22 Nd4 3.071088 1_565
Fe22 Nd9 3.258362 1_666
Fe22 Nd8 3.258362 1_555
Fe22 Nd6 3.298553 1_655
Fe23 Fe7 2.513609 1_555
Fe23 Fe5 2.558452 1_555
Fe23 Fe4 2.558452 1_545
Fe23 Fe24 2.562997 1_555
Fe23 Fe9 2.653310 1_555
Fe23 Nd4 3.071088 1_555
Fe23 Nd5 3.071088 1_555
Fe23 Nd8 3.258362 1_556
Fe23 Nd9 3.258362 1_555
Fe23 Nd7 3.298553 1_555
Fe24 Fe9 2.398909 1_555
Fe24 Fe8 2.398909 1_545
Fe24 Fe4 2.457825 1_545
Fe24 Fe5 2.457825 1_555
Fe25 Fe7 2.457825 1_555
Fe25 Fe6 2.457825 1_455
Fe25 Fe3 2.457825 1_455
Ag0 Nd9 3.332351 1_555
Ag0 Nd10 3.332351 1_555
Ag0 Nd0 3.369550 1_544
Ag0 Nd6 3.369550 1_544
Ag0 Nd3 3.369550 1_555
Ag0 Nd5 3.369550 1_454
Ag0 Nd1 3.369550 1_555
Ag0 Nd2 3.369550 1_454
Ag0 Nd4 3.369550 1_555
Ag0 Nd7 3.369550 1_555
Ag1 Nd11 3.332351 1_555
Ag1 Nd8 3.332351 1_555
Ag1 Nd4 3.369550 1_565
Ag1 Nd6 3.369550 1_655
Ag1 Nd0 3.369550 1_554
Ag1 Nd3 3.369550 1_554
Ag1 Nd7 3.369550 1_554
Ag1 Nd2 3.369550 1_565
Ag1 Nd5 3.369550 1_554
Ag1 Nd1 3.369550 1_655
