# generated using pymatgen
data_Mg5Si6
_symmetry_space_group_name_H-M   'P 1'
_cell_length_a   14.33319838
_cell_length_b   14.33319838
_cell_length_c   4.37605812
_cell_angle_alpha   89.10893861
_cell_angle_beta   89.10893861
_cell_angle_gamma   27.18162833
_symmetry_Int_Tables_number   1
_chemical_formula_structural   Mg5Si6
_chemical_formula_sum   'Mg10 Si12'
_cell_volume   410.63115563
_cell_formula_units_Z   2
loop_
 _symmetry_equiv_pos_site_id
 _symmetry_equiv_pos_as_xyz
  1  'x, y, z'
loop_
 _atom_site_type_symbol
 _atom_site_label
 _atom_site_symmetry_multiplicity
 _atom_site_fract_x
 _atom_site_fract_y
 _atom_site_fract_z
 _atom_site_occupancy
  Mg  Mg0  1  0.01540400  0.22819400  0.74861500  1
  Mg  Mg1  1  0.77180600  0.98459600  0.25138500  1
  Mg  Mg2  1  0.02578500  0.87626400  0.75985500  1
  Mg  Mg3  1  0.05640100  0.61456200  0.76511600  1
  Mg  Mg4  1  0.91615900  0.46389500  0.25327100  1
  Mg  Mg5  1  0.12373600  0.97421500  0.24014500  1
  Mg  Mg6  1  0.50357300  0.33062700  0.75176400  1
  Mg  Mg7  1  0.53610500  0.08384100  0.74672900  1
  Mg  Mg8  1  0.38543800  0.94359900  0.23488400  1
  Mg  Mg9  1  0.66937300  0.49642700  0.24823600  1
  Si  Si0  1  0.36047000  0.82905800  0.73587600  1
  Si  Si1  1  0.67475000  0.63181400  0.75846700  1
  Si  Si2  1  0.17094200  0.63953000  0.26412400  1
  Si  Si3  1  0.36818600  0.32524900  0.24153300  1
  Si  Si4  1  0.81165800  0.23845500  0.74710400  1
  Si  Si5  1  0.17571200  0.27588000  0.75293600  1
  Si  Si6  1  0.72412000  0.82428800  0.24706400  1
  Si  Si7  1  0.39972700  0.56096100  0.25331300  1
  Si  Si8  1  0.43903900  0.60027300  0.74668700  1
  Si  Si9  1  0.80747300  0.67551900  0.74879700  1
  Si  Si10  1  0.32448100  0.19252700  0.25120300  1
  Si  Si11  1  0.76154500  0.18834200  0.25289600  1
loop_
_geom_bond_atom_site_label_1
_geom_bond_atom_site_label_2
_geom_bond_distance
_geom_bond_site_symmetry_2
Mg0 Si0 2.618148 1_545
Mg0 Si1 2.656429 1_455
Mg0 Si4 2.790420 1_455
Mg0 Si5 2.922824 1_555
Mg1 Si2 2.618148 1_655
Mg1 Si3 2.656431 1_565
Mg1 Si11 2.790420 1_565
Mg1 Si6 2.922824 1_555
Mg2 Si4 2.832395 1_465
Mg2 Si2 2.839310 1_556
Mg2 Si2 2.841976 1_555
Mg2 Si11 2.985498 1_466
Mg2 Si8 3.007643 1_555
Mg2 Si11 3.014366 1_465
Mg3 Si9 2.821077 1_455
Mg3 Si2 2.922124 1_555
Mg3 Si3 2.926476 1_556
Mg3 Si2 2.961921 1_556
Mg3 Si3 3.069796 1_555
Mg4 Si1 2.776400 1_554
Mg4 Si1 2.786402 1_555
Mg4 Si5 2.826625 1_654
Mg4 Si9 2.827155 1_554
Mg4 Si9 2.832361 1_555
Mg4 Si5 2.848954 1_655
Mg4 Si10 2.980071 1_655
Mg4 Si6 2.993660 1_555
Mg5 Si11 2.832395 1_465
Mg5 Si0 2.839310 1_554
Mg5 Si0 2.841976 1_555
Mg5 Si4 2.985498 1_464
Mg5 Si7 3.007643 1_555
Mg5 Si4 3.014366 1_465
Mg6 Si3 2.914923 1_556
Mg6 Si7 3.001186 1_555
Mg6 Si11 3.011363 1_555
Mg6 Si3 3.027084 1_555
Mg6 Si7 3.051754 1_556
Mg6 Si11 3.055708 1_556
Mg6 Si2 3.058499 1_555
Mg6 Si8 3.071018 1_555
Mg6 Si2 3.127540 1_556
Mg7 Si3 2.776393 1_556
Mg7 Si3 2.786396 1_555
Mg7 Si6 2.826625 1_546
Mg7 Si10 2.827155 1_556
Mg7 Si10 2.832361 1_555
Mg7 Si6 2.848954 1_545
Mg7 Si9 2.980071 1_545
Mg7 Si5 2.993660 1_555
Mg8 Si10 2.821077 1_565
Mg8 Si0 2.922124 1_555
Mg8 Si1 2.926475 1_554
Mg8 Si0 2.961921 1_554
Mg8 Si1 3.069795 1_555
Mg9 Si1 2.914915 1_554
Mg9 Si8 3.001186 1_555
Mg9 Si4 3.011363 1_555
Mg9 Si1 3.027075 1_555
Mg9 Si8 3.051754 1_554
Mg9 Si4 3.055708 1_554
Mg9 Si0 3.058499 1_555
Mg9 Si7 3.071018 1_555
Mg9 Si0 3.127540 1_554
Si0 Si8 2.334623 1_555
Si0 Si1 2.375252 1_555
Si1 Si9 2.475877 1_555
Si2 Si7 2.334623 1_555
Si2 Si3 2.375264 1_555
Si4 Si8 2.478236 1_555
Si5 Si9 2.623044 1_455
Si6 Si9 2.489679 1_555
Si6 Si9 2.501948 1_554
Si7 Si8 2.436586 1_555
Si7 Si8 2.457101 1_554
Si10 Si3 2.475862 1_555
Si10 Si5 2.489679 1_555
Si10 Si5 2.501948 1_554
Si10 Si6 2.623044 1_545
Si11 Si7 2.478236 1_555
Si11 Si4 2.592986 1_555
Si11 Si4 2.598053 1_554
