# generated using pymatgen
data_KAl3Fe2Si2(HO6)2
_symmetry_space_group_name_H-M   'P 1'
_cell_length_a   5.38922700
_cell_length_b   10.52835425
_cell_length_c   5.40929839
_cell_angle_alpha   100.42041127
_cell_angle_beta   60.11523389
_cell_angle_gamma   94.72076824
_symmetry_Int_Tables_number   1
_chemical_formula_structural   KAl3Fe2Si2(HO6)2
_chemical_formula_sum   'K1 Al3 Fe2 Si2 H2 O12'
_cell_volume   261.71034833
_cell_formula_units_Z   1
loop_
 _symmetry_equiv_pos_site_id
 _symmetry_equiv_pos_as_xyz
  1  'x, y, z'
loop_
 _atom_site_type_symbol
 _atom_site_label
 _atom_site_symmetry_multiplicity
 _atom_site_fract_x
 _atom_site_fract_y
 _atom_site_fract_z
 _atom_site_occupancy
  K  K0  1  0.98903400  0.00010800  0.00469100  1
  Al  Al0  1  0.34326700  0.50048700  0.82654900  1
  Al  Al1  1  0.32555700  0.23090900  0.41857100  1
  Al  Al2  1  0.65772100  0.76845300  0.59496900  1
  Fe  Fe0  1  0.66228500  0.49916200  0.17347600  1
  Fe  Fe1  1  0.00301800  0.50053600  0.50000800  1
  Si  Si0  1  0.65263700  0.22920600  0.74849900  1
  Si  Si1  1  0.32975900  0.77032100  0.24835200  1
  H  H0  1  0.04868600  0.31011600  0.05540900  1
  H  H1  1  0.02599400  0.69134300  0.90794000  1
  O  O0  1  0.04018700  0.40395600  0.09709600  1
  O  O1  1  0.02588000  0.59749300  0.87621000  1
  O  O2  1  0.42161100  0.17115200  0.64439400  1
  O  O3  1  0.57316100  0.18135400  0.05086400  1
  O  O4  1  0.56281600  0.81535900  0.35634200  1
  O  O5  1  0.41189900  0.83047800  0.95779200  1
  O  O6  1  0.32964800  0.40305100  0.49819400  1
  O  O7  1  0.63303300  0.39194500  0.80363800  1
  O  O8  1  0.64261700  0.59651100  0.56759700  1
  O  O9  1  0.33619000  0.60790900  0.16581300  1
  O  O10  1  0.97648700  0.18191100  0.49766700  1
  O  O11  1  0.00851100  0.81824100  0.50593000  1
loop_
_geom_bond_atom_site_label_1
_geom_bond_atom_site_label_2
_geom_bond_distance
_geom_bond_site_symmetry_2
K0 O5 2.894346 1_644
K0 O2 2.920104 1_654
K0 O3 2.949668 1_555
K0 O10 2.962190 1_555
K0 O11 2.972945 1_644
K0 O4 2.987778 1_545
Al0 O8 1.891745 1_555
Al0 O6 1.915964 1_555
Al0 O0 1.930094 1_556
Al0 O1 1.942001 1_555
Al0 O7 1.951811 1_555
Al0 O9 1.958314 1_556
Al1 O3 1.761639 1_555
Al1 O10 1.762436 1_455
Al1 O2 1.765703 1_555
Al1 O6 1.786392 1_555
Al2 O11 1.761120 1_655
Al2 O4 1.761170 1_555
Al2 O5 1.766681 1_555
Al2 O8 1.787851 1_555
Fe0 O6 2.128232 1_555
Fe0 O8 2.146871 1_555
Fe0 O1 2.150687 1_654
Fe0 O0 2.161218 1_655
Fe0 O7 2.183901 1_554
Fe0 O9 2.195901 1_555
Fe1 O8 2.099743 1_455
Fe1 O6 2.104430 1_555
Fe1 O0 2.149643 1_555
Fe1 O1 2.162428 1_555
Fe1 O9 2.222714 1_555
Fe1 O7 2.240757 1_455
H0 O0 0.972429 1_555
H1 O1 0.971818 1_555
O2 Si0 1.640054 1_555
O3 Si0 1.636111 1_554
O4 Si1 1.636004 1_555
O5 Si1 1.639522 1_556
O7 Si0 1.687988 1_555
O9 Si1 1.685994 1_555
O10 Si0 1.635184 1_555
O11 Si1 1.636725 1_555
