# generated using pymatgen
data_NaMg14Al
_symmetry_space_group_name_H-M   'P 1'
_cell_length_a   6.35696321
_cell_length_b   6.38307621
_cell_length_c   10.42352801
_cell_angle_alpha   90.00000000
_cell_angle_beta   90.00000000
_cell_angle_gamma   120.13598281
_symmetry_Int_Tables_number   1
_chemical_formula_structural   NaMg14Al
_chemical_formula_sum   'Na1 Mg14 Al1'
_cell_volume   365.78708870
_cell_formula_units_Z   1
loop_
 _symmetry_equiv_pos_site_id
 _symmetry_equiv_pos_as_xyz
  1  'x, y, z'
loop_
 _atom_site_type_symbol
 _atom_site_label
 _atom_site_symmetry_multiplicity
 _atom_site_fract_x
 _atom_site_fract_y
 _atom_site_fract_z
 _atom_site_occupancy
  Na  Na0  1  0.16646836  0.83323368  0.12500000  1
  Mg  Mg0  1  0.16675219  0.33337559  0.62500000  1
  Mg  Mg1  1  0.16712702  0.83356301  0.62500000  1
  Mg  Mg2  1  0.66723342  0.33704790  0.12500000  1
  Mg  Mg3  1  0.66645510  0.33301970  0.62500000  1
  Mg  Mg4  1  0.66723342  0.83018452  0.12500000  1
  Mg  Mg5  1  0.66645510  0.83343440  0.62500000  1
  Mg  Mg6  1  0.33217434  0.17053517  0.37434256  1
  Mg  Mg7  1  0.33217434  0.17053517  0.87565744  1
  Mg  Mg8  1  0.33217434  0.66164017  0.37434256  1
  Mg  Mg9  1  0.33217434  0.66164017  0.87565744  1
  Mg  Mg10  1  0.83616686  0.16808393  0.37083167  1
  Mg  Mg11  1  0.83616686  0.16808393  0.87916833  1
  Mg  Mg12  1  0.82996997  0.66498548  0.37817370  1
  Mg  Mg13  1  0.82996997  0.66498548  0.87182630  1
  Al  Al0  1  0.17130437  0.33565169  0.12500000  1
loop_
_geom_bond_atom_site_label_1
_geom_bond_atom_site_label_2
_geom_bond_distance
_geom_bond_site_symmetry_2
Mg0 Mg5 3.177734 1_555
Mg0 Mg3 3.177734 1_555
Mg0 Mg5 3.179230 1_445
Mg0 Mg3 3.179230 1_455
Mg0 Mg6 3.179644 1_555
Mg0 Mg7 3.179644 1_555
Mg0 Mg9 3.179651 1_555
Mg0 Mg8 3.179651 1_555
Mg0 Mg1 3.191539 1_545
Mg0 Mg1 3.191539 1_555
Mg0 Mg10 3.212810 1_455
Mg0 Mg11 3.212810 1_455
Mg1 Mg13 3.170983 1_455
Mg1 Mg12 3.170983 1_455
Mg1 Mg3 3.174622 1_565
Mg1 Mg5 3.174622 1_555
Mg1 Mg3 3.182341 1_455
Mg1 Mg5 3.182341 1_455
Mg1 Mg8 3.207429 1_555
Mg1 Mg9 3.207429 1_555
Mg1 Mg6 3.207435 1_565
Mg1 Mg7 3.207435 1_565
Mg2 Mg4 3.147729 1_555
Mg2 Na0 3.163891 1_655
Mg2 Mg7 3.185624 1_554
Mg2 Mg6 3.185624 1_555
Mg2 Na0 3.193161 1_545
Mg2 Mg4 3.235348 1_545
Mg3 Mg5 3.188891 1_545
Mg3 Mg5 3.194185 1_555
Mg3 Mg6 3.194483 1_555
Mg3 Mg7 3.194483 1_555
Mg4 Na0 3.163891 1_655
Mg4 Mg9 3.185624 1_554
Mg4 Mg8 3.185624 1_555
Mg4 Na0 3.193161 1_555
Mg5 Mg8 3.194483 1_555
Mg5 Mg9 3.194483 1_555
Mg6 Mg8 3.134761 1_555
Mg6 Na0 3.197311 1_545
Mg6 Mg8 3.248316 1_545
Mg7 Mg9 3.134761 1_555
Mg7 Na0 3.197311 1_546
Mg7 Mg9 3.248316 1_545
Mg8 Na0 3.197304 1_555
Mg9 Na0 3.197304 1_556
Mg10 Mg8 3.145488 1_655
Mg10 Mg6 3.145488 1_655
Mg10 Mg2 3.169462 1_555
Mg10 Mg4 3.169469 1_545
Mg10 Mg12 3.192637 1_555
Mg10 Mg12 3.192637 1_545
Mg10 Mg8 3.211954 1_545
Mg10 Mg6 3.211954 1_555
Mg10 Mg3 3.229820 1_555
Mg10 Mg5 3.229826 1_545
Mg11 Mg9 3.145488 1_655
Mg11 Mg7 3.145488 1_655
Mg11 Mg2 3.169462 1_556
Mg11 Mg4 3.169469 1_546
Mg11 Mg13 3.192637 1_555
Mg11 Mg13 3.192637 1_545
Mg11 Mg9 3.211954 1_545
Mg11 Mg7 3.211954 1_555
Mg11 Mg3 3.229820 1_555
Mg11 Mg5 3.229826 1_545
Mg12 Mg6 3.154055 1_555
Mg12 Mg8 3.154055 1_555
Mg12 Mg5 3.158816 1_555
Mg12 Mg3 3.158823 1_555
Mg12 Mg4 3.200252 1_555
Mg12 Mg2 3.200258 1_555
Mg12 Mg6 3.203517 1_665
Mg12 Mg8 3.203517 1_655
Mg12 Na0 3.222816 1_655
Mg13 Mg7 3.154055 1_555
Mg13 Mg9 3.154055 1_555
Mg13 Mg5 3.158816 1_555
Mg13 Mg3 3.158823 1_555
Mg13 Mg4 3.200252 1_556
Mg13 Mg2 3.200258 1_556
Mg13 Mg7 3.203517 1_665
Mg13 Mg9 3.203517 1_655
Mg13 Na0 3.222816 1_656
Al0 Mg4 3.148138 1_555
Al0 Mg2 3.148138 1_555
Al0 Mg11 3.156083 1_454
Al0 Mg10 3.156083 1_455
Al0 Mg7 3.161299 1_554
Al0 Mg6 3.161299 1_555
Al0 Mg8 3.161305 1_555
Al0 Mg9 3.161305 1_554
Al0 Na0 3.191649 1_555
Al0 Na0 3.191649 1_545
Al0 Mg4 3.208844 1_445
Al0 Mg2 3.208844 1_455
