# generated using pymatgen
data_Ag3C(NO2)3
_symmetry_space_group_name_H-M   'P 1'
_cell_length_a   11.70688100
_cell_length_b   5.30779200
_cell_length_c   7.51543576
_cell_angle_alpha   57.24363533
_cell_angle_beta   90.00000000
_cell_angle_gamma   90.00000000
_symmetry_Int_Tables_number   1
_chemical_formula_structural   Ag3C(NO2)3
_chemical_formula_sum   'Ag6 C2 N6 O12'
_cell_volume   392.73026696
_cell_formula_units_Z   2
loop_
 _symmetry_equiv_pos_site_id
 _symmetry_equiv_pos_as_xyz
  1  'x, y, z'
loop_
 _atom_site_type_symbol
 _atom_site_label
 _atom_site_symmetry_multiplicity
 _atom_site_fract_x
 _atom_site_fract_y
 _atom_site_fract_z
 _atom_site_occupancy
  Ag  Ag0  1  0.36783700  0.17031000  0.12752800  1
  Ag  Ag1  1  0.63216300  0.17031000  0.62752800  1
  Ag  Ag2  1  0.13084300  0.82499500  0.87633600  1
  Ag  Ag3  1  0.86915700  0.82499500  0.37633600  1
  Ag  Ag4  1  0.25073200  0.50606400  0.49790400  1
  Ag  Ag5  1  0.74926800  0.50606400  0.99790400  1
  C  C0  1  0.25376000  0.89720700  0.49022400  1
  C  C1  1  0.74624000  0.89720700  0.99022400  1
  N  N0  1  0.07621100  0.17405600  0.08293600  1
  N  N1  1  0.92378900  0.17405600  0.58293600  1
  N  N2  1  0.42354100  0.82556200  0.91678200  1
  N  N3  1  0.57645900  0.82556200  0.41678200  1
  N  N4  1  0.24662500  0.10303400  0.50872300  1
  N  N5  1  0.75337500  0.10303400  0.00872300  1
  O  O0  1  0.16214200  0.29877300  0.95978400  1
  O  O1  1  0.83785800  0.29877300  0.45978400  1
  O  O2  1  0.33788700  0.70057800  0.04052500  1
  O  O3  1  0.66211300  0.70057800  0.54052500  1
  O  O4  1  0.01712300  0.31804900  0.13842400  1
  O  O5  1  0.98287700  0.31804900  0.63842400  1
  O  O6  1  0.48246700  0.68157100  0.86118900  1
  O  O7  1  0.51753300  0.68157100  0.36118900  1
  O  O8  1  0.05183100  0.90330700  0.14816000  1
  O  O9  1  0.94816900  0.90330700  0.64816000  1
  O  O10  1  0.44798600  0.09649400  0.85148500  1
  O  O11  1  0.55201400  0.09649400  0.35148500  1
loop_
_geom_bond_atom_site_label_1
_geom_bond_atom_site_label_2
_geom_bond_distance
_geom_bond_site_symmetry_2
Ag0 O10 2.493468 1_554
Ag0 O2 2.545719 1_555
Ag0 O11 2.630925 1_555
Ag0 O0 2.631104 1_554
Ag0 C0 2.653122 1_545
Ag0 O6 2.700647 1_554
Ag1 O11 2.493468 1_555
Ag1 O3 2.545719 1_555
Ag1 O10 2.630925 1_555
Ag1 O1 2.631104 1_555
Ag1 C1 2.653122 1_545
Ag1 O7 2.700647 1_555
Ag2 O8 2.473986 1_556
Ag2 O0 2.536396 1_555
Ag2 O9 2.629730 1_455
Ag2 O2 2.636651 1_556
Ag2 O4 2.675256 1_556
Ag2 N4 2.689970 1_565
Ag3 O9 2.473986 1_555
Ag3 O1 2.536396 1_555
Ag3 O8 2.629730 1_655
Ag3 O3 2.636651 1_555
Ag3 O5 2.675256 1_555
Ag3 N5 2.689970 1_565
Ag4 C0 2.045759 1_555
Ag4 N4 2.096872 1_555
Ag5 C1 2.045759 1_555
Ag5 N5 2.096872 1_556
C0 N4 1.176518 1_565
C1 N5 1.176518 1_566
N0 O4 1.257550 1_555
N0 O8 1.274615 1_545
N0 O0 1.282120 1_554
N1 O5 1.257550 1_555
N1 O9 1.274615 1_545
N1 O1 1.282120 1_555
N2 O6 1.257021 1_555
N2 O10 1.275555 1_565
N2 O2 1.281729 1_556
N3 O7 1.257021 1_555
N3 O11 1.275555 1_565
N3 O3 1.281729 1_555
