# generated using pymatgen
data_TmAlCu
_symmetry_space_group_name_H-M   'P 1'
_cell_length_a   5.33317659
_cell_length_b   5.33317659
_cell_length_c   5.33317659
_cell_angle_alpha   119.52304593
_cell_angle_beta   119.41137047
_cell_angle_gamma   90.92535335
_symmetry_Int_Tables_number   1
_chemical_formula_structural   TmAlCu
_chemical_formula_sum   'Tm2 Al2 Cu2'
_cell_volume   108.10966127
_cell_formula_units_Z   2
loop_
 _symmetry_equiv_pos_site_id
 _symmetry_equiv_pos_as_xyz
  1  'x, y, z'
loop_
 _atom_site_type_symbol
 _atom_site_label
 _atom_site_symmetry_multiplicity
 _atom_site_fract_x
 _atom_site_fract_y
 _atom_site_fract_z
 _atom_site_occupancy
  Tm  Tm0  1  0.12513700  0.87513700  0.25000000  1
  Tm  Tm1  1  0.87486300  0.12486300  0.75000000  1
  Al  Al0  1  0.00000000  0.50000000  0.50000000  1
  Al  Al1  1  0.50000000  0.50000000  0.00000000  1
  Cu  Cu0  1  0.50000000  0.00000000  0.00000000  1
  Cu  Cu1  1  0.50000000  0.50000000  0.50000000  1
loop_
_geom_bond_atom_site_label_1
_geom_bond_atom_site_label_2
_geom_bond_distance
_geom_bond_site_symmetry_2
Al0 Cu1 2.666588 1_455
Al0 Cu0 2.666588 1_566
Al0 Cu1 2.666588 1_555
Al0 Cu0 2.666588 1_455
Al0 Al1 2.690278 1_455
Al0 Al1 2.690278 1_556
Al0 Tm0 3.112152 1_555
Al0 Tm1 3.112152 1_455
Al0 Tm0 3.145700 1_545
Al0 Tm1 3.145700 1_454
Al0 Tm1 3.145700 1_465
Al0 Tm0 3.145700 1_556
Al1 Cu0 2.666588 1_565
Al1 Cu1 2.666588 1_554
Al1 Cu0 2.666588 1_555
Al1 Cu1 2.666588 1_555
Al1 Tm0 3.112152 1_655
Al1 Tm1 3.112152 1_454
Al1 Tm1 3.145700 1_554
Al1 Tm0 3.145700 1_544
Al1 Tm1 3.145700 1_565
Al1 Tm0 3.145700 1_555
Cu0 Cu1 2.685789 1_544
Cu0 Cu1 2.685789 1_555
Cu0 Tm1 3.109334 1_554
Cu0 Tm0 3.109334 1_545
Cu0 Tm0 3.149184 1_544
Cu0 Tm1 3.149184 1_555
Cu0 Tm0 3.149184 1_645
Cu0 Tm1 3.149184 1_454
Cu1 Tm1 3.109334 1_565
Cu1 Tm0 3.109334 1_545
Cu1 Tm0 3.149184 1_656
Cu1 Tm1 3.149184 1_555
Cu1 Tm1 3.149184 1_454
Cu1 Tm0 3.149184 1_555
