# generated using pymatgen
data_Pr(BOs)4
_symmetry_space_group_name_H-M   'P 1'
_cell_length_a   4.00925300
_cell_length_b   7.63021300
_cell_length_c   7.63021300
_cell_angle_alpha   90.00000000
_cell_angle_beta   90.00000000
_cell_angle_gamma   90.00000000
_symmetry_Int_Tables_number   1
_chemical_formula_structural   Pr(BOs)4
_chemical_formula_sum   'Pr2 B8 Os8'
_cell_volume   233.41931275
_cell_formula_units_Z   2
loop_
 _symmetry_equiv_pos_site_id
 _symmetry_equiv_pos_as_xyz
  1  'x, y, z'
loop_
 _atom_site_type_symbol
 _atom_site_label
 _atom_site_symmetry_multiplicity
 _atom_site_fract_x
 _atom_site_fract_y
 _atom_site_fract_z
 _atom_site_occupancy
  Pr  Pr0  1  0.25000000  0.25000000  0.25000000  1
  Pr  Pr1  1  0.75000000  0.75000000  0.75000000  1
  B  B0  1  0.36080300  0.91533800  0.03300100  1
  B  B1  1  0.36080300  0.58466200  0.46699900  1
  B  B2  1  0.86080300  0.53300100  0.08466200  1
  B  B3  1  0.86080300  0.96699900  0.41533800  1
  B  B4  1  0.63919700  0.08466200  0.96699900  1
  B  B5  1  0.63919700  0.41533800  0.53300100  1
  B  B6  1  0.13919700  0.46699900  0.91533800  1
  B  B7  1  0.13919700  0.03300100  0.58466200  1
  Os  Os0  1  0.13854500  0.39592200  0.64367400  1
  Os  Os1  1  0.13854500  0.10407800  0.85632600  1
  Os  Os2  1  0.63854500  0.14367400  0.60407800  1
  Os  Os3  1  0.63854500  0.35632600  0.89592200  1
  Os  Os4  1  0.86145500  0.60407800  0.35632600  1
  Os  Os5  1  0.86145500  0.89592200  0.14367400  1
  Os  Os6  1  0.36145500  0.85632600  0.39592200  1
  Os  Os7  1  0.36145500  0.64367400  0.10407800  1
loop_
_geom_bond_atom_site_label_1
_geom_bond_atom_site_label_2
_geom_bond_distance
_geom_bond_site_symmetry_2
B0 B4 1.780063 1_564
B0 Os7 2.142628 1_555
B0 Os1 2.164553 1_564
B0 Os5 2.177869 1_455
B0 Os5 2.182676 1_555
B0 Pr1 2.947742 1_554
B0 Pr0 3.075618 1_565
B0 Pr1 3.500186 1_454
B1 B5 1.780063 1_555
B1 Os6 2.142628 1_555
B1 Os0 2.164553 1_555
B1 Os4 2.177869 1_455
B1 Os4 2.182676 1_555
B1 Pr1 2.947742 1_555
B1 Pr0 3.075618 1_555
B1 Pr1 3.500186 1_455
B2 B6 1.780063 1_654
B2 Os4 2.142628 1_555
B2 Os3 2.164553 1_554
B2 Os7 2.177869 1_555
B2 Os7 2.182676 1_655
B2 Pr0 2.947742 1_655
B2 Pr1 3.075618 1_554
B2 Pr0 3.500186 1_555
B3 B7 1.780063 1_665
B3 Os5 2.142628 1_555
B3 Os2 2.164553 1_565
B3 Os6 2.177869 1_555
B3 Os6 2.182676 1_655
B3 Pr0 2.947742 1_665
B3 Pr1 3.075618 1_555
B3 Pr0 3.500186 1_565
B4 Os3 2.142628 1_555
B4 Os5 2.164553 1_546
B4 Os1 2.177869 1_655
B4 Os1 2.182676 1_555
B4 Pr0 2.947742 1_556
B4 Pr1 3.075618 1_545
B4 Pr0 3.500186 1_656
B5 Os2 2.142628 1_555
B5 Os4 2.164553 1_555
B5 Os0 2.177869 1_655
B5 Os0 2.182676 1_555
B5 Pr0 2.947742 1_555
B5 Pr1 3.075618 1_555
B5 Pr0 3.500186 1_655
B6 Os0 2.142628 1_555
B6 Os7 2.164553 1_556
B6 Os3 2.177869 1_555
B6 Os3 2.182676 1_455
B6 Pr1 2.947742 1_455
B6 Pr0 3.075618 1_556
B6 Pr1 3.500186 1_555
B7 Os1 2.142628 1_555
B7 Os6 2.164553 1_545
B7 Os2 2.177869 1_555
B7 Os2 2.182676 1_455
B7 Pr1 2.947742 1_445
B7 Pr0 3.075618 1_555
B7 Pr1 3.500186 1_545
Os0 Pr1 3.222419 1_455
Os0 Pr0 3.234545 1_555
Os1 Pr1 3.222419 1_445
Os1 Pr0 3.234545 1_556
Os2 Pr0 3.222419 1_555
Os2 Pr1 3.234545 1_545
Os3 Pr0 3.222419 1_556
Os3 Pr1 3.234545 1_555
Os4 Pr0 3.222419 1_655
Os4 Pr1 3.234545 1_555
Os5 Pr0 3.222419 1_665
Os5 Pr1 3.234545 1_554
Os6 Pr1 3.222419 1_555
Os6 Pr0 3.234545 1_565
Os7 Pr1 3.222419 1_554
Os7 Pr0 3.234545 1_555
