# generated using pymatgen
data_TbGaCo
_symmetry_space_group_name_H-M   'P 1'
_cell_length_a   4.13184606
_cell_length_b   6.69931858
_cell_length_c   7.54761644
_cell_angle_alpha   90.00000000
_cell_angle_beta   90.00000000
_cell_angle_gamma   90.00000000
_symmetry_Int_Tables_number   1
_chemical_formula_structural   TbGaCo
_chemical_formula_sum   'Tb4 Ga4 Co4'
_cell_volume   208.92219749
_cell_formula_units_Z   4
loop_
 _symmetry_equiv_pos_site_id
 _symmetry_equiv_pos_as_xyz
  1  'x, y, z'
loop_
 _atom_site_type_symbol
 _atom_site_label
 _atom_site_symmetry_multiplicity
 _atom_site_fract_x
 _atom_site_fract_y
 _atom_site_fract_z
 _atom_site_occupancy
  Tb  Tb0  1  0.25000000  0.02471109  0.81432858  1
  Tb  Tb1  1  0.25000000  0.52454935  0.68569115  1
  Tb  Tb2  1  0.75000000  0.97545065  0.18569115  1
  Tb  Tb3  1  0.75000000  0.47528891  0.31432858  1
  Ga  Ga0  1  0.25000000  0.15534554  0.43567151  1
  Ga  Ga1  1  0.25000000  0.65542493  0.06430720  1
  Ga  Ga2  1  0.75000000  0.84457507  0.56430720  1
  Ga  Ga3  1  0.75000000  0.34465446  0.93567151  1
  Co  Co0  1  0.25000000  0.77688687  0.38245709  1
  Co  Co1  1  0.25000000  0.27700925  0.11754347  1
  Co  Co2  1  0.75000000  0.22299075  0.61754347  1
  Co  Co3  1  0.75000000  0.72311313  0.88245709  1
loop_
_geom_bond_atom_site_label_1
_geom_bond_atom_site_label_2
_geom_bond_distance
_geom_bond_site_symmetry_2
Ga0 Tb0 2.988952 1_555
Ga0 Tb2 3.046363 1_445
Ga0 Tb2 3.046363 1_545
Ga0 Tb1 3.111068 1_555
Ga0 Tb3 3.114642 1_455
Ga0 Tb3 3.114642 1_555
Ga1 Tb1 2.989129 1_554
Ga1 Tb3 3.047194 1_455
Ga1 Tb3 3.047194 1_555
Ga1 Tb0 3.111319 1_564
Ga1 Tb2 3.115113 1_455
Ga1 Tb2 3.115113 1_555
Ga2 Tb2 2.989129 1_555
Ga2 Tb0 3.047194 1_665
Ga2 Tb0 3.047194 1_565
Ga2 Tb3 3.111319 1_555
Ga2 Tb1 3.115113 1_555
Ga2 Tb1 3.115113 1_655
Ga3 Tb3 2.988952 1_556
Ga3 Tb1 3.046363 1_555
Ga3 Tb1 3.046363 1_655
Ga3 Tb2 3.111068 1_546
Ga3 Tb0 3.114642 1_655
Ga3 Tb0 3.114642 1_555
Co0 Ga2 2.521412 1_555
Co0 Ga2 2.521412 1_455
Co0 Ga1 2.535398 1_555
Co0 Ga0 2.567031 1_565
Co0 Tb1 2.845325 1_555
Co0 Tb2 2.871088 1_555
Co0 Tb2 2.871088 1_455
Co0 Tb3 2.935110 1_455
Co0 Tb3 2.935110 1_555
Co1 Ga3 2.521450 1_554
Co1 Ga3 2.521450 1_454
Co1 Ga0 2.535676 1_555
Co1 Ga1 2.566772 1_555
Co1 Tb0 2.845052 1_554
Co1 Tb3 2.870281 1_455
Co1 Tb3 2.870281 1_555
Co1 Tb2 2.934954 1_445
Co1 Tb2 2.934954 1_545
Co2 Ga0 2.521450 1_655
Co2 Ga0 2.521450 1_555
Co2 Ga3 2.535676 1_555
Co2 Ga2 2.566772 1_545
Co2 Tb3 2.845052 1_555
Co2 Tb0 2.870281 1_555
Co2 Tb0 2.870281 1_655
Co2 Tb1 2.934954 1_555
Co2 Tb1 2.934954 1_655
Co3 Ga1 2.521412 1_656
Co3 Ga1 2.521412 1_556
Co3 Ga2 2.535398 1_555
Co3 Ga3 2.567031 1_555
Co3 Tb2 2.845325 1_556
Co3 Tb1 2.871088 1_555
Co3 Tb1 2.871088 1_655
Co3 Tb0 2.935110 1_565
Co3 Tb0 2.935110 1_665
