# generated using pymatgen
data_Nb4FeTe4
_symmetry_space_group_name_H-M   'P 1'
_cell_length_a   4.88879900
_cell_length_b   10.65475800
_cell_length_c   18.46997400
_cell_angle_alpha   90.00000000
_cell_angle_beta   90.00000000
_cell_angle_gamma   90.00000000
_symmetry_Int_Tables_number   1
_chemical_formula_structural   Nb4FeTe4
_chemical_formula_sum   'Nb16 Fe4 Te16'
_cell_volume   962.08192631
_cell_formula_units_Z   4
loop_
 _symmetry_equiv_pos_site_id
 _symmetry_equiv_pos_as_xyz
  1  'x, y, z'
loop_
 _atom_site_type_symbol
 _atom_site_label
 _atom_site_symmetry_multiplicity
 _atom_site_fract_x
 _atom_site_fract_y
 _atom_site_fract_z
 _atom_site_occupancy
  Nb  Nb0  1  0.50000000  0.56573500  0.38076200  1
  Nb  Nb1  1  0.50000000  0.43426500  0.61923800  1
  Nb  Nb2  1  0.50000000  0.06573500  0.11923800  1
  Nb  Nb3  1  0.50000000  0.93426500  0.88076200  1
  Nb  Nb4  1  0.50000000  0.70846800  0.53736700  1
  Nb  Nb5  1  0.50000000  0.29153200  0.46263300  1
  Nb  Nb6  1  0.50000000  0.20846800  0.96263300  1
  Nb  Nb7  1  0.50000000  0.79153200  0.03736700  1
  Nb  Nb8  1  0.00000000  0.69387400  0.44152200  1
  Nb  Nb9  1  0.00000000  0.30612600  0.55847800  1
  Nb  Nb10  1  0.00000000  0.19387400  0.05847800  1
  Nb  Nb11  1  0.00000000  0.80612600  0.94152200  1
  Nb  Nb12  1  0.00000000  0.39925300  0.38918000  1
  Nb  Nb13  1  0.00000000  0.60074700  0.61082000  1
  Nb  Nb14  1  0.00000000  0.89925300  0.11082000  1
  Nb  Nb15  1  0.00000000  0.10074700  0.88918000  1
  Fe  Fe0  1  0.24927100  0.50000000  0.50000000  1
  Fe  Fe1  1  0.75072900  0.00000000  0.00000000  1
  Fe  Fe2  1  0.75072900  0.50000000  0.50000000  1
  Fe  Fe3  1  0.24927100  0.00000000  0.00000000  1
  Te  Te0  1  0.00000000  0.85600500  0.56477300  1
  Te  Te1  1  0.00000000  0.14399500  0.43522700  1
  Te  Te2  1  0.00000000  0.35600500  0.93522700  1
  Te  Te3  1  0.00000000  0.64399500  0.06477300  1
  Te  Te4  1  0.50000000  0.32859900  0.31022700  1
  Te  Te5  1  0.50000000  0.67140100  0.68977300  1
  Te  Te6  1  0.50000000  0.82859900  0.18977300  1
  Te  Te7  1  0.50000000  0.17140100  0.81022700  1
  Te  Te8  1  0.50000000  0.83203500  0.40043100  1
  Te  Te9  1  0.50000000  0.16796500  0.59956900  1
  Te  Te10  1  0.50000000  0.33203500  0.09956900  1
  Te  Te11  1  0.50000000  0.66796500  0.90043100  1
  Te  Te12  1  0.00000000  0.61020500  0.29492500  1
  Te  Te13  1  0.00000000  0.38979500  0.70507500  1
  Te  Te14  1  0.00000000  0.11020500  0.20507500  1
  Te  Te15  1  0.00000000  0.88979500  0.79492500  1
loop_
_geom_bond_atom_site_label_1
_geom_bond_atom_site_label_2
_geom_bond_distance
_geom_bond_site_symmetry_2
Nb0 Te4 2.842724 1_555
Nb0 Te8 2.860524 1_555
Nb0 Te12 2.951797 1_555
Nb0 Te12 2.951797 1_655
Nb1 Te5 2.842724 1_555
Nb1 Te9 2.860524 1_555
Nb1 Te13 2.951797 1_555
Nb1 Te13 2.951797 1_655
Nb2 Te6 2.842724 1_545
Nb2 Te10 2.860524 1_555
Nb2 Te14 2.951797 1_555
Nb2 Te14 2.951797 1_655
Nb3 Te7 2.842724 1_565
Nb3 Te11 2.860524 1_555
Nb3 Te15 2.951797 1_655
Nb3 Te15 2.951797 1_555
Nb4 Te5 2.842505 1_555
Nb4 Te8 2.851359 1_555
Nb4 Te0 2.949984 1_655
Nb4 Te0 2.949984 1_555
Nb5 Te4 2.842505 1_555
Nb5 Te9 2.851359 1_555
Nb5 Te1 2.949984 1_655
Nb5 Te1 2.949984 1_555
Nb6 Te7 2.842505 1_555
Nb6 Te10 2.851359 1_556
Nb6 Te2 2.949984 1_555
Nb6 Te2 2.949984 1_655
Nb7 Te6 2.842505 1_555
Nb7 Te11 2.851359 1_554
Nb7 Te3 2.949984 1_655
Nb7 Te3 2.949984 1_555
Nb8 Te12 2.850623 1_555
Nb8 Te0 2.857680 1_555
Nb8 Te8 2.952641 1_455
Nb8 Te8 2.952641 1_555
Nb9 Te13 2.850623 1_555
Nb9 Te1 2.857680 1_555
Nb9 Te9 2.952641 1_555
Nb9 Te9 2.952641 1_455
Nb10 Te14 2.850623 1_555
Nb10 Te2 2.857680 1_554
Nb10 Te10 2.952641 1_555
Nb10 Te10 2.952641 1_455
Nb11 Te15 2.850623 1_555
Nb11 Te3 2.857680 1_556
Nb11 Te11 2.952641 1_555
Nb11 Te11 2.952641 1_455
Nb12 Te12 2.842989 1_555
Nb12 Te1 2.849590 1_555
Nb12 Te4 2.944201 1_455
Nb12 Te4 2.944201 1_555
Nb13 Te13 2.842989 1_555
Nb13 Te0 2.849590 1_555
Nb13 Te5 2.944201 1_555
Nb13 Te5 2.944201 1_455
Nb14 Te14 2.842989 1_565
Nb14 Te3 2.849590 1_555
Nb14 Te6 2.944201 1_555
Nb14 Te6 2.944201 1_455
Nb15 Te15 2.842989 1_545
Nb15 Te2 2.849590 1_555
Nb15 Te7 2.944201 1_555
Nb15 Te7 2.944201 1_455
Fe0 Fe2 2.437272 1_455
Fe0 Fe2 2.451527 1_555
Fe0 Nb12 2.612834 1_555
Fe0 Nb13 2.612834 1_555
Fe0 Nb1 2.615964 1_555
Fe0 Nb0 2.615964 1_555
Fe0 Nb5 2.629154 1_555
Fe0 Nb4 2.629154 1_555
Fe0 Nb8 2.630342 1_555
Fe0 Nb9 2.630342 1_555
Fe1 Fe3 2.437272 1_655
Fe1 Fe3 2.451527 1_555
Fe1 Nb14 2.612834 1_645
Fe1 Nb15 2.612834 1_654
Fe1 Nb3 2.615964 1_544
Fe1 Nb2 2.615964 1_555
Fe1 Nb7 2.629154 1_545
Fe1 Nb6 2.629154 1_554
Fe1 Nb10 2.630342 1_655
Fe1 Nb11 2.630342 1_644
Fe2 Nb12 2.612834 1_655
Fe2 Nb13 2.612834 1_655
Fe2 Nb1 2.615964 1_555
Fe2 Nb0 2.615964 1_555
Fe2 Nb5 2.629154 1_555
Fe2 Nb4 2.629154 1_555
Fe2 Nb8 2.630342 1_655
Fe2 Nb9 2.630342 1_655
Fe3 Nb14 2.612834 1_545
Fe3 Nb15 2.612834 1_554
Fe3 Nb3 2.615964 1_544
Fe3 Nb2 2.615964 1_555
Fe3 Nb7 2.629154 1_545
Fe3 Nb6 2.629154 1_554
Fe3 Nb10 2.630342 1_555
Fe3 Nb11 2.630342 1_544
