# generated using pymatgen
data_ZrHg3
_symmetry_space_group_name_H-M   'P 1'
_cell_length_a   6.38990320
_cell_length_b   6.38990320
_cell_length_c   4.83839482
_cell_angle_alpha   90.00000000
_cell_angle_beta   90.00000000
_cell_angle_gamma   120.00000186
_symmetry_Int_Tables_number   1
_chemical_formula_structural   ZrHg3
_chemical_formula_sum   'Zr2 Hg6'
_cell_volume   171.08836904
_cell_formula_units_Z   2
loop_
 _symmetry_equiv_pos_site_id
 _symmetry_equiv_pos_as_xyz
  1  'x, y, z'
loop_
 _atom_site_type_symbol
 _atom_site_label
 _atom_site_symmetry_multiplicity
 _atom_site_fract_x
 _atom_site_fract_y
 _atom_site_fract_z
 _atom_site_occupancy
  Zr  Zr0  1  0.33333300  0.66666700  0.75000000  1
  Zr  Zr1  1  0.66666700  0.33333300  0.25000000  1
  Hg  Hg0  1  0.16879147  0.33758194  0.25000000  1
  Hg  Hg1  1  0.66241806  0.83120853  0.25000000  1
  Hg  Hg2  1  0.16879147  0.83120853  0.25000000  1
  Hg  Hg3  1  0.83120853  0.66241806  0.75000000  1
  Hg  Hg4  1  0.33758194  0.16879147  0.75000000  1
  Hg  Hg5  1  0.83120853  0.16879147  0.75000000  1
loop_
_geom_bond_atom_site_label_1
_geom_bond_atom_site_label_2
_geom_bond_distance
_geom_bond_site_symmetry_2
Hg0 Zr0 3.028021 1_554
Hg0 Zr0 3.028021 1_555
Hg0 Hg4 3.056527 1_554
Hg0 Hg4 3.056527 1_555
Hg0 Hg5 3.056534 1_454
Hg0 Hg5 3.056534 1_455
Hg0 Hg1 3.154226 1_555
Hg0 Hg2 3.154226 1_555
Hg0 Zr1 3.195038 1_455
Hg0 Zr1 3.195038 1_555
Hg0 Hg1 3.235677 1_445
Hg0 Hg2 3.235677 1_545
Hg1 Zr0 3.028021 1_555
Hg1 Zr0 3.028021 1_554
Hg1 Hg3 3.056527 1_555
Hg1 Hg3 3.056527 1_554
Hg1 Hg5 3.056534 1_564
Hg1 Hg5 3.056534 1_565
Hg1 Hg2 3.154226 1_555
Hg1 Zr1 3.195038 1_565
Hg1 Zr1 3.195038 1_555
Hg1 Hg2 3.235677 1_655
Hg2 Zr0 3.028014 1_554
Hg2 Zr0 3.028014 1_555
Hg2 Hg3 3.056534 1_455
Hg2 Hg4 3.056534 1_564
Hg2 Hg4 3.056534 1_565
Hg2 Hg3 3.056534 1_454
Hg2 Zr1 3.195038 1_565
Hg2 Zr1 3.195038 1_455
Hg3 Zr1 3.028021 1_555
Hg3 Zr1 3.028021 1_556
Hg3 Hg4 3.154226 1_555
Hg3 Hg5 3.154226 1_555
Hg3 Zr0 3.195038 1_655
Hg3 Zr0 3.195038 1_555
Hg3 Hg4 3.235677 1_665
Hg3 Hg5 3.235677 1_565
Hg4 Zr1 3.028021 1_555
Hg4 Zr1 3.028021 1_556
Hg4 Hg5 3.154226 1_555
Hg4 Zr0 3.195038 1_545
Hg4 Zr0 3.195038 1_555
Hg4 Hg5 3.235677 1_455
Hg5 Zr1 3.028014 1_555
Hg5 Zr1 3.028014 1_556
Hg5 Zr0 3.195038 1_655
Hg5 Zr0 3.195038 1_545
