# generated using pymatgen
data_CoN3Cl5
_symmetry_space_group_name_H-M   'P 1'
_cell_length_a   9.32935600
_cell_length_b   9.43983900
_cell_length_c   12.65799300
_cell_angle_alpha   90.00000000
_cell_angle_beta   90.00000000
_cell_angle_gamma   90.00000000
_symmetry_Int_Tables_number   1
_chemical_formula_structural   CoN3Cl5
_chemical_formula_sum   'Co4 N12 Cl20'
_cell_volume   1114.75929994
_cell_formula_units_Z   4
loop_
 _symmetry_equiv_pos_site_id
 _symmetry_equiv_pos_as_xyz
  1  'x, y, z'
loop_
 _atom_site_type_symbol
 _atom_site_label
 _atom_site_symmetry_multiplicity
 _atom_site_fract_x
 _atom_site_fract_y
 _atom_site_fract_z
 _atom_site_occupancy
  Co  Co0  1  0.81785100  0.25000000  0.39169600  1
  Co  Co1  1  0.31785100  0.25000000  0.10830400  1
  Co  Co2  1  0.18214900  0.75000000  0.60830400  1
  Co  Co3  1  0.68214900  0.75000000  0.89169600  1
  N  N0  1  0.96442700  0.25000000  0.89662800  1
  N  N1  1  0.46442700  0.25000000  0.60337200  1
  N  N2  1  0.03557300  0.75000000  0.10337200  1
  N  N3  1  0.53557300  0.75000000  0.39662800  1
  N  N4  1  0.88954500  0.02573500  0.68225700  1
  N  N5  1  0.38954500  0.47426500  0.81774300  1
  N  N6  1  0.11045500  0.52573500  0.31774300  1
  N  N7  1  0.61045500  0.97426500  0.18225700  1
  N  N8  1  0.11045500  0.97426500  0.31774300  1
  N  N9  1  0.61045500  0.52573500  0.18225700  1
  N  N10  1  0.88954500  0.47426500  0.68225700  1
  N  N11  1  0.38954500  0.02573500  0.81774300  1
  Cl  Cl0  1  0.86215100  0.25000000  0.22585900  1
  Cl  Cl1  1  0.36215100  0.25000000  0.27414100  1
  Cl  Cl2  1  0.13784900  0.75000000  0.77414100  1
  Cl  Cl3  1  0.63784900  0.75000000  0.72585900  1
  Cl  Cl4  1  0.51206400  0.25000000  0.01772500  1
  Cl  Cl5  1  0.01206400  0.25000000  0.48227500  1
  Cl  Cl6  1  0.48793600  0.75000000  0.98227500  1
  Cl  Cl7  1  0.98793600  0.75000000  0.51772500  1
  Cl  Cl8  1  0.59739100  0.25000000  0.68271400  1
  Cl  Cl9  1  0.09739100  0.25000000  0.81728600  1
  Cl  Cl10  1  0.40260900  0.75000000  0.31728600  1
  Cl  Cl11  1  0.90260900  0.75000000  0.18271400  1
  Cl  Cl12  1  0.69521200  0.06433900  0.42856300  1
  Cl  Cl13  1  0.19521200  0.43566100  0.07143700  1
  Cl  Cl14  1  0.30478800  0.56433800  0.57143700  1
  Cl  Cl15  1  0.80478800  0.93566200  0.92856300  1
  Cl  Cl16  1  0.30478800  0.93566200  0.57143700  1
  Cl  Cl17  1  0.80478800  0.56433800  0.92856300  1
  Cl  Cl18  1  0.69521200  0.43566100  0.42856300  1
  Cl  Cl19  1  0.19521200  0.06433900  0.07143700  1
loop_
_geom_bond_atom_site_label_1
_geom_bond_atom_site_label_2
_geom_bond_distance
_geom_bond_site_symmetry_2
Cl0 Co0 2.139462 1_555
Cl1 Co1 2.139462 1_555
Cl2 Co2 2.139462 1_555
Cl3 Co3 2.139462 1_555
Cl4 Co1 2.144176 1_555
Cl5 Co0 2.144176 1_455
Cl6 Co3 2.144176 1_555
Cl7 Co2 2.144176 1_655
Cl8 N1 1.596058 1_555
Cl9 N0 1.596058 1_455
Cl10 N3 1.596058 1_555
Cl11 N2 1.596058 1_655
Cl12 Co0 2.144406 1_555
Cl13 Co1 2.144406 1_555
Cl14 Co2 2.144414 1_555
Cl15 Co3 2.144414 1_555
Cl16 Co2 2.144414 1_555
Cl17 Co3 2.144414 1_555
Cl18 Co0 2.144406 1_555
Cl19 Co1 2.144406 1_555
