# generated using pymatgen
data_K4Na4Mo3(WO4)5
_symmetry_space_group_name_H-M   'P 1'
_cell_length_a   11.62329985
_cell_length_b   11.76646397
_cell_length_c   17.56099575
_cell_angle_alpha   109.49758229
_cell_angle_beta   109.14548309
_cell_angle_gamma   90.14761130
_symmetry_Int_Tables_number   1
_chemical_formula_structural   K4Na4Mo3(WO4)5
_chemical_formula_sum   'K16 Na16 Mo12 W20 O80'
_cell_volume   2121.78569720
_cell_formula_units_Z   4
loop_
 _symmetry_equiv_pos_site_id
 _symmetry_equiv_pos_as_xyz
  1  'x, y, z'
loop_
 _atom_site_type_symbol
 _atom_site_label
 _atom_site_symmetry_multiplicity
 _atom_site_fract_x
 _atom_site_fract_y
 _atom_site_fract_z
 _atom_site_occupancy
  K  K0  1  0.30454200  0.06743000  0.10775500  1
  K  K1  1  0.30162200  0.55960600  0.10578900  1
  K  K2  1  0.80451900  0.06063800  0.10948900  1
  K  K3  1  0.80235900  0.55899200  0.10654200  1
  K  K4  1  0.20546600  0.93358800  0.39281400  1
  K  K5  1  0.19102600  0.93016700  0.88255400  1
  K  K6  1  0.69980700  0.43569600  0.39642300  1
  K  K7  1  0.69152700  0.42826800  0.88456300  1
  K  K8  1  0.69614900  0.93502600  0.39187200  1
  K  K9  1  0.05805300  0.29317500  0.10898100  1
  K  K10  1  0.05062100  0.79164300  0.10376800  1
  K  K11  1  0.55210200  0.29316200  0.10754700  1
  K  K12  1  0.55221800  0.79452700  0.10253500  1
  K  K13  1  0.45066400  0.71295300  0.39586500  1
  K  K14  1  0.44107300  0.70606000  0.88289700  1
  K  K15  1  0.94001500  0.70158200  0.88448100  1
  Na  Na0  1  0.30455600  0.07008800  0.60382300  1
  Na  Na1  1  0.30487700  0.56428900  0.60110500  1
  Na  Na2  1  0.79517500  0.07163800  0.60513100  1
  Na  Na3  1  0.79541000  0.56979500  0.60469800  1
  Na  Na4  1  0.21142600  0.44141900  0.40812600  1
  Na  Na5  1  0.19824500  0.43537600  0.89833000  1
  Na  Na6  1  0.69563700  0.93445600  0.89794100  1
  Na  Na7  1  0.05258300  0.28429400  0.60606100  1
  Na  Na8  1  0.04892600  0.78564800  0.60270800  1
  Na  Na9  1  0.55308000  0.28458100  0.60224900  1
  Na  Na10  1  0.54678900  0.78642100  0.60418700  1
  Na  Na11  1  0.45876200  0.21529400  0.40897800  1
  Na  Na12  1  0.45002100  0.21078900  0.89865000  1
  Na  Na13  1  0.94976400  0.21729200  0.40499000  1
  Na  Na14  1  0.94666100  0.21227600  0.89723600  1
  Na  Na15  1  0.94888200  0.71678300  0.40292300  1
  Mo  Mo0  1  0.00430000  0.99726700  0.99667200  1
  Mo  Mo1  1  0.00078000  0.49496300  0.99451100  1
  Mo  Mo2  1  0.50232400  0.99789000  0.99329600  1
  Mo  Mo3  1  0.51391400  0.00654200  0.50624900  1
  Mo  Mo4  1  0.50274800  0.49456900  0.99389900  1
  Mo  Mo5  1  0.51585400  0.50028100  0.50782000  1
  Mo  Mo6  1  0.25251800  0.24921900  0.99532900  1
  Mo  Mo7  1  0.25170800  0.74393400  0.99219700  1
  Mo  Mo8  1  0.26573100  0.74935000  0.50391600  1
  Mo  Mo9  1  0.75449100  0.24258900  0.99284700  1
  Mo  Mo10  1  0.76857300  0.25197400  0.50598700  1
  Mo  Mo11  1  0.75116100  0.74681600  0.99364100  1
  W  W0  1  0.01657100  0.00327900  0.50357300  1
  W  W1  1  0.01613900  0.50174000  0.50260600  1
  W  W2  1  0.26651600  0.25488200  0.50620700  1
  W  W3  1  0.76553800  0.75411400  0.50736800  1
  W  W4  1  0.10087600  0.10974400  0.26051900  1
  W  W5  1  0.08698500  0.09745100  0.74553400  1
  W  W6  1  0.09612800  0.59224500  0.25533200  1
  W  W7  1  0.08786600  0.58130500  0.73947000  1
  W  W8  1  0.59827000  0.10072100  0.25615900  1
  W  W9  1  0.58548900  0.08897200  0.74684500  1
  W  W10  1  0.60026200  0.59420900  0.25028000  1
  W  W11  1  0.58957300  0.58864900  0.74258500  1
  W  W12  1  0.34747900  0.40390500  0.25981000  1
  W  W13  1  0.33911900  0.40012400  0.74847100  1
  W  W14  1  0.34826000  0.91200100  0.24803100  1
  W  W15  1  0.33777000  0.90849000  0.73987400  1
  W  W16  1  0.85670500  0.40375900  0.25346300  1
  W  W17  1  0.84336700  0.39851100  0.74410600  1
  W  W18  1  0.85413100  0.90807400  0.25183500  1
  W  W19  1  0.83438100  0.91293200  0.74903900  1
  O  O0  1  0.12951200  0.12326900  0.49050900  1
  O  O1  1  0.12173900  0.12088300  0.98467600  1
  O  O2  1  0.12551900  0.61291900  0.49040200  1
  O  O3  1  0.12263800  0.61313800  0.98269000  1
  O  O4  1  0.63102500  0.12250900  0.49528000  1
  O  O5  1  0.62136700  0.11654800  0.98056100  1
  O  O6  1  0.64322900  0.63241800  0.49822000  1
  O  O7  1  0.61706400  0.61186100  0.98430200  1
  O  O8  1  0.13040600  0.37617000  0.00240200  1
  O  O9  1  0.14854000  0.38690200  0.52082500  1
  O  O10  1  0.13349300  0.87563800  0.00490700  1
  O  O11  1  0.13230800  0.88615200  0.51371100  1
  O  O12  1  0.63082100  0.37166300  0.00423000  1
  O  O13  1  0.64820400  0.38942600  0.52300300  1
  O  O14  1  0.62869800  0.88301200  0.00308000  1
  O  O15  1  0.65044200  0.88553200  0.52263500  1
  O  O16  1  0.38217900  0.12423600  0.49025200  1
  O  O17  1  0.37143500  0.11923900  0.98125500  1
  O  O18  1  0.38469400  0.61121900  0.49185000  1
  O  O19  1  0.36717100  0.61148600  0.98093900  1
  O  O20  1  0.89274900  0.11068700  0.49345100  1
  O  O21  1  0.87290400  0.11568000  0.98186600  1
  O  O22  1  0.88575100  0.62385900  0.49475800  1
  O  O23  1  0.87445100  0.60984400  0.98468400  1
  O  O24  1  0.37878000  0.37575300  0.00077100  1
  O  O25  1  0.40023800  0.38638600  0.52374700  1
  O  O26  1  0.37871100  0.87684400  0.00269900  1
  O  O27  1  0.40116500  0.89572900  0.52787700  1
  O  O28  1  0.88448700  0.37389800  0.00641600  1
  O  O29  1  0.90790500  0.39232200  0.51722800  1
  O  O30  1  0.88346400  0.88414000  0.00406100  1
  O  O31  1  0.88962900  0.87699300  0.51376300  1
  O  O32  1  0.07520100  0.08582700  0.13954300  1
  O  O33  1  0.09297600  0.09798500  0.63435900  1
  O  O34  1  0.06862000  0.58514700  0.14049100  1
  O  O35  1  0.09011000  0.60622700  0.63570800  1
  O  O36  1  0.56897700  0.08565300  0.13665000  1
  O  O37  1  0.59003900  0.11086600  0.64357300  1
  O  O38  1  0.57124100  0.59073400  0.13567700  1
  O  O39  1  0.60045800  0.61282400  0.64033300  1
  O  O40  1  0.44763800  0.39084100  0.36722900  1
  O  O41  1  0.43683900  0.38983600  0.85639900  1
  O  O42  1  0.44735600  0.91434200  0.36339600  1
  O  O43  1  0.44062400  0.91296500  0.85358100  1
  O  O44  1  0.95905000  0.40613800  0.37024200  1
  O  O45  1  0.93403400  0.39462300  0.85585400  1
  O  O46  1  0.94830000  0.90435600  0.36861700  1
  O  O47  1  0.93677500  0.90531300  0.85634600  1
  O  O48  1  0.32445000  0.31088300  0.13838300  1
  O  O49  1  0.34149300  0.28088900  0.64030300  1
  O  O50  1  0.32591900  0.79693200  0.13752100  1
  O  O51  1  0.33928900  0.77587500  0.64135800  1
  O  O52  1  0.82766700  0.29546800  0.13917800  1
  O  O53  1  0.86129600  0.28003300  0.64162300  1
  O  O54  1  0.82869400  0.79767000  0.13967400  1
  O  O55  1  0.84310600  0.79704800  0.63887600  1
  O  O56  1  0.20301800  0.22811800  0.36874300  1
  O  O57  1  0.18078100  0.21174700  0.85600300  1
  O  O58  1  0.20761600  0.70442900  0.36459300  1
  O  O59  1  0.18383300  0.69410800  0.85334900  1
  O  O60  1  0.71695700  0.20611900  0.36572400  1
  O  O61  1  0.70334000  0.19542800  0.85571600  1
  O  O62  1  0.70241300  0.69963800  0.37080200  1
  O  O63  1  0.67975100  0.70737300  0.85390600  1
  O  O64  1  0.44586500  0.07868800  0.27393400  1
  O  O65  1  0.41786100  0.07100000  0.74972900  1
  O  O66  1  0.44275300  0.54510600  0.25100000  1
  O  O67  1  0.41925300  0.53936500  0.72933800  1
  O  O68  1  0.94976500  0.07417600  0.27775800  1
  O  O69  1  0.91947600  0.05904300  0.74040700  1
  O  O70  1  0.94123800  0.57006500  0.27297900  1
  O  O71  1  0.91735700  0.54351900  0.72770400  1
  O  O72  1  0.19332500  0.44941200  0.27423100  1
  O  O73  1  0.17122400  0.43033000  0.74646400  1
  O  O74  1  0.18763000  0.95664500  0.24702700  1
  O  O75  1  0.16589300  0.94006100  0.72679800  1
  O  O76  1  0.69945600  0.45406700  0.25658800  1
  O  O77  1  0.67368100  0.43437900  0.73038300  1
  O  O78  1  0.69377200  0.95471700  0.24833700  1
  O  O79  1  0.66679100  0.93418100  0.74803700  1
loop_
_geom_bond_atom_site_label_1
_geom_bond_atom_site_label_2
_geom_bond_distance
_geom_bond_site_symmetry_2
K0 O10 2.684827 1_545
K0 O48 2.726740 1_555
K0 O26 2.732616 1_545
K0 O1 2.735659 1_554
K0 O64 2.797963 1_555
K0 O17 2.818788 1_554
K0 O32 2.891854 1_555
K0 O36 2.941340 1_555
K1 O66 2.602078 1_555
K1 O8 2.628200 1_555
K1 O50 2.653719 1_555
K1 O24 2.704997 1_555
K1 O3 2.713607 1_554
K1 O19 2.783321 1_554
K1 O34 2.959869 1_555
K1 O38 3.002927 1_555
K1 O48 3.159991 1_555
K2 O14 2.627257 1_545
K2 O52 2.630883 1_555
K2 O30 2.672116 1_545
K2 O5 2.816171 1_554
K2 O68 2.831874 1_555
K2 O21 2.865126 1_554
K2 O36 2.928573 1_555
K2 O32 3.011092 1_655
K2 O54 3.306915 1_545
K3 O12 2.654424 1_555
K3 O54 2.665953 1_555
K3 O28 2.702145 1_555
K3 O7 2.738507 1_554
K3 O23 2.769098 1_554
K3 O70 2.795610 1_555
K3 O38 2.897745 1_555
K3 O34 2.947964 1_655
K4 O58 2.575500 1_555
K4 O74 2.605153 1_555
K4 O0 2.674255 1_565
K4 O16 2.699547 1_565
K4 O11 2.741314 1_555
K4 O27 2.858292 1_555
K4 O46 2.880572 1_455
K4 O42 3.016779 1_555
K5 O59 2.646644 1_555
K5 O1 2.677824 1_565
K5 O75 2.696108 1_555
K5 O10 2.708513 1_556
K5 O17 2.714525 1_565
K5 O26 2.734201 1_556
K5 O47 2.836250 1_455
K5 O43 3.101456 1_555
K6 O76 2.534697 1_555
K6 O60 2.593952 1_555
K6 O6 2.646295 1_555
K6 O13 2.697783 1_555
K6 O22 2.744104 1_555
K6 O40 2.821013 1_555
K6 O29 2.823975 1_555
K6 O44 3.196789 1_555
K7 O61 2.627272 1_555
K7 O7 2.638522 1_555
K7 O77 2.672208 1_555
K7 O23 2.682089 1_555
K7 O12 2.694847 1_556
K7 O28 2.791366 1_556
K7 O41 2.845347 1_555
K7 O45 3.026683 1_555
K8 O78 2.598491 1_555
K8 O4 2.640690 1_565
K8 O62 2.673569 1_555
K8 O20 2.741658 1_565
K8 O15 2.754241 1_555
K8 O42 2.763760 1_555
K8 O31 2.816319 1_555
K8 O46 3.094981 1_555
K9 O28 2.642851 1_455
K9 O32 2.662064 1_555
K9 O8 2.722541 1_555
K9 O1 2.745265 1_554
K9 O21 2.773043 1_454
K9 O72 2.775625 1_555
K9 O52 2.893970 1_455
K9 O48 2.962086 1_555
K10 O74 2.594267 1_555
K10 O30 2.660231 1_455
K10 O10 2.675079 1_555
K10 O34 2.706164 1_555
K10 O23 2.706392 1_454
K10 O3 2.797957 1_554
K10 O54 2.845090 1_455
K10 O50 3.053627 1_555
K11 O36 2.651608 1_555
K11 O76 2.665211 1_555
K11 O12 2.680575 1_555
K11 O24 2.695841 1_555
K11 O17 2.722081 1_554
K11 O5 2.834152 1_554
K11 O48 2.864564 1_555
K11 O52 3.064442 1_555
K12 O78 2.610515 1_555
K12 O26 2.627451 1_555
K12 O38 2.643405 1_555
K12 O14 2.674336 1_555
K12 O7 2.748563 1_554
K12 O19 2.778139 1_554
K12 O50 2.888905 1_555
K12 O54 3.059779 1_555
K12 O36 3.268205 1_565
K13 O42 2.613387 1_555
K13 O66 2.621547 1_555
K13 O18 2.655576 1_555
K13 O58 2.690080 1_555
K13 O6 2.765420 1_555
K13 O27 2.807788 1_555
K13 O15 2.835274 1_555
K13 O62 3.095439 1_555
K14 O43 2.650850 1_555
K14 O26 2.678692 1_556
K14 O19 2.680408 1_555
K14 O67 2.683552 1_555
K14 O7 2.742989 1_555
K14 O14 2.751296 1_556
K14 O59 2.856649 1_555
K14 O63 2.981145 1_555
K15 O47 2.602106 1_555
K15 O23 2.643037 1_555
K15 O71 2.685529 1_555
K15 O30 2.712479 1_556
K15 O3 2.715024 1_655
K15 O10 2.773020 1_656
K15 O63 2.899033 1_555
K15 O59 3.053437 1_655
Na0 O49 2.345297 1_555
Na0 O65 2.463302 1_555
Na0 O27 2.533061 1_545
Na0 O0 2.583208 1_555
Na0 O11 2.609584 1_545
Na0 O33 2.682337 1_555
Na0 O16 2.687614 1_555
Na1 O67 2.324562 1_555
Na1 O51 2.343610 1_555
Na1 O9 2.445785 1_555
Na1 O2 2.557964 1_555
Na1 O25 2.560718 1_555
Na1 O18 2.592083 1_555
Na1 O35 2.765042 1_555
Na2 O53 2.373242 1_555
Na2 O69 2.395321 1_555
Na2 O15 2.447205 1_545
Na2 O4 2.466260 1_555
Na2 O37 2.684665 1_555
Na2 O20 2.720577 1_555
Na2 O31 2.782182 1_545
Na3 O71 2.282649 1_555
Na3 O13 2.414261 1_555
Na3 O6 2.434150 1_555
Na3 O39 2.550918 1_555
Na3 O55 2.553515 1_555
Na3 O22 2.716785 1_555
Na3 O29 2.760472 1_555
Na4 O72 2.324885 1_555
Na4 O56 2.362765 1_555
Na4 O2 2.483381 1_555
Na4 O18 2.507106 1_555
Na4 O9 2.580031 1_555
Na4 O25 2.705625 1_555
Na4 O44 2.783753 1_455
Na5 O57 2.471888 1_555
Na5 O3 2.477273 1_555
Na5 O8 2.497910 1_556
Na5 O19 2.521451 1_555
Na5 O24 2.550629 1_556
Na5 O73 2.561134 1_555
Na5 O45 2.910065 1_455
Na6 O14 2.463061 1_556
Na6 O5 2.489359 1_565
Na6 O63 2.509183 1_555
Na6 O79 2.541191 1_555
Na6 O30 2.581498 1_556
Na6 O21 2.617651 1_565
Na6 O43 2.794046 1_555
Na7 O33 2.419212 1_555
Na7 O73 2.421351 1_555
Na7 O53 2.503411 1_455
Na7 O20 2.531585 1_455
Na7 O29 2.547771 1_455
Na7 O0 2.671984 1_555
Na7 O9 2.690093 1_555
Na8 O75 2.301989 1_555
Na8 O35 2.379469 1_555
Na8 O22 2.455387 1_455
Na8 O31 2.501422 1_455
Na8 O11 2.646083 1_555
Na8 O55 2.661953 1_455
Na8 O2 2.701510 1_555
Na9 O77 2.325021 1_555
Na9 O37 2.383140 1_555
Na9 O25 2.449147 1_555
Na9 O16 2.512918 1_555
Na9 O4 2.592317 1_555
Na9 O13 2.613293 1_555
Na9 O49 2.755662 1_555
Na10 O39 2.361506 1_555
Na10 O27 2.447237 1_555
Na10 O79 2.468647 1_555
Na10 O18 2.553145 1_555
Na10 O15 2.664942 1_555
Na10 O6 2.670354 1_555
Na10 O51 2.709915 1_555
Na11 O64 2.334772 1_555
Na11 O40 2.402269 1_555
Na11 O16 2.413835 1_555
Na11 O4 2.573555 1_555
Na11 O25 2.602968 1_555
Na11 O13 2.720680 1_555
Na11 O56 2.837973 1_555
Na12 O41 2.446004 1_555
Na12 O17 2.450768 1_555
Na12 O65 2.483672 1_555
Na12 O24 2.515570 1_556
Na12 O5 2.542092 1_555
Na12 O12 2.553037 1_556
Na12 O57 2.970354 1_555
Na13 O68 2.305720 1_555
Na13 O44 2.503716 1_555
Na13 O29 2.507503 1_555
Na13 O20 2.529349 1_555
Na13 O60 2.555162 1_555
Na13 O0 2.628167 1_655
Na13 O9 2.764480 1_655
Na14 O45 2.475005 1_555
Na14 O21 2.488747 1_555
Na14 O28 2.509350 1_556
Na14 O8 2.589427 1_656
Na14 O1 2.592170 1_655
Na14 O69 2.654644 1_555
Na14 O61 2.667885 1_555
Na15 O70 2.330659 1_555
Na15 O46 2.473689 1_555
Na15 O31 2.500659 1_555
Na15 O22 2.506783 1_555
Na15 O11 2.640329 1_655
Na15 O2 2.695572 1_655
Na15 O62 2.725245 1_555
Mo0 O30 1.996632 1_456
Mo0 O10 2.081062 1_556
Mo0 O21 2.081760 1_465
Mo0 O1 2.099107 1_565
Mo0 O47 2.192355 1_455
Mo0 O32 2.225752 1_566
Mo1 O23 2.003198 1_455
Mo1 O8 2.060646 1_556
Mo1 O28 2.067434 1_456
Mo1 O3 2.087619 1_555
Mo1 O45 2.182189 1_455
Mo1 O34 2.274528 1_556
Mo2 O14 2.003490 1_556
Mo2 O5 2.077342 1_565
Mo2 O17 2.097554 1_565
Mo2 O26 2.102924 1_556
Mo2 O43 2.176742 1_555
Mo2 O36 2.232782 1_566
Mo3 O4 2.022328 1_555
Mo3 O27 2.051844 1_545
Mo3 O16 2.080802 1_555
Mo3 O15 2.148039 1_545
Mo3 O37 2.173477 1_555
Mo3 O42 2.230395 1_545
Mo4 O7 1.997833 1_555
Mo4 O24 2.064373 1_556
Mo4 O12 2.085527 1_556
Mo4 O19 2.100614 1_555
Mo4 O41 2.175188 1_555
Mo4 O38 2.219836 1_556
Mo5 O18 2.020125 1_555
Mo5 O13 2.027913 1_555
Mo5 O25 2.041467 1_555
Mo5 O39 2.137999 1_555
Mo5 O6 2.228124 1_555
Mo5 O40 2.229545 1_555
Mo6 O24 2.044845 1_556
Mo6 O1 2.058883 1_555
Mo6 O8 2.064947 1_556
Mo6 O17 2.072030 1_555
Mo6 O57 2.194497 1_555
Mo6 O48 2.222362 1_556
Mo7 O19 2.061093 1_555
Mo7 O26 2.067821 1_556
Mo7 O3 2.073492 1_555
Mo7 O10 2.078608 1_556
Mo7 O59 2.166345 1_555
Mo7 O50 2.266440 1_556
Mo8 O18 2.138315 1_555
Mo8 O27 2.165508 1_555
Mo8 O2 2.183544 1_555
Mo8 O58 2.184630 1_555
Mo8 O51 2.190009 1_555
Mo8 O11 2.242472 1_555
Mo9 O21 2.038098 1_555
Mo9 O5 2.048382 1_555
Mo9 O28 2.057438 1_556
Mo9 O12 2.099973 1_556
Mo9 O61 2.151221 1_555
Mo9 O52 2.282614 1_556
Mo10 O4 2.123922 1_555
Mo10 O13 2.150755 1_555
Mo10 O53 2.175633 1_555
Mo10 O60 2.204554 1_555
Mo10 O20 2.207236 1_555
Mo10 O29 2.224359 1_555
Mo11 O14 2.147315 1_556
Mo11 O30 2.148120 1_556
Mo11 O7 2.150251 1_555
Mo11 O23 2.160177 1_555
Mo11 O63 2.197197 1_555
Mo11 O54 2.281168 1_556
O0 W0 2.042913 1_555
O0 W2 2.103436 1_555
O2 W1 1.931561 1_555
O6 W3 1.945104 1_555
O9 W1 2.067092 1_555
O9 W2 2.082076 1_555
O11 W0 1.938293 1_565
O15 W3 2.054720 1_555
O16 W2 2.054069 1_555
O20 W0 1.921379 1_655
O22 W3 2.082745 1_555
O22 W1 2.094509 1_655
O25 W2 2.064067 1_555
O29 W1 1.931418 1_655
O31 W3 1.989492 1_555
O31 W0 2.180937 1_665
O32 W4 1.966264 1_555
O33 W5 1.978357 1_555
O33 W0 2.062518 1_555
O34 W6 1.908100 1_555
O35 W7 1.948019 1_555
O35 W1 2.114772 1_555
O36 W8 1.958184 1_555
O37 W9 1.932064 1_555
O38 W10 1.914546 1_555
O39 W11 1.952195 1_555
O40 W12 1.921297 1_555
O41 W13 1.907564 1_555
O42 W14 1.965650 1_555
O43 W15 1.944965 1_555
O44 W16 1.995700 1_555
O44 W1 2.085122 1_655
O45 W17 1.915040 1_555
O46 W18 1.998380 1_555
O46 W0 2.126374 1_665
O47 W19 1.902040 1_555
O48 W12 1.970481 1_555
O49 W13 1.957790 1_555
O49 W2 2.137745 1_555
O50 W14 1.892207 1_555
O51 W15 1.909541 1_555
O52 W16 1.900471 1_555
O53 W17 1.948976 1_555
O54 W18 1.887471 1_555
O55 W19 1.995153 1_555
O55 W3 2.062659 1_555
O56 W4 1.925074 1_555
O56 W2 2.189519 1_555
O57 W5 1.903736 1_555
O58 W6 1.942364 1_555
O59 W7 1.939729 1_555
O60 W8 1.949472 1_555
O61 W9 1.943038 1_555
O62 W10 2.004892 1_555
O62 W3 2.125547 1_555
O63 W11 1.922817 1_555
O64 W8 1.927961 1_555
O64 W14 2.096481 1_545
O65 W9 1.978197 1_555
O65 W15 2.053582 1_545
O66 W10 1.923622 1_555
O66 W12 2.070054 1_555
O67 W11 1.977748 1_555
O67 W13 2.056597 1_555
O68 W4 1.944565 1_655
O68 W18 2.079814 1_545
O69 W5 1.963798 1_655
O69 W19 2.054385 1_545
O70 W6 1.955217 1_655
O70 W16 2.057571 1_555
O71 W7 1.957993 1_655
O71 W17 2.053482 1_555
O72 W12 1.942519 1_555
O72 W6 2.084996 1_555
O73 W13 1.975529 1_555
O73 W7 2.045983 1_555
O74 W14 1.936950 1_555
O74 W4 2.049210 1_565
O75 W15 1.985372 1_555
O75 W5 2.044267 1_565
O76 W16 1.934884 1_555
O76 W10 2.026985 1_555
O77 W17 1.971450 1_555
O77 W11 2.045371 1_555
O78 W18 1.931781 1_555
O78 W8 2.038320 1_565
O79 W19 1.959666 1_555
O79 W9 2.057205 1_565
