# generated using pymatgen
data_K19Ti3Sb29O88
_symmetry_space_group_name_H-M   'P 1'
_cell_length_a   10.30456810
_cell_length_b   10.41603091
_cell_length_c   20.24688726
_cell_angle_alpha   90.03185490
_cell_angle_beta   81.93076543
_cell_angle_gamma   89.86902338
_symmetry_Int_Tables_number   1
_chemical_formula_structural   K19Ti3Sb29O88
_chemical_formula_sum   'K19 Ti3 Sb29 O88'
_cell_volume   2151.63059552
_cell_formula_units_Z   1
loop_
 _symmetry_equiv_pos_site_id
 _symmetry_equiv_pos_as_xyz
  1  'x, y, z'
loop_
 _atom_site_type_symbol
 _atom_site_label
 _atom_site_symmetry_multiplicity
 _atom_site_fract_x
 _atom_site_fract_y
 _atom_site_fract_z
 _atom_site_occupancy
  K  K0  1  0.20555816  0.71786195  0.33985109  1
  K  K1  1  0.29249885  0.21829891  0.15955577  1
  K  K2  1  0.79480164  0.28383136  0.66179709  1
  K  K3  1  0.71491831  0.77843824  0.84567386  1
  K  K4  1  0.64084483  0.89840701  0.01761816  1
  K  K5  1  0.86658950  0.41136225  0.48094443  1
  K  K6  1  0.36853936  0.09307295  0.98157512  1
  K  K7  1  0.13311877  0.58930210  0.51938301  1
  K  K8  1  0.00145025  0.96314112  0.25270626  1
  K  K9  1  0.49699091  0.46189958  0.24921267  1
  K  K10  1  0.99323419  0.03745743  0.74818266  1
  K  K11  1  0.50812735  0.53718195  0.75059680  1
  K  K12  1  0.80139746  0.70179152  0.14051518  1
  K  K13  1  0.70052916  0.21388009  0.35217062  1
  K  K14  1  0.19913977  0.28913357  0.85255695  1
  K  K15  1  0.29724915  0.78504897  0.64972486  1
  K  K16  1  0.39479861  0.87328458  0.47158470  1
  K  K17  1  0.07866166  0.39344439  0.02484989  1
  K  K18  1  0.60598542  0.12682668  0.52881221  1
  Ti  Ti0  1  0.70216941  0.33265772  0.07624307  1
  Ti  Ti1  1  0.80051983  0.83414742  0.42298021  1
  Ti  Ti2  1  0.19898775  0.16579483  0.57693887  1
  Sb  Sb0  1  0.45972655  0.56029990  0.06799252  1
  Sb  Sb1  1  0.04405904  0.06547158  0.43352375  1
  Sb  Sb2  1  0.54416743  0.43425619  0.93350794  1
  Sb  Sb3  1  0.95611733  0.93422949  0.56643377  1
  Sb  Sb4  1  0.94264212  0.04638809  0.06883531  1
  Sb  Sb5  1  0.55735659  0.54390925  0.43042142  1
  Sb  Sb6  1  0.05531863  0.95919880  0.92898568  1
  Sb  Sb7  1  0.44227837  0.45656705  0.56958984  1
  Sb  Sb8  1  0.14868013  0.55922735  0.18542717  1
  Sb  Sb9  1  0.35231431  0.06070900  0.31517528  1
  Sb  Sb10  1  0.85212056  0.44171467  0.81696513  1
  Sb  Sb11  1  0.64862272  0.93933881  0.68485869  1
  Sb  Sb12  1  0.17110759  0.79233613  0.07726082  1
  Sb  Sb13  1  0.32526314  0.29041031  0.42612625  1
  Sb  Sb14  1  0.82376034  0.21037686  0.92512983  1
  Sb  Sb15  1  0.67495293  0.70961353  0.57397940  1
  Sb  Sb16  1  0.64636475  0.07313225  0.19017863  1
  Sb  Sb17  1  0.85405977  0.57363110  0.30881320  1
  Sb  Sb18  1  0.35606504  0.92864358  0.80912424  1
  Sb  Sb19  1  0.14493667  0.42681156  0.69108264  1
  Sb  Sb20  1  0.92343921  0.29870578  0.19261413  1
  Sb  Sb21  1  0.57871609  0.79964337  0.30711192  1
  Sb  Sb22  1  0.07439784  0.69823208  0.80937425  1
  Sb  Sb23  1  0.42147671  0.20012191  0.69204010  1
  Sb  Sb24  1  0.39573947  0.84889005  0.16980414  1
  Sb  Sb25  1  0.10504065  0.34848604  0.33072556  1
  Sb  Sb26  1  0.60551318  0.15314889  0.82951971  1
  Sb  Sb27  1  0.89502522  0.65145963  0.67008229  1
  Sb  Sb28  1  0.29759509  0.67207891  0.92594560  1
  O  O0  1  0.41919304  0.89871463  0.34448442  1
  O  O1  1  0.08149781  0.39908105  0.15452215  1
  O  O2  1  0.58075542  0.10068754  0.65528658  1
  O  O3  1  0.91639134  0.60311797  0.84709008  1
  O  O4  1  0.48868289  0.66425776  0.36819857  1
  O  O5  1  0.01339495  0.16351068  0.13143386  1
  O  O6  1  0.51190532  0.33521887  0.63087202  1
  O  O7  1  0.99073751  0.84286762  0.86478193  1
  O  O8  1  0.02192734  0.89653546  0.11358029  1
  O  O9  1  0.47492416  0.39555649  0.38690899  1
  O  O10  1  0.97518787  0.10658250  0.88589664  1
  O  O11  1  0.52481416  0.60479184  0.61296939  1
  O  O12  1  0.49998492  0.72991547  0.10322337  1
  O  O13  1  0.99612034  0.23144072  0.39596550  1
  O  O14  1  0.49541833  0.27042674  0.89514704  1
  O  O15  1  0.00328048  0.76840308  0.60410857  1
  O  O16  1  0.32854341  0.50290466  0.14325368  1
  O  O17  1  0.17290654  0.00336135  0.35737789  1
  O  O18  1  0.66973666  0.49606348  0.85682216  1
  O  O19  1  0.82749907  0.99701385  0.64238998  1
  O  O20  1  0.89161224  0.71770822  0.36979498  1
  O  O21  1  0.60984064  0.21737280  0.12897935  1
  O  O22  1  0.10810181  0.28220246  0.63008429  1
  O  O23  1  0.41101794  0.78797683  0.87256519  1
  O  O24  1  0.39898446  0.58061679  0.49735119  1
  O  O25  1  0.10254750  0.07841681  0.00221086  1
  O  O26  1  0.60065554  0.41997610  0.50239684  1
  O  O27  1  0.90141108  0.92306816  0.99682676  1
  O  O28  1  0.72287349  0.49069383  0.37825197  1
  O  O29  1  0.77745756  0.99148521  0.12026734  1
  O  O30  1  0.27657247  0.51000741  0.62157463  1
  O  O31  1  0.22456433  0.00778460  0.87961911  1
  O  O32  1  0.22480824  0.74511394  0.17678744  1
  O  O33  1  0.27553053  0.24475198  0.32385178  1
  O  O34  1  0.77463585  0.25623090  0.82281956  1
  O  O35  1  0.72464297  0.75546563  0.67633856  1
  O  O36  1  0.31027779  0.91497145  0.08857829  1
  O  O37  1  0.18862941  0.41605395  0.41133478  1
  O  O38  1  0.68844663  0.08436265  0.91065355  1
  O  O39  1  0.81099421  0.58394177  0.58906266  1
  O  O40  1  0.99641682  0.64634779  0.24026372  1
  O  O41  1  0.50421458  0.14681593  0.25910197  1
  O  O42  1  0.00384067  0.35455877  0.76012022  1
  O  O43  1  0.49481515  0.85426045  0.73985143  1
  O  O44  1  0.89386744  0.98187299  0.39760747  1
  O  O45  1  0.60919126  0.48141274  0.10355622  1
  O  O46  1  0.10629450  0.01778395  0.60227748  1
  O  O47  1  0.39023733  0.51423077  0.89500358  1
  O  O48  1  0.65671651  0.87318345  0.38504942  1
  O  O49  1  0.84375255  0.37118917  0.11549213  1
  O  O50  1  0.34350869  0.12642465  0.61424144  1
  O  O51  1  0.14800121  0.61505229  0.88808135  1
  O  O52  1  0.52401055  0.97990201  0.13956901  1
  O  O53  1  0.97710279  0.48166924  0.35918245  1
  O  O54  1  0.47514516  0.02401321  0.85895085  1
  O  O55  1  0.02254032  0.51841889  0.64035934  1
  O  O56  1  0.65831142  0.68629510  0.47727447  1
  O  O57  1  0.84364366  0.18929039  0.02178291  1
  O  O58  1  0.34146149  0.31421362  0.52263915  1
  O  O59  1  0.16605578  0.81495456  0.97701991  1
  O  O60  1  0.71769006  0.67414239  0.27073682  1
  O  O61  1  0.78439733  0.17287602  0.22758188  1
  O  O62  1  0.28349433  0.32668112  0.72755595  1
  O  O63  1  0.22416245  0.81581909  0.77681311  1
  O  O64  1  0.07979400  0.62975207  0.10051913  1
  O  O65  1  0.42274056  0.12976702  0.40046909  1
  O  O66  1  0.92246236  0.36790606  0.89970969  1
  O  O67  1  0.57792366  0.87035112  0.59945446  1
  O  O68  1  0.67929784  0.92990855  0.25022315  1
  O  O69  1  0.82131708  0.42840037  0.24987908  1
  O  O70  1  0.31803482  0.07014260  0.74913639  1
  O  O71  1  0.17771335  0.57107774  0.75069698  1
  O  O72  1  0.31070953  0.65835707  0.02300501  1
  O  O73  1  0.18639620  0.16287234  0.47793759  1
  O  O74  1  0.68432197  0.33567717  0.97785409  1
  O  O75  1  0.81381326  0.83711624  0.52180747  1
  O  O76  1  0.46684733  0.74255427  0.23817573  1
  O  O77  1  0.03555147  0.24264185  0.26133045  1
  O  O78  1  0.53287763  0.25757770  0.76077181  1
  O  O79  1  0.96829714  0.75728225  0.73838213  1
  O  O80  1  0.29450443  0.98014007  0.23242841  1
  O  O81  1  0.20682056  0.47918807  0.26757563  1
  O  O82  1  0.70548442  0.01983397  0.76739613  1
  O  O83  1  0.79470892  0.52159170  0.73350216  1
  O  O84  1  0.08082096  0.90018556  0.48134944  1
  O  O85  1  0.41985090  0.39899387  0.01874130  1
  O  O86  1  0.91961657  0.09953224  0.51848557  1
  O  O87  1  0.57114892  0.60109153  0.98089188  1
loop_
_geom_bond_atom_site_label_1
_geom_bond_atom_site_label_2
_geom_bond_distance
_geom_bond_site_symmetry_2
K0 O81 2.883124 1_555
K0 O0 2.912104 1_555
K0 O17 3.007188 1_565
K0 O4 3.100942 1_555
K0 O76 3.162454 1_555
K0 O20 3.206664 1_455
K0 O40 3.238916 1_455
K0 O32 3.292032 1_555
K1 O1 2.885719 1_555
K1 O80 2.888508 1_545
K1 O16 3.001107 1_555
K1 O5 3.064045 1_555
K1 O77 3.128191 1_555
K1 O21 3.241639 1_555
K1 O41 3.256510 1_555
K1 O33 3.317748 1_555
K2 O83 2.869928 1_555
K2 O2 2.936311 1_555
K2 O19 3.024897 1_545
K2 O6 3.111616 1_555
K2 O78 3.140184 1_555
K2 O22 3.202040 1_655
K2 O42 3.217950 1_655
K2 O34 3.250520 1_555
K3 O3 2.764998 1_555
K3 O82 2.981610 1_565
K3 O18 2.982618 1_555
K3 O7 2.999211 1_555
K3 O23 3.103682 1_555
K3 O79 3.160567 1_555
K4 O27 2.671796 1_554
K4 O52 2.724891 1_555
K4 O12 2.738574 1_555
K4 O29 2.840153 1_555
K4 O38 2.897119 1_564
K4 O87 3.288878 1_554
K5 O53 2.669926 1_555
K5 O26 2.714926 1_555
K5 O13 2.755774 1_555
K5 O39 2.826723 1_555
K5 O28 2.838979 1_555
K6 O54 2.667772 1_555
K6 O25 2.718650 1_556
K6 O14 2.748904 1_555
K6 O31 2.848744 1_555
K6 O36 2.853055 1_546
K7 O55 2.658071 1_555
K7 O24 2.714495 1_555
K7 O15 2.748384 1_555
K7 O30 2.829014 1_555
K7 O37 2.830015 1_555
K8 O8 2.879388 1_555
K8 O77 2.941243 1_565
K8 O17 2.973537 1_565
K8 O44 2.993246 1_455
K8 O80 2.995588 1_555
K8 O5 3.212773 1_565
K8 O61 3.214361 1_465
K8 O40 3.310271 1_455
K8 O68 3.345812 1_455
K9 O9 2.850724 1_555
K9 O76 2.950968 1_555
K9 O81 2.965907 1_555
K9 O16 2.973363 1_555
K9 O45 3.019884 1_555
K9 O4 3.192081 1_555
K9 O60 3.247987 1_555
K9 O41 3.289443 1_555
K9 O69 3.361325 1_555
K10 O10 2.859910 1_555
K10 O79 2.939227 1_545
K10 O82 2.942075 1_555
K10 O19 2.951517 1_545
K10 O46 3.026250 1_655
K10 O7 3.109751 1_545
K10 O42 3.314806 1_655
K10 O70 3.367724 1_655
K11 O11 2.856301 1_555
K11 O83 2.928781 1_555
K11 O18 2.930124 1_555
K11 O78 2.932812 1_555
K11 O47 3.014366 1_555
K12 O60 2.672461 1_555
K12 O64 2.964098 1_655
K12 O8 3.041470 1_655
K12 O29 3.059467 1_555
K12 O40 3.096147 1_555
K12 O45 3.191691 1_555
K12 O12 3.310156 1_555
K13 O61 2.584100 1_555
K13 O28 2.946314 1_555
K13 O9 2.999926 1_555
K13 O65 3.023954 1_555
K13 O41 3.034166 1_555
K13 O69 3.182063 1_555
K13 O13 3.295158 1_555
K13 O44 3.339217 1_545
K14 O62 2.588230 1_555
K14 O66 2.989547 1_455
K14 O10 2.996826 1_455
K14 O31 2.999249 1_555
K14 O42 3.011596 1_555
K14 O70 3.217198 1_555
K14 O47 3.256910 1_555
K14 O14 3.292274 1_555
K15 O63 2.597097 1_555
K15 O30 2.934728 1_555
K15 O43 3.007047 1_555
K15 O11 3.011029 1_555
K15 O67 3.062143 1_555
K15 O71 3.158260 1_555
K15 O15 3.293465 1_555
K15 O46 3.344072 1_565
K16 O0 2.564199 1_555
K16 O24 3.094265 1_555
K17 O1 2.630345 1_555
K17 O49 2.834986 1_455
K17 O64 2.899440 1_555
K17 O66 3.198000 1_454
K17 O5 3.232789 1_555
K17 O57 3.233618 1_455
K17 O25 3.316748 1_555
K18 O2 2.552091 1_555
K18 O26 3.101924 1_555
O0 Sb9 1.945456 1_565
O0 Sb21 1.995433 1_555
O1 Sb8 1.943977 1_555
O1 Sb20 1.999173 1_455
O2 Sb11 1.945593 1_545
O2 Sb23 1.992184 1_555
O3 Sb10 1.937619 1_555
O3 Sb22 1.968451 1_655
O4 Sb5 1.976688 1_555
O4 Sb21 2.016142 1_555
O5 Sb4 1.971794 1_455
O5 Sb20 2.011568 1_455
O6 Sb7 1.974695 1_555
O6 Sb23 2.016478 1_555
O7 Sb6 1.961047 1_655
O7 Sb22 1.997999 1_655
O8 Sb12 1.938028 1_555
O8 Sb4 2.031767 1_465
O9 Sb13 1.968051 1_555
O9 Sb5 2.024856 1_555
O10 Sb14 1.969267 1_555
O10 Sb6 1.999385 1_645
O11 Sb15 1.968413 1_555
O11 Sb7 2.023025 1_555
O12 Sb0 1.971609 1_555
O12 Sb24 2.022970 1_555
O13 Sb1 1.978344 1_655
O13 Sb25 2.020564 1_655
O14 Sb2 1.969657 1_555
O14 Sb26 2.028180 1_555
O15 Sb3 1.975641 1_455
O15 Sb27 2.025361 1_455
O16 Sb0 1.983212 1_555
O16 Sb8 2.014597 1_555
O17 Sb1 1.994633 1_555
O17 Sb9 2.016639 1_555
O18 Sb2 1.985033 1_555
O18 Sb10 2.018077 1_555
O19 Sb3 1.992990 1_555
O19 Sb11 2.014568 1_555
O20 Ti1 1.794774 1_555
O20 Sb17 2.015208 1_555
O21 Ti0 1.791274 1_555
O21 Sb16 2.016101 1_555
O22 Ti2 1.793198 1_555
O22 Sb19 2.017501 1_555
O23 Sb28 1.909117 1_555
O23 Sb18 2.078419 1_555
O24 Sb5 2.005377 1_555
O24 Sb7 2.047056 1_555
O25 Sb4 2.006250 1_455
O25 Sb6 2.044552 1_544
O26 Sb7 2.008183 1_555
O26 Sb5 2.042335 1_555
O27 Sb6 1.983760 1_655
O27 Sb4 2.032337 1_566
O28 Sb5 1.954791 1_555
O28 Sb17 2.005850 1_555
O29 Sb4 1.953523 1_565
O29 Sb16 2.002063 1_565
O30 Sb7 1.955445 1_555
O30 Sb19 2.010538 1_555
O31 Sb6 1.952414 1_545
O31 Sb18 2.000878 1_545
O32 Sb24 2.056649 1_555
O32 Sb8 2.088937 1_555
O32 Sb12 2.218489 1_555
O33 Sb25 2.048362 1_555
O33 Sb9 2.070131 1_555
O33 Sb13 2.252711 1_555
O34 Sb26 2.037332 1_555
O34 Sb10 2.089245 1_555
O34 Sb14 2.251600 1_555
O35 Sb27 2.049610 1_555
O35 Sb11 2.065512 1_555
O35 Sb15 2.254612 1_555
O36 Sb12 1.959873 1_555
O36 Sb24 2.087820 1_555
O37 Sb13 1.973606 1_555
O37 Sb25 2.072944 1_555
O38 Sb14 1.968661 1_555
O38 Sb26 2.082015 1_555
O39 Sb15 1.970828 1_555
O39 Sb27 2.082196 1_555
O40 Sb8 2.005309 1_655
O40 Sb17 2.021519 1_555
O41 Sb9 2.012974 1_555
O41 Sb16 2.025304 1_555
O42 Sb19 2.017367 1_555
O42 Sb10 2.019957 1_455
O43 Sb18 2.010577 1_555
O43 Sb11 2.012241 1_555
O44 Ti1 1.850873 1_555
O44 Sb1 2.000926 1_665
O45 Ti0 1.862267 1_555
O45 Sb0 1.967737 1_555
O46 Ti2 1.849966 1_555
O46 Sb3 1.999910 1_445
O47 Sb28 1.957249 1_555
O47 Sb2 2.039485 1_555
O48 Ti1 1.807767 1_555
O48 Sb21 2.019995 1_555
O49 Ti0 1.802480 1_555
O49 Sb20 2.010207 1_555
O50 Ti2 1.808230 1_555
O50 Sb23 2.018096 1_555
O51 Sb28 1.911079 1_555
O51 Sb22 2.050177 1_555
O52 Sb24 1.940634 1_555
O52 Sb16 1.987415 1_565
O53 Sb25 1.942148 1_655
O53 Sb17 1.980830 1_555
O54 Sb26 1.937378 1_555
O54 Sb18 1.965254 1_545
O55 Sb27 1.943656 1_455
O55 Sb19 1.978668 1_555
O56 Sb15 2.003992 1_555
O56 Sb5 2.112870 1_555
O56 Ti1 2.299454 1_555
O57 Sb14 2.008135 1_554
O57 Sb4 2.105060 1_555
O57 Ti0 2.260097 1_555
O58 Sb13 1.999751 1_555
O58 Sb7 2.112866 1_555
O58 Ti2 2.305024 1_555
O59 Sb12 2.051217 1_556
O59 Sb28 2.171844 1_555
O59 Sb6 2.193320 1_555
O60 Sb17 1.990821 1_555
O60 Sb21 1.999082 1_555
O61 Sb16 1.996070 1_555
O61 Sb20 1.999175 1_555
O62 Sb19 1.990404 1_555
O62 Sb23 1.994955 1_555
O63 Sb18 1.978013 1_555
O63 Sb22 2.010049 1_555
O64 Sb12 1.964380 1_555
O64 Sb8 2.083384 1_555
O65 Sb13 1.980778 1_555
O65 Sb9 2.092656 1_555
O66 Sb14 1.962977 1_555
O66 Sb10 2.064687 1_555
O67 Sb15 1.978747 1_555
O67 Sb11 2.095662 1_555
O68 Sb21 1.978629 1_555
O68 Sb16 1.983479 1_565
O69 Sb20 1.981375 1_555
O69 Sb17 1.984777 1_555
O70 Sb18 1.983426 1_545
O70 Sb23 1.991970 1_555
O71 Sb22 1.983863 1_555
O71 Sb19 1.985884 1_555
O72 Sb28 1.993812 1_554
O72 Sb0 2.148792 1_555
O72 Sb12 2.183827 1_555
O73 Ti2 2.026973 1_555
O73 Sb1 2.089318 1_555
O73 Sb13 2.121714 1_555
O74 Ti0 2.026340 1_556
O74 Sb2 2.074751 1_555
O74 Sb14 2.113467 1_555
O75 Ti1 2.024944 1_555
O75 Sb3 2.089880 1_555
O75 Sb15 2.124374 1_555
O76 Sb24 1.990666 1_555
O76 Sb21 2.021005 1_555
O77 Sb25 1.996659 1_555
O77 Sb20 2.015045 1_455
O78 Sb26 1.992812 1_555
O78 Sb23 2.015730 1_555
O79 Sb27 1.998141 1_555
O79 Sb22 2.019600 1_655
O80 Sb9 2.036393 1_565
O80 Sb24 2.045755 1_555
O81 Sb8 2.024694 1_555
O81 Sb25 2.054304 1_555
O82 Sb11 2.028434 1_545
O82 Sb26 2.049222 1_555
O83 Sb10 2.043977 1_555
O83 Sb27 2.045207 1_555
O84 Sb3 2.029889 1_455
O84 Sb1 2.036416 1_565
O85 Sb0 2.025465 1_555
O85 Sb2 2.033776 1_554
O86 Sb1 2.026653 1_655
O86 Sb3 2.037136 1_545
O87 Sb0 2.010824 1_556
O87 Sb2 2.023058 1_555
