# generated using pymatgen
data_CaTi2FeO6
_symmetry_space_group_name_H-M   'P 1'
_cell_length_a   7.57350700
_cell_length_b   7.57350700
_cell_length_c   7.62645800
_cell_angle_alpha   90.00000000
_cell_angle_beta   90.00000000
_cell_angle_gamma   90.00000000
_symmetry_Int_Tables_number   1
_chemical_formula_structural   CaTi2FeO6
_chemical_formula_sum   'Ca4 Ti8 Fe4 O24'
_cell_volume   437.43844110
_cell_formula_units_Z   4
loop_
 _symmetry_equiv_pos_site_id
 _symmetry_equiv_pos_as_xyz
  1  'x, y, z'
loop_
 _atom_site_type_symbol
 _atom_site_label
 _atom_site_symmetry_multiplicity
 _atom_site_fract_x
 _atom_site_fract_y
 _atom_site_fract_z
 _atom_site_occupancy
  Ca  Ca0  1  0.00000000  0.50000000  0.02806200  1
  Ca  Ca1  1  0.00000000  0.50000000  0.52806200  1
  Ca  Ca2  1  0.50000000  0.00000000  0.47193800  1
  Ca  Ca3  1  0.50000000  0.00000000  0.97193800  1
  Ti  Ti0  1  0.75000000  0.25000000  0.25000000  1
  Ti  Ti1  1  0.25000000  0.25000000  0.25000000  1
  Ti  Ti2  1  0.75000000  0.75000000  0.25000000  1
  Ti  Ti3  1  0.25000000  0.75000000  0.25000000  1
  Ti  Ti4  1  0.75000000  0.25000000  0.75000000  1
  Ti  Ti5  1  0.25000000  0.25000000  0.75000000  1
  Ti  Ti6  1  0.75000000  0.75000000  0.75000000  1
  Ti  Ti7  1  0.25000000  0.75000000  0.75000000  1
  Fe  Fe0  1  0.00000000  0.00000000  0.00000000  1
  Fe  Fe1  1  0.50000000  0.50000000  0.50000000  1
  Fe  Fe2  1  0.00000000  0.00000000  0.50000000  1
  Fe  Fe3  1  0.50000000  0.50000000  0.00000000  1
  O  O0  1  0.00000000  0.69474900  0.78682000  1
  O  O1  1  0.00000000  0.30525100  0.78682000  1
  O  O2  1  0.19474900  0.50000000  0.28682000  1
  O  O3  1  0.80525100  0.50000000  0.28682000  1
  O  O4  1  0.50000000  0.80525100  0.71318000  1
  O  O5  1  0.50000000  0.19474900  0.71318000  1
  O  O6  1  0.30525100  0.00000000  0.21318000  1
  O  O7  1  0.69474900  0.00000000  0.21318000  1
  O  O8  1  0.29317700  0.50000000  0.67967700  1
  O  O9  1  0.70682300  0.50000000  0.67967700  1
  O  O10  1  0.00000000  0.79317700  0.17967700  1
  O  O11  1  0.00000000  0.20682300  0.17967700  1
  O  O12  1  0.20682300  0.00000000  0.82032300  1
  O  O13  1  0.79317700  0.00000000  0.82032300  1
  O  O14  1  0.50000000  0.70682300  0.32032300  1
  O  O15  1  0.50000000  0.29317700  0.32032300  1
  O  O16  1  0.69337100  0.69337100  0.00000000  1
  O  O17  1  0.30662900  0.69337100  0.00000000  1
  O  O18  1  0.69337100  0.30662900  0.00000000  1
  O  O19  1  0.30662900  0.30662900  0.00000000  1
  O  O20  1  0.19337100  0.19337100  0.50000000  1
  O  O21  1  0.80662900  0.19337100  0.50000000  1
  O  O22  1  0.19337100  0.80662900  0.50000000  1
  O  O23  1  0.80662900  0.80662900  0.50000000  1
loop_
_geom_bond_atom_site_label_1
_geom_bond_atom_site_label_2
_geom_bond_distance
_geom_bond_site_symmetry_2
Ca0 O0 2.358044 1_554
Ca0 O1 2.358044 1_554
Ca0 O3 2.463689 1_455
Ca0 O2 2.463689 1_555
Ca0 O10 2.503413 1_555
Ca0 O11 2.503413 1_555
Ca0 O17 2.753803 1_555
Ca0 O19 2.753803 1_555
Ca0 O16 2.753803 1_455
Ca0 O18 2.753803 1_455
Ca1 O3 2.358044 1_455
Ca1 O2 2.358044 1_555
Ca1 O0 2.463689 1_555
Ca1 O1 2.463689 1_555
Ca1 O9 2.503413 1_455
Ca1 O8 2.503413 1_555
Ca1 O22 2.753803 1_555
Ca1 O23 2.753803 1_455
Ca1 O20 2.753803 1_555
Ca1 O21 2.753803 1_455
Ca2 O4 2.358044 1_545
Ca2 O5 2.358044 1_555
Ca2 O7 2.463689 1_555
Ca2 O6 2.463689 1_555
Ca2 O14 2.503413 1_545
Ca2 O15 2.503413 1_555
Ca2 O23 2.753803 1_545
Ca2 O20 2.753803 1_555
Ca2 O22 2.753803 1_545
Ca2 O21 2.753803 1_555
Ca3 O7 2.358044 1_556
Ca3 O6 2.358044 1_556
Ca3 O4 2.463689 1_545
Ca3 O5 2.463689 1_555
Ca3 O13 2.503413 1_555
Ca3 O12 2.503413 1_555
Ca3 O18 2.753803 1_556
Ca3 O19 2.753803 1_556
Ca3 O16 2.753803 1_546
Ca3 O17 2.753803 1_546
Fe0 O13 2.081166 1_454
Fe0 O10 2.081166 1_545
Fe0 O12 2.081166 1_554
Fe0 O11 2.081166 1_555
Fe1 O8 2.081166 1_555
Fe1 O15 2.081166 1_555
Fe1 O14 2.081166 1_555
Fe1 O9 2.081166 1_555
Fe2 O23 2.071111 1_445
Fe2 O21 2.071111 1_455
Fe2 O22 2.071111 1_545
Fe2 O20 2.071111 1_555
Fe3 O16 2.071111 1_555
Fe3 O18 2.071111 1_555
Fe3 O17 2.071111 1_555
Fe3 O19 2.071111 1_555
O0 Ti7 1.959291 1_555
O0 Ti6 1.959291 1_455
O1 Ti4 1.959291 1_455
O1 Ti5 1.959291 1_555
O2 Ti1 1.959291 1_555
O2 Ti3 1.959291 1_555
O3 Ti0 1.959291 1_555
O3 Ti2 1.959291 1_555
O4 Ti6 1.959291 1_555
O4 Ti7 1.959291 1_555
O5 Ti5 1.959291 1_555
O5 Ti4 1.959291 1_555
O6 Ti1 1.959291 1_555
O6 Ti3 1.959291 1_545
O7 Ti0 1.959291 1_555
O7 Ti2 1.959291 1_545
O8 Ti5 1.994853 1_555
O8 Ti7 1.994853 1_555
O9 Ti6 1.994853 1_555
O9 Ti4 1.994853 1_555
O10 Ti2 1.994853 1_455
O10 Ti3 1.994853 1_555
O11 Ti1 1.994853 1_555
O11 Ti0 1.994853 1_455
O12 Ti5 1.994853 1_555
O12 Ti7 1.994853 1_545
O13 Ti6 1.994853 1_545
O13 Ti4 1.994853 1_555
O14 Ti2 1.994853 1_555
O14 Ti3 1.994853 1_555
O15 Ti0 1.994853 1_555
O15 Ti1 1.994853 1_555
O16 Ti6 2.000764 1_554
O16 Ti2 2.000764 1_555
O17 Ti7 2.000764 1_554
O17 Ti3 2.000764 1_555
O18 Ti4 2.000764 1_554
O18 Ti0 2.000764 1_555
O19 Ti1 2.000764 1_555
O19 Ti5 2.000764 1_554
O20 Ti5 2.000764 1_555
O20 Ti1 2.000764 1_555
O21 Ti0 2.000764 1_555
O21 Ti4 2.000764 1_555
O22 Ti3 2.000764 1_555
O22 Ti7 2.000764 1_555
O23 Ti2 2.000764 1_555
O23 Ti6 2.000764 1_555
