# generated using pymatgen
data_CeSi3Rh
_symmetry_space_group_name_H-M   'P 1'
_cell_length_a   5.74959351
_cell_length_b   5.74959351
_cell_length_c   5.74959351
_cell_angle_alpha   136.92629539
_cell_angle_beta   136.92629539
_cell_angle_gamma   62.55147273
_symmetry_Int_Tables_number   1
_chemical_formula_structural   CeSi3Rh
_chemical_formula_sum   'Ce1 Si3 Rh1'
_cell_volume   87.56733368
_cell_formula_units_Z   1
loop_
 _symmetry_equiv_pos_site_id
 _symmetry_equiv_pos_as_xyz
  1  'x, y, z'
loop_
 _atom_site_type_symbol
 _atom_site_label
 _atom_site_symmetry_multiplicity
 _atom_site_fract_x
 _atom_site_fract_y
 _atom_site_fract_z
 _atom_site_occupancy
  Ce  Ce0  1  0.00093253  0.00093253  0.00000000  1
  Si  Si0  1  0.41697393  0.41697393  -0.00000000  1
  Si  Si1  1  0.26661013  0.76661013  0.50000000  1
  Si  Si2  1  0.76661013  0.26661013  0.50000000  1
  Rh  Rh0  1  0.65787328  0.65787328  -0.00000000  1
loop_
_geom_bond_atom_site_label_1
_geom_bond_atom_site_label_2
_geom_bond_distance
_geom_bond_site_symmetry_2
Ce0 Si0 3.096896 1_556
Ce0 Si0 3.096896 1_444
Ce0 Si0 3.096896 1_455
Ce0 Si0 3.096896 1_545
Ce0 Si1 3.123861 1_545
Ce0 Si2 3.123861 1_455
Ce0 Si2 3.123861 1_444
Ce0 Si1 3.123861 1_444
Ce0 Si1 3.357504 1_544
Ce0 Si1 3.357504 1_555
Ce0 Si2 3.357504 1_454
Ce0 Si2 3.357504 1_555
Ce0 Rh0 3.359907 1_556
Ce0 Rh0 3.359907 1_455
Ce0 Rh0 3.359907 1_444
Ce0 Rh0 3.359907 1_545
Ce0 Rh0 3.371624 1_445
Si0 Si2 2.576589 1_555
Si0 Si1 2.576589 1_555
Si0 Si2 2.576589 1_454
Si0 Si1 2.576589 1_544
Rh0 Si1 2.365801 1_554
Rh0 Si2 2.365801 1_554
Rh0 Si2 2.365801 1_565
Rh0 Si1 2.365801 1_655
Rh0 Si0 2.367586 1_555
