# generated using pymatgen
data_SrP3H15(N2O5)2
_symmetry_space_group_name_H-M   'P 1'
_cell_length_a   10.64571500
_cell_length_b   10.98858300
_cell_length_c   13.07003274
_cell_angle_alpha   59.77694007
_cell_angle_beta   90.00000000
_cell_angle_gamma   90.00000000
_symmetry_Int_Tables_number   1
_chemical_formula_structural   SrP3H15(N2O5)2
_chemical_formula_sum   'Sr4 P12 H60 N16 O40'
_cell_volume   1321.12307173
_cell_formula_units_Z   4
loop_
 _symmetry_equiv_pos_site_id
 _symmetry_equiv_pos_as_xyz
  1  'x, y, z'
loop_
 _atom_site_type_symbol
 _atom_site_label
 _atom_site_symmetry_multiplicity
 _atom_site_fract_x
 _atom_site_fract_y
 _atom_site_fract_z
 _atom_site_occupancy
  Sr  Sr0  1  0.97449300  0.84678000  0.45353500  1
  Sr  Sr1  1  0.52550700  0.84678000  0.95353500  1
  Sr  Sr2  1  0.02550700  0.15322000  0.54646500  1
  Sr  Sr3  1  0.47449300  0.15322000  0.04646500  1
  P  P0  1  0.64628500  0.92680100  0.34807600  1
  P  P1  1  0.85371500  0.92680100  0.84807600  1
  P  P2  1  0.35371500  0.07319900  0.65192400  1
  P  P3  1  0.14628500  0.07319900  0.15192400  1
  P  P4  1  0.72208000  0.04767100  0.49730400  1
  P  P5  1  0.77792000  0.04767100  0.99730400  1
  P  P6  1  0.27792000  0.95232900  0.50269600  1
  P  P7  1  0.22208000  0.95232900  0.00269600  1
  P  P8  1  0.65946300  0.74341200  0.60581900  1
  P  P9  1  0.84053700  0.74341200  0.10581900  1
  P  P10  1  0.34053700  0.25658800  0.39418100  1
  P  P11  1  0.15946300  0.25658800  0.89418100  1
  H  H0  1  0.56736200  0.11418000  0.35965200  1
  H  H1  1  0.93263800  0.11418000  0.85965200  1
  H  H2  1  0.43263800  0.88582000  0.64034800  1
  H  H3  1  0.06736200  0.88582000  0.14034800  1
  H  H4  1  0.67420700  0.88719700  0.69036100  1
  H  H5  1  0.82579300  0.88719700  0.19036100  1
  H  H6  1  0.32579300  0.11280300  0.30963900  1
  H  H7  1  0.17420700  0.11280300  0.80963900  1
  H  H8  1  0.49286400  0.79574100  0.48049200  1
  H  H9  1  0.00713600  0.79574100  0.98049200  1
  H  H10  1  0.50713600  0.20425900  0.51950800  1
  H  H11  1  0.99286400  0.20425900  0.01950800  1
  H  H12  1  0.33881800  0.66398400  0.37939200  1
  H  H13  1  0.16118200  0.66398400  0.87939200  1
  H  H14  1  0.66118200  0.33601600  0.62060800  1
  H  H15  1  0.83881800  0.33601600  0.12060800  1
  H  H16  1  0.28149800  0.80872100  0.25964600  1
  H  H17  1  0.21850200  0.80872100  0.75964600  1
  H  H18  1  0.71850200  0.19127900  0.74035400  1
  H  H19  1  0.78149800  0.19127900  0.24035400  1
  H  H20  1  0.43059300  0.81510600  0.29989200  1
  H  H21  1  0.06940700  0.81510600  0.79989200  1
  H  H22  1  0.56940700  0.18489400  0.70010800  1
  H  H23  1  0.93059300  0.18489400  0.20010800  1
  H  H24  1  0.39077700  0.71189700  0.24239900  1
  H  H25  1  0.10922300  0.71189700  0.74239900  1
  H  H26  1  0.60922300  0.28810300  0.75760100  1
  H  H27  1  0.89077700  0.28810300  0.25760100  1
  H  H28  1  0.20008000  0.67184200  0.59234700  1
  H  H29  1  0.29992000  0.67184200  0.09234700  1
  H  H30  1  0.79992000  0.32815800  0.40765300  1
  H  H31  1  0.70008000  0.32815800  0.90765300  1
  H  H32  1  0.10847800  0.54566600  0.67715500  1
  H  H33  1  0.39152200  0.54566600  0.17715500  1
  H  H34  1  0.89152200  0.45433400  0.32284500  1
  H  H35  1  0.60847800  0.45433400  0.82284500  1
  H  H36  1  0.10109100  0.60541700  0.42898400  1
  H  H37  1  0.39890900  0.60541700  0.92898400  1
  H  H38  1  0.89890900  0.39458300  0.57101600  1
  H  H39  1  0.60109100  0.39458300  0.07101600  1
  H  H40  1  0.99617300  0.65656900  0.32716500  1
  H  H41  1  0.50382700  0.65656900  0.82716500  1
  H  H42  1  0.00382700  0.34343100  0.67283500  1
  H  H43  1  0.49617300  0.34343100  0.17283500  1
  H  H44  1  0.76010200  0.56978800  0.53528600  1
  H  H45  1  0.73989800  0.56978800  0.03528600  1
  H  H46  1  0.23989800  0.43021200  0.46471400  1
  H  H47  1  0.26010200  0.43021200  0.96471400  1
  H  H48  1  0.69656800  0.52954200  0.44471400  1
  H  H49  1  0.80343200  0.52954200  0.94471400  1
  H  H50  1  0.30343200  0.47045800  0.55528600  1
  H  H51  1  0.19656800  0.47045800  0.05528600  1
  H  H52  1  0.36151800  0.40781800  0.75461100  1
  H  H53  1  0.13848200  0.40781800  0.25461100  1
  H  H54  1  0.63848200  0.59218200  0.24538900  1
  H  H55  1  0.86151800  0.59218200  0.74538900  1
  H  H56  1  0.46014000  0.52299800  0.67308900  1
  H  H57  1  0.03986000  0.52299800  0.17308900  1
  H  H58  1  0.53986000  0.47700200  0.32691100  1
  H  H59  1  0.96014000  0.47700200  0.82691100  1
  N  N0  1  0.65345100  0.06604700  0.37282800  1
  N  N1  1  0.84654900  0.06604700  0.87282800  1
  N  N2  1  0.34654900  0.93395300  0.62717200  1
  N  N3  1  0.15345100  0.93395300  0.12717200  1
  N  N4  1  0.65929600  0.89629900  0.60839300  1
  N  N5  1  0.84070400  0.89629900  0.10839300  1
  N  N6  1  0.34070400  0.10370100  0.39160700  1
  N  N7  1  0.15929600  0.10370100  0.89160700  1
  N  N8  1  0.58983100  0.78879300  0.47541900  1
  N  N9  1  0.91016900  0.78879300  0.97541900  1
  N  N10  1  0.41016900  0.21120700  0.52458100  1
  N  N11  1  0.08983100  0.21120700  0.02458100  1
  N  N12  1  0.36199400  0.74979600  0.29703000  1
  N  N13  1  0.13800600  0.74979600  0.79703000  1
  N  N14  1  0.63800600  0.25020400  0.70297000  1
  N  N15  1  0.86199400  0.25020400  0.20297000  1
  O  O0  1  0.77993000  0.89497000  0.32996000  1
  O  O1  1  0.72007000  0.89497000  0.82996000  1
  O  O2  1  0.22007000  0.10503000  0.67004000  1
  O  O3  1  0.27993000  0.10503000  0.17004000  1
  O  O4  1  0.54956300  0.96233200  0.25301000  1
  O  O5  1  0.95043700  0.96233200  0.75301000  1
  O  O6  1  0.45043700  0.03766800  0.74699000  1
  O  O7  1  0.04956300  0.03766800  0.24699000  1
  O  O8  1  0.86256600  0.02997600  0.48479700  1
  O  O9  1  0.63743400  0.02997600  0.98479700  1
  O  O10  1  0.13743400  0.97002400  0.51520300  1
  O  O11  1  0.36256600  0.97002400  0.01520300  1
  O  O12  1  0.68496700  0.16911600  0.51373300  1
  O  O13  1  0.81503300  0.16911600  0.01373300  1
  O  O14  1  0.31503300  0.83088400  0.48626700  1
  O  O15  1  0.18496700  0.83088400  0.98626700  1
  O  O16  1  0.79276200  0.69511600  0.60039800  1
  O  O17  1  0.70723800  0.69511600  0.10039800  1
  O  O18  1  0.20723800  0.30488400  0.39960200  1
  O  O19  1  0.29276200  0.30488400  0.89960200  1
  O  O20  1  0.57709100  0.63860100  0.70705900  1
  O  O21  1  0.92290900  0.63860100  0.20705900  1
  O  O22  1  0.42290900  0.36139900  0.29294100  1
  O  O23  1  0.07709100  0.36139900  0.79294100  1
  O  O24  1  0.11490800  0.64917800  0.62726800  1
  O  O25  1  0.38509200  0.64917800  0.12726800  1
  O  O26  1  0.88509200  0.35082200  0.37273200  1
  O  O27  1  0.61490800  0.35082200  0.87273200  1
  O  O28  1  0.03411200  0.67530700  0.38683600  1
  O  O29  1  0.46588800  0.67530700  0.88683600  1
  O  O30  1  0.96588800  0.32469300  0.61316400  1
  O  O31  1  0.53411200  0.32469300  0.11316400  1
  O  O32  1  0.75005600  0.49385100  0.51658000  1
  O  O33  1  0.74994400  0.49385100  0.01658000  1
  O  O34  1  0.24994400  0.50614900  0.48342000  1
  O  O35  1  0.25005600  0.50614900  0.98342000  1
  O  O36  1  0.40063300  0.45338800  0.67497200  1
  O  O37  1  0.09936700  0.45338800  0.17497200  1
  O  O38  1  0.59936700  0.54661200  0.32502800  1
  O  O39  1  0.90063300  0.54661200  0.82502800  1
loop_
_geom_bond_atom_site_label_1
_geom_bond_atom_site_label_2
_geom_bond_distance
_geom_bond_site_symmetry_2
H0 N0 1.028417 1_555
H1 N1 1.028417 1_555
H2 N2 1.028417 1_555
H3 N3 1.028417 1_555
H4 N4 1.036853 1_555
H5 N5 1.036853 1_555
H6 N6 1.036853 1_555
H7 N7 1.036853 1_555
H8 N8 1.039678 1_555
H9 N9 1.039678 1_455
H10 N10 1.039678 1_555
H11 N11 1.039678 1_655
H12 N12 1.042558 1_555
H13 N13 1.042558 1_555
H14 N14 1.042558 1_555
H15 N15 1.042558 1_555
H16 N12 1.036259 1_555
H17 N13 1.036259 1_555
H18 N14 1.036259 1_555
H19 N15 1.036259 1_555
H20 N12 1.037682 1_555
H21 N13 1.037682 1_555
H22 N14 1.037682 1_555
H23 N15 1.037682 1_555
H24 N12 1.037559 1_555
H25 N13 1.037559 1_555
H26 N14 1.037559 1_555
H27 N15 1.037559 1_555
H28 O24 0.988960 1_555
H29 O25 0.988960 1_555
H30 O26 0.988960 1_555
H31 O27 0.988960 1_555
H32 O24 0.988420 1_555
H33 O25 0.988420 1_555
H34 O26 0.988420 1_555
H35 O27 0.988420 1_555
H36 O28 0.987817 1_555
H37 O29 0.987817 1_555
H38 O30 0.987817 1_555
H39 O31 0.987817 1_555
H40 O28 0.987641 1_655
H41 O29 0.987641 1_555
H42 O30 0.987641 1_455
H43 O31 0.987641 1_555
H44 O32 0.986350 1_555
H45 O33 0.986350 1_555
H46 O34 0.986350 1_555
H47 O35 0.986350 1_555
H48 O32 0.994714 1_555
H49 O33 0.994714 1_556
H50 O34 0.994714 1_555
H51 O35 0.994714 1_554
H52 O36 0.991389 1_555
H53 O37 0.991389 1_555
H54 O38 0.991389 1_555
H55 O39 0.991389 1_555
H56 O36 0.983903 1_555
H57 O37 0.983903 1_555
H58 O38 0.983903 1_555
H59 O39 0.983903 1_555
N0 P4 1.700192 1_555
N0 P0 1.717578 1_545
N1 P5 1.700192 1_555
N1 P1 1.717578 1_545
N2 P6 1.700192 1_555
N2 P2 1.717578 1_565
N3 P7 1.700192 1_555
N3 P3 1.717578 1_565
N4 P8 1.697196 1_555
N4 P4 1.700078 1_565
N5 P9 1.697196 1_555
N5 P5 1.700078 1_564
N6 P10 1.697196 1_555
N6 P6 1.700078 1_545
N7 P11 1.697196 1_555
N7 P7 1.700078 1_546
N8 P8 1.687393 1_555
N8 P0 1.700031 1_555
N9 P9 1.687393 1_556
N9 P1 1.700031 1_555
N10 P10 1.687393 1_555
N10 P2 1.700031 1_555
N11 P11 1.687393 1_554
N11 P3 1.700031 1_555
O0 P0 1.511950 1_555
O0 Sr0 2.513592 1_555
O1 P1 1.511950 1_555
O1 Sr1 2.513592 1_555
O2 P2 1.511950 1_555
O2 Sr2 2.513592 1_555
O3 P3 1.511950 1_555
O3 Sr3 2.513592 1_555
O4 P0 1.506030 1_555
O4 Sr3 2.573993 1_565
O5 P1 1.506030 1_555
O5 Sr2 2.573993 1_665
O6 P2 1.506030 1_555
O6 Sr1 2.573993 1_545
O7 P3 1.506030 1_555
O7 Sr0 2.573993 1_445
O8 P4 1.527504 1_555
O8 Sr0 2.543073 1_545
O8 Sr2 2.567397 1_655
O9 P5 1.527504 1_555
O9 Sr1 2.543073 1_545
O9 Sr3 2.567397 1_556
O10 P6 1.527504 1_555
O10 Sr2 2.543073 1_565
O10 Sr0 2.567397 1_455
O11 P7 1.527504 1_555
O11 Sr3 2.543073 1_565
O11 Sr1 2.567397 1_554
O12 P4 1.507185 1_555
O13 P5 1.507185 1_554
O14 P6 1.507185 1_555
O15 P7 1.507185 1_556
O16 P8 1.529138 1_555
O16 Sr0 2.642786 1_555
O17 P9 1.529138 1_555
O17 Sr1 2.642786 1_554
O18 P10 1.529138 1_555
O18 Sr2 2.642786 1_555
O19 P11 1.529138 1_555
O19 Sr3 2.642786 1_556
O20 P8 1.520554 1_555
O21 P9 1.520554 1_555
O22 P10 1.520554 1_555
O23 P11 1.520554 1_555
O24 Sr0 2.672387 1_455
O25 Sr1 2.672387 1_554
O26 Sr2 2.672387 1_655
O27 Sr3 2.672387 1_556
O28 Sr0 2.523260 1_455
O29 Sr1 2.523260 1_555
O30 Sr2 2.523260 1_655
O31 Sr3 2.523260 1_555
