# generated using pymatgen
data_ZrZnF6
_symmetry_space_group_name_H-M   'P 1'
_cell_length_a   5.69771951
_cell_length_b   5.69771951
_cell_length_c   5.69771951
_cell_angle_alpha   60.00000000
_cell_angle_beta   60.00000000
_cell_angle_gamma   60.00000000
_symmetry_Int_Tables_number   1
_chemical_formula_structural   ZrZnF6
_chemical_formula_sum   'Zr1 Zn1 F6'
_cell_volume   130.79411349
_cell_formula_units_Z   1
loop_
 _symmetry_equiv_pos_site_id
 _symmetry_equiv_pos_as_xyz
  1  'x, y, z'
loop_
 _atom_site_type_symbol
 _atom_site_label
 _atom_site_symmetry_multiplicity
 _atom_site_fract_x
 _atom_site_fract_y
 _atom_site_fract_z
 _atom_site_occupancy
  Zr  Zr0  1  -0.00000000  0.00000000  -0.00000000  1
  Zn  Zn0  1  0.50000000  0.50000000  0.50000000  1
  F  F0  1  0.75013986  0.75013986  0.24986014  1
  F  F1  1  0.24986014  0.24986014  0.75013986  1
  F  F2  1  0.75013986  0.24986014  0.75013986  1
  F  F3  1  0.24986014  0.75013986  0.24986014  1
  F  F4  1  0.24986014  0.75013986  0.75013986  1
  F  F5  1  0.75013986  0.24986014  0.24986014  1
loop_
_geom_bond_atom_site_label_1
_geom_bond_atom_site_label_2
_geom_bond_distance
_geom_bond_site_symmetry_2
F0 Zr0 2.013321 1_665
F0 Zn0 2.015575 1_555
F1 Zr0 2.013321 1_556
F1 Zn0 2.015575 1_555
F2 Zr0 2.013321 1_656
F2 Zn0 2.015575 1_555
F3 Zr0 2.013321 1_565
F3 Zn0 2.015575 1_555
F4 Zr0 2.013321 1_566
F4 Zn0 2.015575 1_555
F5 Zr0 2.013321 1_655
F5 Zn0 2.015575 1_555
