# generated using pymatgen
data_Li2Fe3O4
_symmetry_space_group_name_H-M   'P 1'
_cell_length_a   6.25927404
_cell_length_b   6.52678509
_cell_length_c   6.25213916
_cell_angle_alpha   90.00000000
_cell_angle_beta   60.03770008
_cell_angle_gamma   121.42413797
_symmetry_Int_Tables_number   1
_chemical_formula_structural   Li2Fe3O4
_chemical_formula_sum   'Li4 Fe6 O8'
_cell_volume   176.72724128
_cell_formula_units_Z   2
loop_
 _symmetry_equiv_pos_site_id
 _symmetry_equiv_pos_as_xyz
  1  'x, y, z'
loop_
 _atom_site_type_symbol
 _atom_site_label
 _atom_site_symmetry_multiplicity
 _atom_site_fract_x
 _atom_site_fract_y
 _atom_site_fract_z
 _atom_site_occupancy
  Li  Li0  1  0.32328600  0.16164300  0.08835700  1
  Li  Li1  1  0.67671400  0.83835700  0.91164300  1
  Li  Li2  1  0.50000000  0.50000000  0.00000000  1
  Li  Li3  1  0.50000000  0.00000000  0.00000000  1
  Fe  Fe0  1  0.50000000  0.00000000  0.50000000  1
  Fe  Fe1  1  0.50000000  0.50000000  0.50000000  1
  Fe  Fe2  1  0.00000000  0.50000000  0.00000000  1
  Fe  Fe3  1  0.00000000  0.50000000  0.50000000  1
  Fe  Fe4  1  0.00000000  0.00000000  0.50000000  1
  Fe  Fe5  1  0.00000000  0.00000000  0.00000000  1
  O  O0  1  0.02512500  0.78406600  0.23743800  1
  O  O1  1  0.02512500  0.24105900  0.23743800  1
  O  O2  1  0.51882900  0.25941500  0.72881400  1
  O  O3  1  0.51882900  0.25941500  0.25235700  1
  O  O4  1  0.97487500  0.21593400  0.76256200  1
  O  O5  1  0.97487500  0.75894100  0.76256200  1
  O  O6  1  0.48117100  0.74058500  0.27118600  1
  O  O7  1  0.48117100  0.74058500  0.74764300  1
loop_
_geom_bond_atom_site_label_1
_geom_bond_atom_site_label_2
_geom_bond_distance
_geom_bond_site_symmetry_2
Li0 Li3 1.802264 1_555
Li0 Li2 1.802264 1_555
Li0 O2 1.842758 1_554
Li0 O3 1.842758 1_555
Li0 O0 1.972706 1_545
Li0 O1 1.972706 1_555
Li1 Li2 1.802264 1_556
Li1 Li3 1.802264 1_566
Li1 O6 1.842758 1_556
Li1 O7 1.842758 1_555
Li1 O5 1.972706 1_555
Li1 O4 1.972706 1_565
Li2 O5 2.061407 1_554
Li2 O1 2.061407 1_555
Li2 O6 2.312496 1_555
Li2 O3 2.312496 1_555
Li2 O2 2.312496 1_554
Li2 O7 2.312496 1_554
Li3 O4 2.061407 1_554
Li3 O0 2.061407 1_545
Li3 O3 2.312500 1_555
Li3 O2 2.312500 1_554
Li3 O6 2.312500 1_545
Li3 O7 2.312500 1_544
Fe0 O2 2.210773 1_555
Fe0 O7 2.210773 1_545
Fe0 O3 2.210773 1_555
Fe0 O6 2.210773 1_545
Fe0 O1 2.278577 1_655
Fe0 O5 2.278577 1_445
Fe1 O7 2.210768 1_555
Fe1 O2 2.210768 1_555
Fe1 O6 2.210768 1_555
Fe1 O3 2.210768 1_555
Fe1 O0 2.278577 1_655
Fe1 O4 2.278577 1_455
Fe2 O7 2.085190 1_554
Fe2 O3 2.085190 1_455
Fe2 O1 2.365390 1_555
Fe2 O0 2.365390 1_555
Fe2 O4 2.365390 1_454
Fe2 O5 2.365390 1_454
Fe3 O6 2.085190 1_555
Fe3 O2 2.085190 1_455
Fe3 O4 2.365386 1_455
Fe3 O5 2.365386 1_455
Fe3 O1 2.365386 1_555
Fe3 O0 2.365386 1_555
Fe4 Li1 2.098425 1_445
Fe4 Li0 2.098425 1_555
Fe4 O5 2.163106 1_445
Fe4 O4 2.163106 1_455
Fe4 O0 2.163106 1_545
Fe4 O1 2.163106 1_555
Fe4 O3 2.248188 1_555
Fe4 O7 2.248188 1_445
Fe5 Li0 2.098425 1_555
Fe5 Li1 2.098425 1_444
Fe5 O0 2.163110 1_545
Fe5 O1 2.163110 1_555
Fe5 O5 2.163110 1_444
Fe5 O4 2.163110 1_454
Fe5 O2 2.248188 1_554
Fe5 O6 2.248188 1_445
