# generated using pymatgen
data_LiZn(CoO2)4
_symmetry_space_group_name_H-M   'P 1'
_cell_length_a   2.89901831
_cell_length_b   7.00374206
_cell_length_c   8.16230009
_cell_angle_alpha   69.97338138
_cell_angle_beta   79.76485899
_cell_angle_gamma   78.05380069
_symmetry_Int_Tables_number   1
_chemical_formula_structural   LiZn(CoO2)4
_chemical_formula_sum   'Li1 Zn1 Co4 O8'
_cell_volume   151.30220894
_cell_formula_units_Z   1
loop_
 _symmetry_equiv_pos_site_id
 _symmetry_equiv_pos_as_xyz
  1  'x, y, z'
loop_
 _atom_site_type_symbol
 _atom_site_label
 _atom_site_symmetry_multiplicity
 _atom_site_fract_x
 _atom_site_fract_y
 _atom_site_fract_z
 _atom_site_occupancy
  Li  Li0  1  0.96419100  0.66657500  0.40146100  1
  Zn  Zn0  1  0.38657500  0.04172700  0.18146800  1
  Co  Co0  1  0.60674500  0.22891300  0.55411400  1
  Co  Co1  1  0.14929400  0.53646500  0.16176500  1
  Co  Co2  1  0.85445000  0.43389600  0.85377900  1
  Co  Co3  1  0.28146400  0.85295300  0.58063600  1
  O  O0  1  0.84807200  0.65383500  0.64661100  1
  O  O1  1  0.45274800  0.31859600  0.77236200  1
  O  O2  1  0.53921500  0.71408300  0.20413400  1
  O  O3  1  0.10457800  0.37610900  0.41123400  1
  O  O4  1  0.13081800  0.05882000  0.67608500  1
  O  O5  1  0.83096800  0.24964700  0.08469000  1
  O  O6  1  0.81724900  0.96429100  0.39774900  1
  O  O7  1  0.24650500  0.57376500  0.92977700  1
loop_
_geom_bond_atom_site_label_1
_geom_bond_atom_site_label_2
_geom_bond_distance
_geom_bond_site_symmetry_2
Li0 O0 1.943194 1_555
Li0 O3 1.966775 1_655
Li0 O6 2.030698 1_555
Li0 O2 2.095510 1_555
Li0 O2 2.095755 1_655
Co0 O4 1.921961 1_555
Co0 O4 1.922112 1_655
Co0 O3 1.923574 1_655
Co0 O3 1.923745 1_555
Co0 O1 2.033445 1_555
Co0 O6 2.512235 1_545
Co1 O7 1.798680 1_554
Co1 O3 1.955649 1_555
Co1 O2 1.990128 1_555
Co1 O2 1.990381 1_455
Co2 O0 1.856830 1_555
Co2 O1 1.865537 1_655
Co2 O1 1.865954 1_555
Co2 O5 1.883385 1_556
Co2 O7 1.939989 1_555
Co2 O7 1.940080 1_655
Co3 O4 1.806758 1_565
Co3 O0 1.945238 1_455
Co3 O0 1.945414 1_555
Co3 O6 2.032041 1_555
Co3 O6 2.032181 1_455
O2 Zn0 2.194035 1_565
O5 Zn0 2.007841 1_555
O5 Zn0 2.008044 1_655
O6 Zn0 2.194098 1_665
O6 Zn0 2.194684 1_565
