# generated using pymatgen
data_RbFeBr4
_symmetry_space_group_name_H-M   'P 1'
_cell_length_a   7.53174323
_cell_length_b   9.86444110
_cell_length_c   11.93428877
_cell_angle_alpha   90.00000000
_cell_angle_beta   90.00000000
_cell_angle_gamma   90.00000000
_symmetry_Int_Tables_number   1
_chemical_formula_structural   RbFeBr4
_chemical_formula_sum   'Rb4 Fe4 Br16'
_cell_volume   886.67513938
_cell_formula_units_Z   4
loop_
 _symmetry_equiv_pos_site_id
 _symmetry_equiv_pos_as_xyz
  1  'x, y, z'
loop_
 _atom_site_type_symbol
 _atom_site_label
 _atom_site_symmetry_multiplicity
 _atom_site_fract_x
 _atom_site_fract_y
 _atom_site_fract_z
 _atom_site_occupancy
  Rb  Rb0  1  0.25000000  0.66106803  0.18230144  1
  Rb  Rb1  1  0.75000000  0.33893197  0.81769856  1
  Rb  Rb2  1  0.75000000  0.16106803  0.31769856  1
  Rb  Rb3  1  0.25000000  0.83893197  0.68230144  1
  Fe  Fe0  1  0.25000000  0.19033779  0.06242415  1
  Fe  Fe1  1  0.75000000  0.80966221  0.93757585  1
  Fe  Fe2  1  0.75000000  0.69033779  0.43757585  1
  Fe  Fe3  1  0.25000000  0.30966221  0.56242415  1
  Br  Br0  1  0.25000000  0.40402887  0.38375465  1
  Br  Br1  1  0.75000000  0.59597113  0.61624535  1
  Br  Br2  1  0.75000000  0.90402887  0.11624535  1
  Br  Br3  1  0.25000000  0.09597113  0.88375465  1
  Br  Br4  1  0.25000000  0.02923046  0.20545846  1
  Br  Br5  1  0.75000000  0.97076954  0.79454154  1
  Br  Br6  1  0.75000000  0.52923046  0.29454154  1
  Br  Br7  1  0.25000000  0.47076954  0.70545846  1
  Br  Br8  1  0.99763761  0.32862937  0.08216568  1
  Br  Br9  1  0.00236239  0.67137063  0.91783432  1
  Br  Br10  1  0.00236239  0.82862937  0.41783432  1
  Br  Br11  1  0.49763761  0.67137063  0.91783432  1
  Br  Br12  1  0.99763761  0.17137063  0.58216568  1
  Br  Br13  1  0.50236239  0.32862937  0.08216568  1
  Br  Br14  1  0.50236239  0.17137063  0.58216568  1
  Br  Br15  1  0.49763761  0.82862937  0.41783432  1
loop_
_geom_bond_atom_site_label_1
_geom_bond_atom_site_label_2
_geom_bond_distance
_geom_bond_site_symmetry_2
Br0 Fe3 2.326629 1_555
Br0 Rb0 3.494164 1_555
Br1 Fe2 2.326629 1_555
Br1 Rb1 3.494164 1_555
Br2 Fe1 2.326629 1_554
Br2 Rb2 3.494164 1_565
Br3 Fe0 2.326629 1_556
Br3 Rb3 3.494164 1_545
Br4 Fe0 2.332286 1_555
Br4 Rb0 3.642217 1_545
Br5 Fe1 2.332286 1_555
Br5 Rb1 3.642217 1_565
Br6 Fe2 2.332286 1_555
Br6 Rb2 3.642217 1_555
Br7 Fe3 2.332286 1_555
Br7 Rb3 3.642217 1_555
Br8 Fe0 2.351433 1_655
Br8 Rb1 3.667541 1_554
Br8 Rb2 3.756606 1_555
Br8 Rb0 3.974275 1_655
Br9 Fe1 2.351433 1_455
Br9 Rb0 3.667541 1_556
Br9 Rb3 3.756606 1_555
Br9 Rb1 3.974275 1_455
Br10 Fe2 2.351433 1_455
Br10 Rb3 3.667541 1_555
Br10 Rb0 3.756606 1_555
Br10 Rb2 3.974275 1_465
Br11 Fe1 2.351433 1_555
Br11 Rb0 3.667541 1_556
Br11 Rb3 3.756606 1_555
Br11 Rb1 3.974275 1_555
Br12 Fe3 2.351433 1_655
Br12 Rb2 3.667541 1_555
Br12 Rb1 3.756606 1_555
Br12 Rb3 3.974275 1_645
Br13 Fe0 2.351433 1_555
Br13 Rb1 3.667541 1_554
Br13 Rb2 3.756606 1_555
Br13 Rb0 3.974275 1_555
Br14 Fe3 2.351433 1_555
Br14 Rb2 3.667541 1_555
Br14 Rb1 3.756606 1_555
Br14 Rb3 3.974275 1_545
Br15 Fe2 2.351433 1_555
Br15 Rb3 3.667541 1_555
Br15 Rb0 3.756606 1_555
Br15 Rb2 3.974275 1_565
