# generated using pymatgen
data_TcRu
_symmetry_space_group_name_H-M   'P 1'
_cell_length_a   5.44972505
_cell_length_b   5.44972505
_cell_length_c   8.62578830
_cell_angle_alpha   90.00000000
_cell_angle_beta   90.00000000
_cell_angle_gamma   119.99839280
_symmetry_Int_Tables_number   1
_chemical_formula_structural   TcRu
_chemical_formula_sum   'Tc8 Ru8'
_cell_volume   221.86338964
_cell_formula_units_Z   8
loop_
 _symmetry_equiv_pos_site_id
 _symmetry_equiv_pos_as_xyz
  1  'x, y, z'
loop_
 _atom_site_type_symbol
 _atom_site_label
 _atom_site_symmetry_multiplicity
 _atom_site_fract_x
 _atom_site_fract_y
 _atom_site_fract_z
 _atom_site_occupancy
  Tc  Tc0_0  1  0.16665842  0.33334158  0.12500000  1
  Tc  Tc0_1  1  0.16665842  0.33334158  0.62500000  1
  Tc  Tc0_2  1  0.16665842  0.83334157  0.12500000  1
  Tc  Tc0_3  1  0.16665842  0.83334157  0.62500000  1
  Tc  Tc0_4  1  0.66665842  0.33334158  0.12500000  1
  Tc  Tc0_5  1  0.66665842  0.33334158  0.62500000  1
  Tc  Tc0_6  1  0.66665842  0.83334158  0.12500000  1
  Tc  Tc0_7  1  0.66665842  0.83334158  0.62500000  1
  Ru  Ru0_0  1  0.33334158  0.16665842  0.37500000  1
  Ru  Ru0_1  1  0.33334158  0.16665842  0.87500000  1
  Ru  Ru0_2  1  0.33334158  0.66665842  0.37500000  1
  Ru  Ru0_3  1  0.33334158  0.66665842  0.87500000  1
  Ru  Ru0_4  1  0.83334157  0.16665842  0.37500000  1
  Ru  Ru0_5  1  0.83334157  0.16665842  0.87500000  1
  Ru  Ru0_6  1  0.83334158  0.66665842  0.37500000  1
  Ru  Ru0_7  1  0.83334158  0.66665842  0.87500000  1
loop_
_geom_bond_atom_site_label_1
_geom_bond_atom_site_label_2
_geom_bond_distance
_geom_bond_site_symmetry_2
Tc0_0 Tc0_2 2.724863 1_555
Tc0_0 Tc0_4 2.724863 1_555
Tc0_0 Tc0_4 2.724863 1_455
Tc0_0 Tc0_2 2.724863 1_545
Tc0_0 Tc0_6 2.724929 1_555
Tc0_0 Tc0_6 2.724929 1_445
Tc0_1 Tc0_3 2.724863 1_555
Tc0_1 Tc0_5 2.724863 1_555
Tc0_1 Tc0_3 2.724863 1_545
Tc0_1 Tc0_5 2.724863 1_455
Tc0_1 Tc0_7 2.724929 1_555
Tc0_1 Tc0_7 2.724929 1_445
Tc0_2 Tc0_6 2.724863 1_555
Tc0_2 Tc0_6 2.724863 1_455
Tc0_2 Tc0_4 2.724929 1_565
Tc0_2 Tc0_4 2.724929 1_455
Tc0_3 Tc0_7 2.724863 1_555
Tc0_3 Tc0_7 2.724863 1_455
Tc0_3 Tc0_5 2.724929 1_565
Tc0_3 Tc0_5 2.724929 1_455
Tc0_4 Tc0_6 2.724863 1_545
Tc0_4 Tc0_6 2.724863 1_555
Tc0_5 Tc0_7 2.724863 1_545
Tc0_5 Tc0_7 2.724863 1_555
Ru0_0 Tc0_5 2.669280 1_555
Ru0_0 Tc0_4 2.669280 1_555
Ru0_0 Tc0_2 2.669280 1_545
Ru0_0 Tc0_3 2.669280 1_545
Ru0_0 Tc0_0 2.669395 1_555
Ru0_0 Tc0_1 2.669395 1_555
Ru0_0 Ru0_4 2.724863 1_555
Ru0_0 Ru0_2 2.724863 1_555
Ru0_0 Ru0_2 2.724863 1_545
Ru0_0 Ru0_4 2.724863 1_455
Ru0_0 Ru0_6 2.724929 1_445
Ru0_0 Ru0_6 2.724929 1_555
Ru0_1 Tc0_4 2.669280 1_556
Ru0_1 Tc0_2 2.669280 1_546
Ru0_1 Tc0_5 2.669280 1_555
Ru0_1 Tc0_3 2.669280 1_545
Ru0_1 Tc0_0 2.669395 1_556
Ru0_1 Tc0_1 2.669395 1_555
Ru0_1 Ru0_5 2.724863 1_555
Ru0_1 Ru0_3 2.724863 1_555
Ru0_1 Ru0_5 2.724863 1_455
Ru0_1 Ru0_3 2.724863 1_545
Ru0_1 Ru0_7 2.724929 1_445
Ru0_1 Ru0_7 2.724929 1_555
Ru0_2 Tc0_1 2.669280 1_555
Ru0_2 Tc0_7 2.669280 1_555
Ru0_2 Tc0_6 2.669280 1_555
Ru0_2 Tc0_0 2.669280 1_555
Ru0_2 Tc0_2 2.669395 1_555
Ru0_2 Tc0_3 2.669395 1_555
Ru0_2 Ru0_6 2.724863 1_455
Ru0_2 Ru0_6 2.724863 1_555
Ru0_2 Ru0_4 2.724929 1_565
Ru0_2 Ru0_4 2.724929 1_455
Ru0_3 Tc0_0 2.669280 1_556
Ru0_3 Tc0_6 2.669280 1_556
Ru0_3 Tc0_1 2.669280 1_555
Ru0_3 Tc0_7 2.669280 1_555
Ru0_3 Tc0_2 2.669395 1_556
Ru0_3 Tc0_3 2.669395 1_555
Ru0_3 Ru0_7 2.724863 1_455
Ru0_3 Ru0_7 2.724863 1_555
Ru0_3 Ru0_5 2.724929 1_565
Ru0_3 Ru0_5 2.724929 1_455
Ru0_4 Tc0_7 2.669280 1_545
Ru0_4 Tc0_6 2.669280 1_545
Ru0_4 Tc0_1 2.669280 1_655
Ru0_4 Tc0_0 2.669280 1_655
Ru0_4 Tc0_5 2.669395 1_555
Ru0_4 Tc0_4 2.669395 1_555
Ru0_4 Ru0_6 2.724863 1_555
Ru0_4 Ru0_6 2.724863 1_545
Ru0_5 Tc0_6 2.669280 1_546
Ru0_5 Tc0_0 2.669280 1_656
Ru0_5 Tc0_7 2.669280 1_545
Ru0_5 Tc0_1 2.669280 1_655
Ru0_5 Tc0_4 2.669395 1_556
Ru0_5 Tc0_5 2.669395 1_555
Ru0_5 Ru0_7 2.724863 1_555
Ru0_5 Ru0_7 2.724863 1_545
Ru0_6 Tc0_5 2.669280 1_555
Ru0_6 Tc0_4 2.669280 1_555
Ru0_6 Tc0_2 2.669280 1_655
Ru0_6 Tc0_3 2.669280 1_655
Ru0_6 Tc0_7 2.669395 1_555
Ru0_6 Tc0_6 2.669395 1_555
Ru0_7 Tc0_2 2.669280 1_656
Ru0_7 Tc0_4 2.669280 1_556
Ru0_7 Tc0_5 2.669280 1_555
Ru0_7 Tc0_3 2.669280 1_655
Ru0_7 Tc0_6 2.669395 1_556
Ru0_7 Tc0_7 2.669395 1_555
