# generated using pymatgen
data_YbFe5P3
_symmetry_space_group_name_H-M   'P 1'
_cell_length_a   3.64420300
_cell_length_b   10.28067800
_cell_length_c   11.82258200
_cell_angle_alpha   90.00000000
_cell_angle_beta   90.00000000
_cell_angle_gamma   90.00000000
_symmetry_Int_Tables_number   1
_chemical_formula_structural   YbFe5P3
_chemical_formula_sum   'Yb4 Fe20 P12'
_cell_volume   442.93158766
_cell_formula_units_Z   4
loop_
 _symmetry_equiv_pos_site_id
 _symmetry_equiv_pos_as_xyz
  1  'x, y, z'
loop_
 _atom_site_type_symbol
 _atom_site_label
 _atom_site_symmetry_multiplicity
 _atom_site_fract_x
 _atom_site_fract_y
 _atom_site_fract_z
 _atom_site_occupancy
  Yb  Yb0  1  0.25000000  0.58127700  0.70534000  1
  Yb  Yb1  1  0.25000000  0.91872300  0.20534000  1
  Yb  Yb2  1  0.75000000  0.41872300  0.29466000  1
  Yb  Yb3  1  0.75000000  0.08127700  0.79466000  1
  Fe  Fe0  1  0.25000000  0.70760400  0.98752900  1
  Fe  Fe1  1  0.25000000  0.79239600  0.48752900  1
  Fe  Fe2  1  0.75000000  0.29239600  0.01247100  1
  Fe  Fe3  1  0.75000000  0.20760400  0.51247100  1
  Fe  Fe4  1  0.25000000  0.40640400  0.49149700  1
  Fe  Fe5  1  0.25000000  0.09359600  0.99149700  1
  Fe  Fe6  1  0.75000000  0.59359600  0.50850300  1
  Fe  Fe7  1  0.75000000  0.90640400  0.00850300  1
  Fe  Fe8  1  0.25000000  0.21722600  0.17851700  1
  Fe  Fe9  1  0.25000000  0.28277400  0.67851700  1
  Fe  Fe10  1  0.75000000  0.78277400  0.82148300  1
  Fe  Fe11  1  0.75000000  0.71722600  0.32148300  1
  Fe  Fe12  1  0.25000000  0.87509100  0.70217400  1
  Fe  Fe13  1  0.25000000  0.62490900  0.20217400  1
  Fe  Fe14  1  0.75000000  0.12490900  0.29782600  1
  Fe  Fe15  1  0.75000000  0.37509100  0.79782600  1
  Fe  Fe16  1  0.25000000  0.46360700  0.93272100  1
  Fe  Fe17  1  0.25000000  0.03639300  0.43272100  1
  Fe  Fe18  1  0.75000000  0.53639300  0.06727900  1
  Fe  Fe19  1  0.75000000  0.96360700  0.56727900  1
  P  P0  1  0.25000000  0.42092500  0.11312800  1
  P  P1  1  0.25000000  0.07907500  0.61312800  1
  P  P2  1  0.75000000  0.57907500  0.88687200  1
  P  P3  1  0.75000000  0.92092500  0.38687200  1
  P  P4  1  0.25000000  0.26401500  0.87348800  1
  P  P5  1  0.25000000  0.23598500  0.37348800  1
  P  P6  1  0.75000000  0.73598500  0.12651200  1
  P  P7  1  0.75000000  0.76401500  0.62651200  1
  P  P8  1  0.25000000  0.59916600  0.39644400  1
  P  P9  1  0.25000000  0.90083400  0.89644400  1
  P  P10  1  0.75000000  0.40083400  0.60355600  1
  P  P11  1  0.75000000  0.09916600  0.10355600  1
loop_
_geom_bond_atom_site_label_1
_geom_bond_atom_site_label_2
_geom_bond_distance
_geom_bond_site_symmetry_2
Fe0 P9 2.259635 1_555
Fe0 P6 2.470848 1_456
Fe0 P6 2.470848 1_556
Fe0 P2 2.546021 1_555
Fe0 P2 2.546021 1_455
Fe1 P8 2.259635 1_555
Fe1 P7 2.470848 1_455
Fe1 P7 2.470848 1_555
Fe1 P3 2.546021 1_455
Fe1 P3 2.546021 1_555
Fe2 P11 2.259635 1_555
Fe2 P4 2.470848 1_654
Fe2 P4 2.470848 1_554
Fe2 P0 2.546021 1_655
Fe2 P0 2.546021 1_555
Fe3 P10 2.259635 1_555
Fe3 P5 2.470848 1_555
Fe3 P5 2.470848 1_655
Fe3 P1 2.546021 1_555
Fe3 P1 2.546021 1_655
Fe4 P5 2.239662 1_555
Fe4 P10 2.253552 1_555
Fe4 P10 2.253552 1_455
Fe4 P8 2.278178 1_555
Fe4 Yb2 2.958308 1_455
Fe4 Yb2 2.958308 1_555
Fe4 Yb0 3.102226 1_555
Fe5 P4 2.239662 1_555
Fe5 P11 2.253552 1_456
Fe5 P11 2.253552 1_556
Fe5 P9 2.278178 1_545
Fe5 Yb3 2.958308 1_555
Fe5 Yb3 2.958308 1_455
Fe5 Yb1 3.102226 1_546
Fe6 P7 2.239662 1_555
Fe6 P8 2.253552 1_655
Fe6 P8 2.253552 1_555
Fe6 P10 2.278178 1_555
Fe6 Yb0 2.958308 1_555
Fe6 Yb0 2.958308 1_655
Fe6 Yb2 3.102226 1_555
Fe7 P6 2.239662 1_555
Fe7 P9 2.253552 1_654
Fe7 P9 2.253552 1_554
Fe7 P11 2.278178 1_565
Fe7 Yb1 2.958308 1_555
Fe7 Yb1 2.958308 1_655
Fe7 Yb3 3.102226 1_564
Fe8 P0 2.232298 1_555
Fe8 P5 2.313114 1_555
Fe8 P11 2.361910 1_555
Fe8 P11 2.361910 1_455
Fe8 Yb2 3.081672 1_455
Fe8 Yb2 3.081672 1_555
Fe8 Yb1 3.085154 1_545
Fe9 P1 2.232298 1_555
Fe9 P4 2.313114 1_555
Fe9 P10 2.361910 1_555
Fe9 P10 2.361910 1_455
Fe9 Yb3 3.081672 1_455
Fe9 Yb3 3.081672 1_555
Fe9 Yb0 3.085154 1_555
Fe10 P2 2.232298 1_555
Fe10 P7 2.313114 1_555
Fe10 P9 2.361910 1_555
Fe10 P9 2.361910 1_655
Fe10 Yb0 3.081672 1_555
Fe10 Yb0 3.081672 1_655
Fe10 Yb3 3.085154 1_565
Fe11 P3 2.232298 1_555
Fe11 P6 2.313114 1_555
Fe11 P8 2.361910 1_655
Fe11 P8 2.361910 1_555
Fe11 Yb1 3.081672 1_655
Fe11 Yb1 3.081672 1_555
Fe11 Yb2 3.085154 1_555
Fe12 P9 2.311971 1_555
Fe12 P7 2.329000 1_455
Fe12 P7 2.329000 1_555
Fe12 P1 2.346506 1_565
Fe12 Yb3 3.001482 1_465
Fe12 Yb3 3.001482 1_565
Fe12 Yb0 3.020839 1_555
Fe13 P8 2.311971 1_555
Fe13 P6 2.329000 1_555
Fe13 P6 2.329000 1_455
Fe13 P0 2.346506 1_555
Fe13 Yb2 3.001482 1_455
Fe13 Yb2 3.001482 1_555
Fe13 Yb1 3.020839 1_555
Fe14 P11 2.311971 1_555
Fe14 P5 2.329000 1_655
Fe14 P5 2.329000 1_555
Fe14 P3 2.346506 1_545
Fe14 Yb1 3.001482 1_645
Fe14 Yb1 3.001482 1_545
Fe14 Yb2 3.020839 1_555
Fe15 P10 2.311971 1_555
Fe15 P4 2.329000 1_655
Fe15 P4 2.329000 1_555
Fe15 P2 2.346506 1_555
Fe15 Yb0 3.001482 1_655
Fe15 Yb0 3.001482 1_555
Fe15 Yb3 3.020839 1_555
Fe16 P4 2.168148 1_555
Fe16 P0 2.177546 1_556
Fe16 P2 2.241218 1_555
Fe16 P2 2.241218 1_455
Fe16 Yb0 2.947885 1_555
Fe17 P5 2.168148 1_555
Fe17 P1 2.177546 1_555
Fe17 P3 2.241218 1_545
Fe17 P3 2.241218 1_445
Fe17 Yb1 2.947885 1_545
Fe18 P6 2.168148 1_555
Fe18 P2 2.177546 1_554
Fe18 P0 2.241218 1_555
Fe18 P0 2.241218 1_655
Fe18 Yb2 2.947885 1_555
Fe19 P7 2.168148 1_555
Fe19 P3 2.177546 1_555
Fe19 P1 2.241218 1_565
Fe19 P1 2.241218 1_665
Fe19 Yb3 2.947885 1_565
P0 Yb2 2.815429 1_455
P0 Yb2 2.815429 1_555
P1 Yb3 2.815429 1_455
P1 Yb3 2.815429 1_555
P2 Yb0 2.815429 1_555
P2 Yb0 2.815429 1_655
P3 Yb1 2.815429 1_655
P3 Yb1 2.815429 1_555
P4 Yb3 2.778127 1_455
P4 Yb3 2.778127 1_555
P5 Yb2 2.778127 1_455
P5 Yb2 2.778127 1_555
P6 Yb1 2.778127 1_655
P6 Yb1 2.778127 1_555
P7 Yb0 2.778127 1_555
P7 Yb0 2.778127 1_655
P8 Yb2 2.865207 1_455
P8 Yb2 2.865207 1_555
P9 Yb3 2.865207 1_465
P9 Yb3 2.865207 1_565
P10 Yb0 2.865207 1_555
P10 Yb0 2.865207 1_655
P11 Yb1 2.865207 1_545
P11 Yb1 2.865207 1_645
