# generated using pymatgen
data_Ba2GdCoCu2O7
_symmetry_space_group_name_H-M   'P 1'
_cell_length_a   3.88113500
_cell_length_b   3.91982800
_cell_length_c   11.84470300
_cell_angle_alpha   90.00000000
_cell_angle_beta   90.00000000
_cell_angle_gamma   90.00000000
_symmetry_Int_Tables_number   1
_chemical_formula_structural   Ba2GdCoCu2O7
_chemical_formula_sum   'Ba2 Gd1 Co1 Cu2 O7'
_cell_volume   180.19798721
_cell_formula_units_Z   1
loop_
 _symmetry_equiv_pos_site_id
 _symmetry_equiv_pos_as_xyz
  1  'x, y, z'
loop_
 _atom_site_type_symbol
 _atom_site_label
 _atom_site_symmetry_multiplicity
 _atom_site_fract_x
 _atom_site_fract_y
 _atom_site_fract_z
 _atom_site_occupancy
  Ba  Ba0  1  0.50000000  0.50000000  0.18466100  1
  Ba  Ba1  1  0.50000000  0.50000000  0.81533900  1
  Gd  Gd0  1  0.50000000  0.50000000  0.50000000  1
  Co  Co0  1  0.00000000  0.00000000  0.00000000  1
  Cu  Cu0  1  0.00000000  0.00000000  0.35849000  1
  Cu  Cu1  1  0.00000000  0.00000000  0.64151000  1
  O  O0  1  0.50000000  0.00000000  0.37579400  1
  O  O1  1  0.50000000  0.00000000  0.62420600  1
  O  O2  1  0.00000000  0.00000000  0.15178800  1
  O  O3  1  0.00000000  0.00000000  0.84821200  1
  O  O4  1  0.00000000  0.50000000  0.37597000  1
  O  O5  1  0.00000000  0.50000000  0.62403000  1
  O  O6  1  0.00000000  0.50000000  0.00000000  1
loop_
_geom_bond_atom_site_label_1
_geom_bond_atom_site_label_2
_geom_bond_distance
_geom_bond_site_symmetry_2
Ba0 O2 2.785440 1_555
Ba0 O2 2.785440 1_655
Ba0 O2 2.785440 1_565
Ba0 O2 2.785440 1_665
Ba0 O6 2.924019 1_555
Ba0 O6 2.924019 1_655
Ba0 O4 2.983379 1_555
Ba0 O4 2.983379 1_655
Ba0 O0 2.994423 1_555
Ba0 O0 2.994423 1_565
Ba1 O3 2.785440 1_555
Ba1 O3 2.785440 1_655
Ba1 O3 2.785440 1_565
Ba1 O3 2.785440 1_665
Ba1 O6 2.924019 1_556
Ba1 O6 2.924019 1_656
Ba1 O5 2.983379 1_555
Ba1 O5 2.983379 1_655
Ba1 O1 2.994423 1_555
Ba1 O1 2.994423 1_565
Gd0 O4 2.433938 1_555
Gd0 O4 2.433938 1_655
Gd0 O5 2.433938 1_555
Gd0 O5 2.433938 1_655
Gd0 O1 2.450641 1_555
Gd0 O1 2.450641 1_565
Gd0 O0 2.450641 1_555
Gd0 O0 2.450641 1_565
Co0 O2 1.797884 1_555
Co0 O3 1.797884 1_554
Co0 O6 1.959914 1_555
Co0 O6 1.959914 1_545
Cu0 O0 1.951361 1_455
Cu0 O0 1.951361 1_555
Cu0 O4 1.970820 1_555
Cu0 O4 1.970820 1_545
Cu0 O2 2.448324 1_555
Cu1 O1 1.951361 1_455
Cu1 O1 1.951361 1_555
Cu1 O5 1.970820 1_545
Cu1 O5 1.970820 1_555
Cu1 O3 2.448324 1_555
