# generated using pymatgen
data_LiNi2O3
_symmetry_space_group_name_H-M   'P 1'
_cell_length_a   5.09359394
_cell_length_b   5.07739336
_cell_length_c   9.70533988
_cell_angle_alpha   94.49980872
_cell_angle_beta   100.00260505
_cell_angle_gamma   60.26566102
_symmetry_Int_Tables_number   1
_chemical_formula_structural   LiNi2O3
_chemical_formula_sum   'Li4 Ni8 O12'
_cell_volume   214.63142056
_cell_formula_units_Z   4
loop_
 _symmetry_equiv_pos_site_id
 _symmetry_equiv_pos_as_xyz
  1  'x, y, z'
loop_
 _atom_site_type_symbol
 _atom_site_label
 _atom_site_symmetry_multiplicity
 _atom_site_fract_x
 _atom_site_fract_y
 _atom_site_fract_z
 _atom_site_occupancy
  Li  Li0  1  0.91248200  0.67752500  0.75337300  1
  Li  Li1  1  0.42079900  0.65590300  0.24662400  1
  Li  Li2  1  0.25362700  0.99468800  0.75273600  1
  Li  Li3  1  0.07969700  0.33870300  0.24728000  1
  Ni  Ni0  1  0.33327400  0.33276600  0.00032200  1
  Ni  Ni1  1  0.00005700  0.00059200  0.99971200  1
  Ni  Ni2  1  0.58217400  0.33590500  0.75111900  1
  Ni  Ni3  1  0.75105100  0.99743700  0.24888800  1
  Ni  Ni4  1  0.16671400  0.66672500  0.49995500  1
  Ni  Ni5  1  0.66671500  0.66653800  0.00000900  1
  Ni  Ni6  1  0.83378100  0.33268700  0.49893500  1
  Ni  Ni7  1  0.49946800  0.00076600  0.50108100  1
  O  O0  1  0.93218000  0.36051900  0.88276800  1
  O  O1  1  0.20539400  0.35517100  0.61555900  1
  O  O2  1  0.12785700  0.97813800  0.38449100  1
  O  O3  1  0.40138200  0.97257700  0.11712300  1
  O  O4  1  0.62167600  0.00884800  0.87320000  1
  O  O5  1  0.86511700  0.01012800  0.62360900  1
  O  O6  1  0.46819600  0.32328400  0.37640500  1
  O  O7  1  0.71166600  0.32445300  0.12681200  1
  O  O8  1  0.32312300  0.66247800  0.88408800  1
  O  O9  1  0.51527600  0.66054900  0.61349400  1
  O  O10  1  0.81803800  0.67283700  0.38652800  1
  O  O11  1  0.01025900  0.67078500  0.11588900  1
loop_
_geom_bond_atom_site_label_1
_geom_bond_atom_site_label_2
_geom_bond_distance
_geom_bond_site_symmetry_2
Li0 O4 2.048463 1_565
Li0 O0 2.071487 1_555
Li0 O5 2.078515 1_565
Li0 O1 2.149709 1_655
Li0 O8 2.219260 1_655
Li0 O9 2.268099 1_555
Li1 O7 2.048770 1_555
Li1 O3 2.071449 1_555
Li1 O6 2.078623 1_555
Li1 O2 2.149902 1_555
Li1 O11 2.219240 1_555
Li1 O10 2.268249 1_555
Li2 O8 2.045478 1_555
Li2 O4 2.060498 1_565
Li2 O5 2.119624 1_465
Li2 O9 2.122208 1_555
Li2 O1 2.237315 1_565
Li2 O0 2.248740 1_465
Li3 O11 2.045317 1_555
Li3 O7 2.060640 1_455
Li3 O6 2.119611 1_555
Li3 O10 2.122254 1_455
Li3 O2 2.238012 1_545
Li3 O3 2.250630 1_545
Ni0 O8 2.065914 1_554
Ni0 O4 2.073565 1_554
Ni0 O3 2.075889 1_545
Ni0 O7 2.080652 1_555
Ni0 O0 2.103650 1_454
Ni0 O11 2.109158 1_555
Ni1 O11 2.065863 1_546
Ni1 O7 2.073287 1_456
Ni1 O0 2.076014 1_455
Ni1 O4 2.080812 1_455
Ni1 O3 2.103623 1_546
Ni1 O8 2.109800 1_545
Ni2 O4 2.023952 1_555
Ni2 O0 2.056970 1_555
Ni2 O8 2.059460 1_555
Ni2 O9 2.060933 1_555
Ni2 O5 2.068387 1_555
Ni2 O1 2.092975 1_555
Ni3 O7 2.023996 1_565
Ni3 O3 2.056693 1_555
Ni3 O11 2.060112 1_655
Ni3 O10 2.060704 1_555
Ni3 O6 2.068396 1_565
Ni3 O2 2.093216 1_655
Ni4 O9 1.907347 1_555
Ni4 O10 1.907501 1_455
Ni4 O2 1.919790 1_555
Ni4 O1 1.921599 1_555
Ni4 O6 2.119449 1_555
Ni4 O5 2.120244 1_465
Ni5 O8 1.917612 1_554
Ni5 O11 1.917639 1_655
Ni5 O3 1.925188 1_555
Ni5 O0 1.926218 1_554
Ni5 O7 2.104001 1_555
Ni5 O4 2.104791 1_564
Ni6 O5 2.038723 1_555
Ni6 O6 2.047937 1_555
Ni6 O9 2.072811 1_555
Ni6 O10 2.075395 1_555
Ni6 O2 2.075446 1_645
Ni6 O1 2.080109 1_655
Ni7 O6 2.038705 1_555
Ni7 O5 2.048107 1_555
Ni7 O10 2.073060 1_545
Ni7 O1 2.075296 1_555
Ni7 O9 2.075566 1_545
Ni7 O2 2.080313 1_545
