# generated using pymatgen
data_Ce(Al5Fe)2
_symmetry_space_group_name_H-M   'P 1'
_cell_length_a   6.73869075
_cell_length_b   6.73869838
_cell_length_c   8.92306054
_cell_angle_alpha   90.00001632
_cell_angle_beta   89.99987269
_cell_angle_gamma   97.69404654
_symmetry_Int_Tables_number   1
_chemical_formula_structural   Ce(Al5Fe)2
_chemical_formula_sum   'Ce2 Al20 Fe4'
_cell_volume   401.54828447
_cell_formula_units_Z   2
loop_
 _symmetry_equiv_pos_site_id
 _symmetry_equiv_pos_as_xyz
  1  'x, y, z'
loop_
 _atom_site_type_symbol
 _atom_site_label
 _atom_site_symmetry_multiplicity
 _atom_site_fract_x
 _atom_site_fract_y
 _atom_site_fract_z
 _atom_site_occupancy
  Ce  Ce0  1  0.87681188  0.12318716  0.74999193  1
  Ce  Ce1  1  0.12318262  0.87681759  0.25000861  1
  Al  Al0  1  0.41007769  0.13140387  0.74999861  1
  Al  Al1  1  0.13140775  0.41007752  0.25000085  1
  Al  Al2  1  0.58992346  0.86859423  0.25000251  1
  Al  Al3  1  0.86859820  0.58992966  0.75000014  1
  Al  Al4  1  0.52074501  0.77843330  0.74999536  1
  Al  Al5  1  0.77842471  0.52073948  0.25000183  1
  Al  Al6  1  0.47925943  0.22157285  0.25000415  1
  Al  Al7  1  0.22156787  0.47925459  0.74999777  1
  Al  Al8  1  0.83823268  0.16176268  0.40149907  1
  Al  Al9  1  0.16176386  0.83823985  0.59851266  1
  Al  Al10  1  0.83824157  0.16175987  0.09849478  1
  Al  Al11  1  0.16175503  0.83824264  0.90149318  1
  Al  Al12  1  0.62413351  0.37586782  0.94894108  1
  Al  Al13  1  0.37586789  0.62412988  0.05104196  1
  Al  Al14  1  0.62412558  0.37586556  0.55106314  1
  Al  Al15  1  0.37587588  0.62413193  0.44895323  1
  Al  Al16  1  0.77161428  0.77161339  -0.00000864  1
  Al  Al17  1  0.77161257  0.77161646  0.50000856  1
  Al  Al18  1  0.22838362  0.22838740  -0.00000853  1
  Al  Al19  1  0.22838524  0.22838434  0.50000822  1
  Fe  Fe0  1  0.50000689  0.00000130  -0.00000846  1
  Fe  Fe1  1  -0.00000175  0.49999254  -0.00000832  1
  Fe  Fe2  1  0.50000670  0.00000116  0.50000816  1
  Fe  Fe3  1  -0.00000219  0.49999292  0.50000814  1
loop_
_geom_bond_atom_site_label_1
_geom_bond_atom_site_label_2
_geom_bond_distance
_geom_bond_site_symmetry_2
Ce0 Fe2 3.398203 1_555
Ce0 Fe3 3.398203 1_655
Ce0 Fe0 3.398288 1_556
Ce0 Fe1 3.398297 1_656
Ce1 Fe2 3.398384 1_565
Ce1 Fe3 3.398386 1_555
Ce1 Fe0 3.398481 1_565
Ce1 Fe1 3.398490 1_555
Al0 Fe2 2.504183 1_555
Al0 Fe0 2.504205 1_556
Al0 Al4 2.586247 1_545
Al0 Al19 2.667652 1_555
Al0 Al18 2.667678 1_556
Al0 Al14 2.703528 1_555
Al0 Al12 2.703605 1_555
Al0 Al9 2.764912 1_545
Al0 Al11 2.764965 1_545
Al0 Al7 2.811696 1_555
Al0 Ce0 3.153068 1_555
Al0 Ce0 3.586520 1_455
Al1 Fe3 2.504308 1_555
Al1 Fe1 2.504325 1_555
Al1 Al5 2.586311 1_455
Al1 Al18 2.667773 1_555
Al1 Al19 2.667775 1_555
Al1 Al13 2.703673 1_555
Al1 Al15 2.703674 1_555
Al1 Al8 2.765012 1_455
Al1 Al10 2.765022 1_455
Al1 Al6 2.811680 1_555
Al1 Ce1 3.153120 1_555
Al1 Ce1 3.586478 1_545
Al2 Fe2 2.504291 1_565
Al2 Fe0 2.504336 1_565
Al2 Al6 2.586290 1_565
Al2 Al8 2.764961 1_565
Al2 Al5 2.811687 1_555
Al2 Ce1 3.153120 1_555
Al2 Ce1 3.586470 1_655
Al3 Fe3 2.504202 1_655
Al3 Fe1 2.504204 1_656
Al3 Al7 2.586261 1_655
Al3 Al9 2.764909 1_655
Al3 Al4 2.811685 1_555
Al3 Ce0 3.153124 1_555
Al3 Ce0 3.586471 1_565
Al4 Al7 2.653436 1_555
Al4 Fe2 2.698239 1_565
Al4 Fe0 2.698304 1_566
Al4 Al9 2.846475 1_555
Al4 Ce0 3.108351 1_565
Al5 Al6 2.653329 1_555
Al5 Fe3 2.698408 1_655
Al5 Fe1 2.698433 1_655
Al5 Al8 2.846514 1_555
Al5 Ce1 3.108419 1_655
Al6 Fe2 2.698385 1_555
Al6 Fe0 2.698447 1_555
Al6 Al8 2.846487 1_555
Al6 Ce1 3.108402 1_545
Al7 Fe3 2.698266 1_555
Al7 Fe1 2.698290 1_556
Al7 Al9 2.846505 1_555
Al7 Ce0 3.108363 1_455
Al8 Fe2 2.547620 1_555
Al8 Fe3 2.547656 1_655
Al8 Ce0 3.134169 1_555
Al8 Ce1 3.191966 1_645
Al9 Fe2 2.547701 1_565
Al9 Fe3 2.547738 1_555
Al9 Ce1 3.134270 1_555
Al9 Ce0 3.191944 1_465
Al10 Fe1 2.547632 1_655
Al10 Fe0 2.547648 1_555
Al10 Al12 2.549831 1_554
Al10 Al8 2.703726 1_555
Al10 Al18 2.751353 1_655
Al10 Al16 2.751386 1_545
Al10 Al2 2.765025 1_545
Al10 Al5 2.846586 1_555
Al10 Al6 2.846600 1_555
Al10 Ce0 3.134248 1_554
Al10 Ce1 3.192005 1_645
Al11 Fe1 2.547717 1_556
Al11 Fe0 2.547731 1_566
Al11 Al13 2.549850 1_556
Al11 Al9 2.703514 1_555
Al11 Al16 2.751331 1_456
Al11 Al18 2.751361 1_566
Al11 Al3 2.764909 1_455
Al11 Al7 2.846579 1_555
Al11 Al4 2.846591 1_555
Al11 Ce1 3.134363 1_556
Al11 Ce0 3.191977 1_465
Al12 Fe1 2.599061 1_656
Al12 Fe0 2.599076 1_556
Al12 Al13 2.679017 1_556
Al12 Al3 2.703613 1_555
Al12 Al16 2.756338 1_556
Al12 Al18 2.756361 1_556
Al12 Al5 2.996490 1_556
Al12 Al6 2.996517 1_556
Al12 Ce0 3.118711 1_555
Al13 Fe1 2.599108 1_555
Al13 Fe0 2.599123 1_565
Al13 Al2 2.703712 1_555
Al13 Al18 2.756324 1_555
Al13 Al16 2.756344 1_555
Al13 Al7 2.996383 1_554
Al13 Al4 2.996409 1_554
Al13 Ce1 3.118858 1_555
Al14 Al8 2.549850 1_555
Al14 Fe2 2.599060 1_555
Al14 Fe3 2.599117 1_655
Al14 Al15 2.678991 1_555
Al14 Al3 2.703630 1_555
Al14 Al19 2.756311 1_555
Al14 Al17 2.756386 1_555
Al14 Al6 2.996469 1_555
Al14 Al5 2.996511 1_555
Al14 Ce0 3.118636 1_555
Al15 Al9 2.549871 1_555
Al15 Fe2 2.599106 1_565
Al15 Fe3 2.599168 1_555
Al15 Al2 2.703619 1_555
Al15 Al17 2.756294 1_555
Al15 Al19 2.756372 1_555
Al15 Al4 2.996357 1_555
Al15 Al7 2.996402 1_555
Al15 Ce1 3.118776 1_555
Al16 Fe0 2.544173 1_565
Al16 Fe1 2.544227 1_655
Al16 Al3 2.667633 1_554
Al16 Al2 2.667798 1_555
Al16 Al4 2.803030 1_554
Al16 Al5 2.803144 1_555
Al16 Ce0 3.262205 1_564
Al16 Ce1 3.262296 1_655
Al17 Fe2 2.544150 1_565
Al17 Fe3 2.544248 1_655
Al17 Al3 2.667653 1_555
Al17 Al2 2.667752 1_555
Al17 Al8 2.751400 1_565
Al17 Al9 2.751417 1_655
Al17 Al4 2.802950 1_555
Al17 Al5 2.803131 1_555
Al17 Ce0 3.262095 1_565
Al17 Ce1 3.262189 1_655
Al18 Fe1 2.544149 1_555
Al18 Fe0 2.544250 1_555
Al18 Al7 2.803001 1_554
Al18 Al6 2.803172 1_555
Al18 Ce0 3.262200 1_454
Al18 Ce1 3.262297 1_545
Al19 Fe3 2.544178 1_555
Al19 Fe2 2.544227 1_555
Al19 Al9 2.751375 1_545
Al19 Al8 2.751439 1_455
Al19 Al7 2.802985 1_555
Al19 Al6 2.803096 1_555
Al19 Ce0 3.262102 1_455
Al19 Ce1 3.262178 1_545
