# generated using pymatgen
data_LiMg2
_symmetry_space_group_name_H-M   'P 1'
_cell_length_a   11.77158333
_cell_length_b   11.77158333
_cell_length_c   14.75409836
_cell_angle_alpha   75.29884993
_cell_angle_beta   75.29884993
_cell_angle_gamma   31.57851631
_symmetry_Int_Tables_number   1
_chemical_formula_structural   LiMg2
_chemical_formula_sum   'Li16 Mg32'
_cell_volume   1032.72138397
_cell_formula_units_Z   16
loop_
 _symmetry_equiv_pos_site_id
 _symmetry_equiv_pos_as_xyz
  1  'x, y, z'
loop_
 _atom_site_type_symbol
 _atom_site_label
 _atom_site_symmetry_multiplicity
 _atom_site_fract_x
 _atom_site_fract_y
 _atom_site_fract_z
 _atom_site_occupancy
  Li  Li0_0  1  0.26386550  0.26386550  0.09763750  1
  Li  Li0_1  1  0.26386550  0.26386550  0.59763750  1
  Li  Li0_2  1  0.26386550  0.76386550  0.09763750  1
  Li  Li0_3  1  0.26386550  0.76386550  0.59763750  1
  Li  Li0_4  1  0.76386550  0.26386550  0.09763750  1
  Li  Li0_5  1  0.76386550  0.26386550  0.59763750  1
  Li  Li0_6  1  0.76386550  0.76386550  0.09763750  1
  Li  Li0_7  1  0.76386550  0.76386550  0.59763750  1
  Li  Li1_0  1  0.23613450  0.23613450  0.40236250  1
  Li  Li1_1  1  0.23613450  0.23613450  0.90236250  1
  Li  Li1_2  1  0.23613450  0.73613450  0.40236250  1
  Li  Li1_3  1  0.23613450  0.73613450  0.90236250  1
  Li  Li1_4  1  0.73613450  0.23613450  0.40236250  1
  Li  Li1_5  1  0.73613450  0.23613450  0.90236250  1
  Li  Li1_6  1  0.73613450  0.73613450  0.40236250  1
  Li  Li1_7  1  0.73613450  0.73613450  0.90236250  1
  Mg  Mg0_0  1  0.40412450  0.40412450  0.06780400  1
  Mg  Mg0_1  1  0.40412450  0.40412450  0.56780400  1
  Mg  Mg0_2  1  0.40412450  0.90412450  0.06780400  1
  Mg  Mg0_3  1  0.40412450  0.90412450  0.56780400  1
  Mg  Mg0_4  1  0.90412450  0.40412450  0.06780400  1
  Mg  Mg0_5  1  0.90412450  0.40412450  0.56780400  1
  Mg  Mg0_6  1  0.90412450  0.90412450  0.06780400  1
  Mg  Mg0_7  1  0.90412450  0.90412450  0.56780400  1
  Mg  Mg1_0  1  0.06934650  0.06934650  0.23556600  1
  Mg  Mg1_1  1  0.06934650  0.06934650  0.73556600  1
  Mg  Mg1_2  1  0.06934650  0.56934650  0.23556600  1
  Mg  Mg1_3  1  0.06934650  0.56934650  0.73556600  1
  Mg  Mg1_4  1  0.56934650  0.06934650  0.23556600  1
  Mg  Mg1_5  1  0.56934650  0.06934650  0.73556600  1
  Mg  Mg1_6  1  0.56934650  0.56934650  0.23556600  1
  Mg  Mg1_7  1  0.56934650  0.56934650  0.73556600  1
  Mg  Mg2_0  1  0.43065350  0.43065350  0.26443400  1
  Mg  Mg2_1  1  0.43065350  0.43065350  0.76443400  1
  Mg  Mg2_2  1  0.43065350  0.93065350  0.26443400  1
  Mg  Mg2_3  1  0.43065350  0.93065350  0.76443400  1
  Mg  Mg2_4  1  0.93065350  0.43065350  0.26443400  1
  Mg  Mg2_5  1  0.93065350  0.43065350  0.76443400  1
  Mg  Mg2_6  1  0.93065350  0.93065350  0.26443400  1
  Mg  Mg2_7  1  0.93065350  0.93065350  0.76443400  1
  Mg  Mg3_0  1  0.09587550  0.09587550  0.43219600  1
  Mg  Mg3_1  1  0.09587550  0.09587550  0.93219600  1
  Mg  Mg3_2  1  0.09587550  0.59587550  0.43219600  1
  Mg  Mg3_3  1  0.09587550  0.59587550  0.93219600  1
  Mg  Mg3_4  1  0.59587550  0.09587550  0.43219600  1
  Mg  Mg3_5  1  0.59587550  0.09587550  0.93219600  1
  Mg  Mg3_6  1  0.59587550  0.59587550  0.43219600  1
  Mg  Mg3_7  1  0.59587550  0.59587550  0.93219600  1
loop_
_geom_bond_atom_site_label_1
_geom_bond_atom_site_label_2
_geom_bond_distance
_geom_bond_site_symmetry_2
Li0_0 Mg0_2 3.084941 1_545
Li0_0 Mg0_4 3.084941 1_455
Li0_0 Mg0_0 3.090765 1_555
Li0_0 Mg3_3 3.095625 1_554
Li0_0 Mg3_5 3.095625 1_554
Li0_0 Mg1_4 3.104049 1_555
Li0_0 Mg1_2 3.104049 1_555
Li0_0 Li1_1 3.106473 1_554
Li0_0 Mg2_4 3.118955 1_455
Li0_0 Mg2_2 3.118955 1_545
Li0_0 Li0_6 3.203046 1_455
Li0_0 Li0_6 3.203046 1_545
Li0_1 Mg0_5 3.084941 1_455
Li0_1 Mg0_3 3.084941 1_545
Li0_1 Mg0_1 3.090765 1_555
Li0_1 Mg3_4 3.095625 1_555
Li0_1 Mg3_2 3.095625 1_555
Li0_1 Mg1_5 3.104049 1_555
Li0_1 Mg1_3 3.104049 1_555
Li0_1 Li1_0 3.106473 1_555
Li0_1 Mg2_3 3.118955 1_545
Li0_1 Mg2_5 3.118955 1_455
Li0_1 Li0_7 3.203046 1_545
Li0_1 Li0_7 3.203046 1_455
Li0_2 Mg0_6 3.084941 1_455
Li0_2 Mg0_0 3.084941 1_555
Li0_2 Mg0_2 3.090765 1_555
Li0_2 Mg3_7 3.095625 1_554
Li0_2 Mg3_1 3.095625 1_564
Li0_2 Mg1_6 3.104049 1_555
Li0_2 Mg1_0 3.104049 1_565
Li0_2 Li1_3 3.106473 1_554
Li0_2 Mg2_0 3.118955 1_555
Li0_2 Mg2_6 3.118955 1_455
Li0_2 Li0_4 3.203046 1_555
Li0_2 Li0_4 3.203046 1_465
Li0_3 Mg0_7 3.084941 1_455
Li0_3 Mg0_1 3.084941 1_555
Li0_3 Mg0_3 3.090765 1_555
Li0_3 Mg3_0 3.095625 1_565
Li0_3 Mg3_6 3.095625 1_555
Li0_3 Mg1_1 3.104049 1_565
Li0_3 Mg1_7 3.104049 1_555
Li0_3 Li1_2 3.106473 1_555
Li0_3 Mg2_1 3.118955 1_555
Li0_3 Mg2_7 3.118955 1_455
Li0_3 Li0_5 3.203046 1_555
Li0_3 Li0_5 3.203046 1_465
Li0_4 Mg0_6 3.084941 1_545
Li0_4 Mg0_0 3.084941 1_555
Li0_4 Mg0_4 3.090765 1_555
Li0_4 Mg3_7 3.095625 1_554
Li0_4 Mg3_1 3.095625 1_654
Li0_4 Mg1_0 3.104049 1_655
Li0_4 Mg1_6 3.104049 1_555
Li0_4 Li1_5 3.106473 1_554
Li0_4 Mg2_6 3.118955 1_545
Li0_4 Mg2_0 3.118955 1_555
Li0_5 Mg0_7 3.084941 1_545
Li0_5 Mg0_1 3.084941 1_555
Li0_5 Mg0_5 3.090765 1_555
Li0_5 Mg3_0 3.095625 1_655
Li0_5 Mg3_6 3.095625 1_555
Li0_5 Mg1_1 3.104049 1_655
Li0_5 Mg1_7 3.104049 1_555
Li0_5 Li1_4 3.106473 1_555
Li0_5 Mg2_1 3.118955 1_555
Li0_5 Mg2_7 3.118955 1_545
Li0_6 Mg0_2 3.084941 1_555
Li0_6 Mg0_4 3.084941 1_555
Li0_6 Mg0_6 3.090765 1_555
Li0_6 Mg3_3 3.095625 1_654
Li0_6 Mg3_5 3.095625 1_564
Li0_6 Mg1_2 3.104049 1_655
Li0_6 Mg1_4 3.104049 1_565
Li0_6 Li1_7 3.106473 1_554
Li0_6 Mg2_4 3.118955 1_555
Li0_6 Mg2_2 3.118955 1_555
Li0_7 Mg0_5 3.084941 1_555
Li0_7 Mg0_3 3.084941 1_555
Li0_7 Mg0_7 3.090765 1_555
Li0_7 Mg3_4 3.095625 1_565
Li0_7 Mg3_2 3.095625 1_655
Li0_7 Mg1_5 3.104049 1_565
Li0_7 Mg1_3 3.104049 1_655
Li0_7 Li1_6 3.106473 1_555
Li0_7 Mg2_3 3.118955 1_555
Li0_7 Mg2_5 3.118955 1_555
Li1_0 Mg3_2 3.084941 1_555
Li1_0 Mg3_4 3.084941 1_555
Li1_0 Mg3_0 3.090765 1_555
Li1_0 Mg0_5 3.095625 1_455
Li1_0 Mg0_3 3.095625 1_545
Li1_0 Mg2_2 3.104049 1_545
Li1_0 Mg2_4 3.104049 1_455
Li1_0 Mg1_2 3.118955 1_555
Li1_0 Mg1_4 3.118955 1_555
Li1_0 Li1_6 3.203046 1_455
Li1_0 Li1_6 3.203046 1_545
Li1_1 Mg3_3 3.084941 1_555
Li1_1 Mg3_5 3.084941 1_555
Li1_1 Mg3_1 3.090765 1_555
Li1_1 Mg0_4 3.095625 1_456
Li1_1 Mg0_2 3.095625 1_546
Li1_1 Mg2_3 3.104049 1_545
Li1_1 Mg2_5 3.104049 1_455
Li1_1 Mg1_3 3.118955 1_555
Li1_1 Mg1_5 3.118955 1_555
Li1_1 Li1_7 3.203046 1_455
Li1_1 Li1_7 3.203046 1_545
Li1_2 Mg3_6 3.084941 1_555
Li1_2 Mg3_0 3.084941 1_565
Li1_2 Mg3_2 3.090765 1_555
Li1_2 Mg0_7 3.095625 1_455
Li1_2 Mg0_1 3.095625 1_555
Li1_2 Mg2_0 3.104049 1_555
Li1_2 Mg2_6 3.104049 1_455
Li1_2 Mg1_0 3.118955 1_565
Li1_2 Mg1_6 3.118955 1_555
Li1_2 Li1_4 3.203046 1_465
Li1_2 Li1_4 3.203046 1_555
Li1_3 Mg3_7 3.084941 1_555
Li1_3 Mg3_1 3.084941 1_565
Li1_3 Mg3_3 3.090765 1_555
Li1_3 Mg0_6 3.095625 1_456
Li1_3 Mg0_0 3.095625 1_556
Li1_3 Mg2_1 3.104049 1_555
Li1_3 Mg2_7 3.104049 1_455
Li1_3 Mg1_1 3.118955 1_565
Li1_3 Mg1_7 3.118955 1_555
Li1_3 Li1_5 3.203046 1_465
Li1_3 Li1_5 3.203046 1_555
Li1_4 Mg3_6 3.084941 1_555
Li1_4 Mg3_0 3.084941 1_655
Li1_4 Mg3_4 3.090765 1_555
Li1_4 Mg0_7 3.095625 1_545
Li1_4 Mg0_1 3.095625 1_555
Li1_4 Mg2_0 3.104049 1_555
Li1_4 Mg2_6 3.104049 1_545
Li1_4 Mg1_0 3.118955 1_655
Li1_4 Mg1_6 3.118955 1_555
Li1_5 Mg3_7 3.084941 1_555
Li1_5 Mg3_1 3.084941 1_655
Li1_5 Mg3_5 3.090765 1_555
Li1_5 Mg0_6 3.095625 1_546
Li1_5 Mg0_0 3.095625 1_556
Li1_5 Mg2_1 3.104049 1_555
Li1_5 Mg2_7 3.104049 1_545
Li1_5 Mg1_1 3.118955 1_655
Li1_5 Mg1_7 3.118955 1_555
Li1_6 Mg3_4 3.084941 1_565
Li1_6 Mg3_2 3.084941 1_655
Li1_6 Mg3_6 3.090765 1_555
Li1_6 Mg0_3 3.095625 1_555
Li1_6 Mg0_5 3.095625 1_555
Li1_6 Mg2_4 3.104049 1_555
Li1_6 Mg2_2 3.104049 1_555
Li1_6 Mg1_2 3.118955 1_655
Li1_6 Mg1_4 3.118955 1_565
Li1_7 Mg3_3 3.084941 1_655
Li1_7 Mg3_5 3.084941 1_565
Li1_7 Mg3_7 3.090765 1_555
Li1_7 Mg0_4 3.095625 1_556
Li1_7 Mg0_2 3.095625 1_556
Li1_7 Mg2_5 3.104049 1_555
Li1_7 Mg2_3 3.104049 1_555
Li1_7 Mg1_5 3.118955 1_565
Li1_7 Mg1_3 3.118955 1_655
Mg0_0 Mg2_0 3.114041 1_555
Mg0_0 Mg3_3 3.114804 1_554
Mg0_0 Mg3_5 3.114804 1_554
Mg0_0 Mg1_4 3.142091 1_555
Mg0_0 Mg1_2 3.142091 1_555
Mg0_0 Mg0_6 3.203046 1_455
Mg0_0 Mg0_6 3.203046 1_545
Mg0_1 Mg2_1 3.114041 1_555
Mg0_1 Mg3_2 3.114804 1_555
Mg0_1 Mg3_4 3.114804 1_555
Mg0_1 Mg1_5 3.142091 1_555
Mg0_1 Mg1_3 3.142091 1_555
Mg0_1 Mg0_7 3.203046 1_455
Mg0_1 Mg0_7 3.203046 1_545
Mg0_2 Mg2_2 3.114041 1_555
Mg0_2 Mg3_1 3.114804 1_564
Mg0_2 Mg3_7 3.114804 1_554
Mg0_2 Mg1_6 3.142091 1_555
Mg0_2 Mg1_0 3.142091 1_565
Mg0_2 Mg0_4 3.203046 1_555
Mg0_2 Mg0_4 3.203046 1_465
Mg0_3 Mg2_3 3.114041 1_555
Mg0_3 Mg3_6 3.114804 1_555
Mg0_3 Mg3_0 3.114804 1_565
Mg0_3 Mg1_7 3.142091 1_555
Mg0_3 Mg1_1 3.142091 1_565
Mg0_3 Mg0_5 3.203046 1_555
Mg0_3 Mg0_5 3.203046 1_465
Mg0_4 Mg2_4 3.114041 1_555
Mg0_4 Mg3_1 3.114804 1_654
Mg0_4 Mg3_7 3.114804 1_554
Mg0_4 Mg1_0 3.142091 1_655
Mg0_4 Mg1_6 3.142091 1_555
Mg0_5 Mg2_5 3.114041 1_555
Mg0_5 Mg3_0 3.114804 1_655
Mg0_5 Mg3_6 3.114804 1_555
Mg0_5 Mg1_7 3.142091 1_555
Mg0_5 Mg1_1 3.142091 1_655
Mg0_6 Mg2_6 3.114041 1_555
Mg0_6 Mg3_5 3.114804 1_564
Mg0_6 Mg3_3 3.114804 1_654
Mg0_6 Mg1_2 3.142091 1_655
Mg0_6 Mg1_4 3.142091 1_565
Mg0_7 Mg2_7 3.114041 1_555
Mg0_7 Mg3_4 3.114804 1_565
Mg0_7 Mg3_2 3.114804 1_655
Mg0_7 Mg1_3 3.142091 1_655
Mg0_7 Mg1_5 3.142091 1_565
Mg1_0 Mg2_6 3.057472 1_445
Mg1_0 Mg2_2 3.109900 1_545
Mg1_0 Mg2_4 3.109900 1_455
Mg1_0 Mg3_0 3.114041 1_555
Mg1_0 Mg1_6 3.203046 1_545
Mg1_0 Mg1_6 3.203046 1_455
Mg1_1 Mg2_7 3.057472 1_445
Mg1_1 Mg2_5 3.109900 1_455
Mg1_1 Mg2_3 3.109900 1_545
Mg1_1 Mg3_1 3.114041 1_555
Mg1_1 Mg1_7 3.203046 1_455
Mg1_1 Mg1_7 3.203046 1_545
Mg1_2 Mg2_4 3.057472 1_455
Mg1_2 Mg2_0 3.109900 1_555
Mg1_2 Mg2_6 3.109900 1_455
Mg1_2 Mg3_2 3.114041 1_555
Mg1_2 Mg1_4 3.203046 1_555
Mg1_2 Mg1_4 3.203046 1_465
Mg1_3 Mg2_5 3.057472 1_455
Mg1_3 Mg2_7 3.109900 1_455
Mg1_3 Mg2_1 3.109900 1_555
Mg1_3 Mg3_3 3.114041 1_555
Mg1_3 Mg1_5 3.203046 1_465
Mg1_3 Mg1_5 3.203046 1_555
Mg1_4 Mg2_2 3.057472 1_545
Mg1_4 Mg2_6 3.109900 1_545
Mg1_4 Mg2_0 3.109900 1_555
Mg1_4 Mg3_4 3.114041 1_555
Mg1_5 Mg2_3 3.057472 1_545
Mg1_5 Mg2_7 3.109900 1_545
Mg1_5 Mg2_1 3.109900 1_555
Mg1_5 Mg3_5 3.114041 1_555
Mg1_6 Mg2_0 3.057472 1_555
Mg1_6 Mg2_4 3.109900 1_555
Mg1_6 Mg2_2 3.109900 1_555
Mg1_6 Mg3_6 3.114041 1_555
Mg1_7 Mg2_1 3.057472 1_555
Mg1_7 Mg2_5 3.109900 1_555
Mg1_7 Mg2_3 3.109900 1_555
Mg1_7 Mg3_7 3.114041 1_555
Mg2_0 Mg3_4 3.142091 1_555
Mg2_0 Mg3_2 3.142091 1_555
Mg2_0 Mg2_6 3.203046 1_545
Mg2_0 Mg2_6 3.203046 1_455
Mg2_1 Mg3_5 3.142091 1_555
Mg2_1 Mg3_3 3.142091 1_555
Mg2_1 Mg2_7 3.203046 1_455
Mg2_1 Mg2_7 3.203046 1_545
Mg2_2 Mg3_0 3.142091 1_565
Mg2_2 Mg3_6 3.142091 1_555
Mg2_2 Mg2_4 3.203046 1_555
Mg2_2 Mg2_4 3.203046 1_465
Mg2_3 Mg3_1 3.142091 1_565
Mg2_3 Mg3_7 3.142091 1_555
Mg2_3 Mg2_5 3.203046 1_555
Mg2_3 Mg2_5 3.203046 1_465
Mg2_4 Mg3_0 3.142091 1_655
Mg2_4 Mg3_6 3.142091 1_555
Mg2_5 Mg3_1 3.142091 1_655
Mg2_5 Mg3_7 3.142091 1_555
Mg2_6 Mg3_4 3.142091 1_565
Mg2_6 Mg3_2 3.142091 1_655
Mg2_7 Mg3_5 3.142091 1_565
Mg2_7 Mg3_3 3.142091 1_655
Mg3_0 Mg3_6 3.203046 1_545
Mg3_0 Mg3_6 3.203046 1_455
Mg3_1 Mg3_7 3.203046 1_455
Mg3_1 Mg3_7 3.203046 1_545
Mg3_2 Mg3_4 3.203046 1_465
Mg3_2 Mg3_4 3.203046 1_555
Mg3_3 Mg3_5 3.203046 1_555
Mg3_3 Mg3_5 3.203046 1_465
