# generated using pymatgen
data_Mg6TiNb
_symmetry_space_group_name_H-M   'P 1'
_cell_length_a   4.86348100
_cell_length_b   6.09481600
_cell_length_c   11.22881500
_cell_angle_alpha   90.00000000
_cell_angle_beta   90.00000000
_cell_angle_gamma   90.00000000
_symmetry_Int_Tables_number   1
_chemical_formula_structural   Mg6TiNb
_chemical_formula_sum   'Mg12 Ti2 Nb2'
_cell_volume   332.84477918
_cell_formula_units_Z   2
loop_
 _symmetry_equiv_pos_site_id
 _symmetry_equiv_pos_as_xyz
  1  'x, y, z'
loop_
 _atom_site_type_symbol
 _atom_site_label
 _atom_site_symmetry_multiplicity
 _atom_site_fract_x
 _atom_site_fract_y
 _atom_site_fract_z
 _atom_site_occupancy
  Mg  Mg0  1  0.00000000  0.25797500  0.07470300  1
  Mg  Mg1  1  0.00000000  0.74202500  0.07470300  1
  Mg  Mg2  1  0.00000000  0.00000000  0.32646300  1
  Mg  Mg3  1  0.50000000  0.74335700  0.42650600  1
  Mg  Mg4  1  0.50000000  0.25664300  0.42650600  1
  Mg  Mg5  1  0.50000000  0.00000000  0.17273900  1
  Mg  Mg6  1  0.00000000  0.75797500  0.57470300  1
  Mg  Mg7  1  0.00000000  0.24202500  0.57470300  1
  Mg  Mg8  1  0.00000000  0.50000000  0.82646300  1
  Mg  Mg9  1  0.50000000  0.24335700  0.92650600  1
  Mg  Mg10  1  0.50000000  0.75664300  0.92650600  1
  Mg  Mg11  1  0.50000000  0.50000000  0.67273900  1
  Ti  Ti0  1  0.00000000  0.50000000  0.29915400  1
  Ti  Ti1  1  0.00000000  0.00000000  0.79915400  1
  Nb  Nb0  1  0.50000000  0.50000000  0.19922400  1
  Nb  Nb1  1  0.50000000  0.00000000  0.69922400  1
loop_
_geom_bond_atom_site_label_1
_geom_bond_atom_site_label_2
_geom_bond_distance
_geom_bond_site_symmetry_2
Mg0 Ti0 2.920260 1_555
Mg0 Mg9 2.947957 1_554
Mg0 Mg9 2.947957 1_454
Mg0 Mg1 2.950196 1_555
Mg0 Mg5 3.097958 1_455
Mg0 Mg5 3.097958 1_555
Mg0 Mg1 3.144620 1_545
Mg0 Mg8 3.153687 1_554
Mg0 Nb0 3.169275 1_555
Mg0 Nb0 3.169275 1_455
Mg0 Mg2 3.234795 1_555
Mg0 Ti1 3.470669 1_554
Mg1 Ti0 2.920260 1_555
Mg1 Mg10 2.947957 1_454
Mg1 Mg10 2.947957 1_554
Mg1 Mg5 3.097958 1_465
Mg1 Mg5 3.097958 1_565
Mg1 Mg8 3.153687 1_554
Mg1 Nb0 3.169275 1_455
Mg1 Nb0 3.169275 1_555
Mg1 Mg2 3.234795 1_565
Mg1 Ti1 3.470669 1_564
Mg2 Mg5 2.982099 1_455
Mg2 Mg5 2.982099 1_555
Mg2 Ti0 3.062797 1_545
Mg2 Ti0 3.062797 1_555
Mg2 Mg4 3.101936 1_555
Mg2 Mg4 3.101936 1_455
Mg2 Mg3 3.101936 1_545
Mg2 Mg3 3.101936 1_445
Mg2 Mg6 3.153687 1_545
Mg2 Mg7 3.153687 1_555
Mg3 Mg6 2.947957 1_655
Mg3 Mg6 2.947957 1_555
Mg3 Nb0 2.951810 1_555
Mg3 Mg4 2.966432 1_555
Mg3 Mg4 3.128384 1_565
Mg3 Ti0 3.187197 1_555
Mg3 Ti0 3.187197 1_655
Mg3 Mg5 3.250594 1_565
Mg3 Nb1 3.438659 1_565
Mg4 Mg7 2.947957 1_555
Mg4 Mg7 2.947957 1_655
Mg4 Nb0 2.951810 1_555
Mg4 Ti0 3.187197 1_655
Mg4 Ti0 3.187197 1_555
Mg4 Mg5 3.250594 1_555
Mg4 Nb1 3.438659 1_555
Mg5 Nb0 3.061885 1_555
Mg5 Nb0 3.061885 1_545
Mg5 Mg9 3.137615 1_554
Mg6 Ti1 2.920260 1_565
Mg6 Mg7 2.950196 1_565
Mg6 Mg7 3.144620 1_555
Mg6 Nb1 3.169275 1_565
Mg6 Nb1 3.169275 1_465
Mg6 Mg8 3.234795 1_555
Mg6 Ti0 3.470669 1_555
Mg7 Ti1 2.920260 1_555
Mg7 Nb1 3.169275 1_555
Mg7 Nb1 3.169275 1_455
Mg7 Mg8 3.234795 1_555
Mg7 Ti0 3.470669 1_555
Mg8 Ti1 3.062797 1_565
Mg8 Ti1 3.062797 1_555
Mg8 Mg9 3.101936 1_555
Mg8 Mg9 3.101936 1_455
Mg9 Nb1 2.951810 1_555
Mg9 Ti1 3.187197 1_555
Mg9 Ti1 3.187197 1_655
Mg9 Nb0 3.438659 1_556
Mg10 Nb1 2.951810 1_565
Mg10 Mg9 2.966432 1_565
Mg10 Mg8 3.101936 1_555
Mg10 Mg8 3.101936 1_655
Mg10 Mg9 3.128384 1_555
Mg10 Mg5 3.137615 1_566
Mg10 Ti1 3.187197 1_665
Mg10 Ti1 3.187197 1_565
Mg10 Mg11 3.250594 1_555
Mg10 Nb0 3.438659 1_556
Mg11 Mg8 2.982099 1_555
Mg11 Mg8 2.982099 1_655
Mg11 Nb1 3.061885 1_565
Mg11 Nb1 3.061885 1_555
Mg11 Mg6 3.097958 1_555
Mg11 Mg6 3.097958 1_655
Mg11 Mg7 3.097958 1_555
Mg11 Mg7 3.097958 1_655
Mg11 Mg3 3.137615 1_555
Mg11 Mg4 3.137615 1_555
Mg11 Mg9 3.250594 1_555
Nb0 Ti0 2.678145 1_555
Nb0 Ti0 2.678145 1_655
Nb1 Ti1 2.678145 1_655
Nb1 Ti1 2.678145 1_555
