# generated using pymatgen
data_P3H2CN2Cl11
_symmetry_space_group_name_H-M   'P 1'
_cell_length_a   13.25861700
_cell_length_b   11.05465900
_cell_length_c   13.74877340
_cell_angle_alpha   83.93444795
_cell_angle_beta   90.00000000
_cell_angle_gamma   90.00000000
_symmetry_Int_Tables_number   1
_chemical_formula_structural   P3H2CN2Cl11
_chemical_formula_sum   'P12 H8 C4 N8 Cl44'
_cell_volume   2003.86918963
_cell_formula_units_Z   4
loop_
 _symmetry_equiv_pos_site_id
 _symmetry_equiv_pos_as_xyz
  1  'x, y, z'
loop_
 _atom_site_type_symbol
 _atom_site_label
 _atom_site_symmetry_multiplicity
 _atom_site_fract_x
 _atom_site_fract_y
 _atom_site_fract_z
 _atom_site_occupancy
  P  P0  1  0.81115700  0.06369200  0.92877200  1
  P  P1  1  0.31115700  0.93630800  0.57122800  1
  P  P2  1  0.18884300  0.93630800  0.07122800  1
  P  P3  1  0.68884300  0.06369200  0.42877200  1
  P  P4  1  0.89566000  0.29962200  0.97517000  1
  P  P5  1  0.39566000  0.70037800  0.52483000  1
  P  P6  1  0.10434000  0.70037800  0.02483000  1
  P  P7  1  0.60434000  0.29962200  0.47517000  1
  P  P8  1  0.73720700  0.49447500  0.91596300  1
  P  P9  1  0.23720700  0.50552500  0.58403700  1
  P  P10  1  0.26279300  0.50552500  0.08403700  1
  P  P11  1  0.76279300  0.49447500  0.41596300  1
  H  H0  1  0.95773100  0.05751000  0.63094100  1
  H  H1  1  0.45773100  0.94249000  0.86905900  1
  H  H2  1  0.04226900  0.94249000  0.36905900  1
  H  H3  1  0.54226900  0.05751000  0.13094100  1
  H  H4  1  0.00653900  0.18155500  0.54424900  1
  H  H5  1  0.50653900  0.81844500  0.95575100  1
  H  H6  1  0.99346100  0.81844500  0.45575100  1
  H  H7  1  0.49346100  0.18155500  0.04424900  1
  C  C0  1  0.98018200  0.15367700  0.61881800  1
  C  C1  1  0.48018200  0.84632300  0.88118200  1
  C  C2  1  0.01981800  0.84632300  0.38118200  1
  C  C3  1  0.51981800  0.15367700  0.11881800  1
  N  N0  1  0.88440700  0.17264000  0.93317300  1
  N  N1  1  0.38440700  0.82736000  0.56682700  1
  N  N2  1  0.11559300  0.82736000  0.06682700  1
  N  N3  1  0.61559300  0.17264000  0.43317300  1
  N  N4  1  0.80401600  0.38925400  0.96347200  1
  N  N5  1  0.30401600  0.61074600  0.53652800  1
  N  N6  1  0.19598400  0.61074600  0.03652800  1
  N  N7  1  0.69598400  0.38925400  0.46347200  1
  Cl  Cl0  1  0.93366700  0.79617500  0.65304500  1
  Cl  Cl1  1  0.43366700  0.20382500  0.84695500  1
  Cl  Cl2  1  0.06633300  0.20382500  0.34695500  1
  Cl  Cl3  1  0.56633300  0.79617500  0.15304500  1
  Cl  Cl4  1  0.80200400  0.95730100  0.05526600  1
  Cl  Cl5  1  0.30200400  0.04269900  0.44473400  1
  Cl  Cl6  1  0.19799600  0.04269900  0.94473400  1
  Cl  Cl7  1  0.69799600  0.95730100  0.55526600  1
  Cl  Cl8  1  0.86034000  0.95783800  0.83035300  1
  Cl  Cl9  1  0.36034000  0.04216200  0.66964700  1
  Cl  Cl10  1  0.13966000  0.04216200  0.16964700  1
  Cl  Cl11  1  0.63966000  0.95783800  0.33035300  1
  Cl  Cl12  1  0.66941900  0.11090300  0.89242500  1
  Cl  Cl13  1  0.16941900  0.88909700  0.60757500  1
  Cl  Cl14  1  0.33058100  0.88909700  0.10757500  1
  Cl  Cl15  1  0.83058100  0.11090300  0.39242500  1
  Cl  Cl16  1  0.93320600  0.27299900  0.11702000  1
  Cl  Cl17  1  0.43320600  0.72700100  0.38298000  1
  Cl  Cl18  1  0.06679400  0.72700100  0.88298000  1
  Cl  Cl19  1  0.56679400  0.27299900  0.61702000  1
  Cl  Cl20  1  0.01911200  0.37579700  0.91012400  1
  Cl  Cl21  1  0.51911200  0.62420300  0.58987600  1
  Cl  Cl22  1  0.98088800  0.62420300  0.08987600  1
  Cl  Cl23  1  0.48088800  0.37579700  0.41012400  1
  Cl  Cl24  1  0.69004000  0.60262100  0.01429300  1
  Cl  Cl25  1  0.19004000  0.39737900  0.48570700  1
  Cl  Cl26  1  0.30996000  0.39737900  0.98570700  1
  Cl  Cl27  1  0.80996000  0.60262100  0.51429300  1
  Cl  Cl28  1  0.80607800  0.60120700  0.80941800  1
  Cl  Cl29  1  0.30607800  0.39879300  0.69058200  1
  Cl  Cl30  1  0.19392200  0.39879300  0.19058200  1
  Cl  Cl31  1  0.69392200  0.60120700  0.30941800  1
  Cl  Cl32  1  0.61135100  0.43139900  0.85989000  1
  Cl  Cl33  1  0.11135100  0.56860100  0.64011000  1
  Cl  Cl34  1  0.38864900  0.56860100  0.14011000  1
  Cl  Cl35  1  0.88864900  0.43139900  0.35989000  1
  Cl  Cl36  1  0.87281300  0.24377200  0.64140400  1
  Cl  Cl37  1  0.37281300  0.75622800  0.85859600  1
  Cl  Cl38  1  0.12718700  0.75622800  0.35859600  1
  Cl  Cl39  1  0.62718700  0.24377200  0.14140400  1
  Cl  Cl40  1  0.08025300  0.17675300  0.70075500  1
  Cl  Cl41  1  0.58025300  0.82324700  0.79924500  1
  Cl  Cl42  1  0.91974700  0.82324700  0.29924500  1
  Cl  Cl43  1  0.41974700  0.17675300  0.20075500  1
loop_
_geom_bond_atom_site_label_1
_geom_bond_atom_site_label_2
_geom_bond_distance
_geom_bond_site_symmetry_2
C0 H4 1.096096 1_655
C0 H0 1.099595 1_555
C0 Cl40 1.776314 1_655
C0 Cl36 1.783334 1_555
C1 H5 1.096096 1_555
C1 H1 1.099595 1_555
C1 Cl41 1.776314 1_555
C1 Cl37 1.783334 1_555
C2 H6 1.096096 1_455
C2 H2 1.099595 1_555
C2 Cl42 1.776314 1_455
C2 Cl38 1.783334 1_555
C3 H7 1.096096 1_555
C3 H3 1.099595 1_555
C3 Cl43 1.776314 1_555
C3 Cl39 1.783334 1_555
N0 P0 1.553325 1_555
N0 P4 1.580331 1_555
N1 P1 1.553325 1_555
N1 P5 1.580331 1_555
N2 P2 1.553325 1_555
N2 P6 1.580331 1_555
N3 P3 1.553325 1_555
N3 P7 1.580331 1_555
N4 P8 1.550393 1_555
N4 P4 1.565368 1_555
N5 P9 1.550393 1_555
N5 P5 1.565368 1_555
N6 P10 1.550393 1_555
N6 P6 1.565368 1_555
N7 P11 1.550393 1_555
N7 P7 1.565368 1_555
Cl4 P0 1.997576 1_564
Cl5 P1 1.997576 1_545
Cl6 P2 1.997576 1_546
Cl7 P3 1.997576 1_565
Cl8 P0 1.990018 1_565
Cl9 P1 1.990018 1_545
Cl10 P2 1.990018 1_545
Cl11 P3 1.990018 1_565
Cl12 P0 1.999643 1_555
Cl13 P1 1.999643 1_555
Cl14 P2 1.999643 1_555
Cl15 P3 1.999643 1_555
Cl16 P4 2.004160 1_554
Cl17 P5 2.004160 1_555
Cl18 P6 2.004160 1_556
Cl19 P7 2.004160 1_555
Cl20 P4 2.007203 1_455
Cl21 P5 2.007203 1_555
Cl22 P6 2.007203 1_655
Cl23 P7 2.007203 1_555
Cl24 P8 1.997396 1_554
Cl25 P9 1.997396 1_555
Cl26 P10 1.997396 1_556
Cl27 P11 1.997396 1_555
Cl28 P8 2.001626 1_555
Cl29 P9 2.001626 1_555
Cl30 P10 2.001626 1_555
Cl31 P11 2.001626 1_555
Cl32 P8 1.994650 1_555
Cl33 P9 1.994650 1_555
Cl34 P10 1.994650 1_555
Cl35 P11 1.994650 1_555
