# generated using pymatgen
data_NpGeO2
_symmetry_space_group_name_H-M   'P 1'
_cell_length_a   7.38406569
_cell_length_b   7.38406569
_cell_length_c   7.38406569
_cell_angle_alpha   125.96226568
_cell_angle_beta   125.96226568
_cell_angle_gamma   79.95016797
_symmetry_Int_Tables_number   1
_chemical_formula_structural   NpGeO2
_chemical_formula_sum   'Np4 Ge4 O8'
_cell_volume   254.69103894
_cell_formula_units_Z   4
loop_
 _symmetry_equiv_pos_site_id
 _symmetry_equiv_pos_as_xyz
  1  'x, y, z'
loop_
 _atom_site_type_symbol
 _atom_site_label
 _atom_site_symmetry_multiplicity
 _atom_site_fract_x
 _atom_site_fract_y
 _atom_site_fract_z
 _atom_site_occupancy
  Np  Np0  1  0.87500000  0.62500000  0.25000000  1
  Np  Np1  1  0.37500000  0.62500000  0.75000000  1
  Np  Np2  1  0.37500000  0.62500000  0.25000000  1
  Np  Np3  1  0.37500000  0.12500000  0.75000000  1
  Ge  Ge0  1  0.37500000  0.12500000  0.25000000  1
  Ge  Ge1  1  0.87500000  0.12500000  0.75000000  1
  Ge  Ge2  1  0.87500000  0.12500000  0.25000000  1
  Ge  Ge3  1  0.87500000  0.62500000  0.75000000  1
  O  O0  1  0.17286900  0.44264600  0.26977800  1
  O  O1  1  0.17286900  0.90309100  0.73022200  1
  O  O2  1  0.19264600  0.42286900  0.76977800  1
  O  O3  1  0.57713100  0.80735400  0.23022200  1
  O  O4  1  0.65309100  0.42286900  0.23022200  1
  O  O5  1  0.57713100  0.34690900  0.76977800  1
  O  O6  1  0.55735400  0.82713100  0.73022200  1
  O  O7  1  0.09690900  0.82713100  0.26977800  1
loop_
_geom_bond_atom_site_label_1
_geom_bond_atom_site_label_2
_geom_bond_distance
_geom_bond_site_symmetry_2
Np0 O4 2.291396 1_555
Np0 O7 2.291396 1_655
Np0 O1 2.343544 1_655
Np0 O5 2.343544 1_554
Np0 O3 2.343547 1_555
Np0 O0 2.343547 1_655
Np1 O2 2.291402 1_555
Np1 O6 2.291402 1_555
Np1 O3 2.343542 1_556
Np1 O0 2.343542 1_555
Np1 O1 2.343544 1_555
Np1 O5 2.343544 1_555
Np2 O0 2.291402 1_555
Np2 O3 2.291402 1_555
Np2 O6 2.343542 1_555
Np2 O2 2.343542 1_554
Np2 O7 2.343544 1_555
Np2 O4 2.343544 1_555
Np3 O5 2.291396 1_555
Np3 O1 2.291396 1_545
Np3 O4 2.343544 1_556
Np3 O7 2.343544 1_545
Np3 O6 2.343547 1_545
Np3 O2 2.343547 1_555
Ge0 O3 2.526335 1_545
Ge0 O0 2.526335 1_555
Ge0 O5 2.526341 1_555
Ge0 O1 2.526341 1_544
Ge1 O0 2.526340 1_656
Ge1 O3 2.526340 1_545
Ge1 O5 2.526341 1_555
Ge1 O1 2.526341 1_645
Ge2 O2 2.526340 1_655
Ge2 O6 2.526340 1_544
Ge2 O7 2.526341 1_645
Ge2 O4 2.526341 1_555
Ge3 O2 2.526335 1_655
Ge3 O6 2.526335 1_555
Ge3 O7 2.526341 1_656
Ge3 O4 2.526341 1_555
