# generated using pymatgen
data_Ba8Cu4Hg4O17
_symmetry_space_group_name_H-M   'P 1'
_cell_length_a   8.66641551
_cell_length_b   8.66641551
_cell_length_c   10.42436441
_cell_angle_alpha   70.58611710
_cell_angle_beta   70.58611710
_cell_angle_gamma   53.11347422
_symmetry_Int_Tables_number   1
_chemical_formula_structural   Ba8Cu4Hg4O17
_chemical_formula_sum   'Ba8 Cu4 Hg4 O17'
_cell_volume   581.37533990
_cell_formula_units_Z   1
loop_
 _symmetry_equiv_pos_site_id
 _symmetry_equiv_pos_as_xyz
  1  'x, y, z'
loop_
 _atom_site_type_symbol
 _atom_site_label
 _atom_site_symmetry_multiplicity
 _atom_site_fract_x
 _atom_site_fract_y
 _atom_site_fract_z
 _atom_site_occupancy
  Ba  Ba0  1  0.57330300  0.57330300  0.20643400  1
  Ba  Ba1  1  0.06981800  0.06981800  0.22092000  1
  Ba  Ba2  1  0.32298700  0.32298700  0.20838500  1
  Ba  Ba3  1  0.82315000  0.82315000  0.20700000  1
  Ba  Ba4  1  0.67701300  0.67701300  0.79161500  1
  Ba  Ba5  1  0.17685000  0.17685000  0.79300000  1
  Ba  Ba6  1  0.42669700  0.42669700  0.79356600  1
  Ba  Ba7  1  0.93018200  0.93018200  0.77908000  1
  Cu  Cu0  1  0.24812900  0.75187100  0.00000000  1
  Cu  Cu1  1  0.75187100  0.24812900  0.00000000  1
  Cu  Cu2  1  0.00000000  0.50000000  0.00000000  1
  Cu  Cu3  1  0.50000000  0.00000000  0.00000000  1
  Hg  Hg0  1  0.36380300  0.87873200  0.50000300  1
  Hg  Hg1  1  0.87873200  0.36380300  0.50000300  1
  Hg  Hg2  1  0.12126800  0.63619700  0.49999700  1
  Hg  Hg3  1  0.63619700  0.12126800  0.49999700  1
  O  O0  1  0.18032200  0.67174800  0.28863900  1
  O  O1  1  0.67174800  0.18032200  0.28863900  1
  O  O2  1  0.92525800  0.43401600  0.28864800  1
  O  O3  1  0.43401600  0.92525800  0.28864800  1
  O  O4  1  0.32825200  0.81967800  0.71136100  1
  O  O5  1  0.81967800  0.32825200  0.71136100  1
  O  O6  1  0.07474200  0.56598400  0.71135200  1
  O  O7  1  0.56598400  0.07474200  0.71135200  1
  O  O8  1  0.37758100  0.87282400  0.99934000  1
  O  O9  1  0.87282400  0.37758100  0.99934000  1
  O  O10  1  0.12717600  0.62241900  0.00066000  1
  O  O11  1  0.62241900  0.12717600  0.00066000  1
  O  O12  1  0.50000000  0.50000000  0.00000000  1
  O  O13  1  0.00000000  0.00000000  0.00000000  1
  O  O14  1  0.25095800  0.25095800  0.99911200  1
  O  O15  1  0.74904200  0.74904200  0.00088800  1
  O  O16  1  0.00000000  0.00000000  0.50000000  1
loop_
_geom_bond_atom_site_label_1
_geom_bond_atom_site_label_2
_geom_bond_distance
_geom_bond_site_symmetry_2
Ba0 O15 2.770577 1_555
Ba0 O8 2.774719 1_554
Ba0 O9 2.774719 1_554
Ba0 O12 2.782101 1_555
Ba0 O0 2.849387 1_555
Ba0 O1 2.849387 1_555
Ba0 O3 2.850492 1_555
Ba0 O2 2.850492 1_555
Ba1 O16 2.700915 1_555
Ba1 O2 2.859483 1_455
Ba1 O3 2.859483 1_545
Ba1 O1 2.860282 1_455
Ba1 O0 2.860282 1_545
Ba1 O13 2.885825 1_555
Ba1 O14 2.899561 1_554
Ba1 O9 2.902329 1_454
Ba1 O8 2.902329 1_544
Ba2 O10 2.779133 1_555
Ba2 O11 2.779133 1_555
Ba2 O14 2.795854 1_554
Ba2 O12 2.796428 1_555
Ba2 O1 2.805587 1_555
Ba2 O0 2.805587 1_555
Ba2 O2 2.853662 1_455
Ba2 O3 2.853662 1_545
Ba3 O15 2.787700 1_555
Ba3 O13 2.788750 1_665
Ba3 O10 2.795120 1_655
Ba3 O11 2.795120 1_565
Ba3 O3 2.809019 1_555
Ba3 O2 2.809019 1_555
Ba3 O0 2.856676 1_655
Ba3 O1 2.856676 1_565
Ba4 O8 2.779133 1_555
Ba4 O9 2.779133 1_555
Ba4 O15 2.795854 1_556
Ba4 O12 2.796428 1_556
Ba4 O5 2.805587 1_555
Ba4 O4 2.805587 1_555
Ba4 O6 2.853662 1_655
Ba4 O7 2.853662 1_565
Ba5 O14 2.787700 1_555
Ba5 O13 2.788750 1_556
Ba5 O9 2.795120 1_455
Ba5 O8 2.795120 1_545
Ba5 O6 2.809019 1_555
Ba5 O7 2.809019 1_555
Ba5 O4 2.856676 1_545
Ba5 O5 2.856676 1_455
Ba6 O14 2.770577 1_555
Ba6 O10 2.774719 1_556
Ba6 O11 2.774719 1_556
Ba6 O12 2.782101 1_556
Ba6 O4 2.849387 1_555
Ba6 O5 2.849387 1_555
Ba6 O6 2.850492 1_555
Ba6 O7 2.850492 1_555
Ba7 O16 2.700915 1_665
Ba7 O6 2.859483 1_655
Ba7 O7 2.859483 1_565
Ba7 O4 2.860282 1_655
Ba7 O5 2.860282 1_565
Ba7 O13 2.885825 1_666
Ba7 O15 2.899561 1_556
Ba7 O10 2.902329 1_656
Ba7 O11 2.902329 1_566
Cu0 O13 1.922808 1_565
Cu0 O10 1.938883 1_555
Cu0 O8 1.938883 1_554
Cu0 O12 1.951806 1_555
Cu1 O13 1.922808 1_655
Cu1 O11 1.938883 1_555
Cu1 O9 1.938883 1_554
Cu1 O12 1.951806 1_555
Cu2 O14 1.937360 1_554
Cu2 O15 1.937360 1_455
Cu2 O9 1.937525 1_454
Cu2 O10 1.937525 1_555
Cu3 O14 1.937360 1_554
Cu3 O15 1.937360 1_545
Cu3 O8 1.937525 1_544
Cu3 O11 1.937525 1_555
Hg0 O4 2.049310 1_555
Hg0 O3 2.049351 1_555
Hg0 O16 2.658450 1_565
Hg1 O5 2.049310 1_555
Hg1 O2 2.049351 1_555
Hg1 O16 2.658450 1_655
Hg2 O0 2.049310 1_555
Hg2 O6 2.049351 1_555
Hg2 O16 2.658450 1_565
Hg3 O1 2.049310 1_555
Hg3 O7 2.049351 1_555
Hg3 O16 2.658450 1_655
