# generated using pymatgen
data_Sr7Cu44As23
_symmetry_space_group_name_H-M   'P 1'
_cell_length_a   11.86423355
_cell_length_b   11.86423355
_cell_length_c   11.86423355
_cell_angle_alpha   60.00000000
_cell_angle_beta   60.00000000
_cell_angle_gamma   60.00000000
_symmetry_Int_Tables_number   1
_chemical_formula_structural   Sr7Cu44As23
_chemical_formula_sum   'Sr7 Cu44 As23'
_cell_volume   1180.87537022
_cell_formula_units_Z   1
loop_
 _symmetry_equiv_pos_site_id
 _symmetry_equiv_pos_as_xyz
  1  'x, y, z'
loop_
 _atom_site_type_symbol
 _atom_site_label
 _atom_site_symmetry_multiplicity
 _atom_site_fract_x
 _atom_site_fract_y
 _atom_site_fract_z
 _atom_site_occupancy
  Sr  Sr0  1  0.75614100  0.75614100  0.24385900  1
  Sr  Sr1  1  0.24385900  0.75614100  0.24385900  1
  Sr  Sr2  1  0.75614100  0.24385900  0.24385900  1
  Sr  Sr3  1  0.24385900  0.24385900  0.75614100  1
  Sr  Sr4  1  0.75614100  0.24385900  0.75614100  1
  Sr  Sr5  1  0.24385900  0.75614100  0.75614100  1
  Sr  Sr6  1  0.00000000  0.00000000  0.00000000  1
  Cu  Cu0  1  0.74556100  0.98063000  0.52824900  1
  Cu  Cu1  1  0.74556100  0.74556100  0.52824900  1
  Cu  Cu2  1  0.98063000  0.74556100  0.52824900  1
  Cu  Cu3  1  0.74556100  0.52824900  0.98063000  1
  Cu  Cu4  1  0.98063000  0.52824900  0.74556000  1
  Cu  Cu5  1  0.74556100  0.52824900  0.74556000  1
  Cu  Cu6  1  0.52824900  0.74556100  0.74556000  1
  Cu  Cu7  1  0.52824900  0.98063000  0.74556000  1
  Cu  Cu8  1  0.52824900  0.74556100  0.98063000  1
  Cu  Cu9  1  0.98063000  0.74556100  0.74556000  1
  Cu  Cu10  1  0.74556100  0.74556100  0.98063000  1
  Cu  Cu11  1  0.74556100  0.98063000  0.74556000  1
  Cu  Cu12  1  0.25444000  0.01937000  0.47175100  1
  Cu  Cu13  1  0.25443900  0.25444000  0.47175100  1
  Cu  Cu14  1  0.01937000  0.25444000  0.47175100  1
  Cu  Cu15  1  0.25444000  0.47175100  0.01937000  1
  Cu  Cu16  1  0.01937000  0.47175100  0.25443900  1
  Cu  Cu17  1  0.25444000  0.47175100  0.25443900  1
  Cu  Cu18  1  0.47175100  0.25444000  0.25443900  1
  Cu  Cu19  1  0.47175100  0.01937000  0.25443900  1
  Cu  Cu20  1  0.47175100  0.25444000  0.01937000  1
  Cu  Cu21  1  0.01937000  0.25444000  0.25443900  1
  Cu  Cu22  1  0.25444000  0.25444000  0.01937000  1
  Cu  Cu23  1  0.25444000  0.01937000  0.25443900  1
  Cu  Cu24  1  0.00000000  0.00000000  0.36421700  1
  Cu  Cu25  1  0.63578300  0.00000000  0.36421700  1
  Cu  Cu26  1  0.00000000  0.63578300  0.36421700  1
  Cu  Cu27  1  0.63578300  0.36421700  0.00000000  1
  Cu  Cu28  1  0.00000000  0.36421700  0.00000000  1
  Cu  Cu29  1  0.00000000  0.36421700  0.63578300  1
  Cu  Cu30  1  0.36421700  0.63578300  0.00000000  1
  Cu  Cu31  1  0.36421700  0.00000000  0.63578300  1
  Cu  Cu32  1  0.36421700  0.00000000  0.00000000  1
  Cu  Cu33  1  0.00000000  0.00000000  0.63578300  1
  Cu  Cu34  1  0.00000000  0.63578300  0.00000000  1
  Cu  Cu35  1  0.63578300  0.00000000  0.00000000  1
  Cu  Cu36  1  0.58797000  0.58797000  0.23609100  1
  Cu  Cu37  1  0.58797000  0.23609100  0.58797000  1
  Cu  Cu38  1  0.23609100  0.58797000  0.58797000  1
  Cu  Cu39  1  0.58797000  0.58797000  0.58797000  1
  Cu  Cu40  1  0.41203000  0.41203000  0.76390900  1
  Cu  Cu41  1  0.41203000  0.76390900  0.41203000  1
  Cu  Cu42  1  0.76390900  0.41203000  0.41203000  1
  Cu  Cu43  1  0.41203000  0.41203000  0.41203000  1
  As  As0  1  0.50000000  0.50000000  0.84393800  1
  As  As1  1  0.15606200  0.50000000  0.84393800  1
  As  As2  1  0.50000000  0.15606200  0.84393800  1
  As  As3  1  0.15606200  0.84393800  0.50000000  1
  As  As4  1  0.50000000  0.84393800  0.50000000  1
  As  As5  1  0.50000000  0.84393800  0.15606200  1
  As  As6  1  0.84393800  0.15606200  0.50000000  1
  As  As7  1  0.84393800  0.50000000  0.15606200  1
  As  As8  1  0.84393800  0.50000000  0.50000000  1
  As  As9  1  0.50000000  0.50000000  0.15606200  1
  As  As10  1  0.50000000  0.15606200  0.50000000  1
  As  As11  1  0.15606200  0.50000000  0.50000000  1
  As  As12  1  0.88935100  0.88935100  0.33194600  1
  As  As13  1  0.88935100  0.33194600  0.88935100  1
  As  As14  1  0.33194600  0.88935100  0.88935100  1
  As  As15  1  0.88935100  0.88935100  0.88935100  1
  As  As16  1  0.11064900  0.11064900  0.66805400  1
  As  As17  1  0.11064900  0.66805400  0.11064900  1
  As  As18  1  0.66805400  0.11064900  0.11064900  1
  As  As19  1  0.11064900  0.11064900  0.11064900  1
  As  As20  1  0.75000000  0.75000000  0.75000000  1
  As  As21  1  0.25000000  0.25000000  0.25000000  1
  As  As22  1  0.50000000  0.50000000  0.50000000  1
loop_
_geom_bond_atom_site_label_1
_geom_bond_atom_site_label_2
_geom_bond_distance
_geom_bond_site_symmetry_2
Cu0 Cu11 2.578228 1_555
Cu0 Cu7 2.578234 1_555
Cu0 Cu24 2.706396 1_665
Cu0 Cu25 2.706406 1_565
Cu0 Cu2 2.788914 1_555
Cu0 Cu1 2.788914 1_555
Cu0 Cu37 2.887872 1_565
Cu0 Sr2 3.253387 1_565
Cu1 Cu5 2.578234 1_555
Cu1 Cu6 2.578234 1_555
Cu1 Cu26 2.706400 1_655
Cu1 Cu25 2.706400 1_565
Cu1 Cu2 2.788914 1_555
Cu1 Cu39 2.887872 1_555
Cu1 Sr0 3.253392 1_555
Cu2 Cu9 2.578228 1_555
Cu2 Cu4 2.578234 1_555
Cu2 Cu24 2.706396 1_665
Cu2 Cu26 2.706406 1_655
Cu2 Cu38 2.887872 1_655
Cu2 Sr1 3.253387 1_655
Cu3 Cu8 2.578240 1_555
Cu3 Cu4 2.788919 1_555
Cu3 Cu5 2.788925 1_555
Cu3 Cu36 2.887872 1_556
Cu3 Sr2 3.253387 1_556
Cu4 Cu9 2.578240 1_555
Cu4 Cu5 2.788914 1_555
Cu4 Sr3 3.253387 1_655
Cu5 Cu6 2.578240 1_555
Cu5 Sr4 3.253387 1_555
Cu6 Cu7 2.788914 1_555
Cu6 Cu8 2.788925 1_555
Cu6 Sr5 3.253387 1_555
Cu7 Cu8 2.788919 1_555
Cu7 Sr3 3.253387 1_565
Cu8 Sr1 3.253387 1_556
Cu9 Sr5 3.253387 1_655
Cu10 Cu3 2.578240 1_555
Cu10 Cu8 2.578240 1_555
Cu10 Cu35 2.706395 1_566
Cu10 Cu34 2.706395 1_656
Cu10 Cu11 2.788919 1_555
Cu10 Cu9 2.788919 1_555
Cu10 Cu36 2.887872 1_556
Cu10 Sr0 3.253381 1_556
Cu11 Cu7 2.578240 1_555
Cu11 Cu33 2.706396 1_665
Cu11 Cu35 2.706406 1_566
Cu11 Cu9 2.788914 1_555
Cu11 Cu37 2.887867 1_565
Cu11 Sr4 3.253387 1_565
Cu12 Cu19 2.578234 1_555
Cu12 Cu23 2.578240 1_555
Cu12 Cu31 2.706396 1_555
Cu12 Cu33 2.706406 1_555
Cu12 Cu13 2.788919 1_555
Cu12 Cu14 2.788925 1_555
Cu12 Cu41 2.887872 1_545
Cu12 Sr5 3.253387 1_545
Cu13 Cu17 2.578234 1_555
Cu13 Cu18 2.578240 1_555
Cu13 Cu29 2.706396 1_555
Cu13 Cu31 2.706406 1_555
Cu13 Cu14 2.788914 1_555
Cu13 Cu43 2.887862 1_555
Cu13 Sr3 3.253387 1_555
Cu14 Cu16 2.578234 1_555
Cu14 Cu21 2.578240 1_555
Cu14 Cu29 2.706396 1_555
Cu14 Cu33 2.706406 1_555
Cu14 Cu42 2.887872 1_455
Cu14 Sr4 3.253387 1_455
Cu15 Cu20 2.578228 1_555
Cu15 Cu22 2.578228 1_555
Cu15 Cu30 2.706396 1_555
Cu15 Cu34 2.706406 1_555
Cu15 Cu17 2.788914 1_555
Cu15 Cu16 2.788919 1_555
Cu15 Cu40 2.887872 1_554
Cu15 Sr5 3.253387 1_554
Cu16 Cu21 2.578228 1_555
Cu16 Cu34 2.706396 1_555
Cu16 Cu26 2.706406 1_555
Cu16 Cu17 2.788925 1_555
Cu16 Cu42 2.887872 1_455
Cu16 Sr0 3.253387 1_455
Cu17 Cu18 2.578228 1_555
Cu17 Cu30 2.706396 1_555
Cu17 Cu26 2.706406 1_555
Cu17 Cu43 2.887862 1_555
Cu17 Sr1 3.253387 1_555
Cu18 Cu27 2.706396 1_555
Cu18 Cu25 2.706406 1_555
Cu18 Cu20 2.788914 1_555
Cu18 Cu19 2.788925 1_555
Cu18 Cu43 2.887862 1_555
Cu18 Sr2 3.253387 1_555
Cu19 Cu23 2.578228 1_555
Cu19 Cu35 2.706396 1_555
Cu19 Cu25 2.706406 1_555
Cu19 Cu20 2.788919 1_555
Cu19 Cu41 2.887872 1_545
Cu19 Sr0 3.253387 1_545
Cu20 Cu22 2.578228 1_555
Cu20 Cu27 2.706396 1_555
Cu20 Cu35 2.706406 1_555
Cu20 Cu40 2.887872 1_554
Cu20 Sr4 3.253387 1_554
Cu21 Cu28 2.706396 1_555
Cu21 Cu24 2.706406 1_555
Cu21 Cu22 2.788919 1_555
Cu21 Cu23 2.788925 1_555
Cu21 Cu42 2.887867 1_455
Cu21 Sr2 3.253387 1_455
Cu22 Cu28 2.706407 1_555
Cu22 Cu32 2.706407 1_555
Cu22 Cu23 2.788919 1_555
Cu22 Cu40 2.887861 1_554
Cu22 Sr3 3.253393 1_554
Cu23 Cu32 2.706396 1_555
Cu23 Cu24 2.706406 1_555
Cu23 Cu41 2.887867 1_545
Cu23 Sr1 3.253387 1_545
Cu24 Sr2 3.226401 1_455
Cu24 Sr1 3.226401 1_545
Cu25 Sr2 3.226401 1_555
Cu25 Sr0 3.226401 1_545
Cu26 Sr1 3.226401 1_555
Cu26 Sr0 3.226401 1_455
Cu27 Cu3 2.706406 1_554
Cu27 Cu5 2.706406 1_554
Cu27 Sr2 3.226401 1_555
Cu27 Sr4 3.226401 1_554
Cu28 Cu3 2.706396 1_454
Cu28 Cu4 2.706406 1_454
Cu28 Sr2 3.226401 1_455
Cu28 Sr3 3.226401 1_554
Cu29 Cu4 2.706396 1_455
Cu29 Cu5 2.706396 1_455
Cu29 Sr3 3.226401 1_555
Cu29 Sr4 3.226401 1_455
Cu30 Cu6 2.706406 1_554
Cu30 Cu8 2.706406 1_554
Cu30 Sr1 3.226401 1_555
Cu30 Sr5 3.226401 1_554
Cu31 Cu7 2.706396 1_545
Cu31 Cu6 2.706396 1_545
Cu31 Sr3 3.226401 1_555
Cu31 Sr5 3.226401 1_545
Cu32 Cu8 2.706396 1_544
Cu32 Cu7 2.706406 1_544
Cu32 Sr1 3.226401 1_545
Cu32 Sr3 3.226401 1_554
Cu33 Cu9 2.706396 1_445
Cu33 Sr4 3.226401 1_455
Cu33 Sr5 3.226401 1_545
Cu34 Cu9 2.706406 1_454
Cu34 Sr5 3.226401 1_554
Cu34 Sr0 3.226401 1_455
Cu35 Sr0 3.226401 1_545
Cu35 Sr4 3.226401 1_554
Cu36 Cu8 2.887872 1_554
Cu36 Sr0 3.509839 1_555
Cu36 Sr2 3.509849 1_555
Cu36 Sr1 3.509849 1_555
Cu37 Cu7 2.887872 1_545
Cu37 Sr4 3.509839 1_555
Cu37 Sr3 3.509849 1_555
Cu37 Sr2 3.509849 1_555
Cu38 Cu9 2.887867 1_455
Cu38 Cu4 2.887872 1_455
Cu38 Sr5 3.509839 1_555
Cu38 Sr1 3.509849 1_555
Cu38 Sr3 3.509849 1_555
Cu39 Cu5 2.887862 1_555
Cu39 Cu6 2.887862 1_555
Cu39 Sr5 3.509846 1_555
Cu39 Sr4 3.509846 1_555
Cu39 Sr0 3.509846 1_555
Cu40 Sr3 3.509839 1_555
Cu40 Sr4 3.509849 1_555
Cu40 Sr5 3.509849 1_555
Cu41 Sr1 3.509839 1_555
Cu41 Sr5 3.509849 1_555
Cu41 Sr0 3.509849 1_555
Cu42 Sr2 3.509839 1_555
Cu42 Sr4 3.509849 1_555
Cu42 Sr0 3.509849 1_555
Cu43 Sr1 3.509846 1_555
Cu43 Sr2 3.509846 1_555
Cu43 Sr3 3.509846 1_555
As0 Cu27 2.454273 1_556
As0 Cu30 2.454273 1_556
As0 Cu39 2.480186 1_555
As0 Cu40 2.480195 1_555
As0 Cu20 2.673433 1_556
As0 Cu15 2.673433 1_556
As0 Cu6 2.673442 1_555
As0 Cu5 2.673442 1_555
As0 Sr5 3.212481 1_555
As0 Sr4 3.212481 1_555
As1 Cu28 2.454273 1_556
As1 Cu34 2.454273 1_556
As1 Cu40 2.480186 1_555
As1 Cu38 2.480186 1_555
As1 Cu22 2.673436 1_556
As1 Cu15 2.673442 1_556
As1 Cu4 2.673442 1_455
As1 Cu9 2.673442 1_455
As1 Sr5 3.212481 1_555
As1 Sr3 3.212481 1_555
As2 Cu32 2.454273 1_556
As2 Cu35 2.454273 1_556
As2 Cu37 2.480186 1_555
As2 Cu40 2.480186 1_555
As2 Cu22 2.673436 1_556
As2 Cu20 2.673442 1_556
As2 Cu7 2.673442 1_545
As2 Cu11 2.673442 1_545
As2 Sr4 3.212481 1_555
As2 Sr3 3.212481 1_555
As3 Cu24 2.454273 1_565
As3 Cu33 2.454273 1_565
As3 Cu41 2.480186 1_555
As3 Cu38 2.480186 1_555
As3 Cu9 2.673433 1_455
As3 Cu2 2.673433 1_455
As3 Cu12 2.673442 1_565
As3 Cu23 2.673442 1_565
As3 Sr5 3.212481 1_555
As3 Sr1 3.212481 1_555
As4 Cu31 2.454273 1_565
As4 Cu25 2.454273 1_565
As4 Cu39 2.480186 1_555
As4 Cu41 2.480195 1_555
As4 Cu6 2.673433 1_555
As4 Cu12 2.673433 1_565
As4 Cu19 2.673442 1_565
As4 Cu1 2.673444 1_555
As4 Sr5 3.212481 1_555
As4 Sr0 3.212481 1_555
As5 Cu35 2.454273 1_565
As5 Cu32 2.454273 1_565
As5 Cu41 2.480186 1_555
As5 Cu36 2.480186 1_555
As5 Cu19 2.673433 1_565
As5 Cu23 2.673433 1_565
As5 Cu8 2.673433 1_554
As5 Cu10 2.673438 1_554
As5 Sr0 3.212481 1_555
As5 Sr1 3.212481 1_555
As6 Cu24 2.454273 1_655
As6 Cu33 2.454273 1_655
As6 Cu37 2.480186 1_555
As6 Cu42 2.480186 1_555
As6 Cu0 2.673433 1_545
As6 Cu11 2.673433 1_545
As6 Cu14 2.673442 1_655
As6 Cu21 2.673442 1_655
As6 Sr4 3.212481 1_555
As6 Sr2 3.212481 1_555
As7 Cu28 2.454273 1_655
As7 Cu34 2.454273 1_655
As7 Cu42 2.480186 1_555
As7 Cu36 2.480186 1_555
As7 Cu16 2.673433 1_655
As7 Cu3 2.673433 1_554
As7 Cu21 2.673433 1_655
As7 Cu10 2.673438 1_554
As7 Sr0 3.212481 1_555
As7 Sr2 3.212481 1_555
As8 Cu29 2.454273 1_655
As8 Cu26 2.454273 1_655
As8 Cu39 2.480186 1_555
As8 Cu42 2.480195 1_555
As8 Cu5 2.673433 1_555
As8 Cu14 2.673433 1_655
As8 Cu16 2.673442 1_655
As8 Cu1 2.673444 1_555
As8 Sr0 3.212481 1_555
As8 Sr4 3.212481 1_555
As9 Cu30 2.454273 1_555
As9 Cu27 2.454273 1_555
As9 Cu43 2.480186 1_555
As9 Cu36 2.480195 1_555
As9 Cu18 2.673433 1_555
As9 Cu17 2.673433 1_555
As9 Cu8 2.673442 1_554
As9 Cu3 2.673442 1_554
As9 Sr2 3.212481 1_555
As9 Sr1 3.212481 1_555
As10 Cu31 2.454273 1_555
As10 Cu25 2.454273 1_555
As10 Cu43 2.480186 1_555
As10 Cu37 2.480195 1_555
As10 Cu7 2.673433 1_545
As10 Cu13 2.673442 1_555
As10 Cu18 2.673442 1_555
As10 Cu0 2.673442 1_545
As10 Sr2 3.212481 1_555
As10 Sr3 3.212481 1_555
As11 Cu26 2.454273 1_555
As11 Cu29 2.454273 1_555
As11 Cu43 2.480186 1_555
As11 Cu38 2.480195 1_555
As11 Cu13 2.673433 1_555
As11 Cu4 2.673433 1_455
As11 Cu17 2.673442 1_555
As11 Cu2 2.673442 1_455
As11 Sr3 3.212481 1_555
As11 Sr1 3.212481 1_555
As12 Cu1 2.491736 1_555
As12 Cu0 2.491749 1_555
As12 Cu2 2.491749 1_555
As12 Cu25 2.514327 1_565
As12 Cu26 2.514327 1_655
As12 Cu24 2.514337 1_665
As12 Sr6 3.215596 1_665
As12 Sr0 3.448028 1_555
As12 Sr1 3.448038 1_655
As12 Sr2 3.448038 1_565
As13 Cu5 2.491743 1_555
As13 Cu4 2.491749 1_555
As13 Cu3 2.491749 1_555
As13 Cu27 2.514327 1_556
As13 Cu29 2.514327 1_655
As13 Cu28 2.514337 1_656
As13 Sr6 3.215596 1_656
As13 Sr4 3.448028 1_555
As13 Sr3 3.448038 1_655
As13 Sr2 3.448038 1_556
As14 Cu6 2.491743 1_555
As14 Cu7 2.491749 1_555
As14 Cu8 2.491749 1_555
As14 Cu30 2.514327 1_556
As14 Cu31 2.514327 1_565
As14 Cu32 2.514337 1_566
As14 Sr6 3.215596 1_566
As14 Sr5 3.448028 1_555
As14 Sr3 3.448038 1_565
As14 Sr1 3.448038 1_556
As15 Cu10 2.491730 1_555
As15 Cu9 2.491740 1_555
As15 Cu11 2.491740 1_555
As15 Cu35 2.514329 1_566
As15 Cu33 2.514329 1_665
As15 Cu34 2.514329 1_656
As15 Sr6 3.215606 1_666
As15 Sr5 3.448037 1_655
As15 Sr0 3.448037 1_556
As15 Sr4 3.448037 1_565
As16 Cu13 2.491743 1_555
As16 Cu12 2.491749 1_555
As16 Cu14 2.491749 1_555
As16 Cu31 2.514327 1_555
As16 Cu29 2.514327 1_555
As16 Cu33 2.514337 1_555
As16 Sr6 3.215596 1_556
As16 Sr3 3.448028 1_555
As16 Sr4 3.448038 1_455
As16 Sr5 3.448038 1_545
As17 Cu17 2.491743 1_555
As17 Cu15 2.491749 1_555
As17 Cu16 2.491749 1_555
As17 Cu26 2.514327 1_555
As17 Cu30 2.514327 1_555
As17 Cu34 2.514337 1_555
As17 Sr6 3.215596 1_565
As17 Sr1 3.448028 1_555
As17 Sr5 3.448038 1_554
As17 Sr0 3.448038 1_455
As18 Cu18 2.491743 1_555
As18 Cu20 2.491749 1_555
As18 Cu19 2.491749 1_555
As18 Cu25 2.514327 1_555
As18 Cu27 2.514327 1_555
As18 Cu35 2.514337 1_555
As18 Sr6 3.215596 1_655
As18 Sr2 3.448028 1_555
As18 Sr4 3.448038 1_554
As18 Sr0 3.448038 1_545
As19 Cu21 2.491740 1_555
As19 Cu23 2.491740 1_555
As19 Cu22 2.491749 1_555
As19 Cu24 2.514329 1_555
As19 Cu28 2.514329 1_555
As19 Cu32 2.514329 1_555
As19 Sr6 3.215606 1_555
As19 Sr2 3.448037 1_455
As19 Sr3 3.448037 1_554
As19 Sr1 3.448037 1_545
As20 Cu1 2.684604 1_555
As20 Cu4 2.684611 1_555
As20 Cu3 2.684611 1_555
As20 Cu6 2.684611 1_555
As20 Cu7 2.684611 1_555
As20 Cu5 2.684611 1_555
As20 Cu0 2.684611 1_555
As20 Cu9 2.684611 1_555
As20 Cu11 2.684611 1_555
As20 Cu8 2.684611 1_555
As20 Cu2 2.684611 1_555
As20 Cu10 2.684616 1_555
As21 Cu22 2.684605 1_555
As21 Cu15 2.684611 1_555
As21 Cu19 2.684611 1_555
As21 Cu16 2.684611 1_555
As21 Cu21 2.684611 1_555
As21 Cu23 2.684611 1_555
As21 Cu13 2.684611 1_555
As21 Cu20 2.684611 1_555
As21 Cu14 2.684611 1_555
As21 Cu18 2.684611 1_555
As21 Cu17 2.684611 1_555
As21 Cu12 2.684611 1_555
As22 Cu40 2.556514 1_555
As22 Cu41 2.556514 1_555
As22 Cu42 2.556514 1_555
As22 Cu38 2.556514 1_555
As22 Cu36 2.556514 1_555
As22 Cu37 2.556514 1_555
As22 Cu39 2.556524 1_555
As22 Cu43 2.556524 1_555
