# generated using pymatgen
data_Sm6Mg(Sb5O12)2
_symmetry_space_group_name_H-M   'P 1'
_cell_length_a   9.66120823
_cell_length_b   9.66120849
_cell_length_c   9.66120915
_cell_angle_alpha   109.47121983
_cell_angle_beta   109.47122043
_cell_angle_gamma   109.47122337
_symmetry_Int_Tables_number   1
_chemical_formula_structural   Sm6Mg(Sb5O12)2
_chemical_formula_sum   'Sm6 Mg1 Sb10 O24'
_cell_volume   694.18061325
_cell_formula_units_Z   1
loop_
 _symmetry_equiv_pos_site_id
 _symmetry_equiv_pos_as_xyz
  1  'x, y, z'
loop_
 _atom_site_type_symbol
 _atom_site_label
 _atom_site_symmetry_multiplicity
 _atom_site_fract_x
 _atom_site_fract_y
 _atom_site_fract_z
 _atom_site_occupancy
  Sm  Sm0  1  0.50000000  0.75000000  0.25000000  1
  Sm  Sm1  1  0.25000000  0.75000000  0.50000000  1
  Sm  Sm2  1  0.75000000  0.25000000  0.50000000  1
  Sm  Sm3  1  0.25000000  0.50000000  0.75000000  1
  Sm  Sm4  1  0.75000000  0.50000000  0.25000000  1
  Sm  Sm5  1  0.50000000  0.25000000  0.75000000  1
  Mg  Mg0  1  0.00000000  0.00000000  0.00000000  1
  Sb  Sb0  1  1.00000000  1.00000000  0.50625869  1
  Sb  Sb1  1  0.00000000  0.50625869  0.00000000  1
  Sb  Sb2  1  0.50625869  0.00000000  0.00000000  1
  Sb  Sb3  1  0.49374131  0.49374131  0.49374131  1
  Sb  Sb4  1  0.71066679  1.00000000  0.71066679  1
  Sb  Sb5  1  0.28933321  0.00000000  0.28933321  1
  Sb  Sb6  1  1.00000000  0.28933321  0.28933321  1
  Sb  Sb7  1  0.00000000  0.71066679  0.71066679  1
  Sb  Sb8  1  0.71066679  0.71066679  1.00000000  1
  Sb  Sb9  1  0.28933321  0.28933321  0.00000000  1
  O  O0  1  0.27568664  0.80145314  0.80145314  1
  O  O1  1  0.52576551  0.52576551  0.72431336  1
  O  O2  1  0.52576551  0.72431336  0.52576551  1
  O  O3  1  0.19854686  1.00000000  0.47423449  1
  O  O4  1  0.19854686  0.47423449  1.00000000  1
  O  O5  1  0.00000000  0.19854686  0.47423449  1
  O  O6  1  0.00000000  0.47423449  0.19854686  1
  O  O7  1  0.47423449  0.19854686  1.00000000  1
  O  O8  1  0.80145314  0.80145314  0.27568664  1
  O  O9  1  0.80145314  0.27568664  0.80145314  1
  O  O10  1  0.47423449  1.00000000  0.19854686  1
  O  O11  1  0.72431336  0.52576551  0.52576551  1
  O  O12  1  0.79715584  0.29536523  0.29536523  1
  O  O13  1  0.49820739  0.49820739  0.20284416  1
  O  O14  1  0.49820739  0.20284416  0.49820739  1
  O  O15  1  0.70463477  0.00000000  0.50179261  1
  O  O16  1  0.20284416  0.49820739  0.49820739  1
  O  O17  1  0.50179261  1.00000000  0.70463477  1
  O  O18  1  0.29536523  0.79715584  0.29536523  1
  O  O19  1  0.29536523  0.29536523  0.79715584  1
  O  O20  1  0.50179261  0.70463477  1.00000000  1
  O  O21  1  1.00000000  0.50179261  0.70463477  1
  O  O22  1  0.00000000  0.70463477  0.50179261  1
  O  O23  1  0.70463477  0.50179261  1.00000000  1
loop_
_geom_bond_atom_site_label_1
_geom_bond_atom_site_label_2
_geom_bond_distance
_geom_bond_site_symmetry_2
Mg0 Sb9 3.227744 1_555
Mg0 Sb8 3.227744 1_444
Mg0 Sb5 3.227744 1_555
Mg0 Sb4 3.227744 1_444
Mg0 Sb6 3.227744 1_455
Mg0 Sb7 3.227744 1_544
O0 Sb2 2.042277 1_566
O0 Sb7 2.237174 1_555
O0 Sm3 2.694723 1_555
O0 Sm1 2.694723 1_555
O1 Sb3 2.042282 1_555
O1 Sb8 2.237177 1_555
O1 Sm3 2.694715 1_555
O1 Sm5 2.694715 1_555
O2 Sb3 2.042282 1_555
O2 Sb4 2.237177 1_555
O2 Sm1 2.694715 1_555
O2 Sm0 2.694715 1_555
O3 Sb0 2.042272 1_455
O3 Sb5 2.237183 1_565
O3 Sm5 2.694720 1_565
O3 Sm1 2.694720 1_555
O4 Sb1 2.042272 1_556
O4 Sb9 2.237183 1_556
O4 Sm0 2.694720 1_556
O4 Sm3 2.694720 1_555
O5 Sb0 2.042272 1_445
O5 Sb6 2.237183 1_455
O5 Sm2 2.694720 1_455
O5 Sm3 2.694720 1_555
O6 Sb1 2.042273 1_555
O6 Sb6 2.237183 1_455
O6 Sm4 2.694720 1_455
O6 Sm1 2.694720 1_555
O7 Sb2 2.042272 1_556
O7 Sb9 2.237183 1_556
O7 Sm4 2.694720 1_556
O7 Sm5 2.694720 1_555
O8 Sb0 2.042277 1_555
O8 Sb8 2.237175 1_554
O8 Sm0 2.694723 1_555
O8 Sm4 2.694723 1_555
O9 Sb1 2.042277 1_656
O9 Sb4 2.237174 1_545
O9 Sm5 2.694723 1_555
O9 Sm2 2.694723 1_555
O10 Sb2 2.042273 1_565
O10 Sb5 2.237183 1_565
O10 Sm2 2.694720 1_565
O10 Sm0 2.694720 1_555
O11 Sb3 2.042282 1_555
O11 Sb7 2.237177 1_655
O11 Sm2 2.694715 1_555
O11 Sm4 2.694715 1_555
O12 Sb6 1.999326 1_555
O12 Sm4 2.313712 1_555
O12 Sm2 2.313712 1_555
O13 Sb9 1.999312 1_555
O13 Sm4 2.313723 1_555
O13 Sm0 2.313723 1_555
O14 Sb5 1.999312 1_555
O14 Sm2 2.313723 1_555
O14 Sm5 2.313723 1_555
O15 Sb4 1.999307 1_545
O15 Sm2 2.313720 1_555
O15 Sm0 2.313720 1_545
O16 Sb6 1.999312 1_455
O16 Sm1 2.313723 1_555
O16 Sm3 2.313723 1_555
O17 Sb4 1.999307 1_555
O17 Sm1 2.313720 1_555
O17 Sm5 2.313720 1_565
O18 Sb5 1.999326 1_565
O18 Sm0 2.313712 1_555
O18 Sm1 2.313712 1_555
O19 Sb9 1.999326 1_556
O19 Sm5 2.313712 1_555
O19 Sm3 2.313712 1_555
O20 Sb8 1.999307 1_555
O20 Sm3 2.313720 1_555
O20 Sm0 2.313720 1_556
O21 Sb7 1.999307 1_655
O21 Sm2 2.313720 1_555
O21 Sm3 2.313720 1_655
O22 Sb7 1.999307 1_555
O22 Sm1 2.313720 1_555
O22 Sm4 2.313720 1_455
O23 Sb8 1.999307 1_555
O23 Sm5 2.313720 1_555
O23 Sm4 2.313720 1_556
