# generated using pymatgen
data_Lu3SbO7
_symmetry_space_group_name_H-M   'P 1'
_cell_length_a   6.28607362
_cell_length_b   6.28607362
_cell_length_c   7.28811392
_cell_angle_alpha   90.00000000
_cell_angle_beta   90.00000000
_cell_angle_gamma   109.18223283
_symmetry_Int_Tables_number   1
_chemical_formula_structural   Lu3SbO7
_chemical_formula_sum   'Lu6 Sb2 O14'
_cell_volume   271.99822182
_cell_formula_units_Z   2
loop_
 _symmetry_equiv_pos_site_id
 _symmetry_equiv_pos_as_xyz
  1  'x, y, z'
loop_
 _atom_site_type_symbol
 _atom_site_label
 _atom_site_symmetry_multiplicity
 _atom_site_fract_x
 _atom_site_fract_y
 _atom_site_fract_z
 _atom_site_occupancy
  Lu  Lu0  1  0.53141418  0.00119487  0.75245610  1
  Lu  Lu1  1  0.46858582  0.99880513  0.25245610  1
  Lu  Lu2  1  0.99880513  0.46858582  0.74754390  1
  Lu  Lu3  1  0.00119487  0.53141418  0.24754390  1
  Lu  Lu4  1  0.48883408  0.48883408  -0.00000000  1
  Lu  Lu5  1  0.51116592  0.51116592  0.50000000  1
  Sb  Sb0  1  0.00027352  0.00027352  -0.00000000  1
  Sb  Sb1  1  -0.00027352  -0.00027352  0.50000000  1
  O  O0  1  0.63857842  0.36142158  0.75000000  1
  O  O1  1  0.36142158  0.63857842  0.25000000  1
  O  O2  1  0.92561220  0.07438780  0.75000000  1
  O  O3  1  0.07438780  0.92561220  0.25000000  1
  O  O4  1  0.32801243  0.07850777  0.97011998  1
  O  O5  1  0.67198757  0.92149223  0.47011998  1
  O  O6  1  0.92149223  0.67198757  0.52988002  1
  O  O7  1  0.07850777  0.32801243  0.02988002  1
  O  O8  1  0.36965972  0.63034028  0.75000000  1
  O  O9  1  0.63034028  0.36965972  0.25000000  1
  O  O10  1  0.32317856  0.06780428  0.53438996  1
  O  O11  1  0.67682144  0.93219572  0.03438996  1
  O  O12  1  0.93219572  0.67682144  0.96561004  1
  O  O13  1  0.06780428  0.32317856  0.46561004  1
loop_
_geom_bond_atom_site_label_1
_geom_bond_atom_site_label_2
_geom_bond_distance
_geom_bond_site_symmetry_2
Lu0 O0 2.139920 1_555
Lu0 O10 2.185127 1_555
Lu0 O4 2.189951 1_555
Lu0 O8 2.216099 1_545
Lu0 O11 2.346526 1_546
Lu0 O5 2.357312 1_545
Lu0 O2 2.367081 1_555
Lu1 O1 2.139920 1_555
Lu1 O11 2.185127 1_555
Lu1 O5 2.189951 1_555
Lu1 O9 2.216099 1_565
Lu1 O10 2.346526 1_565
Lu1 O4 2.357312 1_564
Lu1 O3 2.367081 1_555
Lu2 O0 2.139920 1_555
Lu2 O12 2.185127 1_555
Lu2 O6 2.189951 1_555
Lu2 O8 2.216099 1_655
Lu2 O13 2.346526 1_655
Lu2 O7 2.357312 1_656
Lu2 O2 2.367081 1_555
Lu3 O1 2.139920 1_555
Lu3 O13 2.185127 1_555
Lu3 O7 2.189951 1_555
Lu3 O9 2.216099 1_455
Lu3 O12 2.346526 1_454
Lu3 O6 2.357312 1_455
Lu3 O3 2.367081 1_555
Lu4 O9 2.260563 1_555
Lu4 O8 2.260563 1_554
Lu4 O1 2.311440 1_555
Lu4 O0 2.311440 1_554
Lu4 O7 2.451300 1_555
Lu4 O4 2.451300 1_554
Lu4 O12 2.657513 1_554
Lu4 O11 2.657513 1_555
Lu5 O9 2.260563 1_555
Lu5 O8 2.260563 1_555
Lu5 O1 2.311440 1_555
Lu5 O0 2.311440 1_555
Lu5 O5 2.451300 1_555
Lu5 O6 2.451300 1_555
Lu5 O13 2.657513 1_555
Lu5 O10 2.657513 1_555
O2 Sb1 1.975043 1_655
O2 Sb0 1.975043 1_656
O3 Sb1 1.975043 1_565
O3 Sb0 1.975043 1_565
O4 Sb0 1.966687 1_556
O5 Sb1 1.966687 1_665
O6 Sb1 1.966687 1_665
O7 Sb0 1.966687 1_555
O10 Sb1 1.951472 1_555
O11 Sb0 1.951472 1_665
O12 Sb0 1.951472 1_666
O13 Sb1 1.951472 1_555
