# generated using pymatgen
data_RbMg14Si
_symmetry_space_group_name_H-M   'P 1'
_cell_length_a   6.59920296
_cell_length_b   6.47499099
_cell_length_c   10.47791838
_cell_angle_alpha   90.00000000
_cell_angle_beta   90.00000000
_cell_angle_gamma   119.37929905
_symmetry_Int_Tables_number   1
_chemical_formula_structural   RbMg14Si
_chemical_formula_sum   'Rb1 Mg14 Si1'
_cell_volume   390.13848535
_cell_formula_units_Z   1
loop_
 _symmetry_equiv_pos_site_id
 _symmetry_equiv_pos_as_xyz
  1  'x, y, z'
loop_
 _atom_site_type_symbol
 _atom_site_label
 _atom_site_symmetry_multiplicity
 _atom_site_fract_x
 _atom_site_fract_y
 _atom_site_fract_z
 _atom_site_occupancy
  Rb  Rb0  1  0.13047512  0.81523706  0.12500000  1
  Mg  Mg0  1  0.16307453  0.33153677  0.62500000  1
  Mg  Mg1  1  0.17171041  0.83585471  0.62500000  1
  Mg  Mg2  1  0.63002450  0.31676568  0.12500000  1
  Mg  Mg3  1  0.66683274  0.32718028  0.62500000  1
  Mg  Mg4  1  0.63002450  0.81325782  0.12500000  1
  Mg  Mg5  1  0.66683274  0.83965146  0.62500000  1
  Mg  Mg6  1  0.33930902  0.17850874  0.38376674  1
  Mg  Mg7  1  0.33930902  0.17850874  0.86623326  1
  Mg  Mg8  1  0.33930902  0.66080128  0.38376674  1
  Mg  Mg9  1  0.33930902  0.66080128  0.86623326  1
  Mg  Mg10  1  0.84770563  0.17385331  0.35346744  1
  Mg  Mg11  1  0.84770563  0.17385331  0.89653256  1
  Mg  Mg12  1  0.82275571  0.66137835  0.39567787  1
  Mg  Mg13  1  0.82275571  0.66137835  0.85432213  1
  Si  Si0  1  0.24286670  0.37143285  0.12500000  1
loop_
_geom_bond_atom_site_label_1
_geom_bond_atom_site_label_2
_geom_bond_distance
_geom_bond_site_symmetry_2
Rb0 Si0 3.301377 1_565
Rb0 Si0 3.301377 1_555
Mg0 Mg6 3.139098 1_555
Mg0 Mg7 3.139098 1_555
Mg0 Mg8 3.139104 1_555
Mg0 Mg9 3.139104 1_555
Mg0 Mg1 3.237876 1_555
Mg0 Mg1 3.237876 1_545
Mg0 Mg5 3.261054 1_445
Mg0 Mg3 3.261054 1_455
Mg0 Mg5 3.338331 1_555
Mg0 Mg3 3.338332 1_555
Mg0 Mg10 3.373936 1_455
Mg0 Mg11 3.373936 1_455
Mg1 Mg12 3.130530 1_455
Mg1 Mg13 3.130530 1_455
Mg1 Mg8 3.182286 1_555
Mg1 Mg9 3.182286 1_555
Mg1 Mg6 3.182292 1_565
Mg1 Mg7 3.182292 1_565
Mg1 Mg3 3.255422 1_565
Mg1 Mg5 3.255423 1_555
Mg1 Mg3 3.343919 1_455
Mg1 Mg5 3.343919 1_455
Mg2 Si0 2.745965 1_555
Mg2 Mg7 3.185628 1_554
Mg2 Mg6 3.185628 1_555
Mg2 Rb0 3.296307 1_655
Mg2 Rb0 3.302934 1_545
Mg3 Mg6 3.153680 1_555
Mg3 Mg7 3.153680 1_555
Mg3 Mg5 3.156745 1_545
Mg3 Mg5 3.318246 1_555
Mg4 Si0 2.745965 1_555
Mg4 Mg8 3.185628 1_555
Mg4 Mg9 3.185628 1_554
Mg4 Rb0 3.296307 1_655
Mg4 Rb0 3.302934 1_555
Mg5 Mg8 3.153679 1_555
Mg5 Mg9 3.153679 1_555
Mg6 Mg8 3.122840 1_555
Mg6 Si0 3.177567 1_555
Mg6 Mg8 3.352151 1_545
Mg6 Rb0 3.406281 1_545
Mg7 Mg9 3.122840 1_555
Mg7 Si0 3.177567 1_556
Mg7 Mg9 3.352151 1_545
Mg7 Rb0 3.406281 1_546
Mg8 Si0 3.177573 1_555
Mg8 Rb0 3.406275 1_555
Mg9 Si0 3.177573 1_556
Mg9 Rb0 3.406275 1_556
Mg10 Mg8 3.245076 1_655
Mg10 Mg6 3.245076 1_655
Mg10 Mg12 3.270714 1_545
Mg10 Mg12 3.270714 1_555
Mg10 Si0 3.300642 1_655
Mg10 Mg8 3.384824 1_545
Mg10 Mg6 3.384824 1_555
Mg10 Mg3 3.415792 1_555
Mg10 Mg5 3.415798 1_545
Mg11 Mg9 3.245076 1_655
Mg11 Mg7 3.245076 1_655
Mg11 Mg13 3.270714 1_545
Mg11 Mg13 3.270714 1_555
Mg11 Si0 3.300642 1_656
Mg11 Mg9 3.384824 1_545
Mg11 Mg7 3.384824 1_555
Mg11 Mg3 3.415792 1_555
Mg11 Mg5 3.415798 1_545
Mg12 Mg5 3.054530 1_555
Mg12 Mg3 3.054537 1_555
Mg12 Mg6 3.190973 1_555
Mg12 Mg8 3.190973 1_555
Mg12 Rb0 3.342896 1_655
Mg12 Mg6 3.412957 1_665
Mg12 Mg8 3.412957 1_655
Mg12 Mg4 3.443211 1_555
Mg12 Mg2 3.443217 1_555
Mg13 Mg5 3.054530 1_555
Mg13 Mg3 3.054537 1_555
Mg13 Mg7 3.190973 1_555
Mg13 Mg9 3.190973 1_555
Mg13 Rb0 3.342896 1_656
Mg13 Mg7 3.412957 1_665
Mg13 Mg9 3.412957 1_655
Mg13 Mg4 3.443211 1_556
Mg13 Mg2 3.443217 1_556
