# generated using pymatgen
data_Zn(MoO2)2
_symmetry_space_group_name_H-M   'P 1'
_cell_length_a   6.33493854
_cell_length_b   6.33493854
_cell_length_c   6.33493854
_cell_angle_alpha   60.00000000
_cell_angle_beta   60.00000000
_cell_angle_gamma   60.00000000
_symmetry_Int_Tables_number   1
_chemical_formula_structural   Zn(MoO2)2
_chemical_formula_sum   'Zn2 Mo4 O8'
_cell_volume   179.76793083
_cell_formula_units_Z   2
loop_
 _symmetry_equiv_pos_site_id
 _symmetry_equiv_pos_as_xyz
  1  'x, y, z'
loop_
 _atom_site_type_symbol
 _atom_site_label
 _atom_site_symmetry_multiplicity
 _atom_site_fract_x
 _atom_site_fract_y
 _atom_site_fract_z
 _atom_site_occupancy
  Zn  Zn0  1  0.75000000  0.75000000  0.75000000  1
  Zn  Zn1  1  0.50000000  0.50000000  0.50000000  1
  Mo  Mo0  1  0.12500000  0.12500000  0.62500000  1
  Mo  Mo1  1  0.62500000  0.12500000  0.12500000  1
  Mo  Mo2  1  0.12500000  0.12500000  0.12500000  1
  Mo  Mo3  1  0.12500000  0.62500000  0.12500000  1
  O  O0  1  0.89607100  0.36797600  0.36797600  1
  O  O1  1  0.36797600  0.36797600  0.89607100  1
  O  O2  1  0.36797600  0.36797600  0.36797600  1
  O  O3  1  0.35392900  0.88202400  0.88202400  1
  O  O4  1  0.88202400  0.35392900  0.88202400  1
  O  O5  1  0.88202400  0.88202400  0.35392900  1
  O  O6  1  0.36797600  0.89607100  0.36797600  1
  O  O7  1  0.88202400  0.88202400  0.88202400  1
loop_
_geom_bond_atom_site_label_1
_geom_bond_atom_site_label_2
_geom_bond_distance
_geom_bond_site_symmetry_2
Mo0 O2 2.178630 1_555
Mo0 O7 2.178630 1_445
Mo0 O3 2.178634 1_545
Mo0 O4 2.178634 1_455
Mo0 O6 2.178634 1_545
Mo0 O0 2.178634 1_455
Mo1 O2 2.178630 1_555
Mo1 O7 2.178630 1_544
Mo1 O4 2.178634 1_554
Mo1 O5 2.178634 1_545
Mo1 O1 2.178634 1_554
Mo1 O6 2.178634 1_545
Mo2 O0 2.178629 1_455
Mo2 O6 2.178629 1_545
Mo2 O1 2.178629 1_554
Mo2 O4 2.178629 1_454
Mo2 O3 2.178629 1_544
Mo2 O5 2.178629 1_445
Mo3 O2 2.178630 1_555
Mo3 O7 2.178630 1_454
Mo3 O5 2.178634 1_455
Mo3 O3 2.178634 1_554
Mo3 O1 2.178634 1_554
Mo3 O0 2.178634 1_455
O0 Zn1 2.048660 1_555
O1 Zn1 2.048660 1_555
O2 Zn1 2.048665 1_555
O3 Zn0 2.048660 1_555
O4 Zn0 2.048660 1_555
O5 Zn0 2.048660 1_555
O6 Zn1 2.048660 1_555
O7 Zn0 2.048665 1_555
