# generated using pymatgen
data_Li2CaTa2O7
_symmetry_space_group_name_H-M   'P 1'
_cell_length_a   5.45577495
_cell_length_b   5.52159454
_cell_length_c   18.16460390
_cell_angle_alpha   90.00000000
_cell_angle_beta   90.00000000
_cell_angle_gamma   90.00000000
_symmetry_Int_Tables_number   1
_chemical_formula_structural   Li2CaTa2O7
_chemical_formula_sum   'Li8 Ca4 Ta8 O28'
_cell_volume   547.20101205
_cell_formula_units_Z   4
loop_
 _symmetry_equiv_pos_site_id
 _symmetry_equiv_pos_as_xyz
  1  'x, y, z'
loop_
 _atom_site_type_symbol
 _atom_site_label
 _atom_site_symmetry_multiplicity
 _atom_site_fract_x
 _atom_site_fract_y
 _atom_site_fract_z
 _atom_site_occupancy
  Li  Li0  1  0.74870926  0.49214506  0.98746272  1
  Li  Li1  1  0.25129074  0.50785494  0.48746272  1
  Li  Li2  1  0.24870926  0.00785494  0.48746272  1
  Li  Li3  1  0.75129074  0.99214506  0.98746272  1
  Li  Li4  1  0.25129074  0.50785494  0.01253728  1
  Li  Li5  1  0.74870926  0.49214506  0.51253728  1
  Li  Li6  1  0.75129074  0.99214506  0.51253728  1
  Li  Li7  1  0.24870926  0.00785494  0.01253728  1
  Ca  Ca0  1  -0.00187080  0.20672098  0.25000000  1
  Ca  Ca1  1  0.00187080  0.79327902  0.75000000  1
  Ca  Ca2  1  0.49812920  0.29327902  0.75000000  1
  Ca  Ca3  1  0.50187080  0.70672098  0.25000000  1
  Ta  Ta0  1  0.49841141  0.75869211  0.63724116  1
  Ta  Ta1  1  0.50158859  0.24130789  0.13724116  1
  Ta  Ta2  1  0.99841141  0.74130789  0.13724116  1
  Ta  Ta3  1  0.00158859  0.25869211  0.63724116  1
  Ta  Ta4  1  0.50158859  0.24130789  0.36275884  1
  Ta  Ta5  1  0.49841141  0.75869211  0.86275884  1
  Ta  Ta6  1  0.00158859  0.25869211  0.86275884  1
  Ta  Ta7  1  0.99841141  0.74130789  0.36275884  1
  O  O0  1  0.07890507  0.77104045  0.25000000  1
  O  O1  1  0.92109493  0.22895955  0.75000000  1
  O  O2  1  0.57890507  0.72895955  0.75000000  1
  O  O3  1  0.42109493  0.27104045  0.25000000  1
  O  O4  1  0.04926554  0.25656876  0.96464086  1
  O  O5  1  0.95073446  0.74343124  0.46464086  1
  O  O6  1  0.54926554  0.24343124  0.46464086  1
  O  O7  1  0.45073446  0.75656876  0.96464086  1
  O  O8  1  0.95073446  0.74343124  0.03535914  1
  O  O9  1  0.04926554  0.25656876  0.53535914  1
  O  O10  1  0.45073446  0.75656876  0.53535914  1
  O  O11  1  0.54926554  0.24343124  0.03535914  1
  O  O12  1  0.20842539  0.04172707  0.36915982  1
  O  O13  1  0.79157461  0.95827293  0.86915982  1
  O  O14  1  0.70842539  0.45827293  0.86915982  1
  O  O15  1  0.29157461  0.54172707  0.36915982  1
  O  O16  1  0.79157461  0.95827293  0.63084018  1
  O  O17  1  0.20842539  0.04172707  0.13084018  1
  O  O18  1  0.29157461  0.54172707  0.13084018  1
  O  O19  1  0.70842539  0.45827293  0.63084018  1
  O  O20  1  0.21865093  0.52950780  0.66467977  1
  O  O21  1  0.78134907  0.47049220  0.16467977  1
  O  O22  1  0.71865093  0.97049220  0.16467977  1
  O  O23  1  0.28134907  0.02950780  0.66467977  1
  O  O24  1  0.78134907  0.47049220  0.33532023  1
  O  O25  1  0.21865093  0.52950780  0.83532023  1
  O  O26  1  0.28134907  0.02950780  0.83532023  1
  O  O27  1  0.71865093  0.97049220  0.33532023  1
loop_
_geom_bond_atom_site_label_1
_geom_bond_atom_site_label_2
_geom_bond_distance
_geom_bond_site_symmetry_2
Li0 O11 1.956242 1_556
Li0 O8 1.974068 1_556
Li0 O4 2.133696 1_655
Li0 O14 2.168216 1_555
Li0 O7 2.224054 1_555
Li1 O10 1.956242 1_555
Li1 O9 1.974068 1_555
Li1 O5 2.133696 1_455
Li1 O15 2.168216 1_555
Li1 O6 2.224054 1_555
Li2 O9 1.956242 1_555
Li2 O10 1.974068 1_545
Li2 O6 2.133696 1_555
Li2 O12 2.168216 1_555
Li2 O5 2.224054 1_445
Li3 O8 1.956242 1_556
Li3 O11 1.974068 1_566
Li3 O7 2.133696 1_555
Li3 O13 2.168216 1_555
Li3 O4 2.224054 1_665
Li4 O7 1.956242 1_554
Li4 O4 1.974068 1_554
Li4 O8 2.133696 1_455
Li4 O18 2.168216 1_555
Li4 O11 2.224054 1_555
Li5 O6 1.956242 1_555
Li5 O5 1.974068 1_555
Li5 O9 2.133696 1_655
Li5 O19 2.168216 1_555
Li5 O10 2.224054 1_555
Li6 O5 1.956242 1_555
Li6 O6 1.974068 1_565
Li6 O10 2.133696 1_555
Li6 O16 2.168216 1_555
Li6 O9 2.224054 1_665
Li7 O4 1.956242 1_554
Li7 O7 1.974068 1_544
Li7 O11 2.133696 1_555
Li7 O17 2.168216 1_555
Li7 O8 2.224054 1_445
Ca0 O3 2.334775 1_555
Ca0 O24 2.433496 1_455
Ca0 O21 2.433496 1_455
Ca0 O0 2.445684 1_545
Ca0 O27 2.535386 1_445
Ca0 O22 2.535386 1_445
Ca0 O17 2.613687 1_555
Ca0 O12 2.613687 1_555
Ca1 O2 2.334775 1_455
Ca1 O20 2.433496 1_555
Ca1 O25 2.433496 1_555
Ca1 O1 2.445684 1_465
Ca1 O23 2.535386 1_565
Ca1 O26 2.535386 1_565
Ca1 O13 2.613687 1_455
Ca1 O16 2.613687 1_455
Ca2 O1 2.334775 1_555
Ca2 O23 2.433496 1_555
Ca2 O26 2.433496 1_555
Ca2 O2 2.445684 1_555
Ca2 O20 2.535386 1_555
Ca2 O25 2.535386 1_555
Ca2 O19 2.613687 1_555
Ca2 O14 2.613687 1_555
Ca3 O0 2.334775 1_555
Ca3 O27 2.433496 1_555
Ca3 O22 2.433496 1_555
Ca3 O3 2.445684 1_555
Ca3 O24 2.535386 1_555
Ca3 O21 2.535386 1_555
Ca3 O18 2.613687 1_555
Ca3 O15 2.613687 1_555
O0 Ta2 2.101193 1_455
O0 Ta7 2.101193 1_455
O1 Ta6 2.101193 1_655
O1 Ta3 2.101193 1_655
O2 Ta5 2.101193 1_555
O2 Ta0 2.101193 1_555
O3 Ta1 2.101193 1_555
O3 Ta4 2.101193 1_555
O4 Ta6 1.868874 1_555
O5 Ta7 1.868874 1_555
O6 Ta4 1.868874 1_555
O7 Ta5 1.868874 1_555
O8 Ta2 1.868874 1_555
O9 Ta3 1.868874 1_555
O10 Ta0 1.868874 1_555
O11 Ta1 1.868874 1_555
O12 Ta4 1.945795 1_555
O12 Ta7 2.019392 1_445
O13 Ta5 1.945795 1_555
O13 Ta6 2.019392 1_665
O14 Ta6 1.945795 1_655
O14 Ta5 2.019392 1_555
O15 Ta7 1.945795 1_455
O15 Ta4 2.019392 1_555
O16 Ta0 1.945795 1_555
O16 Ta3 2.019392 1_665
O17 Ta1 1.945795 1_555
O17 Ta2 2.019392 1_445
O18 Ta2 1.945795 1_455
O18 Ta1 2.019392 1_555
O19 Ta3 1.945795 1_655
O19 Ta0 2.019392 1_555
O20 Ta3 1.971515 1_555
O20 Ta0 2.044366 1_555
O21 Ta2 1.971515 1_555
O21 Ta1 2.044366 1_555
O22 Ta1 1.971515 1_565
O22 Ta2 2.044366 1_555
O23 Ta0 1.971515 1_545
O23 Ta3 2.044366 1_555
O24 Ta7 1.971515 1_555
O24 Ta4 2.044366 1_555
O25 Ta6 1.971515 1_555
O25 Ta5 2.044366 1_555
O26 Ta5 1.971515 1_545
O26 Ta6 2.044366 1_555
O27 Ta4 1.971515 1_565
O27 Ta7 2.044366 1_555
