# generated using pymatgen
data_Co2CN9(Cl2O3)2
_symmetry_space_group_name_H-M   'P 1'
_cell_length_a   9.97060200
_cell_length_b   11.46429800
_cell_length_c   18.09063400
_cell_angle_alpha   90.00000000
_cell_angle_beta   90.00000000
_cell_angle_gamma   90.00000000
_symmetry_Int_Tables_number   1
_chemical_formula_structural   Co2CN9(Cl2O3)2
_chemical_formula_sum   'Co8 C4 N36 Cl16 O24'
_cell_volume   2067.86715192
_cell_formula_units_Z   4
loop_
 _symmetry_equiv_pos_site_id
 _symmetry_equiv_pos_as_xyz
  1  'x, y, z'
loop_
 _atom_site_type_symbol
 _atom_site_label
 _atom_site_symmetry_multiplicity
 _atom_site_fract_x
 _atom_site_fract_y
 _atom_site_fract_z
 _atom_site_occupancy
  Co  Co0  1  0.66090700  0.03344900  0.11506900  1
  Co  Co1  1  0.16090700  0.46655100  0.38493100  1
  Co  Co2  1  0.33909300  0.96655100  0.61506900  1
  Co  Co3  1  0.83909300  0.53344900  0.88493100  1
  Co  Co4  1  0.33909300  0.96655100  0.88493100  1
  Co  Co5  1  0.83909300  0.53344900  0.61506900  1
  Co  Co6  1  0.66090700  0.03344900  0.38493100  1
  Co  Co7  1  0.16090700  0.46655100  0.11506900  1
  C  C0  1  0.58153200  0.71019700  0.25000000  1
  C  C1  1  0.08153200  0.78980300  0.25000000  1
  C  C2  1  0.41846800  0.28980300  0.75000000  1
  C  C3  1  0.91846800  0.21019700  0.75000000  1
  N  N0  1  0.78426200  0.98003800  0.25000000  1
  N  N1  1  0.28426200  0.51996200  0.25000000  1
  N  N2  1  0.21573800  0.01996200  0.75000000  1
  N  N3  1  0.71573800  0.48003800  0.75000000  1
  N  N4  1  0.79144400  0.97697200  0.18468400  1
  N  N5  1  0.29144400  0.52302800  0.31531600  1
  N  N6  1  0.20855600  0.02302800  0.68468400  1
  N  N7  1  0.70855600  0.47697200  0.81531600  1
  N  N8  1  0.20855600  0.02302800  0.81531600  1
  N  N9  1  0.70855600  0.47697200  0.68468400  1
  N  N10  1  0.79144400  0.97697200  0.31531600  1
  N  N11  1  0.29144400  0.52302800  0.18468400  1
  N  N12  1  0.52458800  0.08478300  0.17173500  1
  N  N13  1  0.02458800  0.41521700  0.32826500  1
  N  N14  1  0.47541200  0.91521700  0.67173500  1
  N  N15  1  0.97541200  0.58478300  0.82826500  1
  N  N16  1  0.47541200  0.91521700  0.82826500  1
  N  N17  1  0.97541200  0.58478300  0.67173500  1
  N  N18  1  0.52458800  0.08478300  0.32826500  1
  N  N19  1  0.02458800  0.41521700  0.17173500  1
  N  N20  1  0.70746600  0.15741800  0.06865600  1
  N  N21  1  0.20746600  0.34258200  0.43134400  1
  N  N22  1  0.29253400  0.84258200  0.56865600  1
  N  N23  1  0.79253400  0.65741800  0.93134400  1
  N  N24  1  0.29253400  0.84258200  0.93134400  1
  N  N25  1  0.79253400  0.65741800  0.56865600  1
  N  N26  1  0.70746600  0.15741800  0.43134400  1
  N  N27  1  0.20746600  0.34258200  0.06865600  1
  N  N28  1  0.61409300  0.93177100  0.06447300  1
  N  N29  1  0.11409300  0.56822900  0.43552700  1
  N  N30  1  0.38590700  0.06822900  0.56447300  1
  N  N31  1  0.88590700  0.43177100  0.93552700  1
  N  N32  1  0.38590700  0.06822900  0.93552700  1
  N  N33  1  0.88590700  0.43177100  0.56447300  1
  N  N34  1  0.61409300  0.93177100  0.43552700  1
  N  N35  1  0.11409300  0.56822900  0.06447300  1
  Cl  Cl0  1  0.56006400  0.27558300  0.25000000  1
  Cl  Cl1  1  0.06006400  0.22441700  0.25000000  1
  Cl  Cl2  1  0.43993600  0.72441700  0.75000000  1
  Cl  Cl3  1  0.93993600  0.77558300  0.75000000  1
  Cl  Cl4  1  0.47545400  0.01396300  0.25000000  1
  Cl  Cl5  1  0.97545400  0.48603700  0.25000000  1
  Cl  Cl6  1  0.52454600  0.98603700  0.75000000  1
  Cl  Cl7  1  0.02454600  0.51396300  0.75000000  1
  Cl  Cl8  1  0.17815500  0.29679900  0.98616200  1
  Cl  Cl9  1  0.67815500  0.20320100  0.51383800  1
  Cl  Cl10  1  0.82184500  0.70320100  0.48616200  1
  Cl  Cl11  1  0.32184500  0.79679900  0.01383800  1
  Cl  Cl12  1  0.82184500  0.70320100  0.01383800  1
  Cl  Cl13  1  0.32184500  0.79679900  0.48616200  1
  Cl  Cl14  1  0.17815500  0.29679900  0.51383800  1
  Cl  Cl15  1  0.67815500  0.20320100  0.98616200  1
  O  O0  1  0.58151100  0.71078400  0.18501100  1
  O  O1  1  0.08151100  0.78921600  0.31498900  1
  O  O2  1  0.41848900  0.28921600  0.68501100  1
  O  O3  1  0.91848900  0.21078400  0.81498900  1
  O  O4  1  0.41848900  0.28921600  0.81498900  1
  O  O5  1  0.91848900  0.21078400  0.68501100  1
  O  O6  1  0.58151100  0.71078400  0.31498900  1
  O  O7  1  0.08151100  0.78921600  0.18501100  1
  O  O8  1  0.65541000  0.45092500  0.10674000  1
  O  O9  1  0.15541000  0.04907500  0.39326000  1
  O  O10  1  0.34459000  0.54907500  0.60674000  1
  O  O11  1  0.84459000  0.95092500  0.89326000  1
  O  O12  1  0.34459000  0.54907500  0.89326000  1
  O  O13  1  0.84459000  0.95092500  0.60674000  1
  O  O14  1  0.65541000  0.45092500  0.39326000  1
  O  O15  1  0.15541000  0.04907500  0.10674000  1
  O  O16  1  0.54726900  0.45582100  0.07404300  1
  O  O17  1  0.04726900  0.04417900  0.42595700  1
  O  O18  1  0.45273100  0.54417900  0.57404300  1
  O  O19  1  0.95273100  0.95582100  0.92595700  1
  O  O20  1  0.45273100  0.54417900  0.92595700  1
  O  O21  1  0.95273100  0.95582100  0.57404300  1
  O  O22  1  0.54726900  0.45582100  0.42595700  1
  O  O23  1  0.04726900  0.04417900  0.07404300  1
loop_
_geom_bond_atom_site_label_1
_geom_bond_atom_site_label_2
_geom_bond_distance
_geom_bond_site_symmetry_2
Co0 N28 1.553849 1_545
Co0 N20 1.714747 1_555
Co0 N12 1.801277 1_555
Co0 N4 1.923341 1_545
Co1 N29 1.553849 1_555
Co1 N21 1.714747 1_555
Co1 N13 1.801277 1_555
Co1 N5 1.923341 1_555
Co2 N30 1.553849 1_565
Co2 N22 1.714747 1_555
Co2 N14 1.801277 1_555
Co2 N6 1.923341 1_565
Co3 N31 1.553849 1_555
Co3 N23 1.714747 1_555
Co3 N15 1.801277 1_555
Co3 N7 1.923341 1_555
Co4 N32 1.553849 1_565
Co4 N24 1.714747 1_555
Co4 N16 1.801277 1_555
Co4 N8 1.923341 1_565
Co5 N33 1.553849 1_555
Co5 N25 1.714747 1_555
Co5 N17 1.801277 1_555
Co5 N9 1.923341 1_555
Co6 N34 1.553849 1_545
Co6 N26 1.714747 1_555
Co6 N18 1.801277 1_555
Co6 N10 1.923341 1_545
Co7 N35 1.553849 1_555
Co7 N27 1.714747 1_555
Co7 N19 1.801277 1_555
Co7 N11 1.923341 1_555
C0 O0 1.175711 1_555
C0 O6 1.175711 1_555
C1 O7 1.175711 1_555
C1 O1 1.175711 1_555
C2 O2 1.175711 1_555
C2 O4 1.175711 1_555
C3 O5 1.175711 1_555
C3 O3 1.175711 1_555
N0 N10 1.184297 1_555
N0 N4 1.184297 1_555
N1 N5 1.184297 1_555
N1 N11 1.184297 1_555
N2 N6 1.184297 1_555
N2 N8 1.184297 1_555
N3 N7 1.184297 1_555
N3 N9 1.184297 1_555
Cl4 N18 1.704069 1_555
Cl4 N12 1.704069 1_555
Cl5 N13 1.704069 1_655
Cl5 N19 1.704069 1_655
Cl6 N16 1.704069 1_555
Cl6 N14 1.704069 1_555
Cl7 N17 1.704069 1_455
Cl7 N15 1.704069 1_455
Cl8 N27 1.608745 1_556
Cl9 N26 1.608745 1_555
Cl10 N25 1.608745 1_555
Cl11 N24 1.608745 1_554
Cl12 N23 1.608745 1_554
Cl13 N22 1.608745 1_555
Cl14 N21 1.608745 1_555
Cl15 N20 1.608745 1_556
O10 O18 1.231103 1_555
O11 O19 1.231103 1_555
O12 O20 1.231103 1_555
O13 O21 1.231103 1_555
O14 O22 1.231103 1_555
O15 O23 1.231103 1_555
O16 O8 1.231103 1_555
O17 O9 1.231103 1_555
