# generated using pymatgen
data_SnH6CI3N
_symmetry_space_group_name_H-M   'P 1'
_cell_length_a   8.50530600
_cell_length_b   9.14933100
_cell_length_c   13.15568000
_cell_angle_alpha   90.00000000
_cell_angle_beta   90.00000000
_cell_angle_gamma   90.00000000
_symmetry_Int_Tables_number   1
_chemical_formula_structural   SnH6CI3N
_chemical_formula_sum   'Sn4 H24 C4 I12 N4'
_cell_volume   1023.74686248
_cell_formula_units_Z   4
loop_
 _symmetry_equiv_pos_site_id
 _symmetry_equiv_pos_as_xyz
  1  'x, y, z'
loop_
 _atom_site_type_symbol
 _atom_site_label
 _atom_site_symmetry_multiplicity
 _atom_site_fract_x
 _atom_site_fract_y
 _atom_site_fract_z
 _atom_site_occupancy
  Sn  Sn0  1  0.50000000  0.50000000  0.00000000  1
  Sn  Sn1  1  0.00000000  0.00000000  0.00000000  1
  Sn  Sn2  1  0.50000000  0.50000000  0.50000000  1
  Sn  Sn3  1  0.00000000  0.00000000  0.50000000  1
  H  H0  1  0.49548700  0.14236200  0.31416100  1
  H  H1  1  0.50451300  0.85763800  0.68583900  1
  H  H2  1  0.00451300  0.64236200  0.68583900  1
  H  H3  1  0.99548700  0.35763800  0.31416100  1
  H  H4  1  0.50451300  0.85763800  0.81416100  1
  H  H5  1  0.49548700  0.14236200  0.18583900  1
  H  H6  1  0.99548700  0.35763800  0.18583900  1
  H  H7  1  0.00451300  0.64236200  0.81416100  1
  H  H8  1  0.33742500  0.07648200  0.25000000  1
  H  H9  1  0.66257500  0.92351800  0.75000000  1
  H  H10  1  0.16257500  0.57648200  0.75000000  1
  H  H11  1  0.83742500  0.42351800  0.25000000  1
  H  H12  1  0.49344900  0.88068900  0.31869200  1
  H  H13  1  0.50655100  0.11931100  0.68130800  1
  H  H14  1  0.00655100  0.38068900  0.68130800  1
  H  H15  1  0.99344900  0.61931100  0.31869200  1
  H  H16  1  0.50655100  0.11931100  0.81869200  1
  H  H17  1  0.49344900  0.88068900  0.18130800  1
  H  H18  1  0.99344900  0.61931100  0.18130800  1
  H  H19  1  0.00655100  0.38068900  0.81869200  1
  H  H20  1  0.65997900  0.95138200  0.25000000  1
  H  H21  1  0.34002100  0.04861800  0.75000000  1
  H  H22  1  0.84002100  0.45138200  0.75000000  1
  H  H23  1  0.15997900  0.54861800  0.25000000  1
  C  C0  1  0.53206100  0.93750400  0.25000000  1
  C  C1  1  0.46793900  0.06249600  0.75000000  1
  C  C2  1  0.96793900  0.43750400  0.75000000  1
  C  C3  1  0.03206100  0.56249600  0.25000000  1
  I  I0  1  0.54166400  0.51125700  0.25000000  1
  I  I1  1  0.45833600  0.48874300  0.75000000  1
  I  I2  1  0.95833600  0.01125700  0.75000000  1
  I  I3  1  0.04166400  0.98874300  0.25000000  1
  I  I4  1  0.81403800  0.69466600  0.97805400  1
  I  I5  1  0.18596200  0.30533400  0.02194600  1
  I  I6  1  0.68596200  0.19466600  0.02194600  1
  I  I7  1  0.31403800  0.80533400  0.97805400  1
  I  I8  1  0.18596200  0.30533400  0.47805400  1
  I  I9  1  0.81403800  0.69466600  0.52194600  1
  I  I10  1  0.31403800  0.80533400  0.52194600  1
  I  I11  1  0.68596200  0.19466600  0.47805400  1
  N  N0  1  0.45985100  0.08553100  0.25000000  1
  N  N1  1  0.54014900  0.91446900  0.75000000  1
  N  N2  1  0.04014900  0.58553100  0.75000000  1
  N  N3  1  0.95985100  0.41446900  0.25000000  1
loop_
_geom_bond_atom_site_label_1
_geom_bond_atom_site_label_2
_geom_bond_distance
_geom_bond_site_symmetry_2
H0 N0 1.036680 1_555
H1 N1 1.036680 1_555
H2 N2 1.036680 1_555
H3 N3 1.036680 1_555
H4 N1 1.036680 1_555
H5 N0 1.036680 1_555
H6 N3 1.036680 1_555
H7 N2 1.036680 1_555
H8 N0 1.044557 1_555
H9 N1 1.044557 1_555
H10 N2 1.044557 1_555
H11 N3 1.044557 1_555
C0 H12 1.093032 1_555
C0 H17 1.093032 1_555
C0 H20 1.095366 1_555
C0 N0 1.487098 1_565
C1 H16 1.093032 1_555
C1 H13 1.093032 1_555
C1 H21 1.095366 1_555
C1 N1 1.487098 1_545
C2 H19 1.093032 1_655
C2 H14 1.093032 1_655
C2 H22 1.095366 1_555
C2 N2 1.487098 1_655
C3 H15 1.093032 1_455
C3 H18 1.093032 1_455
C3 H23 1.095366 1_555
C3 N3 1.487098 1_455
I0 Sn2 3.309558 1_555
I0 Sn0 3.309558 1_555
I1 Sn0 3.309558 1_556
I1 Sn2 3.309558 1_555
I2 Sn3 3.309558 1_655
I2 Sn1 3.309558 1_656
I3 Sn3 3.309558 1_565
I3 Sn1 3.309558 1_565
I4 Sn1 3.223232 1_666
I4 Sn0 3.223310 1_556
I5 Sn1 3.223232 1_555
I5 Sn0 3.223310 1_555
I6 Sn0 3.223232 1_555
I6 Sn1 3.223310 1_655
I7 Sn0 3.223232 1_556
I7 Sn1 3.223310 1_566
I8 Sn3 3.223232 1_555
I8 Sn2 3.223310 1_555
I9 Sn3 3.223232 1_665
I9 Sn2 3.223310 1_555
I10 Sn2 3.223232 1_555
I10 Sn3 3.223310 1_565
I11 Sn2 3.223232 1_555
I11 Sn3 3.223310 1_655
