# generated using pymatgen
data_HoCu4Ag
_symmetry_space_group_name_H-M   'P 1'
_cell_length_a   4.98900318
_cell_length_b   4.98900318
_cell_length_c   4.98900030
_cell_angle_alpha   59.99990464
_cell_angle_beta   59.99990464
_cell_angle_gamma   59.99992367
_symmetry_Int_Tables_number   1
_chemical_formula_structural   HoCu4Ag
_chemical_formula_sum   'Ho1 Cu4 Ag1'
_cell_volume   87.80620693
_cell_formula_units_Z   1
loop_
 _symmetry_equiv_pos_site_id
 _symmetry_equiv_pos_as_xyz
  1  'x, y, z'
loop_
 _atom_site_type_symbol
 _atom_site_label
 _atom_site_symmetry_multiplicity
 _atom_site_fract_x
 _atom_site_fract_y
 _atom_site_fract_z
 _atom_site_occupancy
  Ho  Ho0  1  0.75000000  0.75000000  0.75000000  1
  Cu  Cu0  1  0.37396169  0.37396169  0.37396169  1
  Cu  Cu1  1  0.87811294  0.37396269  0.37396269  1
  Cu  Cu2  1  0.37396269  0.87811294  0.37396269  1
  Cu  Cu3  1  0.37396269  0.37396269  0.87811294  1
  Ag  Ag0  1  -0.00000000  -0.00000000  -0.00000000  1
loop_
_geom_bond_atom_site_label_1
_geom_bond_atom_site_label_2
_geom_bond_distance
_geom_bond_site_symmetry_2
Cu0 Cu3 2.473785 1_554
Cu0 Cu1 2.473786 1_455
Cu0 Cu2 2.473786 1_545
Cu0 Cu3 2.515216 1_555
Cu0 Cu2 2.515217 1_555
Cu0 Cu1 2.515217 1_555
Cu0 Ho0 2.927293 1_554
Cu0 Ho0 2.927294 1_545
Cu0 Ho0 2.927294 1_455
Cu1 Cu3 2.473792 1_654
Cu1 Cu2 2.473793 1_645
Cu1 Cu3 2.515203 1_555
Cu1 Cu2 2.515204 1_555
Cu1 Ho0 2.927293 1_555
Cu1 Ho0 2.927294 1_554
Cu1 Ho0 2.927295 1_545
Cu2 Cu3 2.473792 1_564
Cu2 Cu3 2.515203 1_555
Cu2 Ho0 2.927293 1_555
Cu2 Ho0 2.927294 1_554
Cu2 Ho0 2.927295 1_455
Cu3 Ho0 2.927294 1_555
Cu3 Ho0 2.927296 1_545
Cu3 Ho0 2.927296 1_455
Ag0 Cu0 2.922875 1_554
Ag0 Cu2 2.922876 1_544
Ag0 Cu1 2.922876 1_454
Ag0 Cu0 2.922876 1_545
Ag0 Cu0 2.922876 1_455
Ag0 Cu1 2.922878 1_445
Ag0 Cu2 2.922878 1_445
Ag0 Cu3 2.922878 1_544
Ag0 Cu3 2.922878 1_454
Ag0 Cu1 2.922884 1_455
Ag0 Cu2 2.922884 1_545
Ag0 Cu3 2.922885 1_554
Ag0 Ho0 3.055122 1_445
Ag0 Ho0 3.055125 1_544
Ag0 Ho0 3.055125 1_454
Ag0 Ho0 3.055129 1_444
