# generated using pymatgen
data_Ti5CuSn3
_symmetry_space_group_name_H-M   'P 1'
_cell_length_a   8.16932309
_cell_length_b   8.16946661
_cell_length_c   5.56766013
_cell_angle_alpha   90.00017108
_cell_angle_beta   89.99989337
_cell_angle_gamma   119.99938946
_symmetry_Int_Tables_number   1
_chemical_formula_structural   Ti5CuSn3
_chemical_formula_sum   'Ti10 Cu2 Sn6'
_cell_volume   321.79981826
_cell_formula_units_Z   2
loop_
 _symmetry_equiv_pos_site_id
 _symmetry_equiv_pos_as_xyz
  1  'x, y, z'
loop_
 _atom_site_type_symbol
 _atom_site_label
 _atom_site_symmetry_multiplicity
 _atom_site_fract_x
 _atom_site_fract_y
 _atom_site_fract_z
 _atom_site_occupancy
  Ti  Ti0  1  0.26658710  1.00012064  0.74999771  1
  Ti  Ti1  1  0.73268830  1.00015098  0.24998284  1
  Ti  Ti2  1  0.00069310  0.26735544  0.75001244  1
  Ti  Ti3  1  0.00066439  0.73347846  0.25000943  1
  Ti  Ti4  1  0.73312575  0.73255606  0.75000279  1
  Ti  Ti5  1  0.26698021  0.26646749  0.24999870  1
  Ti  Ti6  1  0.33376075  0.66674809  0.50000240  1
  Ti  Ti7  1  0.66712562  0.33344539  0.49999890  1
  Ti  Ti8  1  0.66712468  0.33343931  0.00000359  1
  Ti  Ti9  1  0.33376598  0.66675166  1.00000013  1
  Cu  Cu0  1  -0.00240595  -0.00046994  0.49956272  1
  Cu  Cu1  1  -0.00240625  -0.00051505  1.00042609  1
  Sn  Sn0  1  0.61700442  1.00010066  0.74998466  1
  Sn  Sn1  1  0.38364014  1.00010625  0.25000253  1
  Sn  Sn2  1  0.00046244  0.61680050  0.75000643  1
  Sn  Sn3  1  0.00045107  0.38345253  0.25000431  1
  Sn  Sn4  1  0.38369809  0.38331450  0.75000173  1
  Sn  Sn5  1  0.61704018  0.61669704  0.25000262  1
loop_
_geom_bond_atom_site_label_1
_geom_bond_atom_site_label_2
_geom_bond_distance
_geom_bond_site_symmetry_2
Ti6 Ti9 2.783817 1_555
Ti6 Ti9 2.783843 1_554
Ti7 Ti8 2.783804 1_555
Ti7 Ti8 2.783856 1_556
Cu0 Ti1 2.573959 1_445
Cu0 Ti4 2.580107 1_445
Cu0 Ti2 2.583977 1_555
Cu0 Ti3 2.590316 1_545
Cu0 Ti5 2.594286 1_555
Cu0 Ti0 2.600495 1_545
Cu1 Ti1 2.574039 1_446
Cu1 Ti4 2.579896 1_445
Cu1 Ti2 2.584185 1_555
Cu1 Ti3 2.590103 1_546
Cu1 Ti5 2.594464 1_556
Cu1 Ti0 2.600318 1_545
Sn0 Ti2 2.783595 1_665
Sn0 Ti4 2.783983 1_555
Sn0 Ti0 2.862754 1_555
Sn0 Ti7 2.899299 1_565
Sn0 Ti8 2.899340 1_566
Sn0 Ti6 2.899374 1_555
Sn0 Ti9 2.899436 1_555
Sn0 Ti1 2.939798 1_556
Sn0 Ti1 2.939814 1_555
Sn1 Ti5 2.777978 1_565
Sn1 Ti3 2.778187 1_555
Sn1 Ti1 2.851305 1_555
Sn1 Ti8 2.899983 1_565
Sn1 Ti7 2.900002 1_565
Sn1 Ti9 2.900070 1_554
Sn1 Ti6 2.900081 1_555
Sn1 Ti0 2.943479 1_555
Sn1 Ti0 2.943533 1_554
Sn2 Ti0 2.779383 1_555
Sn2 Ti4 2.780144 1_455
Sn2 Ti2 2.855722 1_555
Sn2 Ti6 2.899435 1_555
Sn2 Ti9 2.899439 1_555
Sn2 Ti8 2.899654 1_456
Sn2 Ti7 2.899659 1_455
Sn2 Ti3 2.942218 1_555
Sn2 Ti3 2.942244 1_556
Sn3 Ti5 2.781216 1_555
Sn3 Ti1 2.782231 1_445
Sn3 Ti3 2.858654 1_555
Sn3 Ti6 2.899354 1_555
Sn3 Ti9 2.899405 1_554
Sn3 Ti7 2.899443 1_455
Sn3 Ti8 2.899453 1_455
Sn3 Ti2 2.941238 1_554
Sn3 Ti2 2.941329 1_555
Sn4 Ti0 2.778549 1_545
Sn4 Ti2 2.779094 1_555
Sn4 Ti4 2.853879 1_555
Sn4 Ti7 2.899630 1_555
Sn4 Ti8 2.899653 1_556
Sn4 Ti9 2.899995 1_555
Sn4 Ti6 2.900002 1_555
Sn4 Ti5 2.942760 1_556
Sn4 Ti5 2.942790 1_555
Sn5 Ti3 2.782440 1_655
Sn5 Ti1 2.783221 1_555
Sn5 Ti5 2.860497 1_555
Sn5 Ti7 2.899356 1_555
Sn5 Ti9 2.899364 1_554
Sn5 Ti6 2.899373 1_555
Sn5 Ti8 2.899395 1_555
Sn5 Ti4 2.940636 1_555
Sn5 Ti4 2.940636 1_554
