# generated using pymatgen
data_LiGa4(WO6)2
_symmetry_space_group_name_H-M   'P 1'
_cell_length_a   4.69531213
_cell_length_b   4.68825895
_cell_length_c   9.15527900
_cell_angle_alpha   89.99975964
_cell_angle_beta   89.99987145
_cell_angle_gamma   91.25314150
_symmetry_Int_Tables_number   1
_chemical_formula_structural   LiGa4(WO6)2
_chemical_formula_sum   'Li1 Ga4 W2 O12'
_cell_volume   201.48548299
_cell_formula_units_Z   1
loop_
 _symmetry_equiv_pos_site_id
 _symmetry_equiv_pos_as_xyz
  1  'x, y, z'
loop_
 _atom_site_type_symbol
 _atom_site_label
 _atom_site_symmetry_multiplicity
 _atom_site_fract_x
 _atom_site_fract_y
 _atom_site_fract_z
 _atom_site_occupancy
  Li  Li0  1  0.50001200  0.00001400  0.24985300  1
  Ga  Ga0  1  0.00001100  0.00001300  0.34047700  1
  Ga  Ga1  1  0.00001600  0.00001700  0.66548200  1
  Ga  Ga2  1  0.50003100  0.50002200  0.15918700  1
  Ga  Ga3  1  0.50003000  0.50003000  0.83765700  1
  W  W0  1  0.00003200  0.00003400  0.99621500  1
  W  W1  1  0.50001100  0.50001400  0.50557600  1
  O  O0  1  0.20051000  0.19294300  0.17089700  1
  O  O1  1  0.19729000  0.19811500  0.82922700  1
  O  O2  1  0.20002700  0.19924600  0.49936200  1
  O  O3  1  0.29821500  0.70336200  0.00147000  1
  O  O4  1  0.31132400  0.69658600  0.33966000  1
  O  O5  1  0.30507600  0.69380100  0.65716000  1
  O  O6  1  0.68870200  0.30344000  0.33966000  1
  O  O7  1  0.69495000  0.30622600  0.65716000  1
  O  O8  1  0.70186200  0.29671300  0.00146900  1
  O  O9  1  0.79999300  0.80077500  0.49936200  1
  O  O10  1  0.79954000  0.80711400  0.17089800  1
  O  O11  1  0.80276600  0.80194000  0.82922800  1
loop_
_geom_bond_atom_site_label_1
_geom_bond_atom_site_label_2
_geom_bond_distance
_geom_bond_site_symmetry_2
Li0 O0 1.836802 1_555
Li0 O10 1.836825 1_545
Li0 O4 1.851875 1_545
Li0 O6 1.851879 1_555
Ga0 O2 1.957564 1_555
Ga0 O9 1.957570 1_445
Ga0 O10 2.019168 1_445
Ga0 O0 2.019290 1_555
Ga0 O6 2.061840 1_455
Ga0 O4 2.061853 1_545
Ga1 O11 1.982399 1_445
Ga1 O1 1.982498 1_555
Ga1 O2 2.007246 1_555
Ga1 O9 2.007309 1_445
Ga1 O7 2.051431 1_455
Ga1 O5 2.051435 1_545
Ga2 O8 1.982699 1_555
Ga2 O3 1.982727 1_555
Ga2 O0 1.993333 1_555
Ga2 O10 1.993339 1_555
Ga2 O6 2.097593 1_555
Ga2 O4 2.097631 1_555
Ga3 O11 1.985420 1_555
Ga3 O1 1.985451 1_555
Ga3 O8 2.023710 1_556
Ga3 O3 2.023715 1_556
Ga3 O5 2.104829 1_555
Ga3 O7 2.104829 1_555
O0 W0 2.055343 1_554
O1 W0 2.004964 1_555
O2 W1 1.971956 1_555
O3 W0 1.995544 1_564
O4 W1 1.994316 1_555
O5 W1 1.904075 1_555
O6 W1 1.994332 1_555
O7 W1 1.904084 1_555
O8 W0 1.995524 1_654
O9 W1 1.971926 1_555
O10 W0 2.055392 1_664
O11 W0 2.005011 1_665
