# generated using pymatgen
data_Tm(SiPt)2
_symmetry_space_group_name_H-M   'P 1'
_cell_length_a   5.86532525
_cell_length_b   5.86532525
_cell_length_c   5.86532525
_cell_angle_alpha   138.41303732
_cell_angle_beta   138.41303732
_cell_angle_gamma   60.27099812
_symmetry_Int_Tables_number   1
_chemical_formula_structural   Tm(SiPt)2
_chemical_formula_sum   'Tm1 Si2 Pt2'
_cell_volume   87.96917260
_cell_formula_units_Z   1
loop_
 _symmetry_equiv_pos_site_id
 _symmetry_equiv_pos_as_xyz
  1  'x, y, z'
loop_
 _atom_site_type_symbol
 _atom_site_label
 _atom_site_symmetry_multiplicity
 _atom_site_fract_x
 _atom_site_fract_y
 _atom_site_fract_z
 _atom_site_occupancy
  Tm  Tm0  1  0.00000000  0.00000000  0.00000000  1
  Si  Si0  1  0.25000000  0.75000000  0.50000000  1
  Si  Si1  1  0.75000000  0.25000000  0.50000000  1
  Pt  Pt0  1  0.63165200  0.63165200  0.00000000  1
  Pt  Pt1  1  0.36834800  0.36834800  0.00000000  1
loop_
_geom_bond_atom_site_label_1
_geom_bond_atom_site_label_2
_geom_bond_distance
_geom_bond_site_symmetry_2
Si0 Tm0 3.281505 1_555
Si0 Tm0 3.281505 1_565
Si0 Tm0 3.281505 1_566
Si0 Tm0 3.281505 1_666
Si1 Tm0 3.281505 1_666
Si1 Tm0 3.281505 1_655
Si1 Tm0 3.281505 1_656
Si1 Tm0 3.281505 1_555
Pt0 Si1 2.403562 1_565
Pt0 Si0 2.403562 1_655
Pt0 Si0 2.403562 1_554
Pt0 Si1 2.403562 1_554
Pt0 Tm0 3.233414 1_666
Pt0 Tm0 3.233414 1_554
Pt0 Tm0 3.233414 1_565
Pt0 Tm0 3.233414 1_655
Pt1 Si0 2.403562 1_544
Pt1 Si1 2.403562 1_454
Pt1 Si1 2.403562 1_555
Pt1 Si0 2.403562 1_555
Pt1 Tm0 3.233414 1_666
Pt1 Tm0 3.233414 1_554
Pt1 Tm0 3.233414 1_565
Pt1 Tm0 3.233414 1_655
