# generated using pymatgen
data_LaMg6Mn
_symmetry_space_group_name_H-M   'P 1'
_cell_length_a   5.11611500
_cell_length_b   6.63030400
_cell_length_c   11.51602800
_cell_angle_alpha   90.00000000
_cell_angle_beta   90.00000000
_cell_angle_gamma   90.00000000
_symmetry_Int_Tables_number   1
_chemical_formula_structural   LaMg6Mn
_chemical_formula_sum   'La2 Mg12 Mn2'
_cell_volume   390.63976628
_cell_formula_units_Z   2
loop_
 _symmetry_equiv_pos_site_id
 _symmetry_equiv_pos_as_xyz
  1  'x, y, z'
loop_
 _atom_site_type_symbol
 _atom_site_label
 _atom_site_symmetry_multiplicity
 _atom_site_fract_x
 _atom_site_fract_y
 _atom_site_fract_z
 _atom_site_occupancy
  La  La0  1  0.50000000  0.50000000  0.17486600  1
  La  La1  1  0.50000000  0.00000000  0.67486600  1
  Mg  Mg0  1  0.00000000  0.76101100  0.07749200  1
  Mg  Mg1  1  0.00000000  0.23898900  0.07749200  1
  Mg  Mg2  1  0.00000000  0.00000000  0.33332100  1
  Mg  Mg3  1  0.50000000  0.26123100  0.41908000  1
  Mg  Mg4  1  0.50000000  0.73876900  0.41908000  1
  Mg  Mg5  1  0.50000000  0.00000000  0.16254800  1
  Mg  Mg6  1  0.00000000  0.26101100  0.57749200  1
  Mg  Mg7  1  0.00000000  0.73898900  0.57749200  1
  Mg  Mg8  1  0.00000000  0.50000000  0.83332100  1
  Mg  Mg9  1  0.50000000  0.76123100  0.91908000  1
  Mg  Mg10  1  0.50000000  0.23876900  0.91908000  1
  Mg  Mg11  1  0.50000000  0.50000000  0.66254800  1
  Mn  Mn0  1  0.00000000  0.50000000  0.33612200  1
  Mn  Mn1  1  0.00000000  0.00000000  0.83612200  1
loop_
_geom_bond_atom_site_label_1
_geom_bond_atom_site_label_2
_geom_bond_distance
_geom_bond_site_symmetry_2
La0 Mn0 3.161046 1_555
La0 Mn0 3.161046 1_655
La0 Mg3 3.227336 1_555
La0 Mg4 3.227336 1_555
La0 Mg1 3.285731 1_655
La0 Mg0 3.285731 1_555
La0 Mg0 3.285731 1_655
La0 Mg1 3.285731 1_555
La0 Mg5 3.318186 1_565
La0 Mg5 3.318186 1_555
La0 Mg9 3.417126 1_554
La0 Mg10 3.417126 1_554
La1 Mn1 3.161046 1_555
La1 Mn1 3.161046 1_655
La1 Mg9 3.227336 1_545
La1 Mg10 3.227336 1_555
La1 Mg6 3.285731 1_555
La1 Mg7 3.285731 1_645
La1 Mg7 3.285731 1_545
La1 Mg6 3.285731 1_655
La1 Mg11 3.318186 1_555
La1 Mg11 3.318186 1_545
La1 Mg3 3.417126 1_555
La1 Mg4 3.417126 1_545
Mg0 Mg9 3.141918 1_554
Mg0 Mg9 3.141918 1_454
Mg0 Mg5 3.164483 1_465
Mg0 Mg5 3.164483 1_565
Mg0 Mg1 3.169139 1_565
Mg0 Mn1 3.199558 1_564
Mg0 Mg8 3.301755 1_554
Mg0 Mg2 3.345230 1_565
Mg0 Mn0 3.444666 1_555
Mg0 Mg1 3.461165 1_555
Mg1 Mg10 3.141918 1_454
Mg1 Mg10 3.141918 1_554
Mg1 Mg5 3.164483 1_455
Mg1 Mg5 3.164483 1_555
Mg1 Mn1 3.199558 1_554
Mg1 Mg8 3.301755 1_554
Mg1 Mg2 3.345230 1_555
Mg1 Mn0 3.444666 1_555
Mg2 Mg5 3.226651 1_555
Mg2 Mg5 3.226651 1_455
Mg2 Mg3 3.243298 1_555
Mg2 Mg4 3.243298 1_545
Mg2 Mg3 3.243298 1_455
Mg2 Mg4 3.243298 1_445
Mg2 Mg7 3.301755 1_545
Mg2 Mg6 3.301755 1_555
Mg2 Mn0 3.315309 1_545
Mg2 Mn0 3.315309 1_555
Mg3 Mg6 3.141918 1_655
Mg3 Mg6 3.141918 1_555
Mg3 Mn0 3.156356 1_555
Mg3 Mn0 3.156356 1_655
Mg3 Mg4 3.166222 1_555
Mg3 Mg5 3.424535 1_555
Mg3 Mg4 3.464082 1_545
Mg4 Mg7 3.141918 1_555
Mg4 Mg7 3.141918 1_655
Mg4 Mn0 3.156356 1_555
Mg4 Mn0 3.156356 1_655
Mg4 Mg5 3.424535 1_565
Mg5 Mg9 3.219852 1_544
Mg6 Mg7 3.169139 1_555
Mg6 Mn0 3.199558 1_555
Mg6 Mg8 3.345230 1_555
Mg6 Mn1 3.444666 1_555
Mg6 Mg7 3.461165 1_545
Mg7 Mn0 3.199558 1_555
Mg7 Mg8 3.345230 1_555
Mg7 Mn1 3.444666 1_565
Mg8 Mg9 3.243298 1_455
Mg8 Mg9 3.243298 1_555
Mg8 Mn1 3.315309 1_555
Mg8 Mn1 3.315309 1_565
Mg9 Mn1 3.156356 1_665
Mg9 Mn1 3.156356 1_565
Mg10 Mn1 3.156356 1_555
Mg10 Mn1 3.156356 1_655
Mg10 Mg9 3.166222 1_545
Mg10 Mg5 3.219852 1_556
Mg10 Mg8 3.243298 1_555
Mg10 Mg8 3.243298 1_655
Mg10 Mg11 3.424535 1_555
Mg10 Mg9 3.464082 1_555
Mg11 Mg6 3.164483 1_655
Mg11 Mg7 3.164483 1_555
Mg11 Mg7 3.164483 1_655
Mg11 Mg6 3.164483 1_555
Mg11 Mg3 3.219852 1_555
Mg11 Mg4 3.219852 1_555
Mg11 Mg8 3.226651 1_555
Mg11 Mg8 3.226651 1_655
Mg11 Mg9 3.424535 1_555
