# generated using pymatgen
data_Li2SiNiO4
_symmetry_space_group_name_H-M   'P 1'
_cell_length_a   5.22819275
_cell_length_b   12.53650747
_cell_length_c   5.36732564
_cell_angle_alpha   88.28307032
_cell_angle_beta   92.64168365
_cell_angle_gamma   90.63595669
_symmetry_Int_Tables_number   1
_chemical_formula_structural   Li2SiNiO4
_chemical_formula_sum   'Li8 Si4 Ni4 O16'
_cell_volume   351.24385839
_cell_formula_units_Z   4
loop_
 _symmetry_equiv_pos_site_id
 _symmetry_equiv_pos_as_xyz
  1  'x, y, z'
loop_
 _atom_site_type_symbol
 _atom_site_label
 _atom_site_symmetry_multiplicity
 _atom_site_fract_x
 _atom_site_fract_y
 _atom_site_fract_z
 _atom_site_occupancy
  Li  Li0  1  0.18989600  0.37418600  0.17345900  1
  Li  Li1  1  0.18852300  0.87398100  0.17138500  1
  Li  Li2  1  0.81008300  0.12599500  0.82483200  1
  Li  Li3  1  0.81091300  0.62618000  0.82438600  1
  Li  Li4  1  0.68741000  0.24641000  0.31843400  1
  Li  Li5  1  0.69236000  0.74533700  0.31166400  1
  Li  Li6  1  0.31307600  0.00508200  0.68735500  1
  Li  Li7  1  0.31171800  0.50428400  0.68593600  1
  Si  Si0  1  0.17562700  0.12425400  0.17748200  1
  Si  Si1  1  0.18140800  0.62366300  0.17075600  1
  Si  Si2  1  0.81884300  0.37654200  0.82856100  1
  Si  Si3  1  0.82405300  0.87584800  0.82222000  1
  Ni  Ni0  1  0.68573800  0.49458000  0.32912400  1
  Ni  Ni1  1  0.31651700  0.75435700  0.66641800  1
  Ni  Ni2  1  0.68043500  0.99325000  0.32306000  1
  Ni  Ni3  1  0.31069100  0.25420600  0.67283500  1
  O  O0  1  0.78289100  0.37420900  0.13233100  1
  O  O1  1  0.78909200  0.87305800  0.12669300  1
  O  O2  1  0.21032900  0.12790400  0.87185400  1
  O  O3  1  0.21681600  0.62809200  0.86538300  1
  O  O4  1  0.86180300  0.12263200  0.21010600  1
  O  O5  1  0.86748700  0.62145500  0.20125900  1
  O  O6  1  0.13317300  0.37668800  0.80174100  1
  O  O7  1  0.13855700  0.87636200  0.79710100  1
  O  O8  1  0.30281900  0.01487400  0.30708200  1
  O  O9  1  0.30711800  0.51442200  0.30333200  1
  O  O10  1  0.69252800  0.26934300  0.69686100  1
  O  O11  1  0.69864700  0.76897200  0.68842800  1
  O  O12  1  0.30595100  0.23076400  0.30695300  1
  O  O13  1  0.30973200  0.73052800  0.30078000  1
  O  O14  1  0.69433400  0.48671700  0.70108900  1
  O  O15  1  0.69702700  0.98583200  0.69551000  1
loop_
_geom_bond_atom_site_label_1
_geom_bond_atom_site_label_2
_geom_bond_distance
_geom_bond_site_symmetry_2
Li0 O9 1.990591 1_555
Li0 O6 2.002847 1_554
Li0 O12 2.005324 1_555
Li0 O0 2.129178 1_455
Li1 O8 2.005224 1_565
Li1 O13 2.006999 1_555
Li1 O7 2.013215 1_554
Li1 O1 2.090965 1_455
Li2 O15 1.982667 1_545
Li2 O10 1.997664 1_555
Li2 O4 2.072330 1_556
Li2 O2 2.096106 1_655
Li3 O14 1.968441 1_555
Li3 O11 1.996769 1_555
Li3 O5 2.029969 1_556
Li3 O3 2.123349 1_655
Li4 O4 1.926556 1_555
Li4 O0 1.935498 1_555
Li4 O12 2.000095 1_555
Li4 O10 2.058815 1_555
Li5 O5 1.933430 1_555
Li5 O1 1.933450 1_555
Li5 O13 2.005324 1_555
Li5 O11 2.051290 1_555
Li6 O7 1.934788 1_545
Li6 O2 1.949055 1_555
Li6 O15 2.022798 1_545
Li6 O8 2.039331 1_555
Li7 O3 1.932264 1_555
Li7 O6 1.943504 1_555
Li7 O14 2.012557 1_555
Li7 O9 2.052734 1_555
Ni0 O0 1.952646 1_555
Ni0 O5 1.965954 1_555
Ni0 O14 1.994395 1_555
Ni0 O9 1.995761 1_555
Ni1 O3 1.962010 1_555
Ni1 O7 1.962933 1_555
Ni1 O13 1.992580 1_555
Ni1 O11 2.002584 1_555
Ni2 O4 1.964049 1_565
Ni2 O1 1.968076 1_555
Ni2 O8 1.993335 1_565
Ni2 O15 1.996364 1_555
Ni3 O6 1.962728 1_555
Ni3 O2 1.963506 1_555
Ni3 O12 1.993353 1_555
Ni3 O10 2.001812 1_555
O0 Si2 1.649171 1_554
O1 Si3 1.652038 1_554
O2 Si0 1.657918 1_556
O3 Si1 1.657130 1_556
O4 Si0 1.657892 1_655
O5 Si1 1.656722 1_655
O6 Si2 1.656243 1_455
O7 Si3 1.655913 1_455
O8 Si0 1.651310 1_555
O9 Si1 1.652970 1_555
O10 Si2 1.654105 1_555
O11 Si3 1.653936 1_555
O12 Si0 1.649801 1_555
O13 Si1 1.650726 1_555
O14 Si2 1.649809 1_555
O15 Si3 1.651427 1_555
