# generated using pymatgen
data_Tb5Pb3
_symmetry_space_group_name_H-M   'P 1'
_cell_length_a   6.66776481
_cell_length_b   9.04798111
_cell_length_c   9.04799915
_cell_angle_alpha   120.00000439
_cell_angle_beta   89.99999897
_cell_angle_gamma   89.99999980
_symmetry_Int_Tables_number   1
_chemical_formula_structural   Tb5Pb3
_chemical_formula_sum   'Tb10 Pb6'
_cell_volume   472.73213082
_cell_formula_units_Z   2
loop_
 _symmetry_equiv_pos_site_id
 _symmetry_equiv_pos_as_xyz
  1  'x, y, z'
loop_
 _atom_site_type_symbol
 _atom_site_label
 _atom_site_symmetry_multiplicity
 _atom_site_fract_x
 _atom_site_fract_y
 _atom_site_fract_z
 _atom_site_occupancy
  Tb  Tb0  1  0.50000003  0.33333380  0.66667033  1
  Tb  Tb1  1  0.50000007  0.66666392  0.33332966  1
  Tb  Tb2  1  0.00000003  0.66666619  0.33332965  1
  Tb  Tb3  1  0.00000006  0.33333611  0.66667039  1
  Tb  Tb4  1  0.74999985  0.23806844  -0.00000292  1
  Tb  Tb5  1  0.74999928  0.76192809  0.76193036  1
  Tb  Tb6  1  0.74999933  0.00000567  0.23807407  1
  Tb  Tb7  1  0.24999982  0.76192793  0.99999568  1
  Tb  Tb8  1  0.24999928  0.23806829  0.23807324  1
  Tb  Tb9  1  0.24999932  0.00000155  0.76192953  1
  Pb  Pb0  1  0.74999824  0.60625248  -0.00000485  1
  Pb  Pb1  1  0.75000112  0.39374507  0.39374952  1
  Pb  Pb2  1  0.75000112  0.00000553  0.60625640  1
  Pb  Pb3  1  0.24999821  0.39374257  -0.00000504  1
  Pb  Pb4  1  0.25000112  0.60624995  0.60625541  1
  Pb  Pb5  1  0.25000112  0.00000439  0.39374856  1
loop_
_geom_bond_atom_site_label_1
_geom_bond_atom_site_label_2
_geom_bond_distance
_geom_bond_site_symmetry_2
Pb0 Tb5 3.107701 1_554
Pb0 Tb6 3.107805 1_565
Pb0 Tb0 3.244193 1_554
Pb0 Tb3 3.244199 1_654
Pb0 Tb1 3.244255 1_555
Pb0 Tb2 3.244261 1_655
Pb0 Tb4 3.331331 1_555
Pb0 Tb7 3.619213 1_554
Pb0 Tb7 3.619233 1_654
Pb1 Tb6 3.107688 1_555
Pb1 Tb4 3.107802 1_555
Pb1 Tb3 3.244227 1_655
Pb1 Tb0 3.244246 1_555
Pb1 Tb1 3.244270 1_555
Pb1 Tb2 3.244280 1_655
Pb1 Tb5 3.331306 1_555
Pb1 Tb8 3.619217 1_655
Pb1 Tb8 3.619239 1_555
Pb2 Tb4 3.107702 1_556
Pb2 Tb5 3.107792 1_545
Pb2 Tb0 3.244205 1_555
Pb2 Tb3 3.244215 1_655
Pb2 Tb2 3.244287 1_645
Pb2 Tb1 3.244306 1_545
Pb2 Tb6 3.331314 1_555
Pb2 Tb9 3.619213 1_655
Pb2 Tb9 3.619235 1_555
Pb3 Tb9 3.107702 1_554
Pb3 Tb8 3.107803 1_555
Pb3 Tb3 3.244192 1_554
Pb3 Tb0 3.244199 1_554
Pb3 Tb2 3.244255 1_555
Pb3 Tb1 3.244262 1_555
Pb3 Tb7 3.331331 1_554
Pb3 Tb4 3.619213 1_455
Pb3 Tb4 3.619233 1_555
Pb4 Tb7 3.107699 1_555
Pb4 Tb9 3.107791 1_565
Pb4 Tb3 3.244207 1_555
Pb4 Tb0 3.244217 1_555
Pb4 Tb1 3.244289 1_555
Pb4 Tb2 3.244308 1_555
Pb4 Tb8 3.331306 1_555
Pb4 Tb5 3.619217 1_555
Pb4 Tb5 3.619239 1_455
Pb5 Tb8 3.107689 1_555
Pb5 Tb7 3.107805 1_544
Pb5 Tb0 3.244225 1_555
Pb5 Tb3 3.244244 1_555
Pb5 Tb2 3.244267 1_545
Pb5 Tb1 3.244277 1_545
Pb5 Tb9 3.331314 1_555
Pb5 Tb6 3.619213 1_555
Pb5 Tb6 3.619235 1_455
