# generated using pymatgen
data_Mg30CoCuO32
_symmetry_space_group_name_H-M   'P 1'
_cell_length_a   8.50737300
_cell_length_b   8.50737300
_cell_length_c   8.50240000
_cell_angle_alpha   90.00000000
_cell_angle_beta   90.00000000
_cell_angle_gamma   90.00000000
_symmetry_Int_Tables_number   1
_chemical_formula_structural   Mg30CoCuO32
_chemical_formula_sum   'Mg30 Co1 Cu1 O32'
_cell_volume   615.36456152
_cell_formula_units_Z   1
loop_
 _symmetry_equiv_pos_site_id
 _symmetry_equiv_pos_as_xyz
  1  'x, y, z'
loop_
 _atom_site_type_symbol
 _atom_site_label
 _atom_site_symmetry_multiplicity
 _atom_site_fract_x
 _atom_site_fract_y
 _atom_site_fract_z
 _atom_site_occupancy
  Mg  Mg0  1  0.00000000  0.50000000  0.00000000  1
  Mg  Mg1  1  0.00000000  0.50000000  0.50000000  1
  Mg  Mg2  1  0.50000000  0.00000000  0.00000000  1
  Mg  Mg3  1  0.50000000  0.00000000  0.50000000  1
  Mg  Mg4  1  0.50000000  0.50000000  0.00000000  1
  Mg  Mg5  1  0.50000000  0.50000000  0.50000000  1
  Mg  Mg6  1  0.00000000  0.24700800  0.24875200  1
  Mg  Mg7  1  0.00000000  0.24700800  0.75124800  1
  Mg  Mg8  1  0.00000000  0.75299200  0.24875200  1
  Mg  Mg9  1  0.00000000  0.75299200  0.75124800  1
  Mg  Mg10  1  0.50000000  0.24917700  0.25030800  1
  Mg  Mg11  1  0.50000000  0.24917700  0.74969200  1
  Mg  Mg12  1  0.50000000  0.75082300  0.25030800  1
  Mg  Mg13  1  0.50000000  0.75082300  0.74969200  1
  Mg  Mg14  1  0.24700800  0.00000000  0.24875200  1
  Mg  Mg15  1  0.24700800  0.00000000  0.75124800  1
  Mg  Mg16  1  0.24917700  0.50000000  0.25030800  1
  Mg  Mg17  1  0.24917700  0.50000000  0.74969200  1
  Mg  Mg18  1  0.75299200  0.00000000  0.24875200  1
  Mg  Mg19  1  0.75299200  0.00000000  0.75124800  1
  Mg  Mg20  1  0.75082300  0.50000000  0.25030800  1
  Mg  Mg21  1  0.75082300  0.50000000  0.74969200  1
  Mg  Mg22  1  0.24877300  0.24877300  0.00000000  1
  Mg  Mg23  1  0.24800100  0.24800100  0.50000000  1
  Mg  Mg24  1  0.24877300  0.75122700  0.00000000  1
  Mg  Mg25  1  0.24800100  0.75199900  0.50000000  1
  Mg  Mg26  1  0.75122700  0.24877300  0.00000000  1
  Mg  Mg27  1  0.75199900  0.24800100  0.50000000  1
  Mg  Mg28  1  0.75122700  0.75122700  0.00000000  1
  Mg  Mg29  1  0.75199900  0.75199900  0.50000000  1
  Co  Co0  1  0.00000000  0.00000000  0.50000000  1
  Cu  Cu0  1  0.00000000  0.00000000  0.00000000  1
  O  O0  1  0.25844200  0.00000000  0.00000000  1
  O  O1  1  0.23999400  0.00000000  0.50000000  1
  O  O2  1  0.25058700  0.50000000  0.00000000  1
  O  O3  1  0.24761800  0.50000000  0.50000000  1
  O  O4  1  0.74155800  0.00000000  0.00000000  1
  O  O5  1  0.76000600  0.00000000  0.50000000  1
  O  O6  1  0.74941300  0.50000000  0.00000000  1
  O  O7  1  0.75238200  0.50000000  0.50000000  1
  O  O8  1  0.24939400  0.24939400  0.25078800  1
  O  O9  1  0.24939400  0.24939400  0.74921200  1
  O  O10  1  0.24939400  0.75060600  0.25078800  1
  O  O11  1  0.24939400  0.75060600  0.74921200  1
  O  O12  1  0.75060600  0.24939400  0.25078800  1
  O  O13  1  0.75060600  0.24939400  0.74921200  1
  O  O14  1  0.75060600  0.75060600  0.25078800  1
  O  O15  1  0.75060600  0.75060600  0.74921200  1
  O  O16  1  0.00000000  0.00000000  0.24191300  1
  O  O17  1  0.00000000  0.00000000  0.75808700  1
  O  O18  1  0.00000000  0.50000000  0.25453900  1
  O  O19  1  0.00000000  0.50000000  0.74546100  1
  O  O20  1  0.50000000  0.00000000  0.25453900  1
  O  O21  1  0.50000000  0.00000000  0.74546100  1
  O  O22  1  0.50000000  0.50000000  0.25169800  1
  O  O23  1  0.50000000  0.50000000  0.74830200  1
  O  O24  1  0.00000000  0.25844200  0.00000000  1
  O  O25  1  0.00000000  0.23999400  0.50000000  1
  O  O26  1  0.00000000  0.74155800  0.00000000  1
  O  O27  1  0.00000000  0.76000600  0.50000000  1
  O  O28  1  0.50000000  0.25058700  0.00000000  1
  O  O29  1  0.50000000  0.24761800  0.50000000  1
  O  O30  1  0.50000000  0.74941300  0.00000000  1
  O  O31  1  0.50000000  0.75238200  0.50000000  1
loop_
_geom_bond_atom_site_label_1
_geom_bond_atom_site_label_2
_geom_bond_distance
_geom_bond_site_symmetry_2
Mg0 O26 2.055024 1_555
Mg0 O24 2.055024 1_555
Mg0 O6 2.131837 1_455
Mg0 O2 2.131837 1_555
Mg0 O18 2.164192 1_555
Mg0 O19 2.164192 1_554
Mg1 O19 2.087008 1_555
Mg1 O18 2.087008 1_555
Mg1 O3 2.106579 1_555
Mg1 O7 2.106579 1_455
Mg1 O27 2.211968 1_555
Mg1 O25 2.211968 1_555
Mg2 O4 2.055024 1_555
Mg2 O0 2.055024 1_555
Mg2 O30 2.131837 1_545
Mg2 O28 2.131837 1_555
Mg2 O20 2.164192 1_555
Mg2 O21 2.164192 1_554
Mg3 O21 2.087008 1_555
Mg3 O20 2.087008 1_555
Mg3 O29 2.106579 1_555
Mg3 O31 2.106579 1_545
Mg3 O5 2.211968 1_555
Mg3 O1 2.211968 1_555
Mg4 O30 2.121849 1_555
Mg4 O2 2.121849 1_555
Mg4 O28 2.121849 1_555
Mg4 O6 2.121849 1_555
Mg4 O22 2.140037 1_555
Mg4 O23 2.140037 1_554
Mg5 O23 2.111163 1_555
Mg5 O22 2.111163 1_555
Mg5 O31 2.147108 1_555
Mg5 O7 2.147108 1_555
Mg5 O3 2.147108 1_555
Mg5 O29 2.147108 1_555
Mg6 O16 2.102194 1_555
Mg6 O24 2.117225 1_555
Mg6 O8 2.121855 1_555
Mg6 O12 2.121855 1_455
Mg6 O25 2.137044 1_555
Mg6 O18 2.152860 1_555
Mg7 O17 2.102194 1_555
Mg7 O24 2.117225 1_556
Mg7 O9 2.121855 1_555
Mg7 O13 2.121855 1_455
Mg7 O25 2.137044 1_555
Mg7 O19 2.152860 1_555
Mg8 O16 2.102194 1_565
Mg8 O26 2.117225 1_555
Mg8 O10 2.121855 1_555
Mg8 O14 2.121855 1_455
Mg8 O27 2.137044 1_555
Mg8 O18 2.152860 1_555
Mg9 O17 2.102194 1_565
Mg9 O26 2.117225 1_556
Mg9 O11 2.121855 1_555
Mg9 O15 2.121855 1_455
Mg9 O27 2.137044 1_555
Mg9 O19 2.152860 1_555
Mg10 O20 2.120147 1_555
Mg10 O29 2.123023 1_555
Mg10 O28 2.128253 1_555
Mg10 O12 2.132003 1_555
Mg10 O8 2.132003 1_555
Mg10 O22 2.133878 1_555
Mg11 O21 2.120147 1_555
Mg11 O29 2.123023 1_555
Mg11 O28 2.128253 1_556
Mg11 O13 2.132003 1_555
Mg11 O9 2.132003 1_555
Mg11 O23 2.133878 1_555
Mg12 O20 2.120147 1_565
Mg12 O31 2.123023 1_555
Mg12 O30 2.128253 1_555
Mg12 O14 2.132003 1_555
Mg12 O10 2.132003 1_555
Mg12 O22 2.133878 1_555
Mg13 O21 2.120147 1_565
Mg13 O31 2.123023 1_555
Mg13 O30 2.128253 1_556
Mg13 O15 2.132003 1_555
Mg13 O11 2.132003 1_555
Mg13 O23 2.133878 1_555
Mg14 O16 2.102194 1_555
Mg14 O0 2.117225 1_555
Mg14 O8 2.121855 1_555
Mg14 O10 2.121855 1_545
Mg14 O1 2.137044 1_555
Mg14 O20 2.152860 1_555
Mg15 O17 2.102194 1_555
Mg15 O0 2.117225 1_556
Mg15 O9 2.121855 1_555
Mg15 O11 2.121855 1_545
Mg15 O1 2.137044 1_555
Mg15 O21 2.152860 1_555
Mg16 O18 2.120147 1_555
Mg16 O3 2.123023 1_555
Mg16 O2 2.128253 1_555
Mg16 O10 2.132003 1_555
Mg16 O8 2.132003 1_555
Mg16 O22 2.133878 1_555
Mg17 O19 2.120147 1_555
Mg17 O3 2.123023 1_555
Mg17 O2 2.128253 1_556
Mg17 O11 2.132003 1_555
Mg17 O9 2.132003 1_555
Mg17 O23 2.133878 1_555
Mg18 O16 2.102194 1_655
Mg18 O4 2.117225 1_555
Mg18 O12 2.121855 1_555
Mg18 O14 2.121855 1_545
Mg18 O5 2.137044 1_555
Mg18 O20 2.152860 1_555
Mg19 O17 2.102194 1_655
Mg19 O4 2.117225 1_556
Mg19 O13 2.121855 1_555
Mg19 O15 2.121855 1_545
Mg19 O5 2.137044 1_555
Mg19 O21 2.152860 1_555
Mg20 O18 2.120147 1_655
Mg20 O7 2.123023 1_555
Mg20 O6 2.128253 1_555
Mg20 O14 2.132003 1_555
Mg20 O12 2.132003 1_555
Mg20 O22 2.133878 1_555
Mg21 O19 2.120147 1_655
Mg21 O7 2.123023 1_555
Mg21 O6 2.128253 1_556
Mg21 O15 2.132003 1_555
Mg21 O13 2.132003 1_555
Mg21 O23 2.133878 1_555
Mg22 O24 2.118003 1_555
Mg22 O0 2.118003 1_555
Mg22 O8 2.132313 1_555
Mg22 O9 2.132313 1_554
Mg22 O28 2.137338 1_555
Mg22 O2 2.137338 1_555
Mg23 O25 2.110936 1_555
Mg23 O1 2.110936 1_555
Mg23 O9 2.118966 1_555
Mg23 O8 2.118966 1_555
Mg23 O3 2.143852 1_555
Mg23 O29 2.143852 1_555
Mg24 O26 2.118003 1_555
Mg24 O0 2.118003 1_565
Mg24 O10 2.132313 1_555
Mg24 O11 2.132313 1_554
Mg24 O30 2.137338 1_555
Mg24 O2 2.137338 1_555
Mg25 O27 2.110936 1_555
Mg25 O1 2.110936 1_565
Mg25 O10 2.118966 1_555
Mg25 O11 2.118966 1_555
Mg25 O31 2.143852 1_555
Mg25 O3 2.143852 1_555
Mg26 O4 2.118003 1_555
Mg26 O24 2.118003 1_655
Mg26 O13 2.132313 1_554
Mg26 O12 2.132313 1_555
Mg26 O28 2.137338 1_555
Mg26 O6 2.137338 1_555
Mg27 O5 2.110936 1_555
Mg27 O25 2.110936 1_655
Mg27 O13 2.118966 1_555
Mg27 O12 2.118966 1_555
Mg27 O7 2.143852 1_555
Mg27 O29 2.143852 1_555
Mg28 O26 2.118003 1_655
Mg28 O4 2.118003 1_565
Mg28 O15 2.132313 1_554
Mg28 O14 2.132313 1_555
Mg28 O6 2.137338 1_555
Mg28 O30 2.137338 1_555
Mg29 O27 2.110936 1_655
Mg29 O5 2.110936 1_565
Mg29 O14 2.118966 1_555
Mg29 O15 2.118966 1_555
Mg29 O31 2.143852 1_555
Mg29 O7 2.143852 1_555
Co0 O25 2.041718 1_555
Co0 O1 2.041718 1_555
Co0 O27 2.041718 1_545
Co0 O5 2.041718 1_455
Co0 O17 2.194359 1_555
Co0 O16 2.194359 1_555
Cu0 O16 2.056841 1_555
Cu0 O17 2.056841 1_554
Cu0 O0 2.198662 1_555
Cu0 O24 2.198662 1_555
Cu0 O4 2.198662 1_455
Cu0 O26 2.198662 1_545
