# generated using pymatgen
data_Fe3NiAs8
_symmetry_space_group_name_H-M   'P 1'
_cell_length_a   2.97923522
_cell_length_b   5.19791993
_cell_length_c   11.87678212
_cell_angle_alpha   90.07241922
_cell_angle_beta   90.00000000
_cell_angle_gamma   90.00000000
_symmetry_Int_Tables_number   1
_chemical_formula_structural   Fe3NiAs8
_chemical_formula_sum   'Fe3 Ni1 As8'
_cell_volume   183.92163601
_cell_formula_units_Z   1
loop_
 _symmetry_equiv_pos_site_id
 _symmetry_equiv_pos_as_xyz
  1  'x, y, z'
loop_
 _atom_site_type_symbol
 _atom_site_label
 _atom_site_symmetry_multiplicity
 _atom_site_fract_x
 _atom_site_fract_y
 _atom_site_fract_z
 _atom_site_occupancy
  Fe  Fe0  1  0.50000000  0.50094288  0.25139737  1
  Fe  Fe1  1  0.50000000  0.49905712  0.74860263  1
  Fe  Fe2  1  -0.00000000  0.00000000  0.00000000  1
  Ni  Ni0  1  -0.00000000  0.00000000  0.50000000  1
  As  As0  1  0.50000000  0.31915180  0.06866807  1
  As  As1  1  0.50000000  0.32267807  0.56982480  1
  As  As2  1  0.50000000  0.67732193  0.43017520  1
  As  As3  1  0.50000000  0.68084820  0.93133193  1
  As  As4  1  -0.00000000  0.81437225  0.18078860  1
  As  As5  1  -0.00000000  0.81761750  0.68617658  1
  As  As6  1  -0.00000000  0.18238250  0.31382342  1
  As  As7  1  -0.00000000  0.18562775  0.81921140  1
loop_
_geom_bond_atom_site_label_1
_geom_bond_atom_site_label_2
_geom_bond_distance
_geom_bond_site_symmetry_2
As0 Fe0 2.365934 1_555
As0 Fe2 2.373332 1_555
As0 Fe2 2.373332 1_655
As1 Fe1 2.311717 1_555
As1 Ni0 2.390890 1_655
As1 Ni0 2.390890 1_555
As2 Fe0 2.311717 1_555
As2 Ni0 2.390890 1_665
As2 Ni0 2.390890 1_565
As3 Fe1 2.365934 1_555
As3 Fe2 2.373332 1_666
As3 Fe2 2.373332 1_566
As4 Fe2 2.355130 1_565
As4 Fe0 2.362182 1_455
As4 Fe0 2.362182 1_555
As5 Fe1 2.348108 1_555
As5 Fe1 2.348108 1_455
As5 Ni0 2.406934 1_565
As6 Fe0 2.348108 1_455
As6 Fe0 2.348108 1_555
As6 Ni0 2.406934 1_555
As7 Fe2 2.355130 1_556
As7 Fe1 2.362182 1_555
As7 Fe1 2.362182 1_455
