# generated using pymatgen
data_Te4W3Se2
_symmetry_space_group_name_H-M   'P 1'
_cell_length_a   3.47761617
_cell_length_b   3.47761617
_cell_length_c   32.08321600
_cell_angle_alpha   90.00000000
_cell_angle_beta   90.00000000
_cell_angle_gamma   120.00000329
_symmetry_Int_Tables_number   1
_chemical_formula_structural   Te4W3Se2
_chemical_formula_sum   'Te4 W3 Se2'
_cell_volume   336.02516750
_cell_formula_units_Z   1
loop_
 _symmetry_equiv_pos_site_id
 _symmetry_equiv_pos_as_xyz
  1  'x, y, z'
loop_
 _atom_site_type_symbol
 _atom_site_label
 _atom_site_symmetry_multiplicity
 _atom_site_fract_x
 _atom_site_fract_y
 _atom_site_fract_z
 _atom_site_occupancy
  Te  Te0  1  0.33333300  0.66666700  0.71101300  1
  Te  Te1  1  0.33333300  0.66666700  0.17366900  1
  Te  Te2  1  0.33333300  0.66666700  0.82633100  1
  Te  Te3  1  0.33333300  0.66666700  0.28898700  1
  W  W0  1  0.00000000  0.00000000  0.76866600  1
  W  W1  1  0.00000000  0.00000000  0.23133400  1
  W  W2  1  0.33333300  0.66666700  0.00000000  1
  Se  Se0  1  0.00000000  0.00000000  0.05082000  1
  Se  Se1  1  0.00000000  0.00000000  0.94918000  1
loop_
_geom_bond_atom_site_label_1
_geom_bond_atom_site_label_2
_geom_bond_distance
_geom_bond_site_symmetry_2
Te0 W0 2.729951 1_565
Te0 W0 2.729953 1_665
Te0 W0 2.729953 1_555
Te1 W1 2.730211 1_565
Te1 W1 2.730214 1_555
Te1 W1 2.730214 1_665
Te2 W0 2.730211 1_565
Te2 W0 2.730214 1_555
Te2 W0 2.730214 1_665
Te3 W1 2.729951 1_565
Te3 W1 2.729953 1_665
Te3 W1 2.729953 1_555
Se0 W2 2.586444 1_545
Se0 W2 2.586446 1_445
Se0 W2 2.586446 1_555
Se1 W2 2.586444 1_546
Se1 W2 2.586446 1_556
Se1 W2 2.586446 1_446
