# generated using pymatgen
data_Ta2CoO7
_symmetry_space_group_name_H-M   'P 1'
_cell_length_a   16.07757400
_cell_length_b   6.96278300
_cell_length_c   11.62317128
_cell_angle_alpha   77.02754853
_cell_angle_beta   90.00000000
_cell_angle_gamma   90.00000000
_symmetry_Int_Tables_number   1
_chemical_formula_structural   Ta2CoO7
_chemical_formula_sum   'Ta16 Co8 O56'
_cell_volume   1267.94408991
_cell_formula_units_Z   8
loop_
 _symmetry_equiv_pos_site_id
 _symmetry_equiv_pos_as_xyz
  1  'x, y, z'
loop_
 _atom_site_type_symbol
 _atom_site_label
 _atom_site_symmetry_multiplicity
 _atom_site_fract_x
 _atom_site_fract_y
 _atom_site_fract_z
 _atom_site_occupancy
  Ta  Ta0  1  0.85277400  0.14901000  0.98027100  1
  Ta  Ta1  1  0.00602200  0.57270400  0.67952300  1
  Ta  Ta2  1  0.49397800  0.57270400  0.17952300  1
  Ta  Ta3  1  0.99397800  0.42729600  0.32047700  1
  Ta  Ta4  1  0.70439900  0.48701600  0.80325400  1
  Ta  Ta5  1  0.20439900  0.51298400  0.69674600  1
  Ta  Ta6  1  0.29560100  0.51298400  0.19674600  1
  Ta  Ta7  1  0.79560100  0.48701600  0.30325400  1
  Ta  Ta8  1  0.50602200  0.42729600  0.82047700  1
  Ta  Ta9  1  0.13816900  0.12385600  0.47726600  1
  Ta  Ta10  1  0.63816900  0.87614400  0.02273400  1
  Ta  Ta11  1  0.86183100  0.87614400  0.52273400  1
  Ta  Ta12  1  0.35277400  0.85099000  0.51972900  1
  Ta  Ta13  1  0.64722600  0.14901000  0.48027100  1
  Ta  Ta14  1  0.14722600  0.85099000  0.01972900  1
  Ta  Ta15  1  0.36183100  0.12385600  0.97726600  1
  Co  Co0  1  0.66925200  0.36118000  0.08623400  1
  Co  Co1  1  0.16925200  0.63882000  0.41376600  1
  Co  Co2  1  0.33074800  0.63882000  0.91376600  1
  Co  Co3  1  0.83074800  0.36118000  0.58623400  1
  Co  Co4  1  0.75580400  0.00166300  0.25242200  1
  Co  Co5  1  0.25580400  0.99833700  0.24757800  1
  Co  Co6  1  0.24419600  0.99833700  0.74757800  1
  Co  Co7  1  0.74419600  0.00166300  0.75242200  1
  O  O0  1  0.95807500  0.23313200  0.95775000  1
  O  O1  1  0.45807500  0.76686800  0.54225000  1
  O  O2  1  0.04192500  0.76686800  0.04225000  1
  O  O3  1  0.54192500  0.23313200  0.45775000  1
  O  O4  1  0.82660400  0.01083100  0.86211200  1
  O  O5  1  0.32660400  0.98916900  0.63788800  1
  O  O6  1  0.17339600  0.98916900  0.13788800  1
  O  O7  1  0.67339600  0.01083100  0.36211200  1
  O  O8  1  0.83741800  0.01430300  0.14025700  1
  O  O9  1  0.33741800  0.98569700  0.35974300  1
  O  O10  1  0.16258200  0.98569700  0.85974300  1
  O  O11  1  0.66258200  0.01430300  0.64025700  1
  O  O12  1  0.29969200  0.34827000  0.94669600  1
  O  O13  1  0.79969200  0.65173000  0.55330400  1
  O  O14  1  0.70030800  0.65173000  0.05330400  1
  O  O15  1  0.20030800  0.34827000  0.44669600  1
  O  O16  1  0.34013700  0.99411200  0.13230600  1
  O  O17  1  0.84013700  0.00588800  0.36769400  1
  O  O18  1  0.65986300  0.00588800  0.86769400  1
  O  O19  1  0.15986300  0.99411200  0.63230600  1
  O  O20  1  0.32661800  0.94033500  0.88453800  1
  O  O21  1  0.42426000  0.61891200  0.83311900  1
  O  O22  1  0.82661800  0.05966500  0.61546200  1
  O  O23  1  0.17338200  0.94033500  0.38453800  1
  O  O24  1  0.46240300  0.29484500  0.72249100  1
  O  O25  1  0.96240300  0.70515500  0.77750900  1
  O  O26  1  0.53759700  0.70515500  0.27750900  1
  O  O27  1  0.03759700  0.29484500  0.22249100  1
  O  O28  1  0.47224000  0.21975600  0.96353800  1
  O  O29  1  0.97224000  0.78024400  0.53646200  1
  O  O30  1  0.52776000  0.78024400  0.03646200  1
  O  O31  1  0.02776000  0.21975600  0.46353800  1
  O  O32  1  0.89911800  0.54977100  0.22170300  1
  O  O33  1  0.39911800  0.45022900  0.27829700  1
  O  O34  1  0.10088200  0.45022900  0.77829700  1
  O  O35  1  0.60088200  0.54977100  0.72170300  1
  O  O36  1  0.75239300  0.31193500  0.21287900  1
  O  O37  1  0.25239300  0.68806500  0.28712100  1
  O  O38  1  0.24760700  0.68806500  0.78712100  1
  O  O39  1  0.74760700  0.31193500  0.71287900  1
  O  O40  1  0.72531600  0.36014800  0.44950300  1
  O  O41  1  0.22531600  0.63985200  0.05049700  1
  O  O42  1  0.27468400  0.63985200  0.55049700  1
  O  O43  1  0.77468400  0.36014800  0.94950300  1
  O  O44  1  0.74603600  0.73239400  0.27562900  1
  O  O45  1  0.24603600  0.26760600  0.22437100  1
  O  O46  1  0.25396400  0.26760600  0.72437100  1
  O  O47  1  0.75396400  0.73239400  0.77562900  1
  O  O48  1  0.88147500  0.40996000  0.42769700  1
  O  O49  1  0.38147500  0.59004000  0.07230300  1
  O  O50  1  0.11852500  0.59004000  0.57230300  1
  O  O51  1  0.61852500  0.40996000  0.92769700  1
  O  O52  1  0.07574000  0.61891200  0.33311900  1
  O  O53  1  0.57574000  0.38108800  0.16688100  1
  O  O54  1  0.92426000  0.38108800  0.66688100  1
  O  O55  1  0.67338200  0.05966500  0.11546200  1
loop_
_geom_bond_atom_site_label_1
_geom_bond_atom_site_label_2
_geom_bond_distance
_geom_bond_site_symmetry_2
Co0 O53 1.793480 1_555
Co0 O36 1.960759 1_555
Co0 O51 1.973593 1_554
Co0 O14 2.034905 1_555
Co0 O55 2.051104 1_555
Co0 O43 2.324698 1_554
Co1 O52 1.793480 1_555
Co1 O37 1.960759 1_555
Co1 O50 1.973593 1_555
Co1 O15 2.034905 1_555
Co1 O23 2.051104 1_555
Co1 O42 2.324698 1_555
Co2 O21 1.793480 1_555
Co2 O38 1.960759 1_555
Co2 O49 1.973593 1_556
Co2 O12 2.034905 1_555
Co2 O20 2.051104 1_555
Co2 O41 2.324698 1_556
Co3 O54 1.793480 1_555
Co3 O39 1.960759 1_555
Co3 O48 1.973593 1_555
Co3 O13 2.034905 1_555
Co3 O22 2.051104 1_555
Co3 O40 2.324698 1_555
Co4 O8 1.837839 1_555
Co4 O44 1.839966 1_545
Co4 O7 1.849734 1_555
Co4 O17 1.911041 1_555
Co4 O55 2.040747 1_555
Co4 O36 2.106087 1_555
Co5 O9 1.837839 1_555
Co5 O45 1.839966 1_565
Co5 O6 1.849734 1_555
Co5 O16 1.911041 1_555
Co5 O23 2.040747 1_555
Co5 O37 2.106087 1_555
Co6 O10 1.837839 1_555
Co6 O46 1.839966 1_565
Co6 O5 1.849734 1_555
Co6 O19 1.911041 1_555
Co6 O20 2.040747 1_555
Co6 O38 2.106087 1_555
Co7 O11 1.837839 1_555
Co7 O47 1.839966 1_545
Co7 O4 1.849734 1_555
Co7 O18 1.911041 1_555
Co7 O22 2.040747 1_555
Co7 O39 2.106087 1_555
O0 Ta0 1.791355 1_555
O1 Ta12 1.791355 1_555
O2 Ta14 1.791355 1_555
O3 Ta13 1.791355 1_555
O4 Ta0 1.892645 1_555
O5 Ta12 1.892645 1_555
O6 Ta14 1.892645 1_555
O7 Ta13 1.892645 1_555
O8 Ta0 1.901454 1_554
O9 Ta12 1.901454 1_555
O10 Ta14 1.901454 1_556
O11 Ta13 1.901454 1_555
O12 Ta15 1.821160 1_555
O13 Ta11 1.821160 1_555
O14 Ta10 1.821160 1_555
O15 Ta9 1.821160 1_555
O16 Ta15 1.858565 1_564
O17 Ta11 1.858565 1_545
O18 Ta10 1.858565 1_546
O19 Ta9 1.858565 1_565
O20 Ta15 1.932173 1_565
O21 Ta8 1.902012 1_555
O22 Ta11 1.932173 1_545
O23 Ta9 1.932173 1_565
O24 Ta8 1.763798 1_555
O25 Ta1 1.763798 1_655
O26 Ta2 1.763798 1_555
O27 Ta3 1.763798 1_455
O28 Ta15 1.890635 1_555
O28 Ta8 2.017264 1_555
O29 Ta11 1.890635 1_555
O29 Ta1 2.017264 1_655
O30 Ta10 1.890635 1_555
O30 Ta2 2.017264 1_555
O31 Ta9 1.890635 1_555
O31 Ta3 2.017264 1_455
O32 Ta7 1.916600 1_555
O32 Ta3 1.982853 1_555
O33 Ta6 1.916600 1_555
O33 Ta2 1.982853 1_555
O34 Ta5 1.916600 1_555
O34 Ta1 1.982853 1_555
O35 Ta4 1.916600 1_555
O35 Ta8 1.982853 1_555
O36 Ta7 1.909717 1_555
O37 Ta6 1.909717 1_555
O38 Ta5 1.909717 1_555
O39 Ta4 1.909717 1_555
O40 Ta13 1.905084 1_555
O40 Ta7 2.067042 1_555
O41 Ta14 1.905084 1_555
O41 Ta6 2.067042 1_555
O42 Ta12 1.905084 1_555
O42 Ta5 2.067042 1_555
O43 Ta0 1.905084 1_555
O43 Ta4 2.067042 1_555
O44 Ta7 1.846848 1_555
O45 Ta6 1.846848 1_555
O46 Ta5 1.846848 1_555
O47 Ta4 1.846848 1_555
O48 Ta7 1.984380 1_555
O48 Ta3 2.184446 1_555
O49 Ta6 1.984380 1_555
O49 Ta2 2.184446 1_555
O50 Ta5 1.984380 1_555
O50 Ta1 2.184446 1_555
O51 Ta4 1.984380 1_555
O51 Ta8 2.184446 1_555
O52 Ta3 1.902012 1_455
O53 Ta2 1.902012 1_555
O54 Ta1 1.902012 1_655
O55 Ta10 1.932173 1_545
