# generated using pymatgen
data_Na2MgB4(H5N)4
_symmetry_space_group_name_H-M   'P 1'
_cell_length_a   9.32566879
_cell_length_b   9.32566879
_cell_length_c   9.32566879
_cell_angle_alpha   118.09759131
_cell_angle_beta   118.09759131
_cell_angle_gamma   93.32791420
_symmetry_Int_Tables_number   1
_chemical_formula_structural   Na2MgB4(H5N)4
_chemical_formula_sum   'Na4 Mg2 B8 H40 N8'
_cell_volume   588.90487924
_cell_formula_units_Z   2
loop_
 _symmetry_equiv_pos_site_id
 _symmetry_equiv_pos_as_xyz
  1  'x, y, z'
loop_
 _atom_site_type_symbol
 _atom_site_label
 _atom_site_symmetry_multiplicity
 _atom_site_fract_x
 _atom_site_fract_y
 _atom_site_fract_z
 _atom_site_occupancy
  Na  Na0  1  0.87500000  0.62500000  0.75000000  1
  Na  Na1  1  0.87500000  0.12500000  0.25000000  1
  Na  Na2  1  0.37500000  0.12500000  0.25000000  1
  Na  Na3  1  0.87500000  0.12500000  0.75000000  1
  Mg  Mg0  1  0.25000000  0.75000000  0.50000000  1
  Mg  Mg1  1  0.50000000  0.50000000  0.00000000  1
  B  B0  1  0.07239300  0.35325700  0.20706200  1
  B  B1  1  0.14619500  0.86533100  0.79293800  1
  B  B2  1  0.10325700  0.39619500  0.78086400  1
  B  B3  1  0.61533100  0.32239300  0.21913600  1
  B  B4  1  0.67760700  0.89674300  0.29293800  1
  B  B5  1  0.60380500  0.38466900  0.70706200  1
  B  B6  1  0.64674300  0.85380500  0.71913600  1
  B  B7  1  0.13466900  0.92760700  0.28086400  1
  H  H0  1  0.18679000  0.34684700  0.17470300  1
  H  H1  1  0.17214300  0.01208700  0.82529700  1
  H  H2  1  0.09684700  0.42214300  0.66005600  1
  H  H3  1  0.76208700  0.43679000  0.33994400  1
  H  H4  1  0.56321000  0.90315300  0.32529700  1
  H  H5  1  0.57785700  0.23791300  0.67470300  1
  H  H6  1  0.65315300  0.82785700  0.83994400  1
  H  H7  1  0.98791300  0.81321000  0.16005600  1
  H  H8  1  0.12482100  0.34987500  0.35372200  1
  H  H9  1  0.99615300  0.77109900  0.64627800  1
  H  H10  1  0.09987500  0.24615300  0.72505400  1
  H  H11  1  0.52109900  0.37482100  0.27494600  1
  H  H12  1  0.62517900  0.90012500  0.14627800  1
  H  H13  1  0.75384700  0.47890100  0.85372200  1
  H  H14  1  0.65012500  0.00384700  0.77494600  1
  H  H15  1  0.22890100  0.87517900  0.22505400  1
  H  H16  1  0.93971100  0.22173100  0.06423000  1
  H  H17  1  0.15750000  0.87548100  0.93577000  1
  H  H18  1  0.97173100  0.40750000  0.78201900  1
  H  H19  1  0.62548100  0.18971100  0.21798100  1
  H  H20  1  0.81028900  0.02826900  0.43577000  1
  H  H21  1  0.59250000  0.37451900  0.56423000  1
  H  H22  1  0.77826900  0.84250000  0.71798100  1
  H  H23  1  0.12451900  0.06028900  0.28201900  1
  H  H24  1  0.98771800  0.53448000  0.13167600  1
  H  H25  1  0.40280300  0.85604200  0.86832400  1
  H  H26  1  0.28448000  0.65280300  0.04676100  1
  H  H27  1  0.60604200  0.23771800  0.95323900  1
  H  H28  1  0.76228200  0.71552000  0.36832400  1
  H  H29  1  0.34719700  0.39395800  0.63167600  1
  H  H30  1  0.46552000  0.59719700  0.45323900  1
  H  H31  1  0.14395800  0.01228200  0.54676100  1
  H  H32  1  0.93856200  0.52626600  0.27317500  1
  H  H33  1  0.25309100  0.66538700  0.72682500  1
  H  H34  1  0.27626600  0.50309100  0.08770400  1
  H  H35  1  0.41538700  0.18856200  0.91229600  1
  H  H36  1  0.81143800  0.72373400  0.22682500  1
  H  H37  1  0.49690900  0.58461300  0.77317500  1
  H  H38  1  0.47373400  0.74690900  0.41229600  1
  H  H39  1  0.33461300  0.06143800  0.58770400  1
  N  N0  1  0.03580600  0.52666700  0.25076400  1
  N  N1  1  0.27590300  0.78504200  0.74923600  1
  N  N2  1  0.27666700  0.52590300  0.99086100  1
  N  N3  1  0.53504200  0.28580600  0.00913900  1
  N  N4  1  0.71419400  0.72333300  0.24923600  1
  N  N5  1  0.47409700  0.46495800  0.75076400  1
  N  N6  1  0.47333300  0.72409700  0.50913900  1
  N  N7  1  0.21495800  0.96419400  0.49086100  1
loop_
_geom_bond_atom_site_label_1
_geom_bond_atom_site_label_2
_geom_bond_distance
_geom_bond_site_symmetry_2
Mg0 N0 2.077013 1_555
Mg0 N6 2.077013 1_555
Mg0 N1 2.077013 1_555
Mg0 N7 2.077013 1_555
Mg1 N4 2.077013 1_555
Mg1 N2 2.077013 1_554
Mg1 N3 2.077013 1_555
Mg1 N5 2.077013 1_554
B0 H8 1.234176 1_555
B0 H0 1.235484 1_555
B0 H16 1.241814 1_455
B0 N0 1.572247 1_555
B1 H9 1.234176 1_455
B1 H1 1.235484 1_565
B1 H17 1.241818 1_555
B1 N1 1.572247 1_555
B2 H10 1.234176 1_555
B2 H2 1.235487 1_555
B2 H18 1.241808 1_455
B2 N2 1.572247 1_555
B3 H11 1.234176 1_555
B3 H3 1.235484 1_555
B3 H19 1.241818 1_555
B3 N3 1.572247 1_555
B4 H12 1.234176 1_555
B4 H4 1.235484 1_555
B4 H20 1.241814 1_565
B4 N4 1.572247 1_555
B5 H13 1.234176 1_555
B5 H5 1.235484 1_555
B5 H21 1.241818 1_555
B5 N5 1.572247 1_555
B6 H14 1.234176 1_565
B6 H6 1.235487 1_555
B6 H22 1.241808 1_555
B6 N6 1.572247 1_555
B7 H15 1.234176 1_555
B7 H7 1.235484 1_455
B7 H23 1.241818 1_565
B7 N7 1.572247 1_555
H8 Na1 2.482047 1_455
H9 Na0 2.482047 1_555
H10 Na3 2.482047 1_455
H11 Na2 2.482047 1_555
H12 Na1 2.482047 1_565
H13 Na0 2.482047 1_555
H14 Na3 2.482047 1_555
H15 Na2 2.482047 1_565
H16 Na3 2.355043 1_554
H16 Na1 2.563766 1_555
H17 Na2 2.355045 1_566
H17 Na0 2.563760 1_455
H18 Na0 2.355048 1_555
H18 Na3 2.563762 1_555
H19 Na1 2.355045 1_555
H19 Na2 2.563760 1_555
H20 Na3 2.355043 1_555
H20 Na1 2.563766 1_555
H21 Na2 2.355045 1_555
H21 Na0 2.563760 1_555
H22 Na0 2.355048 1_555
H22 Na3 2.563762 1_565
H23 Na1 2.355045 1_455
H23 Na2 2.563760 1_555
H24 N0 1.025027 1_655
H25 N1 1.025022 1_555
H26 N2 1.025020 1_554
H27 N3 1.025022 1_556
H28 N4 1.025027 1_555
H29 N5 1.025022 1_555
H30 N6 1.025020 1_555
H31 N7 1.025022 1_545
H32 N0 1.022238 1_655
H33 N1 1.022238 1_555
H34 N2 1.022238 1_554
H35 N3 1.022238 1_556
H36 N4 1.022238 1_555
H37 N5 1.022238 1_555
H38 N6 1.022238 1_555
H39 N7 1.022238 1_545
