# generated using pymatgen
data_Gd3Y(FeO3)4
_symmetry_space_group_name_H-M   'P 1'
_cell_length_a   7.74537600
_cell_length_b   5.39061700
_cell_length_c   5.66079815
_cell_angle_alpha   89.98665986
_cell_angle_beta   90.00000000
_cell_angle_gamma   90.00000000
_symmetry_Int_Tables_number   1
_chemical_formula_structural   Gd3Y(FeO3)4
_chemical_formula_sum   'Gd3 Y1 Fe4 O12'
_cell_volume   236.35165072
_cell_formula_units_Z   1
loop_
 _symmetry_equiv_pos_site_id
 _symmetry_equiv_pos_as_xyz
  1  'x, y, z'
loop_
 _atom_site_type_symbol
 _atom_site_label
 _atom_site_symmetry_multiplicity
 _atom_site_fract_x
 _atom_site_fract_y
 _atom_site_fract_z
 _atom_site_occupancy
  Gd  Gd0  1  0.00000000  0.01714000  0.93582400  1
  Gd  Gd1  1  0.50000000  0.51669900  0.56252800  1
  Gd  Gd2  1  0.50000000  0.98294800  0.06353000  1
  Y  Y0  1  0.00000000  0.48349900  0.43504200  1
  Fe  Fe0  1  0.75106100  0.50016300  0.99991100  1
  Fe  Fe1  1  0.24884700  0.99999300  0.50028700  1
  Fe  Fe2  1  0.24893900  0.50016300  0.99991100  1
  Fe  Fe3  1  0.75115300  0.99999300  0.50028700  1
  O  O0  1  0.19259400  0.19593200  0.19815400  1
  O  O1  1  0.80798800  0.30719700  0.69474000  1
  O  O2  1  0.69386800  0.80532900  0.80322500  1
  O  O3  1  0.30507200  0.69442100  0.30310200  1
  O  O4  1  0.30613200  0.80532900  0.80322500  1
  O  O5  1  0.69492800  0.69442100  0.30310200  1
  O  O6  1  0.80740600  0.19593200  0.19815400  1
  O  O7  1  0.19201200  0.30719700  0.69474000  1
  O  O8  1  0.00000000  0.60896700  0.04349600  1
  O  O9  1  0.00000000  0.88604200  0.53955200  1
  O  O10  1  0.50000000  0.39086300  0.96083600  1
  O  O11  1  0.50000000  0.10776800  0.46035300  1
loop_
_geom_bond_atom_site_label_1
_geom_bond_atom_site_label_2
_geom_bond_distance
_geom_bond_site_symmetry_2
Gd0 O8 2.283028 1_546
Gd0 O6 2.315167 1_456
Gd0 O0 2.315167 1_556
Gd0 O9 2.352058 1_545
Gd0 O1 2.553051 1_455
Gd0 O7 2.553051 1_555
Gd0 O4 2.736725 1_545
Gd0 O2 2.736725 1_445
Gd1 O11 2.279138 1_555
Gd1 O3 2.313720 1_555
Gd1 O5 2.313720 1_555
Gd1 O10 2.354418 1_555
Gd1 O4 2.555982 1_555
Gd1 O2 2.555982 1_555
Gd1 O7 2.743300 1_555
Gd1 O1 2.743300 1_555
Gd2 O10 2.274328 1_564
Gd2 O4 2.311593 1_554
Gd2 O2 2.311593 1_554
Gd2 O11 2.345093 1_565
Gd2 O5 2.556708 1_555
Gd2 O3 2.556708 1_555
Gd2 O6 2.751069 1_565
Gd2 O0 2.751069 1_565
Fe0 O8 2.030423 1_656
Fe0 O6 2.034340 1_556
Fe0 O2 2.034987 1_555
Fe0 O10 2.043883 1_555
Fe0 O5 2.057213 1_556
Fe0 O1 2.064358 1_555
Fe1 O9 2.035089 1_555
Fe1 O7 2.036836 1_565
Fe1 O3 2.037105 1_555
Fe1 O11 2.042710 1_565
Fe1 O0 2.056646 1_565
Fe1 O4 2.058631 1_555
Fe2 O8 2.030423 1_556
Fe2 O0 2.034340 1_556
Fe2 O4 2.034987 1_555
Fe2 O10 2.043883 1_555
Fe2 O3 2.057213 1_556
Fe2 O7 2.064358 1_555
Fe3 O9 2.035089 1_655
Fe3 O1 2.036836 1_565
Fe3 O5 2.037105 1_555
Fe3 O11 2.042710 1_565
Fe3 O6 2.056646 1_565
Fe3 O2 2.058631 1_555
O0 Y0 2.535231 1_555
O1 Y0 2.296853 1_655
O3 Y0 2.726444 1_555
O5 Y0 2.726444 1_655
O6 Y0 2.535231 1_655
O7 Y0 2.296853 1_555
O8 Y0 2.317209 1_555
O9 Y0 2.249290 1_555
