# generated using pymatgen
data_Ce3SnN
_symmetry_space_group_name_H-M   'P 1'
_cell_length_a   4.97328277
_cell_length_b   4.97332533
_cell_length_c   4.97330351
_cell_angle_alpha   90.00000000
_cell_angle_beta   90.00000000
_cell_angle_gamma   90.00000000
_symmetry_Int_Tables_number   1
_chemical_formula_structural   Ce3SnN
_chemical_formula_sum   'Ce3 Sn1 N1'
_cell_volume   123.00846147
_cell_formula_units_Z   1
loop_
 _symmetry_equiv_pos_site_id
 _symmetry_equiv_pos_as_xyz
  1  'x, y, z'
loop_
 _atom_site_type_symbol
 _atom_site_label
 _atom_site_symmetry_multiplicity
 _atom_site_fract_x
 _atom_site_fract_y
 _atom_site_fract_z
 _atom_site_occupancy
  Ce  Ce0  1  0.50000000  0.00000000  -0.00000000  1
  Ce  Ce1  1  -0.00000000  0.50000000  -0.00000000  1
  Ce  Ce2  1  -0.00000000  -0.00000000  0.50000000  1
  Sn  Sn0  1  0.50000000  0.50000000  0.50000000  1
  N  N0  1  0.00000000  -0.00000000  0.00000000  1
loop_
_geom_bond_atom_site_label_1
_geom_bond_atom_site_label_2
_geom_bond_distance
_geom_bond_site_symmetry_2
Ce0 N0 2.486641 1_555
Ce0 N0 2.486641 1_655
Ce0 Sn0 3.516664 1_544
Ce0 Sn0 3.516664 1_555
Ce0 Sn0 3.516664 1_545
Ce0 Sn0 3.516664 1_554
Ce1 N0 2.486663 1_565
Ce1 N0 2.486663 1_555
Ce1 Sn0 3.516649 1_555
Ce1 Sn0 3.516649 1_554
Ce1 Sn0 3.516649 1_455
Ce1 Sn0 3.516649 1_454
Ce2 N0 2.486652 1_555
Ce2 N0 2.486652 1_556
Ce2 Sn0 3.516657 1_545
Ce2 Sn0 3.516657 1_555
Ce2 Sn0 3.516657 1_445
Ce2 Sn0 3.516657 1_455
