# generated using pymatgen
data_Sr5(RhO3)4
_symmetry_space_group_name_H-M   'P 1'
_cell_length_a   9.68936368
_cell_length_b   9.68936368
_cell_length_c   21.81697800
_cell_angle_alpha   90.00000000
_cell_angle_beta   90.00000000
_cell_angle_gamma   119.99999781
_symmetry_Int_Tables_number   1
_chemical_formula_structural   Sr5(RhO3)4
_chemical_formula_sum   'Sr30 Rh24 O72'
_cell_volume   1773.84532976
_cell_formula_units_Z   6
loop_
 _symmetry_equiv_pos_site_id
 _symmetry_equiv_pos_as_xyz
  1  'x, y, z'
loop_
 _atom_site_type_symbol
 _atom_site_label
 _atom_site_symmetry_multiplicity
 _atom_site_fract_x
 _atom_site_fract_y
 _atom_site_fract_z
 _atom_site_occupancy
  Sr  Sr0  1  0.33848400  0.32300500  0.65222700  1
  Sr  Sr1  1  0.66151600  0.67699500  0.34777300  1
  Sr  Sr2  1  0.67699500  0.01547900  0.65222700  1
  Sr  Sr3  1  0.32300500  0.33848400  0.84777300  1
  Sr  Sr4  1  0.32300500  0.98452100  0.34777300  1
  Sr  Sr5  1  0.67699500  0.66151600  0.15222700  1
  Sr  Sr6  1  0.98452100  0.66151600  0.65222700  1
  Sr  Sr7  1  0.01547900  0.67699500  0.84777300  1
  Sr  Sr8  1  0.01547900  0.33848400  0.34777300  1
  Sr  Sr9  1  0.98452100  0.32300500  0.15222700  1
  Sr  Sr10  1  0.66151600  0.98452100  0.84777300  1
  Sr  Sr11  1  0.33848400  0.01547900  0.15222700  1
  Sr  Sr12  1  0.33436200  0.01992900  0.54777600  1
  Sr  Sr13  1  0.66563800  0.98007100  0.45222400  1
  Sr  Sr14  1  0.98007100  0.31443300  0.54777600  1
  Sr  Sr15  1  0.01992900  0.33436200  0.95222400  1
  Sr  Sr16  1  0.01992900  0.68556700  0.45222400  1
  Sr  Sr17  1  0.98007100  0.66563800  0.04777600  1
  Sr  Sr18  1  0.68556700  0.66563800  0.54777600  1
  Sr  Sr19  1  0.31443300  0.98007100  0.95222400  1
  Sr  Sr20  1  0.31443300  0.33436200  0.45222400  1
  Sr  Sr21  1  0.68556700  0.01992900  0.04777600  1
  Sr  Sr22  1  0.66563800  0.68556700  0.95222400  1
  Sr  Sr23  1  0.33436200  0.31443300  0.04777600  1
  Sr  Sr24  1  0.35709500  0.00000000  0.75000000  1
  Sr  Sr25  1  0.64290500  0.00000000  0.25000000  1
  Sr  Sr26  1  0.00000000  0.35709500  0.75000000  1
  Sr  Sr27  1  0.00000000  0.64290500  0.25000000  1
  Sr  Sr28  1  0.64290500  0.64290500  0.75000000  1
  Sr  Sr29  1  0.35709500  0.35709500  0.25000000  1
  Rh  Rh0  1  0.33333300  0.66666700  0.91274800  1
  Rh  Rh1  1  0.66666700  0.33333300  0.08725200  1
  Rh  Rh2  1  0.66666700  0.33333300  0.58725200  1
  Rh  Rh3  1  0.33333300  0.66666700  0.41274800  1
  Rh  Rh4  1  0.00000000  0.00000000  0.62117700  1
  Rh  Rh5  1  0.00000000  0.00000000  0.37882300  1
  Rh  Rh6  1  0.00000000  0.00000000  0.87882300  1
  Rh  Rh7  1  0.00000000  0.00000000  0.12117700  1
  Rh  Rh8  1  0.33333300  0.66666700  0.79257000  1
  Rh  Rh9  1  0.66666700  0.33333300  0.20743000  1
  Rh  Rh10  1  0.66666700  0.33333300  0.70743000  1
  Rh  Rh11  1  0.33333300  0.66666700  0.29257000  1
  Rh  Rh12  1  0.00000000  0.00000000  0.75000000  1
  Rh  Rh13  1  0.00000000  0.00000000  0.25000000  1
  Rh  Rh14  1  0.33333300  0.66666700  0.54115500  1
  Rh  Rh15  1  0.66666700  0.33333300  0.45884500  1
  Rh  Rh16  1  0.66666700  0.33333300  0.95884500  1
  Rh  Rh17  1  0.33333300  0.66666700  0.04115500  1
  Rh  Rh18  1  0.00000000  0.00000000  0.50000000  1
  Rh  Rh19  1  0.00000000  0.00000000  0.00000000  1
  Rh  Rh20  1  0.33333300  0.66666700  0.66986700  1
  Rh  Rh21  1  0.66666700  0.33333300  0.33013300  1
  Rh  Rh22  1  0.66666700  0.33333300  0.83013300  1
  Rh  Rh23  1  0.33333300  0.66666700  0.16986700  1
  O  O0  1  0.16604800  0.16616300  0.55919200  1
  O  O1  1  0.83395200  0.83383700  0.44080800  1
  O  O2  1  0.83383700  0.99988500  0.55919200  1
  O  O3  1  0.16616300  0.16604800  0.94080800  1
  O  O4  1  0.16616300  0.00011500  0.44080800  1
  O  O5  1  0.83383700  0.83395200  0.05919200  1
  O  O6  1  0.00011500  0.83395200  0.55919200  1
  O  O7  1  0.99988500  0.83383700  0.94080800  1
  O  O8  1  0.99988500  0.16604800  0.44080800  1
  O  O9  1  0.00011500  0.16616300  0.05919200  1
  O  O10  1  0.83395200  0.00011500  0.94080800  1
  O  O11  1  0.16604800  0.99988500  0.05919200  1
  O  O12  1  0.15849900  0.55938500  0.60651800  1
  O  O13  1  0.84150100  0.44061500  0.39348200  1
  O  O14  1  0.44061500  0.59911400  0.60651800  1
  O  O15  1  0.55938500  0.15849900  0.89348200  1
  O  O16  1  0.55938500  0.40088600  0.39348200  1
  O  O17  1  0.44061500  0.84150100  0.10651800  1
  O  O18  1  0.40088600  0.84150100  0.60651800  1
  O  O19  1  0.59911400  0.44061500  0.89348200  1
  O  O20  1  0.59911400  0.15849900  0.39348200  1
  O  O21  1  0.40088600  0.55938500  0.10651800  1
  O  O22  1  0.84150100  0.40088600  0.89348200  1
  O  O23  1  0.15849900  0.59911400  0.10651800  1
  O  O24  1  0.50350300  0.16500800  0.64841600  1
  O  O25  1  0.49649700  0.83499200  0.35158400  1
  O  O26  1  0.83499200  0.33849500  0.64841600  1
  O  O27  1  0.16500800  0.50350300  0.85158400  1
  O  O28  1  0.16500800  0.66150500  0.35158400  1
  O  O29  1  0.83499200  0.49649700  0.14841600  1
  O  O30  1  0.66150500  0.49649700  0.64841600  1
  O  O31  1  0.33849500  0.83499200  0.85158400  1
  O  O32  1  0.33849500  0.50350300  0.35158400  1
  O  O33  1  0.66150500  0.16500800  0.14841600  1
  O  O34  1  0.49649700  0.66150500  0.85158400  1
  O  O35  1  0.50350300  0.33849500  0.14841600  1
  O  O36  1  0.50302100  0.31961000  0.52605500  1
  O  O37  1  0.49697900  0.68039000  0.47394500  1
  O  O38  1  0.68039000  0.18341200  0.52605500  1
  O  O39  1  0.31961000  0.50302100  0.97394500  1
  O  O40  1  0.31961000  0.81658800  0.47394500  1
  O  O41  1  0.68039000  0.49697900  0.02605500  1
  O  O42  1  0.81658800  0.49697900  0.52605500  1
  O  O43  1  0.18341200  0.68039000  0.97394500  1
  O  O44  1  0.18341200  0.50302100  0.47394500  1
  O  O45  1  0.81658800  0.31961000  0.02605500  1
  O  O46  1  0.49697900  0.81658800  0.97394500  1
  O  O47  1  0.50302100  0.18341200  0.02605500  1
  O  O48  1  0.03488400  0.16974600  0.68258600  1
  O  O49  1  0.96511600  0.83025400  0.31741400  1
  O  O50  1  0.83025400  0.86513800  0.68258600  1
  O  O51  1  0.16974600  0.03488400  0.81741400  1
  O  O52  1  0.16974600  0.13486200  0.31741400  1
  O  O53  1  0.83025400  0.96511600  0.18258600  1
  O  O54  1  0.13486200  0.96511600  0.68258600  1
  O  O55  1  0.86513800  0.83025400  0.81741400  1
  O  O56  1  0.86513800  0.03488400  0.31741400  1
  O  O57  1  0.13486200  0.16974600  0.18258600  1
  O  O58  1  0.96511600  0.13486200  0.81741400  1
  O  O59  1  0.03488400  0.86513800  0.18258600  1
  O  O60  1  0.31235500  0.49239200  0.73394100  1
  O  O61  1  0.68764500  0.50760800  0.26605900  1
  O  O62  1  0.50760800  0.81996300  0.73394100  1
  O  O63  1  0.49239200  0.31235500  0.76605900  1
  O  O64  1  0.49239200  0.18003700  0.26605900  1
  O  O65  1  0.50760800  0.68764500  0.23394100  1
  O  O66  1  0.18003700  0.68764500  0.73394100  1
  O  O67  1  0.81996300  0.50760800  0.76605900  1
  O  O68  1  0.81996300  0.31235500  0.26605900  1
  O  O69  1  0.18003700  0.49239200  0.23394100  1
  O  O70  1  0.68764500  0.18003700  0.76605900  1
  O  O71  1  0.31235500  0.81996300  0.23394100  1
loop_
_geom_bond_atom_site_label_1
_geom_bond_atom_site_label_2
_geom_bond_distance
_geom_bond_site_symmetry_2
O0 Rh18 2.063502 1_555
O0 Rh4 2.102174 1_555
O0 Sr0 2.584916 1_555
O0 Sr12 2.653328 1_555
O0 Sr20 2.797547 1_555
O0 Sr14 2.821701 1_455
O1 Rh18 2.063502 1_665
O1 Rh5 2.102174 1_665
O1 Sr1 2.584916 1_555
O1 Sr13 2.653328 1_555
O1 Sr18 2.797547 1_555
O1 Sr16 2.821701 1_655
O2 Rh18 2.063502 1_665
O2 Rh4 2.102174 1_665
O2 Sr2 2.584916 1_565
O2 Sr14 2.653328 1_565
O2 Sr13 2.797547 1_555
O2 Sr18 2.821701 1_555
O3 Rh19 2.063502 1_556
O3 Rh6 2.102174 1_555
O3 Sr3 2.584916 1_555
O3 Sr15 2.653328 1_555
O3 Sr23 2.797547 1_556
O3 Sr19 2.821701 1_545
O4 Rh18 2.063502 1_555
O4 Rh5 2.102174 1_555
O4 Sr4 2.584916 1_545
O4 Sr16 2.653328 1_545
O4 Sr12 2.797547 1_555
O4 Sr20 2.821701 1_555
O5 Rh19 2.063502 1_665
O5 Rh7 2.102174 1_665
O5 Sr5 2.584916 1_555
O5 Sr17 2.653328 1_555
O5 Sr22 2.797547 1_554
O5 Sr21 2.821701 1_565
O6 Rh18 2.063502 1_565
O6 Rh4 2.102174 1_565
O6 Sr6 2.584916 1_455
O6 Sr18 2.653328 1_455
O6 Sr16 2.797547 1_555
O6 Sr12 2.821702 1_565
O7 Rh19 2.063502 1_666
O7 Rh6 2.102174 1_665
O7 Sr7 2.584916 1_655
O7 Sr19 2.653328 1_655
O7 Sr17 2.797547 1_556
O7 Sr22 2.821701 1_555
O8 Rh18 2.063502 1_655
O8 Rh5 2.102174 1_655
O8 Sr8 2.584916 1_655
O8 Sr20 2.653328 1_655
O8 Sr14 2.797547 1_555
O8 Sr13 2.821702 1_545
O9 Rh19 2.063502 1_555
O9 Rh7 2.102174 1_555
O9 Sr9 2.584916 1_455
O9 Sr21 2.653328 1_455
O9 Sr15 2.797547 1_554
O9 Sr23 2.821701 1_555
O10 Rh19 2.063502 1_656
O10 Rh6 2.102174 1_655
O10 Sr10 2.584916 1_545
O10 Sr22 2.653328 1_545
O10 Sr21 2.797547 1_556
O10 Sr15 2.821702 1_655
O11 Rh19 2.063502 1_565
O11 Rh7 2.102174 1_565
O11 Sr11 2.584916 1_565
O11 Sr23 2.653328 1_565
O11 Sr19 2.797547 1_554
O11 Sr17 2.821702 1_455
O12 Rh20 2.024724 1_555
O12 Rh14 2.054968 1_555
O12 Sr14 2.482180 1_455
O12 Sr6 2.546298 1_455
O13 Rh21 2.024724 1_555
O13 Rh15 2.054968 1_555
O13 Sr16 2.482180 1_655
O13 Sr8 2.546298 1_655
O14 Rh20 2.024730 1_555
O14 Rh14 2.054974 1_555
O14 Sr18 2.482180 1_555
O14 Sr0 2.546298 1_555
O15 Rh22 2.024724 1_555
O15 Rh16 2.054968 1_555
O15 Sr19 2.482180 1_545
O15 Sr10 2.546298 1_545
O16 Rh21 2.024730 1_555
O16 Rh15 2.054974 1_555
O16 Sr20 2.482180 1_555
O16 Sr1 2.546298 1_555
O17 Rh23 2.024724 1_555
O17 Rh17 2.054968 1_555
O17 Sr21 2.482180 1_565
O17 Sr11 2.546298 1_565
O18 Rh20 2.024723 1_555
O18 Rh14 2.054967 1_555
O18 Sr12 2.482180 1_565
O18 Sr2 2.546298 1_565
O19 Rh22 2.024730 1_555
O19 Rh16 2.054974 1_555
O19 Sr22 2.482180 1_555
O19 Sr3 2.546298 1_555
O20 Rh21 2.024723 1_555
O20 Rh15 2.054967 1_555
O20 Sr13 2.482180 1_545
O20 Sr4 2.546298 1_545
O21 Rh23 2.024730 1_555
O21 Rh17 2.054974 1_555
O21 Sr23 2.482180 1_555
O21 Sr5 2.546298 1_555
O22 Rh22 2.024723 1_555
O22 Rh16 2.054967 1_555
O22 Sr15 2.482180 1_655
O22 Sr7 2.546298 1_655
O23 Rh23 2.024723 1_555
O23 Rh17 2.054967 1_555
O23 Sr17 2.482180 1_455
O23 Sr9 2.546298 1_455
O24 Rh10 2.058799 1_555
O24 Rh2 2.088454 1_555
O24 Sr12 2.679380 1_555
O24 Sr24 2.685584 1_555
O24 Sr0 2.711991 1_555
O24 Sr2 2.714304 1_555
O25 Rh11 2.058799 1_555
O25 Rh3 2.088454 1_555
O25 Sr13 2.679380 1_555
O25 Sr25 2.685584 1_565
O25 Sr1 2.711991 1_555
O25 Sr4 2.714304 1_555
O26 Rh10 2.058795 1_555
O26 Rh2 2.088450 1_555
O26 Sr14 2.679380 1_555
O26 Sr26 2.685584 1_655
O26 Sr2 2.711992 1_555
O26 Sr6 2.714304 1_555
O27 Rh8 2.058799 1_555
O27 Rh0 2.088454 1_555
O27 Sr15 2.679380 1_555
O27 Sr26 2.685584 1_555
O27 Sr3 2.711991 1_555
O27 Sr7 2.714304 1_555
O28 Rh11 2.058795 1_555
O28 Rh3 2.088450 1_555
O28 Sr16 2.679380 1_555
O28 Sr27 2.685584 1_555
O28 Sr4 2.711992 1_555
O28 Sr8 2.714304 1_555
O29 Rh9 2.058799 1_555
O29 Rh1 2.088454 1_555
O29 Sr17 2.679380 1_555
O29 Sr27 2.685584 1_655
O29 Sr5 2.711991 1_555
O29 Sr9 2.714304 1_555
O30 Rh10 2.058803 1_555
O30 Rh2 2.088458 1_555
O30 Sr18 2.679380 1_555
O30 Sr28 2.685584 1_555
O30 Sr6 2.711992 1_555
O30 Sr0 2.714304 1_555
O31 Rh8 2.058795 1_555
O31 Rh0 2.088450 1_555
O31 Sr19 2.679380 1_555
O31 Sr24 2.685584 1_565
O31 Sr7 2.711992 1_555
O31 Sr10 2.714304 1_555
O32 Rh11 2.058803 1_555
O32 Rh3 2.088458 1_555
O32 Sr20 2.679380 1_555
O32 Sr29 2.685584 1_555
O32 Sr8 2.711992 1_555
O32 Sr1 2.714304 1_555
O33 Rh9 2.058795 1_555
O33 Rh1 2.088450 1_555
O33 Sr21 2.679380 1_555
O33 Sr25 2.685584 1_555
O33 Sr9 2.711992 1_555
O33 Sr11 2.714304 1_555
O34 Rh8 2.058803 1_555
O34 Rh0 2.088458 1_555
O34 Sr22 2.679380 1_555
O34 Sr28 2.685584 1_555
O34 Sr10 2.711992 1_555
O34 Sr3 2.714304 1_555
O35 Rh9 2.058803 1_555
O35 Rh1 2.088458 1_555
O35 Sr23 2.679380 1_555
O35 Sr29 2.685584 1_555
O35 Sr11 2.711992 1_555
O35 Sr5 2.714304 1_555
O36 Rh2 2.025743 1_555
O36 Rh15 2.114508 1_555
O36 Sr20 2.493033 1_555
O36 Sr12 2.565444 1_555
O36 Sr18 2.943468 1_555
O36 Sr0 3.189436 1_555
O37 Rh3 2.025743 1_555
O37 Rh14 2.114508 1_555
O37 Sr18 2.493033 1_555
O37 Sr13 2.565444 1_555
O37 Sr20 2.943468 1_555
O37 Sr1 3.189436 1_555
O38 Rh2 2.025728 1_555
O38 Rh15 2.114494 1_555
O38 Sr13 2.493041 1_545
O38 Sr14 2.565444 1_555
O38 Sr12 2.943468 1_555
O38 Sr2 3.189440 1_555
O39 Rh0 2.025743 1_555
O39 Rh17 2.114508 1_556
O39 Sr23 2.493033 1_556
O39 Sr15 2.565444 1_555
O39 Sr22 2.943468 1_555
O39 Sr3 3.189436 1_555
O40 Rh3 2.025728 1_555
O40 Rh14 2.114494 1_555
O40 Sr12 2.493041 1_565
O40 Sr16 2.565444 1_555
O40 Sr13 2.943468 1_555
O40 Sr4 3.189440 1_555
O41 Rh1 2.025743 1_555
O41 Rh16 2.114508 1_554
O41 Sr22 2.493033 1_554
O41 Sr17 2.565444 1_555
O41 Sr23 2.943468 1_555
O41 Sr5 3.189436 1_555
O42 Rh2 2.025737 1_555
O42 Rh15 2.114502 1_555
O42 Sr16 2.493037 1_655
O42 Sr18 2.565436 1_555
O42 Sr14 2.943476 1_555
O42 Sr6 3.189438 1_555
O43 Rh0 2.025728 1_555
O43 Rh17 2.114494 1_556
O43 Sr17 2.493041 1_456
O43 Sr19 2.565444 1_555
O43 Sr15 2.943468 1_555
O43 Sr7 3.189440 1_555
O44 Rh3 2.025737 1_555
O44 Rh14 2.114502 1_555
O44 Sr14 2.493037 1_455
O44 Sr20 2.565436 1_555
O44 Sr16 2.943476 1_555
O44 Sr8 3.189438 1_555
O45 Rh1 2.025728 1_555
O45 Rh16 2.114494 1_554
O45 Sr15 2.493041 1_654
O45 Sr21 2.565444 1_555
O45 Sr17 2.943468 1_555
O45 Sr9 3.189440 1_555
O46 Rh0 2.025737 1_555
O46 Rh17 2.114502 1_556
O46 Sr21 2.493037 1_566
O46 Sr22 2.565436 1_555
O46 Sr19 2.943476 1_555
O46 Sr10 3.189438 1_555
O47 Rh1 2.025737 1_555
O47 Rh16 2.114502 1_554
O47 Sr19 2.493037 1_544
O47 Sr23 2.565436 1_555
O47 Sr21 2.943476 1_555
O47 Sr11 3.189438 1_555
O48 Rh4 2.014551 1_555
O48 Rh12 2.103954 1_555
O48 Sr26 2.487222 1_555
O48 Sr0 2.632310 1_555
O48 Sr2 3.084585 1_455
O49 Rh5 2.014551 1_665
O49 Rh13 2.103954 1_665
O49 Sr27 2.487222 1_655
O49 Sr1 2.632310 1_555
O49 Sr4 3.084585 1_655
O50 Rh4 2.014551 1_665
O50 Rh12 2.103954 1_665
O50 Sr28 2.487222 1_555
O50 Sr2 2.632310 1_565
O50 Sr6 3.084585 1_555
O51 Rh6 2.014551 1_555
O51 Rh12 2.103954 1_555
O51 Sr24 2.487222 1_555
O51 Sr3 2.632310 1_555
O51 Sr7 3.084585 1_545
O52 Rh5 2.014551 1_555
O52 Rh13 2.103954 1_555
O52 Sr29 2.487222 1_555
O52 Sr4 2.632310 1_545
O52 Sr8 3.084585 1_555
O53 Rh7 2.014551 1_665
O53 Rh13 2.103954 1_665
O53 Sr25 2.487222 1_565
O53 Sr5 2.632310 1_555
O53 Sr9 3.084585 1_565
O54 Rh4 2.014551 1_565
O54 Rh12 2.103954 1_565
O54 Sr24 2.487222 1_565
O54 Sr6 2.632310 1_455
O54 Sr0 3.084585 1_565
O55 Rh6 2.014551 1_665
O55 Rh12 2.103954 1_665
O55 Sr28 2.487222 1_555
O55 Sr7 2.632310 1_655
O55 Sr10 3.084585 1_555
O56 Rh5 2.014551 1_655
O56 Rh13 2.103954 1_655
O56 Sr25 2.487222 1_555
O56 Sr8 2.632310 1_655
O56 Sr1 3.084585 1_545
O57 Rh7 2.014551 1_555
O57 Rh13 2.103954 1_555
O57 Sr29 2.487222 1_555
O57 Sr9 2.632310 1_455
O57 Sr11 3.084585 1_555
O58 Rh6 2.014551 1_655
O58 Rh12 2.103954 1_655
O58 Sr26 2.487222 1_655
O58 Sr10 2.632310 1_545
O58 Sr3 3.084585 1_655
O59 Rh7 2.014551 1_565
O59 Rh13 2.103954 1_565
O59 Sr27 2.487222 1_555
O59 Sr11 2.632310 1_565
O59 Sr5 3.084585 1_455
O60 Rh8 2.045878 1_555
O60 Rh20 2.122175 1_555
O60 Sr0 2.520225 1_555
O60 Sr26 2.652085 1_555
O60 Sr28 2.799419 1_555
O60 Sr3 2.925072 1_555
O61 Rh9 2.045878 1_555
O61 Rh21 2.122175 1_555
O61 Sr1 2.520225 1_555
O61 Sr27 2.652085 1_655
O61 Sr29 2.799419 1_555
O61 Sr5 2.925072 1_555
O62 Rh8 2.045875 1_555
O62 Rh20 2.122172 1_555
O62 Sr2 2.520225 1_565
O62 Sr28 2.652085 1_555
O62 Sr24 2.799419 1_565
O62 Sr10 2.925072 1_555
O63 Rh10 2.045878 1_555
O63 Rh22 2.122175 1_555
O63 Sr3 2.520225 1_555
O63 Sr24 2.652085 1_555
O63 Sr28 2.799419 1_555
O63 Sr0 2.925072 1_555
O64 Rh9 2.045875 1_555
O64 Rh21 2.122172 1_555
O64 Sr4 2.520225 1_545
O64 Sr29 2.652085 1_555
O64 Sr25 2.799419 1_555
O64 Sr11 2.925072 1_555
O65 Rh11 2.045878 1_555
O65 Rh23 2.122175 1_555
O65 Sr5 2.520225 1_555
O65 Sr25 2.652085 1_565
O65 Sr29 2.799419 1_555
O65 Sr1 2.925072 1_555
O66 Rh8 2.045870 1_555
O66 Rh20 2.122168 1_555
O66 Sr6 2.520225 1_455
O66 Sr24 2.652085 1_565
O66 Sr26 2.799419 1_555
O66 Sr7 2.925072 1_555
O67 Rh10 2.045875 1_555
O67 Rh22 2.122172 1_555
O67 Sr7 2.520225 1_655
O67 Sr28 2.652085 1_555
O67 Sr26 2.799419 1_655
O67 Sr6 2.925072 1_555
O68 Rh9 2.045870 1_555
O68 Rh21 2.122168 1_555
O68 Sr8 2.520225 1_655
O68 Sr25 2.652085 1_555
O68 Sr27 2.799419 1_655
O68 Sr9 2.925072 1_555
O69 Rh11 2.045875 1_555
O69 Rh23 2.122172 1_555
O69 Sr9 2.520225 1_455
O69 Sr29 2.652085 1_555
O69 Sr27 2.799419 1_555
O69 Sr8 2.925072 1_555
O70 Rh10 2.045870 1_555
O70 Rh22 2.122168 1_555
O70 Sr10 2.520225 1_545
O70 Sr26 2.652085 1_655
O70 Sr24 2.799419 1_555
O70 Sr2 2.925072 1_555
O71 Rh11 2.045870 1_555
O71 Rh23 2.122168 1_555
O71 Sr11 2.520225 1_565
O71 Sr27 2.652085 1_555
O71 Sr25 2.799419 1_565
O71 Sr4 2.925072 1_555
