# generated using pymatgen
data_Sr4CaTb2(RuO6)2
_symmetry_space_group_name_H-M   'P 1'
_cell_length_a   5.82313911
_cell_length_b   6.13340547
_cell_length_c   8.57633489
_cell_angle_alpha   94.03099025
_cell_angle_beta   90.74384457
_cell_angle_gamma   89.80074236
_symmetry_Int_Tables_number   1
_chemical_formula_structural   Sr4CaTb2(RuO6)2
_chemical_formula_sum   'Sr4 Ca1 Tb2 Ru2 O12'
_cell_volume   305.52505840
_cell_formula_units_Z   1
loop_
 _symmetry_equiv_pos_site_id
 _symmetry_equiv_pos_as_xyz
  1  'x, y, z'
loop_
 _atom_site_type_symbol
 _atom_site_label
 _atom_site_symmetry_multiplicity
 _atom_site_fract_x
 _atom_site_fract_y
 _atom_site_fract_z
 _atom_site_occupancy
  Sr  Sr0  1  0.98461500  0.34377500  0.82948300  1
  Sr  Sr1  1  0.51102100  0.92041100  0.77026600  1
  Sr  Sr2  1  0.48343400  0.03385500  0.23371900  1
  Sr  Sr3  1  0.01317500  0.55601300  0.22917300  1
  Ca  Ca0  1  0.06022200  0.62848600  0.60879700  1
  Tb  Tb0  1  0.49687700  0.48117800  0.00139700  1
  Tb  Tb1  1  0.00081800  0.06066300  0.47263000  1
  Ru  Ru0  1  0.99739900  0.96306600  0.00086500  1
  Ru  Ru1  1  0.51485200  0.53516400  0.48492800  1
  O  O0  1  0.70955100  0.16194600  0.97229300  1
  O  O1  1  0.72756700  0.79032300  0.51961200  1
  O  O2  1  0.27045700  0.77378500  0.03524600  1
  O  O3  1  0.27181100  0.30710400  0.44238500  1
  O  O4  1  0.80579000  0.68866400  0.95447800  1
  O  O5  1  0.78559000  0.34239600  0.54899100  1
  O  O6  1  0.20639800  0.24068600  0.04647800  1
  O  O7  1  0.26455300  0.77550900  0.43194100  1
  O  O8  1  0.39997400  0.52754600  0.73011600  1
  O  O9  1  0.07171100  0.96928600  0.75295700  1
  O  O10  1  0.58791500  0.49554000  0.25507300  1
  O  O11  1  0.91960300  0.97751900  0.22604900  1
loop_
_geom_bond_atom_site_label_1
_geom_bond_atom_site_label_2
_geom_bond_distance
_geom_bond_site_symmetry_2
Ca0 O7 2.185434 1_555
Ca0 O1 2.318957 1_455
Ca0 O8 2.325646 1_555
Ca0 O9 2.353246 1_555
Ca0 O5 2.402346 1_455
Ca0 O3 2.659653 1_555
O0 Ru0 2.091579 1_546
O0 Tb0 2.313470 1_556
O0 Sr0 2.358982 1_555
O0 Sr1 2.476337 1_545
O0 Sr2 2.776571 1_556
O1 Ru1 2.002612 1_555
O1 Tb1 2.360602 1_665
O1 Sr1 2.582654 1_555
O2 Ru0 1.996524 1_455
O2 Tb0 2.227947 1_555
O2 Sr2 2.560679 1_565
O2 Sr3 2.680623 1_555
O2 Sr1 2.883468 1_554
O3 Ru1 2.005317 1_555
O3 Tb1 2.219122 1_555
O3 Sr2 2.674180 1_555
O3 Sr3 2.871868 1_555
O4 Ru0 2.035474 1_556
O4 Tb0 2.263619 1_556
O4 Sr0 2.530428 1_555
O4 Sr1 2.773263 1_555
O4 Sr3 2.803436 1_656
O5 Ru1 2.059400 1_555
O5 Tb1 2.198347 1_655
O5 Sr0 2.656113 1_555
O6 Ru0 2.107599 1_445
O6 Tb0 2.302367 1_555
O6 Sr0 2.372434 1_454
O6 Sr2 2.644882 1_555
O6 Sr3 2.658211 1_555
O7 Ru1 2.136820 1_555
O7 Tb1 2.334236 1_565
O7 Sr3 2.568610 1_555
O7 Sr2 2.733935 1_565
O8 Ru1 2.218572 1_555
O8 Tb0 2.422842 1_556
O8 Sr1 2.496256 1_555
O8 Sr0 2.838011 1_455
O9 Ru0 2.178210 1_456
O9 Sr0 2.398393 1_465
O9 Tb1 2.535086 1_565
O9 Sr1 2.578209 1_555
O10 Ru1 2.019865 1_555
O10 Tb0 2.228342 1_555
O10 Sr3 2.520211 1_655
O10 Sr2 2.891092 1_555
O11 Ru0 1.985243 1_555
O11 Tb1 2.186326 1_665
O11 Sr2 2.563145 1_565
O11 Sr3 2.642117 1_655
