# generated using pymatgen
data_V2H15(NO4)3
_symmetry_space_group_name_H-M   'P 1'
_cell_length_a   7.23191300
_cell_length_b   10.22135300
_cell_length_c   16.35148997
_cell_angle_alpha   90.00000000
_cell_angle_beta   97.32068173
_cell_angle_gamma   90.00000000
_symmetry_Int_Tables_number   1
_chemical_formula_structural   V2H15(NO4)3
_chemical_formula_sum   'V8 H60 N12 O48'
_cell_volume   1198.84837409
_cell_formula_units_Z   4
loop_
 _symmetry_equiv_pos_site_id
 _symmetry_equiv_pos_as_xyz
  1  'x, y, z'
loop_
 _atom_site_type_symbol
 _atom_site_label
 _atom_site_symmetry_multiplicity
 _atom_site_fract_x
 _atom_site_fract_y
 _atom_site_fract_z
 _atom_site_occupancy
  V  V0  1  0.23530100  0.80354300  0.96140500  1
  V  V1  1  0.76469900  0.30354300  0.53859500  1
  V  V2  1  0.76469900  0.19645700  0.03859500  1
  V  V3  1  0.23530100  0.69645700  0.46140500  1
  V  V4  1  0.26494200  0.62289800  0.81183600  1
  V  V5  1  0.73505800  0.12289800  0.68816400  1
  V  V6  1  0.73505800  0.37710200  0.18816400  1
  V  V7  1  0.26494200  0.87710200  0.31183600  1
  H  H0  1  0.59747100  0.69541300  0.65445500  1
  H  H1  1  0.40252900  0.19541300  0.84554500  1
  H  H2  1  0.40252900  0.30458700  0.34554500  1
  H  H3  1  0.59747100  0.80458700  0.15445500  1
  H  H4  1  0.72312700  0.76413200  0.58579200  1
  H  H5  1  0.27687300  0.26413200  0.91420800  1
  H  H6  1  0.27687300  0.23586800  0.41420800  1
  H  H7  1  0.72312700  0.73586800  0.08579200  1
  H  H8  1  0.75942700  0.60376400  0.61487100  1
  H  H9  1  0.24057300  0.10376400  0.88512900  1
  H  H10  1  0.24057300  0.39623600  0.38512900  1
  H  H11  1  0.75942700  0.89623600  0.11487100  1
  H  H12  1  0.82718500  0.72526300  0.68186600  1
  H  H13  1  0.17281500  0.22526300  0.81813400  1
  H  H14  1  0.17281500  0.27473700  0.31813400  1
  H  H15  1  0.82718500  0.77473700  0.18186600  1
  H  H16  1  0.21605700  0.41889900  0.68050100  1
  H  H17  1  0.78394300  0.91889900  0.81949900  1
  H  H18  1  0.78394300  0.58110100  0.31949900  1
  H  H19  1  0.21605700  0.08110100  0.18050100  1
  H  H20  1  0.31896900  0.48599100  0.60290500  1
  H  H21  1  0.68103100  0.98599100  0.89709500  1
  H  H22  1  0.68103100  0.51400900  0.39709500  1
  H  H23  1  0.31896900  0.01400900  0.10290500  1
  H  H24  1  0.15348800  0.36937400  0.58014600  1
  H  H25  1  0.84651200  0.86937400  0.91985400  1
  H  H26  1  0.84651200  0.63062600  0.41985400  1
  H  H27  1  0.15348800  0.13062600  0.08014600  1
  H  H28  1  0.36531400  0.33049400  0.63336100  1
  H  H29  1  0.63468600  0.83049400  0.86663900  1
  H  H30  1  0.63468600  0.66950600  0.36663900  1
  H  H31  1  0.36531400  0.16950600  0.13336100  1
  H  H32  1  0.08812800  0.98841600  0.68431500  1
  H  H33  1  0.91187200  0.48841600  0.81568500  1
  H  H34  1  0.91187200  0.01158400  0.31568500  1
  H  H35  1  0.08812800  0.51158400  0.18431500  1
  H  H36  1  0.19452100  0.88286800  0.62738400  1
  H  H37  1  0.80547900  0.38286800  0.87261600  1
  H  H38  1  0.80547900  0.11713200  0.37261600  1
  H  H39  1  0.19452100  0.61713200  0.12738400  1
  H  H40  1  0.23167600  0.87226800  0.73105400  1
  H  H41  1  0.76832400  0.37226800  0.76894600  1
  H  H42  1  0.76832400  0.12773200  0.26894600  1
  H  H43  1  0.23167600  0.62773200  0.23105400  1
  H  H44  1  0.31966300  0.00334700  0.68448200  1
  H  H45  1  0.68033700  0.50334700  0.81551800  1
  H  H46  1  0.68033700  0.99665300  0.31551800  1
  H  H47  1  0.31966300  0.49665300  0.18448200  1
  H  H48  1  0.48907400  0.62676000  0.94821300  1
  H  H49  1  0.51092600  0.12676000  0.55178700  1
  H  H50  1  0.51092600  0.37324000  0.05178700  1
  H  H51  1  0.48907400  0.87324000  0.44821300  1
  H  H52  1  0.85479200  0.63001700  0.99145300  1
  H  H53  1  0.14520800  0.13001700  0.50854700  1
  H  H54  1  0.14520800  0.36998300  0.00854700  1
  H  H55  1  0.85479200  0.86998300  0.49145300  1
  H  H56  1  0.71702700  0.52065300  0.02004300  1
  H  H57  1  0.28297300  0.02065300  0.47995700  1
  H  H58  1  0.28297300  0.47934700  0.97995700  1
  H  H59  1  0.71702700  0.97934700  0.52004300  1
  N  N0  1  0.72698100  0.69819800  0.63408000  1
  N  N1  1  0.27301900  0.19819800  0.86592000  1
  N  N2  1  0.27301900  0.30180200  0.36592000  1
  N  N3  1  0.72698100  0.80180200  0.13408000  1
  N  N4  1  0.26288300  0.40105400  0.62404600  1
  N  N5  1  0.73711700  0.90105400  0.87595400  1
  N  N6  1  0.73711700  0.59894600  0.37595400  1
  N  N7  1  0.26288300  0.09894600  0.12404600  1
  N  N8  1  0.20972300  0.93631900  0.68169000  1
  N  N9  1  0.79027700  0.43631900  0.81831000  1
  N  N10  1  0.79027700  0.06368100  0.31831000  1
  N  N11  1  0.20972300  0.56368100  0.18169000  1
  O  O0  1  0.39563800  0.86312600  0.03179600  1
  O  O1  1  0.60436200  0.36312600  0.46820400  1
  O  O2  1  0.60436200  0.13687400  0.96820400  1
  O  O3  1  0.39563800  0.63687400  0.53179600  1
  O  O4  1  0.22727400  0.46493000  0.79263300  1
  O  O5  1  0.77272600  0.96493000  0.70736700  1
  O  O6  1  0.77272600  0.53507000  0.20736700  1
  O  O7  1  0.22727400  0.03507000  0.29263300  1
  O  O8  1  0.72134300  0.60680500  0.99173800  1
  O  O9  1  0.27865700  0.10680500  0.50826200  1
  O  O10  1  0.27865700  0.39319500  0.00826200  1
  O  O11  1  0.72134300  0.89319500  0.49173800  1
  O  O12  1  0.35042500  0.62668900  0.93550800  1
  O  O13  1  0.64957500  0.12668900  0.56449200  1
  O  O14  1  0.64957500  0.37331100  0.06449200  1
  O  O15  1  0.35042500  0.87331100  0.43550800  1
  O  O16  1  0.17192800  0.93976700  0.88383700  1
  O  O17  1  0.82807200  0.43976700  0.61616300  1
  O  O18  1  0.82807200  0.06023300  0.11616300  1
  O  O19  1  0.17192800  0.56023300  0.38383700  1
  O  O20  1  0.31882400  0.85668700  0.85838300  1
  O  O21  1  0.68117600  0.35668700  0.64161700  1
  O  O22  1  0.68117600  0.14331300  0.14161700  1
  O  O23  1  0.31882400  0.64331300  0.35838300  1
  O  O24  1  0.01246600  0.83775200  0.00909500  1
  O  O25  1  0.98753400  0.33775200  0.49090500  1
  O  O26  1  0.98753400  0.16224800  0.99090500  1
  O  O27  1  0.01246600  0.66224800  0.50909500  1
  O  O28  1  0.07238600  0.70124400  0.02193000  1
  O  O29  1  0.92761400  0.20124400  0.47807000  1
  O  O30  1  0.92761400  0.29875600  0.97807000  1
  O  O31  1  0.07238600  0.79875600  0.52193000  1
  O  O32  1  0.40060900  0.67889600  0.72530200  1
  O  O33  1  0.59939100  0.17889600  0.77469800  1
  O  O34  1  0.59939100  0.32110400  0.27469800  1
  O  O35  1  0.40060900  0.82110400  0.22530200  1
  O  O36  1  0.52345800  0.65430800  0.80236000  1
  O  O37  1  0.47654200  0.15430800  0.69764000  1
  O  O38  1  0.47654200  0.34569200  0.19764000  1
  O  O39  1  0.52345800  0.84569200  0.30236000  1
  O  O40  1  0.04300500  0.70639300  0.76269300  1
  O  O41  1  0.95699500  0.20639300  0.73730700  1
  O  O42  1  0.95699500  0.29360700  0.23730700  1
  O  O43  1  0.04300500  0.79360700  0.26269300  1
  O  O44  1  0.03323700  0.67620700  0.84936100  1
  O  O45  1  0.96676300  0.17620700  0.65063900  1
  O  O46  1  0.96676300  0.32379300  0.15063900  1
  O  O47  1  0.03323700  0.82379300  0.34936100  1
loop_
_geom_bond_atom_site_label_1
_geom_bond_atom_site_label_2
_geom_bond_distance
_geom_bond_site_symmetry_2
H0 N0 1.033711 1_555
H1 N1 1.033711 1_555
H2 N2 1.033711 1_555
H3 N3 1.033711 1_555
H4 N0 1.035758 1_555
H5 N1 1.035758 1_555
H6 N2 1.035758 1_555
H7 N3 1.035758 1_555
H8 N0 1.050806 1_555
H8 O17 1.747600 1_555
H9 N1 1.050806 1_555
H9 O16 1.747600 1_545
H10 N2 1.050806 1_555
H10 O19 1.747600 1_555
H11 N3 1.050806 1_555
H11 O18 1.747600 1_565
H12 N0 1.033398 1_555
H13 N1 1.033398 1_555
H14 N2 1.033398 1_555
H15 N3 1.033398 1_555
H16 N4 1.039120 1_555
H17 N5 1.039120 1_555
H18 N6 1.039120 1_555
H19 N7 1.039120 1_555
H20 N4 1.036085 1_555
H21 N5 1.036085 1_555
H22 N6 1.036085 1_555
H23 N7 1.036085 1_555
H24 N4 1.049430 1_555
H25 N5 1.049430 1_555
H26 N6 1.049430 1_555
H27 N7 1.049430 1_555
H28 N4 1.031186 1_555
H29 N5 1.031186 1_555
H30 N6 1.031186 1_555
H31 N7 1.031186 1_555
H32 N8 1.033587 1_555
H33 N9 1.033587 1_555
H34 N10 1.033587 1_555
H35 N11 1.033587 1_555
H36 N8 1.036442 1_555
H37 N9 1.036442 1_555
H38 N10 1.036442 1_555
H39 N11 1.036442 1_555
H40 N8 1.035710 1_555
H41 N9 1.035710 1_555
H42 N10 1.035710 1_555
H43 N11 1.035710 1_555
H44 N8 1.046119 1_545
H45 N9 1.046119 1_555
H46 N10 1.046119 1_565
H47 N11 1.046119 1_555
H48 O12 0.997735 1_555
H49 O13 0.997735 1_555
H50 O14 0.997735 1_555
H51 O15 0.997735 1_555
H52 O8 0.994415 1_555
H52 O28 1.747803 1_656
H53 O9 0.994415 1_555
H53 O29 1.747803 1_455
H54 O10 0.994415 1_555
H54 O30 1.747803 1_454
H55 O11 0.994415 1_555
H55 O31 1.747803 1_655
H56 O8 0.997149 1_554
H57 O9 0.997149 1_555
H58 O10 0.997149 1_556
H59 O11 0.997149 1_555
O0 V0 1.643203 1_554
O1 V1 1.643203 1_555
O2 V2 1.643203 1_556
O3 V3 1.643203 1_555
O4 V4 1.660749 1_555
O5 V5 1.660749 1_565
O6 V6 1.660749 1_555
O7 V7 1.660749 1_545
O12 V4 2.038250 1_555
O12 V0 2.056711 1_555
O13 V5 2.038250 1_555
O13 V1 2.056711 1_555
O14 V6 2.038250 1_555
O14 V2 2.056711 1_555
O15 V7 2.038250 1_555
O15 V3 2.056711 1_555
O16 O20 1.461370 1_555
O16 V0 1.899838 1_555
O17 O21 1.461370 1_555
O17 V1 1.899838 1_555
O18 O22 1.461370 1_555
O18 V2 1.899838 1_555
O19 O23 1.461370 1_555
O19 V3 1.899838 1_555
O20 V0 1.938295 1_555
O20 V4 2.523080 1_555
O21 V1 1.938295 1_555
O21 V5 2.523080 1_555
O22 V2 1.938295 1_555
O22 V6 2.523080 1_555
O23 V3 1.938295 1_555
O23 V7 2.523080 1_555
O24 O28 1.468163 1_555
O24 V0 1.909874 1_554
O25 O29 1.468163 1_555
O25 V1 1.909874 1_555
O26 O30 1.468163 1_555
O26 V2 1.909874 1_556
O27 O31 1.468163 1_555
O27 V3 1.909874 1_555
O28 V0 1.938578 1_554
O29 V1 1.938578 1_555
O30 V2 1.938578 1_556
O31 V3 1.938578 1_555
O32 O36 1.467933 1_555
O32 V4 1.909486 1_555
O33 O37 1.467933 1_555
O33 V5 1.909486 1_555
O34 O38 1.467933 1_555
O34 V6 1.909486 1_555
O35 O39 1.467933 1_555
O35 V7 1.909486 1_555
O36 V4 1.922546 1_555
O37 V5 1.922546 1_555
O38 V6 1.922546 1_555
O39 V7 1.922546 1_555
O40 O44 1.460828 1_555
O40 V4 1.903022 1_555
O41 O45 1.460828 1_555
O41 V5 1.903022 1_555
O42 O46 1.460828 1_555
O42 V6 1.903022 1_555
O43 O47 1.460828 1_555
O43 V7 1.903022 1_555
O44 V4 1.934759 1_555
O44 V0 2.550236 1_555
O45 V5 1.934759 1_555
O45 V1 2.550236 1_555
O46 V6 1.934759 1_555
O46 V2 2.550236 1_555
O47 V7 1.934759 1_555
O47 V3 2.550236 1_555
