# generated using pymatgen
data_K3Ta3Si2O13
_symmetry_space_group_name_H-M   'P 1'
_cell_length_a   9.20529361
_cell_length_b   9.20529361
_cell_length_c   7.89292900
_cell_angle_alpha   90.00000000
_cell_angle_beta   90.00000000
_cell_angle_gamma   119.99999718
_symmetry_Int_Tables_number   1
_chemical_formula_structural   K3Ta3Si2O13
_chemical_formula_sum   'K6 Ta6 Si4 O26'
_cell_volume   579.22077506
_cell_formula_units_Z   2
loop_
 _symmetry_equiv_pos_site_id
 _symmetry_equiv_pos_as_xyz
  1  'x, y, z'
loop_
 _atom_site_type_symbol
 _atom_site_label
 _atom_site_symmetry_multiplicity
 _atom_site_fract_x
 _atom_site_fract_y
 _atom_site_fract_z
 _atom_site_occupancy
  K  K0  1  0.40251600  0.40251600  0.50000000  1
  K  K1  1  0.00000000  0.59748400  0.50000000  1
  K  K2  1  0.61119400  0.00000000  0.00000000  1
  K  K3  1  0.38880600  0.38880600  0.00000000  1
  K  K4  1  0.59748400  0.00000000  0.50000000  1
  K  K5  1  0.00000000  0.61119400  0.00000000  1
  Ta  Ta0  1  0.23741100  0.00000000  0.25075600  1
  Ta  Ta1  1  0.00000000  0.23741100  0.74924400  1
  Ta  Ta2  1  0.00000000  0.23741100  0.25075600  1
  Ta  Ta3  1  0.76258900  0.76258900  0.25075600  1
  Ta  Ta4  1  0.23741100  0.00000000  0.74924400  1
  Ta  Ta5  1  0.76258900  0.76258900  0.74924400  1
  Si  Si0  1  0.66666700  0.33333300  0.20937300  1
  Si  Si1  1  0.66666700  0.33333300  0.79062700  1
  Si  Si2  1  0.33333300  0.66666700  0.79062700  1
  Si  Si3  1  0.33333300  0.66666700  0.20937300  1
  O  O0  1  0.00000000  0.23184100  0.50000000  1
  O  O1  1  0.76815900  0.76815900  0.50000000  1
  O  O2  1  0.23184100  0.00000000  0.50000000  1
  O  O3  1  0.51425900  0.69562900  0.27086200  1
  O  O4  1  0.30437100  0.81863000  0.27086200  1
  O  O5  1  0.18137000  0.48574100  0.27086200  1
  O  O6  1  0.48574100  0.18137000  0.72913800  1
  O  O7  1  0.18137000  0.48574100  0.72913800  1
  O  O8  1  0.51425900  0.69562900  0.72913800  1
  O  O9  1  0.30437100  0.81863000  0.72913800  1
  O  O10  1  0.69562900  0.51425900  0.27086200  1
  O  O11  1  0.81863000  0.30437100  0.27086200  1
  O  O12  1  0.81863000  0.30437100  0.72913800  1
  O  O13  1  0.69562900  0.51425900  0.72913800  1
  O  O14  1  0.48574100  0.18137000  0.27086200  1
  O  O15  1  0.82489000  0.00000000  0.76379300  1
  O  O16  1  0.33333300  0.66666700  0.00000000  1
  O  O17  1  0.66666700  0.33333300  0.00000000  1
  O  O18  1  0.26780700  0.00000000  0.00000000  1
  O  O19  1  0.73219300  0.73219300  0.00000000  1
  O  O20  1  0.00000000  0.26780700  0.00000000  1
  O  O21  1  0.82489000  0.00000000  0.23620700  1
  O  O22  1  0.17511000  0.17511000  0.76379300  1
  O  O23  1  0.00000000  0.82489000  0.76379300  1
  O  O24  1  0.00000000  0.82489000  0.23620700  1
  O  O25  1  0.17511000  0.17511000  0.23620700  1
loop_
_geom_bond_atom_site_label_1
_geom_bond_atom_site_label_2
_geom_bond_distance
_geom_bond_site_symmetry_2
K0 O22 2.952492 1_555
K0 O25 2.952492 1_555
K0 O8 2.972171 1_555
K0 O13 2.972171 1_555
K0 O10 2.972171 1_555
K0 O3 2.972171 1_555
K0 O6 3.092178 1_555
K0 O7 3.092178 1_555
K0 O5 3.092178 1_555
K0 O14 3.092178 1_555
K0 O0 3.221191 1_555
K0 O2 3.221191 1_555
K1 O23 2.952492 1_555
K1 O24 2.952492 1_555
K1 O7 2.972171 1_555
K1 O5 2.972171 1_555
K1 O12 2.972171 1_455
K1 O11 2.972171 1_455
K1 O13 3.092178 1_455
K1 O10 3.092178 1_455
K1 O9 3.092178 1_555
K1 O4 3.092178 1_555
K1 O1 3.221191 1_455
K1 O2 3.221191 1_565
K2 O21 2.710254 1_555
K2 O15 2.710254 1_554
K2 O17 2.847654 1_555
K2 O16 2.847657 1_545
K2 O18 3.160978 1_555
K2 O19 3.172365 1_545
K2 O20 3.172366 1_655
K2 O14 3.258794 1_555
K2 O6 3.258794 1_554
K2 O4 3.258794 1_545
K2 O9 3.258794 1_544
K2 O3 3.273672 1_545
K2 O8 3.273672 1_544
K2 O11 3.273672 1_555
K2 O12 3.273672 1_554
K3 O25 2.710254 1_555
K3 O22 2.710254 1_554
K3 O16 2.847663 1_555
K3 O17 2.847663 1_555
K3 O19 3.160978 1_555
K3 O18 3.172365 1_555
K3 O20 3.172365 1_555
K3 O3 3.258794 1_555
K3 O10 3.258794 1_555
K3 O13 3.258794 1_554
K3 O8 3.258794 1_554
K3 O5 3.273672 1_555
K3 O14 3.273672 1_555
K3 O6 3.273672 1_554
K3 O7 3.273672 1_554
K4 O15 2.952492 1_555
K4 O21 2.952492 1_555
K4 O6 2.972171 1_555
K4 O14 2.972171 1_555
K4 O9 2.972171 1_545
K4 O4 2.972171 1_545
K4 O8 3.092178 1_545
K4 O3 3.092178 1_545
K4 O12 3.092178 1_555
K4 O11 3.092178 1_555
K4 O1 3.221191 1_545
K4 O0 3.221191 1_655
K5 O24 2.710254 1_555
K5 O23 2.710254 1_554
K5 O16 2.847654 1_555
K5 O17 2.847657 1_455
K5 O20 3.160978 1_555
K5 O19 3.172365 1_455
K5 O18 3.172366 1_565
K5 O5 3.258794 1_555
K5 O7 3.258794 1_554
K5 O11 3.258794 1_455
K5 O12 3.258794 1_454
K5 O10 3.273672 1_455
K5 O13 3.273672 1_454
K5 O9 3.273672 1_554
K5 O4 3.273672 1_555
O0 Ta1 1.967933 1_555
O0 Ta2 1.967933 1_555
O1 Ta3 1.967933 1_555
O1 Ta5 1.967933 1_555
O2 Ta4 1.967933 1_555
O2 Ta0 1.967933 1_555
O3 Si3 1.623703 1_555
O3 Ta3 2.054667 1_555
O4 Si3 1.623695 1_555
O4 Ta0 2.054667 1_565
O5 Si3 1.623700 1_555
O5 Ta2 2.054667 1_555
O6 Si1 1.623700 1_555
O6 Ta4 2.054667 1_555
O7 Si2 1.623700 1_555
O7 Ta1 2.054667 1_555
O8 Si2 1.623703 1_555
O8 Ta5 2.054667 1_555
O9 Si2 1.623695 1_555
O9 Ta4 2.054667 1_565
O10 Si0 1.623703 1_555
O10 Ta3 2.054667 1_555
O11 Si0 1.623695 1_555
O11 Ta2 2.054667 1_655
O12 Si1 1.623695 1_555
O12 Ta1 2.054667 1_655
O13 Si1 1.623703 1_555
O13 Ta5 2.054667 1_555
O14 Si0 1.623700 1_555
O14 Ta0 2.054667 1_555
O15 Ta5 1.965930 1_545
O15 Ta1 1.965930 1_655
O16 Si3 1.652566 1_555
O16 Si2 1.652566 1_554
O17 Si0 1.652566 1_555
O17 Si1 1.652566 1_554
O18 Ta4 1.998880 1_554
O18 Ta0 1.998880 1_555
O19 Ta3 1.998880 1_555
O19 Ta5 1.998880 1_554
O20 Ta1 1.998880 1_554
O20 Ta2 1.998880 1_555
O21 Ta3 1.965930 1_545
O21 Ta2 1.965930 1_655
O22 Ta4 1.965930 1_555
O22 Ta1 1.965930 1_555
O23 Ta5 1.965930 1_455
O23 Ta4 1.965930 1_565
O24 Ta3 1.965930 1_455
O24 Ta0 1.965930 1_565
O25 Ta2 1.965930 1_555
O25 Ta0 1.965930 1_555
