# generated using pymatgen
data_Ho5SbPt2
_symmetry_space_group_name_H-M   'P 1'
_cell_length_a   8.68503003
_cell_length_b   8.68503003
_cell_length_c   8.68503003
_cell_angle_alpha   127.44439731
_cell_angle_beta   127.44439731
_cell_angle_gamma   77.52682724
_symmetry_Int_Tables_number   1
_chemical_formula_structural   Ho5SbPt2
_chemical_formula_sum   'Ho10 Sb2 Pt4'
_cell_volume   400.48698555
_cell_formula_units_Z   2
loop_
 _symmetry_equiv_pos_site_id
 _symmetry_equiv_pos_as_xyz
  1  'x, y, z'
loop_
 _atom_site_type_symbol
 _atom_site_label
 _atom_site_symmetry_multiplicity
 _atom_site_fract_x
 _atom_site_fract_y
 _atom_site_fract_z
 _atom_site_occupancy
  Ho  Ho0  1  -0.00000000  0.00000000  -0.00000000  1
  Ho  Ho1  1  0.50000000  0.50000000  -0.00000000  1
  Ho  Ho2  1  0.79491801  0.29491801  0.81309577  1
  Ho  Ho3  1  0.20508199  0.70508199  0.18690423  1
  Ho  Ho4  1  0.48182123  0.98182123  0.18690423  1
  Ho  Ho5  1  0.29491801  0.48182123  0.50000000  1
  Ho  Ho6  1  0.01817877  0.20508199  0.50000000  1
  Ho  Ho7  1  0.51817877  0.01817877  0.81309577  1
  Ho  Ho8  1  0.70508199  0.51817877  0.50000000  1
  Ho  Ho9  1  0.98182123  0.79491801  0.50000000  1
  Sb  Sb0  1  0.25000000  0.25000000  -0.00000000  1
  Sb  Sb1  1  0.75000000  0.75000000  -0.00000000  1
  Pt  Pt0  1  0.13895447  0.63895447  0.77790994  1
  Pt  Pt1  1  0.86104553  0.36104553  0.22209006  1
  Pt  Pt2  1  0.63895447  0.86104553  0.50000000  1
  Pt  Pt3  1  0.36104553  0.13895447  0.50000000  1
loop_
_geom_bond_atom_site_label_1
_geom_bond_atom_site_label_2
_geom_bond_distance
_geom_bond_site_symmetry_2
Ho0 Pt0 2.975021 1_544
Ho0 Pt1 2.975021 1_455
Ho0 Pt2 2.975023 1_444
Ho0 Pt3 2.975023 1_555
Ho0 Sb1 3.386024 1_445
Ho0 Sb0 3.386024 1_555
Ho1 Pt1 2.975021 1_555
Ho1 Pt0 2.975021 1_554
Ho1 Pt2 2.975023 1_555
Ho1 Pt3 2.975023 1_554
Ho1 Sb0 3.386024 1_555
Ho1 Sb1 3.386024 1_555
Ho2 Pt1 2.908338 1_556
Ho2 Pt2 2.948660 1_545
Ho2 Pt3 2.948660 1_555
Ho2 Sb0 3.272788 1_656
Ho2 Sb1 3.272788 1_556
Ho3 Pt0 2.908338 1_554
Ho3 Pt3 2.948660 1_565
Ho3 Pt2 2.948660 1_555
Ho3 Sb1 3.272788 1_455
Ho3 Sb0 3.272788 1_555
Ho4 Pt0 2.908338 1_554
Ho4 Pt2 2.948652 1_555
Ho4 Pt3 2.948652 1_565
Ho4 Sb1 3.272795 1_555
Ho4 Sb0 3.272795 1_565
Ho5 Pt3 2.908338 1_555
Ho5 Pt1 2.948658 1_455
Ho5 Pt0 2.948666 1_555
Ho5 Sb0 3.272790 1_555
Ho5 Sb1 3.272790 1_556
Ho6 Pt3 2.908338 1_555
Ho6 Pt0 2.948658 1_555
Ho6 Pt1 2.948666 1_455
Ho6 Sb1 3.272790 1_445
Ho6 Sb0 3.272790 1_556
Ho7 Pt1 2.908338 1_556
Ho7 Pt3 2.948652 1_555
Ho7 Pt2 2.948652 1_545
Ho7 Sb1 3.272795 1_546
Ho7 Sb0 3.272795 1_556
Ho8 Pt2 2.908338 1_555
Ho8 Pt0 2.948658 1_655
Ho8 Pt1 2.948666 1_555
Ho8 Sb0 3.272790 1_555
Ho8 Sb1 3.272790 1_556
Ho9 Pt2 2.908338 1_555
Ho9 Pt1 2.948658 1_555
Ho9 Pt0 2.948666 1_655
Ho9 Sb1 3.272790 1_555
Ho9 Sb0 3.272790 1_666
