# generated using pymatgen
data_CaSi2WO6
_symmetry_space_group_name_H-M   'P 1'
_cell_length_a   6.95899232
_cell_length_b   6.95899232
_cell_length_c   5.11967549
_cell_angle_alpha   80.09311931
_cell_angle_beta   80.09311931
_cell_angle_gamma   79.53039262
_symmetry_Int_Tables_number   1
_chemical_formula_structural   CaSi2WO6
_chemical_formula_sum   'Ca2 Si4 W2 O12'
_cell_volume   237.62026605
_cell_formula_units_Z   2
loop_
 _symmetry_equiv_pos_site_id
 _symmetry_equiv_pos_as_xyz
  1  'x, y, z'
loop_
 _atom_site_type_symbol
 _atom_site_label
 _atom_site_symmetry_multiplicity
 _atom_site_fract_x
 _atom_site_fract_y
 _atom_site_fract_z
 _atom_site_occupancy
  Ca  Ca0  1  0.71529900  0.28470100  0.25000000  1
  Ca  Ca1  1  0.28470100  0.71529900  0.75000000  1
  Si  Si0  1  0.79421000  0.60351100  0.72626800  1
  Si  Si1  1  0.39648900  0.20579000  0.77373200  1
  Si  Si2  1  0.60351100  0.79421000  0.22626800  1
  Si  Si3  1  0.20579000  0.39648900  0.27373200  1
  W  W0  1  0.93386000  0.06614000  0.75000000  1
  W  W1  1  0.06614000  0.93386000  0.25000000  1
  O  O0  1  0.66784700  0.61263400  0.47373000  1
  O  O1  1  0.38736600  0.33215300  0.02627000  1
  O  O2  1  0.33215300  0.38736600  0.52627000  1
  O  O3  1  0.61263400  0.66784700  0.97373000  1
  O  O4  1  0.88498600  0.37904800  0.82375600  1
  O  O5  1  0.62095200  0.11501400  0.67624400  1
  O  O6  1  0.11501400  0.62095200  0.17624400  1
  O  O7  1  0.37904800  0.88498600  0.32375600  1
  O  O8  1  0.76259000  0.94694600  0.15241600  1
  O  O9  1  0.05305400  0.23741000  0.34758400  1
  O  O10  1  0.94694600  0.76259000  0.65241600  1
  O  O11  1  0.23741000  0.05305400  0.84758400  1
loop_
_geom_bond_atom_site_label_1
_geom_bond_atom_site_label_2
_geom_bond_distance
_geom_bond_site_symmetry_2
Ca0 O4 2.343006 1_554
Ca0 O5 2.343006 1_555
Ca0 O9 2.439019 1_655
Ca0 O8 2.439019 1_545
Ca0 O0 2.669152 1_555
Ca0 O1 2.669152 1_555
Ca0 O3 2.824525 1_554
Ca0 O2 2.824525 1_555
Ca1 O7 2.343006 1_555
Ca1 O6 2.343006 1_556
Ca1 O11 2.439019 1_565
Ca1 O10 2.439019 1_455
Ca1 O2 2.669152 1_555
Ca1 O3 2.669152 1_555
Ca1 O0 2.824525 1_555
Ca1 O1 2.824525 1_556
O0 Si0 1.670810 1_555
O0 Si2 1.685504 1_555
O1 Si1 1.670810 1_554
O1 Si3 1.685504 1_555
O2 Si3 1.670810 1_555
O2 Si1 1.685504 1_555
O3 Si2 1.670810 1_556
O3 Si0 1.685504 1_555
O4 Si0 1.603039 1_555
O4 W0 2.229228 1_555
O5 Si1 1.603039 1_555
O5 W0 2.229228 1_555
O6 Si3 1.603039 1_555
O6 W1 2.229228 1_555
O7 Si2 1.603039 1_555
O7 W1 2.229228 1_555
O8 Si2 1.625891 1_555
O8 W1 2.235556 1_655
O8 W0 2.297713 1_564
O9 Si3 1.625891 1_555
O9 W1 2.235556 1_545
O9 W0 2.297713 1_455
O10 Si0 1.625891 1_555
O10 W0 2.235556 1_565
O10 W1 2.297713 1_655
O11 Si1 1.625891 1_555
O11 W0 2.235556 1_455
O11 W1 2.297713 1_546
