# generated using pymatgen
data_SrCa7Mn6Al2O20
_symmetry_space_group_name_H-M   'P 1'
_cell_length_a   10.95440264
_cell_length_b   15.47792449
_cell_length_c   10.91182225
_cell_angle_alpha   89.70589875
_cell_angle_beta   90.15901993
_cell_angle_gamma   90.19053118
_symmetry_Int_Tables_number   1
_chemical_formula_structural   SrCa7Mn6Al2O20
_chemical_formula_sum   'Sr4 Ca28 Mn24 Al8 O80'
_cell_volume   1850.07328333
_cell_formula_units_Z   4
loop_
 _symmetry_equiv_pos_site_id
 _symmetry_equiv_pos_as_xyz
  1  'x, y, z'
loop_
 _atom_site_type_symbol
 _atom_site_label
 _atom_site_symmetry_multiplicity
 _atom_site_fract_x
 _atom_site_fract_y
 _atom_site_fract_z
 _atom_site_occupancy
  Sr  Sr0  1  0.99970522  0.12214562  0.49545127  1
  Sr  Sr1  1  0.49750414  0.36172110  0.01266725  1
  Sr  Sr2  1  0.25293249  0.38366166  0.25674913  1
  Sr  Sr3  1  0.27268676  0.12588935  0.26504938  1
  Ca  Ca0  1  0.01966599  0.12305387  0.00543790  1
  Ca  Ca1  1  0.99635152  0.61042247  0.51919100  1
  Ca  Ca2  1  0.00984074  0.60714447  0.98746083  1
  Ca  Ca3  1  0.50189596  0.12509494  0.51809804  1
  Ca  Ca4  1  0.52107401  0.11537009  0.97329087  1
  Ca  Ca5  1  0.53373845  0.62242239  0.49484155  1
  Ca  Ca6  1  0.54323299  0.62634729  0.00346140  1
  Ca  Ca7  1  0.47006768  0.38554046  0.50871619  1
  Ca  Ca8  1  0.49968112  0.87211095  0.98581215  1
  Ca  Ca9  1  0.49545351  0.87235785  0.49843868  1
  Ca  Ca10  1  0.97458264  0.38286979  0.00477540  1
  Ca  Ca11  1  0.98850286  0.38381607  0.51415972  1
  Ca  Ca12  1  0.98519284  0.86951735  0.01278722  1
  Ca  Ca13  1  0.96188098  0.88035499  0.51728820  1
  Ca  Ca14  1  0.24459856  0.38601459  0.74482742  1
  Ca  Ca15  1  0.22110935  0.89829611  0.25275615  1
  Ca  Ca16  1  0.24158528  0.88877196  0.78007741  1
  Ca  Ca17  1  0.74645200  0.39187697  0.25153592  1
  Ca  Ca18  1  0.71192888  0.38532518  0.74303578  1
  Ca  Ca19  1  0.74007466  0.86256790  0.24342791  1
  Ca  Ca20  1  0.72461645  0.87411662  0.74571201  1
  Ca  Ca21  1  0.27946127  0.12144063  0.75234331  1
  Ca  Ca22  1  0.27795426  0.61652360  0.25768517  1
  Ca  Ca23  1  0.24602649  0.61685228  0.72570743  1
  Ca  Ca24  1  0.71995493  0.11475208  0.22748857  1
  Ca  Ca25  1  0.71226734  0.11047534  0.73078895  1
  Ca  Ca26  1  0.75964551  0.61885035  0.24659393  1
  Ca  Ca27  1  0.77606868  0.62107643  0.75935534  1
  Mn  Mn0  1  0.99501607  0.00948753  0.24959711  1
  Mn  Mn1  1  0.00003114  0.99497760  0.75516608  1
  Mn  Mn2  1  0.99938358  0.48756309  0.25137328  1
  Mn  Mn3  1  0.00626136  0.49681789  0.75429266  1
  Mn  Mn4  1  0.50263166  0.50362601  0.24346621  1
  Mn  Mn5  1  0.49915183  0.50487172  0.73971874  1
  Mn  Mn6  1  0.25139047  0.99606991  0.00517219  1
  Mn  Mn7  1  0.24585290  0.50318132  0.49744655  1
  Mn  Mn8  1  0.74583704  0.99452097  0.00015091  1
  Mn  Mn9  1  0.72558975  0.00183207  0.50149593  1
  Mn  Mn10  1  0.74944235  0.49853517  0.99979048  1
  Mn  Mn11  1  0.75333547  0.49629159  0.50011349  1
  Mn  Mn12  1  0.25954096  0.73785956  0.97937982  1
  Mn  Mn13  1  0.24926810  0.76016365  0.45660683  1
  Mn  Mn14  1  0.75499775  0.24266057  0.97798312  1
  Mn  Mn15  1  0.74897349  0.25274810  0.49764050  1
  Mn  Mn16  1  0.76494482  0.74924761  0.00379784  1
  Mn  Mn17  1  0.76040506  0.74780213  0.50773053  1
  Mn  Mn18  1  0.99102478  0.25341283  0.76603145  1
  Mn  Mn19  1  0.99988298  0.76149001  0.27234694  1
  Mn  Mn20  1  0.00435887  0.75188523  0.76571647  1
  Mn  Mn21  1  0.48873565  0.25117425  0.74906231  1
  Mn  Mn22  1  0.51679852  0.74713278  0.25742594  1
  Mn  Mn23  1  0.51062469  0.74476721  0.75880646  1
  Al  Al0  1  0.50048905  0.97942334  0.23204060  1
  Al  Al1  1  0.48402931  0.98908922  0.74773755  1
  Al  Al2  1  0.23282989  0.99928894  0.52126381  1
  Al  Al3  1  0.23357757  0.49626496  0.01600616  1
  Al  Al4  1  0.23471279  0.25911328  0.96944121  1
  Al  Al5  1  0.27246373  0.24404023  0.48909103  1
  Al  Al6  1  0.04141760  0.23960071  0.24327515  1
  Al  Al7  1  0.52521441  0.26108029  0.27928575  1
  O  O0  1  0.53260211  0.20834273  0.13808762  1
  O  O1  1  0.59614857  0.26848813  0.60789009  1
  O  O2  1  0.61381183  0.77306252  0.10711536  1
  O  O3  1  0.60269266  0.76763683  0.60779073  1
  O  O4  1  0.40469938  0.23128819  0.38165747  1
  O  O5  1  0.37929367  0.22191773  0.91274676  1
  O  O6  1  0.41393085  0.72741767  0.39848832  1
  O  O7  1  0.42232962  0.72923890  0.91683167  1
  O  O8  1  0.95391518  0.14103534  0.24231892  1
  O  O9  1  0.92040859  0.24318893  0.93892985  1
  O  O10  1  0.92431016  0.73585212  0.42483333  1
  O  O11  1  0.92193532  0.73450846  0.92746441  1
  O  O12  1  0.13407711  0.23268487  0.37830664  1
  O  O13  1  0.14210085  0.21403606  0.85167254  1
  O  O14  1  0.17290676  0.74914612  0.28234781  1
  O  O15  1  0.17602541  0.74183155  0.81430010  1
  O  O16  1  0.67571799  0.24390623  0.33418032  1
  O  O17  1  0.63644572  0.23899160  0.84775101  1
  O  O18  1  0.66953796  0.72928444  0.36065268  1
  O  O19  1  0.66852234  0.73708624  0.85674189  1
  O  O20  1  0.34207666  0.25778670  0.64587709  1
  O  O21  1  0.90427869  0.25002401  0.60418674  1
  O  O22  1  0.86980742  0.75948318  0.15734366  1
  O  O23  1  0.86561989  0.77931652  0.65202519  1
  O  O24  1  0.36377168  0.49103215  0.11997450  1
  O  O25  1  0.35486720  0.48898015  0.64165533  1
  O  O26  1  0.35504617  0.00264606  0.16484508  1
  O  O27  1  0.34225695  0.98868208  0.65047255  1
  O  O28  1  0.86170589  0.49906987  0.14728264  1
  O  O29  1  0.86025990  0.47741640  0.64328607  1
  O  O30  1  0.84576987  0.98679996  0.15509965  1
  O  O31  1  0.84941804  0.99797191  0.65222473  1
  O  O32  1  0.13413414  0.02452655  0.36143802  1
  O  O33  1  0.13939394  0.02874177  0.86919353  1
  O  O34  1  0.14196430  0.51186216  0.34715966  1
  O  O35  1  0.17928488  0.51629932  0.86269941  1
  O  O36  1  0.56521323  0.03843125  0.35481966  1
  O  O37  1  0.63874911  0.00102691  0.85498569  1
  O  O38  1  0.64189799  0.51731882  0.35123643  1
  O  O39  1  0.63479070  0.51776266  0.85267063  1
  O  O40  1  0.38937134  0.00695307  0.89545397  1
  O  O41  1  0.38633418  0.51472556  0.39130684  1
  O  O42  1  0.89762983  0.51493345  0.38970050  1
  O  O43  1  0.89591147  0.50381207  0.89339065  1
  O  O44  1  0.09943946  0.48262693  0.10740825  1
  O  O45  1  0.10793867  0.49079818  0.60749828  1
  O  O46  1  0.10839128  0.99815981  0.10383788  1
  O  O47  1  0.09287255  0.98889685  0.59945423  1
  O  O48  1  0.61413251  0.48921417  0.10454472  1
  O  O49  1  0.61223249  0.47660272  0.59777525  1
  O  O50  1  0.59767804  0.99099378  0.10758504  1
  O  O51  1  0.58604093  0.98678579  0.61536538  1
  O  O52  1  0.97301827  0.34095451  0.23344335  1
  O  O53  1  0.03023472  0.37657737  0.77834974  1
  O  O54  1  0.00252637  0.88990081  0.29298824  1
  O  O55  1  0.02497182  0.87234532  0.80129829  1
  O  O56  1  0.50043607  0.37354131  0.26662922  1
  O  O57  1  0.48610445  0.37802980  0.78484704  1
  O  O58  1  0.49746503  0.87097991  0.28058368  1
  O  O59  1  0.47696353  0.86755432  0.77255189  1
  O  O60  1  0.49634284  0.12434954  0.73171768  1
  O  O61  1  0.49176160  0.62975892  0.20791405  1
  O  O62  1  0.47129543  0.62836123  0.71162808  1
  O  O63  1  0.99483598  0.62643591  0.73356611  1
  O  O64  1  0.15778732  0.22363579  0.11414891  1
  O  O65  1  0.26623347  0.12063169  0.51531905  1
  O  O66  1  0.22131919  0.62831254  0.04482428  1
  O  O67  1  0.20527519  0.65152772  0.52385758  1
  O  O68  1  0.75837861  0.12028709  0.00931766  1
  O  O69  1  0.74461475  0.12759769  0.50985508  1
  O  O70  1  0.75328857  0.62828102  0.02974645  1
  O  O71  1  0.75458019  0.62231446  0.54487935  1
  O  O72  1  0.24692459  0.36088232  0.48493809  1
  O  O73  1  0.25262786  0.37151131  0.98379099  1
  O  O74  1  0.27437151  0.88949681  0.46138623  1
  O  O75  1  0.25868107  0.85969207  0.00701214  1
  O  O76  1  0.77745688  0.37255575  0.46283220  1
  O  O77  1  0.74970735  0.36291782  0.00435017  1
  O  O78  1  0.75772370  0.88228306  0.45728073  1
  O  O79  1  0.78238600  0.87732196  0.96305535  1
loop_
_geom_bond_atom_site_label_1
_geom_bond_atom_site_label_2
_geom_bond_distance
_geom_bond_site_symmetry_2
Ca0 O9 2.271925 1_454
Ca0 O46 2.412428 1_545
Ca0 O33 2.471251 1_554
Ca0 O64 2.472527 1_555
Ca0 O13 2.563743 1_554
Ca0 O8 2.701203 1_455
Ca0 O68 2.862852 1_455
Ca1 O42 2.313599 1_555
Ca1 O10 2.331748 1_555
Ca1 O63 2.353692 1_555
Ca1 O67 2.373862 1_655
Ca1 O45 2.416834 1_655
Ca1 O71 2.671083 1_555
Ca1 O29 2.873384 1_555
Ca1 O34 2.908181 1_655
Ca2 O43 2.272814 1_455
Ca2 O11 2.288643 1_455
Ca2 O66 2.419687 1_556
Ca2 O44 2.523956 1_556
Ca2 O35 2.706807 1_555
Ca2 O63 2.789426 1_455
Ca2 O70 2.869321 1_456
Ca2 O28 2.905248 1_456
Ca3 O60 2.331910 1_555
Ca3 O36 2.343561 1_555
Ca3 O4 2.455510 1_555
Ca3 O51 2.557980 1_545
Ca3 O65 2.582334 1_555
Ca3 O1 2.636920 1_555
Ca3 O69 2.660756 1_555
Ca4 O0 2.311812 1_556
Ca4 O5 2.359754 1_555
Ca4 O40 2.368646 1_555
Ca4 O37 2.551118 1_555
Ca4 O50 2.555870 1_546
Ca4 O68 2.628918 1_556
Ca4 O60 2.652122 1_555
Ca4 O17 2.664871 1_555
Ca5 O6 2.336200 1_555
Ca5 O62 2.466523 1_555
Ca5 O71 2.478565 1_555
Ca5 O38 2.560273 1_555
Ca5 O41 2.579461 1_555
Ca5 O18 2.657737 1_555
Ca5 O49 2.660155 1_555
Ca5 O3 2.674572 1_555
Ca6 O7 2.274973 1_554
Ca6 O61 2.303526 1_555
Ca6 O70 2.318163 1_555
Ca6 O48 2.511405 1_555
Ca6 O39 2.566451 1_554
Ca6 O2 2.653983 1_555
Ca6 O19 2.711643 1_554
Ca7 O49 2.312421 1_555
Ca7 O72 2.485832 1_555
Ca7 O25 2.511480 1_555
Ca7 O1 2.519764 1_555
Ca7 O41 2.541680 1_555
Ca7 O56 2.670878 1_555
Ca7 O20 2.842291 1_555
Ca7 O4 2.855216 1_555
Ca7 O57 3.019386 1_555
Ca8 O59 2.341038 1_555
Ca8 O2 2.376577 1_556
Ca8 O7 2.485107 1_555
Ca8 O50 2.511548 1_556
Ca8 O40 2.603313 1_565
Ca8 O75 2.657006 1_556
Ca8 O37 2.881444 1_565
Ca9 O3 2.327239 1_555
Ca9 O58 2.377564 1_555
Ca9 O51 2.398729 1_555
Ca9 O74 2.469168 1_555
Ca9 O6 2.650682 1_555
Ca9 O78 2.912563 1_555
Ca9 O27 2.979313 1_555
Ca9 O59 2.999010 1_555
Ca9 O36 3.098300 1_565
Ca10 O44 2.346089 1_655
Ca10 O9 2.355328 1_554
Ca10 O43 2.388643 1_554
Ca10 O77 2.481631 1_555
Ca10 O53 2.548883 1_654
Ca10 O52 2.575009 1_555
Ca10 O28 2.689963 1_555
Ca10 O73 3.060751 1_654
Ca11 O45 2.342325 1_655
Ca11 O76 2.383275 1_555
Ca11 O21 2.464958 1_555
Ca11 O29 2.470455 1_555
Ca11 O42 2.632777 1_555
Ca11 O72 2.873025 1_655
Ca11 O53 2.919204 1_655
Ca12 O79 2.288914 1_554
Ca12 O55 2.349858 1_654
Ca12 O11 2.391740 1_554
Ca12 O46 2.601533 1_655
Ca12 O22 2.637323 1_555
Ca12 O30 2.846036 1_555
Ca12 O75 3.001115 1_655
Ca13 O78 2.328806 1_555
Ca13 O47 2.382770 1_655
Ca13 O23 2.386045 1_555
Ca13 O10 2.490844 1_555
Ca13 O54 2.492455 1_655
Ca13 O31 2.655618 1_555
Ca14 O25 2.289692 1_555
Ca14 O53 2.381439 1_555
Ca14 O35 2.504787 1_555
Ca14 O20 2.507504 1_555
Ca14 O73 2.617285 1_555
Ca14 O45 2.663778 1_555
Ca14 O57 2.683305 1_555
Ca14 O72 2.864593 1_555
Ca15 O74 2.351925 1_555
Ca15 O26 2.378577 1_565
Ca15 O14 2.386962 1_555
Ca15 O54 2.438475 1_555
Ca15 O32 2.484727 1_565
Ca15 O46 2.555399 1_555
Ca15 O75 2.782292 1_555
Ca15 O58 3.072079 1_555
Ca16 O27 2.362714 1_555
Ca16 O55 2.397335 1_555
Ca16 O15 2.410335 1_555
Ca16 O75 2.521135 1_556
Ca16 O59 2.601916 1_555
Ca16 O33 2.633634 1_565
Ca16 O40 2.746719 1_565
Ca16 O47 2.984569 1_555
Ca17 O76 2.347330 1_555
Ca17 O28 2.369699 1_555
Ca17 O38 2.511663 1_555
Ca17 O16 2.574857 1_555
Ca17 O52 2.614831 1_555
Ca17 O48 2.630630 1_555
Ca17 O56 2.714288 1_555
Ca17 O77 2.736854 1_555
Ca17 O42 2.939022 1_555
Ca18 O49 2.383013 1_555
Ca18 O29 2.415606 1_555
Ca18 O57 2.518795 1_555
Ca18 O39 2.527731 1_555
Ca18 O1 2.656187 1_555
Ca18 O17 2.661861 1_555
Ca18 O77 2.899375 1_556
Ca19 O22 2.342140 1_555
Ca19 O78 2.362254 1_555
Ca19 O30 2.437058 1_555
Ca19 O2 2.457983 1_555
Ca19 O18 2.541023 1_555
Ca19 O58 2.693181 1_555
Ca19 O50 2.925601 1_555
Ca19 O54 2.953421 1_655
Ca20 O23 2.371315 1_555
Ca20 O79 2.453599 1_555
Ca20 O37 2.491505 1_565
Ca20 O19 2.512549 1_555
Ca20 O31 2.560251 1_555
Ca20 O3 2.600890 1_555
Ca20 O51 2.710838 1_555
Ca20 O59 2.730958 1_555
Ca21 O13 2.352073 1_555
Ca21 O60 2.387320 1_555
Ca21 O27 2.442999 1_545
Ca21 O33 2.452762 1_555
Ca21 O20 2.498668 1_555
Ca21 O5 2.585359 1_555
Ca21 O65 2.590113 1_555
Ca21 O40 2.646439 1_555
Ca22 O14 2.373473 1_555
Ca22 O34 2.402580 1_555
Ca22 O66 2.408637 1_555
Ca22 O61 2.413550 1_555
Ca22 O41 2.448937 1_555
Ca22 O24 2.639022 1_555
Ca22 O6 2.742763 1_555
Ca23 O35 2.272861 1_555
Ca23 O15 2.301672 1_555
Ca23 O67 2.307066 1_555
Ca23 O62 2.478651 1_555
Ca23 O25 2.494061 1_555
Ca23 O63 2.757725 1_455
Ca23 O45 2.784591 1_555
Ca24 O16 2.370614 1_555
Ca24 O68 2.419750 1_555
Ca24 O36 2.486402 1_555
Ca24 O30 2.546727 1_545
Ca24 O8 2.598375 1_555
Ca24 O50 2.678463 1_545
Ca24 O0 2.693753 1_555
Ca25 O37 2.308323 1_555
Ca25 O60 2.375817 1_555
Ca25 O69 2.450565 1_555
Ca25 O31 2.462562 1_545
Ca25 O17 2.513651 1_555
Ca25 O51 2.675982 1_545
Ca25 O68 3.083990 1_556
Ca26 O38 2.326671 1_555
Ca26 O18 2.341980 1_555
Ca26 O70 2.370795 1_555
Ca26 O28 2.429518 1_555
Ca26 O22 2.666467 1_555
Ca26 O42 2.699533 1_555
Ca27 O71 2.351469 1_555
Ca27 O19 2.404567 1_555
Ca27 O63 2.414808 1_555
Ca27 O39 2.442246 1_555
Ca27 O43 2.671098 1_555
Ca27 O29 2.729086 1_555
Ca27 O23 2.879865 1_555
Ca27 O70 2.964383 1_556
Ca27 O11 2.999792 1_555
Mn0 O54 1.910178 1_645
Mn0 O30 1.962144 1_545
Mn0 O32 1.963722 1_655
Mn0 O46 2.029325 1_645
Mn0 O8 2.087800 1_555
Mn1 O55 1.980827 1_555
Mn1 O47 1.985448 1_555
Mn1 O31 1.993911 1_455
Mn1 O33 2.035364 1_565
Mn2 O28 1.893833 1_555
Mn2 O34 1.914278 1_655
Mn2 O44 1.919976 1_655
Mn2 O42 1.928537 1_555
Mn2 O52 2.295829 1_555
Mn3 O53 1.897188 1_555
Mn3 O43 1.946652 1_455
Mn3 O45 1.956306 1_555
Mn3 O63 2.022024 1_455
Mn3 O29 2.026110 1_455
Mn3 O35 2.251677 1_555
Mn4 O38 1.935372 1_555
Mn4 O48 1.963444 1_555
Mn4 O61 1.992378 1_555
Mn4 O56 2.028027 1_555
Mn4 O24 2.038868 1_555
Mn4 O41 2.066560 1_555
Mn5 O25 1.922077 1_555
Mn5 O39 1.938301 1_555
Mn5 O62 1.959010 1_555
Mn5 O57 2.026294 1_555
Mn5 O49 2.036194 1_555
Mn6 O46 1.903693 1_555
Mn6 O40 1.937171 1_564
Mn6 O33 1.987160 1_564
Mn6 O26 2.079771 1_565
Mn6 O75 2.112612 1_555
Mn7 O41 1.935825 1_555
Mn7 O45 1.940880 1_555
Mn7 O25 1.984519 1_555
Mn7 O34 1.997714 1_555
Mn7 O72 2.207490 1_555
Mn7 O67 2.359445 1_555
Mn8 O79 1.904731 1_554
Mn8 O68 1.954039 1_565
Mn8 O37 1.970840 1_564
Mn8 O50 2.005167 1_555
Mn8 O30 2.014918 1_555
Mn9 O78 1.948075 1_545
Mn9 O69 1.959589 1_555
Mn9 O51 1.984981 1_545
Mn9 O31 2.129750 1_545
Mn9 O36 2.439399 1_555
Mn10 O48 1.879021 1_556
Mn10 O43 1.984310 1_555
Mn10 O28 2.022796 1_556
Mn10 O70 2.036560 1_556
Mn10 O39 2.056569 1_555
Mn10 O77 2.099421 1_556
Mn11 O49 1.902729 1_555
Mn11 O29 1.971145 1_555
Mn11 O76 1.978677 1_555
Mn11 O42 2.009294 1_555
Mn11 O71 2.013230 1_555
Mn11 O38 2.054599 1_555
Mn12 O66 1.882739 1_556
Mn12 O75 1.911254 1_556
Mn12 O7 1.916479 1_555
Mn12 O15 2.018811 1_555
Mn13 O67 1.892606 1_555
Mn13 O6 1.982026 1_555
Mn13 O74 2.020621 1_555
Mn13 O14 2.082784 1_555
Mn14 O9 1.862546 1_555
Mn14 O77 1.886002 1_556
Mn14 O17 1.923355 1_555
Mn14 O68 1.923433 1_556
Mn15 O76 1.915699 1_555
Mn15 O69 1.941404 1_555
Mn15 O16 1.959061 1_555
Mn15 O21 2.058344 1_555
Mn15 O1 2.079940 1_555
Mn16 O70 1.896100 1_555
Mn16 O11 1.927650 1_554
Mn16 O19 1.928306 1_554
Mn16 O22 2.035348 1_555
Mn16 O79 2.037810 1_554
Mn16 O2 2.041192 1_555
Mn17 O18 1.908554 1_555
Mn17 O71 1.982955 1_555
Mn17 O23 2.009854 1_555
Mn17 O10 2.022162 1_555
Mn17 O3 2.070884 1_555
Mn17 O78 2.150593 1_555
Mn18 O53 1.957938 1_655
Mn18 O13 1.993960 1_655
Mn18 O21 2.003962 1_555
Mn18 O9 2.046229 1_555
Mn19 O22 1.896378 1_555
Mn19 O10 1.900019 1_555
Mn19 O14 1.908375 1_655
Mn19 O54 2.001507 1_655
Mn20 O55 1.918889 1_555
Mn20 O15 1.958857 1_555
Mn20 O63 1.977265 1_455
Mn20 O11 2.001256 1_455
Mn20 O23 2.004376 1_455
Mn21 O17 1.950296 1_555
Mn21 O1 1.957807 1_555
Mn21 O20 1.961918 1_555
Mn21 O60 1.975109 1_555
Mn21 O57 2.004193 1_555
Mn21 O5 2.198285 1_555
Mn22 O61 1.916627 1_555
Mn22 O6 1.932542 1_555
Mn22 O58 1.947093 1_555
Mn22 O2 1.995161 1_555
Mn22 O18 2.033221 1_555
Mn23 O62 1.923530 1_555
Mn23 O59 1.943764 1_555
Mn23 O3 1.964374 1_555
Mn23 O7 1.992510 1_555
Mn23 O19 2.034142 1_555
Al0 O50 1.736108 1_555
Al0 O58 1.757716 1_555
Al0 O36 1.770522 1_565
Al0 O26 1.788812 1_565
Al1 O51 1.829243 1_555
Al1 O27 1.878627 1_555
Al1 O59 1.900472 1_555
Al1 O40 1.940488 1_565
Al1 O37 2.065276 1_565
Al1 O60 2.103852 1_565
Al2 O47 1.763117 1_555
Al2 O27 1.855055 1_555
Al2 O74 1.881483 1_555
Al2 O65 1.913060 1_565
Al2 O32 2.085266 1_565
Al3 O44 1.789510 1_555
Al3 O35 1.799639 1_554
Al3 O24 1.821675 1_555
Al3 O73 1.976273 1_554
Al3 O66 2.074315 1_555
Al4 O73 1.757812 1_555
Al4 O13 1.778955 1_555
Al4 O5 1.799369 1_555
Al4 O64 1.870923 1_556
Al5 O72 1.831216 1_555
Al5 O4 1.877571 1_555
Al5 O20 1.883907 1_555
Al5 O65 1.930986 1_555
Al5 O12 1.944364 1_555
Al6 O52 1.743425 1_455
Al6 O12 1.789852 1_555
Al6 O8 1.799083 1_455
Al6 O64 1.920157 1_555
Al7 O0 1.749494 1_555
Al7 O56 1.767236 1_555
Al7 O16 1.772962 1_555
Al7 O4 1.789457 1_555
O0 Sr1 2.761587 1_555
O4 Sr3 2.523293 1_555
O4 Sr2 3.188155 1_555
O5 Sr1 2.746940 1_556
O8 Sr0 2.819836 1_555
O12 Sr3 2.571615 1_555
O12 Sr0 2.588265 1_455
O12 Sr2 2.978716 1_555
O17 Sr1 3.038566 1_556
O21 Sr0 2.542219 1_555
O24 Sr2 2.536663 1_555
O24 Sr1 2.752472 1_555
O26 Sr3 2.384658 1_555
O31 Sr0 3.048196 1_565
O32 Sr3 2.418123 1_555
O32 Sr0 2.576683 1_455
O34 Sr2 2.535958 1_555
O41 Sr2 2.899220 1_555
O44 Sr2 2.793807 1_555
O47 Sr0 2.562541 1_465
O48 Sr1 2.554958 1_555
O52 Sr2 3.144469 1_655
O56 Sr2 2.718103 1_555
O56 Sr1 2.778247 1_555
O57 Sr1 2.500245 1_556
O64 Sr3 2.561248 1_555
O64 Sr2 3.107378 1_555
O65 Sr3 2.732796 1_555
O65 Sr0 2.927258 1_455
O69 Sr0 2.800792 1_555
O72 Sr2 2.514015 1_555
O73 Sr1 2.704705 1_556
O73 Sr2 2.985357 1_556
O77 Sr1 2.764475 1_555
