# generated using pymatgen
data_Li9Mn2Co5O16
_symmetry_space_group_name_H-M   'P 1'
_cell_length_a   5.90811300
_cell_length_b   6.45272902
_cell_length_c   8.10757744
_cell_angle_alpha   88.79831431
_cell_angle_beta   89.19225004
_cell_angle_gamma   66.23501377
_symmetry_Int_Tables_number   1
_chemical_formula_structural   Li9Mn2Co5O16
_chemical_formula_sum   'Li9 Mn2 Co5 O16'
_cell_volume   282.81239580
_cell_formula_units_Z   1
loop_
 _symmetry_equiv_pos_site_id
 _symmetry_equiv_pos_as_xyz
  1  'x, y, z'
loop_
 _atom_site_type_symbol
 _atom_site_label
 _atom_site_symmetry_multiplicity
 _atom_site_fract_x
 _atom_site_fract_y
 _atom_site_fract_z
 _atom_site_occupancy
  Li  Li0  1  0.75082000  0.50306400  0.00515400  1
  Li  Li1  1  0.13350600  0.24598300  0.25138800  1
  Li  Li2  1  0.37347800  0.75166000  0.74865200  1
  Li  Li3  1  0.01671200  0.99441900  0.49551300  1
  Li  Li4  1  0.61837400  0.25244900  0.24874700  1
  Li  Li5  1  0.24683100  0.50450400  0.00854400  1
  Li  Li6  1  0.87516900  0.74825600  0.75100500  1
  Li  Li7  1  0.48858600  0.99507900  0.49085300  1
  Li  Li8  1  0.37417700  0.75170900  0.25142500  1
  Mn  Mn0  1  0.00631900  0.99552300  0.00017000  1
  Mn  Mn1  1  0.25038300  0.50330200  0.49674700  1
  Co  Co0  1  0.74076400  0.50763400  0.49768400  1
  Co  Co1  1  0.12459200  0.24933700  0.74992800  1
  Co  Co2  1  0.50283900  0.99696700  0.00393800  1
  Co  Co3  1  0.87797100  0.74994300  0.24962100  1
  Co  Co4  1  0.62345500  0.25020600  0.74974400  1
  O  O0  1  0.11238700  0.24288000  0.98834200  1
  O  O1  1  0.50407400  0.99443700  0.23191400  1
  O  O2  1  0.73988800  0.48565200  0.73424100  1
  O  O3  1  0.36873600  0.73618600  0.50272100  1
  O  O4  1  0.98716700  0.98931100  0.23643700  1
  O  O5  1  0.65333500  0.22179000  0.98923800  1
  O  O6  1  0.24026200  0.48618200  0.74142800  1
  O  O7  1  0.89997000  0.72459900  0.49360600  1
  O  O8  1  0.34740300  0.78374200  0.99756000  1
  O  O9  1  0.76348400  0.51440800  0.26704700  1
  O  O10  1  0.00319700  0.01366700  0.75880400  1
  O  O11  1  0.59572200  0.27924500  0.50851500  1
  O  O12  1  0.25274200  0.49885200  0.26549100  1
  O  O13  1  0.88695900  0.75652900  0.00675200  1
  O  O14  1  0.50943900  0.01426000  0.76469800  1
  O  O15  1  0.13126000  0.25822700  0.51409400  1
loop_
_geom_bond_atom_site_label_1
_geom_bond_atom_site_label_2
_geom_bond_distance
_geom_bond_site_symmetry_2
Li0 O13 2.093691 1_555
Li0 O5 2.120609 1_554
Li0 O0 2.123997 1_654
Li0 O9 2.129518 1_555
Li0 O2 2.204854 1_554
Li0 O8 2.342022 1_554
Li1 O12 2.026894 1_555
Li1 O15 2.132686 1_555
Li1 O0 2.139051 1_554
Li1 O1 2.142358 1_545
Li1 O4 2.161207 1_445
Li1 O9 2.178284 1_455
Li2 O3 1.999648 1_555
Li2 O8 2.030303 1_555
Li2 O14 2.154689 1_565
Li2 O6 2.156300 1_555
Li2 O2 2.157013 1_555
Li2 O10 2.161196 1_565
Li3 O3 2.076471 1_555
Li3 O15 2.078607 1_565
Li3 O4 2.112213 1_455
Li3 O7 2.115797 1_455
Li3 O10 2.139361 1_565
Li3 O11 2.427305 1_465
Li4 O1 2.040774 1_545
Li4 O12 2.108420 1_555
Li4 O11 2.114733 1_555
Li4 O5 2.116801 1_554
Li4 O4 2.158629 1_545
Li4 O9 2.190071 1_555
Li5 O12 2.083311 1_555
Li5 O13 2.092502 1_455
Li5 O8 2.112423 1_554
Li5 O0 2.145639 1_554
Li5 O6 2.173106 1_554
Li5 O5 2.364460 1_554
Li6 O13 2.078165 1_556
Li6 O7 2.094412 1_555
Li6 O10 2.135230 1_665
Li6 O6 2.139943 1_655
Li6 O2 2.152428 1_555
Li6 O14 2.153941 1_565
Li7 O3 2.060622 1_555
Li7 O1 2.100090 1_555
Li7 O15 2.118639 1_565
Li7 O11 2.175416 1_565
Li7 O14 2.234144 1_565
Li7 O7 2.352650 1_555
Li8 O1 2.005527 1_555
Li8 O12 2.030587 1_555
Li8 O3 2.038201 1_555
Li8 O8 2.066166 1_554
Li8 O4 2.183593 1_455
Li8 O9 2.193749 1_555
Mn0 O4 1.917831 1_455
Mn0 O8 1.925958 1_554
Mn0 O0 1.935864 1_564
Mn0 O13 1.936598 1_455
Mn0 O10 1.957843 1_564
Mn0 O5 2.008596 1_464
Mn1 O12 1.875517 1_555
Mn1 O3 1.897475 1_555
Mn1 O11 1.970898 1_555
Mn1 O15 1.975056 1_555
Mn1 O7 1.985717 1_455
Mn1 O6 1.985928 1_555
Co0 O9 1.873688 1_555
Co0 O2 1.920262 1_555
Co0 O7 1.975960 1_555
Co0 O11 1.980962 1_555
Co0 O3 2.096469 1_555
Co0 O15 2.222063 1_655
Co1 O6 1.908794 1_555
Co1 O15 1.912027 1_555
Co1 O10 1.924880 1_555
Co1 O0 1.933490 1_555
Co1 O14 2.169186 1_555
Co1 O2 2.171179 1_455
Co2 O1 1.848154 1_555
Co2 O8 1.939523 1_554
Co2 O14 1.941272 1_564
Co2 O5 1.984633 1_564
Co2 O13 2.172573 1_555
Co2 O0 2.214719 1_564
Co3 O9 1.898490 1_555
Co3 O4 1.899371 1_555
Co3 O13 1.969076 1_555
Co3 O7 1.983223 1_555
Co3 O1 2.140084 1_555
Co3 O12 2.156894 1_655
Co4 O14 1.898157 1_555
Co4 O2 1.905009 1_555
Co4 O5 1.950305 1_555
Co4 O11 1.963661 1_555
Co4 O10 2.146762 1_655
Co4 O6 2.161057 1_555
