# generated using pymatgen
data_Ba2IrN3
_symmetry_space_group_name_H-M   'P 1'
_cell_length_a   6.73518195
_cell_length_b   12.03508345
_cell_length_c   12.99578405
_cell_angle_alpha   90.01347294
_cell_angle_beta   89.98823817
_cell_angle_gamma   153.30739262
_symmetry_Int_Tables_number   1
_chemical_formula_structural   Ba2IrN3
_chemical_formula_sum   'Ba8 Ir4 N12'
_cell_volume   473.19948499
_cell_formula_units_Z   4
loop_
 _symmetry_equiv_pos_site_id
 _symmetry_equiv_pos_as_xyz
  1  'x, y, z'
loop_
 _atom_site_type_symbol
 _atom_site_label
 _atom_site_symmetry_multiplicity
 _atom_site_fract_x
 _atom_site_fract_y
 _atom_site_fract_z
 _atom_site_occupancy
  Ba  Ba0  1  0.50000100  0.05897400  0.85686000  1
  Ba  Ba1  1  0.49999600  0.55897600  0.64309000  1
  Ba  Ba2  1  0.50001800  0.94101400  0.14312100  1
  Ba  Ba3  1  0.49999900  0.44099900  0.35692200  1
  Ba  Ba4  1  0.49999700  0.86282000  0.57891400  1
  Ba  Ba5  1  0.49996900  0.36279800  0.92101900  1
  Ba  Ba6  1  0.50001000  0.13716700  0.42112700  1
  Ba  Ba7  1  0.50002300  0.63718300  0.07893700  1
  Ir  Ir0  1  0.50006300  0.24152800  0.66276900  1
  Ir  Ir1  1  0.49991900  0.74141500  0.83727300  1
  Ir  Ir2  1  0.50002100  0.75841900  0.33713900  1
  Ir  Ir3  1  0.49999000  0.25845600  0.16280600  1
  N  N0  1  0.00002600  0.51206700  0.75001700  1
  N  N1  1  0.99996600  0.48794900  0.24999800  1
  N  N2  1  0.49999900  0.07724000  0.63796600  1
  N  N3  1  0.50001000  0.57734500  0.86203700  1
  N  N4  1  0.50001800  0.92279500  0.36203900  1
  N  N5  1  0.49999600  0.42268200  0.13796100  1
  N  N6  1  0.49998500  0.16146300  0.04879200  1
  N  N7  1  0.49998200  0.66139800  0.45131200  1
  N  N8  1  0.50004000  0.83861400  0.95121700  1
  N  N9  1  0.49997900  0.33865100  0.54866900  1
  N  N10  1  0.99997400  0.01205100  0.75001700  1
  N  N11  1  0.00001900  0.98799500  0.25000000  1
loop_
_geom_bond_atom_site_label_1
_geom_bond_atom_site_label_2
_geom_bond_distance
_geom_bond_site_symmetry_2
Ba0 N6 2.782407 1_556
Ba0 N2 2.853233 1_555
Ba0 N8 2.922297 1_545
Ba0 N3 3.034242 1_445
Ba0 N3 3.034314 1_655
Ba0 N10 3.192486 1_455
Ba0 N0 3.192506 1_655
Ba1 N7 2.780770 1_555
Ba1 N3 2.853905 1_555
Ba1 N9 2.921435 1_555
Ba1 N2 3.034154 1_455
Ba1 N2 3.034193 1_665
Ba1 N0 3.192259 1_555
Ba1 N10 3.192450 1_565
Ba2 N8 2.781622 1_554
Ba2 N4 2.853499 1_555
Ba2 N6 2.923084 1_565
Ba2 N5 3.034158 1_665
Ba2 N5 3.034308 1_455
Ba2 N11 3.191998 1_655
Ba2 N1 3.192355 1_455
Ba3 N9 2.779924 1_555
Ba3 N5 2.854043 1_555
Ba3 N7 2.922260 1_555
Ba3 N4 3.034082 1_445
Ba3 N4 3.034176 1_655
Ba3 N11 3.191761 1_545
Ba3 N1 3.191846 1_555
Ba4 N2 2.692072 1_565
Ba4 N4 2.909553 1_555
Ba4 N7 2.936665 1_555
Ba4 N10 2.950275 1_565
Ba4 N0 2.950394 1_555
Ba4 N9 3.064648 1_665
Ba4 N9 3.064772 1_455
Ba5 N3 2.693399 1_555
Ba5 N5 2.909787 1_556
Ba5 N6 2.937854 1_556
Ba5 N10 2.948899 1_455
Ba5 N0 2.949015 1_655
Ba5 N8 3.064522 1_445
Ba5 N8 3.064913 1_655
Ba6 N4 2.691710 1_545
Ba6 N2 2.908971 1_555
Ba6 N9 2.937069 1_555
Ba6 N1 2.950807 1_555
Ba6 N11 2.950859 1_545
Ba6 N7 3.064632 1_655
Ba6 N7 3.064783 1_445
Ba7 N5 2.693105 1_555
Ba7 N3 2.909142 1_554
Ba7 N8 2.938254 1_554
Ba7 N1 2.949766 1_455
Ba7 N11 2.949817 1_655
Ba7 N6 3.064624 1_665
Ba7 N6 3.064817 1_455
Ir0 N9 1.888660 1_555
Ir0 N0 1.906498 1_655
Ir0 N10 1.906818 1_455
Ir0 N2 2.002867 1_555
Ir1 N8 1.886440 1_555
Ir1 N0 1.906508 1_555
Ir1 N10 1.906949 1_565
Ir1 N3 2.001266 1_555
Ir2 N7 1.888188 1_555
Ir2 N11 1.905532 1_655
Ir2 N1 1.905713 1_455
Ir2 N4 2.004513 1_555
Ir3 N6 1.886051 1_555
Ir3 N1 1.906050 1_555
Ir3 N11 1.906060 1_545
Ir3 N5 2.002712 1_555
