# generated using pymatgen
data_CsCa10(PO4)7
_symmetry_space_group_name_H-M   'P 1'
_cell_length_a   13.93744791
_cell_length_b   13.93744791
_cell_length_c   13.93744788
_cell_angle_alpha   45.07607803
_cell_angle_beta   45.07607803
_cell_angle_gamma   45.07607778
_symmetry_Int_Tables_number   1
_chemical_formula_structural   CsCa10(PO4)7
_chemical_formula_sum   'Cs2 Ca20 P14 O56'
_cell_volume   1235.57390868
_cell_formula_units_Z   2
loop_
 _symmetry_equiv_pos_site_id
 _symmetry_equiv_pos_as_xyz
  1  'x, y, z'
loop_
 _atom_site_type_symbol
 _atom_site_label
 _atom_site_symmetry_multiplicity
 _atom_site_fract_x
 _atom_site_fract_y
 _atom_site_fract_z
 _atom_site_occupancy
  Cs  Cs0  1  0.66629000  0.66629000  0.66629000  1
  Cs  Cs1  1  0.16629000  0.16629000  0.16629000  1
  Ca  Ca0  1  0.98679300  0.98679300  0.98679300  1
  Ca  Ca1  1  0.48679300  0.48679300  0.48679300  1
  Ca  Ca2  1  0.04914500  0.64462100  0.06090400  1
  Ca  Ca3  1  0.06090400  0.04914500  0.64462100  1
  Ca  Ca4  1  0.64462100  0.06090400  0.04914500  1
  Ca  Ca5  1  0.56090400  0.14462100  0.54914500  1
  Ca  Ca6  1  0.54914500  0.56090400  0.14462100  1
  Ca  Ca7  1  0.14462100  0.54914500  0.56090400  1
  Ca  Ca8  1  0.83009200  0.43189400  0.40104600  1
  Ca  Ca9  1  0.40104600  0.83009200  0.43189400  1
  Ca  Ca10  1  0.43189400  0.40104600  0.83009200  1
  Ca  Ca11  1  0.90104600  0.93189400  0.33009200  1
  Ca  Ca12  1  0.33009200  0.90104600  0.93189400  1
  Ca  Ca13  1  0.93189400  0.33009200  0.90104600  1
  Ca  Ca14  1  0.05461200  0.43062200  0.45316100  1
  Ca  Ca15  1  0.45316100  0.05461200  0.43062200  1
  Ca  Ca16  1  0.43062200  0.45316100  0.05461200  1
  Ca  Ca17  1  0.95316100  0.93062200  0.55461200  1
  Ca  Ca18  1  0.55461200  0.95316100  0.93062200  1
  Ca  Ca19  1  0.93062200  0.55461200  0.95316100  1
  P  P0  1  0.25581000  0.25581000  0.25581000  1
  P  P1  1  0.75581000  0.75581000  0.75581000  1
  P  P2  1  0.67311300  0.71131300  0.17346900  1
  P  P3  1  0.17346900  0.67311300  0.71131300  1
  P  P4  1  0.71131300  0.17346900  0.67311300  1
  P  P5  1  0.67346900  0.21131300  0.17311300  1
  P  P6  1  0.17311300  0.67346900  0.21131300  1
  P  P7  1  0.21131300  0.17311300  0.67346900  1
  P  P8  1  0.76442300  0.80067700  0.29851000  1
  P  P9  1  0.29851000  0.76442300  0.80067700  1
  P  P10  1  0.80067700  0.29851000  0.76442300  1
  P  P11  1  0.79851000  0.30067700  0.26442300  1
  P  P12  1  0.26442300  0.79851000  0.30067700  1
  P  P13  1  0.30067700  0.26442300  0.79851000  1
  O  O0  1  0.29751500  0.29751500  0.29751500  1
  O  O1  1  0.79751500  0.79751500  0.79751500  1
  O  O2  1  0.09758900  0.37451800  0.25665900  1
  O  O3  1  0.25665900  0.09758900  0.37451800  1
  O  O4  1  0.37451800  0.25665900  0.09758900  1
  O  O5  1  0.75665900  0.87451800  0.59758900  1
  O  O6  1  0.59758900  0.75665900  0.87451800  1
  O  O7  1  0.87451800  0.59758900  0.75665900  1
  O  O8  1  0.60812400  0.63371700  0.34727800  1
  O  O9  1  0.34727800  0.60812400  0.63371700  1
  O  O10  1  0.63371700  0.34727800  0.60812400  1
  O  O11  1  0.84727800  0.13371700  0.10812400  1
  O  O12  1  0.10812400  0.84727800  0.13371700  1
  O  O13  1  0.13371700  0.10812400  0.84727800  1
  O  O14  1  0.58740100  0.88274400  0.12522000  1
  O  O15  1  0.12522000  0.58740100  0.88274400  1
  O  O16  1  0.88274400  0.12522000  0.58740100  1
  O  O17  1  0.62522000  0.38274400  0.08740100  1
  O  O18  1  0.08740100  0.62522000  0.38274400  1
  O  O19  1  0.38274400  0.08740100  0.62522000  1
  O  O20  1  0.65080000  0.67457000  0.10949700  1
  O  O21  1  0.10949700  0.65080000  0.67457000  1
  O  O22  1  0.67457000  0.10949700  0.65080000  1
  O  O23  1  0.60949700  0.17457000  0.15080000  1
  O  O24  1  0.15080000  0.60949700  0.17457000  1
  O  O25  1  0.17457000  0.15080000  0.60949700  1
  O  O26  1  0.84291900  0.65203500  0.11324000  1
  O  O27  1  0.11324000  0.84291900  0.65203500  1
  O  O28  1  0.65203500  0.11324000  0.84291900  1
  O  O29  1  0.61324000  0.15203500  0.34291900  1
  O  O30  1  0.34291900  0.61324000  0.15203500  1
  O  O31  1  0.15203500  0.34291900  0.61324000  1
  O  O32  1  0.59630200  0.87866300  0.33209800  1
  O  O33  1  0.33209800  0.59630200  0.87866300  1
  O  O34  1  0.87866300  0.33209800  0.59630200  1
  O  O35  1  0.83209800  0.37866300  0.09630200  1
  O  O36  1  0.09630200  0.83209800  0.37866300  1
  O  O37  1  0.37866300  0.09630200  0.83209800  1
  O  O38  1  0.85031600  0.85681900  0.12469300  1
  O  O39  1  0.12469300  0.85031600  0.85681900  1
  O  O40  1  0.85681900  0.12469300  0.85031600  1
  O  O41  1  0.62469300  0.35681900  0.35031600  1
  O  O42  1  0.35031600  0.62469300  0.35681900  1
  O  O43  1  0.35681900  0.35031600  0.62469300  1
  O  O44  1  0.83008600  0.62832000  0.36838500  1
  O  O45  1  0.36838500  0.83008600  0.62832000  1
  O  O46  1  0.62832000  0.36838500  0.83008600  1
  O  O47  1  0.86838500  0.12832000  0.33008600  1
  O  O48  1  0.33008600  0.86838500  0.12832000  1
  O  O49  1  0.12832000  0.33008600  0.86838500  1
  O  O50  1  0.77609700  0.85416800  0.35487000  1
  O  O51  1  0.35487000  0.77609700  0.85416800  1
  O  O52  1  0.85416800  0.35487000  0.77609700  1
  O  O53  1  0.85487000  0.35416800  0.27609700  1
  O  O54  1  0.27609700  0.85487000  0.35416800  1
  O  O55  1  0.35416800  0.27609700  0.85487000  1
loop_
_geom_bond_atom_site_label_1
_geom_bond_atom_site_label_2
_geom_bond_distance
_geom_bond_site_symmetry_2
Cs0 O52 2.874782 1_555
Cs0 O51 2.874782 1_555
Cs0 O50 2.874782 1_555
Cs0 O6 3.234244 1_555
Cs0 O7 3.234244 1_555
Cs0 O5 3.234244 1_555
Cs0 O45 3.277353 1_555
Cs0 O44 3.277353 1_555
Cs0 O46 3.277353 1_555
Cs1 O53 2.874782 1_455
Cs1 O54 2.874782 1_545
Cs1 O55 2.874782 1_554
Cs1 O3 3.234244 1_555
Cs1 O2 3.234244 1_555
Cs1 O4 3.234244 1_555
Cs1 O48 3.277353 1_545
Cs1 O49 3.277353 1_554
Cs1 O47 3.277353 1_455
Ca0 O39 2.319403 1_655
Ca0 O40 2.319403 1_565
Ca0 O38 2.319403 1_556
Ca0 O11 2.335999 1_566
Ca0 O12 2.335999 1_656
Ca0 O13 2.335999 1_665
Ca1 O42 2.319403 1_555
Ca1 O41 2.319403 1_555
Ca1 O43 2.319403 1_555
Ca1 O10 2.335999 1_555
Ca1 O9 2.335999 1_555
Ca1 O8 2.335999 1_555
Ca2 O26 2.351608 1_455
Ca2 O15 2.410425 1_554
Ca2 O24 2.419066 1_555
Ca2 O38 2.423933 1_455
Ca2 O39 2.436130 1_554
Ca2 O2 2.564636 1_555
Ca2 O33 2.641068 1_554
Ca2 O44 2.977254 1_455
Ca3 O27 2.351608 1_545
Ca3 O16 2.410425 1_455
Ca3 O25 2.419066 1_555
Ca3 O39 2.423933 1_545
Ca3 O40 2.436130 1_455
Ca3 O3 2.564636 1_555
Ca3 O34 2.641068 1_455
Ca3 O45 2.977254 1_545
Ca4 O28 2.351608 1_554
Ca4 O14 2.410425 1_545
Ca4 O23 2.419066 1_555
Ca4 O40 2.423933 1_554
Ca4 O38 2.436130 1_545
Ca4 O4 2.564636 1_555
Ca4 O32 2.641068 1_545
Ca4 O46 2.977254 1_554
Ca5 O29 2.351608 1_555
Ca5 O19 2.410425 1_555
Ca5 O22 2.419066 1_555
Ca5 O41 2.423933 1_555
Ca5 O43 2.436130 1_555
Ca5 O5 2.564636 1_545
Ca5 O37 2.641068 1_555
Ca5 O47 2.977254 1_555
Ca6 O30 2.351608 1_555
Ca6 O17 2.410425 1_555
Ca6 O20 2.419066 1_555
Ca6 O42 2.423933 1_555
Ca6 O41 2.436130 1_555
Ca6 O6 2.564636 1_554
Ca6 O35 2.641068 1_555
Ca6 O48 2.977254 1_555
Ca7 O31 2.351608 1_555
Ca7 O18 2.410425 1_555
Ca7 O21 2.419066 1_555
Ca7 O43 2.423933 1_555
Ca7 O42 2.436130 1_555
Ca7 O7 2.564636 1_455
Ca7 O36 2.641068 1_555
Ca7 O49 2.977254 1_555
Ca8 O53 2.369007 1_555
Ca8 O34 2.392670 1_555
Ca8 O10 2.409717 1_555
Ca8 O44 2.437569 1_555
Ca8 O8 2.459988 1_555
Ca8 O2 2.460638 1_655
Ca8 O26 2.813519 1_555
Ca8 O16 2.852479 1_555
Ca9 O54 2.369007 1_555
Ca9 O32 2.392670 1_555
Ca9 O8 2.409717 1_555
Ca9 O45 2.437569 1_555
Ca9 O9 2.459988 1_555
Ca9 O3 2.460638 1_565
Ca9 O27 2.813519 1_555
Ca9 O14 2.852479 1_555
Ca10 O55 2.369007 1_555
Ca10 O33 2.392670 1_555
Ca10 O9 2.409717 1_555
Ca10 O46 2.437569 1_555
Ca10 O10 2.459988 1_555
Ca10 O4 2.460638 1_556
Ca10 O28 2.813519 1_555
Ca10 O15 2.852479 1_555
Ca11 O50 2.369007 1_555
Ca11 O36 2.392670 1_655
Ca11 O12 2.409717 1_655
Ca11 O47 2.437569 1_565
Ca11 O11 2.459988 1_565
Ca11 O5 2.460638 1_555
Ca11 O29 2.813519 1_565
Ca11 O18 2.852479 1_655
Ca12 O51 2.369007 1_555
Ca12 O37 2.392670 1_565
Ca12 O13 2.409717 1_565
Ca12 O48 2.437569 1_556
Ca12 O12 2.459988 1_556
Ca12 O6 2.460638 1_555
Ca12 O30 2.813519 1_556
Ca12 O19 2.852479 1_565
Ca13 O52 2.369007 1_555
Ca13 O35 2.392670 1_556
Ca13 O11 2.409717 1_556
Ca13 O49 2.437569 1_655
Ca13 O13 2.459988 1_655
Ca13 O7 2.460638 1_555
Ca13 O31 2.813519 1_655
Ca13 O17 2.852479 1_556
Ca14 O34 2.420032 1_455
Ca14 O18 2.426058 1_555
Ca14 O0 2.459692 1_555
Ca14 O31 2.529503 1_555
Ca14 O25 2.585980 1_555
Ca14 O24 2.605004 1_555
Ca14 O44 2.688316 1_455
Ca14 O2 2.918404 1_555
Ca14 O52 2.978753 1_455
Ca15 O32 2.420032 1_545
Ca15 O19 2.426058 1_555
Ca15 O0 2.459692 1_555
Ca15 O29 2.529503 1_555
Ca15 O23 2.585980 1_555
Ca15 O25 2.605003 1_555
Ca15 O45 2.688316 1_545
Ca15 O3 2.918404 1_555
Ca15 O50 2.978753 1_545
Ca16 O33 2.420032 1_554
Ca16 O17 2.426058 1_555
Ca16 O0 2.459692 1_555
Ca16 O30 2.529503 1_555
Ca16 O24 2.585980 1_555
Ca16 O23 2.605003 1_555
Ca16 O46 2.688316 1_554
Ca16 O4 2.918404 1_555
Ca16 O51 2.978753 1_554
Ca17 O36 2.420032 1_655
Ca17 O16 2.426058 1_565
Ca17 O1 2.459692 1_555
Ca17 O27 2.529503 1_655
Ca17 O21 2.585980 1_655
Ca17 O22 2.605003 1_565
Ca17 O47 2.688316 1_565
Ca17 O5 2.918404 1_555
Ca17 O54 2.978753 1_655
Ca18 O37 2.420032 1_565
Ca18 O14 2.426058 1_556
Ca18 O1 2.459692 1_555
Ca18 O28 2.529503 1_565
Ca18 O22 2.585980 1_565
Ca18 O20 2.605003 1_556
Ca18 O48 2.688316 1_556
Ca18 O6 2.918404 1_555
Ca18 O55 2.978753 1_565
Ca19 O35 2.420032 1_556
Ca19 O15 2.426058 1_655
Ca19 O1 2.459692 1_555
Ca19 O26 2.529503 1_556
Ca19 O20 2.585980 1_556
Ca19 O21 2.605004 1_655
Ca19 O49 2.688316 1_655
Ca19 O7 2.918404 1_555
Ca19 O53 2.978753 1_556
O0 P0 1.563690 1_555
O1 P1 1.563690 1_555
O2 P0 1.561505 1_555
O3 P0 1.561505 1_555
O4 P0 1.561505 1_555
O5 P1 1.561505 1_555
O6 P1 1.561505 1_555
O7 P1 1.561505 1_555
O8 P2 1.562938 1_555
O9 P3 1.562938 1_555
O10 P4 1.562938 1_555
O11 P5 1.562938 1_555
O12 P6 1.562938 1_555
O13 P7 1.562938 1_555
O14 P2 1.556350 1_555
O15 P3 1.556350 1_555
O16 P4 1.556350 1_555
O17 P5 1.556350 1_555
O18 P6 1.556350 1_555
O19 P7 1.556350 1_555
O20 P2 1.554131 1_555
O21 P3 1.554131 1_555
O22 P4 1.554131 1_555
O23 P5 1.554131 1_555
O24 P6 1.554131 1_555
O25 P7 1.554131 1_555
O26 P2 1.549339 1_555
O27 P3 1.549339 1_555
O28 P4 1.549339 1_555
O29 P5 1.549339 1_555
O30 P6 1.549339 1_555
O31 P7 1.549339 1_555
O32 P8 1.569534 1_555
O33 P9 1.569534 1_555
O34 P10 1.569534 1_555
O35 P11 1.569534 1_555
O36 P12 1.569534 1_555
O37 P13 1.569534 1_555
O38 P8 1.569718 1_555
O39 P9 1.569718 1_555
O40 P10 1.569718 1_555
O41 P11 1.569718 1_555
O42 P12 1.569718 1_555
O43 P13 1.569718 1_555
O44 P8 1.551240 1_555
O45 P9 1.551240 1_555
O46 P10 1.551240 1_555
O47 P11 1.551240 1_555
O48 P12 1.551240 1_555
O49 P13 1.551240 1_555
O50 P8 1.542154 1_555
O51 P9 1.542154 1_555
O52 P10 1.542154 1_555
O53 P11 1.542154 1_555
O54 P12 1.542154 1_555
O55 P13 1.542154 1_555
