# generated using pymatgen
data_Ho4MnGe8
_symmetry_space_group_name_H-M   'P 1'
_cell_length_a   4.00095800
_cell_length_b   4.18809500
_cell_length_c   15.89398400
_cell_angle_alpha   90.00000000
_cell_angle_beta   90.00000000
_cell_angle_gamma   90.00000000
_symmetry_Int_Tables_number   1
_chemical_formula_structural   Ho4MnGe8
_chemical_formula_sum   'Ho4 Mn1 Ge8'
_cell_volume   266.32582945
_cell_formula_units_Z   1
loop_
 _symmetry_equiv_pos_site_id
 _symmetry_equiv_pos_as_xyz
  1  'x, y, z'
loop_
 _atom_site_type_symbol
 _atom_site_label
 _atom_site_symmetry_multiplicity
 _atom_site_fract_x
 _atom_site_fract_y
 _atom_site_fract_z
 _atom_site_occupancy
  Ho  Ho0  1  0.25000000  0.00000000  0.10052100  1
  Ho  Ho1  1  0.25000000  0.50000000  0.60710500  1
  Ho  Ho2  1  0.75000000  0.50000000  0.39892600  1
  Ho  Ho3  1  0.75000000  0.00000000  0.89653000  1
  Mn  Mn0  1  0.25000000  0.00000000  0.31078100  1
  Ge  Ge0  1  0.25000000  0.00000000  0.46002000  1
  Ge  Ge1  1  0.25000000  0.50000000  0.94572000  1
  Ge  Ge2  1  0.75000000  0.50000000  0.05396000  1
  Ge  Ge3  1  0.75000000  0.00000000  0.56601300  1
  Ge  Ge4  1  0.25000000  0.50000000  0.24044900  1
  Ge  Ge5  1  0.25000000  0.00000000  0.74906700  1
  Ge  Ge6  1  0.75000000  0.00000000  0.23535100  1
  Ge  Ge7  1  0.75000000  0.50000000  0.75355700  1
loop_
_geom_bond_atom_site_label_1
_geom_bond_atom_site_label_2
_geom_bond_distance
_geom_bond_site_symmetry_2
Ho2 Mn0 3.217092 1_555
Ho2 Mn0 3.217092 1_655
Ho2 Mn0 3.217092 1_665
Ho2 Mn0 3.217092 1_565
Ge0 Mn0 2.372002 1_555
Ge0 Ge3 2.615333 1_555
Ge0 Ge3 2.615333 1_455
Ge0 Ho2 3.054479 1_545
Ge0 Ho2 3.054479 1_445
Ge0 Ho2 3.054479 1_455
Ge0 Ho2 3.054479 1_555
Ge0 Ho1 3.138501 1_545
Ge0 Ho1 3.138501 1_555
Ge1 Ge2 2.638479 1_456
Ge1 Ge2 2.638479 1_556
Ge1 Ho3 2.999700 1_465
Ge1 Ho3 2.999700 1_455
Ge1 Ho3 2.999700 1_555
Ge1 Ho3 2.999700 1_565
Ge1 Ho0 3.230886 1_566
Ge1 Ho0 3.230886 1_556
Ge2 Ho0 2.989082 1_565
Ge2 Ho0 2.989082 1_655
Ge2 Ho0 2.989082 1_665
Ge2 Ho0 2.989082 1_555
Ge2 Ho3 3.262819 1_564
Ge2 Ho3 3.262819 1_554
Ge3 Ho1 2.968756 1_645
Ge3 Ho1 2.968756 1_655
Ge3 Ho1 2.968756 1_555
Ge3 Ho1 2.968756 1_545
Ge3 Ho2 3.381961 1_555
Ge3 Ho2 3.381961 1_545
Ge4 Mn0 2.373739 1_565
Ge4 Mn0 2.373739 1_555
Ge4 Ho0 3.054713 1_565
Ge4 Ho0 3.054713 1_555
Ge4 Ho2 3.216586 1_555
Ge4 Ho2 3.216586 1_455
Ge5 Ge7 2.896902 1_455
Ge5 Ge7 2.896902 1_555
Ge5 Ge7 2.896902 1_545
Ge5 Ge7 2.896902 1_445
Ge5 Ho1 3.078330 1_545
Ge5 Ho1 3.078330 1_555
Ge5 Ho3 3.081427 1_455
Ge5 Ho3 3.081427 1_555
Ge6 Mn0 2.332217 1_555
Ge6 Mn0 2.332217 1_655
Ge6 Ho0 2.931604 1_555
Ge6 Ho0 2.931604 1_655
Ge6 Ho2 3.338308 1_545
Ge6 Ho2 3.338308 1_555
Ge7 Ho1 3.069223 1_655
Ge7 Ho1 3.069223 1_555
Ge7 Ho3 3.090127 1_555
Ge7 Ho3 3.090127 1_565
