# generated using pymatgen
data_BaSn3S4
_symmetry_space_group_name_H-M   'P 1'
_cell_length_a   4.20507100
_cell_length_b   4.44900742
_cell_length_c   11.74599000
_cell_angle_alpha   90.49649717
_cell_angle_beta   90.00000000
_cell_angle_gamma   90.00000000
_symmetry_Int_Tables_number   1
_chemical_formula_structural   BaSn3S4
_chemical_formula_sum   'Ba1 Sn3 S4'
_cell_volume   219.74033567
_cell_formula_units_Z   1
loop_
 _symmetry_equiv_pos_site_id
 _symmetry_equiv_pos_as_xyz
  1  'x, y, z'
loop_
 _atom_site_type_symbol
 _atom_site_label
 _atom_site_symmetry_multiplicity
 _atom_site_fract_x
 _atom_site_fract_y
 _atom_site_fract_z
 _atom_site_occupancy
  Ba  Ba0  1  0.25000000  0.41811500  0.61264800  1
  Sn  Sn0  1  0.25000000  0.14951800  0.10585400  1
  Sn  Sn1  1  0.75000000  0.63280200  0.35862800  1
  Sn  Sn2  1  0.75000000  0.87009200  0.87998700  1
  S  S0  1  0.25000000  0.48191200  0.88225600  1
  S  S1  1  0.25000000  0.00887000  0.35101400  1
  S  S2  1  0.75000000  0.51747000  0.14763600  1
  S  S3  1  0.75000000  0.92122000  0.66197800  1
loop_
_geom_bond_atom_site_label_1
_geom_bond_atom_site_label_2
_geom_bond_distance
_geom_bond_site_symmetry_2
Ba0 S3 3.108978 1_545
Ba0 S3 3.108978 1_445
Ba0 S3 3.121536 1_455
Ba0 S3 3.121536 1_555
Ba0 S0 3.177056 1_555
Ba0 S1 3.558420 1_555
Ba0 Sn1 3.779538 1_455
Ba0 Sn1 3.779538 1_555
S0 Sn2 2.721166 1_555
S0 Sn2 2.721166 1_455
S0 Sn0 3.025244 1_556
S1 Sn1 2.688979 1_545
S1 Sn1 2.688979 1_445
S1 Sn0 2.952143 1_555
S2 Sn1 2.526513 1_555
S2 Sn0 2.706922 1_555
S2 Sn0 2.706922 1_655
S3 Sn2 2.572777 1_555
