# generated using pymatgen
data_CsKMg6O7
_symmetry_space_group_name_H-M   'P 1'
_cell_length_a   8.04615185
_cell_length_b   4.99220681
_cell_length_c   4.99220681
_cell_angle_alpha   90.00000000
_cell_angle_beta   90.00000000
_cell_angle_gamma   90.00000000
_symmetry_Int_Tables_number   1
_chemical_formula_structural   CsKMg6O7
_chemical_formula_sum   'Cs1 K1 Mg6 O7'
_cell_volume   200.52723302
_cell_formula_units_Z   1
loop_
 _symmetry_equiv_pos_site_id
 _symmetry_equiv_pos_as_xyz
  1  'x, y, z'
loop_
 _atom_site_type_symbol
 _atom_site_label
 _atom_site_symmetry_multiplicity
 _atom_site_fract_x
 _atom_site_fract_y
 _atom_site_fract_z
 _atom_site_occupancy
  Cs  Cs0  1  0.42416330  0.00000000  0.00000000  1
  K  K0  1  0.01486798  0.00000000  0.00000000  1
  Mg  Mg0  1  0.00491308  0.50000000  0.50000000  1
  Mg  Mg1  1  0.51245275  0.50000000  0.50000000  1
  Mg  Mg2  1  0.25330213  0.00000000  0.50000000  1
  Mg  Mg3  1  0.75343691  0.00000000  0.50000000  1
  Mg  Mg4  1  0.25330213  0.50000000  0.00000000  1
  Mg  Mg5  1  0.75343691  0.50000000  -0.00000000  1
  O  O0  1  0.73076414  0.00000000  0.00000000  1
  O  O1  1  0.25910196  0.50000000  0.50000000  1
  O  O2  1  0.75811708  0.50000000  0.50000000  1
  O  O3  1  0.01479163  0.00000000  0.50000000  1
  O  O4  1  0.50127918  0.00000000  0.50000000  1
  O  O5  1  0.01479163  0.50000000  -0.00000000  1
  O  O6  1  0.50127918  0.50000000  -0.00000000  1
loop_
_geom_bond_atom_site_label_1
_geom_bond_atom_site_label_2
_geom_bond_distance
_geom_bond_site_symmetry_2
Cs0 O0 2.466957 1_555
Cs0 O6 2.572068 1_555
Cs0 O4 2.572068 1_555
Cs0 O4 2.572068 1_554
Cs0 O6 2.572068 1_545
K0 O0 2.285943 1_455
K0 O3 2.496103 1_554
K0 O5 2.496103 1_545
K0 O5 2.496103 1_555
K0 O3 2.496103 1_555
Mg0 O2 1.985758 1_455
Mg0 O1 2.045242 1_555
Mg0 O3 2.497369 1_565
Mg0 O5 2.497369 1_556
Mg0 O5 2.497369 1_555
Mg0 O3 2.497369 1_555
Mg1 O2 1.976653 1_555
Mg1 O1 2.038499 1_555
Mg1 O6 2.497722 1_556
Mg1 O6 2.497722 1_555
Mg1 O4 2.497722 1_555
Mg1 O4 2.497722 1_565
Mg2 O3 1.919092 1_555
Mg2 O4 1.995261 1_555
Mg2 O1 2.496540 1_545
Mg2 O1 2.496540 1_555
Mg3 O4 2.028899 1_555
Mg3 O3 2.102900 1_655
Mg3 O2 2.496387 1_555
Mg3 O2 2.496387 1_545
Mg3 O0 2.502761 1_555
Mg3 O0 2.502761 1_556
Mg4 O5 1.919092 1_555
Mg4 O6 1.995261 1_555
Mg4 O1 2.496540 1_555
Mg4 O1 2.496540 1_554
Mg5 O6 2.028899 1_555
Mg5 O5 2.102900 1_655
Mg5 O2 2.496387 1_554
Mg5 O2 2.496387 1_555
Mg5 O0 2.502761 1_555
Mg5 O0 2.502761 1_565
