# generated using pymatgen
data_BaDy(NiO3)4
_symmetry_space_group_name_H-M   'P 1'
_cell_length_a   5.46618910
_cell_length_b   5.46618910
_cell_length_c   7.64136266
_cell_angle_alpha   90.00000000
_cell_angle_beta   90.00000000
_cell_angle_gamma   90.00000000
_symmetry_Int_Tables_number   1
_chemical_formula_structural   BaDy(NiO3)4
_chemical_formula_sum   'Ba1 Dy1 Ni4 O12'
_cell_volume   228.31798106
_cell_formula_units_Z   1
loop_
 _symmetry_equiv_pos_site_id
 _symmetry_equiv_pos_as_xyz
  1  'x, y, z'
loop_
 _atom_site_type_symbol
 _atom_site_label
 _atom_site_symmetry_multiplicity
 _atom_site_fract_x
 _atom_site_fract_y
 _atom_site_fract_z
 _atom_site_occupancy
  Ba  Ba0  1  0.50000000  0.50000000  -0.00000000  1
  Dy  Dy0  1  0.00000000  0.00000000  0.50000000  1
  Ni  Ni0  1  0.00000000  0.50000000  0.74884886  1
  Ni  Ni1  1  0.00000000  0.50000000  0.25115114  1
  Ni  Ni2  1  0.50000000  0.00000000  0.74884886  1
  Ni  Ni3  1  0.50000000  -0.00000000  0.25115114  1
  O  O0  1  0.23029322  0.23029322  0.72654870  1
  O  O1  1  0.23029322  0.23029322  0.27345130  1
  O  O2  1  0.76970678  0.76970678  0.72654870  1
  O  O3  1  0.76970678  0.76970678  0.27345130  1
  O  O4  1  0.76970678  0.23029322  0.72654870  1
  O  O5  1  0.76970678  0.23029322  0.27345130  1
  O  O6  1  0.23029322  0.76970678  0.27345130  1
  O  O7  1  0.23029322  0.76970678  0.72654870  1
  O  O8  1  0.00000000  0.50000000  0.50000000  1
  O  O9  1  0.00000000  0.50000000  -0.00000000  1
  O  O10  1  0.50000000  0.00000000  0.50000000  1
  O  O11  1  0.50000000  -0.00000000  -0.00000000  1
loop_
_geom_bond_atom_site_label_1
_geom_bond_atom_site_label_2
_geom_bond_distance
_geom_bond_site_symmetry_2
Ba0 O9 2.733095 1_555
Ba0 O9 2.733095 1_655
Ba0 O11 2.733095 1_555
Ba0 O11 2.733095 1_565
Ba0 O1 2.951798 1_555
Ba0 O5 2.951798 1_555
Ba0 O3 2.951798 1_555
Ba0 O6 2.951798 1_555
Ba0 O0 2.951798 1_554
Ba0 O4 2.951798 1_554
Ba0 O7 2.951798 1_554
Ba0 O2 2.951798 1_554
Dy0 O4 2.483170 1_455
Dy0 O0 2.483170 1_555
Dy0 O7 2.483170 1_545
Dy0 O2 2.483170 1_445
Dy0 O6 2.483170 1_545
Dy0 O5 2.483170 1_455
Dy0 O3 2.483170 1_445
Dy0 O1 2.483170 1_555
Dy0 O8 2.733095 1_545
Dy0 O10 2.733095 1_555
Dy0 O10 2.733095 1_455
Dy0 O8 2.733095 1_555
Ni0 O8 1.901544 1_555
Ni0 O9 1.919137 1_556
Ni0 O4 1.946060 1_455
Ni0 O2 1.946060 1_455
Ni0 O7 1.946060 1_555
Ni0 O0 1.946060 1_555
Ni1 O8 1.901544 1_555
Ni1 O9 1.919137 1_555
Ni1 O5 1.946060 1_455
Ni1 O3 1.946060 1_455
Ni1 O1 1.946060 1_555
Ni1 O6 1.946060 1_555
Ni2 O10 1.901544 1_555
Ni2 O11 1.919137 1_556
Ni2 O2 1.946060 1_545
Ni2 O7 1.946060 1_545
Ni2 O0 1.946060 1_555
Ni2 O4 1.946060 1_555
Ni3 O10 1.901544 1_555
Ni3 O11 1.919137 1_555
Ni3 O6 1.946060 1_545
Ni3 O3 1.946060 1_545
Ni3 O5 1.946060 1_555
Ni3 O1 1.946060 1_555
