# generated using pymatgen
data_CsTaTe3
_symmetry_space_group_name_H-M   'P 1'
_cell_length_a   6.36292406
_cell_length_b   8.25951784
_cell_length_c   8.25945797
_cell_angle_alpha   120.00750443
_cell_angle_beta   89.99997071
_cell_angle_gamma   89.99872314
_symmetry_Int_Tables_number   1
_chemical_formula_structural   CsTaTe3
_chemical_formula_sum   'Cs2 Ta2 Te6'
_cell_volume   375.88999714
_cell_formula_units_Z   2
loop_
 _symmetry_equiv_pos_site_id
 _symmetry_equiv_pos_as_xyz
  1  'x, y, z'
loop_
 _atom_site_type_symbol
 _atom_site_label
 _atom_site_symmetry_multiplicity
 _atom_site_fract_x
 _atom_site_fract_y
 _atom_site_fract_z
 _atom_site_occupancy
  Cs  Cs0  1  0.25603399  0.66669030  0.33331340  1
  Cs  Cs1  1  0.75602980  0.33332125  0.66667895  1
  Ta  Ta0  1  0.51762530  0.00008049  0.99990855  1
  Ta  Ta1  1  0.01762675  0.99991078  0.00009407  1
  Te  Te0  1  0.75902404  0.83929575  0.67857041  1
  Te  Te1  1  0.75890533  0.83928037  0.16070305  1
  Te  Te2  1  0.75901262  0.32145835  0.16075240  1
  Te  Te3  1  0.25901507  0.16071437  0.32144013  1
  Te  Te4  1  0.25891297  0.16070369  0.83929475  1
  Te  Te5  1  0.25901513  0.67854565  0.83924329  1
loop_
_geom_bond_atom_site_label_1
_geom_bond_atom_site_label_2
_geom_bond_distance
_geom_bond_site_symmetry_2
Cs0 Te0 4.012324 1_455
Cs0 Te2 4.012359 1_455
Cs0 Te1 4.012850 1_455
Cs0 Te1 4.041765 1_555
Cs0 Te2 4.042202 1_555
Cs0 Te0 4.042435 1_555
Cs0 Te4 4.130181 1_565
Cs0 Te4 4.130225 1_554
Cs0 Te3 4.130362 1_565
Cs0 Te5 4.130636 1_554
Cs0 Te5 4.130650 1_555
Cs0 Te3 4.130989 1_555
Cs1 Te5 4.012191 1_555
Cs1 Te3 4.012320 1_555
Cs1 Te4 4.012984 1_555
Cs1 Te4 4.041919 1_655
Cs1 Te3 4.042279 1_655
Cs1 Te5 4.042304 1_655
Cs1 Te1 4.130130 1_556
Cs1 Te1 4.130267 1_545
Cs1 Te0 4.130451 1_545
Cs1 Te2 4.130592 1_555
Cs1 Te2 4.130696 1_556
Cs1 Te0 4.130906 1_555
Ta0 Te0 2.764328 1_545
Ta0 Te2 2.764588 1_556
Ta0 Te1 2.765659 1_546
Ta0 Te4 2.826656 1_555
Ta0 Te3 2.827771 1_556
Ta0 Te5 2.827856 1_545
Ta1 Te3 2.764373 1_565
Ta1 Te5 2.764450 1_554
Ta1 Te4 2.765699 1_564
Ta1 Te1 2.826737 1_455
Ta1 Te0 2.827733 1_454
Ta1 Te2 2.827875 1_465
