# generated using pymatgen
data_AlAg3
_symmetry_space_group_name_H-M   'P 1'
_cell_length_a   5.72941612
_cell_length_b   5.72941612
_cell_length_c   17.96465200
_cell_angle_alpha   90.00000000
_cell_angle_beta   90.00000000
_cell_angle_gamma   108.34845127
_symmetry_Int_Tables_number   1
_chemical_formula_structural   AlAg3
_chemical_formula_sum   'Al8 Ag24'
_cell_volume   559.73026705
_cell_formula_units_Z   8
loop_
 _symmetry_equiv_pos_site_id
 _symmetry_equiv_pos_as_xyz
  1  'x, y, z'
loop_
 _atom_site_type_symbol
 _atom_site_label
 _atom_site_symmetry_multiplicity
 _atom_site_fract_x
 _atom_site_fract_y
 _atom_site_fract_z
 _atom_site_occupancy
  Al  Al0_0  1  0.00000000  0.00000000  0.00000000  1
  Al  Al0_1  1  0.00000000  0.00000000  0.50000000  1
  Al  Al0_2  1  1.00000000  0.50000000  0.00000000  1
  Al  Al0_3  1  1.00000000  0.50000000  0.50000000  1
  Al  Al0_4  1  0.50000000  0.00000000  0.00000000  1
  Al  Al0_5  1  0.50000000  0.00000000  0.50000000  1
  Al  Al0_6  1  0.50000000  0.50000000  0.00000000  1
  Al  Al0_7  1  0.50000000  0.50000000  0.50000000  1
  Ag  Ag0_0  1  0.25000000  0.25000000  0.38186950  1
  Ag  Ag0_1  1  0.25000000  0.25000000  0.88186950  1
  Ag  Ag0_2  1  0.25000000  0.75000000  0.38186950  1
  Ag  Ag0_3  1  0.25000000  0.75000000  0.88186950  1
  Ag  Ag0_4  1  0.75000000  0.25000000  0.38186950  1
  Ag  Ag0_5  1  0.75000000  0.25000000  0.88186950  1
  Ag  Ag0_6  1  0.75000000  0.75000000  0.38186950  1
  Ag  Ag0_7  1  0.75000000  0.75000000  0.88186950  1
  Ag  Ag1_0  1  0.00000000  0.00000000  0.25000000  1
  Ag  Ag1_1  1  0.00000000  0.00000000  0.75000000  1
  Ag  Ag1_2  1  1.00000000  0.50000000  0.25000000  1
  Ag  Ag1_3  1  1.00000000  0.50000000  0.75000000  1
  Ag  Ag1_4  1  0.50000000  0.00000000  0.25000000  1
  Ag  Ag1_5  1  0.50000000  0.00000000  0.75000000  1
  Ag  Ag1_6  1  0.50000000  0.50000000  0.25000000  1
  Ag  Ag1_7  1  0.50000000  0.50000000  0.75000000  1
  Ag  Ag2_0  1  0.25000000  0.25000000  0.11813050  1
  Ag  Ag2_1  1  0.25000000  0.25000000  0.61813050  1
  Ag  Ag2_2  1  0.25000000  0.75000000  0.11813050  1
  Ag  Ag2_3  1  0.25000000  0.75000000  0.61813050  1
  Ag  Ag2_4  1  0.75000000  0.25000000  0.11813050  1
  Ag  Ag2_5  1  0.75000000  0.25000000  0.61813050  1
  Ag  Ag2_6  1  0.75000000  0.75000000  0.11813050  1
  Ag  Ag2_7  1  0.75000000  0.75000000  0.61813050  1
loop_
_geom_bond_atom_site_label_1
_geom_bond_atom_site_label_2
_geom_bond_distance
_geom_bond_site_symmetry_2
Al0_0 Al0_4 2.864708 1_555
Al0_0 Al0_2 2.864708 1_455
Al0_0 Al0_4 2.864708 1_455
Al0_0 Al0_2 2.864708 1_445
Al0_1 Al0_5 2.864708 1_555
Al0_1 Al0_3 2.864708 1_445
Al0_1 Al0_3 2.864708 1_455
Al0_1 Al0_5 2.864708 1_455
Al0_2 Al0_6 2.864708 1_555
Al0_2 Al0_6 2.864708 1_655
Al0_3 Al0_7 2.864708 1_555
Al0_3 Al0_7 2.864708 1_655
Al0_4 Al0_6 2.864708 1_545
Al0_4 Al0_6 2.864708 1_555
Al0_5 Al0_7 2.864708 1_555
Al0_5 Al0_7 2.864708 1_545
Ag0_0 Al0_7 2.704663 1_555
Ag0_0 Al0_1 2.704663 1_555
Ag0_0 Ag0_4 2.864708 1_555
Ag0_0 Ag0_4 2.864708 1_455
Ag0_0 Ag0_2 2.864708 1_545
Ag0_0 Ag0_2 2.864708 1_555
Ag0_0 Ag1_6 2.902361 1_555
Ag0_0 Ag1_0 2.902361 1_555
Ag0_0 Al0_5 3.146202 1_555
Ag0_0 Al0_3 3.146202 1_455
Ag0_1 Al0_0 2.704663 1_556
Ag0_1 Al0_6 2.704663 1_556
Ag0_1 Ag0_5 2.864708 1_555
Ag0_1 Ag0_5 2.864708 1_455
Ag0_1 Ag0_3 2.864708 1_555
Ag0_1 Ag0_3 2.864708 1_545
Ag0_1 Ag1_1 2.902361 1_555
Ag0_1 Ag1_7 2.902361 1_555
Ag0_1 Al0_4 3.146202 1_556
Ag0_1 Al0_2 3.146202 1_456
Ag0_2 Al0_3 2.704663 1_455
Ag0_2 Al0_5 2.704663 1_565
Ag0_2 Ag0_6 2.864708 1_555
Ag0_2 Ag0_6 2.864708 1_455
Ag0_2 Ag1_2 2.902361 1_455
Ag0_2 Ag1_4 2.902361 1_565
Ag0_2 Al0_7 3.146202 1_555
Ag0_2 Al0_1 3.146202 1_565
Ag0_3 Al0_2 2.704663 1_456
Ag0_3 Al0_4 2.704663 1_566
Ag0_3 Ag0_7 2.864708 1_555
Ag0_3 Ag0_7 2.864708 1_455
Ag0_3 Ag1_3 2.902361 1_455
Ag0_3 Ag1_5 2.902361 1_565
Ag0_3 Al0_0 3.146202 1_566
Ag0_3 Al0_6 3.146202 1_556
Ag0_4 Al0_3 2.704663 1_555
Ag0_4 Al0_5 2.704663 1_555
Ag0_4 Ag0_6 2.864708 1_555
Ag0_4 Ag0_6 2.864708 1_545
Ag0_4 Ag1_4 2.902361 1_555
Ag0_4 Ag1_2 2.902361 1_555
Ag0_4 Al0_7 3.146202 1_555
Ag0_4 Al0_1 3.146202 1_655
Ag0_5 Al0_4 2.704663 1_556
Ag0_5 Al0_2 2.704663 1_556
Ag0_5 Ag0_7 2.864708 1_555
Ag0_5 Ag0_7 2.864708 1_545
Ag0_5 Ag1_3 2.902361 1_555
Ag0_5 Ag1_5 2.902361 1_555
Ag0_5 Al0_6 3.146202 1_556
Ag0_5 Al0_0 3.146202 1_656
Ag0_6 Al0_7 2.704663 1_555
Ag0_6 Al0_1 2.704663 1_665
Ag0_6 Ag1_6 2.902361 1_555
Ag0_6 Ag1_0 2.902361 1_665
Ag0_6 Al0_3 3.146202 1_555
Ag0_6 Al0_5 3.146202 1_565
Ag0_7 Al0_6 2.704663 1_556
Ag0_7 Al0_0 2.704663 1_666
Ag0_7 Ag1_7 2.902361 1_555
Ag0_7 Ag1_1 2.902361 1_665
Ag0_7 Al0_2 3.146202 1_556
Ag0_7 Al0_4 3.146202 1_566
Ag1_0 Ag1_4 2.864708 1_555
Ag1_0 Ag1_2 2.864708 1_455
Ag1_0 Ag1_4 2.864708 1_455
Ag1_0 Ag1_2 2.864708 1_445
Ag1_0 Ag2_0 2.902361 1_555
Ag1_0 Ag2_6 2.902361 1_445
Ag1_1 Ag1_5 2.864708 1_555
Ag1_1 Ag1_5 2.864708 1_455
Ag1_1 Ag1_3 2.864708 1_455
Ag1_1 Ag1_3 2.864708 1_445
Ag1_1 Ag2_1 2.902361 1_555
Ag1_1 Ag2_7 2.902361 1_445
Ag1_2 Ag1_6 2.864708 1_555
Ag1_2 Ag1_6 2.864708 1_655
Ag1_2 Ag2_2 2.902361 1_655
Ag1_2 Ag2_4 2.902361 1_555
Ag1_3 Ag1_7 2.864708 1_555
Ag1_3 Ag1_7 2.864708 1_655
Ag1_3 Ag2_3 2.902361 1_655
Ag1_3 Ag2_5 2.902361 1_555
Ag1_4 Ag1_6 2.864708 1_545
Ag1_4 Ag1_6 2.864708 1_555
Ag1_4 Ag2_4 2.902361 1_555
Ag1_4 Ag2_2 2.902361 1_545
Ag1_5 Ag1_7 2.864708 1_545
Ag1_5 Ag1_7 2.864708 1_555
Ag1_5 Ag2_5 2.902361 1_555
Ag1_5 Ag2_3 2.902361 1_545
Ag1_6 Ag2_6 2.902361 1_555
Ag1_6 Ag2_0 2.902361 1_555
Ag1_7 Ag2_7 2.902361 1_555
Ag1_7 Ag2_1 2.902361 1_555
Ag2_0 Al0_0 2.704663 1_555
Ag2_0 Al0_6 2.704663 1_555
Ag2_0 Ag2_4 2.864708 1_555
Ag2_0 Ag2_4 2.864708 1_455
Ag2_0 Ag2_2 2.864708 1_545
Ag2_0 Ag2_2 2.864708 1_555
Ag2_0 Al0_2 3.146202 1_455
Ag2_0 Al0_4 3.146202 1_555
Ag2_1 Al0_7 2.704663 1_555
Ag2_1 Al0_1 2.704663 1_555
Ag2_1 Ag2_5 2.864708 1_555
Ag2_1 Ag2_3 2.864708 1_555
Ag2_1 Ag2_5 2.864708 1_455
Ag2_1 Ag2_3 2.864708 1_545
Ag2_1 Al0_5 3.146202 1_555
Ag2_1 Al0_3 3.146202 1_455
Ag2_2 Al0_2 2.704663 1_455
Ag2_2 Al0_4 2.704663 1_565
Ag2_2 Ag2_6 2.864708 1_555
Ag2_2 Ag2_6 2.864708 1_455
Ag2_2 Al0_0 3.146202 1_565
Ag2_2 Al0_6 3.146202 1_555
Ag2_3 Al0_3 2.704663 1_455
Ag2_3 Al0_5 2.704663 1_565
Ag2_3 Ag2_7 2.864708 1_555
Ag2_3 Ag2_7 2.864708 1_455
Ag2_3 Al0_7 3.146202 1_555
Ag2_3 Al0_1 3.146202 1_565
Ag2_4 Al0_2 2.704663 1_555
Ag2_4 Al0_4 2.704663 1_555
Ag2_4 Ag2_6 2.864708 1_555
Ag2_4 Ag2_6 2.864708 1_545
Ag2_4 Al0_6 3.146202 1_555
Ag2_4 Al0_0 3.146202 1_655
Ag2_5 Al0_3 2.704663 1_555
Ag2_5 Al0_5 2.704663 1_555
Ag2_5 Ag2_7 2.864708 1_555
Ag2_5 Ag2_7 2.864708 1_545
Ag2_5 Al0_7 3.146202 1_555
Ag2_5 Al0_1 3.146202 1_655
Ag2_6 Al0_6 2.704663 1_555
Ag2_6 Al0_0 2.704663 1_665
Ag2_6 Al0_4 3.146202 1_565
Ag2_6 Al0_2 3.146202 1_555
Ag2_7 Al0_7 2.704663 1_555
Ag2_7 Al0_1 2.704663 1_665
Ag2_7 Al0_3 3.146202 1_555
Ag2_7 Al0_5 3.146202 1_565
