# generated using pymatgen
data_Gd3NbO7
_symmetry_space_group_name_H-M   'P 1'
_cell_length_a   6.50974548
_cell_length_b   6.50974548
_cell_length_c   7.59184932
_cell_angle_alpha   90.00000000
_cell_angle_beta   90.00000000
_cell_angle_gamma   109.71568221
_symmetry_Int_Tables_number   1
_chemical_formula_structural   Gd3NbO7
_chemical_formula_sum   'Gd6 Nb2 O14'
_cell_volume   302.85849144
_cell_formula_units_Z   2
loop_
 _symmetry_equiv_pos_site_id
 _symmetry_equiv_pos_as_xyz
  1  'x, y, z'
loop_
 _atom_site_type_symbol
 _atom_site_label
 _atom_site_symmetry_multiplicity
 _atom_site_fract_x
 _atom_site_fract_y
 _atom_site_fract_z
 _atom_site_occupancy
  Gd  Gd0  1  0.50000000  0.50000000  0.50000000  1
  Gd  Gd1  1  0.50000000  0.50000000  0.00000000  1
  Gd  Gd2  1  0.53505737  0.00000514  0.75000000  1
  Gd  Gd3  1  0.00000514  0.53505737  0.25000000  1
  Gd  Gd4  1  0.46494263  -0.00000514  0.25000000  1
  Gd  Gd5  1  -0.00000514  0.46494263  0.75000000  1
  Nb  Nb0  1  -0.00000000  -0.00000000  0.50000000  1
  Nb  Nb1  1  -0.00000000  -0.00000000  0.00000000  1
  O  O0  1  0.67887271  0.92670383  0.46827121  1
  O  O1  1  0.92670383  0.67887271  0.53172879  1
  O  O2  1  0.67887271  0.92670383  0.03172879  1
  O  O3  1  0.92670383  0.67887271  0.96827121  1
  O  O4  1  0.32112729  0.07329617  0.53172879  1
  O  O5  1  0.07329617  0.32112729  0.46827121  1
  O  O6  1  0.32112729  0.07329617  0.96827121  1
  O  O7  1  0.07329617  0.32112729  0.03172879  1
  O  O8  1  0.37067269  0.62932731  0.75000000  1
  O  O9  1  0.62932731  0.37067269  0.25000000  1
  O  O10  1  0.63604263  0.36395737  0.75000000  1
  O  O11  1  0.36395737  0.63604263  0.25000000  1
  O  O12  1  0.93361156  0.06638844  0.75000000  1
  O  O13  1  0.06638844  0.93361156  0.25000000  1
loop_
_geom_bond_atom_site_label_1
_geom_bond_atom_site_label_2
_geom_bond_distance
_geom_bond_site_symmetry_2
Gd0 O9 2.344787 1_555
Gd0 O8 2.344787 1_555
Gd0 O11 2.387470 1_555
Gd0 O10 2.387470 1_555
Gd0 O0 2.635791 1_555
Gd0 O1 2.635791 1_555
Gd0 O4 2.635791 1_555
Gd0 O5 2.635791 1_555
Gd1 O9 2.344787 1_555
Gd1 O8 2.344787 1_554
Gd1 O10 2.387470 1_554
Gd1 O11 2.387470 1_555
Gd1 O2 2.635791 1_555
Gd1 O6 2.635791 1_554
Gd1 O3 2.635791 1_554
Gd1 O7 2.635791 1_555
Gd2 O10 2.234856 1_555
Gd2 O8 2.285950 1_545
Gd2 O4 2.315441 1_555
Gd2 O6 2.315441 1_555
Gd2 O0 2.445450 1_545
Gd2 O2 2.445450 1_546
Gd2 O12 2.482265 1_555
Gd3 O11 2.234856 1_555
Gd3 O9 2.285950 1_455
Gd3 O5 2.315441 1_555
Gd3 O7 2.315441 1_555
Gd3 O3 2.445450 1_454
Gd3 O1 2.445450 1_455
Gd3 O13 2.482265 1_555
Gd4 O11 2.234856 1_545
Gd4 O9 2.285950 1_555
Gd4 O0 2.315441 1_545
Gd4 O2 2.315441 1_545
Gd4 O6 2.445450 1_554
Gd4 O4 2.445450 1_555
Gd4 O13 2.482265 1_545
Gd5 O10 2.234856 1_455
Gd5 O8 2.285950 1_555
Gd5 O1 2.315441 1_455
Gd5 O3 2.315441 1_455
Gd5 O5 2.445450 1_555
Gd5 O7 2.445450 1_556
Gd5 O12 2.482265 1_455
Nb0 O1 1.995675 1_445
Nb0 O0 1.995675 1_445
Nb0 O4 1.995675 1_555
Nb0 O5 1.995675 1_555
Nb0 O13 2.025296 1_545
Nb0 O12 2.025296 1_455
Nb1 O3 1.995675 1_444
Nb1 O6 1.995675 1_554
Nb1 O2 1.995675 1_445
Nb1 O7 1.995675 1_555
Nb1 O13 2.025296 1_545
Nb1 O12 2.025296 1_454
