# generated using pymatgen
data_U2(Si2Ni)3
_symmetry_space_group_name_H-M   'P 1'
_cell_length_a   10.77276033
_cell_length_b   10.77276033
_cell_length_c   3.98073279
_cell_angle_alpha   90.00000000
_cell_angle_beta   90.00000000
_cell_angle_gamma   158.67030221
_symmetry_Int_Tables_number   1
_chemical_formula_structural   U2(Si2Ni)3
_chemical_formula_sum   'U2 Si6 Ni3'
_cell_volume   168.03549868
_cell_formula_units_Z   1
loop_
 _symmetry_equiv_pos_site_id
 _symmetry_equiv_pos_as_xyz
  1  'x, y, z'
loop_
 _atom_site_type_symbol
 _atom_site_label
 _atom_site_symmetry_multiplicity
 _atom_site_fract_x
 _atom_site_fract_y
 _atom_site_fract_z
 _atom_site_occupancy
  U  U0  1  0.83100798  0.16899202  0.00000000  1
  U  U1  1  0.16899202  0.83100798  0.00000000  1
  Si  Si0  1  0.94068850  0.05931150  0.50000000  1
  Si  Si1  1  0.05931150  0.94068850  0.50000000  1
  Si  Si2  1  0.55956677  0.44043323  -0.00000000  1
  Si  Si3  1  0.44043323  0.55956677  -0.00000000  1
  Si  Si4  1  0.72034658  0.27965342  0.50000000  1
  Si  Si5  1  0.27965342  0.72034658  0.50000000  1
  Ni  Ni0  1  0.61350107  0.38649893  0.50000000  1
  Ni  Ni1  1  0.38649893  0.61350107  0.50000000  1
  Ni  Ni2  1  0.00000000  -0.00000000  -0.00000000  1
loop_
_geom_bond_atom_site_label_1
_geom_bond_atom_site_label_2
_geom_bond_distance
_geom_bond_site_symmetry_2
Si0 Si1 2.511647 1_645
Si0 U0 3.058538 1_555
Si0 U0 3.058538 1_556
Si1 U1 3.058538 1_556
Si1 U1 3.058538 1_555
Si2 Si3 2.522457 1_555
Si2 U1 3.056575 1_655
Si2 U1 3.056575 1_545
Si3 U0 3.056575 1_565
Si3 U0 3.056575 1_455
Si4 Si5 2.356157 1_545
Si4 Si5 2.356157 1_655
Si4 U1 3.019688 1_545
Si4 U1 3.019688 1_546
Si4 U1 3.019688 1_655
Si4 U1 3.019688 1_656
Si4 U0 3.074337 1_555
Si4 U0 3.074337 1_556
Si5 U0 3.019688 1_455
Si5 U0 3.019688 1_456
Si5 U0 3.019688 1_565
Si5 U0 3.019688 1_566
Si5 U1 3.074337 1_556
Si5 U1 3.074337 1_555
Ni0 Si4 2.262278 1_555
Ni0 Si2 2.294701 1_556
Ni0 Si2 2.294701 1_555
Ni0 Si1 2.300239 1_655
Ni0 Si1 2.300239 1_545
Ni0 U1 3.052318 1_546
Ni0 U1 3.052318 1_655
Ni0 U1 3.052318 1_656
Ni0 U1 3.052318 1_545
Ni1 Si5 2.262278 1_555
Ni1 Si3 2.294701 1_556
Ni1 Si3 2.294701 1_555
Ni1 Si0 2.300239 1_455
Ni1 Si0 2.300239 1_565
Ni1 U0 3.052318 1_566
Ni1 U0 3.052318 1_565
Ni1 U0 3.052318 1_455
Ni1 U0 3.052318 1_456
Ni2 Si1 2.353434 1_544
Ni2 Si1 2.353434 1_545
Ni2 Si0 2.353434 1_455
Ni2 Si0 2.353434 1_454
Ni2 Si2 2.359094 1_555
Ni2 Si2 2.359094 1_445
Ni2 Si3 2.359094 1_555
Ni2 Si3 2.359094 1_445
