# generated using pymatgen
data_Rb5Bi(I5O)2
_symmetry_space_group_name_H-M   'P 1'
_cell_length_a   14.26238859
_cell_length_b   14.26238859
_cell_length_c   14.26238891
_cell_angle_alpha   107.78413379
_cell_angle_beta   107.78413379
_cell_angle_gamma   107.78413282
_symmetry_Int_Tables_number   1
_chemical_formula_structural   Rb5Bi(I5O)2
_chemical_formula_sum   'Rb15 Bi3 I30 O6'
_cell_volume   2362.55570086
_cell_formula_units_Z   3
loop_
 _symmetry_equiv_pos_site_id
 _symmetry_equiv_pos_as_xyz
  1  'x, y, z'
loop_
 _atom_site_type_symbol
 _atom_site_label
 _atom_site_symmetry_multiplicity
 _atom_site_fract_x
 _atom_site_fract_y
 _atom_site_fract_z
 _atom_site_occupancy
  Rb  Rb0  1  0.01982200  0.23764200  0.23764200  1
  Rb  Rb1  1  0.23764200  0.23764200  0.01982200  1
  Rb  Rb2  1  0.23764200  0.01982200  0.23764200  1
  Rb  Rb3  1  0.98429300  0.76357500  0.76357500  1
  Rb  Rb4  1  0.76357500  0.76357500  0.98429300  1
  Rb  Rb5  1  0.76357500  0.98429300  0.76357500  1
  Rb  Rb6  1  0.16514500  0.83577600  0.50005700  1
  Rb  Rb7  1  0.83577600  0.50005700  0.16514500  1
  Rb  Rb8  1  0.50005700  0.16514500  0.83577600  1
  Rb  Rb9  1  0.50005700  0.83577600  0.16514500  1
  Rb  Rb10  1  0.83577600  0.16514500  0.50005700  1
  Rb  Rb11  1  0.16514500  0.50005700  0.83577600  1
  Rb  Rb12  1  0.36810200  0.58367600  0.58367600  1
  Rb  Rb13  1  0.58367600  0.58367600  0.36810200  1
  Rb  Rb14  1  0.58367600  0.36810200  0.58367600  1
  Bi  Bi0  1  0.49727500  0.49727500  0.99613000  1
  Bi  Bi1  1  0.49727500  0.99613000  0.49727500  1
  Bi  Bi2  1  0.99613000  0.49727500  0.49727500  1
  I  I0  1  0.70114000  0.70114000  0.19837700  1
  I  I1  1  0.70114000  0.19837700  0.70114000  1
  I  I2  1  0.19837700  0.70114000  0.70114000  1
  I  I3  1  0.29608800  0.29608800  0.80139200  1
  I  I4  1  0.29608800  0.80139200  0.29608800  1
  I  I5  1  0.80139200  0.29608800  0.29608800  1
  I  I6  1  0.50038500  0.00024700  0.00024700  1
  I  I7  1  0.00024700  0.00024700  0.50038500  1
  I  I8  1  0.00024700  0.50038500  0.00024700  1
  I  I9  1  0.33770000  0.33770000  0.33770000  1
  I  I10  1  0.67194100  0.67194100  0.67194100  1
  I  I11  1  0.99974800  0.99974800  0.99974800  1
  I  I12  1  0.71661800  0.01612300  0.01612300  1
  I  I13  1  0.01612300  0.01612300  0.71661800  1
  I  I14  1  0.01612300  0.71661800  0.01612300  1
  I  I15  1  0.28344100  0.98343200  0.98343200  1
  I  I16  1  0.98343200  0.98343200  0.28344100  1
  I  I17  1  0.98343200  0.28344100  0.98343200  1
  I  I18  1  0.54055500  0.35210100  0.11143100  1
  I  I19  1  0.35210100  0.11143100  0.54055500  1
  I  I20  1  0.11143100  0.54055500  0.35210100  1
  I  I21  1  0.11143100  0.35210100  0.54055500  1
  I  I22  1  0.35210100  0.54055500  0.11143100  1
  I  I23  1  0.54055500  0.11143100  0.35210100  1
  I  I24  1  0.46018100  0.65142000  0.88975100  1
  I  I25  1  0.65142000  0.88975100  0.46018100  1
  I  I26  1  0.88975100  0.46018100  0.65142000  1
  I  I27  1  0.88975100  0.65142000  0.46018100  1
  I  I28  1  0.65142000  0.46018100  0.88975100  1
  I  I29  1  0.46018100  0.88975100  0.65142000  1
  O  O0  1  0.73733500  0.26342500  0.00035900  1
  O  O1  1  0.26342500  0.00035900  0.73733500  1
  O  O2  1  0.00035900  0.73733500  0.26342500  1
  O  O3  1  0.00035900  0.26342500  0.73733500  1
  O  O4  1  0.26342500  0.73733500  0.00035900  1
  O  O5  1  0.73733500  0.00035900  0.26342500  1
loop_
_geom_bond_atom_site_label_1
_geom_bond_atom_site_label_2
_geom_bond_distance
_geom_bond_site_symmetry_2
Bi0 I3 3.068375 1_555
Bi0 I22 3.100481 1_556
Bi0 I18 3.100481 1_556
Bi0 I24 3.110126 1_555
Bi0 I28 3.110126 1_555
Bi0 I0 3.133332 1_556
Bi1 I4 3.068375 1_555
Bi1 I19 3.100481 1_565
Bi1 I23 3.100481 1_565
Bi1 I25 3.110126 1_555
Bi1 I29 3.110126 1_555
Bi1 I1 3.133332 1_565
Bi2 I5 3.068375 1_555
Bi2 I21 3.100481 1_655
Bi2 I20 3.100481 1_655
Bi2 I27 3.110126 1_555
Bi2 I26 3.110126 1_555
Bi2 I2 3.133332 1_655
I0 Rb4 3.707590 1_554
I0 Rb13 3.835778 1_555
I0 Rb7 3.902128 1_555
I0 Rb9 3.902128 1_555
I1 Rb5 3.707590 1_545
I1 Rb14 3.835778 1_555
I1 Rb8 3.902128 1_555
I1 Rb10 3.902128 1_555
I2 Rb3 3.707590 1_455
I2 Rb12 3.835778 1_555
I2 Rb11 3.902128 1_555
I2 Rb6 3.902128 1_555
I3 Rb1 3.720649 1_556
I3 Rb8 3.898435 1_555
I3 Rb11 3.898435 1_555
I4 Rb2 3.720649 1_565
I4 Rb9 3.898435 1_555
I4 Rb6 3.898435 1_555
I5 Rb0 3.720649 1_655
I5 Rb7 3.898435 1_555
I5 Rb10 3.898435 1_555
I6 Rb8 3.795228 1_554
I6 Rb9 3.795228 1_545
I7 Rb10 3.795228 1_455
I7 Rb6 3.795228 1_545
I8 Rb11 3.795228 1_554
I8 Rb7 3.795228 1_455
I9 Rb13 3.927640 1_555
I9 Rb14 3.927640 1_555
I9 Rb12 3.927640 1_555
I9 Rb0 3.934336 1_555
I9 Rb2 3.934336 1_555
I9 Rb1 3.934336 1_555
I10 Rb14 3.783589 1_555
I10 Rb12 3.783589 1_555
I10 Rb13 3.783589 1_555
I10 Rb3 3.886592 1_555
I10 Rb5 3.886592 1_555
I10 Rb4 3.886592 1_555
I11 Rb1 3.858360 1_666
I11 Rb0 3.858360 1_666
I11 Rb2 3.858360 1_666
I11 Rb4 3.860403 1_555
I11 Rb5 3.860403 1_555
I11 Rb3 3.860403 1_555
I12 I6 2.954510 1_555
I12 Rb4 3.780079 1_544
I12 Rb5 3.780079 1_544
I12 Rb0 3.984308 1_655
I13 I7 2.954510 1_555
I13 Rb3 3.780079 1_445
I13 Rb5 3.780079 1_445
I13 Rb1 3.984308 1_556
I14 I8 2.954510 1_555
I14 Rb4 3.780079 1_454
I14 Rb3 3.780079 1_454
I14 Rb2 3.984308 1_565
I15 I6 2.957537 1_566
I15 Rb1 3.787562 1_566
I15 Rb2 3.787562 1_566
I15 Rb3 3.939201 1_455
I16 I7 2.957537 1_665
I16 Rb0 3.787562 1_665
I16 Rb2 3.787562 1_665
I16 Rb4 3.939201 1_554
I17 I8 2.957537 1_656
I17 Rb1 3.787562 1_656
I17 Rb0 3.787562 1_656
I17 Rb5 3.939201 1_545
I18 Rb1 3.738642 1_555
I18 Rb8 3.764105 1_554
I18 Rb7 3.792503 1_555
I18 Rb13 3.832223 1_555
I19 Rb2 3.738642 1_555
I19 Rb6 3.764105 1_545
I19 Rb8 3.792503 1_555
I19 Rb14 3.832223 1_555
I20 Rb0 3.738642 1_555
I20 Rb7 3.764105 1_455
I20 Rb6 3.792503 1_555
I20 Rb12 3.832223 1_555
I21 Rb0 3.738642 1_555
I21 Rb10 3.764105 1_455
I21 Rb11 3.792503 1_555
I21 Rb12 3.832223 1_555
I22 Rb1 3.738642 1_555
I22 Rb11 3.764105 1_554
I22 Rb9 3.792503 1_555
I22 Rb13 3.832223 1_555
I23 Rb2 3.738642 1_555
I23 Rb9 3.764105 1_545
I23 Rb10 3.792503 1_555
I23 Rb14 3.832223 1_555
I24 Rb4 3.740447 1_555
I24 Rb9 3.752019 1_556
I24 Rb11 3.796911 1_555
I24 Rb12 3.854993 1_555
I25 Rb5 3.740447 1_555
I25 Rb10 3.752019 1_565
I25 Rb9 3.796911 1_555
I25 Rb13 3.854993 1_555
I26 Rb3 3.740447 1_555
I26 Rb11 3.752019 1_655
I26 Rb10 3.796911 1_555
I26 Rb14 3.854993 1_555
I27 Rb3 3.740447 1_555
I27 Rb6 3.752019 1_655
I27 Rb7 3.796911 1_555
I27 Rb13 3.854993 1_555
I28 Rb4 3.740447 1_555
I28 Rb7 3.752019 1_556
I28 Rb8 3.796911 1_555
I28 Rb14 3.854993 1_555
I29 Rb5 3.740447 1_555
I29 Rb8 3.752019 1_565
I29 Rb6 3.796911 1_555
I29 Rb12 3.854993 1_555
O0 Rb7 3.021510 1_555
O0 Rb8 3.027728 1_554
O1 Rb8 3.021510 1_555
O1 Rb6 3.027728 1_545
O2 Rb6 3.021510 1_555
O2 Rb7 3.027728 1_455
O3 Rb11 3.021510 1_555
O3 Rb10 3.027728 1_455
O4 Rb9 3.021510 1_555
O4 Rb11 3.027728 1_554
O5 Rb10 3.021510 1_555
O5 Rb9 3.027728 1_545
