# generated using pymatgen
data_CaSmCr4O12
_symmetry_space_group_name_H-M   'P 1'
_cell_length_a   5.31576674
_cell_length_b   5.31576674
_cell_length_c   7.42607363
_cell_angle_alpha   90.00000000
_cell_angle_beta   90.00000000
_cell_angle_gamma   88.77708114
_symmetry_Int_Tables_number   1
_chemical_formula_structural   CaSmCr4O12
_chemical_formula_sum   'Ca1 Sm1 Cr4 O12'
_cell_volume   209.79355888
_cell_formula_units_Z   1
loop_
 _symmetry_equiv_pos_site_id
 _symmetry_equiv_pos_as_xyz
  1  'x, y, z'
loop_
 _atom_site_type_symbol
 _atom_site_label
 _atom_site_symmetry_multiplicity
 _atom_site_fract_x
 _atom_site_fract_y
 _atom_site_fract_z
 _atom_site_occupancy
  Ca  Ca0  1  0.51461210  0.51461210  -0.00000000  1
  Sm  Sm0  1  0.99439386  0.99439386  0.50000000  1
  Cr  Cr0  1  0.51241171  0.01197928  0.75383143  1
  Cr  Cr1  1  0.51241171  0.01197928  0.24616857  1
  Cr  Cr2  1  0.01197928  0.51241171  0.24616857  1
  Cr  Cr3  1  0.01197928  0.51241171  0.75383143  1
  O  O0  1  0.77925637  0.20984835  0.74564858  1
  O  O1  1  0.20984835  0.77925637  0.74564858  1
  O  O2  1  0.20984835  0.77925637  0.25435142  1
  O  O3  1  0.77925637  0.20984835  0.25435142  1
  O  O4  1  0.72159323  0.72159323  0.70854385  1
  O  O5  1  0.28228121  0.28228121  0.78785599  1
  O  O6  1  0.28228121  0.28228121  0.21214401  1
  O  O7  1  0.72159323  0.72159323  0.29145615  1
  O  O8  1  0.52308621  0.95115796  -0.00000000  1
  O  O9  1  0.44625900  0.03395056  0.50000000  1
  O  O10  1  0.95115796  0.52308621  -0.00000000  1
  O  O11  1  0.03395056  0.44625900  0.50000000  1
loop_
_geom_bond_atom_site_label_1
_geom_bond_atom_site_label_2
_geom_bond_distance
_geom_bond_site_symmetry_2
Ca0 O8 2.321974 1_555
Ca0 O10 2.321974 1_555
Ca0 O6 2.365907 1_555
Ca0 O5 2.365907 1_554
Ca0 O4 2.675323 1_554
Ca0 O7 2.675323 1_555
Cr0 O0 1.784884 1_555
Cr0 O8 1.857092 1_546
Cr0 O5 1.884117 1_555
Cr0 O4 1.912869 1_545
Cr0 O9 1.920589 1_555
Cr0 O1 2.050817 1_545
Cr1 O3 1.784884 1_555
Cr1 O8 1.857092 1_545
Cr1 O6 1.884117 1_555
Cr1 O7 1.912869 1_545
Cr1 O9 1.920589 1_555
Cr1 O2 2.050817 1_545
Cr2 O2 1.784884 1_555
Cr2 O10 1.857092 1_455
Cr2 O6 1.884117 1_555
Cr2 O7 1.912869 1_455
Cr2 O11 1.920589 1_555
Cr2 O3 2.050817 1_455
Cr3 O1 1.784884 1_555
Cr3 O10 1.857092 1_456
Cr3 O5 1.884117 1_555
Cr3 O4 1.912869 1_455
Cr3 O11 1.920589 1_555
Cr3 O0 2.050817 1_455
O0 Sm0 2.427222 1_545
O1 Sm0 2.427222 1_455
O2 Sm0 2.427222 1_455
O3 Sm0 2.427222 1_545
O4 Sm0 2.587268 1_555
O7 Sm0 2.587268 1_555
O9 Sm0 2.415662 1_445
O11 Sm0 2.415662 1_445
