# generated using pymatgen
data_MgFe2(SiO3)4
_symmetry_space_group_name_H-M   'P 1'
_cell_length_a   5.22163900
_cell_length_b   9.63553500
_cell_length_c   18.50604500
_cell_angle_alpha   90.00000000
_cell_angle_beta   90.00000000
_cell_angle_gamma   90.00000000
_symmetry_Int_Tables_number   1
_chemical_formula_structural   MgFe2(SiO3)4
_chemical_formula_sum   'Mg4 Fe8 Si16 O48'
_cell_volume   931.09992263
_cell_formula_units_Z   4
loop_
 _symmetry_equiv_pos_site_id
 _symmetry_equiv_pos_as_xyz
  1  'x, y, z'
loop_
 _atom_site_type_symbol
 _atom_site_label
 _atom_site_symmetry_multiplicity
 _atom_site_fract_x
 _atom_site_fract_y
 _atom_site_fract_z
 _atom_site_occupancy
  Mg  Mg0  1  0.14331900  0.83903500  0.37625400  1
  Mg  Mg1  1  0.85668100  0.83903500  0.87625400  1
  Mg  Mg2  1  0.14331900  0.33903500  0.12374600  1
  Mg  Mg3  1  0.85668100  0.33903500  0.62374600  1
  Fe  Fe0  1  0.12564400  0.02897500  0.12450700  1
  Fe  Fe1  1  0.36177700  0.97992700  0.87442000  1
  Fe  Fe2  1  0.63822300  0.97992700  0.37442000  1
  Fe  Fe3  1  0.87435600  0.02897500  0.62450700  1
  Fe  Fe4  1  0.12564400  0.52897500  0.37549300  1
  Fe  Fe5  1  0.36177700  0.47992700  0.62558000  1
  Fe  Fe6  1  0.63822300  0.47992700  0.12558000  1
  Fe  Fe7  1  0.87435600  0.52897500  0.87549300  1
  Si  Si0  1  0.32507800  0.65983200  0.22771300  1
  Si  Si1  1  0.47980100  0.83097400  0.52878100  1
  Si  Si2  1  0.52019900  0.83097400  0.02878100  1
  Si  Si3  1  0.67492200  0.15983200  0.77228700  1
  Si  Si4  1  0.83205300  0.33519100  0.27611600  1
  Si  Si5  1  0.16794700  0.83519100  0.72388400  1
  Si  Si6  1  0.97857000  0.66795200  0.52770100  1
  Si  Si7  1  0.47980100  0.33097400  0.97121900  1
  Si  Si8  1  0.52019900  0.33097400  0.47121900  1
  Si  Si9  1  0.67492200  0.65983200  0.72771300  1
  Si  Si10  1  0.16794700  0.33519100  0.77611600  1
  Si  Si11  1  0.32507800  0.15983200  0.27228700  1
  Si  Si12  1  0.02143000  0.16795200  0.47229900  1
  Si  Si13  1  0.83205300  0.83519100  0.22388400  1
  Si  Si14  1  0.02143000  0.66795200  0.02770100  1
  Si  Si15  1  0.97857000  0.16795200  0.97229900  1
  O  O0  1  0.65697500  0.50719000  0.68723900  1
  O  O1  1  0.06310500  0.02480000  0.92985400  1
  O  O2  1  0.84525400  0.48248400  0.31663400  1
  O  O3  1  0.45457400  0.36458600  0.05890900  1
  O  O4  1  0.00328300  0.17067400  0.06035600  1
  O  O5  1  0.67119900  0.19564200  0.95497300  1
  O  O6  1  0.70820700  0.66615500  0.81496900  1
  O  O7  1  0.83198400  0.85835200  0.31231400  1
  O  O8  1  0.45457400  0.86458600  0.44109100  1
  O  O9  1  0.70820700  0.16615500  0.68503100  1
  O  O10  1  0.15474600  0.48248400  0.81663400  1
  O  O11  1  0.54542600  0.36458600  0.55890900  1
  O  O12  1  0.39994300  0.95811300  0.07215400  1
  O  O13  1  0.16801600  0.85835200  0.81231400  1
  O  O14  1  0.34302500  0.00719000  0.31276100  1
  O  O15  1  0.06310500  0.52480000  0.57014600  1
  O  O16  1  0.15474600  0.98248400  0.68336600  1
  O  O17  1  0.91307400  0.75038300  0.69545700  1
  O  O18  1  0.08692600  0.75038300  0.19545700  1
  O  O19  1  0.32880100  0.69564200  0.04502700  1
  O  O20  1  0.54542600  0.86458600  0.94109100  1
  O  O21  1  0.29179300  0.66615500  0.31496900  1
  O  O22  1  0.60005700  0.45811300  0.92784600  1
  O  O23  1  0.91307400  0.25038300  0.80454300  1
  O  O24  1  0.99671700  0.17067400  0.56035600  1
  O  O25  1  0.29179300  0.16615500  0.18503100  1
  O  O26  1  0.39994300  0.45811300  0.42784600  1
  O  O27  1  0.00328300  0.67067400  0.43964400  1
  O  O28  1  0.93689500  0.52480000  0.07014600  1
  O  O29  1  0.40843500  0.73443200  0.70108500  1
  O  O30  1  0.84525400  0.98248400  0.18336600  1
  O  O31  1  0.59156500  0.73443200  0.20108500  1
  O  O32  1  0.59156500  0.23443200  0.29891500  1
  O  O33  1  0.60005700  0.95811300  0.57215400  1
  O  O34  1  0.99671700  0.67067400  0.93964400  1
  O  O35  1  0.93689500  0.02480000  0.42985400  1
  O  O36  1  0.08692600  0.25038300  0.30454300  1
  O  O37  1  0.81800300  0.79128200  0.05413500  1
  O  O38  1  0.18199700  0.79128200  0.55413500  1
  O  O39  1  0.40843500  0.23443200  0.79891500  1
  O  O40  1  0.18199700  0.29128200  0.94586500  1
  O  O41  1  0.32880100  0.19564200  0.45497300  1
  O  O42  1  0.81800300  0.29128200  0.44586500  1
  O  O43  1  0.16801600  0.35835200  0.68768600  1
  O  O44  1  0.34302500  0.50719000  0.18723900  1
  O  O45  1  0.67119900  0.69564200  0.54502700  1
  O  O46  1  0.83198400  0.35835200  0.18768600  1
  O  O47  1  0.65697500  0.00719000  0.81276100  1
loop_
_geom_bond_atom_site_label_1
_geom_bond_atom_site_label_2
_geom_bond_distance
_geom_bond_site_symmetry_2
Mg0 O7 2.019312 1_455
Mg0 O8 2.035139 1_555
Mg0 O27 2.131321 1_555
Mg0 O21 2.159212 1_555
Mg0 O14 2.256835 1_565
Mg0 O35 2.312925 1_465
Mg1 O13 2.019312 1_655
Mg1 O20 2.035139 1_555
Mg1 O34 2.131321 1_555
Mg1 O6 2.159212 1_555
Mg1 O47 2.256835 1_565
Mg1 O1 2.312925 1_665
Mg2 O46 2.019312 1_455
Mg2 O3 2.035139 1_555
Mg2 O4 2.131321 1_555
Mg2 O25 2.159212 1_555
Mg2 O44 2.256835 1_555
Mg2 O28 2.312925 1_455
Mg3 O43 2.019312 1_655
Mg3 O11 2.035139 1_555
Mg3 O24 2.131321 1_555
Mg3 O9 2.159212 1_555
Mg3 O0 2.256835 1_555
Mg3 O15 2.312925 1_655
Fe0 O12 1.859120 1_545
Fe0 O30 1.879018 1_445
Fe0 O4 1.918800 1_555
Fe0 O25 1.937621 1_555
Fe1 O1 1.916133 1_565
Fe1 O20 1.917559 1_555
Fe1 O13 1.927922 1_555
Fe1 O47 1.935718 1_565
Fe2 O35 1.916133 1_565
Fe2 O8 1.917559 1_555
Fe2 O7 1.927922 1_555
Fe2 O14 1.935718 1_565
Fe3 O33 1.859120 1_545
Fe3 O16 1.879018 1_645
Fe3 O24 1.918800 1_555
Fe3 O9 1.937621 1_555
Fe4 O26 1.859120 1_555
Fe4 O2 1.879018 1_455
Fe4 O27 1.918800 1_555
Fe4 O21 1.937621 1_555
Fe5 O15 1.916133 1_555
Fe5 O11 1.917559 1_555
Fe5 O43 1.927922 1_555
Fe5 O0 1.935718 1_555
Fe6 O28 1.916133 1_555
Fe6 O3 1.917559 1_555
Fe6 O46 1.927922 1_555
Fe6 O44 1.935718 1_555
Fe7 O22 1.859120 1_555
Fe7 O10 1.879018 1_655
Fe7 O34 1.918800 1_555
Fe7 O6 1.937621 1_555
O0 Si9 1.653184 1_555
O1 Si15 1.647554 1_455
O2 Si4 1.606628 1_555
O3 Si7 1.660032 1_554
O4 Si15 1.634898 1_454
O5 Si15 1.658299 1_555
O5 Si7 1.670215 1_555
O6 Si9 1.625232 1_555
O7 Si13 1.651636 1_555
O8 Si1 1.660032 1_555
O9 Si3 1.625232 1_555
O10 Si10 1.606628 1_555
O11 Si8 1.660032 1_555
O12 Si2 1.593525 1_555
O13 Si5 1.651636 1_555
O14 Si11 1.653184 1_555
O15 Si6 1.647554 1_455
O16 Si5 1.606628 1_555
O17 Si9 1.632175 1_555
O17 Si5 1.647936 1_655
O18 Si0 1.632175 1_555
O18 Si13 1.647936 1_455
O19 Si14 1.658299 1_555
O19 Si2 1.670215 1_555
O20 Si2 1.660032 1_556
O21 Si0 1.625232 1_555
O22 Si7 1.593525 1_555
O23 Si3 1.632175 1_555
O23 Si10 1.647936 1_655
O24 Si12 1.634898 1_655
O25 Si11 1.625232 1_555
O26 Si8 1.593525 1_555
O27 Si6 1.634898 1_455
O28 Si14 1.647554 1_655
O29 Si9 1.641886 1_555
O29 Si5 1.642402 1_555
O30 Si13 1.606628 1_555
O31 Si0 1.641886 1_555
O31 Si13 1.642402 1_555
O32 Si11 1.641886 1_555
O32 Si4 1.642402 1_555
O33 Si1 1.593525 1_555
O34 Si14 1.634898 1_656
O35 Si12 1.647554 1_655
O36 Si11 1.632175 1_555
O36 Si4 1.647936 1_455
O37 Si14 1.667273 1_655
O37 Si2 1.668689 1_555
O38 Si6 1.667273 1_455
O38 Si1 1.668689 1_555
O39 Si3 1.641886 1_555
O39 Si10 1.642402 1_555
O40 Si15 1.667273 1_455
O40 Si7 1.668689 1_555
O41 Si12 1.658299 1_555
O41 Si8 1.670215 1_555
O42 Si12 1.667273 1_655
O42 Si8 1.668689 1_555
O43 Si10 1.651636 1_555
O44 Si0 1.653184 1_555
O45 Si6 1.658299 1_555
O45 Si1 1.670215 1_555
O46 Si4 1.651636 1_555
O47 Si3 1.653184 1_555
