# generated using pymatgen
data_Na2SO4
_symmetry_space_group_name_H-M   'P 1'
_cell_length_a   5.83346600
_cell_length_b   5.89848379
_cell_length_c   7.05573447
_cell_angle_alpha   86.91431598
_cell_angle_beta   68.61939336
_cell_angle_gamma   86.36620556
_symmetry_Int_Tables_number   1
_chemical_formula_structural   Na2SO4
_chemical_formula_sum   'Na4 S2 O8'
_cell_volume   225.49197508
_cell_formula_units_Z   2
loop_
 _symmetry_equiv_pos_site_id
 _symmetry_equiv_pos_as_xyz
  1  'x, y, z'
loop_
 _atom_site_type_symbol
 _atom_site_label
 _atom_site_symmetry_multiplicity
 _atom_site_fract_x
 _atom_site_fract_y
 _atom_site_fract_z
 _atom_site_occupancy
  Na  Na0  1  0.90735600  0.45872400  0.92004600  1
  Na  Na1  1  0.27084800  0.61663900  0.33489700  1
  Na  Na2  1  0.86960100  0.99245700  0.17966600  1
  Na  Na3  1  0.67568900  0.98153600  0.70622800  1
  S  S0  1  0.35948500  0.19621400  0.11466800  1
  S  S1  1  0.68271400  0.49885100  0.47810000  1
  O  O0  1  0.73231800  0.61529600  0.26687000  1
  O  O1  1  0.07118200  0.84260300  0.80845800  1
  O  O2  1  0.27283300  0.95426400  0.17689700  1
  O  O3  1  0.24760800  0.28149000  0.95803200  1
  O  O4  1  0.64194600  0.16488400  0.99600900  1
  O  O5  1  0.84733700  0.61027000  0.57197600  1
  O  O6  1  0.76884900  0.25077900  0.44696600  1
  O  O7  1  0.28623300  0.84779300  0.67518700  1
loop_
_geom_bond_atom_site_label_1
_geom_bond_atom_site_label_2
_geom_bond_distance
_geom_bond_site_symmetry_2
Na0 O3 2.280139 1_655
Na0 O4 2.307269 1_555
Na0 O0 2.487115 1_556
Na0 O1 2.488781 1_655
Na0 O5 2.702581 1_555
Na1 O2 2.227869 1_555
Na1 O5 2.427944 1_455
Na1 O0 2.555926 1_555
Na1 O7 2.856032 1_555
Na1 S0 2.915158 1_555
Na2 O4 2.327847 1_564
Na2 O2 2.341786 1_655
Na2 O6 2.368916 1_565
Na2 O0 2.385017 1_555
Na2 O1 2.625997 1_654
Na2 O3 2.808857 1_664
Na3 O6 2.288134 1_565
Na3 O4 2.303568 1_565
Na3 O5 2.439137 1_555
Na3 O7 2.537777 1_555
Na3 O1 2.724812 1_655
O0 S1 1.541842 1_555
O1 O7 1.265137 1_555
O2 S0 1.532050 1_565
O3 S0 1.524730 1_556
O4 S0 1.556381 1_556
O5 S1 1.543862 1_555
O6 S1 1.517483 1_555
