# generated using pymatgen
data_Li2Mn2SbO6
_symmetry_space_group_name_H-M   'P 1'
_cell_length_a   5.35664327
_cell_length_b   10.29296225
_cell_length_c   5.35654319
_cell_angle_alpha   90.01538012
_cell_angle_beta   117.52396316
_cell_angle_gamma   90.01078355
_symmetry_Int_Tables_number   1
_chemical_formula_structural   Li2Mn2SbO6
_chemical_formula_sum   'Li4 Mn4 Sb2 O12'
_cell_volume   261.90994822
_cell_formula_units_Z   2
loop_
 _symmetry_equiv_pos_site_id
 _symmetry_equiv_pos_as_xyz
  1  'x, y, z'
loop_
 _atom_site_type_symbol
 _atom_site_label
 _atom_site_symmetry_multiplicity
 _atom_site_fract_x
 _atom_site_fract_y
 _atom_site_fract_z
 _atom_site_occupancy
  Li  Li0  1  0.59657900  0.75013600  0.09605500  1
  Li  Li1  1  0.90394800  0.24988200  0.40343200  1
  Li  Li2  1  0.10126600  0.74989200  0.60064600  1
  Li  Li3  1  0.39933400  0.25012500  0.89877700  1
  Mn  Mn0  1  0.67155000  0.99999000  0.32839000  1
  Mn  Mn1  1  0.34178600  0.00001200  0.65817100  1
  Mn  Mn2  1  0.82829400  0.50000800  0.17176900  1
  Mn  Mn3  1  0.15798400  0.50005800  0.84224400  1
  Sb  Sb0  1  0.00994400  0.99998600  0.98992800  1
  Sb  Sb1  1  0.48998400  0.49997900  0.51009900  1
  O  O0  1  0.16233500  0.59181000  0.20037300  1
  O  O1  1  0.33770900  0.09184700  0.30001500  1
  O  O2  1  0.69973400  0.90810600  0.66211200  1
  O  O3  1  0.79975100  0.40816300  0.83769800  1
  O  O4  1  0.70973400  0.10801300  0.04377200  1
  O  O5  1  0.29697500  0.88180800  0.96380300  1
  O  O6  1  0.54359400  0.39198700  0.20966700  1
  O  O7  1  0.79034000  0.60803000  0.45644700  1
  O  O8  1  0.95620600  0.89199200  0.29025100  1
  O  O9  1  0.20281400  0.38177700  0.53618000  1
  O  O10  1  0.46400300  0.61817000  0.79720900  1
  O  O11  1  0.03613300  0.11822800  0.70296300  1
loop_
_geom_bond_atom_site_label_1
_geom_bond_atom_site_label_2
_geom_bond_distance
_geom_bond_site_symmetry_2
Li0 O10 1.964599 1_554
Li0 O5 1.965920 1_554
Li0 O8 2.251902 1_555
Li0 O7 2.256907 1_555
Li1 O9 1.964218 1_655
Li1 O11 1.965574 1_655
Li1 O4 2.252041 1_555
Li1 O6 2.256746 1_555
Li2 O7 2.076578 1_455
Li2 O8 2.077290 1_455
Li2 O10 2.198450 1_555
Li2 O5 2.199991 1_555
Li3 O6 2.076387 1_556
Li3 O4 2.077362 1_556
Li3 O9 2.197514 1_555
Li3 O11 2.200132 1_555
Mn0 O2 1.965778 1_555
Mn0 O1 1.965817 1_565
Mn0 O8 1.972530 1_555
Mn0 O4 1.972675 1_565
Mn0 O5 2.386577 1_554
Mn0 O11 2.386853 1_665
Mn1 O2 2.129563 1_545
Mn1 O1 2.129976 1_555
Mn1 O5 2.140621 1_545
Mn1 O11 2.140673 1_555
Mn1 O8 2.371070 1_445
Mn1 O4 2.371091 1_556
Mn2 O0 1.965698 1_655
Mn2 O3 1.966070 1_554
Mn2 O7 1.971947 1_555
Mn2 O6 1.972000 1_555
Mn2 O10 2.386674 1_554
Mn2 O9 2.387212 1_655
Mn3 O0 2.128411 1_556
Mn3 O3 2.129240 1_455
Mn3 O10 2.141996 1_555
Mn3 O9 2.142560 1_555
Mn3 O6 2.371116 1_556
Mn3 O7 2.371633 1_455
O0 Sb1 2.009113 1_555
O1 Sb0 2.009650 1_544
O2 Sb0 2.010149 1_655
O3 Sb1 2.009002 1_555
O4 Sb0 2.082009 1_644
O5 Sb0 2.015605 1_555
O6 Sb1 2.081846 1_555
O7 Sb1 2.082045 1_555
O8 Sb0 2.082111 1_654
O9 Sb1 2.015943 1_555
O10 Sb1 2.015290 1_555
O11 Sb0 2.015926 1_545
