# generated using pymatgen
data_NaCaAlSi2O7
_symmetry_space_group_name_H-M   'P 1'
_cell_length_a   11.50444000
_cell_length_b   7.68507900
_cell_length_c   7.87250500
_cell_angle_alpha   90.00000000
_cell_angle_beta   90.00000000
_cell_angle_gamma   90.00000000
_symmetry_Int_Tables_number   1
_chemical_formula_structural   NaCaAlSi2O7
_chemical_formula_sum   'Na4 Ca4 Al4 Si8 O28'
_cell_volume   696.02808646
_cell_formula_units_Z   4
loop_
 _symmetry_equiv_pos_site_id
 _symmetry_equiv_pos_as_xyz
  1  'x, y, z'
loop_
 _atom_site_type_symbol
 _atom_site_label
 _atom_site_symmetry_multiplicity
 _atom_site_fract_x
 _atom_site_fract_y
 _atom_site_fract_z
 _atom_site_occupancy
  Na  Na0  1  0.91318400  0.76823300  0.28397300  1
  Na  Na1  1  0.58681600  0.73176700  0.78397300  1
  Na  Na2  1  0.41318400  0.23176700  0.71602700  1
  Na  Na3  1  0.08681600  0.26823300  0.21602700  1
  Ca  Ca0  1  0.10475000  0.06600700  0.59402200  1
  Ca  Ca1  1  0.39525000  0.43399300  0.09402200  1
  Ca  Ca2  1  0.60475000  0.93399300  0.40597800  1
  Ca  Ca3  1  0.89525000  0.56600700  0.90597800  1
  Al  Al0  1  0.99172800  0.99219700  0.99059800  1
  Al  Al1  1  0.49172800  0.00780300  0.00940200  1
  Al  Al2  1  0.50827200  0.50780300  0.49059800  1
  Al  Al3  1  0.00827200  0.49219700  0.50940200  1
  Si  Si0  1  0.64207100  0.65166000  0.13692900  1
  Si  Si1  1  0.63554400  0.35815700  0.85344500  1
  Si  Si2  1  0.86445600  0.14184300  0.35344500  1
  Si  Si3  1  0.85792900  0.84834000  0.63692900  1
  Si  Si4  1  0.14207100  0.34834000  0.86307100  1
  Si  Si5  1  0.13554400  0.64184300  0.14655500  1
  Si  Si6  1  0.35792900  0.15166000  0.36307100  1
  Si  Si7  1  0.36445600  0.85815700  0.64655500  1
  O  O0  1  0.08264200  0.48158900  0.00860300  1
  O  O1  1  0.08284900  0.15393100  0.90012500  1
  O  O2  1  0.06094700  0.80858300  0.07875300  1
  O  O3  1  0.07417100  0.58223300  0.32749200  1
  O  O4  1  0.09017800  0.39830500  0.67572200  1
  O  O5  1  0.22004400  0.15817400  0.38105000  1
  O  O6  1  0.22709900  0.85906700  0.64721600  1
  O  O7  1  0.27290100  0.64093300  0.14721600  1
  O  O8  1  0.27995600  0.34182600  0.88105000  1
  O  O9  1  0.42582900  0.91776700  0.82749200  1
  O  O10  1  0.43905300  0.69141700  0.57875300  1
  O  O11  1  0.41715100  0.34606900  0.40012500  1
  O  O12  1  0.40982200  0.10169500  0.17572200  1
  O  O13  1  0.41735800  0.01841100  0.50860200  1
  O  O14  1  0.58264200  0.51841100  0.99139800  1
  O  O15  1  0.58284900  0.84606900  0.09987500  1
  O  O16  1  0.59017800  0.60169500  0.32427800  1
  O  O17  1  0.57417100  0.41776700  0.67250800  1
  O  O18  1  0.56094700  0.19141700  0.92124700  1
  O  O19  1  0.72709900  0.14093300  0.35278400  1
  O  O20  1  0.72004400  0.84182600  0.61895000  1
  O  O21  1  0.77290100  0.35906700  0.85278400  1
  O  O22  1  0.77995600  0.65817400  0.11895000  1
  O  O23  1  0.90982200  0.89830500  0.82427800  1
  O  O24  1  0.91715100  0.65393100  0.59987500  1
  O  O25  1  0.93905300  0.30858300  0.42124700  1
  O  O26  1  0.92582900  0.08223300  0.17250800  1
  O  O27  1  0.91735800  0.98158900  0.49139700  1
loop_
_geom_bond_atom_site_label_1
_geom_bond_atom_site_label_2
_geom_bond_distance
_geom_bond_site_symmetry_2
Na0 O22 2.179997 1_555
Na0 O27 2.314584 1_555
Na0 O3 2.364483 1_655
Na0 O2 2.365601 1_655
Na0 O26 2.571830 1_565
Na0 O24 2.637911 1_555
Na1 O20 2.179997 1_555
Na1 O14 2.314589 1_555
Na1 O9 2.364483 1_555
Na1 O10 2.365601 1_555
Na1 O17 2.571830 1_555
Na1 O15 2.637911 1_556
Na2 O8 2.179997 1_555
Na2 O13 2.314589 1_555
Na2 O17 2.364483 1_555
Na2 O18 2.365601 1_555
Na2 O9 2.571830 1_545
Na2 O11 2.637911 1_555
Na3 O5 2.179997 1_555
Na3 O0 2.314584 1_555
Na3 O26 2.364483 1_455
Na3 O25 2.365601 1_455
Na3 O3 2.571830 1_555
Na3 O1 2.637911 1_554
Ca0 O6 2.164670 1_545
Ca0 O5 2.252130 1_555
Ca0 O27 2.391916 1_445
Ca0 O1 2.515389 1_555
Ca0 O4 2.638818 1_555
Ca1 O7 2.164670 1_555
Ca1 O8 2.252130 1_554
Ca1 O14 2.391913 1_554
Ca1 O11 2.515389 1_555
Ca1 O12 2.638818 1_555
Ca2 O19 2.164670 1_565
Ca2 O20 2.252130 1_555
Ca2 O13 2.391913 1_565
Ca2 O15 2.515389 1_555
Ca2 O16 2.638818 1_555
Ca3 O21 2.164670 1_555
Ca3 O22 2.252130 1_556
Ca3 O0 2.391916 1_656
Ca3 O24 2.515389 1_555
Ca3 O23 2.638818 1_555
Al0 O26 1.761933 1_566
Al0 O2 1.762652 1_656
Al0 O23 1.767192 1_555
Al0 O1 1.775139 1_665
Al1 O9 1.761933 1_544
Al1 O18 1.762652 1_554
Al1 O12 1.767192 1_555
Al1 O15 1.775139 1_545
Al2 O17 1.761933 1_555
Al2 O10 1.762652 1_555
Al2 O16 1.767192 1_555
Al2 O11 1.775139 1_555
Al3 O3 1.761933 1_555
Al3 O25 1.762652 1_455
Al3 O4 1.767192 1_555
Al3 O24 1.775139 1_455
O0 Si4 1.681877 1_554
O0 Si5 1.751174 1_555
O1 Si4 1.667773 1_555
O2 Si5 1.632000 1_555
O3 Si5 1.654503 1_555
O4 Si4 1.636826 1_555
O5 Si6 1.593378 1_555
O6 Si7 1.580239 1_555
O7 Si5 1.580239 1_555
O8 Si4 1.593378 1_555
O9 Si7 1.654503 1_555
O10 Si7 1.632000 1_555
O11 Si6 1.667773 1_555
O12 Si6 1.636826 1_555
O13 Si6 1.681871 1_555
O13 Si7 1.751179 1_545
O14 Si0 1.681871 1_556
O14 Si1 1.751179 1_555
O15 Si0 1.667773 1_555
O16 Si0 1.636826 1_555
O17 Si1 1.654503 1_555
O18 Si1 1.632000 1_555
O19 Si2 1.580239 1_555
O20 Si3 1.593378 1_555
O21 Si1 1.580239 1_555
O22 Si0 1.593378 1_555
O23 Si3 1.636826 1_555
O24 Si3 1.667773 1_555
O25 Si2 1.632000 1_555
O26 Si2 1.654503 1_555
O27 Si3 1.681877 1_555
O27 Si2 1.751174 1_565
