# generated using pymatgen
data_BaTaF7
_symmetry_space_group_name_H-M   'P 1'
_cell_length_a   10.18692600
_cell_length_b   5.76189300
_cell_length_c   10.42293189
_cell_angle_alpha   87.69027845
_cell_angle_beta   90.00000000
_cell_angle_gamma   90.00000000
_symmetry_Int_Tables_number   1
_chemical_formula_structural   BaTaF7
_chemical_formula_sum   'Ba4 Ta4 F28'
_cell_volume   611.28714577
_cell_formula_units_Z   4
loop_
 _symmetry_equiv_pos_site_id
 _symmetry_equiv_pos_as_xyz
  1  'x, y, z'
loop_
 _atom_site_type_symbol
 _atom_site_label
 _atom_site_symmetry_multiplicity
 _atom_site_fract_x
 _atom_site_fract_y
 _atom_site_fract_z
 _atom_site_occupancy
  Ba  Ba0  1  0.33105100  0.30990300  0.50942000  1
  Ba  Ba1  1  0.83105100  0.69009700  0.99058000  1
  Ba  Ba2  1  0.66894900  0.69009700  0.49058000  1
  Ba  Ba3  1  0.16894900  0.30990300  0.00942000  1
  Ta  Ta0  1  0.61059800  0.18454400  0.18549000  1
  Ta  Ta1  1  0.38940200  0.81545600  0.81451000  1
  Ta  Ta2  1  0.88940200  0.18454400  0.68549000  1
  Ta  Ta3  1  0.11059800  0.81545600  0.31451000  1
  F  F0  1  0.44868400  0.10146100  0.88041600  1
  F  F1  1  0.05010200  0.33148600  0.63475100  1
  F  F2  1  0.69102700  0.46891900  0.24059800  1
  F  F3  1  0.30897300  0.53108100  0.75940200  1
  F  F4  1  0.45454800  0.88045800  0.64139800  1
  F  F5  1  0.80419900  0.25569200  0.52276100  1
  F  F6  1  0.76171100  0.00077800  0.24061600  1
  F  F7  1  0.95454800  0.11954200  0.85860200  1
  F  F8  1  0.44989800  0.33148600  0.13475100  1
  F  F9  1  0.19102700  0.53108100  0.25940200  1
  F  F10  1  0.05131600  0.10146100  0.38041600  1
  F  F11  1  0.55131600  0.89853900  0.11958400  1
  F  F12  1  0.26171100  0.99922200  0.25938400  1
  F  F13  1  0.95805300  0.38796500  0.11313600  1
  F  F14  1  0.54545200  0.11954200  0.35860200  1
  F  F15  1  0.04545200  0.88045800  0.14139800  1
  F  F16  1  0.23828900  0.99922200  0.75938400  1
  F  F17  1  0.94868400  0.89853900  0.61958400  1
  F  F18  1  0.45805300  0.61203500  0.38686400  1
  F  F19  1  0.94989800  0.66851400  0.36524900  1
  F  F20  1  0.04194700  0.61203500  0.88686400  1
  F  F21  1  0.73828900  0.00077800  0.74061600  1
  F  F22  1  0.54194700  0.38796500  0.61313600  1
  F  F23  1  0.30419900  0.74430800  0.97723900  1
  F  F24  1  0.19580100  0.74430800  0.47723900  1
  F  F25  1  0.69580100  0.25569200  0.02276100  1
  F  F26  1  0.55010200  0.66851400  0.86524900  1
  F  F27  1  0.80897300  0.46891900  0.74059800  1
loop_
_geom_bond_atom_site_label_1
_geom_bond_atom_site_label_2
_geom_bond_distance
_geom_bond_site_symmetry_2
Ba0 F22 2.454721 1_555
Ba0 F18 2.481305 1_555
Ba1 F20 2.454721 1_655
Ba1 F13 2.481305 1_556
Ba2 F18 2.454721 1_555
Ba2 F22 2.481305 1_555
Ba3 F13 2.454721 1_455
Ba3 F20 2.481305 1_554
F0 Ta1 1.908793 1_545
F1 Ta2 1.907964 1_455
F2 Ta0 1.939557 1_555
F3 Ta1 1.939557 1_555
F4 Ta1 1.944696 1_555
F5 Ta2 1.934467 1_555
F6 Ta0 1.942144 1_555
F7 Ta2 1.944696 1_555
F8 Ta0 1.907964 1_555
F9 Ta3 1.939557 1_555
F10 Ta3 1.908793 1_545
F11 Ta0 1.908793 1_565
F12 Ta3 1.942144 1_555
F14 Ta0 1.944696 1_555
F15 Ta3 1.944696 1_555
F16 Ta1 1.942144 1_555
F17 Ta2 1.908793 1_565
F19 Ta3 1.907964 1_655
F21 Ta2 1.942144 1_555
F23 Ta1 1.934467 1_555
F24 Ta3 1.934467 1_555
F25 Ta0 1.934467 1_555
F26 Ta1 1.907964 1_555
F27 Ta2 1.939557 1_555
