# generated using pymatgen
data_LiNd2IrO6
_symmetry_space_group_name_H-M   'P 1'
_cell_length_a   5.84090700
_cell_length_b   5.45152100
_cell_length_c   9.45966593
_cell_angle_alpha   55.37501589
_cell_angle_beta   90.00000000
_cell_angle_gamma   90.00000000
_symmetry_Int_Tables_number   1
_chemical_formula_structural   LiNd2IrO6
_chemical_formula_sum   'Li2 Nd4 Ir2 O12'
_cell_volume   247.86480683
_cell_formula_units_Z   2
loop_
 _symmetry_equiv_pos_site_id
 _symmetry_equiv_pos_as_xyz
  1  'x, y, z'
loop_
 _atom_site_type_symbol
 _atom_site_label
 _atom_site_symmetry_multiplicity
 _atom_site_fract_x
 _atom_site_fract_y
 _atom_site_fract_z
 _atom_site_occupancy
  Li  Li0  1  0.00000000  0.00000000  0.00000000  1
  Li  Li1  1  0.50000000  0.00000000  0.50000000  1
  Nd  Nd0  1  0.07370600  0.77033300  0.74827100  1
  Nd  Nd1  1  0.57370600  0.22966700  0.75172900  1
  Nd  Nd2  1  0.42629400  0.77033300  0.24827100  1
  Nd  Nd3  1  0.92629400  0.22966700  0.25172900  1
  Ir  Ir0  1  0.50000000  0.50000000  0.00000000  1
  Ir  Ir1  1  0.00000000  0.50000000  0.50000000  1
  O  O0  1  0.28877000  0.26745000  0.55308300  1
  O  O1  1  0.78877000  0.73255000  0.94691700  1
  O  O2  1  0.71123000  0.73255000  0.44691700  1
  O  O3  1  0.21123000  0.26745000  0.05308300  1
  O  O4  1  0.02962400  0.64703900  0.25417000  1
  O  O5  1  0.52962400  0.35296100  0.24583000  1
  O  O6  1  0.31252100  0.84829700  0.95153500  1
  O  O7  1  0.81252100  0.15170300  0.54846500  1
  O  O8  1  0.68747900  0.15170300  0.04846500  1
  O  O9  1  0.18747900  0.84829700  0.45153500  1
  O  O10  1  0.47037600  0.64703900  0.75417000  1
  O  O11  1  0.97037600  0.35296100  0.74583000  1
loop_
_geom_bond_atom_site_label_1
_geom_bond_atom_site_label_2
_geom_bond_distance
_geom_bond_site_symmetry_2
Li0 O11 2.062976 1_454
Li0 O4 2.062976 1_545
Li0 O8 2.158036 1_455
Li0 O6 2.158036 1_544
Li0 O1 2.175350 1_444
Li0 O3 2.175350 1_555
Li1 O5 2.062976 1_555
Li1 O10 2.062976 1_545
Li1 O7 2.158036 1_555
Li1 O9 2.158036 1_545
Li1 O0 2.175350 1_555
Li1 O2 2.175350 1_545
Nd0 O11 2.366759 1_455
Nd0 O7 2.399294 1_465
Nd0 O10 2.404235 1_555
Nd0 O1 2.429718 1_455
Nd0 O0 2.577814 1_565
Nd0 O6 2.598517 1_555
Nd0 O9 2.673172 1_555
Nd0 O3 2.737143 1_556
Nd1 O10 2.366759 1_555
Nd1 O6 2.399294 1_545
Nd1 O11 2.404235 1_555
Nd1 O0 2.429718 1_555
Nd1 O1 2.577814 1_545
Nd1 O7 2.598517 1_555
Nd1 O8 2.673172 1_556
Nd1 O2 2.737143 1_555
Nd2 O5 2.366759 1_555
Nd2 O8 2.399294 1_565
Nd2 O4 2.404235 1_555
Nd2 O2 2.429718 1_555
Nd2 O3 2.577814 1_565
Nd2 O9 2.598517 1_555
Nd2 O6 2.673172 1_554
Nd2 O0 2.737143 1_555
Nd3 O4 2.366759 1_655
Nd3 O9 2.399294 1_645
Nd3 O5 2.404235 1_555
Nd3 O3 2.429718 1_655
Nd3 O2 2.577814 1_545
Nd3 O8 2.598517 1_555
Nd3 O7 2.673172 1_555
Nd3 O1 2.737143 1_554
Ir0 O5 1.990466 1_555
Ir0 O10 1.990466 1_554
Ir0 O3 1.995193 1_555
Ir0 O1 1.995193 1_554
Ir0 O6 2.006319 1_554
Ir0 O8 2.006319 1_555
Ir1 O11 1.990466 1_455
Ir1 O4 1.990466 1_555
Ir1 O2 1.995193 1_455
Ir1 O0 1.995193 1_555
Ir1 O9 2.006319 1_555
Ir1 O7 2.006319 1_455
