# generated using pymatgen
data_K2MgSiO4
_symmetry_space_group_name_H-M   'P 1'
_cell_length_a   5.53821600
_cell_length_b   11.11310200
_cell_length_c   15.78207200
_cell_angle_alpha   90.00000000
_cell_angle_beta   90.00000000
_cell_angle_gamma   90.00000000
_symmetry_Int_Tables_number   1
_chemical_formula_structural   K2MgSiO4
_chemical_formula_sum   'K16 Mg8 Si8 O32'
_cell_volume   971.33538673
_cell_formula_units_Z   8
loop_
 _symmetry_equiv_pos_site_id
 _symmetry_equiv_pos_as_xyz
  1  'x, y, z'
loop_
 _atom_site_type_symbol
 _atom_site_label
 _atom_site_symmetry_multiplicity
 _atom_site_fract_x
 _atom_site_fract_y
 _atom_site_fract_z
 _atom_site_occupancy
  K  K0  1  0.05143200  0.23506300  0.68603200  1
  K  K1  1  0.94856800  0.76493700  0.18603200  1
  K  K2  1  0.94856800  0.73506300  0.68603200  1
  K  K3  1  0.05143200  0.26493700  0.18603200  1
  K  K4  1  0.00460200  0.49014300  0.56182100  1
  K  K5  1  0.99539800  0.50985700  0.06182100  1
  K  K6  1  0.99539800  0.99014300  0.56182100  1
  K  K7  1  0.00460200  0.00985700  0.06182100  1
  K  K8  1  0.45688500  0.76052400  0.31640700  1
  K  K9  1  0.54311500  0.23947600  0.81640700  1
  K  K10  1  0.54311500  0.26052400  0.31640700  1
  K  K11  1  0.45688500  0.73947600  0.81640700  1
  K  K12  1  0.49363300  0.50821400  0.43870900  1
  K  K13  1  0.50636700  0.49178600  0.93870900  1
  K  K14  1  0.50636700  0.00821400  0.43870900  1
  K  K15  1  0.49363300  0.99178600  0.93870900  1
  Mg  Mg0  1  0.99166800  0.99036900  0.81125100  1
  Mg  Mg1  1  0.00833200  0.00963100  0.31125100  1
  Mg  Mg2  1  0.00833200  0.49036900  0.81125100  1
  Mg  Mg3  1  0.99166800  0.50963100  0.31125100  1
  Mg  Mg4  1  0.53146000  0.26080400  0.06366600  1
  Mg  Mg5  1  0.46854000  0.73919600  0.56366600  1
  Mg  Mg6  1  0.46854000  0.76080400  0.06366600  1
  Mg  Mg7  1  0.53146000  0.23919600  0.56366600  1
  Si  Si0  1  0.50906500  0.00768600  0.18892800  1
  Si  Si1  1  0.49093500  0.99231400  0.68892800  1
  Si  Si2  1  0.49093500  0.50768600  0.18892800  1
  Si  Si3  1  0.50906500  0.49231400  0.68892800  1
  Si  Si4  1  0.97343100  0.73518500  0.93554200  1
  Si  Si5  1  0.02656900  0.26481500  0.43554200  1
  Si  Si6  1  0.02656900  0.23518500  0.93554200  1
  Si  Si7  1  0.97343100  0.76481500  0.43554200  1
  O  O0  1  0.22107300  0.51221800  0.71322800  1
  O  O1  1  0.77892700  0.48778200  0.21322800  1
  O  O2  1  0.77892700  0.01221800  0.71322800  1
  O  O3  1  0.22107300  0.98778200  0.21322800  1
  O  O4  1  0.56091400  0.35206300  0.65822500  1
  O  O5  1  0.43908600  0.64793700  0.15822500  1
  O  O6  1  0.43908600  0.85206300  0.65822500  1
  O  O7  1  0.56091400  0.14793700  0.15822500  1
  O  O8  1  0.41864500  0.08493100  0.61068300  1
  O  O9  1  0.58135500  0.91506900  0.11068300  1
  O  O10  1  0.58135500  0.58493100  0.61068300  1
  O  O11  1  0.41864500  0.41506900  0.11068300  1
  O  O12  1  0.84028000  0.20729300  0.50693100  1
  O  O13  1  0.15972000  0.79270700  0.00693100  1
  O  O14  1  0.15972000  0.70729300  0.50693100  1
  O  O15  1  0.70680600  0.70935700  0.97910100  1
  O  O16  1  0.32482400  0.47877200  0.27389100  1
  O  O17  1  0.67517600  0.52122800  0.77389100  1
  O  O18  1  0.67517600  0.97877200  0.27389100  1
  O  O19  1  0.32482400  0.02122800  0.77389100  1
  O  O20  1  0.94366700  0.67361400  0.35350300  1
  O  O21  1  0.05633300  0.32638600  0.85350300  1
  O  O22  1  0.05633300  0.17361400  0.35350300  1
  O  O23  1  0.94366700  0.82638600  0.85350300  1
  O  O24  1  0.08689000  0.89462200  0.40208400  1
  O  O25  1  0.91311000  0.10537800  0.90208400  1
  O  O26  1  0.91311000  0.39462200  0.40208400  1
  O  O27  1  0.08689000  0.60537800  0.90208400  1
  O  O28  1  0.70680600  0.79064300  0.47910100  1
  O  O29  1  0.29319400  0.20935700  0.97910100  1
  O  O30  1  0.29319400  0.29064300  0.47910100  1
  O  O31  1  0.84028000  0.29270700  0.00693100  1
loop_
_geom_bond_atom_site_label_1
_geom_bond_atom_site_label_2
_geom_bond_distance
_geom_bond_site_symmetry_2
K0 O21 2.831321 1_555
K0 O8 2.886820 1_555
K0 O2 2.931711 1_455
K0 O4 3.043531 1_455
K0 O12 3.074464 1_455
K0 O4 3.137633 1_555
K0 O19 3.140429 1_555
K0 O0 3.248633 1_555
K1 O20 2.831321 1_555
K1 O9 2.886820 1_555
K1 O3 2.931711 1_655
K1 O5 3.043531 1_655
K1 O13 3.074464 1_655
K1 O5 3.137633 1_555
K1 O18 3.140429 1_555
K1 O1 3.248633 1_555
K2 O23 2.831321 1_555
K2 O10 2.886820 1_555
K2 O0 2.931711 1_655
K2 O6 3.043531 1_655
K2 O14 3.074464 1_655
K2 O6 3.137633 1_555
K2 O17 3.140429 1_555
K2 O2 3.248633 1_565
K3 O22 2.831321 1_555
K3 O11 2.886820 1_555
K3 O1 2.931711 1_455
K3 O7 3.043531 1_455
K3 O31 3.074464 1_455
K3 O7 3.137633 1_555
K3 O16 3.140429 1_555
K3 O3 3.248633 1_545
K4 O10 2.683055 1_455
K4 O0 2.684631 1_555
K4 O14 2.704077 1_555
K4 O26 2.781896 1_455
K5 O11 2.683055 1_655
K5 O1 2.684631 1_555
K5 O31 2.704077 1_555
K5 O27 2.781896 1_654
K6 O8 2.683055 1_665
K6 O2 2.684631 1_565
K6 O12 2.704077 1_565
K6 O24 2.781896 1_655
K7 O9 2.683055 1_445
K7 O3 2.684631 1_545
K7 O13 2.704077 1_545
K7 O25 2.781896 1_454
K8 O18 2.791844 1_555
K8 O5 2.794174 1_555
K8 O24 2.871938 1_555
K8 O20 2.922926 1_555
K8 O28 2.936091 1_555
K8 O20 3.058486 1_455
K8 O3 3.276515 1_555
K8 O16 3.284688 1_555
K9 O19 2.791844 1_555
K9 O4 2.794174 1_555
K9 O25 2.871938 1_555
K9 O21 2.922926 1_555
K9 O29 2.936091 1_555
K9 O21 3.058486 1_655
K9 O2 3.276515 1_555
K9 O17 3.284688 1_555
K10 O16 2.791844 1_555
K10 O7 2.794174 1_555
K10 O26 2.871938 1_555
K10 O22 2.922926 1_555
K10 O30 2.936091 1_555
K10 O22 3.058486 1_655
K10 O1 3.276515 1_555
K10 O18 3.284688 1_545
K11 O17 2.791844 1_555
K11 O6 2.794174 1_555
K11 O27 2.871938 1_555
K11 O23 2.922926 1_555
K11 O15 2.936091 1_555
K11 O23 3.058486 1_455
K11 O0 3.276515 1_555
K11 O19 3.284688 1_565
K12 O26 2.706419 1_555
K12 O30 2.735840 1_555
K12 O16 2.783375 1_555
K12 O10 2.886046 1_555
K12 O14 3.077945 1_555
K13 O27 2.706419 1_555
K13 O15 2.735840 1_555
K13 O17 2.783375 1_555
K13 O11 2.886046 1_556
K13 O31 3.077945 1_556
K14 O24 2.706419 1_545
K14 O28 2.735840 1_545
K14 O18 2.783375 1_545
K14 O8 2.886046 1_555
K14 O12 3.077945 1_555
K15 O25 2.706419 1_565
K15 O29 2.735840 1_565
K15 O19 2.783375 1_565
K15 O9 2.886046 1_556
K15 O13 3.077945 1_556
Mg0 O23 1.958653 1_555
Mg0 O2 1.959682 1_565
Mg0 O19 1.967133 1_665
Mg0 O25 1.969228 1_565
Mg1 O22 1.958653 1_555
Mg1 O3 1.959682 1_545
Mg1 O18 1.967133 1_445
Mg1 O24 1.969228 1_545
Mg2 O21 1.958653 1_555
Mg2 O0 1.959682 1_555
Mg2 O17 1.967133 1_455
Mg2 O27 1.969228 1_555
Mg3 O20 1.958653 1_555
Mg3 O1 1.959682 1_555
Mg3 O16 1.967133 1_655
Mg3 O26 1.969228 1_555
Mg4 O7 1.956260 1_555
Mg4 O29 1.961971 1_554
Mg4 O31 1.962804 1_555
Mg4 O11 1.969774 1_555
Mg5 O6 1.956260 1_555
Mg5 O28 1.961971 1_555
Mg5 O14 1.962804 1_555
Mg5 O10 1.969774 1_555
Mg6 O5 1.956260 1_555
Mg6 O15 1.961971 1_554
Mg6 O13 1.962804 1_555
Mg6 O9 1.969774 1_555
Mg7 O4 1.956260 1_555
Mg7 O30 1.961971 1_555
Mg7 O12 1.962804 1_555
Mg7 O8 1.969774 1_555
O0 Si3 1.655266 1_555
O1 Si2 1.655266 1_555
O2 Si1 1.655266 1_545
O3 Si0 1.655266 1_565
O4 Si3 1.657275 1_555
O5 Si2 1.657275 1_555
O6 Si1 1.657275 1_555
O7 Si0 1.657275 1_555
O8 Si1 1.656673 1_545
O9 Si0 1.656673 1_565
O10 Si3 1.656673 1_555
O11 Si2 1.656673 1_555
O12 Si5 1.656031 1_655
O13 Si4 1.656031 1_454
O14 Si7 1.656031 1_455
O15 Si4 1.653905 1_555
O16 Si2 1.657578 1_555
O17 Si3 1.657578 1_555
O18 Si0 1.657578 1_565
O19 Si1 1.657578 1_545
O20 Si7 1.652505 1_555
O21 Si6 1.652505 1_555
O22 Si5 1.652505 1_555
O23 Si4 1.652505 1_555
O24 Si7 1.659709 1_455
O25 Si6 1.659709 1_655
O26 Si5 1.659709 1_655
O27 Si4 1.659709 1_455
O28 Si7 1.653905 1_555
O29 Si6 1.653905 1_555
O30 Si5 1.653905 1_555
O31 Si6 1.656031 1_654
