# generated using pymatgen
data_Na4Al3Ge3O13
_symmetry_space_group_name_H-M   'P 1'
_cell_length_a   9.10310520
_cell_length_b   9.10310520
_cell_length_c   9.10310502
_cell_angle_alpha   89.66249443
_cell_angle_beta   89.66249443
_cell_angle_gamma   89.66249309
_symmetry_Int_Tables_number   1
_chemical_formula_structural   Na4Al3Ge3O13
_chemical_formula_sum   'Na8 Al6 Ge6 O26'
_cell_volume   754.30356495
_cell_formula_units_Z   2
loop_
 _symmetry_equiv_pos_site_id
 _symmetry_equiv_pos_as_xyz
  1  'x, y, z'
loop_
 _atom_site_type_symbol
 _atom_site_label
 _atom_site_symmetry_multiplicity
 _atom_site_fract_x
 _atom_site_fract_y
 _atom_site_fract_z
 _atom_site_occupancy
  Na  Na0  1  0.31828300  0.31828300  0.31828300  1
  Na  Na1  1  0.34883500  0.66646400  0.66648500  1
  Na  Na2  1  0.66648500  0.34883500  0.66646400  1
  Na  Na3  1  0.66646400  0.66648500  0.34883500  1
  Na  Na4  1  0.16646400  0.84883500  0.16648500  1
  Na  Na5  1  0.84883500  0.16648500  0.16646400  1
  Na  Na6  1  0.81828300  0.81828300  0.81828300  1
  Na  Na7  1  0.16648500  0.16646400  0.84883500  1
  Al  Al0  1  0.25117200  0.50291100  0.99977200  1
  Al  Al1  1  0.50291100  0.99977200  0.25117200  1
  Al  Al2  1  0.99977200  0.25117200  0.50291100  1
  Al  Al3  1  0.49977200  0.00291100  0.75117200  1
  Al  Al4  1  0.00291100  0.75117200  0.49977200  1
  Al  Al5  1  0.75117200  0.49977200  0.00291100  1
  Ge  Ge0  1  0.25099000  0.99965300  0.50320400  1
  Ge  Ge1  1  0.99965300  0.50320400  0.25099000  1
  Ge  Ge2  1  0.50320400  0.25099000  0.99965300  1
  Ge  Ge3  1  0.00320400  0.49965300  0.75099000  1
  Ge  Ge4  1  0.49965300  0.75099000  0.00320400  1
  Ge  Ge5  1  0.75099000  0.00320400  0.49965300  1
  O  O0  1  0.36068600  0.36028800  0.07588300  1
  O  O1  1  0.36028800  0.07588300  0.36068600  1
  O  O2  1  0.07588300  0.36068600  0.36028800  1
  O  O3  1  0.35767200  0.64682500  0.92479300  1
  O  O4  1  0.35746500  0.92481200  0.64648400  1
  O  O5  1  0.07874800  0.64253200  0.64288400  1
  O  O6  1  0.64648400  0.35746500  0.92481200  1
  O  O7  1  0.64288400  0.07874800  0.64253200  1
  O  O8  1  0.92479300  0.35767200  0.64682500  1
  O  O9  1  0.64253200  0.64288400  0.07874800  1
  O  O10  1  0.64682500  0.92479300  0.35767200  1
  O  O11  1  0.92481200  0.64648400  0.35746500  1
  O  O12  1  0.42481200  0.85746500  0.14648400  1
  O  O13  1  0.14253200  0.57874800  0.14288400  1
  O  O14  1  0.14682500  0.85767200  0.42479300  1
  O  O15  1  0.57874800  0.14288400  0.14253200  1
  O  O16  1  0.85767200  0.42479300  0.14682500  1
  O  O17  1  0.85746500  0.14648400  0.42481200  1
  O  O18  1  0.57588300  0.86028800  0.86068600  1
  O  O19  1  0.86068600  0.57588300  0.86028800  1
  O  O20  1  0.86028800  0.86068600  0.57588300  1
  O  O21  1  0.42479300  0.14682500  0.85767200  1
  O  O22  1  0.14648400  0.42481200  0.85746500  1
  O  O23  1  0.14288400  0.14253200  0.57874800  1
  O  O24  1  0.04696100  0.04696100  0.04696100  1
  O  O25  1  0.54696100  0.54696100  0.54696100  1
loop_
_geom_bond_atom_site_label_1
_geom_bond_atom_site_label_2
_geom_bond_distance
_geom_bond_site_symmetry_2
Na0 O0 2.268484 1_555
Na0 O2 2.268485 1_555
Na0 O1 2.268485 1_555
Na1 O3 2.358950 1_555
Na1 O4 2.359471 1_555
Na1 O25 2.363851 1_555
Na1 O5 2.480235 1_555
Na2 O8 2.358950 1_555
Na2 O6 2.359471 1_555
Na2 O25 2.363851 1_555
Na2 O7 2.480235 1_555
Na3 O10 2.358950 1_555
Na3 O11 2.359471 1_555
Na3 O25 2.363851 1_555
Na3 O9 2.480235 1_555
Na4 O14 2.358950 1_555
Na4 O12 2.359471 1_555
Na4 O24 2.363851 1_565
Na4 O13 2.480235 1_555
Na5 O16 2.358950 1_555
Na5 O17 2.359471 1_555
Na5 O24 2.363851 1_655
Na5 O15 2.480235 1_555
Na6 O20 2.268484 1_555
Na6 O19 2.268485 1_555
Na6 O18 2.268485 1_555
Na7 O21 2.358950 1_555
Na7 O22 2.359471 1_555
Na7 O24 2.363851 1_556
Na7 O23 2.480235 1_555
Al0 O3 1.765972 1_555
Al0 O22 1.767810 1_555
Al0 O13 1.771778 1_556
Al0 O0 1.772509 1_556
Al1 O10 1.765972 1_555
Al1 O12 1.767810 1_555
Al1 O15 1.771778 1_565
Al1 O1 1.772509 1_565
Al2 O8 1.765972 1_555
Al2 O17 1.767810 1_555
Al2 O23 1.771778 1_655
Al2 O2 1.772509 1_655
Al3 O21 1.765972 1_555
Al3 O4 1.767810 1_545
Al3 O7 1.771778 1_555
Al3 O18 1.772509 1_545
Al4 O14 1.765972 1_555
Al4 O11 1.767810 1_455
Al4 O5 1.771778 1_555
Al4 O20 1.772509 1_455
Al5 O16 1.765972 1_555
Al5 O6 1.767810 1_554
Al5 O9 1.771778 1_555
Al5 O19 1.772509 1_554
Ge0 O4 1.761087 1_555
Ge0 O14 1.764192 1_555
Ge0 O23 1.766499 1_565
Ge0 O1 1.771135 1_565
Ge1 O11 1.761087 1_555
Ge1 O16 1.764192 1_555
Ge1 O13 1.766499 1_655
Ge1 O2 1.771135 1_655
Ge2 O6 1.761087 1_555
Ge2 O21 1.764192 1_555
Ge2 O15 1.766499 1_556
Ge2 O0 1.771135 1_556
Ge3 O22 1.761087 1_555
Ge3 O8 1.764192 1_455
Ge3 O5 1.766499 1_555
Ge3 O19 1.771135 1_455
Ge4 O12 1.761087 1_555
Ge4 O3 1.764192 1_554
Ge4 O9 1.766499 1_555
Ge4 O18 1.771135 1_554
Ge5 O17 1.761087 1_555
Ge5 O10 1.764192 1_545
Ge5 O7 1.766499 1_555
Ge5 O20 1.771135 1_545
