# generated using pymatgen
data_CsIrN2
_symmetry_space_group_name_H-M   'P 1'
_cell_length_a   10.29811115
_cell_length_b   12.93696808
_cell_length_c   9.45305209
_cell_angle_alpha   90.03854597
_cell_angle_beta   62.65933993
_cell_angle_gamma   128.92534725
_symmetry_Int_Tables_number   1
_chemical_formula_structural   CsIrN2
_chemical_formula_sum   'Cs10 Ir10 N20'
_cell_volume   791.19672061
_cell_formula_units_Z   10
loop_
 _symmetry_equiv_pos_site_id
 _symmetry_equiv_pos_as_xyz
  1  'x, y, z'
loop_
 _atom_site_type_symbol
 _atom_site_label
 _atom_site_symmetry_multiplicity
 _atom_site_fract_x
 _atom_site_fract_y
 _atom_site_fract_z
 _atom_site_occupancy
  Cs  Cs0  1  0.60131400  0.69915700  0.96405100  1
  Cs  Cs1  1  0.39866400  0.30084000  0.56551200  1
  Cs  Cs2  1  0.79687800  0.59774600  0.11634000  1
  Cs  Cs3  1  0.20292000  0.40210400  0.91331500  1
  Cs  Cs4  1  0.58774000  0.20183900  0.73074400  1
  Cs  Cs5  1  0.41218800  0.79814900  0.31852800  1
  Cs  Cs6  1  0.81601400  0.11412100  0.36664300  1
  Cs  Cs7  1  0.18418600  0.88604700  0.18259800  1
  Cs  Cs8  1  0.00003600  0.00008700  0.51366900  1
  Cs  Cs9  1  0.99995700  0.49994200  0.76361500  1
  Ir  Ir0  1  0.00008300  0.50025400  0.26434100  1
  Ir  Ir1  1  0.99953700  0.99955400  0.01493200  1
  Ir  Ir2  1  0.19523100  0.39804900  0.42489700  1
  Ir  Ir3  1  0.80530400  0.60220800  0.61962800  1
  Ir  Ir4  1  0.60117800  0.70273700  0.47205700  1
  Ir  Ir5  1  0.39978500  0.29744000  0.07278800  1
  Ir  Ir6  1  0.39551700  0.80140100  0.81467300  1
  Ir  Ir7  1  0.60449600  0.19903900  0.21072800  1
  Ir  Ir8  1  0.20619100  0.90503700  0.65950500  1
  Ir  Ir9  1  0.79262600  0.09426200  0.86624800  1
  N  N0  1  0.14713200  0.48122100  0.31066100  1
  N  N1  1  0.85229300  0.51812900  0.45818200  1
  N  N2  1  0.81581300  0.83409600  0.22681300  1
  N  N3  1  0.18412900  0.16605000  0.04224100  1
  N  N4  1  0.15871400  0.99276500  0.81331000  1
  N  N5  1  0.84200800  0.00790000  0.97181100  1
  N  N6  1  0.82635000  0.33360400  0.23016600  1
  N  N7  1  0.17429200  0.66615300  0.05574600  1
  N  N8  1  0.31002800  0.34295900  0.26458800  1
  N  N9  1  0.68932400  0.65666300  0.57540000  1
  N  N10  1  0.37543000  0.53251500  0.48239300  1
  N  N11  1  0.62359700  0.46741300  0.85746800  1
  N  N12  1  0.23561200  0.80546600  0.76509800  1
  N  N13  1  0.76491400  0.19503000  0.00003300  1
  N  N14  1  0.37526400  0.07014200  0.44493900  1
  N  N15  1  0.62474700  0.92991400  0.82027000  1
  N  N16  1  0.53084200  0.79538500  0.59242200  1
  N  N17  1  0.46960300  0.20449400  0.12298400  1
  N  N18  1  0.05970800  0.76455500  0.57867300  1
  N  N19  1  0.94035400  0.23553300  0.63778700  1
loop_
_geom_bond_atom_site_label_1
_geom_bond_atom_site_label_2
_geom_bond_distance
_geom_bond_site_symmetry_2
Cs0 N15 3.101046 1_555
Cs0 N5 3.135055 1_565
Cs0 N0 3.150484 1_556
Cs0 N11 3.271736 1_555
Cs1 N14 3.099769 1_555
Cs1 N4 3.130132 1_545
Cs1 N1 3.146893 1_555
Cs1 N10 3.276379 1_555
Cs2 N12 3.103936 1_654
Cs2 N7 3.138600 1_655
Cs2 N2 3.148232 1_555
Cs2 N8 3.278866 1_555
Cs3 N13 3.101042 1_456
Cs3 N6 3.132241 1_456
Cs3 N3 3.145536 1_556
Cs3 N9 3.275254 1_555
Cs4 N19 3.037870 1_555
Cs4 N4 3.043634 1_545
Cs4 N1 3.218988 1_555
Cs4 N17 3.337408 1_556
Cs4 N11 3.490290 1_555
Cs4 N3 3.535850 1_556
Cs5 N18 3.038411 1_555
Cs5 N5 3.048067 1_564
Cs5 N0 3.223272 1_555
Cs5 N16 3.340514 1_555
Cs5 N10 3.490871 1_555
Cs5 N2 3.536432 1_555
Cs6 N16 3.036460 1_545
Cs6 N6 3.039275 1_555
Cs6 N3 3.217186 1_655
Cs6 N19 3.340411 1_555
Cs6 N8 3.485165 1_655
Cs6 N0 3.529589 1_655
Cs7 N17 3.032225 1_565
Cs7 N7 3.047030 1_555
Cs7 N2 3.218301 1_455
Cs7 N18 3.346558 1_555
Cs7 N9 3.491975 1_455
Cs7 N1 3.538169 1_455
Cs8 N15 3.076750 1_445
Cs8 N14 3.077176 1_555
Cs8 N8 3.275092 1_555
Cs8 N9 3.277533 1_445
Cs8 N16 3.396020 1_445
Cs8 N17 3.399371 1_555
Cs8 N19 3.566161 1_455
Cs8 N18 3.569618 1_545
Cs9 N13 3.075450 1_556
Cs9 N12 3.080567 1_655
Cs9 N10 3.272268 1_655
Cs9 N11 3.283044 1_555
Cs9 N19 3.393994 1_555
Cs9 N18 3.395131 1_655
Cs9 N17 3.566708 1_556
Cs9 N16 3.569327 1_655
Ir0 N1 1.899336 1_455
Ir0 N0 1.903500 1_555
Ir0 N7 1.905474 1_555
Ir0 N6 1.906917 1_455
Ir1 N2 1.899718 1_555
Ir1 N3 1.903815 1_665
Ir1 N5 1.907117 1_564
Ir1 N4 1.907420 1_654
Ir2 N19 1.891766 1_455
Ir2 N8 1.900968 1_555
Ir2 N10 1.906265 1_555
Ir2 N0 1.931809 1_555
Ir3 N18 1.892021 1_655
Ir3 N9 1.901065 1_555
Ir3 N11 1.907272 1_555
Ir3 N1 1.930619 1_555
Ir4 N16 1.894193 1_555
Ir4 N10 1.903157 1_555
Ir4 N9 1.904959 1_555
Ir4 N2 1.930364 1_555
Ir5 N17 1.894339 1_555
Ir5 N11 1.902251 1_554
Ir5 N8 1.905682 1_555
Ir5 N3 1.936378 1_555
Ir6 N15 1.876775 1_555
Ir6 N7 1.916322 1_556
Ir6 N12 1.936953 1_555
Ir6 N16 1.951615 1_555
Ir7 N14 1.874213 1_555
Ir7 N6 1.916079 1_555
Ir7 N13 1.945223 1_555
Ir7 N17 1.950471 1_555
Ir8 N12 1.875484 1_555
Ir8 N4 1.919148 1_555
Ir8 N18 1.942741 1_555
Ir8 N14 1.948444 1_565
Ir9 N13 1.874585 1_556
Ir9 N5 1.919452 1_555
Ir9 N15 1.941205 1_545
Ir9 N19 1.952482 1_555
