# generated using pymatgen
data_Rb4Ge(PS3)4
_symmetry_space_group_name_H-M   'P 1'
_cell_length_a   7.53986517
_cell_length_b   7.53986517
_cell_length_c   24.04366069
_cell_angle_alpha   80.98301621
_cell_angle_beta   80.98301621
_cell_angle_gamma   66.42797543
_symmetry_Int_Tables_number   1
_chemical_formula_structural   Rb4Ge(PS3)4
_chemical_formula_sum   'Rb8 Ge2 P8 S24'
_cell_volume   1230.63839052
_cell_formula_units_Z   2
loop_
 _symmetry_equiv_pos_site_id
 _symmetry_equiv_pos_as_xyz
  1  'x, y, z'
loop_
 _atom_site_type_symbol
 _atom_site_label
 _atom_site_symmetry_multiplicity
 _atom_site_fract_x
 _atom_site_fract_y
 _atom_site_fract_z
 _atom_site_occupancy
  Rb  Rb0  1  0.83152200  0.79190100  0.54807000  1
  Rb  Rb1  1  0.20809900  0.16847800  0.95193000  1
  Rb  Rb2  1  0.16847800  0.20809900  0.45193000  1
  Rb  Rb3  1  0.79190100  0.83152200  0.04807000  1
  Rb  Rb4  1  0.66642700  0.52137800  0.81430700  1
  Rb  Rb5  1  0.47862200  0.33357300  0.68569300  1
  Rb  Rb6  1  0.33357300  0.47862200  0.18569300  1
  Rb  Rb7  1  0.52137800  0.66642700  0.31430700  1
  Ge  Ge0  1  0.02556100  0.97443900  0.75000000  1
  Ge  Ge1  1  0.97443900  0.02556100  0.25000000  1
  P  P0  1  0.10934200  0.70928700  0.87166400  1
  P  P1  1  0.29071300  0.89065800  0.62833600  1
  P  P2  1  0.89065800  0.29071300  0.12833600  1
  P  P3  1  0.70928700  0.10934200  0.37166400  1
  P  P4  1  0.08211100  0.20894700  0.61626400  1
  P  P5  1  0.79105300  0.91788900  0.88373600  1
  P  P6  1  0.91788900  0.79105300  0.38373600  1
  P  P7  1  0.20894700  0.08211100  0.11626400  1
  S  S0  1  0.21457900  0.64876100  0.94535700  1
  S  S1  1  0.35123900  0.78542100  0.55464300  1
  S  S2  1  0.78542100  0.35123900  0.05464300  1
  S  S3  1  0.64876100  0.21457900  0.44535700  1
  S  S4  1  0.14365600  0.49263000  0.82745800  1
  S  S5  1  0.50737000  0.85634400  0.67254200  1
  S  S6  1  0.85634400  0.50737000  0.17254200  1
  S  S7  1  0.49263000  0.14365600  0.32745800  1
  S  S8  1  0.09143700  0.77797800  0.68167200  1
  S  S9  1  0.22202200  0.90856300  0.81832800  1
  S  S10  1  0.90856300  0.22202200  0.31832800  1
  S  S11  1  0.77797800  0.09143700  0.18167200  1
  S  S12  1  0.23439000  0.36475300  0.57909100  1
  S  S13  1  0.63524700  0.76561000  0.92090900  1
  S  S14  1  0.76561000  0.63524700  0.42090900  1
  S  S15  1  0.36475300  0.23439000  0.07909100  1
  S  S16  1  0.84965800  0.23922300  0.58109600  1
  S  S17  1  0.76077700  0.15034200  0.91890400  1
  S  S18  1  0.15034200  0.76077700  0.41890400  1
  S  S19  1  0.23922300  0.84965800  0.08109600  1
  S  S20  1  0.00871300  0.26794000  0.70571900  1
  S  S21  1  0.73206000  0.99128700  0.79428100  1
  S  S22  1  0.99128700  0.73206000  0.29428100  1
  S  S23  1  0.26794000  0.00871300  0.20571900  1
loop_
_geom_bond_atom_site_label_1
_geom_bond_atom_site_label_2
_geom_bond_distance
_geom_bond_site_symmetry_2
Rb0 S12 3.505488 1_655
Rb0 S5 3.518438 1_555
Rb0 S18 3.593840 1_655
Rb0 S14 3.614914 1_555
Rb0 S1 3.619482 1_555
Rb0 S3 3.638904 1_565
Rb0 S16 3.642397 1_565
Rb1 S13 3.505488 1_545
Rb1 S4 3.518438 1_555
Rb1 S19 3.593840 1_546
Rb1 S15 3.614914 1_556
Rb1 S0 3.619482 1_555
Rb1 S2 3.638904 1_456
Rb1 S17 3.642397 1_455
Rb2 S14 3.505488 1_455
Rb2 S7 3.518438 1_555
Rb2 S16 3.593840 1_455
Rb2 S12 3.614914 1_555
Rb2 S3 3.619482 1_555
Rb2 S1 3.638904 1_545
Rb2 S18 3.642397 1_545
Rb3 S15 3.505488 1_565
Rb3 S6 3.518438 1_555
Rb3 S17 3.593840 1_564
Rb3 S13 3.614914 1_554
Rb3 S2 3.619482 1_555
Rb3 S0 3.638904 1_654
Rb3 S19 3.642397 1_655
Rb4 S13 3.310611 1_555
Rb4 S17 3.379475 1_555
Rb4 S9 3.452919 1_555
Rb4 S20 3.554712 1_655
Rb4 S4 3.578500 1_655
Rb4 S21 3.717906 1_555
Rb5 S12 3.310611 1_555
Rb5 S16 3.379475 1_555
Rb5 S8 3.452919 1_555
Rb5 S21 3.554712 1_545
Rb5 S5 3.578500 1_545
Rb5 S20 3.717906 1_555
Rb6 S15 3.310611 1_555
Rb6 S19 3.379475 1_555
Rb6 S11 3.452919 1_555
Rb6 S22 3.554712 1_455
Rb6 S6 3.578500 1_455
Rb6 S23 3.717906 1_555
Rb7 S14 3.310611 1_555
Rb7 S18 3.379475 1_555
Rb7 S10 3.452919 1_555
Rb7 S23 3.554712 1_565
Rb7 S7 3.578500 1_565
Rb7 S22 3.717906 1_555
Ge0 S9 2.249104 1_555
Ge0 S8 2.249104 1_555
Ge0 S21 2.264043 1_455
Ge0 S20 2.264043 1_565
Ge1 S11 2.249104 1_555
Ge1 S10 2.249104 1_555
Ge1 S22 2.264043 1_545
Ge1 S23 2.264043 1_655
P0 S0 1.968484 1_555
P0 S4 1.996294 1_555
P0 S9 2.167804 1_555
P0 P5 2.285432 1_455
P1 S1 1.968484 1_555
P1 S5 1.996294 1_555
P1 S8 2.167804 1_555
P1 P4 2.285432 1_565
P2 S2 1.968484 1_555
P2 S6 1.996294 1_555
P2 S11 2.167804 1_555
P2 P7 2.285432 1_655
P3 S3 1.968484 1_555
P3 S7 1.996294 1_555
P3 S10 2.167804 1_555
P3 P6 2.285432 1_545
P4 S16 1.980648 1_455
P4 S12 1.981203 1_555
P4 S20 2.204554 1_555
P5 S17 1.980648 1_565
P5 S13 1.981203 1_555
P5 S21 2.204554 1_555
P6 S18 1.980648 1_655
P6 S14 1.981203 1_555
P6 S22 2.204554 1_555
P7 S19 1.980648 1_545
P7 S15 1.981203 1_555
P7 S23 2.204554 1_555
