# generated using pymatgen
data_SrTiFeBiO6
_symmetry_space_group_name_H-M   'P 1'
_cell_length_a   7.98600274
_cell_length_b   9.75921184
_cell_length_c   7.98822598
_cell_angle_alpha   114.05001289
_cell_angle_beta   89.70940140
_cell_angle_gamma   114.03176311
_symmetry_Int_Tables_number   1
_chemical_formula_structural   SrTiFeBiO6
_chemical_formula_sum   'Sr4 Ti4 Fe4 Bi4 O24'
_cell_volume   509.49913648
_cell_formula_units_Z   4
loop_
 _symmetry_equiv_pos_site_id
 _symmetry_equiv_pos_as_xyz
  1  'x, y, z'
loop_
 _atom_site_type_symbol
 _atom_site_label
 _atom_site_symmetry_multiplicity
 _atom_site_fract_x
 _atom_site_fract_y
 _atom_site_fract_z
 _atom_site_occupancy
  Sr  Sr0  1  0.73939100  0.49291200  0.73943100  1
  Sr  Sr1  1  0.23942500  0.49292500  0.23944700  1
  Sr  Sr2  1  0.48941100  0.99294800  0.98942400  1
  Sr  Sr3  1  0.98942300  0.99295000  0.48944100  1
  Ti  Ti0  1  0.61547400  0.74369000  0.11549100  1
  Ti  Ti1  1  0.11548900  0.74369400  0.61547900  1
  Ti  Ti2  1  0.36542200  0.24366700  0.36550800  1
  Ti  Ti3  1  0.86542300  0.24366700  0.86549900  1
  Fe  Fe0  1  0.85235500  0.23495100  0.35244700  1
  Fe  Fe1  1  0.10232100  0.73484800  0.10226900  1
  Fe  Fe2  1  0.35237900  0.23497200  0.85245000  1
  Fe  Fe3  1  0.60242100  0.73490100  0.60235000  1
  Bi  Bi0  1  0.27754000  0.51849700  0.77749100  1
  Bi  Bi1  1  0.77753400  0.51849500  0.27749100  1
  Bi  Bi2  1  0.02746500  0.01849800  0.02760800  1
  Bi  Bi3  1  0.52744700  0.01849500  0.52760100  1
  O  O0  1  0.81184000  0.24021600  0.60086900  1
  O  O1  1  0.31187900  0.24025500  0.10090000  1
  O  O2  1  0.56183300  0.74028100  0.85086600  1
  O  O3  1  0.06183000  0.74027900  0.35086500  1
  O  O4  1  0.48075100  0.48052800  0.93223500  1
  O  O5  1  0.98075100  0.48053000  0.43223300  1
  O  O6  1  0.23077000  0.98051100  0.18217400  1
  O  O7  1  0.73077500  0.98051500  0.68218100  1
  O  O8  1  0.82652800  0.69177000  0.58631800  1
  O  O9  1  0.32652200  0.69176500  0.08631400  1
  O  O10  1  0.57654600  0.19179000  0.83634500  1
  O  O11  1  0.07654600  0.19178800  0.33634200  1
  O  O12  1  0.93673000  0.47448000  0.99294500  1
  O  O13  1  0.43675100  0.47449000  0.49295700  1
  O  O14  1  0.68681500  0.97443600  0.24293000  1
  O  O15  1  0.18686100  0.97445100  0.74294100  1
  O  O16  1  0.85236300  0.75614200  0.07737200  1
  O  O17  1  0.35236900  0.75614200  0.57737800  1
  O  O18  1  0.60236900  0.25606000  0.32738100  1
  O  O19  1  0.10237200  0.25606200  0.82738300  1
  O  O20  1  0.10584800  0.69940200  0.82427900  1
  O  O21  1  0.60589300  0.69941500  0.32433000  1
  O  O22  1  0.85583300  0.19948600  0.07429000  1
  O  O23  1  0.35590300  0.19950400  0.57434700  1
loop_
_geom_bond_atom_site_label_1
_geom_bond_atom_site_label_2
_geom_bond_distance
_geom_bond_site_symmetry_2
Fe0 O5 1.990378 1_555
Fe0 O11 1.991795 1_655
Fe0 O0 1.992308 1_555
Fe0 O22 2.106689 1_555
Fe0 O14 2.106710 1_545
Fe0 O18 2.107309 1_555
Fe1 O6 1.990938 1_555
Fe1 O9 1.991475 1_555
Fe1 O3 1.993136 1_555
Fe1 O20 2.105449 1_554
Fe1 O12 2.105758 1_454
Fe1 O16 2.107843 1_455
Fe2 O4 1.990180 1_555
Fe2 O10 1.991709 1_555
Fe2 O1 1.992453 1_556
Fe2 O23 2.106283 1_555
Fe2 O15 2.106737 1_545
Fe2 O19 2.107379 1_555
Fe3 O7 1.990604 1_555
Fe3 O8 1.990978 1_555
Fe3 O2 1.992793 1_555
Fe3 O21 2.105551 1_555
Fe3 O13 2.106133 1_555
Fe3 O17 2.108398 1_555
Bi0 O2 2.271547 1_555
Bi0 O9 2.273581 1_556
Bi0 O4 2.276492 1_555
Bi0 O20 2.562278 1_555
Bi0 O19 2.565827 1_555
Bi0 O13 2.566522 1_555
Bi1 O3 2.271562 1_655
Bi1 O8 2.273610 1_555
Bi1 O5 2.276493 1_555
Bi1 O21 2.562014 1_555
Bi1 O18 2.565815 1_555
Bi1 O12 2.566534 1_554
Bi2 O1 2.272106 1_555
Bi2 O11 2.272975 1_555
Bi2 O6 2.276326 1_545
Bi2 O22 2.562691 1_455
Bi2 O16 2.564535 1_445
Bi2 O15 2.568217 1_544
Bi3 O0 2.271872 1_555
Bi3 O10 2.273031 1_555
Bi3 O7 2.276492 1_545
Bi3 O23 2.562222 1_555
Bi3 O17 2.564542 1_545
Bi3 O14 2.568119 1_545
O0 Ti3 2.142972 1_555
O0 Sr0 2.563671 1_555
O0 Sr3 3.106528 1_545
O1 Ti2 2.142914 1_555
O1 Sr1 2.563468 1_555
O1 Sr2 3.106540 1_544
O2 Ti0 2.143217 1_556
O2 Sr2 2.563289 1_555
O2 Sr0 3.107223 1_555
O3 Ti1 2.143131 1_555
O3 Sr3 2.563255 1_455
O3 Sr1 3.107331 1_555
O4 Ti0 2.144178 1_556
O4 Sr0 2.563030 1_555
O4 Sr1 3.106653 1_556
O5 Ti1 2.144179 1_655
O5 Sr1 2.563150 1_655
O5 Sr0 3.106743 1_555
O6 Ti2 2.144250 1_565
O6 Sr2 2.562751 1_554
O6 Sr3 3.107085 1_455
O7 Ti3 2.144196 1_565
O7 Sr3 2.562747 1_555
O7 Sr2 3.107025 1_555
O8 Ti1 2.143145 1_655
O8 Sr0 2.563717 1_555
O8 Sr3 3.108054 1_555
O9 Ti0 2.143074 1_555
O9 Sr1 2.563707 1_555
O9 Sr2 3.108143 1_554
O10 Ti3 2.142599 1_555
O10 Sr2 2.563373 1_545
O10 Sr0 3.107731 1_555
O11 Ti2 2.142588 1_555
O11 Sr3 2.563469 1_445
O11 Sr1 3.107772 1_555
O12 Ti3 1.877950 1_555
O12 Sr0 2.679048 1_555
O12 Sr1 3.026256 1_656
O13 Ti2 1.878002 1_555
O13 Sr1 2.678977 1_555
O13 Sr0 3.025892 1_555
O14 Ti0 1.877338 1_555
O14 Sr2 2.679800 1_554
O14 Sr3 3.025403 1_555
O15 Ti1 1.877395 1_555
O15 Sr3 2.679852 1_455
O15 Sr2 3.024990 1_555
O16 Ti0 1.877087 1_555
O16 Sr0 2.680565 1_554
O16 Sr3 3.024913 1_555
O17 Ti1 1.877001 1_555
O17 Sr1 2.680474 1_555
O17 Sr2 3.024759 1_555
O18 Ti2 1.877714 1_555
O18 Sr2 2.680176 1_544
O18 Sr0 3.024852 1_555
O19 Ti3 1.877708 1_455
O19 Sr3 2.680106 1_445
O19 Sr1 3.024972 1_556
O20 Ti1 1.879903 1_555
O20 Sr0 2.681108 1_455
O20 Sr2 3.023812 1_555
O21 Ti0 1.880141 1_555
O21 Sr1 2.681164 1_555
O21 Sr3 3.023592 1_555
O22 Ti3 1.879234 1_554
O22 Sr2 2.680977 1_544
O22 Sr1 3.023590 1_655
O23 Ti2 1.879541 1_555
O23 Sr3 2.681358 1_445
O23 Sr0 3.022927 1_555
