# generated using pymatgen
data_Li9Mn2Co5O16
_symmetry_space_group_name_H-M   'P 1'
_cell_length_a   2.96651800
_cell_length_b   6.45753325
_cell_length_c   15.41507327
_cell_angle_alpha   88.32614866
_cell_angle_beta   86.99365254
_cell_angle_gamma   76.96147744
_symmetry_Int_Tables_number   1
_chemical_formula_structural   Li9Mn2Co5O16
_chemical_formula_sum   'Li9 Mn2 Co5 O16'
_cell_volume   287.24219524
_cell_formula_units_Z   1
loop_
 _symmetry_equiv_pos_site_id
 _symmetry_equiv_pos_as_xyz
  1  'x, y, z'
loop_
 _atom_site_type_symbol
 _atom_site_label
 _atom_site_symmetry_multiplicity
 _atom_site_fract_x
 _atom_site_fract_y
 _atom_site_fract_z
 _atom_site_occupancy
  Li  Li0  1  0.92450400  0.12720300  0.80642900  1
  Li  Li1  1  0.17989700  0.62066200  0.56077800  1
  Li  Li2  1  0.44010500  0.12208200  0.31396600  1
  Li  Li3  1  0.55511100  0.89130100  0.68519600  1
  Li  Li4  1  0.82285100  0.36976400  0.43671600  1
  Li  Li5  1  0.06428200  0.87875400  0.18860000  1
  Li  Li6  1  0.69369300  0.61922700  0.06413400  1
  Li  Li7  1  0.31931000  0.37469100  0.93961100  1
  Li  Li8  1  0.89846900  0.23937700  0.62880400  1
  Mn  Mn0  1  0.99050000  0.00160500  0.00171000  1
  Mn  Mn1  1  0.25637700  0.48712500  0.74514600  1
  Co  Co0  1  0.50484000  0.00907900  0.50444200  1
  Co  Co1  1  0.74405900  0.50355400  0.25072700  1
  Co  Co2  1  0.12283500  0.74953300  0.37621400  1
  Co  Co3  1  0.38141400  0.25382600  0.12732300  1
  Co  Co4  1  0.60957800  0.75764800  0.87255000  1
  O  O0  1  0.42097100  0.05617900  0.91005000  1
  O  O1  1  0.74403200  0.55486200  0.66712400  1
  O  O2  1  0.95445400  0.03900400  0.40936600  1
  O  O3  1  0.08999500  0.79484400  0.78548900  1
  O  O4  1  0.36171700  0.28024100  0.52402600  1
  O  O5  1  0.56593100  0.79747100  0.28455200  1
  O  O6  1  0.24318500  0.54720700  0.15956100  1
  O  O7  1  0.81769300  0.30281400  0.03624900  1
  O  O8  1  0.40293700  0.20481100  0.72049000  1
  O  O9  1  0.67566400  0.71151300  0.46611200  1
  O  O10  1  0.93741400  0.20595600  0.21756900  1
  O  O11  1  0.07187100  0.93626900  0.58445500  1
  O  O12  1  0.25800500  0.45703300  0.34233300  1
  O  O13  1  0.55193300  0.95471600  0.09510700  1
  O  O14  1  0.14419500  0.69990200  0.96318400  1
  O  O15  1  0.75218000  0.45174800  0.83198600  1
loop_
_geom_bond_atom_site_label_1
_geom_bond_atom_site_label_2
_geom_bond_distance
_geom_bond_site_symmetry_2
Li0 O8 2.026185 1_655
Li0 O8 2.055827 1_555
Li0 O15 2.086252 1_555
Li0 O3 2.121296 1_645
Li0 O0 2.197739 1_655
Li0 O0 2.238103 1_555
Li1 O11 2.031261 1_555
Li1 O9 2.119940 1_455
Li1 O1 2.127128 1_455
Li1 O9 2.179642 1_555
Li1 O4 2.224865 1_555
Li1 O1 2.365340 1_555
Li2 O5 2.103246 1_545
Li2 O10 2.132190 1_455
Li2 O2 2.144420 1_555
Li2 O2 2.146271 1_455
Li2 O12 2.159787 1_555
Li2 O10 2.182076 1_555
Li3 O8 2.055385 1_565
Li3 O11 2.137824 1_555
Li3 O1 2.140405 1_555
Li3 O11 2.184202 1_655
Li3 O3 2.188541 1_555
Li3 O3 2.247448 1_655
Li4 O4 2.033516 1_555
Li4 O12 2.045512 1_655
Li4 O4 2.112876 1_655
Li4 O2 2.133378 1_555
Li4 O9 2.206600 1_555
Li4 O12 2.241393 1_555
Li5 O13 2.114379 1_555
Li5 O13 2.116558 1_455
Li5 O10 2.117585 1_465
Li5 O5 2.123897 1_555
Li5 O6 2.141074 1_555
Li5 O5 2.173532 1_455
Li6 O7 2.047079 1_555
Li6 O6 2.049516 1_555
Li6 O14 2.127833 1_654
Li6 O13 2.174056 1_555
Li6 O6 2.215133 1_655
Li6 O14 2.277227 1_554
Li7 O0 2.071108 1_555
Li7 O14 2.084393 1_555
Li7 O7 2.121657 1_556
Li7 O15 2.160004 1_555
Li7 O7 2.165092 1_456
Li7 O15 2.386907 1_455
Li8 O8 2.029773 1_555
Li8 O11 2.037179 1_645
Li8 O1 2.080868 1_555
Li8 O8 2.083178 1_655
Li8 O4 2.114899 1_655
Li8 O4 2.295435 1_555
Mn0 O0 1.932886 1_654
Mn0 O13 1.952672 1_545
Mn0 O7 1.977755 1_555
Mn0 O14 1.998666 1_644
Mn0 O0 2.219851 1_554
Mn0 O13 2.221909 1_645
Mn1 O8 1.822776 1_555
Mn1 O1 1.950101 1_555
Mn1 O1 1.951647 1_455
Mn1 O15 2.001898 1_455
Mn1 O15 2.011091 1_555
Mn1 O3 2.043626 1_555
Co0 O4 1.737676 1_555
Co0 O11 1.861316 1_545
Co0 O2 1.964442 1_555
Co0 O9 1.973270 1_545
Co0 O11 2.097315 1_645
Co0 O2 2.223339 1_455
Co1 O5 1.931270 1_555
Co1 O10 1.952599 1_555
Co1 O12 2.029887 1_555
Co1 O6 2.047855 1_655
Co1 O6 2.066172 1_555
Co1 O12 2.098378 1_655
Co2 O2 1.900674 1_465
Co2 O9 1.916935 1_455
Co2 O12 1.922279 1_555
Co2 O5 1.945082 1_555
Co2 O9 2.169570 1_555
Co2 O5 2.193216 1_455
Co3 O6 1.920261 1_555
Co3 O7 1.927245 1_555
Co3 O10 1.931861 1_455
Co3 O13 1.955013 1_545
Co3 O10 2.176424 1_555
Co3 O7 2.202092 1_455
Co4 O3 1.955734 1_655
Co4 O0 1.976870 1_565
Co4 O14 1.999130 1_555
Co4 O15 2.034542 1_555
Co4 O3 2.065348 1_555
Co4 O14 2.131057 1_655
