# generated using pymatgen
data_Ba2SnSe4
_symmetry_space_group_name_H-M   'P 1'
_cell_length_a   9.40761517
_cell_length_b   8.64734620
_cell_length_c   12.57846276
_cell_angle_alpha   65.86772712
_cell_angle_beta   90.00000000
_cell_angle_gamma   90.00000000
_symmetry_Int_Tables_number   1
_chemical_formula_structural   Ba2SnSe4
_chemical_formula_sum   'Ba8 Sn4 Se16'
_cell_volume   933.83971925
_cell_formula_units_Z   4
loop_
 _symmetry_equiv_pos_site_id
 _symmetry_equiv_pos_as_xyz
  1  'x, y, z'
loop_
 _atom_site_type_symbol
 _atom_site_label
 _atom_site_symmetry_multiplicity
 _atom_site_fract_x
 _atom_site_fract_y
 _atom_site_fract_z
 _atom_site_occupancy
  Ba  Ba0  1  0.88471311  0.90592152  0.84346751  1
  Ba  Ba1  1  0.38471311  0.09407848  0.65653249  1
  Ba  Ba2  1  0.11528689  0.09407848  0.15653249  1
  Ba  Ba3  1  0.61528689  0.90592152  0.34346751  1
  Ba  Ba4  1  0.84810368  0.53438150  0.65957650  1
  Ba  Ba5  1  0.34810368  0.46561850  0.84042350  1
  Ba  Ba6  1  0.15189632  0.46561850  0.34042350  1
  Ba  Ba7  1  0.65189632  0.53438150  0.15957650  1
  Sn  Sn0  1  0.81351226  0.19522665  0.49345301  1
  Sn  Sn1  1  0.31351226  0.80477335  0.00654699  1
  Sn  Sn2  1  0.18648774  0.80477335  0.50654699  1
  Sn  Sn3  1  0.68648774  0.19522665  0.99345301  1
  Se  Se0  1  0.88191035  0.23937981  0.28824351  1
  Se  Se1  1  0.38191035  0.76062019  0.21175649  1
  Se  Se2  1  0.11808965  0.76062019  0.71175649  1
  Se  Se3  1  0.61808965  0.23937981  0.78824351  1
  Se  Se4  1  0.02005416  0.23695833  0.60941565  1
  Se  Se5  1  0.52005416  0.76304167  0.89058435  1
  Se  Se6  1  0.97994584  0.76304167  0.39058435  1
  Se  Se7  1  0.47994584  0.23695833  0.10941565  1
  Se  Se8  1  0.69107425  0.91101216  0.60602349  1
  Se  Se9  1  0.19107425  0.08898784  0.89397651  1
  Se  Se10  1  0.30892575  0.08898784  0.39397651  1
  Se  Se11  1  0.80892575  0.91101216  0.10602349  1
  Se  Se12  1  0.63020592  0.42252633  0.45837956  1
  Se  Se13  1  0.13020592  0.57747367  0.04162044  1
  Se  Se14  1  0.36979408  0.57747367  0.54162044  1
  Se  Se15  1  0.86979408  0.42252633  0.95837956  1
loop_
_geom_bond_atom_site_label_1
_geom_bond_atom_site_label_2
_geom_bond_distance
_geom_bond_site_symmetry_2
Ba0 Se2 3.293306 1_655
Ba0 Se11 3.396468 1_556
Ba0 Se4 3.404657 1_665
Ba0 Se9 3.469682 1_665
Ba0 Se8 3.483276 1_555
Ba0 Se5 3.612181 1_555
Ba0 Se3 3.667554 1_565
Ba0 Se13 3.718119 1_656
Ba0 Se15 3.826434 1_555
Ba1 Se3 3.293306 1_555
Ba1 Se10 3.396468 1_555
Ba1 Se5 3.404657 1_545
Ba1 Se8 3.469682 1_545
Ba1 Se9 3.483276 1_555
Ba1 Se4 3.612181 1_555
Ba1 Se2 3.667554 1_545
Ba1 Se12 3.718119 1_555
Ba1 Se14 3.826434 1_555
Ba2 Se0 3.293306 1_455
Ba2 Se9 3.396468 1_554
Ba2 Se6 3.404657 1_445
Ba2 Se11 3.469682 1_445
Ba2 Se10 3.483276 1_555
Ba2 Se7 3.612181 1_555
Ba2 Se1 3.667554 1_545
Ba2 Se15 3.718119 1_454
Ba2 Se13 3.826434 1_555
Ba3 Se1 3.293306 1_555
Ba3 Se8 3.396468 1_555
Ba3 Se7 3.404657 1_565
Ba3 Se10 3.469682 1_565
Ba3 Se11 3.483276 1_555
Ba3 Se6 3.612181 1_555
Ba3 Se0 3.667554 1_565
Ba3 Se14 3.718119 1_555
Ba3 Se12 3.826434 1_555
Ba4 Se3 3.230065 1_555
Ba4 Se4 3.310067 1_655
Ba4 Se6 3.380196 1_555
Ba4 Se8 3.383681 1_555
Ba4 Se2 3.429186 1_655
Ba4 Se15 3.482928 1_555
Ba4 Se12 3.680209 1_555
Ba5 Se2 3.230065 1_555
Ba5 Se5 3.310067 1_555
Ba5 Se7 3.380196 1_556
Ba5 Se9 3.383681 1_555
Ba5 Se3 3.429186 1_555
Ba5 Se14 3.482928 1_555
Ba5 Se13 3.680209 1_556
Ba6 Se1 3.230065 1_555
Ba6 Se6 3.310067 1_455
Ba6 Se4 3.380196 1_555
Ba6 Se10 3.383681 1_555
Ba6 Se0 3.429186 1_455
Ba6 Se13 3.482928 1_555
Ba6 Se14 3.680209 1_555
Ba7 Se0 3.230065 1_555
Ba7 Se7 3.310067 1_555
Ba7 Se5 3.380196 1_554
Ba7 Se11 3.383681 1_555
Ba7 Se1 3.429186 1_555
Ba7 Se12 3.482928 1_555
Ba7 Se15 3.680209 1_554
Se0 Sn0 2.533113 1_555
Se1 Sn1 2.533113 1_555
Se2 Sn2 2.533113 1_555
Se3 Sn3 2.533113 1_555
Se4 Sn0 2.542391 1_455
Se5 Sn1 2.542391 1_556
Se6 Sn2 2.542391 1_655
Se7 Sn3 2.542391 1_554
Se8 Sn0 2.554689 1_565
Se9 Sn1 2.554689 1_546
Se10 Sn2 2.554689 1_545
Se11 Sn3 2.554689 1_564
Se12 Sn0 2.514506 1_555
Se13 Sn1 2.514506 1_555
Se14 Sn2 2.514506 1_555
Se15 Sn3 2.514506 1_555
