# generated using pymatgen
data_CoH8C4(NO2)3
_symmetry_space_group_name_H-M   'P 1'
_cell_length_a   8.52757500
_cell_length_b   8.84481900
_cell_length_c   12.02564000
_cell_angle_alpha   90.00000000
_cell_angle_beta   90.00000000
_cell_angle_gamma   90.00000000
_symmetry_Int_Tables_number   1
_chemical_formula_structural   CoH8C4(NO2)3
_chemical_formula_sum   'Co4 H32 C16 N12 O24'
_cell_volume   907.03218195
_cell_formula_units_Z   4
loop_
 _symmetry_equiv_pos_site_id
 _symmetry_equiv_pos_as_xyz
  1  'x, y, z'
loop_
 _atom_site_type_symbol
 _atom_site_label
 _atom_site_symmetry_multiplicity
 _atom_site_fract_x
 _atom_site_fract_y
 _atom_site_fract_z
 _atom_site_occupancy
  Co  Co0  1  0.24978800  0.25079000  0.75037900  1
  Co  Co1  1  0.25021200  0.24921000  0.25037900  1
  Co  Co2  1  0.75021200  0.75079000  0.25037900  1
  Co  Co3  1  0.74978800  0.74921000  0.75037900  1
  H  H0  1  0.90748500  0.07342200  0.78567900  1
  H  H1  1  0.59723300  0.07244800  0.21362500  1
  H  H2  1  0.90276700  0.42755200  0.71362500  1
  H  H3  1  0.59251500  0.42657800  0.28567900  1
  H  H4  1  0.09723300  0.92755200  0.21362500  1
  H  H5  1  0.40748500  0.92657800  0.78567900  1
  H  H6  1  0.09251500  0.57342200  0.28567900  1
  H  H7  1  0.40276700  0.57244800  0.71362500  1
  H  H8  1  0.17039700  0.93114500  0.91867400  1
  H  H9  1  0.33081200  0.93240500  0.08076300  1
  H  H10  1  0.16918800  0.56759500  0.58076300  1
  H  H11  1  0.32960300  0.56885500  0.41867400  1
  H  H12  1  0.83081200  0.06759500  0.08076300  1
  H  H13  1  0.67039700  0.06885500  0.91867400  1
  H  H14  1  0.82960300  0.43114500  0.41867400  1
  H  H15  1  0.66918800  0.43240500  0.58076300  1
  H  H16  1  0.08568600  0.75275600  0.87768700  1
  H  H17  1  0.41493200  0.75521300  0.12334700  1
  H  H18  1  0.08506800  0.74478700  0.62334700  1
  H  H19  1  0.41431400  0.74724400  0.37768700  1
  H  H20  1  0.91493200  0.24478700  0.12334700  1
  H  H21  1  0.58568600  0.24724400  0.87768700  1
  H  H22  1  0.91431400  0.25275600  0.37768700  1
  H  H23  1  0.58506800  0.25521300  0.62334700  1
  H  H24  1  0.24757800  0.32619000  0.99884400  1
  H  H25  1  0.25242200  0.17381000  0.49884400  1
  H  H26  1  0.74757800  0.67381000  0.99884400  1
  H  H27  1  0.75242200  0.82619000  0.49884400  1
  H  H28  1  0.32657900  0.54176700  0.05153600  1
  H  H29  1  0.17342100  0.95823300  0.55153600  1
  H  H30  1  0.82657900  0.45823300  0.05153600  1
  H  H31  1  0.67342100  0.04176700  0.55153600  1
  C  C0  1  0.24934900  0.74150100  0.00074400  1
  C  C1  1  0.25065100  0.75849900  0.50074400  1
  C  C2  1  0.74934900  0.25849900  0.00074400  1
  C  C3  1  0.75065100  0.24150100  0.50074400  1
  C  C4  1  0.98047200  0.01430700  0.72310200  1
  C  C5  1  0.51995500  0.01580300  0.27524100  1
  C  C6  1  0.98004500  0.48419700  0.77524100  1
  C  C7  1  0.51952800  0.48569300  0.22310200  1
  C  C8  1  0.01995500  0.98419700  0.27524100  1
  C  C9  1  0.48047200  0.98569300  0.72310200  1
  C  C10  1  0.01952800  0.51430700  0.22310200  1
  C  C11  1  0.48004500  0.51580300  0.77524100  1
  C  C12  1  0.25012700  0.20185500  0.99954800  1
  C  C13  1  0.24987300  0.29814500  0.49954800  1
  C  C14  1  0.75012700  0.79814500  0.99954800  1
  C  C15  1  0.74987300  0.70185500  0.49954800  1
  N  N0  1  0.23516600  0.58911600  0.00648600  1
  N  N1  1  0.26483400  0.91088400  0.50648600  1
  N  N2  1  0.73516600  0.41088400  0.00648600  1
  N  N3  1  0.76483400  0.08911600  0.50648600  1
  N  N4  1  0.16061500  0.81552600  0.92647300  1
  N  N5  1  0.34189700  0.81678200  0.07230400  1
  N  N6  1  0.15810300  0.68321800  0.57230400  1
  N  N7  1  0.33938500  0.68447400  0.42647300  1
  N  N8  1  0.84189700  0.18321800  0.07230400  1
  N  N9  1  0.66061500  0.18447400  0.92647300  1
  N  N10  1  0.83938500  0.31552600  0.42647300  1
  N  N11  1  0.65810300  0.31678200  0.57230400  1
  O  O0  1  0.10233600  0.08049300  0.68648500  1
  O  O1  1  0.39931800  0.08493600  0.30848900  1
  O  O2  1  0.10068200  0.41506400  0.80848900  1
  O  O3  1  0.39766400  0.41950700  0.18648500  1
  O  O4  1  0.89931800  0.91506400  0.30848900  1
  O  O5  1  0.60233600  0.91950700  0.68648500  1
  O  O6  1  0.89766400  0.58049300  0.18648500  1
  O  O7  1  0.60068200  0.58493600  0.80848900  1
  O  O8  1  0.93845800  0.88291300  0.69276000  1
  O  O9  1  0.55913900  0.88342800  0.30667600  1
  O  O10  1  0.94086100  0.61657200  0.80667600  1
  O  O11  1  0.56154200  0.61708700  0.19276000  1
  O  O12  1  0.05913900  0.11657200  0.30667600  1
  O  O13  1  0.43845800  0.11708700  0.69276000  1
  O  O14  1  0.06154200  0.38291300  0.19276000  1
  O  O15  1  0.44086100  0.38342800  0.80667600  1
  O  O16  1  0.24326500  0.13346300  0.90609700  1
  O  O17  1  0.25856400  0.13386000  0.09266100  1
  O  O18  1  0.24143600  0.36614000  0.59266100  1
  O  O19  1  0.25673500  0.36653700  0.40609700  1
  O  O20  1  0.75856400  0.86614000  0.09266100  1
  O  O21  1  0.74326500  0.86653700  0.90609700  1
  O  O22  1  0.75673500  0.63346300  0.40609700  1
  O  O23  1  0.74143600  0.63386000  0.59266100  1
loop_
_geom_bond_atom_site_label_1
_geom_bond_atom_site_label_2
_geom_bond_distance
_geom_bond_site_symmetry_2
Co0 O2 2.053342 1_555
Co0 O0 2.107187 1_555
Co0 O13 2.113566 1_555
Co0 O15 2.118856 1_555
Co0 O16 2.141647 1_555
Co0 O18 2.154832 1_555
Co1 O1 2.053342 1_555
Co1 O3 2.107187 1_555
Co1 O14 2.113566 1_555
Co1 O12 2.118856 1_555
Co1 O19 2.141647 1_555
Co1 O17 2.154832 1_555
Co2 O4 2.053342 1_555
Co2 O6 2.107187 1_555
Co2 O11 2.113566 1_555
Co2 O9 2.118856 1_555
Co2 O22 2.141647 1_555
Co2 O20 2.154832 1_555
Co3 O7 2.053342 1_555
Co3 O5 2.107187 1_555
Co3 O8 2.113566 1_555
Co3 O10 2.118856 1_555
Co3 O21 2.141647 1_555
Co3 O23 2.154832 1_555
H8 N4 1.030303 1_555
H9 N5 1.032050 1_555
H10 N6 1.032050 1_555
H11 N7 1.030303 1_555
H12 N8 1.032050 1_555
H13 N9 1.030303 1_555
H14 N10 1.030303 1_555
H15 N11 1.032050 1_555
H16 N4 1.029905 1_555
H17 N5 1.030159 1_555
H18 N6 1.030159 1_555
H19 N7 1.029905 1_555
H20 N8 1.030159 1_555
H21 N9 1.029905 1_555
H22 N10 1.029905 1_555
H23 N11 1.030159 1_555
H28 N0 1.037572 1_555
H29 N1 1.037572 1_555
H30 N2 1.037572 1_555
H31 N3 1.037572 1_555
C0 N4 1.341262 1_554
C0 N5 1.344157 1_555
C0 N0 1.354994 1_555
C1 N7 1.341262 1_555
C1 N6 1.344157 1_555
C1 N1 1.354994 1_555
C2 N9 1.341262 1_554
C2 N8 1.344157 1_555
C2 N2 1.354994 1_555
C3 N10 1.341262 1_555
C3 N11 1.344157 1_555
C3 N3 1.354994 1_555
C4 H0 1.107731 1_555
C4 O8 1.269688 1_545
C4 O0 1.271434 1_655
C5 H1 1.111003 1_555
C5 O1 1.261771 1_555
C5 O9 1.274914 1_545
C6 H2 1.111003 1_555
C6 O2 1.261771 1_655
C6 O10 1.274914 1_555
C7 H3 1.107731 1_555
C7 O11 1.269688 1_555
C7 O3 1.271434 1_555
C8 H4 1.111003 1_555
C8 O4 1.261771 1_455
C8 O12 1.274914 1_565
C9 H5 1.107731 1_555
C9 O13 1.269688 1_565
C9 O5 1.271434 1_555
C10 H6 1.107731 1_555
C10 O14 1.269688 1_555
C10 O6 1.271434 1_455
C11 H7 1.111003 1_555
C11 O7 1.261771 1_555
C11 O15 1.274914 1_555
C12 H24 1.099968 1_555
C12 O17 1.273062 1_556
C12 O16 1.277611 1_555
C13 H25 1.099968 1_555
C13 O18 1.273062 1_555
C13 O19 1.277611 1_555
C14 H26 1.099968 1_555
C14 O20 1.273062 1_556
C14 O21 1.277611 1_555
C15 H27 1.099968 1_555
C15 O23 1.273062 1_555
C15 O22 1.277611 1_555
