# generated using pymatgen
data_Na3InN2
_symmetry_space_group_name_H-M   'P 1'
_cell_length_a   9.83807300
_cell_length_b   11.36002785
_cell_length_c   11.36002798
_cell_angle_alpha   89.99999878
_cell_angle_beta   125.26438836
_cell_angle_gamma   54.73561118
_symmetry_Int_Tables_number   1
_chemical_formula_structural   Na3InN2
_chemical_formula_sum   'Na24 In8 N16'
_cell_volume   733.00717387
_cell_formula_units_Z   8
loop_
 _symmetry_equiv_pos_site_id
 _symmetry_equiv_pos_as_xyz
  1  'x, y, z'
loop_
 _atom_site_type_symbol
 _atom_site_label
 _atom_site_symmetry_multiplicity
 _atom_site_fract_x
 _atom_site_fract_y
 _atom_site_fract_z
 _atom_site_occupancy
  Na  Na0  1  0.21564200  0.04386500  0.97990800  1
  Na  Na1  1  0.78435800  0.75950800  0.52009200  1
  Na  Na2  1  0.78435800  0.45613500  0.76426500  1
  Na  Na3  1  0.21564200  0.74049200  0.73573500  1
  Na  Na4  1  0.25582700  0.76426500  0.27960000  1
  Na  Na5  1  0.74417300  0.73573500  0.02377300  1
  Na  Na6  1  0.25582700  0.97990800  0.47622700  1
  Na  Na7  1  0.74417300  0.52009200  0.22040000  1
  Na  Na8  1  0.69662700  0.02377300  0.74049200  1
  Na  Na9  1  0.69662700  0.27960000  0.45613500  1
  Na  Na10  1  0.30337300  0.22040000  0.75950800  1
  Na  Na11  1  0.30337300  0.47622700  0.04386500  1
  Na  Na12  1  0.78435800  0.95613500  0.02009200  1
  Na  Na13  1  0.21564200  0.24049200  0.47990800  1
  Na  Na14  1  0.21564200  0.54386500  0.23573500  1
  Na  Na15  1  0.78435800  0.25950800  0.26426500  1
  Na  Na16  1  0.74417300  0.23573500  0.72040000  1
  Na  Na17  1  0.25582700  0.26426500  0.97622700  1
  Na  Na18  1  0.74417300  0.02009200  0.52377300  1
  Na  Na19  1  0.25582700  0.47990800  0.77960000  1
  Na  Na20  1  0.30337300  0.97622700  0.25950800  1
  Na  Na21  1  0.30337300  0.72040000  0.54386500  1
  Na  Na22  1  0.69662700  0.77960000  0.24049200  1
  Na  Na23  1  0.69662700  0.52377300  0.95613500  1
  In  In0  1  0.22687600  0.00000000  0.72687600  1
  In  In1  1  0.77312400  0.72687600  0.77312400  1
  In  In2  1  0.77312400  0.50000000  0.50000000  1
  In  In3  1  0.22687600  0.77312400  0.00000000  1
  In  In4  1  0.77312400  0.00000000  0.27312400  1
  In  In5  1  0.22687600  0.27312400  0.22687600  1
  In  In6  1  0.22687600  0.50000000  0.50000000  1
  In  In7  1  0.77312400  0.22687600  0.00000000  1
  N  N0  1  0.00000000  0.00000000  0.50000000  1
  N  N1  1  0.00000000  0.50000000  0.00000000  1
  N  N2  1  0.00000000  0.50000000  0.50000000  1
  N  N3  1  0.00000000  0.00000000  0.00000000  1
  N  N4  1  0.50000000  0.96157000  0.75000000  1
  N  N5  1  0.50000000  0.53843000  0.25000000  1
  N  N6  1  0.00000000  0.25000000  0.71157000  1
  N  N7  1  0.00000000  0.75000000  0.78843000  1
  N  N8  1  0.57686000  0.71157000  0.53843000  1
  N  N9  1  0.42314000  0.78843000  0.96157000  1
  N  N10  1  0.50000000  0.03843000  0.25000000  1
  N  N11  1  0.50000000  0.46157000  0.75000000  1
  N  N12  1  0.00000000  0.75000000  0.28843000  1
  N  N13  1  0.00000000  0.25000000  0.21157000  1
  N  N14  1  0.42314000  0.28843000  0.46157000  1
  N  N15  1  0.57686000  0.21157000  0.03843000  1
loop_
_geom_bond_atom_site_label_1
_geom_bond_atom_site_label_2
_geom_bond_distance
_geom_bond_site_symmetry_2
In0 N0 2.232023 1_555
In0 N9 2.304357 1_545
In0 N6 2.304357 1_555
In0 N4 2.304357 1_545
In1 N1 2.232023 1_656
In1 N7 2.304357 1_655
In1 N4 2.304357 1_555
In1 N8 2.304357 1_555
In2 N2 2.232023 1_655
In2 N6 2.304357 1_655
In2 N8 2.304357 1_555
In2 N5 2.304357 1_555
In3 N3 2.232023 1_565
In3 N5 2.304357 1_555
In3 N9 2.304357 1_554
In3 N7 2.304357 1_554
In4 N0 2.232023 1_655
In4 N15 2.304357 1_555
In4 N12 2.304357 1_645
In4 N10 2.304357 1_555
In5 N1 2.232023 1_555
In5 N13 2.304357 1_555
In5 N10 2.304357 1_555
In5 N14 2.304357 1_555
In6 N2 2.232023 1_555
In6 N12 2.304357 1_555
In6 N14 2.304357 1_555
In6 N11 2.304357 1_555
In7 N3 2.232023 1_655
In7 N11 2.304357 1_554
In7 N15 2.304357 1_555
In7 N13 2.304357 1_655
N0 Na9 2.565358 1_455
N0 Na21 2.565358 1_545
N0 Na18 2.565358 1_455
N0 Na6 2.565358 1_545
N0 Na15 2.565363 1_455
N0 Na3 2.565363 1_545
N1 Na14 2.565355 1_555
N1 Na2 2.565355 1_454
N1 Na5 2.565358 1_455
N1 Na17 2.565358 1_554
N1 Na11 2.565358 1_555
N1 Na23 2.565358 1_454
N2 Na1 2.565356 1_455
N2 Na13 2.565356 1_555
N2 Na10 2.565358 1_555
N2 Na22 2.565358 1_455
N2 Na19 2.565358 1_555
N2 Na7 2.565358 1_455
N3 Na0 2.565349 1_554
N3 Na12 2.565349 1_445
N3 Na16 2.565358 1_454
N3 Na4 2.565358 1_545
N3 Na20 2.565358 1_545
N3 Na8 2.565358 1_454
N4 Na10 2.464277 1_565
N4 Na8 2.464277 1_565
N4 Na5 2.506365 1_556
N4 Na6 2.506365 1_555
N4 Na13 2.670821 1_565
N4 Na12 2.670828 1_556
N5 Na9 2.464277 1_555
N5 Na11 2.464277 1_555
N5 Na4 2.506365 1_555
N5 Na7 2.506365 1_555
N5 Na15 2.670827 1_555
N5 Na14 2.670834 1_555
N6 Na2 2.464273 1_455
N6 Na0 2.464281 1_555
N6 Na10 2.506365 1_555
N6 Na9 2.506365 1_455
N6 Na16 2.670824 1_455
N6 Na17 2.670824 1_555
N7 Na3 2.464267 1_555
N7 Na1 2.464276 1_455
N7 Na11 2.506365 1_556
N7 Na8 2.506365 1_465
N7 Na18 2.670824 1_465
N7 Na19 2.670824 1_555
N8 Na6 2.464277 1_555
N8 Na4 2.464277 1_555
N8 Na2 2.506360 1_555
N8 Na1 2.506374 1_555
N8 Na20 2.670824 1_555
N8 Na21 2.670824 1_555
N9 Na7 2.464277 1_556
N9 Na5 2.464277 1_556
N9 Na0 2.506366 1_565
N9 Na3 2.506368 1_555
N9 Na23 2.670824 1_555
N9 Na22 2.670824 1_556
N10 Na22 2.464277 1_545
N10 Na20 2.464277 1_545
N10 Na17 2.506365 1_554
N10 Na18 2.506365 1_555
N10 Na1 2.670821 1_545
N10 Na0 2.670828 1_554
N11 Na21 2.464277 1_555
N11 Na23 2.464277 1_555
N11 Na16 2.506365 1_555
N11 Na19 2.506365 1_555
N11 Na3 2.670827 1_555
N11 Na2 2.670834 1_555
N12 Na14 2.464273 1_555
N12 Na12 2.464281 1_455
N12 Na22 2.506365 1_455
N12 Na21 2.506365 1_555
N12 Na4 2.670824 1_555
N12 Na5 2.670824 1_455
N13 Na15 2.464267 1_455
N13 Na13 2.464276 1_555
N13 Na23 2.506365 1_454
N13 Na20 2.506365 1_545
N13 Na6 2.670824 1_545
N13 Na7 2.670824 1_455
N14 Na18 2.464277 1_555
N14 Na16 2.464277 1_555
N14 Na14 2.506360 1_555
N14 Na13 2.506374 1_555
N14 Na8 2.670824 1_555
N14 Na9 2.670824 1_555
N15 Na19 2.464277 1_554
N15 Na17 2.464277 1_554
N15 Na12 2.506366 1_545
N15 Na15 2.506368 1_555
N15 Na11 2.670824 1_555
N15 Na10 2.670824 1_554
