# generated using pymatgen
data_MnGaGe
_symmetry_space_group_name_H-M   'P 1'
_cell_length_a   3.94595700
_cell_length_b   3.94595700
_cell_length_c   5.91088200
_cell_angle_alpha   90.00000000
_cell_angle_beta   90.00000000
_cell_angle_gamma   90.00000000
_symmetry_Int_Tables_number   1
_chemical_formula_structural   MnGaGe
_chemical_formula_sum   'Mn2 Ga2 Ge2'
_cell_volume   92.03584123
_cell_formula_units_Z   2
loop_
 _symmetry_equiv_pos_site_id
 _symmetry_equiv_pos_as_xyz
  1  'x, y, z'
loop_
 _atom_site_type_symbol
 _atom_site_label
 _atom_site_symmetry_multiplicity
 _atom_site_fract_x
 _atom_site_fract_y
 _atom_site_fract_z
 _atom_site_occupancy
  Mn  Mn0  1  0.00000000  0.00000000  0.00000000  1
  Mn  Mn1  1  0.50000000  0.50000000  0.00000000  1
  Ga  Ga0  1  0.00000000  0.50000000  0.70377300  1
  Ga  Ga1  1  0.50000000  0.00000000  0.29622700  1
  Ge  Ge0  1  0.00000000  0.50000000  0.28094700  1
  Ge  Ge1  1  0.50000000  0.00000000  0.71905300  1
loop_
_geom_bond_atom_site_label_1
_geom_bond_atom_site_label_2
_geom_bond_distance
_geom_bond_site_symmetry_2
Ga0 Ge0 2.499275 1_555
Ga0 Mn0 2.637900 1_556
Ga0 Mn1 2.637900 1_556
Ga0 Mn1 2.637900 1_456
Ga0 Mn0 2.637900 1_566
Ga0 Ge1 2.791674 1_565
Ga0 Ge1 2.791674 1_465
Ga0 Ge1 2.791674 1_455
Ga0 Ge1 2.791674 1_555
Ga1 Ge1 2.499275 1_555
Ga1 Mn1 2.637900 1_545
Ga1 Mn0 2.637900 1_555
Ga1 Mn0 2.637900 1_655
Ga1 Mn1 2.637900 1_555
Ga1 Ge0 2.791674 1_655
Ga1 Ge0 2.791674 1_545
Ga1 Ge0 2.791674 1_555
Ga1 Ge0 2.791674 1_645
Ge0 Mn1 2.578834 1_455
Ge0 Mn0 2.578834 1_565
Ge0 Mn1 2.578834 1_555
Ge0 Mn0 2.578834 1_555
Ge1 Mn1 2.578834 1_546
Ge1 Mn0 2.578834 1_656
Ge1 Mn0 2.578834 1_556
Ge1 Mn1 2.578834 1_556
