# generated using pymatgen
data_Mg(InSe2)2
_symmetry_space_group_name_H-M   'P 1'
_cell_length_a   7.09065503
_cell_length_b   8.19709265
_cell_length_c   13.70562719
_cell_angle_alpha   98.76851622
_cell_angle_beta   95.02471361
_cell_angle_gamma   89.98319215
_symmetry_Int_Tables_number   1
_chemical_formula_structural   Mg(InSe2)2
_chemical_formula_sum   'Mg4 In8 Se16'
_cell_volume   784.20373232
_cell_formula_units_Z   4
loop_
 _symmetry_equiv_pos_site_id
 _symmetry_equiv_pos_as_xyz
  1  'x, y, z'
loop_
 _atom_site_type_symbol
 _atom_site_label
 _atom_site_symmetry_multiplicity
 _atom_site_fract_x
 _atom_site_fract_y
 _atom_site_fract_z
 _atom_site_occupancy
  Mg  Mg0  1  0.25017109  0.37269187  0.00149923  1
  Mg  Mg1  1  0.13143423  0.19969218  0.29518330  1
  Mg  Mg2  1  0.74982891  0.62730813  0.99850077  1
  Mg  Mg3  1  0.86856577  0.80030782  0.70481670  1
  In  In0  1  0.23886149  0.87631376  -0.00002894  1
  In  In1  1  0.13870224  0.69950799  0.29280422  1
  In  In2  1  0.62899913  0.44325521  0.29124903  1
  In  In3  1  0.76113851  0.12368624  0.00002894  1
  In  In4  1  0.86129776  0.30049201  0.70719578  1
  In  In5  1  0.62895738  0.95287391  0.29540750  1
  In  In6  1  0.37104262  0.04712609  0.70459250  1
  In  In7  1  0.37100087  0.55674479  0.70875097  1
  Se  Se0  1  0.18675973  0.28227049  0.62607423  1
  Se  Se1  1  0.10570377  0.15446403  0.10664783  1
  Se  Se2  1  0.18578263  0.77982056  0.62434682  1
  Se  Se3  1  0.09934603  0.64722194  0.10325562  1
  Se  Se4  1  0.89429623  0.84553597  0.89335217  1
  Se  Se5  1  0.68800948  0.53168298  0.62543743  1
  Se  Se6  1  0.81324027  0.71772951  0.37392577  1
  Se  Se7  1  0.60249466  0.40182384  0.10131996  1
  Se  Se8  1  0.90065397  0.35277806  0.89674438  1
  Se  Se9  1  0.68982891  0.02803898  0.62405691  1
  Se  Se10  1  0.81421737  0.22017944  0.37565318  1
  Se  Se11  1  0.59880786  0.89937931  0.10421610  1
  Se  Se12  1  0.40119214  0.10062069  0.89578390  1
  Se  Se13  1  0.31017109  0.97196102  0.37594309  1
  Se  Se14  1  0.39750534  0.59817616  0.89868004  1
  Se  Se15  1  0.31199052  0.46831702  0.37456257  1
loop_
_geom_bond_atom_site_label_1
_geom_bond_atom_site_label_2
_geom_bond_distance
_geom_bond_site_symmetry_2
Mg0 Se1 2.715097 1_555
Mg0 Se3 2.730530 1_555
Mg0 Se7 2.733461 1_555
Mg0 Se12 2.739517 1_554
Mg0 Se8 2.745079 1_454
Mg0 Se14 2.747116 1_554
Mg1 Se1 2.544239 1_555
Mg1 Se10 2.584892 1_455
Mg1 Se15 2.588152 1_555
Mg1 Se13 2.588221 1_545
Mg2 Se4 2.715097 1_555
Mg2 Se8 2.730530 1_555
Mg2 Se14 2.733461 1_555
Mg2 Se11 2.739517 1_556
Mg2 Se3 2.745079 1_656
Mg2 Se7 2.747116 1_556
Mg3 Se4 2.544239 1_555
Mg3 Se2 2.584892 1_655
Mg3 Se5 2.588152 1_555
Mg3 Se9 2.588221 1_565
In0 Se4 2.725940 1_454
In0 Se1 2.729804 1_565
In0 Se3 2.750604 1_555
In0 Se14 2.774476 1_554
In0 Se12 2.798971 1_564
In0 Se11 2.805392 1_555
In1 Se3 2.558157 1_555
In1 Se13 2.597575 1_555
In1 Se15 2.600321 1_555
In1 Se6 2.642486 1_455
In2 Se7 2.563509 1_555
In2 Se15 2.603166 1_555
In2 Se10 2.604628 1_555
In2 Se6 2.649112 1_555
In3 Se1 2.725940 1_655
In3 Se4 2.729804 1_544
In3 Se8 2.750604 1_554
In3 Se7 2.774476 1_555
In3 Se11 2.798971 1_545
In3 Se12 2.805392 1_554
In4 Se8 2.558157 1_555
In4 Se9 2.597575 1_555
In4 Se5 2.600321 1_555
In4 Se0 2.642486 1_655
In5 Se11 2.579936 1_555
In5 Se13 2.595467 1_555
In5 Se10 2.598098 1_565
In5 Se6 2.639201 1_555
In6 Se12 2.579936 1_555
In6 Se9 2.595467 1_555
In6 Se2 2.598098 1_545
In6 Se0 2.639201 1_555
In7 Se14 2.563509 1_555
In7 Se5 2.603166 1_555
In7 Se2 2.604628 1_555
In7 Se0 2.649112 1_555
