# generated using pymatgen
data_Tl2Hg3Se4
_symmetry_space_group_name_H-M   'P 1'
_cell_length_a   7.06706689
_cell_length_b   7.06706689
_cell_length_c   13.63267088
_cell_angle_alpha   67.79018012
_cell_angle_beta   67.79018012
_cell_angle_gamma   59.19808251
_symmetry_Int_Tables_number   1
_chemical_formula_structural   Tl2Hg3Se4
_chemical_formula_sum   'Tl4 Hg6 Se8'
_cell_volume   526.66753056
_cell_formula_units_Z   2
loop_
 _symmetry_equiv_pos_site_id
 _symmetry_equiv_pos_as_xyz
  1  'x, y, z'
loop_
 _atom_site_type_symbol
 _atom_site_label
 _atom_site_symmetry_multiplicity
 _atom_site_fract_x
 _atom_site_fract_y
 _atom_site_fract_z
 _atom_site_occupancy
  Tl  Tl0  1  0.08895880  0.25681200  0.94765644  1
  Tl  Tl1  1  0.74318800  0.91104120  0.55234356  1
  Tl  Tl2  1  0.91104120  0.74318800  0.05234356  1
  Tl  Tl3  1  0.25681200  0.08895880  0.44765644  1
  Hg  Hg0  1  0.13284647  0.86715353  0.25000000  1
  Hg  Hg1  1  0.86715353  0.13284647  0.75000000  1
  Hg  Hg2  1  0.56230102  0.32531356  0.15252630  1
  Hg  Hg3  1  0.67468644  0.43769898  0.34747370  1
  Hg  Hg4  1  0.43769898  0.67468644  0.84747370  1
  Hg  Hg5  1  0.32531356  0.56230102  0.65252630  1
  Se  Se0  1  0.71525140  0.92426670  0.25853670  1
  Se  Se1  1  0.07573330  0.28474860  0.24146330  1
  Se  Se2  1  0.28474860  0.07573330  0.74146330  1
  Se  Se3  1  0.92426670  0.71525140  0.75853670  1
  Se  Se4  1  0.26229628  0.55019928  0.42945591  1
  Se  Se5  1  0.44980072  0.73770372  0.07054409  1
  Se  Se6  1  0.73770372  0.44980072  0.57054409  1
  Se  Se7  1  0.55019928  0.26229628  0.92945591  1
loop_
_geom_bond_atom_site_label_1
_geom_bond_atom_site_label_2
_geom_bond_distance
_geom_bond_site_symmetry_2
Hg0 Se4 2.699993 1_555
Hg0 Se5 2.699993 1_555
Hg0 Se1 2.727969 1_565
Hg0 Se0 2.727969 1_455
Hg1 Se6 2.699993 1_555
Hg1 Se7 2.699993 1_555
Hg1 Se2 2.727969 1_655
Hg1 Se3 2.727969 1_545
Hg2 Se5 2.492219 1_555
Hg2 Se0 2.497335 1_545
Hg3 Se4 2.492219 1_555
Hg3 Se1 2.497335 1_655
Hg4 Se7 2.492219 1_555
Hg4 Se2 2.497335 1_565
Hg5 Se6 2.492219 1_555
Hg5 Se3 2.497335 1_455
Se0 Tl2 3.069088 1_555
Se0 Tl3 3.254252 1_565
Se1 Tl3 3.069088 1_555
Se1 Tl2 3.254252 1_455
Se2 Tl0 3.069088 1_555
Se2 Tl1 3.254252 1_545
Se3 Tl1 3.069088 1_555
Se3 Tl0 3.254252 1_655
Se4 Tl3 3.193564 1_555
Se5 Tl2 3.193564 1_555
Se6 Tl1 3.193564 1_555
Se7 Tl0 3.193564 1_555
