# generated using pymatgen
data_KPu
_symmetry_space_group_name_H-M   'P 1'
_cell_length_a   5.99096977
_cell_length_b   13.55711539
_cell_length_c   8.50280401
_cell_angle_alpha   89.41684377
_cell_angle_beta   131.70268198
_cell_angle_gamma   95.19834501
_symmetry_Int_Tables_number   1
_chemical_formula_structural   KPu
_chemical_formula_sum   'K6 Pu6'
_cell_volume   512.31928338
_cell_formula_units_Z   6
loop_
 _symmetry_equiv_pos_site_id
 _symmetry_equiv_pos_as_xyz
  1  'x, y, z'
loop_
 _atom_site_type_symbol
 _atom_site_label
 _atom_site_symmetry_multiplicity
 _atom_site_fract_x
 _atom_site_fract_y
 _atom_site_fract_z
 _atom_site_occupancy
  K  K0  1  0.18555600  0.85599000  0.20176200  1
  K  K1  1  0.42445100  0.33098100  0.89228100  1
  K  K2  1  0.12796000  0.86825300  0.68547900  1
  K  K3  1  0.81444400  0.14401000  0.79823800  1
  K  K4  1  0.57554900  0.66901900  0.10771900  1
  K  K5  1  0.87204000  0.13174700  0.31452100  1
  Pu  Pu0  1  0.08888200  0.49025700  0.16957800  1
  Pu  Pu1  1  0.45717200  0.38535900  0.32571400  1
  Pu  Pu2  1  0.17403800  0.48396300  0.48594500  1
  Pu  Pu3  1  0.91111800  0.50974300  0.83042200  1
  Pu  Pu4  1  0.54282800  0.61464100  0.67428600  1
  Pu  Pu5  1  0.82596200  0.51603700  0.51405500  1
loop_
_geom_bond_atom_site_label_1
_geom_bond_atom_site_label_2
_geom_bond_distance
_geom_bond_site_symmetry_2
K0 K4 3.859358 1_455
K0 K4 4.015437 1_555
K0 K2 4.171048 1_554
K0 K2 4.215144 1_655
K0 K2 4.356107 1_555
K0 K5 4.707939 1_465
K0 K2 4.755210 1_454
K1 Pu2 3.465630 1_555
K1 Pu0 3.482162 1_656
K1 Pu1 3.637571 1_556
K1 Pu3 3.844508 1_455
K1 K3 3.859358 1_455
K1 K5 3.959993 1_556
K1 K3 4.015437 1_555
K1 K5 4.404555 1_455
K2 K4 3.959993 1_556
K2 K5 4.403292 1_465
K2 K4 4.404555 1_455
K2 Pu4 4.458480 1_555
K2 Pu4 4.636582 1_455
K2 K3 4.707939 1_465
K3 K5 4.171048 1_556
K3 K5 4.215144 1_455
K3 K5 4.356107 1_555
K3 K5 4.755210 1_656
K4 Pu5 3.465630 1_555
K4 Pu3 3.482162 1_454
K4 Pu4 3.637571 1_554
K4 Pu0 3.844508 1_655
K5 Pu1 4.458480 1_555
K5 Pu1 4.636582 1_655
Pu0 Pu1 2.299112 1_555
Pu0 Pu3 2.338661 1_454
Pu0 Pu2 2.383473 1_555
Pu1 Pu5 2.285925 1_555
Pu2 Pu4 2.285925 1_555
Pu2 Pu5 2.329018 1_455
Pu3 Pu4 2.299112 1_555
Pu3 Pu5 2.383473 1_555
