# generated using pymatgen
data_BaSrSi4
_symmetry_space_group_name_H-M   'P 1'
_cell_length_a   6.66257320
_cell_length_b   6.66257320
_cell_length_c   6.67071500
_cell_angle_alpha   90.00000000
_cell_angle_beta   90.00000000
_cell_angle_gamma   90.64956190
_symmetry_Int_Tables_number   1
_chemical_formula_structural   BaSrSi4
_chemical_formula_sum   'Ba2 Sr2 Si8'
_cell_volume   296.09322014
_cell_formula_units_Z   2
loop_
 _symmetry_equiv_pos_site_id
 _symmetry_equiv_pos_as_xyz
  1  'x, y, z'
loop_
 _atom_site_type_symbol
 _atom_site_label
 _atom_site_symmetry_multiplicity
 _atom_site_fract_x
 _atom_site_fract_y
 _atom_site_fract_z
 _atom_site_occupancy
  Ba  Ba0  1  0.12548900  0.87451100  0.75000000  1
  Ba  Ba1  1  0.87451100  0.12548900  0.25000000  1
  Sr  Sr0  1  0.37554900  0.37554900  0.00000000  1
  Sr  Sr1  1  0.62445100  0.62445100  0.50000000  1
  Si  Si0  1  0.42205100  0.17626500  0.45309900  1
  Si  Si1  1  0.57794900  0.82373500  0.95309900  1
  Si  Si2  1  0.08241200  0.66297800  0.29088500  1
  Si  Si3  1  0.91758800  0.33702200  0.79088500  1
  Si  Si4  1  0.82373500  0.57794900  0.04690100  1
  Si  Si5  1  0.66297800  0.08241200  0.70911500  1
  Si  Si6  1  0.17626500  0.42205100  0.54690100  1
  Si  Si7  1  0.33702200  0.91758800  0.20911500  1
loop_
_geom_bond_atom_site_label_1
_geom_bond_atom_site_label_2
_geom_bond_distance
_geom_bond_site_symmetry_2
Ba0 Si1 3.325747 1_555
Ba0 Si6 3.325747 1_555
Ba0 Si7 3.382182 1_556
Ba0 Si2 3.382182 1_555
Ba0 Si3 3.403754 1_465
Ba0 Si5 3.403754 1_465
Ba0 Si0 3.431977 1_565
Ba0 Si4 3.431977 1_456
Ba1 Si0 3.325747 1_555
Ba1 Si4 3.325747 1_555
Ba1 Si3 3.382182 1_554
Ba1 Si5 3.382182 1_555
Ba1 Si7 3.403754 1_645
Ba1 Si2 3.403754 1_645
Ba1 Si6 3.431977 1_655
Ba1 Si1 3.431977 1_544
Si0 Si6 2.411553 1_555
Si0 Si5 2.430437 1_555
Si0 Si7 2.432695 1_545
Si0 Sr1 3.277449 1_555
Si0 Sr0 3.317182 1_555
Si1 Si4 2.411553 1_556
Si1 Si7 2.430437 1_556
Si1 Si5 2.432695 1_565
Si1 Sr0 3.277449 1_556
Si1 Sr1 3.317182 1_555
Si2 Si6 2.430437 1_555
Si2 Si4 2.432695 1_455
Si2 Si7 2.446946 1_555
Si2 Sr1 3.362115 1_455
Si2 Sr0 3.366256 1_555
Si3 Si4 2.430437 1_556
Si3 Si6 2.432695 1_655
Si3 Si5 2.446946 1_555
Si3 Sr0 3.362115 1_656
Si3 Sr1 3.366256 1_555
Si4 Sr0 3.277449 1_555
Si4 Sr1 3.317182 1_555
Si5 Sr1 3.362115 1_545
Si5 Sr0 3.366256 1_556
Si6 Sr1 3.277449 1_555
Si6 Sr0 3.317182 1_556
Si7 Sr0 3.362115 1_565
Si7 Sr1 3.366256 1_555
