# generated using pymatgen
data_Ba(MoN2)2
_symmetry_space_group_name_H-M   'P 1'
_cell_length_a   11.20411500
_cell_length_b   11.20411500
_cell_length_c   11.20411500
_cell_angle_alpha   90.00000000
_cell_angle_beta   90.00000000
_cell_angle_gamma   90.00000000
_symmetry_Int_Tables_number   1
_chemical_formula_structural   Ba(MoN2)2
_chemical_formula_sum   'Ba12 Mo24 N48'
_cell_volume   1406.47712583
_cell_formula_units_Z   12
loop_
 _symmetry_equiv_pos_site_id
 _symmetry_equiv_pos_as_xyz
  1  'x, y, z'
loop_
 _atom_site_type_symbol
 _atom_site_label
 _atom_site_symmetry_multiplicity
 _atom_site_fract_x
 _atom_site_fract_y
 _atom_site_fract_z
 _atom_site_occupancy
  Ba  Ba0  1  0.50000000  0.50000000  0.00000000  1
  Ba  Ba1  1  0.50000000  0.00000000  0.50000000  1
  Ba  Ba2  1  0.00000000  0.50000000  0.50000000  1
  Ba  Ba3  1  0.00000000  0.00000000  0.00000000  1
  Ba  Ba4  1  0.12933000  0.87067000  0.37067000  1
  Ba  Ba5  1  0.87067000  0.37067000  0.12933000  1
  Ba  Ba6  1  0.37067000  0.12933000  0.87067000  1
  Ba  Ba7  1  0.62933000  0.62933000  0.62933000  1
  Ba  Ba8  1  0.87067000  0.12933000  0.62933000  1
  Ba  Ba9  1  0.12933000  0.62933000  0.87067000  1
  Ba  Ba10  1  0.62933000  0.87067000  0.12933000  1
  Ba  Ba11  1  0.37067000  0.37067000  0.37067000  1
  Mo  Mo0  1  0.39600100  0.69429100  0.34765700  1
  Mo  Mo1  1  0.60399900  0.19429100  0.15234300  1
  Mo  Mo2  1  0.10399900  0.30570900  0.84765700  1
  Mo  Mo3  1  0.89600100  0.80570900  0.65234300  1
  Mo  Mo4  1  0.34765700  0.39600100  0.69429100  1
  Mo  Mo5  1  0.15234300  0.60399900  0.19429100  1
  Mo  Mo6  1  0.84765700  0.10399900  0.30570900  1
  Mo  Mo7  1  0.65234300  0.89600100  0.80570900  1
  Mo  Mo8  1  0.69429100  0.34765700  0.39600100  1
  Mo  Mo9  1  0.19429100  0.15234300  0.60399900  1
  Mo  Mo10  1  0.30570900  0.84765700  0.10399900  1
  Mo  Mo11  1  0.80570900  0.65234300  0.89600100  1
  Mo  Mo12  1  0.60399900  0.30570900  0.65234300  1
  Mo  Mo13  1  0.39600100  0.80570900  0.84765700  1
  Mo  Mo14  1  0.89600100  0.69429100  0.15234300  1
  Mo  Mo15  1  0.10399900  0.19429100  0.34765700  1
  Mo  Mo16  1  0.65234300  0.60399900  0.30570900  1
  Mo  Mo17  1  0.84765700  0.39600100  0.80570900  1
  Mo  Mo18  1  0.15234300  0.89600100  0.69429100  1
  Mo  Mo19  1  0.34765700  0.10399900  0.19429100  1
  Mo  Mo20  1  0.30570900  0.65234300  0.60399900  1
  Mo  Mo21  1  0.80570900  0.84765700  0.39600100  1
  Mo  Mo22  1  0.69429100  0.15234300  0.89600100  1
  Mo  Mo23  1  0.19429100  0.34765700  0.10399900  1
  N  N0  1  0.37778400  0.83836900  0.25800500  1
  N  N1  1  0.62221600  0.33836900  0.24199500  1
  N  N2  1  0.12221600  0.16163100  0.75800500  1
  N  N3  1  0.87778400  0.66163100  0.74199500  1
  N  N4  1  0.25800500  0.37778400  0.83836900  1
  N  N5  1  0.24199500  0.62221600  0.33836900  1
  N  N6  1  0.75800500  0.12221600  0.16163100  1
  N  N7  1  0.74199500  0.87778400  0.66163100  1
  N  N8  1  0.83836900  0.25800500  0.37778400  1
  N  N9  1  0.33836900  0.24199500  0.62221600  1
  N  N10  1  0.16163100  0.75800500  0.12221600  1
  N  N11  1  0.66163100  0.74199500  0.87778400  1
  N  N12  1  0.62221600  0.16163100  0.74199500  1
  N  N13  1  0.37778400  0.66163100  0.75800500  1
  N  N14  1  0.87778400  0.83836900  0.24199500  1
  N  N15  1  0.12221600  0.33836900  0.25800500  1
  N  N16  1  0.74199500  0.62221600  0.16163100  1
  N  N17  1  0.75800500  0.37778400  0.66163100  1
  N  N18  1  0.24199500  0.87778400  0.83836900  1
  N  N19  1  0.25800500  0.12221600  0.33836900  1
  N  N20  1  0.16163100  0.74199500  0.62221600  1
  N  N21  1  0.66163100  0.75800500  0.37778400  1
  N  N22  1  0.83836900  0.24199500  0.87778400  1
  N  N23  1  0.33836900  0.25800500  0.12221600  1
  N  N24  1  0.42842800  0.73274800  0.51074000  1
  N  N25  1  0.57157200  0.23274800  0.98926000  1
  N  N26  1  0.07157200  0.26725200  0.01074000  1
  N  N27  1  0.92842800  0.76725200  0.48926000  1
  N  N28  1  0.51074000  0.42842800  0.73274800  1
  N  N29  1  0.98926000  0.57157200  0.23274800  1
  N  N30  1  0.01074000  0.07157200  0.26725200  1
  N  N31  1  0.48926000  0.92842800  0.76725200  1
  N  N32  1  0.73274800  0.51074000  0.42842800  1
  N  N33  1  0.23274800  0.98926000  0.57157200  1
  N  N34  1  0.26725200  0.01074000  0.07157200  1
  N  N35  1  0.76725200  0.48926000  0.92842800  1
  N  N36  1  0.57157200  0.26725200  0.48926000  1
  N  N37  1  0.42842800  0.76725200  0.01074000  1
  N  N38  1  0.92842800  0.73274800  0.98926000  1
  N  N39  1  0.07157200  0.23274800  0.51074000  1
  N  N40  1  0.48926000  0.57157200  0.26725200  1
  N  N41  1  0.01074000  0.42842800  0.76725200  1
  N  N42  1  0.98926000  0.92842800  0.73274800  1
  N  N43  1  0.51074000  0.07157200  0.23274800  1
  N  N44  1  0.26725200  0.48926000  0.57157200  1
  N  N45  1  0.76725200  0.01074000  0.42842800  1
  N  N46  1  0.73274800  0.98926000  0.92842800  1
  N  N47  1  0.23274800  0.51074000  0.07157200  1
loop_
_geom_bond_atom_site_label_1
_geom_bond_atom_site_label_2
_geom_bond_distance
_geom_bond_site_symmetry_2
Ba0 N37 3.102175 1_555
Ba0 N35 3.102175 1_554
Ba0 N40 3.102175 1_555
Ba0 N28 3.102175 1_554
Ba0 N25 3.102175 1_554
Ba0 N47 3.102175 1_555
Ba1 N45 3.102175 1_555
Ba1 N31 3.102175 1_545
Ba1 N36 3.102175 1_555
Ba1 N24 3.102175 1_545
Ba1 N43 3.102175 1_555
Ba1 N33 3.102175 1_545
Ba2 N41 3.102175 1_555
Ba2 N27 3.102175 1_455
Ba2 N44 3.102175 1_555
Ba2 N32 3.102175 1_455
Ba2 N29 3.102175 1_455
Ba2 N39 3.102175 1_555
Ba3 N26 3.102175 1_555
Ba3 N30 3.102175 1_555
Ba3 N34 3.102175 1_555
Ba3 N42 3.102175 1_444
Ba3 N46 3.102175 1_444
Ba3 N38 3.102175 1_444
Ba4 N33 2.859146 1_555
Ba4 N30 2.859146 1_565
Ba4 N27 2.859146 1_455
Ba4 N5 3.077894 1_555
Ba4 N0 3.077894 1_555
Ba4 N10 3.077894 1_555
Ba4 N19 3.186305 1_565
Ba4 N20 3.186305 1_555
Ba4 N14 3.186305 1_455
Ba5 N29 2.859146 1_555
Ba5 N26 2.859146 1_655
Ba5 N35 2.859146 1_554
Ba5 N1 3.077894 1_555
Ba5 N8 3.077894 1_555
Ba5 N6 3.077894 1_555
Ba5 N15 3.186305 1_655
Ba5 N16 3.186305 1_555
Ba5 N22 3.186305 1_554
Ba6 N25 2.859146 1_555
Ba6 N34 2.859146 1_556
Ba6 N31 2.859146 1_545
Ba6 N9 3.077894 1_555
Ba6 N4 3.077894 1_555
Ba6 N2 3.077894 1_555
Ba6 N23 3.186305 1_556
Ba6 N12 3.186305 1_555
Ba6 N18 3.186305 1_545
Ba7 N24 2.859146 1_555
Ba7 N28 2.859146 1_555
Ba7 N32 2.859146 1_555
Ba7 N3 3.077894 1_555
Ba7 N11 3.077894 1_555
Ba7 N7 3.077894 1_555
Ba7 N13 3.186305 1_555
Ba7 N21 3.186305 1_555
Ba7 N17 3.186305 1_555
Ba8 N39 2.859146 1_655
Ba8 N45 2.859146 1_555
Ba8 N42 2.859146 1_545
Ba8 N12 3.077894 1_555
Ba8 N22 3.077894 1_555
Ba8 N17 3.077894 1_555
Ba8 N2 3.186305 1_655
Ba8 N7 3.186305 1_545
Ba8 N8 3.186305 1_555
Ba9 N47 2.859146 1_556
Ba9 N41 2.859146 1_555
Ba9 N38 2.859146 1_455
Ba9 N20 3.077894 1_555
Ba9 N18 3.077894 1_555
Ba9 N13 3.077894 1_555
Ba9 N10 3.186305 1_556
Ba9 N3 3.186305 1_455
Ba9 N4 3.186305 1_555
Ba10 N43 2.859146 1_565
Ba10 N37 2.859146 1_555
Ba10 N46 2.859146 1_554
Ba10 N16 3.077894 1_555
Ba10 N14 3.077894 1_555
Ba10 N21 3.077894 1_555
Ba10 N6 3.186305 1_565
Ba10 N11 3.186305 1_554
Ba10 N0 3.186305 1_555
Ba11 N44 2.859146 1_555
Ba11 N40 2.859146 1_555
Ba11 N36 2.859146 1_555
Ba11 N15 3.077894 1_555
Ba11 N23 3.077894 1_555
Ba11 N19 3.077894 1_555
Ba11 N5 3.186305 1_555
Ba11 N9 3.186305 1_555
Ba11 N1 3.186305 1_555
Mo0 N5 1.907957 1_555
Mo0 N24 1.912149 1_555
Mo0 N0 1.912192 1_555
Mo0 N40 1.947782 1_555
Mo1 N6 1.907957 1_555
Mo1 N25 1.912149 1_554
Mo1 N1 1.912192 1_555
Mo1 N43 1.947782 1_555
Mo2 N4 1.907957 1_555
Mo2 N26 1.912149 1_556
Mo2 N2 1.912192 1_555
Mo2 N41 1.947782 1_555
Mo3 N7 1.907957 1_555
Mo3 N27 1.912149 1_555
Mo3 N3 1.912192 1_555
Mo3 N42 1.947782 1_555
Mo4 N9 1.907957 1_555
Mo4 N28 1.912149 1_555
Mo4 N4 1.912192 1_555
Mo4 N44 1.947782 1_555
Mo5 N10 1.907957 1_555
Mo5 N29 1.912149 1_455
Mo5 N5 1.912192 1_555
Mo5 N47 1.947782 1_555
Mo6 N8 1.907957 1_555
Mo6 N30 1.912149 1_655
Mo6 N6 1.912192 1_555
Mo6 N45 1.947782 1_555
Mo7 N11 1.907957 1_555
Mo7 N31 1.912149 1_555
Mo7 N7 1.912192 1_555
Mo7 N46 1.947782 1_555
Mo8 N1 1.907957 1_555
Mo8 N32 1.912149 1_555
Mo8 N8 1.912192 1_555
Mo8 N36 1.947782 1_555
Mo9 N2 1.907957 1_555
Mo9 N33 1.912149 1_545
Mo9 N9 1.912192 1_555
Mo9 N39 1.947782 1_555
Mo10 N0 1.907957 1_555
Mo10 N34 1.912149 1_565
Mo10 N10 1.912192 1_555
Mo10 N37 1.947782 1_555
Mo11 N3 1.907957 1_555
Mo11 N35 1.912149 1_555
Mo11 N11 1.912192 1_555
Mo11 N38 1.947782 1_555
Mo12 N17 1.907957 1_555
Mo12 N36 1.912149 1_555
Mo12 N12 1.912192 1_555
Mo12 N28 1.947782 1_555
Mo13 N18 1.907957 1_555
Mo13 N37 1.912149 1_556
Mo13 N13 1.912192 1_555
Mo13 N31 1.947782 1_555
Mo14 N16 1.907957 1_555
Mo14 N38 1.912149 1_554
Mo14 N14 1.912192 1_555
Mo14 N29 1.947782 1_555
Mo15 N19 1.907957 1_555
Mo15 N39 1.912149 1_555
Mo15 N15 1.912192 1_555
Mo15 N30 1.947782 1_555
Mo16 N21 1.907957 1_555
Mo16 N40 1.912149 1_555
Mo16 N16 1.912192 1_555
Mo16 N32 1.947782 1_555
Mo17 N22 1.907957 1_555
Mo17 N41 1.912149 1_655
Mo17 N17 1.912192 1_555
Mo17 N35 1.947782 1_555
Mo18 N20 1.907957 1_555
Mo18 N42 1.912149 1_455
Mo18 N18 1.912192 1_555
Mo18 N33 1.947782 1_555
Mo19 N23 1.907957 1_555
Mo19 N43 1.912149 1_555
Mo19 N19 1.912192 1_555
Mo19 N34 1.947782 1_555
Mo20 N13 1.907957 1_555
Mo20 N44 1.912149 1_555
Mo20 N20 1.912192 1_555
Mo20 N24 1.947782 1_555
Mo21 N14 1.907957 1_555
Mo21 N45 1.912149 1_565
Mo21 N21 1.912192 1_555
Mo21 N27 1.947782 1_555
Mo22 N12 1.907957 1_555
Mo22 N46 1.912149 1_545
Mo22 N22 1.912192 1_555
Mo22 N25 1.947782 1_555
Mo23 N15 1.907957 1_555
Mo23 N47 1.912149 1_555
Mo23 N23 1.912192 1_555
Mo23 N26 1.947782 1_555
