# generated using pymatgen
data_Pr9(Ni13P6)2
_symmetry_space_group_name_H-M   'P 1'
_cell_length_a   14.42436070
_cell_length_b   14.42436070
_cell_length_c   3.87631600
_cell_angle_alpha   90.00000000
_cell_angle_beta   90.00000000
_cell_angle_gamma   120.00000320
_symmetry_Int_Tables_number   1
_chemical_formula_structural   Pr9(Ni13P6)2
_chemical_formula_sum   'Pr9 Ni26 P12'
_cell_volume   698.46225107
_cell_formula_units_Z   1
loop_
 _symmetry_equiv_pos_site_id
 _symmetry_equiv_pos_as_xyz
  1  'x, y, z'
loop_
 _atom_site_type_symbol
 _atom_site_label
 _atom_site_symmetry_multiplicity
 _atom_site_fract_x
 _atom_site_fract_y
 _atom_site_fract_z
 _atom_site_occupancy
  Pr  Pr0  1  0.19104800  0.80895200  0.50000000  1
  Pr  Pr1  1  0.19104800  0.38209600  0.50000000  1
  Pr  Pr2  1  0.61790400  0.80895200  0.50000000  1
  Pr  Pr3  1  0.90753600  0.09246400  0.50000000  1
  Pr  Pr4  1  0.90753600  0.81507100  0.50000000  1
  Pr  Pr5  1  0.18492900  0.09246400  0.50000000  1
  Pr  Pr6  1  0.57551600  0.42448400  0.00000000  1
  Pr  Pr7  1  0.57551600  0.15103300  0.00000000  1
  Pr  Pr8  1  0.84896700  0.42448400  0.00000000  1
  Ni  Ni0  1  0.80901300  0.19098700  0.00000000  1
  Ni  Ni1  1  0.80901300  0.61802700  0.00000000  1
  Ni  Ni2  1  0.38197300  0.19098700  0.00000000  1
  Ni  Ni3  1  0.39987100  0.60012900  0.50000000  1
  Ni  Ni4  1  0.39987100  0.79974200  0.50000000  1
  Ni  Ni5  1  0.20025800  0.60012900  0.50000000  1
  Ni  Ni6  1  0.27806100  0.72193900  0.00000000  1
  Ni  Ni7  1  0.27806100  0.55612100  0.00000000  1
  Ni  Ni8  1  0.44387900  0.72193900  0.00000000  1
  Ni  Ni9  1  0.09803300  0.90196700  0.00000000  1
  Ni  Ni10  1  0.09803300  0.19606600  0.00000000  1
  Ni  Ni11  1  0.80393400  0.90196700  0.00000000  1
  Ni  Ni12  1  0.37960800  0.05204800  0.50000000  1
  Ni  Ni13  1  0.94795200  0.32756000  0.50000000  1
  Ni  Ni14  1  0.94795200  0.62039200  0.50000000  1
  Ni  Ni15  1  0.67244000  0.62039200  0.50000000  1
  Ni  Ni16  1  0.67244000  0.05204800  0.50000000  1
  Ni  Ni17  1  0.37960800  0.32756000  0.50000000  1
  Ni  Ni18  1  0.07645900  0.45469700  0.00000000  1
  Ni  Ni19  1  0.54530300  0.62176300  0.00000000  1
  Ni  Ni20  1  0.54530300  0.92354100  0.00000000  1
  Ni  Ni21  1  0.37823700  0.92354100  0.00000000  1
  Ni  Ni22  1  0.37823700  0.45469700  0.00000000  1
  Ni  Ni23  1  0.07645900  0.62176300  0.00000000  1
  Ni  Ni24  1  0.66666700  0.33333300  0.50000000  1
  Ni  Ni25  1  0.00000000  0.00000000  0.00000000  1
  P  P0  1  0.48635700  0.51364300  0.50000000  1
  P  P1  1  0.48635700  0.97271500  0.50000000  1
  P  P2  1  0.02728500  0.51364300  0.50000000  1
  P  P3  1  0.99598600  0.27576800  0.00000000  1
  P  P4  1  0.72423200  0.72021700  0.00000000  1
  P  P5  1  0.72423200  0.00401400  0.00000000  1
  P  P6  1  0.27978300  0.00401400  0.00000000  1
  P  P7  1  0.27978300  0.27576800  0.00000000  1
  P  P8  1  0.99598600  0.72021700  0.00000000  1
  P  P9  1  0.75923300  0.24076700  0.50000000  1
  P  P10  1  0.75923300  0.51846600  0.50000000  1
  P  P11  1  0.48153400  0.24076700  0.50000000  1
loop_
_geom_bond_atom_site_label_1
_geom_bond_atom_site_label_2
_geom_bond_distance
_geom_bond_site_symmetry_2
Ni0 P9 2.302872 1_555
Ni0 P9 2.302872 1_554
Ni0 P3 2.339014 1_555
Ni0 P5 2.339014 1_555
Ni0 Pr7 3.120067 1_555
Ni0 Pr8 3.120067 1_555
Ni0 Pr3 3.132938 1_554
Ni0 Pr3 3.132938 1_555
Ni1 P10 2.302879 1_555
Ni1 P10 2.302879 1_554
Ni1 P4 2.338988 1_555
Ni1 P8 2.339013 1_555
Ni1 Pr6 3.120067 1_555
Ni1 Pr8 3.120067 1_555
Ni1 Pr4 3.132918 1_554
Ni1 Pr4 3.132918 1_555
Ni2 P11 2.302879 1_555
Ni2 P11 2.302879 1_554
Ni2 P7 2.338988 1_555
Ni2 P6 2.339013 1_555
Ni2 Pr6 3.120067 1_555
Ni2 Pr7 3.120067 1_555
Ni2 Pr5 3.132918 1_554
Ni2 Pr5 3.132918 1_555
Ni3 P0 2.160743 1_555
Ni3 Ni7 2.476132 1_555
Ni3 Ni7 2.476132 1_556
Ni3 Ni8 2.476132 1_555
Ni3 Ni8 2.476132 1_556
Ni3 Pr2 3.080711 1_555
Ni3 Pr1 3.080711 1_555
Ni4 P1 2.160755 1_555
Ni4 Ni6 2.476133 1_555
Ni4 Ni6 2.476133 1_556
Ni4 Ni8 2.476140 1_555
Ni4 Ni8 2.476140 1_556
Ni4 Pr2 3.080711 1_555
Ni4 Pr0 3.080711 1_555
Ni5 P2 2.160755 1_555
Ni5 Ni6 2.476133 1_555
Ni5 Ni6 2.476133 1_556
Ni5 Ni7 2.476140 1_555
Ni5 Ni7 2.476140 1_556
Ni5 Pr1 3.080711 1_555
Ni5 Pr0 3.080711 1_555
Ni6 Ni8 2.391819 1_555
Ni6 Ni7 2.391819 1_555
Ni6 Pr0 2.912445 1_555
Ni6 Pr0 2.912445 1_554
Ni7 Ni8 2.391819 1_555
Ni7 Pr1 2.912436 1_554
Ni7 Pr1 2.912436 1_555
Ni8 Pr2 2.912436 1_555
Ni8 Pr2 2.912436 1_554
Ni9 P6 2.276108 1_565
Ni9 P8 2.276108 1_455
Ni9 Pr0 3.026018 1_555
Ni9 Pr0 3.026018 1_554
Ni9 Pr5 3.071443 1_564
Ni9 Pr5 3.071443 1_565
Ni9 Pr4 3.071443 1_454
Ni9 Pr4 3.071443 1_455
Ni10 P3 2.276096 1_455
Ni10 P7 2.276109 1_555
Ni10 Ni25 2.449229 1_555
Ni10 Pr1 3.026018 1_554
Ni10 Pr1 3.026018 1_555
Ni10 Pr3 3.071444 1_454
Ni10 Pr3 3.071444 1_455
Ni10 Pr5 3.071453 1_555
Ni10 Pr5 3.071453 1_554
Ni11 P5 2.276096 1_565
Ni11 P4 2.276109 1_555
Ni11 Ni25 2.449229 1_665
Ni11 Pr2 3.026018 1_554
Ni11 Pr2 3.026018 1_555
Ni11 Pr3 3.071444 1_564
Ni11 Pr3 3.071444 1_565
Ni11 Pr4 3.071453 1_555
Ni11 Pr4 3.071453 1_554
Ni12 P6 2.304821 1_556
Ni12 P6 2.304821 1_555
Ni12 P1 2.332905 1_545
Ni12 P11 2.359977 1_555
Ni12 Pr7 3.121817 1_556
Ni12 Pr7 3.121817 1_555
Ni12 Pr5 3.140456 1_555
Ni12 Pr0 3.186849 1_545
Ni13 P3 2.304828 1_555
Ni13 P3 2.304828 1_556
Ni13 P2 2.332918 1_655
Ni13 P9 2.359977 1_555
Ni13 Pr8 3.121826 1_555
Ni13 Pr8 3.121826 1_556
Ni13 Pr3 3.140470 1_555
Ni13 Pr1 3.186849 1_655
Ni14 P8 2.304821 1_556
Ni14 P8 2.304821 1_555
Ni14 P2 2.332905 1_655
Ni14 P10 2.359977 1_555
Ni14 Pr8 3.121817 1_556
Ni14 Pr8 3.121817 1_555
Ni14 Pr4 3.140456 1_555
Ni14 Pr0 3.186849 1_655
Ni15 P4 2.304821 1_555
Ni15 P4 2.304821 1_556
Ni15 P0 2.332917 1_555
Ni15 P10 2.359977 1_555
Ni15 Pr6 3.121816 1_556
Ni15 Pr6 3.121816 1_555
Ni15 Pr4 3.140465 1_555
Ni15 Pr2 3.186849 1_555
Ni16 P5 2.304828 1_555
Ni16 P5 2.304828 1_556
Ni16 P1 2.332918 1_545
Ni16 P9 2.359977 1_555
Ni16 Pr7 3.121826 1_555
Ni16 Pr7 3.121826 1_556
Ni16 Pr3 3.140470 1_555
Ni16 Pr2 3.186849 1_545
Ni17 P7 2.304821 1_556
Ni17 P7 2.304821 1_555
Ni17 P0 2.332917 1_555
Ni17 P11 2.359977 1_555
Ni17 Pr6 3.121816 1_555
Ni17 Pr6 3.121816 1_556
Ni17 Pr5 3.140465 1_555
Ni17 Pr1 3.186849 1_555
Ni18 P3 2.238916 1_455
Ni18 P2 2.363387 1_554
Ni18 P2 2.363387 1_555
Ni18 Ni7 2.518400 1_555
Ni18 Pr1 3.052220 1_555
Ni18 Pr1 3.052220 1_554
Ni18 Pr8 3.086686 1_455
Ni19 P4 2.238914 1_555
Ni19 P0 2.363387 1_554
Ni19 P0 2.363387 1_555
Ni19 Ni8 2.518376 1_555
Ni19 Pr2 3.052210 1_555
Ni19 Pr2 3.052210 1_554
Ni19 Pr6 3.086686 1_555
Ni20 P5 2.238916 1_565
Ni20 P1 2.363387 1_554
Ni20 P1 2.363387 1_555
Ni20 Ni8 2.518400 1_555
Ni20 Pr2 3.052220 1_554
Ni20 Pr2 3.052220 1_555
Ni20 Pr7 3.086686 1_565
Ni21 P6 2.238890 1_565
Ni21 P1 2.363387 1_554
Ni21 P1 2.363387 1_555
Ni21 Ni6 2.518401 1_555
Ni21 Pr0 3.052211 1_555
Ni21 Pr0 3.052211 1_554
Ni21 Pr7 3.086686 1_565
Ni22 P7 2.238914 1_555
Ni22 P0 2.363387 1_555
Ni22 P0 2.363387 1_554
Ni22 Ni7 2.518376 1_555
Ni22 Pr1 3.052210 1_555
Ni22 Pr1 3.052210 1_554
Ni22 Pr6 3.086686 1_555
Ni23 P8 2.238890 1_455
Ni23 P2 2.363387 1_554
Ni23 P2 2.363387 1_555
Ni23 Ni6 2.518401 1_555
Ni23 Pr0 3.052211 1_555
Ni23 Pr0 3.052211 1_554
Ni23 Pr8 3.086686 1_455
Ni24 P9 2.312644 1_555
Ni24 P10 2.312656 1_555
Ni24 P11 2.312656 1_555
Ni24 Pr8 2.990384 1_556
Ni24 Pr8 2.990384 1_555
Ni24 Pr7 2.990384 1_556
Ni24 Pr7 2.990384 1_555
Ni24 Pr6 2.990404 1_555
Ni24 Pr6 2.990404 1_556
Ni25 Ni9 2.449230 1_545
Ni25 Pr3 3.015460 1_455
Ni25 Pr3 3.015460 1_454
Ni25 Pr5 3.015469 1_555
Ni25 Pr5 3.015469 1_554
Ni25 Pr4 3.015469 1_444
Ni25 Pr4 3.015469 1_445
P0 Pr6 2.952680 1_555
P0 Pr6 2.952680 1_556
P1 Pr7 2.952680 1_566
P1 Pr7 2.952680 1_565
P2 Pr8 2.952680 1_456
P2 Pr8 2.952680 1_455
P3 Pr3 3.000302 1_554
P3 Pr3 3.000302 1_555
P3 Pr1 3.116088 1_655
P3 Pr1 3.116088 1_654
P4 Pr4 3.000302 1_555
P4 Pr4 3.000302 1_554
P4 Pr2 3.116098 1_554
P4 Pr2 3.116098 1_555
P5 Pr3 3.000302 1_554
P5 Pr3 3.000302 1_555
P5 Pr2 3.116088 1_544
P5 Pr2 3.116088 1_545
P6 Pr5 3.000302 1_555
P6 Pr5 3.000302 1_554
P6 Pr0 3.116087 1_545
P6 Pr0 3.116087 1_544
P7 Pr5 3.000302 1_554
P7 Pr5 3.000302 1_555
P7 Pr1 3.116098 1_555
P7 Pr1 3.116098 1_554
P8 Pr4 3.000302 1_554
P8 Pr4 3.000302 1_555
P8 Pr0 3.116087 1_655
P8 Pr0 3.116087 1_654
P9 Pr7 3.004042 1_556
P9 Pr7 3.004042 1_555
P9 Pr8 3.004042 1_556
P9 Pr8 3.004042 1_555
P10 Pr8 3.004033 1_556
P10 Pr8 3.004033 1_555
P10 Pr6 3.004042 1_555
P10 Pr6 3.004042 1_556
P11 Pr7 3.004033 1_556
P11 Pr7 3.004033 1_555
P11 Pr6 3.004042 1_556
P11 Pr6 3.004042 1_555
