# generated using pymatgen
data_Se2NO6
_symmetry_space_group_name_H-M   'P 1'
_cell_length_a   6.17141400
_cell_length_b   6.41713500
_cell_length_c   19.61123800
_cell_angle_alpha   90.00000000
_cell_angle_beta   90.00000000
_cell_angle_gamma   90.00000000
_symmetry_Int_Tables_number   1
_chemical_formula_structural   Se2NO6
_chemical_formula_sum   'Se8 N4 O24'
_cell_volume   776.65987310
_cell_formula_units_Z   4
loop_
 _symmetry_equiv_pos_site_id
 _symmetry_equiv_pos_as_xyz
  1  'x, y, z'
loop_
 _atom_site_type_symbol
 _atom_site_label
 _atom_site_symmetry_multiplicity
 _atom_site_fract_x
 _atom_site_fract_y
 _atom_site_fract_z
 _atom_site_occupancy
  Se  Se0  1  0.97719400  0.46449900  0.68010500  1
  Se  Se1  1  0.02280600  0.96449900  0.81989500  1
  Se  Se2  1  0.52280600  0.53550100  0.18010500  1
  Se  Se3  1  0.47719400  0.03550100  0.31989500  1
  Se  Se4  1  0.03825800  0.45697600  0.98860300  1
  Se  Se5  1  0.96174200  0.95697600  0.51139700  1
  Se  Se6  1  0.46174200  0.54302400  0.48860300  1
  Se  Se7  1  0.53825800  0.04302400  0.01139700  1
  N  N0  1  0.47218600  0.96916800  0.67103300  1
  N  N1  1  0.52781400  0.46916800  0.82896700  1
  N  N2  1  0.02781400  0.03083200  0.17103300  1
  N  N3  1  0.97218600  0.53083200  0.32896700  1
  O  O0  1  0.79263100  0.29126600  0.69726400  1
  O  O1  1  0.20736900  0.79126600  0.80273600  1
  O  O2  1  0.70736900  0.70873400  0.19726400  1
  O  O3  1  0.29263100  0.20873400  0.30273600  1
  O  O4  1  0.91473100  0.71104100  0.67776700  1
  O  O5  1  0.08526900  0.21104100  0.82223300  1
  O  O6  1  0.58526900  0.28895900  0.17776700  1
  O  O7  1  0.41473100  0.78895900  0.32223300  1
  O  O8  1  0.22339500  0.38891700  0.66262600  1
  O  O9  1  0.77660500  0.88891700  0.83737400  1
  O  O10  1  0.27660500  0.61108300  0.16262600  1
  O  O11  1  0.72339500  0.11108300  0.33737400  1
  O  O12  1  0.98686800  0.43481500  0.07439400  1
  O  O13  1  0.01313200  0.93481500  0.42560600  1
  O  O14  1  0.51313200  0.56518500  0.57439400  1
  O  O15  1  0.48686800  0.06518500  0.92560600  1
  O  O16  1  0.89653300  0.69691100  0.52038400  1
  O  O17  1  0.10346700  0.19691100  0.97961600  1
  O  O18  1  0.60346700  0.30308900  0.02038400  1
  O  O19  1  0.39653300  0.80308900  0.47961600  1
  O  O20  1  0.24700600  0.61363300  0.97195700  1
  O  O21  1  0.75299400  0.11363300  0.52804300  1
  O  O22  1  0.25299400  0.38636700  0.47195700  1
  O  O23  1  0.74700600  0.88636700  0.02804300  1
loop_
_geom_bond_atom_site_label_1
_geom_bond_atom_site_label_2
_geom_bond_distance
_geom_bond_site_symmetry_2
O0 Se0 1.626770 1_555
O1 Se1 1.626770 1_555
O2 Se2 1.626770 1_555
O3 Se3 1.626770 1_555
O4 Se0 1.629024 1_555
O5 Se1 1.629024 1_545
O6 Se2 1.629024 1_555
O7 Se3 1.629024 1_565
O8 Se0 1.631364 1_455
O9 Se1 1.631364 1_655
O10 Se2 1.631364 1_555
O11 Se3 1.631364 1_555
O12 Se4 1.717994 1_654
O13 Se5 1.717994 1_455
O14 Se6 1.717994 1_555
O15 Se7 1.717994 1_556
O16 Se5 1.725731 1_555
O17 Se4 1.725731 1_555
O18 Se7 1.725731 1_555
O19 Se6 1.725731 1_555
O20 Se4 1.666378 1_555
O21 Se5 1.666378 1_545
O22 Se6 1.666378 1_555
O23 Se7 1.666378 1_565
