# generated using pymatgen
data_La2Ga7Co
_symmetry_space_group_name_H-M   'P 1'
_cell_length_a   4.29021700
_cell_length_b   4.29021700
_cell_length_c   10.67022700
_cell_angle_alpha   90.00000000
_cell_angle_beta   90.00000000
_cell_angle_gamma   90.00000000
_symmetry_Int_Tables_number   1
_chemical_formula_structural   La2Ga7Co
_chemical_formula_sum   'La2 Ga7 Co1'
_cell_volume   196.39579170
_cell_formula_units_Z   1
loop_
 _symmetry_equiv_pos_site_id
 _symmetry_equiv_pos_as_xyz
  1  'x, y, z'
loop_
 _atom_site_type_symbol
 _atom_site_label
 _atom_site_symmetry_multiplicity
 _atom_site_fract_x
 _atom_site_fract_y
 _atom_site_fract_z
 _atom_site_occupancy
  La  La0  1  0.50000000  0.00000000  0.75681200  1
  La  La1  1  0.00000000  0.50000000  0.24318800  1
  Ga  Ga0  1  0.00000000  0.50000000  0.87991000  1
  Ga  Ga1  1  0.50000000  0.00000000  0.35910900  1
  Ga  Ga2  1  0.50000000  0.00000000  0.12009000  1
  Ga  Ga3  1  0.00000000  0.50000000  0.64089100  1
  Ga  Ga4  1  0.00000000  0.00000000  0.50000000  1
  Ga  Ga5  1  0.00000000  0.00000000  0.00000000  1
  Ga  Ga6  1  0.50000000  0.50000000  0.50000000  1
  Co  Co0  1  0.50000000  0.50000000  0.00000000  1
loop_
_geom_bond_atom_site_label_1
_geom_bond_atom_site_label_2
_geom_bond_distance
_geom_bond_site_symmetry_2
Ga0 Ga5 2.498689 1_556
Ga0 Ga5 2.498689 1_566
Ga0 Ga3 2.550387 1_555
Ga0 La0 3.305786 1_565
Ga0 La0 3.305786 1_465
Ga0 La0 3.305786 1_455
Ga0 La0 3.305786 1_555
Ga1 Ga2 2.550387 1_555
Ga1 Ga4 2.619450 1_655
Ga1 Ga6 2.619450 1_555
Ga1 Ga4 2.619450 1_555
Ga1 Ga6 2.619450 1_545
Ga1 La1 3.276112 1_655
Ga1 La1 3.276112 1_645
Ga1 La1 3.276112 1_555
Ga1 La1 3.276112 1_545
Ga2 Ga5 2.498689 1_555
Ga2 Ga5 2.498689 1_655
Ga2 La1 3.305786 1_645
Ga2 La1 3.305786 1_555
Ga2 La1 3.305786 1_655
Ga2 La1 3.305786 1_545
Ga3 Ga6 2.619450 1_555
Ga3 Ga4 2.619450 1_555
Ga3 Ga6 2.619450 1_455
Ga3 Ga4 2.619450 1_565
Ga3 La0 3.276112 1_455
Ga3 La0 3.276112 1_565
Ga3 La0 3.276112 1_555
Ga3 La0 3.276112 1_465
Ga4 Ga6 3.033642 1_455
Ga4 Ga6 3.033642 1_545
Ga4 Ga6 3.033642 1_555
Ga4 Ga6 3.033642 1_445
Ga4 La0 3.480003 1_555
Ga4 La0 3.480003 1_455
Ga4 La1 3.480003 1_555
Ga4 La1 3.480003 1_545
Ga5 La1 3.366726 1_555
Ga5 La1 3.366726 1_545
Ga5 La0 3.366726 1_454
Ga5 La0 3.366726 1_554
Ga6 La0 3.480003 1_555
Ga6 La0 3.480003 1_565
Ga6 La1 3.480003 1_555
Ga6 La1 3.480003 1_655
Co0 Ga0 2.498689 1_554
Co0 Ga0 2.498689 1_654
Co0 Ga2 2.498689 1_565
Co0 Ga2 2.498689 1_555
Co0 Ga5 3.033642 1_655
Co0 Ga5 3.033642 1_565
Co0 Ga5 3.033642 1_665
Co0 Ga5 3.033642 1_555
Co0 La1 3.366726 1_555
Co0 La1 3.366726 1_655
Co0 La0 3.366726 1_564
Co0 La0 3.366726 1_554
