# generated using pymatgen
data_Tm(GeRh2)2
_symmetry_space_group_name_H-M   'P 1'
_cell_length_a   4.15975512
_cell_length_b   9.09879753
_cell_length_c   11.35138180
_cell_angle_alpha   90.00000000
_cell_angle_beta   90.00000000
_cell_angle_gamma   90.00000000
_symmetry_Int_Tables_number   1
_chemical_formula_structural   Tm(GeRh2)2
_chemical_formula_sum   'Tm4 Ge8 Rh16'
_cell_volume   429.63583452
_cell_formula_units_Z   4
loop_
 _symmetry_equiv_pos_site_id
 _symmetry_equiv_pos_as_xyz
  1  'x, y, z'
loop_
 _atom_site_type_symbol
 _atom_site_label
 _atom_site_symmetry_multiplicity
 _atom_site_fract_x
 _atom_site_fract_y
 _atom_site_fract_z
 _atom_site_occupancy
  Tm  Tm0  1  0.25000000  0.14819129  0.82583952  1
  Tm  Tm1  1  0.25000000  0.35180871  0.32583952  1
  Tm  Tm2  1  0.75000000  0.85180871  0.17416048  1
  Tm  Tm3  1  0.75000000  0.64819129  0.67416048  1
  Ge  Ge0  1  0.25000000  0.41448743  0.63861407  1
  Ge  Ge1  1  0.25000000  0.08551257  0.13861407  1
  Ge  Ge2  1  0.75000000  0.58551257  0.36138593  1
  Ge  Ge3  1  0.75000000  0.91448743  0.86138593  1
  Ge  Ge4  1  0.25000000  0.61844541  0.05932668  1
  Ge  Ge5  1  0.25000000  0.88155459  0.55932668  1
  Ge  Ge6  1  0.75000000  0.38155459  0.94067332  1
  Ge  Ge7  1  0.75000000  0.11844541  0.44067332  1
  Rh  Rh0  1  0.25000000  0.61561913  0.49893506  1
  Rh  Rh1  1  0.25000000  0.88438087  0.99893506  1
  Rh  Rh2  1  0.75000000  0.38438087  0.50106494  1
  Rh  Rh3  1  0.75000000  0.11561913  0.00106494  1
  Rh  Rh4  1  0.25000000  0.69194165  0.26861557  1
  Rh  Rh5  1  0.25000000  0.80805835  0.76861557  1
  Rh  Rh6  1  0.75000000  0.30805835  0.73138443  1
  Rh  Rh7  1  0.75000000  0.19194165  0.23138443  1
  Rh  Rh8  1  0.25000000  0.17143809  0.56152797  1
  Rh  Rh9  1  0.25000000  0.32856191  0.06152797  1
  Rh  Rh10  1  0.75000000  0.82856191  0.43847203  1
  Rh  Rh11  1  0.75000000  0.67143809  0.93847203  1
  Rh  Rh12  1  0.25000000  0.00450286  0.34450664  1
  Rh  Rh13  1  0.25000000  0.49549714  0.84450664  1
  Rh  Rh14  1  0.75000000  0.99549714  0.65549336  1
  Rh  Rh15  1  0.75000000  0.50450286  0.15549336  1
loop_
_geom_bond_atom_site_label_1
_geom_bond_atom_site_label_2
_geom_bond_distance
_geom_bond_site_symmetry_2
Ge0 Rh8 2.378282 1_555
Ge0 Rh0 2.421379 1_555
Ge0 Rh13 2.450642 1_555
Ge0 Rh6 2.524402 1_555
Ge0 Rh6 2.524402 1_455
Ge0 Rh2 2.615113 1_555
Ge0 Rh2 2.615113 1_455
Ge0 Tm3 3.001730 1_455
Ge0 Tm3 3.001730 1_555
Ge1 Rh9 2.378282 1_555
Ge1 Rh1 2.421379 1_544
Ge1 Rh12 2.450642 1_555
Ge1 Rh7 2.524402 1_455
Ge1 Rh7 2.524402 1_555
Ge1 Rh3 2.615113 1_555
Ge1 Rh3 2.615113 1_455
Ge1 Tm2 3.001730 1_545
Ge1 Tm2 3.001730 1_445
Ge2 Rh10 2.378282 1_555
Ge2 Rh2 2.421379 1_555
Ge2 Rh15 2.450642 1_555
Ge2 Rh4 2.524402 1_555
Ge2 Rh4 2.524402 1_655
Ge2 Rh0 2.615113 1_555
Ge2 Rh0 2.615113 1_655
Ge2 Tm1 3.001730 1_655
Ge2 Tm1 3.001730 1_555
Ge3 Rh11 2.378282 1_555
Ge3 Rh3 2.421379 1_566
Ge3 Rh14 2.450642 1_555
Ge3 Rh5 2.524402 1_555
Ge3 Rh5 2.524402 1_655
Ge3 Rh1 2.615113 1_655
Ge3 Rh1 2.615113 1_555
Ge3 Tm0 3.001730 1_565
Ge3 Tm0 3.001730 1_665
Ge4 Rh4 2.468042 1_555
Ge4 Rh1 2.514928 1_554
Ge4 Rh11 2.537794 1_554
Ge4 Rh11 2.537794 1_454
Ge4 Rh15 2.567560 1_555
Ge4 Rh15 2.567560 1_455
Ge4 Rh9 2.637710 1_555
Ge4 Rh13 2.682863 1_554
Ge5 Rh5 2.468042 1_555
Ge5 Rh0 2.514928 1_555
Ge5 Rh10 2.537794 1_455
Ge5 Rh10 2.537794 1_555
Ge5 Rh14 2.567560 1_555
Ge5 Rh14 2.567560 1_455
Ge5 Rh8 2.637710 1_565
Ge5 Rh12 2.682863 1_565
Ge6 Rh6 2.468042 1_555
Ge6 Rh3 2.514928 1_556
Ge6 Rh9 2.537794 1_656
Ge6 Rh9 2.537794 1_556
Ge6 Rh13 2.567560 1_555
Ge6 Rh13 2.567560 1_655
Ge6 Rh11 2.637710 1_555
Ge6 Rh15 2.682863 1_556
Ge7 Rh7 2.468042 1_555
Ge7 Rh2 2.514928 1_555
Ge7 Rh8 2.537794 1_655
Ge7 Rh8 2.537794 1_555
Ge7 Rh12 2.567560 1_655
Ge7 Rh12 2.567560 1_555
Ge7 Rh10 2.637710 1_545
Ge7 Rh14 2.682863 1_545
Rh0 Tm3 2.893103 1_455
Rh0 Tm3 2.893103 1_555
Rh0 Tm1 3.102007 1_555
Rh1 Tm2 2.893103 1_456
Rh1 Tm2 2.893103 1_556
Rh1 Tm0 3.102007 1_565
Rh2 Tm1 2.893103 1_655
Rh2 Tm1 2.893103 1_555
Rh2 Tm3 3.102007 1_555
Rh3 Tm0 2.893103 1_654
Rh3 Tm0 2.893103 1_554
Rh3 Tm2 3.102007 1_545
Rh4 Tm2 2.755240 1_455
Rh4 Tm2 2.755240 1_555
Rh4 Tm1 3.162236 1_555
Rh5 Tm3 2.755240 1_555
Rh5 Tm3 2.755240 1_455
Rh5 Tm0 3.162236 1_565
Rh6 Tm0 2.755240 1_555
Rh6 Tm0 2.755240 1_655
Rh6 Tm3 3.162236 1_555
Rh7 Tm1 2.755240 1_655
Rh7 Tm1 2.755240 1_555
Rh7 Tm2 3.162236 1_545
Rh8 Tm0 3.007748 1_555
Rh8 Tm1 3.138646 1_555
Rh9 Tm1 3.007748 1_555
Rh9 Tm0 3.138646 1_554
Rh10 Rh12 2.833078 1_565
Rh10 Rh12 2.833078 1_665
Rh10 Rh14 2.894111 1_555
Rh10 Tm2 3.007748 1_555
Rh10 Tm3 3.138646 1_555
Rh11 Rh13 2.833078 1_555
Rh11 Rh13 2.833078 1_655
Rh11 Rh15 2.894111 1_556
Rh11 Tm3 3.007748 1_555
Rh11 Tm2 3.138646 1_556
Rh12 Rh8 2.894111 1_555
Rh12 Rh4 2.971544 1_545
Rh12 Rh7 2.980504 1_555
Rh12 Rh7 2.980504 1_455
Rh12 Tm2 3.161518 1_445
Rh12 Tm2 3.161518 1_545
Rh12 Tm1 3.167162 1_555
Rh13 Rh9 2.894111 1_556
Rh13 Rh5 2.971544 1_555
Rh13 Rh6 2.980504 1_455
Rh13 Rh6 2.980504 1_555
Rh13 Tm3 3.161518 1_555
Rh13 Tm3 3.161518 1_455
Rh13 Tm0 3.167162 1_555
Rh14 Rh8 2.833078 1_565
Rh14 Rh8 2.833078 1_665
Rh14 Rh6 2.971544 1_565
Rh14 Rh5 2.980504 1_555
Rh14 Rh5 2.980504 1_655
Rh14 Tm0 3.161518 1_665
Rh14 Tm0 3.161518 1_565
Rh14 Tm3 3.167162 1_555
Rh15 Rh9 2.833078 1_555
Rh15 Rh9 2.833078 1_655
Rh15 Rh7 2.971544 1_555
Rh15 Rh4 2.980504 1_655
Rh15 Rh4 2.980504 1_555
Rh15 Tm1 3.161518 1_655
Rh15 Tm1 3.161518 1_555
Rh15 Tm2 3.167162 1_555
