# generated using pymatgen
data_Sr9In(PO4)7
_symmetry_space_group_name_H-M   'P 1'
_cell_length_a   9.12805498
_cell_length_b   9.12805498
_cell_length_c   18.29125966
_cell_angle_alpha   71.96826015
_cell_angle_beta   71.96826015
_cell_angle_gamma   72.55489857
_symmetry_Int_Tables_number   1
_chemical_formula_structural   Sr9In(PO4)7
_chemical_formula_sum   'Sr18 In2 P14 O56'
_cell_volume   1342.50020771
_cell_formula_units_Z   2
loop_
 _symmetry_equiv_pos_site_id
 _symmetry_equiv_pos_as_xyz
  1  'x, y, z'
loop_
 _atom_site_type_symbol
 _atom_site_label
 _atom_site_symmetry_multiplicity
 _atom_site_fract_x
 _atom_site_fract_y
 _atom_site_fract_z
 _atom_site_occupancy
  Sr  Sr0  1  0.95464000  0.50509200  0.25305800  1
  Sr  Sr1  1  0.49598700  0.04018100  0.24966900  1
  Sr  Sr2  1  0.04018100  0.49598700  0.74966900  1
  Sr  Sr3  1  0.50509200  0.95464000  0.75305800  1
  Sr  Sr4  1  0.15868600  0.72835200  0.86023300  1
  Sr  Sr5  1  0.27019700  0.84535600  0.64021600  1
  Sr  Sr6  1  0.84535600  0.27019700  0.14021600  1
  Sr  Sr7  1  0.72835200  0.15868600  0.36023300  1
  Sr  Sr8  1  0.28720500  0.28256000  0.41238000  1
  Sr  Sr9  1  0.71990000  0.71397400  0.08750900  1
  Sr  Sr10  1  0.71397400  0.71990000  0.58750900  1
  Sr  Sr11  1  0.28256000  0.28720500  0.91238000  1
  Sr  Sr12  1  0.16502400  0.72013300  0.36510500  1
  Sr  Sr13  1  0.27897600  0.83846800  0.13586900  1
  Sr  Sr14  1  0.83846800  0.27897600  0.63586900  1
  Sr  Sr15  1  0.72013300  0.16502400  0.86510500  1
  Sr  Sr16  1  0.49512700  0.49293500  0.51469400  1
  Sr  Sr17  1  0.49293500  0.49512700  0.01469400  1
  In  In0  1  0.00091700  0.00052500  0.49977100  1
  In  In1  1  0.00052500  0.00091700  0.99977100  1
  P  P0  1  0.10433700  0.11565100  0.79393300  1
  P  P1  1  0.88434800  0.89601800  0.70623900  1
  P  P2  1  0.89601800  0.88434800  0.20623900  1
  P  P3  1  0.11565100  0.10433700  0.29393300  1
  P  P4  1  0.41244300  0.89416900  0.94317200  1
  P  P5  1  0.10556200  0.58662300  0.55779500  1
  P  P6  1  0.58662300  0.10556200  0.05779500  1
  P  P7  1  0.89416900  0.41244300  0.44317200  1
  P  P8  1  0.41193700  0.88601400  0.44854500  1
  P  P9  1  0.11314600  0.58815500  0.05222600  1
  P  P10  1  0.58815500  0.11314600  0.55222600  1
  P  P11  1  0.88601400  0.41193700  0.94854500  1
  P  P12  1  0.47313200  0.52590800  0.74810400  1
  P  P13  1  0.52590800  0.47313200  0.24810400  1
  O  O0  1  0.61527900  0.21100500  0.59992400  1
  O  O1  1  0.78998300  0.38321200  0.90084000  1
  O  O2  1  0.38321200  0.78998300  0.40084000  1
  O  O3  1  0.21100500  0.61527900  0.09992400  1
  O  O4  1  0.61306900  0.20684000  0.10474800  1
  O  O5  1  0.79557900  0.38325300  0.39610700  1
  O  O6  1  0.38325300  0.79557900  0.89610700  1
  O  O7  1  0.20684000  0.61306900  0.60474800  1
  O  O8  1  0.47636100  0.57949800  0.17093900  1
  O  O9  1  0.41252700  0.52858000  0.32208700  1
  O  O10  1  0.52858000  0.41252700  0.82208700  1
  O  O11  1  0.57949800  0.47636100  0.67093900  1
  O  O12  1  0.50404900  0.97431200  0.11646100  1
  O  O13  1  0.02444300  0.49703200  0.38491700  1
  O  O14  1  0.49703200  0.02444300  0.88491700  1
  O  O15  1  0.97431200  0.50404900  0.61646100  1
  O  O16  1  0.22686300  0.50546000  0.98641300  1
  O  O17  1  0.49316600  0.77368700  0.51527100  1
  O  O18  1  0.77368700  0.49316600  0.01527100  1
  O  O19  1  0.50546000  0.22686300  0.48641300  1
  O  O20  1  0.21581100  0.49516500  0.49538500  1
  O  O21  1  0.50223000  0.78410100  0.00635600  1
  O  O22  1  0.78410100  0.50223000  0.50635600  1
  O  O23  1  0.49516500  0.21581100  0.99538500  1
  O  O24  1  0.70333500  0.47520000  0.23452700  1
  O  O25  1  0.52713900  0.29405800  0.26423600  1
  O  O26  1  0.29405800  0.52713900  0.76423600  1
  O  O27  1  0.47520000  0.70333500  0.73452700  1
  O  O28  1  0.01452900  0.01957000  0.87597900  1
  O  O29  1  0.98018000  0.98569000  0.62406100  1
  O  O30  1  0.98569000  0.98018000  0.12406100  1
  O  O31  1  0.01957000  0.01452900  0.37597900  1
  O  O32  1  0.24862100  0.98287300  0.49263600  1
  O  O33  1  0.01782000  0.75173800  0.00811200  1
  O  O34  1  0.75173800  0.01782000  0.50811200  1
  O  O35  1  0.98287300  0.24862100  0.99263600  1
  O  O36  1  0.98948000  0.21400100  0.24907400  1
  O  O37  1  0.78665400  0.01070200  0.25099400  1
  O  O38  1  0.01070200  0.78665400  0.75099400  1
  O  O39  1  0.21400100  0.98948000  0.74907400  1
  O  O40  1  0.49614400  0.98757000  0.60783500  1
  O  O41  1  0.01152700  0.50497300  0.89344900  1
  O  O42  1  0.50497300  0.01152700  0.39344900  1
  O  O43  1  0.98757000  0.49614400  0.10783500  1
  O  O44  1  0.79788400  0.78861700  0.19253200  1
  O  O45  1  0.21182700  0.20195600  0.30764800  1
  O  O46  1  0.20195600  0.21182700  0.80764800  1
  O  O47  1  0.78861700  0.79788400  0.69253200  1
  O  O48  1  0.24975000  0.98494000  0.99016700  1
  O  O49  1  0.01640700  0.74991500  0.51090900  1
  O  O50  1  0.74991500  0.01640700  0.01090900  1
  O  O51  1  0.98494000  0.24975000  0.49016700  1
  O  O52  1  0.97419200  0.22892700  0.75215100  1
  O  O53  1  0.77079800  0.02639700  0.74772400  1
  O  O54  1  0.02639700  0.77079800  0.24772400  1
  O  O55  1  0.22892700  0.97419200  0.25215100  1
loop_
_geom_bond_atom_site_label_1
_geom_bond_atom_site_label_2
_geom_bond_distance
_geom_bond_site_symmetry_2
In0 O32 2.183406 1_545
In0 O31 2.183487 1_555
In0 O29 2.186544 1_445
In0 O51 2.190206 1_455
In0 O34 2.192355 1_455
In0 O49 2.197704 1_545
In1 O35 2.183406 1_455
In1 O28 2.183487 1_555
In1 O30 2.186544 1_446
In1 O48 2.190206 1_545
In1 O33 2.192355 1_546
In1 O50 2.197704 1_456
O0 P10 1.539223 1_555
O0 Sr14 2.609104 1_555
O0 Sr16 2.671790 1_555
O0 Sr3 3.153190 1_545
O1 P11 1.533468 1_555
O1 Sr15 2.574042 1_555
O1 Sr17 2.982123 1_556
O1 Sr2 3.107931 1_655
O2 P8 1.533468 1_555
O2 Sr12 2.574042 1_555
O2 Sr16 2.982123 1_555
O2 Sr1 3.107931 1_565
O3 P9 1.539223 1_555
O3 Sr13 2.609104 1_555
O3 Sr17 2.671790 1_555
O3 Sr0 3.153190 1_455
O4 P6 1.550548 1_555
O4 Sr6 2.658994 1_555
O4 Sr1 2.684693 1_555
O4 Sr17 2.746839 1_555
O5 P7 1.545120 1_555
O5 Sr7 2.616351 1_555
O5 Sr0 2.646881 1_555
O5 Sr16 3.040425 1_555
O6 P4 1.545120 1_555
O6 Sr4 2.616351 1_555
O6 Sr3 2.646881 1_555
O6 Sr17 3.040425 1_556
O7 P5 1.550548 1_555
O7 Sr5 2.658994 1_555
O7 Sr2 2.684693 1_555
O7 Sr16 2.746839 1_555
O8 P13 1.556572 1_555
O8 Sr13 2.543384 1_555
O8 Sr9 2.674638 1_555
O8 Sr17 3.131898 1_555
O9 P13 1.549661 1_555
O9 Sr12 2.482578 1_555
O9 Sr8 2.674679 1_555
O10 P12 1.549661 1_555
O10 Sr15 2.482578 1_555
O10 Sr11 2.674679 1_555
O11 P12 1.556572 1_555
O11 Sr14 2.543384 1_555
O11 Sr10 2.674638 1_555
O11 Sr16 3.131898 1_555
O12 P6 1.549116 1_565
O12 Sr13 2.586099 1_555
O12 Sr1 2.659526 1_565
O12 Sr9 2.671232 1_555
O13 P7 1.549967 1_455
O13 Sr12 2.597566 1_555
O13 Sr0 2.653662 1_455
O13 Sr8 2.675723 1_555
O14 P4 1.549967 1_545
O14 Sr15 2.597566 1_555
O14 Sr3 2.653662 1_545
O14 Sr11 2.675723 1_555
O15 P5 1.549116 1_655
O15 Sr14 2.586099 1_555
O15 Sr2 2.659526 1_655
O15 Sr10 2.671232 1_555
O16 P9 1.554211 1_556
O16 Sr11 2.588033 1_555
O16 Sr17 2.604883 1_556
O16 Sr4 2.660175 1_555
O17 P8 1.555755 1_555
O17 Sr16 2.560681 1_555
O17 Sr10 2.589049 1_555
O17 Sr5 2.653490 1_555
O18 P11 1.555755 1_554
O18 Sr17 2.560681 1_555
O18 Sr9 2.589049 1_555
O18 Sr6 2.653490 1_555
O19 P10 1.554211 1_555
O19 Sr8 2.588033 1_555
O19 Sr16 2.604883 1_555
O19 Sr7 2.660175 1_555
O20 P5 1.545284 1_555
O20 Sr8 2.636151 1_555
O20 Sr16 2.673497 1_555
O20 Sr12 2.682180 1_555
O21 P4 1.546173 1_554
O21 Sr17 2.620194 1_555
O21 Sr9 2.652550 1_555
O21 Sr13 2.672804 1_555
O22 P7 1.546173 1_555
O22 Sr16 2.620194 1_555
O22 Sr10 2.652550 1_555
O22 Sr14 2.672804 1_555
O23 P6 1.545284 1_556
O23 Sr11 2.636151 1_555
O23 Sr17 2.673497 1_556
O23 Sr15 2.682180 1_555
O24 P13 1.565709 1_555
O24 Sr0 2.522963 1_555
O24 Sr6 2.705104 1_555
O24 Sr9 2.884805 1_555
O24 Sr7 3.082706 1_555
O25 P13 1.565740 1_555
O25 Sr1 2.519225 1_555
O25 Sr7 2.697417 1_555
O25 Sr8 2.904831 1_555
O25 Sr6 3.078630 1_555
O26 P12 1.565740 1_555
O26 Sr2 2.519225 1_555
O26 Sr4 2.697417 1_555
O26 Sr11 2.904831 1_555
O26 Sr5 3.078630 1_555
O27 P12 1.565709 1_555
O27 Sr3 2.522963 1_555
O27 Sr5 2.705104 1_555
O27 Sr10 2.884805 1_555
O27 Sr4 3.082706 1_555
O28 P0 1.596246 1_555
O28 Sr4 2.650065 1_545
O28 Sr15 2.655543 1_455
O29 P1 1.596309 1_555
O29 Sr5 2.636866 1_655
O29 Sr14 2.644919 1_565
O30 P2 1.596309 1_555
O30 Sr6 2.636866 1_565
O30 Sr13 2.644919 1_655
O31 P3 1.596246 1_555
O31 Sr7 2.650065 1_455
O31 Sr12 2.655543 1_545
O32 P8 1.600411 1_555
O32 Sr5 2.642820 1_555
O32 Sr8 2.744775 1_565
O33 P9 1.596117 1_555
O33 Sr4 2.656136 1_554
O33 Sr9 2.725869 1_455
O34 P10 1.596117 1_555
O34 Sr7 2.656136 1_555
O34 Sr10 2.725869 1_545
O35 P11 1.600411 1_555
O35 Sr6 2.642820 1_556
O35 Sr11 2.744775 1_655
O36 P3 1.544994 1_655
O36 Sr6 2.557986 1_555
O36 Sr0 2.601052 1_555
O36 Sr7 2.675107 1_555
O37 P2 1.544413 1_545
O37 Sr7 2.584955 1_555
O37 Sr1 2.592353 1_555
O37 Sr6 2.668524 1_555
O38 P1 1.544413 1_455
O38 Sr4 2.584955 1_555
O38 Sr2 2.592353 1_555
O38 Sr5 2.668524 1_555
O39 P0 1.544994 1_565
O39 Sr5 2.557986 1_555
O39 Sr3 2.601052 1_555
O39 Sr4 2.675107 1_555
O40 P10 1.542878 1_565
O40 Sr5 2.581227 1_555
O40 Sr3 2.603517 1_555
O40 Sr10 2.693212 1_555
O41 P11 1.545366 1_455
O41 Sr2 2.585815 1_555
O41 Sr4 2.588657 1_555
O41 Sr11 2.710632 1_555
O42 P8 1.545366 1_545
O42 Sr1 2.585815 1_555
O42 Sr7 2.588657 1_555
O42 Sr8 2.710632 1_555
O43 P9 1.542878 1_655
O43 Sr6 2.581227 1_555
O43 Sr0 2.603517 1_555
O43 Sr9 2.693212 1_555
O44 P2 1.540410 1_555
O44 Sr9 2.570775 1_555
O44 Sr0 2.637713 1_555
O44 Sr1 3.141314 1_565
O45 P3 1.539942 1_555
O45 Sr8 2.583936 1_555
O45 Sr1 2.646358 1_555
O45 Sr0 3.163973 1_455
O46 P0 1.539942 1_555
O46 Sr11 2.583936 1_555
O46 Sr2 2.646358 1_555
O46 Sr3 3.163973 1_545
O47 P1 1.540410 1_555
O47 Sr10 2.570775 1_555
O47 Sr3 2.637713 1_555
O47 Sr2 3.141314 1_655
O48 P4 1.594903 1_555
O48 Sr13 2.642295 1_556
O48 Sr11 2.743720 1_565
O49 P5 1.591502 1_555
O49 Sr12 2.648528 1_555
O49 Sr10 2.735046 1_455
O50 P6 1.591502 1_555
O50 Sr15 2.648528 1_554
O50 Sr9 2.735046 1_545
O51 P7 1.594903 1_555
O51 Sr14 2.642295 1_555
O51 Sr8 2.743720 1_655
O52 P0 1.549463 1_655
O52 Sr14 2.637779 1_555
O52 Sr15 2.661892 1_555
O52 Sr2 2.665038 1_655
O53 P1 1.548877 1_545
O53 Sr14 2.652229 1_555
O53 Sr3 2.662229 1_545
O53 Sr15 2.672318 1_555
O54 P2 1.548877 1_455
O54 Sr13 2.652229 1_555
O54 Sr0 2.662229 1_455
O54 Sr12 2.672318 1_555
O55 P3 1.549463 1_565
O55 Sr13 2.637779 1_555
O55 Sr12 2.661892 1_555
O55 Sr1 2.665038 1_565
