# generated using pymatgen
data_Mg14AlZn
_symmetry_space_group_name_H-M   'P 1'
_cell_length_a   6.23802616
_cell_length_b   6.28829622
_cell_length_c   10.28471113
_cell_angle_alpha   90.00000000
_cell_angle_beta   90.00000000
_cell_angle_gamma   120.26694304
_symmetry_Int_Tables_number   1
_chemical_formula_structural   Mg14AlZn
_chemical_formula_sum   'Mg14 Al1 Zn1'
_cell_volume   348.44032511
_cell_formula_units_Z   1
loop_
 _symmetry_equiv_pos_site_id
 _symmetry_equiv_pos_as_xyz
  1  'x, y, z'
loop_
 _atom_site_type_symbol
 _atom_site_label
 _atom_site_symmetry_multiplicity
 _atom_site_fract_x
 _atom_site_fract_y
 _atom_site_fract_z
 _atom_site_occupancy
  Mg  Mg0  1  0.16869175  0.33434537  0.62500000  1
  Mg  Mg1  1  0.16891601  0.83445751  0.62500000  1
  Mg  Mg2  1  0.66865220  0.33403744  0.12500000  1
  Mg  Mg3  1  0.66561208  0.33286434  0.62500000  1
  Mg  Mg4  1  0.66865220  0.83461375  0.12500000  1
  Mg  Mg5  1  0.66561208  0.83274673  0.62500000  1
  Mg  Mg6  1  0.32874773  0.16385019  0.36827214  1
  Mg  Mg7  1  0.32874773  0.16385019  0.88172786  1
  Mg  Mg8  1  0.32874773  0.66489854  0.36827214  1
  Mg  Mg9  1  0.32874773  0.66489854  0.88172786  1
  Mg  Mg10  1  0.83658476  0.16829288  0.37364447  1
  Mg  Mg11  1  0.83658476  0.16829288  0.87635553  1
  Mg  Mg12  1  0.83686549  0.66843324  0.37293870  1
  Mg  Mg13  1  0.83686549  0.66843324  0.87706130  1
  Al  Al0  1  0.16557243  0.33278571  0.12500000  1
  Zn  Zn0  1  0.16639985  0.83319943  0.12500000  1
loop_
_geom_bond_atom_site_label_1
_geom_bond_atom_site_label_2
_geom_bond_distance
_geom_bond_site_symmetry_2
Mg0 Mg5 3.104506 1_555
Mg0 Mg3 3.104507 1_555
Mg0 Mg5 3.133540 1_445
Mg0 Mg3 3.133540 1_455
Mg0 Mg10 3.143948 1_455
Mg0 Mg11 3.143948 1_455
Mg0 Mg1 3.144148 1_545
Mg0 Mg1 3.144148 1_555
Mg0 Mg6 3.193267 1_555
Mg0 Mg7 3.193267 1_555
Mg0 Mg8 3.193273 1_555
Mg0 Mg9 3.193273 1_555
Mg1 Mg3 3.103839 1_565
Mg1 Mg5 3.103839 1_555
Mg1 Mg3 3.134214 1_455
Mg1 Mg5 3.134215 1_455
Mg1 Mg12 3.149746 1_455
Mg1 Mg13 3.149746 1_455
Mg1 Mg8 3.189694 1_555
Mg1 Mg9 3.189694 1_555
Mg1 Mg6 3.189700 1_565
Mg1 Mg7 3.189700 1_565
Mg2 Mg7 3.100580 1_554
Mg2 Mg6 3.100580 1_555
Mg2 Zn0 3.109455 1_655
Mg2 Zn0 3.128590 1_545
Mg2 Mg4 3.140524 1_545
Mg2 Mg4 3.147772 1_555
Mg3 Mg5 3.143409 1_555
Mg3 Mg5 3.144888 1_545
Mg3 Mg6 3.203986 1_555
Mg3 Mg7 3.203986 1_555
Mg4 Mg9 3.100580 1_554
Mg4 Mg8 3.100580 1_555
Mg4 Zn0 3.109455 1_655
Mg4 Zn0 3.128590 1_555
Mg5 Mg9 3.203986 1_555
Mg5 Mg8 3.203986 1_555
Mg6 Zn0 3.079947 1_545
Mg6 Mg8 3.137556 1_545
Mg6 Mg8 3.150740 1_555
Mg7 Zn0 3.079947 1_546
Mg7 Mg9 3.137556 1_545
Mg7 Mg9 3.150740 1_555
Mg8 Zn0 3.079941 1_555
Mg9 Zn0 3.079941 1_556
Mg10 Mg8 3.084796 1_655
Mg10 Mg6 3.084796 1_655
Mg10 Mg2 3.134290 1_555
Mg10 Mg4 3.134296 1_545
Mg10 Mg12 3.144157 1_555
Mg10 Mg12 3.144157 1_545
Mg10 Mg8 3.154396 1_545
Mg10 Mg6 3.154396 1_555
Mg10 Mg3 3.162897 1_555
Mg10 Mg5 3.162903 1_545
Mg11 Mg9 3.084796 1_655
Mg11 Mg7 3.084796 1_655
Mg11 Mg2 3.134290 1_556
Mg11 Mg4 3.134296 1_546
Mg11 Mg13 3.144157 1_555
Mg11 Mg13 3.144157 1_545
Mg11 Mg9 3.154396 1_545
Mg11 Mg7 3.154396 1_555
Mg11 Mg3 3.162897 1_555
Mg11 Mg5 3.162903 1_545
Mg12 Mg6 3.080011 1_665
Mg12 Mg8 3.080011 1_655
Mg12 Zn0 3.107177 1_655
Mg12 Mg4 3.130628 1_555
Mg12 Mg2 3.130634 1_555
Mg12 Mg6 3.158871 1_555
Mg12 Mg8 3.158872 1_555
Mg12 Mg5 3.168905 1_555
Mg12 Mg3 3.168912 1_555
Mg13 Mg7 3.080011 1_665
Mg13 Mg9 3.080011 1_655
Mg13 Zn0 3.107177 1_656
Mg13 Mg4 3.130628 1_556
Mg13 Mg2 3.130634 1_556
Mg13 Mg7 3.158871 1_555
Mg13 Mg9 3.158872 1_555
Mg13 Mg5 3.168905 1_555
Mg13 Mg3 3.168912 1_555
Al0 Mg7 3.084571 1_554
Al0 Mg6 3.084571 1_555
Al0 Mg9 3.084578 1_554
Al0 Mg8 3.084578 1_555
Al0 Mg4 3.103776 1_445
Al0 Mg2 3.103776 1_455
Al0 Mg11 3.111457 1_454
Al0 Mg10 3.111457 1_455
Al0 Mg4 3.134265 1_555
Al0 Mg2 3.134265 1_555
