# generated using pymatgen
data_Tl4PbSe3
_symmetry_space_group_name_H-M   'P 1'
_cell_length_a   8.55506407
_cell_length_b   8.55506407
_cell_length_c   13.07682448
_cell_angle_alpha   90.00000000
_cell_angle_beta   90.00000000
_cell_angle_gamma   90.00000000
_symmetry_Int_Tables_number   1
_chemical_formula_structural   Tl4PbSe3
_chemical_formula_sum   'Tl16 Pb4 Se12'
_cell_volume   957.08129232
_cell_formula_units_Z   4
loop_
 _symmetry_equiv_pos_site_id
 _symmetry_equiv_pos_as_xyz
  1  'x, y, z'
loop_
 _atom_site_type_symbol
 _atom_site_label
 _atom_site_symmetry_multiplicity
 _atom_site_fract_x
 _atom_site_fract_y
 _atom_site_fract_z
 _atom_site_occupancy
  Tl  Tl0  1  0.32844518  0.38270237  0.40378669  1
  Tl  Tl1  1  0.67155482  0.38270237  0.90378669  1
  Tl  Tl2  1  0.32844518  0.61729763  0.90378669  1
  Tl  Tl3  1  0.67155482  0.61729763  0.40378669  1
  Tl  Tl4  1  0.88270237  0.82844518  0.90378669  1
  Tl  Tl5  1  0.11729763  0.82844518  0.40378669  1
  Tl  Tl6  1  0.88270237  0.17155482  0.40378669  1
  Tl  Tl7  1  0.11729763  0.17155482  0.90378669  1
  Tl  Tl8  1  0.17155482  0.11729763  0.59621331  1
  Tl  Tl9  1  0.82844518  0.11729763  0.09621331  1
  Tl  Tl10  1  0.17155482  0.88270237  0.09621331  1
  Tl  Tl11  1  0.82844518  0.88270237  0.59621331  1
  Tl  Tl12  1  0.61729763  0.67155482  0.09621331  1
  Tl  Tl13  1  0.38270237  0.67155482  0.59621331  1
  Tl  Tl14  1  0.61729763  0.32844518  0.59621331  1
  Tl  Tl15  1  0.38270237  0.32844518  0.09621331  1
  Pb  Pb0  1  0.00000000  0.50000000  0.21130197  1
  Pb  Pb1  1  0.00000000  0.50000000  0.71130197  1
  Pb  Pb2  1  0.50000000  0.00000000  0.78869803  1
  Pb  Pb3  1  0.50000000  0.00000000  0.28869803  1
  Se  Se0  1  0.00000000  0.50000000  0.49545334  1
  Se  Se1  1  0.00000000  0.50000000  0.99545334  1
  Se  Se2  1  0.50000000  0.00000000  0.50454666  1
  Se  Se3  1  0.50000000  0.00000000  0.00454666  1
  Se  Se4  1  0.32793164  0.67206836  0.25000000  1
  Se  Se5  1  0.67206836  0.67206836  0.75000000  1
  Se  Se6  1  0.32793164  0.32793164  0.75000000  1
  Se  Se7  1  0.67206836  0.32793164  0.25000000  1
  Se  Se8  1  0.17206836  0.82793164  0.75000000  1
  Se  Se9  1  0.82793164  0.82793164  0.25000000  1
  Se  Se10  1  0.17206836  0.17206836  0.25000000  1
  Se  Se11  1  0.82793164  0.17206836  0.75000000  1
loop_
_geom_bond_atom_site_label_1
_geom_bond_atom_site_label_2
_geom_bond_distance
_geom_bond_site_symmetry_2
Pb0 Se1 2.822615 1_554
Pb0 Se7 3.208384 1_455
Pb0 Se9 3.208384 1_455
Pb0 Se10 3.208384 1_555
Pb0 Se4 3.208384 1_555
Pb1 Se0 2.822615 1_555
Pb1 Se5 3.208384 1_455
Pb1 Se8 3.208384 1_555
Pb1 Se11 3.208384 1_455
Pb1 Se6 3.208384 1_555
Pb2 Se3 2.822615 1_556
Pb2 Se8 3.208384 1_545
Pb2 Se5 3.208384 1_545
Pb2 Se11 3.208384 1_555
Pb2 Se6 3.208384 1_555
Pb3 Se2 2.822615 1_555
Pb3 Se4 3.208384 1_545
Pb3 Se9 3.208384 1_545
Pb3 Se10 3.208384 1_555
Pb3 Se7 3.208384 1_555
Se0 Tl0 3.215472 1_555
Se0 Tl5 3.215472 1_555
Se0 Tl6 3.215472 1_455
Se0 Tl3 3.215472 1_455
Se1 Tl1 3.215472 1_455
Se1 Tl7 3.215472 1_555
Se1 Tl4 3.215472 1_455
Se1 Tl2 3.215472 1_555
Se2 Tl11 3.215472 1_545
Se2 Tl8 3.215472 1_555
Se2 Tl13 3.215472 1_545
Se2 Tl14 3.215472 1_555
Se3 Tl10 3.215472 1_545
Se3 Tl15 3.215472 1_555
Se3 Tl9 3.215472 1_555
Se3 Tl12 3.215472 1_545
Se4 Tl5 3.013502 1_555
Se4 Tl10 3.013502 1_555
Se4 Tl12 3.189456 1_555
Se4 Tl0 3.189456 1_555
Se5 Tl4 3.013502 1_555
Se5 Tl11 3.013502 1_555
Se5 Tl1 3.189456 1_555
Se5 Tl13 3.189456 1_555
Se6 Tl7 3.013502 1_555
Se6 Tl8 3.013502 1_555
Se6 Tl14 3.189456 1_555
Se6 Tl2 3.189456 1_555
Se7 Tl9 3.013502 1_555
Se7 Tl6 3.013502 1_555
Se7 Tl15 3.189456 1_555
Se7 Tl3 3.189456 1_555
Se8 Tl2 3.013502 1_555
Se8 Tl13 3.013502 1_555
Se8 Tl4 3.189456 1_455
Se8 Tl8 3.189456 1_565
Se9 Tl12 3.013502 1_555
Se9 Tl3 3.013502 1_555
Se9 Tl5 3.189456 1_655
Se9 Tl9 3.189456 1_565
Se10 Tl15 3.013502 1_555
Se10 Tl0 3.013502 1_555
Se10 Tl10 3.189456 1_545
Se10 Tl6 3.189456 1_455
Se11 Tl14 3.013502 1_555
Se11 Tl1 3.013502 1_555
Se11 Tl7 3.189456 1_655
Se11 Tl11 3.189456 1_545
