# generated using pymatgen
data_BaSrMg14
_symmetry_space_group_name_H-M   'P 1'
_cell_length_a   6.76431275
_cell_length_b   6.70564346
_cell_length_c   10.82343123
_cell_angle_alpha   90.00000000
_cell_angle_beta   90.00000000
_cell_angle_gamma   119.71350604
_symmetry_Int_Tables_number   1
_chemical_formula_structural   BaSrMg14
_chemical_formula_sum   'Ba1 Sr1 Mg14'
_cell_volume   426.38927524
_cell_formula_units_Z   1
loop_
 _symmetry_equiv_pos_site_id
 _symmetry_equiv_pos_as_xyz
  1  'x, y, z'
loop_
 _atom_site_type_symbol
 _atom_site_label
 _atom_site_symmetry_multiplicity
 _atom_site_fract_x
 _atom_site_fract_y
 _atom_site_fract_z
 _atom_site_occupancy
  Ba  Ba0  1  0.16758064  0.83378982  0.12500000  1
  Sr  Sr0  1  0.17532931  0.33766416  0.12500000  1
  Mg  Mg0  1  0.16256440  0.33128170  0.62500000  1
  Mg  Mg1  1  0.16246303  0.83123102  0.62500000  1
  Mg  Mg2  1  0.66600207  0.33304612  0.12500000  1
  Mg  Mg3  1  0.66985032  0.33437771  0.62500000  1
  Mg  Mg4  1  0.66600207  0.83295495  0.12500000  1
  Mg  Mg5  1  0.66985032  0.83547161  0.62500000  1
  Mg  Mg6  1  0.34350292  0.17373874  0.39703812  1
  Mg  Mg7  1  0.34350292  0.17373874  0.85296188  1
  Mg  Mg8  1  0.34350292  0.66976518  0.39703812  1
  Mg  Mg9  1  0.34350292  0.66976518  0.85296188  1
  Mg  Mg10  1  0.82361186  0.16180643  0.38144951  1
  Mg  Mg11  1  0.82361186  0.16180643  0.86855049  1
  Mg  Mg12  1  0.81956123  0.65978111  0.38598295  1
  Mg  Mg13  1  0.81956123  0.65978111  0.86401705  1
loop_
_geom_bond_atom_site_label_1
_geom_bond_atom_site_label_2
_geom_bond_distance
_geom_bond_site_symmetry_2
Ba0 Sr0 3.353131 1_555
Ba0 Sr0 3.353131 1_565
Ba0 Mg2 3.374257 1_565
Ba0 Mg4 3.374257 1_555
Ba0 Mg2 3.390063 1_455
Ba0 Mg4 3.390063 1_455
Ba0 Mg12 3.487036 1_455
Ba0 Mg13 3.487036 1_454
Ba0 Mg9 3.548628 1_554
Ba0 Mg8 3.548628 1_555
Ba0 Mg7 3.548635 1_564
Ba0 Mg6 3.548635 1_565
Mg0 Mg7 3.159671 1_555
Mg0 Mg6 3.159671 1_555
Mg0 Mg9 3.159678 1_555
Mg0 Mg8 3.159678 1_555
Mg0 Mg11 3.303650 1_455
Mg0 Mg10 3.303650 1_455
Mg0 Mg5 3.343211 1_445
Mg0 Mg3 3.343211 1_455
Mg0 Mg1 3.352822 1_545
Mg0 Mg1 3.352822 1_555
Mg0 Mg5 3.421197 1_555
Mg0 Mg3 3.421198 1_555
Mg1 Mg9 3.173976 1_555
Mg1 Mg8 3.173976 1_555
Mg1 Mg7 3.173983 1_565
Mg1 Mg6 3.173983 1_565
Mg1 Mg13 3.278835 1_455
Mg1 Mg12 3.278835 1_455
Mg1 Mg3 3.346372 1_455
Mg1 Mg5 3.346372 1_455
Mg1 Mg3 3.418121 1_565
Mg1 Mg5 3.418121 1_555
Mg2 Sr0 3.334522 1_555
Mg2 Sr0 3.430005 1_655
Mg2 Mg7 3.501326 1_554
Mg2 Mg6 3.501326 1_555
Mg3 Mg7 3.124723 1_555
Mg3 Mg6 3.124723 1_555
Mg3 Mg5 3.345486 1_545
Mg3 Mg5 3.360157 1_555
Mg4 Sr0 3.334521 1_555
Mg4 Sr0 3.430005 1_665
Mg4 Mg8 3.501326 1_555
Mg4 Mg9 3.501326 1_554
Mg5 Mg9 3.124722 1_555
Mg5 Mg8 3.124722 1_555
Mg6 Mg8 3.326176 1_555
Mg6 Mg8 3.379467 1_545
Mg6 Sr0 3.522982 1_555
Mg7 Mg9 3.326176 1_555
Mg7 Mg9 3.379467 1_545
Mg7 Sr0 3.522982 1_556
Mg8 Sr0 3.522988 1_555
Mg9 Sr0 3.522988 1_556
Mg10 Mg3 3.250051 1_555
Mg10 Mg5 3.250058 1_545
Mg10 Mg8 3.292327 1_545
Mg10 Mg6 3.292328 1_555
Mg10 Mg12 3.353265 1_555
Mg10 Mg12 3.353265 1_545
Mg10 Mg2 3.372393 1_555
Mg10 Mg4 3.372400 1_545
Mg10 Sr0 3.460337 1_655
Mg10 Mg8 3.481830 1_655
Mg10 Mg6 3.481831 1_655
Mg11 Mg3 3.250051 1_555
Mg11 Mg5 3.250058 1_545
Mg11 Mg9 3.292327 1_545
Mg11 Mg7 3.292328 1_555
Mg11 Mg13 3.353265 1_555
Mg11 Mg13 3.353265 1_545
Mg11 Mg2 3.372393 1_556
Mg11 Mg4 3.372400 1_546
Mg11 Sr0 3.460337 1_656
Mg11 Mg9 3.481830 1_655
Mg11 Mg7 3.481831 1_655
Mg12 Mg5 3.207603 1_555
Mg12 Mg3 3.207610 1_555
Mg12 Mg6 3.256110 1_555
Mg12 Mg8 3.256111 1_555
Mg12 Mg4 3.406212 1_555
Mg12 Mg2 3.406218 1_555
Mg12 Mg6 3.513440 1_665
Mg12 Mg8 3.513441 1_655
Mg13 Mg5 3.207603 1_555
Mg13 Mg3 3.207610 1_555
Mg13 Mg7 3.256110 1_555
Mg13 Mg9 3.256111 1_555
Mg13 Mg4 3.406212 1_556
Mg13 Mg2 3.406218 1_556
Mg13 Mg7 3.513440 1_665
Mg13 Mg9 3.513441 1_655
