# generated using pymatgen
data_PPd6
_symmetry_space_group_name_H-M   'P 1'
_cell_length_a   5.70923744
_cell_length_b   8.28368289
_cell_length_c   9.51085812
_cell_angle_alpha   90.00000000
_cell_angle_beta   90.00000000
_cell_angle_gamma   110.29930972
_symmetry_Int_Tables_number   1
_chemical_formula_structural   PPd6
_chemical_formula_sum   'P4 Pd24'
_cell_volume   421.86609339
_cell_formula_units_Z   4
loop_
 _symmetry_equiv_pos_site_id
 _symmetry_equiv_pos_as_xyz
  1  'x, y, z'
loop_
 _atom_site_type_symbol
 _atom_site_label
 _atom_site_symmetry_multiplicity
 _atom_site_fract_x
 _atom_site_fract_y
 _atom_site_fract_z
 _atom_site_occupancy
  P  P0  1  0.12303384  0.74916851  0.76164098  1
  P  P1  1  0.87696616  0.75083149  0.26164098  1
  P  P2  1  0.87696616  0.25083149  0.23835902  1
  P  P3  1  0.12303384  0.24916851  0.73835902  1
  Pd  Pd0  1  0.47016342  0.93133903  0.86718306  1
  Pd  Pd1  1  0.52983658  0.56866097  0.36718306  1
  Pd  Pd2  1  0.52983658  0.06866097  0.13281694  1
  Pd  Pd3  1  0.47016342  0.43133903  0.63281694  1
  Pd  Pd4  1  0.22712426  0.43134598  0.13512127  1
  Pd  Pd5  1  0.77287474  0.06865402  0.63512127  1
  Pd  Pd6  1  0.77287474  0.56865402  0.86487873  1
  Pd  Pd7  1  0.22712426  0.93134598  0.36487873  1
  Pd  Pd8  1  0.28794737  0.56527986  0.86644587  1
  Pd  Pd9  1  0.71205163  0.93472014  0.36644587  1
  Pd  Pd10  1  0.71205163  0.43472014  0.13355413  1
  Pd  Pd11  1  0.28794737  0.06527986  0.63355413  1
  Pd  Pd12  1  0.13378681  0.24856476  0.41911429  1
  Pd  Pd13  1  0.86621319  0.25143524  0.91911329  1
  Pd  Pd14  1  0.86621319  0.75143524  0.58088671  1
  Pd  Pd15  1  0.13378681  0.74856476  0.08088571  1
  Pd  Pd16  1  0.37957502  0.74827629  0.58086126  1
  Pd  Pd17  1  0.62042498  0.75172371  0.08086126  1
  Pd  Pd18  1  0.62042498  0.25172371  0.41913874  1
  Pd  Pd19  1  0.37957502  0.24827629  0.91913874  1
  Pd  Pd20  1  0.04189423  0.56601162  0.36479804  1
  Pd  Pd21  1  0.95810577  0.93398838  0.86479804  1
  Pd  Pd22  1  0.95810577  0.43398838  0.63520196  1
  Pd  Pd23  1  0.04189423  0.06601162  0.13520196  1
loop_
_geom_bond_atom_site_label_1
_geom_bond_atom_site_label_2
_geom_bond_distance
_geom_bond_site_symmetry_2
P0 Pd16 2.260312 1_555
P0 Pd6 2.263290 1_455
P0 Pd14 2.263790 1_455
P0 Pd0 2.266592 1_555
P0 Pd21 2.278903 1_455
P0 Pd8 2.279375 1_555
P1 Pd17 2.260312 1_555
P1 Pd7 2.263287 1_655
P1 Pd15 2.263798 1_655
P1 Pd1 2.266592 1_555
P1 Pd20 2.278903 1_655
P1 Pd9 2.279379 1_555
P2 Pd18 2.260312 1_555
P2 Pd4 2.263287 1_655
P2 Pd12 2.263798 1_655
P2 Pd2 2.266592 1_555
P2 Pd23 2.278903 1_655
P2 Pd10 2.279379 1_555
P3 Pd19 2.260312 1_555
P3 Pd5 2.263290 1_455
P3 Pd13 2.263790 1_455
P3 Pd3 2.266592 1_555
P3 Pd22 2.278903 1_455
P3 Pd11 2.279375 1_555
