# generated using pymatgen
data_Mg17(SiO3)20
_symmetry_space_group_name_H-M   'P 1'
_cell_length_a   5.36293544
_cell_length_b   9.51082601
_cell_length_c   23.02847007
_cell_angle_alpha   90.00134001
_cell_angle_beta   83.31323005
_cell_angle_gamma   90.01150806
_symmetry_Int_Tables_number   1
_chemical_formula_structural   Mg17(SiO3)20
_chemical_formula_sum   'Mg17 Si20 O60'
_cell_volume   1166.59880768
_cell_formula_units_Z   1
loop_
 _symmetry_equiv_pos_site_id
 _symmetry_equiv_pos_as_xyz
  1  'x, y, z'
loop_
 _atom_site_type_symbol
 _atom_site_label
 _atom_site_symmetry_multiplicity
 _atom_site_fract_x
 _atom_site_fract_y
 _atom_site_fract_z
 _atom_site_occupancy
  Mg  Mg0  1  0.23436801  0.50000000  0.53126398  1
  Mg  Mg1  1  0.76563199  0.50000000  0.46873602  1
  Mg  Mg2  1  0.69776998  0.50000000  0.60446005  1
  Mg  Mg3  1  0.30223002  0.50000000  0.39553995  1
  Mg  Mg4  1  0.16043553  0.50000000  0.67912893  1
  Mg  Mg5  1  0.83956447  0.50000000  0.32087107  1
  Mg  Mg6  1  0.62732254  0.50000000  0.74535492  1
  Mg  Mg7  1  0.37267746  0.50000000  0.25464508  1
  Mg  Mg8  1  0.09422228  0.50000000  0.81155545  1
  Mg  Mg9  1  0.90577772  0.50000000  0.18844455  1
  Mg  Mg10  1  0.53695837  0.00000000  0.92608326  1
  Mg  Mg11  1  0.46304163  1.00000000  0.07391674  1
  Mg  Mg12  1  0.07043971  0.00000000  0.85912057  1
  Mg  Mg13  1  0.92956029  1.00000000  0.14087943  1
  Mg  Mg14  1  -0.00000000  0.00000000  0.00000000  1
  Mg  Mg15  1  0.60292375  1.00000000  0.79415250  1
  Mg  Mg16  1  0.39707625  0.00000000  0.20584750  1
  Si  Si0  1  0.57311087  0.78874079  0.53384249  1
  Si  Si1  1  0.89304663  0.21125921  0.53384249  1
  Si  Si2  1  0.42688913  0.21125921  0.46615751  1
  Si  Si3  1  0.10695337  0.78874079  0.46615751  1
  Si  Si4  1  0.49272788  0.78522487  0.66962823  1
  Si  Si5  1  0.83764389  0.21477513  0.66962823  1
  Si  Si6  1  0.50727212  0.21477513  0.33037177  1
  Si  Si7  1  0.16235611  0.78522487  0.33037177  1
  Si  Si8  1  0.95993685  0.79320108  0.73954284  1
  Si  Si9  1  0.30052031  0.20679892  0.73954284  1
  Si  Si10  1  0.04006315  0.20679892  0.26045716  1
  Si  Si11  1  0.69947969  0.79320108  0.26045716  1
  Si  Si12  1  0.86021180  0.71551018  0.93299821  1
  Si  Si13  1  0.20678999  0.28448982  0.93299821  1
  Si  Si14  1  0.13978820  0.28448982  0.06700179  1
  Si  Si15  1  0.79321001  0.71551018  0.06700179  1
  Si  Si16  1  0.39730040  0.70623817  0.86434864  1
  Si  Si17  1  0.73835096  0.29376183  0.86434864  1
  Si  Si18  1  0.60269960  0.29376183  0.13565136  1
  Si  Si19  1  0.26164904  0.70623817  0.13565136  1
  O  O0  1  0.05446334  0.58810292  0.60507458  1
  O  O1  1  0.34046208  0.41189708  0.60507458  1
  O  O2  1  0.94553666  0.41189708  0.39492542  1
  O  O3  1  0.65953792  0.58810292  0.39492542  1
  O  O4  1  0.84075029  0.84587133  0.50026704  1
  O  O5  1  0.65898267  0.15412867  0.50026704  1
  O  O6  1  0.15924971  0.15412867  0.49973296  1
  O  O7  1  0.34101733  0.84587133  0.49973296  1
  O  O8  1  0.57371497  0.61601655  0.53394354  1
  O  O9  1  0.89234149  0.38398345  0.53394354  1
  O  O10  1  0.42628503  0.38398345  0.46605646  1
  O  O11  1  0.10765851  0.61601655  0.46605646  1
  O  O12  1  0.54029777  0.84253507  0.60221185  1
  O  O13  1  0.85749038  0.15746493  0.60221185  1
  O  O14  1  0.45970223  0.15746493  0.39778815  1
  O  O15  1  0.14250962  0.84253507  0.39778815  1
  O  O16  1  0.50392579  0.61353106  0.67288135  1
  O  O17  1  0.82319286  0.38646894  0.67288135  1
  O  O18  1  0.49607421  0.38646894  0.32711865  1
  O  O19  1  0.17680714  0.61353106  0.32711865  1
  O  O20  1  0.22224163  0.84242911  0.70042365  1
  O  O21  1  0.07733473  0.15757089  0.70042365  1
  O  O22  1  0.77775837  0.15757089  0.29957635  1
  O  O23  1  0.92266527  0.84242911  0.29957635  1
  O  O24  1  0.71028361  0.84913405  0.70778433  1
  O  O25  1  0.58193206  0.15086595  0.70778433  1
  O  O26  1  0.28971639  0.15086595  0.29221567  1
  O  O27  1  0.41806794  0.84913405  0.29221567  1
  O  O28  1  0.95762736  0.62078374  0.74415632  1
  O  O29  1  0.29821631  0.37921626  0.74415632  1
  O  O30  1  0.04237264  0.37921626  0.25584368  1
  O  O31  1  0.70178369  0.62078374  0.25584368  1
  O  O32  1  0.91376364  0.87909667  0.80033732  1
  O  O33  1  0.28589904  0.12090333  0.80033732  1
  O  O34  1  0.08623636  0.12090333  0.19966268  1
  O  O35  1  0.71410096  0.87909667  0.19966268  1
  O  O36  1  0.35550370  0.91083042  0.00000000  1
  O  O37  1  0.64449630  0.08916958  1.00000000  1
  O  O38  1  0.87316916  0.88705241  0.93098535  1
  O  O39  1  0.19584549  0.11294759  0.93098535  1
  O  O40  1  0.12683084  0.11294759  0.06901465  1
  O  O41  1  0.80415451  0.88705241  0.06901465  1
  O  O42  1  0.39890730  0.87897787  0.86058221  1
  O  O43  1  0.74051049  0.12102213  0.86058221  1
  O  O44  1  0.60109270  0.12102213  0.13941779  1
  O  O45  1  0.25948951  0.87897787  0.13941779  1
  O  O46  1  0.41293626  0.61924865  0.80408856  1
  O  O47  1  0.78297518  0.38075135  0.80408856  1
  O  O48  1  0.58706374  0.38075135  0.19591144  1
  O  O49  1  0.21702482  0.61924865  0.19591144  1
  O  O50  1  0.61810661  0.65611217  0.90384911  1
  O  O51  1  0.47804428  0.34388783  0.90384911  1
  O  O52  1  0.38189339  0.34388783  0.09615089  1
  O  O53  1  0.52195572  0.65611217  0.09615089  1
  O  O54  1  0.11440363  0.65003933  0.89520659  1
  O  O55  1  0.99038978  0.34996067  0.89520659  1
  O  O56  1  0.88559637  0.34996067  0.10479341  1
  O  O57  1  0.00961022  0.65003933  0.10479341  1
  O  O58  1  0.84668786  0.65713416  1.00000000  1
  O  O59  1  0.15331214  0.34286584  0.00000000  1
loop_
_geom_bond_atom_site_label_1
_geom_bond_atom_site_label_2
_geom_bond_distance
_geom_bond_site_symmetry_2
Mg0 O1 2.034817 1_555
Mg0 O0 2.034817 1_555
Mg0 O11 2.042595 1_555
Mg0 O10 2.042595 1_555
Mg0 O8 2.135109 1_555
Mg0 O9 2.135109 1_455
Mg1 O3 2.034817 1_555
Mg1 O2 2.034817 1_555
Mg1 O9 2.042595 1_555
Mg1 O8 2.042595 1_555
Mg1 O10 2.135109 1_555
Mg1 O11 2.135109 1_655
Mg2 O17 2.085227 1_555
Mg2 O16 2.085227 1_555
Mg2 O0 2.089800 1_655
Mg2 O1 2.089800 1_555
Mg2 O9 2.132869 1_555
Mg2 O8 2.132869 1_555
Mg3 O19 2.085227 1_555
Mg3 O18 2.085227 1_555
Mg3 O2 2.089800 1_455
Mg3 O3 2.089800 1_555
Mg3 O11 2.132869 1_555
Mg3 O10 2.132869 1_555
Mg4 O0 2.039444 1_555
Mg4 O1 2.039444 1_555
Mg4 O29 2.089540 1_555
Mg4 O28 2.089540 1_455
Mg4 O17 2.125439 1_455
Mg4 O16 2.125439 1_555
Mg5 O2 2.039444 1_555
Mg5 O3 2.039444 1_555
Mg5 O31 2.089540 1_555
Mg5 O30 2.089540 1_655
Mg5 O19 2.125439 1_655
Mg5 O18 2.125439 1_555
Mg6 O47 2.018883 1_555
Mg6 O46 2.018883 1_555
Mg6 O28 2.108569 1_555
Mg6 O29 2.108569 1_555
Mg6 O16 2.155654 1_555
Mg6 O17 2.155654 1_555
Mg7 O49 2.018883 1_555
Mg7 O48 2.018883 1_555
Mg7 O30 2.108569 1_555
Mg7 O31 2.108569 1_555
Mg7 O18 2.155654 1_555
Mg7 O19 2.155654 1_555
Mg8 O46 2.041608 1_555
Mg8 O47 2.041609 1_455
Mg8 O29 2.128493 1_555
Mg8 O28 2.128493 1_455
Mg8 O54 2.409825 1_555
Mg8 O55 2.409825 1_455
Mg9 O48 2.041608 1_555
Mg9 O49 2.041609 1_655
Mg9 O31 2.128493 1_555
Mg9 O30 2.128493 1_655
Mg9 O56 2.409825 1_555
Mg9 O57 2.409825 1_655
Mg10 O37 2.043928 1_555
Mg10 O36 2.043928 1_546
Mg10 O42 2.099492 1_545
Mg10 O43 2.099492 1_555
Mg10 O38 2.113285 1_545
Mg10 O39 2.113285 1_555
Mg11 O36 2.043928 1_555
Mg11 O37 2.043928 1_564
Mg11 O44 2.099492 1_565
Mg11 O45 2.099492 1_555
Mg11 O40 2.113285 1_565
Mg11 O41 2.113285 1_555
Mg12 O32 2.031048 1_445
Mg12 O33 2.031048 1_555
Mg12 O43 2.108000 1_455
Mg12 O42 2.108000 1_545
Mg12 O38 2.145674 1_445
Mg12 O39 2.145674 1_555
Mg13 O34 2.031048 1_665
Mg13 O35 2.031048 1_555
Mg13 O45 2.108000 1_655
Mg13 O44 2.108000 1_565
Mg13 O40 2.145674 1_665
Mg13 O41 2.145674 1_555
Mg14 O37 2.086814 1_454
Mg14 O36 2.086814 1_545
Mg14 O38 2.096156 1_444
Mg14 O40 2.096156 1_555
Mg14 O39 2.096156 1_554
Mg14 O41 2.096156 1_445
Mg15 O32 2.043903 1_555
Mg15 O33 2.043903 1_565
Mg15 O43 2.114700 1_565
Mg15 O42 2.114700 1_555
Mg15 O25 2.465698 1_565
Mg15 O24 2.465698 1_555
Mg16 O34 2.043903 1_555
Mg16 O35 2.043903 1_545
Mg16 O45 2.114700 1_545
Mg16 O44 2.114700 1_555
Mg16 O27 2.465698 1_545
Mg16 O26 2.465698 1_555
O4 Si3 1.639970 1_655
O4 Si0 1.641493 1_555
O5 Si2 1.639969 1_555
O5 Si1 1.641493 1_555
O6 Si1 1.639970 1_455
O6 Si2 1.641493 1_555
O7 Si0 1.639969 1_555
O7 Si3 1.641493 1_555
O8 Si0 1.642756 1_555
O9 Si1 1.642756 1_555
O10 Si2 1.642756 1_555
O11 Si3 1.642756 1_555
O12 Si4 1.637123 1_555
O12 Si0 1.645318 1_555
O13 Si5 1.637123 1_555
O13 Si1 1.645318 1_555
O14 Si6 1.637123 1_555
O14 Si2 1.645318 1_555
O15 Si7 1.637123 1_555
O15 Si3 1.645318 1_555
O16 Si4 1.636104 1_555
O17 Si5 1.636104 1_555
O18 Si6 1.636104 1_555
O19 Si7 1.636104 1_555
O20 Si4 1.632144 1_555
O20 Si8 1.647500 1_455
O21 Si5 1.632144 1_455
O21 Si9 1.647500 1_555
O22 Si6 1.632144 1_555
O22 Si10 1.647500 1_655
O23 Si7 1.632144 1_655
O23 Si11 1.647500 1_555
O24 Si4 1.655670 1_555
O24 Si8 1.684870 1_555
O25 Si5 1.655670 1_555
O25 Si9 1.684870 1_555
O26 Si6 1.655670 1_555
O26 Si10 1.684870 1_555
O27 Si7 1.655670 1_555
O27 Si11 1.684870 1_555
O28 Si8 1.643223 1_555
O29 Si9 1.643223 1_555
O30 Si10 1.643223 1_555
O31 Si11 1.643223 1_555
O32 Si8 1.614933 1_555
O33 Si9 1.614933 1_555
O34 Si10 1.614933 1_555
O35 Si11 1.614933 1_555
O38 Si12 1.633403 1_555
O39 Si13 1.633403 1_555
O40 Si14 1.633403 1_555
O41 Si15 1.633403 1_555
O42 Si16 1.645155 1_555
O43 Si17 1.645155 1_555
O44 Si18 1.645155 1_555
O45 Si19 1.645155 1_555
O46 Si16 1.609381 1_555
O47 Si17 1.609381 1_555
O48 Si18 1.609381 1_555
O49 Si19 1.609381 1_555
O50 Si12 1.630403 1_555
O50 Si16 1.645623 1_555
O51 Si13 1.630403 1_555
O51 Si17 1.645623 1_555
O52 Si14 1.630403 1_555
O52 Si18 1.645623 1_555
O53 Si15 1.630403 1_555
O53 Si19 1.645623 1_555
O54 Si12 1.651516 1_455
O54 Si16 1.685539 1_555
O55 Si13 1.651516 1_655
O55 Si17 1.685539 1_555
O56 Si14 1.651516 1_655
O56 Si18 1.685539 1_555
O57 Si15 1.651516 1_455
O57 Si19 1.685539 1_555
O58 Si12 1.633452 1_555
O58 Si15 1.633452 1_556
O59 Si14 1.633452 1_555
O59 Si13 1.633452 1_554
