# generated using pymatgen
data_ThTc3
_symmetry_space_group_name_H-M   'P 1'
_cell_length_a   4.76021446
_cell_length_b   4.76021446
_cell_length_c   4.76021446
_cell_angle_alpha   123.70123212
_cell_angle_beta   123.70123212
_cell_angle_gamma   83.70055769
_symmetry_Int_Tables_number   1
_chemical_formula_structural   ThTc3
_chemical_formula_sum   'Th1 Tc3'
_cell_volume   71.53136757
_cell_formula_units_Z   1
loop_
 _symmetry_equiv_pos_site_id
 _symmetry_equiv_pos_as_xyz
  1  'x, y, z'
loop_
 _atom_site_type_symbol
 _atom_site_label
 _atom_site_symmetry_multiplicity
 _atom_site_fract_x
 _atom_site_fract_y
 _atom_site_fract_z
 _atom_site_occupancy
  Th  Th0  1  0.00000000  0.00000000  0.00000000  1
  Tc  Tc0  1  0.74999800  0.25000000  0.49999800  1
  Tc  Tc1  1  0.25000000  0.74999800  0.49999800  1
  Tc  Tc2  1  0.50000000  0.50000000  0.00000000  1
loop_
_geom_bond_atom_site_label_1
_geom_bond_atom_site_label_2
_geom_bond_distance
_geom_bond_site_symmetry_2
Tc0 Th0 2.861212 1_555
Tc0 Tc2 2.861212 1_555
Tc0 Tc2 2.861219 1_556
Tc0 Tc2 2.861219 1_545
Tc0 Th0 2.861219 1_666
Tc0 Th0 2.861219 1_655
Tc0 Th0 2.861226 1_656
Tc0 Tc2 2.861226 1_656
Tc1 Th0 2.861212 1_555
Tc1 Tc2 2.861212 1_555
Tc1 Tc2 2.861219 1_556
Tc1 Tc2 2.861219 1_455
Tc1 Th0 2.861219 1_666
Tc1 Th0 2.861219 1_565
Tc1 Th0 2.861226 1_566
Tc1 Tc2 2.861226 1_566
Tc2 Th0 3.175950 1_554
Tc2 Th0 3.175950 1_666
Tc2 Th0 3.175950 1_565
Tc2 Th0 3.175950 1_655
