# generated using pymatgen
data_CaMn2CoO7
_symmetry_space_group_name_H-M   'P 1'
_cell_length_a   6.79467057
_cell_length_b   11.09862405
_cell_length_c   14.50396600
_cell_angle_alpha   90.00000000
_cell_angle_beta   90.00000000
_cell_angle_gamma   101.18136083
_symmetry_Int_Tables_number   1
_chemical_formula_structural   CaMn2CoO7
_chemical_formula_sum   'Ca8 Mn16 Co8 O56'
_cell_volume   1073.00420406
_cell_formula_units_Z   8
loop_
 _symmetry_equiv_pos_site_id
 _symmetry_equiv_pos_as_xyz
  1  'x, y, z'
loop_
 _atom_site_type_symbol
 _atom_site_label
 _atom_site_symmetry_multiplicity
 _atom_site_fract_x
 _atom_site_fract_y
 _atom_site_fract_z
 _atom_site_occupancy
  Ca  Ca0  1  0.08321900  0.73728100  0.50793500  1
  Ca  Ca1  1  0.32272100  0.97711200  0.87388500  1
  Ca  Ca2  1  0.67727900  0.52288800  0.37388500  1
  Ca  Ca3  1  0.67727900  0.02288800  0.12611500  1
  Ca  Ca4  1  0.32272100  0.47711200  0.62611500  1
  Ca  Ca5  1  0.08321900  0.23728100  0.99206500  1
  Ca  Ca6  1  0.91678100  0.26271900  0.49206500  1
  Ca  Ca7  1  0.91678100  0.76271900  0.00793500  1
  Mn  Mn0  1  0.83427600  0.98035800  0.86902500  1
  Mn  Mn1  1  0.41415100  0.68519600  0.01559200  1
  Mn  Mn2  1  0.41415100  0.18519600  0.48440800  1
  Mn  Mn3  1  0.58584900  0.31480400  0.98440800  1
  Mn  Mn4  1  0.50340100  0.79722400  0.70973100  1
  Mn  Mn5  1  0.49659900  0.70277600  0.20973100  1
  Mn  Mn6  1  0.49659900  0.20277600  0.29026900  1
  Mn  Mn7  1  0.50340100  0.29722400  0.79026900  1
  Mn  Mn8  1  0.58584900  0.81480400  0.51559200  1
  Mn  Mn9  1  0.87193600  0.47725200  0.14139400  1
  Mn  Mn10  1  0.12806400  0.02274800  0.64139400  1
  Mn  Mn11  1  0.12806400  0.52274800  0.85860600  1
  Mn  Mn12  1  0.16572400  0.51964200  0.36902500  1
  Mn  Mn13  1  0.83427600  0.48035800  0.63097500  1
  Mn  Mn14  1  0.16572400  0.01964200  0.13097500  1
  Mn  Mn15  1  0.87193600  0.97725200  0.35860600  1
  Co  Co0  1  0.63006400  0.07538000  0.67459700  1
  Co  Co1  1  0.36993600  0.42462000  0.17459700  1
  Co  Co2  1  0.36993600  0.92462000  0.32540300  1
  Co  Co3  1  0.63006400  0.57538000  0.82540300  1
  Co  Co4  1  0.99348000  0.25282500  0.75383100  1
  Co  Co5  1  0.00652000  0.24717500  0.25383100  1
  Co  Co6  1  0.00652000  0.74717500  0.24616900  1
  Co  Co7  1  0.99348000  0.75282500  0.74616900  1
  O  O0  1  0.76043500  0.95774800  0.97898700  1
  O  O1  1  0.23956500  0.54225200  0.47898700  1
  O  O2  1  0.23956500  0.04225200  0.02101300  1
  O  O3  1  0.76043500  0.45774800  0.52101300  1
  O  O4  1  0.98540500  0.87157800  0.85626400  1
  O  O5  1  0.01459500  0.62842200  0.35626400  1
  O  O6  1  0.01459500  0.12842200  0.14373600  1
  O  O7  1  0.98540500  0.37157800  0.64373600  1
  O  O8  1  0.99930200  0.11686300  0.85527400  1
  O  O9  1  0.00069800  0.38313700  0.35527400  1
  O  O10  1  0.00069800  0.88313700  0.14472600  1
  O  O11  1  0.99930200  0.61686300  0.64472600  1
  O  O12  1  0.66820300  0.94954000  0.28615100  1
  O  O13  1  0.33179700  0.55046000  0.78615100  1
  O  O14  1  0.33179700  0.05046000  0.71384900  1
  O  O15  1  0.66820300  0.44954000  0.21384900  1
  O  O16  1  0.97679700  0.13302600  0.35902700  1
  O  O17  1  0.02320300  0.36697400  0.85902700  1
  O  O18  1  0.02320300  0.86697400  0.64097300  1
  O  O19  1  0.97679700  0.63302600  0.14097300  1
  O  O20  1  0.05002100  0.88333100  0.34084100  1
  O  O21  1  0.39132400  0.82754600  0.44103700  1
  O  O22  1  0.94997900  0.61666900  0.84084100  1
  O  O23  1  0.05002100  0.38333100  0.15915900  1
  O  O24  1  0.72426300  0.70992300  0.48225300  1
  O  O25  1  0.27573700  0.79007700  0.98225300  1
  O  O26  1  0.27573700  0.29007700  0.51774700  1
  O  O27  1  0.72426300  0.20992300  0.01774700  1
  O  O28  1  0.77407200  0.95420700  0.46763000  1
  O  O29  1  0.22592800  0.54579300  0.96763000  1
  O  O30  1  0.22592800  0.04579300  0.53237000  1
  O  O31  1  0.77407200  0.45420700  0.03237000  1
  O  O32  1  0.41550800  0.20768400  0.89691900  1
  O  O33  1  0.58449200  0.29231600  0.39691900  1
  O  O34  1  0.58449200  0.79231600  0.10308100  1
  O  O35  1  0.41550800  0.70768400  0.60308100  1
  O  O36  1  0.71040400  0.21603700  0.75824200  1
  O  O37  1  0.28959600  0.28396300  0.25824200  1
  O  O38  1  0.28959600  0.78396300  0.24175800  1
  O  O39  1  0.71040400  0.71603700  0.74175800  1
  O  O40  1  0.62567300  0.45091600  0.70586400  1
  O  O41  1  0.37432700  0.04908400  0.20586400  1
  O  O42  1  0.37432700  0.54908400  0.29413600  1
  O  O43  1  0.62567300  0.95091600  0.79413600  1
  O  O44  1  0.26985900  0.29481800  0.73331800  1
  O  O45  1  0.73014100  0.20518200  0.23331800  1
  O  O46  1  0.73014100  0.70518200  0.26668200  1
  O  O47  1  0.26985900  0.79481800  0.76668200  1
  O  O48  1  0.61715200  0.41070800  0.88063100  1
  O  O49  1  0.38284800  0.08929200  0.38063100  1
  O  O50  1  0.38284800  0.58929200  0.11936900  1
  O  O51  1  0.61715200  0.91070800  0.61936900  1
  O  O52  1  0.39132400  0.32754600  0.05896300  1
  O  O53  1  0.60867600  0.17245400  0.55896300  1
  O  O54  1  0.60867600  0.67245400  0.94103700  1
  O  O55  1  0.94997900  0.11666900  0.65915900  1
loop_
_geom_bond_atom_site_label_1
_geom_bond_atom_site_label_2
_geom_bond_distance
_geom_bond_site_symmetry_2
Ca0 O21 2.348261 1_555
Ca0 O11 2.398341 1_455
Ca0 O24 2.427425 1_455
Ca0 O18 2.487795 1_555
Ca0 O5 2.509561 1_555
Ca0 O1 2.623336 1_555
Ca0 O35 2.719845 1_555
Ca0 O20 2.948501 1_555
Ca1 O2 2.356702 1_566
Ca1 O4 2.376788 1_455
Ca1 O43 2.427301 1_555
Ca1 O14 2.456583 1_565
Ca1 O47 2.521543 1_555
Ca1 O32 2.536143 1_565
Ca1 O25 2.573796 1_555
Ca1 O8 2.937622 1_465
Ca2 O3 2.356702 1_555
Ca2 O5 2.376788 1_655
Ca2 O42 2.427301 1_555
Ca2 O15 2.456583 1_555
Ca2 O46 2.521543 1_555
Ca2 O33 2.536143 1_555
Ca2 O24 2.573796 1_555
Ca2 O9 2.937622 1_655
Ca3 O0 2.356702 1_544
Ca3 O6 2.376788 1_655
Ca3 O41 2.427301 1_555
Ca3 O12 2.456583 1_545
Ca3 O45 2.521543 1_555
Ca3 O34 2.536143 1_545
Ca3 O27 2.573796 1_555
Ca3 O10 2.937622 1_645
Ca4 O1 2.356702 1_555
Ca4 O7 2.376788 1_455
Ca4 O40 2.427301 1_555
Ca4 O13 2.456583 1_555
Ca4 O44 2.521543 1_555
Ca4 O35 2.536143 1_555
Ca4 O26 2.573796 1_555
Ca4 O11 2.937622 1_455
Ca5 O52 2.348261 1_556
Ca5 O8 2.398341 1_455
Ca5 O27 2.427425 1_456
Ca5 O17 2.487795 1_555
Ca5 O6 2.509561 1_556
Ca5 O2 2.623336 1_556
Ca5 O32 2.719845 1_555
Ca5 O23 2.948501 1_556
Ca6 O53 2.348261 1_555
Ca6 O9 2.398341 1_655
Ca6 O26 2.427425 1_655
Ca6 O16 2.487795 1_555
Ca6 O7 2.509561 1_555
Ca6 O3 2.623336 1_555
Ca6 O33 2.719845 1_555
Ca6 O55 2.948501 1_555
Ca7 O54 2.348261 1_554
Ca7 O10 2.398341 1_655
Ca7 O25 2.427425 1_654
Ca7 O19 2.487795 1_555
Ca7 O4 2.509561 1_554
Ca7 O0 2.623336 1_554
Ca7 O34 2.719845 1_555
Ca7 O22 2.948501 1_554
Mn0 O0 1.676165 1_555
Mn0 O8 1.712753 1_565
Mn0 O4 1.739865 1_555
Mn0 O43 1.765204 1_555
Mn1 O25 1.702313 1_554
Mn1 O54 1.734582 1_554
Mn1 O50 1.831925 1_555
Mn1 O29 1.935433 1_554
Mn1 O34 1.956932 1_555
Mn2 O26 1.702313 1_555
Mn2 O53 1.734582 1_555
Mn2 O49 1.831925 1_555
Mn2 O30 1.935433 1_555
Mn2 O33 1.956932 1_555
Mn3 O27 1.702313 1_556
Mn3 O52 1.734582 1_556
Mn3 O48 1.831925 1_555
Mn3 O31 1.935433 1_556
Mn3 O32 1.956932 1_555
Mn4 O47 1.784557 1_555
Mn4 O39 1.870162 1_555
Mn4 O35 1.872645 1_555
Mn4 O51 1.877206 1_555
Mn4 O43 2.132826 1_555
Mn5 O46 1.784557 1_555
Mn5 O38 1.870162 1_555
Mn5 O34 1.872645 1_555
Mn5 O50 1.877206 1_555
Mn5 O42 2.132826 1_555
Mn6 O45 1.784557 1_555
Mn6 O37 1.870162 1_555
Mn6 O33 1.872645 1_555
Mn6 O49 1.877206 1_555
Mn6 O41 2.132826 1_555
Mn7 O44 1.784557 1_555
Mn7 O36 1.870162 1_555
Mn7 O32 1.872645 1_555
Mn7 O48 1.877206 1_555
Mn7 O40 2.132826 1_555
Mn8 O24 1.702313 1_555
Mn8 O21 1.734582 1_555
Mn8 O51 1.831925 1_555
Mn8 O28 1.935433 1_555
Mn8 O35 1.956932 1_555
Mn9 O31 1.715246 1_555
Mn9 O15 1.717590 1_555
Mn9 O19 1.737518 1_555
Mn9 O23 1.762477 1_655
Mn10 O30 1.715246 1_555
Mn10 O14 1.717590 1_555
Mn10 O18 1.737518 1_545
Mn10 O55 1.762477 1_455
Mn11 O29 1.715246 1_555
Mn11 O13 1.717590 1_555
Mn11 O17 1.737518 1_555
Mn11 O22 1.762477 1_455
Mn12 O1 1.676165 1_555
Mn12 O9 1.712753 1_555
Mn12 O5 1.739865 1_555
Mn12 O42 1.765204 1_555
Mn13 O3 1.676165 1_555
Mn13 O11 1.712753 1_555
Mn13 O7 1.739865 1_555
Mn13 O40 1.765204 1_555
Mn14 O2 1.676165 1_555
Mn14 O10 1.712753 1_545
Mn14 O6 1.739865 1_555
Mn14 O41 1.765204 1_555
Mn15 O28 1.715246 1_555
Mn15 O12 1.717590 1_555
Mn15 O16 1.737518 1_565
Mn15 O20 1.762477 1_655
Co0 O36 1.968841 1_555
Co0 O51 1.981765 1_545
Co0 O53 2.013813 1_555
Co0 O14 2.071337 1_555
Co0 O55 2.144494 1_555
Co0 O43 2.213400 1_545
Co1 O37 1.968841 1_555
Co1 O50 1.981765 1_555
Co1 O52 2.013813 1_555
Co1 O15 2.071337 1_555
Co1 O23 2.144494 1_555
Co1 O42 2.213400 1_555
Co2 O38 1.968841 1_555
Co2 O49 1.981765 1_565
Co2 O21 2.013813 1_555
Co2 O12 2.071337 1_555
Co2 O20 2.144494 1_555
Co2 O41 2.213400 1_565
Co3 O39 1.968841 1_555
Co3 O48 1.981765 1_555
Co3 O54 2.013813 1_555
Co3 O13 2.071337 1_555
Co3 O22 2.144494 1_555
Co3 O40 2.213400 1_555
Co4 O44 1.868909 1_655
Co4 O36 1.888313 1_555
Co4 O17 1.968381 1_655
Co4 O55 2.020681 1_555
Co4 O7 2.077975 1_555
Co4 O8 2.113426 1_555
Co5 O45 1.868909 1_455
Co5 O37 1.888313 1_555
Co5 O16 1.968381 1_455
Co5 O23 2.020681 1_555
Co5 O6 2.077975 1_555
Co5 O9 2.113426 1_555
Co6 O46 1.868909 1_455
Co6 O38 1.888313 1_555
Co6 O19 1.968381 1_455
Co6 O20 2.020681 1_555
Co6 O5 2.077975 1_555
Co6 O10 2.113426 1_555
Co7 O47 1.868909 1_655
Co7 O39 1.888313 1_555
Co7 O18 1.968381 1_655
Co7 O22 2.020681 1_555
Co7 O4 2.077975 1_555
Co7 O11 2.113426 1_555
