# generated using pymatgen
data_Zn2Ni2O5
_symmetry_space_group_name_H-M   'P 1'
_cell_length_a   3.67722300
_cell_length_b   5.24575300
_cell_length_c   10.33747900
_cell_angle_alpha   90.00000000
_cell_angle_beta   90.00000000
_cell_angle_gamma   90.00000000
_symmetry_Int_Tables_number   1
_chemical_formula_structural   Zn2Ni2O5
_chemical_formula_sum   'Zn4 Ni4 O10'
_cell_volume   199.40793946
_cell_formula_units_Z   2
loop_
 _symmetry_equiv_pos_site_id
 _symmetry_equiv_pos_as_xyz
  1  'x, y, z'
loop_
 _atom_site_type_symbol
 _atom_site_label
 _atom_site_symmetry_multiplicity
 _atom_site_fract_x
 _atom_site_fract_y
 _atom_site_fract_z
 _atom_site_occupancy
  Zn  Zn0  1  0.50000000  0.76852700  0.90121300  1
  Zn  Zn1  1  0.50000000  0.23147300  0.09878700  1
  Zn  Zn2  1  0.50000000  0.26852700  0.59878700  1
  Zn  Zn3  1  0.50000000  0.73147300  0.40121300  1
  Ni  Ni0  1  0.00000000  0.72622000  0.63720300  1
  Ni  Ni1  1  0.00000000  0.27378000  0.36279700  1
  Ni  Ni2  1  0.00000000  0.77378000  0.13720300  1
  Ni  Ni3  1  0.00000000  0.22622000  0.86279700  1
  O  O0  1  0.00000000  0.00000000  0.50000000  1
  O  O1  1  0.00000000  0.65111200  0.31875600  1
  O  O2  1  0.00000000  0.15111200  0.18124400  1
  O  O3  1  0.00000000  0.84888800  0.81875600  1
  O  O4  1  0.50000000  0.80854500  0.09815500  1
  O  O5  1  0.50000000  0.19145500  0.90184500  1
  O  O6  1  0.00000000  0.34888800  0.68124400  1
  O  O7  1  0.50000000  0.69145500  0.59815500  1
  O  O8  1  0.00000000  0.50000000  0.00000000  1
  O  O9  1  0.50000000  0.30854500  0.40184500  1
loop_
_geom_bond_atom_site_label_1
_geom_bond_atom_site_label_2
_geom_bond_distance
_geom_bond_site_symmetry_2
Ni0 O7 1.891214 1_555
Ni0 O7 1.891214 1_455
Ni0 O3 1.984050 1_555
Ni0 O0 2.018487 1_565
Ni0 O6 2.031074 1_555
Ni1 O9 1.891214 1_455
Ni1 O9 1.891214 1_555
Ni1 O2 1.984050 1_555
Ni1 O0 2.018487 1_555
Ni1 O1 2.031074 1_555
Ni2 O4 1.891214 1_455
Ni2 O4 1.891214 1_555
Ni2 O1 1.984050 1_555
Ni2 O8 2.018487 1_555
Ni2 O2 2.031074 1_565
Ni3 O5 1.891214 1_455
Ni3 O5 1.891214 1_555
Ni3 O6 1.984050 1_555
Ni3 O8 2.018487 1_556
Ni3 O3 2.031074 1_545
O0 Zn2 2.531321 1_455
O0 Zn2 2.531321 1_555
O0 Zn3 2.531321 1_445
O0 Zn3 2.531321 1_545
O1 Zn3 2.069971 1_555
O1 Zn3 2.069971 1_455
O2 Zn1 2.069971 1_555
O2 Zn1 2.069971 1_455
O3 Zn0 2.069971 1_555
O3 Zn0 2.069971 1_455
O4 Zn0 2.046678 1_554
O4 Zn1 2.218585 1_565
O5 Zn1 2.046678 1_556
O5 Zn0 2.218585 1_545
O6 Zn2 2.069971 1_455
O6 Zn2 2.069971 1_555
O7 Zn3 2.046678 1_555
O7 Zn2 2.218585 1_555
O8 Zn0 2.531321 1_454
O8 Zn0 2.531321 1_554
O8 Zn1 2.531321 1_555
O8 Zn1 2.531321 1_455
O9 Zn2 2.046678 1_555
O9 Zn3 2.218585 1_555
