# generated using pymatgen
data_KIBr2O
_symmetry_space_group_name_H-M   'P 1'
_cell_length_a   5.17853200
_cell_length_b   11.85949000
_cell_length_c   12.88702863
_cell_angle_alpha   85.71792317
_cell_angle_beta   90.00000000
_cell_angle_gamma   90.00000000
_symmetry_Int_Tables_number   1
_chemical_formula_structural   KIBr2O
_chemical_formula_sum   'K4 I4 Br8 O4'
_cell_volume   789.24431038
_cell_formula_units_Z   4
loop_
 _symmetry_equiv_pos_site_id
 _symmetry_equiv_pos_as_xyz
  1  'x, y, z'
loop_
 _atom_site_type_symbol
 _atom_site_label
 _atom_site_symmetry_multiplicity
 _atom_site_fract_x
 _atom_site_fract_y
 _atom_site_fract_z
 _atom_site_occupancy
  K  K0  1  0.50000000  0.16760600  0.70492700  1
  K  K1  1  0.50000000  0.83239400  0.29507300  1
  K  K2  1  0.00000000  0.67441300  0.75675000  1
  K  K3  1  0.00000000  0.32558700  0.24325000  1
  I  I0  1  0.50000000  0.50000000  0.00000000  1
  I  I1  1  0.00000000  0.00000000  0.50000000  1
  I  I2  1  0.50000000  0.50000000  0.50000000  1
  I  I3  1  0.00000000  0.00000000  0.00000000  1
  Br  Br0  1  0.50000000  0.48114100  0.79107500  1
  Br  Br1  1  0.50000000  0.51885900  0.20892500  1
  Br  Br2  1  0.00000000  0.95917500  0.71316500  1
  Br  Br3  1  0.00000000  0.04082500  0.28683500  1
  Br  Br4  1  0.50000000  0.29071500  0.42581700  1
  Br  Br5  1  0.50000000  0.70928500  0.57418300  1
  Br  Br6  1  0.00000000  0.77309900  0.10266700  1
  Br  Br7  1  0.00000000  0.22690100  0.89733300  1
  O  O0  1  0.00000000  0.23627600  0.76057200  1
  O  O1  1  0.00000000  0.76372400  0.23942800  1
  O  O2  1  0.50000000  0.69985800  0.77493700  1
  O  O3  1  0.50000000  0.30014200  0.22506300  1
loop_
_geom_bond_atom_site_label_1
_geom_bond_atom_site_label_2
_geom_bond_distance
_geom_bond_site_symmetry_2
K0 O0 2.822937 1_555
K0 O0 2.822937 1_655
K1 O1 2.822937 1_655
K1 O1 2.822937 1_555
K2 O2 2.619323 1_555
K2 O2 2.619323 1_455
K3 O3 2.619323 1_555
K3 O3 2.619323 1_455
Br0 O2 2.586671 1_555
Br0 I0 2.718288 1_556
Br0 K2 3.464436 1_655
Br0 K2 3.464436 1_555
Br1 O3 2.586671 1_555
Br1 I0 2.718288 1_555
Br1 K3 3.464436 1_555
Br1 K3 3.464436 1_655
Br2 I1 2.753571 1_565
Br2 K2 3.381899 1_555
Br2 K0 3.575835 1_465
Br2 K0 3.575835 1_565
Br3 I1 2.753571 1_555
Br3 K3 3.381899 1_555
Br3 K1 3.575835 1_445
Br3 K1 3.575835 1_545
Br4 O3 2.581184 1_555
Br4 I2 2.725557 1_555
Br4 K3 3.502206 1_555
Br4 K3 3.502206 1_655
Br4 K0 3.779561 1_555
Br5 O2 2.581184 1_555
Br5 I2 2.725557 1_555
Br5 K2 3.502206 1_555
Br5 K2 3.502206 1_655
Br5 K1 3.779561 1_555
Br6 O1 1.757642 1_555
Br6 I3 2.908600 1_565
Br7 O0 1.757642 1_555
Br7 I3 2.908600 1_556
