# generated using pymatgen
data_Na2W2O5
_symmetry_space_group_name_H-M   'P 1'
_cell_length_a   5.60925900
_cell_length_b   5.81182173
_cell_length_c   8.78038380
_cell_angle_alpha   108.61353233
_cell_angle_beta   108.13616734
_cell_angle_gamma   90.96114915
_symmetry_Int_Tables_number   1
_chemical_formula_structural   Na2W2O5
_chemical_formula_sum   'Na4 W4 O10'
_cell_volume   255.63941084
_cell_formula_units_Z   2
loop_
 _symmetry_equiv_pos_site_id
 _symmetry_equiv_pos_as_xyz
  1  'x, y, z'
loop_
 _atom_site_type_symbol
 _atom_site_label
 _atom_site_symmetry_multiplicity
 _atom_site_fract_x
 _atom_site_fract_y
 _atom_site_fract_z
 _atom_site_occupancy
  Na  Na0  1  0.08601700  0.60945800  0.22890100  1
  Na  Na1  1  0.91611200  0.41183300  0.79344600  1
  Na  Na2  1  0.62155700  0.09394900  0.20788500  1
  Na  Na3  1  0.36344800  0.90177100  0.77473300  1
  W  W0  1  0.99435800  0.99988800  0.00429500  1
  W  W1  1  0.49014600  0.49474600  0.99682700  1
  W  W2  1  0.38689400  0.27295400  0.49951600  1
  W  W3  1  0.63130500  0.69393400  0.50043100  1
  O  O0  1  0.73723600  0.24172000  0.01155900  1
  O  O1  1  0.20020100  0.22142300  0.95707500  1
  O  O2  1  0.78345900  0.76413200  0.03801400  1
  O  O3  1  0.25152800  0.75677900  0.99243800  1
  O  O4  1  0.15908500  0.16302100  0.25873800  1
  O  O5  1  0.80814200  0.82806400  0.74098400  1
  O  O6  1  0.56888900  0.59392800  0.25940900  1
  O  O7  1  0.40058800  0.39044700  0.73977500  1
  O  O8  1  0.36724700  0.91482100  0.49810100  1
  O  O9  1  0.73379300  0.33393100  0.49787100  1
loop_
_geom_bond_atom_site_label_1
_geom_bond_atom_site_label_2
_geom_bond_distance
_geom_bond_site_symmetry_2
Na0 O2 2.395758 1_455
Na0 O8 2.476286 1_555
Na0 O0 2.639857 1_455
Na0 O6 2.643504 1_555
Na0 O4 2.715029 1_555
Na0 O3 2.865992 1_554
Na0 O1 2.959176 1_554
Na0 O6 2.997395 1_455
Na1 O1 2.340287 1_655
Na1 O9 2.359722 1_555
Na1 O3 2.490496 1_655
Na1 O5 2.649083 1_555
Na1 O2 2.756145 1_556
Na1 O7 2.775191 1_555
Na1 O0 2.832586 1_556
Na1 O7 2.897210 1_655
Na2 O9 2.351660 1_555
Na2 O0 2.398515 1_555
Na2 O2 2.408368 1_545
Na2 O3 2.603712 1_544
Na2 O4 2.780579 1_555
Na2 O6 2.829907 1_555
Na2 O4 2.908331 1_655
Na3 O1 2.433954 1_565
Na3 O8 2.460834 1_555
Na3 O3 2.552602 1_555
Na3 O5 2.628374 1_555
Na3 O0 2.673510 1_566
Na3 O7 2.906381 1_555
Na3 O7 2.963145 1_565
O0 W0 2.031657 1_545
O0 W1 2.044112 1_554
O1 W0 1.936931 1_446
O1 W1 2.120438 1_555
O2 W0 1.946050 1_555
O2 W1 2.114380 1_554
O3 W0 2.038631 1_456
O3 W1 2.045951 1_555
O4 W2 1.984719 1_555
O4 W0 2.019210 1_445
O5 W3 1.916102 1_555
O5 W0 2.102673 1_556
O6 W3 1.919813 1_555
O6 W1 2.086172 1_554
O7 W2 1.974902 1_555
O7 W1 2.030879 1_555
O8 W3 1.975855 1_555
O8 W2 2.078339 1_565
O9 W2 1.977308 1_555
O9 W3 2.174161 1_555
