# generated using pymatgen
data_CaCe4Si3O13
_symmetry_space_group_name_H-M   'P 1'
_cell_length_a   7.10294733
_cell_length_b   9.70775498
_cell_length_c   9.71076611
_cell_angle_alpha   120.07785005
_cell_angle_beta   90.00000000
_cell_angle_gamma   90.00000000
_symmetry_Int_Tables_number   1
_chemical_formula_structural   CaCe4Si3O13
_chemical_formula_sum   'Ca2 Ce8 Si6 O26'
_cell_volume   579.42909821
_cell_formula_units_Z   2
loop_
 _symmetry_equiv_pos_site_id
 _symmetry_equiv_pos_as_xyz
  1  'x, y, z'
loop_
 _atom_site_type_symbol
 _atom_site_label
 _atom_site_symmetry_multiplicity
 _atom_site_fract_x
 _atom_site_fract_y
 _atom_site_fract_z
 _atom_site_occupancy
  Ca  Ca0  1  0.50300966  0.66668101  0.33353659  1
  Ca  Ca1  1  0.00300966  0.33331899  0.66646341  1
  Ce  Ce0  1  0.49849777  0.33360205  0.66653279  1
  Ce  Ce1  1  0.99849777  0.66639795  0.33346721  1
  Ce  Ce2  1  0.74988914  0.23946643  0.00439736  1
  Ce  Ce3  1  0.74990741  0.99539932  0.23458391  1
  Ce  Ce4  1  0.74979917  0.76551580  0.76162964  1
  Ce  Ce5  1  0.24988914  0.76053357  0.99560264  1
  Ce  Ce6  1  0.24990741  0.00460068  0.76541609  1
  Ce  Ce7  1  0.24979917  0.23448420  0.23837036  1
  Si  Si0  1  0.75119665  0.02762112  0.62879009  1
  Si  Si1  1  0.75111687  0.37068754  0.39873138  1
  Si  Si2  1  0.75121677  0.60088323  0.97258033  1
  Si  Si3  1  0.25119665  0.97237888  0.37120991  1
  Si  Si4  1  0.25111687  0.62931246  0.60126862  1
  Si  Si5  1  0.25121677  0.39911677  0.02741967  1
  O  O0  1  0.75084268  0.83509009  0.51199440  1
  O  O1  1  0.75084418  0.48636109  0.32194640  1
  O  O2  1  0.75080189  0.67703614  0.16508307  1
  O  O3  1  0.25084268  0.16490991  0.48800560  1
  O  O4  1  0.25084418  0.51363891  0.67805360  1
  O  O5  1  0.25080189  0.32296386  0.83491693  1
  O  O6  1  0.56597297  0.08968963  0.74824534  1
  O  O7  1  0.56574581  0.25136394  0.34153274  1
  O  O8  1  0.56585457  0.65811058  0.91068413  1
  O  O9  1  0.06597297  0.91031037  0.25175466  1
  O  O10  1  0.06574581  0.74863606  0.65846726  1
  O  O11  1  0.06585457  0.34188942  0.08931587  1
  O  O12  1  0.43245634  0.91361562  0.24866501  1
  O  O13  1  0.43251910  0.75166467  0.66484489  1
  O  O14  1  0.43221803  0.33484405  0.08570710  1
  O  O15  1  0.93245634  0.08638438  0.75133499  1
  O  O16  1  0.93251910  0.24833533  0.33515511  1
  O  O17  1  0.93221803  0.66515595  0.91429290  1
  O  O18  1  0.74731315  0.00082264  0.00029181  1
  O  O19  1  0.24731315  0.99917736  -0.00029181  1
  O  O20  1  0.75020633  0.12640963  0.53208209  1
  O  O21  1  0.75001650  0.46809852  0.59443688  1
  O  O22  1  0.75057499  0.40520778  0.87307292  1
  O  O23  1  0.25020633  0.87359037  0.46791791  1
  O  O24  1  0.25001650  0.53190148  0.40556312  1
  O  O25  1  0.25057499  0.59479222  0.12692708  1
loop_
_geom_bond_atom_site_label_1
_geom_bond_atom_site_label_2
_geom_bond_distance
_geom_bond_site_symmetry_2
Ca0 O0 2.436174 1_555
Ca0 O2 2.438977 1_555
Ca0 O1 2.445055 1_555
Ca0 O25 2.514738 1_555
Ca0 O23 2.516843 1_555
Ca0 O24 2.519450 1_555
Ca0 O13 2.936253 1_555
Ca0 O14 2.941277 1_555
Ca0 O12 2.942311 1_555
Ca1 O3 2.436174 1_555
Ca1 O5 2.438977 1_555
Ca1 O4 2.445055 1_555
Ca1 O22 2.514738 1_455
Ca1 O20 2.516843 1_455
Ca1 O21 2.519450 1_455
Ca1 O16 2.936253 1_455
Ca1 O17 2.941277 1_455
Ca1 O15 2.942311 1_455
Ce0 O3 2.436380 1_555
Ce0 O5 2.439056 1_555
Ce0 O4 2.442437 1_555
Ce0 O21 2.510541 1_555
Ce0 O22 2.512821 1_555
Ce0 O20 2.512864 1_555
Ce0 O8 2.878825 1_555
Ce0 O7 2.881031 1_555
Ce0 O6 2.889514 1_555
Ce1 O0 2.436380 1_555
Ce1 O2 2.439056 1_555
Ce1 O1 2.442437 1_555
Ce1 O24 2.510541 1_655
Ce1 O25 2.512821 1_655
Ce1 O23 2.512864 1_655
Ce1 O11 2.878825 1_655
Ce1 O10 2.881031 1_655
Ce1 O9 2.889514 1_655
Ce2 O18 2.297047 1_555
Ce2 O14 2.416461 1_555
Ce2 O11 2.425613 1_655
Ce2 O15 2.503691 1_554
Ce2 O22 2.504358 1_554
Ce2 O6 2.526409 1_554
Ce2 O1 2.800943 1_555
Ce3 O18 2.302066 1_565
Ce3 O12 2.417053 1_555
Ce3 O9 2.426558 1_655
Ce3 O16 2.502343 1_565
Ce3 O20 2.506118 1_565
Ce3 O7 2.525355 1_565
Ce3 O2 2.813633 1_555
Ce4 O18 2.298488 1_566
Ce4 O13 2.419412 1_555
Ce4 O10 2.429424 1_655
Ce4 O21 2.504702 1_555
Ce4 O17 2.504703 1_555
Ce4 O8 2.530221 1_555
Ce4 O0 2.823806 1_555
Ce5 O19 2.297047 1_556
Ce5 O17 2.416461 1_455
Ce5 O8 2.425613 1_555
Ce5 O12 2.503691 1_556
Ce5 O25 2.504358 1_556
Ce5 O9 2.526409 1_556
Ce5 O4 2.800943 1_555
Ce6 O19 2.302066 1_546
Ce6 O15 2.417053 1_455
Ce6 O6 2.426558 1_555
Ce6 O13 2.502343 1_545
Ce6 O23 2.506118 1_545
Ce6 O10 2.525355 1_545
Ce6 O5 2.813633 1_555
Ce7 O19 2.298488 1_545
Ce7 O16 2.419412 1_455
Ce7 O7 2.429424 1_555
Ce7 O24 2.504702 1_555
Ce7 O14 2.504703 1_555
Ce7 O11 2.530221 1_555
Ce7 O3 2.823806 1_555
O0 Si0 1.629379 1_565
O1 Si1 1.629794 1_555
O2 Si2 1.629659 1_554
O3 Si3 1.629379 1_545
O4 Si4 1.629794 1_555
O5 Si5 1.629659 1_556
O6 Si0 1.654980 1_555
O7 Si1 1.655009 1_555
O8 Si2 1.654719 1_555
O9 Si3 1.654980 1_555
O10 Si4 1.655009 1_555
O11 Si5 1.654719 1_555
O12 Si3 1.648845 1_555
O13 Si4 1.648370 1_555
O14 Si5 1.648196 1_555
O15 Si0 1.648845 1_555
O16 Si1 1.648370 1_555
O17 Si2 1.648196 1_555
O20 Si0 1.644513 1_555
O21 Si1 1.644578 1_555
O22 Si2 1.643852 1_555
O23 Si3 1.644513 1_555
O24 Si4 1.644578 1_555
O25 Si5 1.643852 1_555
