# generated using pymatgen
data_Dy(MnSn)6
_symmetry_space_group_name_H-M   'P 1'
_cell_length_a   5.68423816
_cell_length_b   5.68424143
_cell_length_c   9.16796239
_cell_angle_alpha   90.00000000
_cell_angle_beta   90.00000000
_cell_angle_gamma   119.99776043
_symmetry_Int_Tables_number   1
_chemical_formula_structural   Dy(MnSn)6
_chemical_formula_sum   'Dy1 Mn6 Sn6'
_cell_volume   256.54174024
_cell_formula_units_Z   1
loop_
 _symmetry_equiv_pos_site_id
 _symmetry_equiv_pos_as_xyz
  1  'x, y, z'
loop_
 _atom_site_type_symbol
 _atom_site_label
 _atom_site_symmetry_multiplicity
 _atom_site_fract_x
 _atom_site_fract_y
 _atom_site_fract_z
 _atom_site_occupancy
  Dy  Dy0  1  0.00000000  0.00000000  -0.00000000  1
  Mn  Mn0  1  0.50000000  0.50000000  0.75331855  1
  Mn  Mn1  1  0.50000000  0.00000000  0.75331768  1
  Mn  Mn2  1  0.00000000  0.50000000  0.75331547  1
  Mn  Mn3  1  0.50000000  0.50000000  0.24668145  1
  Mn  Mn4  1  0.50000000  0.00000000  0.24668232  1
  Mn  Mn5  1  0.00000000  0.50000000  0.24668453  1
  Sn  Sn0  1  0.66666367  0.33333766  -0.00000000  1
  Sn  Sn1  1  0.33333633  0.66666234  -0.00000000  1
  Sn  Sn2  1  0.66666257  0.33333465  0.50000000  1
  Sn  Sn3  1  0.33333743  0.66666535  0.50000000  1
  Sn  Sn4  1  0.00000000  0.00000000  0.66457970  1
  Sn  Sn5  1  0.00000000  0.00000000  0.33542030  1
loop_
_geom_bond_atom_site_label_1
_geom_bond_atom_site_label_2
_geom_bond_distance
_geom_bond_site_symmetry_2
Dy0 Sn5 3.075121 1_555
Dy0 Sn4 3.075121 1_554
Dy0 Sn0 3.281796 1_455
Dy0 Sn1 3.281796 1_545
Dy0 Sn0 3.281851 1_445
Dy0 Sn1 3.281851 1_555
Dy0 Sn1 3.281856 1_445
Dy0 Sn0 3.281856 1_555
Mn0 Sn0 2.794110 1_556
Mn0 Sn1 2.794110 1_556
Mn0 Sn2 2.843591 1_555
Mn0 Sn3 2.843591 1_555
Mn0 Sn4 2.956360 1_665
Mn0 Sn4 2.956360 1_555
Mn1 Sn0 2.794183 1_556
Mn1 Sn1 2.794183 1_546
Mn1 Sn2 2.843636 1_555
Mn1 Sn3 2.843636 1_545
Mn1 Sn4 2.956264 1_555
Mn1 Sn4 2.956264 1_655
Mn2 Sn0 2.794195 1_456
Mn2 Sn1 2.794195 1_556
Mn2 Sn3 2.843627 1_555
Mn2 Sn2 2.843627 1_455
Mn2 Sn4 2.956260 1_565
Mn2 Sn4 2.956260 1_555
Mn3 Sn1 2.794110 1_555
Mn3 Sn0 2.794110 1_555
Mn3 Sn2 2.843591 1_555
Mn3 Sn3 2.843591 1_555
Mn3 Sn5 2.956360 1_555
Mn3 Sn5 2.956360 1_665
Mn4 Sn0 2.794183 1_555
Mn4 Sn1 2.794183 1_545
Mn4 Sn2 2.843636 1_555
Mn4 Sn3 2.843636 1_545
Mn4 Sn5 2.956264 1_655
Mn4 Sn5 2.956264 1_555
Mn5 Sn1 2.794195 1_555
Mn5 Sn0 2.794195 1_455
Mn5 Sn3 2.843627 1_555
Mn5 Sn2 2.843627 1_455
Mn5 Sn5 2.956260 1_565
Mn5 Sn5 2.956260 1_555
Sn4 Sn5 3.017721 1_555
