# generated using pymatgen
data_Mg6FeBiO8
_symmetry_space_group_name_H-M   'P 1'
_cell_length_a   8.89246545
_cell_length_b   4.53127789
_cell_length_c   4.53127789
_cell_angle_alpha   90.00000000
_cell_angle_beta   90.00000000
_cell_angle_gamma   90.00000000
_symmetry_Int_Tables_number   1
_chemical_formula_structural   Mg6FeBiO8
_chemical_formula_sum   'Mg6 Fe1 Bi1 O8'
_cell_volume   182.58436292
_cell_formula_units_Z   1
loop_
 _symmetry_equiv_pos_site_id
 _symmetry_equiv_pos_as_xyz
  1  'x, y, z'
loop_
 _atom_site_type_symbol
 _atom_site_label
 _atom_site_symmetry_multiplicity
 _atom_site_fract_x
 _atom_site_fract_y
 _atom_site_fract_z
 _atom_site_occupancy
  Mg  Mg0  1  0.50000000  0.00000000  0.00000000  1
  Mg  Mg1  1  0.50000000  0.50000000  0.50000000  1
  Mg  Mg2  1  0.26581338  0.00000000  0.50000000  1
  Mg  Mg3  1  0.73418662  0.00000000  0.50000000  1
  Mg  Mg4  1  0.26581338  0.50000000  0.00000000  1
  Mg  Mg5  1  0.73418662  0.50000000  0.00000000  1
  Fe  Fe0  1  0.00000000  0.00000000  0.00000000  1
  Bi  Bi0  1  0.00000000  0.50000000  0.50000000  1
  O  O0  1  0.25590358  0.00000000  0.00000000  1
  O  O1  1  0.74409642  0.00000000  0.00000000  1
  O  O2  1  0.27511392  0.50000000  0.50000000  1
  O  O3  1  0.72488608  0.50000000  0.50000000  1
  O  O4  1  0.00000000  0.00000000  0.50000000  1
  O  O5  1  0.50000000  0.00000000  0.50000000  1
  O  O6  1  0.00000000  0.50000000  0.00000000  1
  O  O7  1  0.50000000  0.50000000  0.00000000  1
loop_
_geom_bond_atom_site_label_1
_geom_bond_atom_site_label_2
_geom_bond_distance
_geom_bond_site_symmetry_2
Mg0 O0 2.170619 1_555
Mg0 O1 2.170619 1_555
Mg0 O5 2.265639 1_555
Mg0 O7 2.265639 1_545
Mg0 O7 2.265639 1_555
Mg0 O5 2.265639 1_554
Mg1 O2 1.999792 1_555
Mg1 O3 1.999792 1_555
Mg1 O5 2.265639 1_555
Mg1 O5 2.265639 1_565
Mg1 O7 2.265639 1_555
Mg1 O7 2.265639 1_556
Mg2 O5 2.082496 1_555
Mg2 O2 2.267148 1_545
Mg2 O2 2.267148 1_555
Mg2 O0 2.267352 1_555
Mg2 O0 2.267352 1_556
Mg2 O4 2.363736 1_555
Mg3 O5 2.082496 1_555
Mg3 O3 2.267148 1_555
Mg3 O3 2.267148 1_545
Mg3 O1 2.267352 1_556
Mg3 O1 2.267352 1_555
Mg3 O4 2.363736 1_655
Mg4 O7 2.082496 1_555
Mg4 O2 2.267148 1_554
Mg4 O2 2.267148 1_555
Mg4 O0 2.267352 1_565
Mg4 O0 2.267352 1_555
Mg4 O6 2.363736 1_555
Mg5 O7 2.082496 1_555
Mg5 O3 2.267148 1_555
Mg5 O3 2.267148 1_554
Mg5 O1 2.267352 1_565
Mg5 O1 2.267352 1_555
Mg5 O6 2.363736 1_655
Fe0 O6 2.265639 1_555
Fe0 O4 2.265639 1_555
Fe0 O4 2.265639 1_554
Fe0 O6 2.265639 1_545
Fe0 O0 2.275614 1_555
Fe0 O1 2.275614 1_455
Bi0 O6 2.265639 1_556
Bi0 O6 2.265639 1_555
Bi0 O4 2.265639 1_555
Bi0 O4 2.265639 1_565
Bi0 O2 2.446441 1_555
Bi0 O3 2.446441 1_455
