# generated using pymatgen
data_Nd4CoS7
_symmetry_space_group_name_H-M   'P 1'
_cell_length_a   9.85003428
_cell_length_b   9.85003428
_cell_length_c   6.75142900
_cell_angle_alpha   90.00000000
_cell_angle_beta   90.00000000
_cell_angle_gamma   120.00000191
_symmetry_Int_Tables_number   1
_chemical_formula_structural   Nd4CoS7
_chemical_formula_sum   'Nd8 Co2 S14'
_cell_volume   567.28566903
_cell_formula_units_Z   2
loop_
 _symmetry_equiv_pos_site_id
 _symmetry_equiv_pos_as_xyz
  1  'x, y, z'
loop_
 _atom_site_type_symbol
 _atom_site_label
 _atom_site_symmetry_multiplicity
 _atom_site_fract_x
 _atom_site_fract_y
 _atom_site_fract_z
 _atom_site_occupancy
  Nd  Nd0  1  0.66666700  0.33333300  0.82582400  1
  Nd  Nd1  1  0.33333300  0.66666700  0.32582400  1
  Nd  Nd2  1  0.62736300  0.85551400  0.78401300  1
  Nd  Nd3  1  0.22815100  0.37263700  0.78401300  1
  Nd  Nd4  1  0.37263700  0.14448600  0.28401300  1
  Nd  Nd5  1  0.14448600  0.77184900  0.78401300  1
  Nd  Nd6  1  0.77184900  0.62736300  0.28401300  1
  Nd  Nd7  1  0.85551400  0.22815100  0.28401300  1
  Co  Co0  1  0.00000000  0.00000000  0.98132000  1
  Co  Co1  1  0.00000000  0.00000000  0.48132000  1
  S  S0  1  0.49310300  0.56356000  0.53937700  1
  S  S1  1  0.07045700  0.50689700  0.53937700  1
  S  S2  1  0.50689700  0.43644000  0.03937700  1
  S  S3  1  0.43644000  0.92954300  0.53937700  1
  S  S4  1  0.92954300  0.49310300  0.03937700  1
  S  S5  1  0.56356000  0.07045700  0.03937700  1
  S  S6  1  0.66666700  0.33333300  0.43549300  1
  S  S7  1  0.33333300  0.66666700  0.93549300  1
  S  S8  1  0.90705500  0.13658100  0.69706500  1
  S  S9  1  0.22952600  0.09294500  0.69706500  1
  S  S10  1  0.09294500  0.86341900  0.19706500  1
  S  S11  1  0.86341900  0.77047400  0.69706500  1
  S  S12  1  0.77047400  0.90705500  0.19706500  1
  S  S13  1  0.13658100  0.22952600  0.19706500  1
loop_
_geom_bond_atom_site_label_1
_geom_bond_atom_site_label_2
_geom_bond_distance
_geom_bond_site_symmetry_2
Nd0 S6 2.635292 1_555
Nd0 S5 2.680509 1_556
Nd0 S4 2.680510 1_556
Nd0 S2 2.680517 1_556
Nd1 S7 2.635292 1_554
Nd1 S3 2.680509 1_555
Nd1 S1 2.680510 1_555
Nd1 S0 2.680517 1_555
Nd2 S7 2.739839 1_555
Nd2 S8 2.823470 1_565
Nd2 S3 2.857901 1_555
Nd2 S11 2.898324 1_555
Nd2 S0 2.990606 1_555
Nd2 S5 3.029931 1_566
Nd2 S12 3.050573 1_556
Nd3 S7 2.739840 1_555
Nd3 S9 2.823470 1_555
Nd3 S0 2.857901 1_555
Nd3 S8 2.898323 1_455
Nd3 S1 2.990606 1_555
Nd3 S2 3.029931 1_556
Nd3 S13 3.050573 1_556
Nd4 S6 2.739839 1_555
Nd4 S10 2.823470 1_545
Nd4 S5 2.857901 1_555
Nd4 S13 2.898324 1_555
Nd4 S2 2.990606 1_555
Nd4 S3 3.029931 1_545
Nd4 S9 3.050573 1_555
Nd5 S7 2.739832 1_555
Nd5 S11 2.823470 1_455
Nd5 S1 2.857901 1_555
Nd5 S9 2.898323 1_565
Nd5 S3 2.990606 1_555
Nd5 S4 3.029931 1_456
Nd5 S10 3.050573 1_556
Nd6 S6 2.739840 1_555
Nd6 S12 2.823470 1_555
Nd6 S2 2.857901 1_555
Nd6 S10 2.898323 1_655
Nd6 S4 2.990606 1_555
Nd6 S0 3.029931 1_555
Nd6 S11 3.050573 1_555
Nd7 S6 2.739832 1_555
Nd7 S13 2.823470 1_655
Nd7 S4 2.857901 1_555
Nd7 S12 2.898323 1_545
Nd7 S5 2.990606 1_555
Nd7 S1 3.029931 1_655
Nd7 S8 3.050573 1_555
Co0 S13 2.449771 1_556
Co0 S12 2.449771 1_446
Co0 S10 2.449771 1_546
Co0 S11 2.750051 1_445
Co0 S9 2.750051 1_555
Co0 S8 2.750051 1_455
Co1 S11 2.449771 1_445
Co1 S9 2.449771 1_555
Co1 S8 2.449771 1_455
Co1 S13 2.750051 1_555
Co1 S12 2.750051 1_445
Co1 S10 2.750051 1_545
