# generated using pymatgen
data_Si7Tc4
_symmetry_space_group_name_H-M   'P 1'
_cell_length_a   5.74212480
_cell_length_b   5.74212480
_cell_length_c   18.03504706
_cell_angle_alpha   90.00000000
_cell_angle_beta   90.00000000
_cell_angle_gamma   90.00000000
_symmetry_Int_Tables_number   1
_chemical_formula_structural   Si7Tc4
_chemical_formula_sum   'Si28 Tc16'
_cell_volume   594.65152150
_cell_formula_units_Z   4
loop_
 _symmetry_equiv_pos_site_id
 _symmetry_equiv_pos_as_xyz
  1  'x, y, z'
loop_
 _atom_site_type_symbol
 _atom_site_label
 _atom_site_symmetry_multiplicity
 _atom_site_fract_x
 _atom_site_fract_y
 _atom_site_fract_z
 _atom_site_occupancy
  Si  Si0  1  0.18996099  0.15145230  0.38441072  1
  Si  Si1  1  0.81003901  0.84854770  0.38441072  1
  Si  Si2  1  0.18996099  0.84854770  0.88441072  1
  Si  Si3  1  0.81003901  0.15145230  0.88441072  1
  Si  Si4  1  0.15145230  0.81003901  0.61558928  1
  Si  Si5  1  0.84854770  0.18996099  0.61558928  1
  Si  Si6  1  0.84854770  0.81003901  0.11558928  1
  Si  Si7  1  0.15145230  0.18996099  0.11558928  1
  Si  Si8  1  0.84634721  0.32988325  0.31611839  1
  Si  Si9  1  0.15365279  0.67011675  0.31611839  1
  Si  Si10  1  0.84634721  0.67011675  0.81611839  1
  Si  Si11  1  0.15365279  0.32988325  0.81611839  1
  Si  Si12  1  0.32988325  0.15365279  0.68388161  1
  Si  Si13  1  0.67011675  0.84634721  0.68388161  1
  Si  Si14  1  0.67011675  0.15365279  0.18388161  1
  Si  Si15  1  0.32988325  0.84634721  0.18388161  1
  Si  Si16  1  0.34079761  0.34079761  0.25000000  1
  Si  Si17  1  0.65920239  0.65920239  0.25000000  1
  Si  Si18  1  0.34079761  0.65920239  0.75000000  1
  Si  Si19  1  0.65920239  0.34079761  0.75000000  1
  Si  Si20  1  0.22511521  0.34805768  0.54086877  1
  Si  Si21  1  0.77488479  0.65194232  0.54086877  1
  Si  Si22  1  0.22511521  0.65194232  0.04086877  1
  Si  Si23  1  0.77488479  0.34805768  0.04086877  1
  Si  Si24  1  0.34805768  0.77488479  0.45913123  1
  Si  Si25  1  0.65194232  0.22511521  0.45913123  1
  Si  Si26  1  0.65194232  0.77488479  0.95913123  1
  Si  Si27  1  0.34805768  0.22511521  0.95913123  1
  Tc  Tc0  1  0.00000000  0.00000000  0.50000000  1
  Tc  Tc1  1  0.00000000  0.00000000  0.00000000  1
  Tc  Tc2  1  0.00000000  0.50000000  0.43527275  1
  Tc  Tc3  1  0.00000000  0.50000000  0.93527275  1
  Tc  Tc4  1  0.50000000  0.00000000  0.56472725  1
  Tc  Tc5  1  0.50000000  0.00000000  0.06472725  1
  Tc  Tc6  1  0.50000000  0.50000000  0.36935000  1
  Tc  Tc7  1  0.50000000  0.50000000  0.86935000  1
  Tc  Tc8  1  0.50000000  0.50000000  0.63065000  1
  Tc  Tc9  1  0.50000000  0.50000000  0.13065000  1
  Tc  Tc10  1  0.50000000  0.00000000  0.30760542  1
  Tc  Tc11  1  0.50000000  0.00000000  0.80760542  1
  Tc  Tc12  1  0.00000000  0.50000000  0.69239458  1
  Tc  Tc13  1  0.00000000  0.50000000  0.19239458  1
  Tc  Tc14  1  0.00000000  -0.00000000  0.25000000  1
  Tc  Tc15  1  0.00000000  0.00000000  0.75000000  1
loop_
_geom_bond_atom_site_label_1
_geom_bond_atom_site_label_2
_geom_bond_distance
_geom_bond_site_symmetry_2
Si0 Tc10 2.417531 1_555
Si0 Tc2 2.457002 1_555
Si0 Tc0 2.508367 1_555
Si0 Si8 2.541602 1_455
Si0 Tc6 2.692360 1_555
Si0 Si24 2.704745 1_545
Si0 Si1 2.790058 1_445
Si0 Si16 2.794378 1_555
Si0 Tc14 2.796853 1_555
Si1 Tc10 2.417531 1_565
Si1 Tc2 2.457002 1_655
Si1 Tc0 2.508367 1_665
Si1 Si9 2.541602 1_655
Si1 Tc6 2.692360 1_555
Si1 Si25 2.704745 1_565
Si1 Si17 2.794378 1_555
Si1 Tc14 2.796853 1_665
Si2 Tc11 2.417531 1_565
Si2 Tc3 2.457002 1_555
Si2 Tc1 2.508367 1_566
Si2 Tc7 2.692360 1_555
Si2 Si27 2.704745 1_565
Si2 Si3 2.790058 1_465
Si2 Tc15 2.796853 1_565
Si3 Tc11 2.417531 1_555
Si3 Tc3 2.457002 1_655
Si3 Tc1 2.508367 1_656
Si3 Tc7 2.692360 1_555
Si3 Tc15 2.796853 1_655
Si4 Tc12 2.417531 1_555
Si4 Tc4 2.457002 1_565
Si4 Tc0 2.508367 1_565
Si4 Tc8 2.692360 1_555
Si4 Si5 2.790058 1_465
Si4 Tc15 2.796853 1_565
Si5 Tc12 2.417531 1_655
Si5 Tc4 2.457002 1_555
Si5 Tc0 2.508367 1_655
Si5 Tc8 2.692360 1_555
Si5 Tc15 2.796853 1_655
Si6 Tc13 2.417531 1_655
Si6 Tc5 2.457002 1_565
Si6 Tc1 2.508367 1_665
Si6 Tc9 2.692360 1_555
Si6 Si7 2.790058 1_665
Si6 Tc14 2.796853 1_665
Si7 Tc13 2.417531 1_555
Si7 Tc5 2.457002 1_555
Si7 Tc1 2.508367 1_555
Si7 Tc9 2.692360 1_555
Si7 Tc14 2.796853 1_555
Si8 Tc14 2.405927 1_655
Si8 Tc6 2.414760 1_555
Si8 Tc2 2.520049 1_655
Si8 Tc13 2.590681 1_655
Si8 Si9 2.632597 1_655
Si8 Tc10 2.750797 1_555
Si9 Tc14 2.405927 1_565
Si9 Tc6 2.414760 1_555
Si9 Tc2 2.520049 1_555
Si9 Tc13 2.590681 1_555
Si9 Tc10 2.750797 1_565
Si10 Tc15 2.405927 1_665
Si10 Tc7 2.414760 1_555
Si10 Si19 2.480437 1_555
Si10 Tc3 2.520049 1_655
Si10 Si2 2.541602 1_655
Si10 Tc12 2.590681 1_655
Si10 Si11 2.632597 1_655
Si10 Tc11 2.750797 1_565
Si10 Si13 2.781324 1_555
Si10 Si26 2.874113 1_555
Si11 Tc15 2.405927 1_555
Si11 Tc7 2.414760 1_555
Si11 Si18 2.480437 1_555
Si11 Tc3 2.520049 1_555
Si11 Si3 2.541602 1_455
Si11 Tc12 2.590681 1_555
Si11 Tc11 2.750797 1_555
Si11 Si12 2.781324 1_555
Si11 Si27 2.874113 1_555
Si12 Tc15 2.405927 1_555
Si12 Tc8 2.414760 1_555
Si12 Si19 2.480437 1_555
Si12 Tc4 2.520049 1_555
Si12 Si4 2.541602 1_545
Si12 Tc11 2.590681 1_555
Si12 Si13 2.632597 1_545
Si12 Tc12 2.750797 1_555
Si12 Si20 2.874113 1_555
Si13 Tc15 2.405927 1_665
Si13 Tc8 2.414760 1_555
Si13 Si18 2.480437 1_555
Si13 Tc4 2.520049 1_565
Si13 Si5 2.541602 1_565
Si13 Tc11 2.590681 1_565
Si13 Tc12 2.750797 1_655
Si13 Si21 2.874113 1_555
Si14 Tc14 2.405927 1_655
Si14 Tc9 2.414760 1_555
Si14 Si16 2.480437 1_555
Si14 Tc5 2.520049 1_555
Si14 Si6 2.541602 1_545
Si14 Tc10 2.590681 1_555
Si14 Si15 2.632597 1_545
Si14 Tc13 2.750797 1_655
Si14 Si8 2.781324 1_555
Si14 Si23 2.874113 1_555
Si15 Tc14 2.405927 1_565
Si15 Tc9 2.414760 1_555
Si15 Si17 2.480437 1_555
Si15 Tc5 2.520049 1_565
Si15 Si7 2.541602 1_565
Si15 Tc10 2.590681 1_565
Si15 Tc13 2.750797 1_555
Si15 Si9 2.781324 1_555
Si15 Si22 2.874113 1_555
Si16 Tc10 2.396769 1_555
Si16 Tc13 2.396769 1_555
Si16 Si9 2.480437 1_555
Si16 Tc9 2.510888 1_555
Si16 Tc6 2.510888 1_555
Si16 Si17 2.585635 1_555
Si16 Tc14 2.767478 1_555
Si16 Si7 2.794378 1_555
Si17 Tc10 2.396769 1_565
Si17 Tc13 2.396769 1_655
Si17 Si8 2.480437 1_555
Si17 Tc9 2.510888 1_555
Si17 Tc6 2.510888 1_555
Si17 Tc14 2.767478 1_665
Si17 Si6 2.794378 1_555
Si18 Tc11 2.396769 1_565
Si18 Tc12 2.396769 1_555
Si18 Tc7 2.510888 1_555
Si18 Tc8 2.510888 1_555
Si18 Si19 2.585635 1_555
Si18 Tc15 2.767478 1_565
Si18 Si2 2.794378 1_555
Si18 Si4 2.794378 1_555
Si19 Tc12 2.396769 1_655
Si19 Tc11 2.396769 1_555
Si19 Tc7 2.510888 1_555
Si19 Tc8 2.510888 1_555
Si19 Tc15 2.767478 1_655
Si19 Si5 2.794378 1_555
Si19 Si3 2.794378 1_555
Si20 Tc8 2.423729 1_555
Si20 Tc2 2.461498 1_555
Si20 Tc0 2.491697 1_555
Si20 Tc4 2.582815 1_555
Si20 Si5 2.704745 1_455
Si21 Tc8 2.423729 1_555
Si21 Tc2 2.461498 1_655
Si21 Tc0 2.491697 1_665
Si21 Tc4 2.582815 1_565
Si21 Si4 2.704745 1_655
Si22 Tc9 2.423729 1_555
Si22 Tc3 2.461498 1_554
Si22 Tc1 2.491697 1_565
Si22 Tc5 2.582815 1_565
Si22 Si6 2.704745 1_455
Si23 Tc9 2.423729 1_555
Si23 Tc3 2.461498 1_654
Si23 Tc1 2.491697 1_655
Si23 Tc5 2.582815 1_555
Si23 Si7 2.704745 1_655
Si24 Tc6 2.423729 1_555
Si24 Tc4 2.461498 1_565
Si24 Tc0 2.491697 1_565
Si24 Tc2 2.582815 1_555
Si24 Si9 2.874113 1_555
Si25 Tc6 2.423729 1_555
Si25 Tc4 2.461498 1_555
Si25 Tc0 2.491697 1_655
Si25 Tc2 2.582815 1_655
Si25 Si8 2.874113 1_555
Si26 Tc7 2.423729 1_555
Si26 Tc5 2.461498 1_566
Si26 Tc1 2.491697 1_666
Si26 Tc3 2.582815 1_655
Si26 Si3 2.704745 1_565
Si27 Tc7 2.423729 1_555
Si27 Tc5 2.461498 1_556
Si27 Tc1 2.491697 1_556
Si27 Tc3 2.582815 1_555
