# generated using pymatgen
data_Al8Fe5
_symmetry_space_group_name_H-M   'P 1'
_cell_length_a   7.59018354
_cell_length_b   7.59019324
_cell_length_c   7.59019675
_cell_angle_alpha   109.47094334
_cell_angle_beta   109.47089388
_cell_angle_gamma   109.47088448
_symmetry_Int_Tables_number   1
_chemical_formula_structural   Al8Fe5
_chemical_formula_sum   'Al16 Fe10'
_cell_volume   336.62106734
_cell_formula_units_Z   2
loop_
 _symmetry_equiv_pos_site_id
 _symmetry_equiv_pos_as_xyz
  1  'x, y, z'
loop_
 _atom_site_type_symbol
 _atom_site_label
 _atom_site_symmetry_multiplicity
 _atom_site_fract_x
 _atom_site_fract_y
 _atom_site_fract_z
 _atom_site_occupancy
  Al  Al0  1  0.21185094  -0.00000070  -0.00000170  1
  Al  Al1  1  0.00000071  0.21185337  -0.00000070  1
  Al  Al2  1  -0.00000029  0.00000030  0.21185437  1
  Al  Al3  1  0.78815172  0.78815083  0.78814983  1
  Al  Al4  1  0.34947883  0.72754604  -0.00000102  1
  Al  Al5  1  0.62193089  0.27245332  0.27245332  1
  Al  Al6  1  0.34947683  -0.00000102  0.72754604  1
  Al  Al7  1  0.72754382  0.34947845  -0.00000023  1
  Al  Al8  1  0.00000068  0.34947744  0.72754678  1
  Al  Al9  1  0.27245474  0.62193133  0.27245445  1
  Al  Al10  1  0.27245374  0.27245345  0.62193233  1
  Al  Al11  1  -0.00000032  0.72754778  0.34947944  1
  Al  Al12  1  0.72754582  -0.00000023  0.34947845  1
  Al  Al13  1  0.65052377  0.65052212  0.37806943  1
  Al  Al14  1  0.37806894  0.65052170  0.65052270  1
  Al  Al15  1  0.65052177  0.37806943  0.65052112  1
  Fe  Fe0  1  0.66464168  0.00000087  0.00000187  1
  Fe  Fe1  1  -0.00000066  0.66464265  0.00000076  1
  Fe  Fe2  1  0.00000034  -0.00000024  0.66464165  1
  Fe  Fe3  1  0.33535753  0.33535886  0.33535886  1
  Fe  Fe4  1  -0.00000135  0.64103868  0.64103568  1
  Fe  Fe5  1  0.35895916  0.00000338  0.35895972  1
  Fe  Fe6  1  0.35895916  0.35895872  0.00000138  1
  Fe  Fe7  1  0.00000170  0.35895503  0.35895603  1
  Fe  Fe8  1  0.64104093  -0.00000177  0.64104022  1
  Fe  Fe9  1  0.64103893  0.64104122  -0.00000077  1
loop_
_geom_bond_atom_site_label_1
_geom_bond_atom_site_label_2
_geom_bond_distance
_geom_bond_site_symmetry_2
Al0 Fe2 2.517177 1_554
Al0 Fe1 2.517187 1_545
Al0 Fe3 2.517216 1_555
Al0 Fe6 2.577184 1_555
Al0 Fe5 2.577195 1_555
Al0 Fe4 2.577238 1_544
Al0 Al6 2.609176 1_554
Al0 Al4 2.609193 1_545
Al0 Al5 2.609226 1_555
Al0 Al3 2.625842 1_444
Al0 Al1 2.625844 1_555
Al0 Al2 2.625863 1_555
Al1 Fe2 2.517186 1_554
Al1 Fe0 2.517202 1_455
Al1 Fe3 2.517202 1_555
Al1 Fe7 2.577170 1_555
Al1 Fe6 2.577176 1_555
Al1 Fe8 2.577219 1_454
Al1 Al8 2.609171 1_554
Al1 Al7 2.609203 1_455
Al1 Al9 2.609218 1_555
Al1 Al3 2.625865 1_444
Al1 Al2 2.625871 1_555
Al2 Fe1 2.517185 1_545
Al2 Fe0 2.517187 1_455
Al2 Fe3 2.517204 1_555
Al2 Fe7 2.577151 1_555
Al2 Fe5 2.577179 1_555
Al2 Fe9 2.577222 1_445
Al2 Al3 2.625879 1_444
Al3 Fe2 2.517163 1_665
Al3 Fe1 2.517166 1_656
Al3 Fe0 2.517191 1_566
Al3 Fe8 2.577173 1_565
Al3 Fe4 2.577190 1_655
Al3 Fe9 2.577195 1_556
Al4 Fe9 2.509406 1_555
Al4 Fe1 2.533778 1_555
Al4 Fe0 2.588621 1_565
Al4 Al9 2.619106 1_555
Al4 Al8 2.619134 1_554
Al4 Fe5 2.778312 1_565
Al4 Fe4 2.778318 1_554
Al4 Fe6 2.822456 1_555
Al5 Fe7 2.509469 1_655
Al5 Fe3 2.533760 1_555
Al5 Fe0 2.588619 1_555
Al5 Al7 2.619088 1_555
Al5 Fe5 2.778265 1_555
Al5 Fe6 2.778268 1_555
Al5 Fe4 2.822476 1_655
Al6 Fe8 2.509442 1_555
Al6 Fe2 2.533752 1_555
Al6 Fe0 2.588639 1_556
Al6 Al7 2.619133 1_556
Al6 Fe4 2.778287 1_545
Al6 Fe6 2.778291 1_556
Al6 Fe5 2.822460 1_555
Al7 Fe9 2.509430 1_555
Al7 Fe0 2.533770 1_555
Al7 Fe1 2.588639 1_655
Al7 Fe7 2.778305 1_655
Al7 Fe8 2.778316 1_554
Al7 Fe6 2.822430 1_555
Al8 Fe4 2.509448 1_555
Al8 Fe2 2.533759 1_555
Al8 Fe1 2.588649 1_556
Al8 Fe6 2.778286 1_556
Al8 Fe8 2.778300 1_455
Al8 Fe7 2.822472 1_555
Al9 Fe5 2.509474 1_565
Al9 Fe3 2.533744 1_555
Al9 Fe1 2.588644 1_555
Al9 Fe6 2.778271 1_555
Al9 Fe7 2.778271 1_555
Al9 Fe8 2.822485 1_565
Al10 Fe6 2.509451 1_556
Al10 Fe3 2.533758 1_555
Al10 Fe2 2.588625 1_555
Al10 Al2 2.609217 1_555
Al10 Al8 2.619084 1_555
Al10 Al6 2.619092 1_555
Al10 Al15 2.619102 1_555
Al10 Al14 2.619103 1_555
Al10 Fe5 2.778263 1_555
Al10 Fe7 2.778267 1_555
Al10 Fe9 2.822487 1_556
Al11 Fe4 2.509402 1_555
Al11 Fe1 2.533768 1_555
Al11 Fe2 2.588618 1_565
Al11 Al2 2.609175 1_565
Al11 Al13 2.619079 1_455
Al11 Al9 2.619109 1_555
Al11 Al6 2.619124 1_565
Al11 Al7 2.619145 1_455
Al11 Fe5 2.778298 1_565
Al11 Fe9 2.778309 1_455
Al11 Fe7 2.822486 1_555
Al12 Fe8 2.509425 1_555
Al12 Fe0 2.533758 1_555
Al12 Fe2 2.588635 1_655
Al12 Al2 2.609176 1_655
Al12 Al5 2.619095 1_555
Al12 Al13 2.619101 1_545
Al12 Al4 2.619133 1_545
Al12 Al8 2.619135 1_655
Al12 Fe7 2.778289 1_655
Al12 Fe9 2.778295 1_545
Al12 Fe5 2.822453 1_555
Al13 Fe6 2.509474 1_555
Al13 Fe2 2.533791 1_665
Al13 Fe3 2.588645 1_555
Al13 Al3 2.609208 1_555
Al13 Al5 2.619098 1_555
Al13 Al9 2.619104 1_555
Al13 Fe4 2.778259 1_655
Al13 Fe8 2.778278 1_565
Al13 Fe9 2.822459 1_555
Al14 Fe7 2.509478 1_555
Al14 Fe0 2.533805 1_566
Al14 Fe3 2.588631 1_555
Al14 Al3 2.609221 1_555
Al14 Al4 2.619086 1_556
Al14 Al6 2.619101 1_565
Al14 Al9 2.619105 1_555
Al14 Fe9 2.778268 1_556
Al14 Fe8 2.778283 1_565
Al14 Fe4 2.822445 1_555
Al15 Fe5 2.509459 1_555
Al15 Fe1 2.533801 1_656
Al15 Fe3 2.588633 1_555
Al15 Al3 2.609212 1_555
Al15 Al5 2.619098 1_555
Al15 Al8 2.619108 1_655
Al15 Al7 2.619109 1_556
Al15 Fe4 2.778288 1_655
Al15 Fe9 2.778292 1_556
Al15 Fe8 2.822475 1_555
Fe0 Fe9 2.670198 1_545
Fe0 Fe8 2.670218 1_554
Fe0 Fe7 2.670221 1_655
Fe1 Fe9 2.670206 1_455
Fe1 Fe4 2.670243 1_554
Fe1 Fe5 2.670251 1_565
Fe2 Fe8 2.670198 1_455
Fe2 Fe4 2.670204 1_545
Fe2 Fe6 2.670246 1_556
Fe3 Fe7 2.670157 1_555
Fe3 Fe5 2.670183 1_555
Fe3 Fe6 2.670197 1_555
Fe4 Fe7 2.472299 1_555
Fe5 Fe8 2.472303 1_555
Fe6 Fe9 2.472290 1_555
