# generated using pymatgen
data_Ca2NbInO6
_symmetry_space_group_name_H-M   'P 1'
_cell_length_a   5.79791112
_cell_length_b   5.79791112
_cell_length_c   5.79791112
_cell_angle_alpha   60.00000000
_cell_angle_beta   60.00000000
_cell_angle_gamma   60.00000000
_symmetry_Int_Tables_number   1
_chemical_formula_structural   Ca2NbInO6
_chemical_formula_sum   'Ca2 Nb1 In1 O6'
_cell_volume   137.81600699
_cell_formula_units_Z   1
loop_
 _symmetry_equiv_pos_site_id
 _symmetry_equiv_pos_as_xyz
  1  'x, y, z'
loop_
 _atom_site_type_symbol
 _atom_site_label
 _atom_site_symmetry_multiplicity
 _atom_site_fract_x
 _atom_site_fract_y
 _atom_site_fract_z
 _atom_site_occupancy
  Ca  Ca0  1  0.25000000  0.25000000  0.25000000  1
  Ca  Ca1  1  0.75000000  0.75000000  0.75000000  1
  Nb  Nb0  1  0.50000000  0.50000000  0.50000000  1
  In  In0  1  0.00000000  0.00000000  -0.00000000  1
  O  O0  1  0.74231653  0.25768347  0.25768347  1
  O  O1  1  0.25768347  0.74231653  0.74231653  1
  O  O2  1  0.74231653  0.25768347  0.74231653  1
  O  O3  1  0.25768347  0.74231653  0.25768347  1
  O  O4  1  0.74231653  0.74231653  0.25768347  1
  O  O5  1  0.25768347  0.25768347  0.74231653  1
loop_
_geom_bond_atom_site_label_1
_geom_bond_atom_site_label_2
_geom_bond_distance
_geom_bond_site_symmetry_2
Ca0 O2 2.899640 1_455
Ca0 O1 2.899640 1_554
Ca0 O5 2.899640 1_555
Ca0 O5 2.899640 1_554
Ca0 O3 2.899640 1_545
Ca0 O2 2.899640 1_554
Ca0 O4 2.899640 1_545
Ca0 O3 2.899640 1_555
Ca0 O1 2.899640 1_545
Ca0 O0 2.899640 1_555
Ca0 O0 2.899640 1_455
Ca0 O4 2.899640 1_455
Ca1 O2 2.899640 1_565
Ca1 O4 2.899640 1_556
Ca1 O1 2.899640 1_655
Ca1 O4 2.899640 1_555
Ca1 O1 2.899640 1_555
Ca1 O0 2.899640 1_565
Ca1 O3 2.899640 1_655
Ca1 O5 2.899640 1_565
Ca1 O5 2.899640 1_655
Ca1 O3 2.899640 1_556
Ca1 O0 2.899640 1_556
Ca1 O2 2.899640 1_555
Nb0 O5 1.986871 1_555
Nb0 O3 1.986871 1_555
Nb0 O0 1.986871 1_555
Nb0 O2 1.986871 1_555
Nb0 O4 1.986871 1_555
Nb0 O1 1.986871 1_555
In0 O4 2.112872 1_445
In0 O3 2.112872 1_545
In0 O5 2.112872 1_554
In0 O2 2.112872 1_454
In0 O1 2.112872 1_544
In0 O0 2.112872 1_455
