# generated using pymatgen
data_Ba5Co5O13F
_symmetry_space_group_name_H-M   'P 1'
_cell_length_a   5.81194667
_cell_length_b   5.81194667
_cell_length_c   24.18573200
_cell_angle_alpha   90.00000000
_cell_angle_beta   90.00000000
_cell_angle_gamma   119.01423027
_symmetry_Int_Tables_number   1
_chemical_formula_structural   Ba5Co5O13F
_chemical_formula_sum   'Ba10 Co10 O26 F2'
_cell_volume   714.43369376
_cell_formula_units_Z   2
loop_
 _symmetry_equiv_pos_site_id
 _symmetry_equiv_pos_as_xyz
  1  'x, y, z'
loop_
 _atom_site_type_symbol
 _atom_site_label
 _atom_site_symmetry_multiplicity
 _atom_site_fract_x
 _atom_site_fract_y
 _atom_site_fract_z
 _atom_site_occupancy
  Ba  Ba0  1  0.02909900  0.03591800  0.75000000  1
  Ba  Ba1  1  0.03591800  0.02909900  0.25000000  1
  Ba  Ba2  1  0.66663500  0.33530300  0.54041400  1
  Ba  Ba3  1  0.33530300  0.66663500  0.45958600  1
  Ba  Ba4  1  0.33530300  0.66663500  0.04041400  1
  Ba  Ba5  1  0.66663500  0.33530300  0.95958600  1
  Ba  Ba6  1  0.33665700  0.66857000  0.63874400  1
  Ba  Ba7  1  0.66857000  0.33665700  0.36125600  1
  Ba  Ba8  1  0.66857000  0.33665700  0.13874400  1
  Ba  Ba9  1  0.33665700  0.66857000  0.86125600  1
  Co  Co0  1  0.00051900  0.00051900  0.50000000  1
  Co  Co1  1  0.00051900  0.00051900  0.00000000  1
  Co  Co2  1  0.66533000  0.32772300  0.68103400  1
  Co  Co3  1  0.32772300  0.66533000  0.31896600  1
  Co  Co4  1  0.32772300  0.66533000  0.18103400  1
  Co  Co5  1  0.66533000  0.32772300  0.81896600  1
  Co  Co6  1  0.00260600  0.01287200  0.60451000  1
  Co  Co7  1  0.01287200  0.00260600  0.39549000  1
  Co  Co8  1  0.01287200  0.00260600  0.10451000  1
  Co  Co9  1  0.00260600  0.01287200  0.89549000  1
  O  O0  1  0.33039600  0.17199500  0.65202800  1
  O  O1  1  0.84729400  0.16146500  0.64857100  1
  O  O2  1  0.83762900  0.66007500  0.65906200  1
  O  O3  1  0.66007500  0.83762900  0.34093800  1
  O  O4  1  0.16146500  0.84729400  0.35142900  1
  O  O5  1  0.17199500  0.33039600  0.34797200  1
  O  O6  1  0.66007500  0.83762900  0.15906200  1
  O  O7  1  0.16146500  0.84729400  0.14857100  1
  O  O8  1  0.17199500  0.33039600  0.15202800  1
  O  O9  1  0.33039600  0.17199500  0.84797200  1
  O  O10  1  0.84729400  0.16146500  0.85142900  1
  O  O11  1  0.83762900  0.66007500  0.84093800  1
  O  O12  1  0.14513300  0.85275100  0.55669700  1
  O  O13  1  0.14832700  0.31560200  0.54731700  1
  O  O14  1  0.69471100  0.85387900  0.54940600  1
  O  O15  1  0.85275100  0.14513300  0.44330300  1
  O  O16  1  0.85387900  0.69471100  0.45059400  1
  O  O17  1  0.31560200  0.14832700  0.45268300  1
  O  O18  1  0.85275100  0.14513300  0.05669700  1
  O  O19  1  0.85387900  0.69471100  0.04940600  1
  O  O20  1  0.31560200  0.14832700  0.04731700  1
  O  O21  1  0.14513300  0.85275100  0.94330300  1
  O  O22  1  0.14832700  0.31560200  0.95268300  1
  O  O23  1  0.69471100  0.85387900  0.95059400  1
  O  O24  1  0.60219400  0.17248500  0.75000000  1
  O  O25  1  0.17248500  0.60219400  0.25000000  1
  F  F0  1  0.27222700  0.55413200  0.75000000  1
  F  F1  1  0.55413200  0.27222700  0.25000000  1
loop_
_geom_bond_atom_site_label_1
_geom_bond_atom_site_label_2
_geom_bond_distance
_geom_bond_site_symmetry_2
Ba0 F0 2.634278 1_555
Ba0 O9 2.821899 1_555
Ba0 O0 2.821899 1_555
Ba0 O10 2.900809 1_455
Ba0 O1 2.900809 1_455
Ba0 O11 2.913627 1_445
Ba0 O2 2.913627 1_445
Ba0 O24 2.948975 1_455
Ba0 O24 3.026492 1_555
Ba1 F1 2.634278 1_555
Ba1 O8 2.821899 1_555
Ba1 O5 2.821899 1_555
Ba1 O4 2.900809 1_545
Ba1 O7 2.900809 1_545
Ba1 O6 2.913627 1_445
Ba1 O3 2.913627 1_445
Ba1 O25 2.948975 1_545
Ba1 O25 3.026492 1_555
Ba2 O17 2.773949 1_555
Ba2 O16 2.839305 1_555
Ba2 O13 2.861734 1_655
Ba2 O14 2.888890 1_545
Ba2 O14 2.946296 1_555
Ba2 O13 2.963244 1_555
Ba2 O12 2.969905 1_655
Ba2 O12 2.993555 1_545
Ba2 O15 3.011280 1_555
Ba2 O1 3.161489 1_555
Ba2 O0 3.194938 1_555
Ba2 O2 3.311400 1_555
Ba3 O13 2.773949 1_555
Ba3 O14 2.839305 1_555
Ba3 O17 2.861734 1_565
Ba3 O16 2.888890 1_455
Ba3 O16 2.946296 1_555
Ba3 O17 2.963244 1_555
Ba3 O15 2.969905 1_565
Ba3 O15 2.993555 1_455
Ba3 O12 3.011280 1_555
Ba3 O4 3.161489 1_555
Ba3 O5 3.194938 1_555
Ba3 O3 3.311400 1_555
Ba4 O22 2.773949 1_554
Ba4 O23 2.839305 1_554
Ba4 O20 2.861734 1_565
Ba4 O19 2.888890 1_455
Ba4 O19 2.946296 1_555
Ba4 O20 2.963244 1_555
Ba4 O18 2.969905 1_565
Ba4 O18 2.993555 1_455
Ba4 O21 3.011280 1_554
Ba4 O7 3.161489 1_555
Ba4 O8 3.194938 1_555
Ba4 O6 3.311400 1_555
Ba5 O20 2.773949 1_556
Ba5 O19 2.839305 1_556
Ba5 O22 2.861734 1_655
Ba5 O23 2.888890 1_545
Ba5 O23 2.946296 1_555
Ba5 O22 2.963244 1_555
Ba5 O21 2.969905 1_655
Ba5 O21 2.993555 1_545
Ba5 O18 3.011280 1_556
Ba5 O10 3.161489 1_555
Ba5 O9 3.194938 1_555
Ba5 O11 3.311400 1_555
Ba6 O12 2.734683 1_555
Ba6 F0 2.753441 1_555
Ba6 O14 2.825772 1_555
Ba6 O13 2.849174 1_555
Ba6 O0 2.886530 1_555
Ba6 O2 2.918371 1_455
Ba6 O1 2.949681 1_455
Ba6 O0 2.961182 1_565
Ba6 O1 2.970438 1_565
Ba6 O2 2.976728 1_555
Ba7 O15 2.734683 1_555
Ba7 F1 2.753441 1_555
Ba7 O16 2.825772 1_555
Ba7 O17 2.849174 1_555
Ba7 O5 2.886530 1_555
Ba7 O3 2.918371 1_545
Ba7 O4 2.949681 1_545
Ba7 O5 2.961182 1_655
Ba7 O4 2.970438 1_655
Ba7 O3 2.976728 1_555
Ba8 O18 2.734683 1_555
Ba8 F1 2.753441 1_555
Ba8 O19 2.825772 1_555
Ba8 O20 2.849174 1_555
Ba8 O8 2.886530 1_555
Ba8 O6 2.918371 1_545
Ba8 O7 2.949681 1_545
Ba8 O8 2.961182 1_655
Ba8 O7 2.970438 1_655
Ba8 O6 2.976728 1_555
Ba9 O21 2.734683 1_555
Ba9 F0 2.753441 1_555
Ba9 O23 2.825772 1_555
Ba9 O22 2.849174 1_555
Ba9 O9 2.886530 1_555
Ba9 O11 2.918371 1_455
Ba9 O10 2.949681 1_455
Ba9 O9 2.961182 1_565
Ba9 O10 2.970438 1_565
Ba9 O11 2.976728 1_555
Co0 O14 1.960542 1_445
Co0 O16 1.960542 1_445
Co0 O17 1.968514 1_555
Co0 O13 1.968514 1_555
Co0 O12 2.006129 1_545
Co0 O15 2.006129 1_455
Co1 O23 1.960542 1_444
Co1 O19 1.960542 1_445
Co1 O20 1.968514 1_555
Co1 O22 1.968514 1_554
Co1 O21 2.006129 1_544
Co1 O18 2.006129 1_455
Co2 O2 1.771985 1_555
Co2 O0 1.841617 1_555
Co2 O24 1.846543 1_555
Co2 O1 1.913086 1_555
Co3 O3 1.771985 1_555
Co3 O5 1.841617 1_555
Co3 O25 1.846543 1_555
Co3 O4 1.913086 1_555
Co4 O6 1.771985 1_555
Co4 O8 1.841617 1_555
Co4 O25 1.846543 1_555
Co4 O7 1.913086 1_555
Co5 O11 1.771985 1_555
Co5 O9 1.841617 1_555
Co5 O24 1.846543 1_555
Co5 O10 1.913086 1_555
Co6 O1 1.858077 1_455
Co6 O12 1.907161 1_545
Co6 O0 2.023950 1_555
Co6 O14 2.056259 1_445
Co6 O13 2.069020 1_555
Co6 O2 2.226492 1_445
Co7 O4 1.858077 1_545
Co7 O15 1.907161 1_455
Co7 O5 2.023950 1_555
Co7 O16 2.056259 1_445
Co7 O17 2.069020 1_555
Co7 O3 2.226492 1_445
Co8 O7 1.858077 1_545
Co8 O18 1.907161 1_455
Co8 O8 2.023950 1_555
Co8 O19 2.056259 1_445
Co8 O20 2.069020 1_555
Co8 O6 2.226492 1_445
Co9 O10 1.858077 1_455
Co9 O21 1.907161 1_545
Co9 O9 2.023950 1_555
Co9 O23 2.056259 1_445
Co9 O22 2.069020 1_555
Co9 O11 2.226492 1_445
