# generated using pymatgen
data_Li9Mn2Co5O16
_symmetry_space_group_name_H-M   'P 1'
_cell_length_a   4.98061700
_cell_length_b   5.99901962
_cell_length_c   10.18003875
_cell_angle_alpha   104.57890762
_cell_angle_beta   100.41316780
_cell_angle_gamma   91.96721360
_symmetry_Int_Tables_number   1
_chemical_formula_structural   Li9Mn2Co5O16
_chemical_formula_sum   'Li9 Mn2 Co5 O16'
_cell_volume   288.50571828
_cell_formula_units_Z   1
loop_
 _symmetry_equiv_pos_site_id
 _symmetry_equiv_pos_as_xyz
  1  'x, y, z'
loop_
 _atom_site_type_symbol
 _atom_site_label
 _atom_site_symmetry_multiplicity
 _atom_site_fract_x
 _atom_site_fract_y
 _atom_site_fract_z
 _atom_site_occupancy
  Li  Li0  1  0.24855500  0.87986500  0.75394100  1
  Li  Li1  1  0.24816700  0.37446200  0.24592100  1
  Li  Li2  1  0.74757600  0.62000400  0.75298300  1
  Li  Li3  1  0.74509500  0.12330200  0.24723500  1
  Li  Li4  1  0.24744400  0.36942900  0.75147800  1
  Li  Li5  1  0.25543000  0.86764300  0.24668600  1
  Li  Li6  1  0.74887900  0.13539900  0.75366400  1
  Li  Li7  1  0.75785700  0.63089500  0.24715100  1
  Li  Li8  1  0.00169900  0.49616200  0.99902800  1
  Mn  Mn0  1  0.00012800  0.00400400  0.00013000  1
  Mn  Mn1  1  0.49923900  0.74928500  0.49958800  1
  Co  Co0  1  0.99933700  0.49726700  0.49989200  1
  Co  Co1  1  0.50297500  0.73709500  0.99876700  1
  Co  Co2  1  0.50052100  0.25061100  0.50022700  1
  Co  Co3  1  0.00086200  0.00241000  0.50012000  1
  Co  Co4  1  0.49697200  0.25576900  0.00050200  1
  O  O0  1  0.13297000  0.17857500  0.88676900  1
  O  O1  1  0.13431500  0.69696200  0.38264900  1
  O  O2  1  0.64203200  0.91525700  0.88382000  1
  O  O3  1  0.63867600  0.42020300  0.38368600  1
  O  O4  1  0.14724400  0.72137800  0.89641700  1
  O  O5  1  0.14213000  0.20036700  0.38782700  1
  O  O6  1  0.60450400  0.43239500  0.88699000  1
  O  O7  1  0.63897400  0.93017700  0.38470100  1
  O  O8  1  0.36063000  0.57179900  0.61623800  1
  O  O9  1  0.35987600  0.07676400  0.11340400  1
  O  O10  1  0.85971800  0.30182300  0.61537100  1
  O  O11  1  0.85546300  0.82245800  0.11134100  1
  O  O12  1  0.36205500  0.07916000  0.61587500  1
  O  O13  1  0.39290500  0.58144200  0.11742500  1
  O  O14  1  0.86539800  0.80010300  0.61434000  1
  O  O15  1  0.86237300  0.27753400  0.10583600  1
loop_
_geom_bond_atom_site_label_1
_geom_bond_atom_site_label_2
_geom_bond_distance
_geom_bond_site_symmetry_2
Li0 O4 2.046488 1_555
Li0 O0 2.122113 1_565
Li0 O14 2.122506 1_455
Li0 O2 2.127748 1_555
Li0 O8 2.177524 1_555
Li0 O12 2.193448 1_565
Li1 O9 2.108444 1_555
Li1 O5 2.110463 1_555
Li1 O15 2.139909 1_455
Li1 O3 2.146782 1_555
Li1 O13 2.206729 1_555
Li1 O1 2.237610 1_555
Li2 O2 2.077734 1_555
Li2 O8 2.127194 1_555
Li2 O14 2.127730 1_555
Li2 O6 2.169051 1_555
Li2 O4 2.209870 1_655
Li2 O10 2.219859 1_555
Li3 O15 2.050997 1_555
Li3 O9 2.107617 1_555
Li3 O3 2.113829 1_555
Li3 O11 2.135244 1_545
Li3 O7 2.149771 1_545
Li3 O5 2.180278 1_655
Li4 O6 2.003269 1_555
Li4 O12 2.099206 1_555
Li4 O10 2.123581 1_455
Li4 O0 2.136752 1_555
Li4 O8 2.182220 1_555
Li4 O4 2.377841 1_555
Li5 O1 2.073868 1_555
Li5 O13 2.101724 1_555
Li5 O7 2.116407 1_555
Li5 O11 2.173239 1_455
Li5 O9 2.180055 1_565
Li5 O5 2.300787 1_565
Li6 O10 2.057716 1_555
Li6 O0 2.101194 1_655
Li6 O12 2.129196 1_555
Li6 O6 2.181057 1_555
Li6 O2 2.206907 1_545
Li6 O14 2.309940 1_545
Li7 O13 2.008487 1_555
Li7 O1 2.077062 1_655
Li7 O11 2.114917 1_555
Li7 O7 2.154498 1_555
Li7 O3 2.238969 1_555
Li7 O15 2.376005 1_555
Li8 O6 2.067251 1_455
Li8 O13 2.069564 1_556
Li8 O15 2.076569 1_456
Li8 O4 2.087828 1_555
Li8 O0 2.150072 1_555
Li8 O11 2.222969 1_456
Mn0 O9 1.917470 1_555
Mn0 O0 1.924350 1_554
Mn0 O2 1.928854 1_444
Mn0 O15 1.943336 1_455
Mn0 O11 1.961820 1_445
Mn0 O4 1.997505 1_544
Mn1 O14 1.948302 1_555
Mn1 O1 1.951851 1_555
Mn1 O8 1.975560 1_555
Mn1 O7 1.977664 1_555
Mn1 O3 2.233717 1_555
Mn1 O12 2.233888 1_565
Co0 O3 1.933756 1_555
Co0 O8 1.936109 1_655
Co0 O10 2.042957 1_555
Co0 O1 2.065479 1_655
Co0 O5 2.082539 1_655
Co0 O14 2.097978 1_555
Co1 O13 1.844900 1_556
Co1 O4 1.872267 1_555
Co1 O11 1.890309 1_556
Co1 O2 1.965467 1_555
Co1 O6 2.028816 1_555
Co1 O9 2.285883 1_566
Co2 O5 1.907219 1_555
Co2 O10 1.921428 1_555
Co2 O3 1.941845 1_555
Co2 O12 1.942663 1_555
Co2 O7 2.190867 1_545
Co2 O8 2.199286 1_555
Co3 O12 1.934049 1_555
Co3 O7 1.934312 1_445
Co3 O5 2.031975 1_555
Co3 O14 2.053768 1_445
Co3 O10 2.102601 1_455
Co3 O1 2.120691 1_545
Co4 O6 1.883090 1_554
Co4 O15 1.920091 1_555
Co4 O0 1.937892 1_554
Co4 O9 1.948104 1_555
Co4 O13 2.150413 1_555
Co4 O2 2.301246 1_544
