# generated using pymatgen
data_PaSb2
_symmetry_space_group_name_H-M   'P 1'
_cell_length_a   4.33271306
_cell_length_b   4.33271306
_cell_length_c   8.76505900
_cell_angle_alpha   90.00000000
_cell_angle_beta   90.00000000
_cell_angle_gamma   90.00000000
_symmetry_Int_Tables_number   1
_chemical_formula_structural   PaSb2
_chemical_formula_sum   'Pa2 Sb4'
_cell_volume   164.54121514
_cell_formula_units_Z   2
loop_
 _symmetry_equiv_pos_site_id
 _symmetry_equiv_pos_as_xyz
  1  'x, y, z'
loop_
 _atom_site_type_symbol
 _atom_site_label
 _atom_site_symmetry_multiplicity
 _atom_site_fract_x
 _atom_site_fract_y
 _atom_site_fract_z
 _atom_site_occupancy
  Pa  Pa0  1  0.75000000  0.75000000  0.72530746  1
  Pa  Pa1  1  0.25000000  0.25000000  0.27469254  1
  Sb  Sb0  1  0.75000000  0.75000000  0.36292545  1
  Sb  Sb1  1  0.25000000  0.25000000  0.63707455  1
  Sb  Sb2  1  0.75000000  0.25000000  -0.00000000  1
  Sb  Sb3  1  0.25000000  0.75000000  0.00000000  1
loop_
_geom_bond_atom_site_label_1
_geom_bond_atom_site_label_2
_geom_bond_distance
_geom_bond_site_symmetry_2
Pa0 Sb1 3.159794 1_655
Pa0 Sb1 3.159794 1_665
Pa0 Sb1 3.159794 1_565
Pa0 Sb1 3.159794 1_555
Pa0 Sb0 3.176300 1_555
Pa0 Sb2 3.238843 1_556
Pa0 Sb3 3.238843 1_556
Pa0 Sb3 3.238843 1_656
Pa0 Sb2 3.238843 1_566
Pa1 Sb0 3.159794 1_455
Pa1 Sb0 3.159794 1_545
Pa1 Sb0 3.159794 1_555
Pa1 Sb0 3.159794 1_445
Pa1 Sb1 3.176300 1_555
Pa1 Sb3 3.238843 1_545
Pa1 Sb2 3.238843 1_455
Pa1 Sb2 3.238843 1_555
Pa1 Sb3 3.238843 1_555
Sb2 Sb3 3.063691 1_545
Sb2 Sb3 3.063691 1_645
Sb2 Sb3 3.063691 1_655
Sb2 Sb3 3.063691 1_555
