# generated using pymatgen
data_CaMg5
_symmetry_space_group_name_H-M   'P 1'
_cell_length_a   6.60086408
_cell_length_b   6.60086408
_cell_length_c   32.91999600
_cell_angle_alpha   90.00000000
_cell_angle_beta   90.00000000
_cell_angle_gamma   120.00000077
_symmetry_Int_Tables_number   1
_chemical_formula_structural   CaMg5
_chemical_formula_sum   'Ca8 Mg40'
_cell_volume   1242.20130759
_cell_formula_units_Z   8
loop_
 _symmetry_equiv_pos_site_id
 _symmetry_equiv_pos_as_xyz
  1  'x, y, z'
loop_
 _atom_site_type_symbol
 _atom_site_label
 _atom_site_symmetry_multiplicity
 _atom_site_fract_x
 _atom_site_fract_y
 _atom_site_fract_z
 _atom_site_occupancy
  Ca  Ca0_0  1  0.00000000  0.00000000  0.00000000  1
  Ca  Ca0_1  1  0.00000000  0.00000000  0.50000000  1
  Ca  Ca0_2  1  0.00000000  0.50000000  0.00000000  1
  Ca  Ca0_3  1  0.00000000  0.50000000  0.50000000  1
  Ca  Ca0_4  1  0.50000000  0.00000000  0.00000000  1
  Ca  Ca0_5  1  0.50000000  0.00000000  0.50000000  1
  Ca  Ca0_6  1  0.50000000  0.50000000  0.00000000  1
  Ca  Ca0_7  1  0.50000000  0.50000000  0.50000000  1
  Mg  Mg0_0  1  0.33333350  0.16666650  0.41203100  1
  Mg  Mg0_1  1  0.33333350  0.16666650  0.91203100  1
  Mg  Mg0_2  1  0.33333350  0.66666650  0.41203100  1
  Mg  Mg0_3  1  0.33333350  0.66666650  0.91203100  1
  Mg  Mg0_4  1  0.83333350  0.16666650  0.41203100  1
  Mg  Mg0_5  1  0.83333350  0.16666650  0.91203100  1
  Mg  Mg0_6  1  0.83333350  0.66666650  0.41203100  1
  Mg  Mg0_7  1  0.83333350  0.66666650  0.91203100  1
  Mg  Mg1_0  1  0.00000000  0.00000000  0.33137900  1
  Mg  Mg1_1  1  0.00000000  0.00000000  0.83137900  1
  Mg  Mg1_2  1  0.00000000  0.50000000  0.33137900  1
  Mg  Mg1_3  1  0.00000000  0.50000000  0.83137900  1
  Mg  Mg1_4  1  0.50000000  0.00000000  0.33137900  1
  Mg  Mg1_5  1  0.50000000  0.00000000  0.83137900  1
  Mg  Mg1_6  1  0.50000000  0.50000000  0.33137900  1
  Mg  Mg1_7  1  0.50000000  0.50000000  0.83137900  1
  Mg  Mg2_0  1  0.33333350  0.16666650  0.25000000  1
  Mg  Mg2_1  1  0.33333350  0.16666650  0.75000000  1
  Mg  Mg2_2  1  0.33333350  0.66666650  0.25000000  1
  Mg  Mg2_3  1  0.33333350  0.66666650  0.75000000  1
  Mg  Mg2_4  1  0.83333350  0.16666650  0.25000000  1
  Mg  Mg2_5  1  0.83333350  0.16666650  0.75000000  1
  Mg  Mg2_6  1  0.83333350  0.66666650  0.25000000  1
  Mg  Mg2_7  1  0.83333350  0.66666650  0.75000000  1
  Mg  Mg3_0  1  0.00000000  0.00000000  0.16862100  1
  Mg  Mg3_1  1  0.00000000  0.00000000  0.66862100  1
  Mg  Mg3_2  1  0.00000000  0.50000000  0.16862100  1
  Mg  Mg3_3  1  0.00000000  0.50000000  0.66862100  1
  Mg  Mg3_4  1  0.50000000  0.00000000  0.16862100  1
  Mg  Mg3_5  1  0.50000000  0.00000000  0.66862100  1
  Mg  Mg3_6  1  0.50000000  0.50000000  0.16862100  1
  Mg  Mg3_7  1  0.50000000  0.50000000  0.66862100  1
  Mg  Mg4_0  1  0.33333350  0.16666650  0.08796900  1
  Mg  Mg4_1  1  0.33333350  0.16666650  0.58796900  1
  Mg  Mg4_2  1  0.33333350  0.66666650  0.08796900  1
  Mg  Mg4_3  1  0.33333350  0.66666650  0.58796900  1
  Mg  Mg4_4  1  0.83333350  0.16666650  0.08796900  1
  Mg  Mg4_5  1  0.83333350  0.16666650  0.58796900  1
  Mg  Mg4_6  1  0.83333350  0.66666650  0.08796900  1
  Mg  Mg4_7  1  0.83333350  0.66666650  0.58796900  1
loop_
_geom_bond_atom_site_label_1
_geom_bond_atom_site_label_2
_geom_bond_distance
_geom_bond_site_symmetry_2
Ca0_0 Ca0_6 3.300432 1_555
Ca0_0 Ca0_6 3.300432 1_445
Ca0_0 Ca0_2 3.300432 1_555
Ca0_0 Ca0_2 3.300432 1_545
Ca0_0 Ca0_4 3.300432 1_455
Ca0_0 Ca0_4 3.300432 1_555
Ca0_0 Mg4_4 3.466613 1_455
Ca0_0 Mg0_5 3.466613 1_454
Ca0_0 Mg4_0 3.466615 1_555
Ca0_0 Mg4_6 3.466615 1_445
Ca0_0 Mg0_1 3.466615 1_554
Ca0_0 Mg0_7 3.466615 1_444
Ca0_1 Ca0_7 3.300432 1_445
Ca0_1 Ca0_7 3.300432 1_555
Ca0_1 Ca0_3 3.300432 1_555
Ca0_1 Ca0_5 3.300432 1_555
Ca0_1 Ca0_3 3.300432 1_545
Ca0_1 Ca0_5 3.300432 1_455
Ca0_1 Mg4_5 3.466613 1_455
Ca0_1 Mg0_4 3.466613 1_455
Ca0_1 Mg4_1 3.466615 1_555
Ca0_1 Mg4_7 3.466615 1_445
Ca0_1 Mg0_0 3.466615 1_555
Ca0_1 Mg0_6 3.466615 1_445
Ca0_2 Ca0_4 3.300432 1_455
Ca0_2 Ca0_4 3.300432 1_565
Ca0_2 Ca0_6 3.300432 1_455
Ca0_2 Ca0_6 3.300432 1_555
Ca0_2 Mg4_6 3.466613 1_455
Ca0_2 Mg0_7 3.466613 1_454
Ca0_2 Mg4_4 3.466615 1_455
Ca0_2 Mg4_2 3.466615 1_555
Ca0_2 Mg0_5 3.466615 1_454
Ca0_2 Mg0_3 3.466615 1_554
Ca0_3 Ca0_5 3.300432 1_455
Ca0_3 Ca0_5 3.300432 1_565
Ca0_3 Ca0_7 3.300432 1_455
Ca0_3 Ca0_7 3.300432 1_555
Ca0_3 Mg4_7 3.466613 1_455
Ca0_3 Mg0_6 3.466613 1_455
Ca0_3 Mg4_3 3.466615 1_555
Ca0_3 Mg4_5 3.466615 1_455
Ca0_3 Mg0_4 3.466615 1_455
Ca0_3 Mg0_2 3.466615 1_555
Ca0_4 Ca0_6 3.300432 1_555
Ca0_4 Ca0_6 3.300432 1_545
Ca0_4 Mg4_0 3.466613 1_555
Ca0_4 Mg0_1 3.466613 1_554
Ca0_4 Mg4_4 3.466615 1_555
Ca0_4 Mg4_2 3.466615 1_545
Ca0_4 Mg0_5 3.466615 1_554
Ca0_4 Mg0_3 3.466615 1_544
Ca0_5 Ca0_7 3.300432 1_555
Ca0_5 Ca0_7 3.300432 1_545
Ca0_5 Mg4_1 3.466613 1_555
Ca0_5 Mg0_0 3.466613 1_555
Ca0_5 Mg4_5 3.466615 1_555
Ca0_5 Mg4_3 3.466615 1_545
Ca0_5 Mg0_4 3.466615 1_555
Ca0_5 Mg0_2 3.466615 1_545
Ca0_6 Mg4_2 3.466613 1_555
Ca0_6 Mg0_3 3.466613 1_554
Ca0_6 Mg4_6 3.466615 1_555
Ca0_6 Mg4_0 3.466615 1_555
Ca0_6 Mg0_1 3.466615 1_554
Ca0_6 Mg0_7 3.466615 1_554
Ca0_7 Mg4_3 3.466613 1_555
Ca0_7 Mg0_2 3.466613 1_555
Ca0_7 Mg4_1 3.466615 1_555
Ca0_7 Mg4_7 3.466615 1_555
Ca0_7 Mg0_6 3.466615 1_555
Ca0_7 Mg0_0 3.466615 1_555
Mg0_0 Mg1_4 3.268074 1_555
Mg0_0 Mg1_6 3.268075 1_555
Mg0_0 Mg1_0 3.268075 1_555
Mg0_0 Mg0_6 3.300432 1_555
Mg0_0 Mg0_6 3.300432 1_445
Mg0_0 Mg0_4 3.300432 1_555
Mg0_0 Mg0_4 3.300432 1_455
Mg0_0 Mg0_2 3.300432 1_555
Mg0_0 Mg0_2 3.300432 1_545
Mg0_1 Mg1_5 3.268074 1_555
Mg0_1 Mg1_7 3.268075 1_555
Mg0_1 Mg1_1 3.268075 1_555
Mg0_1 Mg0_7 3.300432 1_555
Mg0_1 Mg0_7 3.300432 1_445
Mg0_1 Mg0_5 3.300432 1_555
Mg0_1 Mg0_3 3.300432 1_545
Mg0_1 Mg0_3 3.300432 1_555
Mg0_1 Mg0_5 3.300432 1_455
Mg0_2 Mg1_6 3.268074 1_555
Mg0_2 Mg1_2 3.268075 1_555
Mg0_2 Mg1_4 3.268075 1_565
Mg0_2 Mg0_4 3.300432 1_565
Mg0_2 Mg0_4 3.300432 1_455
Mg0_2 Mg0_6 3.300432 1_455
Mg0_2 Mg0_6 3.300432 1_555
Mg0_3 Mg1_7 3.268074 1_555
Mg0_3 Mg1_3 3.268075 1_555
Mg0_3 Mg1_5 3.268075 1_565
Mg0_3 Mg0_5 3.300432 1_565
Mg0_3 Mg0_5 3.300432 1_455
Mg0_3 Mg0_7 3.300432 1_455
Mg0_3 Mg0_7 3.300432 1_555
Mg0_4 Mg1_0 3.268074 1_655
Mg0_4 Mg1_2 3.268075 1_655
Mg0_4 Mg1_4 3.268075 1_555
Mg0_4 Mg0_6 3.300432 1_555
Mg0_4 Mg0_6 3.300432 1_545
Mg0_5 Mg1_1 3.268074 1_655
Mg0_5 Mg1_5 3.268075 1_555
Mg0_5 Mg1_3 3.268075 1_655
Mg0_5 Mg0_7 3.300432 1_555
Mg0_5 Mg0_7 3.300432 1_545
Mg0_6 Mg1_2 3.268074 1_655
Mg0_6 Mg1_6 3.268075 1_555
Mg0_6 Mg1_0 3.268075 1_665
Mg0_7 Mg1_3 3.268074 1_655
Mg0_7 Mg1_7 3.268075 1_555
Mg0_7 Mg1_1 3.268075 1_665
Mg1_0 Mg2_4 3.287547 1_455
Mg1_0 Mg2_0 3.287549 1_555
Mg1_0 Mg2_6 3.287549 1_445
Mg1_0 Mg1_6 3.300432 1_445
Mg1_0 Mg1_6 3.300432 1_555
Mg1_0 Mg1_2 3.300432 1_555
Mg1_0 Mg1_4 3.300432 1_455
Mg1_0 Mg1_4 3.300432 1_555
Mg1_0 Mg1_2 3.300432 1_545
Mg1_1 Mg2_5 3.287547 1_455
Mg1_1 Mg2_1 3.287549 1_555
Mg1_1 Mg2_7 3.287549 1_445
Mg1_1 Mg1_7 3.300432 1_555
Mg1_1 Mg1_7 3.300432 1_445
Mg1_1 Mg1_3 3.300432 1_555
Mg1_1 Mg1_5 3.300432 1_455
Mg1_1 Mg1_5 3.300432 1_555
Mg1_1 Mg1_3 3.300432 1_545
Mg1_2 Mg2_6 3.287547 1_455
Mg1_2 Mg2_4 3.287549 1_455
Mg1_2 Mg2_2 3.287549 1_555
Mg1_2 Mg1_4 3.300432 1_565
Mg1_2 Mg1_4 3.300432 1_455
Mg1_2 Mg1_6 3.300432 1_555
Mg1_2 Mg1_6 3.300432 1_455
Mg1_3 Mg2_7 3.287547 1_455
Mg1_3 Mg2_5 3.287549 1_455
Mg1_3 Mg2_3 3.287549 1_555
Mg1_3 Mg1_5 3.300432 1_565
Mg1_3 Mg1_5 3.300432 1_455
Mg1_3 Mg1_7 3.300432 1_555
Mg1_3 Mg1_7 3.300432 1_455
Mg1_4 Mg2_0 3.287547 1_555
Mg1_4 Mg2_4 3.287549 1_555
Mg1_4 Mg2_2 3.287549 1_545
Mg1_4 Mg1_6 3.300432 1_555
Mg1_4 Mg1_6 3.300432 1_545
Mg1_5 Mg2_1 3.287547 1_555
Mg1_5 Mg2_5 3.287549 1_555
Mg1_5 Mg2_3 3.287549 1_545
Mg1_5 Mg1_7 3.300432 1_555
Mg1_5 Mg1_7 3.300432 1_545
Mg1_6 Mg2_2 3.287547 1_555
Mg1_6 Mg2_6 3.287549 1_555
Mg1_6 Mg2_0 3.287549 1_555
Mg1_7 Mg2_3 3.287547 1_555
Mg1_7 Mg2_1 3.287549 1_555
Mg1_7 Mg2_7 3.287549 1_555
Mg2_0 Mg3_4 3.287547 1_555
Mg2_0 Mg3_6 3.287549 1_555
Mg2_0 Mg3_0 3.287549 1_555
Mg2_0 Mg2_6 3.300432 1_555
Mg2_0 Mg2_6 3.300432 1_445
Mg2_0 Mg2_4 3.300432 1_555
Mg2_0 Mg2_2 3.300432 1_545
Mg2_0 Mg2_4 3.300432 1_455
Mg2_0 Mg2_2 3.300432 1_555
Mg2_1 Mg3_5 3.287547 1_555
Mg2_1 Mg3_7 3.287549 1_555
Mg2_1 Mg3_1 3.287549 1_555
Mg2_1 Mg2_7 3.300432 1_555
Mg2_1 Mg2_7 3.300432 1_445
Mg2_1 Mg2_5 3.300432 1_555
Mg2_1 Mg2_3 3.300432 1_545
Mg2_1 Mg2_3 3.300432 1_555
Mg2_1 Mg2_5 3.300432 1_455
Mg2_2 Mg3_6 3.287547 1_555
Mg2_2 Mg3_4 3.287549 1_565
Mg2_2 Mg3_2 3.287549 1_555
Mg2_2 Mg2_4 3.300432 1_565
Mg2_2 Mg2_4 3.300432 1_455
Mg2_2 Mg2_6 3.300432 1_555
Mg2_2 Mg2_6 3.300432 1_455
Mg2_3 Mg3_7 3.287547 1_555
Mg2_3 Mg3_5 3.287549 1_565
Mg2_3 Mg3_3 3.287549 1_555
Mg2_3 Mg2_5 3.300432 1_455
Mg2_3 Mg2_5 3.300432 1_565
Mg2_3 Mg2_7 3.300432 1_555
Mg2_3 Mg2_7 3.300432 1_455
Mg2_4 Mg3_0 3.287547 1_655
Mg2_4 Mg3_4 3.287549 1_555
Mg2_4 Mg3_2 3.287549 1_655
Mg2_4 Mg2_6 3.300432 1_555
Mg2_4 Mg2_6 3.300432 1_545
Mg2_5 Mg3_1 3.287547 1_655
Mg2_5 Mg3_3 3.287549 1_655
Mg2_5 Mg3_5 3.287549 1_555
Mg2_5 Mg2_7 3.300432 1_555
Mg2_5 Mg2_7 3.300432 1_545
Mg2_6 Mg3_2 3.287547 1_655
Mg2_6 Mg3_6 3.287549 1_555
Mg2_6 Mg3_0 3.287549 1_665
Mg2_7 Mg3_3 3.287547 1_655
Mg2_7 Mg3_7 3.287549 1_555
Mg2_7 Mg3_1 3.287549 1_665
Mg3_0 Mg4_4 3.268074 1_455
Mg3_0 Mg4_0 3.268075 1_555
Mg3_0 Mg4_6 3.268075 1_445
Mg3_0 Mg3_6 3.300432 1_445
Mg3_0 Mg3_6 3.300432 1_555
Mg3_0 Mg3_2 3.300432 1_555
Mg3_0 Mg3_4 3.300432 1_555
Mg3_0 Mg3_4 3.300432 1_455
Mg3_0 Mg3_2 3.300432 1_545
Mg3_1 Mg4_5 3.268074 1_455
Mg3_1 Mg4_1 3.268075 1_555
Mg3_1 Mg4_7 3.268075 1_445
Mg3_1 Mg3_7 3.300432 1_555
Mg3_1 Mg3_7 3.300432 1_445
Mg3_1 Mg3_3 3.300432 1_555
Mg3_1 Mg3_3 3.300432 1_545
Mg3_1 Mg3_5 3.300432 1_455
Mg3_1 Mg3_5 3.300432 1_555
Mg3_2 Mg4_6 3.268074 1_455
Mg3_2 Mg4_4 3.268075 1_455
Mg3_2 Mg4_2 3.268075 1_555
Mg3_2 Mg3_4 3.300432 1_455
Mg3_2 Mg3_4 3.300432 1_565
Mg3_2 Mg3_6 3.300432 1_455
Mg3_2 Mg3_6 3.300432 1_555
Mg3_3 Mg4_7 3.268074 1_455
Mg3_3 Mg4_5 3.268075 1_455
Mg3_3 Mg4_3 3.268075 1_555
Mg3_3 Mg3_5 3.300432 1_455
Mg3_3 Mg3_5 3.300432 1_565
Mg3_3 Mg3_7 3.300432 1_555
Mg3_3 Mg3_7 3.300432 1_455
Mg3_4 Mg4_0 3.268074 1_555
Mg3_4 Mg4_4 3.268075 1_555
Mg3_4 Mg4_2 3.268075 1_545
Mg3_4 Mg3_6 3.300432 1_555
Mg3_4 Mg3_6 3.300432 1_545
Mg3_5 Mg4_1 3.268074 1_555
Mg3_5 Mg4_5 3.268075 1_555
Mg3_5 Mg4_3 3.268075 1_545
Mg3_5 Mg3_7 3.300432 1_555
Mg3_5 Mg3_7 3.300432 1_545
Mg3_6 Mg4_2 3.268074 1_555
Mg3_6 Mg4_6 3.268075 1_555
Mg3_6 Mg4_0 3.268075 1_555
Mg3_7 Mg4_3 3.268074 1_555
Mg3_7 Mg4_1 3.268075 1_555
Mg3_7 Mg4_7 3.268075 1_555
Mg4_0 Mg4_6 3.300432 1_555
Mg4_0 Mg4_6 3.300432 1_445
Mg4_0 Mg4_4 3.300432 1_555
Mg4_0 Mg4_4 3.300432 1_455
Mg4_0 Mg4_2 3.300432 1_545
Mg4_0 Mg4_2 3.300432 1_555
Mg4_1 Mg4_7 3.300432 1_555
Mg4_1 Mg4_7 3.300432 1_445
Mg4_1 Mg4_5 3.300432 1_555
Mg4_1 Mg4_3 3.300432 1_555
Mg4_1 Mg4_5 3.300432 1_455
Mg4_1 Mg4_3 3.300432 1_545
Mg4_2 Mg4_4 3.300432 1_455
Mg4_2 Mg4_4 3.300432 1_565
Mg4_2 Mg4_6 3.300432 1_455
Mg4_2 Mg4_6 3.300432 1_555
Mg4_3 Mg4_5 3.300432 1_455
Mg4_3 Mg4_5 3.300432 1_565
Mg4_3 Mg4_7 3.300432 1_455
Mg4_3 Mg4_7 3.300432 1_555
Mg4_4 Mg4_6 3.300432 1_555
Mg4_4 Mg4_6 3.300432 1_545
Mg4_5 Mg4_7 3.300432 1_555
Mg4_5 Mg4_7 3.300432 1_545
