# generated using pymatgen
data_Nd2Mn3(SbS3)4
_symmetry_space_group_name_H-M   'P 1'
_cell_length_a   10.16650196
_cell_length_b   10.16650196
_cell_length_c   14.87396130
_cell_angle_alpha   54.44041261
_cell_angle_beta   54.44041261
_cell_angle_gamma   22.03687100
_symmetry_Int_Tables_number   1
_chemical_formula_structural   Nd2Mn3(SbS3)4
_chemical_formula_sum   'Nd2 Mn3 Sb4 S12'
_cell_volume   464.67707161
_cell_formula_units_Z   1
loop_
 _symmetry_equiv_pos_site_id
 _symmetry_equiv_pos_as_xyz
  1  'x, y, z'
loop_
 _atom_site_type_symbol
 _atom_site_label
 _atom_site_symmetry_multiplicity
 _atom_site_fract_x
 _atom_site_fract_y
 _atom_site_fract_z
 _atom_site_occupancy
  Nd  Nd0  1  0.24063300  0.24063300  0.86271000  1
  Nd  Nd1  1  0.75936700  0.75936700  0.13729000  1
  Mn  Mn0  1  0.19811300  0.19811300  0.62130100  1
  Mn  Mn1  1  0.80188700  0.80188700  0.37869900  1
  Mn  Mn2  1  0.00000000  0.00000000  0.00000000  1
  Sb  Sb0  1  0.10667000  0.10667000  0.45139400  1
  Sb  Sb1  1  0.89333000  0.89333000  0.54860600  1
  Sb  Sb2  1  0.46076600  0.46076600  0.81548200  1
  Sb  Sb3  1  0.53923400  0.53923400  0.18451800  1
  S  S0  1  0.05778100  0.05778100  0.80222800  1
  S  S1  1  0.94221900  0.94221900  0.19777200  1
  S  S2  1  0.60085700  0.60085700  0.97746800  1
  S  S3  1  0.39914300  0.39914300  0.02253200  1
  S  S4  1  0.83116800  0.83116800  0.89643000  1
  S  S5  1  0.16883200  0.16883200  0.10357000  1
  S  S6  1  0.41078400  0.41078400  0.65098600  1
  S  S7  1  0.58921600  0.58921600  0.34901400  1
  S  S8  1  0.25751500  0.25751500  0.29192400  1
  S  S9  1  0.74248500  0.74248500  0.70807600  1
  S  S10  1  0.34285200  0.34285200  0.45274900  1
  S  S11  1  0.65714800  0.65714800  0.54725100  1
loop_
_geom_bond_atom_site_label_1
_geom_bond_atom_site_label_2
_geom_bond_distance
_geom_bond_site_symmetry_2
Nd0 S4 2.892383 1_455
Nd0 S4 2.892383 1_545
Nd0 S6 2.962658 1_555
Nd0 S5 2.967295 1_556
Nd0 S2 2.971361 1_455
Nd0 S2 2.971361 1_545
Nd0 S9 2.994369 1_455
Nd0 S9 2.994369 1_545
Nd1 S5 2.892383 1_655
Nd1 S5 2.892383 1_565
Nd1 S7 2.962658 1_555
Nd1 S4 2.967295 1_554
Nd1 S3 2.971361 1_565
Nd1 S3 2.971361 1_655
Nd1 S8 2.994369 1_565
Nd1 S8 2.994369 1_655
Mn0 S10 2.459360 1_555
Mn0 S0 2.480977 1_555
Mn0 S11 2.593094 1_455
Mn0 S11 2.593094 1_545
Mn0 S9 2.753192 1_545
Mn0 S9 2.753192 1_455
Mn1 S11 2.459360 1_555
Mn1 S1 2.480977 1_555
Mn1 S10 2.593094 1_565
Mn1 S10 2.593094 1_655
Mn1 S8 2.753192 1_565
Mn1 S8 2.753192 1_655
Mn2 S1 2.442026 1_445
Mn2 S0 2.442026 1_554
Mn2 S2 2.672139 1_544
Mn2 S2 2.672139 1_454
Mn2 S3 2.672139 1_545
Mn2 S3 2.672139 1_455
S0 Sb2 2.666669 1_545
S0 Sb2 2.666669 1_455
S1 Sb3 2.666669 1_565
S1 Sb3 2.666669 1_655
S2 Sb3 2.551230 1_556
S3 Sb2 2.551230 1_554
S4 Sb2 2.867957 1_565
S4 Sb2 2.867957 1_655
S5 Sb3 2.867957 1_545
S5 Sb3 2.867957 1_455
S6 Sb1 2.616171 1_545
S6 Sb1 2.616171 1_455
S6 Sb2 3.142226 1_555
S7 Sb0 2.616171 1_655
S7 Sb0 2.616171 1_565
S7 Sb3 3.142226 1_555
S8 Sb0 2.495630 1_555
S9 Sb1 2.495630 1_555
S10 Sb1 2.919820 1_455
S10 Sb1 2.919820 1_545
S11 Sb0 2.919820 1_565
S11 Sb0 2.919820 1_655
