# generated using pymatgen
data_CeMg2
_symmetry_space_group_name_H-M   'P 1'
_cell_length_a   18.28125119
_cell_length_b   18.28125119
_cell_length_c   10.32212192
_cell_angle_alpha   90.00000000
_cell_angle_beta   90.00000000
_cell_angle_gamma   160.47685117
_symmetry_Int_Tables_number   1
_chemical_formula_structural   CeMg2
_chemical_formula_sum   'Ce16 Mg32'
_cell_volume   1152.84588425
_cell_formula_units_Z   16
loop_
 _symmetry_equiv_pos_site_id
 _symmetry_equiv_pos_as_xyz
  1  'x, y, z'
loop_
 _atom_site_type_symbol
 _atom_site_label
 _atom_site_symmetry_multiplicity
 _atom_site_fract_x
 _atom_site_fract_y
 _atom_site_fract_z
 _atom_site_occupancy
  Ce  Ce0_0  1  0.23196268  0.26803732  0.12500000  1
  Ce  Ce0_1  1  0.23196268  0.26803732  0.62500000  1
  Ce  Ce0_2  1  0.23196268  0.76803732  0.12500000  1
  Ce  Ce0_3  1  0.23196268  0.76803732  0.62500000  1
  Ce  Ce0_4  1  0.73196268  0.26803732  0.12500000  1
  Ce  Ce0_5  1  0.73196268  0.26803732  0.62500000  1
  Ce  Ce0_6  1  0.73196268  0.76803732  0.12500000  1
  Ce  Ce0_7  1  0.73196268  0.76803732  0.62500000  1
  Ce  Ce1_0  1  0.26803732  0.23196268  0.37500000  1
  Ce  Ce1_1  1  0.26803732  0.23196268  0.87500000  1
  Ce  Ce1_2  1  0.26803732  0.73196268  0.37500000  1
  Ce  Ce1_3  1  0.26803732  0.73196268  0.87500000  1
  Ce  Ce1_4  1  0.76803732  0.23196268  0.37500000  1
  Ce  Ce1_5  1  0.76803732  0.23196268  0.87500000  1
  Ce  Ce1_6  1  0.76803732  0.73196268  0.37500000  1
  Ce  Ce1_7  1  0.76803732  0.73196268  0.87500000  1
  Mg  Mg0_0  1  0.06334414  0.43665586  0.12500000  1
  Mg  Mg0_1  1  0.06334414  0.43665586  0.62500000  1
  Mg  Mg0_2  1  0.06334414  0.93665586  0.12500000  1
  Mg  Mg0_3  1  0.06334414  0.93665586  0.62500000  1
  Mg  Mg0_4  1  0.56334414  0.43665586  0.12500000  1
  Mg  Mg0_5  1  0.56334414  0.43665586  0.62500000  1
  Mg  Mg0_6  1  0.56334414  0.93665586  0.12500000  1
  Mg  Mg0_7  1  0.56334414  0.93665586  0.62500000  1
  Mg  Mg1_0  1  0.39153238  0.10846762  0.12500000  1
  Mg  Mg1_1  1  0.39153238  0.10846762  0.62500000  1
  Mg  Mg1_2  1  0.39153238  0.60846762  0.12500000  1
  Mg  Mg1_3  1  0.39153238  0.60846762  0.62500000  1
  Mg  Mg1_4  1  0.89153238  0.10846762  0.12500000  1
  Mg  Mg1_5  1  0.89153238  0.10846762  0.62500000  1
  Mg  Mg1_6  1  0.89153238  0.60846762  0.12500000  1
  Mg  Mg1_7  1  0.89153238  0.60846762  0.62500000  1
  Mg  Mg2_0  1  0.10846762  0.39153238  0.37500000  1
  Mg  Mg2_1  1  0.10846762  0.39153238  0.87500000  1
  Mg  Mg2_2  1  0.10846762  0.89153238  0.37500000  1
  Mg  Mg2_3  1  0.10846762  0.89153238  0.87500000  1
  Mg  Mg2_4  1  0.60846762  0.39153238  0.37500000  1
  Mg  Mg2_5  1  0.60846762  0.39153238  0.87500000  1
  Mg  Mg2_6  1  0.60846762  0.89153238  0.37500000  1
  Mg  Mg2_7  1  0.60846762  0.89153238  0.87500000  1
  Mg  Mg3_0  1  0.43665586  0.06334413  0.37500000  1
  Mg  Mg3_1  1  0.43665586  0.06334413  0.87500000  1
  Mg  Mg3_2  1  0.43665586  0.56334413  0.37500000  1
  Mg  Mg3_3  1  0.43665586  0.56334413  0.87500000  1
  Mg  Mg3_4  1  0.93665586  0.06334413  0.37500000  1
  Mg  Mg3_5  1  0.93665586  0.06334413  0.87500000  1
  Mg  Mg3_6  1  0.93665587  0.56334414  0.37500000  1
  Mg  Mg3_7  1  0.93665587  0.56334414  0.87500000  1
loop_
_geom_bond_atom_site_label_1
_geom_bond_atom_site_label_2
_geom_bond_distance
_geom_bond_site_symmetry_2
Ce0_0 Ce1_1 2.889435 1_554
Ce0_0 Ce1_0 2.889435 1_555
Ce0_0 Ce0_6 3.099560 1_445
Ce0_0 Ce0_6 3.099560 1_555
Ce0_0 Mg0_4 3.316770 1_555
Ce0_0 Mg0_2 3.316770 1_545
Ce0_0 Mg3_3 3.424349 1_554
Ce0_0 Mg3_2 3.424349 1_555
Ce0_0 Mg3_5 3.424349 1_454
Ce0_0 Mg3_4 3.424349 1_455
Ce0_0 Mg1_2 3.608263 1_555
Ce0_0 Mg1_4 3.608263 1_455
Ce0_1 Ce1_1 2.889435 1_555
Ce0_1 Ce1_0 2.889435 1_555
Ce0_1 Ce0_7 3.099560 1_445
Ce0_1 Ce0_7 3.099560 1_555
Ce0_1 Mg0_5 3.316770 1_555
Ce0_1 Mg0_3 3.316770 1_545
Ce0_1 Mg3_3 3.424349 1_555
Ce0_1 Mg3_2 3.424349 1_555
Ce0_1 Mg3_4 3.424349 1_455
Ce0_1 Mg3_5 3.424349 1_455
Ce0_1 Mg1_3 3.608263 1_555
Ce0_1 Mg1_5 3.608263 1_455
Ce0_2 Ce1_3 2.889435 1_554
Ce0_2 Ce1_2 2.889435 1_555
Ce0_2 Ce0_4 3.099560 1_565
Ce0_2 Ce0_4 3.099560 1_455
Ce0_2 Mg0_0 3.316770 1_555
Ce0_2 Mg0_6 3.316770 1_555
Ce0_2 Mg3_7 3.424349 1_454
Ce0_2 Mg3_1 3.424349 1_564
Ce0_2 Mg3_6 3.424349 1_455
Ce0_2 Mg3_0 3.424349 1_565
Ce0_2 Mg1_6 3.608263 1_455
Ce0_2 Mg1_0 3.608263 1_565
Ce0_3 Ce1_3 2.889435 1_555
Ce0_3 Ce1_2 2.889435 1_555
Ce0_3 Ce0_5 3.099560 1_565
Ce0_3 Ce0_5 3.099560 1_455
Ce0_3 Mg0_1 3.316770 1_555
Ce0_3 Mg0_7 3.316770 1_555
Ce0_3 Mg3_1 3.424349 1_565
Ce0_3 Mg3_6 3.424349 1_455
Ce0_3 Mg3_0 3.424349 1_565
Ce0_3 Mg3_7 3.424349 1_455
Ce0_3 Mg1_7 3.608263 1_455
Ce0_3 Mg1_1 3.608263 1_565
Ce0_4 Ce1_5 2.889435 1_554
Ce0_4 Ce1_4 2.889435 1_555
Ce0_4 Mg0_6 3.316770 1_545
Ce0_4 Mg0_0 3.316770 1_655
Ce0_4 Mg3_6 3.424349 1_555
Ce0_4 Mg3_7 3.424349 1_554
Ce0_4 Mg3_0 3.424349 1_555
Ce0_4 Mg3_1 3.424349 1_554
Ce0_4 Mg1_6 3.608263 1_555
Ce0_4 Mg1_0 3.608263 1_555
Ce0_5 Ce1_4 2.889435 1_555
Ce0_5 Ce1_5 2.889435 1_555
Ce0_5 Mg0_7 3.316770 1_545
Ce0_5 Mg0_1 3.316770 1_655
Ce0_5 Mg3_6 3.424349 1_555
Ce0_5 Mg3_7 3.424349 1_555
Ce0_5 Mg3_0 3.424349 1_555
Ce0_5 Mg3_1 3.424349 1_555
Ce0_5 Mg1_7 3.608263 1_555
Ce0_5 Mg1_1 3.608263 1_555
Ce0_6 Ce1_7 2.889435 1_554
Ce0_6 Ce1_6 2.889435 1_555
Ce0_6 Mg0_4 3.316770 1_555
Ce0_6 Mg0_2 3.316770 1_655
Ce0_6 Mg3_4 3.424349 1_565
Ce0_6 Mg3_5 3.424349 1_564
Ce0_6 Mg3_3 3.424349 1_554
Ce0_6 Mg3_2 3.424349 1_555
Ce0_6 Mg1_2 3.608263 1_555
Ce0_6 Mg1_4 3.608263 1_565
Ce0_7 Ce1_6 2.889435 1_555
Ce0_7 Ce1_7 2.889435 1_555
Ce0_7 Mg0_5 3.316770 1_555
Ce0_7 Mg0_3 3.316770 1_655
Ce0_7 Mg3_5 3.424349 1_565
Ce0_7 Mg3_4 3.424349 1_565
Ce0_7 Mg3_2 3.424349 1_555
Ce0_7 Mg3_3 3.424349 1_555
Ce0_7 Mg1_3 3.608263 1_555
Ce0_7 Mg1_5 3.608263 1_565
Ce1_0 Ce1_6 3.099560 1_445
Ce1_0 Ce1_6 3.099560 1_555
Ce1_0 Mg3_2 3.316770 1_555
Ce1_0 Mg3_4 3.316770 1_455
Ce1_0 Mg0_5 3.424349 1_555
Ce1_0 Mg0_2 3.424349 1_545
Ce1_0 Mg0_3 3.424349 1_545
Ce1_0 Mg0_4 3.424349 1_555
Ce1_0 Mg2_4 3.608263 1_555
Ce1_0 Mg2_2 3.608263 1_545
Ce1_1 Ce1_7 3.099560 1_445
Ce1_1 Ce1_7 3.099560 1_555
Ce1_1 Mg3_3 3.316770 1_555
Ce1_1 Mg3_5 3.316770 1_455
Ce1_1 Mg0_5 3.424349 1_555
Ce1_1 Mg0_2 3.424349 1_546
Ce1_1 Mg0_3 3.424349 1_545
Ce1_1 Mg0_4 3.424349 1_556
Ce1_1 Mg2_5 3.608263 1_555
Ce1_1 Mg2_3 3.608263 1_545
Ce1_2 Ce1_4 3.099560 1_565
Ce1_2 Ce1_4 3.099560 1_455
Ce1_2 Mg3_0 3.316770 1_565
Ce1_2 Mg3_6 3.316770 1_455
Ce1_2 Mg0_1 3.424349 1_555
Ce1_2 Mg0_0 3.424349 1_555
Ce1_2 Mg0_7 3.424349 1_555
Ce1_2 Mg0_6 3.424349 1_555
Ce1_2 Mg2_0 3.608263 1_555
Ce1_2 Mg2_6 3.608263 1_555
Ce1_3 Ce1_5 3.099560 1_565
Ce1_3 Ce1_5 3.099560 1_455
Ce1_3 Mg3_1 3.316770 1_565
Ce1_3 Mg3_7 3.316770 1_455
Ce1_3 Mg0_1 3.424349 1_555
Ce1_3 Mg0_0 3.424349 1_556
Ce1_3 Mg0_7 3.424349 1_555
Ce1_3 Mg0_6 3.424349 1_556
Ce1_3 Mg2_1 3.608263 1_555
Ce1_3 Mg2_7 3.608263 1_555
Ce1_4 Mg3_6 3.316770 1_555
Ce1_4 Mg3_0 3.316770 1_555
Ce1_4 Mg0_6 3.424349 1_545
Ce1_4 Mg0_7 3.424349 1_545
Ce1_4 Mg0_0 3.424349 1_655
Ce1_4 Mg0_1 3.424349 1_655
Ce1_4 Mg2_6 3.608263 1_545
Ce1_4 Mg2_0 3.608263 1_655
Ce1_5 Mg3_7 3.316770 1_555
Ce1_5 Mg3_1 3.316770 1_555
Ce1_5 Mg0_7 3.424349 1_545
Ce1_5 Mg0_6 3.424349 1_546
Ce1_5 Mg0_0 3.424349 1_656
Ce1_5 Mg0_1 3.424349 1_655
Ce1_5 Mg2_7 3.608263 1_545
Ce1_5 Mg2_1 3.608263 1_655
Ce1_6 Mg3_4 3.316770 1_565
Ce1_6 Mg3_2 3.316770 1_555
Ce1_6 Mg0_4 3.424349 1_555
Ce1_6 Mg0_5 3.424349 1_555
Ce1_6 Mg0_3 3.424349 1_655
Ce1_6 Mg0_2 3.424349 1_655
Ce1_6 Mg2_4 3.608263 1_555
Ce1_6 Mg2_2 3.608263 1_655
Ce1_7 Mg3_5 3.316770 1_565
Ce1_7 Mg3_3 3.316770 1_555
Ce1_7 Mg0_5 3.424349 1_555
Ce1_7 Mg0_4 3.424349 1_556
Ce1_7 Mg0_3 3.424349 1_655
Ce1_7 Mg0_2 3.424349 1_656
Ce1_7 Mg2_5 3.608263 1_555
Ce1_7 Mg2_3 3.608263 1_655
Mg0_0 Mg2_1 3.050053 1_554
Mg0_0 Mg2_0 3.050053 1_555
Mg0_0 Mg0_6 3.099560 1_445
Mg0_0 Mg0_6 3.099560 1_555
Mg0_0 Mg1_4 3.215491 1_455
Mg0_0 Mg1_2 3.215491 1_555
Mg0_1 Mg2_0 3.050053 1_555
Mg0_1 Mg2_1 3.050053 1_555
Mg0_1 Mg0_7 3.099560 1_445
Mg0_1 Mg0_7 3.099560 1_555
Mg0_1 Mg1_5 3.215491 1_455
Mg0_1 Mg1_3 3.215491 1_555
Mg0_2 Mg2_2 3.050053 1_555
Mg0_2 Mg2_3 3.050053 1_554
Mg0_2 Mg0_4 3.099560 1_565
Mg0_2 Mg0_4 3.099560 1_455
Mg0_2 Mg1_0 3.215491 1_565
Mg0_2 Mg1_6 3.215491 1_455
Mg0_3 Mg2_2 3.050053 1_555
Mg0_3 Mg2_3 3.050053 1_555
Mg0_3 Mg0_5 3.099560 1_565
Mg0_3 Mg0_5 3.099560 1_455
Mg0_3 Mg1_1 3.215491 1_565
Mg0_3 Mg1_7 3.215491 1_455
Mg0_4 Mg2_5 3.050053 1_554
Mg0_4 Mg2_4 3.050053 1_555
Mg0_4 Mg1_0 3.215491 1_555
Mg0_4 Mg1_6 3.215491 1_555
Mg0_5 Mg2_4 3.050053 1_555
Mg0_5 Mg2_5 3.050053 1_555
Mg0_5 Mg1_1 3.215491 1_555
Mg0_5 Mg1_7 3.215491 1_555
Mg0_6 Mg2_7 3.050053 1_554
Mg0_6 Mg2_6 3.050053 1_555
Mg0_6 Mg1_4 3.215491 1_565
Mg0_6 Mg1_2 3.215491 1_555
Mg0_7 Mg2_6 3.050053 1_555
Mg0_7 Mg2_7 3.050053 1_555
Mg0_7 Mg1_5 3.215491 1_565
Mg0_7 Mg1_3 3.215491 1_555
Mg1_0 Mg3_1 3.050053 1_554
Mg1_0 Mg3_0 3.050053 1_555
Mg1_0 Mg1_6 3.099560 1_445
Mg1_0 Mg1_6 3.099560 1_555
Mg1_0 Mg2_2 3.237353 1_545
Mg1_0 Mg2_3 3.237353 1_544
Mg1_0 Mg2_5 3.237353 1_554
Mg1_0 Mg2_4 3.237353 1_555
Mg1_1 Mg3_0 3.050053 1_555
Mg1_1 Mg3_1 3.050053 1_555
Mg1_1 Mg1_7 3.099560 1_445
Mg1_1 Mg1_7 3.099560 1_555
Mg1_1 Mg2_2 3.237353 1_545
Mg1_1 Mg2_3 3.237353 1_545
Mg1_1 Mg2_4 3.237353 1_555
Mg1_1 Mg2_5 3.237353 1_555
Mg1_2 Mg3_3 3.050053 1_554
Mg1_2 Mg3_2 3.050053 1_555
Mg1_2 Mg1_4 3.099560 1_565
Mg1_2 Mg1_4 3.099560 1_455
Mg1_2 Mg2_7 3.237353 1_554
Mg1_2 Mg2_6 3.237353 1_555
Mg1_2 Mg2_1 3.237353 1_554
Mg1_2 Mg2_0 3.237353 1_555
Mg1_3 Mg3_2 3.050053 1_555
Mg1_3 Mg3_3 3.050053 1_555
Mg1_3 Mg1_5 3.099560 1_565
Mg1_3 Mg1_5 3.099560 1_455
Mg1_3 Mg2_6 3.237353 1_555
Mg1_3 Mg2_7 3.237353 1_555
Mg1_3 Mg2_1 3.237353 1_555
Mg1_3 Mg2_0 3.237353 1_555
Mg1_4 Mg3_4 3.050053 1_555
Mg1_4 Mg3_5 3.050053 1_554
Mg1_4 Mg2_0 3.237353 1_655
Mg1_4 Mg2_6 3.237353 1_545
Mg1_4 Mg2_7 3.237353 1_544
Mg1_4 Mg2_1 3.237353 1_654
Mg1_5 Mg3_4 3.050053 1_555
Mg1_5 Mg3_5 3.050053 1_555
Mg1_5 Mg2_1 3.237353 1_655
Mg1_5 Mg2_0 3.237353 1_655
Mg1_5 Mg2_6 3.237353 1_545
Mg1_5 Mg2_7 3.237353 1_545
Mg1_6 Mg3_6 3.050053 1_555
Mg1_6 Mg3_7 3.050053 1_554
Mg1_6 Mg2_2 3.237353 1_655
Mg1_6 Mg2_3 3.237353 1_654
Mg1_6 Mg2_5 3.237353 1_554
Mg1_6 Mg2_4 3.237353 1_555
Mg1_7 Mg3_7 3.050053 1_555
Mg1_7 Mg3_6 3.050053 1_555
Mg1_7 Mg2_3 3.237353 1_655
Mg1_7 Mg2_2 3.237353 1_655
Mg1_7 Mg2_4 3.237353 1_555
Mg1_7 Mg2_5 3.237353 1_555
Mg2_0 Mg2_6 3.099560 1_445
Mg2_0 Mg2_6 3.099560 1_555
Mg2_0 Mg3_4 3.215491 1_455
Mg2_0 Mg3_2 3.215491 1_555
Mg2_1 Mg2_7 3.099560 1_445
Mg2_1 Mg2_7 3.099560 1_555
Mg2_1 Mg3_5 3.215491 1_455
Mg2_1 Mg3_3 3.215491 1_555
Mg2_2 Mg2_4 3.099560 1_565
Mg2_2 Mg2_4 3.099560 1_455
Mg2_2 Mg3_0 3.215491 1_565
Mg2_2 Mg3_6 3.215491 1_455
Mg2_3 Mg2_5 3.099560 1_565
Mg2_3 Mg2_5 3.099560 1_455
Mg2_3 Mg3_1 3.215491 1_565
Mg2_3 Mg3_7 3.215491 1_455
Mg2_4 Mg3_0 3.215491 1_555
Mg2_4 Mg3_6 3.215491 1_555
Mg2_5 Mg3_1 3.215491 1_555
Mg2_5 Mg3_7 3.215491 1_555
Mg2_6 Mg3_4 3.215491 1_565
Mg2_6 Mg3_2 3.215491 1_555
Mg2_7 Mg3_5 3.215491 1_565
Mg2_7 Mg3_3 3.215491 1_555
Mg3_0 Mg3_6 3.099560 1_445
Mg3_0 Mg3_6 3.099560 1_555
Mg3_1 Mg3_7 3.099560 1_445
Mg3_1 Mg3_7 3.099560 1_555
Mg3_2 Mg3_4 3.099560 1_455
Mg3_2 Mg3_4 3.099560 1_565
Mg3_3 Mg3_5 3.099560 1_455
Mg3_3 Mg3_5 3.099560 1_565
