# generated using pymatgen
data_Li9Mn2Co5O16
_symmetry_space_group_name_H-M   'P 1'
_cell_length_a   2.89378400
_cell_length_b   8.40661400
_cell_length_c   11.85506839
_cell_angle_alpha   89.54953859
_cell_angle_beta   90.00000000
_cell_angle_gamma   90.00000000
_symmetry_Int_Tables_number   1
_chemical_formula_structural   Li9Mn2Co5O16
_chemical_formula_sum   'Li9 Mn2 Co5 O16'
_cell_volume   288.38844749
_cell_formula_units_Z   1
loop_
 _symmetry_equiv_pos_site_id
 _symmetry_equiv_pos_as_xyz
  1  'x, y, z'
loop_
 _atom_site_type_symbol
 _atom_site_label
 _atom_site_symmetry_multiplicity
 _atom_site_fract_x
 _atom_site_fract_y
 _atom_site_fract_z
 _atom_site_occupancy
  Li  Li0  1  0.50000000  0.74532100  0.88607200  1
  Li  Li1  1  0.50000000  0.25721800  0.62793300  1
  Li  Li2  1  0.50000000  0.74324400  0.36699100  1
  Li  Li3  1  0.00000000  0.51362300  0.00602500  1
  Li  Li4  1  0.00000000  0.00043100  0.75474900  1
  Li  Li5  1  0.00000000  0.49913800  0.49830100  1
  Li  Li6  1  0.50000000  0.25523600  0.12483000  1
  Li  Li7  1  0.00000000  0.98462300  0.24165800  1
  Li  Li8  1  0.50000000  0.74749200  0.12145100  1
  Mn  Mn0  1  0.00000000  0.98877900  0.00098600  1
  Mn  Mn1  1  0.00000000  0.00314400  0.50168900  1
  Co  Co0  1  0.00000000  0.49799800  0.74920500  1
  Co  Co1  1  0.00000000  0.52614600  0.24473900  1
  Co  Co2  1  0.50000000  0.25347200  0.87659400  1
  Co  Co3  1  0.50000000  0.74672400  0.62714400  1
  Co  Co4  1  0.50000000  0.25852000  0.36758800  1
  O  O0  1  0.50000000  0.00188000  0.88593100  1
  O  O1  1  0.50000000  0.50118400  0.62876200  1
  O  O2  1  0.50000000  0.99691600  0.39246400  1
  O  O3  1  0.00000000  0.77145900  0.99767800  1
  O  O4  1  0.00000000  0.25112700  0.75864700  1
  O  O5  1  0.00000000  0.76810500  0.51670900  1
  O  O6  1  0.50000000  0.49730000  0.13411100  1
  O  O7  1  0.00000000  0.24453200  0.25749700  1
  O  O8  1  0.50000000  0.49443900  0.86947400  1
  O  O9  1  0.50000000  0.00642700  0.61189400  1
  O  O10  1  0.50000000  0.49152500  0.37053900  1
  O  O11  1  0.00000000  0.23314500  0.99008100  1
  O  O12  1  0.00000000  0.74664700  0.73555500  1
  O  O13  1  0.00000000  0.23228600  0.49153100  1
  O  O14  1  0.50000000  0.00117300  0.10888600  1
  O  O15  1  0.00000000  0.74074200  0.25428700  1
loop_
_geom_bond_atom_site_label_1
_geom_bond_atom_site_label_2
_geom_bond_distance
_geom_bond_site_symmetry_2
Li0 O3 1.974066 1_655
Li0 O3 1.974066 1_555
Li0 O8 2.119767 1_555
Li0 O0 2.156780 1_565
Li0 O12 2.297249 1_555
Li0 O12 2.297249 1_655
Li1 O1 2.051029 1_555
Li1 O9 2.118348 1_555
Li1 O4 2.120425 1_555
Li1 O4 2.120425 1_655
Li1 O13 2.181197 1_555
Li1 O13 2.181197 1_655
Li2 O15 1.969665 1_555
Li2 O15 1.969665 1_655
Li2 O10 2.116192 1_555
Li2 O2 2.156148 1_555
Li2 O5 2.300726 1_555
Li2 O5 2.300726 1_655
Li3 O6 2.101142 1_455
Li3 O6 2.101142 1_555
Li3 O3 2.169008 1_554
Li3 O8 2.178117 1_554
Li3 O8 2.178117 1_454
Li3 O11 2.366915 1_554
Li4 O4 2.108374 1_555
Li4 O0 2.124265 1_555
Li4 O0 2.124265 1_455
Li4 O12 2.147342 1_545
Li4 O9 2.227740 1_455
Li4 O9 2.227740 1_555
Li5 O10 2.095999 1_455
Li5 O10 2.095999 1_555
Li5 O1 2.118079 1_555
Li5 O1 2.118079 1_455
Li5 O13 2.245387 1_555
Li5 O5 2.273315 1_555
Li6 O6 2.038775 1_555
Li6 O7 2.138456 1_655
Li6 O7 2.138456 1_555
Li6 O14 2.145637 1_555
Li6 O11 2.164376 1_654
Li6 O11 2.164376 1_554
Li7 O15 2.054498 1_555
Li7 O14 2.141717 1_565
Li7 O14 2.141717 1_465
Li7 O7 2.194479 1_565
Li7 O2 2.302904 1_455
Li7 O2 2.302904 1_555
Li8 O3 2.069425 1_554
Li8 O3 2.069425 1_654
Li8 O6 2.107438 1_555
Li8 O14 2.136626 1_565
Li8 O15 2.138982 1_555
Li8 O15 2.138982 1_655
Mn0 O3 1.827654 1_554
Mn0 O14 1.934607 1_565
Mn0 O14 1.934607 1_465
Mn0 O0 1.990909 1_464
Mn0 O0 1.990909 1_564
Mn0 O11 2.057340 1_564
Mn1 O13 1.929124 1_555
Mn1 O2 1.942676 1_445
Mn1 O2 1.942676 1_545
Mn1 O9 1.949804 1_455
Mn1 O9 1.949804 1_555
Mn1 O5 1.982495 1_545
Co0 O8 2.031408 1_555
Co0 O8 2.031408 1_455
Co0 O1 2.032830 1_555
Co0 O1 2.032830 1_455
Co0 O4 2.077487 1_555
Co0 O12 2.095282 1_555
Co1 O15 1.808461 1_555
Co1 O6 1.969096 1_555
Co1 O6 1.969096 1_455
Co1 O10 2.096558 1_555
Co1 O10 2.096558 1_455
Co1 O7 2.371060 1_555
Co2 O11 1.982214 1_655
Co2 O11 1.982214 1_555
Co2 O4 2.012331 1_555
Co2 O4 2.012331 1_655
Co2 O8 2.026811 1_555
Co2 O0 2.117062 1_555
Co3 O12 1.935271 1_655
Co3 O12 1.935271 1_555
Co3 O5 1.958608 1_555
Co3 O5 1.958608 1_655
Co3 O1 2.064098 1_555
Co3 O9 2.189279 1_565
Co4 O7 1.952721 1_655
Co4 O7 1.952721 1_555
Co4 O10 1.959370 1_555
Co4 O13 2.072688 1_555
Co4 O13 2.072688 1_655
Co4 O2 2.216590 1_545
