# generated using pymatgen
data_CeMg
_symmetry_space_group_name_H-M   'P 1'
_cell_length_a   12.92078475
_cell_length_b   12.92078475
_cell_length_c   15.99911566
_cell_angle_alpha   77.34982613
_cell_angle_beta   77.34982613
_cell_angle_gamma   28.15028411
_symmetry_Int_Tables_number   1
_chemical_formula_structural   CeMg
_chemical_formula_sum   'Ce24 Mg24'
_cell_volume   1227.60191136
_cell_formula_units_Z   24
loop_
 _symmetry_equiv_pos_site_id
 _symmetry_equiv_pos_as_xyz
  1  'x, y, z'
loop_
 _atom_site_type_symbol
 _atom_site_label
 _atom_site_symmetry_multiplicity
 _atom_site_fract_x
 _atom_site_fract_y
 _atom_site_fract_z
 _atom_site_occupancy
  Ce  Ce0_0  1  0.30954550  0.30954550  0.14968800  1
  Ce  Ce0_1  1  0.30954550  0.30954550  0.64968800  1
  Ce  Ce0_2  1  0.30954550  0.80954550  0.14968800  1
  Ce  Ce0_3  1  0.30954550  0.80954550  0.64968800  1
  Ce  Ce0_4  1  0.80954550  0.30954550  0.14968800  1
  Ce  Ce0_5  1  0.80954550  0.30954550  0.64968800  1
  Ce  Ce0_6  1  0.80954550  0.80954550  0.14968800  1
  Ce  Ce0_7  1  0.80954550  0.80954550  0.64968800  1
  Ce  Ce1_0  1  0.16126600  0.16126600  0.17199000  1
  Ce  Ce1_1  1  0.16126600  0.16126600  0.67199000  1
  Ce  Ce1_2  1  0.16126600  0.66126600  0.17199000  1
  Ce  Ce1_3  1  0.16126600  0.66126600  0.67199000  1
  Ce  Ce1_4  1  0.66126600  0.16126600  0.17199000  1
  Ce  Ce1_5  1  0.66126600  0.16126600  0.67199000  1
  Ce  Ce1_6  1  0.66126600  0.66126600  0.17199000  1
  Ce  Ce1_7  1  0.66126600  0.66126600  0.67199000  1
  Ce  Ce2_0  1  0.47409100  0.47409100  0.28605050  1
  Ce  Ce2_1  1  0.47409100  0.47409100  0.78605050  1
  Ce  Ce2_2  1  0.47409100  0.97409100  0.28605050  1
  Ce  Ce2_3  1  0.47409100  0.97409100  0.78605050  1
  Ce  Ce2_4  1  0.97409100  0.47409100  0.28605050  1
  Ce  Ce2_5  1  0.97409100  0.47409100  0.78605050  1
  Ce  Ce2_6  1  0.97409100  0.97409100  0.28605050  1
  Ce  Ce2_7  1  0.97409100  0.97409100  0.78605050  1
  Mg  Mg0_0  1  0.00010700  0.00010700  0.49332900  1
  Mg  Mg0_1  1  0.00010700  0.00010700  0.99332900  1
  Mg  Mg0_2  1  0.00010700  0.50010700  0.49332900  1
  Mg  Mg0_3  1  0.00010700  0.50010700  0.99332900  1
  Mg  Mg0_4  1  0.50010700  0.00010700  0.49332900  1
  Mg  Mg0_5  1  0.50010700  0.00010700  0.99332900  1
  Mg  Mg0_6  1  0.50010700  0.50010700  0.49332900  1
  Mg  Mg0_7  1  0.50010700  0.50010700  0.99332900  1
  Mg  Mg1_0  1  0.33258700  0.33258700  0.34483050  1
  Mg  Mg1_1  1  0.33258700  0.33258700  0.84483050  1
  Mg  Mg1_2  1  0.33258700  0.83258700  0.34483050  1
  Mg  Mg1_3  1  0.33258700  0.83258700  0.84483050  1
  Mg  Mg1_4  1  0.83258700  0.33258700  0.34483050  1
  Mg  Mg1_5  1  0.83258700  0.33258700  0.84483050  1
  Mg  Mg1_6  1  0.83258700  0.83258700  0.34483050  1
  Mg  Mg1_7  1  0.83258700  0.83258700  0.84483050  1
  Mg  Mg2_0  1  0.13906950  0.13906950  0.47077900  1
  Mg  Mg2_1  1  0.13906950  0.13906950  0.97077900  1
  Mg  Mg2_2  1  0.13906950  0.63906950  0.47077900  1
  Mg  Mg2_3  1  0.13906950  0.63906950  0.97077900  1
  Mg  Mg2_4  1  0.63906950  0.13906950  0.47077900  1
  Mg  Mg2_5  1  0.63906950  0.13906950  0.97077900  1
  Mg  Mg2_6  1  0.63906950  0.63906950  0.47077900  1
  Mg  Mg2_7  1  0.63906950  0.63906950  0.97077900  1
loop_
_geom_bond_atom_site_label_1
_geom_bond_atom_site_label_2
_geom_bond_distance
_geom_bond_site_symmetry_2
Ce0_0 Ce1_2 3.083430 1_555
Ce0_0 Ce1_4 3.083430 1_555
Ce0_0 Ce2_2 3.115461 1_545
Ce0_0 Ce2_4 3.115461 1_455
Ce0_0 Ce0_6 3.142260 1_455
Ce0_0 Ce0_6 3.142260 1_545
Ce0_0 Mg1_0 3.300811 1_555
Ce0_0 Mg2_3 3.472557 1_554
Ce0_0 Mg2_5 3.472557 1_554
Ce0_0 Mg0_5 3.553753 1_554
Ce0_0 Mg0_3 3.553753 1_554
Ce0_0 Ce1_0 3.652753 1_555
Ce0_1 Ce1_3 3.083430 1_555
Ce0_1 Ce1_5 3.083430 1_555
Ce0_1 Ce2_3 3.115461 1_545
Ce0_1 Ce2_5 3.115461 1_455
Ce0_1 Ce0_7 3.142260 1_545
Ce0_1 Ce0_7 3.142260 1_455
Ce0_1 Mg1_1 3.300811 1_555
Ce0_1 Mg2_2 3.472557 1_555
Ce0_1 Mg2_4 3.472557 1_555
Ce0_1 Mg0_4 3.553753 1_555
Ce0_1 Mg0_2 3.553753 1_555
Ce0_1 Ce1_1 3.652753 1_555
Ce0_2 Ce1_6 3.083430 1_555
Ce0_2 Ce1_0 3.083430 1_565
Ce0_2 Ce2_0 3.115461 1_555
Ce0_2 Ce2_6 3.115461 1_455
Ce0_2 Ce0_4 3.142260 1_555
Ce0_2 Ce0_4 3.142260 1_465
Ce0_2 Mg1_2 3.300811 1_555
Ce0_2 Mg2_7 3.472557 1_554
Ce0_2 Mg2_1 3.472557 1_564
Ce0_2 Mg0_1 3.553753 1_564
Ce0_2 Mg0_7 3.553753 1_554
Ce0_2 Ce1_2 3.652753 1_555
Ce0_3 Ce1_7 3.083430 1_555
Ce0_3 Ce1_1 3.083430 1_565
Ce0_3 Ce2_1 3.115461 1_555
Ce0_3 Ce2_7 3.115461 1_455
Ce0_3 Ce0_5 3.142260 1_555
Ce0_3 Ce0_5 3.142260 1_465
Ce0_3 Mg1_3 3.300811 1_555
Ce0_3 Mg2_6 3.472557 1_555
Ce0_3 Mg2_0 3.472557 1_565
Ce0_3 Mg0_0 3.553753 1_565
Ce0_3 Mg0_6 3.553753 1_555
Ce0_3 Ce1_3 3.652753 1_555
Ce0_4 Ce1_6 3.083430 1_555
Ce0_4 Ce1_0 3.083430 1_655
Ce0_4 Ce2_0 3.115461 1_555
Ce0_4 Ce2_6 3.115461 1_545
Ce0_4 Mg1_4 3.300811 1_555
Ce0_4 Mg2_7 3.472557 1_554
Ce0_4 Mg2_1 3.472557 1_654
Ce0_4 Mg0_1 3.553753 1_654
Ce0_4 Mg0_7 3.553753 1_554
Ce0_4 Ce1_4 3.652753 1_555
Ce0_5 Ce1_7 3.083430 1_555
Ce0_5 Ce1_1 3.083430 1_655
Ce0_5 Ce2_1 3.115461 1_555
Ce0_5 Ce2_7 3.115461 1_545
Ce0_5 Mg1_5 3.300811 1_555
Ce0_5 Mg2_6 3.472557 1_555
Ce0_5 Mg2_0 3.472557 1_655
Ce0_5 Mg0_0 3.553753 1_655
Ce0_5 Mg0_6 3.553753 1_555
Ce0_5 Ce1_5 3.652753 1_555
Ce0_6 Ce1_2 3.083430 1_655
Ce0_6 Ce1_4 3.083430 1_565
Ce0_6 Ce2_4 3.115461 1_555
Ce0_6 Ce2_2 3.115461 1_555
Ce0_6 Mg1_6 3.300811 1_555
Ce0_6 Mg2_3 3.472557 1_654
Ce0_6 Mg2_5 3.472557 1_564
Ce0_6 Mg0_3 3.553753 1_654
Ce0_6 Mg0_5 3.553753 1_564
Ce0_6 Ce1_6 3.652753 1_555
Ce0_7 Ce1_3 3.083430 1_655
Ce0_7 Ce1_5 3.083430 1_565
Ce0_7 Ce2_5 3.115461 1_555
Ce0_7 Ce2_3 3.115461 1_555
Ce0_7 Mg1_7 3.300811 1_555
Ce0_7 Mg2_2 3.472557 1_655
Ce0_7 Mg2_4 3.472557 1_565
Ce0_7 Mg0_4 3.553753 1_565
Ce0_7 Mg0_2 3.553753 1_655
Ce0_7 Ce1_7 3.652753 1_555
Ce1_0 Ce2_4 3.094524 1_455
Ce1_0 Ce2_2 3.094524 1_545
Ce1_0 Ce1_6 3.142260 1_455
Ce1_0 Ce1_6 3.142260 1_545
Ce1_0 Mg2_1 3.388443 1_554
Ce1_0 Mg1_2 3.397367 1_545
Ce1_0 Mg1_4 3.397367 1_455
Ce1_0 Mg0_5 3.567024 1_554
Ce1_0 Mg0_3 3.567024 1_554
Ce1_1 Ce2_5 3.094524 1_455
Ce1_1 Ce2_3 3.094524 1_545
Ce1_1 Ce1_7 3.142260 1_455
Ce1_1 Ce1_7 3.142260 1_545
Ce1_1 Mg2_0 3.388443 1_555
Ce1_1 Mg1_5 3.397367 1_455
Ce1_1 Mg1_3 3.397367 1_545
Ce1_1 Mg0_4 3.567024 1_555
Ce1_1 Mg0_2 3.567024 1_555
Ce1_2 Ce2_0 3.094524 1_555
Ce1_2 Ce2_6 3.094524 1_455
Ce1_2 Ce1_4 3.142260 1_555
Ce1_2 Ce1_4 3.142260 1_465
Ce1_2 Mg2_3 3.388443 1_554
Ce1_2 Mg1_0 3.397367 1_555
Ce1_2 Mg1_6 3.397367 1_455
Ce1_2 Mg0_7 3.567024 1_554
Ce1_2 Mg0_1 3.567024 1_564
Ce1_3 Ce2_7 3.094524 1_455
Ce1_3 Ce2_1 3.094524 1_555
Ce1_3 Ce1_5 3.142260 1_555
Ce1_3 Ce1_5 3.142260 1_465
Ce1_3 Mg2_2 3.388443 1_555
Ce1_3 Mg1_1 3.397367 1_555
Ce1_3 Mg1_7 3.397367 1_455
Ce1_3 Mg0_6 3.567024 1_555
Ce1_3 Mg0_0 3.567024 1_565
Ce1_4 Ce2_0 3.094524 1_555
Ce1_4 Ce2_6 3.094524 1_545
Ce1_4 Mg2_5 3.388443 1_554
Ce1_4 Mg1_6 3.397367 1_545
Ce1_4 Mg1_0 3.397367 1_555
Ce1_4 Mg0_7 3.567024 1_554
Ce1_4 Mg0_1 3.567024 1_654
Ce1_5 Ce2_1 3.094524 1_555
Ce1_5 Ce2_7 3.094524 1_545
Ce1_5 Mg2_4 3.388443 1_555
Ce1_5 Mg1_1 3.397367 1_555
Ce1_5 Mg1_7 3.397367 1_545
Ce1_5 Mg0_6 3.567024 1_555
Ce1_5 Mg0_0 3.567024 1_655
Ce1_6 Ce2_2 3.094524 1_555
Ce1_6 Ce2_4 3.094524 1_555
Ce1_6 Mg2_7 3.388443 1_554
Ce1_6 Mg1_2 3.397367 1_555
Ce1_6 Mg1_4 3.397367 1_555
Ce1_6 Mg0_5 3.567024 1_564
Ce1_6 Mg0_3 3.567024 1_654
Ce1_7 Ce2_5 3.094524 1_555
Ce1_7 Ce2_3 3.094524 1_555
Ce1_7 Mg2_6 3.388443 1_555
Ce1_7 Mg1_3 3.397367 1_555
Ce1_7 Mg1_5 3.397367 1_555
Ce1_7 Mg0_2 3.567024 1_655
Ce1_7 Mg0_4 3.567024 1_565
Ce2_0 Ce2_6 3.142260 1_455
Ce2_0 Ce2_6 3.142260 1_545
Ce2_0 Mg1_2 3.450155 1_555
Ce2_0 Mg1_4 3.450155 1_555
Ce2_0 Mg1_0 3.458139 1_555
Ce2_0 Mg0_6 3.521282 1_555
Ce2_0 Mg2_4 3.591793 1_555
Ce2_0 Mg2_2 3.591793 1_555
Ce2_1 Ce2_7 3.142260 1_455
Ce2_1 Ce2_7 3.142260 1_545
Ce2_1 Mg1_3 3.450155 1_555
Ce2_1 Mg1_5 3.450155 1_555
Ce2_1 Mg1_1 3.458139 1_555
Ce2_1 Mg0_7 3.521282 1_555
Ce2_1 Mg2_5 3.591793 1_555
Ce2_1 Mg2_3 3.591793 1_555
Ce2_2 Ce2_4 3.142260 1_555
Ce2_2 Ce2_4 3.142260 1_465
Ce2_2 Mg1_0 3.450155 1_565
Ce2_2 Mg1_6 3.450155 1_555
Ce2_2 Mg1_2 3.458139 1_555
Ce2_2 Mg0_4 3.521282 1_565
Ce2_2 Mg2_0 3.591793 1_565
Ce2_2 Mg2_6 3.591793 1_555
Ce2_3 Ce2_5 3.142260 1_555
Ce2_3 Ce2_5 3.142260 1_465
Ce2_3 Mg1_7 3.450155 1_555
Ce2_3 Mg1_1 3.450155 1_565
Ce2_3 Mg1_3 3.458139 1_555
Ce2_3 Mg0_5 3.521282 1_565
Ce2_3 Mg2_1 3.591793 1_565
Ce2_3 Mg2_7 3.591793 1_555
Ce2_4 Mg1_6 3.450155 1_555
Ce2_4 Mg1_0 3.450155 1_655
Ce2_4 Mg1_4 3.458139 1_555
Ce2_4 Mg0_2 3.521282 1_655
Ce2_4 Mg2_0 3.591793 1_655
Ce2_4 Mg2_6 3.591793 1_555
Ce2_5 Mg1_7 3.450155 1_555
Ce2_5 Mg1_1 3.450155 1_655
Ce2_5 Mg1_5 3.458139 1_555
Ce2_5 Mg0_3 3.521282 1_655
Ce2_5 Mg2_1 3.591793 1_655
Ce2_5 Mg2_7 3.591793 1_555
Ce2_6 Mg1_2 3.450155 1_655
Ce2_6 Mg1_4 3.450155 1_565
Ce2_6 Mg1_6 3.458139 1_555
Ce2_6 Mg0_0 3.521282 1_665
Ce2_6 Mg2_4 3.591793 1_565
Ce2_6 Mg2_2 3.591793 1_655
Ce2_7 Mg1_3 3.450155 1_655
Ce2_7 Mg1_5 3.450155 1_565
Ce2_7 Mg1_7 3.458139 1_555
Ce2_7 Mg0_1 3.521282 1_665
Ce2_7 Mg2_5 3.591793 1_565
Ce2_7 Mg2_3 3.591793 1_655
Mg0_0 Mg0_6 3.142260 1_545
Mg0_0 Mg0_6 3.142260 1_455
Mg0_0 Mg1_2 3.188943 1_545
Mg0_0 Mg1_4 3.188943 1_455
Mg0_0 Mg2_4 3.286098 1_455
Mg0_0 Mg2_2 3.286098 1_545
Mg0_0 Mg2_0 3.419851 1_555
Mg0_1 Mg0_7 3.142260 1_455
Mg0_1 Mg0_7 3.142260 1_545
Mg0_1 Mg1_5 3.188943 1_455
Mg0_1 Mg1_3 3.188943 1_545
Mg0_1 Mg2_5 3.286098 1_455
Mg0_1 Mg2_3 3.286098 1_545
Mg0_1 Mg2_1 3.419851 1_555
Mg0_2 Mg0_4 3.142260 1_555
Mg0_2 Mg0_4 3.142260 1_465
Mg0_2 Mg1_0 3.188943 1_555
Mg0_2 Mg1_6 3.188943 1_455
Mg0_2 Mg2_0 3.286098 1_555
Mg0_2 Mg2_6 3.286098 1_455
Mg0_2 Mg2_2 3.419851 1_555
Mg0_3 Mg0_5 3.142260 1_555
Mg0_3 Mg0_5 3.142260 1_465
Mg0_3 Mg1_7 3.188943 1_455
Mg0_3 Mg1_1 3.188943 1_555
Mg0_3 Mg2_1 3.286098 1_555
Mg0_3 Mg2_7 3.286098 1_455
Mg0_3 Mg2_3 3.419851 1_555
Mg0_4 Mg1_0 3.188943 1_555
Mg0_4 Mg1_6 3.188943 1_545
Mg0_4 Mg2_0 3.286098 1_555
Mg0_4 Mg2_6 3.286098 1_545
Mg0_4 Mg2_4 3.419851 1_555
Mg0_5 Mg1_7 3.188943 1_545
Mg0_5 Mg1_1 3.188943 1_555
Mg0_5 Mg2_1 3.286098 1_555
Mg0_5 Mg2_7 3.286098 1_545
Mg0_5 Mg2_5 3.419851 1_555
Mg0_6 Mg1_2 3.188943 1_555
Mg0_6 Mg1_4 3.188943 1_555
Mg0_6 Mg2_4 3.286098 1_555
Mg0_6 Mg2_2 3.286098 1_555
Mg0_6 Mg2_6 3.419851 1_555
Mg0_7 Mg1_3 3.188943 1_555
Mg0_7 Mg1_5 3.188943 1_555
Mg0_7 Mg2_5 3.286098 1_555
Mg0_7 Mg2_3 3.286098 1_555
Mg0_7 Mg2_7 3.419851 1_555
Mg1_0 Mg2_2 3.133940 1_555
Mg1_0 Mg2_4 3.133940 1_555
Mg1_0 Mg1_6 3.142260 1_545
Mg1_0 Mg1_6 3.142260 1_455
Mg1_1 Mg2_3 3.133940 1_555
Mg1_1 Mg2_5 3.133940 1_555
Mg1_1 Mg1_7 3.142260 1_455
Mg1_1 Mg1_7 3.142260 1_545
Mg1_2 Mg2_6 3.133940 1_555
Mg1_2 Mg2_0 3.133940 1_565
Mg1_2 Mg1_4 3.142260 1_465
Mg1_2 Mg1_4 3.142260 1_555
Mg1_3 Mg2_7 3.133940 1_555
Mg1_3 Mg2_1 3.133940 1_565
Mg1_3 Mg1_5 3.142260 1_555
Mg1_3 Mg1_5 3.142260 1_465
Mg1_4 Mg2_6 3.133940 1_555
Mg1_4 Mg2_0 3.133940 1_655
Mg1_5 Mg2_7 3.133940 1_555
Mg1_5 Mg2_1 3.133940 1_655
Mg1_6 Mg2_2 3.133940 1_655
Mg1_6 Mg2_4 3.133940 1_565
Mg1_7 Mg2_3 3.133940 1_655
Mg1_7 Mg2_5 3.133940 1_565
Mg2_0 Mg2_6 3.142260 1_545
Mg2_0 Mg2_6 3.142260 1_455
Mg2_1 Mg2_7 3.142260 1_455
Mg2_1 Mg2_7 3.142260 1_545
Mg2_2 Mg2_4 3.142260 1_555
Mg2_2 Mg2_4 3.142260 1_465
Mg2_3 Mg2_5 3.142260 1_555
Mg2_3 Mg2_5 3.142260 1_465
