# generated using pymatgen
data_Li6Mn3CoO10
_symmetry_space_group_name_H-M   'P 1'
_cell_length_a   7.79737206
_cell_length_b   7.79737206
_cell_length_c   5.10668802
_cell_angle_alpha   83.96331899
_cell_angle_beta   83.96331899
_cell_angle_gamma   142.47456370
_symmetry_Int_Tables_number   1
_chemical_formula_structural   Li6Mn3CoO10
_chemical_formula_sum   'Li6 Mn3 Co1 O10'
_cell_volume   178.72453731
_cell_formula_units_Z   1
loop_
 _symmetry_equiv_pos_site_id
 _symmetry_equiv_pos_as_xyz
  1  'x, y, z'
loop_
 _atom_site_type_symbol
 _atom_site_label
 _atom_site_symmetry_multiplicity
 _atom_site_fract_x
 _atom_site_fract_y
 _atom_site_fract_z
 _atom_site_occupancy
  Li  Li0  1  0.10410400  0.89589600  0.50000000  1
  Li  Li1  1  0.70977400  0.29022600  0.50000000  1
  Li  Li2  1  0.30356500  0.69643500  0.50000000  1
  Li  Li3  1  0.89519600  0.10480400  0.50000000  1
  Li  Li4  1  0.49765300  0.50234700  0.50000000  1
  Li  Li5  1  0.80457900  0.19542100  0.00000000  1
  Mn  Mn0  1  0.99883500  0.00116500  0.00000000  1
  Mn  Mn1  1  0.20610400  0.79389600  0.00000000  1
  Mn  Mn2  1  0.60503500  0.39496500  0.00000000  1
  Co  Co0  1  0.39791100  0.60208900  0.00000000  1
  O  O0  1  0.76122100  0.74066700  0.77470000  1
  O  O1  1  0.34716300  0.14131400  0.77996300  1
  O  O2  1  0.94156600  0.55087400  0.78150100  1
  O  O3  1  0.51224600  0.92533900  0.76371000  1
  O  O4  1  0.13975600  0.31574600  0.76359300  1
  O  O5  1  0.44912600  0.05843400  0.21849900  1
  O  O6  1  0.07466100  0.48775400  0.23629000  1
  O  O7  1  0.68425400  0.86024400  0.23640700  1
  O  O8  1  0.25933300  0.23877900  0.22530000  1
  O  O9  1  0.85868600  0.65283700  0.22003700  1
loop_
_geom_bond_atom_site_label_1
_geom_bond_atom_site_label_2
_geom_bond_distance
_geom_bond_site_symmetry_2
Li0 O8 2.074141 1_565
Li0 O0 2.074141 1_455
Li0 O5 2.074974 1_565
Li0 O2 2.074974 1_455
Li0 O1 2.165764 1_565
Li0 O9 2.165764 1_455
Li1 O6 2.021831 1_655
Li1 O3 2.021831 1_545
Li1 O2 2.190485 1_555
Li1 O5 2.190485 1_555
Li1 O1 2.231535 1_555
Li1 O9 2.231535 1_555
Li2 O3 2.001686 1_555
Li2 O6 2.001686 1_555
Li2 O7 2.244713 1_555
Li2 O4 2.244713 1_555
Li2 O2 2.245849 1_455
Li2 O5 2.245849 1_565
Li3 O4 2.045538 1_655
Li3 O7 2.045538 1_545
Li3 O3 2.195009 1_545
Li3 O6 2.195009 1_655
Li3 O0 2.295684 1_545
Li3 O8 2.295684 1_655
Li4 O4 2.018471 1_555
Li4 O7 2.018471 1_555
Li4 O8 2.177549 1_555
Li4 O0 2.177549 1_555
Li4 O1 2.215122 1_555
Li4 O9 2.215122 1_555
Li5 O7 2.092106 1_545
Li5 O4 2.092106 1_654
Li5 O5 2.114426 1_555
Li5 O2 2.114426 1_554
Li5 O3 2.141414 1_544
Li5 O6 2.141414 1_655
Mn0 O4 1.872050 1_654
Mn0 O7 1.872050 1_545
Mn0 O0 1.962871 1_544
Mn0 O8 1.962871 1_655
Mn0 O9 2.055641 1_545
Mn0 O1 2.055641 1_654
Mn1 O6 1.859599 1_555
Mn1 O3 1.859599 1_554
Mn1 O2 1.954360 1_454
Mn1 O5 1.954360 1_565
Mn1 O9 2.045614 1_455
Mn1 O1 2.045614 1_564
Mn2 O5 1.909855 1_555
Mn2 O2 1.909855 1_554
Mn2 O9 1.962675 1_555
Mn2 O1 1.962675 1_554
Mn2 O8 1.979626 1_555
Mn2 O0 1.979626 1_554
Co0 O3 2.042934 1_554
Co0 O6 2.042934 1_555
Co0 O7 2.108019 1_555
Co0 O4 2.108019 1_554
Co0 O0 2.171198 1_554
Co0 O8 2.171198 1_555
