# generated using pymatgen
data_SmFeCo
_symmetry_space_group_name_H-M   'P 1'
_cell_length_a   5.19518442
_cell_length_b   5.19518442
_cell_length_c   5.19518442
_cell_angle_alpha   120.34166579
_cell_angle_beta   117.32457090
_cell_angle_gamma   92.05243307
_symmetry_Int_Tables_number   1
_chemical_formula_structural   SmFeCo
_chemical_formula_sum   'Sm2 Fe2 Co2'
_cell_volume   100.74397773
_cell_formula_units_Z   2
loop_
 _symmetry_equiv_pos_site_id
 _symmetry_equiv_pos_as_xyz
  1  'x, y, z'
loop_
 _atom_site_type_symbol
 _atom_site_label
 _atom_site_symmetry_multiplicity
 _atom_site_fract_x
 _atom_site_fract_y
 _atom_site_fract_z
 _atom_site_occupancy
  Sm  Sm0  1  0.12431800  0.87431800  0.25000000  1
  Sm  Sm1  1  0.87568200  0.12568200  0.75000000  1
  Fe  Fe0  1  0.50000000  0.50000000  0.50000000  1
  Fe  Fe1  1  0.50000000  0.00000000  0.00000000  1
  Co  Co0  1  0.50000000  0.50000000  0.00000000  1
  Co  Co1  1  0.00000000  0.50000000  0.50000000  1
loop_
_geom_bond_atom_site_label_1
_geom_bond_atom_site_label_2
_geom_bond_distance
_geom_bond_site_symmetry_2
Sm0 Sm1 3.145700 1_454
Sm0 Sm1 3.145700 1_465
Sm0 Sm1 3.254055 1_565
Sm0 Sm1 3.254055 1_464
Fe0 Fe1 2.584166 1_555
Fe0 Fe1 2.584166 1_566
Fe0 Sm1 3.002530 1_565
Fe0 Sm0 3.002530 1_545
Fe0 Sm0 3.126376 1_555
Fe0 Sm0 3.126376 1_656
Fe0 Sm1 3.126376 1_555
Fe0 Sm1 3.126376 1_454
Fe1 Sm1 3.002530 1_554
Fe1 Sm0 3.002530 1_545
Fe1 Sm0 3.126376 1_544
Fe1 Sm1 3.126376 1_555
Fe1 Sm1 3.126376 1_454
Fe1 Sm0 3.126376 1_645
Co0 Fe0 2.597592 1_554
Co0 Fe1 2.597592 1_555
Co0 Fe1 2.597592 1_565
Co0 Fe0 2.597592 1_555
Co0 Co1 2.701919 1_554
Co0 Co1 2.701919 1_655
Co0 Sm0 3.019529 1_655
Co0 Sm1 3.019529 1_454
Co0 Sm0 3.053708 1_555
Co0 Sm1 3.053708 1_554
Co0 Sm1 3.053708 1_565
Co0 Sm0 3.053708 1_544
Co1 Fe1 2.597592 1_566
Co1 Fe0 2.597592 1_455
Co1 Fe1 2.597592 1_455
Co1 Fe0 2.597592 1_555
Co1 Sm0 3.019529 1_555
Co1 Sm1 3.019529 1_455
Co1 Sm1 3.053708 1_454
Co1 Sm1 3.053708 1_465
Co1 Sm0 3.053708 1_556
Co1 Sm0 3.053708 1_545
