# generated using pymatgen
data_CuH14C4(NO2)4
_symmetry_space_group_name_H-M   'P 1'
_cell_length_a   8.03530629
_cell_length_b   9.15918894
_cell_length_c   8.32937400
_cell_angle_alpha   90.00000000
_cell_angle_beta   90.00000000
_cell_angle_gamma   99.12322407
_symmetry_Int_Tables_number   1
_chemical_formula_structural   CuH14C4(NO2)4
_chemical_formula_sum   'Cu2 H28 C8 N8 O16'
_cell_volume   605.26112303
_cell_formula_units_Z   2
loop_
 _symmetry_equiv_pos_site_id
 _symmetry_equiv_pos_as_xyz
  1  'x, y, z'
loop_
 _atom_site_type_symbol
 _atom_site_label
 _atom_site_symmetry_multiplicity
 _atom_site_fract_x
 _atom_site_fract_y
 _atom_site_fract_z
 _atom_site_occupancy
  Cu  Cu0  1  0.50000000  0.00000000  0.50000000  1
  Cu  Cu1  1  0.00000000  0.00000000  0.00000000  1
  H  H0  1  0.96698500  0.71430800  0.24449000  1
  H  H1  1  0.53301500  0.28569200  0.74449000  1
  H  H2  1  0.03301500  0.28569200  0.75551000  1
  H  H3  1  0.46698500  0.71430800  0.25551000  1
  H  H4  1  0.80823400  0.56182900  0.21971900  1
  H  H5  1  0.69176600  0.43817100  0.71971900  1
  H  H6  1  0.19176600  0.43817100  0.78028100  1
  H  H7  1  0.30823400  0.56182900  0.28028100  1
  H  H8  1  0.05965900  0.79225800  0.49350300  1
  H  H9  1  0.44034100  0.20774100  0.99350300  1
  H  H10  1  0.94034100  0.20774100  0.50649700  1
  H  H11  1  0.55965900  0.79225800  0.00649700  1
  H  H12  1  0.95520300  0.71733800  0.66769000  1
  H  H13  1  0.54479700  0.28266200  0.16769000  1
  H  H14  1  0.04479700  0.28266200  0.33231000  1
  H  H15  1  0.45520300  0.71733800  0.83231000  1
  H  H16  1  0.61948000  0.36730200  0.43296400  1
  H  H17  1  0.88052000  0.63269800  0.93296400  1
  H  H18  1  0.38052000  0.63269800  0.56703600  1
  H  H19  1  0.11948000  0.36730200  0.06703600  1
  H  H20  1  0.42647400  0.33509900  0.42255700  1
  H  H21  1  0.07352600  0.66490100  0.92255700  1
  H  H22  1  0.57352600  0.66490100  0.57744300  1
  H  H23  1  0.92647400  0.33509900  0.07744300  1
  H  H24  1  0.82721300  0.06723500  0.29905600  1
  H  H25  1  0.67278700  0.93276500  0.79905600  1
  H  H26  1  0.17278700  0.93276500  0.70094400  1
  H  H27  1  0.32721300  0.06723500  0.20094400  1
  C  C0  1  0.73529700  0.98704200  0.23310200  1
  C  C1  1  0.76470300  0.01295800  0.73310200  1
  C  C2  1  0.26470300  0.01295800  0.76689800  1
  C  C3  1  0.23529700  0.98704200  0.26689800  1
  C  C4  1  0.85531300  0.63058400  0.45455000  1
  C  C5  1  0.64468700  0.36941600  0.95455000  1
  C  C6  1  0.14468700  0.36941600  0.54545000  1
  C  C7  1  0.35531300  0.63058400  0.04545000  1
  N  N0  1  0.88195600  0.63323600  0.29461100  1
  N  N1  1  0.61804400  0.36676400  0.79461100  1
  N  N2  1  0.11804400  0.36676400  0.70538900  1
  N  N3  1  0.38195600  0.63323600  0.20538900  1
  N  N4  1  0.95709700  0.73031200  0.54502100  1
  N  N5  1  0.54290300  0.26968800  0.04502100  1
  N  N6  1  0.04290300  0.26968800  0.45497900  1
  N  N7  1  0.45709700  0.73031200  0.95497900  1
  O  O0  1  0.59370400  0.93801800  0.29683200  1
  O  O1  1  0.90629600  0.06198200  0.79683200  1
  O  O2  1  0.40629600  0.06198200  0.70316800  1
  O  O3  1  0.09370400  0.93801800  0.20316800  1
  O  O4  1  0.77347200  0.94452700  0.09432100  1
  O  O5  1  0.72652800  0.05547300  0.59432100  1
  O  O6  1  0.22652800  0.05547300  0.90567900  1
  O  O7  1  0.27347200  0.94452700  0.40567900  1
  O  O8  1  0.73634500  0.54077300  0.51872100  1
  O  O9  1  0.76365500  0.45922700  0.01872100  1
  O  O10  1  0.26365500  0.45922700  0.48127900  1
  O  O11  1  0.23634500  0.54077300  0.98127900  1
  O  O12  1  0.52665800  0.28815100  0.39989400  1
  O  O13  1  0.97334200  0.71184900  0.89989400  1
  O  O14  1  0.47334200  0.71184900  0.60010600  1
  O  O15  1  0.02665800  0.28815100  0.10010600  1
loop_
_geom_bond_atom_site_label_1
_geom_bond_atom_site_label_2
_geom_bond_distance
_geom_bond_site_symmetry_2
Cu0 O0 1.971931 1_545
Cu0 O2 1.971931 1_555
Cu0 O5 1.973652 1_555
Cu0 O7 1.973652 1_545
Cu1 O3 1.971931 1_545
Cu1 O1 1.971931 1_454
Cu1 O4 1.973652 1_445
Cu1 O6 1.973652 1_554
H0 N0 1.015675 1_555
H1 N1 1.015675 1_555
H2 N2 1.015675 1_555
H3 N3 1.015675 1_555
H4 N0 1.022222 1_555
H5 N1 1.022222 1_555
H6 N2 1.022222 1_555
H7 N3 1.022222 1_555
H8 N4 1.018304 1_455
H9 N5 1.018308 1_556
H10 N6 1.018308 1_655
H11 N7 1.018304 1_554
H12 N4 1.028477 1_555
H13 N5 1.028477 1_555
H14 N6 1.028477 1_555
H15 N7 1.028477 1_555
H16 O12 0.993110 1_555
H17 O13 0.993110 1_555
H18 O14 0.993110 1_555
H19 O15 0.993110 1_555
H20 O12 0.989116 1_555
H21 O13 0.989116 1_455
H22 O14 0.989116 1_555
H23 O15 0.989116 1_655
C0 H24 1.102155 1_565
C0 O0 1.271163 1_555
C0 O4 1.272733 1_555
C1 H25 1.102155 1_545
C1 O1 1.271163 1_555
C1 O5 1.272733 1_555
C2 H26 1.102155 1_545
C2 O2 1.271163 1_555
C2 O6 1.272733 1_555
C3 H27 1.102155 1_565
C3 O3 1.271163 1_555
C3 O7 1.272733 1_555
C4 O8 1.275469 1_555
C4 N0 1.348891 1_555
C4 N4 1.354331 1_555
C5 O9 1.275469 1_556
C5 N1 1.348891 1_555
C5 N5 1.354331 1_556
C6 O10 1.275469 1_555
C6 N2 1.348891 1_555
C6 N6 1.354331 1_555
C7 O11 1.275469 1_554
C7 N3 1.348891 1_555
C7 N7 1.354331 1_554
