# generated using pymatgen
data_K2CeS3O13
_symmetry_space_group_name_H-M   'P 1'
_cell_length_a   11.20608009
_cell_length_b   11.20608009
_cell_length_c   18.31095224
_cell_angle_alpha   59.20577554
_cell_angle_beta   59.20577554
_cell_angle_gamma   37.87078714
_symmetry_Int_Tables_number   1
_chemical_formula_structural   K2CeS3O13
_chemical_formula_sum   'K8 Ce4 S12 O52'
_cell_volume   1186.94292266
_cell_formula_units_Z   4
loop_
 _symmetry_equiv_pos_site_id
 _symmetry_equiv_pos_as_xyz
  1  'x, y, z'
loop_
 _atom_site_type_symbol
 _atom_site_label
 _atom_site_symmetry_multiplicity
 _atom_site_fract_x
 _atom_site_fract_y
 _atom_site_fract_z
 _atom_site_occupancy
  K  K0  1  0.43822600  0.84138000  0.70908900  1
  K  K1  1  0.15862000  0.56177400  0.29091100  1
  K  K2  1  0.59547200  0.96927400  0.83808400  1
  K  K3  1  0.03072600  0.40452800  0.16191600  1
  K  K4  1  0.99074500  0.00925500  0.00000000  1
  K  K5  1  0.37361100  0.62638900  0.50000000  1
  K  K6  1  0.05916700  0.48879200  0.72923400  1
  K  K7  1  0.51120800  0.94083300  0.27076600  1
  Ce  Ce0  1  0.43385400  0.40171700  0.91462300  1
  Ce  Ce1  1  0.59828300  0.56614600  0.08537700  1
  Ce  Ce2  1  0.91610500  0.32620500  0.57961500  1
  Ce  Ce3  1  0.67379500  0.08389500  0.42038500  1
  S  S0  1  0.44132300  0.47057200  0.72374200  1
  S  S1  1  0.52942800  0.55867700  0.27625800  1
  S  S2  1  0.91503000  0.22401500  0.77289400  1
  S  S3  1  0.77598500  0.08497000  0.22710600  1
  S  S4  1  0.57239700  0.63214100  0.90426300  1
  S  S5  1  0.36785900  0.42760300  0.09573700  1
  S  S6  1  0.05417500  0.42575100  0.94501300  1
  S  S7  1  0.57424900  0.94582500  0.05498700  1
  S  S8  1  0.64074100  0.03890100  0.61268800  1
  S  S9  1  0.96109900  0.35925900  0.38731200  1
  S  S10  1  0.48109400  0.86880900  0.50056500  1
  S  S11  1  0.13119100  0.51890600  0.49943500  1
  O  O0  1  0.39318400  0.59853700  0.76330700  1
  O  O1  1  0.40146300  0.60681600  0.23669300  1
  O  O2  1  0.28762500  0.58045600  0.68206900  1
  O  O3  1  0.41954400  0.71237500  0.31793100  1
  O  O4  1  0.46722000  0.31312500  0.80106000  1
  O  O5  1  0.68687500  0.53278000  0.19894000  1
  O  O6  1  0.63579800  0.37614900  0.66045500  1
  O  O7  1  0.62385100  0.36420200  0.33954500  1
  O  O8  1  0.80852500  0.42423300  0.71309000  1
  O  O9  1  0.57576700  0.19147500  0.28691000  1
  O  O10  1  0.05482400  0.15998000  0.80730500  1
  O  O11  1  0.84002000  0.94517600  0.19269500  1
  O  O12  1  0.02114000  0.08820100  0.71714400  1
  O  O13  1  0.91179900  0.97886000  0.28285600  1
  O  O14  1  0.76676300  0.22664700  0.84721800  1
  O  O15  1  0.77335300  0.23323700  0.15278200  1
  O  O16  1  0.45756400  0.61930200  0.89549200  1
  O  O17  1  0.38069800  0.54243600  0.10450800  1
  O  O18  1  0.72429600  0.44390300  0.95931800  1
  O  O19  1  0.55609700  0.27570400  0.04068200  1
  O  O20  1  0.43637400  0.79037500  0.95447200  1
  O  O21  1  0.20962500  0.56362600  0.04552800  1
  O  O22  1  0.66203900  0.67959600  0.81816100  1
  O  O23  1  0.32040400  0.33796100  0.18183900  1
  O  O24  1  0.20266800  0.23554800  0.92075900  1
  O  O25  1  0.76445200  0.79733200  0.07924100  1
  O  O26  1  0.92171500  0.42917500  0.03155300  1
  O  O27  1  0.57082500  0.07828500  0.96844700  1
  O  O28  1  0.15996300  0.44535100  0.96111700  1
  O  O29  1  0.55464900  0.84003700  0.03888300  1
  O  O30  1  0.93670000  0.59666600  0.87939200  1
  O  O31  1  0.40333400  0.06330000  0.12060800  1
  O  O32  1  0.66100400  0.92839500  0.57548400  1
  O  O33  1  0.07160500  0.33899600  0.42451600  1
  O  O34  1  0.64426900  0.17975300  0.52943800  1
  O  O35  1  0.82024700  0.35573100  0.47056200  1
  O  O36  1  0.44655700  0.15714400  0.67123700  1
  O  O37  1  0.84285600  0.55344300  0.32876300  1
  O  O38  1  0.80392300  0.90798000  0.65404500  1
  O  O39  1  0.09202000  0.19607700  0.34595500  1
  O  O40  1  0.56383700  0.95421500  0.44587000  1
  O  O41  1  0.04578500  0.43616300  0.55413000  1
  O  O42  1  0.29374700  0.00370600  0.56139200  1
  O  O43  1  0.99629400  0.70625300  0.43860800  1
  O  O44  1  0.62961000  0.67458100  0.55506100  1
  O  O45  1  0.32541900  0.37039000  0.44493900  1
  O  O46  1  0.44705400  0.84154200  0.44644600  1
  O  O47  1  0.15845800  0.55294600  0.55355400  1
  O  O48  1  0.02266400  0.04944700  0.56958300  1
  O  O49  1  0.95055300  0.97733600  0.43041700  1
  O  O50  1  0.11912500  0.71652300  0.89743500  1
  O  O51  1  0.28347700  0.88087500  0.10256500  1
loop_
_geom_bond_atom_site_label_1
_geom_bond_atom_site_label_2
_geom_bond_distance
_geom_bond_site_symmetry_2
K0 O0 2.745027 1_555
K0 O22 2.794409 1_555
K0 O42 2.835639 1_565
K0 O32 2.883647 1_555
K0 O8 2.900343 1_555
K0 O12 2.969718 1_565
K0 O10 2.980856 1_565
K0 O44 2.987214 1_555
K0 O16 3.016427 1_555
K0 O36 3.309688 1_565
K1 O1 2.745027 1_555
K1 O23 2.794409 1_555
K1 O43 2.835639 1_455
K1 O33 2.883647 1_555
K1 O9 2.900343 1_555
K1 O13 2.969718 1_455
K1 O11 2.980856 1_455
K1 O45 2.987214 1_555
K1 O17 3.016427 1_555
K1 O37 3.309688 1_455
K2 O4 2.636711 1_565
K2 O30 2.673674 1_555
K2 O24 2.763457 1_565
K2 O22 2.887548 1_555
K2 O27 3.007434 1_565
K2 O38 3.010237 1_555
K2 O20 3.019503 1_555
K2 O36 3.104608 1_565
K2 O29 3.114029 1_556
K3 O5 2.636711 1_455
K3 O31 2.673674 1_555
K3 O25 2.763457 1_455
K3 O23 2.887548 1_555
K3 O26 3.007434 1_455
K3 O39 3.010237 1_555
K3 O21 3.019503 1_555
K3 O37 3.104608 1_455
K3 O28 3.114029 1_554
K4 O18 2.965737 1_554
K4 O19 2.965737 1_555
K4 O10 3.006113 1_654
K4 O11 3.006113 1_545
K4 O20 3.184609 1_644
K4 O21 3.184609 1_645
K4 O14 3.258672 1_554
K4 O15 3.258672 1_555
K5 O47 2.708796 1_555
K5 O46 2.708796 1_555
K5 O3 2.836331 1_555
K5 O2 2.836331 1_555
K5 O34 3.079785 1_555
K5 O35 3.079785 1_555
K5 O48 3.344213 1_565
K5 O49 3.344213 1_455
K6 O47 2.707980 1_555
K6 O36 2.763034 1_555
K6 O30 2.797335 1_455
K6 O22 2.854866 1_455
K6 O38 2.887940 1_455
K6 O2 3.055291 1_555
K6 O10 3.231318 1_555
K7 O46 2.707980 1_555
K7 O37 2.763034 1_555
K7 O31 2.797335 1_565
K7 O23 2.854866 1_565
K7 O39 2.887940 1_565
K7 O3 3.055291 1_555
K7 O11 3.231318 1_555
Ce0 O50 2.310710 1_555
Ce0 O14 2.345066 1_555
Ce0 O27 2.360504 1_555
Ce0 O28 2.401148 1_555
Ce0 O19 2.458614 1_556
Ce0 O4 2.486186 1_555
Ce0 O16 2.488259 1_555
Ce0 O0 2.489586 1_555
Ce0 O21 2.537632 1_556
Ce1 O51 2.310710 1_555
Ce1 O15 2.345066 1_555
Ce1 O26 2.360504 1_555
Ce1 O29 2.401148 1_555
Ce1 O18 2.458614 1_554
Ce1 O5 2.486186 1_555
Ce1 O17 2.488259 1_555
Ce1 O1 2.489586 1_555
Ce1 O20 2.537632 1_554
Ce2 O41 2.322026 1_655
Ce2 O48 2.364321 1_655
Ce2 O44 2.375492 1_555
Ce2 O6 2.383906 1_555
Ce2 O33 2.456218 1_655
Ce2 O12 2.458087 1_655
Ce2 O35 2.491888 1_555
Ce2 O8 2.504954 1_555
Ce2 O42 2.593050 1_655
Ce3 O40 2.322026 1_545
Ce3 O49 2.364321 1_545
Ce3 O45 2.375492 1_555
Ce3 O7 2.383906 1_555
Ce3 O32 2.456218 1_545
Ce3 O13 2.458087 1_545
Ce3 O34 2.491888 1_555
Ce3 O9 2.504954 1_555
Ce3 O43 2.593050 1_545
O0 S0 1.521332 1_555
O1 S1 1.521332 1_555
O2 S0 1.449232 1_555
O3 S1 1.449232 1_555
O4 S0 1.502077 1_555
O5 S1 1.502077 1_555
O6 S0 1.496968 1_555
O7 S1 1.496968 1_555
O8 S2 1.500807 1_555
O9 S3 1.500807 1_555
O10 S2 1.462521 1_455
O11 S3 1.462521 1_565
O12 S2 1.504357 1_455
O13 S3 1.504357 1_565
O14 S2 1.504013 1_555
O15 S3 1.504013 1_555
O16 S4 1.493317 1_555
O17 S5 1.493317 1_555
O18 S4 1.508033 1_555
O19 S5 1.508033 1_555
O20 S4 1.509951 1_555
O21 S5 1.509951 1_555
O22 S4 1.463172 1_555
O23 S5 1.463172 1_555
O24 S6 1.456764 1_555
O25 S7 1.456764 1_555
O26 S6 1.509892 1_654
O27 S7 1.509892 1_546
O28 S6 1.541381 1_555
O29 S7 1.541381 1_555
O30 S6 1.458648 1_655
O31 S7 1.458648 1_545
O32 S8 1.520061 1_565
O33 S9 1.520061 1_455
O34 S8 1.545913 1_555
O35 S9 1.545913 1_555
O36 S8 1.467614 1_555
O37 S9 1.467614 1_555
O38 S8 1.454136 1_565
O39 S9 1.454136 1_455
O40 S10 1.499176 1_555
O41 S11 1.499176 1_555
O42 S10 1.500821 1_545
O43 S11 1.500821 1_655
O44 S10 1.503506 1_555
O45 S11 1.503506 1_555
O46 S10 1.449828 1_555
O47 S11 1.449828 1_555
