# generated using pymatgen
data_CsP2H3N
_symmetry_space_group_name_H-M   'P 1'
_cell_length_a   6.95606100
_cell_length_b   13.22020200
_cell_length_c   6.67377701
_cell_angle_alpha   90.00000000
_cell_angle_beta   106.19171772
_cell_angle_gamma   90.00000000
_symmetry_Int_Tables_number   1
_chemical_formula_structural   CsP2H3N
_chemical_formula_sum   'Cs4 P8 H12 N4'
_cell_volume   589.38010450
_cell_formula_units_Z   4
loop_
 _symmetry_equiv_pos_site_id
 _symmetry_equiv_pos_as_xyz
  1  'x, y, z'
loop_
 _atom_site_type_symbol
 _atom_site_label
 _atom_site_symmetry_multiplicity
 _atom_site_fract_x
 _atom_site_fract_y
 _atom_site_fract_z
 _atom_site_occupancy
  Cs  Cs0  1  0.76531300  0.62062000  0.31160300  1
  Cs  Cs1  1  0.23468700  0.12062000  0.18839700  1
  Cs  Cs2  1  0.23468700  0.37938000  0.68839700  1
  Cs  Cs3  1  0.76531300  0.87938000  0.81160300  1
  P  P0  1  0.20694600  0.52374800  0.14324300  1
  P  P1  1  0.79305400  0.02374800  0.35675700  1
  P  P2  1  0.79305400  0.47625200  0.85675700  1
  P  P3  1  0.20694600  0.97625200  0.64324300  1
  P  P4  1  0.99928300  0.89873300  0.38887000  1
  P  P5  1  0.00071700  0.39873300  0.11113000  1
  P  P6  1  0.00071700  0.10126700  0.61113000  1
  P  P7  1  0.99928300  0.60126700  0.88887000  1
  H  H0  1  0.32149400  0.76424800  0.14184300  1
  H  H1  1  0.67850600  0.26424800  0.35815700  1
  H  H2  1  0.67850600  0.23575200  0.85815700  1
  H  H3  1  0.32149400  0.73575200  0.64184300  1
  H  H4  1  0.35358400  0.85398300  0.98584100  1
  H  H5  1  0.64641600  0.35398300  0.51415900  1
  H  H6  1  0.64641600  0.14601700  0.01415900  1
  H  H7  1  0.35358400  0.64601700  0.48584100  1
  H  H8  1  0.48441800  0.85332300  0.23151100  1
  H  H9  1  0.51558200  0.35332300  0.26848900  1
  H  H10  1  0.51558200  0.14667700  0.76848900  1
  H  H11  1  0.48441800  0.64667700  0.73151100  1
  N  N0  1  0.42930200  0.80712200  0.10567600  1
  N  N1  1  0.57069800  0.30712200  0.39432400  1
  N  N2  1  0.57069800  0.19287800  0.89432400  1
  N  N3  1  0.42930200  0.69287800  0.60567600  1
loop_
_geom_bond_atom_site_label_1
_geom_bond_atom_site_label_2
_geom_bond_distance
_geom_bond_site_symmetry_2
Cs0 H7 3.394821 1_555
Cs0 N0 3.411665 1_555
Cs0 N3 3.575689 1_555
Cs0 P2 3.636081 1_554
Cs0 P7 3.637898 1_554
Cs0 P7 3.749607 1_555
Cs0 P0 3.776899 1_655
Cs0 P5 3.781266 1_655
Cs0 P0 3.943911 1_555
Cs0 P4 3.995603 1_555
Cs1 H6 3.394821 1_555
Cs1 N1 3.411665 1_555
Cs1 N2 3.575689 1_554
Cs1 P3 3.636081 1_545
Cs1 P6 3.637898 1_555
Cs1 P6 3.749607 1_554
Cs1 P1 3.776899 1_455
Cs1 P4 3.781266 1_445
Cs1 P1 3.943911 1_555
Cs1 P5 3.995603 1_555
Cs2 H5 3.394821 1_555
Cs2 N2 3.411665 1_555
Cs2 N1 3.575689 1_555
Cs2 P0 3.636081 1_556
Cs2 P5 3.637898 1_556
Cs2 P5 3.749607 1_555
Cs2 P2 3.776899 1_455
Cs2 P7 3.781266 1_455
Cs2 P2 3.943911 1_555
Cs2 P6 3.995603 1_555
Cs3 H4 3.394821 1_555
Cs3 N3 3.411665 1_555
Cs3 N0 3.575689 1_556
Cs3 P1 3.636081 1_565
Cs3 P4 3.637898 1_555
Cs3 P4 3.749607 1_556
Cs3 P3 3.776899 1_655
Cs3 P6 3.781266 1_665
Cs3 P3 3.943911 1_555
Cs3 P7 3.995603 1_555
P0 P7 2.156661 1_454
P0 P5 2.159600 1_555
P1 P6 2.156661 1_655
P1 P4 2.159600 1_545
P2 P5 2.156661 1_656
P2 P7 2.159600 1_555
P3 P4 2.156661 1_455
P3 P6 2.159600 1_565
H0 N0 1.021202 1_555
H1 N1 1.021202 1_555
H2 N2 1.021202 1_555
H3 N3 1.021202 1_555
H4 N0 1.032419 1_556
H5 N1 1.032419 1_555
H6 N2 1.032419 1_554
H7 N3 1.032419 1_555
H8 N0 1.022614 1_555
H9 N1 1.022614 1_555
H10 N2 1.022614 1_555
H11 N3 1.022614 1_555
