# generated using pymatgen
data_V2ZnO4
_symmetry_space_group_name_H-M   'P 1'
_cell_length_a   6.06836900
_cell_length_b   6.06836900
_cell_length_c   14.87783900
_cell_angle_alpha   90.00000000
_cell_angle_beta   90.00000000
_cell_angle_gamma   120.00001088
_symmetry_Int_Tables_number   1
_chemical_formula_structural   V2ZnO4
_chemical_formula_sum   'V12 Zn6 O24'
_cell_volume   474.47616490
_cell_formula_units_Z   6
loop_
 _symmetry_equiv_pos_site_id
 _symmetry_equiv_pos_as_xyz
  1  'x, y, z'
loop_
 _atom_site_type_symbol
 _atom_site_label
 _atom_site_symmetry_multiplicity
 _atom_site_fract_x
 _atom_site_fract_y
 _atom_site_fract_z
 _atom_site_occupancy
  V  V0  1  0.16472000  0.83528000  0.83342500  1
  V  V1  1  0.16472000  0.32944000  0.83342500  1
  V  V2  1  0.49885900  0.50114100  0.49993200  1
  V  V3  1  0.67056000  0.83528000  0.83342500  1
  V  V4  1  0.49885900  0.99771900  0.49993200  1
  V  V5  1  0.66666700  0.33333300  0.33456600  1
  V  V6  1  0.66666700  0.33333300  0.70935400  1
  V  V7  1  0.83265200  0.16734800  0.16739700  1
  V  V8  1  0.00228100  0.50114100  0.49993200  1
  V  V9  1  0.83265200  0.66530500  0.16739700  1
  V  V10  1  0.33469500  0.16734800  0.16739700  1
  V  V11  1  0.33333300  0.66666700  0.04207000  1
  Zn  Zn0  1  0.66666700  0.33333300  0.95446800  1
  Zn  Zn1  1  0.00000000  0.00000000  0.61976200  1
  Zn  Zn2  1  0.33333300  0.66666700  0.66514900  1
  Zn  Zn3  1  0.33333300  0.66666700  0.29306500  1
  Zn  Zn4  1  0.00000000  0.00000000  0.99920600  1
  Zn  Zn5  1  0.00000000  0.00000000  0.37648000  1
  O  O0  1  0.84482900  0.15517100  0.91075000  1
  O  O1  1  0.00000000  0.00000000  0.75967200  1
  O  O2  1  0.84482900  0.68965800  0.91075000  1
  O  O3  1  0.31034200  0.15517100  0.91075000  1
  O  O4  1  0.17770300  0.82229700  0.57490900  1
  O  O5  1  0.01646000  0.50823000  0.75559500  1
  O  O6  1  0.33333300  0.66666700  0.42577500  1
  O  O7  1  0.49177000  0.98354000  0.75559500  1
  O  O8  1  0.33333300  0.66666700  0.90816000  1
  O  O9  1  0.17770300  0.35540600  0.57490900  1
  O  O10  1  0.64459400  0.82229700  0.57490900  1
  O  O11  1  0.49177000  0.50823000  0.75559500  1
  O  O12  1  0.51500700  0.48499300  0.24794300  1
  O  O13  1  0.36035100  0.18017600  0.42139000  1
  O  O14  1  0.81982400  0.63964900  0.42139000  1
  O  O15  1  0.66666700  0.33333300  0.09479900  1
  O  O16  1  0.66666700  0.33333300  0.57801300  1
  O  O17  1  0.51500700  0.03001500  0.24794300  1
  O  O18  1  0.96998500  0.48499300  0.24794300  1
  O  O19  1  0.81982400  0.18017600  0.42139000  1
  O  O20  1  0.67906600  0.83953300  0.08986800  1
  O  O21  1  0.16046700  0.32093400  0.08986800  1
  O  O22  1  0.00000000  0.00000000  0.23829900  1
  O  O23  1  0.16046700  0.83953300  0.08986800  1
loop_
_geom_bond_atom_site_label_1
_geom_bond_atom_site_label_2
_geom_bond_distance
_geom_bond_site_symmetry_2
O0 Zn0 1.982355 1_555
O0 V1 2.038942 1_655
O0 V3 2.038942 1_545
O0 Zn4 2.095704 1_655
O1 V3 2.049762 1_445
O1 V1 2.049762 1_555
O1 V0 2.049762 1_545
O1 Zn1 2.081558 1_555
O2 Zn0 1.982360 1_555
O2 V0 2.038942 1_655
O2 V3 2.038942 1_555
O2 Zn4 2.095704 1_665
O3 Zn0 1.982360 1_555
O3 V0 2.038942 1_545
O3 V1 2.038942 1_555
O3 Zn4 2.095704 1_555
O4 Zn1 1.983416 1_565
O4 V4 2.025113 1_555
O4 V8 2.025113 1_555
O4 Zn2 2.116199 1_555
O5 V6 1.962805 1_455
O5 V0 2.074504 1_555
O5 V1 2.074504 1_555
O5 Zn2 2.141008 1_555
O6 Zn3 1.974438 1_555
O6 V4 2.060136 1_555
O6 V8 2.060136 1_555
O6 V2 2.060136 1_555
O7 V6 1.962805 1_565
O7 V0 2.074504 1_555
O7 V3 2.074504 1_555
O7 Zn2 2.141008 1_555
O8 V11 1.992291 1_556
O8 V0 2.092167 1_555
O8 V3 2.092171 1_555
O8 V1 2.092171 1_555
O9 Zn1 1.983416 1_555
O9 V2 2.025113 1_555
O9 V8 2.025117 1_555
O9 Zn2 2.116203 1_555
O10 Zn1 1.983416 1_665
O10 V2 2.025113 1_555
O10 V4 2.025117 1_555
O10 Zn2 2.116203 1_555
O11 V6 1.962810 1_555
O11 V1 2.074504 1_555
O11 V3 2.074504 1_555
O11 Zn2 2.141012 1_555
O12 Zn3 2.024093 1_555
O12 V5 2.049860 1_555
O12 V9 2.059064 1_555
O12 V10 2.059064 1_555
O13 Zn5 2.008190 1_555
O13 V2 2.056333 1_555
O13 V4 2.056334 1_545
O13 V5 2.063998 1_555
O14 Zn5 2.008190 1_665
O14 V2 2.056333 1_555
O14 V8 2.056334 1_655
O14 V5 2.063998 1_555
O15 V7 2.051908 1_555
O15 V9 2.051917 1_555
O15 V10 2.051917 1_555
O15 Zn0 2.087822 1_554
O16 V6 1.954070 1_555
O16 V8 2.111963 1_655
O16 V4 2.111963 1_545
O16 V2 2.111972 1_555
O17 Zn3 2.024093 1_545
O17 V5 2.049852 1_555
O17 V7 2.059064 1_555
O17 V10 2.059064 1_555
O18 Zn3 2.024093 1_655
O18 V5 2.049852 1_555
O18 V7 2.059064 1_555
O18 V9 2.059064 1_555
O19 Zn5 2.008195 1_655
O19 V8 2.056333 1_655
O19 V4 2.056333 1_545
O19 V5 2.063990 1_555
O20 V11 1.951159 1_555
O20 V9 2.074217 1_555
O20 V7 2.074221 1_565
O20 Zn4 2.159655 1_664
O21 V11 1.951159 1_555
O21 V10 2.074217 1_555
O21 V7 2.074221 1_455
O21 Zn4 2.159655 1_554
O22 V9 2.051007 1_445
O22 V10 2.051007 1_555
O22 V7 2.051011 1_455
O22 Zn5 2.055835 1_555
O23 V11 1.951154 1_555
O23 V9 2.074221 1_455
O23 V10 2.074221 1_565
O23 Zn4 2.159655 1_564
