# generated using pymatgen
data_Li7Fe3O10
_symmetry_space_group_name_H-M   'P 1'
_cell_length_a   5.07889500
_cell_length_b   5.09933438
_cell_length_c   7.91125280
_cell_angle_alpha   103.55852254
_cell_angle_beta   106.17603244
_cell_angle_gamma   101.53155925
_symmetry_Int_Tables_number   1
_chemical_formula_structural   Li7Fe3O10
_chemical_formula_sum   'Li7 Fe3 O10'
_cell_volume   183.41688391
_cell_formula_units_Z   1
loop_
 _symmetry_equiv_pos_site_id
 _symmetry_equiv_pos_as_xyz
  1  'x, y, z'
loop_
 _atom_site_type_symbol
 _atom_site_label
 _atom_site_symmetry_multiplicity
 _atom_site_fract_x
 _atom_site_fract_y
 _atom_site_fract_z
 _atom_site_occupancy
  Li  Li0  1  0.59225100  0.00026000  0.68096700  1
  Li  Li1  1  0.20333900  0.49420500  0.41035100  1
  Li  Li2  1  0.39161700  0.51191900  0.77350600  1
  Li  Li3  1  0.00000000  0.00000000  0.50000000  1
  Li  Li4  1  0.60838300  0.48808100  0.22649400  1
  Li  Li5  1  0.79666100  0.50579500  0.58964900  1
  Li  Li6  1  0.40774900  0.99974000  0.31903300  1
  Fe  Fe0  1  0.00000000  0.50000000  0.00000000  1
  Fe  Fe1  1  0.20293300  0.00573300  0.88952800  1
  Fe  Fe2  1  0.79706700  0.99426700  0.11047200  1
  O  O0  1  0.81571300  0.75498300  0.87878600  1
  O  O1  1  0.62697900  0.23073800  0.96622600  1
  O  O2  1  0.41348300  0.27064400  0.54649100  1
  O  O3  1  0.97427500  0.75074100  0.22505000  1
  O  O4  1  0.19472800  0.78311000  0.67104500  1
  O  O5  1  0.80527200  0.21689000  0.32895500  1
  O  O6  1  0.02572500  0.24925900  0.77495000  1
  O  O7  1  0.58651700  0.72935600  0.45350900  1
  O  O8  1  0.37302100  0.76926200  0.03377400  1
  O  O9  1  0.18428700  0.24501700  0.12121400  1
loop_
_geom_bond_atom_site_label_1
_geom_bond_atom_site_label_2
_geom_bond_distance
_geom_bond_site_symmetry_2
Li0 O7 1.984055 1_545
Li0 O4 2.070190 1_545
Li0 O2 2.123040 1_555
Li0 O6 2.130632 1_655
Li0 O1 2.226448 1_555
Li0 O0 2.407772 1_545
Li1 O7 1.961281 1_555
Li1 O2 2.005106 1_555
Li1 O5 2.050956 1_455
Li1 O4 2.253273 1_555
Li1 O9 2.306740 1_555
Li1 O3 2.402335 1_455
Li2 O2 1.970100 1_555
Li2 O4 2.048479 1_555
Li2 O6 2.066720 1_555
Li2 O0 2.078080 1_555
Li2 O8 2.204915 1_556
Li2 O1 2.550334 1_555
Li3 O4 2.103766 1_545
Li3 O5 2.103766 1_455
Li3 O2 2.150112 1_555
Li3 O7 2.150112 1_445
Li3 O3 2.200692 1_445
Li3 O6 2.200692 1_555
Li4 O7 1.970100 1_555
Li4 O5 2.048479 1_555
Li4 O3 2.066720 1_555
Li4 O9 2.078080 1_555
Li4 O1 2.204915 1_554
Li4 O8 2.550334 1_555
Li5 O2 1.961281 1_555
Li5 O7 2.005106 1_555
Li5 O4 2.050956 1_655
Li5 O5 2.253273 1_555
Li5 O0 2.306740 1_555
Li5 O6 2.402335 1_655
Li6 O2 1.984055 1_565
Li6 O5 2.070190 1_565
Li6 O7 2.123040 1_555
Li6 O3 2.130632 1_455
Li6 O8 2.226448 1_555
Li6 O9 2.407772 1_565
Fe0 O6 1.987676 1_554
Fe0 O3 1.987676 1_455
Fe0 O1 2.012916 1_454
Fe0 O8 2.012916 1_555
Fe0 O9 2.014294 1_555
Fe0 O0 2.014294 1_454
Fe1 O4 1.816321 1_545
Fe1 O6 1.921954 1_555
Fe1 O9 1.987892 1_556
Fe1 O8 2.003744 1_546
Fe1 O1 2.068930 1_555
Fe1 O0 2.088163 1_445
Fe2 O5 1.816321 1_565
Fe2 O3 1.921954 1_555
Fe2 O0 1.987892 1_554
Fe2 O1 2.003744 1_564
Fe2 O8 2.068930 1_555
Fe2 O9 2.088163 1_665
