# generated using pymatgen
data_V4Ge13O36
_symmetry_space_group_name_H-M   'P 1'
_cell_length_a   2.89685600
_cell_length_b   4.51743590
_cell_length_c   40.73221234
_cell_angle_alpha   90.35494847
_cell_angle_beta   90.00000000
_cell_angle_gamma   90.00000000
_symmetry_Int_Tables_number   1
_chemical_formula_structural   V4Ge13O36
_chemical_formula_sum   'V4 Ge13 O36'
_cell_volume   533.02621859
_cell_formula_units_Z   1
loop_
 _symmetry_equiv_pos_site_id
 _symmetry_equiv_pos_as_xyz
  1  'x, y, z'
loop_
 _atom_site_type_symbol
 _atom_site_label
 _atom_site_symmetry_multiplicity
 _atom_site_fract_x
 _atom_site_fract_y
 _atom_site_fract_z
 _atom_site_occupancy
  V  V0  1  0.00000000  0.01435200  0.00120500  1
  V  V1  1  0.00000000  0.98564800  0.22101700  1
  V  V2  1  0.50000000  0.47318100  0.06354800  1
  V  V3  1  0.50000000  0.52681900  0.15867500  1
  Ge  Ge0  1  0.00000000  0.99763100  0.33391100  1
  Ge  Ge1  1  0.00000000  0.00007900  0.44455500  1
  Ge  Ge2  1  0.00000000  0.00008500  0.55557400  1
  Ge  Ge3  1  0.00000000  0.99991500  0.66664900  1
  Ge  Ge4  1  0.00000000  0.99992100  0.77766700  1
  Ge  Ge5  1  0.00000000  0.00236900  0.88831100  1
  Ge  Ge6  1  0.50000000  0.49253100  0.27905000  1
  Ge  Ge7  1  0.50000000  0.49992600  0.38916600  1
  Ge  Ge8  1  0.50000000  0.50000000  0.61111100  1
  Ge  Ge9  1  0.50000000  0.50008600  0.50004000  1
  Ge  Ge10  1  0.50000000  0.49991400  0.72218200  1
  Ge  Ge11  1  0.50000000  0.50007400  0.83305600  1
  Ge  Ge12  1  0.50000000  0.50746900  0.94317200  1
  O  O0  1  0.00000000  0.29420300  0.03212300  1
  O  O1  1  0.00000000  0.68290800  0.07611500  1
  O  O2  1  0.00000000  0.31709200  0.14610700  1
  O  O3  1  0.00000000  0.70579700  0.19009900  1
  O  O4  1  0.00000000  0.30470800  0.25731600  1
  O  O5  1  0.00000000  0.30857700  0.36774100  1
  O  O6  1  0.00000000  0.69217400  0.41047000  1
  O  O7  1  0.00000000  0.30802500  0.47870400  1
  O  O8  1  0.00000000  0.69208800  0.52137800  1
  O  O9  1  0.00000000  0.30789100  0.58977700  1
  O  O10  1  0.00000000  0.69210900  0.63244500  1
  O  O11  1  0.00000000  0.30791200  0.70084400  1
  O  O12  1  0.00000000  0.69197500  0.74351800  1
  O  O13  1  0.00000000  0.30782600  0.81175200  1
  O  O14  1  0.00000000  0.69142300  0.85448300  1
  O  O15  1  0.00000000  0.30910000  0.92207400  1
  O  O16  1  0.50000000  0.18315500  0.20352400  1
  O  O17  1  0.50000000  0.19584200  0.08783100  1
  O  O18  1  0.50000000  0.19022400  0.31268100  1
  O  O19  1  0.50000000  0.81684500  0.01869800  1
  O  O20  1  0.50000000  0.19205700  0.42323000  1
  O  O21  1  0.50000000  0.80415800  0.13439100  1
  O  O22  1  0.50000000  0.19197700  0.53424700  1
  O  O23  1  0.50000000  0.79897200  0.24542900  1
  O  O24  1  0.50000000  0.19177500  0.75635600  1
  O  O25  1  0.50000000  0.80848200  0.35529000  1
  O  O26  1  0.50000000  0.80822500  0.46586700  1
  O  O27  1  0.50000000  0.19199300  0.64533400  1
  O  O28  1  0.50000000  0.19151800  0.86693300  1
  O  O29  1  0.50000000  0.80800700  0.57688800  1
  O  O30  1  0.50000000  0.20102800  0.97679300  1
  O  O31  1  0.50000000  0.80802300  0.68797500  1
  O  O32  1  0.50000000  0.80977600  0.90954100  1
  O  O33  1  0.50000000  0.80794300  0.79899200  1
  O  O34  1  0.00000000  0.69090000  0.30014800  1
  O  O35  1  0.00000000  0.69529200  0.96490700  1
loop_
_geom_bond_atom_site_label_1
_geom_bond_atom_site_label_2
_geom_bond_distance
_geom_bond_site_symmetry_2
Ge0 O25 1.896206 1_455
Ge0 O25 1.896206 1_555
Ge0 O18 1.900525 1_465
Ge0 O18 1.900525 1_565
Ge0 O34 1.946194 1_555
Ge0 O5 1.961618 1_565
Ge1 O26 1.900522 1_445
Ge1 O26 1.900522 1_545
Ge1 O20 1.901023 1_455
Ge1 O20 1.901023 1_555
Ge1 O6 1.959165 1_545
Ge1 O7 1.961132 1_555
Ge2 O22 1.900882 1_455
Ge2 O22 1.900882 1_555
Ge2 O29 1.901024 1_445
Ge2 O29 1.901024 1_545
Ge2 O9 1.962238 1_555
Ge2 O8 1.962644 1_545
Ge3 O31 1.900863 1_455
Ge3 O31 1.900863 1_555
Ge3 O27 1.901043 1_565
Ge3 O27 1.901043 1_465
Ge3 O10 1.962267 1_555
Ge3 O11 1.962616 1_565
Ge4 O24 1.900504 1_565
Ge4 O24 1.900504 1_465
Ge4 O33 1.901023 1_455
Ge4 O33 1.901023 1_555
Ge4 O13 1.959165 1_565
Ge4 O12 1.961132 1_555
Ge5 O28 1.896187 1_455
Ge5 O28 1.896187 1_555
Ge5 O32 1.900525 1_445
Ge5 O32 1.900525 1_545
Ge5 O15 1.946194 1_555
Ge5 O14 1.961561 1_545
Ge6 O4 1.895327 1_555
Ge6 O4 1.895327 1_655
Ge6 O34 1.905242 1_555
Ge6 O34 1.905242 1_655
Ge6 O18 1.940287 1_555
Ge6 O23 1.953271 1_555
Ge7 O6 1.896272 1_655
Ge7 O6 1.896272 1_555
Ge7 O5 1.896676 1_655
Ge7 O5 1.896676 1_555
Ge7 O25 1.967411 1_555
Ge7 O20 1.970618 1_555
Ge8 O10 1.896543 1_555
Ge8 O10 1.896543 1_655
Ge8 O9 1.896543 1_655
Ge8 O9 1.896543 1_555
Ge8 O29 1.975653 1_555
Ge8 O27 1.975653 1_555
Ge9 O8 1.896397 1_555
Ge9 O8 1.896397 1_655
Ge9 O7 1.896481 1_555
Ge9 O7 1.896481 1_655
Ge9 O26 1.974631 1_555
Ge9 O22 1.975517 1_555
Ge10 O11 1.896397 1_655
Ge10 O11 1.896397 1_555
Ge10 O12 1.896481 1_655
Ge10 O12 1.896481 1_555
Ge10 O24 1.974660 1_555
Ge10 O31 1.975517 1_555
Ge11 O13 1.896272 1_555
Ge11 O13 1.896272 1_655
Ge11 O14 1.896713 1_655
Ge11 O14 1.896713 1_555
Ge11 O28 1.967440 1_555
Ge11 O33 1.970618 1_555
Ge12 O35 1.895345 1_655
Ge12 O35 1.895345 1_555
Ge12 O15 1.905242 1_655
Ge12 O15 1.905242 1_555
Ge12 O32 1.940287 1_555
Ge12 O30 1.953271 1_555
O0 V0 1.778899 1_555
O0 V2 2.092189 1_555
O0 V2 2.092189 1_455
O1 V2 1.803213 1_555
O1 V2 1.803213 1_455
O2 V3 1.803225 1_455
O2 V3 1.803225 1_555
O3 V1 1.778899 1_555
O3 V3 2.092164 1_455
O3 V3 2.092164 1_555
O4 V1 2.058425 1_545
O16 V1 1.846506 1_545
O16 V1 1.846506 1_645
O16 V3 2.404689 1_555
O17 V2 1.601042 1_555
O19 V0 1.846506 1_665
O19 V0 1.846506 1_565
O19 V2 2.404720 1_555
O21 V3 1.601067 1_555
O23 V1 1.951467 1_555
O23 V1 1.951467 1_655
O30 V0 1.951467 1_656
O30 V0 1.951467 1_556
O35 V0 2.058396 1_566
