# generated using pymatgen
data_CrP3H16C3NO12
_symmetry_space_group_name_H-M   'P 1'
_cell_length_a   9.41961600
_cell_length_b   16.41241200
_cell_length_c   10.02562079
_cell_angle_alpha   90.00000000
_cell_angle_beta   116.61807119
_cell_angle_gamma   90.00000000
_symmetry_Int_Tables_number   1
_chemical_formula_structural   CrP3H16C3NO12
_chemical_formula_sum   'Cr4 P12 H64 C12 N4 O48'
_cell_volume   1385.67283012
_cell_formula_units_Z   4
loop_
 _symmetry_equiv_pos_site_id
 _symmetry_equiv_pos_as_xyz
  1  'x, y, z'
loop_
 _atom_site_type_symbol
 _atom_site_label
 _atom_site_symmetry_multiplicity
 _atom_site_fract_x
 _atom_site_fract_y
 _atom_site_fract_z
 _atom_site_occupancy
  Cr  Cr0  1  0.03386900  0.29087900  0.16477600  1
  Cr  Cr1  1  0.96613100  0.79087900  0.33522400  1
  Cr  Cr2  1  0.96613100  0.70912100  0.83522400  1
  Cr  Cr3  1  0.03386900  0.20912100  0.66477600  1
  P  P0  1  0.04012300  0.12192700  0.37660100  1
  P  P1  1  0.95987700  0.62192700  0.12339900  1
  P  P2  1  0.95987700  0.87807300  0.62339900  1
  P  P3  1  0.04012300  0.37807300  0.87660100  1
  P  P4  1  0.66893900  0.21723700  0.99354200  1
  P  P5  1  0.33106100  0.71723700  0.50645800  1
  P  P6  1  0.33106100  0.78276300  0.00645800  1
  P  P7  1  0.66893900  0.28276300  0.49354200  1
  P  P8  1  0.44865600  0.03584200  0.21932600  1
  P  P9  1  0.55134400  0.53584200  0.28067400  1
  P  P10  1  0.55134400  0.96415800  0.78067400  1
  P  P11  1  0.44865600  0.46415800  0.71932600  1
  H  H0  1  0.90636700  0.07485400  0.12198200  1
  H  H1  1  0.09363300  0.57485400  0.37801800  1
  H  H2  1  0.09363300  0.92514600  0.87801800  1
  H  H3  1  0.90636700  0.42514600  0.62198200  1
  H  H4  1  0.90954300  0.99885700  0.25004000  1
  H  H5  1  0.09045700  0.49885700  0.24996000  1
  H  H6  1  0.09045700  0.00114300  0.74996000  1
  H  H7  1  0.90954300  0.50114300  0.75004000  1
  H  H8  1  0.55184300  0.17499100  0.14988200  1
  H  H9  1  0.44815700  0.67499100  0.35011800  1
  H  H10  1  0.44815700  0.82500900  0.85011800  1
  H  H11  1  0.55184300  0.32500900  0.64988200  1
  H  H12  1  0.75358000  0.20131800  0.26308400  1
  H  H13  1  0.24642000  0.70131800  0.23691600  1
  H  H14  1  0.24642000  0.79868200  0.73691600  1
  H  H15  1  0.75358000  0.29868200  0.76308400  1
  H  H16  1  0.70907200  0.97599900  0.29824000  1
  H  H17  1  0.29092800  0.47599900  0.20176000  1
  H  H18  1  0.29092800  0.02400100  0.70176000  1
  H  H19  1  0.70907200  0.52400100  0.79824000  1
  H  H20  1  0.72766000  0.06878000  0.39494200  1
  H  H21  1  0.27234000  0.56878000  0.10505800  1
  H  H22  1  0.27234000  0.93122000  0.60505800  1
  H  H23  1  0.72766000  0.43122000  0.89494200  1
  H  H24  1  0.28383000  0.17728200  0.16717800  1
  H  H25  1  0.71617000  0.67728200  0.33282200  1
  H  H26  1  0.71617000  0.82271800  0.83282200  1
  H  H27  1  0.28383000  0.32271800  0.66717800  1
  H  H28  1  0.20566600  0.22474700  0.00954100  1
  H  H29  1  0.79433400  0.72474700  0.49045900  1
  H  H30  1  0.79433400  0.77525300  0.99045900  1
  H  H31  1  0.20566600  0.27525300  0.50954100  1
  H  H32  1  0.35240200  0.33414200  0.32811000  1
  H  H33  1  0.64759800  0.83414200  0.17189000  1
  H  H34  1  0.64759800  0.66585800  0.67189000  1
  H  H35  1  0.35240200  0.16585800  0.82811000  1
  H  H36  1  0.90087800  0.34323100  0.36795700  1
  H  H37  1  0.09912200  0.84323100  0.13204300  1
  H  H38  1  0.09912200  0.65676900  0.63204300  1
  H  H39  1  0.90087800  0.15676900  0.86795700  1
  H  H40  1  0.27451600  0.38888800  0.40825700  1
  H  H41  1  0.72548400  0.88888800  0.09174300  1
  H  H42  1  0.72548400  0.61111200  0.59174300  1
  H  H43  1  0.27451600  0.11111200  0.90825700  1
  H  H44  1  0.81794400  0.40115400  0.23179600  1
  H  H45  1  0.18205600  0.90115400  0.26820400  1
  H  H46  1  0.18205600  0.59884600  0.76820400  1
  H  H47  1  0.81794400  0.09884600  0.73179600  1
  H  H48  1  0.26374900  0.08407800  0.36878500  1
  H  H49  1  0.73625100  0.58407800  0.13121500  1
  H  H50  1  0.73625100  0.91592200  0.63121500  1
  H  H51  1  0.26374900  0.41592200  0.86878500  1
  H  H52  1  0.52595600  0.33560500  0.92283600  1
  H  H53  1  0.47404400  0.83560500  0.57716400  1
  H  H54  1  0.47404400  0.66439500  0.07716400  1
  H  H55  1  0.52595600  0.16439500  0.42283600  1
  H  H56  1  0.65398300  0.04962100  0.07624400  1
  H  H57  1  0.34601700  0.54962100  0.42375600  1
  H  H58  1  0.34601700  0.95037900  0.92375600  1
  H  H59  1  0.65398300  0.45037900  0.57624400  1
  H  H60  1  0.43141900  0.90221700  0.23056200  1
  H  H61  1  0.56858100  0.40221700  0.26943800  1
  H  H62  1  0.56858100  0.09778300  0.76943800  1
  H  H63  1  0.43141900  0.59778300  0.73056200  1
  C  C0  1  0.88873800  0.06368100  0.22141800  1
  C  C1  1  0.11126200  0.56368100  0.27858200  1
  C  C2  1  0.11126200  0.93631900  0.77858200  1
  C  C3  1  0.88873800  0.43631900  0.72141800  1
  C  C4  1  0.67268700  0.16927500  0.16096400  1
  C  C5  1  0.32731300  0.66927500  0.33903600  1
  C  C6  1  0.32731300  0.83072500  0.83903600  1
  C  C7  1  0.67268700  0.33072500  0.66096400  1
  C  C8  1  0.66610700  0.03900300  0.28599400  1
  C  C9  1  0.33389300  0.53900300  0.21400600  1
  C  C10  1  0.33389300  0.96099700  0.71400600  1
  C  C11  1  0.66610700  0.46099700  0.78599400  1
  N  N0  1  0.71561800  0.08026700  0.17896500  1
  N  N1  1  0.28438200  0.58026700  0.32103500  1
  N  N2  1  0.28438200  0.91973300  0.82103500  1
  N  N3  1  0.71561800  0.41973300  0.67896500  1
  O  O0  1  0.06097900  0.20587500  0.32576600  1
  O  O1  1  0.93902100  0.70587500  0.17423400  1
  O  O2  1  0.93902100  0.79412500  0.67423400  1
  O  O3  1  0.06097900  0.29412500  0.82576600  1
  O  O4  1  0.24947300  0.34799100  0.32825700  1
  O  O5  1  0.75052700  0.84799100  0.17174300  1
  O  O6  1  0.75052700  0.65200900  0.67174300  1
  O  O7  1  0.24947300  0.15200900  0.82825700  1
  O  O8  1  0.21766700  0.22409600  0.11154100  1
  O  O9  1  0.78233300  0.72409600  0.38845900  1
  O  O10  1  0.78233300  0.77590400  0.88845900  1
  O  O11  1  0.21766700  0.27590400  0.61154100  1
  O  O12  1  0.91955800  0.37485600  0.29386200  1
  O  O13  1  0.08044200  0.87485600  0.20613800  1
  O  O14  1  0.08044200  0.62514400  0.70613800  1
  O  O15  1  0.91955800  0.12514400  0.79386200  1
  O  O16  1  0.99966700  0.38072200  0.00690400  1
  O  O17  1  0.00033300  0.88072200  0.49309600  1
  O  O18  1  0.00033300  0.61927800  0.99309600  1
  O  O19  1  0.99966700  0.11927800  0.50690400  1
  O  O20  1  0.83646500  0.22096400  0.00610500  1
  O  O21  1  0.16353500  0.72096400  0.49389500  1
  O  O22  1  0.16353500  0.77903600  0.99389500  1
  O  O23  1  0.83646500  0.27903600  0.50610500  1
  O  O24  1  0.41960800  0.95314600  0.28428200  1
  O  O25  1  0.58039200  0.45314600  0.21571800  1
  O  O26  1  0.58039200  0.04685400  0.71571800  1
  O  O27  1  0.41960800  0.54685400  0.78428200  1
  O  O28  1  0.37118600  0.03665200  0.04979000  1
  O  O29  1  0.62881400  0.53665200  0.45021000  1
  O  O30  1  0.62881400  0.96334800  0.95021000  1
  O  O31  1  0.37118600  0.46334800  0.54979000  1
  O  O32  1  0.40063300  0.10478000  0.29463200  1
  O  O33  1  0.59936700  0.60478000  0.20536800  1
  O  O34  1  0.59936700  0.89522000  0.70536800  1
  O  O35  1  0.40063300  0.39522000  0.79463200  1
  O  O36  1  0.19253700  0.06698100  0.41362400  1
  O  O37  1  0.80746300  0.56698100  0.08637600  1
  O  O38  1  0.80746300  0.93301900  0.58637600  1
  O  O39  1  0.19253700  0.43301900  0.91362400  1
  O  O40  1  0.60968300  0.30478800  0.01088900  1
  O  O41  1  0.39031700  0.80478800  0.48911100  1
  O  O42  1  0.39031700  0.69521200  0.98911100  1
  O  O43  1  0.60968300  0.19521200  0.51088900  1
  O  O44  1  0.54909300  0.17146500  0.85800900  1
  O  O45  1  0.45090700  0.67146500  0.64199100  1
  O  O46  1  0.45090700  0.82853500  0.14199100  1
  O  O47  1  0.54909300  0.32853500  0.35800900  1
loop_
_geom_bond_atom_site_label_1
_geom_bond_atom_site_label_2
_geom_bond_distance
_geom_bond_site_symmetry_2
Cr0 O0 2.060901 1_555
Cr0 O16 2.079971 1_455
Cr0 O20 2.157378 1_455
Cr0 O4 2.169509 1_555
Cr0 O8 2.304700 1_555
Cr0 O12 2.445938 1_455
Cr1 O1 2.060901 1_555
Cr1 O17 2.079971 1_655
Cr1 O21 2.157378 1_655
Cr1 O5 2.169509 1_555
Cr1 O9 2.304700 1_555
Cr1 O13 2.445938 1_655
Cr2 O2 2.060901 1_555
Cr2 O18 2.079971 1_655
Cr2 O22 2.157378 1_655
Cr2 O6 2.169509 1_555
Cr2 O10 2.304700 1_555
Cr2 O14 2.445938 1_655
Cr3 O3 2.060901 1_555
Cr3 O19 2.079971 1_455
Cr3 O23 2.157378 1_455
Cr3 O7 2.169509 1_555
Cr3 O11 2.304700 1_555
Cr3 O15 2.445938 1_455
H24 O8 0.989128 1_555
H25 O9 0.989128 1_555
H26 O10 0.989128 1_555
H27 O11 0.989128 1_555
H28 O8 0.977263 1_555
H29 O9 0.977263 1_555
H30 O10 0.977263 1_555
H31 O11 0.977263 1_555
H32 O4 0.996482 1_555
H33 O5 0.996482 1_555
H34 O6 0.996482 1_555
H35 O7 0.996482 1_555
H36 O12 0.984539 1_555
H37 O13 0.984539 1_555
H38 O14 0.984539 1_555
H39 O15 0.984539 1_555
H40 O4 0.989912 1_555
H41 O5 0.989912 1_555
H42 O6 0.989912 1_555
H43 O7 0.989912 1_555
H44 O12 0.977726 1_555
H45 O13 0.977726 1_555
H46 O14 0.977726 1_555
H47 O15 0.977726 1_555
H48 O36 1.000496 1_555
H49 O37 1.000496 1_555
H50 O38 1.000496 1_555
H51 O39 1.000496 1_555
H52 O40 1.016491 1_556
H52 O35 1.625823 1_555
H53 O41 1.016491 1_555
H53 O34 1.625823 1_555
H54 O42 1.016491 1_554
H54 O33 1.625823 1_555
H55 O43 1.016491 1_555
H55 O32 1.625823 1_555
H56 N0 1.055868 1_555
H57 N1 1.055868 1_555
H58 N2 1.055868 1_555
H59 N3 1.055868 1_555
H60 O24 1.027039 1_555
H60 O46 1.559063 1_555
H61 O25 1.027039 1_555
H61 O47 1.559063 1_555
H62 O26 1.027039 1_555
H62 O44 1.559063 1_555
H63 O27 1.027039 1_555
H63 O45 1.559063 1_555
C0 H4 1.096485 1_545
C0 H0 1.096982 1_555
C0 N0 1.514125 1_555
C0 P0 1.838428 1_655
C1 H5 1.096485 1_555
C1 H1 1.096982 1_555
C1 N1 1.514125 1_555
C1 P1 1.838428 1_455
C2 H6 1.096485 1_565
C2 H2 1.096982 1_555
C2 N2 1.514125 1_555
C2 P2 1.838428 1_455
C3 H7 1.096485 1_555
C3 H3 1.096982 1_555
C3 N3 1.514125 1_555
C3 P3 1.838428 1_655
C4 H8 1.097066 1_555
C4 H12 1.098330 1_555
C4 N0 1.504908 1_555
C4 P4 1.839886 1_554
C5 H9 1.097066 1_555
C5 H13 1.098330 1_555
C5 N1 1.504908 1_555
C5 P5 1.839886 1_555
C6 H10 1.097066 1_555
C6 H14 1.098330 1_555
C6 N2 1.504908 1_555
C6 P6 1.839886 1_556
C7 H11 1.097066 1_555
C7 H15 1.098330 1_555
C7 N3 1.504908 1_555
C7 P7 1.839886 1_555
C8 H20 1.095709 1_555
C8 H16 1.097085 1_545
C8 N0 1.508639 1_555
C8 P8 1.848836 1_555
C9 H21 1.095709 1_555
C9 H17 1.097085 1_555
C9 N1 1.508639 1_555
C9 P9 1.848836 1_555
C10 H22 1.095709 1_555
C10 H18 1.097085 1_565
C10 N2 1.508639 1_555
C10 P10 1.848836 1_555
C11 H23 1.095709 1_555
C11 H19 1.097085 1_555
C11 N3 1.508639 1_555
C11 P11 1.848836 1_555
O0 P0 1.512072 1_555
O1 P1 1.512072 1_555
O2 P2 1.512072 1_555
O3 P3 1.512072 1_555
O16 P3 1.516512 1_654
O17 P2 1.516512 1_455
O18 P1 1.516512 1_456
O19 P0 1.516512 1_655
O20 P4 1.526985 1_554
O21 P5 1.526985 1_555
O22 P6 1.526985 1_556
O23 P7 1.526985 1_555
O24 P8 1.581371 1_565
O25 P9 1.581371 1_555
O26 P10 1.581371 1_545
O27 P11 1.581371 1_555
O28 P8 1.519948 1_555
O29 P9 1.519948 1_555
O30 P10 1.519948 1_555
O31 P11 1.519948 1_555
O32 P8 1.536498 1_555
O33 P9 1.536498 1_555
O34 P10 1.536498 1_555
O35 P11 1.536498 1_555
O36 P0 1.592066 1_555
O37 P1 1.592066 1_555
O38 P2 1.592066 1_555
O39 P3 1.592066 1_555
O40 P4 1.579092 1_554
O41 P5 1.579092 1_555
O42 P6 1.579092 1_556
O43 P7 1.579092 1_555
O44 P4 1.520053 1_555
O45 P5 1.520053 1_555
O46 P6 1.520053 1_555
O47 P7 1.520053 1_555
