# generated using pymatgen
data_Sm4(ErS2)11
_symmetry_space_group_name_H-M   'P 1'
_cell_length_a   19.57386689
_cell_length_b   19.57386689
_cell_length_c   11.31452099
_cell_angle_alpha   88.74974161
_cell_angle_beta   88.74974161
_cell_angle_gamma   11.50264905
_symmetry_Int_Tables_number   1
_chemical_formula_structural   Sm4(ErS2)11
_chemical_formula_sum   'Sm4 Er11 S22'
_cell_volume   864.24916876
_cell_formula_units_Z   1
loop_
 _symmetry_equiv_pos_site_id
 _symmetry_equiv_pos_as_xyz
  1  'x, y, z'
loop_
 _atom_site_type_symbol
 _atom_site_label
 _atom_site_symmetry_multiplicity
 _atom_site_fract_x
 _atom_site_fract_y
 _atom_site_fract_z
 _atom_site_occupancy
  Sm  Sm0  1  0.10428100  0.10428100  0.98800300  1
  Sm  Sm1  1  0.89571900  0.89571900  0.01199700  1
  Sm  Sm2  1  0.36714400  0.36714400  0.65380600  1
  Sm  Sm3  1  0.63285600  0.63285600  0.34619400  1
  Er  Er0  1  0.79825400  0.79825400  0.94228200  1
  Er  Er1  1  0.20174600  0.20174600  0.05771800  1
  Er  Er2  1  0.46168700  0.46168700  0.72796900  1
  Er  Er3  1  0.53831300  0.53831300  0.27203100  1
  Er  Er4  1  0.65762800  0.65762800  0.69739700  1
  Er  Er5  1  0.34237200  0.34237200  0.30260300  1
  Er  Er6  1  0.26427700  0.26427700  0.64789900  1
  Er  Er7  1  0.73572300  0.73572300  0.35210100  1
  Er  Er8  1  0.06933700  0.06933700  0.64050600  1
  Er  Er9  1  0.93066300  0.93066300  0.35949400  1
  Er  Er10  1  0.00000000  0.00000000  0.00000000  1
  S  S0  1  0.08810300  0.08810300  0.24775200  1
  S  S1  1  0.91189700  0.91189700  0.75224800  1
  S  S2  1  0.18799800  0.18799800  0.30801700  1
  S  S3  1  0.81200200  0.81200200  0.69198300  1
  S  S4  1  0.27996300  0.27996300  0.41000300  1
  S  S5  1  0.72003700  0.72003700  0.58999700  1
  S  S6  1  0.44595300  0.44595300  0.50447800  1
  S  S7  1  0.55404700  0.55404700  0.49552200  1
  S  S8  1  0.13424900  0.13424900  0.54382600  1
  S  S9  1  0.86575100  0.86575100  0.45617400  1
  S  S10  1  0.59294700  0.59294700  0.78995800  1
  S  S11  1  0.40705300  0.40705300  0.21004200  1
  S  S12  1  0.45229800  0.45229800  0.96847600  1
  S  S13  1  0.54770200  0.54770200  0.03152400  1
  S  S14  1  0.35170700  0.35170700  0.90792500  1
  S  S15  1  0.64829300  0.64829300  0.09207500  1
  S  S16  1  0.16802600  0.16802600  0.84919200  1
  S  S17  1  0.83197400  0.83197400  0.15080800  1
  S  S18  1  0.00784400  0.00784400  0.76095800  1
  S  S19  1  0.99215600  0.99215600  0.23904200  1
  S  S20  1  0.25503000  0.25503000  0.88051400  1
  S  S21  1  0.74497000  0.74497000  0.11948600  1
loop_
_geom_bond_atom_site_label_1
_geom_bond_atom_site_label_2
_geom_bond_distance
_geom_bond_site_symmetry_2
Er0 S20 2.687398 1_565
Er0 S20 2.687398 1_655
Er0 S17 2.725365 1_556
Er0 S21 2.853929 1_556
Er0 S3 2.870634 1_555
Er0 S14 2.880628 1_565
Er0 S14 2.880628 1_655
Er1 S21 2.687398 1_455
Er1 S21 2.687398 1_545
Er1 S16 2.725365 1_554
Er1 S20 2.853929 1_554
Er1 S2 2.870634 1_555
Er1 S15 2.880628 1_545
Er1 S15 2.880628 1_455
Er2 S6 2.614928 1_555
Er2 S18 2.692314 1_565
Er2 S18 2.692314 1_655
Er2 S12 2.737725 1_555
Er2 S1 2.767805 1_455
Er2 S1 2.767805 1_545
Er3 S7 2.614928 1_555
Er3 S19 2.692314 1_455
Er3 S19 2.692314 1_545
Er3 S13 2.737725 1_555
Er3 S0 2.767805 1_655
Er3 S0 2.767805 1_565
Er4 S16 2.644212 1_655
Er4 S16 2.644212 1_565
Er4 S5 2.693742 1_555
Er4 S10 2.707083 1_555
Er4 S8 2.786644 1_565
Er4 S8 2.786644 1_655
Er5 S17 2.644212 1_545
Er5 S17 2.644212 1_455
Er5 S4 2.693742 1_555
Er5 S11 2.707083 1_555
Er5 S9 2.786644 1_545
Er5 S9 2.786644 1_455
Er6 S20 2.648621 1_555
Er6 S5 2.701038 1_455
Er6 S5 2.701038 1_545
Er6 S4 2.747054 1_555
Er6 S3 2.755467 1_545
Er6 S3 2.755467 1_455
Er7 S21 2.648621 1_555
Er7 S4 2.701038 1_655
Er7 S4 2.701038 1_565
Er7 S5 2.747054 1_555
Er7 S2 2.755467 1_655
Er7 S2 2.755467 1_565
Er8 S7 2.633644 1_545
Er8 S7 2.633644 1_455
Er8 S18 2.729681 1_555
Er8 S8 2.732750 1_555
Er8 S10 2.760593 1_545
Er8 S10 2.760593 1_455
Er9 S6 2.633644 1_565
Er9 S6 2.633644 1_655
Er9 S19 2.729681 1_555
Er9 S9 2.732750 1_555
Er9 S11 2.760593 1_655
Er9 S11 2.760593 1_565
Er10 S18 2.715182 1_554
Er10 S19 2.715182 1_445
Er10 S13 2.730585 1_545
Er10 S12 2.730585 1_454
Er10 S12 2.730585 1_544
Er10 S13 2.730585 1_455
S0 Sm3 2.865644 1_545
S0 Sm3 2.865644 1_455
S0 Sm0 2.992189 1_554
S1 Sm2 2.865644 1_565
S1 Sm2 2.865644 1_655
S1 Sm1 2.992189 1_556
S2 Sm3 2.933695 1_545
S2 Sm3 2.933695 1_455
S3 Sm2 2.933695 1_565
S3 Sm2 2.933695 1_655
S6 Sm2 3.471314 1_555
S7 Sm3 3.471314 1_555
S8 Sm3 2.975905 1_545
S8 Sm3 2.975905 1_455
S9 Sm2 2.975905 1_655
S9 Sm2 2.975905 1_565
S10 Sm0 3.017772 1_565
S10 Sm0 3.017772 1_655
S11 Sm1 3.017772 1_455
S11 Sm1 3.017772 1_545
S12 Sm1 2.983140 1_546
S12 Sm1 2.983140 1_456
S13 Sm0 2.983140 1_654
S13 Sm0 2.983140 1_564
S14 Sm1 2.874277 1_456
S14 Sm1 2.874277 1_546
S14 Sm2 2.924498 1_555
S15 Sm0 2.874277 1_564
S15 Sm0 2.874277 1_654
S15 Sm3 2.924498 1_555
S16 Sm0 2.908699 1_555
S17 Sm1 2.908699 1_555
