# generated using pymatgen
data_Pr4Sb3
_symmetry_space_group_name_H-M   'P 1'
_cell_length_a   8.30526130
_cell_length_b   8.30526110
_cell_length_c   8.30526104
_cell_angle_alpha   109.47122052
_cell_angle_beta   109.47122002
_cell_angle_gamma   109.47122176
_symmetry_Int_Tables_number   1
_chemical_formula_structural   Pr4Sb3
_chemical_formula_sum   'Pr8 Sb6'
_cell_volume   440.99938661
_cell_formula_units_Z   2
loop_
 _symmetry_equiv_pos_site_id
 _symmetry_equiv_pos_as_xyz
  1  'x, y, z'
loop_
 _atom_site_type_symbol
 _atom_site_label
 _atom_site_symmetry_multiplicity
 _atom_site_fract_x
 _atom_site_fract_y
 _atom_site_fract_z
 _atom_site_occupancy
  Pr  Pr0  1  0.35962229  0.50000000  0.99999900  1
  Pr  Pr1  1  0.64037771  0.64037771  0.64037671  1
  Pr  Pr2  1  0.50000000  0.00000000  0.35962329  1
  Pr  Pr3  1  0.00000000  0.35962229  0.50000000  1
  Pr  Pr4  1  0.50000000  0.00000000  0.85962229  1
  Pr  Pr5  1  0.00000000  0.85962229  0.50000000  1
  Pr  Pr6  1  0.85962329  0.50000000  -0.00000000  1
  Pr  Pr7  1  0.14037671  0.14037771  0.14037771  1
  Sb  Sb0  1  0.75000000  0.87500000  0.12500000  1
  Sb  Sb1  1  0.62500000  0.37500000  0.25000000  1
  Sb  Sb2  1  0.87500000  0.12500000  0.75000000  1
  Sb  Sb3  1  0.12500000  0.75000000  0.87500000  1
  Sb  Sb4  1  0.37500000  0.25000000  0.62500000  1
  Sb  Sb5  1  0.25000000  0.62500000  0.37500000  1
loop_
_geom_bond_atom_site_label_1
_geom_bond_atom_site_label_2
_geom_bond_distance
_geom_bond_site_symmetry_2
Pr0 Sb4 3.187189 1_555
Pr0 Sb0 3.187193 1_556
Pr0 Sb1 3.187200 1_556
Pr0 Sb3 3.459992 1_555
Pr0 Sb2 3.459995 1_455
Pr0 Sb5 3.460002 1_556
Pr1 Sb1 3.187189 1_555
Pr1 Sb5 3.187193 1_555
Pr1 Sb4 3.187200 1_555
Pr1 Sb2 3.459992 1_565
Pr1 Sb3 3.459995 1_655
Pr1 Sb0 3.460002 1_556
Pr2 Sb5 3.187191 1_545
Pr2 Sb4 3.187191 1_555
Pr2 Sb2 3.187191 1_555
Pr2 Sb1 3.460000 1_555
Pr2 Sb3 3.460000 1_544
Pr2 Sb0 3.460000 1_545
Pr3 Sb3 3.187196 1_555
Pr3 Sb5 3.187196 1_555
Pr3 Sb1 3.187196 1_455
Pr3 Sb0 3.459994 1_445
Pr3 Sb2 3.459994 1_455
Pr3 Sb4 3.459994 1_555
Pr4 Sb1 3.187196 1_556
Pr4 Sb3 3.187196 1_545
Pr4 Sb0 3.187196 1_546
Pr4 Sb5 3.459994 1_545
Pr4 Sb4 3.459994 1_555
Pr4 Sb2 3.459994 1_555
Pr5 Sb4 3.187196 1_565
Pr5 Sb2 3.187196 1_465
Pr5 Sb0 3.187196 1_455
Pr5 Sb1 3.459994 1_455
Pr5 Sb3 3.459994 1_555
Pr5 Sb5 3.459994 1_555
Pr6 Sb3 3.187191 1_654
Pr6 Sb2 3.187191 1_554
Pr6 Sb5 3.187191 1_655
Pr6 Sb1 3.460000 1_555
Pr6 Sb0 3.460000 1_555
Pr6 Sb4 3.460000 1_554
Pr7 Sb0 3.187189 1_445
Pr7 Sb2 3.187193 1_454
Pr7 Sb3 3.187200 1_544
Pr7 Sb5 3.459992 1_555
Pr7 Sb4 3.459995 1_555
Pr7 Sb1 3.460002 1_555
