# generated using pymatgen
data_CaCuP4(RuO7)2
_symmetry_space_group_name_H-M   'P 1'
_cell_length_a   5.00815911
_cell_length_b   7.09563368
_cell_length_c   8.37545134
_cell_angle_alpha   92.94236474
_cell_angle_beta   92.22820104
_cell_angle_gamma   108.75718733
_symmetry_Int_Tables_number   1
_chemical_formula_structural   CaCuP4(RuO7)2
_chemical_formula_sum   'Ca1 Cu1 P4 Ru2 O14'
_cell_volume   280.96865101
_cell_formula_units_Z   1
loop_
 _symmetry_equiv_pos_site_id
 _symmetry_equiv_pos_as_xyz
  1  'x, y, z'
loop_
 _atom_site_type_symbol
 _atom_site_label
 _atom_site_symmetry_multiplicity
 _atom_site_fract_x
 _atom_site_fract_y
 _atom_site_fract_z
 _atom_site_occupancy
  Ca  Ca0  1  0.40289476  0.06917336  0.60591242  1
  Cu  Cu0  1  0.79617237  0.93615418  0.32593333  1
  P  P0  1  0.39933975  0.74605157  0.83056129  1
  P  P1  1  0.62003803  0.26482272  0.19366910  1
  P  P2  1  0.05106205  0.65967019  0.27487044  1
  P  P3  1  0.99257246  0.34670013  0.74203679  1
  Ru  Ru0  1  0.52130967  0.51132245  0.51044826  1
  Ru  Ru1  1  0.01605533  0.00256391  0.00620796  1
  O  O0  1  0.16404347  0.83506318  0.17129516  1
  O  O1  1  0.87537257  0.16042847  0.83383926  1
  O  O2  1  0.48784505  0.75362372  0.65407074  1
  O  O3  1  0.52633386  0.25880526  0.36823662  1
  O  O4  1  0.19335772  0.52494829  0.85958585  1
  O  O5  1  0.81676687  0.48739431  0.16593194  1
  O  O6  1  0.22284058  0.89114855  0.83383067  1
  O  O7  1  0.81438539  0.13107867  0.18280453  1
  O  O8  1  0.27958817  0.58200610  0.33455227  1
  O  O9  1  0.73653873  0.40010125  0.68112598  1
  O  O10  1  0.63552219  0.77967785  0.95760666  1
  O  O11  1  0.39162265  0.22531805  0.06122662  1
  O  O12  1  0.17077460  0.30336693  0.60615870  1
  O  O13  1  0.88556372  0.72317387  0.41728341  1
loop_
_geom_bond_atom_site_label_1
_geom_bond_atom_site_label_2
_geom_bond_distance
_geom_bond_site_symmetry_2
Ca0 O12 2.314089 1_555
Ca0 O6 2.387807 1_545
Ca0 O9 2.438362 1_555
Ca0 O3 2.447667 1_555
Ca0 O2 2.459454 1_545
Cu0 O7 1.859019 1_565
Cu0 O13 1.896520 1_555
Cu0 O0 2.554667 1_655
O0 P2 1.522390 1_555
O0 Ru1 2.128197 1_565
O1 P3 1.524184 1_555
O1 Ru1 2.104707 1_656
O2 P0 1.558262 1_555
O2 Ru0 2.102299 1_555
O3 P1 1.551326 1_555
O3 Ru0 2.107602 1_555
O4 P3 1.599182 1_455
O4 P0 1.613207 1_555
O5 P1 1.604248 1_555
O5 P2 1.607294 1_655
O6 P0 1.557671 1_555
O6 Ru1 2.075447 1_566
O7 P1 1.564702 1_555
O7 Ru1 2.146932 1_655
O8 P2 1.500942 1_555
O8 Ru0 2.053058 1_555
O9 P3 1.526259 1_555
O9 Ru0 2.090751 1_555
O10 P0 1.510904 1_555
O10 Ru1 2.057689 1_666
O11 P1 1.510242 1_555
O11 Ru1 2.047991 1_555
O12 P3 1.551033 1_455
O12 Ru0 2.113466 1_555
O13 P2 1.604559 1_655
O13 Ru0 2.159612 1_555
