# generated using pymatgen
data_Li5FeOF5
_symmetry_space_group_name_H-M   'P 1'
_cell_length_a   5.14720500
_cell_length_b   5.14720500
_cell_length_c   14.51083700
_cell_angle_alpha   90.00000000
_cell_angle_beta   90.00000000
_cell_angle_gamma   119.99998715
_symmetry_Int_Tables_number   1
_chemical_formula_structural   Li5FeOF5
_chemical_formula_sum   'Li15 Fe3 O3 F15'
_cell_volume   332.94008229
_cell_formula_units_Z   3
loop_
 _symmetry_equiv_pos_site_id
 _symmetry_equiv_pos_as_xyz
  1  'x, y, z'
loop_
 _atom_site_type_symbol
 _atom_site_label
 _atom_site_symmetry_multiplicity
 _atom_site_fract_x
 _atom_site_fract_y
 _atom_site_fract_z
 _atom_site_occupancy
  Li  Li0  1  0.75646000  0.21601800  0.82847600  1
  Li  Li1  1  0.77409200  0.86409700  0.49448700  1
  Li  Li2  1  0.77834900  0.90333400  0.00499900  1
  Li  Li3  1  0.12498500  0.22165100  0.67166600  1
  Li  Li4  1  0.09000400  0.22590800  0.16115400  1
  Li  Li5  1  0.78398200  0.54044300  0.16180900  1
  Li  Li6  1  0.13590300  0.90999600  0.82782100  1
  Li  Li7  1  0.09666600  0.87501500  0.33833300  1
  Li  Li8  1  0.09667600  0.54192100  0.00460800  1
  Li  Li9  1  0.09885100  0.55702300  0.49711600  1
  Li  Li10  1  0.45955700  0.24354000  0.49514200  1
  Li  Li11  1  0.44524500  0.90332400  0.67127500  1
  Li  Li12  1  0.45817200  0.90114900  0.16378300  1
  Li  Li13  1  0.44297700  0.54182800  0.83045000  1
  Li  Li14  1  0.45807900  0.55475500  0.33794100  1
  Fe  Fe0  1  0.77719400  0.24398200  0.33809400  1
  Fe  Fe1  1  0.75601800  0.53321200  0.67142700  1
  Fe  Fe2  1  0.46678800  0.22280600  0.00476100  1
  O  O0  1  0.77103000  0.22206200  0.08162300  1
  O  O1  1  0.77793800  0.54896800  0.41495700  1
  O  O2  1  0.45103200  0.22897000  0.74829000  1
  F  F0  1  0.77948800  0.20666100  0.58040800  1
  F  F1  1  0.78707400  0.90552000  0.75122700  1
  F  F2  1  0.77587500  0.90718500  0.25403700  1
  F  F3  1  0.11844500  0.21292600  0.41789400  1
  F  F4  1  0.79333900  0.57282700  0.91374100  1
  F  F5  1  0.13131000  0.22412500  0.92070300  1
  F  F6  1  0.09281500  0.86869000  0.58737000  1
  F  F7  1  0.09448000  0.88155500  0.08456000  1
  F  F8  1  0.12517100  0.56923100  0.24719900  1
  F  F9  1  0.12499900  0.55994000  0.75109000  1
  F  F10  1  0.42717300  0.22051200  0.24707500  1
  F  F11  1  0.44405900  0.87482900  0.91386600  1
  F  F12  1  0.43494000  0.87500100  0.41775600  1
  F  F13  1  0.44006000  0.56506000  0.08442300  1
  F  F14  1  0.43076900  0.55594100  0.58053300  1
loop_
_geom_bond_atom_site_label_1
_geom_bond_atom_site_label_2
_geom_bond_distance
_geom_bond_site_symmetry_2
Li0 O2 1.983592 1_555
Li1 O1 1.998829 1_555
Li2 O0 1.997731 1_565
Li3 O2 1.997731 1_555
Li4 O0 1.998834 1_455
Li5 O0 1.983596 1_555
Li6 O2 1.998836 1_565
Li7 O1 1.997731 1_455
Li8 O0 2.002353 1_455
Li9 O1 2.020650 1_455
Li10 O1 1.983586 1_555
Li11 O2 2.002353 1_565
Li12 O0 2.020658 1_565
Li13 O2 2.020658 1_555
Li14 O1 2.002361 1_555
Fe0 O1 1.924150 1_555
Fe1 O2 1.924150 1_555
Fe2 O0 1.924141 1_555
F0 Li11 2.109514 1_545
F0 Li9 2.109672 1_655
F0 Li10 2.142726 1_555
F0 Li1 2.148328 1_545
F0 Li3 2.187426 1_655
F0 Fe1 2.187974 1_555
F1 Li0 2.021738 1_565
F1 Li3 2.043429 1_665
F1 Li6 2.101968 1_655
F1 Li11 2.102843 1_555
F1 Li13 2.155760 1_555
F1 Fe1 2.175427 1_555
F2 Li12 2.083152 1_555
F2 Li4 2.114168 1_665
F2 Fe0 2.116903 1_565
F2 Li14 2.116943 1_555
F2 Li7 2.126840 1_655
F2 Li5 2.331302 1_555
F3 Li10 2.021730 1_555
F3 Li7 2.043430 1_545
F3 Li1 2.101961 1_445
F3 Li14 2.102853 1_555
F3 Li9 2.155750 1_555
F3 Fe0 2.175423 1_455
F4 Li8 2.109514 1_656
F4 Li13 2.109663 1_555
F4 Li0 2.142714 1_555
F4 Li6 2.148322 1_655
F4 Li2 2.187426 1_556
F4 Fe2 2.187983 1_556
F5 Li13 2.083143 1_555
F5 Li6 2.114157 1_545
F5 Fe2 2.116911 1_556
F5 Li8 2.116951 1_556
F5 Li2 2.126840 1_446
F5 Li0 2.331298 1_455
F6 Li9 2.083152 1_555
F6 Li1 2.114170 1_455
F6 Fe1 2.116903 1_455
F6 Li11 2.116951 1_555
F6 Li3 2.126840 1_565
F6 Li10 2.331305 1_565
F7 Li5 2.021739 1_455
F7 Li2 2.043426 1_455
F7 Li4 2.101968 1_565
F7 Li8 2.102847 1_555
F7 Li12 2.155762 1_555
F7 Fe2 2.175418 1_565
F8 Li5 2.093128 1_455
F8 Li12 2.096071 1_555
F8 Li4 2.096351 1_555
F8 Li7 2.116257 1_555
F8 Fe0 2.179882 1_455
F8 Li14 2.191638 1_555
F9 Li13 2.041125 1_555
F9 Li11 2.066160 1_555
F9 Li3 2.088080 1_555
F9 Li6 2.094820 1_555
F9 Li0 2.152925 1_455
F9 Fe1 2.168171 1_455
F10 Li14 2.109505 1_555
F10 Li12 2.109672 1_545
F10 Li5 2.142724 1_555
F10 Li4 2.148332 1_555
F10 Li7 2.187427 1_545
F10 Fe0 2.187974 1_555
F11 Li0 2.093128 1_565
F11 Li13 2.096073 1_555
F11 Li6 2.096351 1_555
F11 Li2 2.116252 1_556
F11 Fe2 2.179880 1_566
F11 Li8 2.191637 1_556
F12 Li9 2.041123 1_555
F12 Li14 2.066162 1_555
F12 Li7 2.088068 1_555
F12 Li1 2.094820 1_555
F12 Li10 2.152924 1_565
F12 Fe0 2.168165 1_565
F13 Li12 2.041121 1_555
F13 Li8 2.066158 1_555
F13 Li2 2.088078 1_555
F13 Li4 2.094820 1_555
F13 Li5 2.152924 1_555
F13 Fe2 2.168167 1_555
F14 Li10 2.093136 1_555
F14 Li9 2.096077 1_555
F14 Li1 2.096360 1_555
F14 Li3 2.116250 1_555
F14 Fe1 2.179875 1_555
F14 Li11 2.191634 1_555
