# generated using pymatgen
data_Li9Mn2Co5O16
_symmetry_space_group_name_H-M   'P 1'
_cell_length_a   5.07643500
_cell_length_b   5.97288717
_cell_length_c   10.14256571
_cell_angle_alpha   89.48057350
_cell_angle_beta   100.85353826
_cell_angle_gamma   105.98215968
_symmetry_Int_Tables_number   1
_chemical_formula_structural   Li9Mn2Co5O16
_chemical_formula_sum   'Li9 Mn2 Co5 O16'
_cell_volume   290.05875581
_cell_formula_units_Z   1
loop_
 _symmetry_equiv_pos_site_id
 _symmetry_equiv_pos_as_xyz
  1  'x, y, z'
loop_
 _atom_site_type_symbol
 _atom_site_label
 _atom_site_symmetry_multiplicity
 _atom_site_fract_x
 _atom_site_fract_y
 _atom_site_fract_z
 _atom_site_occupancy
  Li  Li0  1  0.49628700  0.37671800  0.13139900  1
  Li  Li1  1  0.99190700  0.25321800  0.26575400  1
  Li  Li2  1  0.00460100  0.49910200  0.99789800  1
  Li  Li3  1  0.51025800  0.13482600  0.38216900  1
  Li  Li4  1  0.01055800  0.00277600  0.50049700  1
  Li  Li5  1  0.48330300  0.86672300  0.61720500  1
  Li  Li6  1  0.98756200  0.74457700  0.73703200  1
  Li  Li7  1  0.50905400  0.62615800  0.86719600  1
  Li  Li8  1  0.00563700  0.49914000  0.49900100  1
  Mn  Mn0  1  0.99742100  0.99854700  0.99866700  1
  Mn  Mn1  1  0.50055400  0.87369000  0.12659200  1
  Co  Co0  1  0.01301100  0.74119900  0.26573600  1
  Co  Co1  1  0.52041700  0.61602800  0.38786300  1
  Co  Co2  1  0.49838200  0.37947500  0.62448400  1
  Co  Co3  1  0.99311900  0.25612000  0.73956300  1
  Co  Co4  1  0.48825800  0.12620800  0.86310100  1
  O  O0  1  0.25192600  0.04493600  0.17236600  1
  O  O1  1  0.73794100  0.92682600  0.29843800  1
  O  O2  1  0.74190900  0.15538100  0.05506600  1
  O  O3  1  0.24490000  0.81343900  0.42684600  1
  O  O4  1  0.74015700  0.69748900  0.55413900  1
  O  O5  1  0.26247800  0.53513900  0.68765500  1
  O  O6  1  0.73696300  0.42246500  0.80686300  1
  O  O7  1  0.22595400  0.28244300  0.93597800  1
  O  O8  1  0.75486200  0.71959000  0.06525500  1
  O  O9  1  0.27048700  0.59135900  0.18675300  1
  O  O10  1  0.24538400  0.82787400  0.95025800  1
  O  O11  1  0.75137300  0.45262500  0.30767700  1
  O  O12  1  0.27328300  0.32300700  0.44754600  1
  O  O13  1  0.74055400  0.20447800  0.57738700  1
  O  O14  1  0.24883900  0.05723600  0.69827300  1
  O  O15  1  0.76266100  0.95120600  0.82534300  1
loop_
_geom_bond_atom_site_label_1
_geom_bond_atom_site_label_2
_geom_bond_distance
_geom_bond_site_symmetry_2
Li0 O11 1.974465 1_555
Li0 O9 2.082631 1_555
Li0 O0 2.112828 1_555
Li0 O7 2.167786 1_554
Li0 O2 2.278533 1_555
Li0 O8 2.278931 1_555
Li1 O11 2.023836 1_555
Li1 O12 2.075569 1_655
Li1 O1 2.082732 1_545
Li1 O2 2.260850 1_555
Li1 O9 2.354917 1_655
Li1 O0 2.362969 1_655
Li2 O7 2.100711 1_555
Li2 O9 2.104856 1_556
Li2 O10 2.113567 1_555
Li2 O6 2.119411 1_455
Li2 O8 2.251724 1_456
Li2 O2 2.256403 1_456
Li3 O12 2.051517 1_555
Li3 O13 2.082218 1_555
Li3 O3 2.120136 1_545
Li3 O11 2.171393 1_555
Li3 O1 2.186349 1_545
Li3 O0 2.262351 1_555
Li4 O3 2.083977 1_545
Li4 O4 2.095261 1_445
Li4 O14 2.115232 1_555
Li4 O12 2.138223 1_555
Li4 O1 2.219029 1_445
Li4 O13 2.295040 1_455
Li5 O4 2.045160 1_555
Li5 O3 2.052496 1_555
Li5 O14 2.125782 1_565
Li5 O13 2.161340 1_565
Li5 O5 2.177858 1_555
Li5 O15 2.284754 1_555
Li6 O4 2.008749 1_555
Li6 O14 2.054335 1_665
Li6 O6 2.188232 1_555
Li6 O15 2.193174 1_555
Li6 O5 2.235915 1_655
Li6 O10 2.287483 1_655
Li7 O5 1.990787 1_555
Li7 O6 2.061186 1_555
Li7 O15 2.102720 1_555
Li7 O8 2.144000 1_556
Li7 O10 2.298710 1_555
Li7 O7 2.343849 1_555
Li8 O12 2.071053 1_555
Li8 O5 2.078701 1_555
Li8 O11 2.092334 1_455
Li8 O3 2.142247 1_555
Li8 O13 2.147976 1_455
Li8 O4 2.169713 1_455
Mn0 O15 1.903959 1_555
Mn0 O7 1.949477 1_665
Mn0 O0 1.950457 1_666
Mn0 O10 1.952748 1_655
Mn0 O2 1.960971 1_566
Mn0 O8 1.977743 1_556
Mn1 O1 1.897171 1_555
Mn1 O9 1.935264 1_555
Mn1 O0 1.948057 1_565
Mn1 O8 1.966725 1_555
Mn1 O10 1.972989 1_554
Mn1 O2 2.008908 1_565
Co0 O3 1.802984 1_555
Co0 O11 1.963347 1_455
Co0 O9 2.050033 1_555
Co0 O1 2.079135 1_455
Co0 O8 2.185585 1_455
Co0 O0 2.202003 1_565
Co1 O4 1.825584 1_555
Co1 O11 1.998052 1_555
Co1 O12 2.015232 1_555
Co1 O3 2.151212 1_555
Co1 O1 2.169313 1_555
Co1 O9 2.172554 1_555
Co2 O5 1.903158 1_555
Co2 O12 1.914832 1_555
Co2 O13 1.941617 1_555
Co2 O6 1.986999 1_555
Co2 O4 2.155185 1_555
Co2 O14 2.203998 1_555
Co3 O13 1.855216 1_555
Co3 O5 1.981066 1_655
Co3 O6 2.049895 1_555
Co3 O14 2.081981 1_655
Co3 O7 2.099292 1_655
Co3 O15 2.150291 1_545
Co4 O14 1.847514 1_555
Co4 O6 2.018210 1_555
Co4 O15 2.046859 1_545
Co4 O7 2.063415 1_555
Co4 O2 2.101834 1_556
Co4 O10 2.156123 1_545
