# generated using pymatgen
data_Ca8Ti2Mn6O23
_symmetry_space_group_name_H-M   'P 1'
_cell_length_a   7.67209300
_cell_length_b   7.66166700
_cell_length_c   7.68116400
_cell_angle_alpha   90.00000000
_cell_angle_beta   90.00000000
_cell_angle_gamma   90.00000000
_symmetry_Int_Tables_number   1
_chemical_formula_structural   Ca8Ti2Mn6O23
_chemical_formula_sum   'Ca8 Ti2 Mn6 O23'
_cell_volume   451.50666822
_cell_formula_units_Z   1
loop_
 _symmetry_equiv_pos_site_id
 _symmetry_equiv_pos_as_xyz
  1  'x, y, z'
loop_
 _atom_site_type_symbol
 _atom_site_label
 _atom_site_symmetry_multiplicity
 _atom_site_fract_x
 _atom_site_fract_y
 _atom_site_fract_z
 _atom_site_occupancy
  Ca  Ca0  1  0.25700200  0.26220600  0.25115400  1
  Ca  Ca1  1  0.26062400  0.26805100  0.73981200  1
  Ca  Ca2  1  0.25700200  0.73779400  0.25115400  1
  Ca  Ca3  1  0.26062400  0.73194900  0.73981200  1
  Ca  Ca4  1  0.74299800  0.26220600  0.25115400  1
  Ca  Ca5  1  0.73937600  0.26805100  0.73981200  1
  Ca  Ca6  1  0.74299800  0.73779400  0.25115400  1
  Ca  Ca7  1  0.73937600  0.73194900  0.73981200  1
  Ti  Ti0  1  0.00000000  0.00000000  0.98540900  1
  Ti  Ti1  1  0.50000000  0.00000000  0.00771200  1
  Mn  Mn0  1  0.00000000  0.00000000  0.49945300  1
  Mn  Mn1  1  0.00000000  0.50000000  0.00514900  1
  Mn  Mn2  1  0.00000000  0.50000000  0.49591000  1
  Mn  Mn3  1  0.50000000  0.00000000  0.49762400  1
  Mn  Mn4  1  0.50000000  0.50000000  0.99913500  1
  Mn  Mn5  1  0.50000000  0.50000000  0.49786800  1
  O  O0  1  0.00000000  0.00000000  0.75637500  1
  O  O1  1  0.00000000  0.50000000  0.25064500  1
  O  O2  1  0.00000000  0.50000000  0.74994000  1
  O  O3  1  0.50000000  0.00000000  0.25510600  1
  O  O4  1  0.50000000  0.00000000  0.75036000  1
  O  O5  1  0.50000000  0.50000000  0.24958800  1
  O  O6  1  0.50000000  0.50000000  0.74918000  1
  O  O7  1  0.24343200  0.00000000  0.03901300  1
  O  O8  1  0.24829800  0.00000000  0.47620000  1
  O  O9  1  0.25034300  0.50000000  0.99572900  1
  O  O10  1  0.25046200  0.50000000  0.50601700  1
  O  O11  1  0.75656800  0.00000000  0.03901300  1
  O  O12  1  0.75170200  0.00000000  0.47620000  1
  O  O13  1  0.74965700  0.50000000  0.99572900  1
  O  O14  1  0.74953800  0.50000000  0.50601700  1
  O  O15  1  0.00000000  0.24848700  0.02472500  1
  O  O16  1  0.00000000  0.24783600  0.47455900  1
  O  O17  1  0.00000000  0.75151300  0.02472500  1
  O  O18  1  0.00000000  0.75216400  0.47455900  1
  O  O19  1  0.50000000  0.25221500  0.99661000  1
  O  O20  1  0.50000000  0.25016500  0.50549100  1
  O  O21  1  0.50000000  0.74778500  0.99661000  1
  O  O22  1  0.50000000  0.74983500  0.50549100  1
loop_
_geom_bond_atom_site_label_1
_geom_bond_atom_site_label_2
_geom_bond_distance
_geom_bond_site_symmetry_2
Ca0 O7 2.588802 1_555
Ca0 O5 2.606738 1_555
Ca0 O16 2.616216 1_555
Ca0 O15 2.631306 1_555
Ca0 O8 2.651111 1_555
Ca0 O10 2.674734 1_555
Ca0 O9 2.677913 1_554
Ca0 O1 2.684604 1_555
Ca0 O20 2.701982 1_555
Ca0 O19 2.702641 1_554
Ca0 O3 2.740870 1_555
Ca1 O10 2.527683 1_555
Ca1 O6 2.556581 1_555
Ca1 O20 2.575084 1_555
Ca1 O9 2.651132 1_555
Ca1 O2 2.676251 1_555
Ca1 O19 2.697831 1_555
Ca1 O4 2.756285 1_555
Ca1 O16 2.858903 1_555
Ca1 O0 2.869158 1_555
Ca1 O8 2.885603 1_555
Ca1 O15 2.968159 1_556
Ca1 O7 3.084952 1_556
Ca2 O7 2.588802 1_565
Ca2 O5 2.606738 1_555
Ca2 O18 2.616216 1_555
Ca2 O17 2.631306 1_555
Ca2 O8 2.651111 1_565
Ca2 O10 2.674734 1_555
Ca2 O9 2.677913 1_554
Ca2 O1 2.684604 1_555
Ca2 O22 2.701982 1_555
Ca2 O21 2.702641 1_554
Ca2 O3 2.740870 1_565
Ca3 O10 2.527683 1_555
Ca3 O6 2.556581 1_555
Ca3 O22 2.575084 1_555
Ca3 O9 2.651132 1_555
Ca3 O2 2.676251 1_555
Ca3 O21 2.697831 1_555
Ca3 O4 2.756285 1_565
Ca3 O18 2.858903 1_555
Ca3 O0 2.869158 1_565
Ca3 O8 2.885603 1_565
Ca3 O17 2.968159 1_556
Ca3 O7 3.084952 1_566
Ca4 O11 2.588802 1_555
Ca4 O5 2.606738 1_555
Ca4 O16 2.616216 1_655
Ca4 O15 2.631306 1_655
Ca4 O12 2.651111 1_555
Ca4 O14 2.674734 1_555
Ca4 O13 2.677913 1_554
Ca4 O1 2.684604 1_655
Ca4 O20 2.701982 1_555
Ca4 O19 2.702641 1_554
Ca4 O3 2.740870 1_555
Ca5 O14 2.527683 1_555
Ca5 O6 2.556581 1_555
Ca5 O20 2.575084 1_555
Ca5 O13 2.651132 1_555
Ca5 O2 2.676251 1_655
Ca5 O19 2.697831 1_555
Ca5 O4 2.756285 1_555
Ca5 O16 2.858903 1_655
Ca5 O0 2.869158 1_655
Ca5 O12 2.885603 1_555
Ca5 O15 2.968159 1_656
Ca5 O11 3.084952 1_556
Ca6 O11 2.588802 1_565
Ca6 O5 2.606738 1_555
Ca6 O18 2.616216 1_655
Ca6 O17 2.631306 1_655
Ca6 O12 2.651111 1_565
Ca6 O14 2.674734 1_555
Ca6 O13 2.677913 1_554
Ca6 O1 2.684604 1_655
Ca6 O22 2.701982 1_555
Ca6 O21 2.702641 1_554
Ca6 O3 2.740870 1_565
Ca7 O14 2.527683 1_555
Ca7 O6 2.556581 1_555
Ca7 O22 2.575084 1_555
Ca7 O13 2.651132 1_555
Ca7 O2 2.676251 1_655
Ca7 O21 2.697831 1_555
Ca7 O4 2.756285 1_565
Ca7 O18 2.858903 1_655
Ca7 O0 2.869158 1_665
Ca7 O12 2.885603 1_565
Ca7 O17 2.968159 1_656
Ca7 O11 3.084952 1_566
Mn0 O18 1.908440 1_545
Mn0 O16 1.908440 1_555
Mn0 O8 1.913320 1_555
Mn0 O12 1.913320 1_455
Mn0 O0 1.973460 1_555
Mn1 O1 1.885695 1_555
Mn1 O9 1.922017 1_554
Mn1 O13 1.922017 1_454
Mn1 O17 1.932867 1_555
Mn1 O15 1.932867 1_555
Mn1 O2 1.960302 1_554
Mn2 O1 1.883921 1_555
Mn2 O14 1.923135 1_455
Mn2 O10 1.923135 1_555
Mn2 O16 1.938945 1_555
Mn2 O18 1.938945 1_555
Mn2 O2 1.951246 1_555
Mn3 O3 1.862821 1_555
Mn3 O22 1.917633 1_545
Mn3 O20 1.917633 1_555
Mn3 O12 1.938080 1_555
Mn3 O8 1.938080 1_555
Mn3 O4 1.941307 1_555
Mn4 O19 1.898545 1_555
Mn4 O21 1.898545 1_555
Mn4 O9 1.915570 1_555
Mn4 O13 1.915570 1_555
Mn4 O6 1.919945 1_555
Mn4 O5 1.923771 1_556
Mn5 O5 1.907079 1_555
Mn5 O20 1.915048 1_555
Mn5 O22 1.915048 1_555
Mn5 O10 1.915502 1_555
Mn5 O14 1.915502 1_555
Mn5 O6 1.930369 1_555
O0 Ti0 1.759248 1_555
O3 Ti1 1.900274 1_555
O4 Ti1 1.976763 1_556
O7 Ti0 1.912481 1_554
O7 Ti1 1.983043 1_555
O11 Ti0 1.912481 1_654
O11 Ti1 1.983043 1_555
O15 Ti0 1.927628 1_554
O17 Ti0 1.927628 1_564
O19 Ti1 1.934268 1_556
O21 Ti1 1.934268 1_566
