# generated using pymatgen
data_NaSmHf4O12
_symmetry_space_group_name_H-M   'P 1'
_cell_length_a   5.68435179
_cell_length_b   5.68435179
_cell_length_c   8.21323896
_cell_angle_alpha   90.00000000
_cell_angle_beta   90.00000000
_cell_angle_gamma   89.74206082
_symmetry_Int_Tables_number   1
_chemical_formula_structural   NaSmHf4O12
_chemical_formula_sum   'Na1 Sm1 Hf4 O12'
_cell_volume   265.38229937
_cell_formula_units_Z   1
loop_
 _symmetry_equiv_pos_site_id
 _symmetry_equiv_pos_as_xyz
  1  'x, y, z'
loop_
 _atom_site_type_symbol
 _atom_site_label
 _atom_site_symmetry_multiplicity
 _atom_site_fract_x
 _atom_site_fract_y
 _atom_site_fract_z
 _atom_site_occupancy
  Na  Na0  1  0.48771500  0.51228500  0.00000000  1
  Sm  Sm0  1  0.01891893  0.98108107  0.50000000  1
  Hf  Hf0  1  0.50958523  0.00679284  0.23978204  1
  Hf  Hf1  1  0.50958523  0.00679284  0.76021796  1
  Hf  Hf2  1  0.99320716  0.49041477  0.76021796  1
  Hf  Hf3  1  0.99320716  0.49041477  0.23978204  1
  O  O0  1  0.20748634  0.20490476  0.28356858  1
  O  O1  1  0.79509524  0.79251366  0.28356858  1
  O  O2  1  0.79509524  0.79251366  0.71643142  1
  O  O3  1  0.20748634  0.20490476  0.71643142  1
  O  O4  1  0.25367718  0.74632282  0.30632304  1
  O  O5  1  0.69761043  0.30238957  0.20563773  1
  O  O6  1  0.69761043  0.30238957  0.79436227  1
  O  O7  1  0.25367718  0.74632282  0.69367696  1
  O  O8  1  0.48394162  0.93300994  0.00000000  1
  O  O9  1  0.57268331  0.03937207  0.50000000  1
  O  O10  1  0.06699006  0.51605838  0.00000000  1
  O  O11  1  0.96062793  0.42731669  0.50000000  1
loop_
_geom_bond_atom_site_label_1
_geom_bond_atom_site_label_2
_geom_bond_distance
_geom_bond_site_symmetry_2
Na0 O6 2.384703 1_554
Na0 O5 2.384703 1_555
Na0 O10 2.391548 1_555
Na0 O8 2.391548 1_555
Hf0 O5 2.015062 1_555
Hf0 O8 2.018957 1_545
Hf0 O1 2.056474 1_545
Hf0 O0 2.080627 1_555
Hf0 O4 2.150890 1_545
Hf0 O9 2.175155 1_555
Hf1 O6 2.015062 1_555
Hf1 O8 2.018957 1_546
Hf1 O2 2.056474 1_545
Hf1 O3 2.080627 1_555
Hf1 O7 2.150890 1_545
Hf1 O9 2.175155 1_555
Hf2 O6 2.015062 1_555
Hf2 O10 2.018957 1_656
Hf2 O3 2.056474 1_655
Hf2 O2 2.080627 1_555
Hf2 O7 2.150890 1_655
Hf2 O11 2.175155 1_555
Hf3 O5 2.015062 1_555
Hf3 O10 2.018957 1_655
Hf3 O0 2.056474 1_655
Hf3 O1 2.080627 1_555
Hf3 O4 2.150890 1_655
Hf3 O11 2.175155 1_555
O0 Sm0 2.437173 1_545
O1 Sm0 2.437173 1_655
O2 Sm0 2.437173 1_655
O3 Sm0 2.437173 1_545
O4 Sm0 2.464923 1_555
O7 Sm0 2.464923 1_555
O9 Sm0 2.556631 1_645
O11 Sm0 2.556631 1_645
