# generated using pymatgen
data_Ho2SbO2
_symmetry_space_group_name_H-M   'P 1'
_cell_length_a   7.18373420
_cell_length_b   7.18373420
_cell_length_c   7.18373420
_cell_angle_alpha   149.04885437
_cell_angle_beta   148.93665225
_cell_angle_gamma   44.42204028
_symmetry_Int_Tables_number   1
_chemical_formula_structural   Ho2SbO2
_chemical_formula_sum   'Ho2 Sb1 O2'
_cell_volume   98.08919707
_cell_formula_units_Z   1
loop_
 _symmetry_equiv_pos_site_id
 _symmetry_equiv_pos_as_xyz
  1  'x, y, z'
loop_
 _atom_site_type_symbol
 _atom_site_label
 _atom_site_symmetry_multiplicity
 _atom_site_fract_x
 _atom_site_fract_y
 _atom_site_fract_z
 _atom_site_occupancy
  Ho  Ho0  1  0.33363500  0.32385300  0.99021800  1
  Ho  Ho1  1  0.66636500  0.65658200  0.99021800  1
  Sb  Sb0  1  0.00000000  0.96567500  0.96567500  1
  O  O0  1  0.75019000  0.23963500  0.48944500  1
  O  O1  1  0.24981000  0.73925500  0.48944500  1
loop_
_geom_bond_atom_site_label_1
_geom_bond_atom_site_label_2
_geom_bond_distance
_geom_bond_site_symmetry_2
Ho0 O1 2.214957 1_556
Ho0 O1 2.220081 1_545
Ho0 O0 2.220852 1_455
Ho0 O0 2.220852 1_556
Ho0 Sb0 3.452450 1_555
Ho0 Sb0 3.452450 1_656
Ho0 Sb0 3.555393 1_544
Ho0 Sb0 3.555393 1_645
Ho1 O0 2.214962 1_566
Ho1 O0 2.220082 1_555
Ho1 O1 2.220853 1_656
Ho1 O1 2.220857 1_555
Ho1 Sb0 3.452446 1_656
Ho1 Sb0 3.452448 1_555
Ho1 Sb0 3.555387 1_645
Ho1 Sb0 3.555389 1_544
