# generated using pymatgen
data_Mg2Ni9O13
_symmetry_space_group_name_H-M   'P 1'
_cell_length_a   5.10193566
_cell_length_b   5.10193566
_cell_length_c   16.19677046
_cell_angle_alpha   81.40299760
_cell_angle_beta   81.40299760
_cell_angle_gamma   33.26692680
_symmetry_Int_Tables_number   1
_chemical_formula_structural   Mg2Ni9O13
_chemical_formula_sum   'Mg2 Ni9 O13'
_cell_volume   228.43161774
_cell_formula_units_Z   1
loop_
 _symmetry_equiv_pos_site_id
 _symmetry_equiv_pos_as_xyz
  1  'x, y, z'
loop_
 _atom_site_type_symbol
 _atom_site_label
 _atom_site_symmetry_multiplicity
 _atom_site_fract_x
 _atom_site_fract_y
 _atom_site_fract_z
 _atom_site_occupancy
  Mg  Mg0  1  0.78359000  0.78359000  0.22878200  1
  Mg  Mg1  1  0.21641000  0.21641000  0.77121800  1
  Ni  Ni0  1  0.50000000  0.50000000  0.50000000  1
  Ni  Ni1  1  0.35229800  0.35229800  0.04095700  1
  Ni  Ni2  1  0.64770200  0.64770200  0.95904300  1
  Ni  Ni3  1  0.24858300  0.24858300  0.41831000  1
  Ni  Ni4  1  0.75141700  0.75141700  0.58169000  1
  Ni  Ni5  1  0.06155800  0.06155800  0.12409800  1
  Ni  Ni6  1  0.93844200  0.93844200  0.87590200  1
  Ni  Ni7  1  0.00405500  0.00405500  0.33291300  1
  Ni  Ni8  1  0.99594500  0.99594500  0.66708700  1
  O  O0  1  0.00000000  0.00000000  0.00000000  1
  O  O1  1  0.13578100  0.13578100  0.22846400  1
  O  O2  1  0.86421900  0.86421900  0.77153600  1
  O  O3  1  0.70424200  0.70424200  0.07156900  1
  O  O4  1  0.29575800  0.29575800  0.92843100  1
  O  O5  1  0.41394200  0.41394200  0.14836000  1
  O  O6  1  0.58605800  0.58605800  0.85164000  1
  O  O7  1  0.36926600  0.36926600  0.30928900  1
  O  O8  1  0.63073400  0.63073400  0.69071100  1
  O  O9  1  0.61628300  0.61628300  0.38750100  1
  O  O10  1  0.38371700  0.38371700  0.61249900  1
  O  O11  1  0.87116600  0.87116600  0.46241100  1
  O  O12  1  0.12883400  0.12883400  0.53758900  1
loop_
_geom_bond_atom_site_label_1
_geom_bond_atom_site_label_2
_geom_bond_distance
_geom_bond_site_symmetry_2
Mg0 O1 2.055122 1_565
Mg0 O1 2.055122 1_655
Mg0 O7 2.208071 1_565
Mg0 O7 2.208071 1_655
Mg0 O5 2.221654 1_655
Mg0 O5 2.221654 1_565
Mg1 O2 2.055122 1_545
Mg1 O2 2.055122 1_455
Mg1 O8 2.208071 1_455
Mg1 O8 2.208071 1_545
Mg1 O6 2.221654 1_545
Mg1 O6 2.221654 1_455
Ni0 O9 1.991548 1_555
Ni0 O10 1.991548 1_555
Ni0 O12 2.080709 1_655
Ni0 O12 2.080709 1_565
Ni0 O11 2.080709 1_545
Ni0 O11 2.080709 1_455
Ni1 O5 1.927825 1_555
Ni1 O4 1.985358 1_554
Ni1 O3 2.061566 1_455
Ni1 O3 2.061566 1_545
Ni1 O0 2.087896 1_655
Ni1 O0 2.087896 1_565
Ni2 O6 1.927825 1_555
Ni2 O3 1.985358 1_556
Ni2 O4 2.061566 1_655
Ni2 O4 2.061566 1_565
Ni2 O0 2.087896 1_566
Ni2 O0 2.087896 1_656
Ni3 O7 1.964712 1_555
Ni3 O9 2.063087 1_545
Ni3 O9 2.063087 1_455
Ni3 O11 2.084829 1_455
Ni3 O11 2.084829 1_545
Ni3 O12 2.096981 1_555
Ni4 O8 1.964712 1_555
Ni4 O10 2.063087 1_655
Ni4 O10 2.063087 1_565
Ni4 O12 2.084829 1_655
Ni4 O12 2.084829 1_565
Ni4 O11 2.096981 1_555
Ni5 O1 1.940818 1_555
Ni5 O5 2.047727 1_545
Ni5 O5 2.047727 1_455
Ni5 O3 2.105326 1_545
Ni5 O3 2.105326 1_455
Ni5 O0 2.186257 1_555
Ni6 O2 1.940818 1_555
Ni6 O6 2.047727 1_655
Ni6 O6 2.047727 1_565
Ni6 O4 2.105326 1_655
Ni6 O4 2.105326 1_565
Ni6 O0 2.186257 1_666
Ni7 O1 1.959787 1_555
Ni7 O7 2.042844 1_545
Ni7 O7 2.042844 1_455
Ni7 O9 2.102661 1_545
Ni7 O9 2.102661 1_455
Ni7 O11 2.288456 1_445
Ni8 O2 1.959787 1_555
Ni8 O8 2.042844 1_655
Ni8 O8 2.042844 1_565
Ni8 O10 2.102661 1_565
Ni8 O10 2.102661 1_655
Ni8 O12 2.288456 1_665
