# generated using pymatgen
data_Li2MnCoO4
_symmetry_space_group_name_H-M   'P 1'
_cell_length_a   5.14186563
_cell_length_b   5.14186563
_cell_length_c   10.58721184
_cell_angle_alpha   82.84211840
_cell_angle_beta   82.84211840
_cell_angle_gamma   32.49644396
_symmetry_Int_Tables_number   1
_chemical_formula_structural   Li2MnCoO4
_chemical_formula_sum   'Li4 Mn2 Co2 O8'
_cell_volume   149.11052006
_cell_formula_units_Z   2
loop_
 _symmetry_equiv_pos_site_id
 _symmetry_equiv_pos_as_xyz
  1  'x, y, z'
loop_
 _atom_site_type_symbol
 _atom_site_label
 _atom_site_symmetry_multiplicity
 _atom_site_fract_x
 _atom_site_fract_y
 _atom_site_fract_z
 _atom_site_occupancy
  Li  Li0  1  0.50000000  0.50000000  0.00000000  1
  Li  Li1  1  0.00159400  0.00159400  0.24482500  1
  Li  Li2  1  0.50000000  0.50000000  0.50000000  1
  Li  Li3  1  0.99840600  0.99840600  0.75517500  1
  Mn  Mn0  1  0.25376100  0.25376100  0.36936600  1
  Mn  Mn1  1  0.74623900  0.74623900  0.63063400  1
  Co  Co0  1  0.24416100  0.24416100  0.88066400  1
  Co  Co1  1  0.75583900  0.75583900  0.11933600  1
  O  O0  1  0.62749500  0.62749500  0.81952600  1
  O  O1  1  0.13577200  0.13577200  0.06078300  1
  O  O2  1  0.64050600  0.64050600  0.31140600  1
  O  O3  1  0.13436200  0.13436200  0.56991500  1
  O  O4  1  0.37250500  0.37250500  0.18047400  1
  O  O5  1  0.86563800  0.86563800  0.43008500  1
  O  O6  1  0.35949400  0.35949400  0.68859400  1
  O  O7  1  0.86422800  0.86422800  0.93921700  1
loop_
_geom_bond_atom_site_label_1
_geom_bond_atom_site_label_2
_geom_bond_distance
_geom_bond_site_symmetry_2
Li0 O7 2.122437 1_454
Li0 O1 2.122437 1_655
Li0 O1 2.122437 1_565
Li0 O7 2.122437 1_544
Li0 O4 2.147322 1_555
Li0 O0 2.147322 1_554
Li1 O4 2.093734 1_545
Li1 O4 2.093734 1_455
Li1 O2 2.167629 1_545
Li1 O2 2.167629 1_455
Li1 O1 2.209417 1_555
Li1 O5 2.228315 1_445
Li2 O3 2.152292 1_655
Li2 O3 2.152292 1_565
Li2 O5 2.152292 1_455
Li2 O5 2.152292 1_545
Li2 O6 2.278625 1_555
Li2 O2 2.278625 1_555
Li3 O0 2.093734 1_565
Li3 O0 2.093734 1_655
Li3 O6 2.167629 1_565
Li3 O6 2.167629 1_655
Li3 O7 2.209417 1_555
Li3 O3 2.228315 1_665
Mn0 O2 1.968445 1_455
Mn0 O2 1.968445 1_545
Mn0 O5 1.971661 1_455
Mn0 O5 1.971661 1_545
Mn0 O4 2.182934 1_555
Mn0 O3 2.290881 1_555
Mn1 O6 1.968445 1_655
Mn1 O6 1.968445 1_565
Mn1 O3 1.971661 1_655
Mn1 O3 1.971661 1_565
Mn1 O0 2.182934 1_555
Mn1 O5 2.290881 1_555
Co0 O0 2.002266 1_455
Co0 O0 2.002266 1_545
Co0 O7 2.012484 1_455
Co0 O7 2.012484 1_545
Co0 O1 2.062024 1_556
Co0 O6 2.197866 1_555
Co1 O4 2.002266 1_655
Co1 O4 2.002266 1_565
Co1 O1 2.012484 1_655
Co1 O1 2.012484 1_565
Co1 O7 2.062024 1_554
Co1 O2 2.197866 1_555
