# generated using pymatgen
data_Na5Y(MoO4)4
_symmetry_space_group_name_H-M   'P 1'
_cell_length_a   10.02501358
_cell_length_b   10.02501380
_cell_length_c   10.02501393
_cell_angle_alpha   109.46939702
_cell_angle_beta   109.47213805
_cell_angle_gamma   109.47212858
_symmetry_Int_Tables_number   1
_chemical_formula_structural   Na5Y(MoO4)4
_chemical_formula_sum   'Na10 Y2 Mo8 O32'
_cell_volume   775.59148603
_cell_formula_units_Z   2
loop_
 _symmetry_equiv_pos_site_id
 _symmetry_equiv_pos_as_xyz
  1  'x, y, z'
loop_
 _atom_site_type_symbol
 _atom_site_label
 _atom_site_symmetry_multiplicity
 _atom_site_fract_x
 _atom_site_fract_y
 _atom_site_fract_z
 _atom_site_occupancy
  Na  Na0  1  0.25000000  0.87500000  0.62500000  1
  Na  Na1  1  0.75000000  0.12500000  0.37500000  1
  Na  Na2  1  0.83244000  0.72167100  0.29641200  1
  Na  Na3  1  0.57474100  0.79641200  0.46397200  1
  Na  Na4  1  0.92525800  0.38923100  0.22167100  1
  Na  Na5  1  0.66756000  0.96397300  0.88923100  1
  Na  Na6  1  0.16756000  0.27832900  0.70358800  1
  Na  Na7  1  0.42525900  0.20358700  0.53602800  1
  Na  Na8  1  0.07474100  0.61076900  0.77832900  1
  Na  Na9  1  0.33244000  0.03602800  0.11077000  1
  Y  Y0  1  0.75000000  0.62499900  0.87500000  1
  Y  Y1  1  0.25000000  0.37500000  0.12500000  1
  Mo  Mo0  1  0.33708300  0.54501600  0.56971100  1
  Mo  Mo1  1  0.47530500  0.70793400  0.04501600  1
  Mo  Mo2  1  0.02469400  0.06971000  0.23262800  1
  Mo  Mo3  1  0.16291800  0.73262900  0.20793400  1
  Mo  Mo4  1  0.83708200  0.26737100  0.79206600  1
  Mo  Mo5  1  0.52469500  0.29206600  0.95498400  1
  Mo  Mo6  1  0.97530500  0.93028900  0.76737100  1
  Mo  Mo7  1  0.66291800  0.45498400  0.43028900  1
  O  O0  1  0.79027300  0.48671600  0.34319100  1
  O  O1  1  0.85647500  0.84319200  0.55291900  1
  O  O2  1  0.64352500  0.19644400  0.98671700  1
  O  O3  1  0.70972700  0.05291800  0.69644300  1
  O  O4  1  0.20972700  0.51328300  0.65680800  1
  O  O5  1  0.14352500  0.15680800  0.44708200  1
  O  O6  1  0.35647500  0.80355600  0.01328300  1
  O  O7  1  0.29027300  0.94708100  0.30355700  1
  O  O8  1  0.51273000  0.51839300  0.36444500  1
  O  O9  1  0.84605300  0.86444600  0.85171600  1
  O  O10  1  0.65394700  0.50566300  0.01839200  1
  O  O11  1  0.98727100  0.35171600  0.00566400  1
  O  O12  1  0.48727100  0.48160700  0.63555400  1
  O  O13  1  0.15394800  0.13555500  0.14828400  1
  O  O14  1  0.34605300  0.49433600  0.98160700  1
  O  O15  1  0.01272900  0.64828400  0.99433600  1
  O  O16  1  0.42127600  0.27155300  0.07080100  1
  O  O17  1  0.79924700  0.57080000  0.64952400  1
  O  O18  1  0.70075300  0.35027700  0.77155300  1
  O  O19  1  0.07872400  0.14952400  0.85027700  1
  O  O20  1  0.07253800  0.69755200  0.32905300  1
  O  O21  1  0.63150000  0.82905200  0.25651500  1
  O  O22  1  0.86849900  0.12501400  0.19755100  1
  O  O23  1  0.42746300  0.75651400  0.62501400  1
  O  O24  1  0.92746200  0.30244800  0.67094800  1
  O  O25  1  0.36850000  0.17094800  0.74348600  1
  O  O26  1  0.57872400  0.72844700  0.92920000  1
  O  O27  1  0.57253700  0.24348500  0.37498500  1
  O  O28  1  0.92127600  0.85047600  0.14972300  1
  O  O29  1  0.29924700  0.64972300  0.22844700  1
  O  O30  1  0.20075300  0.42920000  0.35047600  1
  O  O31  1  0.13150000  0.87498500  0.80244800  1
loop_
_geom_bond_atom_site_label_1
_geom_bond_atom_site_label_2
_geom_bond_distance
_geom_bond_site_symmetry_2
Na0 O20 2.446376 1_555
Na0 O25 2.446383 1_565
Na0 O31 2.446384 1_555
Na0 O23 2.446392 1_555
Na1 O24 2.446383 1_555
Na1 O27 2.446384 1_555
Na1 O21 2.446384 1_545
Na1 O22 2.446385 1_555
Na2 O1 2.336163 1_555
Na2 O10 2.393269 1_555
Na2 O20 2.423792 1_655
Na2 O28 2.448536 1_555
Na2 O0 2.480188 1_555
Na2 O21 2.563656 1_555
Na3 O3 2.336152 1_565
Na3 O8 2.393262 1_555
Na3 O21 2.423784 1_555
Na3 O29 2.448536 1_555
Na3 O1 2.480183 1_555
Na3 O23 2.563649 1_555
Na4 O0 2.336144 1_555
Na4 O11 2.393266 1_555
Na4 O22 2.423790 1_555
Na4 O30 2.448545 1_655
Na4 O2 2.480178 1_554
Na4 O20 2.563655 1_655
Na5 O2 2.336154 1_565
Na5 O9 2.393269 1_555
Na5 O23 2.423792 1_555
Na5 O26 2.448545 1_555
Na5 O3 2.480182 1_565
Na5 O22 2.563648 1_566
Na6 O5 2.336154 1_555
Na6 O14 2.393260 1_555
Na6 O24 2.423793 1_455
Na6 O19 2.448536 1_555
Na6 O4 2.480184 1_555
Na6 O25 2.563656 1_555
Na7 O7 2.336152 1_545
Na7 O12 2.393270 1_555
Na7 O25 2.423790 1_555
Na7 O18 2.448535 1_555
Na7 O5 2.480187 1_555
Na7 O27 2.563658 1_555
Na8 O4 2.336163 1_555
Na8 O15 2.393260 1_555
Na8 O31 2.423784 1_555
Na8 O17 2.448536 1_455
Na8 O6 2.480183 1_556
Na8 O24 2.563657 1_455
Na9 O6 2.336164 1_545
Na9 O13 2.393257 1_555
Na9 O27 2.423779 1_555
Na9 O16 2.448536 1_555
Na9 O7 2.480184 1_545
Na9 O31 2.563663 1_544
Mo0 O4 1.775182 1_555
Mo0 O23 1.795711 1_555
Mo0 O30 1.812405 1_555
Mo0 O12 1.833559 1_555
Mo1 O6 1.775174 1_555
Mo1 O21 1.795717 1_555
Mo1 O26 1.812404 1_554
Mo1 O14 1.833567 1_554
Mo2 O5 1.775190 1_555
Mo2 O22 1.795717 1_455
Mo2 O28 1.812396 1_445
Mo2 O13 1.833571 1_555
Mo3 O7 1.775173 1_555
Mo3 O20 1.795720 1_555
Mo3 O29 1.812404 1_555
Mo3 O15 1.833569 1_554
Mo4 O3 1.775181 1_555
Mo4 O24 1.795711 1_555
Mo4 O18 1.812404 1_555
Mo4 O11 1.833569 1_556
Mo5 O2 1.775174 1_555
Mo5 O25 1.795710 1_555
Mo5 O16 1.812412 1_556
Mo5 O10 1.833562 1_556
Mo6 O1 1.775174 1_555
Mo6 O31 1.795717 1_655
Mo6 O19 1.812404 1_665
Mo6 O9 1.833559 1_555
Mo7 O0 1.775181 1_555
Mo7 O27 1.795717 1_555
Mo7 O17 1.812404 1_555
Mo7 O8 1.833561 1_555
O8 Y1 2.392943 1_555
O9 Y0 2.392957 1_555
O10 Y0 2.392933 1_554
O11 Y1 2.392937 1_655
O12 Y0 2.392943 1_555
O13 Y1 2.392938 1_555
O14 Y1 2.392942 1_556
O15 Y0 2.392933 1_455
O16 Y1 2.398436 1_555
O17 Y0 2.398440 1_555
O18 Y0 2.398430 1_555
O19 Y1 2.398440 1_556
O26 Y0 2.398446 1_555
O28 Y0 2.398443 1_554
O29 Y1 2.398440 1_555
O30 Y1 2.398440 1_555
