# generated using pymatgen
data_YAlPt
_symmetry_space_group_name_H-M   'P 1'
_cell_length_a   4.41219268
_cell_length_b   6.92693092
_cell_length_c   7.69669675
_cell_angle_alpha   90.00000000
_cell_angle_beta   90.00000000
_cell_angle_gamma   90.00000000
_symmetry_Int_Tables_number   1
_chemical_formula_structural   YAlPt
_chemical_formula_sum   'Y4 Al4 Pt4'
_cell_volume   235.23378795
_cell_formula_units_Z   4
loop_
 _symmetry_equiv_pos_site_id
 _symmetry_equiv_pos_as_xyz
  1  'x, y, z'
loop_
 _atom_site_type_symbol
 _atom_site_label
 _atom_site_symmetry_multiplicity
 _atom_site_fract_x
 _atom_site_fract_y
 _atom_site_fract_z
 _atom_site_occupancy
  Y  Y0  1  0.75000000  0.47434514  0.81669226  1
  Y  Y1  1  0.75000000  0.97434514  0.68330774  1
  Y  Y2  1  0.25000000  0.52565486  0.18330774  1
  Y  Y3  1  0.25000000  0.02565486  0.31669226  1
  Al  Al0  1  0.75000000  0.35303766  0.43431084  1
  Al  Al1  1  0.75000000  0.85303766  0.06568916  1
  Al  Al2  1  0.25000000  0.64696234  0.56568916  1
  Al  Al3  1  0.25000000  0.14696234  0.93431084  1
  Pt  Pt0  1  0.75000000  0.22409884  0.11427531  1
  Pt  Pt1  1  0.75000000  0.72409884  0.38572469  1
  Pt  Pt2  1  0.25000000  0.77590116  0.88572469  1
  Pt  Pt3  1  0.25000000  0.27590116  0.61427531  1
loop_
_geom_bond_atom_site_label_1
_geom_bond_atom_site_label_2
_geom_bond_distance
_geom_bond_site_symmetry_2
Al0 Pt1 2.597376 1_555
Al0 Pt0 2.620144 1_555
Al0 Pt3 2.659126 1_655
Al0 Pt3 2.659126 1_555
Al0 Y0 3.060681 1_555
Al0 Y2 3.166827 1_655
Al0 Y2 3.166827 1_555
Al0 Y1 3.248669 1_545
Al0 Y3 3.290761 1_555
Al0 Y3 3.290761 1_655
Al1 Pt0 2.597376 1_565
Al1 Pt1 2.620144 1_555
Al1 Pt2 2.659126 1_654
Al1 Pt2 2.659126 1_554
Al1 Y1 3.060681 1_554
Al1 Y3 3.166827 1_565
Al1 Y3 3.166827 1_665
Al1 Y0 3.248669 1_554
Al1 Y2 3.290761 1_555
Al1 Y2 3.290761 1_655
Al2 Pt3 2.597376 1_555
Al2 Pt2 2.620144 1_555
Al2 Pt1 2.659126 1_455
Al2 Pt1 2.659126 1_555
Al2 Y2 3.060681 1_555
Al2 Y0 3.166827 1_455
Al2 Y0 3.166827 1_555
Al2 Y3 3.248669 1_565
Al2 Y1 3.290761 1_455
Al2 Y1 3.290761 1_555
Al3 Pt2 2.597376 1_545
Al3 Pt3 2.620144 1_555
Al3 Pt0 2.659126 1_556
Al3 Pt0 2.659126 1_456
Al3 Y3 3.060681 1_556
Al3 Y1 3.166827 1_445
Al3 Y1 3.166827 1_545
Al3 Y2 3.248669 1_556
Al3 Y0 3.290761 1_455
Al3 Y0 3.290761 1_555
Pt0 Y0 2.872416 1_554
Pt0 Y3 3.030444 1_555
Pt0 Y3 3.030444 1_655
Pt0 Y2 3.084233 1_655
Pt0 Y2 3.084233 1_555
Pt1 Y1 2.872416 1_555
Pt1 Y2 3.030444 1_655
Pt1 Y2 3.030444 1_555
Pt1 Y3 3.084233 1_565
Pt1 Y3 3.084233 1_665
Pt2 Y2 2.872416 1_556
Pt2 Y1 3.030444 1_455
Pt2 Y1 3.030444 1_555
Pt2 Y0 3.084233 1_555
Pt2 Y0 3.084233 1_455
Pt3 Y3 2.872416 1_555
Pt3 Y0 3.030444 1_555
Pt3 Y0 3.030444 1_455
Pt3 Y1 3.084233 1_545
Pt3 Y1 3.084233 1_445
