# generated using pymatgen
data_LiTiFe5O8
_symmetry_space_group_name_H-M   'P 1'
_cell_length_a   6.02837774
_cell_length_b   6.36055689
_cell_length_c   5.97242587
_cell_angle_alpha   91.00002341
_cell_angle_beta   59.41772468
_cell_angle_gamma   118.77342133
_symmetry_Int_Tables_number   1
_chemical_formula_structural   LiTiFe5O8
_chemical_formula_sum   'Li1 Ti1 Fe5 O8'
_cell_volume   164.77222049
_cell_formula_units_Z   1
loop_
 _symmetry_equiv_pos_site_id
 _symmetry_equiv_pos_as_xyz
  1  'x, y, z'
loop_
 _atom_site_type_symbol
 _atom_site_label
 _atom_site_symmetry_multiplicity
 _atom_site_fract_x
 _atom_site_fract_y
 _atom_site_fract_z
 _atom_site_occupancy
  Li  Li0  1  0.50000000  0.50000000  0.00000000  1
  Ti  Ti0  1  0.50000000  0.00000000  0.50000000  1
  Fe  Fe0  1  0.18623800  0.04702400  0.16054400  1
  Fe  Fe1  1  0.81376200  0.95297600  0.83945600  1
  Fe  Fe2  1  0.50000000  0.50000000  0.50000000  1
  Fe  Fe3  1  0.00000000  0.50000000  0.00000000  1
  Fe  Fe4  1  0.00000000  0.50000000  0.50000000  1
  O  O0  1  0.96027100  0.68905500  0.27326300  1
  O  O1  1  0.97120300  0.22571800  0.26137400  1
  O  O2  1  0.48410200  0.22323300  0.75110100  1
  O  O3  1  0.48380300  0.21595400  0.26949300  1
  O  O4  1  0.03972900  0.31094500  0.72673700  1
  O  O5  1  0.02879700  0.77428200  0.73862600  1
  O  O6  1  0.51589800  0.77676700  0.24889900  1
  O  O7  1  0.51619700  0.78404600  0.73050700  1
loop_
_geom_bond_atom_site_label_1
_geom_bond_atom_site_label_2
_geom_bond_distance
_geom_bond_site_symmetry_2
Li0 O6 2.282355 1_555
Li0 O2 2.282355 1_554
Li0 O5 2.306509 1_654
Li0 O1 2.306509 1_455
Li0 O7 2.374027 1_554
Li0 O3 2.374027 1_555
Fe0 O0 1.904597 1_445
Fe0 O1 1.983708 1_455
Fe0 O3 2.025716 1_555
Fe0 O2 2.037269 1_554
Fe1 O4 1.904597 1_665
Fe1 O5 1.983708 1_655
Fe1 O7 2.025716 1_555
Fe1 O6 2.037269 1_556
Fe2 O4 2.000021 1_555
Fe2 O0 2.000021 1_555
Fe2 O7 2.247012 1_555
Fe2 O3 2.247012 1_555
Fe2 O2 2.267310 1_555
Fe2 O6 2.267310 1_555
Fe3 O0 1.994476 1_455
Fe3 O4 1.994476 1_554
Fe3 O5 2.244617 1_554
Fe3 O1 2.244617 1_455
Fe3 O7 2.265137 1_554
Fe3 O3 2.265137 1_455
Fe4 O0 2.000311 1_455
Fe4 O4 2.000311 1_555
Fe4 O5 2.231199 1_555
Fe4 O1 2.231199 1_455
Fe4 O6 2.257414 1_555
Fe4 O2 2.257414 1_455
O1 Ti0 2.046277 1_555
O2 Ti0 2.045662 1_555
O3 Ti0 2.030627 1_555
O5 Ti0 2.046277 1_565
O6 Ti0 2.045662 1_565
O7 Ti0 2.030627 1_565
