# generated using pymatgen
data_Sr2ZnBi2
_symmetry_space_group_name_H-M   'P 1'
_cell_length_a   4.83666273
_cell_length_b   4.83666273
_cell_length_c   8.83719300
_cell_angle_alpha   90.00000000
_cell_angle_beta   90.00000000
_cell_angle_gamma   120.00000993
_symmetry_Int_Tables_number   1
_chemical_formula_structural   Sr2ZnBi2
_chemical_formula_sum   'Sr2 Zn1 Bi2'
_cell_volume   179.03442092
_cell_formula_units_Z   1
loop_
 _symmetry_equiv_pos_site_id
 _symmetry_equiv_pos_as_xyz
  1  'x, y, z'
loop_
 _atom_site_type_symbol
 _atom_site_label
 _atom_site_symmetry_multiplicity
 _atom_site_fract_x
 _atom_site_fract_y
 _atom_site_fract_z
 _atom_site_occupancy
  Sr  Sr0  1  0.66666700  0.33333300  0.71585900  1
  Sr  Sr1  1  0.66666700  0.33333300  0.28414100  1
  Zn  Zn0  1  0.33333300  0.66666700  0.00000000  1
  Bi  Bi0  1  0.33333300  0.66666700  0.50000000  1
  Bi  Bi1  1  0.00000000  0.00000000  0.00000000  1
loop_
_geom_bond_atom_site_label_1
_geom_bond_atom_site_label_2
_geom_bond_distance
_geom_bond_site_symmetry_2
Sr0 Zn0 3.755385 1_546
Sr0 Zn0 3.755385 1_656
Sr0 Zn0 3.755392 1_556
Sr1 Zn0 3.755385 1_545
Sr1 Zn0 3.755385 1_655
Sr1 Zn0 3.755392 1_555
Bi0 Sr1 3.381810 1_455
Bi0 Sr0 3.381810 1_455
Bi0 Sr0 3.381810 1_565
Bi0 Sr1 3.381810 1_565
Bi0 Sr0 3.381818 1_555
Bi0 Sr1 3.381818 1_555
Bi1 Zn0 2.792446 1_545
Bi1 Zn0 2.792450 1_445
Bi1 Zn0 2.792450 1_555
Bi1 Sr0 3.755385 1_454
Bi1 Sr1 3.755385 1_455
Bi1 Sr1 3.755388 1_445
Bi1 Sr0 3.755388 1_554
Bi1 Sr0 3.755388 1_444
Bi1 Sr1 3.755388 1_555
