# generated using pymatgen
data_Mn3AlN3
_symmetry_space_group_name_H-M   'P 1'
_cell_length_a   7.26134878
_cell_length_b   6.23317494
_cell_length_c   3.98811900
_cell_angle_alpha   90.00000000
_cell_angle_beta   90.00000000
_cell_angle_gamma   122.40314515
_symmetry_Int_Tables_number   1
_chemical_formula_structural   Mn3AlN3
_chemical_formula_sum   'Mn6 Al2 N6'
_cell_volume   152.40202758
_cell_formula_units_Z   2
loop_
 _symmetry_equiv_pos_site_id
 _symmetry_equiv_pos_as_xyz
  1  'x, y, z'
loop_
 _atom_site_type_symbol
 _atom_site_label
 _atom_site_symmetry_multiplicity
 _atom_site_fract_x
 _atom_site_fract_y
 _atom_site_fract_z
 _atom_site_occupancy
  Mn  Mn0  1  0.87246000  0.70192600  0.25000000  1
  Mn  Mn1  1  0.81816700  0.09251300  0.25000000  1
  Mn  Mn2  1  0.39005200  0.28179200  0.25000000  1
  Mn  Mn3  1  0.12754000  0.29807400  0.75000000  1
  Mn  Mn4  1  0.18183300  0.90748700  0.75000000  1
  Mn  Mn5  1  0.60994800  0.71820800  0.75000000  1
  Al  Al0  1  0.68036400  0.30759700  0.75000000  1
  Al  Al1  1  0.31963600  0.69240300  0.25000000  1
  N  N0  1  0.87515900  0.65911600  0.75000000  1
  N  N1  1  0.79226400  0.10190000  0.75000000  1
  N  N2  1  0.41490300  0.29580100  0.75000000  1
  N  N3  1  0.12484100  0.34088400  0.25000000  1
  N  N4  1  0.20773600  0.89810000  0.25000000  1
  N  N5  1  0.58509700  0.70419900  0.25000000  1
loop_
_geom_bond_atom_site_label_1
_geom_bond_atom_site_label_2
_geom_bond_distance
_geom_bond_site_symmetry_2
Mn0 N0 2.013322 1_554
Mn0 N0 2.013322 1_555
Mn0 N4 2.057120 1_655
Mn0 N5 2.094269 1_555
Mn1 N3 1.913329 1_655
Mn1 N1 2.006706 1_554
Mn1 N1 2.006706 1_555
Mn1 N5 2.081458 1_545
Mn2 N2 1.999893 1_555
Mn2 N2 1.999893 1_554
Mn2 N4 2.019683 1_545
Mn2 N3 2.145822 1_555
Mn2 N5 2.222991 1_555
Mn3 N3 2.013322 1_556
Mn3 N3 2.013322 1_555
Mn3 N1 2.057120 1_455
Mn3 N2 2.094269 1_555
Mn4 N0 1.913329 1_455
Mn4 N4 2.006706 1_555
Mn4 N4 2.006706 1_556
Mn4 N2 2.081458 1_565
Mn5 N5 1.999893 1_556
Mn5 N5 1.999893 1_555
Mn5 N1 2.019683 1_565
Mn5 N0 2.145822 1_555
Mn5 N2 2.222991 1_555
Al0 N1 1.849506 1_555
Al0 N0 1.865471 1_555
Al0 N2 1.889224 1_555
Al1 N4 1.849506 1_555
Al1 N3 1.865471 1_555
Al1 N5 1.889224 1_555
