# generated using pymatgen
data_ScMo3O8
_symmetry_space_group_name_H-M   'P 1'
_cell_length_a   4.54308700
_cell_length_b   6.10614815
_cell_length_c   6.11176685
_cell_angle_alpha   118.19500051
_cell_angle_beta   90.40673272
_cell_angle_gamma   90.29720777
_symmetry_Int_Tables_number   1
_chemical_formula_structural   ScMo3O8
_chemical_formula_sum   'Sc1 Mo3 O8'
_cell_volume   149.41686479
_cell_formula_units_Z   1
loop_
 _symmetry_equiv_pos_site_id
 _symmetry_equiv_pos_as_xyz
  1  'x, y, z'
loop_
 _atom_site_type_symbol
 _atom_site_label
 _atom_site_symmetry_multiplicity
 _atom_site_fract_x
 _atom_site_fract_y
 _atom_site_fract_z
 _atom_site_occupancy
  Sc  Sc0  1  0.00000000  0.50000000  0.00000000  1
  Mo  Mo0  1  0.50000000  0.50000000  0.50000000  1
  Mo  Mo1  1  0.50000000  0.00000000  0.50000000  1
  Mo  Mo2  1  0.50000000  0.00000000  0.00000000  1
  O  O0  1  0.26100500  0.83939000  0.17581900  1
  O  O1  1  0.72374600  0.17891700  0.35030500  1
  O  O2  1  0.73330600  0.65476200  0.34662000  1
  O  O3  1  0.72992900  0.67426800  0.83478400  1
  O  O4  1  0.26669400  0.34523800  0.65338000  1
  O  O5  1  0.27625400  0.82108300  0.64969500  1
  O  O6  1  0.73899500  0.16061000  0.82418100  1
  O  O7  1  0.27007100  0.32573200  0.16521600  1
loop_
_geom_bond_atom_site_label_1
_geom_bond_atom_site_label_2
_geom_bond_distance
_geom_bond_site_symmetry_2
Mo0 O2 1.932886 1_555
Mo0 O4 1.932886 1_555
Mo0 O1 2.013226 1_555
Mo0 O5 2.013226 1_555
Mo0 O3 2.076246 1_555
Mo0 O7 2.076246 1_555
Mo1 O1 2.002507 1_555
Mo1 O5 2.002507 1_545
Mo1 O6 2.046609 1_555
Mo1 O0 2.046609 1_545
Mo1 O4 2.148514 1_555
Mo1 O2 2.148514 1_545
Mo2 O7 2.050728 1_555
Mo2 O3 2.050728 1_544
Mo2 O0 2.072854 1_545
Mo2 O6 2.072854 1_554
Mo2 O5 2.134937 1_544
Mo2 O1 2.134937 1_555
O0 Sc0 2.169690 1_555
O2 Sc0 2.237296 1_655
O3 Sc0 2.160708 1_656
O4 Sc0 2.237296 1_556
O6 Sc0 2.169690 1_656
O7 Sc0 2.160708 1_555
