# generated using pymatgen
data_Cs2Cu2Sb2S5
_symmetry_space_group_name_H-M   'P 1'
_cell_length_a   7.51528100
_cell_length_b   8.74630680
_cell_length_c   10.00376869
_cell_angle_alpha   91.29511459
_cell_angle_beta   91.49204685
_cell_angle_gamma   101.65183793
_symmetry_Int_Tables_number   1
_chemical_formula_structural   Cs2Cu2Sb2S5
_chemical_formula_sum   'Cs4 Cu4 Sb4 S10'
_cell_volume   643.52785168
_cell_formula_units_Z   2
loop_
 _symmetry_equiv_pos_site_id
 _symmetry_equiv_pos_as_xyz
  1  'x, y, z'
loop_
 _atom_site_type_symbol
 _atom_site_label
 _atom_site_symmetry_multiplicity
 _atom_site_fract_x
 _atom_site_fract_y
 _atom_site_fract_z
 _atom_site_occupancy
  Cs  Cs0  1  0.27265700  0.56428800  0.61277700  1
  Cs  Cs1  1  0.72734300  0.43571200  0.38722300  1
  Cs  Cs2  1  0.73150900  0.30646500  0.90517400  1
  Cs  Cs3  1  0.26849100  0.69353500  0.09482600  1
  Cu  Cu0  1  0.60157100  0.99517800  0.61180600  1
  Cu  Cu1  1  0.39842900  0.00482200  0.38819400  1
  Cu  Cu2  1  0.88631700  0.86162100  0.57781700  1
  Cu  Cu3  1  0.11368300  0.13837900  0.42218300  1
  Sb  Sb0  1  0.81330600  0.92469400  0.25943500  1
  Sb  Sb1  1  0.18669400  0.07530600  0.74056500  1
  Sb  Sb2  1  0.80184900  0.85622200  0.88013600  1
  Sb  Sb3  1  0.19815100  0.14377800  0.11986400  1
  S  S0  1  0.07797100  0.85657700  0.38734300  1
  S  S1  1  0.92202900  0.14342300  0.61265700  1
  S  S2  1  0.58444200  0.81576800  0.42579300  1
  S  S3  1  0.41555800  0.18423200  0.57420700  1
  S  S4  1  0.85985600  0.66014100  0.72110400  1
  S  S5  1  0.14014400  0.33985900  0.27889600  1
  S  S6  1  0.49864700  0.88513700  0.81250500  1
  S  S7  1  0.50135300  0.11486300  0.18749500  1
  S  S8  1  0.74848200  0.69292300  0.09202700  1
  S  S9  1  0.25151800  0.30707700  0.90797300  1
loop_
_geom_bond_atom_site_label_1
_geom_bond_atom_site_label_2
_geom_bond_distance
_geom_bond_site_symmetry_2
Cs0 S2 3.487070 1_555
Cs0 S6 3.520839 1_555
Cs0 S4 3.561760 1_455
Cs0 S3 3.709090 1_555
Cs0 S9 3.739942 1_555
Cs0 S5 3.839491 1_555
Cs0 S0 3.919396 1_555
Cs0 S1 4.071252 1_455
Cs1 S3 3.487070 1_555
Cs1 S7 3.520839 1_555
Cs1 S5 3.561760 1_655
Cs1 S2 3.709090 1_555
Cs1 S8 3.739942 1_555
Cs1 S4 3.839491 1_555
Cs1 S1 3.919396 1_555
Cs1 S0 4.071252 1_655
Cs2 S9 3.609189 1_555
Cs2 S4 3.610367 1_555
Cs2 S7 3.615825 1_556
Cs2 S1 3.674366 1_555
Cs2 S8 3.803034 1_556
Cs2 S6 3.828558 1_545
Cs2 S9 3.906306 1_655
Cs2 Cu0 3.923623 1_545
Cs2 S3 4.018507 1_555
Cs2 Sb2 4.080797 1_545
Cs3 S8 3.609189 1_555
Cs3 S5 3.610367 1_555
Cs3 S6 3.615825 1_554
Cs3 S0 3.674366 1_555
Cs3 S9 3.803034 1_554
Cs3 S7 3.828558 1_565
Cs3 S8 3.906306 1_455
Cs3 Cu1 3.923623 1_565
Cs3 S2 4.018507 1_555
Cs3 Sb3 4.080797 1_565
Cu0 S6 2.328773 1_555
Cu0 S2 2.390713 1_555
Cu0 S3 2.400891 1_565
Cu0 S1 2.493674 1_565
Cu1 S7 2.328773 1_555
Cu1 S3 2.390713 1_555
Cu1 S2 2.400891 1_545
Cu1 S0 2.493674 1_545
Cu2 S4 2.277511 1_555
Cu2 S0 2.423235 1_655
Cu2 S1 2.440795 1_565
Cu2 S2 2.654400 1_555
Cu3 S5 2.277511 1_555
Cu3 S1 2.423235 1_455
Cu3 S0 2.440795 1_545
Cu3 S3 2.654400 1_555
S0 Sb0 2.515761 1_455
S1 Sb1 2.515761 1_655
S2 Sb0 2.488854 1_555
S3 Sb1 2.488854 1_555
S4 Sb2 2.424254 1_555
S5 Sb3 2.424254 1_555
S6 Sb2 2.423666 1_555
S7 Sb3 2.423666 1_555
S8 Sb0 2.560554 1_555
S8 Sb2 2.577538 1_554
S9 Sb1 2.560554 1_555
S9 Sb3 2.577538 1_556
