# generated using pymatgen
data_Ta11(SiSe4)2
_symmetry_space_group_name_H-M   'P 1'
_cell_length_a   3.48096245
_cell_length_b   11.93226146
_cell_length_c   19.54917335
_cell_angle_alpha   90.00000000
_cell_angle_beta   90.00000000
_cell_angle_gamma   90.00000000
_symmetry_Int_Tables_number   1
_chemical_formula_structural   Ta11(SiSe4)2
_chemical_formula_sum   'Ta22 Si4 Se16'
_cell_volume   811.98965685
_cell_formula_units_Z   2
loop_
 _symmetry_equiv_pos_site_id
 _symmetry_equiv_pos_as_xyz
  1  'x, y, z'
loop_
 _atom_site_type_symbol
 _atom_site_label
 _atom_site_symmetry_multiplicity
 _atom_site_fract_x
 _atom_site_fract_y
 _atom_site_fract_z
 _atom_site_occupancy
  Ta  Ta0  1  -0.00000000  0.56463486  0.11299089  1
  Ta  Ta1  1  -0.00000000  0.43532097  0.88701939  1
  Ta  Ta2  1  0.50000000  0.93532097  0.61298061  1
  Ta  Ta3  1  0.50000000  0.06463486  0.38700911  1
  Ta  Ta4  1  0.00000000  0.32178472  0.04711099  1
  Ta  Ta5  1  0.00000000  0.67821080  0.95287656  1
  Ta  Ta6  1  0.50000000  0.17821080  0.54712344  1
  Ta  Ta7  1  0.50000000  0.82178472  0.45288901  1
  Ta  Ta8  1  0.00000000  0.04952590  0.26033893  1
  Ta  Ta9  1  -0.00000000  0.95049797  0.73963721  1
  Ta  Ta10  1  0.50000000  0.45049797  0.76036279  1
  Ta  Ta11  1  0.50000000  0.54952590  0.23966107  1
  Ta  Ta12  1  0.00000000  -0.00003130  0.49999846  1
  Ta  Ta13  1  0.50000000  0.49996870  0.00000154  1
  Ta  Ta14  1  0.00000000  0.34076398  0.21238841  1
  Ta  Ta15  1  -0.00000000  0.65924862  0.78760128  1
  Ta  Ta16  1  0.50000000  0.15924862  0.71239872  1
  Ta  Ta17  1  0.50000000  0.84076398  0.28761159  1
  Ta  Ta18  1  -0.00000000  0.31927865  0.64446532  1
  Ta  Ta19  1  0.00000000  0.68075502  0.35555538  1
  Ta  Ta20  1  0.50000000  0.18075502  0.14444462  1
  Ta  Ta21  1  0.50000000  0.81927865  0.85553468  1
  Si  Si0  1  0.00000000  0.09148408  0.62723022  1
  Si  Si1  1  -0.00000000  0.90846779  0.37276122  1
  Si  Si2  1  0.50000000  0.40846779  0.12723878  1
  Si  Si3  1  0.50000000  0.59148408  0.87276978  1
  Se  Se0  1  -0.00000000  0.71631211  0.21340258  1
  Se  Se1  1  -0.00000000  0.28377768  0.78660775  1
  Se  Se2  1  0.50000000  0.78377768  0.71339225  1
  Se  Se3  1  0.50000000  0.21631211  0.28659742  1
  Se  Se4  1  0.00000000  0.10945048  0.05517508  1
  Se  Se5  1  -0.00000000  0.89057822  0.94482064  1
  Se  Se6  1  0.50000000  0.39057822  0.55517936  1
  Se  Se7  1  0.50000000  0.60945048  0.44482492  1
  Se  Se8  1  -0.00000000  0.21255130  0.44310862  1
  Se  Se9  1  -0.00000000  0.78741397  0.55688375  1
  Se  Se10  1  0.50000000  0.28741397  0.94311625  1
  Se  Se11  1  0.50000000  0.71255130  0.05689138  1
  Se  Se12  1  -0.00000000  0.46317417  0.32472630  1
  Se  Se13  1  -0.00000000  0.53680003  0.67528037  1
  Se  Se14  1  0.50000000  0.03680003  0.82471963  1
  Se  Se15  1  0.50000000  0.96317417  0.17527370  1
loop_
_geom_bond_atom_site_label_1
_geom_bond_atom_site_label_2
_geom_bond_distance
_geom_bond_site_symmetry_2
Si0 Ta16 2.540713 1_555
Si0 Ta16 2.540713 1_455
Si0 Ta6 2.559805 1_455
Si0 Ta6 2.559805 1_555
Si0 Ta2 2.564967 1_545
Si0 Ta2 2.564967 1_445
Si0 Ta12 2.716426 1_555
Si0 Ta18 2.738908 1_555
Si0 Ta9 2.767476 1_545
Si1 Ta17 2.540240 1_455
Si1 Ta17 2.540240 1_555
Si1 Ta7 2.559846 1_555
Si1 Ta7 2.559846 1_455
Si1 Ta3 2.564998 1_565
Si1 Ta3 2.564998 1_465
Si1 Ta12 2.716455 1_565
Si1 Ta19 2.737869 1_555
Si1 Ta8 2.768236 1_565
Si2 Ta14 2.540240 1_655
Si2 Ta14 2.540240 1_555
Si2 Ta4 2.559846 1_555
Si2 Ta4 2.559846 1_655
Si2 Ta0 2.564998 1_655
Si2 Ta0 2.564998 1_555
Si2 Ta13 2.716455 1_555
Si2 Ta20 2.737869 1_555
Si2 Ta11 2.768236 1_555
Si3 Ta15 2.540713 1_655
Si3 Ta15 2.540713 1_555
Si3 Ta5 2.559805 1_555
Si3 Ta5 2.559805 1_655
Si3 Ta1 2.564967 1_555
Si3 Ta1 2.564967 1_655
Si3 Ta13 2.716426 1_556
Si3 Ta21 2.738908 1_555
Si3 Ta10 2.767476 1_555
Se0 Ta0 2.669981 1_555
Se0 Ta11 2.693219 1_555
Se0 Ta11 2.693219 1_455
Se0 Ta17 2.709074 1_455
Se0 Ta17 2.709074 1_555
Se0 Ta19 2.811171 1_555
Se1 Ta1 2.668897 1_555
Se1 Ta10 2.692587 1_555
Se1 Ta10 2.692587 1_455
Se1 Ta16 2.709579 1_555
Se1 Ta16 2.709579 1_455
Se1 Ta18 2.810870 1_555
Se2 Ta2 2.668897 1_555
Se2 Ta9 2.692587 1_555
Se2 Ta9 2.692587 1_655
Se2 Ta15 2.709579 1_555
Se2 Ta15 2.709579 1_655
Se2 Ta21 2.810870 1_555
Se3 Ta3 2.669981 1_555
Se3 Ta8 2.693219 1_655
Se3 Ta8 2.693219 1_555
Se3 Ta14 2.709074 1_555
Se3 Ta14 2.709074 1_655
Se3 Ta20 2.811171 1_555
Se4 Ta4 2.538527 1_555
Se4 Ta20 2.607434 1_455
Se4 Ta20 2.607434 1_555
Se5 Ta5 2.538913 1_555
Se5 Ta21 2.607629 1_455
Se5 Ta21 2.607629 1_555
Se6 Ta6 2.538913 1_555
Se6 Ta18 2.607629 1_555
Se6 Ta18 2.607629 1_655
Se7 Ta7 2.538527 1_555
Se7 Ta19 2.607434 1_555
Se7 Ta19 2.607434 1_655
Se8 Ta6 2.707750 1_455
Se8 Ta6 2.707750 1_555
Se8 Ta3 2.710566 1_455
Se8 Ta3 2.710566 1_555
Se8 Ta12 2.769688 1_555
Se9 Ta7 2.707510 1_455
Se9 Ta7 2.707510 1_555
Se9 Ta2 2.710472 1_455
Se9 Ta2 2.710472 1_555
Se9 Ta12 2.769348 1_565
Se10 Ta4 2.707510 1_556
Se10 Ta4 2.707510 1_656
Se10 Ta1 2.710472 1_555
Se10 Ta1 2.710472 1_655
Se10 Ta13 2.769348 1_556
Se11 Ta5 2.707750 1_654
Se11 Ta5 2.707750 1_554
Se11 Ta0 2.710566 1_555
Se11 Ta0 2.710566 1_655
Se11 Ta13 2.769688 1_555
Se12 Ta11 2.618465 1_455
Se12 Ta11 2.618465 1_555
Se12 Ta14 2.637490 1_555
Se12 Ta19 2.665266 1_555
Se13 Ta10 2.618445 1_555
Se13 Ta10 2.618445 1_455
Se13 Ta15 2.637467 1_555
Se13 Ta18 2.664513 1_555
Se14 Ta9 2.618445 1_645
Se14 Ta9 2.618445 1_545
Se14 Ta16 2.637467 1_555
Se14 Ta21 2.664513 1_545
Se15 Ta8 2.618465 1_565
Se15 Ta8 2.618465 1_665
Se15 Ta17 2.637490 1_555
Se15 Ta20 2.665266 1_565
