# generated using pymatgen
data_Ta2Zn2CuO8
_symmetry_space_group_name_H-M   'P 1'
_cell_length_a   10.14458117
_cell_length_b   10.14458117
_cell_length_c   5.23050036
_cell_angle_alpha   87.71357680
_cell_angle_beta   87.71357680
_cell_angle_gamma   34.40182909
_symmetry_Int_Tables_number   1
_chemical_formula_structural   Ta2Zn2CuO8
_chemical_formula_sum   'Ta4 Zn4 Cu2 O16'
_cell_volume   303.86154665
_cell_formula_units_Z   2
loop_
 _symmetry_equiv_pos_site_id
 _symmetry_equiv_pos_as_xyz
  1  'x, y, z'
loop_
 _atom_site_type_symbol
 _atom_site_label
 _atom_site_symmetry_multiplicity
 _atom_site_fract_x
 _atom_site_fract_y
 _atom_site_fract_z
 _atom_site_occupancy
  Ta  Ta0  1  0.04378800  0.72596100  0.23057900  1
  Ta  Ta1  1  0.27403900  0.95621200  0.26942100  1
  Ta  Ta2  1  0.95621200  0.27403900  0.76942100  1
  Ta  Ta3  1  0.72596100  0.04378800  0.73057900  1
  Zn  Zn0  1  0.87564900  0.56127300  0.26505200  1
  Zn  Zn1  1  0.43872700  0.12435100  0.23494800  1
  Zn  Zn2  1  0.12435100  0.43872700  0.73494800  1
  Zn  Zn3  1  0.56127300  0.87564900  0.76505200  1
  Cu  Cu0  1  0.64398500  0.35601500  0.25000000  1
  Cu  Cu1  1  0.35601500  0.64398500  0.75000000  1
  O  O0  1  0.04939000  0.80830200  0.56060000  1
  O  O1  1  0.19169800  0.95061000  0.93940000  1
  O  O2  1  0.95061000  0.19169800  0.43940000  1
  O  O3  1  0.80830200  0.04939000  0.06060000  1
  O  O4  1  0.31083400  0.57632700  0.06582600  1
  O  O5  1  0.42367300  0.68916600  0.43417400  1
  O  O6  1  0.68916600  0.42367300  0.93417400  1
  O  O7  1  0.57632700  0.31083400  0.56582600  1
  O  O8  1  0.92417100  0.71763000  0.93452500  1
  O  O9  1  0.28237000  0.07582900  0.56547500  1
  O  O10  1  0.45457700  0.15995800  0.85980800  1
  O  O11  1  0.84004200  0.54542300  0.64019200  1
  O  O12  1  0.54542300  0.84004200  0.14019200  1
  O  O13  1  0.15995800  0.45457700  0.35980800  1
  O  O14  1  0.71763000  0.92417100  0.43452500  1
  O  O15  1  0.07582900  0.28237000  0.06547500  1
loop_
_geom_bond_atom_site_label_1
_geom_bond_atom_site_label_2
_geom_bond_distance
_geom_bond_site_symmetry_2
Cu0 O6 1.943782 1_554
Cu0 O7 1.943782 1_555
Cu0 O5 2.229036 1_555
Cu0 O4 2.229036 1_555
Cu0 O2 2.234604 1_555
Cu0 O3 2.234604 1_555
Cu1 O5 1.943782 1_555
Cu1 O4 1.943782 1_556
Cu1 O6 2.229036 1_555
Cu1 O7 2.229036 1_555
Cu1 O1 2.234604 1_555
Cu1 O0 2.234604 1_555
O0 Ta0 1.970247 1_555
O0 Ta3 2.065172 1_465
O1 Ta1 1.970247 1_556
O1 Ta2 2.065172 1_465
O2 Ta2 1.970247 1_555
O2 Ta1 2.065172 1_645
O3 Ta3 1.970247 1_554
O3 Ta0 2.065172 1_645
O4 Ta0 1.875614 1_555
O5 Ta1 1.875614 1_555
O6 Ta2 1.875614 1_555
O7 Ta3 1.875614 1_555
O8 Zn2 1.950357 1_655
O8 Ta0 2.051129 1_656
O8 Ta3 2.244885 1_565
O9 Zn3 1.950357 1_545
O9 Ta1 2.051129 1_545
O9 Ta2 2.244885 1_455
O10 Ta3 1.996552 1_555
O10 Zn1 2.005134 1_556
O10 Zn2 2.010032 1_555
O10 Zn3 2.157649 1_545
O11 Ta2 1.996552 1_555
O11 Zn0 2.005134 1_555
O11 Zn3 2.010032 1_555
O11 Zn2 2.157649 1_655
O12 Ta1 1.996552 1_555
O12 Zn3 2.005134 1_554
O12 Zn0 2.010032 1_555
O12 Zn1 2.157649 1_565
O13 Ta0 1.996552 1_555
O13 Zn2 2.005134 1_555
O13 Zn1 2.010032 1_555
O13 Zn0 2.157649 1_455
O14 Zn1 1.950357 1_565
O14 Ta3 2.051129 1_565
O14 Ta0 2.244885 1_655
O15 Zn0 1.950357 1_455
O15 Ta2 2.051129 1_454
O15 Ta1 2.244885 1_545
