# generated using pymatgen
data_K3C6N9O
_symmetry_space_group_name_H-M   'P 1'
_cell_length_a   3.85612900
_cell_length_b   8.13221828
_cell_length_c   10.20305579
_cell_angle_alpha   107.44706340
_cell_angle_beta   100.09233690
_cell_angle_gamma   92.64400509
_symmetry_Int_Tables_number   1
_chemical_formula_structural   K3C6N9O
_chemical_formula_sum   'K3 C6 N9 O1'
_cell_volume   298.85071258
_cell_formula_units_Z   1
loop_
 _symmetry_equiv_pos_site_id
 _symmetry_equiv_pos_as_xyz
  1  'x, y, z'
loop_
 _atom_site_type_symbol
 _atom_site_label
 _atom_site_symmetry_multiplicity
 _atom_site_fract_x
 _atom_site_fract_y
 _atom_site_fract_z
 _atom_site_occupancy
  K  K0  1  0.02405100  0.97846300  0.00166700  1
  K  K1  1  0.50801100  0.76055400  0.37853800  1
  K  K2  1  0.87571200  0.44089800  0.87410500  1
  C  C0  1  0.07161600  0.17791800  0.50481900  1
  C  C1  1  0.05131300  0.46884200  0.53133500  1
  C  C2  1  0.82906200  0.27277700  0.31395600  1
  C  C3  1  0.28521100  0.08022500  0.68472900  1
  C  C4  1  0.29626300  0.67699000  0.73785100  1
  C  C5  1  0.56009800  0.36049200  0.13648800  1
  N  N0  1  0.41461000  0.10475200  0.80421600  1
  N  N1  1  0.44007500  0.72206800  0.85803700  1
  N  N2  1  0.45253400  0.46896300  0.08878200  1
  N  N3  1  0.12690200  0.34263700  0.58989600  1
  N  N4  1  0.89154000  0.43823100  0.39669600  1
  N  N5  1  0.93581700  0.13707100  0.36196800  1
  N  N6  1  0.14734000  0.04212000  0.55157500  1
  N  N7  1  0.13685600  0.63928100  0.60872200  1
  N  N8  1  0.66310200  0.23078600  0.17782600  1
  O  O0  1  0.90268700  0.97433300  0.27629400  1
loop_
_geom_bond_atom_site_label_1
_geom_bond_atom_site_label_2
_geom_bond_distance
_geom_bond_site_symmetry_2
K0 N1 2.853772 1_454
K0 N8 2.882184 1_465
K0 N1 2.892910 1_554
K0 O0 2.930207 1_455
K0 N8 3.046836 1_565
K0 N0 3.089157 1_564
K0 N0 3.231150 1_464
K1 O0 2.797630 1_555
K1 N6 3.004089 1_565
K1 N4 3.105657 1_555
K1 N2 3.152262 1_555
K1 N6 3.157133 1_665
K1 O0 3.188679 1_455
K1 N7 3.312641 1_555
K2 N2 2.782657 1_656
K2 N2 2.915461 1_556
K2 N1 2.925703 1_555
K2 N0 3.013464 1_555
K2 N3 3.106754 1_655
K2 N1 3.143556 1_655
C0 N3 1.343441 1_555
C0 N6 1.352499 1_555
C0 N5 1.391061 1_455
C1 N4 1.346421 1_455
C1 N3 1.352627 1_555
C1 N7 1.365159 1_555
C2 N4 1.341191 1_555
C2 N8 1.356180 1_555
C2 N5 1.386639 1_555
C3 N0 1.186108 1_555
C3 N6 1.305228 1_555
C4 N1 1.191216 1_555
C4 N7 1.290048 1_555
C5 N2 1.186402 1_555
C5 N8 1.301911 1_555
N5 O0 1.335454 1_545
