# generated using pymatgen
data_Li7Mn2(CoO4)3
_symmetry_space_group_name_H-M   'P 1'
_cell_length_a   5.13436100
_cell_length_b   5.89170954
_cell_length_c   7.69982115
_cell_angle_alpha   101.34640006
_cell_angle_beta   96.40005360
_cell_angle_gamma   106.50254663
_symmetry_Int_Tables_number   1
_chemical_formula_structural   Li7Mn2(CoO4)3
_chemical_formula_sum   'Li7 Mn2 Co3 O12'
_cell_volume   215.46371009
_cell_formula_units_Z   1
loop_
 _symmetry_equiv_pos_site_id
 _symmetry_equiv_pos_as_xyz
  1  'x, y, z'
loop_
 _atom_site_type_symbol
 _atom_site_label
 _atom_site_symmetry_multiplicity
 _atom_site_fract_x
 _atom_site_fract_y
 _atom_site_fract_z
 _atom_site_occupancy
  Li  Li0  1  0.99473700  0.91962000  0.65686400  1
  Li  Li1  1  0.00050500  0.41333200  0.66457000  1
  Li  Li2  1  0.00526300  0.08038000  0.34313600  1
  Li  Li3  1  0.99949500  0.58666800  0.33543000  1
  Li  Li4  1  0.99493700  0.24973500  0.99923000  1
  Li  Li5  1  0.00506300  0.75026500  0.00077000  1
  Li  Li6  1  0.50000000  0.00000000  0.50000000  1
  Mn  Mn0  1  0.50370900  0.83593600  0.83071500  1
  Mn  Mn1  1  0.49629100  0.16406400  0.16928500  1
  Co  Co0  1  0.49688200  0.32743900  0.82200100  1
  Co  Co1  1  0.50000000  0.50000000  0.50000000  1
  Co  Co2  1  0.50311800  0.67256100  0.17799900  1
  O  O0  1  0.73198100  0.63398000  0.75547300  1
  O  O1  1  0.73218900  0.10802800  0.75910300  1
  O  O2  1  0.73604300  0.77770500  0.40217200  1
  O  O3  1  0.72195700  0.29740700  0.40483000  1
  O  O4  1  0.71935300  0.96158000  0.07846600  1
  O  O5  1  0.71698200  0.43519800  0.07773300  1
  O  O6  1  0.26395700  0.22229500  0.59782800  1
  O  O7  1  0.27804300  0.70259300  0.59517000  1
  O  O8  1  0.26801900  0.36602000  0.24452700  1
  O  O9  1  0.26781100  0.89197200  0.24089700  1
  O  O10  1  0.28301800  0.56480200  0.92226700  1
  O  O11  1  0.28064700  0.03842000  0.92153400  1
loop_
_geom_bond_atom_site_label_1
_geom_bond_atom_site_label_2
_geom_bond_distance
_geom_bond_site_symmetry_2
Li0 O6 2.087109 1_665
Li0 O1 2.100455 1_565
Li0 O2 2.110050 1_555
Li0 O0 2.161019 1_555
Li0 O7 2.224450 1_655
Li0 O11 2.232931 1_665
Li1 O6 2.037871 1_555
Li1 O7 2.090211 1_555
Li1 O10 2.182599 1_555
Li1 O3 2.186684 1_455
Li1 O0 2.226218 1_455
Li1 O1 2.234762 1_455
Li2 O2 2.087109 1_445
Li2 O9 2.100455 1_545
Li2 O6 2.110050 1_555
Li2 O8 2.161019 1_555
Li2 O3 2.224450 1_455
Li2 O4 2.232931 1_445
Li3 O2 2.037871 1_555
Li3 O3 2.090211 1_555
Li3 O5 2.182599 1_555
Li3 O7 2.186684 1_655
Li3 O8 2.226218 1_655
Li3 O9 2.234762 1_655
Li4 O1 2.032775 1_555
Li4 O8 2.087422 1_656
Li4 O5 2.101042 1_556
Li4 O4 2.119403 1_546
Li4 O11 2.236068 1_655
Li4 O10 2.247920 1_655
Li5 O9 2.032775 1_555
Li5 O0 2.087422 1_454
Li5 O10 2.101042 1_554
Li5 O11 2.119403 1_564
Li5 O4 2.236068 1_455
Li5 O5 2.247920 1_455
Li6 O1 2.084603 1_555
Li6 O9 2.084603 1_545
Li6 O3 2.112578 1_555
Li6 O7 2.112578 1_545
Li6 O6 2.113898 1_555
Li6 O2 2.113898 1_545
Mn0 O1 1.916696 1_565
Mn0 O7 1.924253 1_555
Mn0 O0 1.948715 1_555
Mn0 O11 1.962237 1_565
Mn0 O4 1.980097 1_556
Mn0 O10 1.981294 1_555
Mn1 O9 1.916696 1_545
Mn1 O3 1.924253 1_555
Mn1 O8 1.948715 1_555
Mn1 O4 1.962237 1_545
Mn1 O11 1.980097 1_554
Mn1 O5 1.981294 1_555
Co0 O6 1.868566 1_555
Co0 O1 2.033874 1_555
Co0 O5 2.040064 1_556
Co0 O0 2.060250 1_555
Co0 O11 2.085353 1_555
Co0 O10 2.096199 1_555
Co1 O3 1.968555 1_555
Co1 O7 1.968555 1_555
Co1 O0 2.060041 1_555
Co1 O8 2.060041 1_555
Co1 O6 2.067638 1_555
Co1 O2 2.067638 1_555
Co2 O2 1.868566 1_555
Co2 O9 2.033874 1_555
Co2 O10 2.040064 1_554
Co2 O8 2.060250 1_555
Co2 O4 2.085353 1_555
Co2 O5 2.096199 1_555
