# generated using pymatgen
data_ZnCu3(WO3)4
_symmetry_space_group_name_H-M   'P 1'
_cell_length_a   6.66849700
_cell_length_b   6.66980243
_cell_length_c   6.67598668
_cell_angle_alpha   109.58181995
_cell_angle_beta   109.45459131
_cell_angle_gamma   109.00889233
_symmetry_Int_Tables_number   1
_chemical_formula_structural   ZnCu3(WO3)4
_chemical_formula_sum   'Zn1 Cu3 W4 O12'
_cell_volume   229.60653312
_cell_formula_units_Z   1
loop_
 _symmetry_equiv_pos_site_id
 _symmetry_equiv_pos_as_xyz
  1  'x, y, z'
loop_
 _atom_site_type_symbol
 _atom_site_label
 _atom_site_symmetry_multiplicity
 _atom_site_fract_x
 _atom_site_fract_y
 _atom_site_fract_z
 _atom_site_occupancy
  Zn  Zn0  1  0.00000000  0.00000000  0.00000000  1
  Cu  Cu0  1  0.00000000  0.50000000  0.50000000  1
  Cu  Cu1  1  0.50000000  0.50000000  0.00000000  1
  Cu  Cu2  1  0.50000000  0.00000000  0.50000000  1
  W  W0  1  0.00000000  0.00000000  0.50000000  1
  W  W1  1  0.50000000  0.50000000  0.50000000  1
  W  W2  1  0.00000000  0.50000000  0.00000000  1
  W  W3  1  0.50000000  0.00000000  0.00000000  1
  O  O0  1  0.48061300  0.30518500  0.17479800  1
  O  O1  1  0.51938700  0.69481500  0.82520200  1
  O  O2  1  0.89488400  0.71228200  0.19844900  1
  O  O3  1  0.19012600  0.47942800  0.31167900  1
  O  O4  1  0.70141900  0.18256900  0.88216800  1
  O  O5  1  0.69988900  0.82031100  0.51865300  1
  O  O6  1  0.19213400  0.88937500  0.71107200  1
  O  O7  1  0.29858100  0.81743100  0.11783200  1
  O  O8  1  0.10511600  0.28771800  0.80155100  1
  O  O9  1  0.80987400  0.52057200  0.68832100  1
  O  O10  1  0.30011100  0.17968900  0.48134700  1
  O  O11  1  0.80786600  0.11062500  0.28892800  1
loop_
_geom_bond_atom_site_label_1
_geom_bond_atom_site_label_2
_geom_bond_distance
_geom_bond_site_symmetry_2
Cu0 O9 2.065522 1_455
Cu0 O3 2.065522 1_555
Cu0 O6 2.132753 1_555
Cu0 O11 2.132753 1_455
Cu1 O0 2.018494 1_555
Cu1 O1 2.018494 1_554
Cu1 O2 2.164267 1_555
Cu1 O8 2.164267 1_554
Cu2 O5 2.063691 1_545
Cu2 O10 2.063691 1_555
Cu2 O4 2.089402 1_555
Cu2 O7 2.089402 1_545
O0 W3 2.049769 1_555
O0 W1 2.056988 1_555
O1 W3 2.049769 1_566
O1 W1 2.056988 1_555
O2 W0 1.954717 1_665
O2 W2 2.063745 1_655
O3 W1 1.959227 1_555
O3 W2 2.122091 1_555
O4 W2 2.039594 1_656
O4 W3 2.046003 1_556
O5 W0 2.039760 1_665
O5 W1 2.052446 1_555
O6 W3 1.975148 1_566
O6 W0 2.069238 1_565
O7 W2 2.039594 1_555
O7 W3 2.046003 1_565
O8 W0 1.954717 1_555
O8 W2 2.063745 1_556
O9 W1 1.959227 1_555
O9 W2 2.122091 1_656
O10 W0 2.039760 1_555
O10 W1 2.052446 1_555
O11 W3 1.975148 1_555
O11 W0 2.069238 1_655
