# generated using pymatgen
data_RbMg14Sn
_symmetry_space_group_name_H-M   'P 1'
_cell_length_a   6.54287238
_cell_length_b   6.66892105
_cell_length_c   10.64889952
_cell_angle_alpha   90.00000000
_cell_angle_beta   90.00000000
_cell_angle_gamma   120.63936076
_symmetry_Int_Tables_number   1
_chemical_formula_structural   RbMg14Sn
_chemical_formula_sum   'Rb1 Mg14 Sn1'
_cell_volume   399.78379045
_cell_formula_units_Z   1
loop_
 _symmetry_equiv_pos_site_id
 _symmetry_equiv_pos_as_xyz
  1  'x, y, z'
loop_
 _atom_site_type_symbol
 _atom_site_label
 _atom_site_symmetry_multiplicity
 _atom_site_fract_x
 _atom_site_fract_y
 _atom_site_fract_z
 _atom_site_occupancy
  Rb  Rb0  1  0.16876743  0.83438321  0.12500000  1
  Mg  Mg0  1  0.16476885  0.33238393  0.62500000  1
  Mg  Mg1  1  0.16840845  0.83420372  0.62500000  1
  Mg  Mg2  1  0.66529551  0.33837085  0.12500000  1
  Mg  Mg3  1  0.66917918  0.33171059  0.62500000  1
  Mg  Mg4  1  0.66529551  0.82692366  0.12500000  1
  Mg  Mg5  1  0.66917918  0.83746760  0.62500000  1
  Mg  Mg6  1  0.33513700  0.17651728  0.38815067  1
  Mg  Mg7  1  0.33513700  0.17651728  0.86184933  1
  Mg  Mg8  1  0.33513700  0.65862072  0.38815067  1
  Mg  Mg9  1  0.33513700  0.65862072  0.86184933  1
  Mg  Mg10  1  0.83222193  0.16611147  0.37137887  1
  Mg  Mg11  1  0.83222193  0.16611147  0.87862113  1
  Mg  Mg12  1  0.82087164  0.66043632  0.39127345  1
  Mg  Mg13  1  0.82087164  0.66043632  0.85872655  1
  Sn  Sn0  1  0.18237075  0.34118488  0.12500000  1
loop_
_geom_bond_atom_site_label_1
_geom_bond_atom_site_label_2
_geom_bond_distance
_geom_bond_site_symmetry_2
Rb0 Sn0 3.335340 1_555
Rb0 Sn0 3.335340 1_565
Mg0 Mg7 3.140932 1_555
Mg0 Mg6 3.140932 1_555
Mg0 Mg9 3.140939 1_555
Mg0 Mg8 3.140939 1_555
Mg0 Mg5 3.240294 1_445
Mg0 Mg3 3.240294 1_455
Mg0 Mg10 3.286156 1_455
Mg0 Mg11 3.286156 1_455
Mg0 Mg5 3.302583 1_555
Mg0 Mg3 3.302583 1_555
Mg0 Mg1 3.334523 1_555
Mg0 Mg1 3.334524 1_545
Mg1 Mg13 3.165820 1_455
Mg1 Mg12 3.165820 1_455
Mg1 Mg9 3.197584 1_555
Mg1 Mg8 3.197584 1_555
Mg1 Mg6 3.197591 1_565
Mg1 Mg7 3.197591 1_565
Mg1 Mg3 3.265440 1_565
Mg1 Mg5 3.265440 1_555
Mg1 Mg3 3.277539 1_455
Mg1 Mg5 3.277540 1_455
Mg2 Sn0 3.169320 1_555
Mg2 Mg4 3.258120 1_555
Mg2 Rb0 3.269080 1_655
Mg2 Rb0 3.274352 1_545
Mg2 Mg6 3.362673 1_555
Mg2 Mg7 3.362673 1_554
Mg2 Sn0 3.373632 1_655
Mg2 Mg4 3.410801 1_545
Mg3 Mg7 3.147031 1_555
Mg3 Mg6 3.147031 1_555
Mg3 Mg5 3.296067 1_545
Mg3 Mg5 3.372854 1_555
Mg4 Sn0 3.169320 1_555
Mg4 Rb0 3.269080 1_655
Mg4 Rb0 3.274352 1_555
Mg4 Mg8 3.362673 1_555
Mg4 Mg9 3.362673 1_554
Mg4 Sn0 3.373632 1_665
Mg5 Mg9 3.147030 1_555
Mg5 Mg8 3.147030 1_555
Mg6 Mg8 3.215110 1_555
Mg6 Sn0 3.343124 1_555
Mg6 Rb0 3.422291 1_545
Mg6 Mg8 3.453811 1_545
Mg7 Mg9 3.215110 1_555
Mg7 Sn0 3.343124 1_556
Mg7 Rb0 3.422291 1_546
Mg7 Mg9 3.453811 1_545
Mg8 Sn0 3.343131 1_555
Mg8 Rb0 3.422284 1_555
Mg9 Sn0 3.343131 1_556
Mg9 Rb0 3.422284 1_556
Mg10 Mg8 3.260585 1_655
Mg10 Mg6 3.260586 1_655
Mg10 Mg2 3.267265 1_555
Mg10 Mg4 3.267272 1_545
Mg10 Sn0 3.281616 1_655
Mg10 Mg8 3.293118 1_545
Mg10 Mg6 3.293118 1_555
Mg10 Mg3 3.294338 1_555
Mg10 Mg5 3.294345 1_545
Mg10 Mg12 3.341795 1_555
Mg10 Mg12 3.341795 1_545
Mg11 Mg9 3.260585 1_655
Mg11 Mg7 3.260586 1_655
Mg11 Mg2 3.267265 1_556
Mg11 Mg4 3.267272 1_546
Mg11 Sn0 3.281616 1_656
Mg11 Mg9 3.293118 1_545
Mg11 Mg7 3.293118 1_555
Mg11 Mg3 3.294338 1_555
Mg11 Mg5 3.294345 1_545
Mg11 Mg13 3.341795 1_555
Mg11 Mg13 3.341795 1_545
Mg12 Mg5 3.125381 1_555
Mg12 Mg3 3.125388 1_555
Mg12 Mg6 3.172120 1_555
Mg12 Mg8 3.172120 1_555
Mg12 Mg6 3.371123 1_665
Mg12 Mg8 3.371123 1_655
Mg12 Mg4 3.385413 1_555
Mg12 Mg2 3.385419 1_555
Mg12 Rb0 3.446117 1_655
Mg13 Mg5 3.125381 1_555
Mg13 Mg3 3.125388 1_555
Mg13 Mg7 3.172120 1_555
Mg13 Mg9 3.172120 1_555
Mg13 Mg7 3.371123 1_665
Mg13 Mg9 3.371123 1_655
Mg13 Mg4 3.385413 1_556
Mg13 Mg2 3.385419 1_556
Mg13 Rb0 3.446117 1_656
