# generated using pymatgen
data_NaH2SNO3
_symmetry_space_group_name_H-M   'P 1'
_cell_length_a   5.64464400
_cell_length_b   12.84267600
_cell_length_c   16.53340600
_cell_angle_alpha   90.00000000
_cell_angle_beta   90.00000000
_cell_angle_gamma   90.00000000
_symmetry_Int_Tables_number   1
_chemical_formula_structural   NaH2SNO3
_chemical_formula_sum   'Na12 H24 S12 N12 O36'
_cell_volume   1198.54519036
_cell_formula_units_Z   12
loop_
 _symmetry_equiv_pos_site_id
 _symmetry_equiv_pos_as_xyz
  1  'x, y, z'
loop_
 _atom_site_type_symbol
 _atom_site_label
 _atom_site_symmetry_multiplicity
 _atom_site_fract_x
 _atom_site_fract_y
 _atom_site_fract_z
 _atom_site_occupancy
  Na  Na0  1  0.93975100  0.55155900  0.73136600  1
  Na  Na1  1  0.56024900  0.44844100  0.23136600  1
  Na  Na2  1  0.43975100  0.94844100  0.26863400  1
  Na  Na3  1  0.06024900  0.05155900  0.76863400  1
  Na  Na4  1  0.93228200  0.78814900  0.22764800  1
  Na  Na5  1  0.56771800  0.21185100  0.72764800  1
  Na  Na6  1  0.43228200  0.71185100  0.77235200  1
  Na  Na7  1  0.06771800  0.28814900  0.27235200  1
  Na  Na8  1  0.00641900  0.78444700  0.62128900  1
  Na  Na9  1  0.49358100  0.21555300  0.12128900  1
  Na  Na10  1  0.50641900  0.71555300  0.37871100  1
  Na  Na11  1  0.99358100  0.28444800  0.87871100  1
  H  H0  1  0.16256100  0.99303000  0.48245200  1
  H  H1  1  0.33743900  0.00697000  0.98245200  1
  H  H2  1  0.66256100  0.50697000  0.51754800  1
  H  H3  1  0.83743900  0.49303000  0.01754800  1
  H  H4  1  0.00992100  0.04524300  0.40435100  1
  H  H5  1  0.49007900  0.95475700  0.90435100  1
  H  H6  1  0.50992100  0.45475700  0.59564900  1
  H  H7  1  0.99007900  0.54524300  0.09564900  1
  H  H8  1  0.40939600  0.26635900  0.50524200  1
  H  H9  1  0.09060400  0.73364100  0.00524200  1
  H  H10  1  0.90939600  0.23364100  0.49475800  1
  H  H11  1  0.59060400  0.76635900  0.99475800  1
  H  H12  1  0.51008700  0.35476900  0.44498100  1
  H  H13  1  0.98991300  0.64523100  0.94498100  1
  H  H14  1  0.01008700  0.14523100  0.55501900  1
  H  H15  1  0.48991300  0.85476900  0.05501900  1
  H  H16  1  0.99363600  0.11975500  0.03043400  1
  H  H17  1  0.50636400  0.88024500  0.53043400  1
  H  H18  1  0.49363600  0.38024500  0.96956600  1
  H  H19  1  0.00636400  0.61975500  0.46956600  1
  H  H20  1  0.89901600  0.99728800  0.02558800  1
  H  H21  1  0.60098400  0.00271200  0.52558800  1
  H  H22  1  0.39901600  0.50271200  0.97441200  1
  H  H23  1  0.10098400  0.49728800  0.47441200  1
  S  S0  1  0.98413500  0.87053000  0.41020000  1
  S  S1  1  0.51586500  0.12947000  0.91020000  1
  S  S2  1  0.48413500  0.62947000  0.58980000  1
  S  S3  1  0.01586500  0.37053000  0.08980000  1
  S  S4  1  0.59157600  0.17957100  0.31190000  1
  S  S5  1  0.90842400  0.82042900  0.81190000  1
  S  S6  1  0.09157600  0.32042900  0.68810000  1
  S  S7  1  0.40842400  0.67957100  0.18810000  1
  S  S8  1  0.98613100  0.04787800  0.15187400  1
  S  S9  1  0.51386900  0.95212200  0.65187400  1
  S  S10  1  0.48613100  0.45212200  0.84812600  1
  S  S11  1  0.01386900  0.54787800  0.34812600  1
  N  N0  1  0.00930500  0.98912900  0.44848300  1
  N  N1  1  0.49069500  0.01087100  0.94848300  1
  N  N2  1  0.50930500  0.51087100  0.55151700  1
  N  N3  1  0.99069500  0.48912900  0.05151700  1
  N  N4  1  0.36292800  0.30809400  0.45386800  1
  N  N5  1  0.13707200  0.69190600  0.95386800  1
  N  N6  1  0.86292800  0.19190600  0.54613200  1
  N  N7  1  0.63707200  0.80809400  0.04613200  1
  N  N8  1  0.02409000  0.04536300  0.05112200  1
  N  N9  1  0.47591000  0.95463700  0.55112200  1
  N  N10  1  0.52409000  0.45463700  0.94887800  1
  N  N11  1  0.97591000  0.54536300  0.44887800  1
  O  O0  1  0.76281700  0.87272800  0.36255500  1
  O  O1  1  0.73718300  0.12727200  0.86255500  1
  O  O2  1  0.26281700  0.62727200  0.63744500  1
  O  O3  1  0.23718300  0.37272800  0.13744500  1
  O  O4  1  0.18874900  0.84543700  0.35707300  1
  O  O5  1  0.31125100  0.15456300  0.85707300  1
  O  O6  1  0.68874900  0.65456300  0.64292700  1
  O  O7  1  0.81125100  0.34543700  0.14292700  1
  O  O8  1  0.97490500  0.80218800  0.48094600  1
  O  O9  1  0.52509500  0.19781200  0.98094600  1
  O  O10  1  0.47490500  0.69781200  0.51905400  1
  O  O11  1  0.02509500  0.30218800  0.01905400  1
  O  O12  1  0.47657300  0.27397100  0.27636500  1
  O  O13  1  0.02342700  0.72602900  0.77636500  1
  O  O14  1  0.97657300  0.22602900  0.72363500  1
  O  O15  1  0.52342700  0.77397100  0.22363500  1
  O  O16  1  0.42078700  0.10545800  0.34796000  1
  O  O17  1  0.07921300  0.89454200  0.84796000  1
  O  O18  1  0.92078700  0.39454200  0.65204000  1
  O  O19  1  0.57921300  0.60545800  0.15204000  1
  O  O20  1  0.79914500  0.20614300  0.36292800  1
  O  O21  1  0.70085500  0.79385700  0.86292800  1
  O  O22  1  0.29914500  0.29385700  0.63707200  1
  O  O23  1  0.20085500  0.70614300  0.13707200  1
  O  O24  1  0.72991600  0.05884100  0.16932400  1
  O  O25  1  0.77008400  0.94115900  0.66932400  1
  O  O26  1  0.22991600  0.44115900  0.83067600  1
  O  O27  1  0.27008400  0.55884100  0.33067600  1
  O  O28  1  0.12624200  0.13859000  0.17743100  1
  O  O29  1  0.37375800  0.86141000  0.67743100  1
  O  O30  1  0.62624200  0.36141000  0.82256900  1
  O  O31  1  0.87375800  0.63859000  0.32256900  1
  O  O32  1  0.08143300  0.94929700  0.18257600  1
  O  O33  1  0.41856700  0.05070300  0.68257600  1
  O  O34  1  0.58143300  0.55070300  0.81742400  1
  O  O35  1  0.91856700  0.44929700  0.31742400  1
loop_
_geom_bond_atom_site_label_1
_geom_bond_atom_site_label_2
_geom_bond_distance
_geom_bond_site_symmetry_2
Na0 O13 2.407731 1_655
Na0 O18 2.407886 1_555
Na0 O6 2.428027 1_555
Na0 O34 2.472932 1_555
Na0 O2 2.585007 1_655
Na0 O26 2.718241 1_655
Na1 O12 2.407731 1_555
Na1 O19 2.407886 1_555
Na1 O7 2.428027 1_555
Na1 O35 2.472932 1_555
Na1 O3 2.585007 1_555
Na1 O27 2.718241 1_555
Na2 O15 2.407731 1_555
Na2 O16 2.407886 1_565
Na2 O4 2.428027 1_555
Na2 O32 2.472932 1_555
Na2 O0 2.585007 1_555
Na2 O24 2.718241 1_565
Na3 O14 2.407731 1_455
Na3 O17 2.407886 1_545
Na3 O5 2.428027 1_555
Na3 O33 2.472932 1_555
Na3 O1 2.585007 1_455
Na3 O25 2.718241 1_445
Na4 O15 2.315963 1_555
Na4 O32 2.355259 1_655
Na4 O23 2.376979 1_655
Na4 O31 2.502254 1_555
Na4 O0 2.658930 1_555
Na4 O4 2.686249 1_655
Na5 O14 2.315963 1_555
Na5 O33 2.355259 1_555
Na5 O22 2.376979 1_555
Na5 O30 2.502254 1_555
Na5 O1 2.658930 1_555
Na5 O5 2.686249 1_555
Na6 O13 2.315963 1_555
Na6 O34 2.355259 1_555
Na6 O21 2.376979 1_555
Na6 O29 2.502254 1_555
Na6 O2 2.658930 1_555
Na6 O6 2.686249 1_555
Na7 O12 2.315963 1_555
Na7 O35 2.355259 1_455
Na7 O20 2.376979 1_455
Na7 O28 2.502254 1_555
Na7 O3 2.658930 1_555
Na7 O7 2.686249 1_455
Na8 O8 2.338283 1_455
Na8 O6 2.475022 1_455
Na8 O29 2.477486 1_555
Na8 O2 2.498097 1_555
Na8 O25 2.541834 1_455
Na8 O13 2.673171 1_555
Na9 O9 2.338283 1_554
Na9 O7 2.475022 1_555
Na9 O28 2.477486 1_555
Na9 O3 2.498097 1_555
Na9 O24 2.541834 1_555
Na9 O12 2.673171 1_555
Na10 O10 2.338283 1_555
Na10 O4 2.475022 1_555
Na10 O31 2.477486 1_555
Na10 O0 2.498097 1_555
Na10 O27 2.541834 1_555
Na10 O15 2.673171 1_555
Na11 O11 2.338282 1_656
Na11 O5 2.475030 1_655
Na11 O30 2.477481 1_555
Na11 O1 2.498108 1_555
Na11 O26 2.541823 1_655
Na11 O14 2.673174 1_555
H0 N0 1.032611 1_555
H1 N1 1.032611 1_555
H2 N2 1.032611 1_555
H3 N3 1.032611 1_555
H4 N0 1.025547 1_545
H5 N1 1.025547 1_565
H6 N2 1.025547 1_555
H7 N3 1.025547 1_555
H8 N4 1.038047 1_555
H9 N5 1.038047 1_554
H10 N6 1.038047 1_555
H11 N7 1.038047 1_556
H12 N4 1.034845 1_555
H13 N5 1.034845 1_655
H14 N6 1.034845 1_455
H15 N7 1.034845 1_555
H16 N8 1.029232 1_655
H17 N9 1.029232 1_555
H18 N10 1.029232 1_555
H19 N11 1.029232 1_455
H20 N8 1.028520 1_665
H21 N9 1.028520 1_545
H22 N10 1.028520 1_555
H23 N11 1.028520 1_455
N0 S0 1.655515 1_455
N1 S1 1.655515 1_555
N2 S2 1.655515 1_555
N3 S3 1.655515 1_655
N8 S8 1.679808 1_455
N9 S9 1.679808 1_555
N10 S10 1.679808 1_555
N11 S11 1.679808 1_655
O0 S0 1.477151 1_555
O1 S1 1.477151 1_555
O2 S2 1.477151 1_555
O3 S3 1.477151 1_555
O4 S0 1.486388 1_455
O5 S1 1.486388 1_555
O6 S2 1.486388 1_555
O7 S3 1.486388 1_655
O8 S0 1.463282 1_555
O9 S1 1.463282 1_555
O10 S2 1.463282 1_555
O11 S3 1.463282 1_555
O12 S4 1.495446 1_555
O13 S5 1.495446 1_455
O14 S6 1.495446 1_655
O15 S7 1.495446 1_555
O16 S4 1.480124 1_555
O17 S5 1.480124 1_455
O18 S6 1.480124 1_655
O19 S7 1.480124 1_555
O20 S4 1.483577 1_555
O21 S5 1.483577 1_555
O22 S6 1.483577 1_555
O23 S7 1.483577 1_555
O24 S8 1.481444 1_555
O25 S9 1.481444 1_555
O26 S10 1.481444 1_555
O27 S11 1.481444 1_555
O28 S8 1.470109 1_455
O29 S9 1.470109 1_555
O30 S10 1.470109 1_555
O31 S11 1.470109 1_655
O32 S8 1.466260 1_465
O33 S9 1.466260 1_545
O34 S10 1.466260 1_555
O35 S11 1.466260 1_655
