# generated using pymatgen
data_Li9Mn7O16
_symmetry_space_group_name_H-M   'P 1'
_cell_length_a   5.09361500
_cell_length_b   6.05994642
_cell_length_c   10.43005999
_cell_angle_alpha   76.18633995
_cell_angle_beta   75.90222699
_cell_angle_gamma   76.12762180
_symmetry_Int_Tables_number   1
_chemical_formula_structural   Li9Mn7O16
_chemical_formula_sum   'Li9 Mn7 O16'
_cell_volume   297.52741623
_cell_formula_units_Z   1
loop_
 _symmetry_equiv_pos_site_id
 _symmetry_equiv_pos_as_xyz
  1  'x, y, z'
loop_
 _atom_site_type_symbol
 _atom_site_label
 _atom_site_symmetry_multiplicity
 _atom_site_fract_x
 _atom_site_fract_y
 _atom_site_fract_z
 _atom_site_occupancy
  Li  Li0  1  0.49825000  0.81306900  0.12175500  1
  Li  Li1  1  0.51183500  0.31494700  0.12076000  1
  Li  Li2  1  0.50552000  0.43525700  0.37449300  1
  Li  Li3  1  0.49871900  0.93777700  0.37473100  1
  Li  Li4  1  0.50128100  0.06222300  0.62526900  1
  Li  Li5  1  0.49448000  0.56474300  0.62550700  1
  Li  Li6  1  0.48816500  0.68505300  0.87924000  1
  Li  Li7  1  0.50175000  0.18693100  0.87824500  1
  Li  Li8  1  0.00000000  0.50000000  0.00000000  1
  Mn  Mn0  1  0.00000000  0.00000000  0.00000000  1
  Mn  Mn1  1  0.99700400  0.62736900  0.24575000  1
  Mn  Mn2  1  0.99496100  0.13675700  0.24585000  1
  Mn  Mn3  1  0.00156500  0.24944400  0.50001700  1
  Mn  Mn4  1  0.99843500  0.75055600  0.49998300  1
  Mn  Mn5  1  0.00503900  0.86324300  0.75415000  1
  Mn  Mn6  1  0.00299600  0.37263100  0.75425000  1
  O  O0  1  0.22574100  0.14446500  0.06901600  1
  O  O1  1  0.21581900  0.69027600  0.06430900  1
  O  O2  1  0.21987800  0.78526600  0.31597400  1
  O  O3  1  0.23494100  0.26920500  0.31654400  1
  O  O4  1  0.23277000  0.39193400  0.56763600  1
  O  O5  1  0.23020600  0.89277600  0.57047700  1
  O  O6  1  0.23473200  0.01334300  0.82240200  1
  O  O7  1  0.22870500  0.53574800  0.80620900  1
  O  O8  1  0.77129500  0.46425200  0.19379100  1
  O  O9  1  0.76526800  0.98665700  0.17759800  1
  O  O10  1  0.76979400  0.10722400  0.42952300  1
  O  O11  1  0.76723000  0.60806600  0.43236400  1
  O  O12  1  0.76505900  0.73079500  0.68345600  1
  O  O13  1  0.78012200  0.21473400  0.68402600  1
  O  O14  1  0.78418100  0.30972400  0.93569100  1
  O  O15  1  0.77425900  0.85553500  0.93098400  1
loop_
_geom_bond_atom_site_label_1
_geom_bond_atom_site_label_2
_geom_bond_distance
_geom_bond_site_symmetry_2
Li0 O1 2.031846 1_555
Li0 O15 2.137305 1_554
Li0 O9 2.158749 1_555
Li0 O2 2.166732 1_555
Li0 O0 2.184048 1_565
Li0 O8 2.303893 1_555
Li1 O14 2.086871 1_554
Li1 O8 2.130338 1_555
Li1 O9 2.133959 1_545
Li1 O3 2.179470 1_555
Li1 O0 2.203061 1_555
Li1 O1 2.437588 1_555
Li2 O8 2.031922 1_555
Li2 O11 2.145049 1_555
Li2 O4 2.148525 1_555
Li2 O3 2.153754 1_555
Li2 O10 2.154402 1_555
Li2 O2 2.307123 1_555
Li3 O2 2.137979 1_555
Li3 O10 2.152200 1_565
Li3 O5 2.160081 1_555
Li3 O9 2.168121 1_555
Li3 O3 2.174519 1_565
Li3 O11 2.177302 1_555
Li4 O13 2.137979 1_555
Li4 O5 2.152200 1_545
Li4 O10 2.160081 1_555
Li4 O6 2.168121 1_555
Li4 O12 2.174519 1_545
Li4 O4 2.177302 1_555
Li5 O7 2.031922 1_555
Li5 O4 2.145049 1_555
Li5 O11 2.148525 1_555
Li5 O12 2.153754 1_555
Li5 O5 2.154402 1_555
Li5 O13 2.307123 1_555
Li6 O1 2.086871 1_556
Li6 O7 2.130338 1_555
Li6 O6 2.133959 1_565
Li6 O12 2.179470 1_555
Li6 O15 2.203061 1_555
Li6 O14 2.437588 1_555
Li7 O14 2.031846 1_555
Li7 O0 2.137305 1_556
Li7 O6 2.158749 1_555
Li7 O13 2.166732 1_555
Li7 O15 2.184048 1_545
Li7 O7 2.303893 1_555
Li8 O8 2.062598 1_455
Li8 O7 2.062598 1_554
Li8 O14 2.079487 1_454
Li8 O1 2.079487 1_555
Li8 O0 2.226418 1_555
Li8 O15 2.226418 1_454
Mn0 O9 1.939903 1_445
Mn0 O6 1.939903 1_554
Mn0 O15 1.947706 1_444
Mn0 O0 1.947706 1_555
Mn0 O14 1.987409 1_454
Mn0 O1 1.987409 1_545
Mn1 O8 1.922709 1_555
Mn1 O1 1.949516 1_655
Mn1 O2 2.000348 1_655
Mn1 O11 2.004770 1_555
Mn1 O9 2.253081 1_555
Mn1 O3 2.265877 1_655
Mn2 O0 1.927371 1_655
Mn2 O3 1.968300 1_655
Mn2 O10 1.970221 1_555
Mn2 O9 1.981970 1_545
Mn2 O8 2.057664 1_555
Mn2 O2 2.208738 1_645
Mn3 O4 1.952681 1_555
Mn3 O13 1.966301 1_455
Mn3 O10 1.972417 1_455
Mn3 O3 1.984960 1_555
Mn3 O5 2.240400 1_545
Mn3 O11 2.253817 1_455
Mn4 O11 1.952681 1_555
Mn4 O2 1.966301 1_655
Mn4 O5 1.972417 1_655
Mn4 O12 1.984960 1_555
Mn4 O10 2.240400 1_565
Mn4 O4 2.253817 1_655
Mn5 O15 1.927371 1_455
Mn5 O12 1.968300 1_455
Mn5 O5 1.970221 1_555
Mn5 O6 1.981970 1_565
Mn5 O7 2.057664 1_555
Mn5 O13 2.208738 1_465
Mn6 O7 1.922709 1_555
Mn6 O14 1.949516 1_455
Mn6 O13 2.000348 1_455
Mn6 O4 2.004770 1_555
Mn6 O6 2.253081 1_555
Mn6 O12 2.265877 1_455
