# generated using pymatgen
data_Nb3Ir
_symmetry_space_group_name_H-M   'P 1'
_cell_length_a   5.17210738
_cell_length_b   5.17210738
_cell_length_c   5.17210738
_cell_angle_alpha   90.00000000
_cell_angle_beta   90.00000000
_cell_angle_gamma   90.00000000
_symmetry_Int_Tables_number   1
_chemical_formula_structural   Nb3Ir
_chemical_formula_sum   'Nb6 Ir2'
_cell_volume   138.35746574
_cell_formula_units_Z   2
loop_
 _symmetry_equiv_pos_site_id
 _symmetry_equiv_pos_as_xyz
  1  'x, y, z'
loop_
 _atom_site_type_symbol
 _atom_site_label
 _atom_site_symmetry_multiplicity
 _atom_site_fract_x
 _atom_site_fract_y
 _atom_site_fract_z
 _atom_site_occupancy
  Nb  Nb0  1  0.50000000  0.25000000  -0.00000000  1
  Nb  Nb1  1  0.50000000  0.75000000  -0.00000000  1
  Nb  Nb2  1  0.25000000  -0.00000000  0.50000000  1
  Nb  Nb3  1  0.75000000  -0.00000000  0.50000000  1
  Nb  Nb4  1  -0.00000000  0.50000000  0.25000000  1
  Nb  Nb5  1  -0.00000000  0.50000000  0.75000000  1
  Ir  Ir0  1  0.50000000  0.50000000  0.50000000  1
  Ir  Ir1  1  -0.00000000  -0.00000000  -0.00000000  1
loop_
_geom_bond_atom_site_label_1
_geom_bond_atom_site_label_2
_geom_bond_distance
_geom_bond_site_symmetry_2
Nb0 Nb1 2.586054 1_545
Nb0 Nb1 2.586054 1_555
Nb0 Nb5 3.167256 1_554
Nb0 Nb3 3.167256 1_555
Nb0 Nb5 3.167256 1_654
Nb0 Nb4 3.167256 1_655
Nb0 Nb4 3.167256 1_555
Nb0 Nb3 3.167256 1_554
Nb0 Nb2 3.167256 1_555
Nb0 Nb2 3.167256 1_554
Nb1 Nb5 3.167256 1_554
Nb1 Nb2 3.167256 1_564
Nb1 Nb5 3.167256 1_654
Nb1 Nb3 3.167256 1_565
Nb1 Nb2 3.167256 1_565
Nb1 Nb3 3.167256 1_564
Nb1 Nb4 3.167256 1_655
Nb1 Nb4 3.167256 1_555
Nb2 Nb3 2.586054 1_455
Nb2 Nb3 2.586054 1_555
Nb2 Nb5 3.167256 1_555
Nb2 Nb4 3.167256 1_545
Nb2 Nb4 3.167256 1_555
Nb2 Nb5 3.167256 1_545
Nb3 Nb5 3.167256 1_655
Nb3 Nb4 3.167256 1_645
Nb3 Nb4 3.167256 1_655
Nb3 Nb5 3.167256 1_645
Nb4 Nb5 2.586054 1_555
Nb4 Nb5 2.586054 1_554
Ir0 Nb3 2.891296 1_555
Ir0 Nb0 2.891296 1_556
Ir0 Nb0 2.891296 1_555
Ir0 Nb5 2.891296 1_655
Ir0 Nb3 2.891296 1_565
Ir0 Nb2 2.891296 1_565
Ir0 Nb4 2.891296 1_655
Ir0 Nb4 2.891296 1_555
Ir0 Nb1 2.891296 1_556
Ir0 Nb1 2.891296 1_555
Ir0 Nb2 2.891296 1_555
Ir0 Nb5 2.891296 1_555
Ir1 Nb3 2.891296 1_455
Ir1 Nb3 2.891296 1_454
Ir1 Nb0 2.891296 1_555
Ir1 Nb5 2.891296 1_544
Ir1 Nb1 2.891296 1_445
Ir1 Nb4 2.891296 1_545
Ir1 Nb1 2.891296 1_545
Ir1 Nb4 2.891296 1_555
Ir1 Nb2 2.891296 1_554
Ir1 Nb2 2.891296 1_555
Ir1 Nb0 2.891296 1_455
Ir1 Nb5 2.891296 1_554
