# generated using pymatgen
data_Li9Mn2Co5O16
_symmetry_space_group_name_H-M   'P 1'
_cell_length_a   2.97074362
_cell_length_b   5.01178581
_cell_length_c   19.65006460
_cell_angle_alpha   92.98847909
_cell_angle_beta   81.64135002
_cell_angle_gamma   90.17430832
_symmetry_Int_Tables_number   1
_chemical_formula_structural   Li9Mn2Co5O16
_chemical_formula_sum   'Li9 Mn2 Co5 O16'
_cell_volume   289.06005798
_cell_formula_units_Z   1
loop_
 _symmetry_equiv_pos_site_id
 _symmetry_equiv_pos_as_xyz
  1  'x, y, z'
loop_
 _atom_site_type_symbol
 _atom_site_label
 _atom_site_symmetry_multiplicity
 _atom_site_fract_x
 _atom_site_fract_y
 _atom_site_fract_z
 _atom_site_occupancy
  Li  Li0  1  0.87632600  0.37716900  0.12733200  1
  Li  Li1  1  0.12080700  0.61381100  0.38218900  1
  Li  Li2  1  0.38393000  0.87148400  0.62145200  1
  Li  Li3  1  0.63732400  0.12473000  0.87081400  1
  Li  Li4  1  0.36267600  0.87527000  0.12918600  1
  Li  Li5  1  0.61607000  0.12851600  0.37854800  1
  Li  Li6  1  0.87919300  0.38618900  0.61781100  1
  Li  Li7  1  0.12367400  0.62283100  0.87266800  1
  Li  Li8  1  0.50000000  0.50000000  0.50000000  1
  Mn  Mn0  1  0.00000000  0.00000000  0.00000000  1
  Mn  Mn1  1  0.00000000  0.00000000  0.50000000  1
  Co  Co0  1  0.24792800  0.25028700  0.25038600  1
  Co  Co1  1  0.75207200  0.74971300  0.74961400  1
  Co  Co2  1  0.50000000  0.50000000  0.00000000  1
  Co  Co3  1  0.74716800  0.74992300  0.25076600  1
  Co  Co4  1  0.25283200  0.25007700  0.74923400  1
  O  O0  1  0.40552500  0.19054100  0.05603300  1
  O  O1  1  0.69373600  0.44585800  0.30718700  1
  O  O2  1  0.93990100  0.70910200  0.55932700  1
  O  O3  1  0.19469500  0.94662400  0.80932900  1
  O  O4  1  0.99346500  0.68568600  0.05562400  1
  O  O5  1  0.19338900  0.94407500  0.30593600  1
  O  O6  1  0.44596100  0.16623500  0.55459500  1
  O  O7  1  0.69053200  0.44689700  0.80904000  1
  O  O8  1  0.30946800  0.55310300  0.19096000  1
  O  O9  1  0.55403900  0.83376500  0.44540500  1
  O  O10  1  0.80661100  0.05592500  0.69406400  1
  O  O11  1  0.00653500  0.31431400  0.94437600  1
  O  O12  1  0.80530500  0.05337600  0.19067100  1
  O  O13  1  0.06009900  0.29089800  0.44067300  1
  O  O14  1  0.30626400  0.55414200  0.69281300  1
  O  O15  1  0.59447500  0.80945900  0.94396700  1
loop_
_geom_bond_atom_site_label_1
_geom_bond_atom_site_label_2
_geom_bond_distance
_geom_bond_site_symmetry_2
Li0 O8 2.083827 1_655
Li0 O12 2.087863 1_555
Li0 O8 2.111508 1_555
Li0 O0 2.131014 1_655
Li0 O4 2.139792 1_555
Li0 O0 2.284517 1_555
Li1 O13 2.025892 1_555
Li1 O9 2.174415 1_555
Li1 O9 2.203090 1_455
Li1 O1 2.213149 1_455
Li1 O1 2.219811 1_555
Li1 O5 2.279003 1_555
Li2 O6 2.018020 1_565
Li2 O2 2.049118 1_555
Li2 O2 2.061706 1_455
Li2 O14 2.164559 1_555
Li2 O10 2.200762 1_565
Li2 O10 2.234374 1_465
Li3 O7 2.062162 1_555
Li3 O3 2.076802 1_645
Li3 O3 2.080350 1_545
Li3 O11 2.122899 1_655
Li3 O15 2.182092 1_545
Li3 O11 2.363027 1_555
Li4 O8 2.062162 1_555
Li4 O12 2.076802 1_465
Li4 O12 2.080350 1_565
Li4 O4 2.122899 1_455
Li4 O0 2.182092 1_565
Li4 O4 2.363027 1_555
Li5 O9 2.018020 1_545
Li5 O13 2.049118 1_555
Li5 O13 2.061706 1_655
Li5 O1 2.164559 1_555
Li5 O5 2.200762 1_545
Li5 O5 2.234374 1_645
Li6 O2 2.025892 1_555
Li6 O6 2.174415 1_555
Li6 O6 2.203090 1_655
Li6 O14 2.213149 1_655
Li6 O14 2.219811 1_555
Li6 O10 2.279003 1_555
Li7 O7 2.083827 1_455
Li7 O3 2.087863 1_555
Li7 O7 2.111508 1_555
Li7 O15 2.131014 1_455
Li7 O11 2.139792 1_555
Li7 O15 2.284517 1_555
Li8 O6 2.027361 1_555
Li8 O9 2.027361 1_555
Li8 O13 2.114785 1_555
Li8 O2 2.114785 1_555
Li8 O2 2.131936 1_455
Li8 O13 2.131936 1_655
Mn0 O0 1.960762 1_555
Mn0 O15 1.960762 1_444
Mn0 O4 1.962072 1_445
Mn0 O11 1.962072 1_554
Mn0 O15 2.139721 1_544
Mn0 O0 2.139721 1_455
Mn1 O2 1.905667 1_445
Mn1 O13 1.905667 1_555
Mn1 O6 1.978257 1_555
Mn1 O9 1.978257 1_445
Mn1 O6 1.988919 1_455
Mn1 O9 1.988919 1_545
Co0 O5 1.922162 1_545
Co0 O8 1.954813 1_555
Co0 O1 2.065980 1_555
Co0 O1 2.068452 1_455
Co0 O12 2.097561 1_455
Co0 O12 2.101633 1_555
Co1 O10 1.922162 1_565
Co1 O7 1.954813 1_555
Co1 O14 2.065980 1_555
Co1 O14 2.068452 1_655
Co1 O3 2.097561 1_655
Co1 O3 2.101633 1_555
Co2 O11 1.936331 1_654
Co2 O4 1.936331 1_455
Co2 O15 1.944756 1_554
Co2 O0 1.944756 1_555
Co2 O4 2.135710 1_555
Co2 O11 2.135710 1_554
Co3 O1 1.923587 1_555
Co3 O12 1.965607 1_565
Co3 O5 2.044332 1_655
Co3 O5 2.051774 1_555
Co3 O8 2.088172 1_555
Co3 O8 2.112559 1_655
Co4 O14 1.923587 1_555
Co4 O3 1.965607 1_545
Co4 O10 2.044332 1_455
Co4 O10 2.051774 1_555
Co4 O7 2.088172 1_555
Co4 O7 2.112559 1_455
