# generated using pymatgen
data_Te2Mo3W(Se2S)2
_symmetry_space_group_name_H-M   'P 1'
_cell_length_a   3.34444583
_cell_length_b   3.34444583
_cell_length_c   38.05210000
_cell_angle_alpha   90.00000000
_cell_angle_beta   90.00000000
_cell_angle_gamma   119.99999662
_symmetry_Int_Tables_number   1
_chemical_formula_structural   Te2Mo3W(Se2S)2
_chemical_formula_sum   'Te2 Mo3 W1 Se4 S2'
_cell_volume   368.60193247
_cell_formula_units_Z   1
loop_
 _symmetry_equiv_pos_site_id
 _symmetry_equiv_pos_as_xyz
  1  'x, y, z'
loop_
 _atom_site_type_symbol
 _atom_site_label
 _atom_site_symmetry_multiplicity
 _atom_site_fract_x
 _atom_site_fract_y
 _atom_site_fract_z
 _atom_site_occupancy
  Te  Te0  1  0.66666700  0.33333300  0.41976800  1
  Te  Te1  1  0.66666700  0.33333300  0.51945400  1
  Mo  Mo0  1  0.33333300  0.66666700  0.09391900  1
  Mo  Mo1  1  0.33333300  0.66666700  0.46963300  1
  Mo  Mo2  1  0.66666700  0.33333300  0.28179100  1
  W  W0  1  0.66666700  0.33333300  0.65760100  1
  Se  Se0  1  0.33333300  0.66666700  0.70159600  1
  Se  Se1  1  0.66666700  0.33333300  0.05010900  1
  Se  Se2  1  0.66666700  0.33333300  0.13774300  1
  Se  Se3  1  0.33333300  0.66666700  0.61355300  1
  S  S0  1  0.33333300  0.66666700  0.32163000  1
  S  S1  1  0.33333300  0.66666700  0.24195100  1
loop_
_geom_bond_atom_site_label_1
_geom_bond_atom_site_label_2
_geom_bond_distance
_geom_bond_site_symmetry_2
Mo0 Se1 2.550986 1_455
Mo0 Se1 2.550986 1_565
Mo0 Se1 2.550990 1_555
Mo0 Se2 2.551334 1_565
Mo0 Se2 2.551334 1_455
Mo0 Se2 2.551338 1_555
Mo1 Te1 2.706005 1_455
Mo1 Te1 2.706005 1_565
Mo1 Te1 2.706010 1_555
Mo1 Te0 2.707179 1_565
Mo1 Te0 2.707179 1_455
Mo1 Te0 2.707183 1_555
Mo2 S0 2.454905 1_545
Mo2 S0 2.454905 1_655
Mo2 S0 2.454910 1_555
Mo2 S1 2.454929 1_545
Mo2 S1 2.454929 1_655
Mo2 S1 2.454933 1_555
Se0 W0 2.555592 1_455
Se0 W0 2.555592 1_565
Se0 W0 2.555596 1_555
Se3 W0 2.556914 1_455
Se3 W0 2.556914 1_565
Se3 W0 2.556918 1_555
