# generated using pymatgen
data_Cr2GeC
_symmetry_space_group_name_H-M   'P 1'
_cell_length_a   2.98201756
_cell_length_b   2.98201730
_cell_length_c   12.21742986
_cell_angle_alpha   90.00000000
_cell_angle_beta   90.00000000
_cell_angle_gamma   120.00000290
_symmetry_Int_Tables_number   1
_chemical_formula_structural   Cr2GeC
_chemical_formula_sum   'Cr4 Ge2 C2'
_cell_volume   94.08726157
_cell_formula_units_Z   2
loop_
 _symmetry_equiv_pos_site_id
 _symmetry_equiv_pos_as_xyz
  1  'x, y, z'
loop_
 _atom_site_type_symbol
 _atom_site_label
 _atom_site_symmetry_multiplicity
 _atom_site_fract_x
 _atom_site_fract_y
 _atom_site_fract_z
 _atom_site_occupancy
  Cr  Cr0  1  0.66666700  0.33333300  0.58877519  1
  Cr  Cr1  1  0.33333300  0.66666700  0.41117833  1
  Cr  Cr2  1  0.33333300  0.66666700  0.08882167  1
  Cr  Cr3  1  0.66666700  0.33333300  0.91122481  1
  Ge  Ge0  1  0.66666700  0.33333300  0.25000000  1
  Ge  Ge1  1  0.33333300  0.66666700  0.75000000  1
  C  C0  1  -0.00000000  0.00000000  0.49993440  1
  C  C1  1  -0.00000000  0.00000000  0.00006560  1
loop_
_geom_bond_atom_site_label_1
_geom_bond_atom_site_label_2
_geom_bond_distance
_geom_bond_site_symmetry_2
Cr0 Ge1 2.616116 1_545
Cr0 Ge1 2.616116 1_655
Cr0 Ge1 2.616119 1_555
Cr1 Ge0 2.615688 1_565
Cr1 Ge0 2.615688 1_455
Cr1 Ge0 2.615692 1_555
Cr2 Ge0 2.615688 1_565
Cr2 Ge0 2.615688 1_455
Cr2 Ge0 2.615692 1_555
Cr3 Ge1 2.616116 1_545
Cr3 Ge1 2.616116 1_655
Cr3 Ge1 2.616119 1_555
C0 Cr1 2.034698 1_545
C0 Cr1 2.034700 1_555
C0 Cr1 2.034701 1_445
C0 Cr0 2.035250 1_455
C0 Cr0 2.035252 1_445
C0 Cr0 2.035252 1_555
C1 Cr2 2.034698 1_545
C1 Cr2 2.034700 1_555
C1 Cr2 2.034701 1_445
C1 Cr3 2.035250 1_454
C1 Cr3 2.035252 1_444
C1 Cr3 2.035252 1_554
