# generated using pymatgen
data_LuInO6
_symmetry_space_group_name_H-M   'P 1'
_cell_length_a   6.35142072
_cell_length_b   6.35142072
_cell_length_c   7.38610100
_cell_angle_alpha   55.66590582
_cell_angle_beta   55.66590582
_cell_angle_gamma   71.41351420
_symmetry_Int_Tables_number   1
_chemical_formula_structural   LuInO6
_chemical_formula_sum   'Lu2 In2 O12'
_cell_volume   203.17369232
_cell_formula_units_Z   2
loop_
 _symmetry_equiv_pos_site_id
 _symmetry_equiv_pos_as_xyz
  1  'x, y, z'
loop_
 _atom_site_type_symbol
 _atom_site_label
 _atom_site_symmetry_multiplicity
 _atom_site_fract_x
 _atom_site_fract_y
 _atom_site_fract_z
 _atom_site_occupancy
  Lu  Lu0  1  0.50000000  0.00000000  0.50000000  1
  Lu  Lu1  1  0.00000000  0.50000000  0.50000000  1
  In  In0  1  0.00000000  0.50000000  0.00000000  1
  In  In1  1  0.50000000  0.00000000  0.00000000  1
  O  O0  1  0.69011900  0.69011900  0.40543900  1
  O  O1  1  0.30988100  0.30988100  0.59456100  1
  O  O2  1  0.66867500  0.66867500  0.22750200  1
  O  O3  1  0.33132500  0.33132500  0.77249800  1
  O  O4  1  0.09670200  0.89736500  0.68429000  1
  O  O5  1  0.90329800  0.10263500  0.31571000  1
  O  O6  1  0.89736500  0.09670200  0.68429000  1
  O  O7  1  0.10263500  0.90329800  0.31571000  1
  O  O8  1  0.77991400  0.41778200  0.89711100  1
  O  O9  1  0.22008600  0.58221800  0.10288900  1
  O  O10  1  0.58221800  0.22008600  0.10288900  1
  O  O11  1  0.41778200  0.77991400  0.89711100  1
loop_
_geom_bond_atom_site_label_1
_geom_bond_atom_site_label_2
_geom_bond_distance
_geom_bond_site_symmetry_2
Lu0 O1 2.214484 1_555
Lu0 O0 2.214484 1_545
Lu0 O10 2.223135 1_555
Lu0 O11 2.223135 1_545
Lu0 O5 2.229244 1_555
Lu0 O4 2.229244 1_545
Lu1 O1 2.214484 1_555
Lu1 O0 2.214484 1_455
Lu1 O9 2.223135 1_555
Lu1 O8 2.223135 1_455
Lu1 O7 2.229244 1_555
Lu1 O6 2.229244 1_455
In0 O9 2.217098 1_555
In0 O8 2.217098 1_454
In0 O5 2.217741 1_455
In0 O4 2.217741 1_554
In0 O2 2.237059 1_455
In0 O3 2.237059 1_554
In1 O10 2.217098 1_555
In1 O11 2.217098 1_544
In1 O7 2.217741 1_545
In1 O6 2.217741 1_554
In1 O2 2.237059 1_545
In1 O3 2.237059 1_554
O0 O2 1.476499 1_555
O1 O3 1.476499 1_555
O4 O6 1.477854 1_465
O5 O7 1.477854 1_645
O10 O8 1.470666 1_554
O11 O9 1.470666 1_556
