# generated using pymatgen
data_KAgTeS3
_symmetry_space_group_name_H-M   'P 1'
_cell_length_a   10.94271900
_cell_length_b   7.47139000
_cell_length_c   8.66802985
_cell_angle_alpha   73.66076464
_cell_angle_beta   90.00000000
_cell_angle_gamma   90.00000000
_symmetry_Int_Tables_number   1
_chemical_formula_structural   KAgTeS3
_chemical_formula_sum   'K4 Ag4 Te4 S12'
_cell_volume   680.05355606
_cell_formula_units_Z   4
loop_
 _symmetry_equiv_pos_site_id
 _symmetry_equiv_pos_as_xyz
  1  'x, y, z'
loop_
 _atom_site_type_symbol
 _atom_site_label
 _atom_site_symmetry_multiplicity
 _atom_site_fract_x
 _atom_site_fract_y
 _atom_site_fract_z
 _atom_site_occupancy
  K  K0  1  0.24856200  0.47479600  0.88433500  1
  K  K1  1  0.75143800  0.52520400  0.11566500  1
  K  K2  1  0.74856200  0.52520400  0.61566500  1
  K  K3  1  0.25143800  0.47479600  0.38433500  1
  Ag  Ag0  1  0.25146700  0.91956600  0.51928400  1
  Ag  Ag1  1  0.74853300  0.08043400  0.48071600  1
  Ag  Ag2  1  0.75146700  0.08043400  0.98071600  1
  Ag  Ag3  1  0.24853300  0.91956600  0.01928400  1
  Te  Te0  1  0.50515200  0.91367000  0.77228100  1
  Te  Te1  1  0.49484800  0.08633000  0.22771900  1
  Te  Te2  1  0.00515200  0.08633000  0.72771900  1
  Te  Te3  1  0.99484800  0.91367000  0.27228100  1
  S  S0  1  0.05409600  0.73067900  0.53339700  1
  S  S1  1  0.94590400  0.26932100  0.46660300  1
  S  S2  1  0.55409600  0.26932100  0.96660300  1
  S  S3  1  0.44590400  0.73067900  0.03339700  1
  S  S4  1  0.72357400  0.86167400  0.78351600  1
  S  S5  1  0.27642600  0.13832600  0.21648400  1
  S  S6  1  0.22357400  0.13832600  0.71648400  1
  S  S7  1  0.77642600  0.86167400  0.28351600  1
  S  S8  1  0.44541900  0.72221700  0.60637000  1
  S  S9  1  0.55458100  0.27778300  0.39363000  1
  S  S10  1  0.94541900  0.27778300  0.89363000  1
  S  S11  1  0.05458100  0.72221700  0.10637000  1
loop_
_geom_bond_atom_site_label_1
_geom_bond_atom_site_label_2
_geom_bond_distance
_geom_bond_site_symmetry_2
K0 S6 3.251033 1_555
K0 S5 3.260285 1_556
K0 S8 3.369991 1_555
K0 S3 3.373062 1_556
K0 S10 3.620816 1_455
K0 S2 3.664354 1_555
K0 S11 3.691734 1_556
K0 S0 3.763588 1_555
K1 S7 3.251033 1_555
K1 S4 3.260285 1_554
K1 S9 3.369991 1_555
K1 S2 3.373062 1_554
K1 S11 3.620816 1_655
K1 S3 3.664354 1_555
K1 S10 3.691734 1_554
K1 S1 3.763588 1_555
K2 S4 3.251033 1_555
K2 S7 3.260285 1_555
K2 S10 3.369991 1_555
K2 S1 3.373062 1_555
K2 S8 3.620816 1_555
K2 S0 3.664354 1_655
K2 S9 3.691734 1_555
K2 S2 3.763588 1_555
K3 S5 3.251033 1_555
K3 S6 3.260285 1_555
K3 S11 3.369991 1_555
K3 S0 3.373062 1_555
K3 S9 3.620816 1_555
K3 S1 3.664354 1_455
K3 S8 3.691734 1_555
K3 S3 3.763588 1_555
Ag0 S0 2.563997 1_555
Ag0 S8 2.573337 1_555
Ag0 S5 2.687237 1_565
Ag0 S6 2.694127 1_565
Ag1 S1 2.563997 1_555
Ag1 S9 2.573337 1_555
Ag1 S4 2.687237 1_545
Ag1 S7 2.694127 1_545
Ag2 S2 2.563997 1_555
Ag2 S10 2.573337 1_555
Ag2 S7 2.687237 1_546
Ag2 S4 2.694127 1_545
Ag3 S3 2.563997 1_555
Ag3 S11 2.573337 1_555
Ag3 S6 2.687237 1_564
Ag3 S5 2.694127 1_565
S0 Te3 2.381444 1_455
S1 Te2 2.381444 1_655
S2 Te1 2.381444 1_556
S3 Te0 2.381444 1_554
S4 Te0 2.419058 1_555
S5 Te1 2.419058 1_555
S6 Te2 2.419058 1_555
S7 Te3 2.419058 1_555
S8 Te0 2.387253 1_555
S9 Te1 2.387253 1_555
S10 Te2 2.387253 1_655
S11 Te3 2.387253 1_455
