# generated using pymatgen
data_NdEuZrVO6
_symmetry_space_group_name_H-M   'P 1'
_cell_length_a   5.76584431
_cell_length_b   5.76584431
_cell_length_c   5.76584431
_cell_angle_alpha   60.00000000
_cell_angle_beta   60.00000000
_cell_angle_gamma   60.00000000
_symmetry_Int_Tables_number   1
_chemical_formula_structural   NdEuZrVO6
_chemical_formula_sum   'Nd1 Eu1 Zr1 V1 O6'
_cell_volume   135.54195203
_cell_formula_units_Z   1
loop_
 _symmetry_equiv_pos_site_id
 _symmetry_equiv_pos_as_xyz
  1  'x, y, z'
loop_
 _atom_site_type_symbol
 _atom_site_label
 _atom_site_symmetry_multiplicity
 _atom_site_fract_x
 _atom_site_fract_y
 _atom_site_fract_z
 _atom_site_occupancy
  Nd  Nd0  1  0.25000000  0.25000000  0.25000000  1
  Eu  Eu0  1  0.75000000  0.75000000  0.75000000  1
  Zr  Zr0  1  0.00000000  0.00000000  0.00000000  1
  V  V0  1  0.50000000  0.50000000  0.50000000  1
  O  O0  1  0.74586896  0.25413104  0.25413104  1
  O  O1  1  0.25413104  0.74586896  0.74586896  1
  O  O2  1  0.74586896  0.25413104  0.74586896  1
  O  O3  1  0.25413104  0.74586896  0.25413104  1
  O  O4  1  0.74586896  0.74586896  0.25413104  1
  O  O5  1  0.25413104  0.25413104  0.74586896  1
loop_
_geom_bond_atom_site_label_1
_geom_bond_atom_site_label_2
_geom_bond_distance
_geom_bond_site_symmetry_2
Nd0 O4 2.883119 1_545
Nd0 O3 2.883119 1_555
Nd0 O1 2.883119 1_545
Nd0 O0 2.883119 1_555
Nd0 O0 2.883119 1_455
Nd0 O5 2.883119 1_555
Nd0 O4 2.883119 1_455
Nd0 O5 2.883119 1_554
Nd0 O1 2.883119 1_554
Nd0 O3 2.883119 1_545
Nd0 O2 2.883119 1_455
Nd0 O2 2.883119 1_554
Eu0 O1 2.883119 1_655
Eu0 O2 2.883119 1_565
Eu0 O4 2.883119 1_556
Eu0 O3 2.883119 1_655
Eu0 O0 2.883119 1_565
Eu0 O5 2.883119 1_655
Eu0 O5 2.883119 1_565
Eu0 O3 2.883119 1_556
Eu0 O0 2.883119 1_556
Eu0 O2 2.883119 1_555
Eu0 O4 2.883119 1_555
Eu0 O1 2.883119 1_555
O0 V0 2.004849 1_555
O0 Zr0 2.072219 1_655
O1 V0 2.004849 1_555
O1 Zr0 2.072219 1_566
O2 V0 2.004849 1_555
O2 Zr0 2.072219 1_656
O3 V0 2.004849 1_555
O3 Zr0 2.072219 1_565
O4 V0 2.004849 1_555
O4 Zr0 2.072219 1_665
O5 V0 2.004849 1_555
O5 Zr0 2.072219 1_556
