# generated using pymatgen
data_Pr5SiGe2
_symmetry_space_group_name_H-M   'P 1'
_cell_length_a   8.90983952
_cell_length_b   8.90983952
_cell_length_c   6.75538800
_cell_angle_alpha   90.00000000
_cell_angle_beta   90.00000000
_cell_angle_gamma   120.08583077
_symmetry_Int_Tables_number   1
_chemical_formula_structural   Pr5SiGe2
_chemical_formula_sum   'Pr10 Si2 Ge4'
_cell_volume   464.02825599
_cell_formula_units_Z   2
loop_
 _symmetry_equiv_pos_site_id
 _symmetry_equiv_pos_as_xyz
  1  'x, y, z'
loop_
 _atom_site_type_symbol
 _atom_site_label
 _atom_site_symmetry_multiplicity
 _atom_site_fract_x
 _atom_site_fract_y
 _atom_site_fract_z
 _atom_site_occupancy
  Pr  Pr0  1  0.66804200  0.33290200  0.25211700  1
  Pr  Pr1  1  0.33290200  0.66804200  0.25211700  1
  Pr  Pr2  1  0.33290200  0.66804200  0.74788300  1
  Pr  Pr3  1  0.66804200  0.33290200  0.74788300  1
  Pr  Pr4  1  0.24514600  0.99805300  0.50000000  1
  Pr  Pr5  1  0.99805300  0.24514600  0.50000000  1
  Pr  Pr6  1  0.75621200  0.75621200  0.50000000  1
  Pr  Pr7  1  0.75353100  0.99958700  0.00000000  1
  Pr  Pr8  1  0.99958700  0.75353100  0.00000000  1
  Pr  Pr9  1  0.24547200  0.24547200  0.00000000  1
  Si  Si0  1  0.60751400  0.99953600  0.50000000  1
  Si  Si1  1  0.99953600  0.60751400  0.50000000  1
  Ge  Ge0  1  0.39156400  0.39156400  0.50000000  1
  Ge  Ge1  1  0.39225300  0.00021100  0.00000000  1
  Ge  Ge2  1  0.00021100  0.39225300  0.00000000  1
  Ge  Ge3  1  0.60784900  0.60784900  0.00000000  1
loop_
_geom_bond_atom_site_label_1
_geom_bond_atom_site_label_2
_geom_bond_distance
_geom_bond_site_symmetry_2
Pr0 Si1 3.204502 1_555
Pr0 Si0 3.211116 1_545
Pr1 Si0 3.204502 1_555
Pr1 Si1 3.211116 1_455
Pr2 Si0 3.204502 1_555
Pr2 Si1 3.211116 1_455
Pr3 Si1 3.204502 1_555
Pr3 Si0 3.211116 1_545
Pr4 Si1 3.043410 1_455
Pr4 Si0 3.222037 1_555
Pr5 Si0 3.043410 1_545
Pr5 Si1 3.222037 1_555
Pr6 Si1 3.055351 1_555
Pr6 Si0 3.055351 1_555
Pr7 Si0 3.619502 1_555
Pr7 Si0 3.619502 1_554
Pr8 Si1 3.619502 1_554
Pr8 Si1 3.619502 1_555
Ge0 Pr4 3.067401 1_545
Ge0 Pr5 3.067401 1_455
Ge0 Pr3 3.230537 1_555
Ge0 Pr2 3.230537 1_555
Ge0 Pr1 3.230537 1_555
Ge0 Pr0 3.230537 1_555
Ge0 Pr6 3.244739 1_555
Ge0 Pr9 3.619217 1_556
Ge0 Pr9 3.619217 1_555
Ge1 Pr9 3.057914 1_555
Ge1 Pr8 3.059639 1_445
Ge1 Pr1 3.220298 1_545
Ge1 Pr2 3.220298 1_544
Ge1 Pr7 3.221720 1_545
Ge1 Pr3 3.228414 1_554
Ge1 Pr0 3.228414 1_555
Ge1 Pr4 3.619648 1_544
Ge1 Pr4 3.619648 1_545
Ge2 Pr9 3.057914 1_555
Ge2 Pr7 3.059639 1_445
Ge2 Pr0 3.220298 1_455
Ge2 Pr3 3.220298 1_454
Ge2 Pr8 3.221720 1_455
Ge2 Pr1 3.228414 1_555
Ge2 Pr2 3.228414 1_554
Ge2 Pr5 3.619648 1_455
Ge2 Pr5 3.619648 1_454
Ge3 Pr8 3.053681 1_555
Ge3 Pr7 3.053681 1_555
Ge3 Pr9 3.224531 1_555
Ge3 Pr1 3.241413 1_555
Ge3 Pr0 3.241413 1_555
Ge3 Pr3 3.241413 1_554
Ge3 Pr2 3.241413 1_554
Ge3 Pr6 3.626524 1_555
Ge3 Pr6 3.626524 1_554
