# generated using pymatgen
data_LiFe2SiO4
_symmetry_space_group_name_H-M   'P 1'
_cell_length_a   5.10071200
_cell_length_b   5.73869400
_cell_length_c   6.31359100
_cell_angle_alpha   90.00000000
_cell_angle_beta   90.00000000
_cell_angle_gamma   90.00000000
_symmetry_Int_Tables_number   1
_chemical_formula_structural   LiFe2SiO4
_chemical_formula_sum   'Li2 Fe4 Si2 O8'
_cell_volume   184.80780765
_cell_formula_units_Z   2
loop_
 _symmetry_equiv_pos_site_id
 _symmetry_equiv_pos_as_xyz
  1  'x, y, z'
loop_
 _atom_site_type_symbol
 _atom_site_label
 _atom_site_symmetry_multiplicity
 _atom_site_fract_x
 _atom_site_fract_y
 _atom_site_fract_z
 _atom_site_occupancy
  Li  Li0  1  0.49215100  0.33521300  0.00000000  1
  Li  Li1  1  0.99215100  0.66478700  0.50000000  1
  Fe  Fe0  1  0.45359000  0.86088700  0.23329700  1
  Fe  Fe1  1  0.95359000  0.13911300  0.26670300  1
  Fe  Fe2  1  0.95359000  0.13911300  0.73329700  1
  Fe  Fe3  1  0.45359000  0.86088700  0.76670300  1
  Si  Si0  1  0.00101600  0.64864900  0.00000000  1
  Si  Si1  1  0.50101600  0.35135100  0.50000000  1
  O  O0  1  0.90781100  0.79606900  0.21337400  1
  O  O1  1  0.40781100  0.20393100  0.28662600  1
  O  O2  1  0.40781100  0.20393100  0.71337400  1
  O  O3  1  0.90781100  0.79606900  0.78662600  1
  O  O4  1  0.32743700  0.63569800  0.00000000  1
  O  O5  1  0.82743700  0.36430200  0.50000000  1
  O  O6  1  0.88459400  0.38144300  0.00000000  1
  O  O7  1  0.38459400  0.61855700  0.50000000  1
loop_
_geom_bond_atom_site_label_1
_geom_bond_atom_site_label_2
_geom_bond_distance
_geom_bond_site_symmetry_2
Li0 O4 1.918174 1_555
Li0 O1 2.006852 1_555
Li0 O2 2.006852 1_554
Li0 O6 2.019243 1_555
Li1 O5 1.918174 1_555
Li1 O0 2.006852 1_555
Li1 O3 2.006852 1_555
Li1 O7 2.019243 1_655
Fe0 O1 2.010814 1_565
Fe0 O4 2.062432 1_555
Fe0 O7 2.212046 1_555
Fe0 O0 2.349889 1_555
Fe1 O0 2.010814 1_545
Fe1 O5 2.062432 1_555
Fe1 O6 2.212046 1_555
Fe1 O1 2.349889 1_655
Fe2 O3 2.010814 1_545
Fe2 O5 2.062432 1_555
Fe2 O6 2.212046 1_556
Fe2 O2 2.349889 1_655
Fe3 O2 2.010814 1_565
Fe3 O4 2.062432 1_556
Fe3 O7 2.212046 1_555
Fe3 O3 2.349889 1_555
O0 Si0 1.660289 1_655
O1 Si1 1.660289 1_555
O2 Si1 1.660289 1_555
O3 Si0 1.660289 1_656
O4 Si0 1.666637 1_555
O5 Si1 1.666637 1_555
O6 Si0 1.644383 1_655
O7 Si1 1.644383 1_555
