# generated using pymatgen
data_K2RbTbV2O8
_symmetry_space_group_name_H-M   'P 1'
_cell_length_a   6.04626381
_cell_length_b   6.04626381
_cell_length_c   7.81289900
_cell_angle_alpha   90.00000000
_cell_angle_beta   90.00000000
_cell_angle_gamma   119.99999790
_symmetry_Int_Tables_number   1
_chemical_formula_structural   K2RbTbV2O8
_chemical_formula_sum   'K2 Rb1 Tb1 V2 O8'
_cell_volume   247.35291646
_cell_formula_units_Z   1
loop_
 _symmetry_equiv_pos_site_id
 _symmetry_equiv_pos_as_xyz
  1  'x, y, z'
loop_
 _atom_site_type_symbol
 _atom_site_label
 _atom_site_symmetry_multiplicity
 _atom_site_fract_x
 _atom_site_fract_y
 _atom_site_fract_z
 _atom_site_occupancy
  K  K0  1  0.66666700  0.33333300  0.80223300  1
  K  K1  1  0.33333300  0.66666700  0.19776700  1
  Rb  Rb0  1  0.00000000  0.00000000  0.50000000  1
  Tb  Tb0  1  0.00000000  0.00000000  0.00000000  1
  V  V0  1  0.66666700  0.33333300  0.25113800  1
  V  V1  1  0.33333300  0.66666700  0.74886200  1
  O  O0  1  0.82496600  0.17503400  0.17277300  1
  O  O1  1  0.82496600  0.64993200  0.17277300  1
  O  O2  1  0.35006800  0.17503400  0.17277300  1
  O  O3  1  0.64993200  0.82496600  0.82722700  1
  O  O4  1  0.17503400  0.35006800  0.82722700  1
  O  O5  1  0.17503400  0.82496600  0.82722700  1
  O  O6  1  0.33333300  0.66666700  0.53328300  1
  O  O7  1  0.66666700  0.33333300  0.46671700  1
loop_
_geom_bond_atom_site_label_1
_geom_bond_atom_site_label_2
_geom_bond_distance
_geom_bond_site_symmetry_2
K0 O7 2.621353 1_555
K0 O4 3.030696 1_655
K0 O3 3.030696 1_545
K0 O5 3.030699 1_655
K0 O5 3.030699 1_545
K0 O4 3.030702 1_555
K0 O3 3.030702 1_555
K1 O6 2.621353 1_555
K1 O2 3.030696 1_565
K1 O1 3.030696 1_455
K1 O0 3.030699 1_565
K1 O0 3.030699 1_455
K1 O1 3.030702 1_555
K1 O2 3.030702 1_555
O0 V0 1.767224 1_555
O0 Tb0 2.276428 1_655
O0 Rb0 3.145818 1_655
O1 V0 1.767229 1_555
O1 Tb0 2.276428 1_665
O1 Rb0 3.145818 1_665
O2 V0 1.767229 1_555
O2 Tb0 2.276428 1_555
O2 Rb0 3.145818 1_555
O3 V1 1.767229 1_555
O3 Tb0 2.276428 1_666
O3 Rb0 3.145818 1_665
O4 V1 1.767229 1_555
O4 Tb0 2.276428 1_556
O4 Rb0 3.145818 1_555
O5 V1 1.767224 1_555
O5 Tb0 2.276428 1_566
O5 Rb0 3.145818 1_565
O6 V1 1.684297 1_555
O6 Rb0 3.500480 1_565
O6 Rb0 3.500486 1_555
O6 Rb0 3.500486 1_665
O7 V0 1.684297 1_555
O7 Rb0 3.500480 1_655
O7 Rb0 3.500486 1_555
O7 Rb0 3.500486 1_665
