# generated using pymatgen
data_Hg3Te2SeO10
_symmetry_space_group_name_H-M   'P 1'
_cell_length_a   5.58303500
_cell_length_b   8.65862400
_cell_length_c   11.36849113
_cell_angle_alpha   70.77017865
_cell_angle_beta   90.00000000
_cell_angle_gamma   90.00000000
_symmetry_Int_Tables_number   1
_chemical_formula_structural   Hg3Te2SeO10
_chemical_formula_sum   'Hg6 Te4 Se2 O20'
_cell_volume   518.90563650
_cell_formula_units_Z   2
loop_
 _symmetry_equiv_pos_site_id
 _symmetry_equiv_pos_as_xyz
  1  'x, y, z'
loop_
 _atom_site_type_symbol
 _atom_site_label
 _atom_site_symmetry_multiplicity
 _atom_site_fract_x
 _atom_site_fract_y
 _atom_site_fract_z
 _atom_site_occupancy
  Hg  Hg0  1  0.58011000  0.68303100  0.70201800  1
  Hg  Hg1  1  0.08011000  0.31696900  0.29798200  1
  Hg  Hg2  1  0.59547700  0.98950000  0.88416200  1
  Hg  Hg3  1  0.09547700  0.01050000  0.11583800  1
  Hg  Hg4  1  0.58096400  0.99203800  0.37213700  1
  Hg  Hg5  1  0.08096400  0.00796200  0.62786300  1
  Te  Te0  1  0.10256500  0.70719100  0.94301500  1
  Te  Te1  1  0.60256500  0.29280900  0.05698500  1
  Te  Te2  1  0.56726700  0.27206900  0.55250000  1
  Te  Te3  1  0.06726700  0.72793100  0.44750000  1
  Se  Se0  1  0.58075200  0.64427700  0.21746700  1
  Se  Se1  1  0.08075200  0.35572300  0.78253300  1
  O  O0  1  0.77912100  0.14676300  0.48546900  1
  O  O1  1  0.27912100  0.85323700  0.51453100  1
  O  O2  1  0.23639500  0.88262500  0.98799000  1
  O  O3  1  0.73639500  0.11737500  0.01201000  1
  O  O4  1  0.75582000  0.75039300  0.09903400  1
  O  O5  1  0.25582000  0.24960700  0.90096600  1
  O  O6  1  0.90524300  0.84304600  0.80839000  1
  O  O7  1  0.40524300  0.15695400  0.19161000  1
  O  O8  1  0.45320000  0.08809800  0.68607600  1
  O  O9  1  0.95320000  0.91190200  0.31392400  1
  O  O10  1  0.41716500  0.76861000  0.27436300  1
  O  O11  1  0.91716500  0.23139000  0.72563700  1
  O  O12  1  0.75554300  0.52581000  0.33454400  1
  O  O13  1  0.25554300  0.47419000  0.66545600  1
  O  O14  1  0.39302000  0.52506800  0.16868500  1
  O  O15  1  0.89302000  0.47493200  0.83131500  1
  O  O16  1  0.28961600  0.24468900  0.46226500  1
  O  O17  1  0.78961600  0.75531100  0.53773500  1
  O  O18  1  0.39164400  0.69955500  0.85721300  1
  O  O19  1  0.89164400  0.30044500  0.14278700  1
loop_
_geom_bond_atom_site_label_1
_geom_bond_atom_site_label_2
_geom_bond_distance
_geom_bond_site_symmetry_2
Hg0 O18 2.099232 1_555
Hg0 O17 2.116129 1_555
Hg0 O15 2.591259 1_555
Hg1 O19 2.099232 1_455
Hg1 O16 2.116129 1_555
Hg1 O14 2.591259 1_555
Hg2 O3 2.239968 1_566
Hg2 O8 2.272585 1_565
Hg2 O2 2.355672 1_555
Hg2 O6 2.461824 1_555
Hg3 O2 2.239968 1_544
Hg3 O9 2.272585 1_445
Hg3 O3 2.355672 1_455
Hg3 O7 2.461824 1_555
Hg4 O7 2.298496 1_565
Hg4 O9 2.353900 1_555
Hg4 O1 2.371343 1_555
Hg4 O0 2.411590 1_565
Hg4 O17 2.561391 1_555
Hg4 O10 2.689035 1_555
Hg5 O6 2.298496 1_445
Hg5 O8 2.353900 1_555
Hg5 O0 2.371343 1_455
Hg5 O1 2.411590 1_545
Hg5 O16 2.561391 1_555
Hg5 O11 2.689035 1_455
O0 Te2 1.923927 1_555
O1 Te3 1.923927 1_555
O2 Te0 1.907542 1_555
O3 Te1 1.907542 1_555
O4 Se0 1.672563 1_555
O5 Se1 1.672563 1_555
O6 Te0 1.937482 1_655
O7 Te1 1.937482 1_555
O8 Te2 1.911966 1_555
O9 Te3 1.911966 1_655
O10 Se0 1.694158 1_555
O11 Se1 1.694158 1_655
O12 Se0 1.696083 1_555
O13 Se1 1.696083 1_555
O14 Se0 1.687772 1_555
O15 Se1 1.687772 1_655
O16 Te2 1.916158 1_555
O17 Te3 1.916158 1_655
O18 Te0 1.898192 1_555
O19 Te1 1.898192 1_555
