# generated using pymatgen
data_Sr3ZnCoO6
_symmetry_space_group_name_H-M   'P 1'
_cell_length_a   6.64992242
_cell_length_b   6.64992242
_cell_length_c   6.64992344
_cell_angle_alpha   92.68864290
_cell_angle_beta   92.68864290
_cell_angle_gamma   92.68864423
_symmetry_Int_Tables_number   1
_chemical_formula_structural   Sr3ZnCoO6
_chemical_formula_sum   'Sr6 Zn2 Co2 O12'
_cell_volume   293.06670831
_cell_formula_units_Z   2
loop_
 _symmetry_equiv_pos_site_id
 _symmetry_equiv_pos_as_xyz
  1  'x, y, z'
loop_
 _atom_site_type_symbol
 _atom_site_label
 _atom_site_symmetry_multiplicity
 _atom_site_fract_x
 _atom_site_fract_y
 _atom_site_fract_z
 _atom_site_occupancy
  Sr  Sr0  1  0.88431700  0.61568300  0.25000000  1
  Sr  Sr1  1  0.25000000  0.88431700  0.61568300  1
  Sr  Sr2  1  0.61568300  0.25000000  0.88431700  1
  Sr  Sr3  1  0.75000000  0.11568300  0.38431700  1
  Sr  Sr4  1  0.38431700  0.75000000  0.11568300  1
  Sr  Sr5  1  0.11568300  0.38431700  0.75000000  1
  Zn  Zn0  1  0.25000000  0.25000000  0.25000000  1
  Zn  Zn1  1  0.75000000  0.75000000  0.75000000  1
  Co  Co0  1  0.50000000  0.50000000  0.50000000  1
  Co  Co1  1  0.00000000  0.00000000  0.00000000  1
  O  O0  1  0.22328400  0.54124200  0.41421100  1
  O  O1  1  0.41421100  0.22328400  0.54124200  1
  O  O2  1  0.54124200  0.41421100  0.22328400  1
  O  O3  1  0.91421100  0.04124200  0.72328400  1
  O  O4  1  0.72328400  0.91421100  0.04124200  1
  O  O5  1  0.04124200  0.72328400  0.91421100  1
  O  O6  1  0.77671600  0.45875800  0.58578900  1
  O  O7  1  0.58578900  0.77671600  0.45875800  1
  O  O8  1  0.45875800  0.58578900  0.77671600  1
  O  O9  1  0.08578900  0.95875800  0.27671600  1
  O  O10  1  0.27671600  0.08578900  0.95875800  1
  O  O11  1  0.95875800  0.27671600  0.08578900  1
loop_
_geom_bond_atom_site_label_1
_geom_bond_atom_site_label_2
_geom_bond_distance
_geom_bond_site_symmetry_2
Co0 O1 1.936576 1_555
Co0 O7 1.936576 1_555
Co0 O0 1.936576 1_555
Co0 O6 1.936576 1_555
Co0 O2 1.936577 1_555
Co0 O8 1.936577 1_555
Co1 O4 1.936576 1_445
Co1 O10 1.936576 1_554
Co1 O5 1.936576 1_544
Co1 O11 1.936576 1_455
Co1 O3 1.936577 1_454
Co1 O9 1.936577 1_545
O0 Zn0 2.197049 1_555
O0 Sr0 2.538297 1_455
O0 Sr1 2.585406 1_555
O0 Sr5 2.624040 1_555
O0 Sr4 2.708025 1_555
O1 Zn0 2.197049 1_555
O1 Sr1 2.538297 1_545
O1 Sr2 2.585407 1_555
O1 Sr3 2.624040 1_555
O1 Sr5 2.708024 1_555
O2 Zn0 2.197049 1_555
O2 Sr2 2.538298 1_554
O2 Sr0 2.585406 1_555
O2 Sr4 2.624040 1_555
O2 Sr3 2.708024 1_555
O3 Zn1 2.197049 1_545
O3 Sr3 2.538298 1_555
O3 Sr5 2.585406 1_655
O3 Sr1 2.624040 1_645
O3 Sr2 2.708024 1_555
O4 Zn1 2.197049 1_554
O4 Sr4 2.538297 1_555
O4 Sr3 2.585407 1_565
O4 Sr2 2.624040 1_564
O4 Sr0 2.708024 1_555
O5 Zn1 2.197049 1_455
O5 Sr5 2.538297 1_555
O5 Sr4 2.585406 1_556
O5 Sr0 2.624040 1_456
O5 Sr1 2.708025 1_555
O6 Zn1 2.197049 1_555
O6 Sr5 2.538297 1_655
O6 Sr3 2.585406 1_555
O6 Sr0 2.624040 1_555
O6 Sr2 2.708025 1_555
O7 Zn1 2.197049 1_555
O7 Sr3 2.538297 1_565
O7 Sr4 2.585407 1_555
O7 Sr1 2.624040 1_555
O7 Sr0 2.708024 1_555
O8 Zn1 2.197049 1_555
O8 Sr4 2.538298 1_556
O8 Sr5 2.585406 1_555
O8 Sr2 2.624040 1_555
O8 Sr1 2.708024 1_555
O9 Zn0 2.197049 1_565
O9 Sr1 2.538298 1_555
O9 Sr0 2.585406 1_455
O9 Sr3 2.624040 1_465
O9 Sr4 2.708024 1_555
O10 Zn0 2.197049 1_556
O10 Sr2 2.538297 1_555
O10 Sr1 2.585407 1_545
O10 Sr4 2.624040 1_546
O10 Sr5 2.708024 1_555
O11 Zn0 2.197049 1_655
O11 Sr0 2.538297 1_555
O11 Sr2 2.585406 1_554
O11 Sr5 2.624040 1_654
O11 Sr3 2.708025 1_555
