# generated using pymatgen
data_Mg6CdSn
_symmetry_space_group_name_H-M   'P 1'
_cell_length_a   6.40733727
_cell_length_b   6.40733727
_cell_length_c   5.20960200
_cell_angle_alpha   90.00000000
_cell_angle_beta   90.00000000
_cell_angle_gamma   121.50504437
_symmetry_Int_Tables_number   1
_chemical_formula_structural   Mg6CdSn
_chemical_formula_sum   'Mg6 Cd1 Sn1'
_cell_volume   182.34844733
_cell_formula_units_Z   1
loop_
 _symmetry_equiv_pos_site_id
 _symmetry_equiv_pos_as_xyz
  1  'x, y, z'
loop_
 _atom_site_type_symbol
 _atom_site_label
 _atom_site_symmetry_multiplicity
 _atom_site_fract_x
 _atom_site_fract_y
 _atom_site_fract_z
 _atom_site_occupancy
  Mg  Mg0  1  0.16563200  0.33680100  0.00000000  1
  Mg  Mg1  1  0.66319900  0.83436800  0.00000000  1
  Mg  Mg2  1  0.66721000  0.33279000  0.00000000  1
  Mg  Mg3  1  0.33650200  0.17006900  0.50000000  1
  Mg  Mg4  1  0.82993100  0.66349800  0.50000000  1
  Mg  Mg5  1  0.83154400  0.16845600  0.50000000  1
  Cd  Cd0  1  0.34446700  0.65553300  0.50000000  1
  Sn  Sn0  1  0.16151400  0.83848600  0.00000000  1
loop_
_geom_bond_atom_site_label_1
_geom_bond_atom_site_label_2
_geom_bond_distance
_geom_bond_site_symmetry_2
Mg0 Mg1 3.115282 1_555
Mg0 Mg1 3.145748 1_445
Mg0 Sn0 3.179164 1_545
Mg0 Mg2 3.180203 1_455
Mg0 Mg5 3.180800 1_455
Mg0 Mg5 3.180800 1_454
Mg0 Mg3 3.216725 1_554
Mg0 Mg3 3.216725 1_555
Mg0 Mg2 3.227284 1_555
Mg0 Sn0 3.228332 1_555
Mg1 Sn0 3.179164 1_655
Mg1 Mg2 3.180203 1_565
Mg1 Mg5 3.180800 1_564
Mg1 Mg5 3.180800 1_565
Mg1 Mg4 3.216725 1_555
Mg1 Mg4 3.216725 1_554
Mg1 Mg2 3.227284 1_555
Mg1 Sn0 3.228332 1_555
Mg2 Sn0 3.131163 1_655
Mg2 Sn0 3.131163 1_545
Mg2 Mg3 3.170649 1_555
Mg2 Mg3 3.170649 1_554
Mg2 Mg4 3.170649 1_555
Mg2 Mg4 3.170649 1_554
Mg2 Mg5 3.187650 1_554
Mg2 Mg5 3.187650 1_555
Mg3 Mg4 3.089374 1_555
Mg3 Mg4 3.171656 1_445
Mg3 Sn0 3.172735 1_545
Mg3 Sn0 3.172735 1_546
Mg3 Mg5 3.177314 1_555
Mg3 Mg5 3.230047 1_455
Mg4 Sn0 3.172735 1_656
Mg4 Sn0 3.172735 1_655
Mg4 Mg5 3.177314 1_555
Mg4 Mg5 3.230047 1_565
Cd0 Mg4 3.084169 1_555
Cd0 Mg3 3.084169 1_555
Cd0 Mg5 3.133848 1_565
Cd0 Mg5 3.133848 1_455
Cd0 Mg1 3.134152 1_556
Cd0 Mg1 3.134152 1_555
Cd0 Mg0 3.134152 1_555
Cd0 Mg0 3.134152 1_556
Cd0 Sn0 3.312020 1_555
Cd0 Sn0 3.312020 1_556
Cd0 Mg3 3.323760 1_565
Cd0 Mg4 3.323760 1_455
