# generated using pymatgen
data_GaN
_symmetry_space_group_name_H-M   'P 1'
_cell_length_a   11.24587610
_cell_length_b   12.42707544
_cell_length_c   11.40349230
_cell_angle_alpha   92.93581103
_cell_angle_beta   89.87397670
_cell_angle_gamma   84.56777388
_symmetry_Int_Tables_number   1
_chemical_formula_structural   GaN
_chemical_formula_sum   'Ga50 N50'
_cell_volume   1584.39680273
_cell_formula_units_Z   50
loop_
 _symmetry_equiv_pos_site_id
 _symmetry_equiv_pos_as_xyz
  1  'x, y, z'
loop_
 _atom_site_type_symbol
 _atom_site_label
 _atom_site_symmetry_multiplicity
 _atom_site_fract_x
 _atom_site_fract_y
 _atom_site_fract_z
 _atom_site_occupancy
  Ga  Ga0  1  0.06615336  0.69093975  0.63108189  1
  Ga  Ga1  1  0.29109851  0.67209825  0.35207323  1
  Ga  Ga2  1  0.01842662  0.56892020  0.05581565  1
  Ga  Ga3  1  0.83135343  0.75560432  0.57909116  1
  Ga  Ga4  1  0.16708707  0.21253057  0.17921071  1
  Ga  Ga5  1  0.51911072  0.52187389  0.76811411  1
  Ga  Ga6  1  0.42396201  0.74866023  0.81698381  1
  Ga  Ga7  1  0.12880410  0.00944830  0.09926075  1
  Ga  Ga8  1  0.45538268  0.45614340  0.51098013  1
  Ga  Ga9  1  0.93329904  0.12869511  0.21570744  1
  Ga  Ga10  1  0.22265886  0.93850019  0.83356910  1
  Ga  Ga11  1  0.21250582  0.17027264  0.87565729  1
  Ga  Ga12  1  0.77570966  0.44570931  0.90320048  1
  Ga  Ga13  1  0.87962901  0.32596082  0.06913301  1
  Ga  Ga14  1  0.08855975  0.31038884  0.38103522  1
  Ga  Ga15  1  0.51454711  0.96172237  0.81574213  1
  Ga  Ga16  1  0.89274359  0.11479688  0.49202922  1
  Ga  Ga17  1  0.54811687  0.61616953  0.03474264  1
  Ga  Ga18  1  0.61569361  0.54595305  0.39946368  1
  Ga  Ga19  1  0.83955621  0.00235365  0.65791911  1
  Ga  Ga20  1  0.02165744  0.71822846  0.31506538  1
  Ga  Ga21  1  0.56230755  0.70442552  0.27287914  1
  Ga  Ga22  1  0.93642886  0.34882581  0.62544323  1
  Ga  Ga23  1  0.58460359  0.15150823  0.95893464  1
  Ga  Ga24  1  0.42185573  0.25308148  0.28663177  1
  Ga  Ga25  1  0.54690539  0.88382687  0.06753603  1
  Ga  Ga26  1  0.14396056  0.47229844  0.21255593  1
  Ga  Ga27  1  0.88783069  0.55347040  0.46376150  1
  Ga  Ga28  1  0.37641537  0.86233401  0.56854246  1
  Ga  Ga29  1  0.83312352  0.97573184  0.98475333  1
  Ga  Ga30  1  0.94937602  0.58746308  0.77886756  1
  Ga  Ga31  1  0.68203871  0.30930453  0.61887855  1
  Ga  Ga32  1  0.99124031  0.16735175  0.73138501  1
  Ga  Ga33  1  0.15163582  0.51580239  0.48983075  1
  Ga  Ga34  1  0.40079272  0.06041376  0.06156309  1
  Ga  Ga35  1  0.98644737  0.17743571  0.95694978  1
  Ga  Ga36  1  0.65244884  0.89178791  0.63115831  1
  Ga  Ga37  1  0.67311779  0.68475585  0.85726060  1
  Ga  Ga38  1  0.30682395  0.63174736  0.60556206  1
  Ga  Ga39  1  0.80866823  0.55819415  0.18644996  1
  Ga  Ga40  1  0.82092868  0.34616371  0.35800476  1
  Ga  Ga41  1  0.79142008  0.76261253  0.10837821  1
  Ga  Ga42  1  0.02176090  0.90811374  0.75370846  1
  Ga  Ga43  1  0.42653791  0.28162268  0.73463157  1
  Ga  Ga44  1  0.34359130  0.87908198  0.29605828  1
  Ga  Ga45  1  0.24841267  0.60313290  0.91900091  1
  Ga  Ga46  1  0.07133475  0.92307757  0.29947685  1
  Ga  Ga47  1  0.54785089  0.70484974  0.55416766  1
  Ga  Ga48  1  0.74565881  0.56131213  0.63433724  1
  Ga  Ga49  1  0.96379670  0.77633524  0.90373781  1
  N  N0  1  0.26969250  0.12583757  0.52432479  1
  N  N1  1  0.57832572  0.21348310  0.80708479  1
  N  N2  1  0.60395052  0.10143619  0.26339420  1
  N  N3  1  0.96096335  0.05094874  0.35095618  1
  N  N4  1  0.95349382  0.69560727  0.47076348  1
  N  N5  1  0.06903310  0.62880879  0.90944428  1
  N  N6  1  0.78586377  0.49985482  0.33854891  1
  N  N7  1  0.35763256  0.61336359  0.77766349  1
  N  N8  1  0.69668385  0.94072124  0.40265343  1
  N  N9  1  0.24920421  0.77364408  0.00378507  1
  N  N10  1  0.60363094  0.64228100  0.70592461  1
  N  N11  1  0.53292248  0.75642089  0.94582601  1
  N  N12  1  0.24004281  0.36780026  0.44994286  1
  N  N13  1  0.84118292  0.45719459  0.74190090  1
  N  N14  1  0.13626232  0.38926456  0.78664734  1
  N  N15  1  0.34672148  0.33505841  0.45931917  1
  N  N16  1  0.74215679  0.08904678  0.89317960  1
  N  N17  1  0.51192634  0.08322856  0.55502085  1
  N  N18  1  0.00533907  0.42965144  0.49601053  1
  N  N19  1  0.67525912  0.65686157  0.14387434  1
  N  N20  1  0.39212301  0.53753119  0.20110014  1
  N  N21  1  0.35318044  0.45509703  0.19761250  1
  N  N22  1  0.38934122  0.36998832  0.93839058  1
  N  N23  1  0.92446147  0.67552259  0.17668543  1
  N  N24  1  0.16880307  0.90050002  0.50544951  1
  N  N25  1  0.24652178  0.03232901  0.97136684  1
  N  N26  1  0.62274673  0.52887439  0.90480764  1
  N  N27  1  0.48738203  0.83141373  0.21454493  1
  N  N28  1  0.09856157  0.94247488  0.56794007  1
  N  N29  1  0.60572184  0.36208492  0.22100460  1
  N  N30  1  0.54602451  0.14873561  0.50333557  1
  N  N31  1  0.95676098  0.05525050  0.05716296  1
  N  N32  1  0.72886143  0.86762493  0.34634034  1
  N  N33  1  0.86059002  0.27026910  0.21853233  1
  N  N34  1  0.33658182  0.17511674  0.17412944  1
  N  N35  1  0.14869082  0.59123820  0.33565149  1
  N  N36  1  0.22493636  0.80607928  0.09704762  1
  N  N37  1  0.60218303  0.38053736  0.12534591  1
  N  N38  1  0.67605638  0.19320590  0.74411760  1
  N  N39  1  0.87717904  0.47757626  0.04657044  1
  N  N40  1  0.72434219  0.89635812  0.06374142  1
  N  N41  1  0.17293720  0.15635073  0.53809531  1
  N  N42  1  0.67922718  0.10509737  0.19890376  1
  N  N43  1  0.21257023  0.41226646  0.73186556  1
  N  N44  1  0.80806178  0.27692201  0.50605733  1
  N  N45  1  0.53209683  0.39122419  0.65656580  1
  N  N46  1  0.37038436  0.88565528  0.75271915  1
  N  N47  1  0.76361883  0.12328657  0.78718759  1
  N  N48  1  0.31293676  0.34787648  0.99358603  1
  N  N49  1  0.83532519  0.69006028  0.87006171  1
loop_
_geom_bond_atom_site_label_1
_geom_bond_atom_site_label_2
_geom_bond_distance
_geom_bond_site_symmetry_2
Ga0 N4 2.226647 1_455
Ga1 N35 1.973914 1_555
Ga1 N20 2.527448 1_555
Ga2 N5 1.966493 1_554
Ga2 N39 2.037820 1_455
Ga2 N23 2.076765 1_455
Ga3 N4 1.916481 1_555
Ga4 N34 1.918794 1_555
Ga5 N26 1.951669 1_555
Ga5 N45 2.004546 1_555
Ga5 N10 2.005080 1_555
Ga5 N7 2.048845 1_555
Ga6 N11 1.919708 1_555
Ga6 N46 1.932343 1_555
Ga6 N7 1.935480 1_555
Ga7 N25 2.016356 1_554
Ga7 N31 2.030113 1_455
Ga7 N36 2.651903 1_545
Ga8 N45 2.040360 1_555
Ga8 N15 2.089269 1_555
Ga9 N33 1.867257 1_555
Ga9 N3 1.872647 1_555
Ga9 N31 1.988628 1_555
Ga10 N46 1.940593 1_555
Ga10 N25 1.942743 1_565
Ga11 N25 2.084580 1_555
Ga12 N26 1.920642 1_555
Ga12 N13 1.996662 1_555
Ga12 N39 2.039453 1_556
Ga13 N33 1.890651 1_555
Ga13 N39 1.912273 1_555
Ga14 N12 2.051142 1_555
Ga14 N18 2.079527 1_555
Ga15 N46 2.064991 1_555
Ga16 N3 1.885392 1_555
Ga16 N44 2.143531 1_555
Ga17 N26 1.932406 1_554
Ga17 N19 1.982200 1_555
Ga17 N11 2.054377 1_554
Ga18 N6 2.053976 1_555
Ga19 N47 2.164571 1_555
Ga20 N4 1.976104 1_455
Ga20 N23 1.999546 1_455
Ga20 N35 2.049154 1_555
Ga21 N27 1.871123 1_555
Ga21 N19 1.971697 1_555
Ga22 N18 2.020437 1_655
Ga22 N13 2.064462 1_555
Ga22 N44 2.205480 1_555
Ga23 N1 1.929636 1_555
Ga23 N16 1.994558 1_555
Ga24 N34 1.886332 1_555
Ga24 N15 2.292132 1_555
Ga24 N2 2.651589 1_555
Ga25 N27 1.967782 1_555
Ga25 N40 2.016685 1_555
Ga25 N11 2.069019 1_554
Ga26 N35 1.990137 1_555
Ga26 N21 2.347331 1_555
Ga27 N6 1.962669 1_555
Ga27 N4 1.975960 1_555
Ga27 N18 1.980983 1_655
Ga28 N46 2.105463 1_555
Ga28 N24 2.454891 1_555
Ga29 N40 1.896175 1_556
Ga29 N31 1.942468 1_566
Ga29 N16 2.000635 1_565
Ga30 N49 1.975045 1_555
Ga30 N5 2.086464 1_655
Ga30 N13 2.141054 1_555
Ga31 N44 1.912250 1_555
Ga31 N45 1.921304 1_555
Ga31 N38 2.086809 1_555
Ga33 N35 2.033302 1_555
Ga33 N12 2.035740 1_555
Ga33 N18 2.049066 1_555
Ga34 N34 1.953109 1_555
Ga34 N25 2.067697 1_554
Ga35 N31 1.998749 1_556
Ga37 N49 1.837439 1_555
Ga37 N10 1.964237 1_555
Ga37 N11 1.983404 1_555
Ga37 N26 2.163660 1_555
Ga38 N7 2.063117 1_555
Ga39 N19 1.925084 1_555
Ga39 N6 1.939530 1_555
Ga39 N39 1.956132 1_555
Ga39 N23 2.051707 1_555
Ga40 N33 1.838925 1_555
Ga40 N6 1.937460 1_555
Ga40 N44 1.945012 1_555
Ga41 N40 1.855147 1_555
Ga41 N23 1.949737 1_555
Ga41 N19 1.993643 1_555
Ga42 N28 2.360168 1_555
Ga43 N1 2.029204 1_555
Ga43 N45 2.117194 1_555
Ga43 N22 2.535192 1_555
Ga44 N27 1.893522 1_555
Ga45 N5 2.016374 1_555
Ga45 N7 2.040680 1_555
Ga45 N9 2.284420 1_556
Ga46 N3 1.984484 1_465
Ga46 N24 2.611071 1_555
Ga47 N10 2.010765 1_555
Ga48 N10 1.958530 1_555
Ga48 N13 2.058612 1_555
Ga49 N49 1.907326 1_555
Ga49 N5 2.089899 1_655
N0 N41 1.125802 1_555
N1 N38 1.308661 1_555
N2 N42 1.125850 1_555
N12 N15 1.236469 1_555
N14 N43 1.127280 1_555
N16 N47 1.330809 1_555
N17 N30 1.124447 1_555
N20 N21 1.150500 1_555
N22 N48 1.126944 1_555
N24 N28 1.133721 1_555
N29 N37 1.126140 1_555
N32 N8 1.115999 1_555
N36 N9 1.141055 1_555
N38 N47 1.360041 1_555
