# generated using pymatgen
data_LiSmGe2
_symmetry_space_group_name_H-M   'P 1'
_cell_length_a   3.91105571
_cell_length_b   7.80361075
_cell_length_c   10.54870722
_cell_angle_alpha   90.00000000
_cell_angle_beta   90.00000000
_cell_angle_gamma   90.00000000
_symmetry_Int_Tables_number   1
_chemical_formula_structural   LiSmGe2
_chemical_formula_sum   'Li4 Sm4 Ge8'
_cell_volume   321.95030373
_cell_formula_units_Z   4
loop_
 _symmetry_equiv_pos_site_id
 _symmetry_equiv_pos_as_xyz
  1  'x, y, z'
loop_
 _atom_site_type_symbol
 _atom_site_label
 _atom_site_symmetry_multiplicity
 _atom_site_fract_x
 _atom_site_fract_y
 _atom_site_fract_z
 _atom_site_occupancy
  Li  Li0  1  0.25000000  0.48644120  0.39130704  1
  Li  Li1  1  0.25000000  0.98644120  0.10869296  1
  Li  Li2  1  0.75000000  0.51355880  0.60869296  1
  Li  Li3  1  0.75000000  0.01355880  0.89130704  1
  Sm  Sm0  1  0.25000000  0.13925550  0.63597487  1
  Sm  Sm1  1  0.25000000  0.63925550  0.86402513  1
  Sm  Sm2  1  0.75000000  0.86074450  0.36402513  1
  Sm  Sm3  1  0.75000000  0.36074450  0.13597487  1
  Ge  Ge0  1  0.25000000  0.22631284  0.93365849  1
  Ge  Ge1  1  0.25000000  0.72631284  0.56634151  1
  Ge  Ge2  1  0.75000000  0.77368716  0.06634151  1
  Ge  Ge3  1  0.75000000  0.27368716  0.43365849  1
  Ge  Ge4  1  0.25000000  0.15357846  0.31506961  1
  Ge  Ge5  1  0.25000000  0.65357846  0.18493039  1
  Ge  Ge6  1  0.75000000  0.84642154  0.68493039  1
  Ge  Ge7  1  0.75000000  0.34642154  0.81506961  1
loop_
_geom_bond_atom_site_label_1
_geom_bond_atom_site_label_2
_geom_bond_distance
_geom_bond_site_symmetry_2
Ge0 Ge7 2.503495 1_555
Ge0 Ge7 2.503495 1_455
Ge0 Li3 2.603864 1_555
Ge0 Li3 2.603864 1_455
Ge0 Li1 2.629263 1_546
Ge0 Sm3 3.078849 1_556
Ge0 Sm3 3.078849 1_456
Ge0 Sm0 3.212825 1_555
Ge0 Sm1 3.305101 1_555
Ge1 Ge6 2.503495 1_455
Ge1 Ge6 2.503495 1_555
Ge1 Li2 2.603864 1_455
Ge1 Li2 2.603864 1_555
Ge1 Li0 2.629263 1_555
Ge1 Sm2 3.078849 1_555
Ge1 Sm2 3.078849 1_455
Ge1 Sm1 3.212825 1_555
Ge1 Sm0 3.305101 1_565
Ge2 Ge5 2.503495 1_655
Ge2 Ge5 2.503495 1_555
Ge2 Li1 2.603864 1_655
Ge2 Li1 2.603864 1_555
Ge2 Li3 2.629263 1_564
Ge2 Sm1 3.078849 1_554
Ge2 Sm1 3.078849 1_654
Ge2 Sm2 3.212825 1_555
Ge2 Sm3 3.305101 1_555
Ge3 Ge4 2.503495 1_655
Ge3 Ge4 2.503495 1_555
Ge3 Li0 2.603864 1_655
Ge3 Li0 2.603864 1_555
Ge3 Li2 2.629263 1_555
Ge3 Sm0 3.078849 1_555
Ge3 Sm0 3.078849 1_655
Ge3 Sm3 3.212825 1_555
Ge3 Sm2 3.305101 1_545
Ge4 Li1 2.537812 1_545
Ge4 Li0 2.719176 1_555
Ge4 Sm2 3.051679 1_545
Ge4 Sm2 3.051679 1_445
Ge4 Sm3 3.163348 1_455
Ge4 Sm3 3.163348 1_555
Ge4 Sm0 3.386980 1_555
Ge5 Li0 2.537812 1_555
Ge5 Li1 2.719176 1_555
Ge5 Sm3 3.051679 1_455
Ge5 Sm3 3.051679 1_555
Ge5 Sm2 3.163348 1_455
Ge5 Sm2 3.163348 1_555
Ge5 Sm1 3.386980 1_554
Ge6 Li3 2.537812 1_565
Ge6 Li2 2.719176 1_555
Ge6 Sm0 3.051679 1_665
Ge6 Sm0 3.051679 1_565
Ge6 Sm1 3.163348 1_555
Ge6 Sm1 3.163348 1_655
Ge6 Sm2 3.386980 1_555
Ge7 Li2 2.537812 1_555
Ge7 Li3 2.719176 1_555
Ge7 Sm1 3.051679 1_555
Ge7 Sm1 3.051679 1_655
Ge7 Sm0 3.163348 1_555
Ge7 Sm0 3.163348 1_655
Ge7 Sm3 3.386980 1_556
