# generated using pymatgen
data_Mg14CoSi
_symmetry_space_group_name_H-M   'P 1'
_cell_length_a   6.18273782
_cell_length_b   6.18273735
_cell_length_c   10.12923405
_cell_angle_alpha   90.00000000
_cell_angle_beta   90.00000000
_cell_angle_gamma   120.00000249
_symmetry_Int_Tables_number   1
_chemical_formula_structural   Mg14CoSi
_chemical_formula_sum   'Mg14 Co1 Si1'
_cell_volume   335.32725630
_cell_formula_units_Z   1
loop_
 _symmetry_equiv_pos_site_id
 _symmetry_equiv_pos_as_xyz
  1  'x, y, z'
loop_
 _atom_site_type_symbol
 _atom_site_label
 _atom_site_symmetry_multiplicity
 _atom_site_fract_x
 _atom_site_fract_y
 _atom_site_fract_z
 _atom_site_occupancy
  Mg  Mg0  1  0.16444394  0.83222147  0.12500000  1
  Mg  Mg1  1  0.16721324  0.83360612  0.62500000  1
  Mg  Mg2  1  0.66777853  0.33555606  0.12500000  1
  Mg  Mg3  1  0.66639388  0.33278676  0.62500000  1
  Mg  Mg4  1  0.66777853  0.83222147  0.12500000  1
  Mg  Mg5  1  0.66639388  0.83360612  0.62500000  1
  Mg  Mg6  1  0.32697013  0.17302987  0.36659484  1
  Mg  Mg7  1  0.32697013  0.17302987  0.88340516  1
  Mg  Mg8  1  0.32697013  0.65394126  0.36659484  1
  Mg  Mg9  1  0.32697013  0.65394126  0.88340516  1
  Mg  Mg10  1  0.84605874  0.17302987  0.36659484  1
  Mg  Mg11  1  0.84605874  0.17302987  0.88340516  1
  Mg  Mg12  1  0.83333300  0.66666700  0.37484056  1
  Mg  Mg13  1  0.83333300  0.66666700  0.87515944  1
  Co  Co0  1  0.16666700  0.33333300  0.12500000  1
  Si  Si0  1  0.16666700  0.33333300  0.62500000  1
loop_
_geom_bond_atom_site_label_1
_geom_bond_atom_site_label_2
_geom_bond_distance
_geom_bond_site_symmetry_2
Mg0 Mg8 3.053027 1_555
Mg0 Mg9 3.053027 1_554
Mg0 Mg7 3.053033 1_564
Mg0 Mg6 3.053033 1_565
Mg0 Mg2 3.070752 1_455
Mg0 Mg4 3.070752 1_455
Mg0 Mg13 3.089918 1_454
Mg0 Mg12 3.089918 1_455
Mg0 Mg2 3.111986 1_565
Mg0 Mg4 3.111986 1_555
Mg1 Mg3 3.086303 1_565
Mg1 Mg5 3.086303 1_555
Mg1 Si0 3.091370 1_555
Mg1 Si0 3.091370 1_565
Mg1 Mg3 3.096435 1_455
Mg1 Mg5 3.096435 1_455
Mg1 Mg12 3.101089 1_455
Mg1 Mg13 3.101089 1_455
Mg1 Mg8 3.187125 1_555
Mg1 Mg9 3.187125 1_555
Mg1 Mg6 3.187131 1_565
Mg1 Mg7 3.187131 1_565
Mg2 Mg7 3.053033 1_554
Mg2 Mg6 3.053033 1_555
Mg2 Mg4 3.070752 1_555
Mg2 Mg4 3.111986 1_545
Mg3 Mg5 3.086303 1_545
Mg3 Si0 3.091370 1_655
Mg3 Si0 3.091370 1_555
Mg3 Mg5 3.096435 1_555
Mg3 Mg6 3.187131 1_555
Mg3 Mg7 3.187131 1_555
Mg4 Mg8 3.053033 1_555
Mg4 Mg9 3.053033 1_554
Mg5 Si0 3.091370 1_555
Mg5 Si0 3.091370 1_665
Mg5 Mg8 3.187131 1_555
Mg5 Mg9 3.187131 1_555
Mg6 Mg8 2.973349 1_555
Mg6 Si0 3.130165 1_555
Mg6 Mg8 3.209389 1_545
Mg7 Mg9 2.973349 1_555
Mg7 Si0 3.130165 1_555
Mg7 Mg9 3.209389 1_545
Mg8 Si0 3.130171 1_555
Mg9 Si0 3.130171 1_555
Mg10 Mg8 2.973349 1_655
Mg10 Mg6 2.973349 1_655
Mg10 Mg2 3.053027 1_555
Mg10 Mg4 3.053033 1_545
Mg10 Mg12 3.093247 1_545
Mg10 Mg12 3.093247 1_555
Mg10 Si0 3.130171 1_655
Mg10 Mg3 3.187125 1_555
Mg10 Mg5 3.187131 1_545
Mg10 Mg8 3.209389 1_545
Mg10 Mg6 3.209389 1_555
Mg11 Mg9 2.973349 1_655
Mg11 Mg7 2.973349 1_655
Mg11 Mg2 3.053027 1_556
Mg11 Mg4 3.053033 1_546
Mg11 Mg13 3.093247 1_545
Mg11 Mg13 3.093247 1_555
Mg11 Si0 3.130171 1_655
Mg11 Mg3 3.187125 1_555
Mg11 Mg5 3.187131 1_545
Mg11 Mg9 3.209389 1_545
Mg11 Mg7 3.209389 1_555
Mg12 Mg4 3.089912 1_555
Mg12 Mg2 3.089918 1_555
Mg12 Mg6 3.093247 1_665
Mg12 Mg6 3.093247 1_555
Mg12 Mg8 3.093248 1_555
Mg12 Mg8 3.093248 1_655
Mg12 Mg5 3.101082 1_555
Mg12 Mg3 3.101089 1_555
Mg13 Mg4 3.089912 1_556
Mg13 Mg2 3.089918 1_556
Mg13 Mg7 3.093247 1_665
Mg13 Mg7 3.093247 1_555
Mg13 Mg9 3.093248 1_555
Mg13 Mg9 3.093248 1_655
Mg13 Mg5 3.101082 1_555
Mg13 Mg3 3.101089 1_555
Co0 Mg6 2.989240 1_555
Co0 Mg7 2.989240 1_554
Co0 Mg8 2.989246 1_555
Co0 Mg9 2.989246 1_554
Co0 Mg11 2.989246 1_454
Co0 Mg10 2.989246 1_455
Co0 Mg4 3.091392 1_445
Co0 Mg0 3.091392 1_545
Co0 Mg4 3.091392 1_555
Co0 Mg0 3.091392 1_555
Co0 Mg2 3.091392 1_455
Co0 Mg2 3.091392 1_555
