# generated using pymatgen
data_Te6MoW3Se2
_symmetry_space_group_name_H-M   'P 1'
_cell_length_a   3.49765158
_cell_length_b   3.49765158
_cell_length_c   39.65271600
_cell_angle_alpha   90.00000000
_cell_angle_beta   90.00000000
_cell_angle_gamma   119.99999205
_symmetry_Int_Tables_number   1
_chemical_formula_structural   Te6MoW3Se2
_chemical_formula_sum   'Te6 Mo1 W3 Se2'
_cell_volume   420.10388294
_cell_formula_units_Z   1
loop_
 _symmetry_equiv_pos_site_id
 _symmetry_equiv_pos_as_xyz
  1  'x, y, z'
loop_
 _atom_site_type_symbol
 _atom_site_label
 _atom_site_symmetry_multiplicity
 _atom_site_fract_x
 _atom_site_fract_y
 _atom_site_fract_z
 _atom_site_occupancy
  Te  Te0  1  0.00000000  0.00000000  0.70400100  1
  Te  Te1  1  0.33333300  0.66666700  0.04773900  1
  Te  Te2  1  0.33333300  0.66666700  0.42319500  1
  Te  Te3  1  0.33333300  0.66666700  0.14011700  1
  Te  Te4  1  0.33333300  0.66666700  0.51611900  1
  Te  Te5  1  0.00000000  0.00000000  0.61107300  1
  Mo  Mo0  1  0.00000000  0.00000000  0.09392100  1
  W  W0  1  0.00000000  0.00000000  0.46964200  1
  W  W1  1  0.33333300  0.66666700  0.28179600  1
  W  W2  1  0.33333300  0.66666700  0.65755200  1
  Se  Se0  1  0.00000000  0.00000000  0.32273300  1
  Se  Se1  1  0.00000000  0.00000000  0.24086000  1
loop_
_geom_bond_atom_site_label_1
_geom_bond_atom_site_label_2
_geom_bond_distance
_geom_bond_site_symmetry_2
Te0 W2 2.733163 1_545
Te0 W2 2.733166 1_555
Te0 W2 2.733166 1_445
Te2 W0 2.733110 1_565
Te2 W0 2.733112 1_665
Te2 W0 2.733112 1_555
Te4 W0 2.733912 1_565
Te4 W0 2.733914 1_665
Te4 W0 2.733914 1_555
Te5 W2 2.733965 1_545
Te5 W2 2.733967 1_555
Te5 W2 2.733967 1_445
Mo0 Te1 2.726040 1_545
Mo0 Te1 2.726042 1_445
Mo0 Te1 2.726042 1_555
Mo0 Te3 2.726413 1_545
Mo0 Te3 2.726415 1_445
Mo0 Te3 2.726415 1_555
Se0 W1 2.590913 1_545
Se0 W1 2.590916 1_445
Se0 W1 2.590916 1_555
Se1 W1 2.590888 1_545
Se1 W1 2.590891 1_555
Se1 W1 2.590891 1_445
