# generated using pymatgen
data_Mg14CuSb
_symmetry_space_group_name_H-M   'P 1'
_cell_length_a   6.27664179
_cell_length_b   6.27664130
_cell_length_c   10.30466980
_cell_angle_alpha   90.00000000
_cell_angle_beta   90.00000000
_cell_angle_gamma   120.00000264
_symmetry_Int_Tables_number   1
_chemical_formula_structural   Mg14CuSb
_chemical_formula_sum   'Mg14 Cu1 Sb1'
_cell_volume   351.57610797
_cell_formula_units_Z   1
loop_
 _symmetry_equiv_pos_site_id
 _symmetry_equiv_pos_as_xyz
  1  'x, y, z'
loop_
 _atom_site_type_symbol
 _atom_site_label
 _atom_site_symmetry_multiplicity
 _atom_site_fract_x
 _atom_site_fract_y
 _atom_site_fract_z
 _atom_site_occupancy
  Mg  Mg0  1  0.16445651  0.83222776  0.12500000  1
  Mg  Mg1  1  0.16694347  0.83347124  0.62500000  1
  Mg  Mg2  1  0.66777224  0.33554349  0.12500000  1
  Mg  Mg3  1  0.66652876  0.33305653  0.62500000  1
  Mg  Mg4  1  0.66777224  0.83222776  0.12500000  1
  Mg  Mg5  1  0.66652876  0.83347124  0.62500000  1
  Mg  Mg6  1  0.33118453  0.16881547  0.36430483  1
  Mg  Mg7  1  0.33118453  0.16881547  0.88569517  1
  Mg  Mg8  1  0.33118453  0.66237007  0.36430483  1
  Mg  Mg9  1  0.33118453  0.66237007  0.88569517  1
  Mg  Mg10  1  0.83762993  0.16881547  0.36430483  1
  Mg  Mg11  1  0.83762993  0.16881547  0.88569517  1
  Mg  Mg12  1  0.83333300  0.66666700  0.37458994  1
  Mg  Mg13  1  0.83333300  0.66666700  0.87541006  1
  Cu  Cu0  1  0.16666700  0.33333300  0.12500000  1
  Sb  Sb0  1  0.16666700  0.33333300  0.62500000  1
loop_
_geom_bond_atom_site_label_1
_geom_bond_atom_site_label_2
_geom_bond_distance
_geom_bond_site_symmetry_2
Mg0 Mg9 3.070576 1_554
Mg0 Mg8 3.070576 1_555
Mg0 Mg6 3.070583 1_565
Mg0 Mg7 3.070583 1_564
Mg0 Mg2 3.117509 1_455
Mg0 Mg4 3.117509 1_455
Mg0 Mg13 3.139191 1_454
Mg0 Mg12 3.139191 1_455
Mg0 Mg2 3.159132 1_565
Mg0 Mg4 3.159133 1_555
Mg1 Sb0 3.138321 1_565
Mg1 Sb0 3.138321 1_555
Mg1 Mg12 3.153872 1_455
Mg1 Mg13 3.153872 1_455
Mg1 Mg9 3.246506 1_555
Mg1 Mg8 3.246506 1_555
Mg1 Mg6 3.246512 1_565
Mg1 Mg7 3.246512 1_565
Mg2 Mg7 3.070583 1_554
Mg2 Mg6 3.070583 1_555
Mg2 Mg4 3.117509 1_555
Mg2 Mg4 3.159132 1_545
Mg3 Sb0 3.138321 1_555
Mg3 Sb0 3.138321 1_655
Mg3 Mg6 3.246512 1_555
Mg3 Mg7 3.246512 1_555
Mg4 Mg8 3.070583 1_555
Mg4 Mg9 3.070583 1_554
Mg5 Sb0 3.138321 1_555
Mg5 Sb0 3.138321 1_665
Mg5 Mg8 3.246512 1_555
Mg5 Mg9 3.246512 1_555
Mg6 Mg8 3.097865 1_555
Mg6 Mg8 3.178776 1_545
Mg6 Sb0 3.227309 1_555
Mg7 Mg9 3.097865 1_555
Mg7 Mg9 3.178776 1_545
Mg7 Sb0 3.227309 1_555
Mg8 Sb0 3.227315 1_555
Mg9 Sb0 3.227315 1_555
Mg10 Mg2 3.070576 1_555
Mg10 Mg4 3.070583 1_545
Mg10 Mg8 3.097865 1_655
Mg10 Mg6 3.097865 1_655
Mg10 Mg12 3.140197 1_555
Mg10 Mg12 3.140197 1_545
Mg10 Mg8 3.178776 1_545
Mg10 Mg6 3.178776 1_555
Mg10 Sb0 3.227315 1_655
Mg10 Mg3 3.246506 1_555
Mg10 Mg5 3.246512 1_545
Mg11 Mg2 3.070576 1_556
Mg11 Mg4 3.070583 1_546
Mg11 Mg9 3.097865 1_655
Mg11 Mg7 3.097865 1_655
Mg11 Mg13 3.140197 1_555
Mg11 Mg13 3.140197 1_545
Mg11 Mg9 3.178776 1_545
Mg11 Mg7 3.178776 1_555
Mg11 Sb0 3.227315 1_655
Mg11 Mg3 3.246506 1_555
Mg11 Mg5 3.246512 1_545
Mg12 Mg4 3.139185 1_555
Mg12 Mg2 3.139191 1_555
Mg12 Mg6 3.140197 1_665
Mg12 Mg6 3.140197 1_555
Mg12 Mg8 3.140197 1_655
Mg12 Mg8 3.140197 1_555
Mg12 Mg5 3.153866 1_555
Mg12 Mg3 3.153872 1_555
Mg13 Mg4 3.139185 1_556
Mg13 Mg2 3.139191 1_556
Mg13 Mg7 3.140197 1_665
Mg13 Mg7 3.140197 1_555
Mg13 Mg9 3.140197 1_655
Mg13 Mg9 3.140197 1_555
Mg13 Mg5 3.153866 1_555
Mg13 Mg3 3.153872 1_555
Cu0 Mg7 3.046283 1_554
Cu0 Mg6 3.046283 1_555
Cu0 Mg8 3.046290 1_555
Cu0 Mg9 3.046290 1_554
Cu0 Mg11 3.046290 1_454
Cu0 Mg10 3.046290 1_455
Cu0 Mg0 3.138344 1_545
Cu0 Mg4 3.138344 1_445
Cu0 Mg4 3.138344 1_555
Cu0 Mg0 3.138344 1_555
Cu0 Mg2 3.138344 1_555
Cu0 Mg2 3.138344 1_455
