# generated using pymatgen
data_Nb6BiS8
_symmetry_space_group_name_H-M   'P 1'
_cell_length_a   19.40400092
_cell_length_b   19.40400092
_cell_length_c   6.75956400
_cell_angle_alpha   90.00000000
_cell_angle_beta   90.00000000
_cell_angle_gamma   120.00000314
_symmetry_Int_Tables_number   1
_chemical_formula_structural   Nb6BiS8
_chemical_formula_sum   'Nb48 Bi8 S64'
_cell_volume   2204.10294810
_cell_formula_units_Z   8
loop_
 _symmetry_equiv_pos_site_id
 _symmetry_equiv_pos_as_xyz
  1  'x, y, z'
loop_
 _atom_site_type_symbol
 _atom_site_label
 _atom_site_symmetry_multiplicity
 _atom_site_fract_x
 _atom_site_fract_y
 _atom_site_fract_z
 _atom_site_occupancy
  Nb  Nb0_0  1  0.05779600  0.31393550  0.12531950  1
  Nb  Nb0_1  1  0.05779600  0.31393550  0.62531950  1
  Nb  Nb0_2  1  0.05779600  0.81393550  0.12531950  1
  Nb  Nb0_3  1  0.05779600  0.81393550  0.62531950  1
  Nb  Nb0_4  1  0.55779600  0.31393550  0.12531950  1
  Nb  Nb0_5  1  0.55779600  0.31393550  0.62531950  1
  Nb  Nb0_6  1  0.55779600  0.81393550  0.12531950  1
  Nb  Nb0_7  1  0.55779600  0.81393550  0.62531950  1
  Nb  Nb1_0  1  0.25613950  0.44220400  0.12531950  1
  Nb  Nb1_1  1  0.25613950  0.44220400  0.62531950  1
  Nb  Nb1_2  1  0.25613950  0.94220400  0.12531950  1
  Nb  Nb1_3  1  0.25613950  0.94220400  0.62531950  1
  Nb  Nb1_4  1  0.75613950  0.44220400  0.12531950  1
  Nb  Nb1_5  1  0.75613950  0.44220400  0.62531950  1
  Nb  Nb1_6  1  0.75613950  0.94220400  0.12531950  1
  Nb  Nb1_7  1  0.75613950  0.94220400  0.62531950  1
  Nb  Nb2_0  1  0.18606450  0.24386050  0.12531950  1
  Nb  Nb2_1  1  0.18606450  0.24386050  0.62531950  1
  Nb  Nb2_2  1  0.18606450  0.74386050  0.12531950  1
  Nb  Nb2_3  1  0.18606450  0.74386050  0.62531950  1
  Nb  Nb2_4  1  0.68606450  0.24386050  0.12531950  1
  Nb  Nb2_5  1  0.68606450  0.24386050  0.62531950  1
  Nb  Nb2_6  1  0.68606450  0.74386050  0.12531950  1
  Nb  Nb2_7  1  0.68606450  0.74386050  0.62531950  1
  Nb  Nb3_0  1  0.44220400  0.18606450  0.37468050  1
  Nb  Nb3_1  1  0.44220400  0.18606450  0.87468050  1
  Nb  Nb3_2  1  0.44220400  0.68606450  0.37468050  1
  Nb  Nb3_3  1  0.44220400  0.68606450  0.87468050  1
  Nb  Nb3_4  1  0.94220400  0.18606450  0.37468050  1
  Nb  Nb3_5  1  0.94220400  0.18606450  0.87468050  1
  Nb  Nb3_6  1  0.94220400  0.68606450  0.37468050  1
  Nb  Nb3_7  1  0.94220400  0.68606450  0.87468050  1
  Nb  Nb4_0  1  0.24386050  0.05779600  0.37468050  1
  Nb  Nb4_1  1  0.24386050  0.05779600  0.87468050  1
  Nb  Nb4_2  1  0.24386050  0.55779600  0.37468050  1
  Nb  Nb4_3  1  0.24386050  0.55779600  0.87468050  1
  Nb  Nb4_4  1  0.74386050  0.05779600  0.37468050  1
  Nb  Nb4_5  1  0.74386050  0.05779600  0.87468050  1
  Nb  Nb4_6  1  0.74386050  0.55779600  0.37468050  1
  Nb  Nb4_7  1  0.74386050  0.55779600  0.87468050  1
  Nb  Nb5_0  1  0.31393550  0.25613950  0.37468050  1
  Nb  Nb5_1  1  0.31393550  0.25613950  0.87468050  1
  Nb  Nb5_2  1  0.31393550  0.75613950  0.37468050  1
  Nb  Nb5_3  1  0.31393550  0.75613950  0.87468050  1
  Nb  Nb5_4  1  0.81393550  0.25613950  0.37468050  1
  Nb  Nb5_5  1  0.81393550  0.25613950  0.87468050  1
  Nb  Nb5_6  1  0.81393550  0.75613950  0.37468050  1
  Nb  Nb5_7  1  0.81393550  0.75613950  0.87468050  1
  Bi  Bi0_0  1  0.00000000  0.00000000  0.25000000  1
  Bi  Bi0_1  1  0.00000000  0.00000000  0.75000000  1
  Bi  Bi0_2  1  0.00000000  0.50000000  0.25000000  1
  Bi  Bi0_3  1  0.00000000  0.50000000  0.75000000  1
  Bi  Bi0_4  1  0.50000000  0.00000000  0.25000000  1
  Bi  Bi0_5  1  0.50000000  0.00000000  0.75000000  1
  Bi  Bi0_6  1  0.50000000  0.50000000  0.25000000  1
  Bi  Bi0_7  1  0.50000000  0.50000000  0.75000000  1
  S  S0_0  1  0.33333350  0.16666650  0.12488800  1
  S  S0_1  1  0.33333350  0.16666650  0.62488800  1
  S  S0_2  1  0.33333350  0.66666650  0.12488800  1
  S  S0_3  1  0.33333350  0.66666650  0.62488800  1
  S  S0_4  1  0.83333350  0.16666650  0.12488800  1
  S  S0_5  1  0.83333350  0.16666650  0.62488800  1
  S  S0_6  1  0.83333350  0.66666650  0.12488800  1
  S  S0_7  1  0.83333350  0.66666650  0.62488800  1
  S  S1_0  1  0.16666650  0.33333350  0.37511200  1
  S  S1_1  1  0.16666650  0.33333350  0.87511200  1
  S  S1_2  1  0.16666650  0.83333350  0.37511200  1
  S  S1_3  1  0.16666650  0.83333350  0.87511200  1
  S  S1_4  1  0.66666650  0.33333350  0.37511200  1
  S  S1_5  1  0.66666650  0.33333350  0.87511200  1
  S  S1_6  1  0.66666650  0.83333350  0.37511200  1
  S  S1_7  1  0.66666650  0.83333350  0.87511200  1
  S  S2_0  1  0.14363800  0.47338800  0.12482550  1
  S  S2_1  1  0.14363800  0.47338800  0.62482550  1
  S  S2_2  1  0.14363800  0.97338800  0.12482550  1
  S  S2_3  1  0.14363800  0.97338800  0.62482550  1
  S  S2_4  1  0.64363800  0.47338800  0.12482550  1
  S  S2_5  1  0.64363800  0.47338800  0.62482550  1
  S  S2_6  1  0.64363800  0.97338800  0.12482550  1
  S  S2_7  1  0.64363800  0.97338800  0.62482550  1
  S  S3_0  1  0.32975000  0.35636200  0.12482550  1
  S  S3_1  1  0.32975000  0.35636200  0.62482550  1
  S  S3_2  1  0.32975000  0.85636200  0.12482550  1
  S  S3_3  1  0.32975000  0.85636200  0.62482550  1
  S  S3_4  1  0.82975000  0.35636200  0.12482550  1
  S  S3_5  1  0.82975000  0.35636200  0.62482550  1
  S  S3_6  1  0.82975000  0.85636200  0.12482550  1
  S  S3_7  1  0.82975000  0.85636200  0.62482550  1
  S  S4_0  1  0.02661200  0.17025000  0.12482550  1
  S  S4_1  1  0.02661200  0.17025000  0.62482550  1
  S  S4_2  1  0.02661200  0.67025000  0.12482550  1
  S  S4_3  1  0.02661200  0.67025000  0.62482550  1
  S  S4_4  1  0.52661200  0.17025000  0.12482550  1
  S  S4_5  1  0.52661200  0.17025000  0.62482550  1
  S  S4_6  1  0.52661200  0.67025000  0.12482550  1
  S  S4_7  1  0.52661200  0.67025000  0.62482550  1
  S  S5_0  1  0.35636200  0.02661200  0.37517450  1
  S  S5_1  1  0.35636200  0.02661200  0.87517450  1
  S  S5_2  1  0.35636200  0.52661200  0.37517450  1
  S  S5_3  1  0.35636200  0.52661200  0.87517450  1
  S  S5_4  1  0.85636200  0.02661200  0.37517450  1
  S  S5_5  1  0.85636200  0.02661200  0.87517450  1
  S  S5_6  1  0.85636200  0.52661200  0.37517450  1
  S  S5_7  1  0.85636200  0.52661200  0.87517450  1
  S  S6_0  1  0.17025000  0.14363800  0.37517450  1
  S  S6_1  1  0.17025000  0.14363800  0.87517450  1
  S  S6_2  1  0.17025000  0.64363800  0.37517450  1
  S  S6_3  1  0.17025000  0.64363800  0.87517450  1
  S  S6_4  1  0.67025000  0.14363800  0.37517450  1
  S  S6_5  1  0.67025000  0.14363800  0.87517450  1
  S  S6_6  1  0.67025000  0.64363800  0.37517450  1
  S  S6_7  1  0.67025000  0.64363800  0.87517450  1
  S  S7_0  1  0.47338800  0.32975000  0.37517450  1
  S  S7_1  1  0.47338800  0.32975000  0.87517450  1
  S  S7_2  1  0.47338800  0.82975000  0.37517450  1
  S  S7_3  1  0.47338800  0.82975000  0.87517450  1
  S  S7_4  1  0.97338800  0.32975000  0.37517450  1
  S  S7_5  1  0.97338800  0.32975000  0.87517450  1
  S  S7_6  1  0.97338800  0.82975000  0.37517450  1
  S  S7_7  1  0.97338800  0.82975000  0.87517450  1
loop_
_geom_bond_atom_site_label_1
_geom_bond_atom_site_label_2
_geom_bond_distance
_geom_bond_site_symmetry_2
Nb0_0 S7_4 2.476236 1_455
Nb0_0 S7_5 2.477574 1_454
Nb0_0 S4_0 2.540169 1_555
Nb0_0 S1_0 2.580750 1_555
Nb0_0 S1_1 2.582587 1_554
Nb0_0 S2_0 2.682125 1_555
Nb0_1 S7_5 2.476236 1_455
Nb0_1 S7_4 2.477574 1_455
Nb0_1 S4_1 2.540169 1_555
Nb0_1 S1_1 2.580750 1_555
Nb0_1 S1_0 2.582587 1_555
Nb0_1 S2_1 2.682125 1_555
Nb0_2 S7_6 2.476236 1_455
Nb0_2 S7_7 2.477574 1_454
Nb0_2 S4_2 2.540169 1_555
Nb0_2 S1_2 2.580750 1_555
Nb0_2 S1_3 2.582587 1_554
Nb0_2 S2_2 2.682125 1_555
Nb0_3 S7_7 2.476236 1_455
Nb0_3 S7_6 2.477574 1_455
Nb0_3 S4_3 2.540169 1_555
Nb0_3 S1_3 2.580750 1_555
Nb0_3 S1_2 2.582587 1_555
Nb0_3 S2_3 2.682125 1_555
Nb0_4 S7_0 2.476236 1_555
Nb0_4 S7_1 2.477574 1_554
Nb0_4 S4_4 2.540169 1_555
Nb0_4 S1_4 2.580750 1_555
Nb0_4 S1_5 2.582587 1_554
Nb0_4 S2_4 2.682125 1_555
Nb0_5 S7_1 2.476236 1_555
Nb0_5 S7_0 2.477574 1_555
Nb0_5 S4_5 2.540169 1_555
Nb0_5 S1_5 2.580750 1_555
Nb0_5 S1_4 2.582587 1_555
Nb0_5 S2_5 2.682125 1_555
Nb0_6 S7_2 2.476236 1_555
Nb0_6 S7_3 2.477574 1_554
Nb0_6 S4_6 2.540169 1_555
Nb0_6 S1_6 2.580750 1_555
Nb0_6 S1_7 2.582587 1_554
Nb0_6 S2_6 2.682125 1_555
Nb0_7 S7_3 2.476236 1_555
Nb0_7 S7_2 2.477574 1_555
Nb0_7 S4_7 2.540169 1_555
Nb0_7 S1_7 2.580750 1_555
Nb0_7 S1_6 2.582587 1_555
Nb0_7 S2_7 2.682125 1_555
Nb1_0 S5_2 2.476236 1_555
Nb1_0 S5_3 2.477574 1_554
Nb1_0 S2_0 2.540169 1_555
Nb1_0 S1_0 2.580753 1_555
Nb1_0 S1_1 2.582589 1_554
Nb1_0 S3_0 2.682126 1_555
Nb1_1 S5_3 2.476236 1_555
Nb1_1 S5_2 2.477574 1_555
Nb1_1 S2_1 2.540169 1_555
Nb1_1 S1_1 2.580753 1_555
Nb1_1 S1_0 2.582589 1_555
Nb1_1 S3_1 2.682126 1_555
Nb1_2 S5_0 2.476236 1_565
Nb1_2 S5_1 2.477574 1_564
Nb1_2 S2_2 2.540169 1_555
Nb1_2 S1_2 2.580753 1_555
Nb1_2 S1_3 2.582589 1_554
Nb1_2 S3_2 2.682126 1_555
Nb1_3 S5_1 2.476236 1_565
Nb1_3 S5_0 2.477574 1_565
Nb1_3 S2_3 2.540169 1_555
Nb1_3 S1_3 2.580753 1_555
Nb1_3 S1_2 2.582589 1_555
Nb1_3 S3_3 2.682126 1_555
Nb1_4 S5_6 2.476236 1_555
Nb1_4 S5_7 2.477574 1_554
Nb1_4 S2_4 2.540169 1_555
Nb1_4 S1_4 2.580753 1_555
Nb1_4 S1_5 2.582589 1_554
Nb1_4 S3_4 2.682126 1_555
Nb1_5 S5_7 2.476236 1_555
Nb1_5 S5_6 2.477574 1_555
Nb1_5 S2_5 2.540169 1_555
Nb1_5 S1_5 2.580753 1_555
Nb1_5 S1_4 2.582589 1_555
Nb1_5 S3_5 2.682126 1_555
Nb1_6 S5_4 2.476236 1_565
Nb1_6 S5_5 2.477574 1_564
Nb1_6 S2_6 2.540169 1_555
Nb1_6 S1_6 2.580753 1_555
Nb1_6 S1_7 2.582589 1_554
Nb1_6 S3_6 2.682126 1_555
Nb1_7 S5_5 2.476236 1_565
Nb1_7 S5_4 2.477574 1_565
Nb1_7 S2_7 2.540169 1_555
Nb1_7 S1_7 2.580753 1_555
Nb1_7 S1_6 2.582589 1_555
Nb1_7 S3_7 2.682126 1_555
Nb2_0 S6_0 2.476236 1_555
Nb2_0 S6_1 2.477574 1_554
Nb2_0 S3_0 2.540169 1_555
Nb2_0 S1_0 2.580758 1_555
Nb2_0 S1_1 2.582594 1_554
Nb2_0 S4_0 2.682125 1_555
Nb2_1 S6_1 2.476236 1_555
Nb2_1 S6_0 2.477574 1_555
Nb2_1 S3_1 2.540169 1_555
Nb2_1 S1_1 2.580758 1_555
Nb2_1 S1_0 2.582594 1_555
Nb2_1 S4_1 2.682125 1_555
Nb2_2 S6_2 2.476236 1_555
Nb2_2 S6_3 2.477574 1_554
Nb2_2 S3_2 2.540169 1_555
Nb2_2 S1_2 2.580758 1_555
Nb2_2 S1_3 2.582594 1_554
Nb2_2 S4_2 2.682125 1_555
Nb2_3 S6_3 2.476236 1_555
Nb2_3 S6_2 2.477574 1_555
Nb2_3 S3_3 2.540169 1_555
Nb2_3 S1_3 2.580758 1_555
Nb2_3 S1_2 2.582594 1_555
Nb2_3 S4_3 2.682125 1_555
Nb2_4 S6_4 2.476236 1_555
Nb2_4 S6_5 2.477574 1_554
Nb2_4 S3_4 2.540169 1_555
Nb2_4 S1_4 2.580758 1_555
Nb2_4 S1_5 2.582594 1_554
Nb2_4 S4_4 2.682125 1_555
Nb2_5 S6_5 2.476236 1_555
Nb2_5 S6_4 2.477574 1_555
Nb2_5 S3_5 2.540169 1_555
Nb2_5 S1_5 2.580758 1_555
Nb2_5 S1_4 2.582594 1_555
Nb2_5 S4_5 2.682125 1_555
Nb2_6 S6_6 2.476236 1_555
Nb2_6 S6_7 2.477574 1_554
Nb2_6 S3_6 2.540169 1_555
Nb2_6 S1_6 2.580758 1_555
Nb2_6 S1_7 2.582594 1_554
Nb2_6 S4_6 2.682125 1_555
Nb2_7 S6_7 2.476236 1_555
Nb2_7 S6_6 2.477574 1_555
Nb2_7 S3_7 2.540169 1_555
Nb2_7 S1_7 2.580758 1_555
Nb2_7 S1_6 2.582594 1_555
Nb2_7 S4_7 2.682125 1_555
Nb3_0 S4_4 2.476236 1_555
Nb3_0 S4_5 2.477574 1_555
Nb3_0 S7_0 2.540169 1_555
Nb3_0 S0_0 2.580750 1_555
Nb3_0 S0_1 2.582587 1_555
Nb3_0 S5_0 2.682125 1_555
Nb3_1 S4_5 2.476236 1_555
Nb3_1 S4_4 2.477574 1_556
Nb3_1 S7_1 2.540169 1_555
Nb3_1 S0_1 2.580750 1_555
Nb3_1 S0_0 2.582587 1_556
Nb3_1 S5_1 2.682125 1_555
Nb3_2 S4_6 2.476236 1_555
Nb3_2 S4_7 2.477574 1_555
Nb3_2 S7_2 2.540169 1_555
Nb3_2 S0_2 2.580750 1_555
Nb3_2 S0_3 2.582587 1_555
Nb3_2 S5_2 2.682125 1_555
Nb3_3 S4_7 2.476236 1_555
Nb3_3 S4_6 2.477574 1_556
Nb3_3 S7_3 2.540169 1_555
Nb3_3 S0_3 2.580750 1_555
Nb3_3 S0_2 2.582587 1_556
Nb3_3 S5_3 2.682125 1_555
Nb3_4 S4_0 2.476236 1_655
Nb3_4 S4_1 2.477574 1_655
Nb3_4 S7_4 2.540169 1_555
Nb3_4 S0_4 2.580750 1_555
Nb3_4 S0_5 2.582587 1_555
Nb3_4 S5_4 2.682125 1_555
Nb3_5 S4_1 2.476236 1_655
Nb3_5 S4_0 2.477574 1_656
Nb3_5 S7_5 2.540169 1_555
Nb3_5 S0_5 2.580750 1_555
Nb3_5 S0_4 2.582587 1_556
Nb3_5 S5_5 2.682125 1_555
Nb3_6 S4_2 2.476236 1_655
Nb3_6 S4_3 2.477574 1_655
Nb3_6 S7_6 2.540169 1_555
Nb3_6 S0_6 2.580750 1_555
Nb3_6 S0_7 2.582587 1_555
Nb3_6 S5_6 2.682125 1_555
Nb3_7 S4_3 2.476236 1_655
Nb3_7 S4_2 2.477574 1_656
Nb3_7 S7_7 2.540169 1_555
Nb3_7 S0_7 2.580750 1_555
Nb3_7 S0_6 2.582587 1_556
Nb3_7 S5_7 2.682125 1_555
Nb4_0 S2_2 2.476236 1_545
Nb4_0 S2_3 2.477574 1_545
Nb4_0 S5_0 2.540169 1_555
Nb4_0 S0_0 2.580753 1_555
Nb4_0 S0_1 2.582589 1_555
Nb4_0 S6_0 2.682126 1_555
Nb4_1 S2_3 2.476236 1_545
Nb4_1 S2_2 2.477574 1_546
Nb4_1 S5_1 2.540169 1_555
Nb4_1 S0_1 2.580753 1_555
Nb4_1 S0_0 2.582589 1_556
Nb4_1 S6_1 2.682126 1_555
Nb4_2 S2_0 2.476236 1_555
Nb4_2 S2_1 2.477574 1_555
Nb4_2 S5_2 2.540169 1_555
Nb4_2 S0_2 2.580753 1_555
Nb4_2 S0_3 2.582589 1_555
Nb4_2 S6_2 2.682126 1_555
Nb4_3 S2_1 2.476236 1_555
Nb4_3 S2_0 2.477574 1_556
Nb4_3 S5_3 2.540169 1_555
Nb4_3 S0_3 2.580753 1_555
Nb4_3 S0_2 2.582589 1_556
Nb4_3 S6_3 2.682126 1_555
Nb4_4 S2_6 2.476236 1_545
Nb4_4 S2_7 2.477574 1_545
Nb4_4 S5_4 2.540169 1_555
Nb4_4 S0_4 2.580753 1_555
Nb4_4 S0_5 2.582589 1_555
Nb4_4 S6_4 2.682126 1_555
Nb4_5 S2_7 2.476236 1_545
Nb4_5 S2_6 2.477574 1_546
Nb4_5 S5_5 2.540169 1_555
Nb4_5 S0_5 2.580753 1_555
Nb4_5 S0_4 2.582589 1_556
Nb4_5 S6_5 2.682126 1_555
Nb4_6 S2_4 2.476236 1_555
Nb4_6 S2_5 2.477574 1_555
Nb4_6 S5_6 2.540169 1_555
Nb4_6 S0_6 2.580753 1_555
Nb4_6 S0_7 2.582589 1_555
Nb4_6 S6_6 2.682126 1_555
Nb4_7 S2_5 2.476236 1_555
Nb4_7 S2_4 2.477574 1_556
Nb4_7 S5_7 2.540169 1_555
Nb4_7 S0_7 2.580753 1_555
Nb4_7 S0_6 2.582589 1_556
Nb4_7 S6_7 2.682126 1_555
Nb5_0 S3_0 2.476236 1_555
Nb5_0 S3_1 2.477574 1_555
Nb5_0 S6_0 2.540169 1_555
Nb5_0 S0_0 2.580758 1_555
Nb5_0 S0_1 2.582594 1_555
Nb5_0 S7_0 2.682125 1_555
Nb5_1 S3_1 2.476236 1_555
Nb5_1 S3_0 2.477574 1_556
Nb5_1 S6_1 2.540169 1_555
Nb5_1 S0_1 2.580758 1_555
Nb5_1 S0_0 2.582594 1_556
Nb5_1 S7_1 2.682125 1_555
Nb5_2 S3_2 2.476236 1_555
Nb5_2 S3_3 2.477574 1_555
Nb5_2 S6_2 2.540169 1_555
Nb5_2 S0_2 2.580758 1_555
Nb5_2 S0_3 2.582594 1_555
Nb5_2 S7_2 2.682125 1_555
Nb5_3 S3_3 2.476236 1_555
Nb5_3 S3_2 2.477574 1_556
Nb5_3 S6_3 2.540169 1_555
Nb5_3 S0_3 2.580758 1_555
Nb5_3 S0_2 2.582594 1_556
Nb5_3 S7_3 2.682125 1_555
Nb5_4 S3_4 2.476236 1_555
Nb5_4 S3_5 2.477574 1_555
Nb5_4 S6_4 2.540169 1_555
Nb5_4 S0_4 2.580758 1_555
Nb5_4 S0_5 2.582594 1_555
Nb5_4 S7_4 2.682125 1_555
Nb5_5 S3_5 2.476236 1_555
Nb5_5 S3_4 2.477574 1_556
Nb5_5 S6_5 2.540169 1_555
Nb5_5 S0_5 2.580758 1_555
Nb5_5 S0_4 2.582594 1_556
Nb5_5 S7_5 2.682125 1_555
Nb5_6 S3_6 2.476236 1_555
Nb5_6 S3_7 2.477574 1_555
Nb5_6 S6_6 2.540169 1_555
Nb5_6 S0_6 2.580758 1_555
Nb5_6 S0_7 2.582594 1_555
Nb5_6 S7_6 2.682125 1_555
Nb5_7 S3_7 2.476236 1_555
Nb5_7 S3_6 2.477574 1_556
Nb5_7 S6_7 2.540169 1_555
Nb5_7 S0_7 2.580758 1_555
Nb5_7 S0_6 2.582594 1_556
Nb5_7 S7_7 2.682125 1_555
Bi0_0 S3_6 3.192181 1_445
Bi0_0 S6_0 3.192181 1_555
Bi0_0 S7_6 3.192181 1_445
Bi0_0 S4_0 3.192181 1_555
Bi0_0 S5_4 3.192181 1_455
Bi0_0 S2_2 3.192181 1_545
Bi0_0 Bi0_1 3.379782 1_554
Bi0_0 Bi0_1 3.379782 1_555
Bi0_1 S3_7 3.192181 1_445
Bi0_1 S6_1 3.192181 1_555
Bi0_1 S7_7 3.192181 1_445
Bi0_1 S4_1 3.192181 1_555
Bi0_1 S5_5 3.192181 1_455
Bi0_1 S2_3 3.192181 1_545
Bi0_2 S3_4 3.192181 1_455
Bi0_2 S6_2 3.192181 1_555
Bi0_2 S7_4 3.192181 1_455
Bi0_2 S4_2 3.192181 1_555
Bi0_2 S5_6 3.192181 1_455
Bi0_2 S2_0 3.192181 1_555
Bi0_2 Bi0_3 3.379782 1_554
Bi0_2 Bi0_3 3.379782 1_555
Bi0_3 S3_5 3.192181 1_455
Bi0_3 S6_3 3.192181 1_555
Bi0_3 S7_5 3.192181 1_455
Bi0_3 S4_3 3.192181 1_555
Bi0_3 S5_7 3.192181 1_455
Bi0_3 S2_1 3.192181 1_555
Bi0_4 S3_2 3.192181 1_545
Bi0_4 S6_4 3.192181 1_555
Bi0_4 S7_2 3.192181 1_545
Bi0_4 S4_4 3.192181 1_555
Bi0_4 S5_0 3.192181 1_555
Bi0_4 S2_6 3.192181 1_545
Bi0_4 Bi0_5 3.379782 1_555
Bi0_4 Bi0_5 3.379782 1_554
Bi0_5 S3_3 3.192181 1_545
Bi0_5 S6_5 3.192181 1_555
Bi0_5 S7_3 3.192181 1_545
Bi0_5 S4_5 3.192181 1_555
Bi0_5 S5_1 3.192181 1_555
Bi0_5 S2_7 3.192181 1_545
Bi0_6 S3_0 3.192181 1_555
Bi0_6 S6_6 3.192181 1_555
Bi0_6 S4_6 3.192181 1_555
Bi0_6 S7_0 3.192181 1_555
Bi0_6 S5_2 3.192181 1_555
Bi0_6 S2_4 3.192181 1_555
Bi0_6 Bi0_7 3.379782 1_555
Bi0_6 Bi0_7 3.379782 1_554
Bi0_7 S3_1 3.192181 1_555
Bi0_7 S6_7 3.192181 1_555
Bi0_7 S4_7 3.192181 1_555
Bi0_7 S7_1 3.192181 1_555
Bi0_7 S5_3 3.192181 1_555
Bi0_7 S2_5 3.192181 1_555
