# generated using pymatgen
data_Li4MnCo2O7
_symmetry_space_group_name_H-M   'P 1'
_cell_length_a   2.93642000
_cell_length_b   6.58421235
_cell_length_c   13.53851863
_cell_angle_alpha   84.79422299
_cell_angle_beta   86.84243447
_cell_angle_gamma   77.25998152
_symmetry_Int_Tables_number   1
_chemical_formula_structural   Li4MnCo2O7
_chemical_formula_sum   'Li8 Mn2 Co4 O14'
_cell_volume   254.09082774
_cell_formula_units_Z   2
loop_
 _symmetry_equiv_pos_site_id
 _symmetry_equiv_pos_as_xyz
  1  'x, y, z'
loop_
 _atom_site_type_symbol
 _atom_site_label
 _atom_site_symmetry_multiplicity
 _atom_site_fract_x
 _atom_site_fract_y
 _atom_site_fract_z
 _atom_site_occupancy
  Li  Li0  1  0.15116700  0.91502500  0.78364600  1
  Li  Li1  1  0.98331800  0.51018600  0.49986800  1
  Li  Li2  1  0.85759200  0.06950400  0.21470500  1
  Li  Li3  1  0.57623800  0.21625900  0.64126300  1
  Li  Li4  1  0.42235200  0.78545800  0.35930900  1
  Li  Li5  1  0.26871700  0.36058000  0.07654700  1
  Li  Li6  1  0.74124500  0.64036800  0.91981800  1
  Li  Li7  1  0.83129200  0.58149400  0.71829000  1
  Mn  Mn0  1  0.00616500  0.99940600  0.99905600  1
  Mn  Mn1  1  0.43402100  0.29740500  0.85091900  1
  Co  Co0  1  0.71657300  0.13566000  0.43009300  1
  Co  Co1  1  0.57287100  0.71565800  0.14518200  1
  Co  Co2  1  0.28464100  0.84093300  0.57679800  1
  Co  Co3  1  0.14761600  0.42572600  0.28711800  1
  O  O0  1  0.60088300  0.98063700  0.89458000  1
  O  O1  1  0.41240000  0.56933300  0.60004600  1
  O  O2  1  0.28647000  0.11141300  0.32907500  1
  O  O3  1  0.97883400  0.25574400  0.76056400  1
  O  O4  1  0.87304600  0.83033700  0.47128300  1
  O  O5  1  0.71919200  0.39858200  0.18574500  1
  O  O6  1  0.14801500  0.68652300  0.04456400  1
  O  O7  1  0.67781300  0.89599100  0.66894000  1
  O  O8  1  0.57094300  0.45346800  0.38654500  1
  O  O9  1  0.40488900  0.03245700  0.10229200  1
  O  O10  1  0.14414500  0.15659100  0.53263800  1
  O  O11  1  0.99615500  0.74247000  0.24535600  1
  O  O12  1  0.89751100  0.30997100  0.95107800  1
  O  O13  1  0.29589300  0.58281900  0.82468400  1
loop_
_geom_bond_atom_site_label_1
_geom_bond_atom_site_label_2
_geom_bond_distance
_geom_bond_site_symmetry_2
Li0 O7 2.122298 1_555
Li0 O0 2.143782 1_455
Li0 O13 2.160818 1_555
Li0 O7 2.170093 1_455
Li0 O0 2.184945 1_555
Li0 O3 2.185390 1_465
Li1 O1 2.019686 1_655
Li1 O4 2.064645 1_555
Li1 O1 2.087827 1_555
Li1 O8 2.113689 1_555
Li1 O8 2.235806 1_655
Li1 O10 2.278339 1_655
Li2 O11 2.108156 1_545
Li2 O5 2.118627 1_555
Li2 O2 2.122572 1_655
Li2 O9 2.139172 1_555
Li2 O9 2.140904 1_655
Li2 O2 2.207613 1_555
Li3 O7 2.065807 1_545
Li3 O10 2.111208 1_555
Li3 O3 2.120379 1_555
Li3 O10 2.154930 1_655
Li3 O1 2.290856 1_555
Li3 O3 2.305767 1_455
Li4 O2 2.100865 1_565
Li4 O11 2.115328 1_455
Li4 O8 2.134308 1_555
Li4 O4 2.142171 1_455
Li4 O4 2.147488 1_555
Li4 O11 2.209461 1_555
Li5 O5 2.103927 1_555
Li5 O6 2.105127 1_555
Li5 O9 2.108680 1_555
Li5 O5 2.116194 1_455
Li5 O12 2.156739 1_454
Li5 O12 2.427248 1_554
Li6 O13 2.001326 1_555
Li6 O13 2.010057 1_655
Li6 O12 2.129814 1_555
Li6 O0 2.185259 1_555
Li6 O6 2.201550 1_656
Li6 O6 2.348334 1_556
Li7 O13 2.039634 1_655
Li7 O13 2.072031 1_555
Li7 O7 2.075542 1_555
Li7 O1 2.089440 1_555
Li7 O3 2.123718 1_555
Li7 O1 2.267801 1_655
Mn0 O0 1.927240 1_455
Mn0 O9 1.928596 1_566
Mn0 O12 2.049166 1_465
Mn0 O6 2.053420 1_556
Mn0 O0 2.174872 1_555
Mn0 O9 2.175324 1_466
Mn1 O13 1.838675 1_555
Mn1 O3 1.939308 1_455
Mn1 O3 1.944929 1_555
Mn1 O12 1.992800 1_555
Mn1 O12 2.013720 1_455
Mn1 O0 2.072909 1_545
Co0 O2 1.951876 1_555
Co0 O10 1.955967 1_655
Co0 O4 1.995205 1_545
Co0 O8 2.078057 1_555
Co0 O2 2.089504 1_655
Co0 O10 2.108850 1_555
Co1 O11 1.934241 1_555
Co1 O6 1.946542 1_555
Co1 O5 2.065667 1_555
Co1 O9 2.071066 1_565
Co1 O6 2.096613 1_655
Co1 O11 2.096882 1_455
Co2 O1 1.747197 1_555
Co2 O7 1.856291 1_555
Co2 O4 1.936945 1_455
Co2 O10 2.066574 1_565
Co2 O7 2.101200 1_455
Co2 O4 2.173441 1_555
Co3 O8 1.928638 1_555
Co3 O5 1.957566 1_455
Co3 O2 2.052263 1_555
Co3 O11 2.066752 1_455
Co3 O8 2.090423 1_455
Co3 O5 2.095463 1_555
