# generated using pymatgen
data_Ba4Mg5Sn7
_symmetry_space_group_name_H-M   'P 1'
_cell_length_a   3.54564600
_cell_length_b   3.54564600
_cell_length_c   49.42975400
_cell_angle_alpha   90.00000000
_cell_angle_beta   90.00000000
_cell_angle_gamma   90.00000000
_symmetry_Int_Tables_number   1
_chemical_formula_structural   Ba4Mg5Sn7
_chemical_formula_sum   'Ba4 Mg5 Sn7'
_cell_volume   621.41137008
_cell_formula_units_Z   1
loop_
 _symmetry_equiv_pos_site_id
 _symmetry_equiv_pos_as_xyz
  1  'x, y, z'
loop_
 _atom_site_type_symbol
 _atom_site_label
 _atom_site_symmetry_multiplicity
 _atom_site_fract_x
 _atom_site_fract_y
 _atom_site_fract_z
 _atom_site_occupancy
  Ba  Ba0  1  0.50000000  0.50000000  0.37281900  1
  Ba  Ba1  1  0.50000000  0.50000000  0.62718100  1
  Ba  Ba2  1  0.50000000  0.50000000  0.87360800  1
  Ba  Ba3  1  0.50000000  0.50000000  0.12639200  1
  Mg  Mg0  1  0.50000000  0.50000000  0.25088100  1
  Mg  Mg1  1  0.50000000  0.50000000  0.74911900  1
  Mg  Mg2  1  0.50000000  0.50000000  0.00000000  1
  Mg  Mg3  1  0.50000000  0.50000000  0.55662200  1
  Mg  Mg4  1  0.50000000  0.50000000  0.44337800  1
  Sn  Sn0  1  0.50000000  0.50000000  0.05858700  1
  Sn  Sn1  1  0.50000000  0.50000000  0.94141300  1
  Sn  Sn2  1  0.50000000  0.50000000  0.69277100  1
  Sn  Sn3  1  0.50000000  0.50000000  0.30722900  1
  Sn  Sn4  1  0.50000000  0.50000000  0.19386000  1
  Sn  Sn5  1  0.50000000  0.50000000  0.80614000  1
  Sn  Sn6  1  0.50000000  0.50000000  0.50000000  1
loop_
_geom_bond_atom_site_label_1
_geom_bond_atom_site_label_2
_geom_bond_distance
_geom_bond_site_symmetry_2
Ba0 Sn3 3.242098 1_555
Ba0 Mg4 3.487714 1_555
Ba1 Sn2 3.242098 1_555
Ba1 Mg3 3.487714 1_555
Ba2 Sn5 3.334927 1_555
Ba2 Sn1 3.351584 1_555
Ba3 Sn4 3.334927 1_555
Ba3 Sn0 3.351584 1_555
Mg0 Sn3 2.785268 1_555
Mg0 Sn4 2.818534 1_555
Mg1 Sn2 2.785268 1_555
Mg1 Sn5 2.818534 1_555
Mg2 Sn0 2.895941 1_555
Mg2 Sn1 2.895941 1_554
Mg3 Sn6 2.798812 1_555
Mg4 Sn6 2.798812 1_555
