# generated using pymatgen
data_YInCu4
_symmetry_space_group_name_H-M   'P 1'
_cell_length_a   5.07555635
_cell_length_b   5.07555635
_cell_length_c   5.07555635
_cell_angle_alpha   60.00000000
_cell_angle_beta   60.00000000
_cell_angle_gamma   60.00000000
_symmetry_Int_Tables_number   1
_chemical_formula_structural   YInCu4
_chemical_formula_sum   'Y1 In1 Cu4'
_cell_volume   92.45618351
_cell_formula_units_Z   1
loop_
 _symmetry_equiv_pos_site_id
 _symmetry_equiv_pos_as_xyz
  1  'x, y, z'
loop_
 _atom_site_type_symbol
 _atom_site_label
 _atom_site_symmetry_multiplicity
 _atom_site_fract_x
 _atom_site_fract_y
 _atom_site_fract_z
 _atom_site_occupancy
  Y  Y0  1  -0.00000000  0.00000000  -0.00000000  1
  In  In0  1  0.25000000  0.25000000  0.25000000  1
  Cu  Cu0  1  0.62466504  0.62466504  0.12600487  1
  Cu  Cu1  1  0.62466504  0.12600487  0.62466504  1
  Cu  Cu2  1  0.12600487  0.62466504  0.62466504  1
  Cu  Cu3  1  0.62466504  0.62466504  0.62466504  1
loop_
_geom_bond_atom_site_label_1
_geom_bond_atom_site_label_2
_geom_bond_distance
_geom_bond_site_symmetry_2
In0 Y0 3.108131 1_565
In0 Y0 3.108131 1_655
In0 Y0 3.108131 1_555
In0 Y0 3.108131 1_556
Cu0 Cu3 2.530978 1_555
Cu0 Cu1 2.530978 1_555
Cu0 Cu2 2.530978 1_555
Cu0 Cu3 2.544579 1_554
Cu0 Cu2 2.544579 1_654
Cu0 Cu1 2.544579 1_564
Cu0 In0 2.975087 1_555
Cu0 In0 2.975087 1_565
Cu0 In0 2.975087 1_655
Cu0 Y0 2.976536 1_655
Cu0 Y0 2.976536 1_565
Cu0 Y0 2.976536 1_665
Cu1 Cu3 2.530978 1_555
Cu1 Cu2 2.530978 1_555
Cu1 Cu2 2.544579 1_645
Cu1 Cu3 2.544579 1_545
Cu1 In0 2.975087 1_555
Cu1 In0 2.975087 1_655
Cu1 In0 2.975087 1_556
Cu1 Y0 2.976536 1_655
Cu1 Y0 2.976536 1_556
Cu1 Y0 2.976536 1_656
Cu2 Cu3 2.530978 1_555
Cu2 Cu3 2.544579 1_455
Cu2 In0 2.975087 1_555
Cu2 In0 2.975087 1_565
Cu2 In0 2.975087 1_556
Cu2 Y0 2.976536 1_556
Cu2 Y0 2.976536 1_565
Cu2 Y0 2.976536 1_566
Cu3 In0 2.975087 1_565
Cu3 In0 2.975087 1_655
Cu3 In0 2.975087 1_556
Cu3 Y0 2.976536 1_665
Cu3 Y0 2.976536 1_566
Cu3 Y0 2.976536 1_656
