# generated using pymatgen
data_NdGa4Ni
_symmetry_space_group_name_H-M   'P 1'
_cell_length_a   4.13429905
_cell_length_b   6.53529456
_cell_length_c   8.06171953
_cell_angle_alpha   90.00000000
_cell_angle_beta   104.85747767
_cell_angle_gamma   90.00000000
_symmetry_Int_Tables_number   1
_chemical_formula_structural   NdGa4Ni
_chemical_formula_sum   'Nd2 Ga8 Ni2'
_cell_volume   210.53608538
_cell_formula_units_Z   2
loop_
 _symmetry_equiv_pos_site_id
 _symmetry_equiv_pos_as_xyz
  1  'x, y, z'
loop_
 _atom_site_type_symbol
 _atom_site_label
 _atom_site_symmetry_multiplicity
 _atom_site_fract_x
 _atom_site_fract_y
 _atom_site_fract_z
 _atom_site_occupancy
  Nd  Nd0  1  0.88531002  0.75000000  0.77061905  1
  Nd  Nd1  1  0.11468419  0.25000000  0.22936938  1
  Ga  Ga0  1  0.49999518  0.49996274  0.99999036  1
  Ga  Ga1  1  0.49999518  0.00003726  0.99999036  1
  Ga  Ga2  1  0.07503756  0.75000000  0.15007612  1
  Ga  Ga3  1  0.92496145  0.25000000  0.84992190  1
  Ga  Ga4  1  0.68998453  0.55316842  0.37997005  1
  Ga  Ga5  1  0.31002259  0.44682451  0.62004419  1
  Ga  Ga6  1  0.68998453  0.94683158  0.37997005  1
  Ga  Ga7  1  0.31002259  0.05317549  0.62004419  1
  Ni  Ni0  1  0.22328489  0.75000000  0.44656979  1
  Ni  Ni1  1  0.77671729  0.25000000  0.55343457  1
loop_
_geom_bond_atom_site_label_1
_geom_bond_atom_site_label_2
_geom_bond_distance
_geom_bond_site_symmetry_2
Nd0 Ni0 3.263279 1_655
Nd0 Ni0 3.263282 1_555
Nd1 Ni1 3.263375 1_455
Nd1 Ni1 3.263378 1_555
Ga0 Ga3 2.882549 1_455
Ga0 Ga3 2.882552 1_555
Ga0 Ga2 2.882880 1_656
Ga0 Ga2 2.882883 1_556
Ga0 Ga5 2.980910 1_555
Ga0 Ga4 2.981221 1_556
Ga0 Nd1 3.183764 1_656
Ga0 Nd1 3.183767 1_556
Ga0 Nd0 3.183980 1_455
Ga0 Nd0 3.183983 1_555
Ga1 Ga3 2.882549 1_455
Ga1 Ga3 2.882552 1_555
Ga1 Ga2 2.882880 1_646
Ga1 Ga2 2.882883 1_546
Ga1 Ga7 2.980910 1_555
Ga1 Ga6 2.981221 1_546
Ga1 Nd1 3.183764 1_656
Ga1 Nd1 3.183767 1_556
Ga1 Nd0 3.183980 1_445
Ga1 Nd0 3.183983 1_545
Ga2 Ni0 2.310335 1_555
Ga2 Nd0 2.956801 1_454
Ga2 Ga6 3.022721 1_555
Ga2 Ga4 3.022721 1_555
Ga2 Ga6 3.022721 1_455
Ga2 Ga4 3.022721 1_455
Ga2 Nd1 3.325550 1_555
Ga2 Nd1 3.325550 1_565
Ga3 Ni1 2.310285 1_555
Ga3 Nd1 2.956727 1_656
Ga3 Ga5 3.022626 1_555
Ga3 Ga7 3.022626 1_555
Ga3 Ga5 3.022626 1_655
Ga3 Ga7 3.022626 1_655
Ga3 Nd0 3.325563 1_555
Ga3 Nd0 3.325563 1_545
Ga4 Ni1 2.398445 1_555
Ga4 Ni0 2.489401 1_555
Ga4 Ni0 2.489405 1_655
Ga4 Ga6 2.572705 1_555
Ga4 Ga5 2.873261 1_555
Ga4 Ga5 2.873267 1_655
Ga4 Nd1 3.094472 1_555
Ga4 Nd1 3.094473 1_655
Ga4 Nd0 3.304649 1_555
Ga5 Ni0 2.398526 1_555
Ga5 Ni1 2.489393 1_555
Ga5 Ni1 2.489397 1_455
Ga5 Ga7 2.572612 1_555
Ga5 Nd0 3.094426 1_555
Ga5 Nd0 3.094426 1_455
Ga5 Nd1 3.304816 1_555
Ga6 Ni1 2.398445 1_565
Ga6 Ni0 2.489401 1_555
Ga6 Ni0 2.489405 1_655
Ga6 Ga7 2.873261 1_565
Ga6 Ga7 2.873267 1_665
Ga6 Nd1 3.094472 1_565
Ga6 Nd1 3.094473 1_665
Ga6 Nd0 3.304649 1_555
Ga7 Ni0 2.398526 1_545
Ga7 Ni1 2.489393 1_555
Ga7 Ni1 2.489397 1_455
Ga7 Nd0 3.094426 1_545
Ga7 Nd0 3.094426 1_445
Ga7 Nd1 3.304816 1_555
