# generated using pymatgen
data_Ba2MgCo2CuF14
_symmetry_space_group_name_H-M   'P 1'
_cell_length_a   7.45331796
_cell_length_b   7.45331796
_cell_length_c   14.58894942
_cell_angle_alpha   87.56822482
_cell_angle_beta   87.56822482
_cell_angle_gamma   41.90554769
_symmetry_Int_Tables_number   1
_chemical_formula_structural   Ba2MgCo2CuF14
_chemical_formula_sum   'Ba4 Mg2 Co4 Cu2 F28'
_cell_volume   540.74069405
_cell_formula_units_Z   2
loop_
 _symmetry_equiv_pos_site_id
 _symmetry_equiv_pos_as_xyz
  1  'x, y, z'
loop_
 _atom_site_type_symbol
 _atom_site_label
 _atom_site_symmetry_multiplicity
 _atom_site_fract_x
 _atom_site_fract_y
 _atom_site_fract_z
 _atom_site_occupancy
  Ba  Ba0  1  0.73429500  0.88830100  0.12477800  1
  Ba  Ba1  1  0.88830100  0.73429500  0.62477800  1
  Ba  Ba2  1  0.26570500  0.11169900  0.87522200  1
  Ba  Ba3  1  0.11169900  0.26570500  0.37522200  1
  Mg  Mg0  1  0.44048800  0.55951200  0.25000000  1
  Mg  Mg1  1  0.55951200  0.44048800  0.75000000  1
  Co  Co0  1  0.86218400  0.90140200  0.37287900  1
  Co  Co1  1  0.13781600  0.09859800  0.62712100  1
  Co  Co2  1  0.90140200  0.86218400  0.87287900  1
  Co  Co3  1  0.09859800  0.13781600  0.12712100  1
  Cu  Cu0  1  0.50000000  0.50000000  0.50000000  1
  Cu  Cu1  1  0.50000000  0.50000000  0.00000000  1
  F  F0  1  0.90299400  0.10423200  0.83859500  1
  F  F1  1  0.59194400  0.12829100  0.95664600  1
  F  F2  1  0.40805600  0.87170900  0.04335400  1
  F  F3  1  0.14805800  0.34375700  0.09845900  1
  F  F4  1  0.49989600  0.39977200  0.12312700  1
  F  F5  1  0.60022800  0.50010400  0.37687300  1
  F  F6  1  0.12829100  0.59194400  0.45664600  1
  F  F7  1  0.89576800  0.09700600  0.66140500  1
  F  F8  1  0.04037000  0.63780600  0.27400700  1
  F  F9  1  0.85194200  0.65624300  0.90154100  1
  F  F10  1  0.58299400  0.19718500  0.28860300  1
  F  F11  1  0.65624300  0.85194200  0.40154100  1
  F  F12  1  0.19718500  0.58299400  0.78860300  1
  F  F13  1  0.41700600  0.80281500  0.71139700  1
  F  F14  1  0.39977200  0.49989600  0.62312700  1
  F  F15  1  0.95963000  0.36219400  0.72599300  1
  F  F16  1  0.28534800  0.87662500  0.51690500  1
  F  F17  1  0.09700600  0.89576800  0.16140500  1
  F  F18  1  0.71465200  0.12337500  0.48309500  1
  F  F19  1  0.87662500  0.28534800  0.01690500  1
  F  F20  1  0.87170900  0.40805600  0.54335400  1
  F  F21  1  0.80281500  0.41700600  0.21139700  1
  F  F22  1  0.63780600  0.04037000  0.77400700  1
  F  F23  1  0.12337500  0.71465200  0.98309500  1
  F  F24  1  0.50010400  0.60022800  0.87687300  1
  F  F25  1  0.10423200  0.90299400  0.33859500  1
  F  F26  1  0.36219400  0.95963000  0.22599300  1
  F  F27  1  0.34375700  0.14805800  0.59845900  1
loop_
_geom_bond_atom_site_label_1
_geom_bond_atom_site_label_2
_geom_bond_distance
_geom_bond_site_symmetry_2
Ba0 F8 2.677028 1_655
Ba0 F1 2.713933 1_564
Ba0 F3 2.744379 1_655
Ba0 F4 2.769055 1_565
Ba0 F26 2.771124 1_555
Ba0 F17 2.818876 1_655
Ba0 F2 2.836202 1_555
Ba0 F23 2.913570 1_654
Ba0 F10 2.942437 1_565
Ba0 F3 2.952343 1_565
Ba1 F22 2.677028 1_565
Ba1 F6 2.713933 1_655
Ba1 F27 2.744379 1_565
Ba1 F14 2.769055 1_655
Ba1 F15 2.771124 1_555
Ba1 F7 2.818876 1_565
Ba1 F20 2.836202 1_555
Ba1 F18 2.913570 1_565
Ba1 F12 2.942437 1_655
Ba1 F27 2.952343 1_655
Ba2 F15 2.677028 1_455
Ba2 F2 2.713933 1_546
Ba2 F9 2.744379 1_455
Ba2 F24 2.769055 1_545
Ba2 F22 2.771124 1_555
Ba2 F0 2.818876 1_455
Ba2 F1 2.836202 1_555
Ba2 F19 2.913570 1_456
Ba2 F13 2.942437 1_545
Ba2 F9 2.952343 1_545
Ba3 F26 2.677028 1_545
Ba3 F20 2.713933 1_455
Ba3 F11 2.744379 1_545
Ba3 F5 2.769055 1_455
Ba3 F8 2.771124 1_555
Ba3 F25 2.818876 1_545
Ba3 F6 2.836202 1_555
Ba3 F16 2.913570 1_545
Ba3 F21 2.942437 1_455
Ba3 F11 2.952343 1_455
Co0 F11 1.855129 1_555
Co0 F25 1.860035 1_655
Co0 F10 1.964834 1_565
Co0 F8 1.974444 1_655
Co0 F18 1.974727 1_565
Co0 F6 1.975933 1_655
Co1 F27 1.855129 1_555
Co1 F7 1.860035 1_455
Co1 F13 1.964834 1_545
Co1 F15 1.974444 1_455
Co1 F16 1.974727 1_545
Co1 F20 1.975933 1_455
Co2 F9 1.855129 1_555
Co2 F0 1.860035 1_565
Co2 F12 1.964834 1_655
Co2 F22 1.974444 1_565
Co2 F23 1.974727 1_655
Co2 F1 1.975933 1_565
Co3 F3 1.855129 1_555
Co3 F17 1.860035 1_545
Co3 F21 1.964834 1_455
Co3 F26 1.974444 1_545
Co3 F19 1.974727 1_455
Co3 F2 1.975933 1_545
Cu0 F14 1.916142 1_555
Cu0 F5 1.916142 1_555
Cu0 F16 1.959767 1_555
Cu0 F18 1.959767 1_555
Cu0 F20 2.414757 1_555
Cu0 F6 2.414757 1_555
Cu1 F24 1.916142 1_554
Cu1 F4 1.916142 1_555
Cu1 F23 1.959767 1_554
Cu1 F19 1.959767 1_555
Cu1 F2 2.414757 1_555
Cu1 F1 2.414757 1_554
F0 Mg1 2.227392 1_555
F4 Mg0 2.091009 1_555
F5 Mg0 2.091009 1_555
F7 Mg1 2.227392 1_555
F8 Mg0 2.587487 1_555
F10 Mg0 2.095326 1_555
F12 Mg1 2.095326 1_555
F13 Mg1 2.095326 1_555
F14 Mg1 2.091009 1_555
F15 Mg1 2.587487 1_555
F17 Mg0 2.227392 1_555
F21 Mg0 2.095326 1_555
F22 Mg1 2.587487 1_555
F24 Mg1 2.091009 1_555
F25 Mg0 2.227392 1_555
F26 Mg0 2.587487 1_555
