# generated using pymatgen
data_Sr4LaFe2(CoO5)3
_symmetry_space_group_name_H-M   'P 1'
_cell_length_a   5.48843000
_cell_length_b   6.75956802
_cell_length_c   8.78654269
_cell_angle_alpha   105.84027876
_cell_angle_beta   107.89276356
_cell_angle_gamma   89.53248732
_symmetry_Int_Tables_number   1
_chemical_formula_structural   Sr4LaFe2(CoO5)3
_chemical_formula_sum   'Sr4 La1 Fe2 Co3 O15'
_cell_volume   297.40739821
_cell_formula_units_Z   1
loop_
 _symmetry_equiv_pos_site_id
 _symmetry_equiv_pos_as_xyz
  1  'x, y, z'
loop_
 _atom_site_type_symbol
 _atom_site_label
 _atom_site_symmetry_multiplicity
 _atom_site_fract_x
 _atom_site_fract_y
 _atom_site_fract_z
 _atom_site_occupancy
  Sr  Sr0  1  0.69707100  0.29989600  0.90061400  1
  Sr  Sr1  1  0.10231900  0.90017700  0.70100900  1
  Sr  Sr2  1  0.89768100  0.09982300  0.29899100  1
  Sr  Sr3  1  0.30292900  0.70010400  0.09938600  1
  La  La0  1  0.50000000  0.50000000  0.50000000  1
  Fe  Fe0  1  0.29854200  0.19849700  0.09797700  1
  Fe  Fe1  1  0.70145800  0.80150300  0.90202300  1
  Co  Co0  1  0.10298600  0.40052400  0.70116100  1
  Co  Co1  1  0.50000000  0.00000000  0.50000000  1
  Co  Co2  1  0.89701400  0.59947600  0.29883900  1
  O  O0  1  0.71626400  0.78675300  0.39545400  1
  O  O1  1  0.28373600  0.21324700  0.60454600  1
  O  O2  1  0.90106500  0.58487000  0.78674300  1
  O  O3  1  0.09893500  0.41513000  0.21325700  1
  O  O4  1  0.50000000  0.00000000  0.00000000  1
  O  O5  1  0.00000000  0.00000000  0.00000000  1
  O  O6  1  0.59222600  0.39938900  0.20887800  1
  O  O7  1  0.22802200  0.80816000  0.40862600  1
  O  O8  1  0.40777400  0.60061100  0.79112200  1
  O  O9  1  0.77197800  0.19184000  0.59137400  1
  O  O10  1  0.39356200  0.11151500  0.30661400  1
  O  O11  1  0.00000000  0.50000000  0.50000000  1
  O  O12  1  0.60643800  0.88848500  0.69338600  1
  O  O13  1  0.80368700  0.69566900  0.09691800  1
  O  O14  1  0.19631300  0.30433100  0.90308200  1
loop_
_geom_bond_atom_site_label_1
_geom_bond_atom_site_label_2
_geom_bond_distance
_geom_bond_site_symmetry_2
La0 O6 2.664990 1_555
La0 O8 2.664990 1_555
La0 O12 2.665247 1_555
La0 O10 2.665247 1_555
La0 O9 2.708811 1_555
La0 O7 2.708811 1_555
La0 O2 2.710347 1_555
La0 O3 2.710347 1_555
La0 O11 2.744215 1_655
La0 O11 2.744215 1_555
La0 O0 2.772963 1_555
La0 O1 2.772963 1_555
Fe0 O4 1.921996 1_555
Fe0 O6 1.933873 1_555
Fe0 O5 1.940291 1_555
Fe0 O14 1.957275 1_554
Fe0 O10 1.993549 1_555
Fe0 O3 2.053398 1_555
Fe1 O4 1.921996 1_566
Fe1 O8 1.933873 1_555
Fe1 O5 1.940291 1_666
Fe1 O13 1.957275 1_556
Fe1 O12 1.993549 1_555
Fe1 O2 2.053398 1_555
Co0 O1 1.793776 1_555
Co0 O2 1.823293 1_455
Co0 O8 1.973107 1_555
Co0 O14 1.974544 1_555
Co0 O11 1.981021 1_555
Co0 O9 2.107829 1_455
Co1 O7 1.811414 1_545
Co1 O9 1.811414 1_555
Co1 O12 1.969474 1_545
Co1 O10 1.969474 1_555
Co1 O0 2.061474 1_545
Co1 O1 2.061474 1_555
Co2 O0 1.793776 1_555
Co2 O3 1.823293 1_655
Co2 O6 1.973107 1_555
Co2 O13 1.974544 1_555
Co2 O11 1.981021 1_655
Co2 O7 2.107829 1_655
O0 Sr1 2.773555 1_655
O0 Sr2 2.778544 1_565
O0 Sr3 2.796494 1_555
O1 Sr2 2.773555 1_455
O1 Sr1 2.778544 1_545
O1 Sr0 2.796494 1_555
O2 Sr0 2.782248 1_555
O2 Sr1 2.785022 1_655
O2 Sr3 2.855623 1_656
O3 Sr3 2.782248 1_555
O3 Sr2 2.785022 1_455
O3 Sr0 2.855623 1_454
O4 Sr0 2.761238 1_554
O4 Sr3 2.761238 1_545
O4 Sr1 2.766549 1_544
O4 Sr2 2.766549 1_555
O5 Sr1 2.757704 1_544
O5 Sr2 2.757704 1_455
O5 Sr0 2.766857 1_454
O5 Sr3 2.766857 1_545
O6 Sr2 2.746280 1_555
O6 Sr3 2.766726 1_555
O6 Sr0 2.841966 1_554
O7 Sr1 2.769940 1_555
O7 Sr3 2.771913 1_555
O7 Sr2 2.829712 1_465
O8 Sr1 2.746280 1_555
O8 Sr0 2.766726 1_555
O8 Sr3 2.841966 1_556
O9 Sr2 2.769940 1_555
O9 Sr0 2.771913 1_555
O9 Sr1 2.829712 1_645
O10 Sr2 2.703052 1_455
O10 Sr2 2.788091 1_555
O10 Sr3 2.828124 1_545
O11 Sr1 2.749381 1_555
O11 Sr2 2.749381 1_455
O12 Sr1 2.703052 1_655
O12 Sr1 2.788091 1_555
O12 Sr0 2.828124 1_565
O13 Sr0 2.713072 1_554
O13 Sr3 2.733815 1_655
O13 Sr3 2.754970 1_555
O13 Sr2 2.773826 1_565
O14 Sr3 2.713072 1_556
O14 Sr0 2.733815 1_455
O14 Sr0 2.754970 1_555
O14 Sr1 2.773826 1_545
