# generated using pymatgen
data_Mg149Nb
_symmetry_space_group_name_H-M   'P 1'
_cell_length_a   15.93737087
_cell_length_b   15.93737451
_cell_length_c   15.60343729
_cell_angle_alpha   90.00004062
_cell_angle_beta   89.99996138
_cell_angle_gamma   120.00087709
_symmetry_Int_Tables_number   1
_chemical_formula_structural   Mg149Nb
_chemical_formula_sum   'Mg149 Nb1'
_cell_volume   3432.26277584
_cell_formula_units_Z   1
loop_
 _symmetry_equiv_pos_site_id
 _symmetry_equiv_pos_as_xyz
  1  'x, y, z'
loop_
 _atom_site_type_symbol
 _atom_site_label
 _atom_site_symmetry_multiplicity
 _atom_site_fract_x
 _atom_site_fract_y
 _atom_site_fract_z
 _atom_site_occupancy
  Mg  Mg0  1  0.60250603  0.00037145  0.00000062  1
  Mg  Mg1  1  0.39786423  0.00037024  0.00000046  1
  Mg  Mg2  1  0.19441858  0.19455521  0.00000145  1
  Mg  Mg3  1  0.00013137  0.19455167  0.99999804  1
  Mg  Mg4  1  0.59972705  0.19945500  0.99999762  1
  Mg  Mg5  1  0.39987687  0.19993527  0.99999979  1
  Mg  Mg6  1  0.80005867  0.19993690  0.99999917  1
  Mg  Mg7  1  0.39786379  0.39749186  0.99999924  1
  Mg  Mg8  1  0.99962764  0.39748973  0.99999926  1
  Mg  Mg9  1  0.19967452  0.39935006  0.99999939  1
  Mg  Mg10  1  0.80054591  0.40027576  0.99999634  1
  Mg  Mg11  1  0.59972624  0.40027417  -0.00000052  1
  Mg  Mg12  1  0.19977205  0.59988596  0.00000094  1
  Mg  Mg13  1  0.40011134  0.59988725  0.00000200  1
  Mg  Mg14  1  0.80006538  0.60012618  0.00000137  1
  Mg  Mg15  1  0.60250794  0.60213628  0.00000039  1
  Mg  Mg16  1  0.99963044  0.60213535  0.00000033  1
  Mg  Mg17  1  0.19967715  0.80032571  -0.00000047  1
  Mg  Mg18  1  0.60064853  0.80032613  0.99999870  1
  Mg  Mg19  1  0.40011149  0.80022561  0.00000031  1
  Mg  Mg20  1  0.00013588  0.80558310  0.00000182  1
  Mg  Mg21  1  0.80545037  0.80558124  -0.00000174  1
  Mg  Mg22  1  0.19442092  0.99986790  0.00000064  1
  Mg  Mg23  1  0.80545064  0.99986795  0.00000067  1
  Mg  Mg24  1  0.06496162  0.12992089  0.16163202  1
  Mg  Mg25  1  0.87007981  0.93504076  0.16163292  1
  Mg  Mg26  1  0.06496040  0.93504002  0.16163250  1
  Mg  Mg27  1  0.26696336  0.13348151  0.16589104  1
  Mg  Mg28  1  0.86651818  0.13348028  0.16588824  1
  Mg  Mg29  1  0.86652385  0.73304341  0.16589062  1
  Mg  Mg30  1  0.06660353  0.53330262  0.16638202  1
  Mg  Mg31  1  0.46669707  0.53330374  0.16638223  1
  Mg  Mg32  1  0.46669604  0.93339306  0.16638214  1
  Mg  Mg33  1  0.26608900  0.33319635  0.16643325  1
  Mg  Mg34  1  0.06710989  0.33320082  0.16643300  1
  Mg  Mg35  1  0.66679927  0.73390818  0.16643174  1
  Mg  Mg36  1  0.06711166  0.73391188  0.16643275  1
  Mg  Mg37  1  0.66679688  0.93288717  0.16643143  1
  Mg  Mg38  1  0.26608923  0.93289072  0.16643228  1
  Mg  Mg39  1  0.66666688  0.33333436  0.16644775  1
  Mg  Mg40  1  0.66690892  0.13332042  0.16671419  1
  Mg  Mg41  1  0.46641420  0.13332095  0.16671240  1
  Mg  Mg42  1  0.46641458  0.33309318  0.16671240  1
  Mg  Mg43  1  0.86668041  0.33309217  0.16671410  1
  Mg  Mg44  1  0.86668177  0.53358861  0.16671411  1
  Mg  Mg45  1  0.66690680  0.53359009  0.16671459  1
  Mg  Mg46  1  0.26681366  0.53363049  0.16680985  1
  Mg  Mg47  1  0.46637298  0.73318761  0.16680847  1
  Mg  Mg48  1  0.26681395  0.73318710  0.16680857  1
  Mg  Mg49  1  0.19920217  0.19950336  0.33148782  1
  Mg  Mg50  1  0.00029688  0.19950263  0.33148895  1
  Mg  Mg51  1  0.00029698  0.80079456  0.33148886  1
  Mg  Mg52  1  0.80049782  0.80079513  0.33148963  1
  Mg  Mg53  1  0.19920610  0.99970572  0.33148789  1
  Mg  Mg54  1  0.80049674  0.99970091  0.33148501  1
  Mg  Mg55  1  0.60027076  0.99996113  0.33308793  1
  Mg  Mg56  1  0.39968973  0.99996236  0.33308946  1
  Mg  Mg57  1  0.00003762  0.39972975  0.33308742  1
  Mg  Mg58  1  0.39969397  0.39972838  0.33309031  1
  Mg  Mg59  1  0.60027217  0.60031012  0.33308966  1
  Mg  Mg60  1  0.00003739  0.60030715  0.33308860  1
  Mg  Mg61  1  0.59989281  0.19978780  0.33315293  1
  Mg  Mg62  1  0.59989539  0.40010743  0.33315224  1
  Mg  Mg63  1  0.80020997  0.40010452  0.33315412  1
  Mg  Mg64  1  0.99999933  -0.00000219  0.33358117  1
  Mg  Mg65  1  0.39979667  0.19989897  0.33346511  1
  Mg  Mg66  1  0.80010262  0.19989898  0.33346848  1
  Mg  Mg67  1  0.80010153  0.60019900  0.33347015  1
  Mg  Mg68  1  0.20015023  0.40030282  0.33371558  1
  Mg  Mg69  1  0.59969750  0.79985022  0.33371851  1
  Mg  Mg70  1  0.20015172  0.79985130  0.33371707  1
  Mg  Mg71  1  0.40002239  0.59997834  0.33358085  1
  Mg  Mg72  1  0.19995762  0.59997824  0.33358182  1
  Mg  Mg73  1  0.40001943  0.80004084  0.33358145  1
  Mg  Mg74  1  0.26627418  0.13313937  0.50000058  1
  Mg  Mg75  1  0.86686375  0.13313419  0.50000024  1
  Mg  Mg76  1  0.06665402  0.13331835  0.49999926  1
  Mg  Mg77  1  0.46692644  0.13399142  0.50000203  1
  Mg  Mg78  1  0.66706394  0.13399209  0.49999984  1
  Mg  Mg79  1  0.26651125  0.33284259  0.49999999  1
  Mg  Mg80  1  0.06632813  0.33283771  0.50000002  1
  Mg  Mg81  1  0.46692726  0.33293507  0.49999863  1
  Mg  Mg82  1  0.86600853  0.33293742  0.50000110  1
  Mg  Mg83  1  0.66666658  0.33333138  0.49999967  1
  Mg  Mg84  1  0.66706419  0.53307142  0.50000144  1
  Mg  Mg85  1  0.86601290  0.53307324  0.50000157  1
  Mg  Mg86  1  0.46718757  0.53281190  0.50000169  1
  Mg  Mg87  1  0.06562296  0.53281266  0.49999915  1
  Mg  Mg88  1  0.26646909  0.53293341  0.49999949  1
  Mg  Mg89  1  0.06633123  0.73349082  0.49999947  1
  Mg  Mg90  1  0.66715993  0.73348730  0.49999967  1
  Mg  Mg91  1  0.46706928  0.73353276  0.50000151  1
  Mg  Mg92  1  0.26646442  0.73353356  0.50000145  1
  Mg  Mg93  1  0.86686490  0.73373082  0.50000072  1
  Mg  Mg94  1  0.86668468  0.93334334  0.50000343  1
  Mg  Mg95  1  0.06665959  0.93333863  0.49999970  1
  Mg  Mg96  1  0.26650955  0.93367218  0.50000077  1
  Mg  Mg97  1  0.66715982  0.93366764  0.49999940  1
  Mg  Mg98  1  0.46718741  0.93437705  0.50000144  1
  Mg  Mg99  1  0.40001917  0.59997455  0.66642002  1
  Mg  Mg100  1  0.19995812  0.59998044  0.66641993  1
  Mg  Mg101  1  0.40002182  0.80004275  0.66641733  1
  Mg  Mg102  1  0.20015303  0.40030297  0.66628247  1
  Mg  Mg103  1  0.59969583  0.79985003  0.66628332  1
  Mg  Mg104  1  0.20015257  0.79984924  0.66628573  1
  Mg  Mg105  1  0.39979444  0.19989798  0.66653055  1
  Mg  Mg106  1  0.80010272  0.19990237  0.66653240  1
  Mg  Mg107  1  0.80010213  0.60020006  0.66653228  1
  Mg  Mg108  1  0.99999862  0.99999802  0.66641497  1
  Mg  Mg109  1  0.59989346  0.19978680  0.66684412  1
  Mg  Mg110  1  0.59989592  0.40010613  0.66684480  1
  Mg  Mg111  1  0.80021166  0.40010665  0.66684636  1
  Mg  Mg112  1  0.60027206  0.99996410  0.66691053  1
  Mg  Mg113  1  0.39969365  0.99996462  0.66691074  1
  Mg  Mg114  1  0.00003453  0.39972572  0.66690977  1
  Mg  Mg115  1  0.39969454  0.39973165  0.66691129  1
  Mg  Mg116  1  0.60027024  0.60030642  0.66690970  1
  Mg  Mg117  1  0.00003603  0.60030536  0.66691265  1
  Mg  Mg118  1  0.19920450  0.19950032  0.66850949  1
  Mg  Mg119  1  0.00029746  0.19949975  0.66851432  1
  Mg  Mg120  1  0.00029416  0.80079600  0.66851102  1
  Mg  Mg121  1  0.80049729  0.80079251  0.66851189  1
  Mg  Mg122  1  0.19920820  0.99970605  0.66851239  1
  Mg  Mg123  1  0.80049629  0.99970324  0.66851065  1
  Mg  Mg124  1  0.26681749  0.53362990  0.83319016  1
  Mg  Mg125  1  0.46637155  0.73318568  0.83319092  1
  Mg  Mg126  1  0.26681349  0.73318627  0.83319119  1
  Mg  Mg127  1  0.66690643  0.13331670  0.83328720  1
  Mg  Mg128  1  0.46641235  0.13331851  0.83328586  1
  Mg  Mg129  1  0.46641375  0.33309543  0.83328809  1
  Mg  Mg130  1  0.86668241  0.33309700  0.83328614  1
  Mg  Mg131  1  0.86668261  0.53358983  0.83328355  1
  Mg  Mg132  1  0.66690741  0.53358703  0.83328452  1
  Mg  Mg133  1  0.66666675  0.33333336  0.83355254  1
  Mg  Mg134  1  0.26609060  0.33319917  0.83356783  1
  Mg  Mg135  1  0.06711043  0.33320354  0.83356980  1
  Mg  Mg136  1  0.66679812  0.73390893  0.83356593  1
  Mg  Mg137  1  0.06710759  0.73390498  0.83356617  1
  Mg  Mg138  1  0.66679736  0.93288986  0.83356469  1
  Mg  Mg139  1  0.26609311  0.93288905  0.83356848  1
  Mg  Mg140  1  0.06660602  0.53330391  0.83361819  1
  Mg  Mg141  1  0.46669531  0.53329956  0.83361811  1
  Mg  Mg142  1  0.46669489  0.93339258  0.83361930  1
  Mg  Mg143  1  0.26695979  0.13348202  0.83410822  1
  Mg  Mg144  1  0.86651871  0.13347756  0.83410656  1
  Mg  Mg145  1  0.86652148  0.73303964  0.83410649  1
  Mg  Mg146  1  0.06496059  0.12991986  0.83836446  1
  Mg  Mg147  1  0.87008041  0.93504091  0.83836594  1
  Mg  Mg148  1  0.06496430  0.93504368  0.83836631  1
  Nb  Nb0  1  0.99998550  0.99999014  0.00000591  1
loop_
_geom_bond_atom_site_label_1
_geom_bond_atom_site_label_2
_geom_bond_distance
_geom_bond_site_symmetry_2
Mg0 Mg6 3.164590 1_554
Mg0 Mg37 3.170569 1_545
Mg0 Mg138 3.170614 1_544
Mg0 Mg18 3.173499 1_544
Mg0 Mg127 3.183519 1_554
Mg0 Mg40 3.183549 1_555
Mg0 Mg4 3.195245 1_554
Mg0 Mg32 3.202133 1_545
Mg0 Mg142 3.202141 1_544
Mg0 Mg19 3.207826 1_545
Mg0 Mg23 3.238423 1_545
Mg0 Mg1 3.261443 1_555
Mg1 Mg5 3.164626 1_554
Mg1 Mg139 3.170537 1_544
Mg1 Mg38 3.170564 1_545
Mg1 Mg17 3.173444 1_545
Mg1 Mg41 3.183542 1_555
Mg1 Mg128 3.183557 1_554
Mg1 Mg4 3.195213 1_554
Mg1 Mg142 3.202129 1_544
Mg1 Mg32 3.202144 1_545
Mg1 Mg19 3.207838 1_545
Mg1 Mg22 3.238356 1_545
Mg2 Mg24 3.090792 1_555
Mg2 Mg3 3.096399 1_554
Mg2 Nb0 3.099764 1_445
Mg2 Mg22 3.102823 1_545
Mg2 Mg27 3.179563 1_555
Mg2 Mg9 3.222825 1_554
Mg2 Mg33 3.225978 1_555
Mg2 Mg5 3.232445 1_554
Mg2 Mg7 3.238294 1_554
Mg3 Nb0 3.099638 1_446
Mg3 Mg9 3.222845 1_555
Mg3 Mg34 3.226083 1_556
Mg3 Mg6 3.232402 1_455
Mg3 Mg8 3.238322 1_455
Mg4 Mg41 3.186301 1_556
Mg4 Mg40 3.186368 1_556
Mg4 Mg5 3.188921 1_555
Mg4 Mg6 3.188926 1_555
Mg5 Mg7 3.164697 1_555
Mg6 Mg8 3.164619 1_555
Mg7 Mg9 3.173527 1_555
Mg8 Mg9 3.173500 1_655
Mg10 Mg130 3.186275 1_555
Mg10 Mg131 3.186287 1_555
Mg10 Mg44 3.186339 1_556
Mg10 Mg43 3.186397 1_556
Mg10 Mg133 3.187365 1_555
Mg10 Mg39 3.187460 1_556
Mg10 Mg14 3.188927 1_556
Mg10 Mg6 3.189000 1_555
Mg10 Mg16 3.195185 1_556
Mg10 Mg8 3.195272 1_555
Mg10 Mg4 3.200498 1_555
Mg10 Mg11 3.200525 1_556
Mg11 Mg129 3.186256 1_554
Mg11 Mg42 3.186268 1_555
Mg11 Mg132 3.186305 1_554
Mg11 Mg45 3.186330 1_555
Mg11 Mg133 3.187435 1_554
Mg11 Mg39 3.187447 1_555
Mg11 Mg5 3.188940 1_554
Mg11 Mg14 3.188963 1_555
Mg11 Mg7 3.195216 1_554
Mg11 Mg15 3.195216 1_555
Mg11 Mg4 3.200537 1_554
Mg12 Mg30 3.180889 1_555
Mg12 Mg140 3.180892 1_554
Mg12 Mg46 3.187386 1_555
Mg12 Mg48 3.187386 1_555
Mg12 Mg126 3.187408 1_554
Mg12 Mg124 3.187442 1_554
Mg12 Mg19 3.192844 1_555
Mg12 Mg13 3.192871 1_555
Mg12 Mg9 3.195239 1_554
Mg12 Mg17 3.195240 1_555
Mg12 Mg16 3.207806 1_455
Mg12 Mg8 3.207828 1_454
Mg13 Mg31 3.180900 1_555
Mg13 Mg141 3.180963 1_554
Mg13 Mg46 3.187361 1_555
Mg13 Mg47 3.187365 1_555
Mg13 Mg19 3.192866 1_555
Mg13 Mg9 3.195194 1_554
Mg13 Mg18 3.195210 1_554
Mg13 Mg7 3.207891 1_554
Mg13 Mg15 3.207898 1_555
Mg14 Mg16 3.164653 1_555
Mg14 Mg15 3.164686 1_555
Mg14 Mg29 3.172622 1_555
Mg14 Mg145 3.172665 1_554
Mg14 Mg44 3.185014 1_555
Mg14 Mg45 3.185041 1_555
Mg14 Mg20 3.232333 1_655
Mg14 Mg21 3.232356 1_555
Mg15 Mg35 3.170535 1_555
Mg15 Mg18 3.173547 1_554
Mg15 Mg45 3.183541 1_555
Mg15 Mg31 3.202144 1_555
Mg15 Mg21 3.238338 1_555
Mg15 Mg7 3.261449 1_554
Mg16 Mg36 3.170584 1_655
Mg16 Mg17 3.173488 1_655
Mg16 Mg44 3.183548 1_555
Mg16 Mg30 3.202118 1_655
Mg16 Mg20 3.238403 1_655
Mg16 Mg8 3.261492 1_554
Mg17 Mg38 3.176743 1_555
Mg17 Mg36 3.176753 1_555
Mg17 Mg19 3.195194 1_555
Mg17 Mg48 3.195195 1_555
Mg17 Mg20 3.222876 1_555
Mg17 Mg22 3.222882 1_555
Mg18 Mg37 3.176711 1_556
Mg18 Mg35 3.176792 1_556
Mg18 Mg47 3.195189 1_556
Mg18 Mg19 3.195232 1_556
Mg18 Mg23 3.222865 1_556
Mg18 Mg21 3.222942 1_556
Mg19 Mg32 3.180890 1_555
Mg19 Mg48 3.187365 1_555
Mg19 Mg47 3.187395 1_555
Mg20 Mg26 3.090793 1_555
Mg20 Mg22 3.096350 1_555
Mg20 Nb0 3.099537 1_455
Mg20 Mg21 3.102760 1_455
Mg20 Mg29 3.179484 1_455
Mg20 Mg36 3.226032 1_555
Mg21 Mg25 3.090865 1_555
Mg21 Mg23 3.096418 1_555
Mg21 Nb0 3.099332 1_555
Mg21 Mg29 3.179539 1_555
Mg21 Mg35 3.226080 1_555
Mg22 Mg26 3.090837 1_555
Mg22 Nb0 3.099764 1_455
Mg22 Mg27 3.179518 1_565
Mg22 Mg38 3.226028 1_555
Mg22 Mg5 3.232301 1_564
Mg23 Mg25 3.090824 1_555
Mg23 Nb0 3.099401 1_555
Mg23 Mg3 3.102682 1_664
Mg23 Mg28 3.179474 1_565
Mg23 Mg37 3.226068 1_555
Mg23 Mg6 3.232399 1_564
Mg24 Mg3 3.090883 1_554
Mg24 Nb0 3.094520 1_445
Mg24 Mg25 3.105849 1_445
Mg24 Mg26 3.105880 1_545
Mg24 Mg27 3.192073 1_555
Mg24 Mg28 3.192100 1_455
Mg24 Mg33 3.223524 1_555
Mg24 Mg34 3.223636 1_555
Mg24 Mg64 3.227083 1_455
Mg24 Mg49 3.233985 1_555
Mg24 Mg50 3.234059 1_555
Mg25 Nb0 3.094331 1_555
Mg25 Mg26 3.105890 1_655
Mg25 Mg29 3.192039 1_555
Mg25 Mg28 3.192056 1_565
Mg25 Mg35 3.223605 1_555
Mg25 Mg37 3.223640 1_555
Mg25 Mg64 3.227044 1_565
Mg25 Mg54 3.233971 1_555
Mg25 Mg52 3.234037 1_555
Mg26 Nb0 3.094496 1_455
Mg26 Mg29 3.191954 1_455
Mg26 Mg27 3.192044 1_565
Mg26 Mg38 3.223599 1_555
Mg26 Mg36 3.223605 1_555
Mg26 Mg64 3.227056 1_465
Mg26 Mg53 3.234020 1_555
Mg26 Mg51 3.234032 1_555
Mg27 Mg5 3.172618 1_554
Mg27 Mg53 3.175807 1_545
Mg27 Mg49 3.175877 1_555
Mg27 Mg42 3.179991 1_555
Mg27 Mg41 3.180028 1_555
Mg27 Mg33 3.189932 1_555
Mg27 Mg38 3.189959 1_545
Mg27 Mg65 3.193443 1_555
Mg28 Mg6 3.172627 1_554
Mg28 Mg54 3.175835 1_545
Mg28 Mg50 3.175879 1_655
Mg28 Mg3 3.179513 1_654
Mg28 Mg40 3.180000 1_555
Mg28 Mg43 3.180024 1_555
Mg28 Mg34 3.189954 1_655
Mg28 Mg37 3.189972 1_545
Mg28 Mg66 3.193541 1_555
Mg29 Mg51 3.175803 1_655
Mg29 Mg52 3.175862 1_555
Mg29 Mg45 3.180051 1_555
Mg29 Mg44 3.180071 1_555
Mg29 Mg36 3.189955 1_655
Mg29 Mg35 3.190009 1_555
Mg29 Mg67 3.193601 1_555
Mg30 Mg48 3.188199 1_555
Mg30 Mg46 3.188221 1_555
Mg30 Mg57 3.188248 1_555
Mg30 Mg60 3.188257 1_555
Mg30 Mg43 3.188503 1_455
Mg30 Mg44 3.188513 1_455
Mg30 Mg72 3.192801 1_555
Mg30 Mg34 3.193140 1_555
Mg30 Mg36 3.193143 1_555
Mg30 Mg8 3.202173 1_454
Mg31 Mg47 3.188217 1_555
Mg31 Mg46 3.188230 1_555
Mg31 Mg59 3.188291 1_555
Mg31 Mg58 3.188302 1_555
Mg31 Mg45 3.188541 1_555
Mg31 Mg42 3.188586 1_555
Mg31 Mg71 3.192760 1_555
Mg31 Mg35 3.193071 1_555
Mg31 Mg33 3.193141 1_555
Mg31 Mg7 3.202167 1_554
Mg32 Mg48 3.188144 1_555
Mg32 Mg47 3.188185 1_555
Mg32 Mg55 3.188267 1_555
Mg32 Mg56 3.188306 1_555
Mg32 Mg40 3.188556 1_565
Mg32 Mg41 3.188578 1_565
Mg32 Mg73 3.192780 1_555
Mg32 Mg37 3.193120 1_555
Mg32 Mg38 3.193150 1_555
Mg33 Mg49 3.168231 1_555
Mg33 Mg7 3.170591 1_554
Mg33 Mg34 3.171239 1_555
Mg33 Mg9 3.176798 1_554
Mg33 Mg58 3.187889 1_555
Mg33 Mg46 3.188640 1_555
Mg33 Mg68 3.191424 1_555
Mg33 Mg42 3.193489 1_555
Mg34 Mg50 3.168290 1_555
Mg34 Mg8 3.170575 1_454
Mg34 Mg9 3.176751 1_554
Mg34 Mg57 3.187838 1_555
Mg34 Mg46 3.188517 1_555
Mg34 Mg68 3.191376 1_555
Mg34 Mg43 3.193456 1_455
Mg35 Mg52 3.168317 1_555
Mg35 Mg37 3.171222 1_555
Mg35 Mg59 3.187846 1_555
Mg35 Mg47 3.188547 1_555
Mg35 Mg69 3.191470 1_555
Mg35 Mg45 3.193405 1_555
Mg36 Mg51 3.168298 1_555
Mg36 Mg38 3.171148 1_555
Mg36 Mg60 3.187872 1_555
Mg36 Mg48 3.188526 1_555
Mg36 Mg70 3.191396 1_555
Mg36 Mg44 3.193437 1_455
Mg37 Mg54 3.168273 1_555
Mg37 Mg55 3.187856 1_555
Mg37 Mg47 3.188437 1_555
Mg37 Mg69 3.191407 1_555
Mg37 Mg40 3.193490 1_565
Mg38 Mg53 3.168298 1_555
Mg38 Mg56 3.187855 1_555
Mg38 Mg48 3.188548 1_555
Mg38 Mg70 3.191398 1_555
Mg38 Mg41 3.193453 1_565
Mg39 Mg4 3.187446 1_554
Mg39 Mg63 3.188020 1_555
Mg39 Mg62 3.188021 1_555
Mg39 Mg61 3.188033 1_555
Mg39 Mg41 3.189557 1_555
Mg39 Mg42 3.189578 1_555
Mg39 Mg44 3.189581 1_555
Mg39 Mg43 3.189624 1_555
Mg39 Mg40 3.189630 1_555
Mg39 Mg45 3.189643 1_555
Mg40 Mg55 3.182319 1_545
Mg40 Mg43 3.183793 1_555
Mg40 Mg61 3.184153 1_555
Mg40 Mg6 3.184994 1_554
Mg40 Mg66 3.185845 1_555
Mg40 Mg41 3.195363 1_555
Mg41 Mg56 3.182356 1_545
Mg41 Mg42 3.183842 1_555
Mg41 Mg61 3.184125 1_555
Mg41 Mg5 3.184994 1_554
Mg41 Mg65 3.185852 1_555
Mg42 Mg58 3.182357 1_555
Mg42 Mg7 3.183564 1_554
Mg42 Mg62 3.184133 1_555
Mg42 Mg5 3.185028 1_554
Mg42 Mg65 3.185830 1_555
Mg42 Mg45 3.195314 1_555
Mg43 Mg57 3.182297 1_655
Mg43 Mg8 3.183552 1_554
Mg43 Mg63 3.184164 1_555
Mg43 Mg6 3.185037 1_554
Mg43 Mg66 3.185843 1_555
Mg43 Mg44 3.195376 1_555
Mg44 Mg60 3.182299 1_655
Mg44 Mg45 3.183900 1_555
Mg44 Mg63 3.184162 1_555
Mg44 Mg67 3.185856 1_555
Mg45 Mg59 3.182311 1_555
Mg45 Mg62 3.184121 1_555
Mg45 Mg67 3.185870 1_555
Mg46 Mg47 3.180392 1_555
Mg46 Mg48 3.180406 1_555
Mg46 Mg72 3.186166 1_555
Mg46 Mg71 3.186181 1_555
Mg46 Mg68 3.188843 1_555
Mg46 Mg9 3.195237 1_554
Mg47 Mg48 3.180442 1_555
Mg47 Mg73 3.186203 1_555
Mg47 Mg71 3.186203 1_555
Mg47 Mg69 3.188872 1_555
Mg48 Mg73 3.186179 1_555
Mg48 Mg72 3.186210 1_555
Mg48 Mg70 3.188880 1_555
Mg49 Mg50 3.170022 1_555
Mg49 Mg64 3.177311 1_455
Mg49 Mg53 3.184281 1_545
Mg49 Mg68 3.192877 1_555
Mg49 Mg58 3.193244 1_555
Mg49 Mg65 3.193950 1_555
Mg49 Mg76 3.203179 1_555
Mg49 Mg79 3.209453 1_555
Mg49 Mg74 3.210231 1_555
Mg50 Mg64 3.177382 1_455
Mg50 Mg54 3.184260 1_445
Mg50 Mg68 3.192856 1_555
Mg50 Mg57 3.193260 1_555
Mg50 Mg66 3.193883 1_455
Mg50 Mg76 3.203127 1_555
Mg50 Mg80 3.209406 1_555
Mg50 Mg75 3.210173 1_455
Mg51 Mg53 3.170063 1_555
Mg51 Mg64 3.177319 1_465
Mg51 Mg52 3.184278 1_455
Mg51 Mg70 3.192892 1_555
Mg51 Mg60 3.193274 1_555
Mg51 Mg67 3.193890 1_455
Mg51 Mg95 3.203139 1_555
Mg51 Mg89 3.209438 1_555
Mg51 Mg93 3.210172 1_455
Mg52 Mg54 3.170045 1_555
Mg52 Mg64 3.177277 1_565
Mg52 Mg69 3.192915 1_555
Mg52 Mg59 3.193195 1_555
Mg52 Mg67 3.193972 1_555
Mg52 Mg94 3.203210 1_555
Mg52 Mg90 3.209415 1_555
Mg52 Mg93 3.210173 1_555
Mg53 Mg64 3.177330 1_465
Mg53 Mg70 3.192906 1_555
Mg53 Mg56 3.193237 1_555
Mg53 Mg65 3.193832 1_565
Mg53 Mg95 3.203171 1_555
Mg53 Mg96 3.209460 1_555
Mg53 Mg74 3.210195 1_565
Mg54 Mg64 3.177352 1_565
Mg54 Mg69 3.192828 1_555
Mg54 Mg55 3.193249 1_555
Mg54 Mg66 3.193927 1_565
Mg54 Mg94 3.203263 1_555
Mg54 Mg97 3.209463 1_555
Mg54 Mg75 3.210225 1_565
Mg55 Mg69 3.184699 1_555
Mg55 Mg66 3.185603 1_565
Mg55 Mg98 3.187032 1_555
Mg55 Mg61 3.187729 1_565
Mg55 Mg97 3.187778 1_555
Mg55 Mg73 3.188812 1_555
Mg55 Mg78 3.194533 1_565
Mg55 Mg56 3.196744 1_555
Mg56 Mg70 3.184661 1_555
Mg56 Mg65 3.185618 1_565
Mg56 Mg98 3.187025 1_555
Mg56 Mg61 3.187664 1_565
Mg56 Mg96 3.187742 1_555
Mg56 Mg73 3.188864 1_555
Mg56 Mg77 3.194526 1_565
Mg57 Mg68 3.184727 1_555
Mg57 Mg66 3.185572 1_455
Mg57 Mg87 3.187006 1_555
Mg57 Mg63 3.187718 1_455
Mg57 Mg80 3.187793 1_555
Mg57 Mg72 3.188787 1_555
Mg57 Mg82 3.194541 1_455
Mg57 Mg60 3.196679 1_555
Mg58 Mg68 3.184805 1_555
Mg58 Mg65 3.185580 1_555
Mg58 Mg86 3.187006 1_555
Mg58 Mg62 3.187668 1_555
Mg58 Mg79 3.187741 1_555
Mg58 Mg71 3.188854 1_555
Mg58 Mg81 3.194469 1_555
Mg58 Mg59 3.196675 1_555
Mg59 Mg69 3.184750 1_555
Mg59 Mg67 3.185646 1_555
Mg59 Mg86 3.187023 1_555
Mg59 Mg90 3.187701 1_555
Mg59 Mg62 3.187707 1_555
Mg59 Mg71 3.188824 1_555
Mg59 Mg84 3.194546 1_555
Mg60 Mg70 3.184736 1_555
Mg60 Mg67 3.185596 1_455
Mg60 Mg87 3.186984 1_555
Mg60 Mg63 3.187676 1_455
Mg60 Mg89 3.187764 1_555
Mg60 Mg72 3.188836 1_555
Mg60 Mg85 3.194495 1_455
Mg61 Mg78 3.185254 1_555
Mg61 Mg77 3.185263 1_555
Mg61 Mg83 3.189811 1_555
Mg61 Mg65 3.189896 1_555
Mg61 Mg66 3.189936 1_555
Mg61 Mg63 3.192483 1_555
Mg61 Mg62 3.192548 1_555
Mg62 Mg81 3.185242 1_555
Mg62 Mg84 3.185245 1_555
Mg62 Mg67 3.189809 1_555
Mg62 Mg83 3.189864 1_555
Mg62 Mg65 3.189884 1_555
Mg62 Mg63 3.192511 1_555
Mg63 Mg82 3.185246 1_555
Mg63 Mg85 3.185260 1_555
Mg63 Mg83 3.189794 1_555
Mg63 Mg67 3.189849 1_555
Mg63 Mg66 3.189899 1_555
Mg64 Mg76 3.182573 1_655
Mg64 Mg94 3.182579 1_545
Mg64 Mg95 3.182586 1_645
Mg65 Mg81 3.181791 1_555
Mg65 Mg77 3.181859 1_555
Mg65 Mg74 3.185679 1_555
Mg66 Mg78 3.181784 1_555
Mg66 Mg82 3.181798 1_555
Mg66 Mg75 3.185675 1_555
Mg67 Mg84 3.181772 1_555
Mg67 Mg85 3.181788 1_555
Mg67 Mg93 3.185692 1_555
Mg68 Mg88 3.175366 1_555
Mg68 Mg71 3.183830 1_555
Mg68 Mg72 3.183839 1_555
Mg68 Mg80 3.184894 1_555
Mg68 Mg79 3.184902 1_555
Mg69 Mg91 3.175335 1_555
Mg69 Mg71 3.183824 1_555
Mg69 Mg73 3.183864 1_555
Mg69 Mg97 3.184811 1_555
Mg69 Mg90 3.184894 1_555
Mg70 Mg92 3.175386 1_555
Mg70 Mg73 3.183857 1_555
Mg70 Mg72 3.183907 1_555
Mg70 Mg89 3.184855 1_555
Mg70 Mg96 3.184875 1_555
Mg71 Mg88 3.184441 1_555
Mg71 Mg91 3.184476 1_555
Mg71 Mg73 3.188495 1_555
Mg71 Mg72 3.188506 1_555
Mg71 Mg86 3.190713 1_555
Mg72 Mg88 3.184469 1_555
Mg72 Mg92 3.184470 1_555
Mg72 Mg73 3.188424 1_555
Mg72 Mg87 3.190677 1_555
Mg73 Mg92 3.184473 1_555
Mg73 Mg91 3.184513 1_555
Mg73 Mg98 3.190723 1_555
Mg74 Mg79 3.180858 1_555
Mg74 Mg96 3.180861 1_545
Mg74 Mg95 3.182774 1_545
Mg74 Mg76 3.182848 1_555
Mg74 Mg81 3.191030 1_555
Mg74 Mg77 3.191101 1_555
Mg75 Mg80 3.180803 1_655
Mg75 Mg97 3.180824 1_545
Mg75 Mg76 3.182665 1_655
Mg75 Mg94 3.182716 1_545
Mg75 Mg78 3.191142 1_555
Mg75 Mg82 3.191176 1_555
Mg76 Mg80 3.182415 1_555
Mg76 Mg79 3.182507 1_555
Mg76 Mg94 3.186989 1_445
Mg76 Mg95 3.187196 1_545
Mg77 Mg81 3.170633 1_555
Mg77 Mg83 3.180107 1_555
Mg77 Mg98 3.183411 1_545
Mg77 Mg78 3.189660 1_555
Mg77 Mg96 3.193298 1_545
Mg78 Mg82 3.170618 1_555
Mg78 Mg83 3.180116 1_555
Mg78 Mg98 3.183383 1_545
Mg78 Mg97 3.193410 1_545
Mg79 Mg88 3.189258 1_555
Mg79 Mg80 3.190354 1_555
Mg79 Mg86 3.192592 1_555
Mg79 Mg81 3.193368 1_555
Mg80 Mg88 3.189318 1_555
Mg80 Mg87 3.192710 1_555
Mg80 Mg82 3.193363 1_455
Mg81 Mg83 3.180166 1_555
Mg81 Mg86 3.183440 1_555
Mg81 Mg84 3.189610 1_555
Mg82 Mg83 3.180131 1_555
Mg82 Mg87 3.183368 1_655
Mg82 Mg85 3.189605 1_555
Mg83 Mg84 3.180168 1_555
Mg83 Mg85 3.180171 1_555
Mg84 Mg85 3.170705 1_555
Mg84 Mg86 3.183442 1_555
Mg84 Mg93 3.191121 1_555
Mg84 Mg90 3.193340 1_555
Mg85 Mg87 3.183338 1_655
Mg85 Mg93 3.191187 1_555
Mg85 Mg89 3.193297 1_655
Mg86 Mg99 3.190674 1_555
Mg86 Mg90 3.192609 1_555
Mg86 Mg88 3.199894 1_555
Mg86 Mg91 3.199907 1_555
Mg87 Mg89 3.192654 1_555
Mg87 Mg92 3.199883 1_555
Mg87 Mg88 3.199997 1_555
Mg88 Mg99 3.184441 1_555
Mg88 Mg91 3.196991 1_555
Mg88 Mg92 3.197077 1_555
Mg89 Mg93 3.180883 1_455
Mg89 Mg95 3.182436 1_555
Mg89 Mg92 3.189256 1_555
Mg89 Mg96 3.190298 1_555
Mg90 Mg93 3.180833 1_555
Mg90 Mg94 3.182501 1_555
Mg90 Mg91 3.189281 1_555
Mg90 Mg97 3.190350 1_555
Mg91 Mg99 3.184481 1_555
Mg91 Mg97 3.189229 1_555
Mg91 Mg92 3.197120 1_555
Mg91 Mg98 3.199990 1_555
Mg92 Mg96 3.189325 1_555
Mg92 Mg98 3.199915 1_555
Mg93 Mg95 3.182672 1_655
Mg93 Mg94 3.182737 1_555
Mg94 Mg97 3.182489 1_555
Mg94 Mg95 3.187112 1_655
Mg95 Mg96 3.182428 1_555
Mg96 Mg98 3.192675 1_555
Mg97 Mg98 3.192703 1_555
Mg100 Mg104 3.183836 1_555
Mg100 Mg102 3.183890 1_555
Mg100 Mg92 3.184440 1_555
Mg100 Mg88 3.184516 1_555
Mg100 Mg126 3.186160 1_555
Mg100 Mg124 3.186195 1_555
Mg100 Mg101 3.188436 1_555
Mg100 Mg99 3.188494 1_555
Mg100 Mg117 3.188834 1_555
Mg100 Mg114 3.188866 1_555
Mg100 Mg87 3.190726 1_555
Mg100 Mg140 3.192764 1_555
Mg101 Mg103 3.183816 1_555
Mg101 Mg104 3.183850 1_555
Mg101 Mg92 3.184440 1_555
Mg101 Mg91 3.184452 1_555
Mg101 Mg126 3.186213 1_555
Mg101 Mg125 3.186213 1_555
Mg101 Mg99 3.188541 1_555
Mg101 Mg112 3.188812 1_555
Mg101 Mg113 3.188857 1_555
Mg101 Mg98 3.190657 1_555
Mg101 Mg142 3.192794 1_555
Mg102 Mg88 3.175354 1_555
Mg102 Mg99 3.183750 1_555
Mg102 Mg115 3.184745 1_555
Mg102 Mg114 3.184788 1_555
Mg102 Mg79 3.184854 1_555
Mg102 Mg80 3.184892 1_555
Mg102 Mg124 3.188860 1_555
Mg102 Mg134 3.191435 1_555
Mg102 Mg135 3.191454 1_555
Mg102 Mg119 3.192899 1_555
Mg102 Mg118 3.192924 1_555
Mg103 Mg91 3.175308 1_555
Mg103 Mg99 3.183865 1_555
Mg103 Mg112 3.184726 1_555
Mg103 Mg116 3.184804 1_555
Mg103 Mg97 3.184853 1_555
Mg103 Mg90 3.184935 1_555
Mg103 Mg125 3.188838 1_555
Mg103 Mg138 3.191356 1_555
Mg103 Mg136 3.191416 1_555
Mg103 Mg123 3.192857 1_555
Mg103 Mg121 3.192953 1_555
Mg104 Mg92 3.175360 1_555
Mg104 Mg113 3.184720 1_555
Mg104 Mg117 3.184751 1_555
Mg104 Mg96 3.184909 1_555
Mg104 Mg89 3.184912 1_555
Mg104 Mg126 3.188823 1_555
Mg104 Mg139 3.191373 1_555
Mg104 Mg137 3.191385 1_555
Mg104 Mg122 3.192934 1_555
Mg104 Mg120 3.192978 1_555
Mg105 Mg77 3.181760 1_555
Mg105 Mg81 3.181780 1_555
Mg105 Mg74 3.185593 1_555
Mg105 Mg113 3.185615 1_545
Mg105 Mg115 3.185626 1_555
Mg105 Mg128 3.185902 1_555
Mg105 Mg129 3.185916 1_555
Mg105 Mg110 3.189904 1_555
Mg105 Mg109 3.189942 1_555
Mg105 Mg143 3.193498 1_555
Mg105 Mg122 3.193788 1_545
Mg105 Mg118 3.193861 1_555
Mg106 Mg82 3.181755 1_555
Mg106 Mg78 3.181801 1_555
Mg106 Mg114 3.185487 1_655
Mg106 Mg112 3.185597 1_545
Mg106 Mg75 3.185704 1_555
Mg106 Mg130 3.185845 1_555
Mg106 Mg127 3.185871 1_555
Mg106 Mg111 3.189867 1_555
Mg106 Mg109 3.189892 1_555
Mg106 Mg144 3.193518 1_555
Mg106 Mg123 3.193939 1_545
Mg106 Mg119 3.193941 1_655
Mg107 Mg84 3.181772 1_555
Mg107 Mg85 3.181780 1_555
Mg107 Mg117 3.185587 1_655
Mg107 Mg116 3.185648 1_555
Mg107 Mg93 3.185697 1_555
Mg107 Mg131 3.185798 1_555
Mg107 Mg132 3.185826 1_555
Mg107 Mg110 3.189828 1_555
Mg107 Mg111 3.189841 1_555
Mg107 Mg145 3.193493 1_555
Mg107 Mg120 3.193865 1_655
Mg107 Mg121 3.193922 1_555
Mg108 Mg120 3.177283 1_655
Mg108 Mg121 3.177299 1_555
Mg108 Mg118 3.177309 1_665
Mg108 Mg119 3.177324 1_665
Mg108 Mg123 3.177364 1_555
Mg108 Mg122 3.177375 1_655
Mg108 Mg94 3.182438 1_555
Mg108 Mg76 3.182543 1_665
Mg108 Mg95 3.182549 1_655
Mg108 Mg147 3.227068 1_555
Mg108 Mg146 3.227077 1_665
Mg108 Mg148 3.227102 1_655
Mg109 Mg128 3.184159 1_555
Mg109 Mg127 3.184208 1_555
Mg109 Mg77 3.185180 1_555
Mg109 Mg78 3.185205 1_555
Mg109 Mg113 3.187612 1_545
Mg109 Mg112 3.187671 1_545
Mg109 Mg133 3.188073 1_555
Mg109 Mg83 3.189791 1_555
Mg109 Mg111 3.192517 1_555
Mg109 Mg110 3.192545 1_555
Mg110 Mg132 3.184132 1_555
Mg110 Mg129 3.184187 1_555
Mg110 Mg84 3.185182 1_555
Mg110 Mg81 3.185244 1_555
Mg110 Mg116 3.187688 1_555
Mg110 Mg115 3.187704 1_555
Mg110 Mg133 3.188057 1_555
Mg110 Mg83 3.189818 1_555
Mg110 Mg111 3.192502 1_555
Mg111 Mg131 3.184118 1_555
Mg111 Mg130 3.184144 1_555
Mg111 Mg85 3.185211 1_555
Mg111 Mg82 3.185225 1_555
Mg111 Mg117 3.187621 1_655
Mg111 Mg114 3.187691 1_655
Mg111 Mg133 3.188031 1_555
Mg111 Mg83 3.189823 1_555
Mg112 Mg127 3.182302 1_565
Mg112 Mg98 3.186987 1_555
Mg112 Mg97 3.187785 1_555
Mg112 Mg138 3.187824 1_555
Mg112 Mg142 3.188324 1_555
Mg112 Mg123 3.193226 1_555
Mg112 Mg78 3.194495 1_565
Mg112 Mg113 3.196697 1_555
Mg113 Mg128 3.182292 1_565
Mg113 Mg98 3.186975 1_555
Mg113 Mg96 3.187757 1_555
Mg113 Mg139 3.187862 1_555
Mg113 Mg142 3.188306 1_555
Mg113 Mg122 3.193250 1_555
Mg113 Mg77 3.194460 1_565
Mg114 Mg130 3.182294 1_455
Mg114 Mg87 3.187025 1_555
Mg114 Mg80 3.187746 1_555
Mg114 Mg135 3.187887 1_555
Mg114 Mg140 3.188327 1_555
Mg114 Mg119 3.193272 1_555
Mg114 Mg82 3.194453 1_455
Mg114 Mg117 3.196701 1_555
Mg115 Mg129 3.182342 1_555
Mg115 Mg86 3.186958 1_555
Mg115 Mg79 3.187767 1_555
Mg115 Mg134 3.187873 1_555
Mg115 Mg141 3.188225 1_555
Mg115 Mg99 3.188772 1_555
Mg115 Mg118 3.193280 1_555
Mg115 Mg81 3.194543 1_555
Mg115 Mg116 3.196600 1_555
Mg116 Mg132 3.182326 1_555
Mg116 Mg86 3.186957 1_555
Mg116 Mg90 3.187732 1_555
Mg116 Mg136 3.187858 1_555
Mg116 Mg141 3.188301 1_555
Mg116 Mg99 3.188843 1_555
Mg116 Mg121 3.193215 1_555
Mg116 Mg84 3.194484 1_555
Mg117 Mg131 3.182235 1_455
Mg117 Mg87 3.187015 1_555
Mg117 Mg137 3.187801 1_555
Mg117 Mg89 3.187809 1_555
Mg117 Mg140 3.188253 1_555
Mg117 Mg120 3.193337 1_555
Mg117 Mg85 3.194461 1_455
Mg118 Mg134 3.168324 1_555
Mg118 Mg119 3.170051 1_555
Mg118 Mg143 3.175828 1_555
Mg118 Mg122 3.184226 1_545
Mg118 Mg76 3.203183 1_555
Mg118 Mg79 3.209444 1_555
Mg118 Mg74 3.210137 1_555
Mg118 Mg146 3.233999 1_555
Mg119 Mg135 3.168328 1_555
Mg119 Mg144 3.175771 1_455
Mg119 Mg123 3.184226 1_445
Mg119 Mg76 3.203158 1_555
Mg119 Mg80 3.209471 1_555
Mg119 Mg75 3.210215 1_455
Mg119 Mg146 3.233947 1_555
Mg120 Mg137 3.168345 1_555
Mg120 Mg122 3.170093 1_555
Mg120 Mg145 3.175763 1_455
Mg120 Mg121 3.184209 1_455
Mg120 Mg95 3.203135 1_555
Mg120 Mg89 3.209482 1_555
Mg120 Mg93 3.210131 1_455
Mg120 Mg148 3.234033 1_555
Mg121 Mg136 3.168272 1_555
Mg121 Mg123 3.170123 1_555
Mg121 Mg145 3.175803 1_555
Mg121 Mg94 3.203163 1_555
Mg121 Mg90 3.209439 1_555
Mg121 Mg93 3.210155 1_555
Mg121 Mg147 3.234023 1_555
Mg122 Mg139 3.168336 1_555
Mg122 Mg143 3.175794 1_565
Mg122 Mg95 3.203200 1_555
Mg122 Mg96 3.209427 1_555
Mg122 Mg74 3.210183 1_565
Mg122 Mg148 3.233987 1_555
Mg123 Mg138 3.168270 1_555
Mg123 Mg144 3.175782 1_565
Mg123 Mg94 3.203139 1_555
Mg123 Mg97 3.209420 1_555
Mg123 Mg75 3.210146 1_565
Mg123 Mg147 3.234040 1_555
Mg124 Mg125 3.180339 1_555
Mg124 Mg126 3.180436 1_555
Mg124 Mg99 3.186112 1_555
Mg124 Mg13 3.187382 1_556
Mg124 Mg141 3.188170 1_555
Mg124 Mg140 3.188257 1_555
Mg124 Mg135 3.188516 1_555
Mg124 Mg134 3.188568 1_555
Mg124 Mg9 3.195218 1_555
Mg125 Mg126 3.180436 1_555
Mg125 Mg99 3.186197 1_555
Mg125 Mg13 3.187410 1_556
Mg125 Mg19 3.187413 1_556
Mg125 Mg142 3.188206 1_555
Mg125 Mg141 3.188250 1_555
Mg125 Mg138 3.188489 1_555
Mg125 Mg136 3.188530 1_555
Mg125 Mg18 3.195176 1_555
Mg126 Mg19 3.187381 1_556
Mg126 Mg142 3.188141 1_555
Mg126 Mg140 3.188158 1_555
Mg126 Mg139 3.188500 1_555
Mg126 Mg137 3.188535 1_555
Mg126 Mg17 3.195186 1_556
Mg127 Mg144 3.180040 1_555
Mg127 Mg130 3.183896 1_555
Mg127 Mg6 3.184976 1_555
Mg127 Mg4 3.186297 1_555
Mg127 Mg142 3.188520 1_545
Mg127 Mg133 3.189655 1_555
Mg127 Mg138 3.193412 1_545
Mg127 Mg128 3.195363 1_555
Mg128 Mg143 3.180079 1_555
Mg128 Mg129 3.183908 1_555
Mg128 Mg5 3.185013 1_555
Mg128 Mg4 3.186278 1_555
Mg128 Mg142 3.188553 1_545
Mg128 Mg133 3.189582 1_555
Mg128 Mg139 3.193402 1_545
Mg129 Mg143 3.180027 1_555
Mg129 Mg7 3.183511 1_555
Mg129 Mg5 3.185036 1_555
Mg129 Mg141 3.188491 1_555
Mg129 Mg133 3.189615 1_555
Mg129 Mg134 3.193454 1_555
Mg129 Mg132 3.195283 1_555
Mg130 Mg144 3.180132 1_555
Mg130 Mg8 3.183516 1_555
Mg130 Mg6 3.185052 1_555
Mg130 Mg140 3.188479 1_655
Mg130 Mg133 3.189612 1_555
Mg130 Mg135 3.193450 1_655
Mg130 Mg131 3.195328 1_555
Mg131 Mg145 3.180017 1_555
Mg131 Mg16 3.183581 1_556
Mg131 Mg132 3.183869 1_555
Mg131 Mg14 3.185074 1_556
Mg131 Mg140 3.188539 1_655
Mg131 Mg133 3.189607 1_555
Mg131 Mg137 3.193333 1_655
Mg132 Mg145 3.180022 1_555
Mg132 Mg15 3.183590 1_556
Mg132 Mg14 3.185084 1_556
Mg132 Mg141 3.188570 1_555
Mg132 Mg133 3.189604 1_555
Mg132 Mg136 3.193479 1_555
Mg133 Mg4 3.187375 1_555
Mg134 Mg7 3.170546 1_555
Mg134 Mg135 3.171256 1_555
Mg134 Mg9 3.176757 1_555
Mg134 Mg143 3.189927 1_555
Mg134 Mg141 3.193059 1_555
Mg134 Mg146 3.223574 1_555
Mg134 Mg2 3.226025 1_556
Mg135 Mg8 3.170501 1_455
Mg135 Mg9 3.176697 1_555
Mg135 Mg144 3.189997 1_455
Mg135 Mg140 3.193102 1_555
Mg135 Mg146 3.223681 1_555
Mg135 Mg3 3.226022 1_555
Mg136 Mg15 3.170582 1_556
Mg136 Mg138 3.171240 1_555
Mg136 Mg18 3.176771 1_555
Mg136 Mg145 3.190026 1_555
Mg136 Mg141 3.193115 1_555
Mg136 Mg147 3.223615 1_555
Mg136 Mg21 3.226076 1_556
Mg137 Mg16 3.170553 1_456
Mg137 Mg139 3.171253 1_555
Mg137 Mg17 3.176788 1_556
Mg137 Mg145 3.189953 1_455
Mg137 Mg140 3.193065 1_555
Mg137 Mg148 3.223708 1_555
Mg137 Mg20 3.226113 1_556
Mg138 Mg18 3.176750 1_555
Mg138 Mg144 3.189929 1_565
Mg138 Mg142 3.193121 1_555
Mg138 Mg147 3.223663 1_555
Mg138 Mg23 3.226131 1_556
Mg139 Mg17 3.176710 1_556
Mg139 Mg143 3.190052 1_565
Mg139 Mg142 3.193060 1_555
Mg139 Mg148 3.223641 1_555
Mg139 Mg22 3.226077 1_556
Mg140 Mg16 3.202131 1_456
Mg140 Mg8 3.202163 1_455
Mg141 Mg99 3.192770 1_555
Mg141 Mg7 3.202111 1_555
Mg141 Mg15 3.202165 1_556
Mg142 Mg19 3.180877 1_556
Mg143 Mg5 3.172651 1_555
Mg143 Mg22 3.179547 1_546
Mg143 Mg2 3.179573 1_556
Mg143 Mg148 3.191959 1_545
Mg143 Mg146 3.192019 1_555
Mg144 Mg6 3.172695 1_555
Mg144 Mg3 3.179525 1_655
Mg144 Mg23 3.179536 1_546
Mg144 Mg147 3.192013 1_545
Mg144 Mg146 3.192062 1_655
Mg145 Mg21 3.179542 1_556
Mg145 Mg20 3.179588 1_656
Mg145 Mg148 3.192064 1_655
Mg145 Mg147 3.192079 1_555
Mg146 Mg3 3.090876 1_555
Mg146 Mg2 3.090883 1_556
Mg146 Nb0 3.094708 1_446
Mg146 Mg147 3.105827 1_445
Mg146 Mg148 3.105844 1_545
Mg147 Mg21 3.090837 1_556
Mg147 Mg23 3.090857 1_556
Mg147 Nb0 3.094492 1_556
Mg147 Mg148 3.105915 1_655
Mg148 Mg22 3.090838 1_556
Mg148 Mg20 3.090885 1_556
Mg148 Nb0 3.094661 1_456
