# generated using pymatgen
data_Mg3Si4
_symmetry_space_group_name_H-M   'P 1'
_cell_length_a   6.08021200
_cell_length_b   6.85892015
_cell_length_c   7.57370975
_cell_angle_alpha   112.25326846
_cell_angle_beta   99.26613824
_cell_angle_gamma   107.90437609
_symmetry_Int_Tables_number   1
_chemical_formula_structural   Mg3Si4
_chemical_formula_sum   'Mg6 Si8'
_cell_volume   264.00578446
_cell_formula_units_Z   2
loop_
 _symmetry_equiv_pos_site_id
 _symmetry_equiv_pos_as_xyz
  1  'x, y, z'
loop_
 _atom_site_type_symbol
 _atom_site_label
 _atom_site_symmetry_multiplicity
 _atom_site_fract_x
 _atom_site_fract_y
 _atom_site_fract_z
 _atom_site_occupancy
  Mg  Mg0  1  0.40813400  0.11174400  0.39553900  1
  Mg  Mg1  1  0.96814600  0.30521400  0.44826400  1
  Mg  Mg2  1  0.64525900  0.27559300  0.87897000  1
  Mg  Mg3  1  0.86774900  0.84290300  0.78970900  1
  Mg  Mg4  1  0.66012800  0.61614400  0.42722800  1
  Mg  Mg5  1  0.96251000  0.11940500  0.13055800  1
  Si  Si0  1  0.19762300  0.53987500  0.77254500  1
  Si  Si1  1  0.18839900  0.85978200  0.02456200  1
  Si  Si2  1  0.86935800  0.48346700  0.10718500  1
  Si  Si3  1  0.45244500  0.48441300  0.12183500  1
  Si  Si4  1  0.26771900  0.21198500  0.73171700  1
  Si  Si5  1  0.06403100  0.67307100  0.52191700  1
  Si  Si6  1  0.49949100  0.91858700  0.69921400  1
  Si  Si7  1  0.44884900  0.81140900  0.19739600  1
loop_
_geom_bond_atom_site_label_1
_geom_bond_atom_site_label_2
_geom_bond_distance
_geom_bond_site_symmetry_2
Mg0 Si7 2.156061 1_545
Mg0 Si1 2.521837 1_545
Mg0 Si4 2.723854 1_555
Mg1 Si5 2.223044 1_655
Mg1 Mg5 2.244816 1_555
Mg1 Si0 2.256311 1_655
Mg2 Si2 1.748564 1_556
Mg2 Si6 2.094536 1_545
Mg2 Si4 2.212419 1_555
Mg2 Si3 2.557473 1_556
Mg3 Si1 2.359386 1_656
Mg3 Mg5 2.394545 1_566
Mg3 Mg4 2.447884 1_555
Mg3 Si6 2.498533 1_555
Mg3 Si5 2.596069 1_655
Mg3 Si4 3.149030 1_665
Mg4 Si3 2.129730 1_555
Mg4 Si5 2.308451 1_655
Mg5 Si1 2.545187 1_645
Mg5 Si2 2.785606 1_555
Si0 Si1 2.323561 1_556
Si1 Si7 2.077438 1_555
