# generated using pymatgen
data_Mg3Zr
_symmetry_space_group_name_H-M   'P 1'
_cell_length_a   6.06525000
_cell_length_b   10.22395600
_cell_length_c   11.68518200
_cell_angle_alpha   90.00000000
_cell_angle_beta   90.00000000
_cell_angle_gamma   90.00000000
_symmetry_Int_Tables_number   1
_chemical_formula_structural   Mg3Zr
_chemical_formula_sum   'Mg24 Zr8'
_cell_volume   724.60805805
_cell_formula_units_Z   8
loop_
 _symmetry_equiv_pos_site_id
 _symmetry_equiv_pos_as_xyz
  1  'x, y, z'
loop_
 _atom_site_type_symbol
 _atom_site_label
 _atom_site_symmetry_multiplicity
 _atom_site_fract_x
 _atom_site_fract_y
 _atom_site_fract_z
 _atom_site_occupancy
  Mg  Mg0_0  1  0.00000000  0.00000000  0.32797600  1
  Mg  Mg0_1  1  0.00000000  0.00000000  0.82797600  1
  Mg  Mg0_2  1  0.00000000  0.50000000  0.32797600  1
  Mg  Mg0_3  1  0.00000000  0.50000000  0.82797600  1
  Mg  Mg0_4  1  0.50000000  0.00000000  0.32797600  1
  Mg  Mg0_5  1  0.50000000  0.00000000  0.82797600  1
  Mg  Mg0_6  1  0.50000000  0.50000000  0.32797600  1
  Mg  Mg0_7  1  0.50000000  0.50000000  0.82797600  1
  Mg  Mg1_0  1  0.00000000  0.25000000  0.16829550  1
  Mg  Mg1_1  1  0.00000000  0.25000000  0.66829550  1
  Mg  Mg1_2  1  0.00000000  0.75000000  0.16829550  1
  Mg  Mg1_3  1  0.00000000  0.75000000  0.66829550  1
  Mg  Mg1_4  1  0.50000000  0.25000000  0.16829550  1
  Mg  Mg1_5  1  0.50000000  0.25000000  0.66829550  1
  Mg  Mg1_6  1  0.50000000  0.75000000  0.16829550  1
  Mg  Mg1_7  1  0.50000000  0.75000000  0.66829550  1
  Mg  Mg2_0  1  0.25000000  0.25000000  0.42473250  1
  Mg  Mg2_1  1  0.25000000  0.25000000  0.92473250  1
  Mg  Mg2_2  1  0.25000000  0.75000000  0.42473250  1
  Mg  Mg2_3  1  0.25000000  0.75000000  0.92473250  1
  Mg  Mg2_4  1  0.75000000  0.25000000  0.42473250  1
  Mg  Mg2_5  1  0.75000000  0.25000000  0.92473250  1
  Mg  Mg2_6  1  0.75000000  0.75000000  0.42473250  1
  Mg  Mg2_7  1  0.75000000  0.75000000  0.92473250  1
  Zr  Zr0_0  1  0.25000000  0.00000000  0.07899600  1
  Zr  Zr0_1  1  0.25000000  0.00000000  0.57899600  1
  Zr  Zr0_2  1  0.25000000  0.50000000  0.07899600  1
  Zr  Zr0_3  1  0.25000000  0.50000000  0.57899600  1
  Zr  Zr0_4  1  0.75000000  0.00000000  0.07899600  1
  Zr  Zr0_5  1  0.75000000  0.00000000  0.57899600  1
  Zr  Zr0_6  1  0.75000000  0.50000000  0.07899600  1
  Zr  Zr0_7  1  0.75000000  0.50000000  0.57899600  1
loop_
_geom_bond_atom_site_label_1
_geom_bond_atom_site_label_2
_geom_bond_distance
_geom_bond_site_symmetry_2
Mg0_0 Mg0_4 3.032625 1_455
Mg0_0 Mg0_4 3.032625 1_555
Mg0_0 Mg1_2 3.164593 1_545
Mg0_0 Mg1_0 3.164593 1_555
Mg0_0 Mg2_6 3.179714 1_445
Mg0_0 Mg2_2 3.179714 1_545
Mg0_0 Mg2_0 3.179714 1_555
Mg0_0 Mg2_4 3.179714 1_455
Mg0_0 Zr0_4 3.280804 1_455
Mg0_0 Zr0_0 3.280804 1_555
Mg0_0 Zr0_5 3.301962 1_455
Mg0_0 Zr0_1 3.301962 1_555
Mg0_1 Mg0_5 3.032625 1_455
Mg0_1 Mg0_5 3.032625 1_555
Mg0_1 Mg1_3 3.164593 1_545
Mg0_1 Mg1_1 3.164593 1_555
Mg0_1 Mg2_1 3.179714 1_555
Mg0_1 Mg2_3 3.179714 1_545
Mg0_1 Mg2_7 3.179714 1_445
Mg0_1 Mg2_5 3.179714 1_455
Mg0_1 Zr0_5 3.280804 1_455
Mg0_1 Zr0_1 3.280804 1_555
Mg0_1 Zr0_4 3.301962 1_456
Mg0_1 Zr0_0 3.301962 1_556
Mg0_2 Mg0_6 3.032625 1_455
Mg0_2 Mg0_6 3.032625 1_555
Mg0_2 Mg1_2 3.164593 1_555
Mg0_2 Mg1_0 3.164593 1_555
Mg0_2 Mg2_2 3.179714 1_555
Mg0_2 Mg2_6 3.179714 1_455
Mg0_2 Mg2_4 3.179714 1_455
Mg0_2 Mg2_0 3.179714 1_555
Mg0_2 Zr0_6 3.280804 1_455
Mg0_2 Zr0_2 3.280804 1_555
Mg0_2 Zr0_3 3.301962 1_555
Mg0_2 Zr0_7 3.301962 1_455
Mg0_3 Mg0_7 3.032625 1_555
Mg0_3 Mg0_7 3.032625 1_455
Mg0_3 Mg1_3 3.164593 1_555
Mg0_3 Mg1_1 3.164593 1_555
Mg0_3 Mg2_1 3.179714 1_555
Mg0_3 Mg2_3 3.179714 1_555
Mg0_3 Mg2_7 3.179714 1_455
Mg0_3 Mg2_5 3.179714 1_455
Mg0_3 Zr0_7 3.280804 1_455
Mg0_3 Zr0_3 3.280804 1_555
Mg0_3 Zr0_6 3.301962 1_456
Mg0_3 Zr0_2 3.301962 1_556
Mg0_4 Mg1_6 3.164593 1_545
Mg0_4 Mg1_4 3.164593 1_555
Mg0_4 Mg2_6 3.179714 1_545
Mg0_4 Mg2_4 3.179714 1_555
Mg0_4 Mg2_2 3.179714 1_545
Mg0_4 Mg2_0 3.179714 1_555
Mg0_4 Zr0_0 3.280804 1_555
Mg0_4 Zr0_4 3.280804 1_555
Mg0_4 Zr0_1 3.301962 1_555
Mg0_4 Zr0_5 3.301962 1_555
Mg0_5 Mg1_7 3.164593 1_545
Mg0_5 Mg1_5 3.164593 1_555
Mg0_5 Mg2_1 3.179714 1_555
Mg0_5 Mg2_7 3.179714 1_545
Mg0_5 Mg2_5 3.179714 1_555
Mg0_5 Mg2_3 3.179714 1_545
Mg0_5 Zr0_5 3.280804 1_555
Mg0_5 Zr0_1 3.280804 1_555
Mg0_5 Zr0_0 3.301962 1_556
Mg0_5 Zr0_4 3.301962 1_556
Mg0_6 Mg1_6 3.164593 1_555
Mg0_6 Mg1_4 3.164593 1_555
Mg0_6 Mg2_4 3.179714 1_555
Mg0_6 Mg2_2 3.179714 1_555
Mg0_6 Mg2_0 3.179714 1_555
Mg0_6 Mg2_6 3.179714 1_555
Mg0_6 Zr0_6 3.280804 1_555
Mg0_6 Zr0_2 3.280804 1_555
Mg0_6 Zr0_3 3.301962 1_555
Mg0_6 Zr0_7 3.301962 1_555
Mg0_7 Mg1_7 3.164593 1_555
Mg0_7 Mg1_5 3.164593 1_555
Mg0_7 Mg2_7 3.179714 1_555
Mg0_7 Mg2_1 3.179714 1_555
Mg0_7 Mg2_5 3.179714 1_555
Mg0_7 Mg2_3 3.179714 1_555
Mg0_7 Zr0_3 3.280804 1_555
Mg0_7 Zr0_7 3.280804 1_555
Mg0_7 Zr0_6 3.301962 1_556
Mg0_7 Zr0_2 3.301962 1_556
Mg1_0 Mg1_4 3.032625 1_555
Mg1_0 Mg1_4 3.032625 1_455
Mg1_0 Zr0_4 3.149783 1_455
Mg1_0 Zr0_6 3.149783 1_455
Mg1_0 Zr0_0 3.149783 1_555
Mg1_0 Zr0_2 3.149783 1_555
Mg1_0 Mg2_1 3.224804 1_554
Mg1_0 Mg2_5 3.224804 1_454
Mg1_0 Mg2_0 3.358317 1_555
Mg1_0 Mg2_4 3.358317 1_455
Mg1_1 Mg1_5 3.032625 1_555
Mg1_1 Mg1_5 3.032625 1_455
Mg1_1 Zr0_3 3.149783 1_555
Mg1_1 Zr0_7 3.149783 1_455
Mg1_1 Zr0_5 3.149783 1_455
Mg1_1 Zr0_1 3.149783 1_555
Mg1_1 Mg2_4 3.224804 1_455
Mg1_1 Mg2_0 3.224804 1_555
Mg1_1 Mg2_5 3.358317 1_455
Mg1_1 Mg2_1 3.358317 1_555
Mg1_2 Mg1_6 3.032625 1_455
Mg1_2 Mg1_6 3.032625 1_555
Mg1_2 Zr0_6 3.149783 1_455
Mg1_2 Zr0_2 3.149783 1_555
Mg1_2 Zr0_0 3.149783 1_565
Mg1_2 Zr0_4 3.149783 1_465
Mg1_2 Mg2_7 3.224804 1_454
Mg1_2 Mg2_3 3.224804 1_554
Mg1_2 Mg2_2 3.358317 1_555
Mg1_2 Mg2_6 3.358317 1_455
Mg1_3 Mg1_7 3.032625 1_455
Mg1_3 Mg1_7 3.032625 1_555
Mg1_3 Zr0_1 3.149783 1_565
Mg1_3 Zr0_5 3.149783 1_465
Mg1_3 Zr0_3 3.149783 1_555
Mg1_3 Zr0_7 3.149783 1_455
Mg1_3 Mg2_2 3.224804 1_555
Mg1_3 Mg2_6 3.224804 1_455
Mg1_3 Mg2_7 3.358317 1_455
Mg1_3 Mg2_3 3.358317 1_555
Mg1_4 Zr0_0 3.149783 1_555
Mg1_4 Zr0_6 3.149783 1_555
Mg1_4 Zr0_2 3.149783 1_555
Mg1_4 Zr0_4 3.149783 1_555
Mg1_4 Mg2_1 3.224804 1_554
Mg1_4 Mg2_5 3.224804 1_554
Mg1_4 Mg2_0 3.358317 1_555
Mg1_4 Mg2_4 3.358317 1_555
Mg1_5 Zr0_3 3.149783 1_555
Mg1_5 Zr0_7 3.149783 1_555
Mg1_5 Zr0_5 3.149783 1_555
Mg1_5 Zr0_1 3.149783 1_555
Mg1_5 Mg2_0 3.224804 1_555
Mg1_5 Mg2_4 3.224804 1_555
Mg1_5 Mg2_5 3.358317 1_555
Mg1_5 Mg2_1 3.358317 1_555
Mg1_6 Zr0_6 3.149783 1_555
Mg1_6 Zr0_0 3.149783 1_565
Mg1_6 Zr0_2 3.149783 1_555
Mg1_6 Zr0_4 3.149783 1_565
Mg1_6 Mg2_7 3.224804 1_554
Mg1_6 Mg2_3 3.224804 1_554
Mg1_6 Mg2_2 3.358317 1_555
Mg1_6 Mg2_6 3.358317 1_555
Mg1_7 Zr0_1 3.149783 1_565
Mg1_7 Zr0_3 3.149783 1_555
Mg1_7 Zr0_7 3.149783 1_555
Mg1_7 Zr0_5 3.149783 1_565
Mg1_7 Mg2_2 3.224804 1_555
Mg1_7 Mg2_6 3.224804 1_555
Mg1_7 Mg2_3 3.358317 1_555
Mg1_7 Mg2_7 3.358317 1_555
Mg2_0 Mg2_4 3.032625 1_455
Mg2_0 Mg2_4 3.032625 1_555
Mg2_0 Zr0_3 3.127689 1_555
Mg2_0 Zr0_1 3.127689 1_555
Mg2_1 Mg2_5 3.032625 1_455
Mg2_1 Mg2_5 3.032625 1_555
Mg2_1 Zr0_2 3.127689 1_556
Mg2_1 Zr0_0 3.127689 1_556
Mg2_2 Mg2_6 3.032625 1_455
Mg2_2 Mg2_6 3.032625 1_555
Mg2_2 Zr0_3 3.127689 1_555
Mg2_2 Zr0_1 3.127689 1_565
Mg2_3 Mg2_7 3.032625 1_555
Mg2_3 Mg2_7 3.032625 1_455
Mg2_3 Zr0_0 3.127689 1_566
Mg2_3 Zr0_2 3.127689 1_556
Mg2_4 Zr0_7 3.127689 1_555
Mg2_4 Zr0_5 3.127689 1_555
Mg2_5 Zr0_4 3.127689 1_556
Mg2_5 Zr0_6 3.127689 1_556
Mg2_6 Zr0_5 3.127689 1_565
Mg2_6 Zr0_7 3.127689 1_555
Mg2_7 Zr0_6 3.127689 1_556
Mg2_7 Zr0_4 3.127689 1_566
Zr0_0 Zr0_4 3.032625 1_555
Zr0_0 Zr0_4 3.032625 1_455
Zr0_1 Zr0_5 3.032625 1_555
Zr0_1 Zr0_5 3.032625 1_455
Zr0_2 Zr0_6 3.032625 1_455
Zr0_2 Zr0_6 3.032625 1_555
Zr0_3 Zr0_7 3.032625 1_455
Zr0_3 Zr0_7 3.032625 1_555
