# generated using pymatgen
data_Tb5Te9
_symmetry_space_group_name_H-M   'P 1'
_cell_length_a   9.67981910
_cell_length_b   9.67905688
_cell_length_c   18.00287109
_cell_angle_alpha   90.00000000
_cell_angle_beta   90.00000000
_cell_angle_gamma   90.00260094
_symmetry_Int_Tables_number   1
_chemical_formula_structural   Tb5Te9
_chemical_formula_sum   'Tb20 Te36'
_cell_volume   1686.71634899
_cell_formula_units_Z   4
loop_
 _symmetry_equiv_pos_site_id
 _symmetry_equiv_pos_as_xyz
  1  'x, y, z'
loop_
 _atom_site_type_symbol
 _atom_site_label
 _atom_site_symmetry_multiplicity
 _atom_site_fract_x
 _atom_site_fract_y
 _atom_site_fract_z
 _atom_site_occupancy
  Tb  Tb0  1  0.69850193  0.09667074  0.12127373  1
  Tb  Tb1  1  0.30149807  0.90332926  0.12127373  1
  Tb  Tb2  1  0.90474217  0.69933073  0.11913853  1
  Tb  Tb3  1  0.09525783  0.30066927  0.11913853  1
  Tb  Tb4  1  0.70413042  0.08997106  0.61736800  1
  Tb  Tb5  1  0.29586958  0.91002894  0.61736800  1
  Tb  Tb6  1  0.89838773  0.69792254  0.61400210  1
  Tb  Tb7  1  0.10161227  0.30207746  0.61400210  1
  Tb  Tb8  1  0.50000000  0.50000000  0.63198998  1
  Tb  Tb9  1  0.80208533  0.39841131  0.39210854  1
  Tb  Tb10  1  0.19791467  0.60158869  0.39210854  1
  Tb  Tb11  1  0.58998540  0.79585801  0.38870035  1
  Tb  Tb12  1  0.41001460  0.20414199  0.38870035  1
  Tb  Tb13  1  0.00000000  0.00000000  0.89867554  1
  Tb  Tb14  1  0.00000000  0.00000000  0.37409057  1
  Tb  Tb15  1  0.50000000  0.50000000  0.10746192  1
  Tb  Tb16  1  0.80068597  0.40469643  0.88694907  1
  Tb  Tb17  1  0.19931403  0.59530357  0.88694907  1
  Tb  Tb18  1  0.59668264  0.80154047  0.88471570  1
  Tb  Tb19  1  0.40331736  0.19845953  0.88471570  1
  Te  Te0  1  0.88359146  0.21012835  0.25224716  1
  Te  Te1  1  0.11640854  0.78987165  0.25224716  1
  Te  Te2  1  0.77663263  0.86301247  0.25243560  1
  Te  Te3  1  0.22336737  0.13698753  0.25243560  1
  Te  Te4  1  0.50000000  0.00000000  0.24953279  1
  Te  Te5  1  0.00000000  0.50000000  0.25164049  1
  Te  Te6  1  0.00000000  0.00000000  0.07333734  1
  Te  Te7  1  0.50000000  0.00000000  0.75643069  1
  Te  Te8  1  0.00000000  0.50000000  0.75453751  1
  Te  Te9  1  0.90223161  0.70214470  0.93912686  1
  Te  Te10  1  0.09776839  0.29785530  0.93912686  1
  Te  Te11  1  0.29723706  0.90052230  0.93961720  1
  Te  Te12  1  0.70276294  0.09947770  0.93961720  1
  Te  Te13  1  0.50000000  0.50000000  0.45219940  1
  Te  Te14  1  0.80207661  0.39439695  0.57046502  1
  Te  Te15  1  0.19792339  0.60560305  0.57046502  1
  Te  Te16  1  0.59786761  0.79980606  0.56896257  1
  Te  Te17  1  0.40213239  0.20019394  0.56896257  1
  Te  Te18  1  0.89440766  0.69794577  0.43562103  1
  Te  Te19  1  0.10559234  0.30205423  0.43562103  1
  Te  Te20  1  0.29992773  0.90214339  0.43705696  1
  Te  Te21  1  0.70007227  0.09785661  0.43705696  1
  Te  Te22  1  0.79791352  0.40234507  0.06686838  1
  Te  Te23  1  0.20208648  0.59765493  0.06686838  1
  Te  Te24  1  0.59941790  0.79716542  0.06633598  1
  Te  Te25  1  0.40058210  0.20283458  0.06633598  1
  Te  Te26  1  0.00000000  0.00000000  0.55400550  1
  Te  Te27  1  0.50000000  0.50000000  0.93288554  1
  Te  Te28  1  0.71019306  0.61634695  0.75381023  1
  Te  Te29  1  0.28980694  0.38365305  0.75381023  1
  Te  Te30  1  0.36302684  0.72323691  0.75362481  1
  Te  Te31  1  0.63697316  0.27676309  0.75362481  1
  Te  Te32  1  0.11964942  0.08739459  0.74308107  1
  Te  Te33  1  0.88035058  0.91260541  0.74308107  1
  Te  Te34  1  0.58735036  0.38041126  0.26299998  1
  Te  Te35  1  0.41264964  0.61958874  0.26299998  1
loop_
_geom_bond_atom_site_label_1
_geom_bond_atom_site_label_2
_geom_bond_distance
_geom_bond_site_symmetry_2
Tb0 Te4 3.146265 1_555
Tb0 Te0 3.158388 1_555
Tb0 Te6 3.183997 1_655
Tb0 Te24 3.209616 1_545
Tb0 Te25 3.217253 1_555
Tb0 Te22 3.261688 1_555
Tb0 Te12 3.270712 1_554
Tb0 Te2 3.355983 1_545
Tb0 Te34 3.900041 1_555
Tb1 Te4 3.146265 1_565
Tb1 Te1 3.158388 1_555
Tb1 Te6 3.183997 1_565
Tb1 Te25 3.209616 1_565
Tb1 Te24 3.217253 1_555
Tb1 Te23 3.261688 1_555
Tb1 Te11 3.270712 1_554
Tb1 Te3 3.355983 1_565
Tb1 Te35 3.900041 1_555
Tb2 Te2 3.131554 1_555
Tb2 Te6 3.162137 1_665
Tb2 Te23 3.184105 1_655
Tb2 Te22 3.196490 1_555
Tb2 Te5 3.203580 1_655
Tb2 Te9 3.240932 1_554
Tb2 Te24 3.245841 1_555
Tb2 Te1 3.272342 1_655
Tb3 Te3 3.131554 1_555
Tb3 Te6 3.162137 1_555
Tb3 Te22 3.184105 1_455
Tb3 Te23 3.196490 1_555
Tb3 Te5 3.203580 1_555
Tb3 Te10 3.240932 1_554
Tb3 Te25 3.245841 1_555
Tb3 Te0 3.272342 1_455
Tb4 Te16 3.115280 1_545
Tb4 Te31 3.115884 1_555
Tb4 Te26 3.203448 1_655
Tb4 Te14 3.208399 1_555
Tb4 Te17 3.231635 1_555
Tb4 Te21 3.247251 1_555
Tb4 Te7 3.306087 1_555
Tb4 Te33 3.313484 1_545
Tb5 Te17 3.115280 1_565
Tb5 Te30 3.115884 1_555
Tb5 Te26 3.203448 1_565
Tb5 Te15 3.208399 1_555
Tb5 Te16 3.231635 1_555
Tb5 Te20 3.247251 1_555
Tb5 Te7 3.306087 1_565
Tb5 Te32 3.313484 1_565
Tb6 Te33 3.122228 1_555
Tb6 Te15 3.133663 1_655
Tb6 Te16 3.176847 1_555
Tb6 Te14 3.180272 1_555
Tb6 Te28 3.205757 1_555
Tb6 Te18 3.211603 1_555
Tb6 Te26 3.268421 1_665
Tb6 Te8 3.322445 1_655
Tb7 Te32 3.122228 1_555
Tb7 Te14 3.133663 1_455
Tb7 Te17 3.176847 1_555
Tb7 Te15 3.180272 1_555
Tb7 Te29 3.205757 1_555
Tb7 Te19 3.211603 1_555
Tb7 Te26 3.268421 1_555
Tb7 Te8 3.322445 1_555
Tb8 Te29 3.196472 1_555
Tb8 Te28 3.196472 1_555
Tb8 Te13 3.236747 1_555
Tb8 Te16 3.256588 1_555
Tb8 Te17 3.256588 1_555
Tb8 Te14 3.289669 1_555
Tb8 Te15 3.289669 1_555
Tb8 Te31 3.349933 1_555
Tb8 Te30 3.349933 1_555
Tb9 Te34 3.123038 1_555
Tb9 Te18 3.133283 1_555
Tb9 Te21 3.176857 1_555
Tb9 Te19 3.180398 1_655
Tb9 Te0 3.206805 1_555
Tb9 Te14 3.211164 1_555
Tb9 Te13 3.269244 1_555
Tb9 Te5 3.321423 1_655
Tb10 Te35 3.123038 1_555
Tb10 Te19 3.133283 1_555
Tb10 Te20 3.176857 1_555
Tb10 Te18 3.180398 1_455
Tb10 Te1 3.206805 1_555
Tb10 Te15 3.211164 1_555
Tb10 Te13 3.269244 1_555
Tb10 Te5 3.321423 1_555
Tb11 Te20 3.114427 1_555
Tb11 Te2 3.115215 1_555
Tb11 Te13 3.204009 1_555
Tb11 Te18 3.208624 1_555
Tb11 Te21 3.230700 1_565
Tb11 Te16 3.246359 1_555
Tb11 Te4 3.307592 1_565
Tb11 Te35 3.313343 1_555
Tb12 Te21 3.114427 1_555
Tb12 Te3 3.115215 1_555
Tb12 Te13 3.204009 1_555
Tb12 Te19 3.208624 1_555
Tb12 Te20 3.230700 1_545
Tb12 Te17 3.246359 1_555
Tb12 Te4 3.307592 1_555
Tb12 Te34 3.313343 1_555
Tb13 Te10 3.120444 1_555
Tb13 Te9 3.120444 1_445
Tb13 Te12 3.122321 1_455
Tb13 Te11 3.122321 1_545
Tb13 Te6 3.144414 1_556
Tb13 Te33 3.146946 1_445
Tb13 Te32 3.146946 1_555
Tb14 Te1 3.196564 1_545
Tb14 Te0 3.196564 1_455
Tb14 Te26 3.238985 1_555
Tb14 Te21 3.257483 1_455
Tb14 Te20 3.257483 1_545
Tb14 Te19 3.289216 1_555
Tb14 Te18 3.289216 1_445
Tb14 Te3 3.351030 1_555
Tb14 Te2 3.351030 1_445
Tb15 Te23 3.121497 1_555
Tb15 Te22 3.121497 1_555
Tb15 Te24 3.122022 1_555
Tb15 Te25 3.122022 1_555
Tb15 Te27 3.142876 1_554
Tb15 Te35 3.145724 1_555
Tb15 Te34 3.145724 1_555
Tb16 Te31 3.131374 1_555
Tb16 Te27 3.163317 1_555
Tb16 Te9 3.183873 1_555
Tb16 Te10 3.197144 1_655
Tb16 Te8 3.202419 1_655
Tb16 Te22 3.239255 1_556
Tb16 Te12 3.244184 1_555
Tb16 Te28 3.272487 1_555
Tb17 Te30 3.131374 1_555
Tb17 Te27 3.163317 1_555
Tb17 Te10 3.183873 1_555
Tb17 Te9 3.197144 1_455
Tb17 Te8 3.202419 1_555
Tb17 Te23 3.239255 1_556
Tb17 Te11 3.244184 1_555
Tb17 Te29 3.272487 1_555
Tb18 Te7 3.146373 1_565
Tb18 Te28 3.158230 1_555
Tb18 Te27 3.185282 1_555
Tb18 Te11 3.208859 1_555
Tb18 Te12 3.216684 1_565
Tb18 Te9 3.260842 1_555
Tb18 Te24 3.270068 1_556
Tb18 Te30 3.355505 1_555
Tb18 Te33 3.898296 1_555
Tb19 Te7 3.146373 1_555
Tb19 Te29 3.158230 1_555
Tb19 Te27 3.185282 1_555
Tb19 Te12 3.208859 1_555
Tb19 Te11 3.216684 1_545
Tb19 Te10 3.260842 1_555
Tb19 Te25 3.270068 1_556
Tb19 Te31 3.355505 1_555
Tb19 Te32 3.898296 1_555
Te0 Te5 3.023476 1_655
Te0 Te34 3.313200 1_555
Te1 Te5 3.023476 1_555
Te1 Te35 3.313200 1_555
Te2 Te4 2.988554 1_565
Te3 Te4 2.988554 1_555
Te28 Te8 3.022948 1_655
Te28 Te33 3.312457 1_555
Te29 Te8 3.022948 1_555
Te29 Te32 3.312457 1_555
Te30 Te7 2.989344 1_565
Te31 Te7 2.989344 1_555
Te32 Te33 2.868341 1_445
Te34 Te35 2.866943 1_555
