# generated using pymatgen
data_K2Re3S4O7
_symmetry_space_group_name_H-M   'P 1'
_cell_length_a   8.08185600
_cell_length_b   9.23129584
_cell_length_c   9.96575116
_cell_angle_alpha   81.47850790
_cell_angle_beta   75.02293928
_cell_angle_gamma   69.16583255
_symmetry_Int_Tables_number   1
_chemical_formula_structural   K2Re3S4O7
_chemical_formula_sum   'K4 Re6 S8 O14'
_cell_volume   669.97925552
_cell_formula_units_Z   2
loop_
 _symmetry_equiv_pos_site_id
 _symmetry_equiv_pos_as_xyz
  1  'x, y, z'
loop_
 _atom_site_type_symbol
 _atom_site_label
 _atom_site_symmetry_multiplicity
 _atom_site_fract_x
 _atom_site_fract_y
 _atom_site_fract_z
 _atom_site_occupancy
  K  K0  1  0.69353800  0.84622900  0.59055000  1
  K  K1  1  0.30646200  0.15377100  0.40945000  1
  K  K2  1  0.28452500  0.45339300  0.69689600  1
  K  K3  1  0.71547500  0.54660700  0.30310400  1
  Re  Re0  1  0.26863500  0.83360500  0.96231200  1
  Re  Re1  1  0.73136500  0.16639500  0.03768800  1
  Re  Re2  1  0.03345900  0.15424000  0.82950800  1
  Re  Re3  1  0.96654100  0.84576000  0.17049200  1
  Re  Re4  1  0.03802500  0.16690500  0.09900300  1
  Re  Re5  1  0.96197500  0.83309500  0.90099600  1
  S  S0  1  0.20175700  0.89784600  0.73626500  1
  S  S1  1  0.79824300  0.10215400  0.26373500  1
  S  S2  1  0.85354500  0.38209900  0.96842600  1
  S  S3  1  0.14645500  0.61790100  0.03157400  1
  S  S4  1  0.21852100  0.90743200  0.19092700  1
  S  S5  1  0.78147900  0.09256800  0.80907300  1
  S  S6  1  0.29995700  0.09855200  0.91366600  1
  S  S7  1  0.70004300  0.90144800  0.08633400  1
  O  O0  1  0.05049200  0.30708400  0.19794900  1
  O  O1  1  0.94950800  0.69291600  0.80205100  1
  O  O2  1  0.66356100  0.49118200  0.62162800  1
  O  O3  1  0.33643900  0.50881800  0.37837200  1
  O  O4  1  0.02078100  0.93204700  0.53085900  1
  O  O5  1  0.97921900  0.06795300  0.46914100  1
  O  O6  1  0.71073900  0.36266500  0.56819200  1
  O  O7  1  0.28926100  0.63733500  0.43180800  1
  O  O8  1  0.48712700  0.69632400  0.91939800  1
  O  O9  1  0.51287300  0.30367600  0.08060200  1
  O  O10  1  0.48977600  0.17056000  0.59678900  1
  O  O11  1  0.51022400  0.82944000  0.40321100  1
  O  O12  1  0.07080400  0.28503400  0.68324900  1
  O  O13  1  0.92919600  0.71496600  0.31675100  1
loop_
_geom_bond_atom_site_label_1
_geom_bond_atom_site_label_2
_geom_bond_distance
_geom_bond_site_symmetry_2
K0 O11 2.717206 1_555
K0 O10 2.859166 1_565
K0 O4 2.917808 1_655
K0 O13 3.032023 1_555
K0 O1 3.164219 1_555
K0 O2 3.334985 1_555
K1 O10 2.717206 1_555
K1 O11 2.859166 1_545
K1 O5 2.917808 1_455
K1 O12 3.032023 1_555
K1 O0 3.164219 1_555
K1 O3 3.334985 1_555
K2 O10 2.720227 1_555
K2 O12 2.740616 1_555
K2 O1 2.877450 1_455
K2 O7 2.920343 1_555
K2 O3 3.081750 1_555
K2 O2 3.092438 1_555
K2 O6 3.192882 1_555
K2 S3 3.612168 1_556
K2 S6 3.628181 1_555
K3 O11 2.720227 1_555
K3 O13 2.740616 1_555
K3 O0 2.877450 1_655
K3 O6 2.920343 1_555
K3 O2 3.081750 1_555
K3 O3 3.092438 1_555
K3 O7 3.192882 1_555
K3 S2 3.612168 1_554
K3 S7 3.628181 1_555
Re0 S4 2.367727 1_556
Re0 S0 2.392492 1_555
Re0 S3 2.460789 1_556
Re0 S6 2.511302 1_565
Re1 S5 2.367727 1_554
Re1 S1 2.392492 1_555
Re1 S2 2.460789 1_554
Re1 S7 2.511302 1_545
Re2 S5 2.363516 1_455
Re2 S6 2.371671 1_555
Re2 S0 2.454394 1_545
Re2 S2 2.470278 1_455
Re3 S4 2.363516 1_655
Re3 S7 2.371671 1_555
Re3 S1 2.454394 1_565
Re3 S3 2.470278 1_655
Re4 S6 2.380172 1_554
Re4 S1 2.386753 1_455
Re4 S2 2.447944 1_454
Re4 S4 2.501888 1_545
Re5 S7 2.380177 1_556
Re5 S0 2.386749 1_655
Re5 S3 2.447950 1_656
Re5 S5 2.501885 1_565
O0 Re4 1.783050 1_555
O1 Re5 1.783043 1_555
O2 O6 1.263717 1_555
O3 O7 1.263717 1_555
O4 O5 1.281974 1_465
O8 Re0 1.756563 1_555
O9 Re1 1.756563 1_555
O12 Re2 1.784299 1_555
O13 Re3 1.784299 1_555
