# generated using pymatgen
data_Mg30VBiO32
_symmetry_space_group_name_H-M   'P 1'
_cell_length_a   8.61352100
_cell_length_b   8.61352100
_cell_length_c   8.69555800
_cell_angle_alpha   90.00000000
_cell_angle_beta   90.00000000
_cell_angle_gamma   90.00000000
_symmetry_Int_Tables_number   1
_chemical_formula_structural   Mg30VBiO32
_chemical_formula_sum   'Mg30 V1 Bi1 O32'
_cell_volume   645.14730878
_cell_formula_units_Z   1
loop_
 _symmetry_equiv_pos_site_id
 _symmetry_equiv_pos_as_xyz
  1  'x, y, z'
loop_
 _atom_site_type_symbol
 _atom_site_label
 _atom_site_symmetry_multiplicity
 _atom_site_fract_x
 _atom_site_fract_y
 _atom_site_fract_z
 _atom_site_occupancy
  Mg  Mg0  1  0.00000000  0.50000000  0.00000000  1
  Mg  Mg1  1  0.00000000  0.50000000  0.50000000  1
  Mg  Mg2  1  0.50000000  0.00000000  0.00000000  1
  Mg  Mg3  1  0.50000000  0.00000000  0.50000000  1
  Mg  Mg4  1  0.50000000  0.50000000  0.00000000  1
  Mg  Mg5  1  0.50000000  0.50000000  0.50000000  1
  Mg  Mg6  1  0.00000000  0.25622000  0.24398300  1
  Mg  Mg7  1  0.00000000  0.25622000  0.75601700  1
  Mg  Mg8  1  0.00000000  0.74378000  0.24398300  1
  Mg  Mg9  1  0.00000000  0.74378000  0.75601700  1
  Mg  Mg10  1  0.50000000  0.25098500  0.24897000  1
  Mg  Mg11  1  0.50000000  0.25098500  0.75103000  1
  Mg  Mg12  1  0.50000000  0.74901500  0.24897000  1
  Mg  Mg13  1  0.50000000  0.74901500  0.75103000  1
  Mg  Mg14  1  0.25622000  0.00000000  0.24398300  1
  Mg  Mg15  1  0.25622000  0.00000000  0.75601700  1
  Mg  Mg16  1  0.25098500  0.50000000  0.24897000  1
  Mg  Mg17  1  0.25098500  0.50000000  0.75103000  1
  Mg  Mg18  1  0.74378000  0.00000000  0.24398300  1
  Mg  Mg19  1  0.74378000  0.00000000  0.75601700  1
  Mg  Mg20  1  0.74901500  0.50000000  0.24897000  1
  Mg  Mg21  1  0.74901500  0.50000000  0.75103000  1
  Mg  Mg22  1  0.25125500  0.25125500  0.00000000  1
  Mg  Mg23  1  0.25662200  0.25662200  0.50000000  1
  Mg  Mg24  1  0.25125500  0.74874500  0.00000000  1
  Mg  Mg25  1  0.25662200  0.74337800  0.50000000  1
  Mg  Mg26  1  0.74874500  0.25125500  0.00000000  1
  Mg  Mg27  1  0.74337800  0.25662200  0.50000000  1
  Mg  Mg28  1  0.74874500  0.74874500  0.00000000  1
  Mg  Mg29  1  0.74337800  0.74337800  0.50000000  1
  V  V0  1  0.00000000  0.00000000  0.00000000  1
  Bi  Bi0  1  0.00000000  0.00000000  0.50000000  1
  O  O0  1  0.25695100  0.00000000  0.00000000  1
  O  O1  1  0.27013800  0.00000000  0.50000000  1
  O  O2  1  0.25061800  0.50000000  0.00000000  1
  O  O3  1  0.25279700  0.50000000  0.50000000  1
  O  O4  1  0.74304900  0.00000000  0.00000000  1
  O  O5  1  0.72986200  0.00000000  0.50000000  1
  O  O6  1  0.74938200  0.50000000  0.00000000  1
  O  O7  1  0.74720300  0.50000000  0.50000000  1
  O  O8  1  0.24932100  0.24932100  0.25081900  1
  O  O9  1  0.24932100  0.24932100  0.74918100  1
  O  O10  1  0.24932100  0.75067900  0.25081900  1
  O  O11  1  0.24932100  0.75067900  0.74918100  1
  O  O12  1  0.75067900  0.24932100  0.25081900  1
  O  O13  1  0.75067900  0.24932100  0.74918100  1
  O  O14  1  0.75067900  0.75067900  0.25081900  1
  O  O15  1  0.75067900  0.75067900  0.74918100  1
  O  O16  1  0.00000000  0.00000000  0.23399600  1
  O  O17  1  0.00000000  0.00000000  0.76600400  1
  O  O18  1  0.00000000  0.50000000  0.24760500  1
  O  O19  1  0.00000000  0.50000000  0.75239500  1
  O  O20  1  0.50000000  0.00000000  0.24760500  1
  O  O21  1  0.50000000  0.00000000  0.75239500  1
  O  O22  1  0.50000000  0.50000000  0.24996100  1
  O  O23  1  0.50000000  0.50000000  0.75003900  1
  O  O24  1  0.00000000  0.25695100  0.00000000  1
  O  O25  1  0.00000000  0.27013800  0.50000000  1
  O  O26  1  0.00000000  0.74304900  0.00000000  1
  O  O27  1  0.00000000  0.72986200  0.50000000  1
  O  O28  1  0.50000000  0.25061800  0.00000000  1
  O  O29  1  0.50000000  0.25279700  0.50000000  1
  O  O30  1  0.50000000  0.74938200  0.00000000  1
  O  O31  1  0.50000000  0.74720300  0.50000000  1
loop_
_geom_bond_atom_site_label_1
_geom_bond_atom_site_label_2
_geom_bond_distance
_geom_bond_site_symmetry_2
Mg0 O26 2.093508 1_555
Mg0 O24 2.093508 1_555
Mg0 O18 2.153064 1_555
Mg0 O19 2.153064 1_554
Mg0 O6 2.158703 1_455
Mg0 O2 2.158703 1_555
Mg1 O25 1.979921 1_555
Mg1 O27 1.979921 1_555
Mg1 O3 2.177472 1_555
Mg1 O7 2.177472 1_455
Mg1 O19 2.194715 1_555
Mg1 O18 2.194715 1_555
Mg2 O4 2.093508 1_555
Mg2 O0 2.093508 1_555
Mg2 O20 2.153064 1_555
Mg2 O21 2.153064 1_554
Mg2 O28 2.158703 1_555
Mg2 O30 2.158703 1_545
Mg3 O1 1.979921 1_555
Mg3 O5 1.979921 1_555
Mg3 O29 2.177472 1_555
Mg3 O31 2.177472 1_545
Mg3 O21 2.194715 1_555
Mg3 O20 2.194715 1_555
Mg4 O30 2.148057 1_555
Mg4 O2 2.148057 1_555
Mg4 O28 2.148057 1_555
Mg4 O6 2.148057 1_555
Mg4 O22 2.173550 1_555
Mg4 O23 2.173550 1_554
Mg5 O7 2.129288 1_555
Mg5 O31 2.129288 1_555
Mg5 O3 2.129288 1_555
Mg5 O29 2.129288 1_555
Mg5 O22 2.174229 1_555
Mg5 O23 2.174229 1_555
Mg6 O18 2.100040 1_555
Mg6 O24 2.121578 1_555
Mg6 O8 2.149176 1_555
Mg6 O12 2.149176 1_455
Mg6 O16 2.208664 1_555
Mg6 O25 2.229436 1_555
Mg7 O19 2.100040 1_555
Mg7 O24 2.121578 1_556
Mg7 O9 2.149176 1_555
Mg7 O13 2.149176 1_455
Mg7 O17 2.208664 1_555
Mg7 O25 2.229436 1_555
Mg8 O18 2.100040 1_555
Mg8 O26 2.121578 1_555
Mg8 O14 2.149176 1_455
Mg8 O10 2.149176 1_555
Mg8 O16 2.208664 1_565
Mg8 O27 2.229436 1_555
Mg9 O19 2.100040 1_555
Mg9 O26 2.121578 1_556
Mg9 O11 2.149176 1_555
Mg9 O15 2.149176 1_455
Mg9 O17 2.208664 1_565
Mg9 O27 2.229436 1_555
Mg10 O22 2.144913 1_555
Mg10 O12 2.159336 1_555
Mg10 O8 2.159336 1_555
Mg10 O20 2.161897 1_555
Mg10 O28 2.164935 1_555
Mg10 O29 2.182902 1_555
Mg11 O23 2.144913 1_555
Mg11 O13 2.159336 1_555
Mg11 O9 2.159336 1_555
Mg11 O21 2.161897 1_555
Mg11 O28 2.164935 1_556
Mg11 O29 2.182902 1_555
Mg12 O22 2.144913 1_555
Mg12 O10 2.159336 1_555
Mg12 O14 2.159336 1_555
Mg12 O20 2.161897 1_565
Mg12 O30 2.164935 1_555
Mg12 O31 2.182902 1_555
Mg13 O23 2.144913 1_555
Mg13 O11 2.159336 1_555
Mg13 O15 2.159336 1_555
Mg13 O21 2.161897 1_565
Mg13 O30 2.164935 1_556
Mg13 O31 2.182902 1_555
Mg14 O20 2.100040 1_555
Mg14 O0 2.121578 1_555
Mg14 O8 2.149176 1_555
Mg14 O10 2.149176 1_545
Mg14 O16 2.208664 1_555
Mg14 O1 2.229436 1_555
Mg15 O21 2.100040 1_555
Mg15 O0 2.121578 1_556
Mg15 O9 2.149176 1_555
Mg15 O11 2.149176 1_545
Mg15 O17 2.208664 1_555
Mg15 O1 2.229436 1_555
Mg16 O22 2.144913 1_555
Mg16 O10 2.159336 1_555
Mg16 O8 2.159336 1_555
Mg16 O18 2.161897 1_555
Mg16 O2 2.164935 1_555
Mg16 O3 2.182902 1_555
Mg17 O23 2.144913 1_555
Mg17 O11 2.159336 1_555
Mg17 O9 2.159336 1_555
Mg17 O19 2.161897 1_555
Mg17 O2 2.164935 1_556
Mg17 O3 2.182902 1_555
Mg18 O20 2.100040 1_555
Mg18 O4 2.121578 1_555
Mg18 O14 2.149176 1_545
Mg18 O12 2.149176 1_555
Mg18 O16 2.208664 1_655
Mg18 O5 2.229436 1_555
Mg19 O21 2.100040 1_555
Mg19 O4 2.121578 1_556
Mg19 O13 2.149176 1_555
Mg19 O15 2.149176 1_545
Mg19 O17 2.208664 1_655
Mg19 O5 2.229436 1_555
Mg20 O22 2.144913 1_555
Mg20 O12 2.159336 1_555
Mg20 O14 2.159336 1_555
Mg20 O18 2.161897 1_655
Mg20 O6 2.164935 1_555
Mg20 O7 2.182902 1_555
Mg21 O23 2.144913 1_555
Mg21 O13 2.159336 1_555
Mg21 O15 2.159336 1_555
Mg21 O19 2.161897 1_655
Mg21 O6 2.164935 1_556
Mg21 O7 2.182902 1_555
Mg22 O2 2.142577 1_555
Mg22 O28 2.142577 1_555
Mg22 O24 2.164746 1_555
Mg22 O0 2.164746 1_555
Mg22 O8 2.181138 1_555
Mg22 O9 2.181138 1_554
Mg23 O29 2.096600 1_555
Mg23 O3 2.096600 1_555
Mg23 O9 2.168592 1_555
Mg23 O8 2.168592 1_555
Mg23 O25 2.213483 1_555
Mg23 O1 2.213483 1_555
Mg24 O30 2.142577 1_555
Mg24 O2 2.142577 1_555
Mg24 O26 2.164746 1_555
Mg24 O0 2.164746 1_565
Mg24 O11 2.181138 1_554
Mg24 O10 2.181138 1_555
Mg25 O3 2.096600 1_555
Mg25 O31 2.096600 1_555
Mg25 O10 2.168592 1_555
Mg25 O11 2.168592 1_555
Mg25 O27 2.213483 1_555
Mg25 O1 2.213483 1_565
Mg26 O28 2.142577 1_555
Mg26 O6 2.142577 1_555
Mg26 O24 2.164746 1_655
Mg26 O4 2.164746 1_555
Mg26 O13 2.181138 1_554
Mg26 O12 2.181138 1_555
Mg27 O29 2.096600 1_555
Mg27 O7 2.096600 1_555
Mg27 O13 2.168592 1_555
Mg27 O12 2.168592 1_555
Mg27 O5 2.213483 1_555
Mg27 O25 2.213483 1_655
Mg28 O30 2.142577 1_555
Mg28 O6 2.142577 1_555
Mg28 O26 2.164746 1_655
Mg28 O4 2.164746 1_565
Mg28 O14 2.181138 1_555
Mg28 O15 2.181138 1_554
Mg29 O7 2.096600 1_555
Mg29 O31 2.096600 1_555
Mg29 O14 2.168592 1_555
Mg29 O15 2.168592 1_555
Mg29 O27 2.213483 1_655
Mg29 O5 2.213483 1_565
Bi0 O17 2.313053 1_555
Bi0 O16 2.313053 1_555
Bi0 O5 2.326839 1_455
Bi0 O25 2.326839 1_555
Bi0 O27 2.326839 1_545
Bi0 O1 2.326839 1_555
O0 V0 2.213253 1_555
O4 V0 2.213253 1_655
O16 V0 2.034726 1_555
O17 V0 2.034726 1_556
O24 V0 2.213253 1_555
O26 V0 2.213253 1_565
