# generated using pymatgen
data_Li4Cr3CoO8
_symmetry_space_group_name_H-M   'P 1'
_cell_length_a   5.90901805
_cell_length_b   8.88520727
_cell_length_c   6.62947631
_cell_angle_alpha   98.73140745
_cell_angle_beta   116.47422043
_cell_angle_gamma   70.60400547
_symmetry_Int_Tables_number   1
_chemical_formula_structural   Li4Cr3CoO8
_chemical_formula_sum   'Li8 Cr6 Co2 O16'
_cell_volume   293.88084170
_cell_formula_units_Z   2
loop_
 _symmetry_equiv_pos_site_id
 _symmetry_equiv_pos_as_xyz
  1  'x, y, z'
loop_
 _atom_site_type_symbol
 _atom_site_label
 _atom_site_symmetry_multiplicity
 _atom_site_fract_x
 _atom_site_fract_y
 _atom_site_fract_z
 _atom_site_occupancy
  Li  Li0  1  0.00477400  0.49920300  0.49096300  1
  Li  Li1  1  0.49455200  0.00096400  0.99675600  1
  Li  Li2  1  0.49521900  0.50078800  0.50904800  1
  Li  Li3  1  0.00544800  0.99902700  0.00325500  1
  Li  Li4  1  0.74655900  0.74857400  0.75087300  1
  Li  Li5  1  0.24718700  0.25109800  0.25043300  1
  Li  Li6  1  0.75339800  0.25143600  0.24911200  1
  Li  Li7  1  0.25282100  0.74889000  0.74956800  1
  Cr  Cr0  1  0.24994200  0.50001100  0.00000200  1
  Cr  Cr1  1  0.75007100  0.99994800  0.50002600  1
  Cr  Cr2  1  0.49687200  0.25092700  0.74916900  1
  Cr  Cr3  1  0.00316000  0.74912000  0.25087500  1
  Cr  Cr4  1  0.99852700  0.25000800  0.75084300  1
  Cr  Cr5  1  0.50150300  0.74994700  0.24916100  1
  Co  Co0  1  0.24999400  0.00001900  0.49999000  1
  Co  Co1  1  0.74995600  0.50001200  0.99999200  1
  O  O0  1  0.36147300  0.25836700  0.98363800  1
  O  O1  1  0.86382100  0.75820900  0.48366400  1
  O  O2  1  0.13851100  0.74167500  0.01635800  1
  O  O3  1  0.63622200  0.24177700  0.51633900  1
  O  O4  1  0.85892100  0.25778700  0.98339400  1
  O  O5  1  0.36835500  0.75393100  0.48386200  1
  O  O6  1  0.64108500  0.74221200  0.01658800  1
  O  O7  1  0.13166700  0.24606900  0.51612100  1
  O  O8  1  0.37954800  0.49073800  0.76111800  1
  O  O9  1  0.89234200  0.99235900  0.26924400  1
  O  O10  1  0.88198300  0.49241900  0.77519700  1
  O  O11  1  0.38971100  0.99055800  0.26301400  1
  O  O12  1  0.12042700  0.50927000  0.23889900  1
  O  O13  1  0.60768700  0.00763500  0.73074500  1
  O  O14  1  0.61795300  0.50758300  0.22477500  1
  O  O15  1  0.11031200  0.00943600  0.73698100  1
loop_
_geom_bond_atom_site_label_1
_geom_bond_atom_site_label_2
_geom_bond_distance
_geom_bond_site_symmetry_2
Li0 O12 2.090841 1_555
Li0 O8 2.124036 1_555
Li0 O7 2.128609 1_555
Li0 O14 2.162121 1_455
Li0 O1 2.171847 1_455
Li0 O10 2.315878 1_455
Li1 O15 2.136869 1_555
Li1 O11 2.137912 1_546
Li1 O0 2.159061 1_555
Li1 O13 2.160924 1_555
Li1 O6 2.172738 1_546
Li1 O9 2.220570 1_546
Li2 O8 2.090911 1_555
Li2 O12 2.124062 1_555
Li2 O5 2.128706 1_555
Li2 O10 2.161820 1_555
Li2 O3 2.171895 1_555
Li2 O14 2.315920 1_555
Li3 O11 2.136932 1_555
Li3 O15 2.138112 1_564
Li3 O2 2.158630 1_555
Li3 O9 2.160661 1_455
Li3 O4 2.172812 1_464
Li3 O13 2.220498 1_464
Li4 O6 2.127719 1_556
Li4 O5 2.134928 1_555
Li4 O10 2.152482 1_555
Li4 O13 2.174990 1_565
Li4 O2 2.183942 1_656
Li4 O1 2.192104 1_555
Li5 O7 2.164838 1_555
Li5 O12 2.165616 1_555
Li5 O3 2.168809 1_555
Li5 O0 2.171905 1_554
Li5 O4 2.172869 1_454
Li5 O11 2.185477 1_545
Li6 O4 2.127908 1_554
Li6 O7 2.135163 1_655
Li6 O14 2.152419 1_555
Li6 O9 2.175124 1_545
Li6 O0 2.183750 1_554
Li6 O3 2.191925 1_555
Li7 O5 2.165036 1_555
Li7 O8 2.165456 1_555
Li7 O1 2.168667 1_455
Li7 O2 2.171847 1_556
Li7 O6 2.172836 1_556
Li7 O15 2.185526 1_565
Cr0 O12 2.024859 1_555
Cr0 O8 2.025135 1_554
Cr0 O0 2.027106 1_554
Cr0 O2 2.027273 1_555
Cr0 O10 2.032465 1_454
Cr0 O14 2.032595 1_555
Cr1 O15 2.025741 1_665
Cr1 O11 2.026123 1_555
Cr1 O1 2.027906 1_555
Cr1 O3 2.028647 1_565
Cr1 O13 2.032125 1_565
Cr1 O9 2.032212 1_555
Cr2 O8 2.010885 1_555
Cr2 O4 2.021818 1_555
Cr2 O0 2.025627 1_555
Cr2 O7 2.028499 1_555
Cr2 O3 2.029233 1_555
Cr2 O13 2.041476 1_555
Cr3 O12 2.011213 1_555
Cr3 O6 2.022162 1_455
Cr3 O2 2.025710 1_555
Cr3 O5 2.028232 1_555
Cr3 O1 2.029045 1_455
Cr3 O9 2.041017 1_455
Cr4 O15 2.017547 1_655
Cr4 O7 2.024410 1_655
Cr4 O0 2.026528 1_655
Cr4 O3 2.026716 1_555
Cr4 O4 2.031207 1_555
Cr4 O10 2.036628 1_555
Cr5 O11 2.017872 1_555
Cr5 O5 2.024222 1_555
Cr5 O2 2.026531 1_555
Cr5 O1 2.026844 1_555
Cr5 O6 2.031324 1_555
Cr5 O14 2.036241 1_555
Co0 O9 1.998138 1_445
Co0 O13 1.998227 1_555
Co0 O11 2.055970 1_545
Co0 O15 2.055994 1_555
Co0 O7 2.064030 1_555
Co0 O5 2.064348 1_545
Co1 O14 1.950559 1_556
Co1 O10 1.950695 1_555
Co1 O6 2.031935 1_556
Co1 O4 2.032139 1_555
Co1 O8 2.072447 1_555
Co1 O12 2.072742 1_656
