# generated using pymatgen
data_Nd4Co3Ge8
_symmetry_space_group_name_H-M   'P 1'
_cell_length_a   4.19941400
_cell_length_b   4.25582700
_cell_length_c   16.60968800
_cell_angle_alpha   90.00000000
_cell_angle_beta   90.00000000
_cell_angle_gamma   90.00000000
_symmetry_Int_Tables_number   1
_chemical_formula_structural   Nd4Co3Ge8
_chemical_formula_sum   'Nd4 Co3 Ge8'
_cell_volume   296.84800319
_cell_formula_units_Z   1
loop_
 _symmetry_equiv_pos_site_id
 _symmetry_equiv_pos_as_xyz
  1  'x, y, z'
loop_
 _atom_site_type_symbol
 _atom_site_label
 _atom_site_symmetry_multiplicity
 _atom_site_fract_x
 _atom_site_fract_y
 _atom_site_fract_z
 _atom_site_occupancy
  Nd  Nd0  1  0.00000000  0.00000000  0.10455400  1
  Nd  Nd1  1  0.00000000  0.50000000  0.60674500  1
  Nd  Nd2  1  0.50000000  0.50000000  0.39045300  1
  Nd  Nd3  1  0.50000000  0.00000000  0.89286200  1
  Co  Co0  1  0.00000000  0.50000000  0.81761300  1
  Co  Co1  1  0.50000000  0.50000000  0.18670600  1
  Co  Co2  1  0.50000000  0.00000000  0.68345600  1
  Ge  Ge0  1  0.00000000  0.50000000  0.25174900  1
  Ge  Ge1  1  0.00000000  0.00000000  0.75025200  1
  Ge  Ge2  1  0.50000000  0.00000000  0.25237100  1
  Ge  Ge3  1  0.50000000  0.50000000  0.74965500  1
  Ge  Ge4  1  0.00000000  0.00000000  0.45120500  1
  Ge  Ge5  1  0.00000000  0.50000000  0.95512600  1
  Ge  Ge6  1  0.50000000  0.50000000  0.04666400  1
  Ge  Ge7  1  0.50000000  0.00000000  0.54508800  1
loop_
_geom_bond_atom_site_label_1
_geom_bond_atom_site_label_2
_geom_bond_distance
_geom_bond_site_symmetry_2
Co0 Ge5 2.284048 1_555
Co0 Ge3 2.383877 1_455
Co0 Ge3 2.383877 1_555
Co0 Ge1 2.404128 1_565
Co0 Ge1 2.404128 1_555
Co0 Nd3 3.240207 1_455
Co0 Nd3 3.240207 1_565
Co0 Nd3 3.240207 1_555
Co0 Nd3 3.240207 1_465
Co1 Ge6 2.326054 1_555
Co1 Ge0 2.361337 1_555
Co1 Ge0 2.361337 1_655
Co1 Ge2 2.391148 1_555
Co1 Ge2 2.391148 1_565
Co1 Nd0 3.286137 1_665
Co1 Nd0 3.286137 1_555
Co1 Nd0 3.286137 1_565
Co1 Nd0 3.286137 1_655
Co2 Ge7 2.298249 1_555
Co2 Ge1 2.374799 1_655
Co2 Ge1 2.374799 1_555
Co2 Ge3 2.395207 1_545
Co2 Ge3 2.395207 1_555
Co2 Nd1 3.249651 1_645
Co2 Nd1 3.249651 1_555
Co2 Nd1 3.249651 1_545
Co2 Nd1 3.249651 1_655
Ge0 Nd2 3.117115 1_455
Ge0 Nd2 3.117115 1_555
Ge0 Nd0 3.241199 1_565
Ge0 Nd0 3.241199 1_555
Ge1 Nd3 3.165367 1_455
Ge1 Nd3 3.165367 1_555
Ge1 Nd1 3.195246 1_555
Ge1 Nd1 3.195246 1_545
Ge2 Nd2 3.128602 1_545
Ge2 Nd2 3.128602 1_555
Ge2 Nd0 3.230596 1_555
Ge2 Nd0 3.230596 1_655
Ge3 Nd1 3.169097 1_655
Ge3 Nd1 3.169097 1_555
Ge3 Nd3 3.191530 1_555
Ge3 Nd3 3.191530 1_565
Ge4 Ge7 2.615415 1_455
Ge4 Ge7 2.615415 1_555
Ge4 Nd2 3.155156 1_545
Ge4 Nd2 3.155156 1_445
Ge4 Nd2 3.155156 1_455
Ge4 Nd2 3.155156 1_555
Ge4 Nd1 3.346989 1_555
Ge4 Nd1 3.346989 1_545
Ge5 Ge6 2.592381 1_556
Ge5 Ge6 2.592381 1_456
Ge5 Nd3 3.163278 1_555
Ge5 Nd3 3.163278 1_565
Ge5 Nd3 3.163278 1_455
Ge5 Nd3 3.163278 1_465
Ge5 Nd0 3.269267 1_566
Ge5 Nd0 3.269267 1_556
Ge6 Nd0 3.140276 1_565
Ge6 Nd0 3.140276 1_655
Ge6 Nd0 3.140276 1_665
Ge6 Nd0 3.140276 1_555
Ge6 Nd3 3.324758 1_564
Ge6 Nd3 3.324758 1_554
Ge7 Nd1 3.159996 1_655
Ge7 Nd1 3.159996 1_645
Ge7 Nd1 3.159996 1_555
Ge7 Nd1 3.159996 1_545
Ge7 Nd2 3.335400 1_555
Ge7 Nd2 3.335400 1_545
