# generated using pymatgen
data_CeMnCrSi2
_symmetry_space_group_name_H-M   'P 1'
_cell_length_a   5.87580522
_cell_length_b   5.87580522
_cell_length_c   5.87580522
_cell_angle_alpha   140.02641330
_cell_angle_beta   140.02641330
_cell_angle_gamma   57.81319599
_symmetry_Int_Tables_number   1
_chemical_formula_structural   CeMnCrSi2
_chemical_formula_sum   'Ce1 Mn1 Cr1 Si2'
_cell_volume   82.99008465
_cell_formula_units_Z   1
loop_
 _symmetry_equiv_pos_site_id
 _symmetry_equiv_pos_as_xyz
  1  'x, y, z'
loop_
 _atom_site_type_symbol
 _atom_site_label
 _atom_site_symmetry_multiplicity
 _atom_site_fract_x
 _atom_site_fract_y
 _atom_site_fract_z
 _atom_site_occupancy
  Ce  Ce0  1  0.00000000  0.00000000  0.00000000  1
  Mn  Mn0  1  0.75000000  0.25000000  0.50000000  1
  Cr  Cr0  1  0.25000000  0.75000000  0.50000000  1
  Si  Si0  1  0.62251200  0.62251200  0.00000000  1
  Si  Si1  1  0.37748800  0.37748800  0.00000000  1
loop_
_geom_bond_atom_site_label_1
_geom_bond_atom_site_label_2
_geom_bond_distance
_geom_bond_site_symmetry_2
Ce0 Si0 3.107340 1_556
Ce0 Si1 3.107340 1_444
Ce0 Si1 3.107340 1_455
Ce0 Si0 3.107340 1_444
Ce0 Si0 3.107340 1_455
Ce0 Si0 3.107340 1_545
Ce0 Si1 3.107340 1_545
Ce0 Si1 3.107340 1_556
Ce0 Mn0 3.263135 1_555
Ce0 Cr0 3.263135 1_444
Ce0 Mn0 3.263135 1_455
Ce0 Mn0 3.263135 1_454
Ce0 Mn0 3.263135 1_444
Ce0 Cr0 3.263135 1_555
Ce0 Cr0 3.263135 1_544
Ce0 Cr0 3.263135 1_545
Mn0 Si1 2.398679 1_555
Mn0 Si0 2.398679 1_545
Mn0 Si0 2.398679 1_556
Mn0 Si1 2.398679 1_656
Cr0 Si1 2.398679 1_555
Cr0 Si0 2.398679 1_455
Cr0 Si0 2.398679 1_556
Cr0 Si1 2.398679 1_566
Si0 Si1 2.520676 1_555
