# generated using pymatgen
data_Li5Mn3O8
_symmetry_space_group_name_H-M   'P 1'
_cell_length_a   6.45532809
_cell_length_b   6.45532809
_cell_length_c   9.86194097
_cell_angle_alpha   52.90550492
_cell_angle_beta   52.90550492
_cell_angle_gamma   26.38275557
_symmetry_Int_Tables_number   1
_chemical_formula_structural   Li5Mn3O8
_chemical_formula_sum   'Li5 Mn3 O8'
_cell_volume   143.35641890
_cell_formula_units_Z   1
loop_
 _symmetry_equiv_pos_site_id
 _symmetry_equiv_pos_as_xyz
  1  'x, y, z'
loop_
 _atom_site_type_symbol
 _atom_site_label
 _atom_site_symmetry_multiplicity
 _atom_site_fract_x
 _atom_site_fract_y
 _atom_site_fract_z
 _atom_site_occupancy
  Li  Li0  1  0.11791300  0.11791300  0.14346500  1
  Li  Li1  1  0.88208700  0.88208700  0.85653500  1
  Li  Li2  1  0.61471200  0.61471200  0.62857700  1
  Li  Li3  1  0.38528800  0.38528800  0.37142300  1
  Li  Li4  1  0.00000000  0.00000000  0.50000000  1
  Mn  Mn0  1  0.25708800  0.25708800  0.74057600  1
  Mn  Mn1  1  0.74291200  0.74291200  0.25942400  1
  Mn  Mn2  1  0.50000000  0.50000000  0.00000000  1
  O  O0  1  0.06651100  0.06651100  0.81420000  1
  O  O1  1  0.80318600  0.80318600  0.58588100  1
  O  O2  1  0.57939300  0.57939300  0.30180800  1
  O  O3  1  0.31275800  0.31275800  0.08344200  1
  O  O4  1  0.19681400  0.19681400  0.41411900  1
  O  O5  1  0.93348900  0.93348900  0.18580000  1
  O  O6  1  0.68724200  0.68724200  0.91655800  1
  O  O7  1  0.42060700  0.42060700  0.69819200  1
loop_
_geom_bond_atom_site_label_1
_geom_bond_atom_site_label_2
_geom_bond_distance
_geom_bond_site_symmetry_2
Li0 O2 1.976433 1_545
Li0 O2 1.976433 1_455
Li0 O5 2.085487 1_445
Li0 O3 2.133718 1_555
Li0 O6 2.349674 1_454
Li0 O6 2.349674 1_544
Li1 O7 1.976433 1_565
Li1 O7 1.976433 1_655
Li1 O0 2.085487 1_665
Li1 O6 2.133718 1_555
Li1 O3 2.349674 1_566
Li1 O3 2.349674 1_656
Li2 O7 2.085445 1_555
Li2 O0 2.124655 1_655
Li2 O0 2.124655 1_565
Li2 O1 2.134030 1_555
Li2 O4 2.236971 1_655
Li2 O4 2.236971 1_565
Li3 O2 2.085445 1_555
Li3 O5 2.124655 1_455
Li3 O5 2.124655 1_545
Li3 O4 2.134030 1_555
Li3 O1 2.236971 1_455
Li3 O1 2.236971 1_545
Li4 O4 2.059551 1_555
Li4 O1 2.059551 1_445
Li4 O2 2.137679 1_455
Li4 O2 2.137679 1_545
Li4 O7 2.137679 1_455
Li4 O7 2.137679 1_545
Mn0 O7 1.826217 1_555
Mn0 O1 1.933411 1_545
Mn0 O1 1.933411 1_455
Mn0 O6 2.016224 1_545
Mn0 O6 2.016224 1_455
Mn0 O0 2.027528 1_555
Mn1 O2 1.826217 1_555
Mn1 O4 1.933411 1_655
Mn1 O4 1.933411 1_565
Mn1 O3 2.016224 1_655
Mn1 O3 2.016224 1_565
Mn1 O5 2.027528 1_555
Mn2 O3 1.953747 1_555
Mn2 O6 1.953747 1_554
Mn2 O5 2.080532 1_545
Mn2 O0 2.080532 1_654
Mn2 O0 2.080532 1_564
Mn2 O5 2.080532 1_455
