# generated using pymatgen
data_Ge3Mo5N9
_symmetry_space_group_name_H-M   'P 1'
_cell_length_a   7.40606613
_cell_length_b   11.41458976
_cell_length_c   14.86833900
_cell_angle_alpha   90.00000000
_cell_angle_beta   90.00000000
_cell_angle_gamma   140.40998715
_symmetry_Int_Tables_number   1
_chemical_formula_structural   Ge3Mo5N9
_chemical_formula_sum   'Ge12 Mo20 N36'
_cell_volume   801.02713555
_cell_formula_units_Z   4
loop_
 _symmetry_equiv_pos_site_id
 _symmetry_equiv_pos_as_xyz
  1  'x, y, z'
loop_
 _atom_site_type_symbol
 _atom_site_label
 _atom_site_symmetry_multiplicity
 _atom_site_fract_x
 _atom_site_fract_y
 _atom_site_fract_z
 _atom_site_occupancy
  Ge  Ge0  1  0.00000000  0.76116800  0.03823800  1
  Ge  Ge1  1  0.00000000  0.23883200  0.96176200  1
  Ge  Ge2  1  0.00000000  0.73883200  0.53823800  1
  Ge  Ge3  1  0.00000000  0.26116800  0.46176200  1
  Ge  Ge4  1  0.00000000  0.27445000  0.73171300  1
  Ge  Ge5  1  0.00000000  0.72555000  0.26828700  1
  Ge  Ge6  1  0.00000000  0.22555000  0.23171300  1
  Ge  Ge7  1  0.00000000  0.77445000  0.76828700  1
  Ge  Ge8  1  0.50000000  0.81222600  0.75000000  1
  Ge  Ge9  1  0.50000000  0.68777400  0.25000000  1
  Ge  Ge10  1  0.50000000  0.18777500  0.25000000  1
  Ge  Ge11  1  0.50000000  0.31222500  0.75000000  1
  Mo  Mo0  1  0.00000000  0.52268600  0.86124600  1
  Mo  Mo1  1  0.00000000  0.47731400  0.13875400  1
  Mo  Mo2  1  0.00000000  0.97731400  0.36124600  1
  Mo  Mo3  1  0.00000000  0.02268600  0.63875400  1
  Mo  Mo4  1  0.42850200  0.02206400  0.89160300  1
  Mo  Mo5  1  0.42850200  0.40643800  0.10839700  1
  Mo  Mo6  1  0.42850200  0.90643800  0.39160300  1
  Mo  Mo7  1  0.42850200  0.52206400  0.60839700  1
  Mo  Mo8  1  0.57149800  0.97793600  0.10839700  1
  Mo  Mo9  1  0.57149800  0.59356200  0.89160300  1
  Mo  Mo10  1  0.57149800  0.09356200  0.60839700  1
  Mo  Mo11  1  0.57149800  0.47793600  0.39160300  1
  Mo  Mo12  1  0.00000000  0.43573000  0.60974300  1
  Mo  Mo13  1  0.00000000  0.56427000  0.39025700  1
  Mo  Mo14  1  0.00000000  0.06427000  0.10974300  1
  Mo  Mo15  1  0.00000000  0.93573000  0.89025700  1
  Mo  Mo16  1  0.60383300  0.30191600  0.00000000  1
  Mo  Mo17  1  0.60383300  0.80191600  0.50000000  1
  Mo  Mo18  1  0.39616700  0.69808400  0.00000000  1
  Mo  Mo19  1  0.39616700  0.19808400  0.50000000  1
  N  N0  1  0.00000000  0.52070400  0.71706300  1
  N  N1  1  0.00000000  0.47929600  0.28293700  1
  N  N2  1  0.00000000  0.97929600  0.21706300  1
  N  N3  1  0.00000000  0.02070400  0.78293700  1
  N  N4  1  0.00000000  0.31585800  0.85111000  1
  N  N5  1  0.00000000  0.68414200  0.14889000  1
  N  N6  1  0.00000000  0.18414200  0.35111000  1
  N  N7  1  0.00000000  0.81585800  0.64889000  1
  N  N8  1  0.00000000  0.60694000  0.98154400  1
  N  N9  1  0.00000000  0.39306000  0.01845600  1
  N  N10  1  0.00000000  0.89306000  0.48154400  1
  N  N11  1  0.00000000  0.10694000  0.51845600  1
  N  N12  1  0.71701000  0.53162000  0.81562800  1
  N  N13  1  0.71701000  0.18539000  0.18437200  1
  N  N14  1  0.71701000  0.68539000  0.31562800  1
  N  N15  1  0.71701000  0.03162000  0.68437200  1
  N  N16  1  0.28299000  0.46838000  0.18437200  1
  N  N17  1  0.28299000  0.81461000  0.81562800  1
  N  N18  1  0.28299000  0.31461000  0.68437200  1
  N  N19  1  0.28299000  0.96838000  0.31562800  1
  N  N20  1  0.58336400  0.25420000  0.85369800  1
  N  N21  1  0.58336400  0.32916500  0.14630200  1
  N  N22  1  0.58336400  0.82916500  0.35369800  1
  N  N23  1  0.58336400  0.75420000  0.64630200  1
  N  N24  1  0.41663600  0.74580000  0.14630200  1
  N  N25  1  0.41663600  0.67083500  0.85369800  1
  N  N26  1  0.41663600  0.17083500  0.64630200  1
  N  N27  1  0.41663600  0.24580000  0.35369800  1
  N  N28  1  0.35931700  0.02003500  0.02672100  1
  N  N29  1  0.35931700  0.33928100  0.97327900  1
  N  N30  1  0.35931700  0.83928100  0.52672100  1
  N  N31  1  0.35931700  0.52003500  0.47327900  1
  N  N32  1  0.64068300  0.97996500  0.97327900  1
  N  N33  1  0.64068300  0.66071900  0.02672100  1
  N  N34  1  0.64068300  0.16071900  0.47327900  1
  N  N35  1  0.64068300  0.47996500  0.52672100  1
loop_
_geom_bond_atom_site_label_1
_geom_bond_atom_site_label_2
_geom_bond_distance
_geom_bond_site_symmetry_2
Ge0 N5 1.865408 1_555
Ge0 N28 1.929477 1_565
Ge0 N33 1.929482 1_455
Ge0 N8 1.951855 1_554
Ge1 N4 1.865408 1_555
Ge1 N32 1.929477 1_445
Ge1 N29 1.929482 1_555
Ge1 N9 1.951855 1_556
Ge2 N7 1.865408 1_555
Ge2 N35 1.929477 1_455
Ge2 N30 1.929482 1_555
Ge2 N10 1.951855 1_555
Ge3 N6 1.865408 1_555
Ge3 N31 1.929477 1_555
Ge3 N34 1.929482 1_455
Ge3 N11 1.951855 1_555
Ge4 N4 1.837080 1_555
Ge4 N18 1.901942 1_555
Ge4 N15 1.901942 1_455
Ge5 N5 1.837080 1_555
Ge5 N14 1.901942 1_455
Ge5 N19 1.901942 1_555
Ge6 N6 1.837080 1_555
Ge6 N13 1.901942 1_455
Ge6 N16 1.901942 1_555
Ge7 N7 1.837080 1_555
Ge7 N17 1.901942 1_555
Ge7 N12 1.901942 1_455
Ge8 N17 1.898250 1_555
Ge8 N15 1.898250 1_565
Ge8 N23 1.956360 1_555
Ge8 N25 1.956366 1_555
Ge8 N3 2.456341 1_665
Ge8 N0 2.456341 1_555
Ge9 N14 1.898250 1_555
Ge9 N16 1.898250 1_555
Ge9 N24 1.956360 1_555
Ge9 N22 1.956366 1_555
Ge9 N1 2.456341 1_555
Ge9 N2 2.456341 1_655
Ge10 N13 1.898258 1_555
Ge10 N19 1.898258 1_545
Ge10 N27 1.956353 1_555
Ge10 N21 1.956360 1_555
Ge10 N2 2.456338 1_545
Ge10 N1 2.456338 1_655
Ge11 N18 1.898258 1_555
Ge11 N12 1.898258 1_555
Ge11 N20 1.956353 1_555
Ge11 N26 1.956360 1_555
Ge11 N0 2.456338 1_655
Ge11 N3 2.456338 1_555
Mo0 N8 2.030792 1_555
Mo0 N20 2.085947 1_455
Mo0 N25 2.085951 1_555
Mo0 N0 2.143881 1_555
Mo0 N12 2.278686 1_455
Mo0 N17 2.278686 1_555
Mo0 N4 2.365662 1_555
Mo1 N9 2.030792 1_555
Mo1 N24 2.085947 1_555
Mo1 N21 2.085951 1_455
Mo1 N1 2.143881 1_555
Mo1 N16 2.278686 1_555
Mo1 N13 2.278686 1_455
Mo1 N5 2.365662 1_555
Mo2 N10 2.030792 1_555
Mo2 N27 2.085947 1_565
Mo2 N22 2.085951 1_455
Mo2 N2 2.143881 1_555
Mo2 N19 2.278686 1_555
Mo2 N14 2.278686 1_455
Mo2 N6 2.365662 1_565
Mo3 N11 2.030792 1_555
Mo3 N23 2.085947 1_445
Mo3 N26 2.085951 1_555
Mo3 N3 2.143881 1_555
Mo3 N15 2.278686 1_455
Mo3 N18 2.278686 1_555
Mo3 N7 2.365662 1_545
Mo4 N20 1.992549 1_555
Mo4 N17 2.027733 1_545
Mo4 N28 2.069007 1_556
Mo4 N32 2.310604 1_545
Mo5 N21 1.992539 1_555
Mo5 N16 2.027733 1_555
Mo5 N29 2.069009 1_554
Mo5 N33 2.310613 1_555
Mo6 N22 1.992539 1_555
Mo6 N19 2.027733 1_555
Mo6 N30 2.069009 1_555
Mo6 N34 2.310613 1_565
Mo7 N23 1.992549 1_555
Mo7 N18 2.027733 1_555
Mo7 N31 2.069007 1_555
Mo7 N35 2.310604 1_555
Mo8 N24 1.992549 1_555
Mo8 N13 2.027733 1_565
Mo8 N32 2.069007 1_554
Mo8 N28 2.310604 1_565
Mo9 N25 1.992539 1_555
Mo9 N12 2.027733 1_555
Mo9 N33 2.069009 1_556
Mo9 N29 2.310613 1_555
Mo10 N26 1.992539 1_555
Mo10 N15 2.027733 1_555
Mo10 N34 2.069009 1_555
Mo10 N30 2.310613 1_545
Mo11 N27 1.992549 1_555
Mo11 N14 2.027733 1_555
Mo11 N35 2.069007 1_555
Mo11 N31 2.310604 1_555
Mo12 N0 1.867339 1_555
Mo13 N1 1.867339 1_555
Mo14 N2 1.867339 1_545
Mo15 N3 1.867339 1_565
Mo16 N29 2.193061 1_554
Mo16 N28 2.193061 1_555
Mo16 N20 2.219046 1_554
Mo16 N21 2.219051 1_555
Mo16 N9 2.249803 1_655
Mo16 N8 2.249809 1_654
Mo17 N30 2.193061 1_555
Mo17 N31 2.193061 1_555
Mo17 N23 2.219046 1_555
Mo17 N22 2.219051 1_555
Mo17 N10 2.249803 1_655
Mo17 N11 2.249809 1_665
Mo18 N33 2.193061 1_555
Mo18 N32 2.193061 1_554
Mo18 N24 2.219046 1_555
Mo18 N25 2.219051 1_554
Mo18 N8 2.249803 1_554
Mo18 N9 2.249809 1_555
Mo19 N34 2.193061 1_555
Mo19 N35 2.193061 1_555
Mo19 N27 2.219046 1_555
Mo19 N26 2.219051 1_555
Mo19 N11 2.249803 1_555
Mo19 N10 2.249809 1_545
