# generated using pymatgen
data_SrCa5Mn4(GaO8)2
_symmetry_space_group_name_H-M   'P 1'
_cell_length_a   11.12895000
_cell_length_b   5.45406800
_cell_length_c   5.63247124
_cell_angle_alpha   89.94893452
_cell_angle_beta   90.00000000
_cell_angle_gamma   90.00000000
_symmetry_Int_Tables_number   1
_chemical_formula_structural   SrCa5Mn4(GaO8)2
_chemical_formula_sum   'Sr1 Ca5 Mn4 Ga2 O16'
_cell_volume   341.87988537
_cell_formula_units_Z   1
loop_
 _symmetry_equiv_pos_site_id
 _symmetry_equiv_pos_as_xyz
  1  'x, y, z'
loop_
 _atom_site_type_symbol
 _atom_site_label
 _atom_site_symmetry_multiplicity
 _atom_site_fract_x
 _atom_site_fract_y
 _atom_site_fract_z
 _atom_site_occupancy
  Sr  Sr0  1  0.50000000  0.49284600  0.75412900  1
  Ca  Ca0  1  0.80868100  0.97548900  0.22082600  1
  Ca  Ca1  1  0.19131900  0.97548900  0.22082600  1
  Ca  Ca2  1  0.18942600  0.47338000  0.78088600  1
  Ca  Ca3  1  0.81057400  0.47338000  0.78088600  1
  Ca  Ca4  1  0.50000000  0.00248200  0.23680500  1
  Mn  Mn0  1  0.67195900  0.48873300  0.25681500  1
  Mn  Mn1  1  0.32804100  0.48873300  0.25681500  1
  Mn  Mn2  1  0.32815700  0.98774900  0.74274500  1
  Mn  Mn3  1  0.67184300  0.98774900  0.74274500  1
  Ga  Ga0  1  0.00000000  0.42840100  0.32513800  1
  Ga  Ga1  1  0.00000000  0.92788600  0.67397300  1
  O  O0  1  0.00000000  0.07874700  0.36967200  1
  O  O1  1  0.00000000  0.57807000  0.62997800  1
  O  O2  1  0.65577600  0.23757400  0.00097500  1
  O  O3  1  0.34422400  0.23757400  0.00097500  1
  O  O4  1  0.34714800  0.74706300  0.00843300  1
  O  O5  1  0.65285200  0.74706300  0.00843300  1
  O  O6  1  0.85700400  0.51011800  0.17861800  1
  O  O7  1  0.14299600  0.51011800  0.17861800  1
  O  O8  1  0.14306500  0.00824100  0.82132300  1
  O  O9  1  0.85693500  0.00824100  0.82132300  1
  O  O10  1  0.50000000  0.47763300  0.31129100  1
  O  O11  1  0.50000000  0.98975200  0.66781000  1
  O  O12  1  0.70177900  0.23415900  0.49495300  1
  O  O13  1  0.29822100  0.23415900  0.49495300  1
  O  O14  1  0.29875700  0.73128500  0.51002700  1
  O  O15  1  0.70124300  0.73128500  0.51002700  1
loop_
_geom_bond_atom_site_label_1
_geom_bond_atom_site_label_2
_geom_bond_distance
_geom_bond_site_symmetry_2
Ca0 O9 2.320114 1_564
Ca0 O0 2.356752 1_665
Ca0 O12 2.406996 1_565
Ca0 O15 2.419319 1_555
Ca0 O5 2.448147 1_555
Ca0 O2 2.543462 1_565
Ca0 O6 2.605588 1_555
Ca0 O6 2.974388 1_565
Ca1 O8 2.320114 1_564
Ca1 O0 2.356752 1_565
Ca1 O13 2.406996 1_565
Ca1 O14 2.419319 1_555
Ca1 O4 2.448147 1_555
Ca1 O3 2.543462 1_565
Ca1 O7 2.605588 1_555
Ca1 O7 2.974388 1_565
Ca2 O7 2.307922 1_556
Ca2 O1 2.343453 1_555
Ca2 O13 2.401203 1_555
Ca2 O14 2.404727 1_555
Ca2 O3 2.481082 1_556
Ca2 O8 2.598636 1_555
Ca2 O4 2.637264 1_556
Ca2 O8 2.971386 1_565
Ca3 O6 2.307922 1_556
Ca3 O1 2.343453 1_655
Ca3 O12 2.401203 1_555
Ca3 O15 2.404727 1_555
Ca3 O2 2.481082 1_556
Ca3 O9 2.598636 1_555
Ca3 O5 2.637264 1_556
Ca3 O9 2.971386 1_565
Ca4 O11 2.428554 1_545
Ca4 O2 2.531969 1_555
Ca4 O3 2.531969 1_555
Ca4 O4 2.547958 1_545
Ca4 O5 2.547958 1_545
Ca4 O10 2.625615 1_555
Mn0 O10 1.939102 1_555
Mn0 O12 1.957996 1_555
Mn0 O15 1.973246 1_555
Mn0 O5 1.996010 1_555
Mn0 O2 1.997229 1_555
Mn0 O6 2.109135 1_555
Mn1 O10 1.939102 1_555
Mn1 O13 1.957996 1_555
Mn1 O14 1.973246 1_555
Mn1 O4 1.996010 1_555
Mn1 O3 1.997229 1_555
Mn1 O7 2.109135 1_555
Mn2 O14 1.945514 1_555
Mn2 O11 1.958482 1_555
Mn2 O13 1.965132 1_565
Mn2 O4 2.000962 1_556
Mn2 O3 2.001893 1_566
Mn2 O8 2.109874 1_565
Mn3 O15 1.945514 1_555
Mn3 O11 1.958482 1_555
Mn3 O12 1.965132 1_565
Mn3 O5 2.000962 1_556
Mn3 O2 2.001893 1_566
Mn3 O9 2.109874 1_565
Ga0 O7 1.847050 1_555
Ga0 O6 1.847050 1_455
Ga0 O1 1.901828 1_555
Ga0 O0 1.923241 1_555
Ga1 O8 1.848381 1_565
Ga1 O9 1.848381 1_465
Ga1 O0 1.900573 1_565
Ga1 O1 1.924164 1_555
O2 Sr0 2.621736 1_554
O3 Sr0 2.621736 1_554
O4 Sr0 2.621317 1_554
O5 Sr0 2.621317 1_554
O10 Sr0 2.495726 1_555
O10 Sr0 3.139222 1_554
O11 Sr0 2.752997 1_555
O11 Sr0 2.787076 1_565
O12 Sr0 3.027868 1_555
O13 Sr0 3.027868 1_555
O14 Sr0 2.931599 1_555
O15 Sr0 2.931599 1_555
