# generated using pymatgen
data_TiPd2
_symmetry_space_group_name_H-M   'P 1'
_cell_length_a   6.18492652
_cell_length_b   6.82982304
_cell_length_c   9.80137038
_cell_angle_alpha   110.39018821
_cell_angle_beta   108.39182037
_cell_angle_gamma   90.00000000
_symmetry_Int_Tables_number   1
_chemical_formula_structural   TiPd2
_chemical_formula_sum   'Ti8 Pd16'
_cell_volume   365.44027931
_cell_formula_units_Z   8
loop_
 _symmetry_equiv_pos_site_id
 _symmetry_equiv_pos_as_xyz
  1  'x, y, z'
loop_
 _atom_site_type_symbol
 _atom_site_label
 _atom_site_symmetry_multiplicity
 _atom_site_fract_x
 _atom_site_fract_y
 _atom_site_fract_z
 _atom_site_occupancy
  Ti  Ti0_0  1  0.00000000  0.00000000  0.00000000  1
  Ti  Ti0_1  1  0.00000000  0.00000000  0.50000000  1
  Ti  Ti0_2  1  0.00000000  0.50000000  0.00000000  1
  Ti  Ti0_3  1  0.00000000  0.50000000  0.50000000  1
  Ti  Ti0_4  1  0.50000000  0.00000000  0.00000000  1
  Ti  Ti0_5  1  0.50000000  0.00000000  0.50000000  1
  Ti  Ti0_6  1  0.50000000  0.50000000  0.00000000  1
  Ti  Ti0_7  1  0.50000000  0.50000000  0.50000000  1
  Pd  Pd0_0  1  0.17117144  0.17117144  0.34234387  1
  Pd  Pd0_1  1  0.17117144  0.17117144  0.84234387  1
  Pd  Pd0_2  1  0.17117144  0.67117144  0.34234387  1
  Pd  Pd0_3  1  0.17117144  0.67117143  0.84234387  1
  Pd  Pd0_4  1  0.67117143  0.17117144  0.34234387  1
  Pd  Pd0_5  1  0.67117143  0.17117144  0.84234387  1
  Pd  Pd0_6  1  0.67117143  0.67117144  0.34234387  1
  Pd  Pd0_7  1  0.67117144  0.67117144  0.84234387  1
  Pd  Pd1_0  1  0.32882856  0.32882857  0.15765613  1
  Pd  Pd1_1  1  0.32882857  0.32882857  0.65765613  1
  Pd  Pd1_2  1  0.32882856  0.82882857  0.15765613  1
  Pd  Pd1_3  1  0.32882857  0.82882857  0.65765613  1
  Pd  Pd1_4  1  0.82882857  0.32882857  0.15765613  1
  Pd  Pd1_5  1  0.82882857  0.32882857  0.65765613  1
  Pd  Pd1_6  1  0.82882857  0.82882857  0.15765613  1
  Pd  Pd1_7  1  0.82882857  0.82882857  0.65765613  1
loop_
_geom_bond_atom_site_label_1
_geom_bond_atom_site_label_2
_geom_bond_distance
_geom_bond_site_symmetry_2
Pd0_0 Ti0_1 2.677022 1_555
Pd0_0 Ti0_5 2.677025 1_555
Pd0_0 Ti0_3 2.677026 1_555
Pd0_0 Ti0_7 2.677030 1_555
Pd0_0 Pd1_1 2.727805 1_555
Pd0_0 Pd1_6 2.803394 1_445
Pd0_0 Pd1_2 2.803401 1_545
Pd0_0 Pd1_4 2.803402 1_455
Pd0_0 Pd1_0 2.803410 1_555
Pd0_0 Ti0_0 2.961658 1_555
Pd0_0 Pd0_4 3.092463 1_555
Pd0_0 Pd0_4 3.092463 1_455
Pd0_1 Ti0_0 2.677022 1_556
Pd0_1 Ti0_4 2.677025 1_556
Pd0_1 Ti0_2 2.677026 1_556
Pd0_1 Ti0_6 2.677030 1_556
Pd0_1 Pd1_0 2.727805 1_556
Pd0_1 Pd1_7 2.803394 1_445
Pd0_1 Pd1_3 2.803401 1_545
Pd0_1 Pd1_5 2.803402 1_455
Pd0_1 Pd1_1 2.803410 1_555
Pd0_1 Ti0_1 2.961658 1_555
Pd0_1 Pd0_5 3.092463 1_555
Pd0_1 Pd0_5 3.092463 1_455
Pd0_2 Ti0_3 2.677022 1_555
Pd0_2 Ti0_7 2.677025 1_555
Pd0_2 Ti0_1 2.677026 1_565
Pd0_2 Ti0_5 2.677030 1_565
Pd0_2 Pd1_3 2.727805 1_555
Pd0_2 Pd1_4 2.803394 1_455
Pd0_2 Pd1_0 2.803401 1_555
Pd0_2 Pd1_6 2.803402 1_455
Pd0_2 Pd1_2 2.803410 1_555
Pd0_2 Ti0_2 2.961658 1_555
Pd0_2 Pd0_6 3.092463 1_555
Pd0_2 Pd0_6 3.092463 1_455
Pd0_3 Ti0_2 2.677022 1_556
Pd0_3 Ti0_6 2.677025 1_556
Pd0_3 Ti0_0 2.677026 1_566
Pd0_3 Ti0_4 2.677030 1_566
Pd0_3 Pd1_2 2.727805 1_556
Pd0_3 Pd1_5 2.803394 1_455
Pd0_3 Pd1_1 2.803401 1_555
Pd0_3 Pd1_7 2.803402 1_455
Pd0_3 Pd1_3 2.803410 1_555
Pd0_3 Ti0_3 2.961658 1_555
Pd0_3 Pd0_7 3.092463 1_555
Pd0_3 Pd0_7 3.092463 1_455
Pd0_4 Ti0_5 2.677022 1_555
Pd0_4 Ti0_1 2.677025 1_655
Pd0_4 Ti0_7 2.677026 1_555
Pd0_4 Ti0_3 2.677030 1_655
Pd0_4 Pd1_5 2.727805 1_555
Pd0_4 Pd1_2 2.803394 1_545
Pd0_4 Pd1_6 2.803401 1_545
Pd0_4 Pd1_0 2.803402 1_555
Pd0_4 Pd1_4 2.803410 1_555
Pd0_4 Ti0_4 2.961658 1_555
Pd0_5 Ti0_4 2.677022 1_556
Pd0_5 Ti0_0 2.677025 1_656
Pd0_5 Ti0_6 2.677026 1_556
Pd0_5 Ti0_2 2.677030 1_656
Pd0_5 Pd1_4 2.727805 1_556
Pd0_5 Pd1_3 2.803394 1_545
Pd0_5 Pd1_7 2.803401 1_545
Pd0_5 Pd1_1 2.803402 1_555
Pd0_5 Pd1_5 2.803410 1_555
Pd0_5 Ti0_5 2.961658 1_555
Pd0_6 Ti0_7 2.677022 1_555
Pd0_6 Ti0_3 2.677025 1_655
Pd0_6 Ti0_5 2.677026 1_565
Pd0_6 Ti0_1 2.677030 1_665
Pd0_6 Pd1_7 2.727805 1_555
Pd0_6 Pd1_0 2.803394 1_555
Pd0_6 Pd1_4 2.803401 1_555
Pd0_6 Pd1_2 2.803402 1_555
Pd0_6 Pd1_6 2.803410 1_555
Pd0_6 Ti0_6 2.961658 1_555
Pd0_7 Ti0_6 2.677022 1_556
Pd0_7 Ti0_2 2.677025 1_656
Pd0_7 Ti0_4 2.677026 1_566
Pd0_7 Ti0_0 2.677030 1_666
Pd0_7 Pd1_6 2.727805 1_556
Pd0_7 Pd1_1 2.803394 1_555
Pd0_7 Pd1_5 2.803401 1_555
Pd0_7 Pd1_3 2.803402 1_555
Pd0_7 Pd1_7 2.803410 1_555
Pd0_7 Ti0_7 2.961658 1_555
Pd1_0 Ti0_6 2.677022 1_555
Pd1_0 Ti0_2 2.677025 1_555
Pd1_0 Ti0_4 2.677026 1_555
Pd1_0 Ti0_0 2.677030 1_555
Pd1_0 Ti0_7 2.961658 1_555
Pd1_0 Pd1_4 3.092463 1_455
Pd1_0 Pd1_4 3.092463 1_555
Pd1_1 Ti0_7 2.677022 1_555
Pd1_1 Ti0_3 2.677025 1_555
Pd1_1 Ti0_5 2.677026 1_555
Pd1_1 Ti0_1 2.677030 1_555
Pd1_1 Ti0_6 2.961658 1_556
Pd1_1 Pd1_5 3.092463 1_555
Pd1_1 Pd1_5 3.092463 1_455
Pd1_2 Ti0_4 2.677022 1_565
Pd1_2 Ti0_0 2.677025 1_565
Pd1_2 Ti0_6 2.677026 1_555
Pd1_2 Ti0_2 2.677030 1_555
Pd1_2 Ti0_5 2.961658 1_565
Pd1_2 Pd1_6 3.092463 1_455
Pd1_2 Pd1_6 3.092463 1_555
Pd1_3 Ti0_5 2.677022 1_565
Pd1_3 Ti0_1 2.677025 1_565
Pd1_3 Ti0_7 2.677026 1_555
Pd1_3 Ti0_3 2.677030 1_555
Pd1_3 Ti0_4 2.961658 1_566
Pd1_3 Pd1_7 3.092463 1_455
Pd1_3 Pd1_7 3.092463 1_555
Pd1_4 Ti0_2 2.677022 1_655
Pd1_4 Ti0_6 2.677025 1_555
Pd1_4 Ti0_0 2.677026 1_655
Pd1_4 Ti0_4 2.677030 1_555
Pd1_4 Ti0_3 2.961658 1_655
Pd1_5 Ti0_3 2.677022 1_655
Pd1_5 Ti0_7 2.677025 1_555
Pd1_5 Ti0_1 2.677026 1_655
Pd1_5 Ti0_5 2.677030 1_555
Pd1_5 Ti0_2 2.961658 1_656
Pd1_6 Ti0_0 2.677022 1_665
Pd1_6 Ti0_4 2.677025 1_565
Pd1_6 Ti0_2 2.677026 1_655
Pd1_6 Ti0_6 2.677030 1_555
Pd1_6 Ti0_1 2.961658 1_665
Pd1_7 Ti0_1 2.677022 1_665
Pd1_7 Ti0_5 2.677025 1_565
Pd1_7 Ti0_3 2.677026 1_655
Pd1_7 Ti0_7 2.677030 1_555
Pd1_7 Ti0_0 2.961658 1_666
