# generated using pymatgen
data_Ho3Ga2
_symmetry_space_group_name_H-M   'P 1'
_cell_length_a   10.88718617
_cell_length_b   10.88775302
_cell_length_c   10.88779925
_cell_angle_alpha   95.73797924
_cell_angle_beta   116.74180462
_cell_angle_gamma   116.74141594
_symmetry_Int_Tables_number   1
_chemical_formula_structural   Ho3Ga2
_chemical_formula_sum   'Ho24 Ga16'
_cell_volume   952.40894574
_cell_formula_units_Z   8
loop_
 _symmetry_equiv_pos_site_id
 _symmetry_equiv_pos_as_xyz
  1  'x, y, z'
loop_
 _atom_site_type_symbol
 _atom_site_label
 _atom_site_symmetry_multiplicity
 _atom_site_fract_x
 _atom_site_fract_y
 _atom_site_fract_z
 _atom_site_occupancy
  Ho  Ho0  1  0.49999349  0.85312577  0.35312545  1
  Ho  Ho1  1  0.49999405  0.35312827  0.85312802  1
  Ho  Ho2  1  0.50000749  0.14687495  0.64687499  1
  Ho  Ho3  1  0.50000719  0.64687286  0.14687253  1
  Ho  Ho4  1  0.16319063  0.33159184  0.83159298  1
  Ho  Ho5  1  0.83680994  0.66840852  0.16840737  1
  Ho  Ho6  1  0.49999883  0.16840355  0.33159532  1
  Ho  Ho7  1  0.50000121  0.83159624  0.66840494  1
  Ho  Ho8  1  0.73096536  0.56850541  0.43335284  1
  Ho  Ho9  1  0.26903061  0.70238357  0.83753634  1
  Ho  Ho10  1  0.86484977  0.20238573  0.93335710  1
  Ho  Ho11  1  0.13515043  0.06850718  0.33753474  1
  Ho  Ho12  1  0.86484573  0.43335187  0.70238459  1
  Ho  Ho13  1  0.13515458  0.83753747  0.56850661  1
  Ho  Ho14  1  0.73096988  0.93335714  0.06850727  1
  Ho  Ho15  1  0.26902738  0.33753287  0.20238594  1
  Ho  Ho16  1  0.26903359  0.43149333  0.56664734  1
  Ho  Ho17  1  0.73096812  0.29761521  0.16246396  1
  Ho  Ho18  1  0.13514866  0.79761310  0.06664312  1
  Ho  Ho19  1  0.86484785  0.93149103  0.66246507  1
  Ho  Ho20  1  0.13515290  0.56664766  0.29761401  1
  Ho  Ho21  1  0.86484387  0.16246204  0.43149260  1
  Ho  Ho22  1  0.26903036  0.06664199  0.93149360  1
  Ho  Ho23  1  0.73097289  0.66246654  0.79761509  1
  Ga  Ga0  1  0.00000040  0.74998594  0.74998712  1
  Ga  Ga1  1  -0.00000040  0.25001442  0.25001307  1
  Ga  Ga2  1  -0.00000008  0.49999995  0.49999996  1
  Ga  Ga3  1  -0.00000021  -0.00000033  0.00000029  1
  Ga  Ga4  1  0.26479756  0.88239589  0.38239426  1
  Ga  Ga5  1  0.73520371  0.11760460  0.61760661  1
  Ga  Ga6  1  0.50000211  0.61759674  0.88240543  1
  Ga  Ga7  1  0.49999863  0.38240484  0.11759441  1
  Ga  Ga8  1  0.14478195  0.12098407  0.62097986  1
  Ga  Ga9  1  0.85519952  0.47620515  0.97620886  1
  Ga  Ga10  1  0.50000057  0.97619870  0.12100701  1
  Ga  Ga11  1  0.49999209  0.62100299  0.47619305  1
  Ga  Ga12  1  0.85521948  0.87901656  0.37902036  1
  Ga  Ga13  1  0.14480144  0.52379611  0.02379110  1
  Ga  Ga14  1  0.49999957  0.02380303  0.87899309  1
  Ga  Ga15  1  0.50000788  0.37899715  0.52380571  1
loop_
_geom_bond_atom_site_label_1
_geom_bond_atom_site_label_2
_geom_bond_distance
_geom_bond_site_symmetry_2
Ga0 Ho9 2.951016 1_555
Ga0 Ho13 2.951102 1_555
Ga0 Ho23 2.951216 1_455
Ga0 Ho12 2.951251 1_455
Ga0 Ho19 2.951269 1_455
Ga0 Ho8 2.951373 1_455
Ga0 Ho18 2.951441 1_556
Ga0 Ho22 2.951550 1_565
Ga1 Ho17 2.951018 1_455
Ga1 Ho21 2.951104 1_455
Ga1 Ho15 2.951214 1_555
Ga1 Ho20 2.951247 1_555
Ga1 Ho11 2.951278 1_555
Ga1 Ho16 2.951370 1_555
Ga1 Ho10 2.951436 1_454
Ga1 Ho14 2.951557 1_445
Ga2 Ho16 3.134263 1_555
Ga2 Ho8 3.134264 1_455
Ga2 Ho12 3.134328 1_455
Ga2 Ho20 3.134332 1_555
Ga2 Ho13 3.134487 1_555
Ga2 Ho21 3.134488 1_455
Ga2 Ho9 3.134602 1_555
Ga2 Ho17 3.134602 1_455
Ga3 Ho14 3.134247 1_445
Ga3 Ho22 3.134252 1_554
Ga3 Ho18 3.134286 1_545
Ga3 Ho10 3.134290 1_454
Ga3 Ho11 3.134469 1_555
Ga3 Ho19 3.134474 1_444
Ga3 Ho23 3.134576 1_444
Ga3 Ho15 3.134578 1_555
Ga4 Ho0 2.865016 1_555
Ga4 Ho2 2.865556 1_565
Ga4 Ho13 2.913464 1_555
Ga4 Ho11 2.913470 1_565
Ga4 Ho20 2.913570 1_555
Ga4 Ho18 2.913596 1_555
Ga4 Ho6 3.317058 1_565
Ga4 Ho7 3.317083 1_555
Ga4 Ho5 3.455873 1_455
Ga5 Ho2 2.865018 1_555
Ga5 Ho0 2.865557 1_545
Ga5 Ho21 2.913458 1_555
Ga5 Ho19 2.913470 1_545
Ga5 Ho12 2.913566 1_555
Ga5 Ho10 2.913596 1_555
Ga5 Ho7 3.317064 1_545
Ga5 Ho6 3.317088 1_555
Ga5 Ho4 3.455868 1_655
Ga6 Ho1 2.865162 1_555
Ga6 Ho3 2.865176 1_556
Ga6 Ho9 2.913398 1_555
Ga6 Ho23 2.913428 1_555
Ga6 Ho16 2.913745 1_555
Ga6 Ho14 2.913758 1_556
Ga6 Ho5 3.317031 1_556
Ga6 Ho4 3.317076 1_555
Ga6 Ho7 3.455892 1_555
Ga7 Ho3 2.865155 1_555
Ga7 Ho1 2.865171 1_554
Ga7 Ho17 2.913399 1_555
Ga7 Ho15 2.913437 1_555
Ga7 Ho8 2.913742 1_555
Ga7 Ho22 2.913776 1_554
Ga7 Ho4 3.317024 1_554
Ga7 Ho5 3.317067 1_555
Ga7 Ho6 3.455910 1_555
Ga8 Ho4 2.945843 1_555
Ga8 Ho1 2.976930 1_555
Ga8 Ho11 3.027159 1_555
Ga8 Ho13 3.027183 1_545
Ga8 Ho21 3.084692 1_455
Ga8 Ho19 3.084740 1_445
Ga8 Ho16 3.257875 1_555
Ga8 Ho22 3.257967 1_555
Ga8 Ho2 3.624571 1_555
Ga9 Ho5 2.945644 1_556
Ga9 Ho1 2.976608 1_555
Ga9 Ho10 3.027309 1_555
Ga9 Ho12 3.027351 1_555
Ga9 Ho20 3.084886 1_656
Ga9 Ho18 3.084916 1_656
Ga9 Ho17 3.257714 1_556
Ga9 Ho23 3.257758 1_555
Ga9 Ho2 3.624975 1_555
Ga10 Ga14 2.735860 1_564
Ga10 Ho6 2.945687 1_565
Ga10 Ho0 2.976549 1_555
Ga10 Ho14 3.027101 1_555
Ga10 Ho9 3.027529 1_554
Ga10 Ho22 3.084764 1_564
Ga10 Ho17 3.084948 1_565
Ga10 Ho18 3.257728 1_555
Ga10 Ho21 3.257902 1_565
Ga10 Ho3 3.624651 1_555
Ga11 Ga15 2.735852 1_555
Ga11 Ho7 2.945693 1_555
Ga11 Ho0 2.976537 1_555
Ga11 Ho8 3.027122 1_555
Ga11 Ho15 3.027485 1_555
Ga11 Ho16 3.084772 1_555
Ga11 Ho23 3.085000 1_555
Ga11 Ho20 3.257637 1_555
Ga11 Ho19 3.257978 1_555
Ga11 Ho3 3.624655 1_555
Ga12 Ga8 2.735513 1_665
Ga12 Ho5 2.945838 1_555
Ga12 Ho3 2.976929 1_555
Ga12 Ho19 3.027170 1_555
Ga12 Ho21 3.027187 1_565
Ga12 Ho13 3.084673 1_655
Ga12 Ho11 3.084711 1_665
Ga12 Ho8 3.257893 1_555
Ga12 Ho14 3.257953 1_555
Ga12 Ho0 3.624578 1_555
Ga13 Ga9 2.735701 1_454
Ga13 Ho4 2.945645 1_554
Ga13 Ho3 2.976609 1_555
Ga13 Ho18 3.027298 1_555
Ga13 Ho20 3.027349 1_555
Ga13 Ho12 3.084900 1_454
Ga13 Ho10 3.084944 1_454
Ga13 Ho9 3.257688 1_554
Ga13 Ho15 3.257777 1_555
Ga13 Ho0 3.624975 1_555
Ga14 Ho7 2.945698 1_545
Ga14 Ho2 2.976542 1_555
Ga14 Ho22 3.027090 1_555
Ga14 Ho17 3.027515 1_556
Ga14 Ho14 3.084789 1_546
Ga14 Ho9 3.084976 1_545
Ga14 Ho10 3.257710 1_555
Ga14 Ho13 3.257914 1_545
Ga14 Ho1 3.624639 1_555
Ga15 Ho6 2.945686 1_555
Ga15 Ho2 2.976544 1_555
Ga15 Ho16 3.027132 1_555
Ga15 Ho23 3.027493 1_555
Ga15 Ho8 3.084748 1_555
Ga15 Ho15 3.084978 1_555
Ga15 Ho12 3.257627 1_555
Ga15 Ho11 3.257996 1_555
Ga15 Ho1 3.624667 1_555
