# generated using pymatgen
data_Pr2ScSi2
_symmetry_space_group_name_H-M   'P 1'
_cell_length_a   7.42332312
_cell_length_b   7.42332312
_cell_length_c   4.48061764
_cell_angle_alpha   90.00000000
_cell_angle_beta   90.00000000
_cell_angle_gamma   90.00000000
_symmetry_Int_Tables_number   1
_chemical_formula_structural   Pr2ScSi2
_chemical_formula_sum   'Pr4 Sc2 Si4'
_cell_volume   246.90768863
_cell_formula_units_Z   2
loop_
 _symmetry_equiv_pos_site_id
 _symmetry_equiv_pos_as_xyz
  1  'x, y, z'
loop_
 _atom_site_type_symbol
 _atom_site_label
 _atom_site_symmetry_multiplicity
 _atom_site_fract_x
 _atom_site_fract_y
 _atom_site_fract_z
 _atom_site_occupancy
  Pr  Pr0  1  0.67760684  0.17760684  0.50000000  1
  Pr  Pr1  1  0.32239316  0.82239316  0.50000000  1
  Pr  Pr2  1  0.17760684  0.32239316  0.50000000  1
  Pr  Pr3  1  0.82239316  0.67760684  0.50000000  1
  Sc  Sc0  1  0.00000000  -0.00000000  -0.00000000  1
  Sc  Sc1  1  0.50000000  0.50000000  -0.00000000  1
  Si  Si0  1  0.11710913  0.61710913  -0.00000000  1
  Si  Si1  1  0.88289087  0.38289087  0.00000000  1
  Si  Si2  1  0.61710913  0.88289087  0.00000000  1
  Si  Si3  1  0.38289087  0.11710913  -0.00000000  1
loop_
_geom_bond_atom_site_label_1
_geom_bond_atom_site_label_2
_geom_bond_distance
_geom_bond_site_symmetry_2
Pr0 Si1 3.108611 1_555
Pr0 Si1 3.108611 1_556
Pr0 Si2 3.163387 1_546
Pr0 Si2 3.163387 1_545
Pr0 Si3 3.163387 1_556
Pr0 Si3 3.163387 1_555
Pr1 Si0 3.108611 1_555
Pr1 Si0 3.108611 1_556
Pr1 Si2 3.163387 1_556
Pr1 Si3 3.163387 1_565
Pr1 Si2 3.163387 1_555
Pr1 Si3 3.163387 1_566
Pr2 Si3 3.108611 1_555
Pr2 Si3 3.108611 1_556
Pr2 Si0 3.163387 1_556
Pr2 Si1 3.163387 1_455
Pr2 Si0 3.163387 1_555
Pr2 Si1 3.163387 1_456
Pr3 Si2 3.108611 1_556
Pr3 Si2 3.108611 1_555
Pr3 Si1 3.163387 1_555
Pr3 Si1 3.163387 1_556
Pr3 Si0 3.163387 1_655
Pr3 Si0 3.163387 1_656
Sc0 Si1 2.972297 1_455
Sc0 Si0 2.972297 1_545
Sc0 Si2 2.972297 1_445
Sc0 Si3 2.972297 1_555
Sc1 Si3 2.972297 1_555
Sc1 Si2 2.972297 1_555
Sc1 Si0 2.972297 1_555
Sc1 Si1 2.972297 1_555
Si0 Si1 2.458862 1_455
Si2 Si3 2.458862 1_565
