# generated using pymatgen
data_BaSrTl2
_symmetry_space_group_name_H-M   'P 1'
_cell_length_a   5.91951329
_cell_length_b   5.91951329
_cell_length_c   5.91951329
_cell_angle_alpha   60.00000000
_cell_angle_beta   60.00000000
_cell_angle_gamma   60.00000000
_symmetry_Int_Tables_number   1
_chemical_formula_structural   BaSrTl2
_chemical_formula_sum   'Ba1 Sr1 Tl2'
_cell_volume   146.67057764
_cell_formula_units_Z   1
loop_
 _symmetry_equiv_pos_site_id
 _symmetry_equiv_pos_as_xyz
  1  'x, y, z'
loop_
 _atom_site_type_symbol
 _atom_site_label
 _atom_site_symmetry_multiplicity
 _atom_site_fract_x
 _atom_site_fract_y
 _atom_site_fract_z
 _atom_site_occupancy
  Ba  Ba0  1  0.50000000  0.50000000  0.50000000  1
  Sr  Sr0  1  0.00000000  -0.00000000  -0.00000000  1
  Tl  Tl0  1  0.25000000  0.25000000  0.25000000  1
  Tl  Tl1  1  0.75000000  0.75000000  0.75000000  1
loop_
_geom_bond_atom_site_label_1
_geom_bond_atom_site_label_2
_geom_bond_distance
_geom_bond_site_symmetry_2
Ba0 Tl0 3.624947 1_655
Ba0 Tl0 3.624947 1_556
Ba0 Tl0 3.624947 1_555
Ba0 Tl1 3.624947 1_555
Ba0 Tl0 3.624947 1_565
Ba0 Tl1 3.624947 1_455
Ba0 Tl1 3.624947 1_554
Ba0 Tl1 3.624947 1_545
Sr0 Tl1 3.624947 1_445
Sr0 Tl1 3.624947 1_544
Sr0 Tl0 3.624947 1_455
Sr0 Tl0 3.624947 1_554
Sr0 Tl1 3.624947 1_444
Sr0 Tl0 3.624947 1_555
Sr0 Tl0 3.624947 1_545
Sr0 Tl1 3.624947 1_454
