# generated using pymatgen
data_Ca(Fe2O3)4
_symmetry_space_group_name_H-M   'P 1'
_cell_length_a   5.28258200
_cell_length_b   6.02164917
_cell_length_c   7.53276015
_cell_angle_alpha   84.62573466
_cell_angle_beta   90.00000000
_cell_angle_gamma   90.00000000
_symmetry_Int_Tables_number   1
_chemical_formula_structural   Ca(Fe2O3)4
_chemical_formula_sum   'Ca1 Fe8 O12'
_cell_volume   238.56269198
_cell_formula_units_Z   1
loop_
 _symmetry_equiv_pos_site_id
 _symmetry_equiv_pos_as_xyz
  1  'x, y, z'
loop_
 _atom_site_type_symbol
 _atom_site_label
 _atom_site_symmetry_multiplicity
 _atom_site_fract_x
 _atom_site_fract_y
 _atom_site_fract_z
 _atom_site_occupancy
  Ca  Ca0  1  0.27078400  0.25000000  0.50000000  1
  Fe  Fe0  1  0.23018800  0.42187400  0.08453400  1
  Fe  Fe1  1  0.24940300  0.78696700  0.26784200  1
  Fe  Fe2  1  0.24940300  0.71303300  0.73215800  1
  Fe  Fe3  1  0.23018900  0.07812600  0.91546600  1
  Fe  Fe4  1  0.74082000  0.54109400  0.90879500  1
  Fe  Fe5  1  0.75885600  0.94827000  0.59195000  1
  Fe  Fe6  1  0.75885600  0.55173000  0.40805000  1
  Fe  Fe7  1  0.74081900  0.95890600  0.09120400  1
  O  O0  1  0.39784500  0.42648700  0.83781100  1
  O  O1  1  0.09086900  0.01070000  0.68379100  1
  O  O2  1  0.09086900  0.48930000  0.31620900  1
  O  O3  1  0.39784500  0.07351300  0.16218900  1
  O  O4  1  0.57301100  0.62202900  0.16468100  1
  O  O5  1  0.90760200  0.89643400  0.33596300  1
  O  O6  1  0.90760200  0.60356600  0.66403700  1
  O  O7  1  0.57301100  0.87797100  0.83531900  1
  O  O8  1  0.04837200  0.75000000  0.00000000  1
  O  O9  1  0.67939400  0.25000000  0.50000000  1
  O  O10  1  0.89295400  0.25000000  0.00000000  1
  O  O11  1  0.44880900  0.75000000  0.50000000  1
loop_
_geom_bond_atom_site_label_1
_geom_bond_atom_site_label_2
_geom_bond_distance
_geom_bond_site_symmetry_2
Ca0 O1 2.126670 1_555
Ca0 O2 2.126670 1_555
Ca0 O9 2.158516 1_555
Ca0 O3 2.926049 1_555
Ca0 O0 2.926049 1_555
Fe0 O2 1.970984 1_555
Fe0 O0 2.056584 1_554
Fe0 O10 2.184882 1_455
Fe0 O8 2.235240 1_555
Fe0 O4 2.287606 1_555
Fe0 O3 2.301541 1_555
Fe1 O2 1.981067 1_555
Fe1 O3 1.992068 1_565
Fe1 O5 2.005328 1_455
Fe1 O11 2.035806 1_555
Fe1 O4 2.158061 1_555
Fe1 O8 2.309137 1_555
Fe2 O1 1.981067 1_565
Fe2 O0 1.992068 1_555
Fe2 O6 2.005328 1_455
Fe2 O11 2.035806 1_555
Fe2 O7 2.158061 1_555
Fe2 O8 2.309137 1_556
Fe3 O1 1.970986 1_555
Fe3 O3 2.056582 1_556
Fe3 O10 2.184886 1_456
Fe3 O8 2.235242 1_546
Fe3 O7 2.287601 1_545
Fe3 O0 2.301539 1_555
Fe4 O10 1.991187 1_556
Fe4 O0 2.028275 1_555
Fe4 O6 2.046232 1_555
Fe4 O8 2.203612 1_656
Fe4 O4 2.216907 1_556
Fe4 O7 2.235369 1_555
Fe5 O9 1.929088 1_565
Fe5 O1 1.935140 1_665
Fe5 O7 2.087681 1_555
Fe5 O5 2.132111 1_555
Fe5 O11 2.177757 1_555
Fe5 O6 2.238219 1_555
Fe6 O9 1.929088 1_555
Fe6 O2 1.935140 1_655
Fe6 O4 2.087681 1_555
Fe6 O6 2.132111 1_555
Fe6 O11 2.177757 1_555
Fe6 O5 2.238219 1_555
Fe7 O10 1.991188 1_565
Fe7 O3 2.028273 1_565
Fe7 O5 2.046241 1_555
Fe7 O8 2.203613 1_655
Fe7 O7 2.216898 1_554
Fe7 O4 2.235368 1_555
