# generated using pymatgen
data_Ba3Ac
_symmetry_space_group_name_H-M   'P 1'
_cell_length_a   8.72843350
_cell_length_b   8.72843350
_cell_length_c   6.93561000
_cell_angle_alpha   90.00000000
_cell_angle_beta   90.00000000
_cell_angle_gamma   119.99999620
_symmetry_Int_Tables_number   1
_chemical_formula_structural   Ba3Ac
_chemical_formula_sum   'Ba6 Ac2'
_cell_volume   457.60201401
_cell_formula_units_Z   2
loop_
 _symmetry_equiv_pos_site_id
 _symmetry_equiv_pos_as_xyz
  1  'x, y, z'
loop_
 _atom_site_type_symbol
 _atom_site_label
 _atom_site_symmetry_multiplicity
 _atom_site_fract_x
 _atom_site_fract_y
 _atom_site_fract_z
 _atom_site_occupancy
  Ba  Ba0  1  0.17066600  0.34133200  0.25000000  1
  Ba  Ba1  1  0.65866800  0.82933400  0.25000000  1
  Ba  Ba2  1  0.17066600  0.82933400  0.25000000  1
  Ba  Ba3  1  0.82933400  0.65866800  0.75000000  1
  Ba  Ba4  1  0.34133200  0.17066600  0.75000000  1
  Ba  Ba5  1  0.82933400  0.17066600  0.75000000  1
  Ac  Ac0  1  0.33333300  0.66666700  0.75000000  1
  Ac  Ac1  1  0.66666700  0.33333300  0.25000000  1
loop_
_geom_bond_atom_site_label_1
_geom_bond_atom_site_label_2
_geom_bond_distance
_geom_bond_site_symmetry_2
Ba0 Ba2 4.259493 1_555
Ba0 Ba1 4.259493 1_555
Ba0 Ba4 4.322362 1_554
Ba0 Ba4 4.322362 1_555
Ba0 Ba5 4.322362 1_454
Ba0 Ba5 4.322362 1_455
Ba0 Ba2 4.468940 1_545
Ba0 Ba1 4.468941 1_445
Ba1 Ba2 4.259493 1_555
Ba1 Ba3 4.322362 1_554
Ba1 Ba3 4.322362 1_555
Ba1 Ba5 4.322362 1_564
Ba1 Ba5 4.322362 1_565
Ba1 Ba2 4.468940 1_655
Ba2 Ba3 4.322362 1_455
Ba2 Ba3 4.322362 1_454
Ba2 Ba4 4.322362 1_565
Ba2 Ba4 4.322362 1_564
Ba3 Ba5 4.259493 1_555
Ba3 Ba4 4.259493 1_555
Ba3 Ba5 4.468940 1_565
Ba3 Ba4 4.468941 1_665
Ba4 Ba5 4.259493 1_555
Ba4 Ba5 4.468940 1_455
Ac0 Ba2 4.251283 1_556
Ac0 Ba2 4.251283 1_555
Ac0 Ba0 4.251287 1_556
Ac0 Ba0 4.251287 1_555
Ac0 Ba1 4.251287 1_555
Ac0 Ba1 4.251287 1_556
Ac0 Ba3 4.364631 1_455
Ac0 Ba4 4.364631 1_565
Ac0 Ba5 4.364636 1_455
Ac0 Ba5 4.364636 1_565
Ac0 Ba3 4.364640 1_555
Ac0 Ba4 4.364640 1_555
Ac1 Ba5 4.251283 1_554
Ac1 Ba5 4.251283 1_555
Ac1 Ba4 4.251287 1_554
Ac1 Ba4 4.251287 1_555
Ac1 Ba3 4.251287 1_555
Ac1 Ba3 4.251287 1_554
Ac1 Ba1 4.364631 1_545
Ac1 Ba0 4.364631 1_655
Ac1 Ba2 4.364636 1_545
Ac1 Ba2 4.364636 1_655
Ac1 Ba0 4.364640 1_555
Ac1 Ba1 4.364640 1_555
