# generated using pymatgen
data_MgSi2
_symmetry_space_group_name_H-M   'P 1'
_cell_length_a   5.25752054
_cell_length_b   4.54232183
_cell_length_c   9.57745758
_cell_angle_alpha   89.89506942
_cell_angle_beta   94.28440169
_cell_angle_gamma   64.52509368
_symmetry_Int_Tables_number   1
_chemical_formula_structural   MgSi2
_chemical_formula_sum   'Mg4 Si8'
_cell_volume   205.76116442
_cell_formula_units_Z   4
loop_
 _symmetry_equiv_pos_site_id
 _symmetry_equiv_pos_as_xyz
  1  'x, y, z'
loop_
 _atom_site_type_symbol
 _atom_site_label
 _atom_site_symmetry_multiplicity
 _atom_site_fract_x
 _atom_site_fract_y
 _atom_site_fract_z
 _atom_site_occupancy
  Mg  Mg0  1  0.28408400  0.43731800  0.10332900  1
  Mg  Mg1  1  0.71592800  0.22932000  0.89664600  1
  Mg  Mg2  1  0.99013300  0.08981700  0.61345600  1
  Mg  Mg3  1  0.00987700  0.57682100  0.38652200  1
  Si  Si0  1  0.30480800  0.93207400  0.90224800  1
  Si  Si1  1  0.69520400  0.73456500  0.09773300  1
  Si  Si2  1  0.42304300  0.86914400  0.30198200  1
  Si  Si3  1  0.37705400  0.39765600  0.62585700  1
  Si  Si4  1  0.93717800  0.11092800  0.18467300  1
  Si  Si5  1  0.06282800  0.55571000  0.81529500  1
  Si  Si6  1  0.57695900  0.79751300  0.69799400  1
  Si  Si7  1  0.62296100  0.26898600  0.37411600  1
loop_
_geom_bond_atom_site_label_1
_geom_bond_atom_site_label_2
_geom_bond_distance
_geom_bond_site_symmetry_2
Mg0 Si1 2.791121 1_455
Mg0 Si5 2.868691 1_554
Mg0 Si7 2.935197 1_555
Mg0 Si4 2.943737 1_455
Mg0 Si4 2.952282 1_465
Mg0 Mg1 2.966309 1_554
Mg0 Si0 2.969869 1_544
Mg0 Si1 2.991175 1_545
Mg0 Si2 2.994435 1_545
Mg0 Si0 2.999572 1_554
Mg0 Si1 3.004229 1_555
Mg0 Si2 3.006621 1_555
Mg0 Mg3 3.104991 1_555
Mg0 Si4 3.132396 1_555
Mg1 Si0 2.791118 1_645
Mg1 Si4 2.868621 1_556
Mg1 Si3 2.935207 1_555
Mg1 Si5 2.943731 1_655
Mg1 Si5 2.952297 1_645
Mg1 Si1 2.969910 1_556
Mg1 Si0 2.991182 1_555
Mg1 Si6 2.994485 1_555
Mg1 Si1 2.999605 1_546
Mg1 Si0 3.004230 1_545
Mg1 Si6 3.006575 1_545
Mg1 Mg2 3.104961 1_555
Mg1 Si5 3.132434 1_555
Mg2 Si7 2.761135 1_555
Mg2 Si6 2.834814 1_645
Mg2 Si3 2.915108 1_645
Mg2 Si3 2.918723 1_655
Mg2 Si3 2.922244 1_555
Mg2 Si5 2.973827 1_645
Mg2 Si5 2.993624 1_655
Mg2 Si0 3.031491 1_645
Mg2 Mg3 3.137166 1_655
Mg2 Si6 3.142791 1_545
Mg2 Si6 3.158042 1_555
Mg2 Mg3 3.163644 1_645
Mg3 Si3 2.761112 1_555
Mg3 Si2 2.834855 1_455
Mg3 Si7 2.915116 1_465
Mg3 Si7 2.918685 1_455
Mg3 Si7 2.922273 1_555
Mg3 Si4 2.973883 1_465
Mg3 Si4 2.993693 1_455
Mg3 Si1 3.031462 1_455
Mg3 Si2 3.142822 1_555
Mg3 Si2 3.157974 1_545
Si0 Si6 2.432698 1_555
Si0 Si1 2.521636 1_556
Si0 Si5 2.636768 1_555
Si0 Si5 2.658846 1_565
Si1 Si2 2.432686 1_555
Si1 Si4 2.636706 1_565
Si1 Si4 2.658816 1_555
Si2 Si4 2.479314 1_465
Si2 Si7 2.533559 1_565
Si2 Si7 2.536429 1_555
Si3 Si5 2.443121 1_555
Si3 Si6 2.533579 1_555
Si3 Si6 2.536379 1_545
Si3 Si7 2.765336 1_555
Si4 Si7 2.443130 1_555
Si5 Si6 2.479302 1_455
