# generated using pymatgen
data_CaCr2O4
_symmetry_space_group_name_H-M   'P 1'
_cell_length_a   6.23963065
_cell_length_b   6.23961697
_cell_length_c   6.23960900
_cell_angle_alpha   59.99995836
_cell_angle_beta   59.99994203
_cell_angle_gamma   60.00007619
_symmetry_Int_Tables_number   1
_chemical_formula_structural   CaCr2O4
_chemical_formula_sum   'Ca2 Cr4 O8'
_cell_volume   171.77466687
_cell_formula_units_Z   2
loop_
 _symmetry_equiv_pos_site_id
 _symmetry_equiv_pos_as_xyz
  1  'x, y, z'
loop_
 _atom_site_type_symbol
 _atom_site_label
 _atom_site_symmetry_multiplicity
 _atom_site_fract_x
 _atom_site_fract_y
 _atom_site_fract_z
 _atom_site_occupancy
  Ca  Ca0  1  0.87500000  0.87499900  0.87500100  1
  Ca  Ca1  1  0.12500000  0.12500100  0.12500100  1
  Cr  Cr0  1  0.50000800  0.99999700  0.49999700  1
  Cr  Cr1  1  0.99999300  0.50000200  0.50000200  1
  Cr  Cr2  1  0.50000000  0.50000000  0.99999800  1
  Cr  Cr3  1  0.50000000  0.50000100  0.49999500  1
  O  O0  1  0.73141400  0.73141500  0.73141700  1
  O  O1  1  0.26858500  0.26858500  0.69424700  1
  O  O2  1  0.26858600  0.69424500  0.26858500  1
  O  O3  1  0.69424500  0.26858500  0.26858500  1
  O  O4  1  0.73141300  0.30575500  0.73141700  1
  O  O5  1  0.30575500  0.73141500  0.73141600  1
  O  O6  1  0.26858600  0.26858600  0.26858500  1
  O  O7  1  0.73141500  0.73141500  0.30575400  1
loop_
_geom_bond_atom_site_label_1
_geom_bond_atom_site_label_2
_geom_bond_distance
_geom_bond_site_symmetry_2
Ca0 O7 2.194521 1_556
Ca0 O0 2.194531 1_555
Ca0 O5 2.194541 1_655
Ca0 O4 2.194542 1_565
Ca1 O1 2.194526 1_554
Ca1 O6 2.194536 1_555
Ca1 O3 2.194541 1_455
Ca1 O2 2.194542 1_545
Cr0 O7 2.055147 1_555
Cr0 O3 2.055150 1_565
Cr0 O0 2.055153 1_555
Cr0 O5 2.055186 1_555
Cr0 O6 2.055191 1_565
Cr0 O1 2.055204 1_565
Cr1 O7 2.055152 1_555
Cr1 O4 2.055154 1_555
Cr1 O0 2.055157 1_555
Cr1 O6 2.055187 1_655
Cr1 O2 2.055199 1_655
Cr1 O1 2.055206 1_655
Cr2 O4 2.055149 1_555
Cr2 O5 2.055156 1_555
Cr2 O0 2.055161 1_555
Cr2 O6 2.055162 1_556
Cr2 O2 2.055178 1_556
Cr2 O3 2.055180 1_556
Cr3 O2 2.055144 1_555
Cr3 O3 2.055150 1_555
Cr3 O7 2.055168 1_555
Cr3 O1 2.055169 1_555
Cr3 O5 2.055192 1_555
Cr3 O4 2.055195 1_555
