# generated using pymatgen
data_Li9Mn7O16
_symmetry_space_group_name_H-M   'P 1'
_cell_length_a   6.50617000
_cell_length_b   6.91911557
_cell_length_c   7.77504574
_cell_angle_alpha   92.49126627
_cell_angle_beta   114.13077743
_cell_angle_gamma   108.62986337
_symmetry_Int_Tables_number   1
_chemical_formula_structural   Li9Mn7O16
_chemical_formula_sum   'Li9 Mn7 O16'
_cell_volume   296.49117813
_cell_formula_units_Z   1
loop_
 _symmetry_equiv_pos_site_id
 _symmetry_equiv_pos_as_xyz
  1  'x, y, z'
loop_
 _atom_site_type_symbol
 _atom_site_label
 _atom_site_symmetry_multiplicity
 _atom_site_fract_x
 _atom_site_fract_y
 _atom_site_fract_z
 _atom_site_occupancy
  Li  Li0  1  0.12873200  0.18867300  0.94001900  1
  Li  Li1  1  0.37937200  0.56497500  0.81486400  1
  Li  Li2  1  0.62148500  0.94080400  0.69677700  1
  Li  Li3  1  0.87705900  0.30819900  0.56124800  1
  Li  Li4  1  0.37851500  0.05919600  0.30322300  1
  Li  Li5  1  0.62062800  0.43502500  0.18513600  1
  Li  Li6  1  0.87126800  0.81132700  0.05998100  1
  Li  Li7  1  0.12294100  0.69180100  0.43875200  1
  Li  Li8  1  0.50000000  0.00000000  0.00000000  1
  Mn  Mn0  1  0.00525000  0.75251900  0.75203500  1
  Mn  Mn1  1  0.99475000  0.24748100  0.24796500  1
  Mn  Mn2  1  0.75042400  0.36610900  0.87855400  1
  Mn  Mn3  1  0.24957600  0.63389100  0.12144600  1
  Mn  Mn4  1  0.74764600  0.88248800  0.37088400  1
  Mn  Mn5  1  0.50000000  0.50000000  0.50000000  1
  Mn  Mn6  1  0.25235400  0.11751200  0.62911600  1
  O  O0  1  0.17887500  0.88236100  0.02321300  1
  O  O1  1  0.44409900  0.28345700  0.89028300  1
  O  O2  1  0.69340000  0.64270800  0.77117300  1
  O  O3  1  0.94219800  0.03105300  0.64187300  1
  O  O4  1  0.43995800  0.78320200  0.38829700  1
  O  O5  1  0.70571300  0.15352300  0.28406900  1
  O  O6  1  0.94231300  0.53122800  0.14025200  1
  O  O7  1  0.19608600  0.39752800  0.51976100  1
  O  O8  1  0.05768700  0.46877200  0.85974800  1
  O  O9  1  0.29428700  0.84647700  0.71593100  1
  O  O10  1  0.56004200  0.21679800  0.61170300  1
  O  O11  1  0.80391400  0.60247200  0.48023900  1
  O  O12  1  0.30660000  0.35729200  0.22882700  1
  O  O13  1  0.55590100  0.71654300  0.10971700  1
  O  O14  1  0.82112500  0.11763900  0.97678700  1
  O  O15  1  0.05780200  0.96894700  0.35812700  1
loop_
_geom_bond_atom_site_label_1
_geom_bond_atom_site_label_2
_geom_bond_distance
_geom_bond_site_symmetry_2
Li0 O14 2.044558 1_455
Li0 O12 2.127806 1_556
Li0 O1 2.144927 1_555
Li0 O3 2.161057 1_455
Li0 O8 2.191069 1_555
Li0 O0 2.324891 1_546
Li1 O2 2.111941 1_555
Li1 O13 2.131445 1_556
Li1 O8 2.161607 1_555
Li1 O7 2.162833 1_555
Li1 O1 2.176422 1_555
Li1 O9 2.272181 1_555
Li2 O9 2.088046 1_555
Li2 O14 2.089214 1_565
Li2 O10 2.150669 1_565
Li2 O3 2.201161 1_565
Li2 O4 2.229396 1_555
Li2 O2 2.303621 1_555
Li3 O5 2.026172 1_555
Li3 O7 2.130603 1_655
Li3 O3 2.157844 1_555
Li3 O10 2.158187 1_555
Li3 O8 2.171029 1_655
Li3 O11 2.292251 1_555
Li4 O5 2.088046 1_555
Li4 O0 2.089214 1_545
Li4 O4 2.150669 1_545
Li4 O15 2.201161 1_545
Li4 O10 2.229396 1_555
Li4 O12 2.303621 1_555
Li5 O12 2.111941 1_555
Li5 O1 2.131445 1_554
Li5 O6 2.161607 1_555
Li5 O11 2.162833 1_555
Li5 O13 2.176422 1_555
Li5 O5 2.272181 1_555
Li6 O0 2.044558 1_655
Li6 O2 2.127806 1_554
Li6 O13 2.144927 1_555
Li6 O15 2.161057 1_655
Li6 O6 2.191069 1_555
Li6 O14 2.324891 1_564
Li7 O9 2.026172 1_555
Li7 O11 2.130603 1_455
Li7 O15 2.157844 1_555
Li7 O4 2.158187 1_555
Li7 O6 2.171029 1_455
Li7 O7 2.292251 1_555
Li8 O5 2.066039 1_555
Li8 O9 2.066039 1_544
Li8 O14 2.072394 1_554
Li8 O0 2.072394 1_545
Li8 O1 2.248128 1_554
Li8 O13 2.248128 1_545
Mn0 O9 1.924630 1_555
Mn0 O0 1.941170 1_556
Mn0 O11 1.984060 1_455
Mn0 O2 1.996951 1_455
Mn0 O3 2.231000 1_465
Mn0 O8 2.238187 1_555
Mn1 O5 1.924630 1_555
Mn1 O14 1.941170 1_554
Mn1 O7 1.984060 1_655
Mn1 O12 1.996951 1_655
Mn1 O15 2.231000 1_645
Mn1 O6 2.238187 1_555
Mn2 O1 1.931932 1_555
Mn2 O10 1.949632 1_555
Mn2 O6 1.952834 1_556
Mn2 O8 1.965487 1_655
Mn2 O14 2.020570 1_555
Mn2 O2 2.199248 1_555
Mn3 O13 1.931932 1_555
Mn3 O4 1.949632 1_555
Mn3 O8 1.952834 1_554
Mn3 O6 1.965487 1_455
Mn3 O0 2.020570 1_555
Mn3 O12 2.199248 1_555
Mn4 O13 1.951623 1_555
Mn4 O15 1.958898 1_655
Mn4 O4 1.961834 1_555
Mn4 O3 1.974313 1_565
Mn4 O5 2.081643 1_565
Mn4 O11 2.225436 1_555
Mn5 O11 1.948909 1_555
Mn5 O7 1.948909 1_555
Mn5 O12 1.964585 1_555
Mn5 O2 1.964585 1_555
Mn5 O10 2.259682 1_555
Mn5 O4 2.259682 1_555
Mn6 O1 1.951623 1_555
Mn6 O3 1.958898 1_455
Mn6 O10 1.961834 1_555
Mn6 O15 1.974313 1_545
Mn6 O9 2.081643 1_545
Mn6 O7 2.225436 1_555
