# generated using pymatgen
data_P2H12C4O3
_symmetry_space_group_name_H-M   'P 1'
_cell_length_a   6.55350708
_cell_length_b   6.55350708
_cell_length_c   13.12450254
_cell_angle_alpha   79.43263857
_cell_angle_beta   79.43263857
_cell_angle_gamma   95.90931387
_symmetry_Int_Tables_number   1
_chemical_formula_structural   P2H12C4O3
_chemical_formula_sum   'P4 H24 C8 O6'
_cell_volume   539.25089626
_cell_formula_units_Z   2
loop_
 _symmetry_equiv_pos_site_id
 _symmetry_equiv_pos_as_xyz
  1  'x, y, z'
loop_
 _atom_site_type_symbol
 _atom_site_label
 _atom_site_symmetry_multiplicity
 _atom_site_fract_x
 _atom_site_fract_y
 _atom_site_fract_z
 _atom_site_occupancy
  P  P0  1  0.11403100  0.83820300  0.14457700  1
  P  P1  1  0.16179700  0.88596900  0.35542300  1
  P  P2  1  0.88596900  0.16179700  0.85542300  1
  P  P3  1  0.83820300  0.11403100  0.64457700  1
  H  H0  1  0.25991200  0.54416200  0.08576400  1
  H  H1  1  0.45583800  0.74008800  0.41423600  1
  H  H2  1  0.74008800  0.45583800  0.91423600  1
  H  H3  1  0.54416200  0.25991200  0.58576400  1
  H  H4  1  0.20852500  0.73492000  0.98065300  1
  H  H5  1  0.26508000  0.79147500  0.51934700  1
  H  H6  1  0.79147500  0.26508000  0.01934700  1
  H  H7  1  0.73492000  0.20852500  0.48065300  1
  H  H8  1  0.43485700  0.78592700  0.03496200  1
  H  H9  1  0.21407300  0.56514300  0.46503800  1
  H  H10  1  0.56514300  0.21407300  0.96503800  1
  H  H11  1  0.78592700  0.43485700  0.53496200  1
  H  H12  1  0.79084800  0.69499500  0.11089900  1
  H  H13  1  0.30500500  0.20915200  0.38910100  1
  H  H14  1  0.20915200  0.30500500  0.88910100  1
  H  H15  1  0.69499500  0.79084800  0.61089900  1
  H  H16  1  0.87182200  0.51806500  0.21252900  1
  H  H17  1  0.48193500  0.12817800  0.28747100  1
  H  H18  1  0.12817800  0.48193500  0.78747100  1
  H  H19  1  0.51806500  0.87182200  0.71252900  1
  H  H20  1  0.75966700  0.74388700  0.24283700  1
  H  H21  1  0.25611300  0.24033300  0.25716300  1
  H  H22  1  0.24033300  0.25611300  0.75716300  1
  H  H23  1  0.74388700  0.75966700  0.74283700  1
  C  C0  1  0.27065900  0.71266800  0.05359000  1
  C  C1  1  0.28733200  0.72934100  0.44641000  1
  C  C2  1  0.72934100  0.28733200  0.94641000  1
  C  C3  1  0.71266800  0.27065900  0.55359000  1
  C  C4  1  0.85849000  0.68261200  0.18197700  1
  C  C5  1  0.31738800  0.14151000  0.31802300  1
  C  C6  1  0.14151000  0.31738800  0.81802300  1
  C  C7  1  0.68261200  0.85849000  0.68197700  1
  O  O0  1  0.21727500  0.78272500  0.25000000  1
  O  O1  1  0.78272500  0.21727500  0.75000000  1
  O  O2  1  0.11632100  0.06745700  0.10791000  1
  O  O3  1  0.93254300  0.88367900  0.39209000  1
  O  O4  1  0.88367900  0.93254300  0.89209000  1
  O  O5  1  0.06745700  0.11632100  0.60791000  1
loop_
_geom_bond_atom_site_label_1
_geom_bond_atom_site_label_2
_geom_bond_distance
_geom_bond_site_symmetry_2
C0 H8 1.096485 1_555
C0 H0 1.097635 1_555
C0 H4 1.098826 1_554
C0 P0 1.800306 1_555
C1 H9 1.096485 1_555
C1 H1 1.097635 1_555
C1 H5 1.098826 1_555
C1 P1 1.800306 1_555
C2 H10 1.096485 1_555
C2 H2 1.097635 1_555
C2 H6 1.098826 1_556
C2 P2 1.800306 1_555
C3 H11 1.096485 1_555
C3 H3 1.097635 1_555
C3 H7 1.098826 1_555
C3 P3 1.800306 1_555
C4 H20 1.095519 1_555
C4 H12 1.097563 1_555
C4 H16 1.097694 1_555
C4 P0 1.802372 1_655
C5 H21 1.095519 1_555
C5 H13 1.097563 1_555
C5 H17 1.097694 1_555
C5 P1 1.802372 1_545
C6 H22 1.095519 1_555
C6 H14 1.097563 1_555
C6 H18 1.097694 1_555
C6 P2 1.802372 1_455
C7 H23 1.095519 1_555
C7 H15 1.097563 1_555
C7 H19 1.097694 1_555
C7 P3 1.802372 1_565
O0 P0 1.647398 1_555
O0 P1 1.647398 1_555
O1 P3 1.647398 1_555
O1 P2 1.647398 1_555
O2 P0 1.488822 1_545
O3 P1 1.488822 1_655
O4 P2 1.488822 1_565
O5 P3 1.488822 1_455
