# generated using pymatgen
data_TaCoGe
_symmetry_space_group_name_H-M   'P 1'
_cell_length_a   3.71888027
_cell_length_b   6.28437120
_cell_length_c   7.08092724
_cell_angle_alpha   90.00000000
_cell_angle_beta   90.00000000
_cell_angle_gamma   90.00000000
_symmetry_Int_Tables_number   1
_chemical_formula_structural   TaCoGe
_chemical_formula_sum   'Ta4 Co4 Ge4'
_cell_volume   165.48710474
_cell_formula_units_Z   4
loop_
 _symmetry_equiv_pos_site_id
 _symmetry_equiv_pos_as_xyz
  1  'x, y, z'
loop_
 _atom_site_type_symbol
 _atom_site_label
 _atom_site_symmetry_multiplicity
 _atom_site_fract_x
 _atom_site_fract_y
 _atom_site_fract_z
 _atom_site_occupancy
  Ta  Ta0  1  0.25000000  0.02039111  0.18318732  1
  Ta  Ta1  1  0.25000000  0.52039111  0.31681268  1
  Ta  Ta2  1  0.75000000  0.97960889  0.81681268  1
  Ta  Ta3  1  0.75000000  0.47960889  0.68318732  1
  Co  Co0  1  0.25000000  0.13939798  0.56356800  1
  Co  Co1  1  0.25000000  0.63939798  0.93643200  1
  Co  Co2  1  0.75000000  0.86060202  0.43643200  1
  Co  Co3  1  0.75000000  0.36060202  0.06356800  1
  Ge  Ge0  1  0.25000000  0.76966840  0.61809331  1
  Ge  Ge1  1  0.25000000  0.26966840  0.88190669  1
  Ge  Ge2  1  0.75000000  0.23033160  0.38190669  1
  Ge  Ge3  1  0.75000000  0.73033160  0.11809331  1
loop_
_geom_bond_atom_site_label_1
_geom_bond_atom_site_label_2
_geom_bond_distance
_geom_bond_site_symmetry_2
Co0 Ge2 2.332109 1_455
Co0 Ge2 2.332109 1_555
Co0 Ge0 2.355377 1_545
Co0 Ge1 2.398194 1_555
Co0 Co2 2.708811 1_445
Co0 Co2 2.708811 1_545
Co0 Ta2 2.771547 1_545
Co0 Ta2 2.771547 1_445
Co0 Ta0 2.795352 1_555
Co0 Ta3 2.957372 1_455
Co0 Ta3 2.957372 1_555
Co0 Ta1 2.964049 1_555
Co1 Ge3 2.332109 1_456
Co1 Ge3 2.332109 1_556
Co1 Ge1 2.355377 1_555
Co1 Ge0 2.398194 1_555
Co1 Co3 2.708811 1_456
Co1 Co3 2.708811 1_556
Co1 Ta3 2.771547 1_455
Co1 Ta3 2.771547 1_555
Co1 Ta1 2.795352 1_556
Co1 Ta2 2.957372 1_555
Co1 Ta2 2.957372 1_455
Co1 Ta0 2.964049 1_566
Co2 Ge0 2.332109 1_655
Co2 Ge0 2.332109 1_555
Co2 Ge2 2.355377 1_565
Co2 Ge3 2.398194 1_555
Co2 Ta0 2.771547 1_665
Co2 Ta0 2.771547 1_565
Co2 Ta2 2.795352 1_555
Co2 Ta1 2.957372 1_655
Co2 Ta1 2.957372 1_555
Co2 Ta3 2.964049 1_555
Co3 Ge1 2.332109 1_554
Co3 Ge1 2.332109 1_654
Co3 Ge3 2.355377 1_555
Co3 Ge2 2.398194 1_555
Co3 Ta1 2.771547 1_555
Co3 Ta1 2.771547 1_655
Co3 Ta3 2.795352 1_554
Co3 Ta0 2.957372 1_555
Co3 Ta0 2.957372 1_655
Co3 Ta2 2.964049 1_544
Ge0 Ta3 2.644376 1_555
Ge0 Ta3 2.644376 1_455
Ge0 Ta1 2.646743 1_555
Ge0 Ta2 2.679210 1_455
Ge0 Ta2 2.679210 1_555
Ge1 Ta2 2.644376 1_545
Ge1 Ta2 2.644376 1_445
Ge1 Ta0 2.646743 1_556
Ge1 Ta3 2.679210 1_455
Ge1 Ta3 2.679210 1_555
Ge2 Ta1 2.644376 1_655
Ge2 Ta1 2.644376 1_555
Ge2 Ta3 2.646743 1_555
Ge2 Ta0 2.679210 1_655
Ge2 Ta0 2.679210 1_555
Ge3 Ta0 2.644376 1_665
Ge3 Ta0 2.644376 1_565
Ge3 Ta2 2.646743 1_554
Ge3 Ta1 2.679210 1_555
Ge3 Ta1 2.679210 1_655
