# generated using pymatgen
data_Ce(GePd)2
_symmetry_space_group_name_H-M   'P 1'
_cell_length_a   5.89542271
_cell_length_b   5.89542271
_cell_length_c   5.89542271
_cell_angle_alpha   136.65148478
_cell_angle_beta   136.65148478
_cell_angle_gamma   62.97472161
_symmetry_Int_Tables_number   1
_chemical_formula_structural   Ce(GePd)2
_chemical_formula_sum   'Ce1 Ge2 Pd2'
_cell_volume   95.33596769
_cell_formula_units_Z   1
loop_
 _symmetry_equiv_pos_site_id
 _symmetry_equiv_pos_as_xyz
  1  'x, y, z'
loop_
 _atom_site_type_symbol
 _atom_site_label
 _atom_site_symmetry_multiplicity
 _atom_site_fract_x
 _atom_site_fract_y
 _atom_site_fract_z
 _atom_site_occupancy
  Ce  Ce0  1  -0.00000000  -0.00000000  -0.00000000  1
  Ge  Ge0  1  0.62273331  0.62273331  0.00000000  1
  Ge  Ge1  1  0.37726669  0.37726669  -0.00000000  1
  Pd  Pd0  1  0.25000000  0.75000000  0.50000000  1
  Pd  Pd1  1  0.75000000  0.25000000  0.50000000  1
loop_
_geom_bond_atom_site_label_1
_geom_bond_atom_site_label_2
_geom_bond_distance
_geom_bond_site_symmetry_2
Ce0 Ge0 3.317318 1_556
Ce0 Ge1 3.317318 1_455
Ce0 Ge0 3.317318 1_545
Ce0 Ge1 3.317318 1_556
Ce0 Ge0 3.317318 1_444
Ce0 Ge1 3.317318 1_444
Ce0 Ge1 3.317318 1_545
Ce0 Ge0 3.317318 1_455
Ce0 Pd0 3.325573 1_444
Ce0 Pd0 3.325573 1_545
Ce0 Pd0 3.325573 1_544
Ce0 Pd1 3.325573 1_555
Ce0 Pd1 3.325573 1_444
Ce0 Pd0 3.325573 1_555
Ce0 Pd1 3.325573 1_455
Ce0 Pd1 3.325573 1_454
Ge0 Ge1 2.468095 1_555
Ge0 Pd1 2.525532 1_554
Ge0 Pd0 2.525532 1_655
Ge0 Pd1 2.525532 1_565
Ge0 Pd0 2.525532 1_554
Ge1 Pd1 2.525532 1_555
Ge1 Pd0 2.525532 1_544
Ge1 Pd0 2.525532 1_555
Ge1 Pd1 2.525532 1_454
