# generated using pymatgen
data_RbOsN2
_symmetry_space_group_name_H-M   'P 1'
_cell_length_a   6.30695500
_cell_length_b   7.82415500
_cell_length_c   12.39876500
_cell_angle_alpha   90.00000000
_cell_angle_beta   90.00000000
_cell_angle_gamma   90.00000000
_symmetry_Int_Tables_number   1
_chemical_formula_structural   RbOsN2
_chemical_formula_sum   'Rb8 Os8 N16'
_cell_volume   611.83681633
_cell_formula_units_Z   8
loop_
 _symmetry_equiv_pos_site_id
 _symmetry_equiv_pos_as_xyz
  1  'x, y, z'
loop_
 _atom_site_type_symbol
 _atom_site_label
 _atom_site_symmetry_multiplicity
 _atom_site_fract_x
 _atom_site_fract_y
 _atom_site_fract_z
 _atom_site_occupancy
  Rb  Rb0  1  0.25000000  0.13060800  0.00000000  1
  Rb  Rb1  1  0.75000000  0.86939200  0.50000000  1
  Rb  Rb2  1  0.75000000  0.86939200  0.00000000  1
  Rb  Rb3  1  0.25000000  0.13060800  0.50000000  1
  Rb  Rb4  1  0.40924700  0.38395200  0.75000000  1
  Rb  Rb5  1  0.90924700  0.61604800  0.75000000  1
  Rb  Rb6  1  0.59075300  0.61604800  0.25000000  1
  Rb  Rb7  1  0.09075300  0.38395200  0.25000000  1
  Os  Os0  1  0.75000000  0.36921700  0.00000000  1
  Os  Os1  1  0.25000000  0.63078300  0.50000000  1
  Os  Os2  1  0.25000000  0.63078300  0.00000000  1
  Os  Os3  1  0.75000000  0.36921700  0.50000000  1
  Os  Os4  1  0.85208300  0.11565100  0.75000000  1
  Os  Os5  1  0.35208300  0.88434900  0.75000000  1
  Os  Os6  1  0.14791700  0.88434900  0.25000000  1
  Os  Os7  1  0.64791700  0.11565100  0.25000000  1
  N  N0  1  0.14297500  0.05608800  0.75000000  1
  N  N1  1  0.64297500  0.94391200  0.75000000  1
  N  N2  1  0.85702500  0.94391200  0.25000000  1
  N  N3  1  0.35702500  0.05608800  0.25000000  1
  N  N4  1  0.79430700  0.23667100  0.62325600  1
  N  N5  1  0.29430700  0.76332900  0.87674400  1
  N  N6  1  0.20569300  0.76332900  0.12325600  1
  N  N7  1  0.70569300  0.23667100  0.37674400  1
  N  N8  1  0.20569300  0.76332900  0.37674400  1
  N  N9  1  0.70569300  0.23667100  0.12325600  1
  N  N10  1  0.79430700  0.23667100  0.87674400  1
  N  N11  1  0.29430700  0.76332900  0.62325600  1
  N  N12  1  0.50000000  0.50000000  0.50000000  1
  N  N13  1  0.00000000  0.50000000  0.00000000  1
  N  N14  1  0.50000000  0.50000000  0.00000000  1
  N  N15  1  0.00000000  0.50000000  0.50000000  1
loop_
_geom_bond_atom_site_label_1
_geom_bond_atom_site_label_2
_geom_bond_distance
_geom_bond_site_symmetry_2
N0 Os5 1.882787 1_545
N0 Os4 1.892907 1_455
N0 Rb4 3.066076 1_555
N0 Rb0 3.225472 1_556
N0 Rb3 3.225472 1_555
N1 Os4 1.882787 1_565
N1 Os5 1.892907 1_555
N1 Rb5 3.066076 1_555
N1 Rb2 3.225472 1_556
N1 Rb1 3.225472 1_555
N2 Os7 1.882787 1_565
N2 Os6 1.892907 1_655
N2 Rb6 3.066076 1_555
N2 Rb1 3.225472 1_555
N2 Rb2 3.225472 1_555
N3 Os6 1.882787 1_545
N3 Os7 1.892907 1_555
N3 Rb7 3.066076 1_555
N3 Rb0 3.225472 1_555
N3 Rb3 3.225472 1_555
N4 Os3 1.867899 1_555
N4 Os4 1.870528 1_555
N4 Rb4 3.113729 1_555
N4 Rb1 3.266711 1_545
N4 Rb3 3.359196 1_655
N4 Rb5 3.435965 1_555
N5 Os2 1.867899 1_556
N5 Os5 1.870528 1_555
N5 Rb5 3.113729 1_455
N5 Rb0 3.266711 1_566
N5 Rb2 3.359196 1_556
N5 Rb4 3.435965 1_555
N6 Os2 1.867899 1_555
N6 Os6 1.870528 1_555
N6 Rb6 3.113729 1_555
N6 Rb0 3.266711 1_565
N6 Rb2 3.359196 1_455
N6 Rb7 3.435965 1_555
N7 Os3 1.867899 1_555
N7 Os7 1.870528 1_555
N7 Rb7 3.113729 1_655
N7 Rb1 3.266711 1_545
N7 Rb3 3.359196 1_555
N7 Rb6 3.435965 1_555
N8 Os1 1.867899 1_555
N8 Os6 1.870528 1_555
N8 Rb6 3.113729 1_555
N8 Rb3 3.266711 1_565
N8 Rb1 3.359196 1_455
N8 Rb7 3.435965 1_555
N9 Os0 1.867899 1_555
N9 Os7 1.870528 1_555
N9 Rb7 3.113729 1_655
N9 Rb2 3.266711 1_545
N9 Rb0 3.359196 1_555
N9 Rb6 3.435965 1_555
N10 Os0 1.867899 1_556
N10 Os4 1.870528 1_555
N10 Rb4 3.113729 1_555
N10 Rb2 3.266711 1_546
N10 Rb0 3.359196 1_656
N10 Rb5 3.435965 1_555
N11 Os1 1.867899 1_555
N11 Os5 1.870528 1_555
N11 Rb5 3.113729 1_455
N11 Rb3 3.266711 1_565
N11 Rb1 3.359196 1_555
N11 Rb4 3.435965 1_555
N12 Os1 1.879675 1_555
N12 Os3 1.879675 1_555
N12 Rb4 3.280263 1_555
N12 Rb6 3.280263 1_555
N12 Rb3 3.292301 1_555
N12 Rb1 3.292301 1_555
N13 Os0 1.879675 1_455
N13 Os2 1.879675 1_555
N13 Rb5 3.280263 1_454
N13 Rb7 3.280263 1_555
N13 Rb0 3.292301 1_555
N13 Rb2 3.292301 1_455
N14 Os2 1.879675 1_555
N14 Os0 1.879675 1_555
N14 Rb4 3.280263 1_554
N14 Rb6 3.280263 1_555
N14 Rb0 3.292301 1_555
N14 Rb2 3.292301 1_555
N15 Os1 1.879675 1_555
N15 Os3 1.879675 1_455
N15 Rb5 3.280263 1_455
N15 Rb7 3.280263 1_555
N15 Rb3 3.292301 1_555
N15 Rb1 3.292301 1_455
