# generated using pymatgen
data_Nd2PdRu3
_symmetry_space_group_name_H-M   'P 1'
_cell_length_a   5.34207718
_cell_length_b   5.34207718
_cell_length_c   5.57964441
_cell_angle_alpha   90.00000000
_cell_angle_beta   61.39873401
_cell_angle_gamma   120.00000000
_symmetry_Int_Tables_number   1
_chemical_formula_structural   Nd2PdRu3
_chemical_formula_sum   'Nd2 Pd1 Ru3'
_cell_volume   114.91511101
_cell_formula_units_Z   1
loop_
 _symmetry_equiv_pos_site_id
 _symmetry_equiv_pos_as_xyz
  1  'x, y, z'
loop_
 _atom_site_type_symbol
 _atom_site_label
 _atom_site_symmetry_multiplicity
 _atom_site_fract_x
 _atom_site_fract_y
 _atom_site_fract_z
 _atom_site_occupancy
  Nd  Nd0  1  0.50742400  0.75371200  0.73886500  1
  Nd  Nd1  1  0.99257600  0.99628800  0.01113500  1
  Pd  Pd0  1  0.75000000  0.37500000  0.87500000  1
  Ru  Ru0  1  0.25000000  0.37500000  0.37500000  1
  Ru  Ru1  1  0.25000000  0.87500000  0.37500000  1
  Ru  Ru2  1  0.75000000  0.37500000  0.37500000  1
loop_
_geom_bond_atom_site_label_1
_geom_bond_atom_site_label_2
_geom_bond_distance
_geom_bond_site_symmetry_2
Nd0 Pd0 3.148533 1_555
Nd0 Pd0 3.148533 1_565
Nd0 Pd0 3.148538 1_455
Nd0 Ru0 3.161780 1_665
Nd0 Ru1 3.161780 1_655
Nd0 Ru2 3.161782 1_565
Nd0 Ru2 3.161782 1_555
Nd0 Ru1 3.161784 1_555
Nd0 Ru0 3.161784 1_555
Nd0 Ru1 3.335715 1_556
Nd0 Ru0 3.335715 1_556
Nd0 Ru2 3.335717 1_456
Nd1 Pd0 3.148533 1_554
Nd1 Pd0 3.148533 1_564
Nd1 Pd0 3.148538 1_664
Nd1 Ru0 3.161780 1_555
Nd1 Ru1 3.161780 1_555
Nd1 Ru2 3.161782 1_555
Nd1 Ru2 3.161782 1_565
Nd1 Ru1 3.161784 1_655
Nd1 Ru0 3.161784 1_665
Nd1 Ru1 3.335715 1_654
Nd1 Ru0 3.335715 1_664
Nd1 Ru2 3.335717 1_664
Pd0 Ru2 2.789822 1_556
Pd0 Ru0 2.789822 1_655
Pd0 Ru1 2.789822 1_546
Pd0 Ru1 2.789822 1_655
Pd0 Ru0 2.789822 1_556
Pd0 Ru2 2.789822 1_555
Ru0 Ru2 2.671039 1_555
Ru0 Ru1 2.671039 1_545
Ru0 Ru1 2.671039 1_555
Ru0 Ru2 2.671039 1_455
Ru1 Ru2 2.671039 1_455
Ru1 Ru2 2.671039 1_565
