# generated using pymatgen
data_CdRe2(NO2)4
_symmetry_space_group_name_H-M   'P 1'
_cell_length_a   7.47102155
_cell_length_b   7.47102155
_cell_length_c   7.47102155
_cell_angle_alpha   60.00000000
_cell_angle_beta   60.00000000
_cell_angle_gamma   60.00000000
_symmetry_Int_Tables_number   1
_chemical_formula_structural   CdRe2(NO2)4
_chemical_formula_sum   'Cd1 Re2 N4 O8'
_cell_volume   294.86618402
_cell_formula_units_Z   1
loop_
 _symmetry_equiv_pos_site_id
 _symmetry_equiv_pos_as_xyz
  1  'x, y, z'
loop_
 _atom_site_type_symbol
 _atom_site_label
 _atom_site_symmetry_multiplicity
 _atom_site_fract_x
 _atom_site_fract_y
 _atom_site_fract_z
 _atom_site_occupancy
  Cd  Cd0  1  0.50000000  0.50000000  0.50000000  1
  Re  Re0  1  0.00000000  0.00000000  0.00000000  1
  Re  Re1  1  0.25000000  0.25000000  0.25000000  1
  N  N0  1  0.62705900  0.62705900  0.11882200  1
  N  N1  1  0.62705900  0.11882200  0.62705900  1
  N  N2  1  0.11882200  0.62705900  0.62705900  1
  N  N3  1  0.62705900  0.62705900  0.62705900  1
  O  O0  1  0.90347400  0.90347400  0.28957700  1
  O  O1  1  0.90347400  0.28957700  0.90347400  1
  O  O2  1  0.28957700  0.90347400  0.90347400  1
  O  O3  1  0.90347400  0.90347400  0.90347400  1
  O  O4  1  0.15406400  0.15406400  0.53780800  1
  O  O5  1  0.15406400  0.53780800  0.15406400  1
  O  O6  1  0.53780800  0.15406400  0.15406400  1
  O  O7  1  0.15406400  0.15406400  0.15406400  1
loop_
_geom_bond_atom_site_label_1
_geom_bond_atom_site_label_2
_geom_bond_distance
_geom_bond_site_symmetry_2
Cd0 N3 2.325204 1_555
Cd0 N2 2.325210 1_555
Cd0 N0 2.325210 1_555
Cd0 N1 2.325210 1_555
O0 Re0 1.766438 1_665
O1 Re0 1.766438 1_656
O2 Re0 1.766438 1_566
O3 Re0 1.766444 1_666
O4 Re1 1.755647 1_555
O5 Re1 1.755647 1_555
O6 Re1 1.755647 1_555
O7 Re1 1.755647 1_555
