# generated using pymatgen
data_BaSi2
_symmetry_space_group_name_H-M   'P 1'
_cell_length_a   6.78726579
_cell_length_b   9.02691849
_cell_length_c   11.64515377
_cell_angle_alpha   90.00000000
_cell_angle_beta   90.00000000
_cell_angle_gamma   90.00000000
_symmetry_Int_Tables_number   1
_chemical_formula_structural   BaSi2
_chemical_formula_sum   'Ba8 Si16'
_cell_volume   713.47638813
_cell_formula_units_Z   8
loop_
 _symmetry_equiv_pos_site_id
 _symmetry_equiv_pos_as_xyz
  1  'x, y, z'
loop_
 _atom_site_type_symbol
 _atom_site_label
 _atom_site_symmetry_multiplicity
 _atom_site_fract_x
 _atom_site_fract_y
 _atom_site_fract_z
 _atom_site_occupancy
  Ba  Ba0  1  0.25000000  0.34073544  0.40497926  1
  Ba  Ba1  1  0.75000000  0.65926456  0.59502074  1
  Ba  Ba2  1  0.25000000  0.84073544  0.09502074  1
  Ba  Ba3  1  0.75000000  0.15926456  0.90497926  1
  Ba  Ba4  1  0.25000000  0.51451081  0.80720257  1
  Ba  Ba5  1  0.75000000  0.48548919  0.19279743  1
  Ba  Ba6  1  0.25000000  0.01451081  0.69279743  1
  Ba  Ba7  1  0.75000000  0.98548919  0.30720257  1
  Si  Si0  1  0.92597242  0.30495896  0.64400901  1
  Si  Si1  1  0.42597242  0.69504104  0.35599099  1
  Si  Si2  1  0.57402758  0.80495896  0.85599099  1
  Si  Si3  1  0.07402758  0.19504104  0.14400901  1
  Si  Si4  1  0.07402758  0.69504104  0.35599099  1
  Si  Si5  1  0.57402758  0.30495896  0.64400901  1
  Si  Si6  1  0.42597242  0.19504104  0.14400901  1
  Si  Si7  1  0.92597242  0.80495896  0.85599099  1
  Si  Si8  1  0.75000000  0.80090233  0.03314357  1
  Si  Si9  1  0.25000000  0.19909767  0.96685643  1
  Si  Si10  1  0.75000000  0.30090233  0.46685643  1
  Si  Si11  1  0.25000000  0.69909767  0.53314357  1
  Si  Si12  1  0.75000000  0.58567040  0.91041523  1
  Si  Si13  1  0.25000000  0.41432960  0.08958477  1
  Si  Si14  1  0.75000000  0.08567040  0.58958477  1
  Si  Si15  1  0.25000000  0.91432960  0.41041523  1
loop_
_geom_bond_atom_site_label_1
_geom_bond_atom_site_label_2
_geom_bond_distance
_geom_bond_site_symmetry_2
Ba0 Si4 3.461360 1_555
Ba0 Si1 3.461360 1_555
Ba0 Si10 3.487873 1_555
Ba0 Si10 3.487873 1_455
Ba0 Si3 3.520221 1_555
Ba0 Si6 3.520221 1_555
Ba0 Si0 3.562181 1_455
Ba0 Si5 3.562181 1_555
Ba0 Si11 3.562605 1_555
Ba0 Si13 3.732415 1_555
Ba0 Si15 3.849651 1_545
Ba1 Si0 3.461360 1_555
Ba1 Si5 3.461360 1_555
Ba1 Si11 3.487873 1_655
Ba1 Si11 3.487873 1_555
Ba1 Si2 3.520221 1_555
Ba1 Si7 3.520221 1_555
Ba1 Si1 3.562181 1_555
Ba1 Si4 3.562181 1_655
Ba1 Si10 3.562605 1_555
Ba1 Si12 3.732415 1_555
Ba1 Si14 3.849651 1_565
Ba2 Si3 3.461360 1_565
Ba2 Si6 3.461360 1_565
Ba2 Si8 3.487873 1_455
Ba2 Si8 3.487873 1_555
Ba2 Si4 3.520221 1_555
Ba2 Si1 3.520221 1_555
Ba2 Si2 3.562181 1_554
Ba2 Si7 3.562181 1_454
Ba2 Si9 3.562605 1_564
Ba2 Si15 3.732415 1_555
Ba2 Si13 3.849651 1_555
Ba3 Si2 3.461360 1_545
Ba3 Si7 3.461360 1_545
Ba3 Si9 3.487873 1_555
Ba3 Si9 3.487873 1_655
Ba3 Si0 3.520221 1_555
Ba3 Si5 3.520221 1_555
Ba3 Si6 3.562181 1_556
Ba3 Si3 3.562181 1_656
Ba3 Si8 3.562605 1_546
Ba3 Si14 3.732415 1_555
Ba3 Si12 3.849651 1_555
Ba4 Si9 3.400470 1_555
Ba4 Si13 3.410466 1_556
Ba4 Si5 3.467925 1_555
Ba4 Si0 3.467925 1_455
Ba4 Si2 3.468955 1_555
Ba4 Si7 3.468955 1_455
Ba4 Si11 3.600250 1_555
Ba4 Si12 3.657047 1_455
Ba4 Si12 3.657047 1_555
Ba5 Si8 3.400470 1_555
Ba5 Si12 3.410466 1_554
Ba5 Si1 3.467925 1_555
Ba5 Si4 3.467925 1_655
Ba5 Si6 3.468955 1_555
Ba5 Si3 3.468955 1_655
Ba5 Si10 3.600250 1_555
Ba5 Si13 3.657047 1_655
Ba5 Si13 3.657047 1_555
Ba6 Si11 3.400470 1_545
Ba6 Si15 3.410466 1_545
Ba6 Si2 3.467925 1_545
Ba6 Si7 3.467925 1_445
Ba6 Si5 3.468955 1_555
Ba6 Si0 3.468955 1_455
Ba6 Si9 3.600250 1_555
Ba6 Si14 3.657047 1_455
Ba6 Si14 3.657047 1_555
Ba7 Si10 3.400470 1_565
Ba7 Si14 3.410466 1_565
Ba7 Si6 3.467925 1_565
Ba7 Si3 3.467925 1_665
Ba7 Si1 3.468955 1_555
Ba7 Si4 3.468955 1_655
Ba7 Si8 3.600250 1_555
Ba7 Si15 3.657047 1_655
Ba7 Si15 3.657047 1_555
Si0 Si10 2.384052 1_555
Si0 Si5 2.388743 1_555
Si0 Si14 2.397211 1_555
Si1 Si11 2.384052 1_555
Si1 Si4 2.388743 1_555
Si1 Si15 2.397211 1_555
Si2 Si8 2.384052 1_556
Si2 Si7 2.388743 1_555
Si3 Si9 2.384052 1_554
Si3 Si6 2.388743 1_555
Si6 Si9 2.384052 1_554
Si7 Si8 2.384052 1_556
Si10 Si5 2.384052 1_555
Si10 Si14 2.411923 1_555
Si11 Si4 2.384052 1_555
Si11 Si15 2.411923 1_555
Si12 Si2 2.397211 1_555
Si12 Si7 2.397211 1_555
Si12 Si8 2.411923 1_556
Si13 Si3 2.397211 1_555
Si13 Si6 2.397211 1_555
Si13 Si9 2.411923 1_554
Si14 Si5 2.397211 1_555
Si15 Si4 2.397211 1_555
