# generated using pymatgen
data_Sr2ScFeAsO3
_symmetry_space_group_name_H-M   'P 1'
_cell_length_a   4.12717100
_cell_length_b   4.12717100
_cell_length_c   16.33529600
_cell_angle_alpha   90.00000000
_cell_angle_beta   90.00000000
_cell_angle_gamma   90.00000000
_symmetry_Int_Tables_number   1
_chemical_formula_structural   Sr2ScFeAsO3
_chemical_formula_sum   'Sr4 Sc2 Fe2 As2 O6'
_cell_volume   278.24792540
_cell_formula_units_Z   2
loop_
 _symmetry_equiv_pos_site_id
 _symmetry_equiv_pos_as_xyz
  1  'x, y, z'
loop_
 _atom_site_type_symbol
 _atom_site_label
 _atom_site_symmetry_multiplicity
 _atom_site_fract_x
 _atom_site_fract_y
 _atom_site_fract_z
 _atom_site_occupancy
  Sr  Sr0  1  0.25000000  0.25000000  0.80190300  1
  Sr  Sr1  1  0.75000000  0.75000000  0.19809700  1
  Sr  Sr2  1  0.25000000  0.25000000  0.58345400  1
  Sr  Sr3  1  0.75000000  0.75000000  0.41654600  1
  Sc  Sc0  1  0.75000000  0.75000000  0.68756900  1
  Sc  Sc1  1  0.25000000  0.25000000  0.31243100  1
  Fe  Fe0  1  0.25000000  0.75000000  0.00000000  1
  Fe  Fe1  1  0.75000000  0.25000000  0.00000000  1
  As  As0  1  0.75000000  0.75000000  0.90143900  1
  As  As1  1  0.25000000  0.25000000  0.09856100  1
  O  O0  1  0.25000000  0.75000000  0.70682900  1
  O  O1  1  0.75000000  0.25000000  0.70682900  1
  O  O2  1  0.75000000  0.25000000  0.29317100  1
  O  O3  1  0.25000000  0.75000000  0.29317100  1
  O  O4  1  0.75000000  0.75000000  0.56501300  1
  O  O5  1  0.25000000  0.25000000  0.43498700  1
loop_
_geom_bond_atom_site_label_1
_geom_bond_atom_site_label_2
_geom_bond_distance
_geom_bond_site_symmetry_2
As0 Fe0 2.617357 1_556
As0 Fe1 2.617357 1_556
As0 Fe0 2.617357 1_656
As0 Fe1 2.617357 1_566
As0 Sr0 3.340731 1_565
As0 Sr0 3.340731 1_665
As0 Sr0 3.340731 1_655
As0 Sr0 3.340731 1_555
As0 Sc0 3.493630 1_555
As1 Fe1 2.617357 1_455
As1 Fe1 2.617357 1_555
As1 Fe0 2.617357 1_545
As1 Fe0 2.617357 1_555
As1 Sr1 3.340731 1_545
As1 Sr1 3.340731 1_455
As1 Sr1 3.340731 1_555
As1 Sr1 3.340731 1_445
As1 Sc1 3.493630 1_555
O0 Sc0 2.087431 1_455
O0 Sc0 2.087431 1_555
O0 Sr0 2.582709 1_555
O0 Sr0 2.582709 1_565
O0 Sr2 2.884457 1_555
O0 Sr2 2.884457 1_565
O1 Sc0 2.087431 1_545
O1 Sc0 2.087431 1_555
O1 Sr0 2.582709 1_655
O1 Sr0 2.582709 1_555
O1 Sr2 2.884457 1_555
O1 Sr2 2.884457 1_655
O2 Sc1 2.087431 1_555
O2 Sc1 2.087431 1_655
O2 Sr1 2.582709 1_545
O2 Sr1 2.582709 1_555
O2 Sr3 2.884457 1_545
O2 Sr3 2.884457 1_555
O3 Sc1 2.087431 1_555
O3 Sc1 2.087431 1_565
O3 Sr1 2.582709 1_455
O3 Sr1 2.582709 1_555
O3 Sr3 2.884457 1_455
O3 Sr3 2.884457 1_555
O4 Sc0 2.001989 1_555
O4 Sr3 2.425252 1_555
O4 Sr2 2.933857 1_565
O4 Sr2 2.933857 1_555
O4 Sr2 2.933857 1_655
O4 Sr2 2.933857 1_665
O5 Sc1 2.001989 1_555
O5 Sr2 2.425252 1_555
O5 Sr3 2.933857 1_445
O5 Sr3 2.933857 1_455
O5 Sr3 2.933857 1_555
O5 Sr3 2.933857 1_545
