# generated using pymatgen
data_RbMgCO3F
_symmetry_space_group_name_H-M   'P 1'
_cell_length_a   9.17290409
_cell_length_b   9.17290409
_cell_length_c   4.01777200
_cell_angle_alpha   90.00000000
_cell_angle_beta   90.00000000
_cell_angle_gamma   120.00000068
_symmetry_Int_Tables_number   1
_chemical_formula_structural   RbMgCO3F
_chemical_formula_sum   'Rb3 Mg3 C3 O9 F3'
_cell_volume   292.77205579
_cell_formula_units_Z   3
loop_
 _symmetry_equiv_pos_site_id
 _symmetry_equiv_pos_as_xyz
  1  'x, y, z'
loop_
 _atom_site_type_symbol
 _atom_site_label
 _atom_site_symmetry_multiplicity
 _atom_site_fract_x
 _atom_site_fract_y
 _atom_site_fract_z
 _atom_site_occupancy
  Rb  Rb0  1  0.00000000  0.38254600  0.00000000  1
  Rb  Rb1  1  0.61745400  0.61745400  0.00000000  1
  Rb  Rb2  1  0.38254600  0.00000000  0.00000000  1
  Mg  Mg0  1  0.00000000  0.71882800  0.50000000  1
  Mg  Mg1  1  0.28117200  0.28117200  0.50000000  1
  Mg  Mg2  1  0.71882800  0.00000000  0.50000000  1
  C  C0  1  0.66666700  0.33333300  0.50000000  1
  C  C1  1  0.33333300  0.66666700  0.50000000  1
  C  C2  1  0.00000000  0.00000000  0.50000000  1
  O  O0  1  0.79902600  0.48231800  0.50000000  1
  O  O1  1  0.51768200  0.31670900  0.50000000  1
  O  O2  1  0.68329100  0.20097400  0.50000000  1
  O  O3  1  0.48231800  0.79902600  0.50000000  1
  O  O4  1  0.31670900  0.51768200  0.50000000  1
  O  O5  1  0.20097400  0.68329100  0.50000000  1
  O  O6  1  0.00000000  0.14152100  0.50000000  1
  O  O7  1  0.85847900  0.85847900  0.50000000  1
  O  O8  1  0.14152100  0.00000000  0.50000000  1
  F  F0  1  0.72111400  0.00000000  0.00000000  1
  F  F1  1  0.00000000  0.72111400  0.00000000  1
  F  F2  1  0.27888600  0.27888600  0.00000000  1
loop_
_geom_bond_atom_site_label_1
_geom_bond_atom_site_label_2
_geom_bond_distance
_geom_bond_site_symmetry_2
Mg0 O0 2.026260 1_455
Mg0 O5 2.026266 1_555
Mg0 O8 2.233638 1_565
Mg0 O7 2.233638 1_455
Mg1 O4 2.026257 1_555
Mg1 O1 2.026257 1_555
Mg1 O6 2.233638 1_555
Mg1 O8 2.233638 1_555
Mg2 O3 2.026260 1_545
Mg2 O2 2.026266 1_555
Mg2 O6 2.233638 1_655
Mg2 O7 2.233638 1_545
C0 O2 1.297102 1_555
C0 O0 1.297113 1_555
C0 O1 1.297120 1_555
C1 O5 1.297102 1_555
C1 O3 1.297113 1_555
C1 O4 1.297120 1_555
C2 O7 1.298159 1_445
C2 O6 1.298159 1_555
C2 O8 1.298159 1_555
O0 Rb0 3.155779 1_655
O0 Rb0 3.155779 1_656
O0 Rb1 3.226581 1_555
O0 Rb1 3.226581 1_556
O1 Rb1 3.155773 1_556
O1 Rb1 3.155773 1_555
O1 Rb2 3.226588 1_555
O1 Rb2 3.226588 1_556
O2 Rb2 3.155774 1_556
O2 Rb2 3.155774 1_555
O2 Rb0 3.226587 1_655
O2 Rb0 3.226587 1_656
O3 Rb2 3.155779 1_565
O3 Rb2 3.155779 1_566
O3 Rb1 3.226581 1_555
O3 Rb1 3.226581 1_556
O4 Rb1 3.155773 1_556
O4 Rb1 3.155773 1_555
O4 Rb0 3.226588 1_555
O4 Rb0 3.226588 1_556
O5 Rb0 3.155774 1_555
O5 Rb0 3.155774 1_556
O5 Rb2 3.226587 1_565
O5 Rb2 3.226587 1_566
O6 Rb0 2.987256 1_555
O6 Rb0 2.987256 1_556
O7 Rb1 2.987256 1_556
O7 Rb1 2.987256 1_555
O8 Rb2 2.987256 1_556
O8 Rb2 2.987256 1_555
F0 Mg2 2.008995 1_555
F0 Mg2 2.008995 1_554
F0 Rb2 3.105652 1_555
F0 Rb0 3.143405 1_655
F0 Rb1 3.143405 1_545
F1 Mg0 2.008995 1_555
F1 Mg0 2.008995 1_554
F1 Rb0 3.105652 1_555
F1 Rb2 3.143405 1_565
F1 Rb1 3.143405 1_455
F2 Mg1 2.008995 1_554
F2 Mg1 2.008995 1_555
F2 Rb1 3.105652 1_555
F2 Rb2 3.143405 1_555
F2 Rb0 3.143405 1_555
