# generated using pymatgen
data_SnO2
_symmetry_space_group_name_H-M   'P 1'
_cell_length_a   11.26322931
_cell_length_b   11.25932144
_cell_length_c   11.78235922
_cell_angle_alpha   97.06407533
_cell_angle_beta   92.39583314
_cell_angle_gamma   91.38787132
_symmetry_Int_Tables_number   1
_chemical_formula_structural   SnO2
_chemical_formula_sum   'Sn34 O68'
_cell_volume   1480.90744439
_cell_formula_units_Z   34
loop_
 _symmetry_equiv_pos_site_id
 _symmetry_equiv_pos_as_xyz
  1  'x, y, z'
loop_
 _atom_site_type_symbol
 _atom_site_label
 _atom_site_symmetry_multiplicity
 _atom_site_fract_x
 _atom_site_fract_y
 _atom_site_fract_z
 _atom_site_occupancy
  Sn  Sn0  1  0.45581676  0.51953392  0.70156921  1
  Sn  Sn1  1  0.14606782  0.07110875  0.32863580  1
  Sn  Sn2  1  0.40301860  0.58951429  0.97615528  1
  Sn  Sn3  1  0.00715115  0.16276561  0.60247541  1
  Sn  Sn4  1  0.18474904  0.40915534  0.73047446  1
  Sn  Sn5  1  0.70554354  0.35109945  0.97075897  1
  Sn  Sn6  1  0.84832584  0.68046878  0.15099839  1
  Sn  Sn7  1  0.10824545  0.48268301  0.24568827  1
  Sn  Sn8  1  0.74963065  0.93403758  0.63457478  1
  Sn  Sn9  1  0.15806179  0.87648385  0.49657083  1
  Sn  Sn10  1  0.06888038  0.62894568  0.97321612  1
  Sn  Sn11  1  0.40838504  0.85931192  0.62056021  1
  Sn  Sn12  1  0.55559204  0.76686448  0.83701647  1
  Sn  Sn13  1  0.71846806  0.99892314  0.93766189  1
  Sn  Sn14  1  0.60078042  0.61323582  0.25062467  1
  Sn  Sn15  1  0.44785936  0.94018575  0.05409434  1
  Sn  Sn16  1  0.95167231  0.57997924  0.54793787  1
  Sn  Sn17  1  0.22313198  0.58692271  0.47993726  1
  Sn  Sn18  1  0.78014587  0.35452177  0.63397651  1
  Sn  Sn19  1  0.08909719  0.97646803  0.02006440  1
  Sn  Sn20  1  0.84911530  0.70659205  0.81339099  1
  Sn  Sn21  1  0.42279424  0.39875014  0.39588319  1
  Sn  Sn22  1  0.80456728  0.38897858  0.30883772  1
  Sn  Sn23  1  0.06334699  0.86274431  0.72186750  1
  Sn  Sn24  1  0.95015017  0.18872893  0.11305802  1
  Sn  Sn25  1  0.64647621  0.63019194  0.52306492  1
  Sn  Sn26  1  0.22497595  0.76603058  0.19372258  1
  Sn  Sn27  1  0.64932443  0.13549213  0.18008243  1
  Sn  Sn28  1  0.46603184  0.02679008  0.35026460  1
  Sn  Sn29  1  0.26984117  0.24390642  0.11713913  1
  Sn  Sn30  1  0.25566067  0.12411020  0.86390177  1
  Sn  Sn31  1  0.96907504  0.30200372  0.84481038  1
  Sn  Sn32  1  0.33995756  0.18978464  0.58930345  1
  Sn  Sn33  1  0.83240970  0.06590341  0.38486172  1
  O  O0  1  0.00957682  0.13587452  0.42023864  1
  O  O1  1  0.81173905  0.65882215  0.48126610  1
  O  O2  1  0.29548763  0.75618636  0.48279423  1
  O  O3  1  0.62111310  0.49285971  0.62431172  1
  O  O4  1  0.86174686  0.56134265  0.69491951  1
  O  O5  1  0.22421108  0.63116021  0.28776175  1
  O  O6  1  0.25750343  0.17910082  0.26697091  1
  O  O7  1  0.17019489  0.25325992  0.59751620  1
  O  O8  1  0.58531526  0.48767408  0.38026882  1
  O  O9  1  0.78623884  0.34330642  0.80734265  1
  O  O10  1  0.65952775  0.75309994  0.67716952  1
  O  O11  1  0.65501955  0.06795238  0.34050962  1
  O  O12  1  0.37422886  0.86815277  0.19565711  1
  O  O13  1  0.89733718  0.30915728  0.00346053  1
  O  O14  1  0.95856602  0.13539885  0.76053310  1
  O  O15  1  0.04691842  0.55674908  0.40229432  1
  O  O16  1  0.36212356  0.23155423  0.97676197  1
  O  O17  1  0.59676185  0.26969288  0.63050010  1
  O  O18  1  0.17022596  0.38819052  0.11162502  1
  O  O19  1  0.42506402  0.23495197  0.44783370  1
  O  O20  1  0.25532293  0.04276527  0.47344163  1
  O  O21  1  0.36483819  0.35887823  0.68161340  1
  O  O22  1  0.72555478  0.80420500  0.90415128  1
  O  O23  1  0.56387929  0.15688127  0.60834196  1
  O  O24  1  0.65815285  0.31319471  0.23281955  1
  O  O25  1  0.68915923  0.17242294  0.01533330  1
  O  O26  1  0.14579336  0.88307559  0.32196159  1
  O  O27  1  0.83106794  0.15403837  0.23688216  1
  O  O28  1  0.03148130  0.97598333  0.58370944  1
  O  O29  1  0.46921787  0.09436617  0.18355525  1
  O  O30  1  0.84188672  0.41321663  0.48050468  1
  O  O31  1  0.13497930  0.52802877  0.61659133  1
  O  O32  1  0.05881112  0.73922543  0.56931388  1
  O  O33  1  0.96812016  0.34309350  0.66696420  1
  O  O34  1  0.57437062  0.72364243  0.39787845  1
  O  O35  1  0.82294623  0.83177291  0.26655021  1
  O  O36  1  0.50251840  0.53684772  0.10443820  1
  O  O37  1  0.03864985  0.73449085  0.83883503  1
  O  O38  1  0.42475347  0.70940846  0.71408488  1
  O  O39  1  0.52305014  0.94642843  0.88964381  1
  O  O40  1  0.96671184  0.34974854  0.23973780  1
  O  O41  1  0.77631533  0.54161062  0.23880918  1
  O  O42  1  0.88239380  0.64162847  0.97186659  1
  O  O43  1  0.35324780  0.09891032  0.72557508  1
  O  O44  1  0.89833282  0.89747624  0.35842164  1
  O  O45  1  0.90160914  0.02736824  0.00144152  1
  O  O46  1  0.41532715  0.34735385  0.21466833  1
  O  O47  1  0.11935026  0.98782489  0.85160498  1
  O  O48  1  0.28296887  0.00553176  0.00988091  1
  O  O49  1  0.88486838  0.85166161  0.73030338  1
  O  O50  1  0.31107918  0.53142536  0.82454068  1
  O  O51  1  0.38414519  0.47047140  0.22031931  1
  O  O52  1  0.24026699  0.42657911  0.37742136  1
  O  O53  1  0.05955229  0.47532106  0.86179625  1
  O  O54  1  0.54692522  0.57653169  0.85743705  1
  O  O55  1  0.24187688  0.63492187  0.04563013  1
  O  O56  1  0.15871211  0.27354971  0.83126844  1
  O  O57  1  0.71187616  0.03562731  0.77891745  1
  O  O58  1  0.04075962  0.04650406  0.18473431  1
  O  O59  1  0.82373598  0.16596894  0.54381141  1
  O  O60  1  0.11162347  0.16550627  0.02616200  1
  O  O61  1  0.23168419  0.88680166  0.66667628  1
  O  O62  1  0.64118101  0.96402849  0.09069306  1
  O  O63  1  0.01590268  0.60198571  0.14564914  1
  O  O64  1  0.39623866  0.53501441  0.53184942  1
  O  O65  1  0.44566498  0.76326473  0.97624542  1
  O  O66  1  0.67333634  0.70591293  0.13269579  1
  O  O67  1  0.09539493  0.81060976  0.07350679  1
loop_
_geom_bond_atom_site_label_1
_geom_bond_atom_site_label_2
_geom_bond_distance
_geom_bond_site_symmetry_2
O0 Sn1 2.014813 1_555
O0 Sn3 2.132651 1_555
O0 Sn33 2.133042 1_455
O1 Sn25 1.974302 1_555
O1 Sn16 2.006242 1_555
O2 Sn17 2.050374 1_555
O2 Sn9 2.079732 1_555
O2 Sn11 2.211853 1_555
O3 Sn25 2.087201 1_555
O3 Sn0 2.118142 1_555
O3 Sn18 2.410240 1_555
O4 Sn20 2.027230 1_555
O4 Sn16 2.072373 1_555
O4 Sn18 2.492564 1_555
O5 Sn26 1.986892 1_555
O5 Sn7 2.093509 1_555
O5 Sn17 2.377941 1_555
O6 Sn1 1.949688 1_555
O6 Sn29 2.000172 1_555
O7 Sn32 2.059328 1_555
O7 Sn3 2.084926 1_555
O7 Sn4 2.202329 1_555
O8 Sn21 2.090872 1_555
O8 Sn14 2.214445 1_555
O8 Sn25 2.250710 1_555
O9 Sn18 2.060405 1_555
O9 Sn5 2.156312 1_555
O9 Sn31 2.161678 1_555
O10 Sn25 2.140868 1_555
O10 Sn12 2.250083 1_555
O10 Sn8 2.371923 1_555
O11 Sn33 2.045353 1_555
O11 Sn27 2.121572 1_555
O11 Sn28 2.178247 1_555
O12 Sn26 2.011301 1_555
O12 Sn15 2.131522 1_555
O12 Sn28 2.555510 1_565
O13 Sn31 2.060566 1_554
O13 Sn24 2.065292 1_555
O13 Sn5 2.250018 1_554
O14 Sn31 2.010011 1_555
O14 Sn3 2.020076 1_655
O15 Sn16 2.054535 1_455
O15 Sn7 2.081653 1_555
O15 Sn17 2.151876 1_555
O16 Sn29 1.982290 1_556
O16 Sn30 2.017518 1_555
O17 O23 1.306238 1_555
O17 Sn18 2.251208 1_555
O18 Sn7 1.956828 1_555
O18 Sn29 2.002592 1_555
O19 Sn21 2.013760 1_555
O19 Sn32 2.067447 1_555
O19 Sn28 2.541995 1_555
O20 Sn1 2.122382 1_555
O20 Sn32 2.184348 1_555
O20 Sn9 2.197867 1_545
O21 Sn0 2.040295 1_555
O21 Sn32 2.079805 1_555
O21 Sn4 2.199847 1_555
O22 Sn20 2.048834 1_555
O22 Sn12 2.054197 1_555
O22 Sn13 2.183360 1_555
O23 Sn32 2.562589 1_555
O24 Sn22 1.967285 1_555
O24 Sn27 2.019564 1_555
O25 Sn13 2.092698 1_544
O25 Sn27 2.098692 1_555
O25 Sn5 2.146419 1_554
O26 Sn9 2.066738 1_555
O26 Sn1 2.108822 1_565
O26 Sn26 2.120131 1_555
O27 Sn24 2.087679 1_555
O27 Sn33 2.109267 1_555
O27 Sn27 2.124183 1_555
O28 Sn9 2.063651 1_555
O28 Sn3 2.113145 1_565
O28 Sn23 2.210894 1_555
O29 Sn27 2.073000 1_555
O29 Sn15 2.167017 1_545
O29 Sn28 2.193297 1_555
O30 Sn22 2.032200 1_555
O30 Sn18 2.137036 1_555
O30 Sn16 2.263685 1_555
O31 Sn4 2.078770 1_555
O31 Sn17 2.093404 1_555
O31 Sn16 2.300956 1_455
O32 Sn16 2.119717 1_455
O32 Sn23 2.131103 1_555
O32 Sn9 2.166757 1_555
O33 Sn3 2.141196 1_655
O33 Sn18 2.146357 1_555
O33 Sn31 2.200421 1_555
O33 Sn4 2.586322 1_655
O34 Sn14 2.043180 1_555
O34 Sn25 2.065246 1_555
O35 O44 1.461413 1_555
O35 Sn6 2.079224 1_555
O36 Sn2 2.000790 1_554
O36 Sn14 2.088422 1_555
O37 Sn10 2.114803 1_555
O37 Sn23 2.136361 1_555
O37 Sn20 2.153286 1_455
O38 Sn12 2.057430 1_555
O38 Sn11 2.133661 1_555
O38 Sn0 2.162776 1_555
O39 Sn12 2.086369 1_555
O39 Sn15 2.155070 1_556
O39 Sn13 2.294476 1_555
O40 Sn22 2.065953 1_555
O40 Sn7 2.153063 1_655
O40 Sn24 2.200965 1_555
O41 Sn22 2.022055 1_555
O41 Sn6 2.139913 1_555
O41 Sn14 2.156679 1_555
O42 Sn10 2.108268 1_655
O42 Sn20 2.110140 1_555
O42 Sn6 2.154510 1_556
O43 Sn30 1.999016 1_555
O43 Sn32 2.009641 1_555
O44 Sn33 2.046179 1_565
O45 Sn24 2.152515 1_555
O45 Sn13 2.168287 1_544
O45 Sn19 2.210604 1_645
O46 O51 1.432559 1_555
O46 Sn21 2.139976 1_555
O46 Sn29 2.187049 1_555
O47 Sn23 2.016128 1_555
O47 Sn19 2.046692 1_556
O47 Sn30 2.131983 1_565
O48 Sn15 2.083620 1_545
O48 Sn19 2.210572 1_545
O48 Sn30 2.318605 1_554
O49 Sn23 2.018450 1_655
O49 Sn20 2.045209 1_555
O49 Sn8 2.152838 1_555
O50 Sn2 2.053390 1_555
O50 Sn4 2.132182 1_555
O50 Sn0 2.221520 1_555
O51 Sn21 2.339473 1_555
O52 Sn17 2.062901 1_555
O52 Sn21 2.093461 1_555
O52 Sn7 2.261186 1_555
O53 Sn10 2.036542 1_555
O53 Sn31 2.162685 1_455
O53 Sn4 2.210724 1_555
O54 Sn0 2.087640 1_555
O54 Sn2 2.180793 1_555
O54 Sn12 2.186000 1_555
O55 Sn2 2.071671 1_554
O55 Sn10 2.090377 1_554
O55 Sn26 2.160518 1_555
O56 Sn4 2.069054 1_555
O56 Sn30 2.093878 1_555
O56 Sn31 2.177003 1_455
O57 Sn13 1.963321 1_545
O57 Sn8 1.996774 1_545
O58 Sn1 2.014631 1_555
O58 Sn19 2.101289 1_545
O58 Sn24 2.158429 1_455
O59 Sn33 2.070741 1_555
O59 Sn3 2.153402 1_655
O59 Sn18 2.327242 1_555
O60 Sn19 2.129438 1_545
O60 Sn24 2.130070 1_455
O60 Sn29 2.152969 1_555
O60 Sn30 2.565338 1_554
O61 Sn23 2.052476 1_555
O61 Sn11 2.104972 1_555
O61 Sn9 2.125375 1_555
O62 Sn27 2.080384 1_565
O62 Sn13 2.109997 1_554
O62 Sn15 2.205428 1_555
O63 Sn6 2.103419 1_455
O63 Sn7 2.151759 1_555
O63 Sn10 2.195481 1_554
O64 Sn0 2.111559 1_555
O64 Sn21 2.113655 1_555
O64 Sn17 2.135557 1_555
O65 Sn2 2.002950 1_555
O65 Sn15 2.087191 1_556
O65 Sn12 2.099860 1_555
O66 Sn6 2.005049 1_555
O66 Sn14 2.024250 1_555
O67 Sn19 2.044701 1_555
O67 Sn26 2.103771 1_555
O67 Sn10 2.239566 1_554
