# generated using pymatgen
data_Si
_symmetry_space_group_name_H-M   'P 1'
_cell_length_a   9.98082303
_cell_length_b   10.53754465
_cell_length_c   10.53754465
_cell_angle_alpha   105.14085040
_cell_angle_beta   90.00000000
_cell_angle_gamma   90.00000000
_symmetry_Int_Tables_number   1
_chemical_formula_structural   Si
_chemical_formula_sum   Si46
_cell_volume   1069.79733461
_cell_formula_units_Z   46
loop_
 _symmetry_equiv_pos_site_id
 _symmetry_equiv_pos_as_xyz
  1  'x, y, z'
loop_
 _atom_site_type_symbol
 _atom_site_label
 _atom_site_symmetry_multiplicity
 _atom_site_fract_x
 _atom_site_fract_y
 _atom_site_fract_z
 _atom_site_occupancy
  Si  Si0  1  0.05912873  0.33181036  0.09356950  1
  Si  Si1  1  0.94087127  0.90643050  0.66818964  1
  Si  Si2  1  0.44087127  0.33181036  0.09356950  1
  Si  Si3  1  0.55912873  0.90643050  0.66818964  1
  Si  Si4  1  0.94087127  0.66818964  0.90643050  1
  Si  Si5  1  0.05912873  0.09356950  0.33181036  1
  Si  Si6  1  0.55912873  0.66818964  0.90643050  1
  Si  Si7  1  0.44087127  0.09356950  0.33181036  1
  Si  Si8  1  0.12670205  0.55155602  0.19944938  1
  Si  Si9  1  0.87329795  0.80055062  0.44844398  1
  Si  Si10  1  0.37329795  0.55155602  0.19944938  1
  Si  Si11  1  0.62670205  0.80055062  0.44844398  1
  Si  Si12  1  0.87329795  0.44844398  0.80055062  1
  Si  Si13  1  0.12670205  0.19944938  0.55155602  1
  Si  Si14  1  0.62670205  0.44844398  0.80055062  1
  Si  Si15  1  0.37329795  0.19944938  0.55155602  1
  Si  Si16  1  0.05916875  0.72600048  0.11066368  1
  Si  Si17  1  0.94083125  0.88933632  0.27399952  1
  Si  Si18  1  0.44083125  0.72600048  0.11066368  1
  Si  Si19  1  0.55916875  0.88933632  0.27399952  1
  Si  Si20  1  0.94083125  0.27399952  0.88933632  1
  Si  Si21  1  0.05916875  0.11066368  0.72600048  1
  Si  Si22  1  0.55916875  0.27399952  0.88933632  1
  Si  Si23  1  0.44083125  0.11066368  0.72600048  1
  Si  Si24  1  -0.00000000  0.60092342  0.39907658  1
  Si  Si25  1  0.50000000  0.60092342  0.39907658  1
  Si  Si26  1  -0.00000000  0.39907658  0.60092342  1
  Si  Si27  1  0.50000000  0.39907658  0.60092342  1
  Si  Si28  1  0.93943148  0.24823437  0.24823437  1
  Si  Si29  1  0.06056852  0.75176563  0.75176563  1
  Si  Si30  1  0.56056852  0.24823437  0.24823437  1
  Si  Si31  1  0.43943148  0.75176563  0.75176563  1
  Si  Si32  1  0.86878562  0.42119853  0.42119853  1
  Si  Si33  1  0.13121438  0.57880147  0.57880147  1
  Si  Si34  1  0.63121438  0.42119853  0.42119853  1
  Si  Si35  1  0.36878562  0.57880147  0.57880147  1
  Si  Si36  1  0.75000000  0.92865192  0.16033429  1
  Si  Si37  1  0.25000000  0.83966571  0.07134808  1
  Si  Si38  1  0.25000000  0.07134808  0.83966571  1
  Si  Si39  1  0.75000000  0.16033429  0.92865192  1
  Si  Si40  1  0.75000000  0.94252582  0.80091282  1
  Si  Si41  1  0.25000000  0.19908718  0.05747418  1
  Si  Si42  1  0.25000000  0.05747418  0.19908718  1
  Si  Si43  1  0.75000000  0.80091282  0.94252582  1
  Si  Si44  1  0.75000000  0.14396255  0.14396255  1
  Si  Si45  1  0.25000000  0.85603745  0.85603745  1
loop_
_geom_bond_atom_site_label_1
_geom_bond_atom_site_label_2
_geom_bond_distance
_geom_bond_site_symmetry_2
Si0 Si41 2.334957 1_555
Si0 Si28 2.368304 1_455
Si0 Si20 2.389960 1_454
Si0 Si8 2.389978 1_555
Si1 Si40 2.334957 1_555
Si1 Si29 2.368304 1_655
Si1 Si21 2.389960 1_665
Si1 Si9 2.389978 1_555
Si2 Si41 2.334957 1_555
Si2 Si30 2.368304 1_555
Si2 Si22 2.389960 1_554
Si3 Si40 2.334957 1_555
Si3 Si31 2.368304 1_555
Si4 Si43 2.334957 1_555
Si10 Si18 2.367928 1_555
Si10 Si2 2.389978 1_555
Si10 Si25 2.392323 1_555
Si10 Si8 2.461230 1_555
Si11 Si19 2.367928 1_555
Si11 Si3 2.389978 1_555
Si11 Si25 2.392323 1_555
Si11 Si9 2.461230 1_555
Si12 Si20 2.367928 1_555
Si12 Si4 2.389978 1_555
Si12 Si26 2.392323 1_655
Si12 Si14 2.461230 1_555
Si13 Si21 2.367928 1_555
Si13 Si5 2.389978 1_555
Si13 Si26 2.392323 1_555
Si13 Si15 2.461230 1_555
Si14 Si22 2.367928 1_555
Si14 Si6 2.389978 1_555
Si14 Si27 2.392323 1_555
Si15 Si23 2.367928 1_555
Si15 Si7 2.389978 1_555
Si15 Si27 2.392323 1_555
Si16 Si37 2.343750 1_555
Si16 Si8 2.367928 1_555
Si16 Si4 2.389960 1_454
Si16 Si17 2.402556 1_455
Si17 Si36 2.343750 1_555
Si17 Si9 2.367928 1_555
Si17 Si5 2.389960 1_665
Si18 Si37 2.343750 1_555
Si18 Si6 2.389960 1_554
Si18 Si19 2.402556 1_555
Si19 Si36 2.343750 1_555
Si19 Si7 2.389960 1_565
Si20 Si39 2.343750 1_555
Si20 Si21 2.402556 1_655
Si21 Si38 2.343750 1_555
Si22 Si39 2.343750 1_555
Si22 Si23 2.402556 1_555
Si23 Si38 2.343750 1_555
Si23 Si3 2.389960 1_545
Si24 Si33 2.363639 1_555
Si24 Si32 2.363639 1_455
Si24 Si9 2.392323 1_455
Si24 Si8 2.392323 1_555
Si25 Si34 2.363639 1_555
Si25 Si35 2.363639 1_555
Si26 Si33 2.363639 1_555
Si26 Si32 2.363639 1_455
Si27 Si34 2.363639 1_555
Si27 Si35 2.363639 1_555
Si28 Si44 2.314863 1_555
Si28 Si32 2.325018 1_555
Si28 Si5 2.368304 1_655
Si29 Si45 2.314863 1_555
Si29 Si33 2.325018 1_555
Si29 Si4 2.368304 1_455
Si30 Si44 2.314863 1_555
Si30 Si34 2.325018 1_555
Si30 Si7 2.368304 1_555
Si31 Si45 2.314863 1_555
Si31 Si35 2.325018 1_555
Si31 Si6 2.368304 1_555
Si32 Si34 2.371157 1_555
Si33 Si35 2.371157 1_555
Si36 Si44 2.319891 1_565
Si36 Si43 2.337902 1_554
Si37 Si45 2.319891 1_554
Si37 Si42 2.337902 1_565
Si38 Si45 2.319891 1_545
Si38 Si41 2.337902 1_556
Si39 Si44 2.319891 1_556
Si39 Si40 2.337902 1_545
Si40 Si43 2.370000 1_555
Si41 Si42 2.370000 1_555
Si42 Si7 2.334957 1_555
Si42 Si5 2.334957 1_555
Si43 Si6 2.334957 1_555
