# generated using pymatgen
data_Li3MnCoO5
_symmetry_space_group_name_H-M   'P 1'
_cell_length_a   12.15478656
_cell_length_b   12.15478656
_cell_length_c   5.16343060
_cell_angle_alpha   86.87894964
_cell_angle_beta   86.87894964
_cell_angle_gamma   13.65410142
_symmetry_Int_Tables_number   1
_chemical_formula_structural   Li3MnCoO5
_chemical_formula_sum   'Li6 Mn2 Co2 O10'
_cell_volume   179.80472918
_cell_formula_units_Z   2
loop_
 _symmetry_equiv_pos_site_id
 _symmetry_equiv_pos_as_xyz
  1  'x, y, z'
loop_
 _atom_site_type_symbol
 _atom_site_label
 _atom_site_symmetry_multiplicity
 _atom_site_fract_x
 _atom_site_fract_y
 _atom_site_fract_z
 _atom_site_occupancy
  Li  Li0  1  0.49439500  0.49439500  0.49692000  1
  Li  Li1  1  0.09730800  0.09730800  0.30716800  1
  Li  Li2  1  0.70361500  0.70361500  0.10200500  1
  Li  Li3  1  0.30590400  0.30590400  0.88709300  1
  Li  Li4  1  0.89633500  0.89633500  0.70112300  1
  Li  Li5  1  0.40091100  0.40091100  0.20509800  1
  Mn  Mn0  1  0.99755800  0.99755800  0.01857300  1
  Mn  Mn1  1  0.20012900  0.20012900  0.59215500  1
  Co  Co0  1  0.59938700  0.59938700  0.80526800  1
  Co  Co1  1  0.80872900  0.80872900  0.36706300  1
  O  O0  1  0.45750000  0.45750000  0.86580700  1
  O  O1  1  0.05282200  0.05282200  0.69016000  1
  O  O2  1  0.65434500  0.65434500  0.45599200  1
  O  O3  1  0.24735300  0.24735300  0.28802900  1
  O  O4  1  0.84561600  0.84561600  0.05905100  1
  O  O5  1  0.54648000  0.54648000  0.14460700  1
  O  O6  1  0.14817500  0.14817500  0.91304000  1
  O  O7  1  0.74164300  0.74164300  0.73539900  1
  O  O8  1  0.34672000  0.34672000  0.54499000  1
  O  O9  1  0.95507400  0.95507400  0.32045800  1
loop_
_geom_bond_atom_site_label_1
_geom_bond_atom_site_label_2
_geom_bond_distance
_geom_bond_site_symmetry_2
Li0 O9 1.978251 1_455
Li0 O9 1.978251 1_545
Li0 O0 2.057914 1_555
Li0 O5 2.153831 1_555
Li0 O1 2.286130 1_655
Li0 O1 2.286130 1_565
Li1 O5 2.100069 1_545
Li1 O5 2.100069 1_455
Li1 O2 2.165531 1_545
Li1 O2 2.165531 1_455
Li1 O1 2.197912 1_555
Li1 O6 2.318379 1_554
Li2 O7 2.057962 1_554
Li2 O3 2.058154 1_655
Li2 O3 2.058154 1_565
Li2 O2 2.125256 1_555
Li2 O6 2.230144 1_654
Li2 O6 2.230144 1_564
Li3 O4 1.971837 1_546
Li3 O4 1.971837 1_456
Li3 O8 1.974840 1_555
Li3 O7 2.289158 1_545
Li3 O7 2.289158 1_455
Li3 O3 2.441758 1_556
Li4 O8 2.068245 1_565
Li4 O8 2.068245 1_655
Li4 O4 2.160135 1_556
Li4 O0 2.264513 1_655
Li4 O0 2.264513 1_565
Li4 O9 2.359632 1_555
Li5 O9 2.058400 1_545
Li5 O9 2.058400 1_455
Li5 O8 2.130544 1_555
Li5 O4 2.132615 1_455
Li5 O4 2.132615 1_545
Li5 O0 2.161580 1_554
Mn0 O9 1.818235 1_555
Mn0 O0 1.930900 1_654
Mn0 O0 1.930900 1_564
Mn0 O5 1.997452 1_565
Mn0 O5 1.997452 1_655
Mn0 O1 2.099237 1_664
Mn1 O3 1.889157 1_555
Mn1 O7 1.928745 1_455
Mn1 O7 1.928745 1_545
Mn1 O2 1.971906 1_545
Mn1 O2 1.971906 1_455
Mn1 O6 2.022356 1_555
Co0 O1 1.943562 1_565
Co0 O1 1.943562 1_655
Co0 O6 1.963656 1_655
Co0 O6 1.963656 1_565
Co0 O5 2.110794 1_556
Co0 O2 2.179403 1_555
Co1 O4 1.779550 1_555
Co1 O8 1.965952 1_565
Co1 O8 1.965952 1_655
Co1 O3 2.124894 1_565
Co1 O3 2.124894 1_655
Co1 O7 2.429285 1_555
