# generated using pymatgen
data_Ba2LiSmCoCu2O7
_symmetry_space_group_name_H-M   'P 1'
_cell_length_a   3.83036705
_cell_length_b   4.03440583
_cell_length_c   12.68125062
_cell_angle_alpha   90.00000000
_cell_angle_beta   90.00000000
_cell_angle_gamma   90.00000000
_symmetry_Int_Tables_number   1
_chemical_formula_structural   Ba2LiSmCoCu2O7
_chemical_formula_sum   'Ba2 Li1 Sm1 Co1 Cu2 O7'
_cell_volume   195.96660155
_cell_formula_units_Z   1
loop_
 _symmetry_equiv_pos_site_id
 _symmetry_equiv_pos_as_xyz
  1  'x, y, z'
loop_
 _atom_site_type_symbol
 _atom_site_label
 _atom_site_symmetry_multiplicity
 _atom_site_fract_x
 _atom_site_fract_y
 _atom_site_fract_z
 _atom_site_occupancy
  Ba  Ba0  1  0.50000000  0.50000000  0.11156232  1
  Ba  Ba1  1  0.50000000  0.50000000  0.79818124  1
  Li  Li0  1  0.50000000  0.00000000  0.26720352  1
  Sm  Sm0  1  0.50000000  0.50000000  0.51130388  1
  Co  Co0  1  -0.00000000  0.00000000  0.97773027  1
  Cu  Cu0  1  -0.00000000  0.00000000  0.39983027  1
  Cu  Cu1  1  0.00000000  0.00000000  0.63683256  1
  O  O0  1  0.50000000  0.00000000  0.40434948  1
  O  O1  1  0.50000000  0.00000000  0.62999297  1
  O  O2  1  0.00000000  0.00000000  0.12919732  1
  O  O3  1  0.00000000  0.00000000  0.83958030  1
  O  O4  1  0.00000000  0.50000000  0.39261262  1
  O  O5  1  -0.00000000  0.50000000  0.62989640  1
  O  O6  1  0.00000000  0.50000000  0.97728383  1
loop_
_geom_bond_atom_site_label_1
_geom_bond_atom_site_label_2
_geom_bond_distance
_geom_bond_site_symmetry_2
Ba0 O6 2.562718 1_654
Ba0 O6 2.562718 1_554
Ba0 O2 2.790528 1_555
Ba0 O2 2.790528 1_655
Ba0 O2 2.790528 1_565
Ba0 O2 2.790528 1_665
Ba1 O3 2.830663 1_655
Ba1 O3 2.830663 1_665
Ba1 O3 2.830663 1_565
Ba1 O3 2.830663 1_555
Ba1 O5 2.867429 1_555
Ba1 O5 2.867429 1_655
Ba1 O1 2.935661 1_565
Ba1 O1 2.935661 1_555
Ba1 O6 2.970939 1_555
Ba1 O6 2.970939 1_655
Li0 O0 1.739182 1_555
Li0 O2 2.594368 1_555
Li0 O2 2.594368 1_655
Co0 O3 1.751914 1_555
Co0 O2 1.920792 1_556
Co0 O6 2.017211 1_555
Co0 O6 2.017211 1_545
Cu0 O0 1.916041 1_455
Cu0 O0 1.916041 1_555
Cu0 O4 2.019278 1_555
Cu0 O4 2.019278 1_545
Cu1 O1 1.917147 1_555
Cu1 O1 1.917147 1_455
Cu1 O5 2.019120 1_545
Cu1 O5 2.019120 1_555
Cu1 O3 2.571095 1_555
O0 Sm0 2.430782 1_545
O0 Sm0 2.430782 1_555
O1 Sm0 2.516846 1_545
O1 Sm0 2.516846 1_555
O4 Sm0 2.435860 1_555
O4 Sm0 2.435860 1_455
O5 Sm0 2.435087 1_555
O5 Sm0 2.435087 1_455
