# generated using pymatgen
data_Sr2Li(H4O3)2
_symmetry_space_group_name_H-M   'P 1'
_cell_length_a   3.99439483
_cell_length_b   5.86559452
_cell_length_c   8.86326769
_cell_angle_alpha   95.23299100
_cell_angle_beta   90.10222446
_cell_angle_gamma   89.90079004
_symmetry_Int_Tables_number   1
_chemical_formula_structural   Sr2Li(H4O3)2
_chemical_formula_sum   'Sr2 Li1 H8 O6'
_cell_volume   206.79582344
_cell_formula_units_Z   1
loop_
 _symmetry_equiv_pos_site_id
 _symmetry_equiv_pos_as_xyz
  1  'x, y, z'
loop_
 _atom_site_type_symbol
 _atom_site_label
 _atom_site_symmetry_multiplicity
 _atom_site_fract_x
 _atom_site_fract_y
 _atom_site_fract_z
 _atom_site_occupancy
  Sr  Sr0  1  0.00165200  0.67950100  0.67995700  1
  Sr  Sr1  1  0.99779300  0.22903400  0.08963300  1
  Li  Li0  1  0.49807900  0.39860100  0.35679100  1
  H  H0  1  0.20387700  0.16132300  0.75644300  1
  H  H1  1  0.80019300  0.16130400  0.75609400  1
  H  H2  1  0.80394800  0.89806600  0.37231000  1
  H  H3  1  0.19519900  0.89872600  0.37235800  1
  H  H4  1  0.50130700  0.00500100  0.57490200  1
  H  H5  1  0.49826200  0.94684500  0.20094200  1
  H  H6  1  0.50236300  0.32687000  0.61223300  1
  H  H7  1  0.49624900  0.60702100  0.10130700  1
  O  O0  1  0.00176800  0.25111000  0.80280900  1
  O  O1  1  0.00016000  0.81678500  0.41416900  1
  O  O2  1  0.50196200  0.99944000  0.68494700  1
  O  O3  1  0.49827500  0.06177500  0.28983300  1
  O  O4  1  0.50164500  0.47469100  0.56936000  1
  O  O5  1  0.49726800  0.45890800  0.14511700  1
loop_
_geom_bond_atom_site_label_1
_geom_bond_atom_site_label_2
_geom_bond_distance
_geom_bond_site_symmetry_2
Li0 O4 1.896208 1_555
Li0 O5 1.940621 1_555
Li0 O3 2.010386 1_555
H0 O0 1.028697 1_555
H0 O2 1.615518 1_545
H1 O0 1.028450 1_655
H1 O2 1.615603 1_545
H2 O1 1.004561 1_655
H3 O1 1.005035 1_555
H4 O2 0.978871 1_545
H5 O3 0.989092 1_565
H6 O4 0.977897 1_555
H7 O5 0.983399 1_555
O0 Sr1 2.557340 1_456
O0 Sr0 2.828202 1_555
O1 Sr0 2.558122 1_555
O2 Sr0 2.734915 1_655
O2 Sr0 2.741347 1_555
O4 Sr0 2.485286 1_555
O4 Sr0 2.485863 1_655
O5 Sr1 2.434166 1_455
O5 Sr1 2.435216 1_555
