# generated using pymatgen
data_SrVN2
_symmetry_space_group_name_H-M   'P 1'
_cell_length_a   6.29397011
_cell_length_b   7.38476900
_cell_length_c   5.72751562
_cell_angle_alpha   90.00000000
_cell_angle_beta   113.02558089
_cell_angle_gamma   90.00000000
_symmetry_Int_Tables_number   1
_chemical_formula_structural   SrVN2
_chemical_formula_sum   'Sr4 V4 N8'
_cell_volume   245.00311147
_cell_formula_units_Z   4
loop_
 _symmetry_equiv_pos_site_id
 _symmetry_equiv_pos_as_xyz
  1  'x, y, z'
loop_
 _atom_site_type_symbol
 _atom_site_label
 _atom_site_symmetry_multiplicity
 _atom_site_fract_x
 _atom_site_fract_y
 _atom_site_fract_z
 _atom_site_occupancy
  Sr  Sr0  1  0.34279600  0.92523300  0.68473200  1
  Sr  Sr1  1  0.65720400  0.42523300  0.81526800  1
  Sr  Sr2  1  0.65720400  0.07476700  0.31526800  1
  Sr  Sr3  1  0.34279600  0.57476700  0.18473200  1
  V  V0  1  0.12134600  0.35605000  0.57292000  1
  V  V1  1  0.87865400  0.85605000  0.92708000  1
  V  V2  1  0.87865400  0.64395000  0.42708000  1
  V  V3  1  0.12134600  0.14395000  0.07292000  1
  N  N0  1  0.20873100  0.90242000  0.07202700  1
  N  N1  1  0.79126900  0.40242000  0.42797300  1
  N  N2  1  0.79126900  0.09758000  0.92797300  1
  N  N3  1  0.20873100  0.59758000  0.57202700  1
  N  N4  1  0.26241100  0.27301500  0.90040200  1
  N  N5  1  0.73758900  0.77301500  0.59959800  1
  N  N6  1  0.73758900  0.72698500  0.09959800  1
  N  N7  1  0.26241100  0.22698500  0.40040200  1
loop_
_geom_bond_atom_site_label_1
_geom_bond_atom_site_label_2
_geom_bond_distance
_geom_bond_site_symmetry_2
N0 V3 1.867112 1_565
N0 V1 1.942483 1_454
N0 Sr3 2.560715 1_555
N0 Sr0 2.669308 1_554
N0 Sr2 2.907230 1_565
N0 Sr0 3.277036 1_555
N1 V2 1.867112 1_555
N1 V0 1.942483 1_655
N1 Sr2 2.560715 1_555
N1 Sr1 2.669308 1_555
N1 Sr3 2.907230 1_555
N1 Sr1 3.277036 1_554
N2 V1 1.867112 1_545
N2 V3 1.942483 1_656
N2 Sr1 2.560715 1_555
N2 Sr2 2.669308 1_556
N2 Sr0 2.907230 1_545
N2 Sr2 3.277036 1_555
N3 V0 1.867112 1_555
N3 V2 1.942483 1_455
N3 Sr0 2.560715 1_555
N3 Sr3 2.669308 1_555
N3 Sr1 2.907230 1_555
N3 Sr3 3.277036 1_556
N4 V3 1.832854 1_556
N4 V0 1.838380 1_555
N4 Sr3 2.688696 1_556
N4 Sr1 2.936576 1_555
N4 Sr0 2.977724 1_545
N4 Sr2 3.056944 1_556
N5 V2 1.832854 1_555
N5 V1 1.838380 1_555
N5 Sr2 2.688696 1_565
N5 Sr0 2.936576 1_555
N5 Sr1 2.977724 1_555
N5 Sr3 3.056944 1_555
N6 V1 1.832854 1_554
N6 V2 1.838380 1_555
N6 Sr1 2.688696 1_554
N6 Sr3 2.936576 1_555
N6 Sr2 2.977724 1_565
N6 Sr0 3.056944 1_554
N7 V0 1.832854 1_555
N7 V3 1.838380 1_555
N7 Sr0 2.688696 1_545
N7 Sr2 2.936576 1_555
N7 Sr3 2.977724 1_555
N7 Sr1 3.056944 1_555
