# generated using pymatgen
data_Cs2CeCl6
_symmetry_space_group_name_H-M   'P 1'
_cell_length_a   7.53085813
_cell_length_b   7.53085813
_cell_length_c   6.08916707
_cell_angle_alpha   90.00000000
_cell_angle_beta   90.00000000
_cell_angle_gamma   120.00000435
_symmetry_Int_Tables_number   1
_chemical_formula_structural   Cs2CeCl6
_chemical_formula_sum   'Cs2 Ce1 Cl6'
_cell_volume   299.07315743
_cell_formula_units_Z   1
loop_
 _symmetry_equiv_pos_site_id
 _symmetry_equiv_pos_as_xyz
  1  'x, y, z'
loop_
 _atom_site_type_symbol
 _atom_site_label
 _atom_site_symmetry_multiplicity
 _atom_site_fract_x
 _atom_site_fract_y
 _atom_site_fract_z
 _atom_site_occupancy
  Cs  Cs0  1  0.33333300  0.66666700  0.26418411  1
  Cs  Cs1  1  0.66666700  0.33333300  0.73581589  1
  Ce  Ce0  1  0.00000000  0.00000000  -0.00000000  1
  Cl  Cl0  1  0.16756330  0.33512860  0.76121507  1
  Cl  Cl1  1  0.16756330  0.83243670  0.76121507  1
  Cl  Cl2  1  0.66487140  0.83243670  0.76121507  1
  Cl  Cl3  1  0.83243670  0.66487140  0.23878493  1
  Cl  Cl4  1  0.83243670  0.16756330  0.23878493  1
  Cl  Cl5  1  0.33512860  0.16756330  0.23878493  1
loop_
_geom_bond_atom_site_label_1
_geom_bond_atom_site_label_2
_geom_bond_distance
_geom_bond_site_symmetry_2
Ce0 Cl4 2.625121 1_455
Ce0 Cl1 2.625121 1_544
Ce0 Cl5 2.625132 1_555
Ce0 Cl2 2.625132 1_444
Ce0 Cl3 2.625132 1_445
Ce0 Cl0 2.625132 1_554
Cl0 Cs0 3.719559 1_555
Cl0 Cs0 3.749039 1_556
Cl0 Cs1 3.768611 1_455
Cl0 Cs1 3.768633 1_555
Cl1 Cs0 3.719563 1_555
Cl1 Cs0 3.749043 1_556
Cl1 Cs1 3.768622 1_455
Cl1 Cs1 3.768622 1_565
Cl2 Cs0 3.719559 1_555
Cl2 Cs0 3.749039 1_556
Cl2 Cs1 3.768611 1_565
Cl2 Cs1 3.768633 1_555
Cl3 Cs1 3.719559 1_555
Cl3 Cs1 3.749039 1_554
Cl3 Cs0 3.768611 1_655
Cl3 Cs0 3.768633 1_555
Cl4 Cs1 3.719563 1_555
Cl4 Cs1 3.749043 1_554
Cl4 Cs0 3.768622 1_545
Cl4 Cs0 3.768622 1_655
Cl5 Cs1 3.719559 1_555
Cl5 Cs1 3.749039 1_554
Cl5 Cs0 3.768611 1_545
Cl5 Cs0 3.768633 1_555
