# generated using pymatgen
data_Li2MnCoO4
_symmetry_space_group_name_H-M   'P 1'
_cell_length_a   5.03577024
_cell_length_b   5.08519569
_cell_length_c   6.09897975
_cell_angle_alpha   101.86386522
_cell_angle_beta   95.07006567
_cell_angle_gamma   100.83452744
_symmetry_Int_Tables_number   1
_chemical_formula_structural   Li2MnCoO4
_chemical_formula_sum   'Li4 Mn2 Co2 O8'
_cell_volume   148.80455258
_cell_formula_units_Z   2
loop_
 _symmetry_equiv_pos_site_id
 _symmetry_equiv_pos_as_xyz
  1  'x, y, z'
loop_
 _atom_site_type_symbol
 _atom_site_label
 _atom_site_symmetry_multiplicity
 _atom_site_fract_x
 _atom_site_fract_y
 _atom_site_fract_z
 _atom_site_occupancy
  Li  Li0  1  0.75000300  0.49999700  0.12497500  1
  Li  Li1  1  0.74999400  0.50000700  0.62502900  1
  Li  Li2  1  0.25664200  0.49538700  0.37166600  1
  Li  Li3  1  0.24335900  0.50461300  0.87833400  1
  Mn  Mn0  1  0.00022400  0.99946300  0.49653800  1
  Mn  Mn1  1  0.49980500  0.00052300  0.75345900  1
  Co  Co0  1  0.00049700  0.99943700  0.00163000  1
  Co  Co1  1  0.49946800  0.00059700  0.24841600  1
  O  O0  1  0.86714000  0.23038600  0.82768700  1
  O  O1  1  0.85406800  0.23137500  0.31870100  1
  O  O2  1  0.35854100  0.22948400  0.07530700  1
  O  O3  1  0.36354800  0.23577000  0.57406200  1
  O  O4  1  0.63284100  0.76967800  0.42234400  1
  O  O5  1  0.64595400  0.76852500  0.93117500  1
  O  O6  1  0.13642700  0.76423900  0.67595700  1
  O  O7  1  0.14148900  0.77051800  0.17472100  1
loop_
_geom_bond_atom_site_label_1
_geom_bond_atom_site_label_2
_geom_bond_distance
_geom_bond_site_symmetry_2
Li0 O5 2.087923 1_554
Li0 O1 2.088034 1_555
Li0 O2 2.138640 1_555
Li0 O7 2.138719 1_655
Li0 O0 2.232966 1_554
Li0 O4 2.233550 1_555
Li1 O6 2.104126 1_655
Li1 O3 2.104173 1_555
Li1 O0 2.151178 1_555
Li1 O4 2.151508 1_555
Li1 O5 2.240287 1_555
Li1 O1 2.241448 1_555
Li2 O4 2.087066 1_555
Li2 O3 2.091972 1_555
Li2 O7 2.146956 1_555
Li2 O1 2.167795 1_455
Li2 O2 2.185989 1_555
Li2 O6 2.268550 1_555
Li3 O0 2.087004 1_455
Li3 O6 2.091970 1_555
Li3 O2 2.147112 1_556
Li3 O5 2.167716 1_555
Li3 O7 2.186055 1_556
Li3 O3 2.268385 1_555
Mn0 O3 1.949869 1_565
Mn0 O6 1.952601 1_555
Mn0 O4 1.953144 1_455
Mn0 O1 1.954500 1_465
Mn0 O7 2.309215 1_555
Mn0 O0 2.338182 1_465
Mn1 O6 1.950036 1_545
Mn1 O3 1.952719 1_555
Mn1 O0 1.953100 1_555
Mn1 O5 1.954352 1_545
Mn1 O2 2.309390 1_556
Mn1 O4 2.337758 1_545
Co0 O5 1.902599 1_454
Co0 O0 1.907505 1_464
Co0 O7 1.912388 1_555
Co0 O2 1.915472 1_565
Co0 O1 2.305566 1_465
Co0 O6 2.327148 1_554
Co1 O1 1.902544 1_555
Co1 O4 1.907358 1_545
Co1 O2 1.912187 1_555
Co1 O7 1.915274 1_545
Co1 O5 2.306769 1_544
Co1 O3 2.326947 1_555
