# generated using pymatgen
data_K2Cr4CdO16
_symmetry_space_group_name_H-M   'P 1'
_cell_length_a   6.90251175
_cell_length_b   7.62125000
_cell_length_c   8.06565313
_cell_angle_alpha   88.14742344
_cell_angle_beta   82.07371626
_cell_angle_gamma   68.13451181
_symmetry_Int_Tables_number   1
_chemical_formula_structural   K2Cr4CdO16
_chemical_formula_sum   'K2 Cr4 Cd1 O16'
_cell_volume   389.93045858
_cell_formula_units_Z   1
loop_
 _symmetry_equiv_pos_site_id
 _symmetry_equiv_pos_as_xyz
  1  'x, y, z'
loop_
 _atom_site_type_symbol
 _atom_site_label
 _atom_site_symmetry_multiplicity
 _atom_site_fract_x
 _atom_site_fract_y
 _atom_site_fract_z
 _atom_site_occupancy
  K  K0  1  0.28026000  0.76225400  0.83315500  1
  K  K1  1  0.71974000  0.23774600  0.16684500  1
  Cr  Cr0  1  0.29181800  0.97699900  0.32534500  1
  Cr  Cr1  1  0.70818200  0.02300100  0.67465500  1
  Cr  Cr2  1  0.74110200  0.70389600  0.14768900  1
  Cr  Cr3  1  0.25889800  0.29610400  0.85231100  1
  Cd  Cd0  1  0.00000000  0.50000000  0.50000000  1
  O  O0  1  0.55929100  0.92875500  0.23671800  1
  O  O1  1  0.44070900  0.07124500  0.76328200  1
  O  O2  1  0.19893600  0.18717800  0.41508500  1
  O  O3  1  0.80106400  0.81282200  0.58491500  1
  O  O4  1  0.28383000  0.81516700  0.46661400  1
  O  O5  1  0.71617000  0.18483300  0.53338600  1
  O  O6  1  0.15717700  0.96836800  0.17943800  1
  O  O7  1  0.84282300  0.03163200  0.82056200  1
  O  O8  1  0.78850600  0.54168700  0.29572800  1
  O  O9  1  0.21149400  0.45831300  0.70427200  1
  O  O10  1  0.63739600  0.64126000  0.00298700  1
  O  O11  1  0.36260400  0.35874000  0.99701300  1
  O  O12  1  0.04279400  0.27044600  0.92925400  1
  O  O13  1  0.95720600  0.72955400  0.07074600  1
  O  O14  1  0.72382600  0.42668700  0.65494200  1
  O  O15  1  0.27617400  0.57331300  0.34505800  1
loop_
_geom_bond_atom_site_label_1
_geom_bond_atom_site_label_2
_geom_bond_distance
_geom_bond_site_symmetry_2
K0 O9 2.789698 1_555
K0 O13 2.812706 1_456
K0 O10 2.821352 1_556
K0 O1 2.962160 1_565
K0 O7 2.965774 1_465
K0 O4 2.968790 1_555
K0 O6 3.102477 1_556
K0 O11 3.188969 1_555
K0 O14 3.342501 1_555
K1 O8 2.789698 1_555
K1 O12 2.812706 1_654
K1 O11 2.821352 1_554
K1 O0 2.962160 1_545
K1 O6 2.965774 1_645
K1 O5 2.968790 1_555
K1 O7 3.102477 1_554
K1 O10 3.188969 1_555
K1 O15 3.342501 1_555
Cr0 O6 1.614051 1_555
Cr0 O2 1.637933 1_565
Cr0 O4 1.662823 1_555
Cr0 O0 1.789454 1_555
Cr1 O7 1.614051 1_555
Cr1 O3 1.637933 1_545
Cr1 O5 1.662823 1_555
Cr1 O1 1.789454 1_555
Cr2 O13 1.613238 1_555
Cr2 O10 1.619697 1_555
Cr2 O8 1.664953 1_555
Cr2 O0 1.804564 1_555
Cr3 O12 1.613238 1_555
Cr3 O11 1.619697 1_555
Cr3 O9 1.664953 1_555
Cr3 O1 1.804564 1_555
Cd0 O9 2.287063 1_555
Cd0 O8 2.287063 1_455
Cd0 O3 2.333726 1_455
Cd0 O2 2.333726 1_555
Cd0 O15 2.366240 1_555
Cd0 O14 2.366240 1_455
