# generated using pymatgen
data_Pr(BRh)4
_symmetry_space_group_name_H-M   'P 1'
_cell_length_a   5.39238700
_cell_length_b   5.39238700
_cell_length_c   7.57383000
_cell_angle_alpha   90.00000000
_cell_angle_beta   90.00000000
_cell_angle_gamma   90.00000000
_symmetry_Int_Tables_number   1
_chemical_formula_structural   Pr(BRh)4
_chemical_formula_sum   'Pr2 B8 Rh8'
_cell_volume   220.23059843
_cell_formula_units_Z   2
loop_
 _symmetry_equiv_pos_site_id
 _symmetry_equiv_pos_as_xyz
  1  'x, y, z'
loop_
 _atom_site_type_symbol
 _atom_site_label
 _atom_site_symmetry_multiplicity
 _atom_site_fract_x
 _atom_site_fract_y
 _atom_site_fract_z
 _atom_site_occupancy
  Pr  Pr0  1  0.00000000  0.00000000  0.00000000  1
  Pr  Pr1  1  0.50000000  0.50000000  0.50000000  1
  B  B0  1  0.83154700  0.50000000  0.15211500  1
  B  B1  1  0.16845300  0.50000000  0.15211500  1
  B  B2  1  0.00000000  0.33154700  0.65211500  1
  B  B3  1  0.00000000  0.66845300  0.65211500  1
  B  B4  1  0.66845300  0.00000000  0.34788500  1
  B  B5  1  0.33154700  0.00000000  0.34788500  1
  B  B6  1  0.50000000  0.16845300  0.84788500  1
  B  B7  1  0.50000000  0.83154700  0.84788500  1
  Rh  Rh0  1  0.25145900  0.50000000  0.85716500  1
  Rh  Rh1  1  0.74854100  0.50000000  0.85716500  1
  Rh  Rh2  1  0.00000000  0.75145900  0.35716500  1
  Rh  Rh3  1  0.00000000  0.24854100  0.35716500  1
  Rh  Rh4  1  0.24854100  0.00000000  0.64283500  1
  Rh  Rh5  1  0.75145900  0.00000000  0.64283500  1
  Rh  Rh6  1  0.50000000  0.74854100  0.14283500  1
  Rh  Rh7  1  0.50000000  0.25145900  0.14283500  1
loop_
_geom_bond_atom_site_label_1
_geom_bond_atom_site_label_2
_geom_bond_distance
_geom_bond_site_symmetry_2
Pr0 Rh3 3.018910 1_555
Pr0 Rh2 3.018910 1_545
Pr0 Rh4 3.018910 1_554
Pr0 Rh5 3.018910 1_454
Pr0 Rh6 3.205995 1_445
Pr0 Rh7 3.205995 1_555
Pr0 Rh6 3.205995 1_545
Pr0 Rh7 3.205995 1_455
Pr0 Rh0 3.205995 1_554
Pr0 Rh1 3.205995 1_444
Pr0 Rh0 3.205995 1_544
Pr0 Rh1 3.205995 1_454
Pr1 Rh1 3.018910 1_555
Pr1 Rh0 3.018910 1_555
Pr1 Rh7 3.018910 1_555
Pr1 Rh6 3.018910 1_555
Pr1 Rh5 3.205995 1_565
Pr1 Rh5 3.205995 1_555
Pr1 Rh4 3.205995 1_565
Pr1 Rh2 3.205995 1_655
Pr1 Rh4 3.205995 1_555
Pr1 Rh2 3.205995 1_555
Pr1 Rh3 3.205995 1_555
Pr1 Rh3 3.205995 1_655
B0 B1 1.816728 1_655
B0 Rh7 2.235507 1_555
B0 Rh6 2.235507 1_555
B0 Rh2 2.252913 1_655
B0 Rh3 2.252913 1_655
B0 Rh1 2.278302 1_554
B0 Pr0 3.069512 1_655
B0 Pr0 3.069512 1_665
B0 Pr1 3.184120 1_555
B1 Rh6 2.235507 1_555
B1 Rh7 2.235507 1_555
B1 Rh2 2.252913 1_555
B1 Rh3 2.252913 1_555
B1 Rh0 2.278302 1_554
B1 Pr0 3.069512 1_555
B1 Pr0 3.069512 1_565
B1 Pr1 3.184120 1_555
B2 B3 1.816728 1_555
B2 Rh4 2.235507 1_555
B2 Rh5 2.235507 1_455
B2 Rh0 2.252913 1_555
B2 Rh1 2.252913 1_455
B2 Rh3 2.278302 1_555
B2 Pr1 3.069512 1_555
B2 Pr1 3.069512 1_455
B2 Pr0 3.184120 1_556
B3 Rh4 2.235507 1_565
B3 Rh5 2.235507 1_465
B3 Rh1 2.252913 1_455
B3 Rh0 2.252913 1_555
B3 Rh2 2.278302 1_555
B3 Pr1 3.069512 1_555
B3 Pr1 3.069512 1_455
B3 Pr0 3.184120 1_566
B4 B5 1.816728 1_555
B4 Rh3 2.235507 1_655
B4 Rh2 2.235507 1_645
B4 Rh7 2.252913 1_555
B4 Rh6 2.252913 1_545
B4 Rh5 2.278302 1_555
B4 Pr1 3.069512 1_545
B4 Pr1 3.069512 1_555
B4 Pr0 3.184120 1_655
B5 Rh3 2.235507 1_555
B5 Rh2 2.235507 1_545
B5 Rh7 2.252913 1_555
B5 Rh6 2.252913 1_545
B5 Rh4 2.278302 1_555
B5 Pr1 3.069512 1_545
B5 Pr1 3.069512 1_555
B5 Pr0 3.184120 1_555
B6 B7 1.816728 1_545
B6 Rh1 2.235507 1_555
B6 Rh0 2.235507 1_555
B6 Rh5 2.252913 1_555
B6 Rh4 2.252913 1_555
B6 Rh7 2.278302 1_556
B6 Pr0 3.069512 1_656
B6 Pr0 3.069512 1_556
B6 Pr1 3.184120 1_555
B7 Rh1 2.235507 1_555
B7 Rh0 2.235507 1_555
B7 Rh5 2.252913 1_565
B7 Rh4 2.252913 1_565
B7 Rh6 2.278302 1_556
B7 Pr0 3.069512 1_566
B7 Pr0 3.069512 1_666
B7 Pr1 3.184120 1_555
