# generated using pymatgen
data_SrV2(AsO5)2
_symmetry_space_group_name_H-M   'P 1'
_cell_length_a   13.11386233
_cell_length_b   13.11386233
_cell_length_c   18.20145180
_cell_angle_alpha   46.27520369
_cell_angle_beta   46.27520369
_cell_angle_gamma   20.84728131
_symmetry_Int_Tables_number   1
_chemical_formula_structural   SrV2(AsO5)2
_chemical_formula_sum   'Sr4 V8 As8 O40'
_cell_volume   792.46280843
_cell_formula_units_Z   4
loop_
 _symmetry_equiv_pos_site_id
 _symmetry_equiv_pos_as_xyz
  1  'x, y, z'
loop_
 _atom_site_type_symbol
 _atom_site_label
 _atom_site_symmetry_multiplicity
 _atom_site_fract_x
 _atom_site_fract_y
 _atom_site_fract_z
 _atom_site_occupancy
  Sr  Sr0  1  0.12450400  0.87519800  0.25080200  1
  Sr  Sr1  1  0.87519800  0.12450400  0.75080200  1
  Sr  Sr2  1  0.44200300  0.06594300  0.25228100  1
  Sr  Sr3  1  0.06594300  0.44200300  0.75228100  1
  V  V0  1  0.54904100  0.10263700  0.47600900  1
  V  V1  1  0.89660100  0.45008600  0.02574600  1
  V  V2  1  0.42403400  0.47474000  0.62744700  1
  V  V3  1  0.52544200  0.57872700  0.87213900  1
  V  V4  1  0.45008600  0.89660100  0.52574600  1
  V  V5  1  0.10263700  0.54904100  0.97600900  1
  V  V6  1  0.57872700  0.52544200  0.37213900  1
  V  V7  1  0.47474000  0.42403400  0.12744700  1
  As  As0  1  0.41665000  0.96738300  0.13703500  1
  As  As1  1  0.02958500  0.58582200  0.36226400  1
  As  As2  1  0.89894900  0.94377800  0.01975400  1
  As  As3  1  0.04950300  0.10718200  0.47949000  1
  As  As4  1  0.58582200  0.02958500  0.86226400  1
  As  As5  1  0.96738300  0.41665000  0.63703500  1
  As  As6  1  0.10718200  0.04950300  0.97949000  1
  As  As7  1  0.94377800  0.89894900  0.51975400  1
  O  O0  1  0.46564800  0.83150200  0.26091400  1
  O  O1  1  0.18091800  0.51990300  0.24018800  1
  O  O2  1  0.90506900  0.77734000  0.05669000  1
  O  O3  1  0.22898700  0.08650400  0.44437400  1
  O  O4  1  0.51990300  0.18091800  0.74018800  1
  O  O5  1  0.83150200  0.46564800  0.76091500  1
  O  O6  1  0.08650400  0.22898700  0.94437400  1
  O  O7  1  0.77734000  0.90506900  0.55669000  1
  O  O8  1  0.72715700  0.36164700  0.29951200  1
  O  O9  1  0.64101800  0.27073100  0.20054900  1
  O  O10  1  0.33884300  0.47170100  0.88942400  1
  O  O11  1  0.52901200  0.65926800  0.61141500  1
  O  O12  1  0.27073100  0.64101800  0.70054900  1
  O  O13  1  0.36164700  0.72715700  0.79951200  1
  O  O14  1  0.65926800  0.52901200  0.11141500  1
  O  O15  1  0.47170100  0.33884300  0.38942400  1
  O  O16  1  0.18888700  0.08682100  0.12986600  1
  O  O17  1  0.91217900  0.81216900  0.36971000  1
  O  O18  1  0.78345300  0.18179800  0.90528800  1
  O  O19  1  0.81907200  0.21632800  0.59531800  1
  O  O20  1  0.81216900  0.91217900  0.86971000  1
  O  O21  1  0.08682100  0.18888700  0.62986600  1
  O  O22  1  0.21632800  0.81907200  0.09531800  1
  O  O23  1  0.18179800  0.78345300  0.40528800  1
  O  O24  1  0.29343400  0.23285800  0.10266800  1
  O  O25  1  0.75469900  0.72211200  0.39550000  1
  O  O26  1  0.66459200  0.11045700  0.12526400  1
  O  O27  1  0.89298400  0.33636200  0.37227200  1
  O  O28  1  0.72211200  0.75469900  0.89550000  1
  O  O29  1  0.23285800  0.29343400  0.60266800  1
  O  O30  1  0.33636200  0.89298400  0.87227200  1
  O  O31  1  0.11045700  0.66459200  0.62526400  1
  O  O32  1  0.69306300  0.75562800  0.56302200  1
  O  O33  1  0.24758300  0.30218100  0.93750700  1
  O  O34  1  0.68095800  0.24496500  0.51157400  1
  O  O35  1  0.75583800  0.31932600  0.98857900  1
  O  O36  1  0.30218100  0.24758300  0.43750700  1
  O  O37  1  0.75562800  0.69306300  0.06302200  1
  O  O38  1  0.31932600  0.75583800  0.48857900  1
  O  O39  1  0.24496500  0.68095800  0.01157400  1
loop_
_geom_bond_atom_site_label_1
_geom_bond_atom_site_label_2
_geom_bond_distance
_geom_bond_site_symmetry_2
As0 O16 1.704058 1_565
As0 O0 1.726472 1_555
As0 O24 1.730601 1_565
As0 O37 1.746013 1_555
As1 O17 1.710386 1_455
As1 O1 1.725061 1_555
As1 O25 1.730036 1_455
As1 O36 1.750160 1_555
As2 O18 1.706972 1_564
As2 O2 1.714951 1_555
As2 O26 1.731810 1_565
As2 O39 1.742317 1_655
As3 O19 1.704500 1_455
As3 O27 1.718577 1_455
As3 O3 1.728891 1_555
As3 O38 1.749407 1_545
As4 O20 1.710386 1_545
As4 O4 1.725061 1_555
As4 O28 1.730036 1_545
As4 O33 1.750160 1_555
As5 O21 1.704058 1_655
As5 O5 1.726488 1_555
As5 O29 1.730601 1_655
As5 O32 1.746013 1_555
As6 O22 1.704500 1_546
As6 O30 1.718577 1_545
As6 O6 1.728891 1_555
As6 O35 1.749407 1_455
As7 O23 1.706972 1_655
As7 O7 1.714951 1_555
As7 O31 1.731810 1_655
As7 O34 1.742317 1_565
O0 V6 2.049351 1_555
O0 Sr2 2.681543 1_565
O1 V7 2.054282 1_555
O1 Sr2 2.888802 1_555
O2 V5 2.037815 1_654
O2 Sr2 3.107742 1_565
O3 V4 2.035692 1_545
O3 Sr2 2.548411 1_555
O4 V2 2.054282 1_555
O4 Sr3 2.888802 1_555
O5 V3 2.049349 1_555
O5 Sr3 2.681531 1_655
O6 V1 2.035692 1_456
O6 Sr3 2.548411 1_555
O7 V0 2.037815 1_565
O7 Sr3 3.107742 1_655
O8 V6 1.644300 1_555
O8 Sr0 2.817062 1_645
O9 V7 1.638996 1_555
O9 Sr0 2.816291 1_645
O10 V5 1.642126 1_555
O10 Sr1 2.839108 1_555
O11 V4 1.640332 1_555
O11 Sr1 2.836835 1_555
O12 V2 1.638996 1_555
O12 Sr1 2.816291 1_465
O13 V3 1.644300 1_555
O13 Sr1 2.817062 1_465
O14 V1 1.640332 1_555
O14 Sr0 2.836835 1_555
O15 V0 1.642126 1_555
O15 Sr0 2.839108 1_555
O16 V1 2.100055 1_455
O16 Sr0 2.573992 1_545
O17 V0 2.116095 1_565
O17 Sr0 2.572587 1_655
O18 V3 2.114093 1_555
O18 Sr1 2.544198 1_555
O19 V2 2.098179 1_555
O19 Sr1 2.552027 1_555
O20 V5 2.116095 1_655
O20 Sr1 2.572587 1_565
O21 V4 2.100055 1_545
O21 Sr1 2.573992 1_455
O22 V7 2.098179 1_555
O22 Sr0 2.552027 1_555
O23 V6 2.114093 1_555
O23 Sr0 2.544198 1_555
O24 V5 2.033868 1_554
O24 Sr2 2.669507 1_555
O25 V4 2.033841 1_555
O25 Sr2 2.812771 1_565
O26 V7 2.015882 1_555
O26 Sr2 2.489263 1_555
O27 V6 2.009521 1_555
O27 Sr2 3.229648 1_655
O28 V1 2.033841 1_556
O28 Sr3 2.812771 1_655
O29 V0 2.033868 1_555
O29 Sr3 2.669507 1_555
O30 V3 2.009521 1_555
O30 Sr3 3.229648 1_565
O31 V2 2.015882 1_555
O31 Sr3 2.489263 1_555
O32 V4 2.067753 1_555
O32 V0 2.211695 1_565
O33 V5 2.092308 1_555
O33 V1 2.219887 1_456
O34 V6 2.085596 1_555
O34 V2 2.205940 1_555
O35 V7 2.078398 1_556
O35 V3 2.206306 1_555
O36 V0 2.092308 1_555
O36 V4 2.219887 1_545
O37 V1 2.067753 1_555
O37 V5 2.211695 1_654
O38 V2 2.078398 1_555
O38 V6 2.206306 1_555
O39 V3 2.085596 1_554
O39 V7 2.205940 1_555
