# generated using pymatgen
data_Sr3La2FeCo4O15
_symmetry_space_group_name_H-M   'P 1'
_cell_length_a   11.58242206
_cell_length_b   11.58242206
_cell_length_c   11.58242184
_cell_angle_alpha   27.39339835
_cell_angle_beta   27.39339835
_cell_angle_gamma   27.39339751
_symmetry_Int_Tables_number   1
_chemical_formula_structural   Sr3La2FeCo4O15
_chemical_formula_sum   'Sr3 La2 Fe1 Co4 O15'
_cell_volume   290.27878063
_cell_formula_units_Z   1
loop_
 _symmetry_equiv_pos_site_id
 _symmetry_equiv_pos_as_xyz
  1  'x, y, z'
loop_
 _atom_site_type_symbol
 _atom_site_label
 _atom_site_symmetry_multiplicity
 _atom_site_fract_x
 _atom_site_fract_y
 _atom_site_fract_z
 _atom_site_occupancy
  Sr  Sr0  1  0.30109300  0.30109300  0.30109300  1
  Sr  Sr1  1  0.70010200  0.70010200  0.70010200  1
  Sr  Sr2  1  0.49952800  0.49952800  0.49952800  1
  La  La0  1  0.09929100  0.09929100  0.09929100  1
  La  La1  1  0.90043200  0.90043200  0.90043200  1
  Fe  Fe0  1  0.60047800  0.60047800  0.60047800  1
  Co  Co0  1  0.99992700  0.99992700  0.99992700  1
  Co  Co1  1  0.39844100  0.39844100  0.39844100  1
  Co  Co2  1  0.80097300  0.80097300  0.80097300  1
  Co  Co3  1  0.19988200  0.19988200  0.19988200  1
  O  O0  1  0.80530200  0.80530200  0.28719200  1
  O  O1  1  0.39629700  0.39629700  0.90448400  1
  O  O2  1  0.00175400  0.00175400  0.49523800  1
  O  O3  1  0.19668400  0.19668400  0.71231000  1
  O  O4  1  0.60046900  0.60046900  0.09961700  1
  O  O5  1  0.90448400  0.39629700  0.39629700  1
  O  O6  1  0.49523800  0.00175400  0.00175400  1
  O  O7  1  0.09961700  0.60046900  0.60046900  1
  O  O8  1  0.28719200  0.80530200  0.80530200  1
  O  O9  1  0.71231000  0.19668400  0.19668400  1
  O  O10  1  0.39629700  0.90448400  0.39629700  1
  O  O11  1  0.00175400  0.49523800  0.00175400  1
  O  O12  1  0.60046900  0.09961700  0.60046900  1
  O  O13  1  0.80530200  0.28719200  0.80530200  1
  O  O14  1  0.19668400  0.71231000  0.19668400  1
loop_
_geom_bond_atom_site_label_1
_geom_bond_atom_site_label_2
_geom_bond_distance
_geom_bond_site_symmetry_2
La0 O3 2.633984 1_554
La0 O14 2.633984 1_545
La0 O9 2.633984 1_455
La0 O2 2.729579 1_555
La0 O11 2.729579 1_555
La0 O6 2.729579 1_555
La0 O4 2.742675 1_545
La0 O4 2.742675 1_455
La0 O7 2.742675 1_545
La0 O12 2.742675 1_455
La0 O12 2.742675 1_554
La0 O7 2.742675 1_554
La1 O0 2.668614 1_556
La1 O8 2.668614 1_655
La1 O13 2.668614 1_565
La1 O1 2.743036 1_565
La1 O1 2.743036 1_655
La1 O5 2.743036 1_565
La1 O10 2.743036 1_655
La1 O5 2.743036 1_556
La1 O10 2.743036 1_556
La1 O2 2.768622 1_665
La1 O6 2.768622 1_566
La1 O11 2.768622 1_656
Fe0 O13 1.960764 1_555
Fe0 O8 1.960764 1_555
Fe0 O0 1.960765 1_555
Fe0 O10 1.985354 1_555
Fe0 O5 1.985354 1_555
Fe0 O1 1.985354 1_555
Co0 O13 1.902578 1_565
Co0 O8 1.902578 1_655
Co0 O0 1.902578 1_556
Co0 O9 1.935152 1_566
Co0 O14 1.935152 1_656
Co0 O3 1.935152 1_665
Co1 O14 1.914096 1_555
Co1 O9 1.914096 1_555
Co1 O3 1.914096 1_555
Co1 O7 1.972358 1_555
Co1 O12 1.972358 1_555
Co1 O4 1.972358 1_555
Co2 O11 1.926837 1_656
Co2 O6 1.926837 1_566
Co2 O2 1.926837 1_665
Co2 O12 1.949155 1_565
Co2 O7 1.949155 1_655
Co2 O4 1.949155 1_556
Co3 O5 1.898420 1_455
Co3 O10 1.898420 1_545
Co3 O1 1.898420 1_554
Co3 O11 1.925068 1_555
Co3 O6 1.925068 1_555
Co3 O2 1.925068 1_555
O0 Sr0 2.743791 1_565
O0 Sr0 2.743791 1_655
O0 Sr1 2.789694 1_555
O1 Sr2 2.735026 1_555
O1 Sr0 2.775482 1_556
O2 Sr2 2.742589 1_455
O2 Sr2 2.742589 1_545
O3 Sr1 2.743610 1_455
O3 Sr1 2.743610 1_545
O3 Sr0 2.784073 1_555
O4 Sr2 2.717215 1_555
O4 Sr1 2.734212 1_554
O5 Sr2 2.735026 1_555
O5 Sr0 2.775482 1_655
O6 Sr2 2.742589 1_545
O6 Sr2 2.742589 1_554
O7 Sr2 2.717215 1_555
O7 Sr1 2.734212 1_455
O8 Sr0 2.743791 1_556
O8 Sr0 2.743791 1_565
O8 Sr1 2.789694 1_555
O9 Sr1 2.743610 1_554
O9 Sr1 2.743610 1_545
O9 Sr0 2.784073 1_555
O10 Sr2 2.735026 1_555
O10 Sr0 2.775482 1_565
O11 Sr2 2.742589 1_455
O11 Sr2 2.742589 1_554
O12 Sr2 2.717215 1_555
O12 Sr1 2.734212 1_545
O13 Sr0 2.743791 1_556
O13 Sr0 2.743791 1_655
O13 Sr1 2.789694 1_555
O14 Sr1 2.743610 1_554
O14 Sr1 2.743610 1_455
O14 Sr0 2.784073 1_555
