# generated using pymatgen
data_Sb
_symmetry_space_group_name_H-M   'P 1'
_cell_length_a   8.87285483
_cell_length_b   9.56243486
_cell_length_c   6.84618096
_cell_angle_alpha   103.40894532
_cell_angle_beta   87.86901834
_cell_angle_gamma   124.25374889
_symmetry_Int_Tables_number   1
_chemical_formula_structural   Sb
_chemical_formula_sum   Sb14
_cell_volume   463.87494504
_cell_formula_units_Z   14
loop_
 _symmetry_equiv_pos_site_id
 _symmetry_equiv_pos_as_xyz
  1  'x, y, z'
loop_
 _atom_site_type_symbol
 _atom_site_label
 _atom_site_symmetry_multiplicity
 _atom_site_fract_x
 _atom_site_fract_y
 _atom_site_fract_z
 _atom_site_occupancy
  Sb  Sb0  1  0.00000000  0.00000000  0.00000000  1
  Sb  Sb1  1  0.50000000  0.50000000  0.00000000  1
  Sb  Sb2  1  0.00000000  0.50000000  0.50000000  1
  Sb  Sb3  1  0.50000000  0.00000000  0.50000000  1
  Sb  Sb4  1  0.13471000  0.74859500  0.22572100  1
  Sb  Sb5  1  0.86529000  0.25140500  0.77427900  1
  Sb  Sb6  1  0.77980900  0.64806300  0.69177300  1
  Sb  Sb7  1  0.22019100  0.35193700  0.30822700  1
  Sb  Sb8  1  0.76343500  0.15006900  0.17307200  1
  Sb  Sb9  1  0.23656500  0.84993100  0.82692800  1
  Sb  Sb10  1  0.55508600  0.80930600  0.81505500  1
  Sb  Sb11  1  0.44491400  0.19069400  0.18494500  1
  Sb  Sb12  1  0.85123100  0.80904300  0.34021500  1
  Sb  Sb13  1  0.14876900  0.19095700  0.65978500  1
loop_
_geom_bond_atom_site_label_1
_geom_bond_atom_site_label_2
_geom_bond_distance
_geom_bond_site_symmetry_2
Sb0 Sb7 3.034292 1_555
Sb0 Sb6 3.034292 1_444
Sb0 Sb13 3.087452 1_554
Sb0 Sb12 3.087452 1_445
Sb0 Sb8 3.207227 1_455
Sb0 Sb9 3.207227 1_544
Sb0 Sb11 3.421939 1_555
Sb0 Sb10 3.421939 1_444
Sb1 Sb6 3.108106 1_554
Sb1 Sb7 3.108106 1_555
Sb1 Sb11 3.263997 1_555
Sb1 Sb10 3.263997 1_554
Sb1 Sb12 3.293976 1_555
Sb1 Sb13 3.293976 1_554
Sb2 Sb5 3.051300 1_455
Sb2 Sb4 3.051300 1_555
Sb2 Sb9 3.095399 1_555
Sb2 Sb8 3.095399 1_455
Sb2 Sb6 3.099419 1_455
Sb2 Sb7 3.099419 1_555
Sb3 Sb5 3.065617 1_555
Sb3 Sb4 3.065617 1_545
Sb3 Sb8 3.139596 1_555
Sb3 Sb9 3.139596 1_545
Sb4 Sb9 3.044256 1_554
Sb5 Sb8 3.044256 1_556
Sb6 Sb9 3.413328 1_655
Sb7 Sb8 3.413328 1_455
Sb10 Sb9 3.057625 1_555
Sb10 Sb6 3.130127 1_555
Sb10 Sb8 3.145575 1_566
Sb10 Sb3 3.335008 1_565
Sb11 Sb8 3.057625 1_555
Sb11 Sb7 3.130127 1_555
Sb11 Sb9 3.145575 1_544
Sb11 Sb3 3.335008 1_555
Sb12 Sb4 2.924897 1_655
Sb12 Sb6 3.011783 1_555
Sb12 Sb13 3.311173 1_665
Sb13 Sb5 2.924897 1_455
Sb13 Sb7 3.011783 1_555
