# generated using pymatgen
data_KYb3
_symmetry_space_group_name_H-M   'P 1'
_cell_length_a   6.31927156
_cell_length_b   6.31927156
_cell_length_c   6.31927156
_cell_angle_alpha   131.79616427
_cell_angle_beta   131.79616427
_cell_angle_gamma   70.55115440
_symmetry_Int_Tables_number   1
_chemical_formula_structural   KYb3
_chemical_formula_sum   'K1 Yb3'
_cell_volume   137.41811683
_cell_formula_units_Z   1
loop_
 _symmetry_equiv_pos_site_id
 _symmetry_equiv_pos_as_xyz
  1  'x, y, z'
loop_
 _atom_site_type_symbol
 _atom_site_label
 _atom_site_symmetry_multiplicity
 _atom_site_fract_x
 _atom_site_fract_y
 _atom_site_fract_z
 _atom_site_occupancy
  K  K0  1  0.00000000  0.00000000  0.00000000  1
  Yb  Yb0  1  0.75000000  0.25000000  0.50000000  1
  Yb  Yb1  1  0.25000000  0.75000000  0.50000000  1
  Yb  Yb2  1  0.50000000  0.50000000  0.00000000  1
loop_
_geom_bond_atom_site_label_1
_geom_bond_atom_site_label_2
_geom_bond_distance
_geom_bond_site_symmetry_2
K0 Yb0 3.648685 1_555
K0 Yb0 3.648685 1_455
K0 Yb1 3.648685 1_555
K0 Yb0 3.648685 1_444
K0 Yb1 3.648685 1_544
K0 Yb1 3.648685 1_545
K0 Yb1 3.648685 1_444
K0 Yb0 3.648685 1_454
K0 Yb2 3.649441 1_545
K0 Yb2 3.649441 1_556
K0 Yb2 3.649441 1_444
K0 Yb2 3.649441 1_455
Yb0 Yb2 3.648685 1_555
Yb0 Yb2 3.648685 1_656
Yb0 Yb2 3.648685 1_545
Yb0 Yb2 3.648685 1_556
Yb0 Yb1 3.649441 1_555
Yb0 Yb1 3.649441 1_656
Yb0 Yb1 3.649441 1_544
Yb0 Yb1 3.649441 1_645
Yb1 Yb2 3.648685 1_455
Yb1 Yb2 3.648685 1_555
Yb1 Yb2 3.648685 1_556
Yb1 Yb2 3.648685 1_566
