# generated using pymatgen
data_B10H11C2
_symmetry_space_group_name_H-M   'P 1'
_cell_length_a   7.45161389
_cell_length_b   7.45161389
_cell_length_c   20.52567762
_cell_angle_alpha   86.26437136
_cell_angle_beta   86.26437136
_cell_angle_gamma   58.75534296
_symmetry_Int_Tables_number   1
_chemical_formula_structural   B10H11C2
_chemical_formula_sum   'B40 H44 C8'
_cell_volume   971.68793694
_cell_formula_units_Z   4
loop_
 _symmetry_equiv_pos_site_id
 _symmetry_equiv_pos_as_xyz
  1  'x, y, z'
loop_
 _atom_site_type_symbol
 _atom_site_label
 _atom_site_symmetry_multiplicity
 _atom_site_fract_x
 _atom_site_fract_y
 _atom_site_fract_z
 _atom_site_occupancy
  B  B0  1  0.17717200  0.24231800  0.57057300  1
  B  B1  1  0.75768200  0.82282800  0.92942700  1
  B  B2  1  0.82282800  0.75768200  0.42942700  1
  B  B3  1  0.24231800  0.17717200  0.07057300  1
  B  B4  1  0.14951700  0.48603300  0.58991700  1
  B  B5  1  0.51396700  0.85048300  0.91008300  1
  B  B6  1  0.85048300  0.51396700  0.41008300  1
  B  B7  1  0.48603300  0.14951700  0.08991700  1
  B  B8  1  0.87914900  0.68014300  0.59053900  1
  B  B9  1  0.31985700  0.12085100  0.90946100  1
  B  B10  1  0.12085100  0.31985700  0.40946100  1
  B  B11  1  0.68014300  0.87914900  0.09053900  1
  B  B12  1  0.73961400  0.55707100  0.57167100  1
  B  B13  1  0.44292900  0.26038600  0.92832900  1
  B  B14  1  0.26038600  0.44292900  0.42832900  1
  B  B15  1  0.55707100  0.73961400  0.07167100  1
  B  B16  1  0.92380200  0.28679500  0.55918600  1
  B  B17  1  0.71320500  0.07619800  0.94081400  1
  B  B18  1  0.07619800  0.71320500  0.44081400  1
  B  B19  1  0.28679500  0.92380200  0.05918600  1
  B  B20  1  0.00518000  0.56457000  0.66481300  1
  B  B21  1  0.43543000  0.99482000  0.83518700  1
  B  B22  1  0.99482000  0.43543000  0.33518700  1
  B  B23  1  0.56457000  0.00518000  0.16481300  1
  B  B24  1  0.75098900  0.60945700  0.65382400  1
  B  B25  1  0.39054300  0.24901100  0.84617600  1
  B  B26  1  0.24901100  0.39054300  0.34617600  1
  B  B27  1  0.60945700  0.75098900  0.15382400  1
  B  B28  1  0.77861200  0.36674300  0.63447100  1
  B  B29  1  0.63325700  0.22138800  0.86552900  1
  B  B30  1  0.22138800  0.63325700  0.36552900  1
  B  B31  1  0.36674300  0.77861200  0.13447100  1
  B  B32  1  0.04953800  0.17278400  0.63365300  1
  B  B33  1  0.82721600  0.95046200  0.86634700  1
  B  B34  1  0.95046200  0.82721600  0.36634700  1
  B  B35  1  0.17278400  0.04953800  0.13365300  1
  B  B36  1  0.94290900  0.37134000  0.69233600  1
  B  B37  1  0.62866000  0.05709100  0.80766400  1
  B  B38  1  0.05709100  0.62866000  0.30766400  1
  B  B39  1  0.37134000  0.94290900  0.19233600  1
  H  H0  1  0.33399000  0.12004600  0.54244500  1
  H  H1  1  0.87995400  0.66601000  0.95755500  1
  H  H2  1  0.66601000  0.87995400  0.45755500  1
  H  H3  1  0.12004600  0.33399000  0.04244500  1
  H  H4  1  0.28921900  0.51358400  0.57372700  1
  H  H5  1  0.48641600  0.71078100  0.92627300  1
  H  H6  1  0.71078100  0.48641600  0.42627300  1
  H  H7  1  0.51358400  0.28921900  0.07372700  1
  H  H8  1  0.82587900  0.85372700  0.57105700  1
  H  H9  1  0.14627300  0.17412100  0.92894300  1
  H  H10  1  0.17412100  0.14627300  0.42894300  1
  H  H11  1  0.85372700  0.82587900  0.07105700  1
  H  H12  1  0.58948500  0.64908000  0.53899900  1
  H  H13  1  0.35092000  0.41051500  0.96100100  1
  H  H14  1  0.41051500  0.35092000  0.46100100  1
  H  H15  1  0.64908000  0.58948500  0.03899900  1
  H  H16  1  0.90020300  0.19514000  0.51855700  1
  H  H17  1  0.80486000  0.09979700  0.98144300  1
  H  H18  1  0.09979700  0.80486000  0.48144300  1
  H  H19  1  0.19514000  0.90020300  0.01855700  1
  H  H20  1  0.31745400  0.22205000  0.67363800  1
  H  H21  1  0.77795000  0.68254600  0.82636200  1
  H  H22  1  0.68254600  0.77795000  0.32636200  1
  H  H23  1  0.22205000  0.31745400  0.17363800  1
  H  H24  1  0.05421700  0.64644300  0.70181000  1
  H  H25  1  0.35355700  0.94578300  0.79819000  1
  H  H26  1  0.94578300  0.35355700  0.29819000  1
  H  H27  1  0.64644300  0.05421700  0.20181000  1
  H  H28  1  0.60033000  0.74141200  0.68253500  1
  H  H29  1  0.25858800  0.39967000  0.81746500  1
  H  H30  1  0.39967000  0.25858800  0.31746500  1
  H  H31  1  0.74141200  0.60033000  0.18253500  1
  H  H32  1  0.64832600  0.32312700  0.64925400  1
  H  H33  1  0.67687300  0.35167400  0.85074600  1
  H  H34  1  0.35167400  0.67687300  0.35074600  1
  H  H35  1  0.32312700  0.64832600  0.14925400  1
  H  H36  1  0.12788700  0.99255400  0.64986000  1
  H  H37  1  0.00744600  0.87211300  0.85014000  1
  H  H38  1  0.87211300  0.00744600  0.35014000  1
  H  H39  1  0.99255400  0.12788700  0.14986000  1
  H  H40  1  0.95064600  0.32223700  0.74897800  1
  H  H41  1  0.67776300  0.04935400  0.75102200  1
  H  H42  1  0.04935400  0.67776300  0.25102200  1
  H  H43  1  0.32223700  0.95064600  0.24897800  1
  C  C0  1  0.98706500  0.47649000  0.53652300  1
  C  C1  1  0.52351000  0.01293500  0.96347700  1
  C  C2  1  0.01293500  0.52351000  0.46347700  1
  C  C3  1  0.47649000  0.98706500  0.03652300  1
  C  C4  1  0.17032400  0.30650700  0.64859100  1
  C  C5  1  0.69349300  0.82967600  0.85140900  1
  C  C6  1  0.82967600  0.69349300  0.35140900  1
  C  C7  1  0.30650700  0.17032400  0.14859100  1
loop_
_geom_bond_atom_site_label_1
_geom_bond_atom_site_label_2
_geom_bond_distance
_geom_bond_site_symmetry_2
B0 H0 1.185375 1_555
B0 C4 1.691041 1_555
B0 C0 1.716354 1_455
B1 H1 1.185375 1_555
B1 C5 1.691041 1_555
B1 C1 1.716354 1_565
B2 H2 1.185375 1_555
B2 C6 1.691041 1_555
B2 C2 1.716354 1_655
B3 H3 1.185375 1_555
B3 C7 1.691041 1_555
B3 C3 1.716354 1_545
B4 H4 1.184910 1_555
B4 C4 1.692117 1_555
B4 C0 1.715771 1_455
B5 H5 1.184910 1_555
B5 C5 1.692117 1_555
B5 C1 1.715771 1_565
B6 H6 1.184910 1_555
B6 C6 1.692117 1_555
B6 C2 1.715771 1_655
B7 H7 1.184910 1_555
B7 C7 1.692117 1_555
B7 C3 1.715771 1_545
B8 H8 1.187943 1_555
B8 C0 1.736650 1_555
B9 H9 1.187943 1_555
B9 C1 1.736650 1_555
B10 H10 1.187943 1_555
B10 C2 1.736650 1_555
B11 H11 1.187943 1_555
B11 C3 1.736650 1_555
B12 H12 1.188890 1_555
B12 C0 1.736532 1_555
B13 H13 1.188890 1_555
B13 C1 1.736532 1_555
B14 H14 1.188890 1_555
B14 C2 1.736532 1_555
B15 H15 1.188890 1_555
B15 C3 1.736532 1_555
B16 H16 1.187751 1_555
B16 C0 1.736003 1_555
B17 H17 1.187751 1_555
B17 C1 1.736003 1_555
B18 H18 1.187751 1_555
B18 C2 1.736003 1_555
B19 H19 1.187751 1_555
B19 C3 1.736003 1_555
B20 H24 1.187513 1_555
B20 C4 1.702426 1_555
B21 H25 1.187513 1_555
B21 C5 1.702426 1_555
B22 H26 1.187513 1_555
B22 C6 1.702426 1_555
B23 H27 1.187513 1_555
B23 C7 1.702426 1_555
B24 H28 1.191059 1_555
B25 H29 1.191059 1_555
B26 H30 1.191059 1_555
B27 H31 1.191059 1_555
B28 H32 1.190095 1_555
B29 H33 1.190095 1_555
B30 H34 1.190095 1_555
B31 H35 1.190095 1_555
B32 H36 1.186959 1_545
B32 C4 1.703872 1_555
B33 H37 1.186959 1_655
B33 C5 1.703872 1_555
B34 H38 1.186959 1_565
B34 C6 1.703872 1_555
B35 H39 1.186959 1_455
B35 C7 1.703872 1_555
B36 H40 1.191762 1_555
B36 C4 1.708881 1_655
B37 H41 1.191762 1_555
B37 C5 1.708881 1_545
B38 H42 1.191762 1_555
B38 C6 1.708881 1_455
B39 H43 1.191762 1_555
B39 C7 1.708881 1_565
C0 C2 1.540076 1_655
C1 C3 1.540076 1_546
C4 H20 1.085302 1_555
C5 H21 1.085302 1_555
C6 H22 1.085302 1_555
C7 H23 1.085302 1_555
