# generated using pymatgen
data_PrMgS3
_symmetry_space_group_name_H-M   'P 1'
_cell_length_a   7.00278200
_cell_length_b   7.00278191
_cell_length_c   17.28135700
_cell_angle_alpha   90.00000000
_cell_angle_beta   90.00000000
_cell_angle_gamma   120.00000045
_symmetry_Int_Tables_number   1
_chemical_formula_structural   PrMgS3
_chemical_formula_sum   'Pr6 Mg6 S18'
_cell_volume   733.92161658
_cell_formula_units_Z   6
loop_
 _symmetry_equiv_pos_site_id
 _symmetry_equiv_pos_as_xyz
  1  'x, y, z'
loop_
 _atom_site_type_symbol
 _atom_site_label
 _atom_site_symmetry_multiplicity
 _atom_site_fract_x
 _atom_site_fract_y
 _atom_site_fract_z
 _atom_site_occupancy
  Pr  Pr0  1  0.00000000  0.00000000  0.35992100  1
  Pr  Pr1  1  0.00000000  0.00000000  0.64007900  1
  Pr  Pr2  1  0.66666700  0.33333300  0.69325400  1
  Pr  Pr3  1  0.66666700  0.33333300  0.97341200  1
  Pr  Pr4  1  0.33333300  0.66666700  0.02658800  1
  Pr  Pr5  1  0.33333300  0.66666700  0.30674600  1
  Mg  Mg0  1  0.00000000  0.00000000  0.15376200  1
  Mg  Mg1  1  0.00000000  0.00000000  0.84623800  1
  Mg  Mg2  1  0.66666700  0.33333300  0.48709500  1
  Mg  Mg3  1  0.66666700  0.33333300  0.17957100  1
  Mg  Mg4  1  0.33333300  0.66666700  0.82042900  1
  Mg  Mg5  1  0.33333300  0.66666700  0.51290500  1
  S  S0  1  0.98484700  0.36657400  0.58014700  1
  S  S1  1  0.01515300  0.63342600  0.41985300  1
  S  S2  1  0.63342600  0.61827300  0.58014700  1
  S  S3  1  0.36657400  0.38172700  0.41985300  1
  S  S4  1  0.38172700  0.01515300  0.58014700  1
  S  S5  1  0.61827300  0.98484700  0.41985300  1
  S  S6  1  0.65151400  0.69990700  0.91348000  1
  S  S7  1  0.68182000  0.96675900  0.75318600  1
  S  S8  1  0.30009300  0.95160600  0.91348000  1
  S  S9  1  0.03324100  0.71506000  0.75318600  1
  S  S10  1  0.04839400  0.34848600  0.91348000  1
  S  S11  1  0.28494000  0.31818000  0.75318600  1
  S  S12  1  0.31818000  0.03324100  0.24681400  1
  S  S13  1  0.34848600  0.30009300  0.08652000  1
  S  S14  1  0.96675900  0.28494000  0.24681400  1
  S  S15  1  0.69990700  0.04839400  0.08652000  1
  S  S16  1  0.71506000  0.68182000  0.24681400  1
  S  S17  1  0.95160600  0.65151400  0.08652000  1
loop_
_geom_bond_atom_site_label_1
_geom_bond_atom_site_label_2
_geom_bond_distance
_geom_bond_site_symmetry_2
Pr0 S3 2.818870 1_555
Pr0 S1 2.818870 1_545
Pr0 S5 2.818870 1_445
Pr0 S12 2.884576 1_555
Pr0 S16 2.884578 1_445
Pr0 S14 2.884581 1_455
Pr1 S2 2.818870 1_445
Pr1 S0 2.818870 1_455
Pr1 S4 2.818870 1_555
Pr1 S7 2.884576 1_445
Pr1 S11 2.884578 1_555
Pr1 S9 2.884581 1_545
Pr2 S9 2.818870 1_655
Pr2 S7 2.818870 1_545
Pr2 S11 2.818870 1_555
Pr2 S0 2.884576 1_555
Pr2 S4 2.884578 1_555
Pr2 S2 2.884581 1_555
Pr3 S8 2.818870 1_545
Pr3 S6 2.818870 1_555
Pr3 S10 2.818870 1_655
Pr3 S15 2.884585 1_556
Pr3 S17 2.884591 1_556
Pr3 S13 2.884595 1_556
Pr4 S15 2.818870 1_565
Pr4 S13 2.818870 1_555
Pr4 S17 2.818870 1_455
Pr4 S8 2.884585 1_554
Pr4 S10 2.884591 1_554
Pr4 S6 2.884595 1_554
Pr5 S14 2.818870 1_455
Pr5 S12 2.818870 1_565
Pr5 S16 2.818870 1_555
Pr5 S1 2.884576 1_555
Pr5 S5 2.884578 1_555
Pr5 S3 2.884581 1_555
Mg0 S17 2.567792 1_445
Mg0 S13 2.567795 1_555
Mg0 S15 2.567799 1_455
Mg0 S12 2.661959 1_555
Mg0 S16 2.661961 1_445
Mg0 S14 2.661964 1_455
Mg1 S10 2.567792 1_555
Mg1 S6 2.567795 1_445
Mg1 S8 2.567799 1_545
Mg1 S7 2.661959 1_445
Mg1 S11 2.661961 1_555
Mg1 S9 2.661964 1_545
Mg2 S5 2.567792 1_545
Mg2 S1 2.567795 1_655
Mg2 S3 2.567799 1_555
Mg2 S0 2.661959 1_555
Mg2 S4 2.661961 1_555
Mg2 S2 2.661964 1_555
Mg3 S14 2.567796 1_555
Mg3 S12 2.567804 1_555
Mg3 S16 2.567809 1_555
Mg3 S15 2.661945 1_555
Mg3 S17 2.661951 1_555
Mg3 S13 2.661956 1_555
Mg4 S9 2.567796 1_555
Mg4 S7 2.567804 1_555
Mg4 S11 2.567809 1_555
Mg4 S8 2.661945 1_555
Mg4 S10 2.661951 1_555
Mg4 S6 2.661956 1_555
Mg5 S4 2.567792 1_565
Mg5 S0 2.567795 1_455
Mg5 S2 2.567799 1_555
Mg5 S1 2.661959 1_555
Mg5 S5 2.661961 1_555
Mg5 S3 2.661964 1_555
