# generated using pymatgen
data_Mg6CrW
_symmetry_space_group_name_H-M   'P 1'
_cell_length_a   4.74174900
_cell_length_b   5.95139500
_cell_length_c   10.98088800
_cell_angle_alpha   90.00000000
_cell_angle_beta   90.00000000
_cell_angle_gamma   90.00000000
_symmetry_Int_Tables_number   1
_chemical_formula_structural   Mg6CrW
_chemical_formula_sum   'Mg12 Cr2 W2'
_cell_volume   309.88089314
_cell_formula_units_Z   2
loop_
 _symmetry_equiv_pos_site_id
 _symmetry_equiv_pos_as_xyz
  1  'x, y, z'
loop_
 _atom_site_type_symbol
 _atom_site_label
 _atom_site_symmetry_multiplicity
 _atom_site_fract_x
 _atom_site_fract_y
 _atom_site_fract_z
 _atom_site_occupancy
  Mg  Mg0  1  0.00000000  0.73909300  0.07885200  1
  Mg  Mg1  1  0.00000000  0.26090700  0.07885200  1
  Mg  Mg2  1  0.00000000  0.00000000  0.32814300  1
  Mg  Mg3  1  0.50000000  0.25507400  0.42300400  1
  Mg  Mg4  1  0.50000000  0.74492600  0.42300400  1
  Mg  Mg5  1  0.50000000  0.00000000  0.17101000  1
  Mg  Mg6  1  0.00000000  0.23909300  0.57885200  1
  Mg  Mg7  1  0.00000000  0.76090700  0.57885200  1
  Mg  Mg8  1  0.00000000  0.50000000  0.82814300  1
  Mg  Mg9  1  0.50000000  0.75507400  0.92300400  1
  Mg  Mg10  1  0.50000000  0.24492600  0.92300400  1
  Mg  Mg11  1  0.50000000  0.50000000  0.67101000  1
  Cr  Cr0  1  0.00000000  0.50000000  0.30339400  1
  Cr  Cr1  1  0.00000000  0.00000000  0.80339400  1
  W  W0  1  0.50000000  0.50000000  0.19374000  1
  W  W1  1  0.50000000  0.00000000  0.69374000  1
loop_
_geom_bond_atom_site_label_1
_geom_bond_atom_site_label_2
_geom_bond_distance
_geom_bond_site_symmetry_2
Mg0 Mg1 2.845874 1_555
Mg0 Mg9 2.925544 1_554
Mg0 Mg9 2.925544 1_454
Mg0 Mg5 3.009353 1_465
Mg0 Mg5 3.009353 1_565
Mg0 W0 3.039303 1_455
Mg0 W0 3.039303 1_555
Mg0 Mg8 3.099000 1_554
Mg0 Mg1 3.105521 1_565
Mg0 Mg2 3.147161 1_565
Mg1 Mg10 2.925544 1_554
Mg1 Mg10 2.925544 1_454
Mg1 Mg5 3.009353 1_455
Mg1 Mg5 3.009353 1_555
Mg1 W0 3.039303 1_455
Mg1 W0 3.039303 1_555
Mg1 Mg8 3.099000 1_554
Mg1 Mg2 3.147161 1_555
Mg2 Mg5 2.932279 1_455
Mg2 Mg5 2.932279 1_555
Mg2 Mg3 3.001760 1_555
Mg2 Mg4 3.001760 1_445
Mg2 Mg4 3.001760 1_545
Mg2 Mg3 3.001760 1_455
Mg2 Mg7 3.099000 1_545
Mg2 Mg6 3.099000 1_555
Mg3 W0 2.909066 1_555
Mg3 Mg4 2.915303 1_555
Mg3 Mg6 2.925544 1_555
Mg3 Mg6 2.925544 1_655
Mg3 Mg4 3.036092 1_545
Mg3 Mg5 3.156169 1_555
Mg3 W1 3.338072 1_555
Mg4 W0 2.909066 1_555
Mg4 Mg7 2.925544 1_655
Mg4 Mg7 2.925544 1_555
Mg4 Mg5 3.156169 1_565
Mg4 W1 3.338072 1_565
Mg5 W0 2.986147 1_545
Mg5 W0 2.986147 1_555
Mg5 Mg9 3.088892 1_544
Mg6 Mg7 2.845874 1_545
Mg6 W1 3.039303 1_555
Mg6 W1 3.039303 1_455
Mg6 Mg7 3.105521 1_555
Mg6 Mg8 3.147161 1_555
Mg7 W1 3.039303 1_565
Mg7 W1 3.039303 1_465
Mg7 Mg8 3.147161 1_555
Mg8 Mg9 3.001760 1_455
Mg8 Mg9 3.001760 1_555
Mg9 W1 2.909066 1_565
Mg9 W0 3.338072 1_556
Mg10 W1 2.909066 1_555
Mg10 Mg9 2.915303 1_545
Mg10 Mg8 3.001760 1_655
Mg10 Mg8 3.001760 1_555
Mg10 Mg9 3.036092 1_555
Mg10 Mg5 3.088892 1_556
Mg10 Mg11 3.156169 1_555
Mg10 W0 3.338072 1_556
Mg11 Mg8 2.932279 1_655
Mg11 Mg8 2.932279 1_555
Mg11 W1 2.986147 1_555
Mg11 W1 2.986147 1_565
Mg11 Mg7 3.009353 1_655
Mg11 Mg6 3.009353 1_555
Mg11 Mg7 3.009353 1_555
Mg11 Mg6 3.009353 1_655
Mg11 Mg4 3.088892 1_555
Mg11 Mg3 3.088892 1_555
Mg11 Mg9 3.156169 1_555
Cr0 W0 2.659116 1_555
Cr0 W0 2.659116 1_455
Cr0 Mg0 2.846802 1_555
Cr0 Mg1 2.846802 1_555
Cr0 Mg2 2.988082 1_555
Cr0 Mg2 2.988082 1_565
Cr0 Mg4 3.077479 1_455
Cr0 Mg4 3.077479 1_555
Cr0 Mg3 3.077479 1_555
Cr0 Mg3 3.077479 1_455
Cr0 Mg6 3.400047 1_555
Cr0 Mg7 3.400047 1_555
Cr1 W1 2.659116 1_555
Cr1 W1 2.659116 1_455
Cr1 Mg6 2.846802 1_555
Cr1 Mg7 2.846802 1_545
Cr1 Mg8 2.988082 1_555
Cr1 Mg8 2.988082 1_545
Cr1 Mg10 3.077479 1_455
Cr1 Mg9 3.077479 1_545
Cr1 Mg9 3.077479 1_445
Cr1 Mg10 3.077479 1_555
Cr1 Mg1 3.400047 1_556
Cr1 Mg0 3.400047 1_546
