# generated using pymatgen
data_HoGa3Ru
_symmetry_space_group_name_H-M   'P 1'
_cell_length_a   6.36198614
_cell_length_b   6.36198614
_cell_length_c   6.36198614
_cell_angle_alpha   90.00000000
_cell_angle_beta   90.00000000
_cell_angle_gamma   90.00000000
_symmetry_Int_Tables_number   1
_chemical_formula_structural   HoGa3Ru
_chemical_formula_sum   'Ho3 Ga9 Ru3'
_cell_volume   257.50054698
_cell_formula_units_Z   3
loop_
 _symmetry_equiv_pos_site_id
 _symmetry_equiv_pos_as_xyz
  1  'x, y, z'
loop_
 _atom_site_type_symbol
 _atom_site_label
 _atom_site_symmetry_multiplicity
 _atom_site_fract_x
 _atom_site_fract_y
 _atom_site_fract_z
 _atom_site_occupancy
  Ho  Ho0  1  0.50000000  0.50000000  0.00000000  1
  Ho  Ho1  1  0.50000000  -0.00000000  0.50000000  1
  Ho  Ho2  1  -0.00000000  0.50000000  0.50000000  1
  Ga  Ga0  1  0.50000000  0.50000000  0.50000000  1
  Ga  Ga1  1  0.20972533  0.20972533  0.79027467  1
  Ga  Ga2  1  0.20972533  0.79027467  0.20972533  1
  Ga  Ga3  1  0.79027467  0.20972533  0.20972533  1
  Ga  Ga4  1  0.79027467  0.79027467  0.79027467  1
  Ga  Ga5  1  0.79027467  0.79027467  0.20972533  1
  Ga  Ga6  1  0.79027467  0.20972533  0.79027467  1
  Ga  Ga7  1  0.20972533  0.79027467  0.79027467  1
  Ga  Ga8  1  0.20972533  0.20972533  0.20972533  1
  Ru  Ru0  1  -0.00000000  -0.00000000  0.50000000  1
  Ru  Ru1  1  -0.00000000  0.50000000  0.00000000  1
  Ru  Ru2  1  0.50000000  -0.00000000  0.00000000  1
loop_
_geom_bond_atom_site_label_1
_geom_bond_atom_site_label_2
_geom_bond_distance
_geom_bond_site_symmetry_2
Ho0 Ru1 3.180993 1_555
Ho0 Ru2 3.180993 1_565
Ho0 Ru2 3.180993 1_555
Ho0 Ru1 3.180993 1_655
Ho1 Ru0 3.180993 1_555
Ho1 Ru2 3.180993 1_556
Ho1 Ru0 3.180993 1_655
Ho1 Ru2 3.180993 1_555
Ho2 Ru0 3.180993 1_555
Ho2 Ru1 3.180993 1_555
Ho2 Ru0 3.180993 1_565
Ho2 Ru1 3.180993 1_556
Ga0 Ho2 3.180993 1_655
Ga0 Ho0 3.180993 1_555
Ga0 Ho1 3.180993 1_565
Ga0 Ho2 3.180993 1_555
Ga0 Ho1 3.180993 1_555
Ga0 Ho0 3.180993 1_556
Ga0 Ga8 3.198619 1_555
Ga0 Ga3 3.198619 1_555
Ga0 Ga2 3.198619 1_555
Ga0 Ga7 3.198619 1_555
Ga0 Ga6 3.198619 1_555
Ga0 Ga1 3.198619 1_555
Ga0 Ga4 3.198619 1_555
Ga0 Ga5 3.198619 1_555
Ga1 Ru2 2.640253 1_556
Ga1 Ru1 2.640253 1_556
Ga1 Ru0 2.640253 1_555
Ga1 Ga8 2.668539 1_556
Ga1 Ga6 2.668539 1_455
Ga1 Ga7 2.668539 1_545
Ga1 Ho0 2.932755 1_556
Ga1 Ho1 2.932755 1_555
Ga1 Ho2 2.932755 1_555
Ga2 Ru0 2.640253 1_565
Ga2 Ru2 2.640253 1_565
Ga2 Ru1 2.640253 1_555
Ga2 Ga8 2.668539 1_565
Ga2 Ga5 2.668539 1_455
Ga2 Ga7 2.668539 1_554
Ga2 Ho1 2.932755 1_565
Ga2 Ho0 2.932755 1_555
Ga2 Ho2 2.932755 1_555
Ga3 Ru1 2.640253 1_655
Ga3 Ru0 2.640253 1_655
Ga3 Ru2 2.640253 1_555
Ga3 Ga8 2.668539 1_655
Ga3 Ga5 2.668539 1_545
Ga3 Ga6 2.668539 1_554
Ga3 Ho2 2.932755 1_655
Ga3 Ho0 2.932755 1_555
Ga3 Ho1 2.932755 1_555
Ga4 Ru0 2.640253 1_665
Ga4 Ru1 2.640253 1_656
Ga4 Ru2 2.640253 1_566
Ga4 Ga5 2.668539 1_556
Ga4 Ga7 2.668539 1_655
Ga4 Ga6 2.668539 1_565
Ga4 Ho0 2.932755 1_556
Ga4 Ho2 2.932755 1_655
Ga4 Ho1 2.932755 1_565
Ga5 Ru0 2.640253 1_665
Ga5 Ru2 2.640253 1_565
Ga5 Ru1 2.640253 1_655
Ga5 Ho2 2.932755 1_655
Ga5 Ho1 2.932755 1_565
Ga5 Ho0 2.932755 1_555
Ga6 Ru1 2.640253 1_656
Ga6 Ru2 2.640253 1_556
Ga6 Ru0 2.640253 1_655
Ga6 Ho0 2.932755 1_556
Ga6 Ho2 2.932755 1_655
Ga6 Ho1 2.932755 1_555
Ga7 Ru2 2.640253 1_566
Ga7 Ru1 2.640253 1_556
Ga7 Ru0 2.640253 1_565
Ga7 Ho0 2.932755 1_556
Ga7 Ho1 2.932755 1_565
Ga7 Ho2 2.932755 1_555
Ga8 Ru1 2.640253 1_555
Ga8 Ru2 2.640253 1_555
Ga8 Ru0 2.640253 1_555
Ga8 Ho0 2.932755 1_555
Ga8 Ho1 2.932755 1_555
Ga8 Ho2 2.932755 1_555
