# generated using pymatgen
data_ZnO
_symmetry_space_group_name_H-M   'P 1'
_cell_length_a   10.08984392
_cell_length_b   10.78156587
_cell_length_c   9.99263761
_cell_angle_alpha   88.50685659
_cell_angle_beta   86.84139405
_cell_angle_gamma   89.67767685
_symmetry_Int_Tables_number   1
_chemical_formula_structural   ZnO
_chemical_formula_sum   'Zn40 O40'
_cell_volume   1085.01275386
_cell_formula_units_Z   40
loop_
 _symmetry_equiv_pos_site_id
 _symmetry_equiv_pos_as_xyz
  1  'x, y, z'
loop_
 _atom_site_type_symbol
 _atom_site_label
 _atom_site_symmetry_multiplicity
 _atom_site_fract_x
 _atom_site_fract_y
 _atom_site_fract_z
 _atom_site_occupancy
  Zn  Zn0  1  0.52758700  0.58387300  0.82014700  1
  Zn  Zn1  1  0.68717400  0.48334600  0.09310600  1
  Zn  Zn2  1  0.59861700  0.34956500  0.60092900  1
  Zn  Zn3  1  0.23186100  0.08194500  0.43308400  1
  Zn  Zn4  1  0.49873800  0.13669200  0.14825000  1
  Zn  Zn5  1  0.44780600  0.87840500  0.55733000  1
  Zn  Zn6  1  0.45903500  0.40571000  0.32228400  1
  Zn  Zn7  1  0.15188200  0.56056500  0.20068800  1
  Zn  Zn8  1  0.08368200  0.51834100  0.53674700  1
  Zn  Zn9  1  0.76406400  0.19025600  0.78204300  1
  Zn  Zn10  1  0.59955400  0.69173500  0.33694500  1
  Zn  Zn11  1  0.35438100  0.57749100  0.56911300  1
  Zn  Zn12  1  0.16811800  0.30784500  0.30267900  1
  Zn  Zn13  1  0.38903100  0.81299400  0.08531400  1
  Zn  Zn14  1  0.00077500  0.63709700  0.96750800  1
  Zn  Zn15  1  0.28548800  0.76865600  0.37719800  1
  Zn  Zn16  1  0.38155100  0.11913400  0.76963000  1
  Zn  Zn17  1  0.18680200  0.41159400  0.85519300  1
  Zn  Zn18  1  0.40363800  0.54672700  0.09122600  1
  Zn  Zn19  1  0.99141300  0.09407800  0.19710800  1
  Zn  Zn20  1  0.03600600  0.17781600  0.80929700  1
  Zn  Zn21  1  0.72448700  0.97020800  0.12031000  1
  Zn  Zn22  1  0.95492500  0.33486800  0.02910300  1
  Zn  Zn23  1  0.02695300  0.74684500  0.63779200  1
  Zn  Zn24  1  0.25157800  0.80666800  0.84421300  1
  Zn  Zn25  1  0.70441100  0.74311700  0.97536600  1
  Zn  Zn26  1  0.07634100  0.85441000  0.08236900  1
  Zn  Zn27  1  0.82591100  0.49280500  0.80238200  1
  Zn  Zn28  1  0.52457800  0.88806200  0.84522500  1
  Zn  Zn29  1  0.92478000  0.21240900  0.51874700  1
  Zn  Zn30  1  0.86993600  0.45455500  0.33128700  1
  Zn  Zn31  1  0.76123400  0.84585400  0.63489100  1
  Zn  Zn32  1  0.27075800  0.30481200  0.59716000  1
  Zn  Zn33  1  0.54819000  0.27289100  0.93326600  1
  Zn  Zn34  1  0.73024500  0.23742800  0.27994300  1
  Zn  Zn35  1  0.77958700  0.96616700  0.40614500  1
  Zn  Zn36  1  0.88378400  0.76069800  0.29692200  1
  Zn  Zn37  1  0.76607200  0.55790200  0.55120200  1
  Zn  Zn38  1  0.52450900  0.10640800  0.47274700  1
  Zn  Zn39  1  0.22591200  0.11207200  0.04251600  1
  O  O0  1  0.80465000  0.59671500  0.97250700  1
  O  O1  1  0.37713800  0.92466300  0.74353200  1
  O  O2  1  0.24243400  0.91815200  0.01673700  1
  O  O3  1  0.87370500  0.32617600  0.85216400  1
  O  O4  1  0.77453800  0.34270300  0.48431800  1
  O  O5  1  0.34200300  0.93773200  0.40341500  1
  O  O6  1  0.04175300  0.16962800  0.01262800  1
  O  O7  1  0.36463200  0.14331500  0.57231700  1
  O  O8  1  0.68171100  0.14109500  0.06577900  1
  O  O9  1  0.66973400  0.78079100  0.78529300  1
  O  O10  1  0.92835900  0.57700900  0.65085500  1
  O  O11  1  0.43808700  0.41072800  0.51532100  1
  O  O12  1  0.62817100  0.97154800  0.54778000  1
  O  O13  1  0.22024000  0.47356500  0.67272200  1
  O  O14  1  0.30372600  0.41548700  0.20831000  1
  O  O15  1  0.12206300  0.23313700  0.48985300  1
  O  O16  1  0.69992100  0.84863100  0.28090700  1
  O  O17  1  0.17953900  0.68543600  0.51954200  1
  O  O18  1  0.47037500  0.70703200  0.49358100  1
  O  O19  1  0.65061300  0.50339200  0.70210100  1
  O  O20  1  0.17925500  0.13296400  0.24194900  1
  O  O21  1  0.53515600  0.21754000  0.31308200  1
  O  O22  1  0.39271900  0.67570500  0.91658900  1
  O  O23  1  0.91653900  0.93657700  0.14234100  1
  O  O24  1  0.30286600  0.69050900  0.20320800  1
  O  O25  1  0.01698900  0.69457200  0.16185300  1
  O  O26  1  0.22036300  0.23883500  0.79730000  1
  O  O27  1  0.09189700  0.47624700  0.00746100  1
  O  O28  1  0.53855200  0.44565400  0.97095700  1
  O  O29  1  0.78113000  0.61352500  0.37099900  1
  O  O30  1  0.57462800  0.86718800  0.03323600  1
  O  O31  1  0.81764700  0.37120700  0.17071000  1
  O  O32  1  0.06913100  0.75997200  0.83090100  1
  O  O33  1  0.57963900  0.21558400  0.74741700  1
  O  O34  1  0.55450900  0.55039200  0.22356100  1
  O  O35  1  0.86311400  0.12297200  0.35251700  1
  O  O36  1  0.90471100  0.83814700  0.50535300  1
  O  O37  1  0.91099500  0.11141400  0.69055800  1
  O  O38  1  0.05974000  0.46221900  0.35303100  1
  O  O39  1  0.41000300  0.14076300  0.98204800  1
loop_
_geom_bond_atom_site_label_1
_geom_bond_atom_site_label_2
_geom_bond_distance
_geom_bond_site_symmetry_2
O0 Zn25 1.869873 1_555
O0 Zn14 2.026240 1_655
O0 Zn1 2.033069 1_556
O0 Zn27 2.060940 1_555
O1 Zn28 1.881629 1_555
O1 Zn24 2.011605 1_555
O1 Zn5 2.029118 1_555
O1 Zn16 2.120608 1_565
O2 Zn26 1.891891 1_555
O2 Zn13 1.998804 1_555
O2 Zn39 2.117745 1_565
O2 Zn24 2.124744 1_554
O3 Zn27 1.917711 1_555
O3 Zn22 1.993907 1_556
O3 Zn9 2.004855 1_555
O3 Zn20 2.313590 1_655
O4 Zn2 2.071002 1_555
O4 Zn29 2.097161 1_555
O4 Zn30 2.115170 1_555
O4 Zn34 2.426082 1_555
O4 Zn37 2.430951 1_555
O5 Zn3 1.925805 1_565
O5 Zn15 1.941601 1_555
O5 Zn5 2.009042 1_555
O6 Zn22 1.987550 1_455
O6 Zn39 1.991347 1_555
O6 Zn19 2.035428 1_455
O6 Zn20 2.035436 1_554
O7 Zn38 1.893947 1_555
O7 Zn32 1.992127 1_555
O7 Zn16 1.998606 1_555
O7 Zn3 2.105114 1_555
O8 Zn21 1.960205 1_545
O8 Zn4 1.980158 1_555
O8 Zn33 2.380018 1_554
O8 Zn34 2.476986 1_555
O9 Zn31 1.844613 1_555
O9 Zn28 1.939510 1_555
O9 Zn25 1.981487 1_555
O10 Zn37 1.977237 1_555
O10 Zn27 1.987913 1_555
O10 Zn8 1.996453 1_655
O10 Zn23 2.086459 1_655
O11 Zn6 1.931017 1_555
O11 Zn2 1.975202 1_555
O11 Zn11 2.053822 1_555
O11 Zn32 2.155020 1_555
O12 Zn38 1.944932 1_565
O12 Zn35 2.026209 1_555
O12 Zn5 2.079875 1_555
O12 Zn31 2.107985 1_555
O13 Zn17 1.938083 1_555
O13 Zn11 1.990335 1_555
O13 Zn8 2.035279 1_555
O13 Zn32 2.039357 1_555
O14 Zn12 1.981642 1_555
O14 Zn6 1.988063 1_555
O14 Zn18 2.046229 1_555
O14 Zn7 2.186181 1_555
O15 Zn29 2.008463 1_455
O15 Zn3 2.040813 1_555
O15 Zn12 2.047655 1_555
O15 Zn32 2.057036 1_555
O16 Zn35 2.005763 1_555
O16 Zn10 2.026814 1_555
O16 Zn21 2.050646 1_555
O16 Zn36 2.090698 1_555
O17 Zn15 1.935908 1_555
O17 Zn23 2.008408 1_555
O17 Zn8 2.048342 1_555
O17 Zn11 2.180628 1_555
O18 Zn11 1.938084 1_555
O18 Zn5 1.977916 1_555
O18 Zn10 1.990510 1_555
O18 Zn15 2.336413 1_555
O19 Zn0 1.888142 1_555
O19 Zn37 1.934987 1_555
O19 Zn2 2.050253 1_555
O19 Zn27 2.081506 1_555
O20 Zn12 1.996423 1_555
O20 Zn19 2.020152 1_455
O20 Zn39 2.040261 1_555
O20 Zn3 2.070234 1_555
O21 Zn4 1.937243 1_555
O21 Zn38 1.968665 1_555
O21 Zn34 1.989854 1_555
O21 Zn6 2.167639 1_555
O22 Zn0 1.910717 1_555
O22 Zn24 2.140667 1_555
O22 Zn18 2.210018 1_556
O22 Zn13 2.271012 1_556
O23 Zn26 1.910185 1_655
O23 Zn19 1.965255 1_565
O23 Zn21 1.992450 1_555
O23 Zn36 2.426757 1_555
O24 Zn13 1.925253 1_555
O24 Zn15 1.950515 1_555
O24 Zn7 2.077084 1_555
O24 Zn18 2.153223 1_555
O25 Zn26 1.961404 1_555
O25 Zn36 1.993943 1_455
O25 Zn7 2.024197 1_555
O25 Zn14 2.069073 1_554
O26 Zn20 1.972906 1_555
O26 Zn17 1.986487 1_555
O26 Zn16 2.081462 1_555
O26 Zn32 2.140589 1_555
O27 Zn17 1.898734 1_554
O27 Zn14 1.999657 1_554
O27 Zn22 2.062475 1_455
O27 Zn7 2.268780 1_555
O28 Zn33 1.910833 1_555
O28 Zn1 2.034236 1_556
O28 Zn18 2.087138 1_556
O28 Zn0 2.098449 1_555
O29 Zn37 1.881451 1_555
O29 Zn30 1.968997 1_555
O29 Zn36 2.002828 1_555
O29 Zn10 2.054188 1_555
O30 Zn25 1.943118 1_554
O30 Zn28 1.979020 1_554
O30 Zn13 2.002020 1_555
O30 Zn21 2.119273 1_555
O31 Zn30 1.958148 1_555
O31 Zn1 1.960075 1_555
O31 Zn34 1.968675 1_555
O31 Zn22 1.970061 1_555
O32 Zn24 1.923756 1_555
O32 Zn14 1.976468 1_555
O32 Zn23 2.007528 1_555
O33 Zn9 1.928017 1_555
O33 Zn33 1.980907 1_555
O33 Zn2 2.031763 1_555
O33 Zn16 2.255615 1_555
O34 Zn1 1.964579 1_555
O34 Zn10 1.991747 1_555
O34 Zn6 2.041186 1_555
O34 Zn18 2.071898 1_555
O35 Zn35 1.942840 1_545
O35 Zn34 1.971772 1_555
O35 Zn19 1.995895 1_555
O35 Zn29 2.068875 1_555
O36 Zn31 1.891009 1_555
O36 Zn23 2.083276 1_655
O36 Zn35 2.128086 1_555
O36 Zn36 2.284925 1_555
O37 Zn9 1.906067 1_555
O37 Zn20 1.931501 1_655
O37 Zn29 2.007619 1_555
O38 Zn30 1.941698 1_455
O38 Zn8 1.975621 1_555
O38 Zn7 2.019172 1_555
O38 Zn12 2.044915 1_555
O39 Zn4 1.929092 1_556
O39 Zn39 1.945237 1_556
O39 Zn33 2.030331 1_555
O39 Zn16 2.176233 1_555
