# generated using pymatgen
data_NaMg14Cr
_symmetry_space_group_name_H-M   'P 1'
_cell_length_a   6.40927411
_cell_length_b   6.40927358
_cell_length_c   10.21649641
_cell_angle_alpha   90.00000000
_cell_angle_beta   90.00000000
_cell_angle_gamma   120.00000268
_symmetry_Int_Tables_number   1
_chemical_formula_structural   NaMg14Cr
_chemical_formula_sum   'Na1 Mg14 Cr1'
_cell_volume   363.45467741
_cell_formula_units_Z   1
loop_
 _symmetry_equiv_pos_site_id
 _symmetry_equiv_pos_as_xyz
  1  'x, y, z'
loop_
 _atom_site_type_symbol
 _atom_site_label
 _atom_site_symmetry_multiplicity
 _atom_site_fract_x
 _atom_site_fract_y
 _atom_site_fract_z
 _atom_site_occupancy
  Na  Na0  1  0.16666700  0.33333300  0.12500000  1
  Mg  Mg0  1  0.16872031  0.83435965  0.12500000  1
  Mg  Mg1  1  0.16803178  0.83401539  0.62500000  1
  Mg  Mg2  1  0.66564035  0.33127969  0.12500000  1
  Mg  Mg3  1  0.66598461  0.33196822  0.62500000  1
  Mg  Mg4  1  0.66564035  0.83435965  0.12500000  1
  Mg  Mg5  1  0.66598461  0.83401539  0.62500000  1
  Mg  Mg6  1  0.33264070  0.16735930  0.38125344  1
  Mg  Mg7  1  0.33264070  0.16735930  0.86874656  1
  Mg  Mg8  1  0.33264070  0.66528240  0.38125344  1
  Mg  Mg9  1  0.33264070  0.66528240  0.86874656  1
  Mg  Mg10  1  0.83471760  0.16735930  0.38125344  1
  Mg  Mg11  1  0.83471760  0.16735930  0.86874656  1
  Mg  Mg12  1  0.83333300  0.66666700  0.37245696  1
  Mg  Mg13  1  0.83333300  0.66666700  0.87754304  1
  Cr  Cr0  1  0.16666700  0.33333300  0.62500000  1
loop_
_geom_bond_atom_site_label_1
_geom_bond_atom_site_label_2
_geom_bond_distance
_geom_bond_site_symmetry_2
Mg0 Mg13 3.139595 1_454
Mg0 Mg12 3.139595 1_455
Mg0 Mg2 3.184896 1_565
Mg0 Mg4 3.184897 1_555
Mg0 Na0 3.204657 1_555
Mg0 Na0 3.204657 1_565
Mg0 Mg8 3.204778 1_555
Mg0 Mg9 3.204778 1_554
Mg0 Mg6 3.204785 1_565
Mg0 Mg7 3.204785 1_564
Mg0 Mg2 3.224377 1_455
Mg0 Mg4 3.224377 1_455
Mg1 Mg8 3.102396 1_555
Mg1 Mg9 3.102396 1_555
Mg1 Mg7 3.102402 1_565
Mg1 Mg6 3.102402 1_565
Mg1 Mg12 3.179352 1_455
Mg1 Mg13 3.179352 1_455
Mg1 Mg3 3.191516 1_565
Mg1 Mg5 3.191516 1_555
Mg1 Mg3 3.217758 1_455
Mg1 Mg5 3.217758 1_455
Mg2 Mg4 3.184896 1_545
Mg2 Na0 3.204657 1_655
Mg2 Na0 3.204657 1_555
Mg2 Mg7 3.204785 1_554
Mg2 Mg6 3.204785 1_555
Mg2 Mg4 3.224377 1_555
Mg3 Mg7 3.102402 1_555
Mg3 Mg6 3.102402 1_555
Mg3 Mg5 3.191516 1_545
Mg3 Mg5 3.217758 1_555
Mg4 Na0 3.204657 1_555
Mg4 Na0 3.204657 1_665
Mg4 Mg8 3.204785 1_555
Mg4 Mg9 3.204785 1_554
Mg5 Mg9 3.102402 1_555
Mg5 Mg8 3.102402 1_555
Mg6 Mg8 3.191325 1_555
Mg6 Na0 3.201377 1_555
Mg6 Mg8 3.217948 1_545
Mg7 Mg9 3.191325 1_555
Mg7 Na0 3.201377 1_556
Mg7 Mg9 3.217948 1_545
Mg8 Na0 3.201383 1_555
Mg9 Na0 3.201383 1_556
Mg10 Mg3 3.102396 1_555
Mg10 Mg5 3.102402 1_545
Mg10 Mg8 3.191325 1_655
Mg10 Mg6 3.191326 1_655
Mg10 Na0 3.201383 1_655
Mg10 Mg2 3.204778 1_555
Mg10 Mg4 3.204784 1_545
Mg10 Mg12 3.205906 1_545
Mg10 Mg12 3.205906 1_555
Mg10 Mg8 3.217948 1_545
Mg10 Mg6 3.217948 1_555
Mg11 Mg3 3.102396 1_555
Mg11 Mg5 3.102402 1_545
Mg11 Mg9 3.191325 1_655
Mg11 Mg7 3.191326 1_655
Mg11 Na0 3.201383 1_656
Mg11 Mg2 3.204778 1_556
Mg11 Mg4 3.204784 1_546
Mg11 Mg13 3.205906 1_545
Mg11 Mg13 3.205906 1_555
Mg11 Mg9 3.217948 1_545
Mg11 Mg7 3.217948 1_555
Mg12 Mg4 3.139589 1_555
Mg12 Mg2 3.139595 1_555
Mg12 Mg5 3.179345 1_555
Mg12 Mg3 3.179352 1_555
Mg12 Mg6 3.205906 1_665
Mg12 Mg6 3.205906 1_555
Mg12 Mg8 3.205906 1_655
Mg12 Mg8 3.205906 1_555
Mg13 Mg4 3.139589 1_556
Mg13 Mg2 3.139595 1_556
Mg13 Mg5 3.179345 1_555
Mg13 Mg3 3.179352 1_555
Mg13 Mg7 3.205906 1_665
Mg13 Mg7 3.205906 1_555
Mg13 Mg9 3.205906 1_655
Mg13 Mg9 3.205906 1_555
Cr0 Mg7 3.097757 1_555
Cr0 Mg6 3.097757 1_555
Cr0 Mg9 3.097764 1_555
Cr0 Mg8 3.097764 1_555
Cr0 Mg11 3.097764 1_455
Cr0 Mg10 3.097764 1_455
Cr0 Mg1 3.204646 1_555
Cr0 Mg1 3.204646 1_545
Cr0 Mg5 3.204646 1_555
Cr0 Mg5 3.204646 1_445
Cr0 Mg3 3.204646 1_555
Cr0 Mg3 3.204646 1_455
