# generated using pymatgen
data_HfMg6Cu
_symmetry_space_group_name_H-M   'P 1'
_cell_length_a   4.90627600
_cell_length_b   5.93838500
_cell_length_c   11.37022300
_cell_angle_alpha   90.00000000
_cell_angle_beta   90.00000000
_cell_angle_gamma   90.00000000
_symmetry_Int_Tables_number   1
_chemical_formula_structural   HfMg6Cu
_chemical_formula_sum   'Hf2 Mg12 Cu2'
_cell_volume   331.27549268
_cell_formula_units_Z   2
loop_
 _symmetry_equiv_pos_site_id
 _symmetry_equiv_pos_as_xyz
  1  'x, y, z'
loop_
 _atom_site_type_symbol
 _atom_site_label
 _atom_site_symmetry_multiplicity
 _atom_site_fract_x
 _atom_site_fract_y
 _atom_site_fract_z
 _atom_site_occupancy
  Hf  Hf0  1  0.50000000  0.50000000  0.18160300  1
  Hf  Hf1  1  0.50000000  0.00000000  0.68160300  1
  Mg  Mg0  1  0.50000000  0.25148000  0.42957800  1
  Mg  Mg1  1  0.50000000  0.74852000  0.42957800  1
  Mg  Mg2  1  0.00000000  0.74885500  0.08175100  1
  Mg  Mg3  1  0.00000000  0.25114500  0.08175100  1
  Mg  Mg4  1  0.00000000  0.00000000  0.30980900  1
  Mg  Mg5  1  0.00000000  0.50000000  0.33343100  1
  Mg  Mg6  1  0.50000000  0.75148000  0.92957800  1
  Mg  Mg7  1  0.50000000  0.24852000  0.92957800  1
  Mg  Mg8  1  0.00000000  0.24885500  0.58175100  1
  Mg  Mg9  1  0.00000000  0.75114500  0.58175100  1
  Mg  Mg10  1  0.00000000  0.50000000  0.80980900  1
  Mg  Mg11  1  0.00000000  0.00000000  0.83343100  1
  Cu  Cu0  1  0.50000000  0.00000000  0.15249600  1
  Cu  Cu1  1  0.50000000  0.50000000  0.65249600  1
loop_
_geom_bond_atom_site_label_1
_geom_bond_atom_site_label_2
_geom_bond_distance
_geom_bond_site_symmetry_2
Hf0 Mg5 2.999677 1_555
Hf0 Mg5 2.999677 1_655
Hf0 Mg2 3.080709 1_555
Hf0 Mg3 3.080709 1_655
Hf0 Mg2 3.080709 1_655
Hf0 Mg3 3.080709 1_555
Hf0 Mg0 3.182415 1_555
Hf0 Mg1 3.182415 1_555
Hf0 Mg6 3.231370 1_554
Hf0 Mg7 3.231370 1_554
Hf1 Mg11 2.999677 1_655
Hf1 Mg11 2.999677 1_555
Hf1 Mg8 3.080709 1_555
Hf1 Mg8 3.080709 1_655
Hf1 Mg9 3.080709 1_545
Hf1 Mg9 3.080709 1_645
Hf1 Mg6 3.182415 1_545
Hf1 Mg7 3.182415 1_555
Hf1 Mg1 3.231370 1_545
Hf1 Mg0 3.231370 1_555
Mg0 Mg5 3.064475 1_555
Mg0 Mg5 3.064475 1_655
Mg1 Mg5 3.064475 1_655
Mg1 Mg5 3.064475 1_555
Mg2 Mg5 3.220709 1_555
Mg3 Mg5 3.220709 1_555
Mg4 Mg5 2.981316 1_555
Mg4 Mg5 2.981316 1_545
Mg5 Mg9 3.193141 1_555
Mg5 Mg8 3.193141 1_555
Mg10 Mg11 2.981316 1_565
Mg10 Mg11 2.981316 1_555
Mg11 Mg6 3.064475 1_445
Mg11 Mg6 3.064475 1_545
Mg11 Mg7 3.064475 1_555
Mg11 Mg7 3.064475 1_455
Mg11 Mg3 3.193141 1_556
Mg11 Mg2 3.193141 1_546
Mg11 Mg9 3.220709 1_545
Mg11 Mg8 3.220709 1_555
Cu0 Mg7 2.932975 1_554
Cu0 Mg6 2.932975 1_544
Cu0 Mg2 2.981474 1_545
Cu0 Mg3 2.981474 1_655
Cu0 Mg3 2.981474 1_555
Cu0 Mg2 2.981474 1_645
Cu0 Hf0 2.987580 1_555
Cu0 Hf0 2.987580 1_545
Cu0 Mg4 3.035997 1_655
Cu0 Mg4 3.035997 1_555
Cu1 Mg1 2.932975 1_555
Cu1 Mg0 2.932975 1_555
Cu1 Mg9 2.981474 1_555
Cu1 Mg9 2.981474 1_655
Cu1 Mg8 2.981474 1_555
Cu1 Mg8 2.981474 1_655
Cu1 Hf1 2.987580 1_555
Cu1 Hf1 2.987580 1_565
Cu1 Mg10 3.035997 1_555
Cu1 Mg10 3.035997 1_655
