# generated using pymatgen
data_MgTi3P3O13
_symmetry_space_group_name_H-M   'P 1'
_cell_length_a   6.41640800
_cell_length_b   7.73099300
_cell_length_c   10.24189869
_cell_angle_alpha   80.26440294
_cell_angle_beta   90.00000000
_cell_angle_gamma   90.00000000
_symmetry_Int_Tables_number   1
_chemical_formula_structural   MgTi3P3O13
_chemical_formula_sum   'Mg2 Ti6 P6 O26'
_cell_volume   500.73483432
_cell_formula_units_Z   2
loop_
 _symmetry_equiv_pos_site_id
 _symmetry_equiv_pos_as_xyz
  1  'x, y, z'
loop_
 _atom_site_type_symbol
 _atom_site_label
 _atom_site_symmetry_multiplicity
 _atom_site_fract_x
 _atom_site_fract_y
 _atom_site_fract_z
 _atom_site_occupancy
  Mg  Mg0  1  0.75000000  0.38514200  0.17009700  1
  Mg  Mg1  1  0.25000000  0.61485800  0.82990300  1
  Ti  Ti0  1  0.25000000  0.64780100  0.20313900  1
  Ti  Ti1  1  0.75000000  0.35219900  0.79686100  1
  Ti  Ti2  1  0.25000000  0.20841900  0.43156900  1
  Ti  Ti3  1  0.50000000  0.00000000  0.00000000  1
  Ti  Ti4  1  0.75000000  0.79158100  0.56843100  1
  Ti  Ti5  1  0.00000000  0.00000000  0.00000000  1
  P  P0  1  0.25000000  0.77708000  0.49898400  1
  P  P1  1  0.75000000  0.22292000  0.50101600  1
  P  P2  1  0.25000000  0.27333100  0.75997900  1
  P  P3  1  0.75000000  0.72666900  0.24002100  1
  P  P4  1  0.75000000  0.67903800  0.88756200  1
  P  P5  1  0.25000000  0.32096200  0.11243800  1
  O  O0  1  0.75000000  0.63104900  0.74490200  1
  O  O1  1  0.56011800  0.25372200  0.40724300  1
  O  O2  1  0.25000000  0.22776700  0.62079000  1
  O  O3  1  0.54532900  0.78096800  0.90157800  1
  O  O4  1  0.75000000  0.34372800  0.60480100  1
  O  O5  1  0.75000000  0.13169400  0.90116900  1
  O  O6  1  0.25000000  0.65627200  0.39519900  1
  O  O7  1  0.04532900  0.21903200  0.09842200  1
  O  O8  1  0.25000000  0.97108200  0.42203400  1
  O  O9  1  0.75000000  0.02891800  0.57796600  1
  O  O10  1  0.06516600  0.39373300  0.78601400  1
  O  O11  1  0.25000000  0.86830600  0.09883100  1
  O  O12  1  0.56516600  0.60626700  0.21398600  1
  O  O13  1  0.75000000  0.49243200  0.97292500  1
  O  O14  1  0.75000000  0.77223300  0.37921000  1
  O  O15  1  0.45467100  0.21903200  0.09842200  1
  O  O16  1  0.93988200  0.25372200  0.40724300  1
  O  O17  1  0.43988200  0.74627800  0.59275700  1
  O  O18  1  0.43483400  0.39373300  0.78601400  1
  O  O19  1  0.25000000  0.36895100  0.25509800  1
  O  O20  1  0.75000000  0.89875400  0.13570700  1
  O  O21  1  0.25000000  0.10124600  0.86429300  1
  O  O22  1  0.93483400  0.60626700  0.21398600  1
  O  O23  1  0.95467100  0.78096800  0.90157800  1
  O  O24  1  0.06011800  0.74627800  0.59275700  1
  O  O25  1  0.25000000  0.50756800  0.02707500  1
loop_
_geom_bond_atom_site_label_1
_geom_bond_atom_site_label_2
_geom_bond_distance
_geom_bond_site_symmetry_2
Mg0 O13 2.049279 1_554
Mg0 O22 2.188816 1_555
Mg0 O12 2.188816 1_555
Mg0 O7 2.469355 1_655
Mg0 O15 2.469355 1_555
Mg1 O25 2.049279 1_556
Mg1 O18 2.188816 1_555
Mg1 O10 2.188816 1_555
Mg1 O3 2.469355 1_555
Mg1 O23 2.469355 1_455
O0 P4 1.567104 1_555
O0 Ti4 2.012044 1_555
O0 Ti1 2.131342 1_555
O1 P1 1.544718 1_555
O1 Ti2 2.028474 1_555
O2 P2 1.525168 1_555
O2 Ti2 1.968804 1_555
O3 P4 1.550636 1_555
O3 Ti3 2.131991 1_566
O4 P1 1.529027 1_555
O4 Ti1 1.979186 1_555
O5 Ti1 1.852415 1_555
O5 Ti3 2.070209 1_556
O5 Ti5 2.070209 1_656
O6 P0 1.529027 1_555
O6 Ti0 1.979186 1_555
O7 P5 1.550636 1_555
O7 Ti5 2.131991 1_555
O8 P0 1.571890 1_555
O8 Ti2 1.853865 1_565
O9 P1 1.571890 1_555
O9 Ti4 1.853865 1_545
O10 P2 1.558207 1_555
O10 Ti1 2.047635 1_455
O11 Ti0 1.852415 1_555
O11 Ti3 2.070209 1_565
O11 Ti5 2.070209 1_565
O12 P3 1.558207 1_555
O12 Ti0 2.047635 1_555
O13 P4 1.555324 1_555
O13 Ti1 2.255697 1_555
O14 P3 1.525168 1_555
O14 Ti4 1.968804 1_555
O15 P5 1.550636 1_555
O15 Ti3 2.131991 1_555
O16 P1 1.544718 1_555
O16 Ti2 2.028474 1_655
O17 P0 1.544718 1_555
O17 Ti4 2.028474 1_555
O18 P2 1.558207 1_555
O18 Ti1 2.047635 1_555
O19 P5 1.567104 1_555
O19 Ti2 2.012044 1_555
O19 Ti0 2.131342 1_555
O20 P3 1.559054 1_555
O20 Ti5 2.179378 1_665
O20 Ti3 2.179378 1_565
O21 P2 1.559054 1_555
O21 Ti5 2.179378 1_556
O21 Ti3 2.179378 1_556
O22 P3 1.558207 1_555
O22 Ti0 2.047635 1_655
O23 P4 1.550636 1_555
O23 Ti5 2.131991 1_666
O24 P0 1.544718 1_555
O24 Ti4 2.028474 1_455
O25 P5 1.555324 1_555
O25 Ti0 2.255697 1_555
