# generated using pymatgen
data_Li7Mn2(CoO4)3
_symmetry_space_group_name_H-M   'P 1'
_cell_length_a   5.00594100
_cell_length_b   5.00892971
_cell_length_c   9.83456709
_cell_angle_alpha   100.87264673
_cell_angle_beta   86.71242565
_cell_angle_gamma   117.76551915
_symmetry_Int_Tables_number   1
_chemical_formula_structural   Li7Mn2(CoO4)3
_chemical_formula_sum   'Li7 Mn2 Co3 O12'
_cell_volume   214.15400261
_cell_formula_units_Z   1
loop_
 _symmetry_equiv_pos_site_id
 _symmetry_equiv_pos_as_xyz
  1  'x, y, z'
loop_
 _atom_site_type_symbol
 _atom_site_label
 _atom_site_symmetry_multiplicity
 _atom_site_fract_x
 _atom_site_fract_y
 _atom_site_fract_z
 _atom_site_occupancy
  Li  Li0  1  0.99413600  0.25652500  0.75333000  1
  Li  Li1  1  0.33686200  0.41935200  0.24734200  1
  Li  Li2  1  0.66630700  0.58111200  0.75317700  1
  Li  Li3  1  0.33964400  0.91623900  0.75629600  1
  Li  Li4  1  0.66517300  0.08594700  0.24707000  1
  Li  Li5  1  0.99859600  0.74037100  0.24294600  1
  Li  Li6  1  0.66743100  0.33219800  0.99993900  1
  Mn  Mn0  1  0.00092100  0.00519600  0.00011200  1
  Mn  Mn1  1  0.33329500  0.16668600  0.50044800  1
  Co  Co0  1  0.99922800  0.49898900  0.49932600  1
  Co  Co1  1  0.33938200  0.66903300  0.99952700  1
  Co  Co2  1  0.66694700  0.83339900  0.50023900  1
  O  O0  1  0.66314200  0.93519800  0.88668800  1
  O  O1  1  0.01538800  0.14961600  0.38557000  1
  O  O2  1  0.29865800  0.28211600  0.88863700  1
  O  O3  1  0.02194800  0.65227200  0.88686500  1
  O  O4  1  0.35527900  0.81223900  0.38674300  1
  O  O5  1  0.68941800  0.48403000  0.38370300  1
  O  O6  1  0.31266700  0.52081100  0.61419200  1
  O  O7  1  0.67547300  0.73593500  0.10996600  1
  O  O8  1  0.97562800  0.84621500  0.61269100  1
  O  O9  1  0.65093000  0.18621400  0.61708400  1
  O  O10  1  0.02411800  0.37220300  0.11313700  1
  O  O11  1  0.30942900  0.01810100  0.11497100  1
loop_
_geom_bond_atom_site_label_1
_geom_bond_atom_site_label_2
_geom_bond_distance
_geom_bond_site_symmetry_2
Li0 O2 2.024169 1_655
Li0 O9 2.096053 1_555
Li0 O3 2.110730 1_655
Li0 O6 2.152634 1_655
Li0 O8 2.215947 1_545
Li0 O0 2.262387 1_545
Li1 O10 2.005923 1_555
Li1 O11 2.128218 1_555
Li1 O4 2.142065 1_555
Li1 O5 2.143128 1_555
Li1 O1 2.163195 1_555
Li1 O7 2.292228 1_555
Li2 O0 2.003789 1_555
Li2 O3 2.127351 1_655
Li2 O9 2.140337 1_555
Li2 O8 2.144955 1_555
Li2 O6 2.171886 1_555
Li2 O2 2.303964 1_555
Li3 O0 2.079637 1_555
Li3 O3 2.091281 1_555
Li3 O2 2.124741 1_565
Li3 O9 2.149823 1_565
Li3 O6 2.150015 1_555
Li3 O8 2.225076 1_455
Li4 O7 2.019614 1_545
Li4 O11 2.123570 1_555
Li4 O5 2.139785 1_555
Li4 O1 2.149333 1_655
Li4 O4 2.158117 1_545
Li4 O10 2.249467 1_655
Li5 O10 2.087952 1_655
Li5 O11 2.087952 1_665
Li5 O7 2.127307 1_555
Li5 O5 2.129222 1_555
Li5 O4 2.194612 1_655
Li5 O1 2.223683 1_665
Li6 O10 2.068372 1_656
Li6 O0 2.079109 1_545
Li6 O2 2.089431 1_555
Li6 O7 2.089442 1_556
Li6 O3 2.179860 1_655
Li6 O11 2.186031 1_556
Mn0 O10 1.916629 1_555
Mn0 O0 1.934628 1_444
Mn0 O11 1.935140 1_555
Mn0 O3 1.947736 1_544
Mn0 O2 1.951254 1_554
Mn0 O7 1.985198 1_445
Mn1 O6 1.953757 1_555
Mn1 O4 1.957951 1_545
Mn1 O1 1.964517 1_555
Mn1 O9 1.968649 1_555
Mn1 O8 2.182879 1_445
Mn1 O5 2.199213 1_555
Co0 O1 1.924451 1_655
Co0 O8 1.930464 1_555
Co0 O6 1.935700 1_655
Co0 O5 1.940549 1_555
Co0 O4 2.165193 1_655
Co0 O9 2.177954 1_555
Co1 O7 1.915614 1_556
Co1 O3 1.949953 1_555
Co1 O11 1.960725 1_566
Co1 O2 1.961356 1_555
Co1 O0 1.993570 1_555
Co1 O10 2.046430 1_556
Co2 O8 1.921389 1_555
Co2 O4 1.921545 1_555
Co2 O5 1.949496 1_555
Co2 O9 1.950727 1_565
Co2 O1 2.167293 1_665
Co2 O6 2.167846 1_555
