# generated using pymatgen
data_Ca3La32(OsI12)5
_symmetry_space_group_name_H-M   'P 1'
_cell_length_a   10.12804449
_cell_length_b   10.14167482
_cell_length_c   43.90819814
_cell_angle_alpha   90.86969767
_cell_angle_beta   90.92676401
_cell_angle_gamma   107.21005683
_symmetry_Int_Tables_number   1
_chemical_formula_structural   Ca3La32(OsI12)5
_chemical_formula_sum   'Ca3 La32 Os5 I60'
_cell_volume   4306.60977129
_cell_formula_units_Z   1
loop_
 _symmetry_equiv_pos_site_id
 _symmetry_equiv_pos_as_xyz
  1  'x, y, z'
loop_
 _atom_site_type_symbol
 _atom_site_label
 _atom_site_symmetry_multiplicity
 _atom_site_fract_x
 _atom_site_fract_y
 _atom_site_fract_z
 _atom_site_occupancy
  Ca  Ca0  1  0.29992625  0.29987077  0.09994632  1
  Ca  Ca1  1  0.90000000  0.90000000  0.30000000  1
  Ca  Ca2  1  0.50007375  0.50012923  0.50005368  1
  La  La0  1  0.97902543  0.90830144  0.06148166  1
  La  La1  1  0.57816717  0.50810143  0.26143754  1
  La  La2  1  0.17819179  0.10813064  0.46147324  1
  La  La3  1  0.77836270  0.70768689  0.66137185  1
  La  La4  1  0.37864183  0.30808145  0.86134063  1
  La  La5  1  0.99047764  0.26749002  0.02045724  1
  La  La6  1  0.58962959  0.86751684  0.22038657  1
  La  La7  1  0.18965894  0.46752439  0.42045611  1
  La  La8  1  0.78988490  0.06730471  0.62020894  1
  La  La9  1  0.39028039  0.66637402  0.82022808  1
  La  La10  1  0.29511009  0.08929189  0.00632428  1
  La  La11  1  0.89485765  0.68855415  0.20599007  1
  La  La12  1  0.49483540  0.28855813  0.40607486  1
  La  La13  1  0.09498909  0.88882170  0.60606694  1
  La  La14  1  0.69430148  0.48895960  0.80617215  1
  La  La15  1  0.62180821  0.69186936  0.13852676  1
  La  La16  1  0.22183283  0.29189857  0.33856246  1
  La  La17  1  0.82097457  0.89169856  0.53851834  1
  La  La18  1  0.42135817  0.49191855  0.73865937  1
  La  La19  1  0.02163730  0.09231311  0.93862815  1
  La  La20  1  0.61034106  0.33247561  0.17954389  1
  La  La21  1  0.21037041  0.93248316  0.37961343  1
  La  La22  1  0.80952236  0.53250998  0.57954276  1
  La  La23  1  0.40971961  0.13362598  0.77977192  1
  La  La24  1  0.01011510  0.73269529  0.97979106  1
  La  La25  1  0.30516460  0.51144187  0.19392514  1
  La  La26  1  0.90514235  0.11144585  0.39400993  1
  La  La27  1  0.50488991  0.71070811  0.59367572  1
  La  La28  1  0.10569852  0.31104040  0.79382785  1
  La  La29  1  0.70501091  0.91117830  0.99393306  1
  La  La30  1  0.10020749  0.10028340  0.70007114  1
  La  La31  1  0.69979251  0.69971660  0.89992886  1
  Os  Os0  1  0.00011907  0.00006876  0.00000822  1
  Os  Os1  1  0.59999616  0.59999644  0.19998466  1
  Os  Os2  1  0.20000384  0.20000356  0.40001534  1
  Os  Os3  1  0.79988093  0.79993124  0.59999178  1
  Os  Os4  1  0.40000000  0.40000000  0.80000000  1
  I  I0  1  0.97345803  0.20276951  0.09366619  1
  I  I1  1  0.57346186  0.80265637  0.29364437  1
  I  I2  1  0.17350127  0.40273180  0.49369240  1
  I  I3  1  0.77054609  0.00310000  0.69414104  1
  I  I4  1  0.37046266  0.60318879  0.89419522  1
  I  I5  1  0.32596960  0.40420217  0.03213716  1
  I  I6  1  0.92582386  0.00400131  0.23216074  1
  I  I7  1  0.52586811  0.60404728  0.43221253  1
  I  I8  1  0.12781034  0.20710053  0.63179828  1
  I  I9  1  0.72801008  0.80735848  0.83179967  1
  I  I10  1  0.31231688  0.00475301  0.07799849  1
  I  I11  1  0.91220576  0.60474607  0.27799129  1
  I  I12  1  0.51225660  0.20478435  0.47804034  1
  I  I13  1  0.11410828  0.80230256  0.67826507  1
  I  I14  1  0.71430694  0.40224033  0.87831454  1
  I  I15  1  0.62649873  0.39726820  0.10630760  1
  I  I16  1  0.22653814  0.99734363  0.30635563  1
  I  I17  1  0.82654197  0.59723049  0.50633381  1
  I  I18  1  0.42953734  0.19681121  0.70580478  1
  I  I19  1  0.02945391  0.79690000  0.90585896  1
  I  I20  1  0.27413189  0.19595272  0.16778747  1
  I  I21  1  0.87417614  0.79599869  0.36783926  1
  I  I22  1  0.47403040  0.39579783  0.56786284  1
  I  I23  1  0.07198992  0.99264152  0.76820033  1
  I  I24  1  0.67218966  0.59289947  0.96820172  1
  I  I25  1  0.28774340  0.59521565  0.12195966  1
  I  I26  1  0.88779424  0.19525393  0.32200871  1
  I  I27  1  0.48768312  0.79524699  0.52200151  1
  I  I28  1  0.08569306  0.39775967  0.72168546  1
  I  I29  1  0.68589172  0.99769744  0.92173493  1
  I  I30  1  0.64352193  0.79933811  0.06297793  1
  I  I31  1  0.24360267  0.39942818  0.26301626  1
  I  I32  1  0.84354155  0.99938933  0.46306684  1
  I  I33  1  0.44323332  0.59919434  0.66311019  1
  I  I34  1  0.04301815  0.19898780  0.86313005  1
  I  I35  1  0.61755415  0.00734897  0.15392285  1
  I  I36  1  0.21756491  0.60732841  0.35396387  1
  I  I37  1  0.81769422  0.20746005  0.55401092  1
  I  I38  1  0.41753513  0.80793863  0.75388338  1
  I  I39  1  0.01745032  0.40770999  0.95388694  1
  I  I40  1  0.94512154  0.39964954  0.18507608  1
  I  I41  1  0.54509294  -0.00032927  0.38511451  1
  I  I42  1  0.14527789  0.59957391  0.58515433  1
  I  I43  1  0.74568758  0.19937862  0.78505637  1
  I  I44  1  0.34543821  0.79951596  0.98501996  1
  I  I45  1  0.95645845  0.80061067  0.13693316  1
  I  I46  1  0.55639733  0.40057182  0.33698374  1
  I  I47  1  0.15647807  0.00066189  0.53702207  1
  I  I48  1  0.75698185  0.60101220  0.73686995  1
  I  I49  1  0.35676668  0.20080566  0.93688981  1
  I  I50  1  0.98230578  0.59253995  0.04598908  1
  I  I51  1  0.58243509  0.19267159  0.24603613  1
  I  I52  1  0.18244585  0.79265103  0.44607715  1
  I  I53  1  0.78254968  0.39229001  0.64611306  1
  I  I54  1  0.38246487  0.99206137  0.84611662  1
  I  I55  1  0.65472211  0.20042609  0.01484567  1
  I  I56  1  0.25490706  0.80032927  0.21488549  1
  I  I57  1  0.85487846  0.40035046  0.41492392  1
  I  I58  1  0.45456179  0.00048404  0.61498004  1
  I  I59  1  0.05431242  0.60062138  0.81494363  1
loop_
_geom_bond_atom_site_label_1
_geom_bond_atom_site_label_2
_geom_bond_distance
_geom_bond_site_symmetry_2
Ca0 I20 3.163804 1_555
Ca0 I5 3.163828 1_555
Ca0 I0 3.164505 1_455
Ca0 I15 3.165749 1_555
Ca0 I10 3.168760 1_555
Ca0 I25 3.171107 1_555
Ca1 I21 3.163998 1_555
Ca1 I6 3.163998 1_565
Ca1 I16 3.165401 1_655
Ca1 I1 3.165401 1_555
Ca1 I26 3.170245 1_565
Ca1 I11 3.170245 1_555
Ca2 I7 3.163804 1_555
Ca2 I22 3.163828 1_555
Ca2 I17 3.164505 1_555
Ca2 I2 3.165749 1_555
Ca2 I27 3.168760 1_555
Ca2 I12 3.171107 1_555
La0 Os0 2.859138 1_665
La1 Os1 2.858653 1_555
La2 Os2 2.858792 1_555
La3 Os3 2.856759 1_555
La4 Os4 2.854069 1_555
La5 Os0 2.873471 1_655
La6 Os1 2.876155 1_555
La7 Os2 2.876597 1_555
La8 Os3 2.871132 1_545
La9 Os4 2.860751 1_555
La10 Os0 2.861424 1_555
La11 Os1 2.859152 1_555
La12 Os2 2.859032 1_555
La13 Os3 2.861756 1_455
La14 Os4 2.854311 1_555
La15 Os1 2.858792 1_555
La16 Os2 2.858653 1_555
La17 Os3 2.859138 1_555
La18 Os4 2.854069 1_555
La19 Os0 2.856759 1_556
La20 Os1 2.876597 1_555
La21 Os2 2.876155 1_565
La22 Os3 2.873471 1_555
La23 Os4 2.860751 1_555
La24 Os0 2.871132 1_566
La25 Os1 2.859032 1_555
La26 Os2 2.859152 1_655
La27 Os3 2.861424 1_555
La28 Os4 2.854311 1_555
La29 Os0 2.861756 1_666
I0 La5 3.287613 1_555
I0 La0 3.300440 1_545
I1 La6 3.289934 1_555
I1 La1 3.299106 1_555
I2 La7 3.288869 1_555
I2 La2 3.299711 1_555
I3 La30 3.194330 1_655
I3 La8 3.318071 1_555
I3 La3 3.326502 1_545
I4 La31 3.190643 1_555
I4 La9 3.317686 1_555
I4 La4 3.326376 1_555
I5 La5 3.296235 1_455
I5 La10 3.296981 1_555
I6 La6 3.302957 1_545
I6 La11 3.307032 1_545
I7 La7 3.303033 1_555
I7 La12 3.306818 1_555
I8 La30 3.191335 1_555
I8 La8 3.321604 1_455
I8 La13 3.323912 1_545
I9 La31 3.188141 1_555
I9 La9 3.321182 1_555
I9 La14 3.321859 1_555
I10 La10 3.289708 1_555
I10 La0 3.289794 1_445
I11 La1 3.297170 1_555
I11 La11 3.301514 1_555
I12 La2 3.297535 1_555
I12 La12 3.299991 1_555
I13 La30 3.199607 1_565
I13 La3 3.316616 1_455
I13 La13 3.319941 1_555
I14 La31 3.194380 1_555
I14 La4 3.316657 1_555
I14 La14 3.319300 1_555
I15 La20 3.288869 1_555
I15 La15 3.299711 1_555
I16 La21 3.289934 1_555
I16 La16 3.299106 1_565
I17 La22 3.287613 1_555
I17 La17 3.300440 1_555
I18 La30 3.190643 1_555
I18 La23 3.317686 1_555
I18 La18 3.326376 1_555
I19 La31 3.194330 1_455
I19 La24 3.318071 1_555
I19 La19 3.326502 1_565
I20 La20 3.303033 1_555
I20 La25 3.306818 1_555
I21 La21 3.302957 1_655
I21 La26 3.307032 1_565
I22 La22 3.296235 1_555
I22 La27 3.296981 1_555
I23 La30 3.188141 1_565
I23 La23 3.321182 1_565
I23 La28 3.321859 1_565
I24 La31 3.191335 1_555
I24 La24 3.321604 1_655
I24 La29 3.323912 1_555
I25 La15 3.297535 1_555
I25 La25 3.299991 1_555
I26 La16 3.297170 1_655
I26 La26 3.301514 1_555
I27 La27 3.289708 1_555
I27 La17 3.289794 1_555
I28 La30 3.194380 1_555
I28 La18 3.316657 1_555
I28 La28 3.319300 1_555
I29 La31 3.199607 1_555
I29 La19 3.316616 1_665
I29 La29 3.319941 1_555
I30 La0 3.249500 1_555
I30 La29 3.257704 1_554
I30 La15 3.497384 1_555
I31 La1 3.240573 1_555
I31 La25 3.260225 1_555
I31 La16 3.497455 1_555
I32 La2 3.241444 1_665
I32 La26 3.258988 1_565
I32 La17 3.493887 1_555
I33 La3 3.246238 1_555
I33 La27 3.272941 1_555
I33 La18 3.496775 1_555
I34 La4 3.251261 1_555
I34 La28 3.270234 1_555
I34 La19 3.492836 1_555
I35 La6 3.243851 1_545
I35 La15 3.272989 1_545
I35 La20 3.489395 1_555
I36 La7 3.244872 1_555
I36 La16 3.272583 1_555
I36 La21 3.489993 1_555
I37 La8 3.234697 1_555
I37 La17 3.273599 1_545
I37 La22 3.490434 1_555
I38 La9 3.246831 1_555
I38 La18 3.275580 1_555
I38 La23 3.500279 1_565
I39 La5 3.250054 1_456
I39 La19 3.270808 1_555
I39 La24 3.492271 1_555
I40 La11 3.240876 1_555
I40 La20 3.259019 1_555
I40 La25 3.496841 1_655
I41 La12 3.241237 1_555
I41 La21 3.258357 1_545
I41 La26 3.497082 1_555
I42 La13 3.244261 1_555
I42 La22 3.268975 1_455
I42 La27 3.491368 1_555
I43 La14 3.254673 1_555
I43 La23 3.271684 1_555
I43 La28 3.496213 1_655
I44 La10 3.254211 1_566
I44 La24 3.264054 1_555
I44 La29 3.492573 1_555
I45 La15 3.241444 1_555
I45 La11 3.258988 1_555
I45 La0 3.493887 1_555
I46 La16 3.240573 1_555
I46 La12 3.260225 1_555
I46 La1 3.497455 1_555
I47 La17 3.249500 1_445
I47 La13 3.257704 1_545
I47 La2 3.497384 1_555
I48 La18 3.251261 1_555
I48 La14 3.270234 1_555
I48 La3 3.492836 1_555
I49 La19 3.246238 1_555
I49 La10 3.272941 1_556
I49 La4 3.496775 1_555
I50 La24 3.234697 1_654
I50 La0 3.273599 1_555
I50 La5 3.490434 1_555
I51 La20 3.244872 1_555
I51 La1 3.272583 1_555
I51 La6 3.489993 1_545
I52 La21 3.243851 1_555
I52 La2 3.272989 1_565
I52 La7 3.489395 1_555
I53 La22 3.250054 1_555
I53 La3 3.270808 1_555
I53 La8 3.492271 1_555
I54 La23 3.246831 1_565
I54 La4 3.275580 1_565
I54 La9 3.500279 1_555
I55 La29 3.244261 1_544
I55 La5 3.268975 1_555
I55 La10 3.491368 1_555
I56 La25 3.241237 1_555
I56 La6 3.258357 1_555
I56 La11 3.497082 1_455
I57 La26 3.240876 1_555
I57 La7 3.259019 1_655
I57 La12 3.496841 1_555
I58 La27 3.254211 1_545
I58 La8 3.264054 1_555
I58 La13 3.492573 1_545
I59 La28 3.254673 1_555
I59 La9 3.271684 1_555
I59 La14 3.496213 1_455
