# generated using pymatgen
data_Ba2AlV3O8
_symmetry_space_group_name_H-M   'P 1'
_cell_length_a   3.83002300
_cell_length_b   4.00904000
_cell_length_c   11.86963600
_cell_angle_alpha   90.00000000
_cell_angle_beta   90.00000000
_cell_angle_gamma   90.00000000
_symmetry_Int_Tables_number   1
_chemical_formula_structural   Ba2AlV3O8
_chemical_formula_sum   'Ba2 Al1 V3 O8'
_cell_volume   182.25488278
_cell_formula_units_Z   1
loop_
 _symmetry_equiv_pos_site_id
 _symmetry_equiv_pos_as_xyz
  1  'x, y, z'
loop_
 _atom_site_type_symbol
 _atom_site_label
 _atom_site_symmetry_multiplicity
 _atom_site_fract_x
 _atom_site_fract_y
 _atom_site_fract_z
 _atom_site_occupancy
  Ba  Ba0  1  0.50000000  0.00000000  0.16731800  1
  Ba  Ba1  1  0.50000000  0.00000000  0.83268200  1
  Al  Al0  1  0.50000000  0.00000000  0.50000000  1
  V  V0  1  0.00000000  0.50000000  0.34954000  1
  V  V1  1  0.00000000  0.50000000  0.00000000  1
  V  V2  1  0.00000000  0.50000000  0.65046000  1
  O  O0  1  0.00000000  0.00000000  0.39329000  1
  O  O1  1  0.50000000  0.50000000  0.39620400  1
  O  O2  1  0.50000000  0.50000000  0.00000000  1
  O  O3  1  0.00000000  0.50000000  0.18978600  1
  O  O4  1  0.00000000  0.00000000  0.60671000  1
  O  O5  1  0.50000000  0.50000000  0.60379600  1
  O  O6  1  0.00000000  0.50000000  0.81021400  1
  O  O7  1  0.00000000  0.00000000  0.00000000  1
loop_
_geom_bond_atom_site_label_1
_geom_bond_atom_site_label_2
_geom_bond_distance
_geom_bond_site_symmetry_2
Ba0 O7 2.758891 1_555
Ba0 O7 2.758891 1_655
Ba0 O3 2.785048 1_645
Ba0 O3 2.785048 1_555
Ba0 O3 2.785048 1_655
Ba0 O3 2.785048 1_545
Ba0 O2 2.821757 1_545
Ba0 O2 2.821757 1_555
Ba0 O0 3.295678 1_655
Ba0 O0 3.295678 1_555
Ba0 O1 3.376250 1_545
Ba0 O1 3.376250 1_555
Ba1 O7 2.758891 1_656
Ba1 O7 2.758891 1_556
Ba1 O6 2.785048 1_655
Ba1 O6 2.785048 1_545
Ba1 O6 2.785048 1_645
Ba1 O6 2.785048 1_555
Ba1 O2 2.821757 1_556
Ba1 O2 2.821757 1_546
Ba1 O4 3.295678 1_655
Ba1 O4 3.295678 1_555
Ba1 O5 3.376250 1_545
Ba1 O5 3.376250 1_555
Al0 O0 2.295989 1_655
Al0 O0 2.295989 1_555
Al0 O4 2.295989 1_555
Al0 O4 2.295989 1_655
Al0 O5 2.352865 1_545
Al0 O1 2.352865 1_555
Al0 O5 2.352865 1_555
Al0 O1 2.352865 1_545
O0 V0 2.070693 1_555
O0 V0 2.070693 1_545
O1 V0 1.993504 1_555
O1 V0 1.993504 1_655
O2 V1 1.915011 1_555
O2 V1 1.915011 1_655
O3 V0 1.896222 1_555
O3 V1 2.252691 1_555
O4 V2 2.070693 1_555
O4 V2 2.070693 1_545
O5 V2 1.993504 1_655
O5 V2 1.993504 1_555
O6 V2 1.896222 1_555
O6 V1 2.252691 1_556
O7 V1 2.004520 1_545
O7 V1 2.004520 1_555
