# generated using pymatgen
data_BaAlSi4N5O3
_symmetry_space_group_name_H-M   'P 1'
_cell_length_a   7.47366505
_cell_length_b   7.47366505
_cell_length_c   9.45674500
_cell_angle_alpha   90.00000000
_cell_angle_beta   90.00000000
_cell_angle_gamma   135.42782717
_symmetry_Int_Tables_number   1
_chemical_formula_structural   BaAlSi4N5O3
_chemical_formula_sum   'Ba2 Al2 Si8 N10 O6'
_cell_volume   370.70353772
_cell_formula_units_Z   2
loop_
 _symmetry_equiv_pos_site_id
 _symmetry_equiv_pos_as_xyz
  1  'x, y, z'
loop_
 _atom_site_type_symbol
 _atom_site_label
 _atom_site_symmetry_multiplicity
 _atom_site_fract_x
 _atom_site_fract_y
 _atom_site_fract_z
 _atom_site_occupancy
  Ba  Ba0  1  0.97477700  0.02522300  0.98762300  1
  Ba  Ba1  1  0.02522300  0.97477700  0.48762300  1
  Al  Al0  1  0.47129200  0.52870800  0.75754000  1
  Al  Al1  1  0.52870800  0.47129200  0.25754000  1
  Si  Si0  1  0.29837400  0.70162600  0.98750300  1
  Si  Si1  1  0.70162600  0.29837400  0.48750300  1
  Si  Si2  1  0.42354200  0.07907200  0.76750200  1
  Si  Si3  1  0.92092800  0.57645800  0.76750200  1
  Si  Si4  1  0.57645800  0.92092800  0.26750200  1
  Si  Si5  1  0.07907200  0.42354200  0.26750200  1
  Si  Si6  1  0.28886300  0.71113700  0.54597900  1
  Si  Si7  1  0.71113700  0.28886300  0.04597900  1
  N  N0  1  0.40858300  0.59141700  0.92133200  1
  N  N1  1  0.59141700  0.40858300  0.42133200  1
  N  N2  1  0.20072800  0.79927200  0.86338900  1
  N  N3  1  0.79927200  0.20072800  0.36338900  1
  N  N4  1  0.70917900  0.29082100  0.86029900  1
  N  N5  1  0.29082100  0.70917900  0.36029900  1
  N  N6  1  0.47234600  0.02542800  0.59894700  1
  N  N7  1  0.97457200  0.52765400  0.59894700  1
  N  N8  1  0.52765400  0.97457200  0.09894700  1
  N  N9  1  0.02542800  0.47234600  0.09894700  1
  O  O0  1  0.30535000  0.19924300  0.74815500  1
  O  O1  1  0.80075700  0.69465000  0.74815500  1
  O  O2  1  0.69465000  0.80075700  0.24815500  1
  O  O3  1  0.19924300  0.30535000  0.24815500  1
  O  O4  1  0.39948900  0.60051100  0.60332700  1
  O  O5  1  0.60051100  0.39948900  0.10332700  1
loop_
_geom_bond_atom_site_label_1
_geom_bond_atom_site_label_2
_geom_bond_distance
_geom_bond_site_symmetry_2
Ba0 O2 2.874666 1_546
Ba0 O3 2.874666 1_656
Ba0 O1 2.888900 1_545
Ba0 O0 2.888900 1_655
Ba0 N0 3.043704 1_655
Ba0 N0 3.043704 1_545
Ba0 N9 3.258215 1_656
Ba0 N8 3.258215 1_546
Ba0 N2 3.338623 1_645
Ba0 O5 3.500618 1_656
Ba0 O5 3.500618 1_546
Ba1 O1 2.874666 1_455
Ba1 O0 2.874666 1_565
Ba1 O3 2.888900 1_565
Ba1 O2 2.888900 1_455
Ba1 N1 3.043704 1_565
Ba1 N1 3.043704 1_455
Ba1 N6 3.258215 1_565
Ba1 N7 3.258215 1_455
Ba1 N3 3.338623 1_465
Ba1 O4 3.500618 1_455
Ba1 O4 3.500618 1_565
Al0 O4 1.764377 1_555
Al0 N0 1.775232 1_555
Al0 O0 1.805038 1_555
Al0 O1 1.805038 1_555
Al1 O5 1.764377 1_555
Al1 N1 1.775232 1_555
Al1 O3 1.805038 1_555
Al1 O2 1.805038 1_555
N0 Si0 1.647726 1_555
N1 Si1 1.647726 1_555
N2 Si2 1.734025 1_565
N2 Si3 1.734025 1_455
N2 Si0 1.789277 1_555
N3 Si5 1.734025 1_655
N3 Si4 1.734025 1_545
N3 Si1 1.789277 1_555
N4 Si3 1.737380 1_555
N4 Si2 1.737380 1_555
N4 Si7 1.756137 1_556
N5 Si4 1.737380 1_555
N5 Si5 1.737380 1_555
N5 Si6 1.756137 1_555
N6 Si2 1.744389 1_555
N6 Si6 1.749168 1_545
N6 Si1 1.796677 1_555
N7 Si3 1.744389 1_555
N7 Si6 1.749168 1_655
N7 Si1 1.796677 1_555
N8 Si4 1.744389 1_555
N8 Si7 1.749168 1_565
N8 Si0 1.796677 1_554
N9 Si5 1.744389 1_555
N9 Si7 1.749168 1_455
N9 Si0 1.796677 1_554
O0 Si2 1.658507 1_555
O1 Si3 1.658507 1_555
O2 Si4 1.658507 1_555
O3 Si5 1.658507 1_555
O4 Si6 1.623316 1_555
O5 Si7 1.623316 1_555
