# generated using pymatgen
data_SrLa4Cr5O15
_symmetry_space_group_name_H-M   'P 1'
_cell_length_a   5.55545134
_cell_length_b   6.78695354
_cell_length_c   8.73338731
_cell_angle_alpha   104.83756038
_cell_angle_beta   108.43716371
_cell_angle_gamma   89.72173928
_symmetry_Int_Tables_number   1
_chemical_formula_structural   SrLa4Cr5O15
_chemical_formula_sum   'Sr1 La4 Cr5 O15'
_cell_volume   300.92800682
_cell_formula_units_Z   1
loop_
 _symmetry_equiv_pos_site_id
 _symmetry_equiv_pos_as_xyz
  1  'x, y, z'
loop_
 _atom_site_type_symbol
 _atom_site_label
 _atom_site_symmetry_multiplicity
 _atom_site_fract_x
 _atom_site_fract_y
 _atom_site_fract_z
 _atom_site_occupancy
  Sr  Sr0  1  0.40168800  0.09917700  0.80273200  1
  La  La0  1  0.00257300  0.51168000  0.00036200  1
  La  La1  1  0.80256400  0.69324500  0.60306500  1
  La  La2  1  0.59676300  0.89440600  0.19755200  1
  La  La3  1  0.19668700  0.30463000  0.39378400  1
  Cr  Cr0  1  0.60003100  0.39831000  0.19982400  1
  Cr  Cr1  1  0.20025500  0.80322900  0.40163900  1
  Cr  Cr2  1  0.40032600  0.59814900  0.79872600  1
  Cr  Cr3  1  0.79983000  0.19807500  0.59998900  1
  Cr  Cr4  1  0.00007400  0.00182300  0.00010400  1
  O  O0  1  0.89674900  0.10102300  0.79331500  1
  O  O1  1  0.90001000  0.60142200  0.30254800  1
  O  O2  1  0.39874400  0.59953400  0.30160200  1
  O  O3  1  0.70512000  0.30718200  0.40935100  1
  O  O4  1  0.09627100  0.89081400  0.19495300  1
  O  O5  1  0.29711100  0.69381500  0.59654100  1
  O  O6  1  0.50287900  0.50649000  0.00421400  1
  O  O7  1  0.08821500  0.40539200  0.69813600  1
  O  O8  1  0.70857900  0.79043400  0.89852000  1
  O  O9  1  0.60929000  0.40093400  0.69627900  1
  O  O10  1  0.19634200  0.79292300  0.90112700  1
  O  O11  1  0.30163300  0.19846000  0.11074600  1
  O  O12  1  0.50209900  0.00401000  0.49063600  1
  O  O13  1  0.98641100  0.00627700  0.49308000  1
  O  O14  1  0.80975600  0.19856500  0.11117700  1
loop_
_geom_bond_atom_site_label_1
_geom_bond_atom_site_label_2
_geom_bond_distance
_geom_bond_site_symmetry_2
La0 O8 2.636443 1_454
La0 O4 2.644627 1_555
La0 O10 2.647764 1_554
La0 O7 2.743958 1_554
La0 O2 2.769063 1_555
La0 O6 2.769132 1_555
La0 O9 2.777537 1_454
La0 O6 2.787350 1_455
La0 O1 2.790168 1_455
La0 O0 2.854057 1_454
La0 O11 2.865467 1_555
La0 O14 2.886393 1_455
La1 O7 2.644175 1_655
La1 O9 2.674360 1_555
La1 O3 2.680442 1_555
La1 O8 2.709780 1_555
La1 O10 2.744064 1_655
La1 O1 2.761765 1_555
La1 O5 2.766021 1_655
La1 O5 2.790527 1_555
La1 O2 2.790921 1_555
La1 O0 2.793376 1_565
La1 O13 2.857662 1_565
La1 O12 2.861581 1_565
La2 O6 2.689619 1_555
La2 O12 2.693332 1_565
La2 O13 2.720674 1_565
La2 O11 2.739262 1_565
La2 O1 2.749028 1_555
La2 O10 2.753867 1_554
La2 O14 2.759786 1_565
La2 O2 2.761552 1_555
La2 O4 2.773539 1_555
La2 O4 2.782192 1_655
La2 O8 2.789645 1_554
La2 O3 2.879283 1_565
La3 O11 2.639050 1_555
La3 O14 2.641918 1_455
La3 O2 2.707926 1_555
La3 O1 2.714391 1_455
La3 O5 2.723539 1_555
La3 O12 2.774802 1_555
La3 O3 2.776624 1_455
La3 O3 2.784489 1_555
La3 O13 2.789265 1_455
La3 O9 2.821419 1_555
La3 O7 2.823843 1_555
La3 O4 2.849419 1_545
Cr0 O6 1.950416 1_555
Cr0 O14 1.952527 1_555
Cr0 O11 1.964363 1_555
Cr0 O2 1.974293 1_555
Cr0 O1 1.981328 1_555
Cr0 O3 1.993041 1_555
Cr1 O5 1.949988 1_555
Cr1 O4 1.957544 1_555
Cr1 O2 1.966320 1_555
Cr1 O1 1.977161 1_455
Cr1 O12 1.981995 1_565
Cr1 O13 1.992170 1_465
Cr2 O5 1.952279 1_555
Cr2 O10 1.962770 1_555
Cr2 O6 1.963110 1_556
Cr2 O8 1.972416 1_555
Cr2 O7 1.989881 1_555
Cr2 O9 1.992052 1_555
Cr3 O0 1.888269 1_555
Cr3 O13 1.901904 1_555
Cr3 O3 1.915901 1_555
Cr3 O9 1.918113 1_555
Cr3 O12 1.939182 1_555
Cr3 O7 1.953673 1_655
Cr4 O14 1.952814 1_455
Cr4 O4 1.956137 1_545
Cr4 O11 1.964356 1_555
Cr4 O10 1.974763 1_544
Cr4 O8 1.982362 1_444
Cr4 O0 2.001891 1_454
O0 Sr0 2.777577 1_555
O0 Sr0 2.780310 1_655
O5 Sr0 2.822345 1_565
O6 Sr0 2.819995 1_554
O7 Sr0 2.849092 1_555
O8 Sr0 2.821047 1_565
O9 Sr0 2.839923 1_555
O10 Sr0 2.813896 1_565
O11 Sr0 2.830715 1_554
O12 Sr0 2.866030 1_555
O13 Sr0 2.868421 1_655
O14 Sr0 2.841164 1_554
