# generated using pymatgen
data_Cr3Cu2SbS8
_symmetry_space_group_name_H-M   'P 1'
_cell_length_a   7.19680346
_cell_length_b   7.19680346
_cell_length_c   7.19680337
_cell_angle_alpha   58.68568125
_cell_angle_beta   58.68568125
_cell_angle_gamma   58.68568040
_symmetry_Int_Tables_number   1
_chemical_formula_structural   Cr3Cu2SbS8
_chemical_formula_sum   'Cr3 Cu2 Sb1 S8'
_cell_volume   255.65845154
_cell_formula_units_Z   1
loop_
 _symmetry_equiv_pos_site_id
 _symmetry_equiv_pos_as_xyz
  1  'x, y, z'
loop_
 _atom_site_type_symbol
 _atom_site_label
 _atom_site_symmetry_multiplicity
 _atom_site_fract_x
 _atom_site_fract_y
 _atom_site_fract_z
 _atom_site_occupancy
  Cr  Cr0  1  0.50000000  0.00000000  0.00000000  1
  Cr  Cr1  1  0.00000000  0.00000000  0.50000000  1
  Cr  Cr2  1  0.00000000  0.50000000  0.00000000  1
  Cu  Cu0  1  0.37013300  0.37013300  0.37013300  1
  Cu  Cu1  1  0.62986700  0.62986700  0.62986700  1
  Sb  Sb0  1  0.00000000  0.00000000  0.00000000  1
  S  S0  1  0.24107200  0.24107200  0.24107200  1
  S  S1  1  0.76883100  0.25366500  0.25366500  1
  S  S2  1  0.25366500  0.25366500  0.76883100  1
  S  S3  1  0.25366500  0.76883100  0.25366500  1
  S  S4  1  0.75892800  0.75892800  0.75892800  1
  S  S5  1  0.23116900  0.74633500  0.74633500  1
  S  S6  1  0.74633500  0.74633500  0.23116900  1
  S  S7  1  0.74633500  0.23116900  0.74633500  1
loop_
_geom_bond_atom_site_label_1
_geom_bond_atom_site_label_2
_geom_bond_distance
_geom_bond_site_symmetry_2
Cr0 S6 2.405843 1_545
Cr0 S2 2.405843 1_554
Cr0 S7 2.405843 1_554
Cr0 S3 2.405843 1_545
Cr0 S0 2.429035 1_555
Cr0 S4 2.429035 1_544
Cr1 S7 2.405843 1_455
Cr1 S5 2.405843 1_545
Cr1 S1 2.405843 1_455
Cr1 S3 2.405843 1_545
Cr1 S0 2.429035 1_555
Cr1 S4 2.429035 1_445
Cr2 S6 2.405843 1_455
Cr2 S2 2.405843 1_554
Cr2 S5 2.405843 1_554
Cr2 S1 2.405843 1_455
Cr2 S0 2.429035 1_555
Cr2 S4 2.429035 1_454
Cu0 S0 2.297489 1_555
Cu0 S2 2.317030 1_555
Cu0 S1 2.317030 1_555
Cu0 S3 2.317030 1_555
Cu1 S4 2.297489 1_555
Cu1 S6 2.317030 1_555
Cu1 S5 2.317030 1_555
Cu1 S7 2.317030 1_555
S1 Sb0 2.565829 1_655
S2 Sb0 2.565829 1_556
S3 Sb0 2.565829 1_565
S5 Sb0 2.565829 1_566
S6 Sb0 2.565829 1_665
S7 Sb0 2.565829 1_656
