# generated using pymatgen
data_Ca2TaWO6
_symmetry_space_group_name_H-M   'P 1'
_cell_length_a   7.97274400
_cell_length_b   5.58336900
_cell_length_c   5.76011106
_cell_angle_alpha   89.61055236
_cell_angle_beta   90.00000000
_cell_angle_gamma   90.00000000
_symmetry_Int_Tables_number   1
_chemical_formula_structural   Ca2TaWO6
_chemical_formula_sum   'Ca4 Ta2 W2 O12'
_cell_volume   256.40410564
_cell_formula_units_Z   2
loop_
 _symmetry_equiv_pos_site_id
 _symmetry_equiv_pos_as_xyz
  1  'x, y, z'
loop_
 _atom_site_type_symbol
 _atom_site_label
 _atom_site_symmetry_multiplicity
 _atom_site_fract_x
 _atom_site_fract_y
 _atom_site_fract_z
 _atom_site_occupancy
  Ca  Ca0  1  0.75000000  0.99037600  0.04391400  1
  Ca  Ca1  1  0.75000000  0.50858000  0.56064300  1
  Ca  Ca2  1  0.25000000  0.49142000  0.43935700  1
  Ca  Ca3  1  0.25000000  0.00962400  0.95608600  1
  Ta  Ta0  1  0.00000000  0.00000000  0.50000000  1
  Ta  Ta1  1  0.50000000  0.00000000  0.50000000  1
  W  W0  1  0.00000000  0.50000000  0.00000000  1
  W  W1  1  0.50000000  0.50000000  0.00000000  1
  O  O0  1  0.44838300  0.18543300  0.21304400  1
  O  O1  1  0.54894500  0.70931600  0.31321100  1
  O  O2  1  0.55161700  0.81456700  0.78695600  1
  O  O3  1  0.04894500  0.29068400  0.68678900  1
  O  O4  1  0.25000000  0.90715200  0.53457500  1
  O  O5  1  0.45105500  0.29068400  0.68678900  1
  O  O6  1  0.95105500  0.70931600  0.31321100  1
  O  O7  1  0.05161700  0.18543300  0.21304400  1
  O  O8  1  0.75000000  0.38057900  0.94816400  1
  O  O9  1  0.94838300  0.81456700  0.78695600  1
  O  O10  1  0.25000000  0.61942100  0.05183600  1
  O  O11  1  0.75000000  0.09284800  0.46542500  1
loop_
_geom_bond_atom_site_label_1
_geom_bond_atom_site_label_2
_geom_bond_distance
_geom_bond_site_symmetry_2
Ca0 O8 2.243737 1_564
Ca0 O2 2.382364 1_554
Ca0 O9 2.382364 1_554
Ca0 O11 2.498233 1_565
Ca0 O1 2.721237 1_555
Ca0 O6 2.721237 1_555
Ca0 O7 2.816424 1_665
Ca0 O0 2.816424 1_565
Ca1 O8 2.339152 1_555
Ca1 O11 2.388728 1_555
Ca1 O1 2.415620 1_555
Ca1 O6 2.415620 1_555
Ca1 O9 2.673952 1_555
Ca1 O2 2.673952 1_555
Ca1 O3 2.770687 1_655
Ca1 O5 2.770687 1_555
Ca2 O10 2.339152 1_555
Ca2 O4 2.388728 1_555
Ca2 O5 2.415620 1_555
Ca2 O3 2.415620 1_555
Ca2 O0 2.673952 1_555
Ca2 O7 2.673952 1_555
Ca2 O1 2.770687 1_555
Ca2 O6 2.770687 1_455
Ca3 O10 2.243737 1_546
Ca3 O0 2.382364 1_556
Ca3 O7 2.382364 1_556
Ca3 O4 2.498233 1_545
Ca3 O5 2.721237 1_555
Ca3 O3 2.721237 1_555
Ca3 O2 2.816424 1_545
Ca3 O9 2.816424 1_445
O0 Ta1 1.987485 1_555
O0 W1 2.175020 1_555
O1 Ta1 1.991920 1_565
O1 W1 2.191268 1_555
O2 Ta1 1.987485 1_565
O2 W1 2.175020 1_556
O3 Ta0 1.991920 1_555
O3 W0 2.191268 1_556
O4 Ta0 2.068766 1_565
O4 Ta1 2.068766 1_565
O5 Ta1 1.991920 1_555
O5 W1 2.191268 1_556
O6 Ta0 1.991920 1_665
O6 W0 2.191268 1_655
O7 Ta0 1.987485 1_555
O7 W0 2.175020 1_555
O8 W0 2.123495 1_656
O8 W1 2.123495 1_556
O9 Ta0 1.987485 1_665
O9 W0 2.175020 1_656
O10 W1 2.123495 1_555
O10 W0 2.123495 1_555
O11 Ta1 2.068766 1_555
O11 Ta0 2.068766 1_655
