# generated using pymatgen
data_TbMnB4
_symmetry_space_group_name_H-M   'P 1'
_cell_length_a   3.40556220
_cell_length_b   5.95556679
_cell_length_c   11.53108944
_cell_angle_alpha   90.00000000
_cell_angle_beta   90.00000000
_cell_angle_gamma   90.00000000
_symmetry_Int_Tables_number   1
_chemical_formula_structural   TbMnB4
_chemical_formula_sum   'Tb4 Mn4 B16'
_cell_volume   233.87416878
_cell_formula_units_Z   4
loop_
 _symmetry_equiv_pos_site_id
 _symmetry_equiv_pos_as_xyz
  1  'x, y, z'
loop_
 _atom_site_type_symbol
 _atom_site_label
 _atom_site_symmetry_multiplicity
 _atom_site_fract_x
 _atom_site_fract_y
 _atom_site_fract_z
 _atom_site_occupancy
  Tb  Tb0  1  0.00000000  0.62659016  0.34963833  1
  Tb  Tb1  1  0.00000000  0.37340984  0.65036167  1
  Tb  Tb2  1  -0.00000000  0.12659016  0.15036167  1
  Tb  Tb3  1  -0.00000000  0.87340984  0.84963833  1
  Mn  Mn0  1  -0.00000000  0.63143184  0.08619383  1
  Mn  Mn1  1  -0.00000000  0.36856816  0.91380617  1
  Mn  Mn2  1  -0.00000000  0.13143184  0.41380617  1
  Mn  Mn3  1  0.00000000  0.86856816  0.58619383  1
  B  B0  1  0.50000000  0.78238935  0.18468473  1
  B  B1  1  0.50000000  0.21761065  0.81531527  1
  B  B2  1  0.50000000  0.28238935  0.31531527  1
  B  B3  1  0.50000000  0.71761065  0.68468473  1
  B  B4  1  0.50000000  0.86123398  0.03233795  1
  B  B5  1  0.50000000  0.13876602  0.96766205  1
  B  B6  1  0.50000000  0.36123398  0.46766205  1
  B  B7  1  0.50000000  0.63876602  0.53233795  1
  B  B8  1  0.50000000  0.88764101  0.45367662  1
  B  B9  1  0.50000000  0.11235899  0.54632338  1
  B  B10  1  0.50000000  0.38764101  0.04632338  1
  B  B11  1  0.50000000  0.61235899  0.95367662  1
  B  B12  1  0.50000000  0.97624840  0.30952678  1
  B  B13  1  0.50000000  0.02375160  0.69047322  1
  B  B14  1  0.50000000  0.47624840  0.19047322  1
  B  B15  1  0.50000000  0.52375160  0.80952678  1
loop_
_geom_bond_atom_site_label_1
_geom_bond_atom_site_label_2
_geom_bond_distance
_geom_bond_site_symmetry_2
B0 B4 1.818398 1_555
B0 B14 1.824464 1_555
B0 B12 1.845348 1_555
B0 Mn0 2.235523 1_555
B0 Mn0 2.235523 1_655
B0 Tb2 2.694112 1_565
B0 Tb2 2.694112 1_665
B0 Tb0 2.716316 1_555
B0 Tb0 2.716316 1_655
B1 B5 1.818398 1_555
B1 B15 1.824464 1_555
B1 B13 1.845348 1_555
B1 Mn1 2.235523 1_555
B1 Mn1 2.235523 1_655
B1 Tb3 2.694112 1_645
B1 Tb3 2.694112 1_545
B1 Tb1 2.716316 1_555
B1 Tb1 2.716316 1_655
B2 B6 1.818398 1_555
B2 Mn2 2.235523 1_655
B2 Mn2 2.235523 1_555
B2 Tb0 2.694112 1_655
B2 Tb0 2.694112 1_555
B2 Tb2 2.716316 1_655
B2 Tb2 2.716316 1_555
B3 B7 1.818398 1_555
B3 Mn3 2.235523 1_655
B3 Mn3 2.235523 1_555
B3 Tb1 2.694112 1_555
B3 Tb1 2.694112 1_655
B3 Tb3 2.716316 1_555
B3 Tb3 2.716316 1_655
B4 B5 1.813323 1_564
B4 Mn0 2.271166 1_555
B4 Mn0 2.271166 1_655
B4 Tb2 2.692419 1_665
B4 Tb2 2.692419 1_565
B4 Tb3 2.709800 1_654
B4 Tb3 2.709800 1_554
B5 Mn1 2.271166 1_655
B5 Mn1 2.271166 1_555
B5 Tb3 2.692419 1_645
B5 Tb3 2.692419 1_545
B5 Tb2 2.709800 1_556
B5 Tb2 2.709800 1_656
B6 B9 1.737709 1_555
B6 B7 1.813323 1_555
B6 Mn2 2.271166 1_555
B6 Mn2 2.271166 1_655
B6 Tb0 2.692419 1_555
B6 Tb0 2.692419 1_655
B6 Tb1 2.709800 1_555
B6 Tb1 2.709800 1_655
B7 B8 1.737709 1_555
B7 Mn3 2.271166 1_655
B7 Mn3 2.271166 1_555
B7 Tb1 2.692419 1_555
B7 Tb1 2.692419 1_655
B7 Tb0 2.709800 1_555
B7 Tb0 2.709800 1_655
B8 B9 1.712429 1_565
B8 Mn2 2.284488 1_565
B8 Mn2 2.284488 1_665
B8 Mn3 2.290711 1_655
B8 Mn3 2.290711 1_555
B8 Tb0 2.599191 1_555
B8 Tb0 2.599191 1_655
B9 Mn3 2.284488 1_645
B9 Mn3 2.284488 1_545
B9 Mn2 2.290711 1_555
B9 Mn2 2.290711 1_655
B9 Tb1 2.599191 1_555
B9 Tb1 2.599191 1_655
B10 B11 1.712429 1_554
B10 B5 1.737709 1_554
B10 B14 1.743961 1_555
B10 Mn0 2.284488 1_555
B10 Mn0 2.284488 1_655
B10 Mn1 2.290711 1_554
B10 Mn1 2.290711 1_654
B10 Tb2 2.599191 1_555
B10 Tb2 2.599191 1_655
B11 B4 1.737709 1_556
B11 B15 1.743961 1_555
B11 Mn1 2.284488 1_655
B11 Mn1 2.284488 1_555
B11 Mn0 2.290711 1_656
B11 Mn0 2.290711 1_556
B11 Tb3 2.599191 1_555
B11 Tb3 2.599191 1_655
B12 B8 1.743961 1_555
B12 B2 1.824464 1_565
B12 Mn2 2.280245 1_565
B12 Mn2 2.280245 1_665
B12 Tb2 2.658881 1_665
B12 Tb2 2.658881 1_565
B12 Tb0 2.729440 1_655
B12 Tb0 2.729440 1_555
B13 B9 1.743961 1_555
B13 B3 1.824464 1_545
B13 Mn3 2.280245 1_545
B13 Mn3 2.280245 1_645
B13 Tb3 2.658881 1_645
B13 Tb3 2.658881 1_545
B13 Tb1 2.729440 1_655
B13 Tb1 2.729440 1_555
B14 B2 1.845348 1_555
B14 Mn0 2.280245 1_555
B14 Mn0 2.280245 1_655
B14 Tb0 2.658881 1_655
B14 Tb0 2.658881 1_555
B14 Tb2 2.729440 1_555
B14 Tb2 2.729440 1_655
B15 B3 1.845348 1_555
B15 Mn1 2.280245 1_555
B15 Mn1 2.280245 1_655
B15 Tb1 2.658881 1_555
B15 Tb1 2.658881 1_655
B15 Tb3 2.729440 1_555
B15 Tb3 2.729440 1_655
