# generated using pymatgen
data_Er3Ir
_symmetry_space_group_name_H-M   'P 1'
_cell_length_a   6.36514217
_cell_length_b   7.14463464
_cell_length_c   9.01902333
_cell_angle_alpha   90.00000000
_cell_angle_beta   90.00000000
_cell_angle_gamma   90.00000000
_symmetry_Int_Tables_number   1
_chemical_formula_structural   Er3Ir
_chemical_formula_sum   'Er12 Ir4'
_cell_volume   410.15465379
_cell_formula_units_Z   4
loop_
 _symmetry_equiv_pos_site_id
 _symmetry_equiv_pos_as_xyz
  1  'x, y, z'
loop_
 _atom_site_type_symbol
 _atom_site_label
 _atom_site_symmetry_multiplicity
 _atom_site_fract_x
 _atom_site_fract_y
 _atom_site_fract_z
 _atom_site_occupancy
  Er  Er0  1  0.32254416  0.67592385  0.06216109  1
  Er  Er1  1  0.17745484  0.17592385  0.43783891  1
  Er  Er2  1  0.67745484  0.32407615  0.56216109  1
  Er  Er3  1  0.82254416  0.82407615  0.93783791  1
  Er  Er4  1  0.67745484  0.32407615  0.93783791  1
  Er  Er5  1  0.82254516  0.82407615  0.56216209  1
  Er  Er6  1  0.32254516  0.67592385  0.43783891  1
  Er  Er7  1  0.17745484  0.17592385  0.06216109  1
  Er  Er8  1  0.87583746  0.53571950  0.25000100  1
  Er  Er9  1  0.62416254  0.03571850  0.25000100  1
  Er  Er10  1  0.12416154  0.46428050  0.75000000  1
  Er  Er11  1  0.37583846  0.96428050  0.74999900  1
  Ir  Ir0  1  0.03550244  0.88754295  0.25000100  1
  Ir  Ir1  1  0.46449756  0.38754295  0.25000100  1
  Ir  Ir2  1  0.96449756  0.11245705  0.74999900  1
  Ir  Ir3  1  0.53550244  0.61245705  0.75000000  1
loop_
_geom_bond_atom_site_label_1
_geom_bond_atom_site_label_2
_geom_bond_distance
_geom_bond_site_symmetry_2
Er0 Ir1 2.816317 1_555
Er0 Ir0 2.914482 1_555
Er0 Ir3 3.157441 1_554
Er1 Ir0 2.816305 1_545
Er1 Ir1 2.914475 1_555
Er1 Ir2 3.157430 1_455
Er2 Ir3 2.816310 1_555
Er2 Ir2 2.914475 1_555
Er2 Ir1 3.157430 1_555
Er3 Ir2 2.816312 1_565
Er3 Ir3 2.914471 1_555
Er3 Ir0 3.157457 1_656
Er4 Ir3 2.816305 1_555
Er4 Ir2 2.914481 1_555
Er4 Ir1 3.157454 1_556
Er5 Ir2 2.816299 1_565
Er5 Ir3 2.914475 1_555
Er5 Ir0 3.157438 1_655
Er6 Ir1 2.816305 1_555
Er6 Ir0 2.914475 1_555
Er6 Ir3 3.157438 1_555
Er7 Ir0 2.816315 1_545
Er7 Ir1 2.914486 1_555
Er7 Ir2 3.157446 1_454
Er8 Ir0 2.711325 1_655
Er8 Ir1 2.824171 1_555
Er9 Ir1 2.711331 1_555
Er9 Ir0 2.824168 1_645
Er10 Ir2 2.711322 1_455
Er10 Ir3 2.824177 1_555
Er11 Ir3 2.711322 1_555
Er11 Ir2 2.824177 1_465
