# generated using pymatgen
data_Cr3C
_symmetry_space_group_name_H-M   'P 1'
_cell_length_a   4.47497499
_cell_length_b   5.19040632
_cell_length_c   6.59169369
_cell_angle_alpha   90.00023997
_cell_angle_beta   90.00042790
_cell_angle_gamma   89.99913550
_symmetry_Int_Tables_number   1
_chemical_formula_structural   Cr3C
_chemical_formula_sum   'Cr12 C4'
_cell_volume   153.10486374
_cell_formula_units_Z   4
loop_
 _symmetry_equiv_pos_site_id
 _symmetry_equiv_pos_as_xyz
  1  'x, y, z'
loop_
 _atom_site_type_symbol
 _atom_site_label
 _atom_site_symmetry_multiplicity
 _atom_site_fract_x
 _atom_site_fract_y
 _atom_site_fract_z
 _atom_site_occupancy
  Cr  Cr0  1  0.33925504  0.67394175  0.05656334  1
  Cr  Cr1  1  0.16074607  0.17395462  0.44340809  1
  Cr  Cr2  1  0.66075036  0.32606605  0.55656592  1
  Cr  Cr3  1  0.83923370  0.82603725  0.94349903  1
  Cr  Cr4  1  0.66074419  0.32605157  0.94348945  1
  Cr  Cr5  1  0.83922340  0.82605337  0.55656367  1
  Cr  Cr6  1  0.33923272  0.67393669  0.44338521  1
  Cr  Cr7  1  0.16075113  0.17397689  0.05654848  1
  Cr  Cr8  1  0.84451972  0.52598863  0.24992475  1
  Cr  Cr9  1  0.65549202  0.02596635  0.24993032  1
  Cr  Cr10  1  0.15548666  0.47401293  0.75007511  1
  Cr  Cr11  1  0.34454511  0.97404368  0.75006303  1
  C  C0  1  0.07063359  0.87341606  0.24994382  1
  C  C1  1  0.42940048  0.37345842  0.24993733  1
  C  C2  1  0.92935487  0.12655458  0.75004942  1
  C  C3  1  0.57063294  0.62653917  0.75005304  1
loop_
_geom_bond_atom_site_label_1
_geom_bond_atom_site_label_2
_geom_bond_distance
_geom_bond_site_symmetry_2
C0 Cr9 2.019438 1_465
C0 Cr0 2.035137 1_555
C0 Cr6 2.035338 1_555
C0 Cr7 2.054628 1_565
C0 Cr1 2.054806 1_565
C0 Cr8 2.067790 1_455
C0 Cr3 2.283218 1_454
C0 Cr5 2.284267 1_455
C1 Cr8 2.019327 1_555
C1 Cr7 2.035272 1_555
C1 Cr1 2.035699 1_555
C1 Cr0 2.054247 1_555
C1 Cr6 2.054545 1_555
C1 Cr9 2.068007 1_555
C1 Cr4 2.283148 1_554
C1 Cr2 2.284195 1_555
C2 Cr11 2.019558 1_645
C2 Cr4 2.035415 1_555
C2 Cr2 2.035610 1_555
C2 Cr3 2.054682 1_545
C2 Cr5 2.054764 1_545
C2 Cr10 2.067969 1_655
C2 Cr7 2.283552 1_656
C2 Cr1 2.284374 1_655
C3 Cr10 2.019430 1_555
C3 Cr3 2.035423 1_555
C3 Cr5 2.035634 1_555
C3 Cr4 2.054489 1_555
C3 Cr2 2.054641 1_555
C3 Cr11 2.068056 1_555
C3 Cr0 2.283579 1_556
C3 Cr6 2.284529 1_555
