# generated using pymatgen
data_Na6Si2Se7
_symmetry_space_group_name_H-M   'P 1'
_cell_length_a   7.15618810
_cell_length_b   7.15618810
_cell_length_c   15.72085764
_cell_angle_alpha   80.22732631
_cell_angle_beta   80.22732631
_cell_angle_gamma   98.03825686
_symmetry_Int_Tables_number   1
_chemical_formula_structural   Na6Si2Se7
_chemical_formula_sum   'Na12 Si4 Se14'
_cell_volume   770.00698811
_cell_formula_units_Z   2
loop_
 _symmetry_equiv_pos_site_id
 _symmetry_equiv_pos_as_xyz
  1  'x, y, z'
loop_
 _atom_site_type_symbol
 _atom_site_label
 _atom_site_symmetry_multiplicity
 _atom_site_fract_x
 _atom_site_fract_y
 _atom_site_fract_z
 _atom_site_occupancy
  Na  Na0  1  0.57915559  0.42084441  0.75000000  1
  Na  Na1  1  0.42084441  0.57915559  0.25000000  1
  Na  Na2  1  0.50000000  0.50000000  -0.00000000  1
  Na  Na3  1  0.50000000  0.50000000  0.50000000  1
  Na  Na4  1  0.26570578  0.97230949  0.92714926  1
  Na  Na5  1  0.02769051  0.73429422  0.57285074  1
  Na  Na6  1  0.73429422  0.02769051  0.07285074  1
  Na  Na7  1  0.97230949  0.26570578  0.42714926  1
  Na  Na8  1  0.50957839  0.95167972  0.64043158  1
  Na  Na9  1  0.04832028  0.49042161  0.85956842  1
  Na  Na10  1  0.49042161  0.04832028  0.35956842  1
  Na  Na11  1  0.95167972  0.50957839  0.14043158  1
  Si  Si0  1  0.76317891  0.92374662  0.86065117  1
  Si  Si1  1  0.07625338  0.23682109  0.63934883  1
  Si  Si2  1  0.92374662  0.76317891  0.36065117  1
  Si  Si3  1  0.23682109  0.07625338  0.13934883  1
  Se  Se0  1  0.03622361  0.96377639  0.75000000  1
  Se  Se1  1  0.96377639  0.03622361  0.25000000  1
  Se  Se2  1  0.69039252  0.20192807  0.89415127  1
  Se  Se3  1  0.79807193  0.30960748  0.60584873  1
  Se  Se4  1  0.30960748  0.79807193  0.10584873  1
  Se  Se5  1  0.20192807  0.69039252  0.39415127  1
  Se  Se6  1  0.86933299  0.74060308  0.96960177  1
  Se  Se7  1  0.25939692  0.13066701  0.53039823  1
  Se  Se8  1  0.13066701  0.25939692  0.03039823  1
  Se  Se9  1  0.74060308  0.86933299  0.46960177  1
  Se  Se10  1  0.50897014  0.75603393  0.82177591  1
  Se  Se11  1  0.24396607  0.49102986  0.67822409  1
  Se  Se12  1  0.49102986  0.24396607  0.17822409  1
  Se  Se13  1  0.75603393  0.50897014  0.32177591  1
loop_
_geom_bond_atom_site_label_1
_geom_bond_atom_site_label_2
_geom_bond_distance
_geom_bond_site_symmetry_2
Na0 Se3 2.824792 1_555
Na0 Se2 2.824792 1_555
Na0 Se11 2.888346 1_555
Na0 Se10 2.888346 1_555
Na1 Se4 2.824792 1_555
Na1 Se5 2.824792 1_555
Na1 Se12 2.888346 1_555
Na1 Se13 2.888346 1_555
Na2 Se8 2.863161 1_555
Na2 Se6 2.863161 1_554
Na2 Se10 3.061823 1_554
Na2 Se12 3.061823 1_555
Na2 Se2 3.228529 1_554
Na2 Se4 3.228529 1_555
Na3 Se9 2.863161 1_555
Na3 Se7 2.863161 1_555
Na3 Se13 3.061823 1_555
Na3 Se11 3.061823 1_555
Na3 Se5 3.228529 1_555
Na3 Se3 3.228529 1_555
Na4 Se4 2.960684 1_556
Na4 Se10 2.969013 1_555
Na4 Se6 2.984452 1_455
Na4 Se8 2.990668 1_566
Na4 Se2 3.159799 1_565
Na4 Se0 3.469694 1_555
Na5 Se5 2.960684 1_555
Na5 Se11 2.969013 1_555
Na5 Se7 2.984452 1_565
Na5 Se9 2.990668 1_455
Na5 Se3 3.159799 1_455
Na5 Se0 3.469694 1_555
Na6 Se2 2.960684 1_554
Na6 Se12 2.969013 1_555
Na6 Se8 2.984452 1_655
Na6 Se6 2.990668 1_544
Na6 Se4 3.159799 1_545
Na6 Se1 3.469694 1_555
Na7 Se3 2.960684 1_555
Na7 Se13 2.969013 1_555
Na7 Se9 2.984452 1_545
Na7 Se7 2.990668 1_655
Na7 Se5 3.159799 1_655
Na7 Se1 3.469694 1_555
Na8 Se10 2.954127 1_555
Na8 Se7 2.962895 1_565
Na8 Se3 2.964098 1_565
Na8 Se9 3.097638 1_555
Na8 Se11 3.468744 1_555
Na8 Se0 3.549780 1_555
Na9 Se11 2.954127 1_555
Na9 Se6 2.962895 1_455
Na9 Se2 2.964098 1_455
Na9 Se8 3.097638 1_556
Na9 Se10 3.468744 1_555
Na9 Se0 3.549780 1_555
Na10 Se12 2.954127 1_555
Na10 Se9 2.962895 1_545
Na10 Se5 2.964098 1_545
Na10 Se7 3.097638 1_555
Na10 Se13 3.468744 1_555
Na10 Se1 3.549780 1_555
Na11 Se13 2.954127 1_555
Na11 Se8 2.962895 1_655
Na11 Se4 2.964098 1_655
Na11 Se6 3.097638 1_554
Na11 Se12 3.468744 1_555
Na11 Se1 3.549780 1_555
Se0 Si0 2.333753 1_455
Se0 Si1 2.333753 1_565
Se1 Si3 2.333753 1_655
Se1 Si2 2.333753 1_545
Se2 Si0 2.250425 1_545
Se3 Si1 2.250425 1_655
Se4 Si3 2.250425 1_565
Se5 Si2 2.250425 1_455
Se6 Si0 2.277397 1_555
Se7 Si1 2.277397 1_555
Se8 Si3 2.277397 1_555
Se9 Si2 2.277397 1_555
Se10 Si0 2.266967 1_555
Se11 Si1 2.266967 1_555
Se12 Si3 2.266967 1_555
Se13 Si2 2.266967 1_555
