# generated using pymatgen
data_SrTb2Sc2O7
_symmetry_space_group_name_H-M   'P 1'
_cell_length_a   4.04606644
_cell_length_b   4.04606644
_cell_length_c   10.51714889
_cell_angle_alpha   101.08791157
_cell_angle_beta   101.08791157
_cell_angle_gamma   90.01213605
_symmetry_Int_Tables_number   1
_chemical_formula_structural   SrTb2Sc2O7
_chemical_formula_sum   'Sr1 Tb2 Sc2 O7'
_cell_volume   165.68106258
_cell_formula_units_Z   1
loop_
 _symmetry_equiv_pos_site_id
 _symmetry_equiv_pos_as_xyz
  1  'x, y, z'
loop_
 _atom_site_type_symbol
 _atom_site_label
 _atom_site_symmetry_multiplicity
 _atom_site_fract_x
 _atom_site_fract_y
 _atom_site_fract_z
 _atom_site_occupancy
  Sr  Sr0  1  0.50000000  0.50000000  0.00000000  1
  Tb  Tb0  1  0.31697000  0.31697100  0.63394100  1
  Tb  Tb1  1  0.68303000  0.68302900  0.36605900  1
  Sc  Sc0  1  0.10273100  0.10273000  0.20546100  1
  Sc  Sc1  1  0.89726900  0.89727000  0.79453900  1
  O  O0  1  0.00000000  0.00000000  0.00000000  1
  O  O1  1  0.21169400  0.21169400  0.42338800  1
  O  O2  1  0.78830600  0.78830600  0.57661200  1
  O  O3  1  0.61387000  0.11387000  0.22774000  1
  O  O4  1  0.88613000  0.38613000  0.77226000  1
  O  O5  1  0.38613000  0.88613000  0.77226000  1
  O  O6  1  0.11387000  0.61387000  0.22774000  1
loop_
_geom_bond_atom_site_label_1
_geom_bond_atom_site_label_2
_geom_bond_distance
_geom_bond_site_symmetry_2
O0 Sc0 2.079391 1_555
O0 Sc1 2.079391 1_444
O0 Sr0 2.860698 1_445
O0 Sr0 2.860698 1_555
O0 Sr0 2.861304 1_455
O0 Sr0 2.861304 1_545
O1 Tb0 2.130926 1_555
O1 Sc0 2.205555 1_555
O1 Tb1 2.918943 1_555
O1 Tb1 2.918943 1_445
O1 Tb1 2.919534 1_455
O1 Tb1 2.919540 1_545
O2 Tb1 2.130926 1_555
O2 Sc1 2.205555 1_555
O2 Tb0 2.918943 1_555
O2 Tb0 2.918943 1_665
O2 Tb0 2.919534 1_655
O2 Tb0 2.919540 1_565
O3 Sc0 2.035558 1_555
O3 Sc0 2.035562 1_655
O3 Tb1 2.460142 1_555
O3 Tb1 2.460146 1_545
O3 Sr0 3.066771 1_545
O3 Sr0 3.066771 1_555
O4 Sc1 2.035558 1_545
O4 Sc1 2.035562 1_555
O4 Tb0 2.460142 1_655
O4 Tb0 2.460146 1_555
O4 Sr0 3.066771 1_556
O4 Sr0 3.066771 1_656
O5 Sc1 2.035558 1_555
O5 Sc1 2.035562 1_455
O5 Tb0 2.460142 1_555
O5 Tb0 2.460146 1_565
O5 Sr0 3.066771 1_556
O5 Sr0 3.066771 1_566
O6 Sc0 2.035558 1_565
O6 Sc0 2.035562 1_555
O6 Tb1 2.460142 1_455
O6 Tb1 2.460146 1_555
O6 Sr0 3.066771 1_555
O6 Sr0 3.066771 1_455
