# generated using pymatgen
data_InSn3
_symmetry_space_group_name_H-M   'P 1'
_cell_length_a   6.62505342
_cell_length_b   6.62505342
_cell_length_c   5.66743730
_cell_angle_alpha   90.00000000
_cell_angle_beta   90.00000000
_cell_angle_gamma   120.00000036
_symmetry_Int_Tables_number   1
_chemical_formula_structural   InSn3
_chemical_formula_sum   'In2 Sn6'
_cell_volume   215.42501046
_cell_formula_units_Z   2
loop_
 _symmetry_equiv_pos_site_id
 _symmetry_equiv_pos_as_xyz
  1  'x, y, z'
loop_
 _atom_site_type_symbol
 _atom_site_label
 _atom_site_symmetry_multiplicity
 _atom_site_fract_x
 _atom_site_fract_y
 _atom_site_fract_z
 _atom_site_occupancy
  In  In0  1  0.33333300  0.66666700  0.75000000  1
  In  In1  1  0.66666700  0.33333300  0.25000000  1
  Sn  Sn0  1  0.16513133  0.33026067  0.25000000  1
  Sn  Sn1  1  0.66973933  0.83486867  0.25000000  1
  Sn  Sn2  1  0.16513133  0.83486867  0.25000000  1
  Sn  Sn3  1  0.83486867  0.66973933  0.75000000  1
  Sn  Sn4  1  0.33026067  0.16513133  0.75000000  1
  Sn  Sn5  1  0.83486867  0.16513133  0.75000000  1
loop_
_geom_bond_atom_site_label_1
_geom_bond_atom_site_label_2
_geom_bond_distance
_geom_bond_site_symmetry_2
In0 Sn3 3.312570 1_555
In0 Sn4 3.312570 1_555
In0 Sn5 3.312574 1_565
In0 Sn5 3.312574 1_455
In0 Sn4 3.312577 1_565
In0 Sn3 3.312577 1_455
In0 Sn2 3.428594 1_555
In0 Sn2 3.428594 1_556
In0 Sn0 3.428604 1_555
In0 Sn1 3.428604 1_555
In0 Sn0 3.428604 1_556
In0 Sn1 3.428604 1_556
In1 Sn0 3.312570 1_555
In1 Sn1 3.312570 1_555
In1 Sn2 3.312574 1_655
In1 Sn2 3.312574 1_545
In1 Sn0 3.312577 1_655
In1 Sn1 3.312577 1_545
In1 Sn5 3.428594 1_555
In1 Sn5 3.428594 1_554
In1 Sn3 3.428604 1_555
In1 Sn4 3.428604 1_555
In1 Sn3 3.428604 1_554
In1 Sn4 3.428604 1_554
Sn0 Sn1 3.281998 1_445
Sn0 Sn2 3.281998 1_545
Sn0 Sn1 3.343055 1_555
Sn0 Sn2 3.343055 1_555
Sn0 Sn4 3.408872 1_555
Sn0 Sn4 3.408872 1_554
Sn0 Sn5 3.408885 1_455
Sn0 Sn5 3.408885 1_454
Sn1 Sn2 3.281998 1_655
Sn1 Sn2 3.343055 1_555
Sn1 Sn3 3.408872 1_555
Sn1 Sn3 3.408872 1_554
Sn1 Sn5 3.408885 1_564
Sn1 Sn5 3.408885 1_565
Sn2 Sn4 3.408885 1_565
Sn2 Sn4 3.408885 1_564
Sn2 Sn3 3.408885 1_455
Sn2 Sn3 3.408885 1_454
Sn3 Sn4 3.281998 1_665
Sn3 Sn5 3.281998 1_565
Sn3 Sn4 3.343055 1_555
Sn3 Sn5 3.343055 1_555
Sn4 Sn5 3.281998 1_455
Sn4 Sn5 3.343055 1_555
