# generated using pymatgen
data_Tb2CoPtO6
_symmetry_space_group_name_H-M   'P 1'
_cell_length_a   5.78203300
_cell_length_b   5.34765200
_cell_length_c   9.37842784
_cell_angle_alpha   55.41644247
_cell_angle_beta   90.00000000
_cell_angle_gamma   90.00000000
_symmetry_Int_Tables_number   1
_chemical_formula_structural   Tb2CoPtO6
_chemical_formula_sum   'Tb4 Co2 Pt2 O12'
_cell_volume   238.74346173
_cell_formula_units_Z   2
loop_
 _symmetry_equiv_pos_site_id
 _symmetry_equiv_pos_as_xyz
  1  'x, y, z'
loop_
 _atom_site_type_symbol
 _atom_site_label
 _atom_site_symmetry_multiplicity
 _atom_site_fract_x
 _atom_site_fract_y
 _atom_site_fract_z
 _atom_site_occupancy
  Tb  Tb0  1  0.07446300  0.72290200  0.75141200  1
  Tb  Tb1  1  0.92553700  0.27709800  0.24858800  1
  Tb  Tb2  1  0.57446300  0.27709800  0.74858800  1
  Tb  Tb3  1  0.42553700  0.72290200  0.25141200  1
  Co  Co0  1  0.50000000  0.50000000  0.00000000  1
  Co  Co1  1  0.00000000  0.50000000  0.50000000  1
  Pt  Pt0  1  0.50000000  0.00000000  0.50000000  1
  Pt  Pt1  1  0.00000000  0.00000000  0.00000000  1
  O  O0  1  0.45137800  0.87474100  0.74929600  1
  O  O1  1  0.54862200  0.12525900  0.25070400  1
  O  O2  1  0.95137800  0.12525900  0.75070400  1
  O  O3  1  0.04862200  0.87474100  0.24929600  1
  O  O4  1  0.80094600  0.75030800  0.56486200  1
  O  O5  1  0.19905400  0.24969200  0.43513800  1
  O  O6  1  0.30094600  0.24969200  0.93513800  1
  O  O7  1  0.69905400  0.75030800  0.06486200  1
  O  O8  1  0.30946000  0.62867600  0.55723400  1
  O  O9  1  0.69054000  0.37132400  0.44276600  1
  O  O10  1  0.80946000  0.37132400  0.94276600  1
  O  O11  1  0.19054000  0.62867600  0.05723400  1
loop_
_geom_bond_atom_site_label_1
_geom_bond_atom_site_label_2
_geom_bond_distance
_geom_bond_site_symmetry_2
Co0 O0 2.067434 1_554
Co0 O1 2.067434 1_555
Co0 O11 2.093451 1_555
Co0 O10 2.093451 1_554
Co0 O7 2.100186 1_555
Co0 O6 2.100186 1_554
Co1 O2 2.067434 1_455
Co1 O3 2.067434 1_555
Co1 O9 2.093451 1_455
Co1 O8 2.093451 1_555
Co1 O5 2.100186 1_555
Co1 O4 2.100186 1_455
O0 Pt0 2.053324 1_565
O0 Tb2 2.262737 1_565
O0 Tb0 2.321835 1_555
O1 Pt0 2.053324 1_555
O1 Tb3 2.262737 1_545
O1 Tb1 2.321835 1_555
O2 Pt1 2.053324 1_656
O2 Tb0 2.262737 1_645
O2 Tb2 2.321835 1_555
O3 Pt1 2.053324 1_565
O3 Tb1 2.262737 1_465
O3 Tb3 2.321835 1_555
O4 Pt0 2.063679 1_565
O4 Tb0 2.300522 1_655
O4 Tb2 2.477431 1_555
O4 Tb1 2.786979 1_565
O5 Pt0 2.063679 1_555
O5 Tb1 2.300522 1_455
O5 Tb3 2.477431 1_555
O5 Tb0 2.786979 1_545
O6 Pt1 2.063679 1_556
O6 Tb2 2.300522 1_555
O6 Tb0 2.477431 1_555
O6 Tb3 2.786979 1_546
O7 Pt1 2.063679 1_665
O7 Tb3 2.300522 1_555
O7 Tb1 2.477431 1_555
O7 Tb2 2.786979 1_564
O8 Pt0 2.057899 1_565
O8 Tb2 2.296292 1_555
O8 Tb0 2.541295 1_555
O8 Tb3 2.699981 1_555
O9 Pt0 2.057899 1_555
O9 Tb3 2.296292 1_555
O9 Tb1 2.541295 1_555
O9 Tb2 2.699981 1_555
O10 Pt1 2.057899 1_656
O10 Tb0 2.296292 1_655
O10 Tb2 2.541295 1_555
O10 Tb1 2.699981 1_556
O11 Pt1 2.057899 1_565
O11 Tb1 2.296292 1_455
O11 Tb3 2.541295 1_555
O11 Tb0 2.699981 1_554
