# generated using pymatgen
data_ZnCuO2
_symmetry_space_group_name_H-M   'P 1'
_cell_length_a   3.21526300
_cell_length_b   7.83249826
_cell_length_c   8.14657791
_cell_angle_alpha   101.77392877
_cell_angle_beta   95.75647601
_cell_angle_gamma   101.02137978
_symmetry_Int_Tables_number   1
_chemical_formula_structural   ZnCuO2
_chemical_formula_sum   'Zn4 Cu4 O8'
_cell_volume   195.05603193
_cell_formula_units_Z   4
loop_
 _symmetry_equiv_pos_site_id
 _symmetry_equiv_pos_as_xyz
  1  'x, y, z'
loop_
 _atom_site_type_symbol
 _atom_site_label
 _atom_site_symmetry_multiplicity
 _atom_site_fract_x
 _atom_site_fract_y
 _atom_site_fract_z
 _atom_site_occupancy
  Zn  Zn0  1  0.40673500  0.75337000  0.12788400  1
  Zn  Zn1  1  0.57106400  0.20764800  0.84401000  1
  Zn  Zn2  1  0.93093700  0.86698000  0.80726300  1
  Zn  Zn3  1  0.08114500  0.12808100  0.19287200  1
  Cu  Cu0  1  0.60926300  0.49336700  0.33801800  1
  Cu  Cu1  1  0.17156800  0.83138400  0.47760400  1
  Cu  Cu2  1  0.83842400  0.15432000  0.50439300  1
  Cu  Cu3  1  0.42815900  0.50643200  0.67257600  1
  O  O0  1  0.82282900  0.35583800  0.68896100  1
  O  O1  1  0.66103900  0.25411600  0.32099500  1
  O  O2  1  0.34655600  0.73951200  0.66753800  1
  O  O3  1  0.19134300  0.62654000  0.30830700  1
  O  O4  1  0.07000300  0.14465300  0.96136900  1
  O  O5  1  0.86538000  0.94630500  0.32722300  1
  O  O6  1  0.87186400  0.75259000  0.99646600  1
  O  O7  1  0.13635500  0.03401900  0.64205900  1
loop_
_geom_bond_atom_site_label_1
_geom_bond_atom_site_label_2
_geom_bond_distance
_geom_bond_site_symmetry_2
Cu0 O3 1.877733 1_555
Cu0 O1 1.891144 1_555
Cu0 O3 2.024044 1_655
Cu1 O7 1.886295 1_565
Cu1 O3 1.906299 1_555
Cu1 O2 1.913920 1_555
Cu1 O5 1.956311 1_455
Cu2 O7 1.903711 1_655
Cu2 O1 1.909087 1_555
Cu2 O0 1.957418 1_555
Cu2 O5 1.965873 1_545
Cu3 O2 1.901288 1_555
Cu3 O0 1.903143 1_555
Cu3 O0 2.106127 1_455
O0 Zn1 2.010509 1_555
O1 Zn3 2.006418 1_555
O1 Zn3 2.064130 1_655
O2 Zn2 2.052510 1_555
O2 Zn2 2.104687 1_455
O3 Zn0 2.040558 1_555
O4 Zn3 1.913921 1_556
O4 Zn1 1.979530 1_455
O4 Zn1 1.987600 1_555
O4 Zn2 2.215267 1_445
O5 Zn3 2.029017 1_665
O5 Zn0 2.182079 1_555
O6 Zn0 1.924786 1_556
O6 Zn0 1.930739 1_656
O6 Zn2 1.942124 1_555
O7 Zn1 2.099668 1_555
O7 Zn2 2.127386 1_445
