# generated using pymatgen
data_Yb3Ge13Rh4
_symmetry_space_group_name_H-M   'P 1'
_cell_length_a   9.02735300
_cell_length_b   9.02735300
_cell_length_c   9.02735300
_cell_angle_alpha   90.00000000
_cell_angle_beta   90.00000000
_cell_angle_gamma   90.00000000
_symmetry_Int_Tables_number   1
_chemical_formula_structural   Yb3Ge13Rh4
_chemical_formula_sum   'Yb6 Ge26 Rh8'
_cell_volume   735.66700050
_cell_formula_units_Z   2
loop_
 _symmetry_equiv_pos_site_id
 _symmetry_equiv_pos_as_xyz
  1  'x, y, z'
loop_
 _atom_site_type_symbol
 _atom_site_label
 _atom_site_symmetry_multiplicity
 _atom_site_fract_x
 _atom_site_fract_y
 _atom_site_fract_z
 _atom_site_occupancy
  Yb  Yb0  1  0.00000000  0.50000000  0.75000000  1
  Yb  Yb1  1  0.50000000  0.25000000  0.00000000  1
  Yb  Yb2  1  0.75000000  0.00000000  0.50000000  1
  Yb  Yb3  1  0.00000000  0.50000000  0.25000000  1
  Yb  Yb4  1  0.50000000  0.75000000  0.00000000  1
  Yb  Yb5  1  0.25000000  0.00000000  0.50000000  1
  Ge  Ge0  1  0.50000000  0.50000000  0.50000000  1
  Ge  Ge1  1  0.00000000  0.00000000  0.00000000  1
  Ge  Ge2  1  0.80671700  0.35386400  0.50000000  1
  Ge  Ge3  1  0.64613600  0.50000000  0.80671700  1
  Ge  Ge4  1  0.50000000  0.19328300  0.64613600  1
  Ge  Ge5  1  0.19328300  0.64613600  0.50000000  1
  Ge  Ge6  1  0.35386400  0.50000000  0.19328300  1
  Ge  Ge7  1  0.50000000  0.80671700  0.35386400  1
  Ge  Ge8  1  0.80671700  0.64613600  0.50000000  1
  Ge  Ge9  1  0.64613600  0.50000000  0.19328300  1
  Ge  Ge10  1  0.19328300  0.35386400  0.50000000  1
  Ge  Ge11  1  0.35386400  0.50000000  0.80671700  1
  Ge  Ge12  1  0.50000000  0.80671700  0.64613600  1
  Ge  Ge13  1  0.50000000  0.19328300  0.35386400  1
  Ge  Ge14  1  0.30671700  0.00000000  0.85386400  1
  Ge  Ge15  1  0.14613600  0.30671700  0.00000000  1
  Ge  Ge16  1  0.00000000  0.14613600  0.69328300  1
  Ge  Ge17  1  0.69328300  0.00000000  0.14613600  1
  Ge  Ge18  1  0.85386400  0.69328300  0.00000000  1
  Ge  Ge19  1  0.00000000  0.85386400  0.30671700  1
  Ge  Ge20  1  0.30671700  0.00000000  0.14613600  1
  Ge  Ge21  1  0.14613600  0.69328300  0.00000000  1
  Ge  Ge22  1  0.69328300  0.00000000  0.85386400  1
  Ge  Ge23  1  0.85386400  0.30671700  0.00000000  1
  Ge  Ge24  1  0.00000000  0.14613600  0.30671700  1
  Ge  Ge25  1  0.00000000  0.85386400  0.69328300  1
  Rh  Rh0  1  0.75000000  0.25000000  0.75000000  1
  Rh  Rh1  1  0.25000000  0.75000000  0.25000000  1
  Rh  Rh2  1  0.75000000  0.75000000  0.25000000  1
  Rh  Rh3  1  0.25000000  0.25000000  0.75000000  1
  Rh  Rh4  1  0.25000000  0.75000000  0.75000000  1
  Rh  Rh5  1  0.75000000  0.25000000  0.25000000  1
  Rh  Rh6  1  0.25000000  0.25000000  0.25000000  1
  Rh  Rh7  1  0.75000000  0.75000000  0.75000000  1
loop_
_geom_bond_atom_site_label_1
_geom_bond_atom_site_label_2
_geom_bond_distance
_geom_bond_site_symmetry_2
Ge0 Ge7 3.067056 1_555
Ge0 Ge6 3.067056 1_555
Ge0 Ge2 3.067056 1_555
Ge0 Ge13 3.067056 1_555
Ge0 Ge9 3.067056 1_555
Ge0 Ge10 3.067056 1_555
Ge0 Ge11 3.067056 1_555
Ge0 Ge3 3.067056 1_555
Ge0 Ge8 3.067056 1_555
Ge0 Ge5 3.067056 1_555
Ge0 Ge12 3.067056 1_555
Ge0 Ge4 3.067056 1_555
Ge1 Ge16 3.067056 1_554
Ge1 Ge17 3.067056 1_455
Ge1 Ge23 3.067056 1_455
Ge1 Ge21 3.067056 1_545
Ge1 Ge20 3.067056 1_555
Ge1 Ge18 3.067056 1_445
Ge1 Ge25 3.067056 1_544
Ge1 Ge19 3.067056 1_545
Ge1 Ge24 3.067056 1_555
Ge1 Ge15 3.067056 1_555
Ge1 Ge14 3.067056 1_554
Ge1 Ge22 3.067056 1_454
Ge2 Rh5 2.496917 1_555
Ge2 Rh0 2.496917 1_555
Ge2 Ge8 2.638443 1_555
Ge2 Yb0 3.142946 1_655
Ge2 Yb3 3.142946 1_655
Ge2 Yb2 3.235227 1_555
Ge3 Rh7 2.496917 1_555
Ge3 Rh0 2.496917 1_555
Ge3 Yb4 3.142946 1_556
Ge3 Yb1 3.142946 1_556
Ge3 Yb0 3.235227 1_655
Ge4 Rh3 2.496917 1_555
Ge4 Rh0 2.496917 1_555
Ge4 Yb5 3.142946 1_555
Ge4 Yb2 3.142946 1_555
Ge4 Yb1 3.235227 1_556
Ge5 Rh4 2.496917 1_555
Ge5 Rh1 2.496917 1_555
Ge5 Yb3 3.142946 1_555
Ge5 Yb0 3.142946 1_555
Ge5 Yb5 3.235227 1_565
Ge6 Rh6 2.496917 1_555
Ge6 Rh1 2.496917 1_555
Ge6 Ge9 2.638443 1_555
Ge6 Yb4 3.142946 1_555
Ge6 Yb1 3.142946 1_555
Ge6 Yb3 3.235227 1_555
Ge7 Rh1 2.496917 1_555
Ge7 Rh2 2.496917 1_555
Ge7 Yb2 3.142946 1_565
Ge7 Yb5 3.142946 1_565
Ge7 Yb4 3.235227 1_555
Ge8 Rh2 2.496917 1_555
Ge8 Rh7 2.496917 1_555
Ge8 Yb0 3.142946 1_655
Ge8 Yb3 3.142946 1_655
Ge8 Yb2 3.235227 1_565
Ge9 Rh5 2.496917 1_555
Ge9 Rh2 2.496917 1_555
Ge9 Yb4 3.142946 1_555
Ge9 Yb1 3.142946 1_555
Ge9 Yb3 3.235227 1_655
Ge10 Rh6 2.496917 1_555
Ge10 Rh3 2.496917 1_555
Ge10 Ge5 2.638443 1_555
Ge10 Yb3 3.142946 1_555
Ge10 Yb0 3.142946 1_555
Ge10 Yb5 3.235227 1_555
Ge11 Rh4 2.496917 1_555
Ge11 Rh3 2.496917 1_555
Ge11 Ge3 2.638443 1_555
Ge11 Yb4 3.142946 1_556
Ge11 Yb1 3.142946 1_556
Ge11 Yb0 3.235227 1_555
Ge12 Rh4 2.496917 1_555
Ge12 Rh7 2.496917 1_555
Ge12 Ge7 2.638443 1_555
Ge12 Yb2 3.142946 1_565
Ge12 Yb5 3.142946 1_565
Ge12 Yb4 3.235227 1_556
Ge13 Rh6 2.496917 1_555
Ge13 Rh5 2.496917 1_555
Ge13 Ge4 2.638443 1_555
Ge13 Yb5 3.142946 1_555
Ge13 Yb2 3.142946 1_555
Ge13 Yb1 3.235227 1_555
Ge14 Rh3 2.496917 1_555
Ge14 Rh4 2.496917 1_545
Ge14 Ge20 2.638443 1_556
Ge14 Yb1 3.142946 1_556
Ge14 Yb4 3.142946 1_546
Ge14 Yb5 3.235227 1_555
Ge15 Rh6 2.496917 1_555
Ge15 Rh3 2.496917 1_554
Ge15 Ge23 2.638443 1_455
Ge15 Yb3 3.142946 1_555
Ge15 Yb0 3.142946 1_554
Ge15 Yb1 3.235227 1_555
Ge16 Rh3 2.496917 1_555
Ge16 Rh0 2.496917 1_455
Ge16 Ge25 2.638443 1_545
Ge16 Yb2 3.142946 1_455
Ge16 Yb5 3.142946 1_555
Ge16 Yb0 3.235227 1_555
Ge17 Rh2 2.496917 1_545
Ge17 Rh5 2.496917 1_555
Ge17 Ge22 2.638443 1_554
Ge17 Yb4 3.142946 1_545
Ge17 Yb1 3.142946 1_555
Ge17 Yb2 3.235227 1_555
Ge18 Rh7 2.496917 1_554
Ge18 Rh2 2.496917 1_555
Ge18 Ge21 2.638443 1_655
Ge18 Yb0 3.142946 1_654
Ge18 Yb3 3.142946 1_655
Ge18 Yb4 3.235227 1_555
Ge19 Rh1 2.496917 1_555
Ge19 Rh2 2.496917 1_455
Ge19 Ge24 2.638443 1_565
Ge19 Yb2 3.142946 1_465
Ge19 Yb5 3.142946 1_565
Ge19 Yb3 3.235227 1_555
Ge20 Rh6 2.496917 1_555
Ge20 Rh1 2.496917 1_545
Ge20 Yb4 3.142946 1_545
Ge20 Yb1 3.142946 1_555
Ge20 Yb5 3.235227 1_555
Ge21 Rh4 2.496917 1_554
Ge21 Rh1 2.496917 1_555
Ge21 Yb3 3.142946 1_555
Ge21 Yb0 3.142946 1_554
Ge21 Yb4 3.235227 1_555
Ge22 Rh7 2.496917 1_545
Ge22 Rh0 2.496917 1_555
Ge22 Yb1 3.142946 1_556
Ge22 Yb4 3.142946 1_546
Ge22 Yb2 3.235227 1_555
Ge23 Rh0 2.496917 1_554
Ge23 Rh5 2.496917 1_555
Ge23 Yb0 3.142946 1_654
Ge23 Yb3 3.142946 1_655
Ge23 Yb1 3.235227 1_555
Ge24 Rh6 2.496917 1_555
Ge24 Rh5 2.496917 1_455
Ge24 Yb2 3.142946 1_455
Ge24 Yb5 3.142946 1_555
Ge24 Yb3 3.235227 1_555
Ge25 Rh4 2.496917 1_555
Ge25 Rh7 2.496917 1_455
Ge25 Yb2 3.142946 1_465
Ge25 Yb5 3.142946 1_565
Ge25 Yb0 3.235227 1_555
Rh0 Yb1 3.191651 1_556
Rh0 Yb0 3.191651 1_655
Rh0 Yb2 3.191651 1_555
Rh1 Yb4 3.191651 1_555
Rh1 Yb3 3.191651 1_555
Rh1 Yb5 3.191651 1_565
Rh2 Yb2 3.191651 1_565
Rh2 Yb4 3.191651 1_555
Rh2 Yb3 3.191651 1_655
Rh3 Yb0 3.191651 1_555
Rh3 Yb1 3.191651 1_556
Rh3 Yb5 3.191651 1_555
Rh4 Yb0 3.191651 1_555
Rh4 Yb4 3.191651 1_556
Rh4 Yb5 3.191651 1_565
Rh5 Yb3 3.191651 1_655
Rh5 Yb1 3.191651 1_555
Rh5 Yb2 3.191651 1_555
Rh6 Yb1 3.191651 1_555
Rh6 Yb5 3.191651 1_555
Rh6 Yb3 3.191651 1_555
Rh7 Yb2 3.191651 1_565
Rh7 Yb0 3.191651 1_655
Rh7 Yb4 3.191651 1_556
