# generated using pymatgen
data_FeH24C6(IO3)2
_symmetry_space_group_name_H-M   'P 1'
_cell_length_a   8.43544080
_cell_length_b   8.44474269
_cell_length_c   7.37592966
_cell_angle_alpha   90.37627218
_cell_angle_beta   89.98690215
_cell_angle_gamma   119.85499509
_symmetry_Int_Tables_number   1
_chemical_formula_structural   FeH24C6(IO3)2
_chemical_formula_sum   'Fe1 H24 C6 I2 O6'
_cell_volume   455.68243761
_cell_formula_units_Z   1
loop_
 _symmetry_equiv_pos_site_id
 _symmetry_equiv_pos_as_xyz
  1  'x, y, z'
loop_
 _atom_site_type_symbol
 _atom_site_label
 _atom_site_symmetry_multiplicity
 _atom_site_fract_x
 _atom_site_fract_y
 _atom_site_fract_z
 _atom_site_occupancy
  Fe  Fe0  1  0.00000000  0.00000000  0.00000000  1
  H  H0  1  0.88701900  0.22472700  0.82317400  1
  H  H1  1  0.33849500  0.11419700  0.82385500  1
  H  H2  1  0.77594700  0.66202200  0.82246400  1
  H  H3  1  0.11298100  0.77527300  0.17682600  1
  H  H4  1  0.66150500  0.88580300  0.17614500  1
  H  H5  1  0.22405300  0.33797800  0.17753600  1
  H  H6  1  0.10329400  0.43623700  0.66700500  1
  H  H7  1  0.33308600  0.89655500  0.66794800  1
  H  H8  1  0.56310500  0.66670700  0.66670600  1
  H  H9  1  0.89670600  0.56376300  0.33299500  1
  H  H10  1  0.66691400  0.10344500  0.33205200  1
  H  H11  1  0.43689500  0.33329300  0.33329400  1
  H  H12  1  0.25916300  0.42573200  0.82630800  1
  H  H13  1  0.16681000  0.74223900  0.82653100  1
  H  H14  1  0.57492100  0.83336500  0.82713700  1
  H  H15  1  0.74083700  0.57426800  0.17369200  1
  H  H16  1  0.83319000  0.25776100  0.17346900  1
  H  H17  1  0.42507900  0.16663500  0.17286300  1
  H  H18  1  0.18956800  0.28311500  0.62757900  1
  H  H19  1  0.09388300  0.81110800  0.62888000  1
  H  H20  1  0.71629600  0.90504300  0.62937700  1
  H  H21  1  0.81043200  0.71688500  0.37242100  1
  H  H22  1  0.90611700  0.18889200  0.37112000  1
  H  H23  1  0.28370400  0.09495700  0.37062300  1
  C  C0  1  0.14546000  0.34631900  0.73221900  1
  C  C1  1  0.20106600  0.85520400  0.73298200  1
  C  C2  1  0.65351700  0.79840200  0.73295200  1
  C  C3  1  0.85454000  0.65368100  0.26778100  1
  C  C4  1  0.79893400  0.14479600  0.26701800  1
  C  C5  1  0.34648300  0.20159800  0.26704800  1
  I  I0  1  0.66645700  0.33285900  0.76155900  1
  I  I1  1  0.33354300  0.66714100  0.23844100  1
  O  O0  1  0.99328900  0.20455600  0.83005400  1
  O  O1  1  0.21239800  0.00840800  0.83295700  1
  O  O2  1  0.79542500  0.78777200  0.83210100  1
  O  O3  1  0.00671100  0.79544400  0.16994600  1
  O  O4  1  0.78760200  0.99159200  0.16704300  1
  O  O5  1  0.20457500  0.21222800  0.16789900  1
loop_
_geom_bond_atom_site_label_1
_geom_bond_atom_site_label_2
_geom_bond_distance
_geom_bond_site_symmetry_2
Fe0 O1 2.146316 1_554
Fe0 O4 2.146316 1_445
Fe0 O5 2.148549 1_555
Fe0 O2 2.148549 1_444
Fe0 O0 2.164328 1_454
Fe0 O3 2.164328 1_545
H0 O0 0.993653 1_555
H1 O1 0.994331 1_555
H2 O2 0.992490 1_555
H3 O3 0.993653 1_555
H4 O4 0.994331 1_555
H5 O5 0.992490 1_555
C0 H12 1.097769 1_555
C0 H6 1.099207 1_555
C0 H18 1.100543 1_555
C0 O0 1.443116 1_455
C1 H13 1.097159 1_555
C1 H7 1.098647 1_555
C1 H19 1.098671 1_555
C1 O1 1.446070 1_565
C2 H14 1.096053 1_555
C2 H8 1.098097 1_555
C2 H20 1.099599 1_555
C2 O2 1.443632 1_555
C3 H15 1.097769 1_555
C3 H9 1.099207 1_555
C3 H21 1.100543 1_555
C3 O3 1.443116 1_655
C4 H16 1.097159 1_555
C4 H10 1.098647 1_555
C4 H22 1.098671 1_555
C4 O4 1.446070 1_545
C5 H17 1.096053 1_555
C5 H11 1.098097 1_555
C5 H23 1.099599 1_555
C5 O5 1.443632 1_555
