# generated using pymatgen
data_YS2
_symmetry_space_group_name_H-M   'P 1'
_cell_length_a   5.53624587
_cell_length_b   5.53624587
_cell_length_c   5.53624587
_cell_angle_alpha   60.00000000
_cell_angle_beta   60.00000000
_cell_angle_gamma   60.00000000
_symmetry_Int_Tables_number   1
_chemical_formula_structural   YS2
_chemical_formula_sum   'Y2 S4'
_cell_volume   119.98614800
_cell_formula_units_Z   2
loop_
 _symmetry_equiv_pos_site_id
 _symmetry_equiv_pos_as_xyz
  1  'x, y, z'
loop_
 _atom_site_type_symbol
 _atom_site_label
 _atom_site_symmetry_multiplicity
 _atom_site_fract_x
 _atom_site_fract_y
 _atom_site_fract_z
 _atom_site_occupancy
  Y  Y0  1  0.50000000  0.50000000  0.50000000  1
  Y  Y1  1  0.75000000  0.75000000  0.75000000  1
  S  S0  1  0.12500000  0.12500000  0.12500000  1
  S  S1  1  0.62500000  0.12500000  0.12500000  1
  S  S2  1  0.12500000  0.62500000  0.12500000  1
  S  S3  1  0.12500000  0.12500000  0.62500000  1
loop_
_geom_bond_atom_site_label_1
_geom_bond_atom_site_label_2
_geom_bond_distance
_geom_bond_site_symmetry_2
S0 S2 2.768123 1_545
S0 S1 2.768123 1_455
S0 S1 2.768123 1_555
S0 S2 2.768123 1_555
S0 S3 2.768123 1_555
S0 S3 2.768123 1_554
S0 Y1 3.245912 1_445
S0 Y1 3.245912 1_544
S0 Y0 3.245912 1_554
S0 Y0 3.245912 1_455
S0 Y0 3.245912 1_545
S0 Y1 3.245912 1_454
S1 S3 2.768123 1_654
S1 S2 2.768123 1_645
S1 S2 2.768123 1_555
S1 S3 2.768123 1_555
S1 Y0 3.245912 1_555
S1 Y1 3.245912 1_544
S1 Y1 3.245912 1_545
S1 Y0 3.245912 1_554
S1 Y0 3.245912 1_545
S1 Y1 3.245912 1_554
S2 S3 2.768123 1_555
S2 S3 2.768123 1_564
S2 Y0 3.245912 1_555
S2 Y1 3.245912 1_455
S2 Y1 3.245912 1_454
S2 Y0 3.245912 1_554
S2 Y0 3.245912 1_455
S2 Y1 3.245912 1_554
S3 Y1 3.245912 1_455
S3 Y0 3.245912 1_545
S3 Y1 3.245912 1_545
S3 Y0 3.245912 1_455
S3 Y0 3.245912 1_555
S3 Y1 3.245912 1_445
