# generated using pymatgen
data_OsBr2N4ClO2
_symmetry_space_group_name_H-M   'P 1'
_cell_length_a   7.83055900
_cell_length_b   8.27726700
_cell_length_c   13.65721800
_cell_angle_alpha   90.00000000
_cell_angle_beta   90.00000000
_cell_angle_gamma   90.00000000
_symmetry_Int_Tables_number   1
_chemical_formula_structural   OsBr2N4ClO2
_chemical_formula_sum   'Os4 Br8 N16 Cl4 O8'
_cell_volume   885.20115597
_cell_formula_units_Z   4
loop_
 _symmetry_equiv_pos_site_id
 _symmetry_equiv_pos_as_xyz
  1  'x, y, z'
loop_
 _atom_site_type_symbol
 _atom_site_label
 _atom_site_symmetry_multiplicity
 _atom_site_fract_x
 _atom_site_fract_y
 _atom_site_fract_z
 _atom_site_occupancy
  Os  Os0  1  0.35060400  0.25000000  0.66730200  1
  Os  Os1  1  0.14939600  0.25000000  0.16730200  1
  Os  Os2  1  0.64939600  0.75000000  0.33269800  1
  Os  Os3  1  0.85060400  0.75000000  0.83269800  1
  Br  Br0  1  0.82514300  0.00212600  0.66994700  1
  Br  Br1  1  0.67485700  0.49787400  0.16994700  1
  Br  Br2  1  0.17485700  0.50212600  0.33005300  1
  Br  Br3  1  0.32514300  0.99787400  0.83005300  1
  Br  Br4  1  0.17485700  0.99787400  0.33005300  1
  Br  Br5  1  0.32514300  0.50212600  0.83005300  1
  Br  Br6  1  0.82514300  0.49787400  0.66994700  1
  Br  Br7  1  0.67485700  0.00212600  0.16994700  1
  N  N0  1  0.06240400  0.25000000  0.43643100  1
  N  N1  1  0.43759600  0.25000000  0.93643100  1
  N  N2  1  0.93759600  0.75000000  0.56356900  1
  N  N3  1  0.56240400  0.75000000  0.06356900  1
  N  N4  1  0.16355800  0.25000000  0.73639600  1
  N  N5  1  0.33644200  0.25000000  0.23639600  1
  N  N6  1  0.83644200  0.75000000  0.26360400  1
  N  N7  1  0.66355800  0.75000000  0.76360400  1
  N  N8  1  0.35175500  0.09614400  0.56348900  1
  N  N9  1  0.14824500  0.40385600  0.06348900  1
  N  N10  1  0.64824500  0.59614400  0.43651100  1
  N  N11  1  0.85175500  0.90385600  0.93651100  1
  N  N12  1  0.64824500  0.90385600  0.43651100  1
  N  N13  1  0.85175500  0.59614400  0.93651100  1
  N  N14  1  0.35175500  0.40385600  0.56348900  1
  N  N15  1  0.14824500  0.09614400  0.06348900  1
  Cl  Cl0  1  0.44081900  0.25000000  0.48632000  1
  Cl  Cl1  1  0.05918100  0.25000000  0.98632000  1
  Cl  Cl2  1  0.55918100  0.75000000  0.51368000  1
  Cl  Cl3  1  0.94081900  0.75000000  0.01368000  1
  O  O0  1  0.91914900  0.25000000  0.45012000  1
  O  O1  1  0.58085100  0.25000000  0.95012000  1
  O  O2  1  0.08085100  0.75000000  0.54988000  1
  O  O3  1  0.41914900  0.75000000  0.04988000  1
  O  O4  1  0.54720900  0.25000000  0.73141900  1
  O  O5  1  0.95279100  0.25000000  0.23141900  1
  O  O6  1  0.45279100  0.75000000  0.26858100  1
  O  O7  1  0.04720900  0.75000000  0.76858100  1
loop_
_geom_bond_atom_site_label_1
_geom_bond_atom_site_label_2
_geom_bond_distance
_geom_bond_site_symmetry_2
N0 O0 1.137239 1_455
N1 O1 1.137239 1_555
N2 O2 1.137239 1_655
N3 O3 1.137239 1_555
N4 Os0 1.742330 1_555
N5 Os1 1.742330 1_555
N6 Os2 1.742330 1_555
N7 Os3 1.742330 1_555
N8 Os0 1.905794 1_555
N9 Os1 1.905794 1_555
N10 Os2 1.905794 1_555
N11 Os3 1.905794 1_555
N12 Os2 1.905794 1_555
N13 Os3 1.905794 1_555
N14 Os0 1.905794 1_555
N15 Os1 1.905794 1_555
Cl0 N14 1.794144 1_555
Cl0 N8 1.794144 1_555
Cl1 N15 1.794144 1_556
Cl1 N9 1.794144 1_556
Cl2 N10 1.794144 1_555
Cl2 N12 1.794144 1_555
Cl3 N13 1.794144 1_554
Cl3 N11 1.794144 1_554
O4 Os0 1.771136 1_555
O5 Os1 1.771136 1_655
O6 Os2 1.771136 1_555
O7 Os3 1.771136 1_455
