# generated using pymatgen
data_Li9Mn2Co5O16
_symmetry_space_group_name_H-M   'P 1'
_cell_length_a   2.89371634
_cell_length_b   19.45355558
_cell_length_c   5.17141053
_cell_angle_alpha   91.78683082
_cell_angle_beta   88.49182292
_cell_angle_gamma   87.06058099
_symmetry_Int_Tables_number   1
_chemical_formula_structural   Li9Mn2Co5O16
_chemical_formula_sum   'Li9 Mn2 Co5 O16'
_cell_volume   290.47651992
_cell_formula_units_Z   1
loop_
 _symmetry_equiv_pos_site_id
 _symmetry_equiv_pos_as_xyz
  1  'x, y, z'
loop_
 _atom_site_type_symbol
 _atom_site_label
 _atom_site_symmetry_multiplicity
 _atom_site_fract_x
 _atom_site_fract_y
 _atom_site_fract_z
 _atom_site_occupancy
  Li  Li0  1  0.91428700  0.14098000  0.72031100  1
  Li  Li1  1  0.32534800  0.37212900  0.55030800  1
  Li  Li2  1  0.68902400  0.62258800  0.43981500  1
  Li  Li3  1  0.06334700  0.87230200  0.31364800  1
  Li  Li4  1  0.42677900  0.13020900  0.19692800  1
  Li  Li5  1  0.81698300  0.36921900  0.03827100  1
  Li  Li6  1  0.18654900  0.62208300  0.93892400  1
  Li  Li7  1  0.55944800  0.87374400  0.81155200  1
  Li  Li8  1  0.37541300  0.25140600  0.87737200  1
  Mn  Mn0  1  0.99903200  0.99987400  0.99977900  1
  Mn  Mn1  1  0.87742600  0.24990800  0.37425700  1
  Co  Co0  1  0.75207200  0.49880700  0.74740500  1
  Co  Co1  1  0.12522500  0.74981000  0.62590800  1
  Co  Co2  1  0.49756200  0.00069300  0.50117700  1
  Co  Co3  1  0.25242500  0.49918800  0.24715200  1
  Co  Co4  1  0.62447600  0.74949700  0.12538600  1
  O  O0  1  0.48530900  0.05605600  0.86748100  1
  O  O1  1  0.84727500  0.30741800  0.68128800  1
  O  O2  1  0.20708100  0.55790900  0.59806400  1
  O  O3  1  0.58092100  0.80905500  0.47556200  1
  O  O4  1  0.97655200  0.05181800  0.32276500  1
  O  O5  1  0.36379200  0.30496000  0.23141100  1
  O  O6  1  0.70635000  0.55806100  0.09579200  1
  O  O7  1  0.07754600  0.80818700  0.97628900  1
  O  O8  1  0.39291700  0.19326400  0.51935700  1
  O  O9  1  0.79663900  0.44331900  0.39834100  1
  O  O10  1  0.17074300  0.69282900  0.27772500  1
  O  O11  1  0.51459600  0.94268800  0.13250900  1
  O  O12  1  0.90791400  0.19174200  0.06473300  1
  O  O13  1  0.29807200  0.44156900  0.89973900  1
  O  O14  1  0.66634800  0.69329000  0.77636200  1
  O  O15  1  0.02254900  0.94540000  0.67438700  1
loop_
_geom_bond_atom_site_label_1
_geom_bond_atom_site_label_2
_geom_bond_distance
_geom_bond_site_symmetry_2
Li0 O12 2.008657 1_556
Li0 O8 2.041418 1_655
Li0 O8 2.093255 1_555
Li0 O0 2.255775 1_555
Li0 O0 2.429726 1_655
Li1 O1 2.034652 1_455
Li1 O1 2.058299 1_555
Li1 O5 2.068940 1_555
Li1 O9 2.144906 1_555
Li1 O9 2.188633 1_455
Li1 O13 2.219414 1_555
Li2 O2 2.093304 1_555
Li2 O2 2.106077 1_655
Li2 O6 2.143119 1_555
Li2 O10 2.172137 1_655
Li2 O10 2.178643 1_555
Li2 O14 2.181872 1_555
Li3 O3 2.083902 1_455
Li3 O3 2.097464 1_555
Li3 O7 2.111003 1_554
Li3 O11 2.157872 1_555
Li3 O11 2.282361 1_455
Li3 O15 2.306951 1_555
Li4 O12 2.002628 1_555
Li4 O12 2.018745 1_455
Li4 O8 2.036184 1_555
Li4 O4 2.160427 1_455
Li4 O0 2.195155 1_554
Li4 O4 2.268820 1_555
Li5 O5 2.111187 1_555
Li5 O13 2.154895 1_654
Li5 O13 2.156779 1_554
Li5 O1 2.168745 1_554
Li5 O5 2.241021 1_655
Li5 O9 2.316646 1_555
Li6 O6 2.078772 1_456
Li6 O6 2.099249 1_556
Li6 O2 2.125774 1_555
Li6 O14 2.182129 1_555
Li6 O10 2.192013 1_556
Li6 O14 2.194753 1_455
Li7 O11 2.098237 1_556
Li7 O15 2.108394 1_655
Li7 O3 2.111042 1_555
Li7 O7 2.117644 1_555
Li7 O7 2.130442 1_655
Li7 O15 2.181199 1_555
Li8 O1 2.056352 1_555
Li8 O12 2.068392 1_456
Li8 O5 2.076740 1_556
Li8 O1 2.128590 1_455
Li8 O8 2.137362 1_555
Li8 O12 2.150737 1_556
Mn0 O4 1.922887 1_566
Mn0 O0 1.948423 1_665
Mn0 O0 1.950904 1_565
Mn0 O11 1.957230 1_556
Mn0 O15 1.958212 1_655
Mn0 O11 1.966163 1_656
Mn1 O1 1.911084 1_555
Mn1 O12 1.928651 1_555
Mn1 O5 1.955156 1_655
Mn1 O5 1.961033 1_555
Mn1 O8 1.974241 1_555
Mn1 O8 1.986033 1_655
Co0 O13 1.933036 1_555
Co0 O2 1.951687 1_655
Co0 O9 2.071799 1_555
Co0 O13 2.072809 1_655
Co0 O2 2.083020 1_555
Co0 O6 2.105819 1_556
Co1 O14 1.930343 1_455
Co1 O3 1.956900 1_555
Co1 O14 2.051127 1_555
Co1 O10 2.082380 1_555
Co1 O3 2.085140 1_455
Co1 O7 2.105795 1_555
Co2 O4 1.973038 1_555
Co2 O15 1.998918 1_545
Co2 O4 2.022402 1_455
Co2 O15 2.057023 1_645
Co2 O0 2.148237 1_555
Co2 O11 2.183067 1_545
Co3 O9 1.917763 1_455
Co3 O6 1.950849 1_555
Co3 O9 2.053002 1_555
Co3 O13 2.085286 1_554
Co3 O6 2.087287 1_455
Co3 O2 2.111428 1_555
Co4 O10 1.925610 1_555
Co4 O7 1.942196 1_654
Co4 O10 2.067764 1_655
Co4 O14 2.078441 1_554
Co4 O7 2.082469 1_554
Co4 O3 2.116556 1_555
