# generated using pymatgen
data_SrMg149
_symmetry_space_group_name_H-M   'P 1'
_cell_length_a   16.04145013
_cell_length_b   16.04145449
_cell_length_c   15.69812296
_cell_angle_alpha   90.00000000
_cell_angle_beta   90.00000000
_cell_angle_gamma   120.00001290
_symmetry_Int_Tables_number   1
_chemical_formula_structural   SrMg149
_chemical_formula_sum   'Sr1 Mg149'
_cell_volume   3498.36944126
_cell_formula_units_Z   1
loop_
 _symmetry_equiv_pos_site_id
 _symmetry_equiv_pos_as_xyz
  1  'x, y, z'
loop_
 _atom_site_type_symbol
 _atom_site_label
 _atom_site_symmetry_multiplicity
 _atom_site_fract_x
 _atom_site_fract_y
 _atom_site_fract_z
 _atom_site_occupancy
  Sr  Sr0  1  -0.00000000  -0.00000000  0.00000000  1
  Mg  Mg0  1  0.60026142  0.20052384  0.00000000  1
  Mg  Mg1  1  0.40174563  0.20087232  0.00000000  1
  Mg  Mg2  1  0.79912768  0.20087332  0.00000000  1
  Mg  Mg3  1  0.00334816  0.21000550  0.00000000  1
  Mg  Mg4  1  0.20665834  0.21000550  0.00000000  1
  Mg  Mg5  1  0.60026142  0.39973758  0.00000000  1
  Mg  Mg6  1  0.79947616  0.39973858  0.00000000  1
  Mg  Mg7  1  0.00033005  0.40196858  0.00000000  1
  Mg  Mg8  1  0.40163953  0.40196958  0.00000000  1
  Mg  Mg9  1  0.20209474  0.40418947  0.00000000  1
  Mg  Mg10  1  0.79912768  0.59825437  0.00000000  1
  Mg  Mg11  1  0.59803042  0.59836047  0.00000000  1
  Mg  Mg12  1  0.00033005  0.59836047  0.00000000  1
  Mg  Mg13  1  0.20086332  0.60043166  0.00000000  1
  Mg  Mg14  1  0.39956934  0.60043166  0.00000000  1
  Mg  Mg15  1  0.78999450  0.79334166  0.00000000  1
  Mg  Mg16  1  0.00334816  0.79334266  0.00000000  1
  Mg  Mg17  1  0.59581053  0.79790526  0.00000000  1
  Mg  Mg18  1  0.20209474  0.79790526  0.00000000  1
  Mg  Mg19  1  0.39956934  0.79913768  0.00000000  1
  Mg  Mg20  1  0.78999450  0.99665184  0.00000000  1
  Mg  Mg21  1  0.20665834  0.99665184  0.00000000  1
  Mg  Mg22  1  0.40163953  0.99966995  0.00000000  1
  Mg  Mg23  1  0.59803042  0.99966995  0.00000000  1
  Mg  Mg24  1  0.26303627  0.13151863  0.16461981  1
  Mg  Mg25  1  0.86848237  0.13151863  0.16461981  1
  Mg  Mg26  1  0.86848237  0.73696373  0.16461981  1
  Mg  Mg27  1  0.66666700  0.33333300  0.16622584  1
  Mg  Mg28  1  0.66739831  0.13298686  0.16660333  1
  Mg  Mg29  1  0.46558855  0.13298686  0.16660333  1
  Mg  Mg30  1  0.46558855  0.33260169  0.16660333  1
  Mg  Mg31  1  0.86701314  0.33260269  0.16660333  1
  Mg  Mg32  1  0.66739831  0.53441145  0.16660333  1
  Mg  Mg33  1  0.86701314  0.53441145  0.16660333  1
  Mg  Mg34  1  0.26715201  0.53430403  0.16740548  1
  Mg  Mg35  1  0.46569597  0.73284799  0.16740548  1
  Mg  Mg36  1  0.26715201  0.73284799  0.16740548  1
  Mg  Mg37  1  0.06679109  0.53339505  0.16754814  1
  Mg  Mg38  1  0.46660395  0.53339505  0.16754814  1
  Mg  Mg39  1  0.46660395  0.93320791  0.16754814  1
  Mg  Mg40  1  0.26830833  0.33633154  0.16811866  1
  Mg  Mg41  1  0.06802321  0.33633154  0.16811866  1
  Mg  Mg42  1  0.06802321  0.73169167  0.16811866  1
  Mg  Mg43  1  0.66366846  0.73169167  0.16811866  1
  Mg  Mg44  1  0.26830833  0.93197679  0.16811866  1
  Mg  Mg45  1  0.66366846  0.93197679  0.16811866  1
  Mg  Mg46  1  0.06961919  0.13923838  0.17357913  1
  Mg  Mg47  1  0.86076162  0.93038081  0.17357913  1
  Mg  Mg48  1  0.06961919  0.93038081  0.17357913  1
  Mg  Mg49  1  0.39988722  0.19994361  0.33278382  1
  Mg  Mg50  1  0.80005639  0.19994361  0.33278382  1
  Mg  Mg51  1  0.80005639  0.60011278  0.33278382  1
  Mg  Mg52  1  0.60006507  0.20012914  0.33300676  1
  Mg  Mg53  1  0.79987086  0.39993593  0.33300676  1
  Mg  Mg54  1  0.60006507  0.39993593  0.33300676  1
  Mg  Mg55  1  0.19989638  0.59994819  0.33381573  1
  Mg  Mg56  1  0.40005181  0.59994819  0.33381573  1
  Mg  Mg57  1  0.40005181  0.80010362  0.33381573  1
  Mg  Mg58  1  0.59952321  0.00020130  0.33391385  1
  Mg  Mg59  1  0.40067809  0.00020130  0.33391385  1
  Mg  Mg60  1  0.99979870  0.40047679  0.33391385  1
  Mg  Mg61  1  0.40067809  0.40047679  0.33391385  1
  Mg  Mg62  1  0.99979870  0.59932191  0.33391385  1
  Mg  Mg63  1  0.59952321  0.59932191  0.33391385  1
  Mg  Mg64  1  0.20019984  0.40039968  0.33409693  1
  Mg  Mg65  1  0.59960032  0.79980016  0.33409693  1
  Mg  Mg66  1  0.20019984  0.79980016  0.33409693  1
  Mg  Mg67  1  -0.00000000  -0.00000000  0.33448051  1
  Mg  Mg68  1  0.79898686  0.00039166  0.33467076  1
  Mg  Mg69  1  0.20140480  0.00039266  0.33467076  1
  Mg  Mg70  1  0.20140480  0.20101214  0.33467076  1
  Mg  Mg71  1  0.99960834  0.20101314  0.33467076  1
  Mg  Mg72  1  0.99960834  0.79859520  0.33467076  1
  Mg  Mg73  1  0.79898686  0.79859520  0.33467076  1
  Mg  Mg74  1  0.06680776  0.13361451  0.50000000  1
  Mg  Mg75  1  0.86632865  0.13367135  0.50000000  1
  Mg  Mg76  1  0.26734271  0.13367135  0.50000000  1
  Mg  Mg77  1  0.66709350  0.13408646  0.50000000  1
  Mg  Mg78  1  0.46699297  0.13408646  0.50000000  1
  Mg  Mg79  1  0.46699297  0.33290550  0.50000000  1
  Mg  Mg80  1  0.86591354  0.33290650  0.50000000  1
  Mg  Mg81  1  0.66666700  0.33333300  0.50000000  1
  Mg  Mg82  1  0.06707081  0.33394342  0.50000000  1
  Mg  Mg83  1  0.26687361  0.33394342  0.50000000  1
  Mg  Mg84  1  0.66709350  0.53300703  0.50000000  1
  Mg  Mg85  1  0.86591354  0.53300703  0.50000000  1
  Mg  Mg86  1  0.06654887  0.53327444  0.50000000  1
  Mg  Mg87  1  0.46672556  0.53327444  0.50000000  1
  Mg  Mg88  1  0.26687516  0.53375032  0.50000000  1
  Mg  Mg89  1  0.86632865  0.73265729  0.50000000  1
  Mg  Mg90  1  0.66605558  0.73312639  0.50000000  1
  Mg  Mg91  1  0.06707081  0.73312639  0.50000000  1
  Mg  Mg92  1  0.46624968  0.73312484  0.50000000  1
  Mg  Mg93  1  0.26687516  0.73312484  0.50000000  1
  Mg  Mg94  1  0.66605558  0.93292919  0.50000000  1
  Mg  Mg95  1  0.26687361  0.93293019  0.50000000  1
  Mg  Mg96  1  0.86638549  0.93319224  0.50000000  1
  Mg  Mg97  1  0.06680776  0.93319224  0.50000000  1
  Mg  Mg98  1  0.46672556  0.93345113  0.50000000  1
  Mg  Mg99  1  0.79898686  0.00039166  0.66532924  1
  Mg  Mg100  1  0.20140480  0.00039266  0.66532924  1
  Mg  Mg101  1  0.20140480  0.20101214  0.66532924  1
  Mg  Mg102  1  0.99960834  0.20101314  0.66532924  1
  Mg  Mg103  1  0.99960834  0.79859520  0.66532924  1
  Mg  Mg104  1  0.79898686  0.79859520  0.66532924  1
  Mg  Mg105  1  -0.00000000  -0.00000000  0.66551949  1
  Mg  Mg106  1  0.20019984  0.40039968  0.66590307  1
  Mg  Mg107  1  0.59960032  0.79980016  0.66590307  1
  Mg  Mg108  1  0.20019984  0.79980016  0.66590307  1
  Mg  Mg109  1  0.59952321  0.00020130  0.66608615  1
  Mg  Mg110  1  0.40067809  0.00020130  0.66608615  1
  Mg  Mg111  1  0.99979870  0.40047679  0.66608615  1
  Mg  Mg112  1  0.40067809  0.40047679  0.66608615  1
  Mg  Mg113  1  0.99979870  0.59932191  0.66608615  1
  Mg  Mg114  1  0.59952321  0.59932191  0.66608615  1
  Mg  Mg115  1  0.19989638  0.59994819  0.66618527  1
  Mg  Mg116  1  0.40005181  0.59994819  0.66618527  1
  Mg  Mg117  1  0.40005181  0.80010362  0.66618527  1
  Mg  Mg118  1  0.60006507  0.20012914  0.66699324  1
  Mg  Mg119  1  0.79987086  0.39993593  0.66699324  1
  Mg  Mg120  1  0.60006507  0.39993593  0.66699324  1
  Mg  Mg121  1  0.39988722  0.19994361  0.66721618  1
  Mg  Mg122  1  0.80005639  0.19994361  0.66721618  1
  Mg  Mg123  1  0.80005639  0.60011278  0.66721618  1
  Mg  Mg124  1  0.06961919  0.13923838  0.82642187  1
  Mg  Mg125  1  0.86076162  0.93038081  0.82642187  1
  Mg  Mg126  1  0.06961919  0.93038081  0.82642187  1
  Mg  Mg127  1  0.26830833  0.33633154  0.83188134  1
  Mg  Mg128  1  0.06802321  0.33633154  0.83188134  1
  Mg  Mg129  1  0.06802321  0.73169167  0.83188134  1
  Mg  Mg130  1  0.66366846  0.73169167  0.83188134  1
  Mg  Mg131  1  0.26830833  0.93197679  0.83188134  1
  Mg  Mg132  1  0.66366846  0.93197679  0.83188134  1
  Mg  Mg133  1  0.06679109  0.53339505  0.83245186  1
  Mg  Mg134  1  0.46660395  0.53339505  0.83245186  1
  Mg  Mg135  1  0.46660395  0.93320791  0.83245186  1
  Mg  Mg136  1  0.26715201  0.53430403  0.83259452  1
  Mg  Mg137  1  0.46569597  0.73284799  0.83259452  1
  Mg  Mg138  1  0.26715201  0.73284799  0.83259452  1
  Mg  Mg139  1  0.66739831  0.13298686  0.83339767  1
  Mg  Mg140  1  0.46558855  0.13298686  0.83339767  1
  Mg  Mg141  1  0.46558855  0.33260169  0.83339767  1
  Mg  Mg142  1  0.86701314  0.33260269  0.83339767  1
  Mg  Mg143  1  0.66739831  0.53441145  0.83339767  1
  Mg  Mg144  1  0.86701314  0.53441145  0.83339767  1
  Mg  Mg145  1  0.66666700  0.33333300  0.83377516  1
  Mg  Mg146  1  0.26303627  0.13151863  0.83538019  1
  Mg  Mg147  1  0.86848237  0.13151863  0.83538019  1
  Mg  Mg148  1  0.86848237  0.73696373  0.83538019  1
loop_
_geom_bond_atom_site_label_1
_geom_bond_atom_site_label_2
_geom_bond_distance
_geom_bond_site_symmetry_2
Mg0 Mg1 3.187280 1_555
Mg0 Mg2 3.187304 1_555
Mg0 Mg5 3.195678 1_555
Mg0 Mg6 3.195693 1_555
Mg0 Mg145 3.195807 1_554
Mg0 Mg27 3.195820 1_555
Mg0 Mg22 3.204235 1_545
Mg0 Mg23 3.204244 1_545
Mg0 Mg140 3.215643 1_554
Mg0 Mg139 3.215652 1_554
Mg0 Mg29 3.215656 1_555
Mg0 Mg28 3.215664 1_555
Mg1 Mg5 3.187288 1_555
Mg1 Mg140 3.192180 1_554
Mg1 Mg141 3.192188 1_554
Mg1 Mg29 3.192193 1_555
Mg1 Mg30 3.192201 1_555
Mg1 Mg21 3.205250 1_545
Mg1 Mg4 3.205250 1_555
Mg1 Mg24 3.223585 1_555
Mg1 Mg146 3.223585 1_554
Mg1 Mg22 3.226728 1_545
Mg1 Mg8 3.226744 1_555
Mg2 Mg6 3.187297 1_555
Mg2 Mg28 3.192201 1_555
Mg2 Mg31 3.192201 1_555
Mg2 Mg3 3.205258 1_655
Mg2 Mg20 3.205267 1_545
Mg2 Mg25 3.223586 1_555
Mg2 Mg7 3.226719 1_655
Mg2 Mg23 3.226743 1_545
Mg3 Mg7 3.103858 1_555
Mg3 Mg9 3.152225 1_555
Mg3 Mg41 3.169475 1_555
Mg3 Mg4 3.261390 1_555
Mg3 Mg46 3.324238 1_555
Mg3 Sr0 3.342263 1_555
Mg4 Mg8 3.103864 1_555
Mg4 Mg9 3.152234 1_555
Mg4 Mg40 3.169475 1_555
Mg4 Mg46 3.324246 1_555
Mg4 Sr0 3.342269 1_555
Mg5 Mg6 3.195685 1_555
Mg5 Mg8 3.204235 1_555
Mg6 Mg7 3.204251 1_655
Mg7 Mg9 3.218933 1_555
Mg8 Mg9 3.218941 1_555
Mg10 Mg6 3.187281 1_555
Mg10 Mg5 3.187304 1_555
Mg10 Mg144 3.192180 1_554
Mg10 Mg143 3.192188 1_554
Mg10 Mg33 3.192193 1_555
Mg10 Mg32 3.192201 1_555
Mg10 Mg15 3.205251 1_555
Mg10 Mg16 3.205257 1_655
Mg10 Mg26 3.223586 1_555
Mg10 Mg148 3.223586 1_554
Mg10 Mg12 3.226727 1_655
Mg10 Mg11 3.226743 1_555
Mg11 Mg15 3.103864 1_555
Mg11 Mg8 3.150394 1_555
Mg11 Mg14 3.200345 1_555
Mg11 Mg134 3.201821 1_554
Mg11 Mg38 3.201821 1_555
Mg11 Mg5 3.204244 1_555
Mg11 Mg143 3.205013 1_554
Mg11 Mg32 3.205026 1_555
Mg11 Mg17 3.218942 1_555
Mg11 Mg130 3.224330 1_554
Mg11 Mg43 3.224330 1_555
Mg12 Mg16 3.103874 1_555
Mg12 Mg7 3.150412 1_555
Mg12 Mg13 3.200361 1_555
Mg12 Mg133 3.201821 1_554
Mg12 Mg37 3.201821 1_555
Mg12 Mg6 3.204235 1_455
Mg12 Mg144 3.205013 1_454
Mg12 Mg33 3.205026 1_455
Mg12 Mg18 3.218941 1_555
Mg12 Mg129 3.224330 1_554
Mg12 Mg42 3.224330 1_555
Mg13 Mg18 3.157933 1_555
Mg13 Mg9 3.157933 1_555
Mg13 Mg19 3.187533 1_555
Mg13 Mg14 3.187533 1_555
Mg13 Mg7 3.200369 1_555
Mg13 Mg34 3.207825 1_555
Mg13 Mg136 3.207825 1_554
Mg13 Mg138 3.207825 1_554
Mg13 Mg36 3.207825 1_555
Mg13 Mg133 3.222899 1_554
Mg13 Mg37 3.222899 1_555
Mg14 Mg17 3.157924 1_555
Mg14 Mg9 3.157940 1_555
Mg14 Mg19 3.187534 1_555
Mg14 Mg8 3.200354 1_555
Mg14 Mg35 3.207825 1_555
Mg14 Mg34 3.207833 1_555
Mg14 Mg38 3.222892 1_555
Mg15 Mg17 3.152233 1_555
Mg15 Mg43 3.169475 1_555
Mg15 Mg26 3.196876 1_555
Mg15 Mg20 3.261391 1_555
Mg15 Mg47 3.324246 1_555
Mg15 Sr0 3.342269 1_665
Mg15 Mg16 3.422494 1_655
Mg16 Mg18 3.152225 1_555
Mg16 Mg42 3.169475 1_555
Mg16 Mg26 3.196875 1_455
Mg16 Mg21 3.261382 1_555
Mg16 Mg48 3.324238 1_555
Mg16 Sr0 3.342263 1_565
Mg17 Mg20 3.152225 1_555
Mg17 Mg19 3.157925 1_555
Mg17 Mg35 3.189595 1_555
Mg17 Mg23 3.218942 1_555
Mg17 Mg43 3.230234 1_555
Mg17 Mg45 3.230234 1_555
Mg18 Mg21 3.152218 1_555
Mg18 Mg19 3.157940 1_555
Mg18 Mg36 3.189595 1_555
Mg18 Mg22 3.218941 1_555
Mg18 Mg42 3.230234 1_555
Mg18 Mg44 3.230234 1_555
Mg19 Mg23 3.200345 1_555
Mg19 Mg22 3.200354 1_555
Mg19 Mg35 3.207825 1_555
Mg19 Mg36 3.207833 1_555
Mg19 Mg39 3.222884 1_555
Mg20 Mg23 3.103873 1_555
Mg20 Mg45 3.169475 1_555
Mg20 Mg25 3.196884 1_565
Mg20 Mg47 3.324238 1_555
Mg20 Sr0 3.342262 1_665
Mg20 Mg3 3.422502 1_665
Mg21 Mg22 3.103857 1_555
Mg21 Mg44 3.169467 1_555
Mg21 Mg24 3.196885 1_565
Mg21 Mg48 3.324246 1_555
Mg21 Sr0 3.342278 1_565
Mg21 Mg4 3.422503 1_565
Mg22 Mg23 3.150395 1_555
Mg22 Mg39 3.201821 1_555
Mg22 Mg29 3.205026 1_565
Mg22 Mg44 3.224330 1_555
Mg23 Mg39 3.201821 1_555
Mg23 Mg28 3.205026 1_565
Mg23 Mg45 3.224330 1_555
Mg24 Mg46 3.169547 1_555
Mg24 Mg48 3.169555 1_545
Mg24 Mg4 3.196868 1_555
Mg24 Mg70 3.232404 1_555
Mg24 Mg69 3.232412 1_555
Mg24 Mg30 3.237662 1_555
Mg24 Mg29 3.237670 1_555
Mg24 Mg40 3.244503 1_555
Mg24 Mg44 3.244519 1_545
Mg24 Mg49 3.253202 1_555
Mg25 Mg46 3.169547 1_655
Mg25 Mg47 3.169556 1_545
Mg25 Mg3 3.196875 1_655
Mg25 Mg71 3.232411 1_555
Mg25 Mg68 3.232420 1_555
Mg25 Mg28 3.237670 1_555
Mg25 Mg31 3.237679 1_555
Mg25 Mg41 3.244502 1_655
Mg25 Mg45 3.244518 1_545
Mg25 Mg50 3.253202 1_555
Mg26 Mg48 3.169547 1_655
Mg26 Mg47 3.169556 1_555
Mg26 Mg72 3.232411 1_555
Mg26 Mg73 3.232420 1_555
Mg26 Mg33 3.237663 1_555
Mg26 Mg32 3.237670 1_555
Mg26 Mg42 3.244502 1_655
Mg26 Mg43 3.244518 1_555
Mg26 Mg51 3.253202 1_555
Mg27 Mg6 3.195819 1_555
Mg27 Mg5 3.195828 1_555
Mg27 Mg53 3.206100 1_555
Mg27 Mg52 3.206100 1_555
Mg27 Mg54 3.206108 1_555
Mg27 Mg31 3.219722 1_555
Mg27 Mg28 3.219731 1_555
Mg27 Mg29 3.219738 1_555
Mg27 Mg33 3.219738 1_555
Mg27 Mg30 3.219746 1_555
Mg27 Mg32 3.219747 1_555
Mg28 Mg50 3.194042 1_555
Mg28 Mg45 3.195087 1_545
Mg28 Mg31 3.202119 1_555
Mg28 Mg58 3.209637 1_555
Mg28 Mg52 3.211508 1_555
Mg28 Mg39 3.212953 1_545
Mg28 Mg29 3.237321 1_555
Mg29 Mg49 3.194043 1_555
Mg29 Mg44 3.195085 1_545
Mg29 Mg30 3.202112 1_555
Mg29 Mg59 3.209637 1_555
Mg29 Mg52 3.211515 1_555
Mg29 Mg39 3.212954 1_545
Mg30 Mg49 3.194043 1_555
Mg30 Mg40 3.195086 1_555
Mg30 Mg8 3.205026 1_555
Mg30 Mg61 3.209637 1_555
Mg30 Mg54 3.211515 1_555
Mg30 Mg38 3.212938 1_555
Mg30 Mg5 3.215656 1_555
Mg30 Mg32 3.237321 1_555
Mg31 Mg50 3.194051 1_555
Mg31 Mg41 3.195093 1_655
Mg31 Mg7 3.205025 1_655
Mg31 Mg60 3.209637 1_555
Mg31 Mg53 3.211508 1_555
Mg31 Mg37 3.212929 1_655
Mg31 Mg6 3.215656 1_555
Mg31 Mg33 3.237306 1_555
Mg32 Mg51 3.194042 1_555
Mg32 Mg43 3.195087 1_555
Mg32 Mg33 3.202111 1_555
Mg32 Mg63 3.209637 1_555
Mg32 Mg54 3.211508 1_555
Mg32 Mg38 3.212946 1_555
Mg32 Mg5 3.215664 1_555
Mg33 Mg51 3.194043 1_555
Mg33 Mg42 3.195085 1_655
Mg33 Mg62 3.209637 1_555
Mg33 Mg53 3.211508 1_555
Mg33 Mg37 3.212946 1_655
Mg33 Mg6 3.215656 1_555
Mg34 Mg35 3.184933 1_555
Mg34 Mg36 3.184934 1_555
Mg34 Mg41 3.185100 1_555
Mg34 Mg40 3.185101 1_555
Mg34 Mg9 3.189595 1_555
Mg34 Mg56 3.198936 1_555
Mg34 Mg55 3.198936 1_555
Mg34 Mg37 3.206815 1_555
Mg34 Mg38 3.206815 1_555
Mg34 Mg64 3.210582 1_555
Mg35 Mg36 3.184933 1_555
Mg35 Mg45 3.185100 1_555
Mg35 Mg43 3.185101 1_555
Mg35 Mg57 3.198936 1_555
Mg35 Mg56 3.198936 1_555
Mg35 Mg39 3.206807 1_555
Mg35 Mg38 3.206824 1_555
Mg35 Mg65 3.210582 1_555
Mg36 Mg42 3.185100 1_555
Mg36 Mg44 3.185101 1_555
Mg36 Mg57 3.198936 1_555
Mg36 Mg55 3.198936 1_555
Mg36 Mg39 3.206806 1_555
Mg36 Mg37 3.206822 1_555
Mg36 Mg66 3.210582 1_555
Mg37 Mg41 3.171127 1_555
Mg37 Mg42 3.171143 1_555
Mg37 Mg60 3.198499 1_455
Mg37 Mg62 3.198507 1_455
Mg37 Mg55 3.198731 1_555
Mg37 Mg7 3.201821 1_555
Mg38 Mg40 3.171126 1_555
Mg38 Mg43 3.171142 1_555
Mg38 Mg61 3.198499 1_555
Mg38 Mg63 3.198507 1_555
Mg38 Mg56 3.198731 1_555
Mg38 Mg8 3.201813 1_555
Mg39 Mg44 3.171134 1_555
Mg39 Mg45 3.171134 1_555
Mg39 Mg58 3.198507 1_565
Mg39 Mg59 3.198507 1_565
Mg39 Mg57 3.198723 1_555
Mg40 Mg46 3.175695 1_555
Mg40 Mg61 3.186943 1_555
Mg40 Mg64 3.187742 1_555
Mg40 Mg41 3.212864 1_555
Mg40 Mg70 3.220259 1_555
Mg40 Mg8 3.224330 1_555
Mg40 Mg9 3.230234 1_555
Mg41 Mg46 3.175696 1_555
Mg41 Mg60 3.186944 1_455
Mg41 Mg64 3.187741 1_555
Mg41 Mg71 3.220250 1_455
Mg41 Mg7 3.224322 1_555
Mg41 Mg9 3.230234 1_555
Mg42 Mg48 3.175696 1_555
Mg42 Mg62 3.186944 1_455
Mg42 Mg66 3.187741 1_555
Mg42 Mg44 3.212864 1_555
Mg42 Mg72 3.220250 1_455
Mg43 Mg47 3.175695 1_555
Mg43 Mg63 3.186944 1_555
Mg43 Mg65 3.187742 1_555
Mg43 Mg45 3.212865 1_555
Mg43 Mg73 3.220250 1_555
Mg44 Mg48 3.175696 1_555
Mg44 Mg59 3.186943 1_565
Mg44 Mg66 3.187742 1_555
Mg44 Mg69 3.220259 1_565
Mg45 Mg47 3.175696 1_555
Mg45 Mg58 3.186944 1_565
Mg45 Mg65 3.187742 1_555
Mg45 Mg68 3.220250 1_565
Mg46 Mg70 3.122695 1_555
Mg46 Mg71 3.122695 1_455
Mg46 Mg67 3.181446 1_555
Mg46 Sr0 3.341643 1_555
Mg46 Mg47 3.350378 1_445
Mg46 Mg48 3.350379 1_545
Mg47 Mg73 3.122695 1_555
Mg47 Mg68 3.122696 1_565
Mg47 Mg67 3.181445 1_665
Mg47 Sr0 3.341643 1_665
Mg47 Mg48 3.350378 1_655
Mg48 Mg72 3.122695 1_455
Mg48 Mg69 3.122695 1_565
Mg48 Mg67 3.181446 1_565
Mg48 Sr0 3.341643 1_565
Mg49 Mg69 3.192688 1_555
Mg49 Mg70 3.192688 1_555
Mg49 Mg76 3.206413 1_555
Mg49 Mg54 3.209658 1_555
Mg49 Mg52 3.209658 1_555
Mg49 Mg79 3.209762 1_555
Mg49 Mg78 3.209770 1_555
Mg49 Mg61 3.210568 1_555
Mg49 Mg59 3.210568 1_555
Mg50 Mg71 3.192696 1_555
Mg50 Mg68 3.192697 1_555
Mg50 Mg75 3.206413 1_555
Mg50 Mg52 3.209642 1_555
Mg50 Mg53 3.209659 1_555
Mg50 Mg77 3.209770 1_555
Mg50 Mg80 3.209770 1_555
Mg50 Mg58 3.210567 1_555
Mg50 Mg60 3.210567 1_555
Mg51 Mg72 3.192696 1_555
Mg51 Mg73 3.192697 1_555
Mg51 Mg89 3.206413 1_555
Mg51 Mg54 3.209642 1_555
Mg51 Mg53 3.209643 1_555
Mg51 Mg84 3.209770 1_555
Mg51 Mg85 3.209770 1_555
Mg51 Mg63 3.210567 1_555
Mg51 Mg62 3.210567 1_555
Mg52 Mg58 3.202828 1_555
Mg52 Mg59 3.202835 1_555
Mg52 Mg53 3.205182 1_555
Mg52 Mg54 3.205192 1_555
Mg52 Mg77 3.207769 1_555
Mg52 Mg78 3.207777 1_555
Mg52 Mg81 3.208823 1_555
Mg53 Mg62 3.202827 1_555
Mg53 Mg60 3.202835 1_555
Mg53 Mg54 3.205175 1_555
Mg53 Mg85 3.207769 1_555
Mg53 Mg80 3.207777 1_555
Mg53 Mg81 3.208822 1_555
Mg54 Mg63 3.202828 1_555
Mg54 Mg61 3.202835 1_555
Mg54 Mg84 3.207769 1_555
Mg54 Mg79 3.207777 1_555
Mg54 Mg81 3.208831 1_555
Mg55 Mg93 3.198244 1_555
Mg55 Mg88 3.198244 1_555
Mg55 Mg86 3.199611 1_555
Mg55 Mg66 3.203488 1_555
Mg55 Mg64 3.203488 1_555
Mg55 Mg60 3.204846 1_455
Mg55 Mg62 3.204846 1_455
Mg55 Mg57 3.210783 1_555
Mg55 Mg56 3.210783 1_555
Mg56 Mg88 3.198243 1_555
Mg56 Mg92 3.198244 1_555
Mg56 Mg87 3.199611 1_555
Mg56 Mg64 3.203487 1_555
Mg56 Mg65 3.203487 1_555
Mg56 Mg63 3.204846 1_555
Mg56 Mg61 3.204847 1_555
Mg56 Mg57 3.210784 1_555
Mg57 Mg93 3.198243 1_555
Mg57 Mg92 3.198244 1_555
Mg57 Mg98 3.199611 1_555
Mg57 Mg66 3.203487 1_555
Mg57 Mg65 3.203487 1_555
Mg57 Mg58 3.204846 1_565
Mg57 Mg59 3.204847 1_565
Mg58 Mg59 3.189764 1_555
Mg58 Mg98 3.193942 1_545
Mg58 Mg68 3.198183 1_555
Mg58 Mg94 3.202042 1_545
Mg58 Mg77 3.202703 1_555
Mg58 Mg65 3.215346 1_545
Mg59 Mg98 3.193942 1_545
Mg59 Mg69 3.198191 1_555
Mg59 Mg95 3.202042 1_545
Mg59 Mg78 3.202703 1_555
Mg59 Mg66 3.215345 1_545
Mg60 Mg62 3.189765 1_555
Mg60 Mg86 3.193942 1_655
Mg60 Mg71 3.198183 1_555
Mg60 Mg82 3.202050 1_655
Mg60 Mg80 3.202703 1_555
Mg60 Mg64 3.215345 1_655
Mg61 Mg63 3.189764 1_555
Mg61 Mg87 3.193942 1_555
Mg61 Mg70 3.198190 1_555
Mg61 Mg83 3.202042 1_555
Mg61 Mg79 3.202711 1_555
Mg61 Mg64 3.215345 1_555
Mg62 Mg86 3.193942 1_655
Mg62 Mg72 3.198183 1_555
Mg62 Mg91 3.202042 1_655
Mg62 Mg85 3.202703 1_555
Mg62 Mg66 3.215345 1_655
Mg63 Mg87 3.193942 1_555
Mg63 Mg73 3.198182 1_555
Mg63 Mg90 3.202042 1_555
Mg63 Mg84 3.202703 1_555
Mg63 Mg65 3.215346 1_555
Mg64 Mg82 3.194255 1_555
Mg64 Mg83 3.194263 1_555
Mg64 Mg88 3.196038 1_555
Mg64 Mg71 3.208170 1_455
Mg64 Mg70 3.208187 1_555
Mg65 Mg94 3.194255 1_555
Mg65 Mg90 3.194255 1_555
Mg65 Mg92 3.196038 1_555
Mg65 Mg68 3.208170 1_565
Mg65 Mg73 3.208170 1_555
Mg66 Mg91 3.194255 1_555
Mg66 Mg95 3.194263 1_555
Mg66 Mg93 3.196038 1_555
Mg66 Mg72 3.208170 1_455
Mg66 Mg69 3.208187 1_565
Mg67 Mg96 3.193262 1_445
Mg67 Mg74 3.193263 1_555
Mg67 Mg97 3.193271 1_545
Mg67 Mg70 3.227681 1_555
Mg67 Mg69 3.227682 1_555
Mg67 Mg73 3.227689 1_445
Mg67 Mg68 3.227690 1_455
Mg67 Mg72 3.227691 1_445
Mg67 Mg71 3.227691 1_455
Mg68 Mg94 3.185361 1_545
Mg68 Mg75 3.188149 1_555
Mg68 Mg96 3.198801 1_545
Mg68 Mg71 3.218259 1_555
Mg68 Mg73 3.237109 1_545
Mg69 Mg95 3.185361 1_545
Mg69 Mg76 3.188141 1_555
Mg69 Mg97 3.198793 1_545
Mg69 Mg70 3.218228 1_555
Mg69 Mg72 3.237116 1_445
Mg70 Mg83 3.185361 1_555
Mg70 Mg76 3.188141 1_555
Mg70 Mg74 3.198793 1_555
Mg70 Mg71 3.237116 1_455
Mg71 Mg82 3.185353 1_655
Mg71 Mg75 3.188149 1_555
Mg71 Mg74 3.198801 1_655
Mg72 Mg91 3.185361 1_655
Mg72 Mg89 3.188149 1_555
Mg72 Mg97 3.198793 1_655
Mg72 Mg73 3.218259 1_555
Mg73 Mg90 3.185361 1_555
Mg73 Mg89 3.188149 1_555
Mg73 Mg96 3.198793 1_555
Mg74 Mg83 3.211458 1_555
Mg74 Mg82 3.211459 1_555
Mg74 Mg96 3.215064 1_445
Mg74 Mg97 3.215065 1_545
Mg74 Mg76 3.216416 1_555
Mg74 Mg75 3.216432 1_455
Mg75 Mg99 3.188149 1_555
Mg75 Mg77 3.199355 1_555
Mg75 Mg80 3.199356 1_555
Mg75 Mg82 3.216431 1_655
Mg75 Mg96 3.216433 1_545
Mg75 Mg94 3.216439 1_545
Mg76 Mg79 3.199347 1_555
Mg76 Mg78 3.199355 1_555
Mg76 Mg97 3.216423 1_545
Mg76 Mg95 3.216424 1_545
Mg76 Mg83 3.216424 1_555
Mg77 Mg80 3.189362 1_555
Mg77 Mg81 3.199631 1_555
Mg77 Mg78 3.209903 1_555
Mg77 Mg98 3.216339 1_545
Mg77 Mg94 3.218563 1_545
Mg78 Mg79 3.189347 1_555
Mg78 Mg81 3.199638 1_555
Mg78 Mg98 3.216340 1_545
Mg78 Mg95 3.218554 1_545
Mg79 Mg81 3.199638 1_555
Mg79 Mg84 3.209911 1_555
Mg79 Mg87 3.216356 1_555
Mg79 Mg83 3.218562 1_555
Mg80 Mg81 3.199630 1_555
Mg80 Mg85 3.209904 1_555
Mg80 Mg86 3.216339 1_655
Mg80 Mg82 3.218570 1_655
Mg81 Mg85 3.199638 1_555
Mg81 Mg84 3.199647 1_555
Mg82 Mg86 3.201754 1_555
Mg82 Mg83 3.205127 1_555
Mg82 Mg88 3.205172 1_555
Mg83 Mg87 3.201745 1_555
Mg83 Mg88 3.205181 1_555
Mg84 Mg85 3.189362 1_555
Mg84 Mg89 3.199355 1_555
Mg84 Mg87 3.216339 1_555
Mg84 Mg90 3.218563 1_555
Mg85 Mg89 3.199356 1_555
Mg85 Mg86 3.216339 1_655
Mg85 Mg91 3.218562 1_655
Mg86 Mg91 3.201738 1_555
Mg86 Mg93 3.209714 1_555
Mg86 Mg88 3.209714 1_555
Mg87 Mg90 3.201737 1_555
Mg87 Mg88 3.209714 1_555
Mg87 Mg92 3.209715 1_555
Mg88 Mg92 3.198256 1_555
Mg88 Mg93 3.198257 1_555
Mg89 Mg96 3.216416 1_555
Mg89 Mg97 3.216423 1_655
Mg89 Mg91 3.216439 1_655
Mg89 Mg90 3.216440 1_555
Mg90 Mg94 3.205128 1_555
Mg90 Mg92 3.205164 1_555
Mg90 Mg96 3.211466 1_555
Mg91 Mg95 3.205134 1_555
Mg91 Mg93 3.205164 1_555
Mg91 Mg97 3.211459 1_555
Mg92 Mg93 3.198256 1_555
Mg92 Mg94 3.205164 1_555
Mg92 Mg98 3.209715 1_555
Mg93 Mg95 3.205181 1_555
Mg93 Mg98 3.209714 1_555
Mg94 Mg99 3.185361 1_565
Mg94 Mg98 3.201737 1_555
Mg94 Mg96 3.211474 1_555
Mg95 Mg98 3.201745 1_555
Mg95 Mg97 3.211450 1_555
Mg96 Mg99 3.198801 1_565
Mg96 Mg97 3.215064 1_655
Mg100 Mg126 3.122708 1_545
Mg100 Mg95 3.185361 1_545
Mg100 Mg76 3.188141 1_555
Mg100 Mg121 3.192688 1_555
Mg100 Mg110 3.198191 1_555
Mg100 Mg97 3.198793 1_545
Mg100 Mg108 3.208187 1_545
Mg100 Mg101 3.218228 1_555
Mg100 Mg131 3.220259 1_545
Mg100 Mg105 3.227682 1_555
Mg100 Mg146 3.232412 1_555
Mg100 Mg103 3.237116 1_445
Mg101 Mg124 3.122708 1_555
Mg101 Mg83 3.185361 1_555
Mg101 Mg76 3.188141 1_555
Mg101 Mg121 3.192688 1_555
Mg101 Mg112 3.198190 1_555
Mg101 Mg74 3.198793 1_555
Mg101 Mg106 3.208187 1_555
Mg101 Mg127 3.220259 1_555
Mg101 Mg105 3.227681 1_555
Mg101 Mg146 3.232404 1_555
Mg101 Mg102 3.237116 1_455
Mg102 Mg124 3.122708 1_655
Mg102 Mg82 3.185353 1_655
Mg102 Mg75 3.188149 1_555
Mg102 Mg122 3.192696 1_555
Mg102 Mg111 3.198183 1_555
Mg102 Mg74 3.198801 1_655
Mg102 Mg106 3.208170 1_655
Mg102 Mg99 3.218259 1_555
Mg102 Mg128 3.220250 1_655
Mg102 Mg105 3.227691 1_655
Mg102 Mg147 3.232411 1_555
Mg103 Mg126 3.122708 1_655
Mg103 Mg91 3.185361 1_655
Mg103 Mg89 3.188149 1_555
Mg103 Mg123 3.192696 1_555
Mg103 Mg113 3.198183 1_555
Mg103 Mg97 3.198793 1_655
Mg103 Mg108 3.208170 1_655
Mg103 Mg104 3.218259 1_555
Mg103 Mg129 3.220250 1_655
Mg103 Mg105 3.227691 1_665
Mg103 Mg148 3.232411 1_555
Mg104 Mg125 3.122708 1_555
Mg104 Mg90 3.185361 1_555
Mg104 Mg89 3.188149 1_555
Mg104 Mg123 3.192697 1_555
Mg104 Mg114 3.198182 1_555
Mg104 Mg96 3.198793 1_555
Mg104 Mg107 3.208170 1_555
Mg104 Mg130 3.220250 1_555
Mg104 Mg105 3.227689 1_665
Mg104 Mg148 3.232420 1_555
Mg104 Mg99 3.237109 1_565
Mg105 Mg125 3.181458 1_445
Mg105 Mg124 3.181458 1_555
Mg105 Mg126 3.181458 1_545
Mg105 Mg96 3.193262 1_445
Mg105 Mg74 3.193263 1_555
Mg105 Mg97 3.193271 1_545
Mg105 Mg99 3.227690 1_455
Mg106 Mg128 3.187741 1_555
Mg106 Mg127 3.187742 1_555
Mg106 Mg82 3.194255 1_555
Mg106 Mg83 3.194263 1_555
Mg106 Mg88 3.196038 1_555
Mg106 Mg116 3.203487 1_555
Mg106 Mg115 3.203488 1_555
Mg106 Mg136 3.210582 1_555
Mg106 Mg112 3.215345 1_555
Mg106 Mg111 3.215345 1_455
Mg107 Mg132 3.187742 1_555
Mg107 Mg130 3.187742 1_555
Mg107 Mg94 3.194255 1_555
Mg107 Mg90 3.194255 1_555
Mg107 Mg92 3.196038 1_555
Mg107 Mg116 3.203487 1_555
Mg107 Mg117 3.203487 1_555
Mg107 Mg99 3.208170 1_565
Mg107 Mg137 3.210582 1_555
Mg107 Mg114 3.215346 1_555
Mg107 Mg109 3.215346 1_565
Mg108 Mg129 3.187741 1_555
Mg108 Mg131 3.187742 1_555
Mg108 Mg91 3.194255 1_555
Mg108 Mg95 3.194263 1_555
Mg108 Mg93 3.196038 1_555
Mg108 Mg117 3.203487 1_555
Mg108 Mg115 3.203488 1_555
Mg108 Mg138 3.210582 1_555
Mg108 Mg110 3.215345 1_565
Mg108 Mg113 3.215345 1_455
Mg109 Mg132 3.186944 1_545
Mg109 Mg110 3.189764 1_555
Mg109 Mg98 3.193942 1_545
Mg109 Mg99 3.198183 1_555
Mg109 Mg135 3.198507 1_545
Mg109 Mg94 3.202042 1_545
Mg109 Mg77 3.202703 1_555
Mg109 Mg118 3.202828 1_555
Mg109 Mg117 3.204846 1_545
Mg109 Mg139 3.209650 1_555
Mg109 Mg122 3.210567 1_555
Mg110 Mg131 3.186943 1_545
Mg110 Mg98 3.193942 1_545
Mg110 Mg135 3.198507 1_545
Mg110 Mg95 3.202042 1_545
Mg110 Mg78 3.202703 1_555
Mg110 Mg118 3.202835 1_555
Mg110 Mg117 3.204847 1_545
Mg110 Mg140 3.209650 1_555
Mg110 Mg121 3.210568 1_555
Mg111 Mg128 3.186944 1_655
Mg111 Mg113 3.189765 1_555
Mg111 Mg86 3.193942 1_655
Mg111 Mg133 3.198499 1_655
Mg111 Mg82 3.202050 1_655
Mg111 Mg80 3.202703 1_555
Mg111 Mg119 3.202835 1_555
Mg111 Mg115 3.204846 1_655
Mg111 Mg142 3.209650 1_555
Mg111 Mg122 3.210567 1_555
Mg112 Mg127 3.186943 1_555
Mg112 Mg114 3.189764 1_555
Mg112 Mg87 3.193942 1_555
Mg112 Mg134 3.198499 1_555
Mg112 Mg83 3.202042 1_555
Mg112 Mg79 3.202711 1_555
Mg112 Mg120 3.202835 1_555
Mg112 Mg116 3.204847 1_555
Mg112 Mg141 3.209650 1_555
Mg112 Mg121 3.210568 1_555
Mg113 Mg129 3.186944 1_655
Mg113 Mg86 3.193942 1_655
Mg113 Mg133 3.198507 1_655
Mg113 Mg91 3.202042 1_655
Mg113 Mg85 3.202703 1_555
Mg113 Mg119 3.202827 1_555
Mg113 Mg115 3.204846 1_655
Mg113 Mg144 3.209650 1_555
Mg113 Mg123 3.210567 1_555
Mg114 Mg130 3.186944 1_555
Mg114 Mg87 3.193942 1_555
Mg114 Mg134 3.198507 1_555
Mg114 Mg90 3.202042 1_555
Mg114 Mg84 3.202703 1_555
Mg114 Mg120 3.202828 1_555
Mg114 Mg116 3.204846 1_555
Mg114 Mg143 3.209650 1_555
Mg114 Mg123 3.210567 1_555
Mg115 Mg93 3.198256 1_555
Mg115 Mg88 3.198256 1_555
Mg115 Mg133 3.198718 1_555
Mg115 Mg136 3.198924 1_555
Mg115 Mg138 3.198924 1_555
Mg115 Mg86 3.199624 1_555
Mg115 Mg117 3.210783 1_555
Mg115 Mg116 3.210783 1_555
Mg116 Mg88 3.198256 1_555
Mg116 Mg92 3.198256 1_555
Mg116 Mg134 3.198718 1_555
Mg116 Mg136 3.198923 1_555
Mg116 Mg137 3.198924 1_555
Mg116 Mg87 3.199624 1_555
Mg116 Mg117 3.210784 1_555
Mg117 Mg93 3.198256 1_555
Mg117 Mg92 3.198256 1_555
Mg117 Mg135 3.198710 1_555
Mg117 Mg138 3.198923 1_555
Mg117 Mg137 3.198924 1_555
Mg117 Mg98 3.199624 1_555
Mg118 Mg119 3.205182 1_555
Mg118 Mg120 3.205192 1_555
Mg118 Mg145 3.206113 1_555
Mg118 Mg77 3.207769 1_555
Mg118 Mg78 3.207777 1_555
Mg118 Mg81 3.208823 1_555
Mg118 Mg122 3.209642 1_555
Mg118 Mg121 3.209658 1_555
Mg118 Mg139 3.211520 1_555
Mg118 Mg140 3.211528 1_555
Mg119 Mg120 3.205175 1_555
Mg119 Mg145 3.206113 1_555
Mg119 Mg85 3.207769 1_555
Mg119 Mg80 3.207777 1_555
Mg119 Mg81 3.208822 1_555
Mg119 Mg123 3.209643 1_555
Mg119 Mg122 3.209659 1_555
Mg119 Mg144 3.211520 1_555
Mg119 Mg142 3.211520 1_555
Mg120 Mg145 3.206121 1_555
Mg120 Mg84 3.207769 1_555
Mg120 Mg79 3.207777 1_555
Mg120 Mg81 3.208831 1_555
Mg120 Mg123 3.209642 1_555
Mg120 Mg121 3.209658 1_555
Mg120 Mg143 3.211520 1_555
Mg120 Mg141 3.211528 1_555
Mg121 Mg141 3.194056 1_555
Mg121 Mg140 3.194056 1_555
Mg121 Mg76 3.206413 1_555
Mg121 Mg79 3.209762 1_555
Mg121 Mg78 3.209770 1_555
Mg121 Mg146 3.253202 1_555
Mg122 Mg99 3.192697 1_555
Mg122 Mg139 3.194055 1_555
Mg122 Mg142 3.194064 1_555
Mg122 Mg75 3.206413 1_555
Mg122 Mg77 3.209770 1_555
Mg122 Mg80 3.209770 1_555
Mg122 Mg147 3.253202 1_555
Mg123 Mg143 3.194055 1_555
Mg123 Mg144 3.194056 1_555
Mg123 Mg89 3.206413 1_555
Mg123 Mg84 3.209770 1_555
Mg123 Mg85 3.209770 1_555
Mg123 Mg148 3.253202 1_555
Mg124 Mg147 3.169546 1_455
Mg124 Mg146 3.169546 1_555
Mg124 Mg127 3.175695 1_555
Mg124 Mg128 3.175696 1_555
Mg124 Mg3 3.324226 1_556
Mg124 Mg4 3.324233 1_556
Mg124 Sr0 3.341630 1_556
Mg124 Mg125 3.350378 1_445
Mg124 Mg126 3.350379 1_545
Mg125 Mg99 3.122708 1_565
Mg125 Mg147 3.169556 1_565
Mg125 Mg148 3.169556 1_555
Mg125 Mg130 3.175695 1_555
Mg125 Mg132 3.175695 1_555
Mg125 Mg20 3.324226 1_556
Mg125 Mg15 3.324233 1_556
Mg125 Sr0 3.341630 1_666
Mg125 Mg126 3.350378 1_655
Mg126 Mg148 3.169546 1_455
Mg126 Mg146 3.169555 1_565
Mg126 Mg131 3.175695 1_555
Mg126 Mg129 3.175696 1_555
Mg126 Mg16 3.324225 1_556
Mg126 Mg21 3.324233 1_556
Mg126 Sr0 3.341630 1_566
Mg127 Mg4 3.169475 1_556
Mg127 Mg134 3.171126 1_555
Mg127 Mg136 3.185101 1_555
Mg127 Mg141 3.195086 1_555
Mg127 Mg128 3.212864 1_555
Mg127 Mg8 3.224330 1_556
Mg127 Mg9 3.230234 1_556
Mg127 Mg146 3.244503 1_555
Mg128 Mg3 3.169475 1_556
Mg128 Mg133 3.171127 1_555
Mg128 Mg136 3.185100 1_555
Mg128 Mg142 3.195094 1_455
Mg128 Mg7 3.224322 1_556
Mg128 Mg9 3.230234 1_556
Mg128 Mg147 3.244502 1_455
Mg129 Mg16 3.169475 1_556
Mg129 Mg133 3.171143 1_555
Mg129 Mg138 3.185100 1_555
Mg129 Mg144 3.195086 1_455
Mg129 Mg131 3.212864 1_555
Mg129 Mg18 3.230234 1_556
Mg129 Mg148 3.244502 1_455
Mg130 Mg15 3.169475 1_556
Mg130 Mg134 3.171142 1_555
Mg130 Mg137 3.185101 1_555
Mg130 Mg143 3.195087 1_555
Mg130 Mg132 3.212865 1_555
Mg130 Mg17 3.230234 1_556
Mg130 Mg148 3.244518 1_555
Mg131 Mg21 3.169467 1_556
Mg131 Mg135 3.171134 1_555
Mg131 Mg138 3.185101 1_555
Mg131 Mg140 3.195086 1_565
Mg131 Mg22 3.224330 1_556
Mg131 Mg18 3.230234 1_556
Mg131 Mg146 3.244519 1_565
Mg132 Mg20 3.169475 1_556
Mg132 Mg135 3.171134 1_555
Mg132 Mg137 3.185100 1_555
Mg132 Mg139 3.195087 1_565
Mg132 Mg99 3.220250 1_565
Mg132 Mg23 3.224330 1_556
Mg132 Mg17 3.230234 1_556
Mg132 Mg147 3.244518 1_565
Mg133 Mg7 3.201821 1_556
Mg133 Mg136 3.206815 1_555
Mg133 Mg138 3.206822 1_555
Mg133 Mg142 3.212929 1_455
Mg133 Mg144 3.212946 1_455
Mg134 Mg8 3.201813 1_556
Mg134 Mg136 3.206815 1_555
Mg134 Mg137 3.206824 1_555
Mg134 Mg141 3.212939 1_555
Mg134 Mg143 3.212946 1_555
Mg134 Mg14 3.222892 1_556
Mg135 Mg23 3.201821 1_556
Mg135 Mg22 3.201821 1_556
Mg135 Mg138 3.206806 1_555
Mg135 Mg137 3.206807 1_555
Mg135 Mg139 3.212953 1_565
Mg135 Mg140 3.212954 1_565
Mg135 Mg19 3.222884 1_556
Mg136 Mg137 3.184933 1_555
Mg136 Mg138 3.184934 1_555
Mg136 Mg9 3.189595 1_556
Mg136 Mg14 3.207833 1_556
Mg137 Mg138 3.184933 1_555
Mg137 Mg17 3.189595 1_556
Mg137 Mg19 3.207825 1_556
Mg137 Mg14 3.207825 1_556
Mg138 Mg18 3.189595 1_556
Mg138 Mg19 3.207833 1_556
Mg139 Mg2 3.192188 1_556
Mg139 Mg142 3.202119 1_555
Mg139 Mg23 3.205013 1_546
Mg139 Mg145 3.219731 1_555
Mg139 Mg140 3.237321 1_555
Mg139 Mg147 3.237670 1_555
Mg140 Mg141 3.202112 1_555
Mg140 Mg22 3.205013 1_546
Mg140 Mg145 3.219738 1_555
Mg140 Mg146 3.237670 1_555
Mg141 Mg8 3.205013 1_556
Mg141 Mg5 3.215643 1_556
Mg141 Mg145 3.219746 1_555
Mg141 Mg143 3.237321 1_555
Mg141 Mg146 3.237662 1_555
Mg142 Mg2 3.192188 1_556
Mg142 Mg7 3.205013 1_656
Mg142 Mg6 3.215644 1_556
Mg142 Mg145 3.219722 1_555
Mg142 Mg144 3.237306 1_555
Mg142 Mg147 3.237679 1_555
Mg143 Mg144 3.202111 1_555
Mg143 Mg5 3.215652 1_556
Mg143 Mg145 3.219747 1_555
Mg143 Mg148 3.237670 1_555
Mg144 Mg6 3.215643 1_556
Mg144 Mg145 3.219738 1_555
Mg144 Mg148 3.237663 1_555
Mg145 Mg6 3.195806 1_556
Mg145 Mg5 3.195815 1_556
Mg146 Mg4 3.196868 1_556
Mg146 Mg21 3.196885 1_546
Mg147 Mg3 3.196875 1_656
Mg147 Mg20 3.196884 1_546
Mg147 Mg2 3.223586 1_556
Mg147 Mg99 3.232420 1_555
Mg148 Mg16 3.196875 1_656
Mg148 Mg15 3.196876 1_556
