# generated using pymatgen
data_Ho2In3Cu
_symmetry_space_group_name_H-M   'P 1'
_cell_length_a   4.72163178
_cell_length_b   4.72163178
_cell_length_c   7.47519600
_cell_angle_alpha   90.00000000
_cell_angle_beta   90.00000000
_cell_angle_gamma   119.99999685
_symmetry_Int_Tables_number   1
_chemical_formula_structural   Ho2In3Cu
_chemical_formula_sum   'Ho2 In3 Cu1'
_cell_volume   144.32363529
_cell_formula_units_Z   1
loop_
 _symmetry_equiv_pos_site_id
 _symmetry_equiv_pos_as_xyz
  1  'x, y, z'
loop_
 _atom_site_type_symbol
 _atom_site_label
 _atom_site_symmetry_multiplicity
 _atom_site_fract_x
 _atom_site_fract_y
 _atom_site_fract_z
 _atom_site_occupancy
  Ho  Ho0  1  0.33333300  0.66666700  0.72270600  1
  Ho  Ho1  1  0.33333300  0.66666700  0.26372000  1
  In  In0  1  0.66666700  0.33333300  0.48340400  1
  In  In1  1  0.66666700  0.33333300  0.05083600  1
  In  In2  1  0.00000000  0.00000000  0.93556800  1
  Cu  Cu0  1  0.00000000  0.00000000  0.54376500  1
loop_
_geom_bond_atom_site_label_1
_geom_bond_atom_site_label_2
_geom_bond_distance
_geom_bond_site_symmetry_2
Ho0 In2 3.156442 1_565
Ho0 In2 3.156445 1_555
Ho0 In2 3.156445 1_665
Ho0 In0 3.260547 1_455
Ho0 In0 3.260547 1_565
Ho0 In0 3.260553 1_555
Ho0 In1 3.667105 1_456
Ho0 In1 3.667105 1_566
Ho0 In1 3.667111 1_556
Ho1 In1 3.156525 1_455
Ho1 In1 3.156525 1_565
Ho1 In1 3.156532 1_555
Ho1 In0 3.182454 1_455
Ho1 In0 3.182454 1_565
Ho1 In0 3.182461 1_555
Ho1 In2 3.667215 1_564
Ho1 In2 3.667218 1_554
Ho1 In2 3.667218 1_664
In0 In1 3.233531 1_555
In1 In2 2.858968 1_654
In1 In2 2.858972 1_664
In1 In2 2.858972 1_554
Cu0 In0 2.763122 1_455
Cu0 In0 2.763126 1_445
Cu0 In0 2.763126 1_555
Cu0 In2 2.928804 1_555
Cu0 Ho0 3.036524 1_545
Cu0 Ho0 3.036528 1_445
Cu0 Ho0 3.036528 1_555
Cu0 Ho1 3.437083 1_545
Cu0 Ho1 3.437087 1_445
Cu0 Ho1 3.437087 1_555
