# generated using pymatgen
data_La(MgSi)2
_symmetry_space_group_name_H-M   'P 1'
_cell_length_a   4.31640291
_cell_length_b   4.31640291
_cell_length_c   5.81426679
_cell_angle_alpha   90.00000000
_cell_angle_beta   90.00000000
_cell_angle_gamma   90.00000000
_symmetry_Int_Tables_number   1
_chemical_formula_structural   La(MgSi)2
_chemical_formula_sum   'La1 Mg2 Si2'
_cell_volume   108.32754700
_cell_formula_units_Z   1
loop_
 _symmetry_equiv_pos_site_id
 _symmetry_equiv_pos_as_xyz
  1  'x, y, z'
loop_
 _atom_site_type_symbol
 _atom_site_label
 _atom_site_symmetry_multiplicity
 _atom_site_fract_x
 _atom_site_fract_y
 _atom_site_fract_z
 _atom_site_occupancy
  La  La0  1  0.00000000  0.00000000  0.00000000  1
  Mg  Mg0  1  -0.00000000  0.50000000  0.50000000  1
  Mg  Mg1  1  0.50000000  -0.00000000  0.50000000  1
  Si  Si0  1  0.50000000  0.50000000  0.19906604  1
  Si  Si1  1  0.50000000  0.50000000  0.80093396  1
loop_
_geom_bond_atom_site_label_1
_geom_bond_atom_site_label_2
_geom_bond_distance
_geom_bond_site_symmetry_2
La0 Si0 3.264245 1_555
La0 Si0 3.264245 1_445
La0 Si0 3.264245 1_545
La0 Si0 3.264245 1_455
La0 Si1 3.264245 1_554
La0 Si1 3.264245 1_544
La0 Si1 3.264245 1_444
La0 Si1 3.264245 1_454
Mg0 Si1 2.778366 1_455
Mg0 Si0 2.778366 1_555
Mg0 Si0 2.778366 1_455
Mg0 Si1 2.778366 1_555
Mg1 Si0 2.778366 1_545
Mg1 Si0 2.778366 1_555
Mg1 Si1 2.778366 1_545
Mg1 Si1 2.778366 1_555
Si0 Si1 2.314846 1_554
