# generated using pymatgen
data_CaFe2S5
_symmetry_space_group_name_H-M   'P 1'
_cell_length_a   4.17485300
_cell_length_b   5.84201900
_cell_length_c   13.59050200
_cell_angle_alpha   90.00000000
_cell_angle_beta   90.00000000
_cell_angle_gamma   90.00000000
_symmetry_Int_Tables_number   1
_chemical_formula_structural   CaFe2S5
_chemical_formula_sum   'Ca2 Fe4 S10'
_cell_volume   331.46650731
_cell_formula_units_Z   2
loop_
 _symmetry_equiv_pos_site_id
 _symmetry_equiv_pos_as_xyz
  1  'x, y, z'
loop_
 _atom_site_type_symbol
 _atom_site_label
 _atom_site_symmetry_multiplicity
 _atom_site_fract_x
 _atom_site_fract_y
 _atom_site_fract_z
 _atom_site_occupancy
  Ca  Ca0  1  0.50000000  0.10797100  0.00000000  1
  Ca  Ca1  1  0.00000000  0.89202900  0.50000000  1
  Fe  Fe0  1  0.00000000  0.58808200  0.84988600  1
  Fe  Fe1  1  0.50000000  0.41191800  0.65011400  1
  Fe  Fe2  1  0.50000000  0.41191800  0.34988600  1
  Fe  Fe3  1  0.00000000  0.58808200  0.15011400  1
  S  S0  1  0.50000000  0.53895100  0.50000000  1
  S  S1  1  0.00000000  0.46104900  0.00000000  1
  S  S2  1  0.50000000  0.46166900  0.81585500  1
  S  S3  1  0.00000000  0.53833100  0.68414500  1
  S  S4  1  0.50000000  0.46166900  0.18414500  1
  S  S5  1  0.00000000  0.53833100  0.31585500  1
  S  S6  1  0.00000000  0.94271300  0.12740300  1
  S  S7  1  0.50000000  0.05728700  0.37259700  1
  S  S8  1  0.50000000  0.05728700  0.62740300  1
  S  S9  1  0.00000000  0.94271300  0.87259700  1
loop_
_geom_bond_atom_site_label_1
_geom_bond_atom_site_label_2
_geom_bond_distance
_geom_bond_site_symmetry_2
Ca0 S6 2.878787 1_645
Ca0 S6 2.878787 1_545
Ca0 S9 2.878787 1_644
Ca0 S9 2.878787 1_544
Ca0 S1 2.934627 1_555
Ca0 S1 2.934627 1_655
Ca0 S4 3.245421 1_555
Ca0 S2 3.245421 1_554
Ca1 S8 2.878787 1_465
Ca1 S8 2.878787 1_565
Ca1 S7 2.878787 1_565
Ca1 S7 2.878787 1_465
Ca1 S0 2.934627 1_455
Ca1 S0 2.934627 1_555
Ca1 S5 3.245421 1_555
Ca1 S3 3.245421 1_555
Fe0 S9 2.094627 1_555
Fe0 S1 2.170913 1_556
Fe0 S2 2.262001 1_455
Fe0 S2 2.262001 1_555
Fe0 S3 2.271177 1_555
Fe1 S8 2.094627 1_555
Fe1 S0 2.170913 1_555
Fe1 S3 2.262001 1_655
Fe1 S3 2.262001 1_555
Fe1 S2 2.271177 1_555
Fe2 S7 2.094627 1_555
Fe2 S0 2.170913 1_555
Fe2 S5 2.262001 1_655
Fe2 S5 2.262001 1_555
Fe2 S4 2.271177 1_555
Fe3 S6 2.094627 1_555
Fe3 S1 2.170913 1_555
Fe3 S4 2.262001 1_455
Fe3 S4 2.262001 1_555
Fe3 S5 2.271177 1_555
