# generated using pymatgen
data_Tb2In8Co
_symmetry_space_group_name_H-M   'P 1'
_cell_length_a   4.64003700
_cell_length_b   4.64003700
_cell_length_c   12.02607200
_cell_angle_alpha   90.00000000
_cell_angle_beta   90.00000000
_cell_angle_gamma   90.00000000
_symmetry_Int_Tables_number   1
_chemical_formula_structural   Tb2In8Co
_chemical_formula_sum   'Tb2 In8 Co1'
_cell_volume   258.92064902
_cell_formula_units_Z   1
loop_
 _symmetry_equiv_pos_site_id
 _symmetry_equiv_pos_as_xyz
  1  'x, y, z'
loop_
 _atom_site_type_symbol
 _atom_site_label
 _atom_site_symmetry_multiplicity
 _atom_site_fract_x
 _atom_site_fract_y
 _atom_site_fract_z
 _atom_site_occupancy
  Tb  Tb0  1  0.00000000  0.00000000  0.30596000  1
  Tb  Tb1  1  0.00000000  0.00000000  0.69404000  1
  In  In0  1  0.00000000  0.50000000  0.11928100  1
  In  In1  1  0.00000000  0.50000000  0.88071900  1
  In  In2  1  0.50000000  0.00000000  0.11928100  1
  In  In3  1  0.50000000  0.00000000  0.88071900  1
  In  In4  1  0.50000000  0.50000000  0.30476000  1
  In  In5  1  0.50000000  0.50000000  0.69524000  1
  In  In6  1  0.00000000  0.50000000  0.50000000  1
  In  In7  1  0.50000000  0.00000000  0.50000000  1
  Co  Co0  1  0.00000000  0.00000000  0.00000000  1
loop_
_geom_bond_atom_site_label_1
_geom_bond_atom_site_label_2
_geom_bond_distance
_geom_bond_site_symmetry_2
In0 In1 2.868964 1_554
In0 In4 3.218383 1_555
In0 In4 3.218383 1_455
In0 Tb0 3.228402 1_565
In0 Tb0 3.228402 1_555
In0 In2 3.281002 1_555
In0 In2 3.281002 1_465
In0 In2 3.281002 1_565
In0 In2 3.281002 1_455
In1 In5 3.218383 1_455
In1 In5 3.218383 1_555
In1 Tb1 3.228402 1_565
In1 Tb1 3.228402 1_555
In1 In3 3.281002 1_455
In1 In3 3.281002 1_555
In1 In3 3.281002 1_565
In1 In3 3.281002 1_465
In2 In3 2.868964 1_554
In2 In4 3.218383 1_545
In2 In4 3.218383 1_555
In2 Tb0 3.228402 1_655
In2 Tb0 3.228402 1_555
In3 In5 3.218383 1_555
In3 In5 3.218383 1_545
In3 Tb1 3.228402 1_555
In3 Tb1 3.228402 1_655
In4 Tb0 3.281033 1_665
In4 Tb0 3.281033 1_565
In4 Tb0 3.281033 1_655
In4 Tb0 3.281033 1_555
In4 In6 3.300826 1_555
In4 In7 3.300826 1_555
In4 In7 3.300826 1_565
In4 In6 3.300826 1_655
In5 Tb1 3.281033 1_555
In5 Tb1 3.281033 1_655
In5 Tb1 3.281033 1_565
In5 Tb1 3.281033 1_665
In5 In6 3.300826 1_555
In5 In7 3.300826 1_555
In5 In7 3.300826 1_565
In5 In6 3.300826 1_655
In6 In7 3.281002 1_455
In6 In7 3.281002 1_555
In6 In7 3.281002 1_565
In6 In7 3.281002 1_465
In6 Tb0 3.290576 1_555
In6 Tb1 3.290576 1_555
In6 Tb0 3.290576 1_565
In6 Tb1 3.290576 1_565
In7 Tb0 3.290576 1_555
In7 Tb1 3.290576 1_555
In7 Tb1 3.290576 1_655
In7 Tb0 3.290576 1_655
Co0 In2 2.727677 1_555
Co0 In1 2.727677 1_554
Co0 In0 2.727677 1_545
Co0 In3 2.727677 1_554
Co0 In3 2.727677 1_454
Co0 In0 2.727677 1_555
Co0 In1 2.727677 1_544
Co0 In2 2.727677 1_455
