# generated using pymatgen
data_Li2V3CoO8
_symmetry_space_group_name_H-M   'P 1'
_cell_length_a   5.91570021
_cell_length_b   5.91550480
_cell_length_c   10.16781681
_cell_angle_alpha   88.29467957
_cell_angle_beta   109.13279772
_cell_angle_gamma   119.22241578
_symmetry_Int_Tables_number   1
_chemical_formula_structural   Li2V3CoO8
_chemical_formula_sum   'Li4 V6 Co2 O16'
_cell_volume   289.69465135
_cell_formula_units_Z   2
loop_
 _symmetry_equiv_pos_site_id
 _symmetry_equiv_pos_as_xyz
  1  'x, y, z'
loop_
 _atom_site_type_symbol
 _atom_site_label
 _atom_site_symmetry_multiplicity
 _atom_site_fract_x
 _atom_site_fract_y
 _atom_site_fract_z
 _atom_site_occupancy
  Li  Li0  1  0.87520000  0.43667000  0.31192000  1
  Li  Li1  1  0.87539800  0.93672300  0.81217600  1
  Li  Li2  1  0.12462500  0.06330900  0.18789900  1
  Li  Li3  1  0.12486900  0.56321500  0.68804100  1
  V  V0  1  0.50004100  0.99999600  0.50001100  1
  V  V1  1  0.50003000  0.50011000  0.49998200  1
  V  V2  1  0.99989900  0.99998400  0.49997900  1
  V  V3  1  0.49999900  0.50002300  0.00007000  1
  V  V4  1  0.49984800  0.99986800  0.99992500  1
  V  V5  1  0.99998000  0.50000300  0.99993800  1
  Co  Co0  1  0.49981600  0.75016600  0.24996200  1
  Co  Co1  1  0.50019700  0.24980100  0.74999000  1
  O  O0  1  0.25449500  0.13702800  0.39183900  1
  O  O1  1  0.25454500  0.63673300  0.89171400  1
  O  O2  1  0.74535000  0.36310300  0.10821400  1
  O  O3  1  0.74564400  0.86310100  0.60830300  1
  O  O4  1  0.73861800  0.08625800  0.37740700  1
  O  O5  1  0.73894500  0.58638800  0.87756400  1
  O  O6  1  0.74111400  0.64266400  0.38387100  1
  O  O7  1  0.74107300  0.14248000  0.88384800  1
  O  O8  1  0.29104500  0.63842100  0.37737000  1
  O  O9  1  0.29104800  0.13824400  0.87747800  1
  O  O10  1  0.70893200  0.86178500  0.12248500  1
  O  O11  1  0.70899400  0.36164900  0.62265000  1
  O  O12  1  0.25879900  0.85736400  0.11610400  1
  O  O13  1  0.25897200  0.35736900  0.61618600  1
  O  O14  1  0.26103300  0.41368000  0.12243300  1
  O  O15  1  0.26149200  0.91386600  0.62263800  1
loop_
_geom_bond_atom_site_label_1
_geom_bond_atom_site_label_2
_geom_bond_distance
_geom_bond_site_symmetry_2
Li0 O2 1.937473 1_555
Li0 O8 2.006580 1_655
Li0 O6 2.006617 1_555
Li0 O4 2.007032 1_555
Li1 O3 1.939135 1_555
Li1 O7 2.005175 1_565
Li1 O9 2.005697 1_665
Li1 O5 2.006214 1_555
Li2 O0 1.939772 1_555
Li2 O10 2.005847 1_445
Li2 O12 2.005992 1_545
Li2 O14 2.006732 1_555
Li3 O1 1.937203 1_555
Li3 O13 2.005488 1_555
Li3 O11 2.006752 1_455
Li3 O15 2.007832 1_555
Co0 O4 1.959238 1_565
Co0 O8 1.959888 1_555
Co0 O14 1.961217 1_555
Co0 O12 1.961322 1_555
Co0 O10 1.961875 1_555
Co0 O6 1.963829 1_555
Co1 O15 1.958168 1_545
Co1 O11 1.959406 1_555
Co1 O7 1.961252 1_555
Co1 O5 1.961832 1_555
Co1 O9 1.962101 1_555
Co1 O13 1.963326 1_555
O0 V2 1.993724 1_445
O0 V1 1.994859 1_555
O0 V0 2.006523 1_545
O1 V5 1.994222 1_455
O1 V4 1.995299 1_555
O1 V3 2.005269 1_556
O2 V5 1.994943 1_554
O2 V4 1.996034 1_544
O2 V3 2.005091 1_555
O3 V2 1.993689 1_555
O3 V1 1.995097 1_555
O3 V0 2.006537 1_555
O4 V2 1.916345 1_545
O4 V0 2.053927 1_545
O5 V5 1.914952 1_555
O5 V3 2.054711 1_556
O6 V1 2.002273 1_555
O6 V2 2.002367 1_555
O7 V4 2.002596 1_545
O7 V5 2.003180 1_555
O8 V1 1.915380 1_555
O8 V0 2.055366 1_555
O9 V4 1.914242 1_545
O9 V3 2.056098 1_556
O10 V4 1.914555 1_554
O10 V3 2.055241 1_555
O11 V1 1.916185 1_555
O11 V0 2.055737 1_545
O12 V4 2.002672 1_554
O12 V5 2.002767 1_454
O13 V1 2.002994 1_555
O13 V2 2.003105 1_445
O14 V5 1.915259 1_454
O14 V3 2.053617 1_555
O15 V2 1.917424 1_455
O15 V0 2.054075 1_555
