# generated using pymatgen
data_HfZn2Ga
_symmetry_space_group_name_H-M   'P 1'
_cell_length_a   3.95464837
_cell_length_b   3.95464837
_cell_length_c   4.08054104
_cell_angle_alpha   90.00000000
_cell_angle_beta   90.00000000
_cell_angle_gamma   90.00000000
_symmetry_Int_Tables_number   1
_chemical_formula_structural   HfZn2Ga
_chemical_formula_sum   'Hf1 Zn2 Ga1'
_cell_volume   63.81657588
_cell_formula_units_Z   1
loop_
 _symmetry_equiv_pos_site_id
 _symmetry_equiv_pos_as_xyz
  1  'x, y, z'
loop_
 _atom_site_type_symbol
 _atom_site_label
 _atom_site_symmetry_multiplicity
 _atom_site_fract_x
 _atom_site_fract_y
 _atom_site_fract_z
 _atom_site_occupancy
  Hf  Hf0  1  0.50000000  0.50000000  -0.00000000  1
  Zn  Zn0  1  0.50000000  0.00000000  0.50000000  1
  Zn  Zn1  1  -0.00000000  0.50000000  0.50000000  1
  Ga  Ga0  1  -0.00000000  0.00000000  -0.00000000  1
loop_
_geom_bond_atom_site_label_1
_geom_bond_atom_site_label_2
_geom_bond_distance
_geom_bond_site_symmetry_2
Hf0 Zn1 2.841217 1_554
Hf0 Zn0 2.841217 1_554
Hf0 Zn0 2.841217 1_565
Hf0 Zn1 2.841217 1_655
Hf0 Zn0 2.841217 1_555
Hf0 Zn0 2.841217 1_564
Hf0 Zn1 2.841217 1_555
Hf0 Zn1 2.841217 1_654
Zn0 Zn1 2.796359 1_545
Zn0 Zn1 2.796359 1_555
Zn0 Zn1 2.796359 1_655
Zn0 Zn1 2.796359 1_645
Ga0 Hf0 2.796359 1_455
Ga0 Hf0 2.796359 1_555
Ga0 Hf0 2.796359 1_445
Ga0 Hf0 2.796359 1_545
Ga0 Zn1 2.841217 1_554
Ga0 Zn0 2.841217 1_554
Ga0 Zn0 2.841217 1_455
Ga0 Zn0 2.841217 1_454
Ga0 Zn0 2.841217 1_555
Ga0 Zn1 2.841217 1_544
Ga0 Zn1 2.841217 1_555
Ga0 Zn1 2.841217 1_545
