# generated using pymatgen
data_V2Fe4Mo3O20
_symmetry_space_group_name_H-M   'P 1'
_cell_length_a   9.68804000
_cell_length_b   9.68804000
_cell_length_c   17.44894400
_cell_angle_alpha   90.00000000
_cell_angle_beta   90.00000000
_cell_angle_gamma   90.00000000
_symmetry_Int_Tables_number   1
_chemical_formula_structural   V2Fe4Mo3O20
_chemical_formula_sum   'V8 Fe16 Mo12 O80'
_cell_volume   1637.72506310
_cell_formula_units_Z   4
loop_
 _symmetry_equiv_pos_site_id
 _symmetry_equiv_pos_as_xyz
  1  'x, y, z'
loop_
 _atom_site_type_symbol
 _atom_site_label
 _atom_site_symmetry_multiplicity
 _atom_site_fract_x
 _atom_site_fract_y
 _atom_site_fract_z
 _atom_site_occupancy
  V  V0  1  0.50000000  0.16376800  0.00000000  1
  V  V1  1  0.50000000  0.83623200  0.50000000  1
  V  V2  1  0.83623200  0.50000000  0.25000000  1
  V  V3  1  0.16376800  0.50000000  0.75000000  1
  V  V4  1  0.00000000  0.66276100  0.00000000  1
  V  V5  1  0.00000000  0.33723900  0.50000000  1
  V  V6  1  0.33723900  0.00000000  0.25000000  1
  V  V7  1  0.66276100  0.00000000  0.75000000  1
  Fe  Fe0  1  0.09537000  0.25642800  0.31126000  1
  Fe  Fe1  1  0.90463000  0.74357200  0.81126000  1
  Fe  Fe2  1  0.74357200  0.09537000  0.56126000  1
  Fe  Fe3  1  0.90463000  0.25642800  0.68874000  1
  Fe  Fe4  1  0.25642800  0.90463000  0.06126000  1
  Fe  Fe5  1  0.09537000  0.74357200  0.18874000  1
  Fe  Fe6  1  0.25642800  0.09537000  0.43874000  1
  Fe  Fe7  1  0.74357200  0.90463000  0.93874000  1
  Fe  Fe8  1  0.59516000  0.24772800  0.18895100  1
  Fe  Fe9  1  0.40484000  0.75227200  0.68895100  1
  Fe  Fe10  1  0.75227200  0.59516000  0.43895100  1
  Fe  Fe11  1  0.40484000  0.24772800  0.81104900  1
  Fe  Fe12  1  0.24772800  0.40484000  0.93895100  1
  Fe  Fe13  1  0.59516000  0.75227200  0.31104900  1
  Fe  Fe14  1  0.24772800  0.59516000  0.56104900  1
  Fe  Fe15  1  0.75227200  0.40484000  0.06104900  1
  Mo  Mo0  1  0.00000000  0.15914400  0.00000000  1
  Mo  Mo1  1  0.00000000  0.84085600  0.50000000  1
  Mo  Mo2  1  0.84085600  0.00000000  0.25000000  1
  Mo  Mo3  1  0.15914400  0.00000000  0.75000000  1
  Mo  Mo4  1  0.26680200  0.40113500  0.15432900  1
  Mo  Mo5  1  0.73319800  0.59886500  0.65432900  1
  Mo  Mo6  1  0.59886500  0.26680200  0.40432900  1
  Mo  Mo7  1  0.73319800  0.40113500  0.84567100  1
  Mo  Mo8  1  0.40113500  0.73319800  0.90432900  1
  Mo  Mo9  1  0.26680200  0.59886500  0.34567100  1
  Mo  Mo10  1  0.40113500  0.26680200  0.59567100  1
  Mo  Mo11  1  0.59886500  0.73319800  0.09567100  1
  O  O0  1  0.24036300  0.09725400  0.32121500  1
  O  O1  1  0.75963700  0.90274600  0.82121500  1
  O  O2  1  0.90274600  0.24036300  0.57121500  1
  O  O3  1  0.75963700  0.09725400  0.67878500  1
  O  O4  1  0.09725400  0.75963700  0.07121500  1
  O  O5  1  0.24036300  0.90274600  0.17878500  1
  O  O6  1  0.09725400  0.24036300  0.42878500  1
  O  O7  1  0.90274600  0.75963700  0.92878500  1
  O  O8  1  0.59455000  0.26122000  0.07162400  1
  O  O9  1  0.40545000  0.73878000  0.57162400  1
  O  O10  1  0.73878000  0.59455000  0.32162400  1
  O  O11  1  0.40545000  0.26122000  0.92837600  1
  O  O12  1  0.26122000  0.40545000  0.82162400  1
  O  O13  1  0.59455000  0.73878000  0.42837600  1
  O  O14  1  0.26122000  0.59455000  0.67837600  1
  O  O15  1  0.73878000  0.40545000  0.17837600  1
  O  O16  1  0.25935700  0.37117700  0.05309200  1
  O  O17  1  0.74064300  0.62882300  0.55309200  1
  O  O18  1  0.62882300  0.25935700  0.30309200  1
  O  O19  1  0.74064300  0.37117700  0.94690800  1
  O  O20  1  0.37117700  0.74064300  0.80309200  1
  O  O21  1  0.25935700  0.62882300  0.44690800  1
  O  O22  1  0.37117700  0.25935700  0.69690800  1
  O  O23  1  0.62882300  0.74064300  0.19690800  1
  O  O24  1  0.44296400  0.10982700  0.20228000  1
  O  O25  1  0.55703600  0.89017300  0.70228000  1
  O  O26  1  0.89017300  0.44296400  0.45228000  1
  O  O27  1  0.55703600  0.10982700  0.79772000  1
  O  O28  1  0.10982700  0.55703600  0.95228000  1
  O  O29  1  0.44296400  0.89017300  0.29772000  1
  O  O30  1  0.10982700  0.44296400  0.54772000  1
  O  O31  1  0.89017300  0.55703600  0.04772000  1
  O  O32  1  0.21960300  0.42351900  0.32674200  1
  O  O33  1  0.78039700  0.57648100  0.82674200  1
  O  O34  1  0.57648100  0.21960300  0.57674200  1
  O  O35  1  0.78039700  0.42351900  0.67325800  1
  O  O36  1  0.42351900  0.78039700  0.07674200  1
  O  O37  1  0.21960300  0.57648100  0.17325800  1
  O  O38  1  0.42351900  0.21960300  0.42325800  1
  O  O39  1  0.57648100  0.78039700  0.92325800  1
  O  O40  1  0.11265300  0.04979700  0.05342600  1
  O  O41  1  0.88734700  0.95020300  0.55342600  1
  O  O42  1  0.95020300  0.11265300  0.30342600  1
  O  O43  1  0.88734700  0.04979700  0.94657400  1
  O  O44  1  0.04979700  0.88734700  0.80342600  1
  O  O45  1  0.11265300  0.95020300  0.44657400  1
  O  O46  1  0.04979700  0.11265300  0.69657400  1
  O  O47  1  0.95020300  0.88734700  0.19657400  1
  O  O48  1  0.44107200  0.38560600  0.18681000  1
  O  O49  1  0.55892800  0.61439400  0.68681000  1
  O  O50  1  0.61439400  0.44107200  0.43681000  1
  O  O51  1  0.55892800  0.38560600  0.81319000  1
  O  O52  1  0.38560600  0.55892800  0.93681000  1
  O  O53  1  0.44107200  0.61439400  0.31319000  1
  O  O54  1  0.38560600  0.44107200  0.56319000  1
  O  O55  1  0.61439400  0.55892800  0.06319000  1
  O  O56  1  0.73472700  0.09549200  0.18429200  1
  O  O57  1  0.26527300  0.90450800  0.68429200  1
  O  O58  1  0.90450800  0.73472700  0.43429200  1
  O  O59  1  0.26527300  0.09549200  0.81570800  1
  O  O60  1  0.09549200  0.26527300  0.93429200  1
  O  O61  1  0.73472700  0.90450800  0.31570800  1
  O  O62  1  0.09549200  0.73472700  0.56570800  1
  O  O63  1  0.90450800  0.26527300  0.06570800  1
  O  O64  1  0.15458900  0.27742400  0.20062500  1
  O  O65  1  0.84541100  0.72257600  0.70062500  1
  O  O66  1  0.72257600  0.15458900  0.45062500  1
  O  O67  1  0.84541100  0.27742400  0.79937500  1
  O  O68  1  0.27742400  0.84541100  0.95062500  1
  O  O69  1  0.15458900  0.72257600  0.29937500  1
  O  O70  1  0.27742400  0.15458900  0.54937500  1
  O  O71  1  0.72257600  0.84541100  0.04937500  1
  O  O72  1  0.38716200  0.06041400  0.04722700  1
  O  O73  1  0.61283800  0.93958600  0.54722700  1
  O  O74  1  0.93958600  0.38716200  0.29722700  1
  O  O75  1  0.61283800  0.06041400  0.95277300  1
  O  O76  1  0.06041400  0.61283800  0.79722700  1
  O  O77  1  0.38716200  0.93958600  0.45277300  1
  O  O78  1  0.06041400  0.38716200  0.70277300  1
  O  O79  1  0.93958600  0.61283800  0.20277300  1
loop_
_geom_bond_atom_site_label_1
_geom_bond_atom_site_label_2
_geom_bond_distance
_geom_bond_site_symmetry_2
Fe0 O42 1.984128 1_455
Fe0 O74 1.985430 1_455
Fe0 O64 2.024158 1_555
Fe0 O32 2.035198 1_555
Fe0 O6 2.056666 1_555
Fe0 O0 2.093173 1_555
Fe1 O44 1.984128 1_655
Fe1 O76 1.985430 1_655
Fe1 O65 2.024158 1_555
Fe1 O33 2.035198 1_555
Fe1 O7 2.056666 1_555
Fe1 O1 2.093173 1_555
Fe2 O41 1.984128 1_545
Fe2 O73 1.985430 1_545
Fe2 O66 2.024158 1_555
Fe2 O34 2.035198 1_555
Fe2 O3 2.056666 1_555
Fe2 O2 2.093173 1_555
Fe3 O46 1.984128 1_655
Fe3 O78 1.985430 1_655
Fe3 O67 2.024158 1_555
Fe3 O35 2.035198 1_555
Fe3 O2 2.056666 1_555
Fe3 O3 2.093173 1_555
Fe4 O40 1.984128 1_565
Fe4 O72 1.985430 1_565
Fe4 O68 2.024158 1_554
Fe4 O36 2.035198 1_555
Fe4 O5 2.056666 1_555
Fe4 O4 2.093173 1_555
Fe5 O47 1.984128 1_455
Fe5 O79 1.985430 1_455
Fe5 O69 2.024158 1_555
Fe5 O37 2.035198 1_555
Fe5 O4 2.056666 1_555
Fe5 O5 2.093173 1_555
Fe6 O45 1.984128 1_545
Fe6 O77 1.985430 1_545
Fe6 O70 2.024158 1_555
Fe6 O38 2.035198 1_555
Fe6 O0 2.056666 1_555
Fe6 O6 2.093173 1_555
Fe7 O43 1.984128 1_565
Fe7 O75 1.985430 1_565
Fe7 O71 2.024158 1_556
Fe7 O39 2.035198 1_555
Fe7 O1 2.056666 1_555
Fe7 O7 2.093173 1_555
Fe8 O56 2.002524 1_555
Fe8 O24 2.003261 1_555
Fe8 O48 2.003535 1_555
Fe8 O18 2.021307 1_555
Fe8 O8 2.051409 1_555
Fe8 O15 2.074818 1_555
Fe9 O57 2.002524 1_555
Fe9 O25 2.003261 1_555
Fe9 O49 2.003535 1_555
Fe9 O20 2.021307 1_555
Fe9 O9 2.051409 1_555
Fe9 O14 2.074818 1_555
Fe10 O58 2.002524 1_555
Fe10 O26 2.003261 1_555
Fe10 O50 2.003535 1_555
Fe10 O17 2.021307 1_555
Fe10 O10 2.051409 1_555
Fe10 O13 2.074818 1_555
Fe11 O59 2.002524 1_555
Fe11 O27 2.003261 1_555
Fe11 O51 2.003535 1_555
Fe11 O22 2.021307 1_555
Fe11 O11 2.051409 1_555
Fe11 O12 2.074818 1_555
Fe12 O60 2.002524 1_555
Fe12 O28 2.003261 1_555
Fe12 O52 2.003535 1_555
Fe12 O16 2.021307 1_556
Fe12 O12 2.051409 1_555
Fe12 O11 2.074818 1_555
Fe13 O61 2.002524 1_555
Fe13 O29 2.003261 1_555
Fe13 O53 2.003535 1_555
Fe13 O23 2.021307 1_555
Fe13 O13 2.051409 1_555
Fe13 O10 2.074818 1_555
Fe14 O62 2.002524 1_555
Fe14 O30 2.003261 1_555
Fe14 O54 2.003535 1_555
Fe14 O21 2.021307 1_555
Fe14 O14 2.051409 1_555
Fe14 O9 2.074818 1_555
Fe15 O63 2.002524 1_555
Fe15 O31 2.003261 1_555
Fe15 O55 2.003535 1_555
Fe15 O19 2.021307 1_554
Fe15 O15 2.051409 1_555
Fe15 O8 2.074818 1_555
Mo0 O43 1.783932 1_454
Mo0 O40 1.783932 1_555
Mo0 O60 1.796543 1_554
Mo0 O63 1.796543 1_455
Mo1 O45 1.783932 1_555
Mo1 O41 1.783932 1_455
Mo1 O58 1.796543 1_455
Mo1 O62 1.796543 1_555
Mo2 O42 1.783932 1_555
Mo2 O47 1.783932 1_545
Mo2 O61 1.796543 1_545
Mo2 O56 1.796543 1_555
Mo3 O44 1.783932 1_545
Mo3 O46 1.783932 1_555
Mo3 O57 1.796543 1_545
Mo3 O59 1.796543 1_555
Mo4 O48 1.787267 1_555
Mo4 O37 1.789963 1_555
Mo4 O16 1.791615 1_555
Mo4 O64 1.808549 1_555
Mo5 O49 1.787267 1_555
Mo5 O35 1.789963 1_555
Mo5 O17 1.791615 1_555
Mo5 O65 1.808549 1_555
Mo6 O50 1.787267 1_555
Mo6 O38 1.789963 1_555
Mo6 O18 1.791615 1_555
Mo6 O66 1.808549 1_555
Mo7 O51 1.787267 1_555
Mo7 O33 1.789963 1_555
Mo7 O19 1.791615 1_555
Mo7 O67 1.808549 1_555
Mo8 O52 1.787267 1_555
Mo8 O39 1.789963 1_555
Mo8 O20 1.791615 1_555
Mo8 O68 1.808549 1_555
Mo9 O53 1.787267 1_555
Mo9 O32 1.789963 1_555
Mo9 O21 1.791615 1_555
Mo9 O69 1.808549 1_555
Mo10 O54 1.787267 1_555
Mo10 O34 1.789963 1_555
Mo10 O22 1.791615 1_555
Mo10 O70 1.808549 1_555
Mo11 O55 1.787267 1_555
Mo11 O36 1.789963 1_555
Mo11 O23 1.791615 1_555
Mo11 O71 1.808549 1_555
O0 V6 1.820087 1_555
O1 V7 1.820087 1_565
O2 V5 1.820087 1_655
O3 V7 1.820087 1_555
O4 V4 1.820087 1_555
O5 V6 1.820087 1_565
O6 V5 1.820087 1_555
O7 V4 1.820087 1_656
O8 V0 1.814478 1_555
O9 V1 1.814478 1_555
O10 V2 1.814478 1_555
O11 V0 1.814478 1_556
O12 V3 1.814478 1_555
O13 V1 1.814478 1_555
O14 V3 1.814478 1_555
O15 V2 1.814478 1_555
O24 V6 1.695455 1_555
O25 V7 1.695455 1_565
O26 V5 1.695455 1_655
O27 V7 1.695455 1_555
O28 V4 1.695455 1_556
O29 V6 1.695455 1_565
O30 V5 1.695455 1_555
O31 V4 1.695455 1_655
O72 V0 1.696088 1_555
O73 V1 1.696088 1_555
O74 V2 1.696088 1_555
O75 V0 1.696088 1_556
O76 V3 1.696088 1_555
O77 V1 1.696088 1_555
O78 V3 1.696088 1_555
O79 V2 1.696088 1_555
