# generated using pymatgen
data_Nb2Zn2SbO8
_symmetry_space_group_name_H-M   'P 1'
_cell_length_a   5.46180500
_cell_length_b   5.90423839
_cell_length_c   10.74367905
_cell_angle_alpha   105.82899756
_cell_angle_beta   92.98815680
_cell_angle_gamma   90.11254913
_symmetry_Int_Tables_number   1
_chemical_formula_structural   Nb2Zn2SbO8
_chemical_formula_sum   'Nb4 Zn4 Sb2 O16'
_cell_volume   332.82182668
_cell_formula_units_Z   2
loop_
 _symmetry_equiv_pos_site_id
 _symmetry_equiv_pos_as_xyz
  1  'x, y, z'
loop_
 _atom_site_type_symbol
 _atom_site_label
 _atom_site_symmetry_multiplicity
 _atom_site_fract_x
 _atom_site_fract_y
 _atom_site_fract_z
 _atom_site_occupancy
  Nb  Nb0  1  0.27393300  0.03484700  0.75558600  1
  Nb  Nb1  1  0.22670900  0.28034700  0.24469500  1
  Nb  Nb2  1  0.72606700  0.96515300  0.24441400  1
  Nb  Nb3  1  0.77329100  0.71965300  0.75530500  1
  Zn  Zn0  1  0.22598400  0.87905400  0.44060100  1
  Zn  Zn1  1  0.27487000  0.44033300  0.56109200  1
  Zn  Zn2  1  0.77401600  0.12094600  0.55939900  1
  Zn  Zn3  1  0.72513000  0.55966700  0.43890800  1
  Sb  Sb0  1  0.25770600  0.67009500  0.00138300  1
  Sb  Sb1  1  0.74229400  0.32990500  0.99861700  1
  O  O0  1  0.97145700  0.01509800  0.84798600  1
  O  O1  1  0.52917900  0.16916300  0.15370400  1
  O  O2  1  0.02854300  0.98490200  0.15201400  1
  O  O3  1  0.47082100  0.83083700  0.84629600  1
  O  O4  1  0.39236200  0.33688300  0.88448600  1
  O  O5  1  0.11251000  0.45399800  0.11933900  1
  O  O6  1  0.60763800  0.66311700  0.11551400  1
  O  O7  1  0.88749000  0.54600200  0.88066100  1
  O  O8  1  0.57904800  0.93150900  0.64597500  1
  O  O9  1  0.92132300  0.28578300  0.35531400  1
  O  O10  1  0.64481000  0.44416900  0.60269700  1
  O  O11  1  0.85560300  0.84072400  0.39789100  1
  O  O12  1  0.35519000  0.55583100  0.39730300  1
  O  O13  1  0.14439700  0.15927600  0.60210900  1
  O  O14  1  0.07867700  0.71421700  0.64468600  1
  O  O15  1  0.42095200  0.06849100  0.35402500  1
loop_
_geom_bond_atom_site_label_1
_geom_bond_atom_site_label_2
_geom_bond_distance
_geom_bond_site_symmetry_2
Nb0 O0 1.990422 1_455
Nb0 O4 2.017718 1_555
Nb0 O3 2.023182 1_545
Nb0 O13 2.073750 1_555
Nb0 O8 2.086347 1_545
Nb0 O14 2.183981 1_545
Nb1 O5 1.980476 1_555
Nb1 O1 1.984528 1_555
Nb1 O2 2.034323 1_545
Nb1 O12 2.060810 1_555
Nb1 O9 2.093231 1_455
Nb1 O15 2.178689 1_555
Nb2 O2 1.990422 1_655
Nb2 O6 2.017718 1_555
Nb2 O1 2.023182 1_565
Nb2 O11 2.073750 1_555
Nb2 O15 2.086347 1_565
Nb2 O9 2.183981 1_565
Nb3 O7 1.980476 1_555
Nb3 O3 1.984528 1_555
Nb3 O0 2.034323 1_565
Nb3 O10 2.060810 1_555
Nb3 O14 2.093231 1_655
Nb3 O8 2.178689 1_555
O0 Sb1 2.493937 1_555
O1 Sb1 2.468272 1_554
O2 Sb0 2.493937 1_555
O3 Sb0 2.468272 1_556
O4 Sb0 2.177795 1_556
O4 Sb1 2.222989 1_555
O5 Sb0 2.201290 1_555
O5 Sb1 2.347346 1_454
O6 Sb1 2.177795 1_554
O6 Sb0 2.222989 1_555
O7 Sb1 2.201290 1_555
O7 Sb0 2.347346 1_656
O8 Zn2 1.978956 1_565
O9 Zn3 1.970952 1_555
O10 Zn2 1.977767 1_555
O10 Zn1 2.045246 1_555
O10 Zn3 2.118478 1_555
O11 Zn3 1.970468 1_555
O11 Zn0 2.049113 1_655
O11 Zn2 2.112859 1_565
O12 Zn0 1.977767 1_555
O12 Zn3 2.045246 1_555
O12 Zn1 2.118478 1_555
O13 Zn1 1.970468 1_555
O13 Zn2 2.049113 1_455
O13 Zn0 2.112859 1_545
O14 Zn1 1.970952 1_555
O15 Zn0 1.978956 1_545
