# generated using pymatgen
data_RbMg14Mn
_symmetry_space_group_name_H-M   'P 1'
_cell_length_a   6.49080386
_cell_length_b   6.49080332
_cell_length_c   10.42373207
_cell_angle_alpha   90.00000000
_cell_angle_beta   90.00000000
_cell_angle_gamma   120.00000275
_symmetry_Int_Tables_number   1
_chemical_formula_structural   RbMg14Mn
_chemical_formula_sum   'Rb1 Mg14 Mn1'
_cell_volume   380.32142782
_cell_formula_units_Z   1
loop_
 _symmetry_equiv_pos_site_id
 _symmetry_equiv_pos_as_xyz
  1  'x, y, z'
loop_
 _atom_site_type_symbol
 _atom_site_label
 _atom_site_symmetry_multiplicity
 _atom_site_fract_x
 _atom_site_fract_y
 _atom_site_fract_z
 _atom_site_occupancy
  Rb  Rb0  1  0.16666700  0.33333300  0.62500000  1
  Mg  Mg0  1  0.15491325  0.82745612  0.12500000  1
  Mg  Mg1  1  0.17729396  0.83864648  0.62500000  1
  Mg  Mg2  1  0.67254388  0.34508675  0.12500000  1
  Mg  Mg3  1  0.66135352  0.32270604  0.62500000  1
  Mg  Mg4  1  0.67254388  0.82745612  0.12500000  1
  Mg  Mg5  1  0.66135352  0.83864648  0.62500000  1
  Mg  Mg6  1  0.32950686  0.17049314  0.34255473  1
  Mg  Mg7  1  0.32950686  0.17049314  0.90744527  1
  Mg  Mg8  1  0.32950686  0.65901472  0.34255473  1
  Mg  Mg9  1  0.32950686  0.65901472  0.90744527  1
  Mg  Mg10  1  0.84098528  0.17049314  0.34255473  1
  Mg  Mg11  1  0.84098528  0.17049314  0.90744527  1
  Mg  Mg12  1  0.83333300  0.66666700  0.38361308  1
  Mg  Mg13  1  0.83333300  0.66666700  0.86638692  1
  Mn  Mn0  1  0.16666700  0.33333300  0.12500000  1
loop_
_geom_bond_atom_site_label_1
_geom_bond_atom_site_label_2
_geom_bond_distance
_geom_bond_site_symmetry_2
Mg0 Mg8 2.976782 1_555
Mg0 Mg9 2.976782 1_554
Mg0 Mg6 2.976789 1_565
Mg0 Mg7 2.976789 1_564
Mg0 Mg2 3.130965 1_455
Mg0 Mg4 3.130965 1_455
Mg0 Mg12 3.245694 1_455
Mg0 Mg13 3.245694 1_454
Mg0 Mn0 3.246074 1_555
Mg0 Mn0 3.246074 1_565
Mg0 Mg2 3.359839 1_565
Mg0 Mg4 3.359839 1_555
Mg1 Mg13 3.173223 1_455
Mg1 Mg12 3.173223 1_455
Mg1 Rb0 3.245951 1_555
Mg1 Rb0 3.245951 1_565
Mg1 Mg9 3.486464 1_555
Mg1 Mg8 3.486464 1_555
Mg1 Mg7 3.486470 1_565
Mg1 Mg6 3.486470 1_565
Mg2 Mg7 2.976789 1_554
Mg2 Mg6 2.976789 1_555
Mg2 Mg4 3.130965 1_555
Mg2 Mn0 3.246074 1_655
Mg2 Mn0 3.246074 1_555
Mg2 Mg4 3.359839 1_545
Mg3 Rb0 3.245952 1_655
Mg3 Rb0 3.245952 1_555
Mg3 Mg7 3.486470 1_555
Mg3 Mg6 3.486470 1_555
Mg4 Mg8 2.976789 1_555
Mg4 Mg9 2.976789 1_554
Mg4 Mn0 3.246074 1_665
Mg4 Mn0 3.246074 1_555
Mg5 Rb0 3.245951 1_555
Mg5 Rb0 3.245951 1_665
Mg5 Mg9 3.486470 1_555
Mg5 Mg8 3.486470 1_555
Mg6 Mn0 2.914466 1_555
Mg6 Mg8 3.170897 1_555
Mg6 Mg8 3.319906 1_545
Mg6 Rb0 3.466905 1_555
Mg7 Mn0 2.914466 1_556
Mg7 Mg9 3.170897 1_555
Mg7 Mg9 3.319906 1_545
Mg7 Rb0 3.466905 1_555
Mg8 Mn0 2.914473 1_555
Mg8 Rb0 3.466910 1_555
Mg9 Mn0 2.914473 1_556
Mg9 Rb0 3.466910 1_555
Mg10 Mn0 2.914473 1_655
Mg10 Mg2 2.976782 1_555
Mg10 Mg4 2.976789 1_545
Mg10 Mg8 3.170897 1_655
Mg10 Mg6 3.170898 1_655
Mg10 Mg12 3.273782 1_545
Mg10 Mg12 3.273782 1_555
Mg10 Mg8 3.319906 1_545
Mg10 Mg6 3.319906 1_555
Mg10 Rb0 3.466910 1_655
Mg10 Mg3 3.486464 1_555
Mg10 Mg5 3.486470 1_545
Mg11 Mn0 2.914473 1_656
Mg11 Mg2 2.976782 1_556
Mg11 Mg4 2.976789 1_546
Mg11 Mg9 3.170897 1_655
Mg11 Mg7 3.170898 1_655
Mg11 Mg13 3.273782 1_545
Mg11 Mg13 3.273782 1_555
Mg11 Mg9 3.319906 1_545
Mg11 Mg7 3.319906 1_555
Mg11 Rb0 3.466910 1_655
Mg11 Mg3 3.486464 1_555
Mg11 Mg5 3.486470 1_545
Mg12 Mg5 3.173216 1_555
Mg12 Mg3 3.173223 1_555
Mg12 Mg4 3.245688 1_555
Mg12 Mg2 3.245694 1_555
Mg12 Mg6 3.273782 1_665
Mg12 Mg6 3.273782 1_555
Mg12 Mg8 3.273783 1_555
Mg12 Mg8 3.273783 1_655
Mg13 Mg5 3.173216 1_555
Mg13 Mg3 3.173223 1_555
Mg13 Mg4 3.245688 1_556
Mg13 Mg2 3.245694 1_556
Mg13 Mg7 3.273782 1_665
Mg13 Mg7 3.273782 1_555
Mg13 Mg9 3.273783 1_655
Mg13 Mg9 3.273783 1_555
