# generated using pymatgen
data_Ba4TiAs4
_symmetry_space_group_name_H-M   'P 1'
_cell_length_a   13.56933044
_cell_length_b   13.56933044
_cell_length_c   13.56933044
_cell_angle_alpha   90.00000000
_cell_angle_beta   90.00000000
_cell_angle_gamma   90.00000000
_symmetry_Int_Tables_number   1
_chemical_formula_structural   Ba4TiAs4
_chemical_formula_sum   'Ba32 Ti8 As32'
_cell_volume   2498.47642307
_cell_formula_units_Z   8
loop_
 _symmetry_equiv_pos_site_id
 _symmetry_equiv_pos_as_xyz
  1  'x, y, z'
loop_
 _atom_site_type_symbol
 _atom_site_label
 _atom_site_symmetry_multiplicity
 _atom_site_fract_x
 _atom_site_fract_y
 _atom_site_fract_z
 _atom_site_occupancy
  Ba  Ba0  1  0.14837818  0.14837818  0.14837818  1
  Ba  Ba1  1  0.35162182  0.64837818  0.35162182  1
  Ba  Ba2  1  0.64837818  0.35162182  0.35162182  1
  Ba  Ba3  1  0.35162182  0.35162182  0.64837818  1
  Ba  Ba4  1  0.14837818  0.85162182  0.85162182  1
  Ba  Ba5  1  0.85162182  0.85162182  0.14837818  1
  Ba  Ba6  1  0.85162182  0.14837818  0.85162182  1
  Ba  Ba7  1  0.64837818  0.64837818  0.64837818  1
  Ba  Ba8  1  0.90742197  0.86347189  0.64831481  1
  Ba  Ba9  1  0.90742197  0.13652811  0.35168519  1
  Ba  Ba10  1  0.86347189  0.64831481  0.90742197  1
  Ba  Ba11  1  0.13652811  0.64831481  0.09257803  1
  Ba  Ba12  1  0.64831481  0.90742197  0.86347189  1
  Ba  Ba13  1  0.35168519  0.09257803  0.86347189  1
  Ba  Ba14  1  0.59257803  0.85168519  0.36347189  1
  Ba  Ba15  1  0.59257803  0.14831481  0.63652811  1
  Ba  Ba16  1  0.40742197  0.85168519  0.63652811  1
  Ba  Ba17  1  0.14831481  0.63652811  0.59257803  1
  Ba  Ba18  1  0.63652811  0.40742197  0.85168519  1
  Ba  Ba19  1  0.63652811  0.59257803  0.14831481  1
  Ba  Ba20  1  0.85168519  0.36347189  0.59257803  1
  Ba  Ba21  1  0.36347189  0.59257803  0.85168519  1
  Ba  Ba22  1  0.85168519  0.63652811  0.40742197  1
  Ba  Ba23  1  0.14831481  0.36347189  0.40742197  1
  Ba  Ba24  1  0.36347189  0.40742197  0.14831481  1
  Ba  Ba25  1  0.35168519  0.90742197  0.13652811  1
  Ba  Ba26  1  0.64831481  0.09257803  0.13652811  1
  Ba  Ba27  1  0.86347189  0.35168519  0.09257803  1
  Ba  Ba28  1  0.13652811  0.35168519  0.90742197  1
  Ba  Ba29  1  0.09257803  0.13652811  0.64831481  1
  Ba  Ba30  1  0.09257803  0.86347189  0.35168519  1
  Ba  Ba31  1  0.40742197  0.14831481  0.36347189  1
  Ti  Ti0  1  -0.00000000  0.00000000  0.00000000  1
  Ti  Ti1  1  0.75000000  0.00000000  0.50000000  1
  Ti  Ti2  1  0.50000000  0.75000000  0.00000000  1
  Ti  Ti3  1  0.50000000  0.25000000  0.00000000  1
  Ti  Ti4  1  -0.00000000  0.50000000  0.25000000  1
  Ti  Ti5  1  -0.00000000  0.50000000  0.75000000  1
  Ti  Ti6  1  0.25000000  0.00000000  0.50000000  1
  Ti  Ti7  1  0.50000000  0.50000000  0.50000000  1
  As  As0  1  0.60457590  0.85099454  0.11131446  1
  As  As1  1  0.64900546  0.10457590  0.38868554  1
  As  As2  1  0.89542410  0.61131446  0.64900546  1
  As  As3  1  0.10457590  0.61131446  0.35099454  1
  As  As4  1  0.61131446  0.64900546  0.89542410  1
  As  As5  1  0.38868554  0.35099454  0.89542410  1
  As  As6  1  0.85099454  0.88868554  0.39542410  1
  As  As7  1  0.85099454  0.11131446  0.60457590  1
  As  As8  1  0.14900546  0.88868554  0.60457590  1
  As  As9  1  0.39461104  0.39461104  0.39461104  1
  As  As10  1  0.60457590  0.14900546  0.88868554  1
  As  As11  1  0.64900546  0.89542410  0.61131446  1
  As  As12  1  0.88868554  0.39542410  0.85099454  1
  As  As13  1  0.39542410  0.85099454  0.88868554  1
  As  As14  1  0.88868554  0.60457590  0.14900546  1
  As  As15  1  0.11131446  0.39542410  0.14900546  1
  As  As16  1  0.39542410  0.14900546  0.11131446  1
  As  As17  1  0.38868554  0.64900546  0.10457590  1
  As  As18  1  0.61131446  0.35099454  0.10457590  1
  As  As19  1  0.89542410  0.38868554  0.35099454  1
  As  As20  1  0.10457590  0.38868554  0.64900546  1
  As  As21  1  0.35099454  0.10457590  0.61131446  1
  As  As22  1  0.35099454  0.89542410  0.38868554  1
  As  As23  1  0.14900546  0.11131446  0.39542410  1
  As  As24  1  0.10538896  0.89461104  0.10538896  1
  As  As25  1  0.10538896  0.10538896  0.89461104  1
  As  As26  1  0.89461104  0.10538896  0.10538896  1
  As  As27  1  0.60538896  0.60538896  0.39461104  1
  As  As28  1  0.39461104  0.60538896  0.60538896  1
  As  As29  1  0.60538896  0.39461104  0.60538896  1
  As  As30  1  0.89461104  0.89461104  0.89461104  1
  As  As31  1  0.11131446  0.60457590  0.85099454  1
loop_
_geom_bond_atom_site_label_1
_geom_bond_atom_site_label_2
_geom_bond_distance
_geom_bond_site_symmetry_2
Ba0 Ti0 3.487298 1_555
Ba1 Ti7 3.487298 1_555
Ba2 Ti7 3.487298 1_555
Ba3 Ti7 3.487298 1_555
Ba4 Ti0 3.487298 1_566
Ba5 Ti0 3.487298 1_665
Ba6 Ti0 3.487298 1_656
Ba7 Ti7 3.487298 1_555
Ba8 Ti1 3.470643 1_565
Ba9 Ti1 3.470643 1_555
Ba10 Ti5 3.470643 1_655
Ba11 Ti4 3.470643 1_555
Ba12 Ti2 3.470643 1_556
Ba13 Ti3 3.470643 1_556
Ba14 Ti1 3.470643 1_565
Ba15 Ti1 3.470643 1_555
Ba16 Ti6 3.470643 1_565
Ba17 Ti5 3.470643 1_555
Ba18 Ti3 3.470643 1_556
Ba19 Ti2 3.470643 1_555
Ba20 Ti5 3.470643 1_655
Ba21 Ti2 3.470643 1_556
Ba22 Ti4 3.470643 1_655
Ba23 Ti4 3.470643 1_555
Ba24 Ti3 3.470643 1_555
Ba25 Ti2 3.470643 1_555
Ba26 Ti3 3.470643 1_555
Ba27 Ti4 3.470643 1_655
Ba28 Ti5 3.470643 1_555
Ba29 Ti6 3.470643 1_555
Ba30 Ti6 3.470643 1_565
Ba31 Ti6 3.470643 1_555
As0 Ti2 2.484593 1_555
As0 Ba26 3.348943 1_565
As0 Ba5 3.389775 1_555
As0 Ba14 3.425491 1_555
As0 Ba12 3.499811 1_554
As0 Ba25 3.532550 1_555
As0 Ba19 3.568736 1_555
As1 Ti1 2.484593 1_555
As1 Ba31 3.348943 1_555
As1 Ba2 3.389775 1_555
As1 Ba26 3.425491 1_555
As1 Ba15 3.499811 1_555
As1 Ba14 3.532550 1_545
As1 Ba9 3.568736 1_555
As2 Ti5 2.484593 1_655
As2 Ba22 3.348943 1_555
As2 Ba7 3.389775 1_555
As2 Ba8 3.425491 1_555
As2 Ba20 3.499811 1_555
As2 Ba17 3.532550 1_655
As2 Ba10 3.568736 1_555
As3 Ti4 2.484593 1_555
As3 Ba17 3.348943 1_555
As3 Ba1 3.389775 1_555
As3 Ba30 3.425491 1_555
As3 Ba23 3.499811 1_555
As3 Ba22 3.532550 1_455
As3 Ba11 3.568736 1_555
As4 Ti2 2.484593 1_556
As4 Ba18 3.348943 1_555
As4 Ba7 3.389775 1_555
As4 Ba10 3.425491 1_555
As4 Ba21 3.499811 1_555
As4 Ba19 3.532550 1_556
As4 Ba12 3.568736 1_555
As5 Ti3 2.484593 1_556
As5 Ba21 3.348943 1_555
As5 Ba3 3.389775 1_555
As5 Ba28 3.425491 1_555
As5 Ba18 3.499811 1_555
As5 Ba24 3.532550 1_556
As5 Ba13 3.568736 1_555
As6 Ti1 2.484593 1_565
As6 Ba30 3.348943 1_655
As6 Ba5 3.389775 1_555
As6 Ba22 3.425491 1_555
As6 Ba9 3.499811 1_565
As6 Ba8 3.532550 1_555
As6 Ba14 3.568736 1_555
As7 Ti1 2.484593 1_555
As7 Ba29 3.348943 1_655
As7 Ba6 3.389775 1_555
As7 Ba20 3.425491 1_555
As7 Ba8 3.499811 1_545
As7 Ba9 3.532550 1_555
As7 Ba15 3.568736 1_555
As8 Ti6 2.484593 1_565
As8 Ba8 3.348943 1_455
As8 Ba4 3.389775 1_555
As8 Ba17 3.425491 1_555
As8 Ba29 3.499811 1_565
As8 Ba30 3.532550 1_555
As8 Ba16 3.568736 1_555
As9 Ti7 2.476932 1_555
As9 Ba24 3.373162 1_555
As9 Ba31 3.373162 1_555
As9 Ba23 3.373162 1_555
As9 Ba2 3.540891 1_555
As9 Ba3 3.540891 1_555
As9 Ba1 3.540891 1_555
As10 Ti3 2.484593 1_556
As10 Ba12 3.348943 1_545
As10 Ba6 3.389775 1_555
As10 Ba15 3.425491 1_555
As10 Ba26 3.499811 1_556
As10 Ba13 3.532550 1_555
As10 Ba18 3.568736 1_555
As11 Ti1 2.484593 1_565
As11 Ba16 3.348943 1_555
As11 Ba7 3.389775 1_555
As11 Ba12 3.425491 1_555
As11 Ba14 3.499811 1_555
As11 Ba15 3.532550 1_565
As11 Ba8 3.568736 1_555
As12 Ti5 2.484593 1_655
As12 Ba27 3.348943 1_556
As12 Ba6 3.389775 1_555
As12 Ba18 3.425491 1_555
As12 Ba28 3.499811 1_655
As12 Ba10 3.532550 1_555
As12 Ba20 3.568736 1_555
As13 Ti2 2.484593 1_556
As13 Ba13 3.348943 1_565
As13 Ba4 3.389775 1_555
As13 Ba16 3.425491 1_555
As13 Ba25 3.499811 1_556
As13 Ba12 3.532550 1_555
As13 Ba21 3.568736 1_555
As14 Ti4 2.484593 1_655
As14 Ba10 3.348943 1_554
As14 Ba5 3.389775 1_555
As14 Ba19 3.425491 1_555
As14 Ba11 3.499811 1_655
As14 Ba27 3.532550 1_555
As14 Ba22 3.568736 1_555
As15 Ti4 2.484593 1_555
As15 Ba28 3.348943 1_554
As15 Ba0 3.389775 1_555
As15 Ba24 3.425491 1_555
As15 Ba27 3.499811 1_455
As15 Ba11 3.532550 1_555
As15 Ba23 3.568736 1_555
As16 Ti3 2.484593 1_555
As16 Ba25 3.348943 1_545
As16 Ba0 3.389775 1_555
As16 Ba31 3.425491 1_555
As16 Ba13 3.499811 1_554
As16 Ba26 3.532550 1_555
As16 Ba24 3.568736 1_555
As17 Ti2 2.484593 1_555
As17 Ba24 3.348943 1_555
As17 Ba1 3.389775 1_555
As17 Ba11 3.425491 1_555
As17 Ba19 3.499811 1_555
As17 Ba21 3.532550 1_554
As17 Ba25 3.568736 1_555
As18 Ti3 2.484593 1_555
As18 Ba19 3.348943 1_555
As18 Ba2 3.389775 1_555
As18 Ba27 3.425491 1_555
As18 Ba24 3.499811 1_555
As18 Ba18 3.532550 1_554
As18 Ba26 3.568736 1_555
As19 Ti4 2.484593 1_655
As19 Ba20 3.348943 1_555
As19 Ba2 3.389775 1_555
As19 Ba9 3.425491 1_555
As19 Ba22 3.499811 1_555
As19 Ba23 3.532550 1_655
As19 Ba27 3.568736 1_555
As20 Ti5 2.484593 1_555
As20 Ba23 3.348943 1_555
As20 Ba3 3.389775 1_555
As20 Ba29 3.425491 1_555
As20 Ba17 3.499811 1_555
As20 Ba20 3.532550 1_455
As20 Ba28 3.568736 1_555
As21 Ti6 2.484593 1_555
As21 Ba15 3.348943 1_555
As21 Ba3 3.389775 1_555
As21 Ba13 3.425491 1_555
As21 Ba31 3.499811 1_555
As21 Ba16 3.532550 1_545
As21 Ba29 3.568736 1_555
As22 Ti6 2.484593 1_565
As22 Ba14 3.348943 1_555
As22 Ba1 3.389775 1_555
As22 Ba25 3.425491 1_555
As22 Ba16 3.499811 1_555
As22 Ba31 3.532550 1_565
As22 Ba30 3.568736 1_555
As23 Ti6 2.484593 1_555
As23 Ba9 3.348943 1_455
As23 Ba0 3.389775 1_555
As23 Ba23 3.425491 1_555
As23 Ba30 3.499811 1_545
As23 Ba29 3.532550 1_555
As23 Ba31 3.568736 1_555
As24 Ti0 2.476932 1_565
As24 Ba30 3.373162 1_555
As24 Ba11 3.373162 1_555
As24 Ba25 3.373162 1_555
As24 Ba0 3.540891 1_565
As24 Ba4 3.540891 1_554
As24 Ba5 3.540891 1_455
As25 Ti0 2.476932 1_556
As25 Ba28 3.373162 1_555
As25 Ba29 3.373162 1_555
As25 Ba13 3.373162 1_555
As25 Ba0 3.540891 1_556
As25 Ba4 3.540891 1_545
As25 Ba6 3.540891 1_455
As26 Ti0 2.476932 1_655
As26 Ba9 3.373162 1_555
As26 Ba27 3.373162 1_555
As26 Ba26 3.373162 1_555
As26 Ba0 3.540891 1_655
As26 Ba6 3.540891 1_554
As26 Ba5 3.540891 1_545
As27 Ti7 2.476932 1_555
As27 Ba22 3.373162 1_555
As27 Ba14 3.373162 1_555
As27 Ba19 3.373162 1_555
As27 Ba2 3.540891 1_555
As27 Ba1 3.540891 1_555
As27 Ba7 3.540891 1_555
As28 Ti7 2.476932 1_555
As28 Ba21 3.373162 1_555
As28 Ba16 3.373162 1_555
As28 Ba17 3.373162 1_555
As28 Ba3 3.540891 1_555
As28 Ba1 3.540891 1_555
As28 Ba7 3.540891 1_555
As29 Ti7 2.476932 1_555
As29 Ba18 3.373162 1_555
As29 Ba20 3.373162 1_555
As29 Ba15 3.373162 1_555
As29 Ba2 3.540891 1_555
As29 Ba3 3.540891 1_555
As29 Ba7 3.540891 1_555
As30 Ti0 2.476932 1_666
As30 Ba8 3.373162 1_555
As30 Ba10 3.373162 1_555
As30 Ba12 3.373162 1_555
As30 Ba4 3.540891 1_655
As30 Ba6 3.540891 1_565
As30 Ba5 3.540891 1_556
As31 Ti5 2.484593 1_555
As31 Ba11 3.348943 1_556
As31 Ba4 3.389775 1_555
As31 Ba21 3.425491 1_555
As31 Ba10 3.499811 1_455
As31 Ba28 3.532550 1_555
As31 Ba17 3.568736 1_555
