# generated using pymatgen
data_ZnH12C6(S2N)2
_symmetry_space_group_name_H-M   'P 1'
_cell_length_a   9.42928062
_cell_length_b   9.42928062
_cell_length_c   18.79687654
_cell_angle_alpha   86.56977980
_cell_angle_beta   86.56977980
_cell_angle_gamma   118.96767926
_symmetry_Int_Tables_number   1
_chemical_formula_structural   ZnH12C6(S2N)2
_chemical_formula_sum   'Zn4 H48 C24 S16 N8'
_cell_volume   1451.98355605
_cell_formula_units_Z   4
loop_
 _symmetry_equiv_pos_site_id
 _symmetry_equiv_pos_as_xyz
  1  'x, y, z'
loop_
 _atom_site_type_symbol
 _atom_site_label
 _atom_site_symmetry_multiplicity
 _atom_site_fract_x
 _atom_site_fract_y
 _atom_site_fract_z
 _atom_site_occupancy
  Zn  Zn0  1  0.09436900  0.87953800  0.36143800  1
  Zn  Zn1  1  0.12046200  0.90563100  0.13856200  1
  Zn  Zn2  1  0.90563100  0.12046200  0.63856200  1
  Zn  Zn3  1  0.87953800  0.09436900  0.86143800  1
  H  H0  1  0.20706900  0.47641700  0.19805800  1
  H  H1  1  0.52358300  0.79293100  0.30194200  1
  H  H2  1  0.79293100  0.52358300  0.80194200  1
  H  H3  1  0.47641700  0.20706900  0.69805800  1
  H  H4  1  0.01679700  0.31004300  0.23522600  1
  H  H5  1  0.68995700  0.98320300  0.26477400  1
  H  H6  1  0.98320300  0.68995700  0.76477400  1
  H  H7  1  0.31004300  0.01679700  0.73522600  1
  H  H8  1  0.13266000  0.47093200  0.28852300  1
  H  H9  1  0.52906800  0.86734000  0.21147700  1
  H  H10  1  0.86734000  0.52906800  0.71147700  1
  H  H11  1  0.47093200  0.13266000  0.78852300  1
  H  H12  1  0.29754000  0.46492600  0.35458400  1
  H  H13  1  0.53507400  0.70246000  0.14541600  1
  H  H14  1  0.70246000  0.53507400  0.64541600  1
  H  H15  1  0.46492600  0.29754000  0.85458400  1
  H  H16  1  0.42767100  0.38150000  0.33090600  1
  H  H17  1  0.61850000  0.57232900  0.16909400  1
  H  H18  1  0.57232900  0.61850000  0.66909400  1
  H  H19  1  0.38150000  0.42767100  0.83090600  1
  H  H20  1  0.23890100  0.25847400  0.38411800  1
  H  H21  1  0.74152600  0.76109900  0.11588200  1
  H  H22  1  0.76109900  0.74152600  0.61588200  1
  H  H23  1  0.25847400  0.23890100  0.88411800  1
  H  H24  1  0.42347400  0.65269100  0.47258900  1
  H  H25  1  0.34730900  0.57652600  0.02741100  1
  H  H26  1  0.57652600  0.34730900  0.52741100  1
  H  H27  1  0.65269100  0.42347400  0.97258900  1
  H  H28  1  0.38174800  0.60091900  0.56726400  1
  H  H29  1  0.39908100  0.61825200  0.93273600  1
  H  H30  1  0.61825200  0.39908100  0.43273600  1
  H  H31  1  0.60091900  0.38174800  0.06726400  1
  H  H32  1  0.22461100  0.49838400  0.51054300  1
  H  H33  1  0.50161600  0.77538900  0.98945700  1
  H  H34  1  0.77538900  0.50161600  0.48945700  1
  H  H35  1  0.49838400  0.22461100  0.01054300  1
  H  H36  1  0.26371000  0.89477600  0.59818200  1
  H  H37  1  0.10522400  0.73629000  0.90181800  1
  H  H38  1  0.73629000  0.10522400  0.40181800  1
  H  H39  1  0.89477600  0.26371000  0.09818200  1
  H  H40  1  0.28075600  0.72694100  0.63869300  1
  H  H41  1  0.27305900  0.71924400  0.86130700  1
  H  H42  1  0.71924400  0.27305900  0.36130700  1
  H  H43  1  0.72694100  0.28075600  0.13869300  1
  H  H44  1  0.45569700  0.89704000  0.59124300  1
  H  H45  1  0.10296000  0.54430300  0.90875700  1
  H  H46  1  0.54430300  0.10296000  0.40875700  1
  H  H47  1  0.89704000  0.45569700  0.09124300  1
  C  C0  1  0.14006600  0.39676900  0.24737300  1
  C  C1  1  0.60323100  0.85993400  0.25262700  1
  C  C2  1  0.85993400  0.60323100  0.75262700  1
  C  C3  1  0.39676900  0.14006600  0.74737300  1
  C  C4  1  0.30091300  0.35572400  0.33988200  1
  C  C5  1  0.64427600  0.69908700  0.16011800  1
  C  C6  1  0.69908700  0.64427600  0.66011800  1
  C  C7  1  0.35572400  0.30091300  0.83988200  1
  C  C8  1  0.22156700  0.18817700  0.23923500  1
  C  C9  1  0.81182300  0.77843300  0.26076500  1
  C  C10  1  0.77843300  0.81182300  0.76076500  1
  C  C11  1  0.18817700  0.22156700  0.73923500  1
  C  C12  1  0.21303100  0.78172500  0.47552600  1
  C  C13  1  0.21827500  0.78696900  0.02447400  1
  C  C14  1  0.78696900  0.21827500  0.52447400  1
  C  C15  1  0.78172500  0.21303100  0.97552600  1
  C  C16  1  0.33052700  0.61541600  0.51841800  1
  C  C17  1  0.38458400  0.66947300  0.98158200  1
  C  C18  1  0.66947300  0.38458400  0.48158200  1
  C  C19  1  0.61541600  0.33052700  0.01841800  1
  C  C20  1  0.32273400  0.81993900  0.59265300  1
  C  C21  1  0.18006100  0.67726600  0.90734700  1
  C  C22  1  0.67726600  0.18006100  0.40734700  1
  C  C23  1  0.81993900  0.32273400  0.09265300  1
  S  S0  1  0.84193600  0.85403900  0.34312200  1
  S  S1  1  0.14596100  0.15806400  0.15687800  1
  S  S2  1  0.15806400  0.14596100  0.65687800  1
  S  S3  1  0.85403900  0.84193600  0.84312200  1
  S  S4  1  0.30460300  0.07412200  0.27473800  1
  S  S5  1  0.92587800  0.69539700  0.22526200  1
  S  S6  1  0.69539700  0.92587800  0.72526200  1
  S  S7  1  0.07412200  0.30460300  0.77473800  1
  S  S8  1  0.17555700  0.68599100  0.39736200  1
  S  S9  1  0.31400900  0.82444300  0.10263800  1
  S  S10  1  0.82444300  0.31400900  0.60263800  1
  S  S11  1  0.68599100  0.17555700  0.89736200  1
  S  S12  1  0.15926400  0.93121000  0.48358100  1
  S  S13  1  0.06879000  0.84073600  0.01641900  1
  S  S14  1  0.84073600  0.06879000  0.51641900  1
  S  S15  1  0.93121000  0.15926400  0.98358100  1
  N  N0  1  0.22057100  0.30805600  0.27429200  1
  N  N1  1  0.69194400  0.77942900  0.22570800  1
  N  N2  1  0.77942900  0.69194400  0.72570800  1
  N  N3  1  0.30805600  0.22057100  0.77429200  1
  N  N4  1  0.28205400  0.73975800  0.52687000  1
  N  N5  1  0.26024200  0.71794600  0.97313000  1
  N  N6  1  0.71794600  0.26024200  0.47313000  1
  N  N7  1  0.73975800  0.28205400  0.02687000  1
loop_
_geom_bond_atom_site_label_1
_geom_bond_atom_site_label_2
_geom_bond_distance
_geom_bond_site_symmetry_2
C0 H8 1.094421 1_555
C0 H4 1.097861 1_555
C0 H0 1.099758 1_555
C0 N0 1.463689 1_555
C1 H9 1.094421 1_555
C1 H5 1.097861 1_555
C1 H1 1.099758 1_555
C1 N1 1.463689 1_555
C2 H10 1.094421 1_555
C2 H6 1.097861 1_555
C2 H2 1.099758 1_555
C2 N2 1.463689 1_555
C3 H11 1.094421 1_555
C3 H7 1.097861 1_555
C3 H3 1.099758 1_555
C3 N3 1.463689 1_555
C4 H12 1.096530 1_555
C4 H20 1.097899 1_555
C4 H16 1.098045 1_555
C4 N0 1.464309 1_555
C5 H13 1.096530 1_555
C5 H21 1.097899 1_555
C5 H17 1.098045 1_555
C5 N1 1.464309 1_555
C6 H14 1.096530 1_555
C6 H22 1.097899 1_555
C6 H18 1.098045 1_555
C6 N2 1.464309 1_555
C7 H15 1.096530 1_555
C7 H23 1.097899 1_555
C7 H19 1.098045 1_555
C7 N3 1.464309 1_555
C8 N0 1.345637 1_555
C8 S1 1.724508 1_555
C8 S4 1.734150 1_555
C9 N1 1.345637 1_555
C9 S0 1.724508 1_555
C9 S5 1.734150 1_555
C10 N2 1.345637 1_555
C10 S3 1.724508 1_555
C10 S6 1.734150 1_555
C11 N3 1.345637 1_555
C11 S2 1.724508 1_555
C11 S7 1.734150 1_555
C12 N4 1.338113 1_555
C12 S12 1.724905 1_555
C12 S8 1.735011 1_555
C13 N5 1.338113 1_554
C13 S13 1.724905 1_555
C13 S9 1.735011 1_555
C14 N6 1.338113 1_555
C14 S14 1.724905 1_555
C14 S10 1.735011 1_555
C15 N7 1.338113 1_556
C15 S15 1.724905 1_555
C15 S11 1.735011 1_555
C16 H28 1.094053 1_555
C16 H32 1.098550 1_555
C16 H24 1.099444 1_555
C16 N4 1.463380 1_555
C17 H29 1.094053 1_555
C17 H33 1.098550 1_555
C17 H25 1.099444 1_556
C17 N5 1.463380 1_555
C18 H30 1.094053 1_555
C18 H34 1.098550 1_555
C18 H26 1.099444 1_555
C18 N6 1.463380 1_555
C19 H31 1.094053 1_555
C19 H35 1.098550 1_555
C19 H27 1.099444 1_554
C19 N7 1.463380 1_555
C20 H36 1.095801 1_555
C20 H40 1.098432 1_555
C20 H44 1.100884 1_555
C20 N4 1.461313 1_555
C21 H37 1.095801 1_555
C21 H41 1.098432 1_555
C21 H45 1.100884 1_555
C21 N5 1.461313 1_555
C22 H38 1.095801 1_555
C22 H42 1.098432 1_555
C22 H46 1.100884 1_555
C22 N6 1.461313 1_555
C23 H39 1.095801 1_555
C23 H43 1.098432 1_555
C23 H47 1.100884 1_555
C23 N7 1.461313 1_555
S0 Zn0 2.322844 1_655
S1 Zn1 2.322844 1_545
S2 Zn2 2.322844 1_455
S3 Zn3 2.322844 1_565
S4 Zn0 2.384228 1_545
S5 Zn1 2.384228 1_655
S6 Zn2 2.384228 1_565
S7 Zn3 2.384228 1_455
S8 Zn0 2.374949 1_555
S9 Zn1 2.374949 1_555
S10 Zn2 2.374949 1_555
S11 Zn3 2.374949 1_555
S12 Zn0 2.428211 1_555
S13 Zn1 2.428211 1_555
S14 Zn2 2.428211 1_555
S15 Zn3 2.428211 1_555
