# generated using pymatgen
data_Mg14VSi
_symmetry_space_group_name_H-M   'P 1'
_cell_length_a   6.22295474
_cell_length_b   6.22295425
_cell_length_c   10.24124380
_cell_angle_alpha   90.00000000
_cell_angle_beta   90.00000000
_cell_angle_gamma   120.00000258
_symmetry_Int_Tables_number   1
_chemical_formula_structural   Mg14VSi
_chemical_formula_sum   'Mg14 V1 Si1'
_cell_volume   343.46032464
_cell_formula_units_Z   1
loop_
 _symmetry_equiv_pos_site_id
 _symmetry_equiv_pos_as_xyz
  1  'x, y, z'
loop_
 _atom_site_type_symbol
 _atom_site_label
 _atom_site_symmetry_multiplicity
 _atom_site_fract_x
 _atom_site_fract_y
 _atom_site_fract_z
 _atom_site_occupancy
  Mg  Mg0  1  0.16786608  0.83393254  0.12500000  1
  Mg  Mg1  1  0.16505072  0.83252486  0.62500000  1
  Mg  Mg2  1  0.66606746  0.33213392  0.12500000  1
  Mg  Mg3  1  0.66747514  0.33494928  0.62500000  1
  Mg  Mg4  1  0.66606746  0.83393254  0.12500000  1
  Mg  Mg5  1  0.66747514  0.83252486  0.62500000  1
  Mg  Mg6  1  0.32998915  0.17001085  0.37477230  1
  Mg  Mg7  1  0.32998915  0.17001085  0.87522770  1
  Mg  Mg8  1  0.32998915  0.65997930  0.37477230  1
  Mg  Mg9  1  0.32998915  0.65997930  0.87522770  1
  Mg  Mg10  1  0.84002070  0.17001085  0.37477230  1
  Mg  Mg11  1  0.84002070  0.17001085  0.87522770  1
  Mg  Mg12  1  0.83333300  0.66666700  0.37398945  1
  Mg  Mg13  1  0.83333300  0.66666700  0.87601055  1
  V  V0  1  0.16666700  0.33333300  0.12500000  1
  Si  Si0  1  0.16666700  0.33333300  0.62500000  1
loop_
_geom_bond_atom_site_label_1
_geom_bond_atom_site_label_2
_geom_bond_distance
_geom_bond_site_symmetry_2
Mg0 Mg2 3.100284 1_565
Mg0 Mg4 3.100285 1_555
Mg0 V0 3.111484 1_555
Mg0 V0 3.111484 1_565
Mg0 Mg2 3.122670 1_455
Mg0 Mg4 3.122670 1_455
Mg0 Mg13 3.122927 1_454
Mg0 Mg12 3.122927 1_455
Mg0 Mg9 3.134492 1_554
Mg0 Mg8 3.134492 1_555
Mg0 Mg7 3.134498 1_564
Mg0 Mg6 3.134498 1_565
Mg1 Mg3 3.096390 1_455
Mg1 Mg5 3.096390 1_455
Mg1 Si0 3.111489 1_565
Mg1 Si0 3.111489 1_555
Mg1 Mg3 3.126564 1_565
Mg1 Mg5 3.126564 1_555
Mg1 Mg12 3.131163 1_455
Mg1 Mg13 3.131163 1_455
Mg1 Mg8 3.142557 1_555
Mg1 Mg9 3.142557 1_555
Mg1 Mg6 3.142563 1_565
Mg1 Mg7 3.142563 1_565
Mg2 Mg4 3.100284 1_545
Mg2 V0 3.111484 1_555
Mg2 V0 3.111484 1_655
Mg2 Mg4 3.122670 1_555
Mg2 Mg7 3.134498 1_554
Mg2 Mg6 3.134498 1_555
Mg3 Mg5 3.096390 1_555
Mg3 Si0 3.111490 1_655
Mg3 Si0 3.111490 1_555
Mg3 Mg5 3.126564 1_545
Mg3 Mg6 3.142563 1_555
Mg3 Mg7 3.142563 1_555
Mg4 V0 3.111484 1_555
Mg4 V0 3.111484 1_665
Mg4 Mg9 3.134498 1_554
Mg4 Mg8 3.134498 1_555
Mg5 Si0 3.111489 1_665
Mg5 Si0 3.111489 1_555
Mg5 Mg8 3.142563 1_555
Mg5 Mg9 3.142563 1_555
Mg6 Mg8 3.049051 1_555
Mg6 V0 3.105179 1_555
Mg6 Si0 3.109022 1_555
Mg6 Mg8 3.173903 1_545
Mg7 Mg9 3.049051 1_555
Mg7 V0 3.105179 1_556
Mg7 Si0 3.109022 1_555
Mg7 Mg9 3.173903 1_545
Mg8 V0 3.105185 1_555
Mg8 Si0 3.109028 1_555
Mg9 V0 3.105185 1_556
Mg9 Si0 3.109028 1_555
Mg10 Mg8 3.049051 1_655
Mg10 Mg6 3.049051 1_655
Mg10 V0 3.105185 1_655
Mg10 Si0 3.109028 1_655
Mg10 Mg12 3.111696 1_545
Mg10 Mg12 3.111696 1_555
Mg10 Mg2 3.134492 1_555
Mg10 Mg4 3.134498 1_545
Mg10 Mg3 3.142557 1_555
Mg10 Mg5 3.142563 1_545
Mg10 Mg8 3.173903 1_545
Mg10 Mg6 3.173903 1_555
Mg11 Mg9 3.049051 1_655
Mg11 Mg7 3.049051 1_655
Mg11 V0 3.105185 1_656
Mg11 Si0 3.109028 1_655
Mg11 Mg13 3.111696 1_545
Mg11 Mg13 3.111696 1_555
Mg11 Mg2 3.134492 1_556
Mg11 Mg4 3.134498 1_546
Mg11 Mg3 3.142557 1_555
Mg11 Mg5 3.142563 1_545
Mg11 Mg9 3.173903 1_545
Mg11 Mg7 3.173903 1_555
Mg12 Mg6 3.111696 1_665
Mg12 Mg6 3.111696 1_555
Mg12 Mg8 3.111696 1_655
Mg12 Mg8 3.111696 1_555
Mg12 Mg4 3.122921 1_555
Mg12 Mg2 3.122927 1_555
Mg12 Mg5 3.131157 1_555
Mg12 Mg3 3.131163 1_555
Mg13 Mg7 3.111696 1_665
Mg13 Mg7 3.111696 1_555
Mg13 Mg9 3.111696 1_555
Mg13 Mg9 3.111696 1_655
Mg13 Mg4 3.122921 1_556
Mg13 Mg2 3.122927 1_556
Mg13 Mg5 3.131157 1_555
Mg13 Mg3 3.131163 1_555
