# generated using pymatgen
data_Sr4Mn2CuO9
_symmetry_space_group_name_H-M   'P 1'
_cell_length_a   7.80512524
_cell_length_b   9.60181556
_cell_length_c   9.59697424
_cell_angle_alpha   119.77275903
_cell_angle_beta   89.98896265
_cell_angle_gamma   90.13294977
_symmetry_Int_Tables_number   1
_chemical_formula_structural   Sr4Mn2CuO9
_chemical_formula_sum   'Sr12 Mn6 Cu3 O27'
_cell_volume   624.29042725
_cell_formula_units_Z   3
loop_
 _symmetry_equiv_pos_site_id
 _symmetry_equiv_pos_as_xyz
  1  'x, y, z'
loop_
 _atom_site_type_symbol
 _atom_site_label
 _atom_site_symmetry_multiplicity
 _atom_site_fract_x
 _atom_site_fract_y
 _atom_site_fract_z
 _atom_site_occupancy
  Sr  Sr0  1  0.49953292  0.63853737  0.63760382  1
  Sr  Sr1  1  0.50473705  0.34924118  0.99349520  1
  Sr  Sr2  1  0.49469821  0.99381592  0.36048091  1
  Sr  Sr3  1  0.24287377  0.66028961  0.96884253  1
  Sr  Sr4  1  0.25034741  0.01901371  0.68668875  1
  Sr  Sr5  1  0.25017158  0.30375918  0.33162835  1
  Sr  Sr6  1  0.75067805  0.33391270  0.30227971  1
  Sr  Sr7  1  0.75402930  0.68010010  0.01775969  1
  Sr  Sr8  1  0.75295658  0.97143140  0.66703731  1
  Sr  Sr9  1  0.99948958  0.67079402  0.67185916  1
  Sr  Sr10  1  0.99735808  0.32318300  0.99470195  1
  Sr  Sr11  1  0.00349006  0.99401441  0.32645380  1
  Mn  Mn0  1  0.16448177  0.00550814  0.00133694  1
  Mn  Mn1  1  0.83554809  0.00273019  0.00077451  1
  Mn  Mn2  1  0.07452652  0.33722650  0.66861225  1
  Mn  Mn3  1  0.92591139  0.67186923  0.34081915  1
  Mn  Mn4  1  0.40759619  0.33777044  0.66871995  1
  Mn  Mn5  1  0.59301652  0.66931618  0.33741761  1
  Cu  Cu0  1  0.74217050  0.27272911  0.60728081  1
  Cu  Cu1  1  0.25791532  0.60755351  0.27335035  1
  Cu  Cu2  1  0.49999320  0.93960000  0.99961789  1
  O  O0  1  0.99865501  0.14856509  0.15587438  1
  O  O1  1  0.99914980  0.85047765  0.00363359  1
  O  O2  1  0.00176314  0.99567428  0.84873453  1
  O  O3  1  0.27847984  0.17626466  0.00836621  1
  O  O4  1  0.30779944  0.99249940  0.15298487  1
  O  O5  1  0.30795233  0.84815110  0.84193761  1
  O  O6  1  0.69420068  0.83766801  0.84687552  1
  O  O7  1  0.72147892  0.16471882  0.99011466  1
  O  O8  1  0.68889183  0.00352262  0.15760038  1
  O  O9  1  0.24143243  0.16855786  0.51641317  1
  O  O10  1  0.24259372  0.47608087  0.64256434  1
  O  O11  1  0.24349945  0.34208785  0.82154569  1
  O  O12  1  0.75712617  0.82567815  0.34360486  1
  O  O13  1  0.75764327  0.64511549  0.47788379  1
  O  O14  1  0.75774246  0.52090587  0.17198955  1
  O  O15  1  0.06669480  0.50860502  0.32616057  1
  O  O16  1  0.06971681  0.68343982  0.19245268  1
  O  O17  1  0.03652089  0.82884425  0.51087201  1
  O  O18  1  0.96410895  0.50727378  0.82579153  1
  O  O19  1  0.93103581  0.18892519  0.67976217  1
  O  O20  1  0.93211652  0.32250136  0.50560926  1
  O  O21  1  0.45176934  0.50013940  0.31794581  1
  O  O22  1  0.44845916  0.68010772  0.18653000  1
  O  O23  1  0.47521303  0.82524502  0.51086336  1
  O  O24  1  0.52446835  0.51010076  0.82503076  1
  O  O25  1  0.55047152  0.18572879  0.67952785  1
  O  O26  1  0.54949328  0.31772828  0.49957021  1
loop_
_geom_bond_atom_site_label_1
_geom_bond_atom_site_label_2
_geom_bond_distance
_geom_bond_site_symmetry_2
Mn0 O3 1.835169 1_555
Mn0 O4 1.888593 1_545
Mn0 O5 1.894394 1_544
Mn0 O2 1.905142 1_544
Mn0 O0 1.935433 1_455
Mn0 O1 1.976164 1_445
Mn1 O7 1.840340 1_554
Mn1 O8 1.887729 1_555
Mn1 O6 1.891619 1_544
Mn1 O2 1.928263 1_644
Mn1 O0 1.928622 1_555
Mn1 O1 1.953708 1_545
Mn2 O18 1.801137 1_455
Mn2 O19 1.853999 1_455
Mn2 O20 1.866257 1_455
Mn2 O11 1.956558 1_555
Mn2 O10 1.970683 1_555
Mn2 O9 2.028105 1_555
Mn3 O17 1.797810 1_655
Mn3 O16 1.858892 1_655
Mn3 O15 1.863764 1_655
Mn3 O13 1.963296 1_555
Mn3 O12 1.971574 1_555
Mn3 O14 2.027005 1_555
Mn4 O24 1.829975 1_555
Mn4 O25 1.882434 1_555
Mn4 O26 1.894434 1_555
Mn4 O11 1.931942 1_555
Mn4 O10 1.955606 1_555
Mn4 O9 2.022564 1_555
Mn5 O23 1.840800 1_555
Mn5 O22 1.879055 1_555
Mn5 O21 1.891907 1_555
Mn5 O12 1.949582 1_555
Mn5 O13 1.958426 1_555
Mn5 O14 1.991259 1_555
Cu0 O20 1.958999 1_555
Cu0 O19 1.966255 1_555
Cu0 O26 1.990983 1_555
Cu0 O25 1.996572 1_555
Cu1 O15 1.964286 1_555
Cu1 O16 1.964333 1_555
Cu1 O22 1.990620 1_555
Cu1 O21 1.995518 1_555
Cu2 O8 1.980332 1_566
Cu2 O4 1.983652 1_556
Cu2 O5 1.995700 1_555
Cu2 O6 1.996390 1_555
O0 Sr5 2.531974 1_655
O0 Sr6 2.533601 1_555
O0 Sr11 2.701185 1_645
O0 Sr10 2.789154 1_554
O1 Sr3 2.544676 1_654
O1 Sr7 2.561368 1_555
O1 Sr11 2.694100 1_655
O1 Sr9 2.767509 1_554
O2 Sr8 2.542077 1_455
O2 Sr4 2.564399 1_565
O2 Sr9 2.711760 1_455
O2 Sr10 2.734616 1_465
O3 Sr1 2.473712 1_554
O3 Sr10 2.649507 1_454
O3 Sr4 2.688477 1_554
O3 Sr5 2.720520 1_555
O4 Sr2 2.463658 1_555
O4 Sr5 2.644050 1_565
O4 Sr3 2.819450 1_554
O4 Sr11 2.896157 1_555
O5 Sr0 2.495081 1_555
O5 Sr3 2.678115 1_555
O5 Sr4 2.746775 1_565
O5 Sr9 2.929627 1_455
O6 Sr0 2.484357 1_555
O6 Sr8 2.652749 1_555
O6 Sr7 2.768435 1_556
O6 Sr9 2.899956 1_555
O7 Sr1 2.441064 1_555
O7 Sr6 2.613673 1_556
O7 Sr10 2.621435 1_555
O7 Sr8 2.721267 1_545
O8 Sr2 2.505083 1_545
O8 Sr7 2.751622 1_545
O8 Sr6 2.800522 1_555
O8 Sr11 2.968699 1_645
O9 Sr2 2.546151 1_545
O9 Sr11 2.556145 1_545
O9 Sr4 2.658539 1_555
O9 Sr5 2.668454 1_555
O10 Sr0 2.552739 1_555
O10 Sr9 2.582449 1_455
O10 Sr5 2.596664 1_555
O10 Sr3 2.726358 1_555
O11 Sr1 2.602582 1_555
O11 Sr10 2.604236 1_455
O11 Sr3 2.654056 1_555
O11 Sr4 2.704521 1_555
O12 Sr2 2.565856 1_555
O12 Sr11 2.566485 1_655
O12 Sr8 2.698212 1_555
O12 Sr7 2.718858 1_555
O13 Sr0 2.550779 1_555
O13 Sr9 2.575424 1_555
O13 Sr6 2.601930 1_555
O13 Sr8 2.732331 1_555
O14 Sr1 2.594789 1_554
O14 Sr7 2.602934 1_555
O14 Sr10 2.608489 1_554
O14 Sr6 2.649408 1_555
O15 Sr5 2.457196 1_555
O15 Sr10 2.820132 1_454
O15 Sr6 2.923898 1_455
O15 Sr9 2.929037 1_455
O16 Sr3 2.451075 1_554
O16 Sr11 2.648038 1_555
O16 Sr7 2.971665 1_455
O16 Sr10 3.059068 1_454
O17 Sr4 2.427696 1_565
O17 Sr8 2.644632 1_455
O17 Sr9 2.664554 1_455
O17 Sr11 2.916108 1_555
O18 Sr7 2.410759 1_556
O18 Sr3 2.600115 1_655
O18 Sr9 2.650503 1_555
O18 Sr10 2.944051 1_555
O19 Sr8 2.457903 1_545
O19 Sr10 2.681994 1_555
O19 Sr4 3.000685 1_655
O19 Sr11 3.003538 1_645
O20 Sr6 2.457513 1_555
O20 Sr11 2.799428 1_645
O20 Sr5 2.947019 1_655
O20 Sr9 2.949444 1_555
O21 Sr5 2.506131 1_555
O21 Sr0 2.695459 1_555
O21 Sr1 2.736318 1_554
O21 Sr6 2.791394 1_555
O22 Sr3 2.565266 1_554
O22 Sr2 2.644156 1_555
O22 Sr1 2.806945 1_554
O22 Sr7 2.882717 1_555
O23 Sr4 2.507074 1_565
O23 Sr8 2.610345 1_555
O23 Sr0 2.626135 1_555
O23 Sr2 2.654149 1_555
O24 Sr7 2.507030 1_556
O24 Sr3 2.617642 1_555
O24 Sr0 2.645447 1_555
O24 Sr1 2.738974 1_555
O25 Sr8 2.552658 1_545
O25 Sr1 2.641101 1_555
O25 Sr2 2.711762 1_545
O25 Sr4 2.854173 1_555
O26 Sr6 2.522849 1_555
O26 Sr0 2.710782 1_555
O26 Sr2 2.740214 1_545
O26 Sr5 2.803393 1_555
