# generated using pymatgen
data_La6TlCo13
_symmetry_space_group_name_H-M   'P 1'
_cell_length_a   8.07401800
_cell_length_b   8.07401800
_cell_length_c   13.01424687
_cell_angle_alpha   108.07123576
_cell_angle_beta   108.07123576
_cell_angle_gamma   90.00000000
_symmetry_Int_Tables_number   1
_chemical_formula_structural   La6TlCo13
_chemical_formula_sum   'La12 Tl2 Co26'
_cell_volume   762.40188315
_cell_formula_units_Z   2
loop_
 _symmetry_equiv_pos_site_id
 _symmetry_equiv_pos_as_xyz
  1  'x, y, z'
loop_
 _atom_site_type_symbol
 _atom_site_label
 _atom_site_symmetry_multiplicity
 _atom_site_fract_x
 _atom_site_fract_y
 _atom_site_fract_z
 _atom_site_occupancy
  La  La0  1  0.59874200  0.59874200  0.19748300  1
  La  La1  1  0.09874200  0.09874200  0.19748300  1
  La  La2  1  0.40125800  0.40125800  0.80251700  1
  La  La3  1  0.90125800  0.90125800  0.80251700  1
  La  La4  1  0.98493400  0.48493400  0.64545600  1
  La  La5  1  0.66052100  0.16052100  0.64545600  1
  La  La6  1  0.16052100  0.98493400  0.64545600  1
  La  La7  1  0.48493400  0.66052100  0.64545600  1
  La  La8  1  0.01506600  0.51506600  0.35454400  1
  La  La9  1  0.33947900  0.83947900  0.35454400  1
  La  La10  1  0.83947900  0.01506600  0.35454400  1
  La  La11  1  0.51506600  0.33947900  0.35454400  1
  Tl  Tl0  1  0.25000000  0.25000000  0.50000000  1
  Tl  Tl1  1  0.75000000  0.75000000  0.50000000  1
  Co  Co0  1  0.00000000  0.50000000  0.00000000  1
  Co  Co1  1  0.50000000  0.00000000  0.00000000  1
  Co  Co2  1  0.71377500  0.56467000  0.00000000  1
  Co  Co3  1  0.28622500  0.43533000  0.00000000  1
  Co  Co4  1  0.78622500  0.06467000  0.00000000  1
  Co  Co5  1  0.21377500  0.93533000  0.00000000  1
  Co  Co6  1  0.56467000  0.28622500  0.00000000  1
  Co  Co7  1  0.43533000  0.71377500  0.00000000  1
  Co  Co8  1  0.06467000  0.21377500  0.00000000  1
  Co  Co9  1  0.93533000  0.78622500  0.00000000  1
  Co  Co10  1  0.12166500  0.62166500  0.89029500  1
  Co  Co11  1  0.76863000  0.26863000  0.89029500  1
  Co  Co12  1  0.26863000  0.12166500  0.89029500  1
  Co  Co13  1  0.62166500  0.76863000  0.89029500  1
  Co  Co14  1  0.87833500  0.37833500  0.10970500  1
  Co  Co15  1  0.23137000  0.73137000  0.10970500  1
  Co  Co16  1  0.73137000  0.87833500  0.10970500  1
  Co  Co17  1  0.37833500  0.23137000  0.10970500  1
  Co  Co18  1  0.29912200  0.79912200  0.82489200  1
  Co  Co19  1  0.52577000  0.02577000  0.82489200  1
  Co  Co20  1  0.02577000  0.29912200  0.82489200  1
  Co  Co21  1  0.79912200  0.52577000  0.82489200  1
  Co  Co22  1  0.70087800  0.20087800  0.17510800  1
  Co  Co23  1  0.47423000  0.97423000  0.17510800  1
  Co  Co24  1  0.97423000  0.70087800  0.17510800  1
  Co  Co25  1  0.20087800  0.47423000  0.17510800  1
loop_
_geom_bond_atom_site_label_1
_geom_bond_atom_site_label_2
_geom_bond_distance
_geom_bond_site_symmetry_2
La0 Tl1 3.537971 1_555
La1 Tl0 3.537971 1_555
La2 Tl0 3.537971 1_555
La3 Tl1 3.537971 1_555
La4 Tl0 3.470949 1_655
La4 Tl1 3.470949 1_555
La5 Tl1 3.470945 1_545
La5 Tl0 3.470945 1_555
La6 Tl1 3.470942 1_455
La6 Tl0 3.470952 1_565
La7 Tl0 3.470942 1_555
La7 Tl1 3.470952 1_555
La8 Tl1 3.470949 1_455
La8 Tl0 3.470949 1_555
La9 Tl0 3.470945 1_565
La9 Tl1 3.470945 1_555
La10 Tl0 3.470942 1_655
La10 Tl1 3.470952 1_545
La11 Tl1 3.470942 1_555
La11 Tl0 3.470952 1_555
Co0 Co2 2.369239 1_455
Co0 Co9 2.369239 1_455
Co0 Co8 2.369239 1_555
Co0 Co3 2.369239 1_555
Co0 Co11 2.389256 1_454
Co0 Co15 2.389256 1_555
Co0 Co14 2.389256 1_455
Co0 Co10 2.389256 1_554
Co0 Co24 2.422459 1_455
Co0 Co21 2.422459 1_454
Co0 Co20 2.422459 1_554
Co0 Co25 2.422459 1_555
Co1 Co4 2.369239 1_555
Co1 Co7 2.369239 1_545
Co1 Co5 2.369239 1_545
Co1 Co6 2.369239 1_555
Co1 Co16 2.389256 1_545
Co1 Co17 2.389256 1_555
Co1 Co13 2.389256 1_544
Co1 Co12 2.389256 1_554
Co1 Co23 2.422459 1_545
Co1 Co19 2.422459 1_554
Co1 Co22 2.422459 1_555
Co1 Co18 2.422459 1_544
Co2 Co24 2.509398 1_555
Co2 Co21 2.509398 1_554
Co2 Co9 2.529800 1_555
Co2 Co7 2.550213 1_555
Co2 Co6 2.550213 1_555
Co2 La0 2.930182 1_555
Co2 La2 2.930188 1_554
Co3 Co8 2.529800 1_555
Co3 Co6 2.550213 1_555
Co3 Co7 2.550213 1_555
Co3 La2 2.930182 1_554
Co3 La0 2.930188 1_555
Co4 Co6 2.529800 1_555
Co4 Co9 2.550213 1_545
Co4 Co8 2.550213 1_655
Co4 La3 2.930183 1_544
Co4 La1 2.930187 1_655
Co5 Co7 2.529800 1_555
Co5 Co9 2.550213 1_455
Co5 Co8 2.550213 1_565
Co5 La1 2.930183 1_565
Co5 La3 2.930187 1_454
Co6 La2 2.930183 1_554
Co6 La0 2.930187 1_555
Co7 La0 2.930183 1_555
Co7 La2 2.930187 1_554
Co8 La1 2.930182 1_555
Co8 La3 2.930188 1_444
Co9 La3 2.930182 1_554
Co9 La1 2.930188 1_665
Co10 Co5 2.470481 1_556
Co10 Co7 2.470481 1_556
Co10 Co9 2.494576 1_456
Co10 Co3 2.494576 1_556
Co10 Co21 2.514332 1_455
Co10 Co20 2.514332 1_555
Co10 Co18 2.518628 1_555
Co10 Co15 2.566025 1_556
Co10 La4 2.868080 1_455
Co10 La2 3.147471 1_555
Co10 La3 3.147471 1_455
Co11 Co4 2.470481 1_556
Co11 Co6 2.470481 1_556
Co11 Co8 2.494576 1_656
Co11 Co2 2.494576 1_556
Co11 Co21 2.514332 1_555
Co11 Co20 2.514332 1_655
Co11 Co19 2.518628 1_555
Co11 Co14 2.566025 1_556
Co11 La5 2.868079 1_555
Co11 La3 3.147474 1_545
Co11 La2 3.147474 1_555
Co12 Co3 2.470481 1_556
Co12 Co8 2.470481 1_556
Co12 Co6 2.494576 1_556
Co12 Co5 2.494576 1_546
Co12 Co19 2.514332 1_555
Co12 Co18 2.514332 1_545
Co12 Co20 2.518628 1_555
Co12 Co17 2.566025 1_556
Co12 La6 2.868079 1_545
Co12 La2 3.147467 1_555
Co12 La3 3.147478 1_445
Co13 Co9 2.470481 1_556
Co13 Co2 2.470481 1_556
Co13 Co4 2.494576 1_566
Co13 Co7 2.494576 1_556
Co13 Co19 2.514332 1_565
Co13 Co18 2.514332 1_555
Co13 Co21 2.518628 1_555
Co13 Co16 2.566025 1_556
Co13 La7 2.868079 1_555
Co13 La3 3.147467 1_555
Co13 La2 3.147478 1_555
Co14 Co6 2.470481 1_555
Co14 Co4 2.470481 1_555
Co14 Co2 2.494576 1_555
Co14 Co8 2.494576 1_655
Co14 Co25 2.514332 1_655
Co14 Co24 2.514332 1_555
Co14 Co22 2.518628 1_555
Co14 La8 2.868080 1_655
Co14 La0 3.147471 1_555
Co14 La1 3.147471 1_655
Co15 Co7 2.470481 1_555
Co15 Co5 2.470481 1_555
Co15 Co3 2.494576 1_555
Co15 Co9 2.494576 1_455
Co15 Co24 2.514332 1_455
Co15 Co25 2.514332 1_555
Co15 Co23 2.518628 1_555
Co15 La9 2.868079 1_555
Co15 La0 3.147474 1_555
Co15 La1 3.147474 1_565
Co16 Co2 2.470481 1_555
Co16 Co9 2.470481 1_555
Co16 Co4 2.494576 1_565
Co16 Co7 2.494576 1_555
Co16 Co22 2.514332 1_565
Co16 Co23 2.514332 1_555
Co16 Co24 2.518628 1_555
Co16 La10 2.868079 1_565
Co16 La0 3.147467 1_555
Co16 La1 3.147478 1_665
Co17 Co3 2.470481 1_555
Co17 Co8 2.470481 1_555
Co17 Co6 2.494576 1_555
Co17 Co5 2.494576 1_545
Co17 Co23 2.514332 1_545
Co17 Co22 2.514332 1_555
Co17 Co25 2.518628 1_555
Co17 La11 2.868079 1_555
Co17 La1 3.147467 1_555
Co17 La0 3.147478 1_555
Co18 Co7 2.509398 1_556
Co18 Co5 2.509398 1_556
Co18 Co19 2.587954 1_565
Co18 La7 3.083598 1_555
Co18 La6 3.083598 1_555
Co18 La2 3.263855 1_555
Co18 La3 3.263855 1_455
Co18 La4 3.312584 1_455
Co19 Co6 2.509398 1_556
Co19 Co4 2.509398 1_556
Co19 La6 3.083603 1_545
Co19 La7 3.083603 1_545
Co19 La2 3.263849 1_555
Co19 La3 3.263849 1_545
Co19 La5 3.312575 1_555
Co20 Co3 2.509398 1_556
Co20 Co8 2.509398 1_556
Co20 Co21 2.587954 1_455
Co20 La4 3.083597 1_455
Co20 La5 3.083604 1_455
Co20 La2 3.263847 1_555
Co20 La3 3.263857 1_445
Co20 La6 3.312579 1_545
Co21 Co9 2.509398 1_556
Co21 La4 3.083597 1_555
Co21 La5 3.083604 1_555
Co21 La3 3.263847 1_555
Co21 La2 3.263857 1_555
Co21 La7 3.312579 1_555
Co22 Co4 2.509398 1_555
Co22 Co6 2.509398 1_555
Co22 Co23 2.587954 1_545
Co22 La10 3.083598 1_555
Co22 La11 3.083598 1_555
Co22 La0 3.263855 1_555
Co22 La1 3.263855 1_655
Co22 La8 3.312584 1_655
Co23 Co7 2.509398 1_555
Co23 Co5 2.509398 1_555
Co23 La11 3.083603 1_565
Co23 La10 3.083603 1_565
Co23 La1 3.263849 1_565
Co23 La0 3.263849 1_555
Co23 La9 3.312575 1_555
Co24 Co9 2.509398 1_555
Co24 Co25 2.587954 1_655
Co24 La8 3.083597 1_655
Co24 La9 3.083604 1_655
Co24 La0 3.263847 1_555
Co24 La1 3.263857 1_665
Co24 La10 3.312579 1_565
Co25 Co8 2.509398 1_555
Co25 Co3 2.509398 1_555
Co25 La8 3.083597 1_555
Co25 La9 3.083604 1_555
Co25 La1 3.263847 1_555
Co25 La0 3.263857 1_555
Co25 La11 3.312579 1_555
