# generated using pymatgen
data_Hf4Cr
_symmetry_space_group_name_H-M   'P 1'
_cell_length_a   6.82575126
_cell_length_b   6.82575126
_cell_length_c   6.82575126
_cell_angle_alpha   60.00000000
_cell_angle_beta   60.00000000
_cell_angle_gamma   60.00000000
_symmetry_Int_Tables_number   1
_chemical_formula_structural   Hf4Cr
_chemical_formula_sum   'Hf8 Cr2'
_cell_volume   224.87251403
_cell_formula_units_Z   2
loop_
 _symmetry_equiv_pos_site_id
 _symmetry_equiv_pos_as_xyz
  1  'x, y, z'
loop_
 _atom_site_type_symbol
 _atom_site_label
 _atom_site_symmetry_multiplicity
 _atom_site_fract_x
 _atom_site_fract_y
 _atom_site_fract_z
 _atom_site_occupancy
  Hf  Hf0  1  0.60847100  0.60847100  0.60847100  1
  Hf  Hf1  1  0.17458700  0.60847100  0.60847100  1
  Hf  Hf2  1  0.60847100  0.17458700  0.60847100  1
  Hf  Hf3  1  0.57541300  0.14152900  0.14152900  1
  Hf  Hf4  1  0.14152900  0.14152900  0.14152900  1
  Hf  Hf5  1  0.60847100  0.60847100  0.17458700  1
  Hf  Hf6  1  0.14152900  0.57541300  0.14152900  1
  Hf  Hf7  1  0.14152900  0.14152900  0.57541300  1
  Cr  Cr0  1  0.00000000  0.00000000  0.00000000  1
  Cr  Cr1  1  0.75000000  0.75000000  0.75000000  1
loop_
_geom_bond_atom_site_label_1
_geom_bond_atom_site_label_2
_geom_bond_distance
_geom_bond_site_symmetry_2
Cr0 Hf6 2.366309 1_545
Cr0 Hf7 2.366309 1_554
Cr0 Hf4 2.366309 1_555
Cr0 Hf3 2.366309 1_455
Cr1 Hf5 2.366309 1_556
Cr1 Hf2 2.366309 1_565
Cr1 Hf1 2.366309 1_655
Cr1 Hf0 2.366309 1_555
