# generated using pymatgen
data_LiTl
_symmetry_space_group_name_H-M   'P 1'
_cell_length_a   8.15239107
_cell_length_b   8.15239107
_cell_length_c   8.17093000
_cell_angle_alpha   90.00000000
_cell_angle_beta   90.00000000
_cell_angle_gamma   93.55831826
_symmetry_Int_Tables_number   1
_chemical_formula_structural   LiTl
_chemical_formula_sum   'Li12 Tl12'
_cell_volume   542.00517497
_cell_formula_units_Z   12
loop_
 _symmetry_equiv_pos_site_id
 _symmetry_equiv_pos_as_xyz
  1  'x, y, z'
loop_
 _atom_site_type_symbol
 _atom_site_label
 _atom_site_symmetry_multiplicity
 _atom_site_fract_x
 _atom_site_fract_y
 _atom_site_fract_z
 _atom_site_occupancy
  Li  Li0  1  0.60036500  0.10036500  0.75000000  1
  Li  Li1  1  0.89963500  0.39963500  0.25000000  1
  Li  Li2  1  0.39963500  0.89963500  0.25000000  1
  Li  Li3  1  0.10036500  0.60036500  0.75000000  1
  Li  Li4  1  0.34404500  0.65595500  0.50000000  1
  Li  Li5  1  0.84404500  0.15595500  0.00000000  1
  Li  Li6  1  0.65595500  0.34404500  0.50000000  1
  Li  Li7  1  0.15595500  0.84404500  0.00000000  1
  Li  Li8  1  0.31738400  0.31738400  0.39397000  1
  Li  Li9  1  0.68261600  0.68261600  0.60603000  1
  Li  Li10  1  0.18261600  0.18261600  0.89397000  1
  Li  Li11  1  0.81738400  0.81738400  0.10603000  1
  Tl  Tl0  1  0.29072000  0.99184000  0.59300800  1
  Tl  Tl1  1  0.00816000  0.70928000  0.40699200  1
  Tl  Tl2  1  0.50816000  0.20928000  0.09300800  1
  Tl  Tl3  1  0.79072000  0.49184000  0.90699200  1
  Tl  Tl4  1  0.70928000  0.00816000  0.40699200  1
  Tl  Tl5  1  0.99184000  0.29072000  0.59300800  1
  Tl  Tl6  1  0.49184000  0.79072000  0.90699200  1
  Tl  Tl7  1  0.20928000  0.50816000  0.09300800  1
  Tl  Tl8  1  0.91161400  0.91161400  0.76038700  1
  Tl  Tl9  1  0.08838600  0.08838600  0.23961300  1
  Tl  Tl10  1  0.58838600  0.58838600  0.26038700  1
  Tl  Tl11  1  0.41161400  0.41161400  0.73961300  1
loop_
_geom_bond_atom_site_label_1
_geom_bond_atom_site_label_2
_geom_bond_distance
_geom_bond_site_symmetry_2
Li0 Li5 2.865810 1_556
Li0 Li6 2.865810 1_555
Li0 Tl0 2.919480 1_545
Li0 Tl6 2.919480 1_545
Li0 Tl2 3.048177 1_556
Li0 Tl4 3.048177 1_555
Li0 Tl11 3.049296 1_555
Li0 Tl8 3.049296 1_545
Li1 Li6 2.865810 1_555
Li1 Li5 2.865810 1_555
Li1 Tl7 2.919480 1_655
Li1 Tl1 2.919480 1_655
Li1 Tl5 3.048177 1_555
Li1 Tl3 3.048177 1_554
Li1 Tl9 3.049296 1_655
Li1 Tl10 3.049296 1_555
Li2 Li4 2.865810 1_555
Li2 Li7 2.865810 1_555
Li2 Tl4 2.919480 1_565
Li2 Tl2 2.919480 1_565
Li2 Tl0 3.048177 1_555
Li2 Tl6 3.048177 1_554
Li2 Tl9 3.049296 1_565
Li2 Tl10 3.049296 1_555
Li3 Li7 2.865810 1_556
Li3 Li4 2.865810 1_555
Li3 Tl5 2.919480 1_455
Li3 Tl3 2.919480 1_455
Li3 Tl7 3.048177 1_556
Li3 Tl1 3.048177 1_555
Li3 Tl11 3.049296 1_555
Li3 Tl8 3.049296 1_455
Li4 Tl11 2.870675 1_555
Li4 Tl10 2.870675 1_555
Li4 Li8 2.888228 1_555
Li4 Li9 2.888228 1_555
Li4 Tl0 2.900412 1_555
Li4 Tl1 2.900412 1_555
Li5 Tl9 2.870675 1_655
Li5 Tl8 2.870675 1_544
Li5 Tl2 2.900412 1_555
Li5 Tl3 2.900412 1_554
Li6 Tl11 2.870675 1_555
Li6 Tl10 2.870675 1_555
Li6 Li8 2.888228 1_555
Li6 Li9 2.888228 1_555
Li6 Tl5 2.900412 1_555
Li6 Tl4 2.900412 1_555
Li7 Tl9 2.870675 1_565
Li7 Tl8 2.870675 1_454
Li7 Tl7 2.900412 1_555
Li7 Tl6 2.900412 1_554
Li8 Tl9 2.851070 1_555
Li8 Tl11 3.013844 1_555
Li8 Tl7 3.068078 1_555
Li8 Tl2 3.068078 1_555
Li8 Tl5 3.108712 1_455
Li8 Tl0 3.108712 1_545
Li8 Tl10 3.216772 1_555
Li9 Tl8 2.851070 1_555
Li9 Tl10 3.013844 1_555
Li9 Tl3 3.068078 1_555
Li9 Tl6 3.068078 1_555
Li9 Tl4 3.108712 1_565
Li9 Tl1 3.108712 1_655
Li9 Tl11 3.216772 1_555
Li10 Tl11 2.851070 1_555
Li10 Li7 2.888228 1_546
Li10 Li5 2.888228 1_456
Li10 Tl9 3.013844 1_556
Li10 Tl5 3.068078 1_455
Li10 Tl0 3.068078 1_545
Li10 Tl2 3.108712 1_556
Li10 Tl7 3.108712 1_556
Li10 Tl8 3.216772 1_445
Li11 Tl10 2.851070 1_555
Li11 Li7 2.888228 1_655
Li11 Li5 2.888228 1_565
Li11 Tl8 3.013844 1_554
Li11 Tl1 3.068078 1_655
Li11 Tl4 3.068078 1_565
Li11 Tl6 3.108712 1_554
Li11 Tl3 3.108712 1_554
Li11 Tl9 3.216772 1_665
