# generated using pymatgen
data_TmO2
_symmetry_space_group_name_H-M   'P 1'
_cell_length_a   3.57948600
_cell_length_b   4.14811000
_cell_length_c   6.06626335
_cell_angle_alpha   72.42129661
_cell_angle_beta   90.00000000
_cell_angle_gamma   90.00000000
_symmetry_Int_Tables_number   1
_chemical_formula_structural   TmO2
_chemical_formula_sum   'Tm2 O4'
_cell_volume   85.86637894
_cell_formula_units_Z   2
loop_
 _symmetry_equiv_pos_site_id
 _symmetry_equiv_pos_as_xyz
  1  'x, y, z'
loop_
 _atom_site_type_symbol
 _atom_site_label
 _atom_site_symmetry_multiplicity
 _atom_site_fract_x
 _atom_site_fract_y
 _atom_site_fract_z
 _atom_site_occupancy
  Tm  Tm0  1  0.25000000  0.16973200  0.18554500  1
  Tm  Tm1  1  0.75000000  0.83026800  0.81445500  1
  O  O0  1  0.25000000  0.81593100  0.55351900  1
  O  O1  1  0.75000000  0.18406900  0.44648100  1
  O  O2  1  0.25000000  0.73309000  0.04752400  1
  O  O3  1  0.75000000  0.26691000  0.95247600  1
loop_
_geom_bond_atom_site_label_1
_geom_bond_atom_site_label_2
_geom_bond_distance
_geom_bond_site_symmetry_2
O0 Tm0 2.271097 1_565
O0 Tm1 2.401910 1_555
O0 Tm1 2.401910 1_455
O1 Tm1 2.271097 1_545
O1 Tm0 2.401910 1_555
O1 Tm0 2.401910 1_655
O2 Tm0 2.213058 1_565
O2 Tm0 2.231624 1_555
O2 Tm1 2.240627 1_454
O2 Tm1 2.240627 1_554
O3 Tm1 2.213058 1_545
O3 Tm1 2.231624 1_555
O3 Tm0 2.240627 1_656
O3 Tm0 2.240627 1_556
