# generated using pymatgen
data_YMn(WO4)2
_symmetry_space_group_name_H-M   'P 1'
_cell_length_a   5.26217270
_cell_length_b   6.85477275
_cell_length_c   9.86397152
_cell_angle_alpha   89.18355577
_cell_angle_beta   74.69601866
_cell_angle_gamma   69.88724799
_symmetry_Int_Tables_number   1
_chemical_formula_structural   YMn(WO4)2
_chemical_formula_sum   'Y2 Mn2 W4 O16'
_cell_volume   321.10600991
_cell_formula_units_Z   2
loop_
 _symmetry_equiv_pos_site_id
 _symmetry_equiv_pos_as_xyz
  1  'x, y, z'
loop_
 _atom_site_type_symbol
 _atom_site_label
 _atom_site_symmetry_multiplicity
 _atom_site_fract_x
 _atom_site_fract_y
 _atom_site_fract_z
 _atom_site_occupancy
  Y  Y0  1  0.52972000  0.41767600  0.68758900  1
  Y  Y1  1  0.52981500  0.91757900  0.18761200  1
  Mn  Mn0  1  0.00546300  0.26598400  0.88688000  1
  Mn  Mn1  1  0.00554500  0.76580400  0.38690200  1
  W  W0  1  0.29344300  0.47772600  0.10546400  1
  W  W1  1  0.29338500  0.97777800  0.60546800  1
  W  W2  1  0.76668900  0.83029900  0.77938400  1
  W  W3  1  0.76682400  0.33019300  0.27937800  1
  O  O0  1  0.28655200  0.74707300  0.10922600  1
  O  O1  1  0.28643100  0.24713600  0.60925600  1
  O  O2  1  0.27943800  0.41071500  0.91455500  1
  O  O3  1  0.27943700  0.91071600  0.41455700  1
  O  O4  1  0.36883700  0.47755300  0.30959500  1
  O  O5  1  0.36868400  0.97761400  0.80961200  1
  O  O6  1  0.17674300  0.22266300  0.17606700  1
  O  O7  1  0.17661400  0.72272800  0.67603800  1
  O  O8  1  0.77455600  0.88312100  0.95659200  1
  O  O9  1  0.77462000  0.38302900  0.45660200  1
  O  O10  1  0.76891000  0.55583000  0.79678500  1
  O  O11  1  0.76903300  0.05572600  0.29677600  1
  O  O12  1  0.69838400  0.30176800  0.07342700  1
  O  O13  1  0.69833000  0.80177000  0.57340200  1
  O  O14  1  0.85122400  0.59702700  0.21322000  1
  O  O15  1  0.85112400  0.09708500  0.71321400  1
loop_
_geom_bond_atom_site_label_1
_geom_bond_atom_site_label_2
_geom_bond_distance
_geom_bond_site_symmetry_2
Mn0 O12 2.056190 1_456
Mn0 O2 2.082412 1_555
Mn0 O5 2.194776 1_545
Mn0 O10 2.262630 1_455
Mn0 O15 2.524306 1_455
Mn0 O1 2.728244 1_555
Mn1 O13 2.056063 1_455
Mn1 O3 2.082849 1_555
Mn1 O4 2.194508 1_555
Mn1 O11 2.263071 1_465
Mn1 O14 2.523881 1_455
Mn1 O0 2.728839 1_555
O0 W0 1.834873 1_555
O0 Y1 2.275896 1_555
O1 W1 1.834846 1_545
O1 Y0 2.275916 1_555
O2 W0 1.970727 1_556
O2 Y0 2.287509 1_555
O3 W1 1.970726 1_555
O3 Y1 2.287365 1_555
O4 W3 1.928563 1_555
O4 W0 2.152454 1_555
O5 W2 1.928584 1_555
O5 W1 2.152369 1_555
O6 W3 2.000568 1_455
O6 W0 2.096896 1_555
O6 Y1 2.295877 1_545
O7 W2 2.000675 1_455
O7 W1 2.096918 1_555
O7 Y0 2.295844 1_555
O8 W2 1.804100 1_555
O8 Y1 2.272475 1_556
O9 W3 1.804146 1_555
O9 Y0 2.272320 1_555
O10 W2 1.883104 1_555
O10 Y0 2.281600 1_555
O11 W3 1.883108 1_555
O11 Y1 2.281495 1_545
O12 W0 1.995765 1_555
O12 W3 2.177244 1_555
O13 W1 1.995832 1_555
O13 W2 2.177469 1_555
O14 W3 2.083348 1_555
O14 W0 2.150337 1_655
O14 Y1 2.325156 1_555
O15 W2 2.083145 1_545
O15 W1 2.150498 1_645
O15 Y0 2.325378 1_555
