# generated using pymatgen
data_Li3Mn2CoO6
_symmetry_space_group_name_H-M   'P 1'
_cell_length_a   5.30547077
_cell_length_b   6.56781670
_cell_length_c   6.56094993
_cell_angle_alpha   96.90008332
_cell_angle_beta   85.17623221
_cell_angle_gamma   94.79997981
_symmetry_Int_Tables_number   1
_chemical_formula_structural   Li3Mn2CoO6
_chemical_formula_sum   'Li6 Mn4 Co2 O12'
_cell_volume   225.53253965
_cell_formula_units_Z   2
loop_
 _symmetry_equiv_pos_site_id
 _symmetry_equiv_pos_as_xyz
  1  'x, y, z'
loop_
 _atom_site_type_symbol
 _atom_site_label
 _atom_site_symmetry_multiplicity
 _atom_site_fract_x
 _atom_site_fract_y
 _atom_site_fract_z
 _atom_site_occupancy
  Li  Li0  1  0.24836300  0.74895100  0.25072500  1
  Li  Li1  1  0.75160900  0.25107500  0.74929300  1
  Li  Li2  1  0.77774700  0.92429700  0.40767200  1
  Li  Li3  1  0.22194100  0.40735400  0.92425300  1
  Li  Li4  1  0.22221800  0.07572600  0.59237000  1
  Li  Li5  1  0.77803800  0.59266300  0.07576100  1
  Mn  Mn0  1  0.99983000  0.66777800  0.66814600  1
  Mn  Mn1  1  0.50006100  0.16571900  0.16549100  1
  Mn  Mn2  1  0.00020800  0.33221800  0.33184500  1
  Mn  Mn3  1  0.49992300  0.83425900  0.83451400  1
  Co  Co0  1  0.50002000  0.49999400  0.50000400  1
  Co  Co1  1  0.99998100  0.99998700  0.99999900  1
  O  O0  1  0.60836800  0.88263900  0.11743800  1
  O  O1  1  0.10891600  0.38585700  0.61417000  1
  O  O2  1  0.39160500  0.11735200  0.88257600  1
  O  O3  1  0.89112000  0.61413300  0.38580500  1
  O  O4  1  0.11679600  0.06014400  0.29573800  1
  O  O5  1  0.65962900  0.56785400  0.77785300  1
  O  O6  1  0.65961800  0.22237000  0.43225400  1
  O  O7  1  0.11693500  0.70393800  0.94019500  1
  O  O8  1  0.34040800  0.77763600  0.56772100  1
  O  O9  1  0.88306600  0.29605600  0.05978100  1
  O  O10  1  0.88320600  0.93984200  0.70425900  1
  O  O11  1  0.34039300  0.43215600  0.22213500  1
loop_
_geom_bond_atom_site_label_1
_geom_bond_atom_site_label_2
_geom_bond_distance
_geom_bond_site_symmetry_2
Li0 O8 2.158886 1_555
Li0 O11 2.159522 1_555
Li0 O7 2.187281 1_554
Li0 O3 2.187920 1_455
Li0 O0 2.192416 1_555
Li0 O4 2.193370 1_565
Li1 O6 2.159068 1_555
Li1 O5 2.159349 1_555
Li1 O9 2.187081 1_556
Li1 O1 2.188208 1_655
Li1 O2 2.192488 1_555
Li1 O10 2.193678 1_545
Li2 O10 2.058102 1_555
Li2 O4 2.058589 1_665
Li2 O6 2.088975 1_565
Li2 O0 2.151717 1_555
Li2 O3 2.156962 1_555
Li3 O9 2.055427 1_456
Li3 O7 2.058766 1_555
Li3 O11 2.086636 1_556
Li3 O2 2.152495 1_555
Li3 O1 2.154170 1_555
Li4 O4 2.058297 1_555
Li4 O10 2.058430 1_445
Li4 O8 2.089176 1_545
Li4 O2 2.151574 1_555
Li4 O1 2.156652 1_555
Li5 O7 2.055571 1_654
Li5 O9 2.058930 1_555
Li5 O5 2.086711 1_554
Li5 O0 2.152356 1_555
Li5 O3 2.154043 1_555
Mn0 O7 1.920479 1_655
Mn0 O10 1.921074 1_555
Mn0 O1 1.968788 1_655
Mn0 O3 1.969041 1_555
Mn0 O5 1.975682 1_555
Mn0 O8 1.978768 1_655
Mn1 O2 1.970994 1_554
Mn1 O0 1.973261 1_545
Mn1 O11 1.989164 1_555
Mn1 O6 1.989549 1_555
Mn1 O9 2.226532 1_555
Mn1 O4 2.227092 1_555
Mn2 O9 1.920648 1_455
Mn2 O4 1.921062 1_555
Mn2 O3 1.968750 1_455
Mn2 O1 1.968937 1_555
Mn2 O11 1.975644 1_555
Mn2 O6 1.978769 1_455
Mn3 O0 1.971031 1_556
Mn3 O2 1.973364 1_565
Mn3 O5 1.989079 1_555
Mn3 O8 1.989609 1_555
Mn3 O7 2.226365 1_555
Mn3 O10 2.227206 1_555
Co0 O6 2.059035 1_555
Co0 O5 2.059153 1_555
Co0 O8 2.059159 1_555
Co0 O11 2.059304 1_555
Co0 O1 2.245394 1_555
Co0 O3 2.245443 1_555
Co1 O10 2.069259 1_555
Co1 O4 2.069334 1_666
Co1 O7 2.072992 1_655
Co1 O9 2.073034 1_566
Co1 O0 2.260521 1_556
Co1 O2 2.260574 1_665
