# generated using pymatgen
data_Ta10Si2MoSe8
_symmetry_space_group_name_H-M   'P 1'
_cell_length_a   3.49283200
_cell_length_b   11.93704600
_cell_length_c   19.49657000
_cell_angle_alpha   90.00000000
_cell_angle_beta   90.00000000
_cell_angle_gamma   90.00000000
_symmetry_Int_Tables_number   1
_chemical_formula_structural   Ta10Si2MoSe8
_chemical_formula_sum   'Ta20 Si4 Mo2 Se16'
_cell_volume   812.89186621
_cell_formula_units_Z   2
loop_
 _symmetry_equiv_pos_site_id
 _symmetry_equiv_pos_as_xyz
  1  'x, y, z'
loop_
 _atom_site_type_symbol
 _atom_site_label
 _atom_site_symmetry_multiplicity
 _atom_site_fract_x
 _atom_site_fract_y
 _atom_site_fract_z
 _atom_site_occupancy
  Ta  Ta0  1  0.00000000  0.33874700  0.21295400  1
  Ta  Ta1  1  0.00000000  0.66125300  0.78704600  1
  Ta  Ta2  1  0.50000000  0.16125300  0.71295400  1
  Ta  Ta3  1  0.50000000  0.83874700  0.28704600  1
  Ta  Ta4  1  0.00000000  0.56346200  0.11278800  1
  Ta  Ta5  1  0.00000000  0.43653800  0.88721200  1
  Ta  Ta6  1  0.50000000  0.93653800  0.61278800  1
  Ta  Ta7  1  0.50000000  0.06346200  0.38721200  1
  Ta  Ta8  1  0.00000000  0.32139300  0.64456300  1
  Ta  Ta9  1  0.00000000  0.67860700  0.35543700  1
  Ta  Ta10  1  0.50000000  0.17860700  0.14456300  1
  Ta  Ta11  1  0.50000000  0.82139300  0.85543700  1
  Ta  Ta12  1  0.00000000  0.32279700  0.04682100  1
  Ta  Ta13  1  0.00000000  0.67720300  0.95317900  1
  Ta  Ta14  1  0.50000000  0.17720300  0.54682100  1
  Ta  Ta15  1  0.50000000  0.82279700  0.45317900  1
  Ta  Ta16  1  0.00000000  0.04820400  0.25860600  1
  Ta  Ta17  1  0.00000000  0.95179600  0.74139400  1
  Ta  Ta18  1  0.50000000  0.45179600  0.75860600  1
  Ta  Ta19  1  0.50000000  0.54820400  0.24139400  1
  Si  Si0  1  0.00000000  0.09204300  0.62756500  1
  Si  Si1  1  0.00000000  0.90795700  0.37243500  1
  Si  Si2  1  0.50000000  0.40795700  0.12756500  1
  Si  Si3  1  0.50000000  0.59204300  0.87243500  1
  Mo  Mo0  1  0.00000000  0.00000000  0.50000000  1
  Mo  Mo1  1  0.50000000  0.50000000  0.00000000  1
  Se  Se0  1  0.00000000  0.71600100  0.21240600  1
  Se  Se1  1  0.00000000  0.28399900  0.78759400  1
  Se  Se2  1  0.50000000  0.78399900  0.71240600  1
  Se  Se3  1  0.50000000  0.21600100  0.28759400  1
  Se  Se4  1  0.00000000  0.21057100  0.44391900  1
  Se  Se5  1  0.00000000  0.78942900  0.55608100  1
  Se  Se6  1  0.50000000  0.28942900  0.94391900  1
  Se  Se7  1  0.50000000  0.71057100  0.05608100  1
  Se  Se8  1  0.00000000  0.45969700  0.32706700  1
  Se  Se9  1  0.00000000  0.54030300  0.67293300  1
  Se  Se10  1  0.50000000  0.04030300  0.82706700  1
  Se  Se11  1  0.50000000  0.95969700  0.17293300  1
  Se  Se12  1  0.00000000  0.10947900  0.05338000  1
  Se  Se13  1  0.00000000  0.89052100  0.94662000  1
  Se  Se14  1  0.50000000  0.39052100  0.55338000  1
  Se  Se15  1  0.50000000  0.60947900  0.44662000  1
loop_
_geom_bond_atom_site_label_1
_geom_bond_atom_site_label_2
_geom_bond_distance
_geom_bond_site_symmetry_2
Si0 Ta2 2.550304 1_455
Si0 Ta2 2.550304 1_555
Si0 Ta14 2.561555 1_455
Si0 Ta14 2.561555 1_555
Si0 Ta6 2.564900 1_545
Si0 Ta6 2.564900 1_445
Si0 Ta8 2.757747 1_555
Si0 Ta17 2.779912 1_545
Si1 Ta3 2.550304 1_555
Si1 Ta3 2.550304 1_455
Si1 Ta15 2.561555 1_555
Si1 Ta15 2.561555 1_455
Si1 Ta7 2.564900 1_465
Si1 Ta7 2.564900 1_565
Si1 Ta9 2.757747 1_555
Si1 Ta16 2.779912 1_565
Si2 Ta0 2.550304 1_555
Si2 Ta0 2.550304 1_655
Si2 Ta12 2.561555 1_655
Si2 Ta12 2.561555 1_555
Si2 Ta4 2.564900 1_555
Si2 Ta4 2.564900 1_655
Si2 Ta10 2.757747 1_555
Si2 Ta19 2.779912 1_555
Si3 Ta1 2.550304 1_655
Si3 Ta1 2.550304 1_555
Si3 Ta13 2.561555 1_555
Si3 Ta13 2.561555 1_655
Si3 Ta5 2.564900 1_655
Si3 Ta5 2.564900 1_555
Si3 Ta11 2.757747 1_555
Si3 Ta18 2.779912 1_555
Mo0 Si1 2.718962 1_545
Mo0 Si0 2.718962 1_555
Mo0 Se4 2.741105 1_555
Mo0 Se5 2.741105 1_545
Mo0 Ta15 2.890964 1_445
Mo0 Ta14 2.890964 1_555
Mo0 Ta14 2.890964 1_455
Mo0 Ta15 2.890964 1_545
Mo0 Ta7 2.908498 1_555
Mo0 Ta7 2.908498 1_455
Mo0 Ta6 2.908498 1_545
Mo0 Ta6 2.908498 1_445
Mo1 Si2 2.718962 1_555
Mo1 Si3 2.718962 1_554
Mo1 Se7 2.741105 1_555
Mo1 Se6 2.741105 1_554
Mo1 Ta13 2.890964 1_554
Mo1 Ta12 2.890964 1_655
Mo1 Ta13 2.890964 1_654
Mo1 Ta12 2.890964 1_555
Mo1 Ta5 2.908498 1_654
Mo1 Ta4 2.908498 1_555
Mo1 Ta4 2.908498 1_655
Mo1 Ta5 2.908498 1_554
Se0 Ta4 2.662278 1_555
Se0 Ta3 2.704539 1_455
Se0 Ta3 2.704539 1_555
Se0 Ta19 2.716872 1_455
Se0 Ta19 2.716872 1_555
Se0 Ta9 2.824114 1_555
Se1 Ta5 2.662278 1_555
Se1 Ta2 2.704539 1_555
Se1 Ta2 2.704539 1_455
Se1 Ta18 2.716872 1_455
Se1 Ta18 2.716872 1_555
Se1 Ta8 2.824114 1_555
Se2 Ta6 2.662278 1_555
Se2 Ta1 2.704539 1_655
Se2 Ta1 2.704539 1_555
Se2 Ta17 2.716872 1_655
Se2 Ta17 2.716872 1_555
Se2 Ta11 2.824114 1_555
Se3 Ta7 2.662278 1_555
Se3 Ta0 2.704539 1_655
Se3 Ta0 2.704539 1_555
Se3 Ta16 2.716872 1_555
Se3 Ta16 2.716872 1_655
Se3 Ta10 2.824114 1_555
Se4 Ta14 2.689537 1_455
Se4 Ta14 2.689537 1_555
Se4 Ta7 2.712195 1_555
Se4 Ta7 2.712195 1_455
Se5 Ta15 2.689537 1_555
Se5 Ta15 2.689537 1_455
Se5 Ta6 2.712195 1_455
Se5 Ta6 2.712195 1_555
Se6 Ta12 2.689537 1_556
Se6 Ta12 2.689537 1_656
Se6 Ta5 2.712195 1_555
Se6 Ta5 2.712195 1_655
Se7 Ta13 2.689537 1_554
Se7 Ta13 2.689537 1_654
Se7 Ta4 2.712195 1_555
Se7 Ta4 2.712195 1_655
Se8 Ta19 2.637459 1_555
Se8 Ta19 2.637459 1_455
Se8 Ta0 2.652227 1_555
Se8 Ta9 2.671036 1_555
Se9 Ta18 2.637459 1_455
Se9 Ta18 2.637459 1_555
Se9 Ta1 2.652227 1_555
Se9 Ta8 2.671036 1_555
Se10 Ta17 2.637459 1_545
Se10 Ta17 2.637459 1_645
Se10 Ta2 2.652227 1_555
Se10 Ta11 2.671036 1_545
Se11 Ta16 2.637459 1_565
Se11 Ta16 2.637459 1_665
Se11 Ta3 2.652227 1_555
Se11 Ta10 2.671036 1_565
Se12 Ta12 2.549596 1_555
Se12 Ta10 2.625131 1_555
Se12 Ta10 2.625131 1_455
Se13 Ta13 2.549596 1_555
Se13 Ta11 2.625131 1_555
Se13 Ta11 2.625131 1_455
Se14 Ta14 2.549596 1_555
Se14 Ta8 2.625131 1_655
Se14 Ta8 2.625131 1_555
Se15 Ta15 2.549596 1_555
Se15 Ta9 2.625131 1_655
Se15 Ta9 2.625131 1_555
