# generated using pymatgen
data_In3(GaN2)2
_symmetry_space_group_name_H-M   'P 1'
_cell_length_a   6.33803300
_cell_length_b   10.69993300
_cell_length_c   8.52387700
_cell_angle_alpha   90.00000000
_cell_angle_beta   90.00000000
_cell_angle_gamma   90.00000000
_symmetry_Int_Tables_number   1
_chemical_formula_structural   In3(GaN2)2
_chemical_formula_sum   'In12 Ga8 N16'
_cell_volume   578.05974709
_cell_formula_units_Z   4
loop_
 _symmetry_equiv_pos_site_id
 _symmetry_equiv_pos_as_xyz
  1  'x, y, z'
loop_
 _atom_site_type_symbol
 _atom_site_label
 _atom_site_symmetry_multiplicity
 _atom_site_fract_x
 _atom_site_fract_y
 _atom_site_fract_z
 _atom_site_occupancy
  In  In0  1  0.82925800  0.16649200  0.37959500  1
  In  In1  1  0.67074200  0.83350800  0.37959500  1
  In  In2  1  0.82925800  0.33350800  0.12040500  1
  In  In3  1  0.67074200  0.66649200  0.12040500  1
  In  In4  1  0.17074200  0.83350800  0.62040500  1
  In  In5  1  0.32925800  0.16649200  0.62040500  1
  In  In6  1  0.17074200  0.66649200  0.87959500  1
  In  In7  1  0.32925800  0.33350800  0.87959500  1
  In  In8  1  0.75000000  0.50000000  0.43100600  1
  In  In9  1  0.75000000  0.00000000  0.06899400  1
  In  In10  1  0.25000000  0.50000000  0.56899400  1
  In  In11  1  0.25000000  0.00000000  0.93100600  1
  Ga  Ga0  1  0.75000000  0.50000000  0.77915700  1
  Ga  Ga1  1  0.75000000  0.00000000  0.72084300  1
  Ga  Ga2  1  0.25000000  0.50000000  0.22084300  1
  Ga  Ga3  1  0.25000000  0.00000000  0.27915700  1
  Ga  Ga4  1  0.83824200  0.25000000  0.75000000  1
  Ga  Ga5  1  0.66175800  0.75000000  0.75000000  1
  Ga  Ga6  1  0.16175800  0.75000000  0.25000000  1
  Ga  Ga7  1  0.33824200  0.25000000  0.25000000  1
  N  N0  1  0.93535100  0.40438200  0.63128400  1
  N  N1  1  0.56464900  0.59561800  0.63128400  1
  N  N2  1  0.93535100  0.09561800  0.86871600  1
  N  N3  1  0.56464900  0.90438200  0.86871600  1
  N  N4  1  0.06464900  0.59561800  0.36871600  1
  N  N5  1  0.43535100  0.40438200  0.36871600  1
  N  N6  1  0.06464900  0.90438200  0.13128400  1
  N  N7  1  0.43535100  0.09561800  0.13128400  1
  N  N8  1  0.67221600  0.35333300  0.90008200  1
  N  N9  1  0.82778400  0.64666700  0.90008200  1
  N  N10  1  0.67221600  0.14666700  0.59991800  1
  N  N11  1  0.82778400  0.85333300  0.59991800  1
  N  N12  1  0.32778400  0.64666700  0.09991800  1
  N  N13  1  0.17221600  0.35333300  0.09991800  1
  N  N14  1  0.32778400  0.85333300  0.40008200  1
  N  N15  1  0.17221600  0.14666700  0.40008200  1
loop_
_geom_bond_atom_site_label_1
_geom_bond_atom_site_label_2
_geom_bond_distance
_geom_bond_site_symmetry_2
In0 N10 2.136025 1_555
In0 N15 2.190975 1_655
In1 N11 2.136025 1_555
In1 N14 2.190975 1_555
In2 N8 2.136025 1_554
In2 N13 2.190975 1_655
In3 N9 2.136025 1_554
In3 N12 2.190975 1_555
In4 N14 2.136025 1_555
In4 N11 2.190975 1_455
In5 N15 2.136025 1_555
In5 N10 2.190975 1_555
In6 N12 2.136025 1_556
In6 N9 2.190975 1_455
In7 N13 2.136025 1_556
In7 N8 2.190975 1_555
In8 N4 2.303413 1_655
In8 N5 2.303413 1_555
In8 N0 2.311094 1_555
In8 N1 2.311094 1_555
In9 N6 2.303413 1_645
In9 N7 2.303413 1_555
In9 N3 2.311094 1_544
In9 N2 2.311094 1_554
In10 N0 2.303413 1_455
In10 N1 2.303413 1_555
In10 N4 2.311094 1_555
In10 N5 2.311094 1_555
In11 N2 2.303413 1_455
In11 N3 2.303413 1_545
In11 N6 2.311094 1_546
In11 N7 2.311094 1_556
Ga0 N8 1.941206 1_555
Ga0 N9 1.941206 1_555
Ga0 N0 2.003883 1_555
Ga0 N1 2.003883 1_555
Ga1 N10 1.941206 1_555
Ga1 N11 1.941206 1_545
Ga1 N2 2.003883 1_555
Ga1 N3 2.003883 1_545
Ga2 N12 1.941206 1_555
Ga2 N13 1.941206 1_555
Ga2 N4 2.003883 1_555
Ga2 N5 2.003883 1_555
Ga3 N14 1.941206 1_545
Ga3 N15 1.941206 1_555
Ga3 N6 2.003883 1_545
Ga3 N7 2.003883 1_555
Ga4 N10 1.991563 1_555
Ga4 N8 1.991563 1_555
Ga4 N2 2.032608 1_555
Ga4 N0 2.032608 1_555
Ga5 N9 1.991563 1_555
Ga5 N11 1.991563 1_555
Ga5 N3 2.032608 1_555
Ga5 N1 2.032608 1_555
Ga6 N12 1.991563 1_555
Ga6 N14 1.991563 1_555
Ga6 N6 2.032608 1_555
Ga6 N4 2.032608 1_555
Ga7 N15 1.991563 1_555
Ga7 N13 1.991563 1_555
Ga7 N7 2.032608 1_555
Ga7 N5 2.032608 1_555
