# generated using pymatgen
data_Ta3Be2
_symmetry_space_group_name_H-M   'P 1'
_cell_length_a   3.32875490
_cell_length_b   6.51108039
_cell_length_c   6.51108039
_cell_angle_alpha   90.00000000
_cell_angle_beta   90.00000000
_cell_angle_gamma   90.00000000
_symmetry_Int_Tables_number   1
_chemical_formula_structural   Ta3Be2
_chemical_formula_sum   'Ta6 Be4'
_cell_volume   141.11979395
_cell_formula_units_Z   2
loop_
 _symmetry_equiv_pos_site_id
 _symmetry_equiv_pos_as_xyz
  1  'x, y, z'
loop_
 _atom_site_type_symbol
 _atom_site_label
 _atom_site_symmetry_multiplicity
 _atom_site_fract_x
 _atom_site_fract_y
 _atom_site_fract_z
 _atom_site_occupancy
  Ta  Ta0  1  -0.00000000  0.50000000  0.50000000  1
  Ta  Ta1  1  -0.00000000  -0.00000000  -0.00000000  1
  Ta  Ta2  1  0.50000000  0.17887918  0.67887918  1
  Ta  Ta3  1  0.50000000  0.82112082  0.32112082  1
  Ta  Ta4  1  0.50000000  0.32112082  0.17887918  1
  Ta  Ta5  1  0.50000000  0.67887918  0.82112082  1
  Be  Be0  1  -0.00000000  0.61343256  0.11343256  1
  Be  Be1  1  0.00000000  0.38656744  0.88656744  1
  Be  Be2  1  0.00000000  0.88656744  0.61343256  1
  Be  Be3  1  -0.00000000  0.11343256  0.38656744  1
loop_
_geom_bond_atom_site_label_1
_geom_bond_atom_site_label_2
_geom_bond_distance
_geom_bond_site_symmetry_2
Be0 Be1 2.088987 1_554
Be0 Ta3 2.535241 1_455
Be0 Ta3 2.535241 1_555
Be0 Ta5 2.564012 1_554
Be0 Ta4 2.564012 1_555
Be0 Ta4 2.564012 1_455
Be0 Ta5 2.564012 1_454
Be0 Ta0 2.623095 1_555
Be0 Ta1 2.623095 1_565
Be1 Ta2 2.535241 1_555
Be1 Ta2 2.535241 1_455
Be1 Ta5 2.564012 1_555
Be1 Ta4 2.564012 1_456
Be1 Ta4 2.564012 1_556
Be1 Ta5 2.564012 1_455
Be1 Ta0 2.623095 1_555
Be1 Ta1 2.623095 1_556
Be2 Be3 2.088987 1_565
Be2 Ta5 2.535241 1_455
Be2 Ta5 2.535241 1_555
Be2 Ta2 2.564012 1_465
Be2 Ta2 2.564012 1_565
Be2 Ta3 2.564012 1_455
Be2 Ta3 2.564012 1_555
Be2 Ta0 2.623095 1_555
Be2 Ta1 2.623095 1_566
Be3 Ta4 2.535241 1_455
Be3 Ta4 2.535241 1_555
Be3 Ta2 2.564012 1_555
Be3 Ta3 2.564012 1_545
Be3 Ta3 2.564012 1_445
Be3 Ta2 2.564012 1_455
Be3 Ta0 2.623095 1_555
Be3 Ta1 2.623095 1_555
