# generated using pymatgen
data_TaZn2
_symmetry_space_group_name_H-M   'P 1'
_cell_length_a   5.06330942
_cell_length_b   5.06330992
_cell_length_c   8.15573600
_cell_angle_alpha   90.00000000
_cell_angle_beta   90.00000000
_cell_angle_gamma   120.00000881
_symmetry_Int_Tables_number   1
_chemical_formula_structural   TaZn2
_chemical_formula_sum   'Ta4 Zn8'
_cell_volume   181.07676711
_cell_formula_units_Z   4
loop_
 _symmetry_equiv_pos_site_id
 _symmetry_equiv_pos_as_xyz
  1  'x, y, z'
loop_
 _atom_site_type_symbol
 _atom_site_label
 _atom_site_symmetry_multiplicity
 _atom_site_fract_x
 _atom_site_fract_y
 _atom_site_fract_z
 _atom_site_occupancy
  Ta  Ta0  1  0.66666700  0.33333400  0.56597200  1
  Ta  Ta1  1  0.33333300  0.66666600  0.43402800  1
  Ta  Ta2  1  0.33333300  0.66666600  0.06597200  1
  Ta  Ta3  1  0.66666700  0.33333400  0.93402800  1
  Zn  Zn0  1  0.00000000  0.00000000  0.50000000  1
  Zn  Zn1  1  0.00000000  0.00000000  0.00000000  1
  Zn  Zn2  1  0.17217100  0.34434200  0.75000000  1
  Zn  Zn3  1  0.17217100  0.82783000  0.75000000  1
  Zn  Zn4  1  0.65565900  0.82783000  0.75000000  1
  Zn  Zn5  1  0.82782900  0.65565800  0.25000000  1
  Zn  Zn6  1  0.82782900  0.17217000  0.25000000  1
  Zn  Zn7  1  0.34434100  0.17217000  0.25000000  1
loop_
_geom_bond_atom_site_label_1
_geom_bond_atom_site_label_2
_geom_bond_distance
_geom_bond_site_symmetry_2
Ta0 Zn5 2.939129 1_555
Ta0 Zn7 2.939133 1_555
Ta0 Zn6 2.939133 1_555
Ta0 Zn3 2.943511 1_655
Ta0 Zn3 2.943511 1_545
Ta0 Zn2 2.943511 1_655
Ta0 Zn2 2.943511 1_555
Ta0 Zn4 2.943511 1_545
Ta0 Zn4 2.943511 1_555
Ta0 Zn0 2.972403 1_665
Ta0 Zn0 2.972407 1_555
Ta0 Zn0 2.972408 1_655
Ta0 Ta3 3.001768 1_555
Ta0 Ta1 3.115072 1_655
Ta0 Ta1 3.115073 1_555
Ta0 Ta1 3.115081 1_545
Ta1 Zn2 2.939129 1_555
Ta1 Zn4 2.939133 1_555
Ta1 Zn3 2.939133 1_555
Ta1 Zn6 2.943511 1_455
Ta1 Zn6 2.943511 1_565
Ta1 Zn5 2.943511 1_455
Ta1 Zn5 2.943511 1_555
Ta1 Zn7 2.943511 1_565
Ta1 Zn7 2.943511 1_555
Ta1 Zn0 2.972403 1_555
Ta1 Zn0 2.972407 1_665
Ta1 Zn0 2.972408 1_565
Ta1 Ta2 3.001768 1_555
Ta2 Zn2 2.939129 1_554
Ta2 Zn4 2.939133 1_554
Ta2 Zn3 2.939133 1_554
Ta2 Zn6 2.943511 1_455
Ta2 Zn6 2.943511 1_565
Ta2 Zn5 2.943511 1_455
Ta2 Zn5 2.943511 1_555
Ta2 Zn7 2.943511 1_565
Ta2 Zn7 2.943511 1_555
Ta2 Zn1 2.972403 1_555
Ta2 Zn1 2.972407 1_665
Ta2 Zn1 2.972408 1_565
Ta2 Ta3 3.115072 1_454
Ta2 Ta3 3.115073 1_554
Ta2 Ta3 3.115081 1_564
Ta3 Zn5 2.939129 1_556
Ta3 Zn7 2.939133 1_556
Ta3 Zn6 2.939133 1_556
Ta3 Zn3 2.943511 1_655
Ta3 Zn3 2.943511 1_545
Ta3 Zn2 2.943511 1_655
Ta3 Zn2 2.943511 1_555
Ta3 Zn4 2.943511 1_545
Ta3 Zn4 2.943511 1_555
Ta3 Zn1 2.972403 1_666
Ta3 Zn1 2.972407 1_556
Ta3 Zn1 2.972408 1_656
Zn0 Zn4 2.537146 1_445
Zn0 Zn7 2.537146 1_555
Zn0 Zn3 2.537146 1_545
Zn0 Zn6 2.537146 1_455
Zn0 Zn2 2.537148 1_555
Zn0 Zn5 2.537148 1_445
Zn1 Zn7 2.537146 1_555
Zn1 Zn4 2.537146 1_444
Zn1 Zn3 2.537146 1_544
Zn1 Zn6 2.537146 1_455
Zn1 Zn2 2.537148 1_554
Zn1 Zn5 2.537148 1_445
Zn2 Zn4 2.448049 1_555
Zn2 Zn3 2.448050 1_555
Zn2 Zn4 2.615260 1_445
Zn2 Zn3 2.615260 1_545
Zn3 Zn4 2.448049 1_555
Zn3 Zn4 2.615260 1_455
Zn5 Zn7 2.448049 1_555
Zn5 Zn6 2.448050 1_555
Zn5 Zn7 2.615260 1_665
Zn5 Zn6 2.615260 1_565
Zn6 Zn7 2.448049 1_555
Zn6 Zn7 2.615260 1_655
