# generated using pymatgen
data_YMg30CdO32
_symmetry_space_group_name_H-M   'P 1'
_cell_length_a   8.65486900
_cell_length_b   8.65486900
_cell_length_c   8.64533100
_cell_angle_alpha   90.00000000
_cell_angle_beta   90.00000000
_cell_angle_gamma   90.00000000
_symmetry_Int_Tables_number   1
_chemical_formula_structural   YMg30CdO32
_chemical_formula_sum   'Y1 Mg30 Cd1 O32'
_cell_volume   647.59371192
_cell_formula_units_Z   1
loop_
 _symmetry_equiv_pos_site_id
 _symmetry_equiv_pos_as_xyz
  1  'x, y, z'
loop_
 _atom_site_type_symbol
 _atom_site_label
 _atom_site_symmetry_multiplicity
 _atom_site_fract_x
 _atom_site_fract_y
 _atom_site_fract_z
 _atom_site_occupancy
  Y  Y0  1  0.00000000  0.00000000  0.00000000  1
  Mg  Mg0  1  0.50000000  0.00000000  0.00000000  1
  Mg  Mg1  1  0.00000000  0.50000000  0.00000000  1
  Mg  Mg2  1  0.00000000  0.00000000  0.50000000  1
  Mg  Mg3  1  0.50000000  0.00000000  0.50000000  1
  Mg  Mg4  1  0.00000000  0.50000000  0.50000000  1
  Mg  Mg5  1  0.50000000  0.50000000  0.50000000  1
  Mg  Mg6  1  0.25511100  0.25511100  0.00000000  1
  Mg  Mg7  1  0.74488900  0.25511100  0.00000000  1
  Mg  Mg8  1  0.25511100  0.74488900  0.00000000  1
  Mg  Mg9  1  0.74488900  0.74488900  0.00000000  1
  Mg  Mg10  1  0.25101200  0.25101200  0.50000000  1
  Mg  Mg11  1  0.74898800  0.25101200  0.50000000  1
  Mg  Mg12  1  0.25101200  0.74898800  0.50000000  1
  Mg  Mg13  1  0.74898800  0.74898800  0.50000000  1
  Mg  Mg14  1  0.25657300  0.00000000  0.25627200  1
  Mg  Mg15  1  0.74342700  0.00000000  0.25627200  1
  Mg  Mg16  1  0.24936800  0.50000000  0.25240400  1
  Mg  Mg17  1  0.75063200  0.50000000  0.25240400  1
  Mg  Mg18  1  0.25657300  0.00000000  0.74372800  1
  Mg  Mg19  1  0.74342700  0.00000000  0.74372800  1
  Mg  Mg20  1  0.24936800  0.50000000  0.74759600  1
  Mg  Mg21  1  0.75063200  0.50000000  0.74759600  1
  Mg  Mg22  1  0.00000000  0.25657300  0.25627200  1
  Mg  Mg23  1  0.50000000  0.24936800  0.25240400  1
  Mg  Mg24  1  0.00000000  0.74342700  0.25627200  1
  Mg  Mg25  1  0.50000000  0.75063200  0.25240400  1
  Mg  Mg26  1  0.00000000  0.25657300  0.74372800  1
  Mg  Mg27  1  0.50000000  0.24936800  0.74759600  1
  Mg  Mg28  1  0.00000000  0.74342700  0.74372800  1
  Mg  Mg29  1  0.50000000  0.75063200  0.74759600  1
  Cd  Cd0  1  0.50000000  0.50000000  0.00000000  1
  O  O0  1  0.00000000  0.00000000  0.25915300  1
  O  O1  1  0.50000000  0.00000000  0.25425900  1
  O  O2  1  0.00000000  0.50000000  0.25425900  1
  O  O3  1  0.50000000  0.50000000  0.26817400  1
  O  O4  1  0.00000000  0.00000000  0.74084700  1
  O  O5  1  0.50000000  0.00000000  0.74574100  1
  O  O6  1  0.00000000  0.50000000  0.74574100  1
  O  O7  1  0.50000000  0.50000000  0.73182600  1
  O  O8  1  0.24908800  0.24908800  0.24956800  1
  O  O9  1  0.75091200  0.24908800  0.24956800  1
  O  O10  1  0.24908800  0.75091200  0.24956800  1
  O  O11  1  0.75091200  0.75091200  0.24956800  1
  O  O12  1  0.24908800  0.24908800  0.75043200  1
  O  O13  1  0.75091200  0.24908800  0.75043200  1
  O  O14  1  0.24908800  0.75091200  0.75043200  1
  O  O15  1  0.75091200  0.75091200  0.75043200  1
  O  O16  1  0.25708400  0.00000000  0.00000000  1
  O  O17  1  0.74291600  0.00000000  0.00000000  1
  O  O18  1  0.23251800  0.50000000  0.00000000  1
  O  O19  1  0.76748200  0.50000000  0.00000000  1
  O  O20  1  0.25032400  0.00000000  0.50000000  1
  O  O21  1  0.74967600  0.00000000  0.50000000  1
  O  O22  1  0.24666400  0.50000000  0.50000000  1
  O  O23  1  0.75333600  0.50000000  0.50000000  1
  O  O24  1  0.00000000  0.25708400  0.00000000  1
  O  O25  1  0.50000000  0.23251800  0.00000000  1
  O  O26  1  0.00000000  0.74291600  0.00000000  1
  O  O27  1  0.50000000  0.76748200  0.00000000  1
  O  O28  1  0.00000000  0.25032400  0.50000000  1
  O  O29  1  0.50000000  0.24666400  0.50000000  1
  O  O30  1  0.00000000  0.74967600  0.50000000  1
  O  O31  1  0.50000000  0.75333600  0.50000000  1
loop_
_geom_bond_atom_site_label_1
_geom_bond_atom_site_label_2
_geom_bond_distance
_geom_bond_site_symmetry_2
Mg0 O27 2.012413 1_545
Mg0 O25 2.012413 1_555
Mg0 O17 2.102406 1_555
Mg0 O16 2.102406 1_555
Mg0 O5 2.198153 1_554
Mg0 O1 2.198153 1_555
Mg1 O18 2.012413 1_555
Mg1 O19 2.012413 1_455
Mg1 O24 2.102406 1_555
Mg1 O26 2.102406 1_555
Mg1 O2 2.198153 1_555
Mg1 O6 2.198153 1_554
Mg2 O4 2.082202 1_555
Mg2 O0 2.082202 1_555
Mg2 O21 2.166521 1_455
Mg2 O20 2.166521 1_555
Mg2 O28 2.166521 1_555
Mg2 O30 2.166521 1_545
Mg3 O1 2.124512 1_555
Mg3 O5 2.124512 1_555
Mg3 O31 2.134845 1_545
Mg3 O29 2.134845 1_555
Mg3 O21 2.160913 1_555
Mg3 O20 2.160913 1_555
Mg4 O6 2.124512 1_555
Mg4 O2 2.124512 1_555
Mg4 O23 2.134845 1_455
Mg4 O22 2.134845 1_555
Mg4 O30 2.160913 1_555
Mg4 O28 2.160913 1_555
Mg5 O7 2.004213 1_555
Mg5 O3 2.004213 1_555
Mg5 O31 2.192590 1_555
Mg5 O22 2.192590 1_555
Mg5 O23 2.192590 1_555
Mg5 O29 2.192590 1_555
Mg6 O25 2.128483 1_555
Mg6 O18 2.128483 1_555
Mg6 O8 2.158857 1_555
Mg6 O12 2.158857 1_554
Mg6 O24 2.208018 1_555
Mg6 O16 2.208018 1_555
Mg7 O25 2.128483 1_555
Mg7 O19 2.128483 1_555
Mg7 O9 2.158857 1_555
Mg7 O13 2.158857 1_554
Mg7 O17 2.208018 1_555
Mg7 O24 2.208018 1_655
Mg8 O18 2.128483 1_555
Mg8 O27 2.128483 1_555
Mg8 O10 2.158857 1_555
Mg8 O14 2.158857 1_554
Mg8 O26 2.208018 1_555
Mg8 O16 2.208018 1_565
Mg9 O19 2.128483 1_555
Mg9 O27 2.128483 1_555
Mg9 O11 2.158857 1_555
Mg9 O15 2.158857 1_554
Mg9 O17 2.208018 1_565
Mg9 O26 2.208018 1_655
Mg10 O29 2.155287 1_555
Mg10 O22 2.155287 1_555
Mg10 O12 2.165196 1_555
Mg10 O8 2.165196 1_555
Mg10 O20 2.172484 1_555
Mg10 O28 2.172484 1_555
Mg11 O29 2.155287 1_555
Mg11 O23 2.155287 1_555
Mg11 O13 2.165196 1_555
Mg11 O9 2.165196 1_555
Mg11 O28 2.172484 1_655
Mg11 O21 2.172484 1_555
Mg12 O31 2.155287 1_555
Mg12 O22 2.155287 1_555
Mg12 O14 2.165196 1_555
Mg12 O10 2.165196 1_555
Mg12 O30 2.172484 1_555
Mg12 O20 2.172484 1_565
Mg13 O31 2.155287 1_555
Mg13 O23 2.155287 1_555
Mg13 O15 2.165196 1_555
Mg13 O11 2.165196 1_555
Mg13 O21 2.172484 1_565
Mg13 O30 2.172484 1_655
Mg14 O1 2.106901 1_555
Mg14 O20 2.107803 1_555
Mg14 O8 2.157576 1_555
Mg14 O10 2.157576 1_545
Mg14 O16 2.215561 1_555
Mg14 O0 2.220745 1_555
Mg15 O1 2.106901 1_555
Mg15 O21 2.107803 1_555
Mg15 O9 2.157576 1_555
Mg15 O11 2.157576 1_545
Mg15 O17 2.215561 1_555
Mg15 O0 2.220745 1_655
Mg16 O22 2.140677 1_555
Mg16 O2 2.158307 1_555
Mg16 O10 2.171750 1_555
Mg16 O8 2.171750 1_555
Mg16 O3 2.173467 1_555
Mg16 O18 2.186984 1_555
Mg17 O23 2.140677 1_555
Mg17 O2 2.158307 1_655
Mg17 O11 2.171750 1_555
Mg17 O9 2.171750 1_555
Mg17 O3 2.173467 1_555
Mg17 O19 2.186984 1_555
Mg18 O5 2.106901 1_555
Mg18 O20 2.107803 1_555
Mg18 O12 2.157576 1_555
Mg18 O14 2.157576 1_545
Mg18 O16 2.215561 1_556
Mg18 O4 2.220745 1_555
Mg19 O5 2.106901 1_555
Mg19 O21 2.107803 1_555
Mg19 O13 2.157576 1_555
Mg19 O15 2.157576 1_545
Mg19 O17 2.215561 1_556
Mg19 O4 2.220745 1_655
Mg20 O22 2.140677 1_555
Mg20 O6 2.158307 1_555
Mg20 O14 2.171750 1_555
Mg20 O12 2.171750 1_555
Mg20 O7 2.173467 1_555
Mg20 O18 2.186984 1_556
Mg21 O23 2.140677 1_555
Mg21 O6 2.158307 1_655
Mg21 O15 2.171750 1_555
Mg21 O13 2.171750 1_555
Mg21 O7 2.173467 1_555
Mg21 O19 2.186984 1_556
Mg22 O2 2.106901 1_555
Mg22 O28 2.107803 1_555
Mg22 O8 2.157576 1_555
Mg22 O9 2.157576 1_455
Mg22 O24 2.215561 1_555
Mg22 O0 2.220745 1_555
Mg23 O29 2.140677 1_555
Mg23 O1 2.158307 1_555
Mg23 O9 2.171750 1_555
Mg23 O8 2.171750 1_555
Mg23 O3 2.173467 1_555
Mg23 O25 2.186984 1_555
Mg24 O2 2.106901 1_555
Mg24 O30 2.107803 1_555
Mg24 O10 2.157576 1_555
Mg24 O11 2.157576 1_455
Mg24 O26 2.215561 1_555
Mg24 O0 2.220745 1_565
Mg25 O31 2.140677 1_555
Mg25 O1 2.158307 1_565
Mg25 O11 2.171750 1_555
Mg25 O10 2.171750 1_555
Mg25 O3 2.173467 1_555
Mg25 O27 2.186984 1_555
Mg26 O6 2.106901 1_555
Mg26 O28 2.107803 1_555
Mg26 O12 2.157576 1_555
Mg26 O13 2.157576 1_455
Mg26 O24 2.215561 1_556
Mg26 O4 2.220745 1_555
Mg27 O29 2.140677 1_555
Mg27 O5 2.158307 1_555
Mg27 O13 2.171750 1_555
Mg27 O12 2.171750 1_555
Mg27 O7 2.173467 1_555
Mg27 O25 2.186984 1_556
Mg28 O6 2.106901 1_555
Mg28 O30 2.107803 1_555
Mg28 O14 2.157576 1_555
Mg28 O15 2.157576 1_455
Mg28 O26 2.215561 1_556
Mg28 O4 2.220745 1_565
Mg29 O31 2.140677 1_555
Mg29 O5 2.158307 1_565
Mg29 O15 2.171750 1_555
Mg29 O14 2.171750 1_555
Mg29 O7 2.173467 1_555
Mg29 O27 2.186984 1_556
Cd0 O25 2.315022 1_555
Cd0 O18 2.315022 1_555
Cd0 O19 2.315022 1_555
Cd0 O27 2.315022 1_555
Cd0 O3 2.318453 1_555
Cd0 O7 2.318453 1_554
O0 Y0 2.240463 1_555
O4 Y0 2.240463 1_556
O16 Y0 2.225028 1_555
O17 Y0 2.225028 1_655
O24 Y0 2.225028 1_555
O26 Y0 2.225028 1_565
