# generated using pymatgen
data_Na2P3HO9
_symmetry_space_group_name_H-M   'P 1'
_cell_length_a   7.18758911
_cell_length_b   7.88945502
_cell_length_c   7.95603373
_cell_angle_alpha   98.32388383
_cell_angle_beta   116.56725508
_cell_angle_gamma   76.89299761
_symmetry_Int_Tables_number   1
_chemical_formula_structural   Na2P3HO9
_chemical_formula_sum   'Na4 P6 H2 O18'
_cell_volume   392.51933995
_cell_formula_units_Z   2
loop_
 _symmetry_equiv_pos_site_id
 _symmetry_equiv_pos_as_xyz
  1  'x, y, z'
loop_
 _atom_site_type_symbol
 _atom_site_label
 _atom_site_symmetry_multiplicity
 _atom_site_fract_x
 _atom_site_fract_y
 _atom_site_fract_z
 _atom_site_occupancy
  Na  Na0  1  0.48635400  0.85120900  0.64538700  1
  Na  Na1  1  0.51364600  0.14879100  0.35461300  1
  Na  Na2  1  0.99161900  0.83254000  0.65167800  1
  Na  Na3  1  0.00838100  0.16746000  0.34832200  1
  P  P0  1  0.82113000  0.45079400  0.62975200  1
  P  P1  1  0.17887000  0.54920600  0.37024800  1
  P  P2  1  0.77827000  0.20552500  0.84069100  1
  P  P3  1  0.22173000  0.79447500  0.15930900  1
  P  P4  1  0.18577000  0.20357000  0.84275400  1
  P  P5  1  0.81423000  0.79643000  0.15724600  1
  H  H0  1  0.53168800  0.22507100  0.00268400  1
  H  H1  1  0.46831200  0.77492900  0.99731600  1
  O  O0  1  0.27521100  0.60335900  0.23731500  1
  O  O1  1  0.72478900  0.39664100  0.76268500  1
  O  O2  1  0.03815500  0.16577700  0.93163100  1
  O  O3  1  0.96184500  0.83422300  0.06836900  1
  O  O4  1  0.07815300  0.39488300  0.76563400  1
  O  O5  1  0.92184700  0.60511700  0.23436600  1
  O  O6  1  0.76605500  0.33422900  0.45568000  1
  O  O7  1  0.23394500  0.66577100  0.54432000  1
  O  O8  1  0.22668100  0.35579000  0.37396800  1
  O  O9  1  0.77331900  0.64421000  0.62603200  1
  O  O10  1  0.72655900  0.22455900  0.00704000  1
  O  O11  1  0.27344100  0.77544100  0.99296000  1
  O  O12  1  0.69603100  0.07120900  0.68604000  1
  O  O13  1  0.30396900  0.92879100  0.31396000  1
  O  O14  1  0.39225500  0.22101600  0.02026900  1
  O  O15  1  0.60774500  0.77898400  0.97973100  1
  O  O16  1  0.20020100  0.07125600  0.69281200  1
  O  O17  1  0.79979900  0.92874400  0.30718800  1
loop_
_geom_bond_atom_site_label_1
_geom_bond_atom_site_label_2
_geom_bond_distance
_geom_bond_site_symmetry_2
Na0 O9 2.372466 1_555
Na0 O7 2.374154 1_555
Na0 O12 2.444642 1_565
Na0 O13 2.461197 1_555
Na0 O16 2.504306 1_565
Na0 O15 2.509813 1_555
Na1 O8 2.372466 1_555
Na1 O6 2.374154 1_555
Na1 O13 2.444642 1_545
Na1 O12 2.461197 1_555
Na1 O17 2.504306 1_545
Na1 O14 2.509813 1_555
Na2 O9 2.322589 1_555
Na2 O7 2.336735 1_655
Na2 O16 2.562210 1_665
Na2 O12 2.586542 1_565
Na2 O11 2.588275 1_655
Na2 O17 2.595458 1_555
Na3 O8 2.322589 1_555
Na3 O6 2.336735 1_455
Na3 O17 2.562210 1_445
Na3 O13 2.586542 1_545
Na3 O10 2.588275 1_455
Na3 O16 2.595458 1_555
H0 O14 1.079923 1_555
H0 O10 1.384594 1_555
H1 O15 1.079923 1_555
H1 O11 1.384594 1_555
O0 P3 1.612782 1_555
O0 P1 1.643377 1_555
O1 P2 1.612782 1_555
O1 P0 1.643377 1_555
O2 P4 1.609418 1_555
O2 P2 1.643824 1_455
O3 P5 1.609418 1_555
O3 P3 1.643824 1_655
O4 P4 1.602198 1_555
O4 P0 1.660765 1_455
O5 P5 1.602198 1_555
O5 P1 1.660765 1_655
O6 P0 1.492112 1_555
O7 P1 1.492112 1_555
O8 P1 1.487828 1_555
O9 P0 1.487828 1_555
O10 P2 1.506466 1_554
O11 P3 1.506466 1_556
O12 P2 1.497412 1_555
O13 P3 1.497412 1_555
O14 P4 1.541968 1_554
O15 P5 1.541968 1_556
O16 P4 1.491504 1_555
O17 P5 1.491504 1_555
