# generated using pymatgen
data_V2Cu3H6O11
_symmetry_space_group_name_H-M   'P 1'
_cell_length_a   6.18082395
_cell_length_b   6.18082395
_cell_length_c   7.32842787
_cell_angle_alpha   85.00546025
_cell_angle_beta   85.00546025
_cell_angle_gamma   56.74033045
_symmetry_Int_Tables_number   1
_chemical_formula_structural   V2Cu3H6O11
_chemical_formula_sum   'V2 Cu3 H6 O11'
_cell_volume   232.95608793
_cell_formula_units_Z   1
loop_
 _symmetry_equiv_pos_site_id
 _symmetry_equiv_pos_as_xyz
  1  'x, y, z'
loop_
 _atom_site_type_symbol
 _atom_site_label
 _atom_site_symmetry_multiplicity
 _atom_site_fract_x
 _atom_site_fract_y
 _atom_site_fract_z
 _atom_site_occupancy
  V  V0  1  0.48853300  0.49955600  0.74759400  1
  V  V1  1  0.50044400  0.51146700  0.25240600  1
  Cu  Cu0  1  0.99767700  0.00232300  0.00000000  1
  Cu  Cu1  1  0.99986300  0.49963500  0.00008500  1
  Cu  Cu2  1  0.50036500  0.00013700  0.99991500  1
  H  H0  1  0.25870300  0.24543500  0.50256200  1
  H  H1  1  0.75456500  0.74129700  0.49743800  1
  H  H2  1  0.14949300  0.15562900  0.25218600  1
  H  H3  1  0.84437100  0.85050700  0.74781400  1
  H  H4  1  0.11578200  0.11105400  0.57265100  1
  H  H5  1  0.88894600  0.88421800  0.42734900  1
  O  O0  1  0.15451100  0.15389000  0.11308200  1
  O  O1  1  0.84611000  0.84548900  0.88691800  1
  O  O2  1  0.33582900  0.33789800  0.85135700  1
  O  O3  1  0.66210200  0.66417100  0.14864300  1
  O  O4  1  0.80141200  0.33574700  0.81050400  1
  O  O5  1  0.33183000  0.81040300  0.81627100  1
  O  O6  1  0.18959700  0.66817000  0.18372900  1
  O  O7  1  0.66425300  0.19858800  0.18949600  1
  O  O8  1  0.13584700  0.20710600  0.46576700  1
  O  O9  1  0.79289400  0.86415300  0.53423300  1
  O  O10  1  0.47737400  0.52262600  0.50000000  1
loop_
_geom_bond_atom_site_label_1
_geom_bond_atom_site_label_2
_geom_bond_distance
_geom_bond_site_symmetry_2
Cu0 O0 1.942980 1_655
Cu0 O1 1.942980 1_544
Cu0 O6 2.142962 1_645
Cu0 O5 2.142962 1_644
Cu0 O4 2.167948 1_554
Cu0 O7 2.167948 1_555
Cu1 O0 1.937857 1_655
Cu1 O1 1.939278 1_554
Cu1 O2 2.004505 1_654
Cu1 O3 2.011478 1_555
Cu1 O6 2.475974 1_655
Cu1 O4 2.522991 1_554
Cu2 O1 1.937857 1_545
Cu2 O0 1.939278 1_556
Cu2 O3 2.004505 1_546
Cu2 O2 2.011478 1_555
Cu2 O5 2.475974 1_545
Cu2 O7 2.522991 1_556
H0 O8 0.974446 1_555
H1 O9 0.974446 1_555
H2 O0 1.017997 1_555
H2 O8 1.610133 1_555
H3 O1 1.017997 1_555
H3 O9 1.610133 1_555
H4 O8 0.981966 1_555
H5 O9 0.981966 1_555
O2 V0 1.801270 1_555
O3 V1 1.801270 1_555
O4 V0 1.704041 1_555
O5 V0 1.710298 1_555
O6 V1 1.710298 1_555
O7 V1 1.704041 1_555
O10 V0 1.812005 1_555
O10 V1 1.812005 1_555
