# generated using pymatgen
data_RbSc(WO4)2
_symmetry_space_group_name_H-M   'P 1'
_cell_length_a   7.49052521
_cell_length_b   7.49052521
_cell_length_c   7.38975964
_cell_angle_alpha   61.83686205
_cell_angle_beta   61.83686205
_cell_angle_gamma   86.43869701
_symmetry_Int_Tables_number   1
_chemical_formula_structural   RbSc(WO4)2
_chemical_formula_sum   'Rb2 Sc2 W4 O16'
_cell_volume   315.29985922
_cell_formula_units_Z   2
loop_
 _symmetry_equiv_pos_site_id
 _symmetry_equiv_pos_as_xyz
  1  'x, y, z'
loop_
 _atom_site_type_symbol
 _atom_site_label
 _atom_site_symmetry_multiplicity
 _atom_site_fract_x
 _atom_site_fract_y
 _atom_site_fract_z
 _atom_site_occupancy
  Rb  Rb0  1  0.19879000  0.80121000  0.75000000  1
  Rb  Rb1  1  0.80121000  0.19879000  0.25000000  1
  Sc  Sc0  1  0.78040000  0.21960000  0.75000000  1
  Sc  Sc1  1  0.21960000  0.78040000  0.25000000  1
  W  W0  1  0.70328900  0.69048500  0.79118500  1
  W  W1  1  0.29671100  0.30951500  0.20881500  1
  W  W2  1  0.30951500  0.29671100  0.70881500  1
  W  W3  1  0.69048500  0.70328900  0.29118500  1
  O  O0  1  0.61899800  0.75662300  0.56243000  1
  O  O1  1  0.38100200  0.24337700  0.43757000  1
  O  O2  1  0.24337700  0.38100200  0.93757000  1
  O  O3  1  0.75662300  0.61899800  0.06243000  1
  O  O4  1  0.34713500  0.04274700  0.89298800  1
  O  O5  1  0.65286500  0.95725300  0.10701200  1
  O  O6  1  0.95725300  0.65286500  0.60701200  1
  O  O7  1  0.04274700  0.34713500  0.39298800  1
  O  O8  1  0.60290000  0.37286800  0.95208700  1
  O  O9  1  0.39710000  0.62713200  0.04791300  1
  O  O10  1  0.62713200  0.39710000  0.54791300  1
  O  O11  1  0.37286800  0.60290000  0.45208700  1
  O  O12  1  0.76767700  0.96385000  0.70376500  1
  O  O13  1  0.23232300  0.03615000  0.29623500  1
  O  O14  1  0.03615000  0.23232300  0.79623500  1
  O  O15  1  0.96385000  0.76767700  0.20376500  1
loop_
_geom_bond_atom_site_label_1
_geom_bond_atom_site_label_2
_geom_bond_distance
_geom_bond_site_symmetry_2
O0 W0 1.918280 1_555
O0 W3 2.044563 1_555
O0 Rb0 2.850976 1_555
O0 Rb1 2.920911 1_565
O1 W1 1.918280 1_555
O1 W2 2.044563 1_555
O1 Rb1 2.850976 1_555
O1 Rb0 2.920911 1_545
O2 W2 1.918280 1_555
O2 W1 2.044563 1_556
O2 Rb0 2.850976 1_555
O2 Rb1 2.920911 1_456
O3 W3 1.918280 1_555
O3 W0 2.044563 1_554
O3 Rb1 2.850976 1_555
O3 Rb0 2.920911 1_654
O4 W2 1.844452 1_555
O4 Sc1 2.166737 1_546
O4 Rb0 2.964334 1_545
O5 W3 1.844452 1_555
O5 Sc0 2.166737 1_564
O5 Rb1 2.964334 1_565
O6 W0 1.844452 1_555
O6 Sc1 2.166737 1_655
O6 Rb0 2.964334 1_655
O7 W1 1.844452 1_555
O7 Sc0 2.166737 1_455
O7 Rb1 2.964334 1_455
O8 W1 2.064615 1_556
O8 W0 2.085032 1_555
O8 Sc0 2.206909 1_555
O8 Rb1 2.981610 1_556
O9 W0 2.064615 1_554
O9 W1 2.085032 1_555
O9 Sc1 2.206909 1_555
O9 Rb0 2.981610 1_554
O10 W3 2.064615 1_555
O10 W2 2.085032 1_555
O10 Sc0 2.206909 1_555
O10 Rb1 2.981610 1_555
O11 W2 2.064615 1_555
O11 W3 2.085032 1_555
O11 Sc1 2.206909 1_555
O11 Rb0 2.981610 1_555
O12 W0 1.850053 1_555
O12 Sc0 2.113529 1_565
O12 Rb1 2.844917 1_565
O13 W1 1.850053 1_555
O13 Sc1 2.113529 1_545
O13 Rb0 2.844917 1_545
O14 W2 1.850053 1_555
O14 Sc0 2.113529 1_455
O14 Rb1 2.844917 1_456
O15 W3 1.850053 1_555
O15 Sc1 2.113529 1_655
O15 Rb0 2.844917 1_654
