# generated using pymatgen
data_K3Au3I8
_symmetry_space_group_name_H-M   'P 1'
_cell_length_a   7.91401769
_cell_length_b   7.91401769
_cell_length_c   20.68141979
_cell_angle_alpha   84.38241558
_cell_angle_beta   84.38241558
_cell_angle_gamma   64.52628725
_symmetry_Int_Tables_number   1
_chemical_formula_structural   K3Au3I8
_chemical_formula_sum   'K6 Au6 I16'
_cell_volume   1161.52355985
_cell_formula_units_Z   2
loop_
 _symmetry_equiv_pos_site_id
 _symmetry_equiv_pos_as_xyz
  1  'x, y, z'
loop_
 _atom_site_type_symbol
 _atom_site_label
 _atom_site_symmetry_multiplicity
 _atom_site_fract_x
 _atom_site_fract_y
 _atom_site_fract_z
 _atom_site_occupancy
  K  K0  1  0.67922900  0.68583400  0.41515300  1
  K  K1  1  0.32077100  0.31416600  0.58484700  1
  K  K2  1  0.31416600  0.32077100  0.08484700  1
  K  K3  1  0.68583400  0.67922900  0.91515300  1
  K  K4  1  0.98238500  0.01761500  0.25000000  1
  K  K5  1  0.01761500  0.98238500  0.75000000  1
  Au  Au0  1  0.00000000  0.00000000  0.00000000  1
  Au  Au1  1  0.00000000  0.00000000  0.50000000  1
  Au  Au2  1  0.61702200  0.61659100  0.18912400  1
  Au  Au3  1  0.38297800  0.38340900  0.81087600  1
  Au  Au4  1  0.38340900  0.38297800  0.31087600  1
  Au  Au5  1  0.61659100  0.61702200  0.68912400  1
  I  I0  1  0.31438200  0.75728400  0.12509800  1
  I  I1  1  0.68561800  0.24271600  0.87490200  1
  I  I2  1  0.24271600  0.68561800  0.37490200  1
  I  I3  1  0.75728400  0.31438200  0.62509800  1
  I  I4  1  0.50579000  0.08983200  0.24293400  1
  I  I5  1  0.49421000  0.91016800  0.75706600  1
  I  I6  1  0.91016800  0.49421000  0.25706600  1
  I  I7  1  0.08983200  0.50579000  0.74293400  1
  I  I8  1  0.77998500  0.84862200  0.06312600  1
  I  I9  1  0.22001500  0.15137800  0.93687400  1
  I  I10  1  0.15137800  0.22001500  0.43687400  1
  I  I11  1  0.84862200  0.77998500  0.56312600  1
  I  I12  1  0.70025000  0.16568600  0.42561500  1
  I  I13  1  0.29975000  0.83431400  0.57438500  1
  I  I14  1  0.83431400  0.29975000  0.07438500  1
  I  I15  1  0.16568600  0.70025000  0.92561500  1
loop_
_geom_bond_atom_site_label_1
_geom_bond_atom_site_label_2
_geom_bond_distance
_geom_bond_site_symmetry_2
Au0 I8 2.685988 1_445
Au0 I9 2.685988 1_554
Au0 I14 2.712436 1_455
Au0 I15 2.712436 1_544
Au1 I11 2.685988 1_445
Au1 I10 2.685988 1_555
Au1 I12 2.712436 1_455
Au1 I13 2.712436 1_545
Au2 I6 2.594926 1_555
Au2 I0 2.601519 1_555
Au2 I14 3.395953 1_555
Au3 I7 2.594926 1_555
Au3 I1 2.601519 1_555
Au3 I15 3.395953 1_555
Au4 I4 2.594926 1_555
Au4 I2 2.601519 1_555
Au4 I12 3.395953 1_555
Au5 I5 2.594926 1_555
Au5 I3 2.601519 1_555
Au5 I13 3.395953 1_555
I0 K4 3.588526 1_465
I0 K2 3.632547 1_555
I1 K5 3.588526 1_645
I1 K3 3.632547 1_555
I2 K4 3.588526 1_465
I2 K0 3.632547 1_555
I3 K5 3.588526 1_645
I3 K1 3.632547 1_555
I4 K4 3.579329 1_555
I4 K2 3.707588 1_555
I5 K5 3.579329 1_555
I5 K3 3.707588 1_555
I6 K4 3.579329 1_555
I6 K0 3.707588 1_555
I7 K5 3.579329 1_555
I7 K1 3.707588 1_555
I8 K3 3.718410 1_554
I8 K2 3.988671 1_565
I9 K2 3.718410 1_556
I9 K3 3.988671 1_545
I10 K1 3.718410 1_555
I10 K0 3.988671 1_455
I11 K0 3.718410 1_555
I11 K1 3.988671 1_655
I12 K0 3.899652 1_545
I12 K0 4.032783 1_555
I12 K4 4.067525 1_555
I12 K1 4.126812 1_555
I13 K1 3.899652 1_565
I13 K1 4.032783 1_555
I13 K5 4.067525 1_555
I13 K0 4.126812 1_555
I14 K2 3.899652 1_655
I14 K2 4.032783 1_555
I14 K4 4.067525 1_555
I14 K3 4.126812 1_554
I15 K3 3.899652 1_455
I15 K3 4.032783 1_555
I15 K5 4.067525 1_555
I15 K2 4.126812 1_556
