# generated using pymatgen
data_Sm2Ga3Cu
_symmetry_space_group_name_H-M   'P 1'
_cell_length_a   3.78098103
_cell_length_b   4.35469074
_cell_length_c   7.55013279
_cell_angle_alpha   90.00000000
_cell_angle_beta   90.00000000
_cell_angle_gamma   90.00000000
_symmetry_Int_Tables_number   1
_chemical_formula_structural   Sm2Ga3Cu
_chemical_formula_sum   'Sm2 Ga3 Cu1'
_cell_volume   124.31295964
_cell_formula_units_Z   1
loop_
 _symmetry_equiv_pos_site_id
 _symmetry_equiv_pos_as_xyz
  1  'x, y, z'
loop_
 _atom_site_type_symbol
 _atom_site_label
 _atom_site_symmetry_multiplicity
 _atom_site_fract_x
 _atom_site_fract_y
 _atom_site_fract_z
 _atom_site_occupancy
  Sm  Sm0  1  -0.00000000  0.50000000  0.00362967  1
  Sm  Sm1  1  -0.00000000  0.00000000  0.49699769  1
  Ga  Ga0  1  0.50000000  0.00000000  0.83595719  1
  Ga  Ga1  1  0.50000000  0.00000000  0.17490554  1
  Ga  Ga2  1  0.50000000  0.50000000  0.65774188  1
  Cu  Cu0  1  0.50000000  0.50000000  0.33076903  1
loop_
_geom_bond_atom_site_label_1
_geom_bond_atom_site_label_2
_geom_bond_distance
_geom_bond_site_symmetry_2
Ga0 Ga1 2.559105 1_556
Ga0 Ga2 2.559558 1_545
Ga0 Ga2 2.559558 1_555
Ga0 Sm0 3.149193 1_556
Ga0 Sm0 3.149193 1_656
Ga0 Sm0 3.149193 1_546
Ga0 Sm0 3.149193 1_646
Ga0 Sm1 3.181730 1_655
Ga0 Sm1 3.181730 1_555
Ga1 Sm1 3.080226 1_655
Ga1 Sm1 3.080226 1_555
Ga1 Sm0 3.160228 1_545
Ga1 Sm0 3.160228 1_655
Ga1 Sm0 3.160228 1_645
Ga1 Sm0 3.160228 1_555
Ga2 Sm1 3.128531 1_665
Ga2 Sm1 3.128531 1_555
Ga2 Sm1 3.128531 1_565
Ga2 Sm1 3.128531 1_655
Ga2 Sm0 3.223954 1_556
Ga2 Sm0 3.223954 1_656
Cu0 Ga2 2.468688 1_555
Cu0 Ga1 2.475009 1_565
Cu0 Ga1 2.475009 1_555
Cu0 Sm0 3.110400 1_555
Cu0 Sm0 3.110400 1_655
Cu0 Sm1 3.144827 1_655
Cu0 Sm1 3.144827 1_665
Cu0 Sm1 3.144827 1_555
Cu0 Sm1 3.144827 1_565
