# generated using pymatgen
data_DyCoGe
_symmetry_space_group_name_H-M   'P 1'
_cell_length_a   4.26428900
_cell_length_b   6.96740000
_cell_length_c   7.03059300
_cell_angle_alpha   90.00000000
_cell_angle_beta   90.00000000
_cell_angle_gamma   90.00000000
_symmetry_Int_Tables_number   1
_chemical_formula_structural   DyCoGe
_chemical_formula_sum   'Dy4 Co4 Ge4'
_cell_volume   208.88599909
_cell_formula_units_Z   4
loop_
 _symmetry_equiv_pos_site_id
 _symmetry_equiv_pos_as_xyz
  1  'x, y, z'
loop_
 _atom_site_type_symbol
 _atom_site_label
 _atom_site_symmetry_multiplicity
 _atom_site_fract_x
 _atom_site_fract_y
 _atom_site_fract_z
 _atom_site_occupancy
  Dy  Dy0  1  0.25000000  0.98243600  0.80714800  1
  Dy  Dy1  1  0.25000000  0.48243600  0.69285200  1
  Dy  Dy2  1  0.75000000  0.01756400  0.19285200  1
  Dy  Dy3  1  0.75000000  0.51756400  0.30714800  1
  Co  Co0  1  0.25000000  0.14712200  0.43791300  1
  Co  Co1  1  0.25000000  0.64712200  0.06208700  1
  Co  Co2  1  0.75000000  0.85287800  0.56208700  1
  Co  Co3  1  0.75000000  0.35287800  0.93791300  1
  Ge  Ge0  1  0.25000000  0.80002300  0.39160900  1
  Ge  Ge1  1  0.25000000  0.30002300  0.10839100  1
  Ge  Ge2  1  0.75000000  0.19997700  0.60839100  1
  Ge  Ge3  1  0.75000000  0.69997700  0.89160900  1
loop_
_geom_bond_atom_site_label_1
_geom_bond_atom_site_label_2
_geom_bond_distance
_geom_bond_site_symmetry_2
Dy0 Ge3 2.961705 1_555
Dy0 Ge3 2.961705 1_455
Dy0 Ge2 2.965812 1_465
Dy0 Ge2 2.965812 1_565
Dy0 Ge1 3.062982 1_566
Dy0 Ge0 3.185966 1_555
Dy1 Ge2 2.961705 1_555
Dy1 Ge2 2.961705 1_455
Dy1 Ge3 2.965812 1_455
Dy1 Ge3 2.965812 1_555
Dy1 Ge0 3.062982 1_555
Dy1 Ge1 3.185966 1_556
Dy2 Ge1 2.961705 1_655
Dy2 Ge1 2.961705 1_555
Dy2 Ge0 2.965812 1_545
Dy2 Ge0 2.965812 1_645
Dy2 Ge3 3.062982 1_544
Dy2 Ge2 3.185966 1_555
Dy3 Ge0 2.961705 1_555
Dy3 Ge0 2.961705 1_655
Dy3 Ge1 2.965812 1_555
Dy3 Ge1 2.965812 1_655
Dy3 Ge2 3.062982 1_555
Dy3 Ge3 3.185966 1_554
Co0 Ge0 2.440190 1_545
Co0 Ge2 2.473501 1_455
Co0 Ge2 2.473501 1_555
Co0 Ge1 2.549936 1_555
Co0 Dy0 2.838224 1_545
Co0 Dy2 2.886060 1_555
Co0 Dy2 2.886060 1_455
Co0 Dy1 2.944612 1_555
Co1 Ge1 2.440190 1_555
Co1 Ge3 2.473501 1_554
Co1 Ge3 2.473501 1_454
Co1 Ge0 2.549936 1_555
Co1 Dy1 2.838224 1_554
Co1 Dy3 2.886060 1_455
Co1 Dy3 2.886060 1_555
Co1 Dy0 2.944612 1_554
Co2 Ge2 2.440190 1_565
Co2 Ge0 2.473501 1_655
Co2 Ge0 2.473501 1_555
Co2 Ge3 2.549936 1_555
Co2 Dy2 2.838224 1_565
Co2 Dy0 2.886060 1_555
Co2 Dy0 2.886060 1_655
Co2 Dy3 2.944612 1_555
Co3 Ge3 2.440190 1_555
Co3 Ge1 2.473501 1_556
Co3 Ge1 2.473501 1_656
Co3 Ge2 2.549936 1_555
Co3 Dy3 2.838224 1_556
Co3 Dy1 2.886060 1_655
Co3 Dy1 2.886060 1_555
Co3 Dy2 2.944612 1_556
