# generated using pymatgen
data_K8La(PSe4)4
_symmetry_space_group_name_H-M   'P 1'
_cell_length_a   11.83550083
_cell_length_b   11.83550083
_cell_length_c   11.83550083
_cell_angle_alpha   133.78951874
_cell_angle_beta   127.98873273
_cell_angle_gamma   72.09030519
_symmetry_Int_Tables_number   1
_chemical_formula_structural   K8La(PSe4)4
_chemical_formula_sum   'K8 La1 P4 Se16'
_cell_volume   922.59417364
_cell_formula_units_Z   1
loop_
 _symmetry_equiv_pos_site_id
 _symmetry_equiv_pos_as_xyz
  1  'x, y, z'
loop_
 _atom_site_type_symbol
 _atom_site_label
 _atom_site_symmetry_multiplicity
 _atom_site_fract_x
 _atom_site_fract_y
 _atom_site_fract_z
 _atom_site_occupancy
  K  K0  1  0.83597100  0.20323100  0.87515500  1
  K  K1  1  0.67192300  0.79676900  0.63274000  1
  K  K2  1  0.16402900  0.03918400  0.36726000  1
  K  K3  1  0.32807700  0.96081600  0.12484500  1
  K  K4  1  0.74268600  0.74268600  0.00000000  1
  K  K5  1  0.25731400  0.25731400  0.00000000  1
  K  K6  1  0.76466500  0.26466500  0.50000000  1
  K  K7  1  0.23533500  0.73533500  0.50000000  1
  La  La0  1  0.50000000  0.50000000  0.00000000  1
  P  P0  1  0.37815400  0.42055600  0.54589400  1
  P  P1  1  0.12533800  0.57944400  0.95759800  1
  P  P2  1  0.62184600  0.16774000  0.04240200  1
  P  P3  1  0.87466200  0.83226000  0.45410600  1
  Se  Se0  1  0.83959700  0.57731200  0.20414100  1
  Se  Se1  1  0.62682800  0.42268800  0.26228500  1
  Se  Se2  1  0.16040300  0.36454400  0.73771500  1
  Se  Se3  1  0.37317200  0.63545600  0.79585900  1
  Se  Se4  1  0.49748000  0.27591000  0.62965700  1
  Se  Se5  1  0.35374700  0.72409000  0.22156900  1
  Se  Se6  1  0.50252000  0.13217800  0.77843100  1
  Se  Se7  1  0.64625300  0.86782200  0.37034300  1
  Se  Se8  1  0.00018400  0.72946200  0.88757000  1
  Se  Se9  1  0.15810800  0.27053800  0.27072200  1
  Se  Se10  1  0.99981600  0.88738600  0.72927800  1
  Se  Se11  1  0.84189200  0.11261400  0.11243000  1
  Se  Se12  1  0.49021100  0.48329800  0.49270800  1
  Se  Se13  1  0.00941000  0.51670200  0.00691400  1
  Se  Se14  1  0.50978900  0.00249700  0.99308600  1
  Se  Se15  1  0.99059000  0.99750300  0.50729200  1
loop_
_geom_bond_atom_site_label_1
_geom_bond_atom_site_label_2
_geom_bond_distance
_geom_bond_site_symmetry_2
K0 Se0 3.288891 1_556
K0 Se10 3.383174 1_545
K0 Se9 3.438374 1_656
K0 Se4 3.498903 1_555
K0 Se7 3.555122 1_545
K0 Se6 3.569345 1_555
K0 Se11 3.594653 1_556
K0 Se13 3.625777 1_656
K1 Se1 3.288891 1_555
K1 Se11 3.383173 1_566
K1 Se8 3.438380 1_655
K1 Se5 3.498906 1_555
K1 Se6 3.555122 1_565
K1 Se7 3.569340 1_555
K1 Se10 3.594665 1_555
K1 Se12 3.625777 1_555
K2 Se2 3.288891 1_555
K2 Se8 3.383174 1_544
K2 Se11 3.438374 1_455
K2 Se6 3.498905 1_555
K2 Se5 3.555122 1_545
K2 Se4 3.569343 1_555
K2 Se9 3.594653 1_555
K2 Se15 3.625784 1_445
K3 Se3 3.288891 1_554
K3 Se9 3.383181 1_565
K3 Se10 3.438379 1_454
K3 Se7 3.498904 1_555
K3 Se4 3.555122 1_565
K3 Se5 3.569338 1_555
K3 Se8 3.594663 1_554
K3 Se14 3.625784 1_564
K4 Se13 3.452217 1_655
K4 Se14 3.452219 1_564
K4 Se15 3.528199 1_555
K4 Se12 3.528199 1_554
K4 Se3 3.568883 1_554
K4 Se0 3.568894 1_555
K5 Se12 3.452217 1_555
K5 Se15 3.452217 1_444
K5 Se13 3.528198 1_555
K5 Se14 3.528198 1_554
K5 Se1 3.568884 1_555
K5 Se2 3.568894 1_554
K6 Se15 3.471181 1_545
K6 Se12 3.471181 1_555
K6 Se14 3.526373 1_554
K6 Se13 3.526373 1_656
K6 Se1 3.719006 1_555
K6 Se2 3.719008 1_655
K7 Se13 3.471173 1_555
K7 Se14 3.471176 1_565
K7 Se12 3.526366 1_555
K7 Se15 3.526366 1_455
K7 Se3 3.719005 1_555
K7 Se0 3.719008 1_455
La0 Se6 3.169495 1_554
La0 Se7 3.169496 1_555
La0 Se5 3.169496 1_555
La0 Se4 3.169503 1_554
La0 Se2 3.174482 1_554
La0 Se0 3.174482 1_555
La0 Se3 3.174483 1_554
La0 Se1 3.174484 1_555
P0 Se3 2.221094 1_555
P0 Se9 2.222938 1_555
P0 Se12 2.233160 1_555
P0 Se4 2.246457 1_555
P1 Se2 2.221100 1_555
P1 Se8 2.222938 1_555
P1 Se13 2.233170 1_556
P1 Se5 2.246455 1_556
P2 Se1 2.221104 1_555
P2 Se11 2.222938 1_555
P2 Se14 2.233152 1_554
P2 Se6 2.246453 1_554
P3 Se0 2.221100 1_555
P3 Se10 2.222938 1_555
P3 Se15 2.233160 1_555
P3 Se7 2.246455 1_555
