# generated using pymatgen
data_DyMgAu
_symmetry_space_group_name_H-M   'P 1'
_cell_length_a   7.56118493
_cell_length_b   7.56118493
_cell_length_c   4.06697215
_cell_angle_alpha   90.00000000
_cell_angle_beta   90.00000000
_cell_angle_gamma   120.00001533
_symmetry_Int_Tables_number   1
_chemical_formula_structural   DyMgAu
_chemical_formula_sum   'Dy3 Mg3 Au3'
_cell_volume   201.36383948
_cell_formula_units_Z   3
loop_
 _symmetry_equiv_pos_site_id
 _symmetry_equiv_pos_as_xyz
  1  'x, y, z'
loop_
 _atom_site_type_symbol
 _atom_site_label
 _atom_site_symmetry_multiplicity
 _atom_site_fract_x
 _atom_site_fract_y
 _atom_site_fract_z
 _atom_site_occupancy
  Dy  Dy0  1  0.58844012  0.00000000  -0.00000000  1
  Dy  Dy1  1  0.00000000  0.58844012  0.00000000  1
  Dy  Dy2  1  0.41155988  0.41155988  0.00000000  1
  Mg  Mg0  1  0.24659599  0.00000000  0.50000000  1
  Mg  Mg1  1  0.00000000  0.24659599  0.50000000  1
  Mg  Mg2  1  0.75340401  0.75340401  0.50000000  1
  Au  Au0  1  0.33333300  0.66666700  0.50000000  1
  Au  Au1  1  0.66666700  0.33333300  0.50000000  1
  Au  Au2  1  0.00000000  0.00000000  0.00000000  1
loop_
_geom_bond_atom_site_label_1
_geom_bond_atom_site_label_2
_geom_bond_distance
_geom_bond_site_symmetry_2
Dy0 Mg0 3.288766 1_555
Dy0 Mg0 3.288766 1_554
Dy0 Mg1 3.390156 1_655
Dy0 Mg1 3.390156 1_654
Dy0 Mg2 3.390157 1_545
Dy0 Mg2 3.390157 1_544
Dy1 Mg1 3.288766 1_555
Dy1 Mg1 3.288766 1_554
Dy1 Mg0 3.390156 1_564
Dy1 Mg0 3.390156 1_565
Dy1 Mg2 3.390157 1_455
Dy1 Mg2 3.390157 1_454
Dy2 Mg2 3.288765 1_554
Dy2 Mg2 3.288765 1_555
Dy2 Mg0 3.390156 1_555
Dy2 Mg0 3.390156 1_554
Dy2 Mg1 3.390156 1_554
Dy2 Mg1 3.390156 1_555
Mg0 Mg2 3.229508 1_445
Mg0 Mg1 3.229509 1_555
Mg1 Mg2 3.229508 1_445
Au0 Mg0 2.904386 1_565
Au0 Mg1 2.904390 1_555
Au0 Mg2 2.904393 1_555
Au0 Dy1 3.057208 1_556
Au0 Dy1 3.057208 1_555
Au0 Dy0 3.057209 1_566
Au0 Dy0 3.057209 1_565
Au0 Dy2 3.057213 1_556
Au0 Dy2 3.057213 1_555
Au1 Mg1 2.904386 1_655
Au1 Mg0 2.904390 1_555
Au1 Mg2 2.904393 1_555
Au1 Dy0 3.057208 1_555
Au1 Dy0 3.057208 1_556
Au1 Dy1 3.057209 1_655
Au1 Dy1 3.057209 1_656
Au1 Dy2 3.057213 1_556
Au1 Dy2 3.057213 1_555
Au2 Mg2 2.758920 1_444
Au2 Mg2 2.758920 1_445
Au2 Mg1 2.758920 1_555
Au2 Mg0 2.758920 1_555
Au2 Mg0 2.758920 1_554
Au2 Mg1 2.758920 1_554
Au2 Dy2 3.111880 1_555
Au2 Dy1 3.111880 1_545
Au2 Dy0 3.111880 1_455
