# generated using pymatgen
data_Y7(CuTe4)3
_symmetry_space_group_name_H-M   'P 1'
_cell_length_a   14.30550680
_cell_length_b   42.85497915
_cell_length_c   28.25302776
_cell_angle_alpha   8.77885580
_cell_angle_beta   15.21290869
_cell_angle_gamma   17.51558201
_symmetry_Int_Tables_number   1
_chemical_formula_structural   Y7(CuTe4)3
_chemical_formula_sum   'Y7 Cu3 Te12'
_cell_volume   693.67956926
_cell_formula_units_Z   1
loop_
 _symmetry_equiv_pos_site_id
 _symmetry_equiv_pos_as_xyz
  1  'x, y, z'
loop_
 _atom_site_type_symbol
 _atom_site_label
 _atom_site_symmetry_multiplicity
 _atom_site_fract_x
 _atom_site_fract_y
 _atom_site_fract_z
 _atom_site_occupancy
  Y  Y0  1  0.58616900  0.99541900  0.58674300  1
  Y  Y1  1  0.99981300  0.66717300  0.99832700  1
  Y  Y2  1  0.40820300  0.33327000  0.42191100  1
  Y  Y3  1  0.58933300  0.33815800  0.57113300  1
  Y  Y4  1  0.42467400  0.67032500  0.40812400  1
  Y  Y5  1  0.57109700  0.66548700  0.58926900  1
  Y  Y6  1  0.41904600  0.99752700  0.42026000  1
  Cu  Cu0  1  0.18910800  0.33472200  0.18943300  1
  Cu  Cu1  1  0.80847800  0.99874200  0.81307200  1
  Cu  Cu2  1  0.81321000  0.33365500  0.80821300  1
  Te  Te0  1  0.12480300  0.99758600  0.13228600  1
  Te  Te1  1  0.29053400  0.00052700  0.29145300  1
  Te  Te2  1  0.12195000  0.33819700  0.12200500  1
  Te  Te3  1  0.29209300  0.33299000  0.29183200  1
  Te  Te4  1  0.13219700  0.66718900  0.12449900  1
  Te  Te5  1  0.29147300  0.66725900  0.29089600  1
  Te  Te6  1  0.70707800  0.33348900  0.70916300  1
  Te  Te7  1  0.87969700  0.33243900  0.87138400  1
  Te  Te8  1  0.70872000  0.66509000  0.71079500  1
  Te  Te9  1  0.87223000  0.66742600  0.87244200  1
  Te  Te10  1  0.71032200  0.00038700  0.70716300  1
  Te  Te11  1  0.87047100  0.99627700  0.88029700  1
loop_
_geom_bond_atom_site_label_1
_geom_bond_atom_site_label_2
_geom_bond_distance
_geom_bond_site_symmetry_2
Cu0 Te9 2.594477 1_454
Cu0 Te7 2.631274 1_554
Cu0 Te11 2.635685 1_445
Cu0 Te2 2.696838 1_555
Cu1 Te4 2.604213 1_656
Cu1 Te0 2.608711 1_556
Cu1 Te2 2.642953 1_665
Cu1 Te11 2.660919 1_555
Cu2 Te0 2.608526 1_646
Cu2 Te4 2.609723 1_655
Cu2 Te2 2.639890 1_556
Cu2 Te7 2.662806 1_555
Te0 Y4 3.093056 1_555
Te0 Y6 3.099518 1_455
Te0 Y2 3.117283 1_564
Te1 Y1 3.054016 1_445
Te1 Y5 3.087687 1_545
Te1 Y0 3.088962 1_445
Te1 Y3 3.137735 1_554
Te2 Y2 3.114771 1_455
Te2 Y4 3.115975 1_554
Te2 Y6 3.134166 1_545
Te3 Y1 3.052804 1_454
Te3 Y3 3.080922 1_455
Te3 Y5 3.081388 1_554
Te3 Y0 3.118748 1_545
Te4 Y2 3.093351 1_555
Te4 Y6 3.100651 1_554
Te4 Y4 3.111461 1_455
Te5 Y1 3.057091 1_554
Te5 Y3 3.087130 1_555
Te5 Y0 3.089538 1_554
Te5 Y5 3.136672 1_455
Te6 Y2 3.056185 1_655
Te6 Y4 3.073748 1_555
Te6 Y6 3.090474 1_546
Te6 Y1 3.100973 1_554
Te7 Y3 3.084819 1_655
Te7 Y5 3.099167 1_555
Te7 Y0 3.102498 1_546
Te8 Y6 3.068931 1_555
Te8 Y2 3.090282 1_556
Te8 Y1 3.091832 1_455
Te8 Y4 3.104458 1_655
Te9 Y0 3.042535 1_555
Te9 Y5 3.054654 1_655
Te9 Y3 3.055156 1_556
Te10 Y4 3.057813 1_546
Te10 Y6 3.082313 1_645
Te10 Y1 3.083089 1_545
Te10 Y2 3.085657 1_555
Te11 Y5 3.083272 1_556
Te11 Y3 3.096821 1_565
Te11 Y0 3.101454 1_655
