# generated using pymatgen
data_SrCaPrSbO6
_symmetry_space_group_name_H-M   'P 1'
_cell_length_a   5.86512391
_cell_length_b   6.01672046
_cell_length_c   8.41530104
_cell_angle_alpha   90.20186312
_cell_angle_beta   90.56058329
_cell_angle_gamma   90.02361684
_symmetry_Int_Tables_number   1
_chemical_formula_structural   SrCaPrSbO6
_chemical_formula_sum   'Sr2 Ca2 Pr2 Sb2 O12'
_cell_volume   296.94988197
_cell_formula_units_Z   2
loop_
 _symmetry_equiv_pos_site_id
 _symmetry_equiv_pos_as_xyz
  1  'x, y, z'
loop_
 _atom_site_type_symbol
 _atom_site_label
 _atom_site_symmetry_multiplicity
 _atom_site_fract_x
 _atom_site_fract_y
 _atom_site_fract_z
 _atom_site_occupancy
  Sr  Sr0  1  0.51104486  0.54737236  0.24963627  1
  Sr  Sr1  1  0.48895514  0.45262764  0.75036373  1
  Ca  Ca0  1  0.98612075  0.04682854  0.25358539  1
  Ca  Ca1  1  0.01387925  0.95317146  0.74641461  1
  Pr  Pr0  1  0.00000000  0.50000000  0.00000000  1
  Pr  Pr1  1  0.50000000  0.00000000  0.50000000  1
  Sb  Sb0  1  0.50000000  0.00000000  0.00000000  1
  Sb  Sb1  1  0.00000000  0.50000000  0.50000000  1
  O  O0  1  0.22175238  0.18043694  0.93688286  1
  O  O1  1  0.27932093  0.68369636  0.54698961  1
  O  O2  1  0.77824762  0.81956306  0.06311714  1
  O  O3  1  0.72067907  0.31630364  0.45301039  1
  O  O4  1  0.32465737  0.72070608  0.94428228  1
  O  O5  1  0.17182235  0.21778087  0.56235959  1
  O  O6  1  0.67534263  0.27929392  0.05571772  1
  O  O7  1  0.82817765  0.78221913  0.43764041  1
  O  O8  1  0.38211377  0.96858345  0.22685653  1
  O  O9  1  0.09572473  0.44402731  0.27212207  1
  O  O10  1  0.61788623  0.03141655  0.77314347  1
  O  O11  1  0.90427527  0.55597269  0.72787793  1
loop_
_geom_bond_atom_site_label_1
_geom_bond_atom_site_label_2
_geom_bond_distance
_geom_bond_site_symmetry_2
Ca0 O8 2.382611 1_645
Ca0 O7 2.415806 1_545
Ca0 O2 2.422866 1_545
Ca0 O9 2.478513 1_655
Ca0 O3 2.811233 1_555
Ca0 O6 2.830276 1_555
Ca0 O5 2.986792 1_655
Ca1 O10 2.382611 1_465
Ca1 O5 2.415806 1_565
Ca1 O0 2.422866 1_565
Ca1 O11 2.478513 1_455
Ca1 O1 2.811233 1_555
Ca1 O4 2.830276 1_555
Ca1 O7 2.986792 1_455
O0 Sb0 2.027949 1_556
O0 Pr0 2.383052 1_556
O0 Sr1 2.768738 1_555
O1 Sb1 2.011110 1_555
O1 Pr1 2.338102 1_565
O1 Sr1 2.520057 1_555
O1 Sr0 2.972287 1_555
O2 Sb0 2.027949 1_565
O2 Pr0 2.383052 1_655
O2 Sr0 2.768738 1_555
O3 Sb1 2.011110 1_655
O3 Pr1 2.338102 1_555
O3 Sr0 2.520057 1_555
O3 Sr1 2.972287 1_555
O4 Sb0 2.021117 1_566
O4 Pr0 2.372514 1_556
O4 Sr1 2.491333 1_555
O4 Sr0 2.975001 1_556
O5 Sb1 2.042456 1_555
O5 Pr1 2.390441 1_555
O5 Sr1 2.807819 1_555
O6 Sb0 2.021117 1_555
O6 Pr0 2.372514 1_655
O6 Sr0 2.491333 1_555
O6 Sr1 2.975001 1_554
O7 Sb1 2.042456 1_655
O7 Pr1 2.390441 1_565
O7 Sr0 2.807819 1_555
O8 Sb0 2.046115 1_565
O8 Pr1 2.400627 1_565
O8 Sr0 2.652069 1_555
O9 Sb1 2.030450 1_555
O9 Pr0 2.377627 1_555
O9 Sr0 2.522829 1_555
O10 Sb0 2.046115 1_556
O10 Pr1 2.400627 1_555
O10 Sr1 2.652069 1_555
O11 Sb1 2.030450 1_655
O11 Pr0 2.377627 1_656
O11 Sr1 2.522829 1_555
