# generated using pymatgen
data_Tm6Al43W4
_symmetry_space_group_name_H-M   'P 1'
_cell_length_a   11.03137699
_cell_length_b   11.03137699
_cell_length_c   17.54139300
_cell_angle_alpha   90.00000000
_cell_angle_beta   90.00000000
_cell_angle_gamma   120.00000595
_symmetry_Int_Tables_number   1
_chemical_formula_structural   Tm6Al43W4
_chemical_formula_sum   'Tm12 Al86 W8'
_cell_volume   1848.64762687
_cell_formula_units_Z   2
loop_
 _symmetry_equiv_pos_site_id
 _symmetry_equiv_pos_as_xyz
  1  'x, y, z'
loop_
 _atom_site_type_symbol
 _atom_site_label
 _atom_site_symmetry_multiplicity
 _atom_site_fract_x
 _atom_site_fract_y
 _atom_site_fract_z
 _atom_site_occupancy
  Tm  Tm0  1  0.46826700  0.46826700  0.90438900  1
  Tm  Tm1  1  0.53173300  0.00000000  0.90438900  1
  Tm  Tm2  1  0.00000000  0.53173300  0.90438900  1
  Tm  Tm3  1  0.53173300  0.53173300  0.09561100  1
  Tm  Tm4  1  0.46826700  0.00000000  0.09561100  1
  Tm  Tm5  1  0.00000000  0.46826700  0.09561100  1
  Tm  Tm6  1  0.53173300  0.53173300  0.40438900  1
  Tm  Tm7  1  0.46826700  0.00000000  0.40438900  1
  Tm  Tm8  1  0.00000000  0.46826700  0.40438900  1
  Tm  Tm9  1  0.46826700  0.46826700  0.59561100  1
  Tm  Tm10  1  0.53173300  0.00000000  0.59561100  1
  Tm  Tm11  1  0.00000000  0.53173300  0.59561100  1
  Al  Al0  1  0.84192400  0.23696200  0.83668500  1
  Al  Al1  1  0.76303800  0.60496200  0.83668500  1
  Al  Al2  1  0.39503800  0.15807600  0.83668500  1
  Al  Al3  1  0.23696200  0.84192400  0.83668500  1
  Al  Al4  1  0.60496200  0.76303800  0.83668500  1
  Al  Al5  1  0.15807600  0.39503800  0.83668500  1
  Al  Al6  1  0.15807600  0.76303800  0.16331500  1
  Al  Al7  1  0.23696200  0.39503800  0.16331500  1
  Al  Al8  1  0.60496200  0.84192400  0.16331500  1
  Al  Al9  1  0.76303800  0.15807600  0.16331500  1
  Al  Al10  1  0.39503800  0.23696200  0.16331500  1
  Al  Al11  1  0.84192400  0.60496200  0.16331500  1
  Al  Al12  1  0.15807600  0.76303800  0.33668500  1
  Al  Al13  1  0.23696200  0.39503800  0.33668500  1
  Al  Al14  1  0.60496200  0.84192400  0.33668500  1
  Al  Al15  1  0.76303800  0.15807600  0.33668500  1
  Al  Al16  1  0.39503800  0.23696200  0.33668500  1
  Al  Al17  1  0.84192400  0.60496200  0.33668500  1
  Al  Al18  1  0.84192400  0.23696200  0.66331500  1
  Al  Al19  1  0.76303800  0.60496200  0.66331500  1
  Al  Al20  1  0.39503800  0.15807600  0.66331500  1
  Al  Al21  1  0.23696200  0.84192400  0.66331500  1
  Al  Al22  1  0.60496200  0.76303800  0.66331500  1
  Al  Al23  1  0.15807600  0.39503800  0.66331500  1
  Al  Al24  1  0.84022600  0.84022600  0.38526400  1
  Al  Al25  1  0.15977400  0.00000000  0.38526400  1
  Al  Al26  1  0.00000000  0.15977400  0.38526400  1
  Al  Al27  1  0.15977400  0.15977400  0.61473600  1
  Al  Al28  1  0.84022600  0.00000000  0.61473600  1
  Al  Al29  1  0.00000000  0.84022600  0.61473600  1
  Al  Al30  1  0.15977400  0.15977400  0.88526400  1
  Al  Al31  1  0.84022600  0.00000000  0.88526400  1
  Al  Al32  1  0.00000000  0.84022600  0.88526400  1
  Al  Al33  1  0.84022600  0.84022600  0.11473600  1
  Al  Al34  1  0.15977400  0.00000000  0.11473600  1
  Al  Al35  1  0.00000000  0.15977400  0.11473600  1
  Al  Al36  1  0.74499200  0.74499200  0.96938100  1
  Al  Al37  1  0.25500800  0.00000000  0.96938100  1
  Al  Al38  1  0.00000000  0.25500800  0.96938100  1
  Al  Al39  1  0.25500800  0.25500800  0.03061900  1
  Al  Al40  1  0.74499200  0.00000000  0.03061900  1
  Al  Al41  1  0.00000000  0.74499200  0.03061900  1
  Al  Al42  1  0.25500800  0.25500800  0.46938100  1
  Al  Al43  1  0.74499200  0.00000000  0.46938100  1
  Al  Al44  1  0.00000000  0.74499200  0.46938100  1
  Al  Al45  1  0.74499200  0.74499200  0.53061900  1
  Al  Al46  1  0.25500800  0.00000000  0.53061900  1
  Al  Al47  1  0.00000000  0.25500800  0.53061900  1
  Al  Al48  1  0.85274000  0.44780300  0.75000000  1
  Al  Al49  1  0.55219700  0.40493700  0.75000000  1
  Al  Al50  1  0.59506300  0.14726000  0.75000000  1
  Al  Al51  1  0.44780300  0.85274000  0.75000000  1
  Al  Al52  1  0.40493700  0.55219700  0.75000000  1
  Al  Al53  1  0.14726000  0.59506300  0.75000000  1
  Al  Al54  1  0.14726000  0.55219700  0.25000000  1
  Al  Al55  1  0.44780300  0.59506300  0.25000000  1
  Al  Al56  1  0.40493700  0.85274000  0.25000000  1
  Al  Al57  1  0.55219700  0.14726000  0.25000000  1
  Al  Al58  1  0.59506300  0.44780300  0.25000000  1
  Al  Al59  1  0.85274000  0.40493700  0.25000000  1
  Al  Al60  1  0.75321600  0.24678400  0.00000000  1
  Al  Al61  1  0.75321600  0.50643200  0.00000000  1
  Al  Al62  1  0.49356800  0.24678400  0.00000000  1
  Al  Al63  1  0.24678400  0.75321600  0.00000000  1
  Al  Al64  1  0.50643200  0.75321600  0.00000000  1
  Al  Al65  1  0.24678400  0.49356800  0.00000000  1
  Al  Al66  1  0.24678400  0.75321600  0.50000000  1
  Al  Al67  1  0.24678400  0.49356800  0.50000000  1
  Al  Al68  1  0.50643200  0.75321600  0.50000000  1
  Al  Al69  1  0.75321600  0.24678400  0.50000000  1
  Al  Al70  1  0.49356800  0.24678400  0.50000000  1
  Al  Al71  1  0.75321600  0.50643200  0.50000000  1
  Al  Al72  1  0.66666700  0.33333300  0.87403900  1
  Al  Al73  1  0.33333300  0.66666700  0.87403900  1
  Al  Al74  1  0.33333300  0.66666700  0.12596100  1
  Al  Al75  1  0.66666700  0.33333300  0.12596100  1
  Al  Al76  1  0.33333300  0.66666700  0.37403900  1
  Al  Al77  1  0.66666700  0.33333300  0.37403900  1
  Al  Al78  1  0.66666700  0.33333300  0.62596100  1
  Al  Al79  1  0.33333300  0.66666700  0.62596100  1
  Al  Al80  1  0.85236000  0.85236000  0.75000000  1
  Al  Al81  1  0.14764000  0.00000000  0.75000000  1
  Al  Al82  1  0.00000000  0.14764000  0.75000000  1
  Al  Al83  1  0.14764000  0.14764000  0.25000000  1
  Al  Al84  1  0.85236000  0.00000000  0.25000000  1
  Al  Al85  1  0.00000000  0.85236000  0.25000000  1
  W  W0  1  0.27139900  0.27139900  0.75000000  1
  W  W1  1  0.72860100  0.00000000  0.75000000  1
  W  W2  1  0.00000000  0.72860100  0.75000000  1
  W  W3  1  0.72860100  0.72860100  0.25000000  1
  W  W4  1  0.27139900  0.00000000  0.25000000  1
  W  W5  1  0.00000000  0.27139900  0.25000000  1
  W  W6  1  0.00000000  0.00000000  0.00000000  1
  W  W7  1  0.00000000  0.00000000  0.50000000  1
loop_
_geom_bond_atom_site_label_1
_geom_bond_atom_site_label_2
_geom_bond_distance
_geom_bond_site_symmetry_2
Tm0 Tm3 3.426586 1_556
Tm0 W0 3.471416 1_555
Tm1 Tm4 3.426586 1_556
Tm1 W1 3.471416 1_555
Tm2 Tm5 3.426586 1_556
Tm2 W2 3.471416 1_555
Tm3 W3 3.471416 1_555
Tm4 W4 3.471416 1_555
Tm5 W5 3.471416 1_555
Tm6 Tm9 3.426586 1_555
Tm6 W3 3.471416 1_555
Tm7 W4 3.471416 1_555
Tm8 W5 3.471416 1_555
Tm9 W0 3.471416 1_555
Tm10 Tm7 3.426586 1_555
Tm10 W1 3.471416 1_555
Tm11 Tm8 3.426586 1_555
Tm11 W2 3.471416 1_555
Al0 Al72 2.711570 1_555
Al0 W1 2.727673 1_555
Al0 Al48 2.731031 1_555
Al0 Al31 2.740551 1_555
Al0 Al50 2.830639 1_555
Al0 Al82 2.835863 1_655
Al0 Al38 2.855061 1_655
Al0 Al5 3.020343 1_655
Al0 Al18 3.041151 1_555
Al0 Al60 3.046685 1_556
Al0 Tm2 3.058540 1_655
Al0 Tm1 3.317792 1_555
Al1 Al72 2.711580 1_555
Al1 W2 2.727673 1_655
Al1 Al49 2.731031 1_555
Al1 Al32 2.740551 1_655
Al1 Al48 2.830640 1_555
Al1 Al80 2.835863 1_555
Al1 Al36 2.855061 1_555
Al1 Al4 3.020343 1_555
Al1 Al19 3.041151 1_555
Al1 Al61 3.046685 1_556
Al1 Tm0 3.058540 1_555
Al1 Tm2 3.317793 1_655
Al2 Al72 2.711578 1_555
Al2 W0 2.727673 1_555
Al2 Al50 2.731031 1_555
Al2 Al30 2.740551 1_555
Al2 Al49 2.830639 1_555
Al2 Al81 2.835863 1_555
Al2 Al37 2.855061 1_555
Al2 Al3 3.020343 1_545
Al2 Al20 3.041151 1_555
Al2 Al62 3.046685 1_556
Al2 Tm1 3.058540 1_555
Al2 Tm0 3.317792 1_555
Al3 Al73 2.711570 1_555
Al3 W2 2.727673 1_555
Al3 Al51 2.731031 1_555
Al3 Al32 2.740551 1_555
Al3 Al53 2.830639 1_555
Al3 Al81 2.835863 1_565
Al3 Al37 2.855061 1_565
Al3 Al63 3.046685 1_556
Al3 Tm1 3.058540 1_565
Al3 Tm2 3.317792 1_555
Al4 Al73 2.711580 1_555
Al4 W1 2.727673 1_565
Al4 Al52 2.731031 1_555
Al4 Al51 2.830640 1_555
Al4 Al80 2.835863 1_555
Al4 Al64 3.046685 1_556
Al4 Tm0 3.058540 1_555
Al4 Tm1 3.317793 1_565
Al5 Al73 2.711578 1_555
Al5 W0 2.727673 1_555
Al5 Al53 2.731031 1_555
Al5 Al52 2.830639 1_555
Al5 Al82 2.835863 1_555
Al5 Al65 3.046685 1_556
Al5 Tm2 3.058540 1_555
Al5 Tm0 3.317792 1_555
Al6 Al74 2.711570 1_555
Al6 W4 2.727673 1_565
Al6 Al85 2.835863 1_555
Al6 Al63 3.046685 1_555
Al6 Tm5 3.058540 1_555
Al6 Tm4 3.317792 1_565
Al7 Al74 2.711580 1_555
Al7 W5 2.727673 1_555
Al7 Al83 2.835863 1_555
Al7 Tm3 3.058540 1_555
Al7 Tm5 3.317793 1_555
Al8 W3 2.727673 1_555
Al8 Al84 2.835863 1_565
Al8 Al9 3.020343 1_565
Al8 Tm4 3.058540 1_565
Al8 Tm3 3.317792 1_555
Al9 W5 2.727673 1_655
Al9 Tm4 3.058540 1_555
Al9 Tm5 3.317792 1_655
Al10 Al75 2.711580 1_555
Al10 W4 2.727673 1_555
Al10 Al58 2.731031 1_555
Al10 Al34 2.740551 1_555
Al10 Al57 2.830640 1_555
Al10 Al83 2.835863 1_555
Al10 Al39 2.855061 1_555
Al10 Al7 3.020343 1_555
Al10 Al16 3.041151 1_555
Al10 Al62 3.046685 1_555
Al10 Tm3 3.058540 1_555
Al10 Tm4 3.317793 1_555
Al11 Al75 2.711578 1_555
Al11 W3 2.727673 1_555
Al11 Al59 2.731031 1_555
Al11 Al33 2.740551 1_555
Al11 Al58 2.830639 1_555
Al11 Al85 2.835863 1_655
Al11 Al41 2.855061 1_655
Al11 Al6 3.020343 1_655
Al11 Al17 3.041151 1_555
Al11 Al61 3.046685 1_555
Al11 Tm5 3.058540 1_655
Al11 Tm3 3.317792 1_555
Al12 Al76 2.711570 1_555
Al12 W4 2.727673 1_565
Al12 Al54 2.731031 1_555
Al12 Al25 2.740551 1_565
Al12 Al56 2.830639 1_555
Al12 Al85 2.835863 1_555
Al12 Al44 2.855061 1_555
Al12 Al17 3.020343 1_455
Al12 Al6 3.041151 1_555
Al12 Al66 3.046685 1_555
Al12 Tm8 3.058540 1_555
Al12 Tm7 3.317792 1_565
Al13 Al76 2.711580 1_555
Al13 W5 2.727673 1_555
Al13 Al55 2.731031 1_555
Al13 Al26 2.740551 1_555
Al13 Al54 2.830640 1_555
Al13 Al83 2.835863 1_555
Al13 Al42 2.855061 1_555
Al13 Al16 3.020343 1_555
Al13 Al7 3.041151 1_555
Al13 Al67 3.046685 1_555
Al13 Tm6 3.058540 1_555
Al13 Tm8 3.317793 1_555
Al14 Al76 2.711578 1_555
Al14 W3 2.727673 1_555
Al14 Al56 2.731031 1_555
Al14 Al24 2.740551 1_555
Al14 Al55 2.830639 1_555
Al14 Al84 2.835863 1_565
Al14 Al43 2.855061 1_565
Al14 Al15 3.020343 1_565
Al14 Al8 3.041151 1_555
Al14 Al68 3.046685 1_555
Al14 Tm7 3.058540 1_565
Al14 Tm6 3.317792 1_555
Al15 Al77 2.711570 1_555
Al15 W5 2.727673 1_655
Al15 Al57 2.731031 1_555
Al15 Al26 2.740551 1_655
Al15 Al59 2.830639 1_555
Al15 Al84 2.835863 1_555
Al15 Al43 2.855061 1_555
Al15 Al9 3.041151 1_555
Al15 Al69 3.046685 1_555
Al15 Tm7 3.058540 1_555
Al15 Tm8 3.317792 1_655
Al16 Al77 2.711580 1_555
Al16 W4 2.727673 1_555
Al16 Al58 2.731031 1_555
Al16 Al25 2.740551 1_555
Al16 Al57 2.830640 1_555
Al16 Al83 2.835863 1_555
Al16 Al42 2.855061 1_555
Al16 Al70 3.046685 1_555
Al16 Tm6 3.058540 1_555
Al16 Tm7 3.317793 1_555
Al17 Al77 2.711578 1_555
Al17 W3 2.727673 1_555
Al17 Al59 2.731031 1_555
Al17 Al24 2.740551 1_555
Al17 Al58 2.830639 1_555
Al17 Al85 2.835863 1_655
Al17 Al44 2.855061 1_655
Al17 Al71 3.046685 1_555
Al17 Tm8 3.058540 1_655
Al17 Tm6 3.317792 1_555
Al18 Al78 2.711570 1_555
Al18 W1 2.727673 1_555
Al18 Al48 2.731031 1_555
Al18 Al28 2.740551 1_555
Al18 Al50 2.830639 1_555
Al18 Al82 2.835863 1_655
Al18 Al47 2.855061 1_655
Al18 Al23 3.020343 1_655
Al18 Al69 3.046685 1_555
Al18 Tm11 3.058540 1_655
Al18 Tm10 3.317792 1_555
Al19 Al78 2.711580 1_555
Al19 W2 2.727673 1_655
Al19 Al49 2.731031 1_555
Al19 Al29 2.740551 1_655
Al19 Al48 2.830640 1_555
Al19 Al80 2.835863 1_555
Al19 Al45 2.855061 1_555
Al19 Al22 3.020343 1_555
Al19 Al71 3.046685 1_555
Al19 Tm9 3.058540 1_555
Al19 Tm11 3.317793 1_655
Al20 Al78 2.711578 1_555
Al20 W0 2.727673 1_555
Al20 Al50 2.731031 1_555
Al20 Al27 2.740551 1_555
Al20 Al49 2.830639 1_555
Al20 Al81 2.835863 1_555
Al20 Al46 2.855061 1_555
Al20 Al21 3.020343 1_545
Al20 Al70 3.046685 1_555
Al20 Tm10 3.058540 1_555
Al20 Tm9 3.317792 1_555
Al21 Al79 2.711570 1_555
Al21 W2 2.727673 1_555
Al21 Al51 2.731031 1_555
Al21 Al29 2.740551 1_555
Al21 Al53 2.830639 1_555
Al21 Al81 2.835863 1_565
Al21 Al46 2.855061 1_565
Al21 Al3 3.041151 1_555
Al21 Al66 3.046685 1_555
Al21 Tm10 3.058540 1_565
Al21 Tm11 3.317792 1_555
Al22 Al79 2.711580 1_555
Al22 W1 2.727673 1_565
Al22 Al52 2.731031 1_555
Al22 Al28 2.740551 1_565
Al22 Al51 2.830640 1_555
Al22 Al80 2.835863 1_555
Al22 Al45 2.855061 1_555
Al22 Al4 3.041151 1_555
Al22 Al68 3.046685 1_555
Al22 Tm9 3.058540 1_555
Al22 Tm10 3.317793 1_565
Al23 Al79 2.711578 1_555
Al23 W0 2.727673 1_555
Al23 Al53 2.731031 1_555
Al23 Al27 2.740551 1_555
Al23 Al52 2.830639 1_555
Al23 Al82 2.835863 1_555
Al23 Al47 2.855061 1_555
Al23 Al5 3.041151 1_555
Al23 Al67 3.046685 1_555
Al23 Tm11 3.058540 1_555
Al23 Tm9 3.317792 1_555
Al24 W3 2.673216 1_555
Al24 W7 2.675290 1_665
Al24 Al45 2.757680 1_555
Al24 Al44 2.870368 1_655
Al24 Al43 2.870368 1_565
Al24 Al84 2.918611 1_565
Al24 Al85 2.918611 1_655
Al24 Al26 3.052787 1_665
Al24 Al25 3.052787 1_665
Al24 Tm6 3.419598 1_555
Al25 W4 2.673216 1_555
Al25 W7 2.675290 1_555
Al25 Al46 2.757680 1_555
Al25 Al44 2.870368 1_545
Al25 Al42 2.870368 1_555
Al25 Al85 2.918611 1_545
Al25 Al83 2.918611 1_555
Al25 Al26 3.052787 1_555
Al25 Tm7 3.419598 1_555
Al26 W5 2.673216 1_555
Al26 W7 2.675290 1_555
Al26 Al47 2.757680 1_555
Al26 Al43 2.870368 1_455
Al26 Al42 2.870368 1_555
Al26 Al84 2.918611 1_455
Al26 Al83 2.918611 1_555
Al26 Tm8 3.419598 1_555
Al27 W0 2.673216 1_555
Al27 W7 2.675290 1_555
Al27 Al42 2.757680 1_555
Al27 Al46 2.870368 1_555
Al27 Al47 2.870368 1_555
Al27 Al81 2.918611 1_555
Al27 Al82 2.918611 1_555
Al27 Al29 3.052787 1_545
Al27 Al28 3.052787 1_455
Al27 Tm9 3.419598 1_555
Al28 W1 2.673216 1_555
Al28 W7 2.675290 1_655
Al28 Al43 2.757680 1_555
Al28 Al47 2.870368 1_655
Al28 Al45 2.870368 1_545
Al28 Al82 2.918611 1_655
Al28 Al80 2.918611 1_545
Al28 Al29 3.052787 1_645
Al28 Tm10 3.419598 1_555
Al29 W2 2.673216 1_555
Al29 W7 2.675290 1_565
Al29 Al44 2.757680 1_555
Al29 Al46 2.870368 1_565
Al29 Al45 2.870368 1_455
Al29 Al81 2.918611 1_565
Al29 Al80 2.918611 1_455
Al29 Tm11 3.419598 1_555
Al30 W0 2.673216 1_555
Al30 W6 2.675290 1_556
Al30 Al5 2.740551 1_555
Al30 Al39 2.757680 1_556
Al30 Al37 2.870368 1_555
Al30 Al38 2.870368 1_555
Al30 Al82 2.918611 1_555
Al30 Al81 2.918611 1_555
Al30 Al32 3.052787 1_545
Al30 Al31 3.052787 1_455
Al30 Tm0 3.419598 1_555
Al31 W1 2.673216 1_555
Al31 W6 2.675290 1_656
Al31 Al4 2.740551 1_545
Al31 Al40 2.757680 1_556
Al31 Al38 2.870368 1_655
Al31 Al36 2.870368 1_545
Al31 Al82 2.918611 1_655
Al31 Al80 2.918611 1_545
Al31 Al32 3.052787 1_645
Al31 Tm1 3.419598 1_555
Al32 W2 2.673216 1_555
Al32 W6 2.675290 1_566
Al32 Al41 2.757680 1_556
Al32 Al37 2.870368 1_565
Al32 Al36 2.870368 1_455
Al32 Al81 2.918611 1_565
Al32 Al80 2.918611 1_455
Al32 Tm2 3.419598 1_555
Al33 W3 2.673216 1_555
Al33 W6 2.675290 1_665
Al33 Al8 2.740551 1_555
Al33 Al36 2.757680 1_554
Al33 Al41 2.870368 1_655
Al33 Al40 2.870368 1_565
Al33 Al85 2.918611 1_655
Al33 Al84 2.918611 1_565
Al33 Al34 3.052787 1_665
Al33 Al35 3.052787 1_665
Al33 Tm3 3.419598 1_555
Al34 W4 2.673216 1_555
Al34 W6 2.675290 1_555
Al34 Al6 2.740551 1_545
Al34 Al37 2.757680 1_554
Al34 Al41 2.870368 1_545
Al34 Al39 2.870368 1_555
Al34 Al85 2.918611 1_545
Al34 Al83 2.918611 1_555
Al34 Al35 3.052787 1_555
Al34 Tm4 3.419598 1_555
Al35 W5 2.673216 1_555
Al35 W6 2.675290 1_555
Al35 Al7 2.740551 1_555
Al35 Al9 2.740551 1_455
Al35 Al38 2.757680 1_554
Al35 Al40 2.870368 1_455
Al35 Al39 2.870368 1_555
Al35 Al84 2.918611 1_455
Al35 Al83 2.918611 1_555
Al35 Tm5 3.419598 1_555
Al36 Al64 2.731485 1_556
Al36 Al61 2.731485 1_556
Al36 Al4 2.855061 1_555
Al36 W6 2.863904 1_666
Al36 Al40 3.011209 1_566
Al36 Al41 3.011209 1_656
Al36 Tm3 3.230689 1_556
Al36 Tm0 3.258594 1_555
Al37 Al62 2.731485 1_556
Al37 Al63 2.731485 1_546
Al37 W6 2.863904 1_556
Al37 Al41 3.011208 1_546
Al37 Al39 3.011209 1_556
Al37 Tm4 3.230689 1_556
Al37 Tm1 3.258594 1_555
Al38 Al65 2.731485 1_556
Al38 Al60 2.731485 1_456
Al38 Al5 2.855061 1_555
Al38 W6 2.863904 1_556
Al38 Al40 3.011208 1_456
Al38 Al39 3.011209 1_556
Al38 Tm5 3.230689 1_556
Al38 Tm2 3.258594 1_555
Al39 Al62 2.731485 1_555
Al39 Al65 2.731485 1_555
Al39 Al7 2.855061 1_555
Al39 W6 2.863904 1_555
Al39 Tm0 3.230689 1_554
Al39 Tm3 3.258594 1_555
Al40 Al64 2.731485 1_545
Al40 Al60 2.731485 1_555
Al40 Al8 2.855061 1_545
Al40 Al9 2.855061 1_555
Al40 W6 2.863904 1_655
Al40 Tm1 3.230689 1_554
Al40 Tm4 3.258594 1_555
Al41 Al61 2.731485 1_455
Al41 Al63 2.731485 1_555
Al41 Al6 2.855061 1_555
Al41 W6 2.863904 1_565
Al41 Tm2 3.230689 1_554
Al41 Tm5 3.258594 1_555
Al42 Al70 2.731485 1_555
Al42 Al67 2.731485 1_555
Al42 W7 2.863904 1_555
Al42 Al46 3.011209 1_555
Al42 Al47 3.011209 1_555
Al42 Tm9 3.230689 1_555
Al42 Tm6 3.258594 1_555
Al43 Al68 2.731485 1_545
Al43 Al69 2.731485 1_555
Al43 W7 2.863904 1_655
Al43 Al47 3.011208 1_655
Al43 Al45 3.011209 1_545
Al43 Tm10 3.230689 1_555
Al43 Tm7 3.258594 1_555
Al44 Al71 2.731485 1_455
Al44 Al66 2.731485 1_555
Al44 W7 2.863904 1_565
Al44 Al46 3.011208 1_565
Al44 Al45 3.011209 1_455
Al44 Tm11 3.230689 1_555
Al44 Tm8 3.258594 1_555
Al45 Al71 2.731485 1_555
Al45 Al68 2.731485 1_555
Al45 W7 2.863904 1_665
Al45 Tm6 3.230689 1_555
Al45 Tm9 3.258594 1_555
Al46 Al70 2.731485 1_555
Al46 Al66 2.731485 1_545
Al46 W7 2.863904 1_555
Al46 Tm7 3.230689 1_555
Al46 Tm10 3.258594 1_555
Al47 Al67 2.731485 1_555
Al47 Al69 2.731485 1_455
Al47 W7 2.863904 1_555
Al47 Tm8 3.230689 1_555
Al47 Tm11 3.258594 1_555
Al48 W2 2.683658 1_655
Al48 Al53 2.813683 1_655
Al48 Al78 2.819590 1_555
Al48 Al72 2.819590 1_555
Al48 Tm2 3.053924 1_655
Al48 Tm11 3.053924 1_655
Al48 Al50 3.106082 1_555
Al48 Al49 3.106082 1_555
Al49 W0 2.683658 1_555
Al49 Al52 2.813683 1_555
Al49 Al72 2.819595 1_555
Al49 Al78 2.819595 1_555
Al49 Tm9 3.053924 1_555
Al49 Tm0 3.053924 1_555
Al49 Al50 3.106082 1_555
Al50 W1 2.683658 1_555
Al50 Al51 2.813683 1_545
Al50 Al78 2.819589 1_555
Al50 Al72 2.819589 1_555
Al50 Tm10 3.053924 1_555
Al50 Tm1 3.053924 1_555
Al51 W1 2.683658 1_565
Al51 Al73 2.819590 1_555
Al51 Al79 2.819590 1_555
Al51 Tm1 3.053924 1_565
Al51 Tm10 3.053924 1_565
Al51 Al53 3.106082 1_555
Al51 Al52 3.106082 1_555
Al52 W0 2.683658 1_555
Al52 Al73 2.819595 1_555
Al52 Al79 2.819595 1_555
Al52 Tm9 3.053924 1_555
Al52 Tm0 3.053924 1_555
Al52 Al53 3.106082 1_555
Al53 W2 2.683658 1_555
Al53 Al73 2.819589 1_555
Al53 Al79 2.819589 1_555
Al53 Tm11 3.053924 1_555
Al53 Tm2 3.053924 1_555
Al54 W5 2.683658 1_555
Al54 Al6 2.731031 1_555
Al54 Al59 2.813683 1_455
Al54 Al76 2.819590 1_555
Al54 Al74 2.819590 1_555
Al54 Al7 2.830640 1_555
Al54 Tm8 3.053924 1_555
Al54 Tm5 3.053924 1_555
Al54 Al56 3.106082 1_555
Al54 Al55 3.106082 1_555
Al55 W3 2.683658 1_555
Al55 Al7 2.731031 1_555
Al55 Al58 2.813683 1_555
Al55 Al76 2.819595 1_555
Al55 Al74 2.819595 1_555
Al55 Al8 2.830639 1_555
Al55 Tm3 3.053924 1_555
Al55 Tm6 3.053924 1_555
Al55 Al56 3.106082 1_555
Al56 W4 2.683658 1_565
Al56 Al8 2.731031 1_555
Al56 Al57 2.813683 1_565
Al56 Al76 2.819589 1_555
Al56 Al74 2.819589 1_555
Al56 Al6 2.830639 1_555
Al56 Tm7 3.053924 1_565
Al56 Tm4 3.053924 1_565
Al57 W4 2.683658 1_555
Al57 Al9 2.731031 1_555
Al57 Al75 2.819590 1_555
Al57 Al77 2.819590 1_555
Al57 Tm7 3.053924 1_555
Al57 Tm4 3.053924 1_555
Al57 Al59 3.106082 1_555
Al57 Al58 3.106082 1_555
Al58 W3 2.683658 1_555
Al58 Al75 2.819595 1_555
Al58 Al77 2.819595 1_555
Al58 Tm6 3.053924 1_555
Al58 Tm3 3.053924 1_555
Al58 Al59 3.106082 1_555
Al59 W5 2.683658 1_655
Al59 Al75 2.819589 1_555
Al59 Al77 2.819589 1_555
Al59 Al9 2.830639 1_555
Al59 Tm8 3.053924 1_655
Al59 Tm5 3.053924 1_655
Al60 Al72 2.759837 1_554
Al60 Al75 2.759837 1_555
Al60 Al62 2.864275 1_555
Al60 Al61 2.864275 1_555
Al60 Al9 3.046685 1_555
Al60 Tm1 3.089043 1_554
Al60 Tm5 3.089043 1_655
Al60 Tm4 3.398164 1_555
Al60 Tm2 3.398164 1_654
Al61 Al72 2.759842 1_554
Al61 Al75 2.759842 1_555
Al61 Al62 2.864275 1_555
Al61 Tm2 3.089044 1_654
Al61 Tm3 3.089044 1_555
Al61 Tm0 3.398164 1_554
Al61 Tm5 3.398164 1_655
Al62 Al72 2.759842 1_554
Al62 Al75 2.759842 1_555
Al62 Tm4 3.089044 1_555
Al62 Tm0 3.089044 1_554
Al62 Tm3 3.398164 1_555
Al62 Tm1 3.398164 1_554
Al63 Al73 2.759837 1_554
Al63 Al74 2.759837 1_555
Al63 Al65 2.864275 1_555
Al63 Al64 2.864275 1_555
Al63 Tm2 3.089043 1_554
Al63 Tm4 3.089043 1_565
Al63 Tm5 3.398164 1_555
Al63 Tm1 3.398164 1_564
Al64 Al73 2.759842 1_554
Al64 Al74 2.759842 1_555
Al64 Al65 2.864275 1_555
Al64 Al8 3.046685 1_555
Al64 Tm1 3.089044 1_564
Al64 Tm3 3.089044 1_555
Al64 Tm0 3.398164 1_554
Al64 Tm4 3.398164 1_565
Al65 Al73 2.759842 1_554
Al65 Al74 2.759842 1_555
Al65 Al7 3.046685 1_555
Al65 Tm5 3.089044 1_555
Al65 Tm0 3.089044 1_554
Al65 Tm3 3.398164 1_555
Al65 Tm2 3.398164 1_554
Al66 Al79 2.759837 1_555
Al66 Al76 2.759837 1_555
Al66 Al67 2.864275 1_555
Al66 Al68 2.864275 1_555
Al66 Tm11 3.089043 1_555
Al66 Tm7 3.089043 1_565
Al66 Tm8 3.398164 1_555
Al66 Tm10 3.398164 1_565
Al67 Al79 2.759842 1_555
Al67 Al76 2.759842 1_555
Al67 Al68 2.864275 1_555
Al67 Tm8 3.089044 1_555
Al67 Tm9 3.089044 1_555
Al67 Tm6 3.398164 1_555
Al67 Tm11 3.398164 1_555
Al68 Al79 2.759842 1_555
Al68 Al76 2.759842 1_555
Al68 Tm10 3.089044 1_565
Al68 Tm6 3.089044 1_555
Al68 Tm9 3.398164 1_555
Al68 Tm7 3.398164 1_565
Al69 Al77 2.759837 1_555
Al69 Al78 2.759837 1_555
Al69 Al70 2.864275 1_555
Al69 Al71 2.864275 1_555
Al69 Tm10 3.089043 1_555
Al69 Tm8 3.089043 1_655
Al69 Tm7 3.398164 1_555
Al69 Tm11 3.398164 1_655
Al70 Al77 2.759842 1_555
Al70 Al78 2.759842 1_555
Al70 Al71 2.864275 1_555
Al70 Tm7 3.089044 1_555
Al70 Tm9 3.089044 1_555
Al70 Tm6 3.398164 1_555
Al70 Tm10 3.398164 1_555
Al71 Al77 2.759842 1_555
Al71 Al78 2.759842 1_555
Al71 Tm11 3.089044 1_655
Al71 Tm6 3.089044 1_555
Al71 Tm9 3.398164 1_555
Al71 Tm8 3.398164 1_655
Al72 Tm1 3.247597 1_555
Al72 Tm2 3.247598 1_655
Al72 Tm0 3.247607 1_555
Al73 Tm2 3.247597 1_555
Al73 Tm1 3.247598 1_565
Al73 Tm0 3.247607 1_555
Al74 Al8 2.711578 1_555
Al74 Tm4 3.247597 1_565
Al74 Tm5 3.247598 1_555
Al74 Tm3 3.247607 1_555
Al75 Al9 2.711570 1_555
Al75 Tm5 3.247597 1_655
Al75 Tm4 3.247598 1_555
Al75 Tm3 3.247607 1_555
Al76 Tm7 3.247597 1_565
Al76 Tm8 3.247598 1_555
Al76 Tm6 3.247607 1_555
Al77 Tm8 3.247597 1_655
Al77 Tm7 3.247598 1_555
Al77 Tm6 3.247607 1_555
Al78 Tm10 3.247597 1_555
Al78 Tm11 3.247598 1_655
Al78 Tm9 3.247607 1_555
Al79 Tm11 3.247597 1_555
Al79 Tm10 3.247598 1_565
Al79 Tm9 3.247607 1_555
Al80 W1 2.596141 1_565
Al80 W2 2.596141 1_655
Al80 Al81 2.820943 1_665
Al80 Al82 2.820943 1_665
Al81 W2 2.596141 1_545
Al81 W0 2.596141 1_555
Al81 Al82 2.820944 1_555
Al82 W1 2.596141 1_455
Al82 W0 2.596141 1_555
Al83 W5 2.596141 1_555
Al83 W4 2.596141 1_555
Al83 Al85 2.820943 1_545
Al83 Al84 2.820943 1_455
Al84 W5 2.596141 1_655
Al84 W3 2.596141 1_545
Al84 Al85 2.820944 1_645
Al84 Al9 2.835863 1_555
Al85 W4 2.596141 1_565
Al85 W3 2.596141 1_455
