# generated using pymatgen
data_SrTi(PO4)2
_symmetry_space_group_name_H-M   'P 1'
_cell_length_a   8.73668841
_cell_length_b   8.73668841
_cell_length_c   8.22423889
_cell_angle_alpha   64.84584196
_cell_angle_beta   64.84584196
_cell_angle_gamma   34.88211940
_symmetry_Int_Tables_number   1
_chemical_formula_structural   SrTi(PO4)2
_chemical_formula_sum   'Sr2 Ti2 P4 O16'
_cell_volume   321.40480554
_cell_formula_units_Z   2
loop_
 _symmetry_equiv_pos_site_id
 _symmetry_equiv_pos_as_xyz
  1  'x, y, z'
loop_
 _atom_site_type_symbol
 _atom_site_label
 _atom_site_symmetry_multiplicity
 _atom_site_fract_x
 _atom_site_fract_y
 _atom_site_fract_z
 _atom_site_occupancy
  Sr  Sr0  1  0.19349300  0.80650700  0.25000000  1
  Sr  Sr1  1  0.80650700  0.19349300  0.75000000  1
  Ti  Ti0  1  0.00000000  0.50000000  0.50000000  1
  Ti  Ti1  1  0.50000000  0.00000000  0.00000000  1
  P  P0  1  0.59684500  0.11896700  0.25609500  1
  P  P1  1  0.88103300  0.40315500  0.24390500  1
  P  P2  1  0.40315500  0.88103300  0.74390500  1
  P  P3  1  0.11896700  0.59684500  0.75609500  1
  O  O0  1  0.79877700  0.87314800  0.39627600  1
  O  O1  1  0.12685200  0.20122300  0.10372400  1
  O  O2  1  0.20122300  0.12685200  0.60372400  1
  O  O3  1  0.87314800  0.79877700  0.89627600  1
  O  O4  1  0.33418400  0.37278500  0.35539300  1
  O  O5  1  0.62721500  0.66581600  0.14460700  1
  O  O6  1  0.66581600  0.62721500  0.64460700  1
  O  O7  1  0.37278500  0.33418400  0.85539300  1
  O  O8  1  0.51634400  0.05058800  0.19201600  1
  O  O9  1  0.94941200  0.48365600  0.30798400  1
  O  O10  1  0.48365600  0.94941200  0.80798400  1
  O  O11  1  0.05058800  0.51634400  0.69201600  1
  O  O12  1  0.73010600  0.17304000  0.10400500  1
  O  O13  1  0.82696000  0.26989400  0.39599500  1
  O  O14  1  0.26989400  0.82696000  0.89599500  1
  O  O15  1  0.17304000  0.73010600  0.60400500  1
loop_
_geom_bond_atom_site_label_1
_geom_bond_atom_site_label_2
_geom_bond_distance
_geom_bond_site_symmetry_2
O0 P0 1.569034 1_565
O0 Ti0 1.988485 1_655
O0 Sr0 2.730018 1_655
O1 P1 1.569034 1_455
O1 Ti1 1.988485 1_555
O1 Sr0 2.730018 1_545
O2 P2 1.569034 1_545
O2 Ti0 1.988485 1_555
O2 Sr1 2.730018 1_455
O3 P3 1.569034 1_655
O3 Ti1 1.988485 1_566
O3 Sr1 2.730018 1_565
O4 P0 1.564558 1_555
O4 Ti0 2.005487 1_555
O4 Sr0 2.663226 1_555
O5 P1 1.564558 1_555
O5 Ti1 2.005487 1_565
O5 Sr0 2.663226 1_555
O6 P2 1.564558 1_555
O6 Ti0 2.005487 1_655
O6 Sr1 2.663226 1_555
O7 P3 1.564558 1_555
O7 Ti1 2.005487 1_556
O7 Sr1 2.663226 1_555
O8 P0 1.549629 1_555
O8 Ti1 1.896875 1_555
O9 P1 1.549629 1_555
O9 Ti0 1.896875 1_655
O10 P2 1.549629 1_555
O10 Ti1 1.896875 1_566
O11 P3 1.549629 1_555
O11 Ti0 1.896875 1_555
O12 P0 1.518319 1_555
O12 Sr1 2.656165 1_554
O12 Sr0 2.771285 1_645
O13 P1 1.518319 1_555
O13 Sr1 2.656165 1_555
O13 Sr0 2.771285 1_645
O14 P2 1.518319 1_555
O14 Sr0 2.656165 1_556
O14 Sr1 2.771285 1_465
O15 P3 1.518319 1_555
O15 Sr0 2.656165 1_555
O15 Sr1 2.771285 1_465
