# generated using pymatgen
data_Y2CdGe2
_symmetry_space_group_name_H-M   'P 1'
_cell_length_a   7.31080099
_cell_length_b   7.31080099
_cell_length_c   4.18772644
_cell_angle_alpha   90.00000000
_cell_angle_beta   90.00000000
_cell_angle_gamma   90.00000000
_symmetry_Int_Tables_number   1
_chemical_formula_structural   Y2CdGe2
_chemical_formula_sum   'Y4 Cd2 Ge4'
_cell_volume   223.82481177
_cell_formula_units_Z   2
loop_
 _symmetry_equiv_pos_site_id
 _symmetry_equiv_pos_as_xyz
  1  'x, y, z'
loop_
 _atom_site_type_symbol
 _atom_site_label
 _atom_site_symmetry_multiplicity
 _atom_site_fract_x
 _atom_site_fract_y
 _atom_site_fract_z
 _atom_site_occupancy
  Y  Y0  1  0.67887653  0.17887653  0.50000000  1
  Y  Y1  1  0.32112347  0.82112347  0.50000000  1
  Y  Y2  1  0.17887653  0.32112347  0.50000000  1
  Y  Y3  1  0.82112347  0.67887653  0.50000000  1
  Cd  Cd0  1  0.50000000  0.50000000  -0.00000000  1
  Cd  Cd1  1  -0.00000000  -0.00000000  -0.00000000  1
  Ge  Ge0  1  0.12097175  0.62097175  -0.00000000  1
  Ge  Ge1  1  0.87902825  0.37902825  0.00000000  1
  Ge  Ge2  1  0.62097175  0.87902825  -0.00000000  1
  Ge  Ge3  1  0.37902825  0.12097175  0.00000000  1
loop_
_geom_bond_atom_site_label_1
_geom_bond_atom_site_label_2
_geom_bond_distance
_geom_bond_site_symmetry_2
Cd0 Ge3 2.908712 1_555
Cd0 Ge0 2.908712 1_555
Cd0 Ge2 2.908712 1_555
Cd0 Ge1 2.908712 1_555
Cd0 Y2 3.406754 1_554
Cd0 Y0 3.406754 1_554
Cd0 Y1 3.406754 1_555
Cd0 Y2 3.406754 1_555
Cd0 Y3 3.406754 1_554
Cd0 Y1 3.406754 1_554
Cd0 Y3 3.406754 1_555
Cd0 Y0 3.406754 1_555
Cd1 Ge2 2.908712 1_445
Cd1 Ge0 2.908712 1_545
Cd1 Ge3 2.908712 1_555
Cd1 Ge1 2.908712 1_455
Cd1 Y2 3.406754 1_554
Cd1 Y3 3.406754 1_445
Cd1 Y3 3.406754 1_444
Cd1 Y0 3.406754 1_455
Cd1 Y2 3.406754 1_555
Cd1 Y0 3.406754 1_454
Cd1 Y1 3.406754 1_544
Cd1 Y1 3.406754 1_545
Ge0 Ge1 2.501462 1_455
Ge0 Y1 2.943905 1_555
Ge0 Y1 2.943905 1_554
Ge0 Y3 3.060868 1_455
Ge0 Y3 3.060868 1_454
Ge0 Y2 3.060868 1_554
Ge0 Y2 3.060868 1_555
Ge1 Y0 2.943905 1_555
Ge1 Y0 2.943905 1_554
Ge1 Y2 3.060868 1_655
Ge1 Y2 3.060868 1_654
Ge1 Y3 3.060868 1_555
Ge1 Y3 3.060868 1_554
Ge2 Ge3 2.501462 1_565
Ge2 Y3 2.943905 1_554
Ge2 Y3 2.943905 1_555
Ge2 Y0 3.060868 1_564
Ge2 Y0 3.060868 1_565
Ge2 Y1 3.060868 1_554
Ge2 Y1 3.060868 1_555
Ge3 Y2 2.943905 1_555
Ge3 Y2 2.943905 1_554
Ge3 Y0 3.060868 1_555
Ge3 Y1 3.060868 1_544
Ge3 Y1 3.060868 1_545
Ge3 Y0 3.060868 1_554
