# generated using pymatgen
data_NaNbS6
_symmetry_space_group_name_H-M   'P 1'
_cell_length_a   7.42668174
_cell_length_b   7.42668174
_cell_length_c   7.25568413
_cell_angle_alpha   86.22158727
_cell_angle_beta   86.22158727
_cell_angle_gamma   119.10023062
_symmetry_Int_Tables_number   1
_chemical_formula_structural   NaNbS6
_chemical_formula_sum   'Na2 Nb2 S12'
_cell_volume   346.70674787
_cell_formula_units_Z   2
loop_
 _symmetry_equiv_pos_site_id
 _symmetry_equiv_pos_as_xyz
  1  'x, y, z'
loop_
 _atom_site_type_symbol
 _atom_site_label
 _atom_site_symmetry_multiplicity
 _atom_site_fract_x
 _atom_site_fract_y
 _atom_site_fract_z
 _atom_site_occupancy
  Na  Na0  1  0.66652395  0.32725890  0.99473306  1
  Na  Na1  1  0.32725890  0.66652395  0.49473306  1
  Nb  Nb0  1  0.99131662  0.01877142  0.74187137  1
  Nb  Nb1  1  0.01877142  0.99131662  0.24187137  1
  S  S0  1  0.96080573  0.23885893  0.47746297  1
  S  S1  1  0.23885893  0.96080573  0.97746297  1
  S  S2  1  0.30343114  0.36298089  0.79498249  1
  S  S3  1  0.36298089  0.30343114  0.29498249  1
  S  S4  1  0.04856451  0.26737820  0.98343857  1
  S  S5  1  0.26737820  0.04856451  0.48343857  1
  S  S6  1  0.70210076  0.09178349  0.66731163  1
  S  S7  1  0.09178349  0.70210076  0.16731163  1
  S  S8  1  0.94654146  0.66566258  0.71116359  1
  S  S9  1  0.66566258  0.94654146  0.21116359  1
  S  S10  1  0.77996939  0.72553203  0.52641533  1
  S  S11  1  0.72553203  0.77996939  0.02641533  1
loop_
_geom_bond_atom_site_label_1
_geom_bond_atom_site_label_2
_geom_bond_distance
_geom_bond_site_symmetry_2
Na0 S8 2.923208 1_555
Na0 S3 2.961941 1_556
Na0 S1 3.033130 1_545
Na0 S4 3.075092 1_655
Na0 S6 3.112262 1_555
Na0 S9 3.139508 1_546
Na0 S11 3.198570 1_556
Na0 S2 3.256179 1_555
Na0 S7 3.423607 1_656
Na1 S9 2.923208 1_555
Na1 S2 2.961941 1_555
Na1 S0 3.033130 1_455
Na1 S5 3.075092 1_565
Na1 S7 3.112262 1_555
Na1 S8 3.139508 1_455
Na1 S10 3.198570 1_555
Na1 S3 3.256179 1_555
Na1 S6 3.423607 1_565
Nb0 S8 2.505175 1_545
Nb0 S0 2.531357 1_555
Nb0 S4 2.534351 1_655
Nb0 S6 2.539204 1_555
Nb0 S2 2.557399 1_655
Nb0 S5 2.601113 1_655
Nb0 S11 2.622835 1_546
Nb0 S10 2.664116 1_545
Nb0 S1 2.752103 1_645
Nb1 S9 2.505175 1_455
Nb1 S1 2.531357 1_554
Nb1 S5 2.534351 1_565
Nb1 S7 2.539204 1_555
Nb1 S3 2.557399 1_565
Nb1 S4 2.601113 1_564
Nb1 S10 2.622835 1_455
Nb1 S11 2.664116 1_455
Nb1 S0 2.752103 1_465
S0 S6 2.047831 1_555
S1 S7 2.047831 1_556
S2 S4 2.044581 1_555
S3 S5 2.044581 1_555
S10 S8 2.049377 1_555
S11 S9 2.049377 1_555
