# generated using pymatgen
data_Pr2Nd2Sb3
_symmetry_space_group_name_H-M   'P 1'
_cell_length_a   8.27333427
_cell_length_b   8.27333427
_cell_length_c   8.27333427
_cell_angle_alpha   109.47122063
_cell_angle_beta   109.47122063
_cell_angle_gamma   109.47122063
_symmetry_Int_Tables_number   1
_chemical_formula_structural   Pr2Nd2Sb3
_chemical_formula_sum   'Pr4 Nd4 Sb6'
_cell_volume   435.93307873
_cell_formula_units_Z   2
loop_
 _symmetry_equiv_pos_site_id
 _symmetry_equiv_pos_as_xyz
  1  'x, y, z'
loop_
 _atom_site_type_symbol
 _atom_site_label
 _atom_site_symmetry_multiplicity
 _atom_site_fract_x
 _atom_site_fract_y
 _atom_site_fract_z
 _atom_site_occupancy
  Pr  Pr0  1  0.14131901  0.50000000  0.00000000  1
  Pr  Pr1  1  0.35868099  0.35868099  0.35868099  1
  Pr  Pr2  1  -0.00000000  0.14131901  0.50000000  1
  Pr  Pr3  1  0.50000000  0.00000000  0.14131901  1
  Nd  Nd0  1  0.86025531  0.86025531  0.86025531  1
  Nd  Nd1  1  0.63974469  0.50000000  -0.00000000  1
  Nd  Nd2  1  -0.00000000  0.63974469  0.50000000  1
  Nd  Nd3  1  0.50000000  -0.00000000  0.63974469  1
  Sb  Sb0  1  0.75000000  0.37626490  0.62626490  1
  Sb  Sb1  1  0.25000000  0.12373510  0.87373510  1
  Sb  Sb2  1  0.12373510  0.87373510  0.25000000  1
  Sb  Sb3  1  0.37626490  0.62626490  0.75000000  1
  Sb  Sb4  1  0.62626490  0.75000000  0.37626490  1
  Sb  Sb5  1  0.87373510  0.25000000  0.12373510  1
loop_
_geom_bond_atom_site_label_1
_geom_bond_atom_site_label_2
_geom_bond_distance
_geom_bond_site_symmetry_2
Pr0 Sb2 3.177539 1_555
Pr0 Sb5 3.177539 1_455
Pr0 Sb0 3.177539 1_454
Pr0 Sb3 3.451748 1_554
Pr0 Sb4 3.451748 1_555
Pr0 Sb1 3.451748 1_554
Pr1 Sb4 3.177539 1_555
Pr1 Sb0 3.177539 1_555
Pr1 Sb3 3.177539 1_555
Pr1 Sb1 3.451748 1_554
Pr1 Sb2 3.451748 1_545
Pr1 Sb5 3.451748 1_455
Pr2 Sb1 3.177539 1_555
Pr2 Sb4 3.177539 1_445
Pr2 Sb2 3.177539 1_545
Pr2 Sb0 3.451748 1_455
Pr2 Sb3 3.451748 1_555
Pr2 Sb5 3.451748 1_455
Pr3 Sb1 3.177539 1_554
Pr3 Sb3 3.177539 1_544
Pr3 Sb5 3.177539 1_555
Pr3 Sb2 3.451748 1_545
Pr3 Sb0 3.451748 1_555
Pr3 Sb4 3.451748 1_545
Nd0 Sb2 3.173922 1_656
Nd0 Sb5 3.173922 1_566
Nd0 Sb1 3.173922 1_665
Nd0 Sb0 3.439966 1_555
Nd0 Sb3 3.439966 1_555
Nd0 Sb4 3.439966 1_555
Nd1 Sb3 3.173922 1_554
Nd1 Sb1 3.173922 1_554
Nd1 Sb4 3.173922 1_555
Nd1 Sb0 3.439966 1_554
Nd1 Sb5 3.439966 1_555
Nd1 Sb2 3.439966 1_655
Nd2 Sb0 3.173922 1_455
Nd2 Sb3 3.173922 1_555
Nd2 Sb5 3.173922 1_455
Nd2 Sb2 3.439966 1_555
Nd2 Sb1 3.439966 1_565
Nd2 Sb4 3.439966 1_455
Nd3 Sb2 3.173922 1_545
Nd3 Sb0 3.173922 1_555
Nd3 Sb4 3.173922 1_545
Nd3 Sb1 3.439966 1_555
Nd3 Sb5 3.439966 1_556
Nd3 Sb3 3.439966 1_545
