# generated using pymatgen
data_Li9Mn2Co5O16
_symmetry_space_group_name_H-M   'P 1'
_cell_length_a   5.85769448
_cell_length_b   5.85769448
_cell_length_c   10.29682871
_cell_angle_alpha   73.29111609
_cell_angle_beta   73.29111609
_cell_angle_gamma   59.80142441
_symmetry_Int_Tables_number   1
_chemical_formula_structural   Li9Mn2Co5O16
_chemical_formula_sum   'Li9 Mn2 Co5 O16'
_cell_volume   288.07872505
_cell_formula_units_Z   1
loop_
 _symmetry_equiv_pos_site_id
 _symmetry_equiv_pos_as_xyz
  1  'x, y, z'
loop_
 _atom_site_type_symbol
 _atom_site_label
 _atom_site_symmetry_multiplicity
 _atom_site_fract_x
 _atom_site_fract_y
 _atom_site_fract_z
 _atom_site_occupancy
  Li  Li0  1  0.75342000  0.24452400  0.74224500  1
  Li  Li1  1  0.75547600  0.24658000  0.25775500  1
  Li  Li2  1  0.25307700  0.25307700  0.74237600  1
  Li  Li3  1  0.24038300  0.24038300  0.26502600  1
  Li  Li4  1  0.75961700  0.75961700  0.73497400  1
  Li  Li5  1  0.74692300  0.74692300  0.25762400  1
  Li  Li6  1  0.24452400  0.75342000  0.74224500  1
  Li  Li7  1  0.24658000  0.75547600  0.25775500  1
  Li  Li8  1  0.00000000  0.00000000  0.50000000  1
  Mn  Mn0  1  0.00000000  0.00000000  0.00000000  1
  Mn  Mn1  1  0.50000000  0.50000000  0.50000000  1
  Co  Co0  1  0.50000000  0.00000000  0.00000000  1
  Co  Co1  1  0.50000000  0.00000000  0.50000000  1
  Co  Co2  1  0.00000000  0.50000000  0.00000000  1
  Co  Co3  1  0.00000000  0.50000000  0.50000000  1
  Co  Co4  1  0.50000000  0.50000000  0.00000000  1
  O  O0  1  0.87883300  0.35590400  0.88717100  1
  O  O1  1  0.85549400  0.38521500  0.38653800  1
  O  O2  1  0.36379000  0.36379000  0.88842200  1
  O  O3  1  0.38124800  0.38124800  0.38263400  1
  O  O4  1  0.88092300  0.88092300  0.88410900  1
  O  O5  1  0.85864400  0.85864400  0.39175900  1
  O  O6  1  0.35590400  0.87883300  0.88717100  1
  O  O7  1  0.38521500  0.85549400  0.38653800  1
  O  O8  1  0.61478500  0.14450600  0.61346200  1
  O  O9  1  0.64409600  0.12116700  0.11282900  1
  O  O10  1  0.14135600  0.14135600  0.60824100  1
  O  O11  1  0.11907700  0.11907700  0.11589100  1
  O  O12  1  0.61875200  0.61875200  0.61736600  1
  O  O13  1  0.63621000  0.63621000  0.11157800  1
  O  O14  1  0.14450600  0.61478500  0.61346200  1
  O  O15  1  0.12116700  0.64409600  0.11282900  1
loop_
_geom_bond_atom_site_label_1
_geom_bond_atom_site_label_2
_geom_bond_distance
_geom_bond_site_symmetry_2
Li0 O12 2.074583 1_555
Li0 O8 2.075026 1_555
Li0 O4 2.113290 1_545
Li0 O10 2.174385 1_655
Li0 O0 2.205591 1_555
Li0 O2 2.233356 1_555
Li1 O3 2.074583 1_555
Li1 O1 2.075026 1_555
Li1 O11 2.113290 1_655
Li1 O5 2.174385 1_545
Li1 O9 2.205591 1_555
Li1 O13 2.233356 1_555
Li2 O8 2.041645 1_555
Li2 O14 2.041645 1_555
Li2 O10 2.057789 1_555
Li2 O2 2.155758 1_555
Li2 O6 2.167965 1_545
Li2 O0 2.167965 1_455
Li3 O7 2.105324 1_545
Li3 O1 2.105324 1_455
Li3 O3 2.159243 1_555
Li3 O11 2.265122 1_555
Li3 O15 2.317961 1_555
Li3 O9 2.317961 1_555
Li4 O8 2.105324 1_565
Li4 O14 2.105324 1_655
Li4 O12 2.159243 1_555
Li4 O4 2.265122 1_555
Li4 O6 2.317961 1_555
Li4 O0 2.317961 1_555
Li5 O1 2.041645 1_555
Li5 O7 2.041645 1_555
Li5 O5 2.057789 1_555
Li5 O13 2.155758 1_555
Li5 O9 2.167965 1_565
Li5 O15 2.167965 1_655
Li6 O12 2.074583 1_555
Li6 O14 2.075026 1_555
Li6 O4 2.113290 1_455
Li6 O10 2.174385 1_565
Li6 O6 2.205591 1_555
Li6 O2 2.233356 1_555
Li7 O3 2.074583 1_555
Li7 O7 2.075026 1_555
Li7 O11 2.113290 1_565
Li7 O5 2.174385 1_455
Li7 O15 2.205591 1_555
Li7 O13 2.233356 1_555
Li8 O8 2.074700 1_455
Li8 O7 2.074700 1_545
Li8 O14 2.074700 1_545
Li8 O1 2.074700 1_455
Li8 O10 2.089135 1_555
Li8 O5 2.089135 1_445
Mn0 O15 1.947473 1_545
Mn0 O9 1.947473 1_455
Mn0 O6 1.947473 1_544
Mn0 O0 1.947473 1_454
Mn0 O11 1.960544 1_555
Mn0 O4 1.960544 1_444
Mn1 O8 1.948727 1_555
Mn1 O14 1.948727 1_555
Mn1 O7 1.948727 1_555
Mn1 O1 1.948727 1_555
Mn1 O12 1.970222 1_555
Mn1 O3 1.970222 1_555
Co0 O13 1.976480 1_545
Co0 O2 1.976480 1_554
Co0 O9 2.051013 1_555
Co0 O6 2.051013 1_544
Co0 O4 2.066680 1_544
Co0 O11 2.066680 1_555
Co1 O10 1.943094 1_555
Co1 O5 1.943094 1_545
Co1 O8 2.031363 1_555
Co1 O7 2.031363 1_545
Co1 O3 2.073738 1_555
Co1 O12 2.073738 1_545
Co2 O13 1.976480 1_455
Co2 O2 1.976480 1_554
Co2 O15 2.051013 1_555
Co2 O0 2.051013 1_454
Co2 O4 2.066680 1_454
Co2 O11 2.066680 1_555
Co3 O10 1.943094 1_555
Co3 O5 1.943094 1_455
Co3 O14 2.031363 1_555
Co3 O1 2.031363 1_455
Co3 O12 2.073738 1_455
Co3 O3 2.073738 1_555
Co4 O15 2.045402 1_555
Co4 O9 2.045402 1_555
Co4 O6 2.045402 1_554
Co4 O0 2.045402 1_554
Co4 O13 2.070706 1_555
Co4 O2 2.070706 1_554
