# generated using pymatgen
data_Ca3Ga2(GeO4)3
_symmetry_space_group_name_H-M   'P 1'
_cell_length_a   10.74562416
_cell_length_b   10.74562416
_cell_length_c   10.74562416
_cell_angle_alpha   109.47122063
_cell_angle_beta   109.47122063
_cell_angle_gamma   109.47122063
_symmetry_Int_Tables_number   1
_chemical_formula_structural   Ca3Ga2(GeO4)3
_chemical_formula_sum   'Ca12 Ga8 Ge12 O48'
_cell_volume   955.15323004
_cell_formula_units_Z   4
loop_
 _symmetry_equiv_pos_site_id
 _symmetry_equiv_pos_as_xyz
  1  'x, y, z'
loop_
 _atom_site_type_symbol
 _atom_site_label
 _atom_site_symmetry_multiplicity
 _atom_site_fract_x
 _atom_site_fract_y
 _atom_site_fract_z
 _atom_site_occupancy
  Ca  Ca0  1  0.12500000  0.37500000  0.75000000  1
  Ca  Ca1  1  0.37500000  0.12500000  0.25000000  1
  Ca  Ca2  1  0.25000000  0.37500000  0.12500000  1
  Ca  Ca3  1  0.75000000  0.12500000  0.37500000  1
  Ca  Ca4  1  0.37500000  0.75000000  0.12500000  1
  Ca  Ca5  1  0.12500000  0.25000000  0.37500000  1
  Ca  Ca6  1  0.87500000  0.62500000  0.25000000  1
  Ca  Ca7  1  0.62500000  0.87500000  0.75000000  1
  Ca  Ca8  1  0.75000000  0.62500000  0.87500000  1
  Ca  Ca9  1  0.25000000  0.87500000  0.62500000  1
  Ca  Ca10  1  0.62500000  0.25000000  0.87500000  1
  Ca  Ca11  1  0.87500000  0.75000000  0.62500000  1
  Ga  Ga0  1  0.00000000  0.50000000  0.50000000  1
  Ga  Ga1  1  0.50000000  0.00000000  0.50000000  1
  Ga  Ga2  1  0.00000000  0.00000000  0.00000000  1
  Ga  Ga3  1  0.50000000  0.50000000  0.00000000  1
  Ga  Ga4  1  0.00000000  0.00000000  0.50000000  1
  Ga  Ga5  1  0.50000000  0.50000000  0.50000000  1
  Ga  Ga6  1  0.50000000  0.00000000  0.00000000  1
  Ga  Ga7  1  0.00000000  0.50000000  0.00000000  1
  Ge  Ge0  1  0.87500000  0.12500000  0.75000000  1
  Ge  Ge1  1  0.62500000  0.37500000  0.25000000  1
  Ge  Ge2  1  0.25000000  0.62500000  0.37500000  1
  Ge  Ge3  1  0.75000000  0.87500000  0.12500000  1
  Ge  Ge4  1  0.12500000  0.75000000  0.87500000  1
  Ge  Ge5  1  0.37500000  0.25000000  0.62500000  1
  Ge  Ge6  1  0.12500000  0.87500000  0.25000000  1
  Ge  Ge7  1  0.37500000  0.62500000  0.75000000  1
  Ge  Ge8  1  0.75000000  0.37500000  0.62500000  1
  Ge  Ge9  1  0.25000000  0.12500000  0.87500000  1
  Ge  Ge10  1  0.87500000  0.25000000  0.12500000  1
  Ge  Ge11  1  0.62500000  0.75000000  0.37500000  1
  O  O0  1  0.89953200  0.38180600  0.58380400  1
  O  O1  1  0.60046800  0.18427200  0.48227300  1
  O  O2  1  0.20199900  0.11819400  0.01772700  1
  O  O3  1  0.29800100  0.31572800  0.91619600  1
  O  O4  1  0.01772700  0.20199900  0.11819400  1
  O  O5  1  0.91619600  0.29800100  0.31572800  1
  O  O6  1  0.58380400  0.89953200  0.38180600  1
  O  O7  1  0.48227300  0.60046800  0.18427200  1
  O  O8  1  0.31572800  0.91619600  0.29800100  1
  O  O9  1  0.11819400  0.01772700  0.20199900  1
  O  O10  1  0.18427200  0.48227300  0.60046800  1
  O  O11  1  0.38180600  0.58380400  0.89953200  1
  O  O12  1  0.10046800  0.61819400  0.41619600  1
  O  O13  1  0.39953200  0.81572800  0.51772700  1
  O  O14  1  0.79800100  0.88180600  0.98227300  1
  O  O15  1  0.70199900  0.68427200  0.08380400  1
  O  O16  1  0.98227300  0.79800100  0.88180600  1
  O  O17  1  0.08380400  0.70199900  0.68427200  1
  O  O18  1  0.41619600  0.10046800  0.61819400  1
  O  O19  1  0.51772700  0.39953200  0.81572800  1
  O  O20  1  0.68427200  0.08380400  0.70199900  1
  O  O21  1  0.88180600  0.98227300  0.79800100  1
  O  O22  1  0.81572800  0.51772700  0.39953200  1
  O  O23  1  0.61819400  0.41619600  0.10046800  1
  O  O24  1  0.81572800  0.79800100  0.41619600  1
  O  O25  1  0.61819400  0.70199900  0.51772700  1
  O  O26  1  0.68427200  0.10046800  0.98227300  1
  O  O27  1  0.88180600  0.39953200  0.08380400  1
  O  O28  1  0.39953200  0.08380400  0.88180600  1
  O  O29  1  0.10046800  0.98227300  0.68427200  1
  O  O30  1  0.70199900  0.51772700  0.61819400  1
  O  O31  1  0.79800100  0.41619600  0.81572800  1
  O  O32  1  0.51772700  0.61819400  0.70199900  1
  O  O33  1  0.41619600  0.81572800  0.79800100  1
  O  O34  1  0.08380400  0.88180600  0.39953200  1
  O  O35  1  0.98227300  0.68427200  0.10046800  1
  O  O36  1  0.18427200  0.20199900  0.58380400  1
  O  O37  1  0.38180600  0.29800100  0.48227300  1
  O  O38  1  0.31572800  0.89953200  0.01772700  1
  O  O39  1  0.11819400  0.60046800  0.91619600  1
  O  O40  1  0.60046800  0.91619600  0.11819400  1
  O  O41  1  0.89953200  0.01772700  0.31572800  1
  O  O42  1  0.29800100  0.48227300  0.38180600  1
  O  O43  1  0.20199900  0.58380400  0.18427200  1
  O  O44  1  0.48227300  0.38180600  0.29800100  1
  O  O45  1  0.58380400  0.18427200  0.20199900  1
  O  O46  1  0.91619600  0.11819400  0.60046800  1
  O  O47  1  0.01772700  0.31572800  0.89953200  1
loop_
_geom_bond_atom_site_label_1
_geom_bond_atom_site_label_2
_geom_bond_distance
_geom_bond_site_symmetry_2
Ca0 O10 2.396640 1_555
Ca0 O47 2.396640 1_555
Ca0 O46 2.396646 1_455
Ca0 O11 2.396646 1_555
Ca0 O3 2.526909 1_555
Ca0 O36 2.526909 1_555
Ca0 O0 2.526915 1_455
Ca0 O39 2.526915 1_555
Ca1 O8 2.396640 1_545
Ca1 O45 2.396640 1_555
Ca1 O9 2.396649 1_555
Ca1 O44 2.396649 1_555
Ca1 O37 2.526903 1_555
Ca1 O2 2.526903 1_555
Ca1 O1 2.526909 1_555
Ca1 O38 2.526909 1_545
Ca2 O3 2.396640 1_554
Ca2 O43 2.396640 1_555
Ca2 O2 2.396649 1_555
Ca2 O42 2.396649 1_555
Ca2 O44 2.526903 1_555
Ca2 O4 2.526903 1_555
Ca2 O7 2.526909 1_555
Ca2 O47 2.526909 1_554
Ca3 O1 2.396640 1_555
Ca3 O41 2.396640 1_555
Ca3 O40 2.396646 1_545
Ca3 O0 2.396646 1_555
Ca3 O5 2.526909 1_555
Ca3 O45 2.526909 1_555
Ca3 O6 2.526915 1_545
Ca3 O46 2.526915 1_555
Ca4 O7 2.396640 1_555
Ca4 O38 2.396640 1_555
Ca4 O39 2.396646 1_554
Ca4 O6 2.396646 1_555
Ca4 O8 2.526909 1_555
Ca4 O43 2.526909 1_555
Ca4 O11 2.526915 1_554
Ca4 O40 2.526915 1_555
Ca5 O5 2.396640 1_455
Ca5 O36 2.396640 1_555
Ca5 O4 2.396649 1_555
Ca5 O37 2.396649 1_555
Ca5 O42 2.526903 1_555
Ca5 O9 2.526903 1_555
Ca5 O10 2.526909 1_555
Ca5 O41 2.526909 1_455
Ca6 O35 2.396640 1_555
Ca6 O22 2.396640 1_555
Ca6 O34 2.396646 1_655
Ca6 O23 2.396646 1_555
Ca6 O24 2.526909 1_555
Ca6 O15 2.526909 1_555
Ca6 O12 2.526915 1_655
Ca6 O27 2.526915 1_555
Ca7 O20 2.396640 1_565
Ca7 O33 2.396640 1_555
Ca7 O32 2.396649 1_555
Ca7 O21 2.396649 1_555
Ca7 O14 2.526903 1_555
Ca7 O25 2.526903 1_555
Ca7 O26 2.526909 1_565
Ca7 O13 2.526909 1_555
Ca8 O15 2.396640 1_556
Ca8 O31 2.396640 1_555
Ca8 O30 2.396649 1_555
Ca8 O14 2.396649 1_555
Ca8 O16 2.526903 1_555
Ca8 O32 2.526903 1_555
Ca8 O35 2.526909 1_556
Ca8 O19 2.526909 1_555
Ca9 O29 2.396640 1_555
Ca9 O13 2.396640 1_555
Ca9 O28 2.396646 1_565
Ca9 O12 2.396646 1_555
Ca9 O33 2.526909 1_555
Ca9 O17 2.526909 1_555
Ca9 O18 2.526915 1_565
Ca9 O34 2.526915 1_555
Ca10 O26 2.396640 1_555
Ca10 O19 2.396640 1_555
Ca10 O27 2.396646 1_556
Ca10 O18 2.396646 1_555
Ca10 O31 2.526909 1_555
Ca10 O20 2.526909 1_555
Ca10 O23 2.526915 1_556
Ca10 O28 2.526915 1_555
Ca11 O17 2.396640 1_655
Ca11 O24 2.396640 1_555
Ca11 O25 2.396649 1_555
Ca11 O16 2.396649 1_555
Ca11 O21 2.526903 1_555
Ca11 O30 2.526903 1_555
Ca11 O29 2.526909 1_655
Ca11 O22 2.526909 1_555
Ga0 O0 2.021399 1_455
Ga0 O12 2.021399 1_555
Ga0 O22 2.021406 1_455
Ga0 O17 2.021406 1_555
Ga0 O10 2.021406 1_555
Ga0 O5 2.021406 1_455
Ga1 O6 2.021399 1_545
Ga1 O18 2.021399 1_555
Ga1 O13 2.021406 1_545
Ga1 O20 2.021406 1_555
Ga1 O1 2.021406 1_555
Ga1 O8 2.021406 1_545
Ga2 O4 2.021403 1_555
Ga2 O2 2.021403 1_555
Ga2 O9 2.021403 1_555
Ga2 O21 2.021403 1_444
Ga2 O16 2.021403 1_444
Ga2 O14 2.021403 1_444
Ga3 O11 2.021399 1_554
Ga3 O23 2.021399 1_555
Ga3 O19 2.021406 1_554
Ga3 O15 2.021406 1_555
Ga3 O7 2.021406 1_555
Ga3 O3 2.021406 1_554
Ga4 O34 2.021399 1_545
Ga4 O46 2.021399 1_455
Ga4 O36 2.021406 1_555
Ga4 O24 2.021406 1_445
Ga4 O41 2.021406 1_455
Ga4 O29 2.021406 1_545
Ga5 O25 2.021403 1_555
Ga5 O32 2.021403 1_555
Ga5 O30 2.021403 1_555
Ga5 O37 2.021403 1_555
Ga5 O44 2.021403 1_555
Ga5 O42 2.021403 1_555
Ga6 O28 2.021399 1_554
Ga6 O40 2.021399 1_545
Ga6 O45 2.021406 1_555
Ga6 O33 2.021406 1_544
Ga6 O38 2.021406 1_545
Ga6 O26 2.021406 1_554
Ga7 O27 2.021399 1_455
Ga7 O39 2.021399 1_554
Ga7 O43 2.021406 1_555
Ga7 O31 2.021406 1_454
Ga7 O47 2.021406 1_554
Ga7 O35 2.021406 1_455
Ge0 O46 1.789024 1_555
Ge0 O20 1.789025 1_555
Ge0 O47 1.789025 1_655
Ge0 O21 1.789028 1_545
Ge1 O23 1.789024 1_555
Ge1 O22 1.789025 1_555
Ge1 O45 1.789025 1_555
Ge1 O44 1.789028 1_555
Ge2 O12 1.789024 1_555
Ge2 O13 1.789025 1_555
Ge2 O43 1.789025 1_555
Ge2 O42 1.789028 1_555
Ge3 O40 1.789024 1_555
Ge3 O15 1.789025 1_555
Ge3 O41 1.789025 1_565
Ge3 O14 1.789028 1_554
Ge4 O39 1.789024 1_555
Ge4 O17 1.789025 1_555
Ge4 O38 1.789025 1_556
Ge4 O16 1.789028 1_455
Ge5 O18 1.789024 1_555
Ge5 O36 1.789025 1_555
Ge5 O19 1.789025 1_555
Ge5 O37 1.789028 1_555
Ge6 O34 1.789024 1_555
Ge6 O35 1.789025 1_455
Ge6 O8 1.789025 1_555
Ge6 O9 1.789028 1_565
Ge7 O11 1.789024 1_555
Ge7 O10 1.789025 1_555
Ge7 O33 1.789025 1_555
Ge7 O32 1.789028 1_555
Ge8 O0 1.789024 1_555
Ge8 O1 1.789025 1_555
Ge8 O31 1.789025 1_555
Ge8 O30 1.789028 1_555
Ge9 O28 1.789024 1_555
Ge9 O29 1.789025 1_545
Ge9 O3 1.789025 1_555
Ge9 O2 1.789028 1_556
Ge10 O27 1.789024 1_555
Ge10 O26 1.789025 1_554
Ge10 O5 1.789025 1_555
Ge10 O4 1.789028 1_655
Ge11 O6 1.789024 1_555
Ge11 O7 1.789025 1_555
Ge11 O24 1.789025 1_555
Ge11 O25 1.789028 1_555
