# generated using pymatgen
data_SmGePd2
_symmetry_space_group_name_H-M   'P 1'
_cell_length_a   5.67034721
_cell_length_b   7.04774304
_cell_length_c   7.52598491
_cell_angle_alpha   90.00000000
_cell_angle_beta   90.00000000
_cell_angle_gamma   90.00000000
_symmetry_Int_Tables_number   1
_chemical_formula_structural   SmGePd2
_chemical_formula_sum   'Sm4 Ge4 Pd8'
_cell_volume   300.76206449
_cell_formula_units_Z   4
loop_
 _symmetry_equiv_pos_site_id
 _symmetry_equiv_pos_as_xyz
  1  'x, y, z'
loop_
 _atom_site_type_symbol
 _atom_site_label
 _atom_site_symmetry_multiplicity
 _atom_site_fract_x
 _atom_site_fract_y
 _atom_site_fract_z
 _atom_site_occupancy
  Sm  Sm0  1  0.35156356  0.75000000  0.03105802  1
  Sm  Sm1  1  0.14843644  0.75000000  0.53105802  1
  Sm  Sm2  1  0.64843644  0.25000000  0.96894198  1
  Sm  Sm3  1  0.85156356  0.25000000  0.46894198  1
  Ge  Ge0  1  0.64830325  0.75000000  0.37766606  1
  Ge  Ge1  1  0.85169675  0.75000000  0.87766606  1
  Ge  Ge2  1  0.35169675  0.25000000  0.62233394  1
  Ge  Ge3  1  0.14830325  0.25000000  0.12233394  1
  Pd  Pd0  1  0.91158024  0.55201840  0.17893156  1
  Pd  Pd1  1  0.58841976  0.94798160  0.67893156  1
  Pd  Pd2  1  0.08841976  0.05201840  0.82106844  1
  Pd  Pd3  1  0.41158024  0.44798160  0.32106844  1
  Pd  Pd4  1  0.08841976  0.44798160  0.82106844  1
  Pd  Pd5  1  0.41158024  0.05201840  0.32106844  1
  Pd  Pd6  1  0.91158024  0.94798160  0.17893156  1
  Pd  Pd7  1  0.58841976  0.55201840  0.67893156  1
loop_
_geom_bond_atom_site_label_1
_geom_bond_atom_site_label_2
_geom_bond_distance
_geom_bond_site_symmetry_2
Ge0 Pd6 2.532317 1_555
Ge0 Pd0 2.532317 1_555
Ge0 Pd5 2.552240 1_565
Ge0 Pd3 2.552240 1_555
Ge0 Pd1 2.683834 1_555
Ge0 Pd7 2.683834 1_555
Ge0 Sm1 3.060494 1_555
Ge0 Sm1 3.061893 1_655
Ge0 Sm0 3.104162 1_555
Ge1 Pd7 2.532317 1_555
Ge1 Pd1 2.532317 1_555
Ge1 Pd2 2.552240 1_665
Ge1 Pd4 2.552240 1_655
Ge1 Pd6 2.683834 1_556
Ge1 Pd0 2.683834 1_556
Ge1 Sm0 3.060494 1_656
Ge1 Sm0 3.061893 1_556
Ge1 Sm1 3.104162 1_655
Ge2 Pd2 2.532317 1_555
Ge2 Pd4 2.532317 1_555
Ge2 Pd1 2.552240 1_545
Ge2 Pd7 2.552240 1_555
Ge2 Pd3 2.683834 1_555
Ge2 Pd5 2.683834 1_555
Ge2 Sm3 3.060494 1_555
Ge2 Sm3 3.061893 1_455
Ge2 Sm2 3.104162 1_555
Ge3 Pd5 2.532317 1_555
Ge3 Pd3 2.532317 1_555
Ge3 Pd0 2.552240 1_455
Ge3 Pd6 2.552240 1_445
Ge3 Pd4 2.683834 1_554
Ge3 Pd2 2.683834 1_554
Ge3 Sm2 3.060494 1_454
Ge3 Sm2 3.061893 1_554
Ge3 Sm3 3.104162 1_455
Pd0 Pd6 2.790647 1_555
Pd0 Pd4 2.965944 1_654
Pd0 Sm2 3.042158 1_554
Pd0 Sm0 3.067536 1_655
Pd0 Sm3 3.067627 1_555
Pd0 Pd3 3.117712 1_655
Pd0 Pd3 3.117712 1_555
Pd0 Sm1 3.282339 1_655
Pd0 Sm0 3.642690 1_555
Pd1 Pd7 2.790647 1_555
Pd1 Pd5 2.965944 1_565
Pd1 Sm3 3.042158 1_565
Pd1 Sm1 3.067536 1_555
Pd1 Sm2 3.067627 1_565
Pd1 Pd2 3.117712 1_565
Pd1 Pd2 3.117712 1_665
Pd1 Sm0 3.282339 1_556
Pd1 Sm1 3.642690 1_655
Pd2 Pd4 2.790647 1_555
Pd2 Pd6 2.965944 1_446
Pd2 Sm0 3.042158 1_546
Pd2 Sm2 3.067536 1_455
Pd2 Sm1 3.067627 1_545
Pd2 Sm3 3.282339 1_455
Pd2 Sm2 3.642690 1_555
Pd3 Pd5 2.790647 1_555
Pd3 Pd7 2.965944 1_555
Pd3 Sm1 3.042158 1_555
Pd3 Sm3 3.067536 1_555
Pd3 Sm0 3.067627 1_555
Pd3 Sm2 3.282339 1_554
Pd3 Sm3 3.642690 1_455
Pd4 Sm0 3.042158 1_556
Pd4 Sm2 3.067536 1_455
Pd4 Sm1 3.067627 1_555
Pd4 Pd7 3.117712 1_555
Pd4 Pd7 3.117712 1_455
Pd4 Sm3 3.282339 1_455
Pd4 Sm2 3.642690 1_555
Pd5 Sm1 3.042158 1_545
Pd5 Sm3 3.067536 1_555
Pd5 Sm0 3.067627 1_545
Pd5 Pd6 3.117712 1_445
Pd5 Pd6 3.117712 1_545
Pd5 Sm2 3.282339 1_554
Pd5 Sm3 3.642690 1_455
Pd6 Sm2 3.042158 1_564
Pd6 Sm0 3.067536 1_655
Pd6 Sm3 3.067627 1_565
Pd6 Sm1 3.282339 1_655
Pd6 Sm0 3.642690 1_555
Pd7 Sm3 3.042158 1_555
Pd7 Sm1 3.067536 1_555
Pd7 Sm2 3.067627 1_555
Pd7 Sm0 3.282339 1_556
Pd7 Sm1 3.642690 1_655
