# generated using pymatgen
data_Lu2(Ni5B3)3
_symmetry_space_group_name_H-M   'P 1'
_cell_length_a   9.76507649
_cell_length_b   9.76507649
_cell_length_c   11.17769900
_cell_angle_alpha   90.00000000
_cell_angle_beta   90.00000000
_cell_angle_gamma   107.87095301
_symmetry_Int_Tables_number   1
_chemical_formula_structural   Lu2(Ni5B3)3
_chemical_formula_sum   'Lu8 Ni60 B36'
_cell_volume   1014.44064404
_cell_formula_units_Z   4
loop_
 _symmetry_equiv_pos_site_id
 _symmetry_equiv_pos_as_xyz
  1  'x, y, z'
loop_
 _atom_site_type_symbol
 _atom_site_label
 _atom_site_symmetry_multiplicity
 _atom_site_fract_x
 _atom_site_fract_y
 _atom_site_fract_z
 _atom_site_occupancy
  Lu  Lu0  1  0.25970300  0.25970300  0.95762700  1
  Lu  Lu1  1  0.74029700  0.74029700  0.04237300  1
  Lu  Lu2  1  0.24029700  0.24029700  0.45762700  1
  Lu  Lu3  1  0.75970300  0.75970300  0.54237300  1
  Lu  Lu4  1  0.18971500  0.68971500  0.75000000  1
  Lu  Lu5  1  0.31028500  0.81028500  0.25000000  1
  Lu  Lu6  1  0.81028500  0.31028500  0.25000000  1
  Lu  Lu7  1  0.68971500  0.18971500  0.75000000  1
  Ni  Ni0  1  0.50000000  0.50000000  0.00000000  1
  Ni  Ni1  1  0.00000000  0.00000000  0.50000000  1
  Ni  Ni2  1  0.50000000  0.50000000  0.50000000  1
  Ni  Ni3  1  0.00000000  0.00000000  0.00000000  1
  Ni  Ni4  1  0.23373500  0.23373500  0.71270500  1
  Ni  Ni5  1  0.76626500  0.76626500  0.28729500  1
  Ni  Ni6  1  0.26626500  0.26626500  0.21270500  1
  Ni  Ni7  1  0.73373500  0.73373500  0.78729500  1
  Ni  Ni8  1  0.92952600  0.42952600  0.75000000  1
  Ni  Ni9  1  0.57047400  0.07047400  0.25000000  1
  Ni  Ni10  1  0.07047400  0.57047400  0.25000000  1
  Ni  Ni11  1  0.42952600  0.92952600  0.75000000  1
  Ni  Ni12  1  0.98929800  0.18351700  0.84003700  1
  Ni  Ni13  1  0.81648300  0.01070200  0.15996300  1
  Ni  Ni14  1  0.31648300  0.51070200  0.34003700  1
  Ni  Ni15  1  0.48929800  0.68351700  0.65996300  1
  Ni  Ni16  1  0.01070200  0.81648300  0.15996300  1
  Ni  Ni17  1  0.18351700  0.98929800  0.84003700  1
  Ni  Ni18  1  0.68351700  0.48929800  0.65996300  1
  Ni  Ni19  1  0.51070200  0.31648300  0.34003700  1
  Ni  Ni20  1  0.25600500  0.46908900  0.59611300  1
  Ni  Ni21  1  0.53091100  0.74399500  0.40388700  1
  Ni  Ni22  1  0.03091100  0.24399500  0.09611300  1
  Ni  Ni23  1  0.75600500  0.96908900  0.90388700  1
  Ni  Ni24  1  0.74399500  0.53091100  0.40388700  1
  Ni  Ni25  1  0.46908900  0.25600500  0.59611300  1
  Ni  Ni26  1  0.96908900  0.75600500  0.90388700  1
  Ni  Ni27  1  0.24399500  0.03091100  0.09611300  1
  Ni  Ni28  1  0.99657100  0.22769700  0.61764800  1
  Ni  Ni29  1  0.77230300  0.00342900  0.38235200  1
  Ni  Ni30  1  0.27230300  0.50342900  0.11764800  1
  Ni  Ni31  1  0.49657100  0.72769700  0.88235200  1
  Ni  Ni32  1  0.00342900  0.77230300  0.38235200  1
  Ni  Ni33  1  0.22769700  0.99657100  0.61764800  1
  Ni  Ni34  1  0.72769700  0.49657100  0.88235200  1
  Ni  Ni35  1  0.50342900  0.27230300  0.11764800  1
  Ni  Ni36  1  0.10705700  0.44579400  0.91603100  1
  Ni  Ni37  1  0.55420600  0.89294300  0.08396900  1
  Ni  Ni38  1  0.05420600  0.39294300  0.41603100  1
  Ni  Ni39  1  0.60705700  0.94579400  0.58396900  1
  Ni  Ni40  1  0.89294300  0.55420600  0.08396900  1
  Ni  Ni41  1  0.44579400  0.10705700  0.91603100  1
  Ni  Ni42  1  0.94579400  0.60705700  0.58396900  1
  Ni  Ni43  1  0.39294300  0.05420600  0.41603100  1
  Ni  Ni44  1  0.33048200  0.48924700  0.80675500  1
  Ni  Ni45  1  0.51075300  0.66951800  0.19324500  1
  Ni  Ni46  1  0.01075300  0.16951800  0.30675500  1
  Ni  Ni47  1  0.83048200  0.98924700  0.69324500  1
  Ni  Ni48  1  0.66951800  0.51075300  0.19324500  1
  Ni  Ni49  1  0.48924700  0.33048200  0.80675500  1
  Ni  Ni50  1  0.98924700  0.83048200  0.69324500  1
  Ni  Ni51  1  0.16951800  0.01075300  0.30675500  1
  Ni  Ni52  1  0.83725200  0.36253100  0.53079500  1
  Ni  Ni53  1  0.63746900  0.16274800  0.46920500  1
  Ni  Ni54  1  0.13746900  0.66274800  0.03079500  1
  Ni  Ni55  1  0.33725200  0.86253100  0.96920500  1
  Ni  Ni56  1  0.16274800  0.63746900  0.46920500  1
  Ni  Ni57  1  0.36253100  0.83725200  0.53079500  1
  Ni  Ni58  1  0.86253100  0.33725200  0.96920500  1
  Ni  Ni59  1  0.66274800  0.13746900  0.03079500  1
  B  B0  1  0.36471000  0.63529000  0.50000000  1
  B  B1  1  0.86471000  0.13529000  0.00000000  1
  B  B2  1  0.63529000  0.36471000  0.50000000  1
  B  B3  1  0.13529000  0.86471000  0.00000000  1
  B  B4  1  0.45114100  0.45114100  0.67181000  1
  B  B5  1  0.54885900  0.54885900  0.32819000  1
  B  B6  1  0.04885900  0.04885900  0.17181000  1
  B  B7  1  0.95114100  0.95114100  0.82819000  1
  B  B8  1  0.05653900  0.05653900  0.69942300  1
  B  B9  1  0.94346100  0.94346100  0.30057700  1
  B  B10  1  0.44346100  0.44346100  0.19942300  1
  B  B11  1  0.55653900  0.55653900  0.80057700  1
  B  B12  1  0.12024600  0.37894600  0.74498700  1
  B  B13  1  0.62105400  0.87975400  0.25501300  1
  B  B14  1  0.12105400  0.37975400  0.24498700  1
  B  B15  1  0.62024600  0.87894600  0.75501300  1
  B  B16  1  0.87975400  0.62105400  0.25501300  1
  B  B17  1  0.37894600  0.12024600  0.74498700  1
  B  B18  1  0.87894600  0.62024600  0.75501300  1
  B  B19  1  0.37975400  0.12105400  0.24498700  1
  B  B20  1  0.29757700  0.59425900  0.94865100  1
  B  B21  1  0.40574100  0.70242300  0.05134900  1
  B  B22  1  0.90574100  0.20242300  0.44865100  1
  B  B23  1  0.79757700  0.09425900  0.55134900  1
  B  B24  1  0.70242300  0.40574100  0.05134900  1
  B  B25  1  0.59425900  0.29757700  0.94865100  1
  B  B26  1  0.09425900  0.79757700  0.55134900  1
  B  B27  1  0.20242300  0.90574100  0.44865100  1
  B  B28  1  0.04906400  0.45109400  0.60036200  1
  B  B29  1  0.54890600  0.95093600  0.39963800  1
  B  B30  1  0.04890600  0.45093600  0.10036200  1
  B  B31  1  0.54906400  0.95109400  0.89963800  1
  B  B32  1  0.95093600  0.54890600  0.39963800  1
  B  B33  1  0.45109400  0.04906400  0.60036200  1
  B  B34  1  0.95109400  0.54906400  0.89963800  1
  B  B35  1  0.45093600  0.04890600  0.10036200  1
loop_
_geom_bond_atom_site_label_1
_geom_bond_atom_site_label_2
_geom_bond_distance
_geom_bond_site_symmetry_2
Lu0 Ni22 2.683446 1_556
Lu0 Ni27 2.683446 1_556
Lu0 Ni44 2.719411 1_555
Lu0 Ni49 2.719411 1_555
Lu0 Ni41 2.720794 1_555
Lu0 Ni36 2.720794 1_555
Lu0 Ni4 2.753896 1_555
Lu0 Ni0 2.803076 1_556
Lu0 Ni12 2.836862 1_455
Lu0 Ni17 2.836862 1_545
Lu0 Ni6 2.852183 1_556
Lu0 Ni35 2.949433 1_556
Lu0 Ni30 2.949433 1_556
Lu0 Ni3 3.023220 1_556
Lu1 Ni26 2.683446 1_554
Lu1 Ni23 2.683446 1_554
Lu1 Ni45 2.719411 1_555
Lu1 Ni48 2.719411 1_555
Lu1 Ni37 2.720794 1_555
Lu1 Ni40 2.720794 1_555
Lu1 Ni5 2.753896 1_555
Lu1 Ni0 2.803076 1_555
Lu1 Ni13 2.836862 1_565
Lu1 Ni16 2.836862 1_655
Lu1 Ni7 2.852183 1_554
Lu1 Ni31 2.949433 1_554
Lu1 Ni34 2.949433 1_554
Lu1 Ni3 3.023220 1_665
Lu2 Ni20 2.683446 1_555
Lu2 Ni25 2.683446 1_555
Lu2 Ni46 2.719411 1_555
Lu2 Ni51 2.719411 1_555
Lu2 Ni38 2.720794 1_555
Lu2 Ni43 2.720794 1_555
Lu2 Ni6 2.753896 1_555
Lu2 Ni1 2.803076 1_555
Lu2 Ni14 2.836862 1_555
Lu2 Ni19 2.836862 1_555
Lu2 Ni4 2.852183 1_555
Lu2 Ni28 2.949433 1_455
Lu2 Ni33 2.949433 1_545
Lu2 Ni2 3.023220 1_555
Lu3 Ni21 2.683446 1_555
Lu3 Ni24 2.683446 1_555
Lu3 Ni50 2.719411 1_555
Lu3 Ni47 2.719411 1_555
Lu3 Ni42 2.720794 1_555
Lu3 Ni39 2.720794 1_555
Lu3 Ni7 2.753896 1_555
Lu3 Ni1 2.803076 1_665
Lu3 Ni15 2.836862 1_555
Lu3 Ni18 2.836862 1_555
Lu3 Ni5 2.852183 1_555
Lu3 Ni29 2.949433 1_565
Lu3 Ni32 2.949433 1_655
Lu3 Ni2 3.023220 1_555
Lu4 Ni11 2.757184 1_555
Lu4 Ni44 2.788486 1_555
Lu4 Ni50 2.788486 1_455
Lu4 Ni36 2.930728 1_555
Lu4 Ni42 2.930728 1_455
Lu4 Ni20 2.979144 1_555
Lu4 Ni26 2.979144 1_455
Lu4 Ni8 2.991477 1_455
Lu4 Ni57 3.071616 1_555
Lu4 Ni55 3.071616 1_555
Lu4 Ni15 3.111824 1_555
Lu4 Ni17 3.111824 1_555
Lu4 Ni54 3.177775 1_556
Lu4 Ni56 3.177775 1_555
Lu4 Ni33 3.259279 1_555
Lu4 Ni31 3.259279 1_555
Lu5 Ni10 2.757184 1_555
Lu5 Ni51 2.788486 1_565
Lu5 Ni45 2.788486 1_555
Lu5 Ni43 2.930728 1_565
Lu5 Ni37 2.930728 1_555
Lu5 Ni27 2.979144 1_565
Lu5 Ni21 2.979144 1_555
Lu5 Ni9 2.991477 1_565
Lu5 Ni56 3.071616 1_555
Lu5 Ni54 3.071616 1_555
Lu5 Ni16 3.111824 1_555
Lu5 Ni14 3.111824 1_555
Lu5 Ni55 3.177775 1_554
Lu5 Ni57 3.177775 1_555
Lu5 Ni32 3.259279 1_555
Lu5 Ni30 3.259279 1_555
Lu6 Ni9 2.757184 1_555
Lu6 Ni46 2.788486 1_655
Lu6 Ni48 2.788486 1_555
Lu6 Ni40 2.930728 1_555
Lu6 Ni38 2.930728 1_655
Lu6 Ni22 2.979144 1_655
Lu6 Ni24 2.979144 1_555
Lu6 Ni10 2.991477 1_655
Lu6 Ni59 3.071616 1_555
Lu6 Ni53 3.071616 1_555
Lu6 Ni13 3.111824 1_555
Lu6 Ni19 3.111824 1_555
Lu6 Ni52 3.177775 1_555
Lu6 Ni58 3.177775 1_554
Lu6 Ni29 3.259279 1_555
Lu6 Ni35 3.259279 1_555
Lu7 Ni8 2.757184 1_555
Lu7 Ni49 2.788486 1_555
Lu7 Ni47 2.788486 1_545
Lu7 Ni39 2.930728 1_545
Lu7 Ni41 2.930728 1_555
Lu7 Ni25 2.979144 1_555
Lu7 Ni23 2.979144 1_545
Lu7 Ni11 2.991477 1_545
Lu7 Ni52 3.071616 1_555
Lu7 Ni58 3.071616 1_555
Lu7 Ni12 3.111824 1_555
Lu7 Ni18 3.111824 1_555
Lu7 Ni59 3.177775 1_556
Lu7 Ni53 3.177775 1_555
Lu7 Ni28 3.259279 1_555
Lu7 Ni34 3.259279 1_555
B0 Ni21 1.964085 1_555
B0 Ni20 1.964085 1_555
B0 Ni56 2.008523 1_555
B0 Ni57 2.008523 1_555
B0 Ni15 2.132437 1_555
B0 Ni14 2.132437 1_555
B0 Ni2 2.135862 1_555
B1 Ni22 1.964085 1_655
B1 Ni23 1.964085 1_544
B1 Ni59 2.008523 1_555
B1 Ni58 2.008523 1_554
B1 Ni13 2.132437 1_555
B1 Ni12 2.132437 1_554
B1 Ni3 2.135862 1_655
B2 Ni24 1.964085 1_555
B2 Ni25 1.964085 1_555
B2 Ni52 2.008523 1_555
B2 Ni53 2.008523 1_555
B2 Ni18 2.132437 1_555
B2 Ni19 2.132437 1_555
B2 Ni2 2.135862 1_555
B3 Ni27 1.964085 1_565
B3 Ni26 1.964085 1_454
B3 Ni54 2.008523 1_555
B3 Ni55 2.008523 1_554
B3 Ni17 2.132437 1_554
B3 Ni16 2.132437 1_555
B3 Ni3 2.135862 1_565
B4 Ni2 2.000913 1_555
B4 Ni49 2.017673 1_555
B4 Ni44 2.017673 1_555
B4 Ni20 2.140702 1_555
B4 Ni25 2.140702 1_555
B4 Ni18 2.187824 1_555
B4 Ni15 2.187824 1_555
B4 Ni4 2.541040 1_555
B5 Ni2 2.000913 1_555
B5 Ni45 2.017673 1_555
B5 Ni48 2.017673 1_555
B5 Ni24 2.140702 1_555
B5 Ni21 2.140702 1_555
B5 Ni14 2.187824 1_555
B5 Ni19 2.187824 1_555
B5 Ni5 2.541040 1_555
B6 B9 1.881511 1_445
B6 Ni3 2.000913 1_555
B6 Ni46 2.017673 1_555
B6 Ni51 2.017673 1_555
B6 Ni22 2.140702 1_555
B6 Ni27 2.140702 1_555
B6 Ni13 2.187824 1_455
B6 Ni16 2.187824 1_545
B6 Ni6 2.541040 1_555
B7 B8 1.881511 1_665
B7 Ni3 2.000913 1_666
B7 Ni50 2.017673 1_555
B7 Ni47 2.017673 1_555
B7 Ni26 2.140702 1_555
B7 Ni23 2.140702 1_555
B7 Ni12 2.187824 1_565
B7 Ni17 2.187824 1_655
B7 Ni7 2.541040 1_555
B8 Ni4 2.042682 1_555
B8 Ni50 2.102187 1_445
B8 Ni47 2.102187 1_445
B8 Ni28 2.138364 1_455
B8 Ni33 2.138364 1_545
B8 Ni17 2.222314 1_545
B8 Ni12 2.222314 1_455
B8 Ni1 2.321940 1_555
B9 Ni5 2.042682 1_555
B9 Ni46 2.102187 1_665
B9 Ni51 2.102187 1_665
B9 Ni29 2.138364 1_565
B9 Ni32 2.138364 1_655
B9 Ni16 2.222314 1_655
B9 Ni13 2.222314 1_565
B9 Ni1 2.321940 1_665
B10 B5 1.881511 1_555
B10 Ni6 2.042682 1_555
B10 Ni48 2.102187 1_555
B10 Ni45 2.102187 1_555
B10 Ni35 2.138364 1_555
B10 Ni30 2.138364 1_555
B10 Ni14 2.222314 1_555
B10 Ni19 2.222314 1_555
B10 Ni0 2.321940 1_555
B11 B4 1.881511 1_555
B11 Ni7 2.042682 1_555
B11 Ni44 2.102187 1_555
B11 Ni49 2.102187 1_555
B11 Ni34 2.138364 1_555
B11 Ni31 2.138364 1_555
B11 Ni18 2.222314 1_555
B11 Ni15 2.222314 1_555
B11 Ni0 2.321940 1_556
B12 B28 1.973170 1_555
B12 Ni36 2.037052 1_555
B12 Ni8 2.068859 1_455
B12 Ni4 2.081724 1_555
B12 Ni44 2.119991 1_555
B12 Ni28 2.138019 1_455
B12 Ni20 2.141315 1_555
B12 Ni12 2.215421 1_455
B12 Lu4 2.899852 1_555
B13 B29 1.973170 1_555
B13 Ni37 2.037052 1_555
B13 Ni9 2.068859 1_565
B13 Ni5 2.081724 1_555
B13 Ni45 2.119991 1_555
B13 Ni29 2.138019 1_565
B13 Ni21 2.141315 1_555
B13 Ni13 2.215421 1_565
B13 Lu5 2.899852 1_555
B14 B30 1.973170 1_555
B14 Ni38 2.037052 1_555
B14 Ni10 2.068859 1_555
B14 Ni6 2.081724 1_555
B14 Ni46 2.119991 1_555
B14 Ni30 2.138019 1_555
B14 Ni22 2.141315 1_555
B14 Ni14 2.215421 1_555
B14 Lu6 2.899852 1_455
B15 B31 1.973170 1_555
B15 Ni39 2.037052 1_555
B15 Ni11 2.068859 1_555
B15 Ni7 2.081724 1_555
B15 Ni47 2.119991 1_555
B15 Ni31 2.138019 1_555
B15 Ni23 2.141315 1_555
B15 Ni15 2.215421 1_555
B15 Lu7 2.899852 1_565
B16 B32 1.973170 1_555
B16 Ni40 2.037052 1_555
B16 Ni10 2.068859 1_655
B16 Ni5 2.081724 1_555
B16 Ni48 2.119991 1_555
B16 Ni32 2.138019 1_655
B16 Ni24 2.141315 1_555
B16 Ni16 2.215421 1_655
B16 Lu6 2.899852 1_555
B17 B33 1.973170 1_555
B17 Ni41 2.037052 1_555
B17 Ni11 2.068859 1_545
B17 Ni4 2.081724 1_555
B17 Ni49 2.119991 1_555
B17 Ni33 2.138019 1_545
B17 Ni25 2.141315 1_555
B17 Ni17 2.215421 1_545
B17 Lu7 2.899852 1_555
B18 B34 1.973170 1_555
B18 Ni42 2.037052 1_555
B18 Ni8 2.068859 1_555
B18 Ni7 2.081724 1_555
B18 Ni50 2.119991 1_555
B18 Ni34 2.138019 1_555
B18 Ni26 2.141315 1_555
B18 Ni18 2.215421 1_555
B18 Lu4 2.899852 1_655
B19 B35 1.973170 1_555
B19 Ni43 2.037052 1_555
B19 Ni9 2.068859 1_555
B19 Ni6 2.081724 1_555
B19 Ni51 2.119991 1_555
B19 Ni35 2.138019 1_555
B19 Ni27 2.141315 1_555
B19 Ni19 2.215421 1_555
B19 Lu5 2.899852 1_545
B20 B21 1.692415 1_556
B20 Ni44 1.967903 1_555
B20 Ni36 2.010129 1_555
B20 Ni30 2.069196 1_556
B20 Ni54 2.092019 1_556
B20 Ni31 2.114009 1_555
B20 Ni0 2.490095 1_556
B20 Ni55 2.538262 1_555
B20 Lu4 2.740675 1_555
B21 Ni45 1.967903 1_555
B21 Ni37 2.010129 1_555
B21 Ni31 2.069196 1_554
B21 Ni55 2.092019 1_554
B21 Ni30 2.114009 1_555
B21 Ni0 2.490095 1_555
B21 Ni54 2.538262 1_555
B21 Lu5 2.740675 1_555
B22 B23 1.692415 1_555
B22 Ni46 1.967903 1_655
B22 Ni38 2.010129 1_655
B22 Ni28 2.069196 1_555
B22 Ni52 2.092019 1_555
B22 Ni29 2.114009 1_555
B22 Ni1 2.490095 1_655
B22 Ni53 2.538262 1_555
B22 Lu6 2.740675 1_555
B23 Ni47 1.967903 1_545
B23 Ni39 2.010129 1_545
B23 Ni29 2.069196 1_555
B23 Ni53 2.092019 1_555
B23 Ni28 2.114009 1_555
B23 Ni1 2.490095 1_655
B23 Ni52 2.538262 1_555
B23 Lu7 2.740675 1_555
B24 B25 1.692415 1_554
B24 Ni48 1.967903 1_555
B24 Ni40 2.010129 1_555
B24 Ni34 2.069196 1_554
B24 Ni58 2.092019 1_554
B24 Ni35 2.114009 1_555
B24 Ni0 2.490095 1_555
B24 Ni59 2.538262 1_555
B24 Lu6 2.740675 1_555
B25 Ni49 1.967903 1_555
B25 Ni41 2.010129 1_555
B25 Ni35 2.069196 1_556
B25 Ni59 2.092019 1_556
B25 Ni34 2.114009 1_555
B25 Ni0 2.490095 1_556
B25 Ni58 2.538262 1_555
B25 Lu7 2.740675 1_555
B26 B27 1.692415 1_555
B26 Ni50 1.967903 1_455
B26 Ni42 2.010129 1_455
B26 Ni32 2.069196 1_555
B26 Ni56 2.092019 1_555
B26 Ni33 2.114009 1_555
B26 Ni1 2.490095 1_565
B26 Ni57 2.538262 1_555
B26 Lu4 2.740675 1_555
B27 Ni51 1.967903 1_565
B27 Ni43 2.010129 1_565
B27 Ni33 2.069196 1_555
B27 Ni57 2.092019 1_555
B27 Ni32 2.114009 1_555
B27 Ni1 2.490095 1_565
B27 Ni56 2.538262 1_555
B27 Lu5 2.740675 1_555
B28 Ni20 1.974539 1_555
B28 Ni8 2.013373 1_455
B28 Ni42 2.076691 1_455
B28 Ni28 2.091094 1_455
B28 Ni52 2.129047 1_455
B28 Ni38 2.141893 1_555
B28 Ni56 2.335360 1_555
B28 Lu4 2.854717 1_555
B29 Ni21 1.974539 1_555
B29 Ni9 2.013373 1_565
B29 Ni43 2.076691 1_565
B29 Ni29 2.091094 1_565
B29 Ni53 2.129047 1_565
B29 Ni39 2.141893 1_555
B29 Ni57 2.335360 1_555
B29 Lu5 2.854717 1_555
B30 Ni22 1.974539 1_555
B30 Ni10 2.013373 1_555
B30 Ni40 2.076691 1_455
B30 Ni30 2.091094 1_555
B30 Ni54 2.129047 1_555
B30 Ni36 2.141893 1_554
B30 Ni58 2.335360 1_454
B30 Lu6 2.854717 1_455
B31 Ni23 1.974539 1_555
B31 Ni11 2.013373 1_555
B31 Ni41 2.076691 1_565
B31 Ni31 2.091094 1_555
B31 Ni55 2.129047 1_555
B31 Ni37 2.141893 1_556
B31 Ni59 2.335360 1_566
B31 Lu7 2.854717 1_565
B32 Ni24 1.974539 1_555
B32 Ni10 2.013373 1_655
B32 Ni38 2.076691 1_655
B32 Ni32 2.091094 1_655
B32 Ni56 2.129047 1_655
B32 Ni42 2.141893 1_555
B32 Ni52 2.335360 1_555
B32 Lu6 2.854717 1_555
B33 Ni25 1.974539 1_555
B33 Ni11 2.013373 1_545
B33 Ni39 2.076691 1_545
B33 Ni33 2.091094 1_545
B33 Ni57 2.129047 1_545
B33 Ni43 2.141893 1_555
B33 Ni53 2.335360 1_555
B33 Lu7 2.854717 1_555
B34 Ni26 1.974539 1_555
B34 Ni8 2.013373 1_555
B34 Ni36 2.076691 1_655
B34 Ni34 2.091094 1_555
B34 Ni58 2.129047 1_555
B34 Ni40 2.141893 1_556
B34 Ni54 2.335360 1_656
B34 Lu4 2.854717 1_655
B35 Ni27 1.974539 1_555
B35 Ni9 2.013373 1_555
B35 Ni37 2.076691 1_545
B35 Ni35 2.091094 1_555
B35 Ni59 2.129047 1_555
B35 Ni41 2.141893 1_554
B35 Ni55 2.335360 1_544
B35 Lu5 2.854717 1_545
