# generated using pymatgen
data_NaYbCu2F8
_symmetry_space_group_name_H-M   'P 1'
_cell_length_a   6.35062052
_cell_length_b   6.35062052
_cell_length_c   6.35062052
_cell_angle_alpha   129.37831639
_cell_angle_beta   129.37831639
_cell_angle_gamma   74.40260360
_symmetry_Int_Tables_number   1
_chemical_formula_structural   NaYbCu2F8
_chemical_formula_sum   'Na1 Yb1 Cu2 F8'
_cell_volume   149.15372291
_cell_formula_units_Z   1
loop_
 _symmetry_equiv_pos_site_id
 _symmetry_equiv_pos_as_xyz
  1  'x, y, z'
loop_
 _atom_site_type_symbol
 _atom_site_label
 _atom_site_symmetry_multiplicity
 _atom_site_fract_x
 _atom_site_fract_y
 _atom_site_fract_z
 _atom_site_occupancy
  Na  Na0  1  0.50000000  0.50000000  0.00000000  1
  Yb  Yb0  1  0.00000000  0.00000000  0.00000000  1
  Cu  Cu0  1  0.75000000  0.25000000  0.50000000  1
  Cu  Cu1  1  0.25000000  0.75000000  0.50000000  1
  F  F0  1  0.44291200  0.28764400  0.48474800  1
  F  F1  1  0.80289600  0.95816400  0.51525200  1
  F  F2  1  0.28764400  0.80289600  0.84473200  1
  F  F3  1  0.19710400  0.71235600  0.15526800  1
  F  F4  1  0.95816400  0.44291200  0.15526800  1
  F  F5  1  0.55708800  0.04183600  0.84473200  1
  F  F6  1  0.04183600  0.19710400  0.48474800  1
  F  F7  1  0.71235600  0.55708800  0.51525200  1
loop_
_geom_bond_atom_site_label_1
_geom_bond_atom_site_label_2
_geom_bond_distance
_geom_bond_site_symmetry_2
Cu0 F6 1.846292 1_655
Cu0 F1 1.846292 1_545
Cu0 F7 1.846292 1_555
Cu0 F0 1.846292 1_555
Cu1 F5 1.846292 1_565
Cu1 F4 1.846292 1_455
Cu1 F3 1.846292 1_555
Cu1 F2 1.846292 1_555
F0 Yb0 2.316425 1_555
F0 Na0 2.411546 1_556
F1 Yb0 2.316425 1_666
F1 Na0 2.411546 1_555
F2 Yb0 2.316425 1_566
F2 Na0 2.411546 1_556
F3 Yb0 2.316425 1_565
F3 Na0 2.411546 1_555
F4 Yb0 2.316425 1_655
F4 Na0 2.411546 1_555
F5 Yb0 2.316425 1_656
F5 Na0 2.411546 1_556
F6 Yb0 2.316425 1_555
F6 Na0 2.411546 1_556
F7 Yb0 2.316425 1_666
F7 Na0 2.411546 1_555
