# generated using pymatgen
data_Sm2V2O5
_symmetry_space_group_name_H-M   'P 1'
_cell_length_a   8.79537259
_cell_length_b   8.79537259
_cell_length_c   8.79537259
_cell_angle_alpha   143.82060021
_cell_angle_beta   141.41618154
_cell_angle_gamma   53.92319259
_symmetry_Int_Tables_number   1
_chemical_formula_structural   Sm2V2O5
_chemical_formula_sum   'Sm4 V4 O10'
_cell_volume   248.84927442
_cell_formula_units_Z   2
loop_
 _symmetry_equiv_pos_site_id
 _symmetry_equiv_pos_as_xyz
  1  'x, y, z'
loop_
 _atom_site_type_symbol
 _atom_site_label
 _atom_site_symmetry_multiplicity
 _atom_site_fract_x
 _atom_site_fract_y
 _atom_site_fract_z
 _atom_site_occupancy
  Sm  Sm0  1  0.87698700  0.39224300  0.48988800  1
  Sm  Sm1  1  0.12301300  0.61290100  0.51525600  1
  Sm  Sm2  1  0.40235500  0.89224300  0.51525600  1
  Sm  Sm3  1  0.59764500  0.11290100  0.48988800  1
  V  V0  1  0.00000000  0.98196500  0.98196500  1
  V  V1  1  0.50000000  0.48196500  0.98196500  1
  V  V2  1  0.80206800  0.78312900  0.08519700  1
  V  V3  1  0.19793200  0.28312900  0.98106100  1
  O  O0  1  0.76929200  0.77819800  0.48309500  1
  O  O1  1  0.23070800  0.71380300  0.00890600  1
  O  O2  1  0.79510400  0.27819800  0.00890600  1
  O  O3  1  0.20489600  0.21380300  0.48309500  1
  O  O4  1  0.77098900  0.81232600  0.85265300  1
  O  O5  1  0.22901100  0.08166400  0.04133700  1
  O  O6  1  0.45967300  0.31232600  0.04133700  1
  O  O7  1  0.54032700  0.58166400  0.85265300  1
  O  O8  1  0.84216800  0.17977100  0.52193800  1
  O  O9  1  0.15783200  0.67977100  0.33760300  1
loop_
_geom_bond_atom_site_label_1
_geom_bond_atom_site_label_2
_geom_bond_distance
_geom_bond_site_symmetry_2
O0 V1 2.057505 1_554
O0 V0 2.061670 1_655
O0 Sm3 2.360463 1_565
O0 Sm1 2.415313 1_655
O1 V1 2.057505 1_554
O1 V0 2.061670 1_554
O1 Sm2 2.360463 1_555
O1 Sm0 2.415313 1_454
O2 V0 2.057503 1_644
O2 V1 2.061676 1_554
O2 Sm1 2.360459 1_655
O2 Sm3 2.415309 1_554
O3 V0 2.057507 1_544
O3 V1 2.061672 1_555
O3 Sm0 2.360455 1_455
O3 Sm2 2.415312 1_545
O4 V2 2.053076 1_556
O4 V0 2.189822 1_655
O4 Sm2 2.335306 1_555
O4 Sm0 2.502670 1_555
O5 V3 2.053076 1_554
O5 V0 2.189822 1_544
O5 Sm3 2.335306 1_555
O5 Sm1 2.502670 1_544
O6 V3 2.053076 1_554
O6 V1 2.189822 1_554
O6 Sm0 2.335306 1_555
O6 Sm2 2.502670 1_544
O7 V2 2.053076 1_556
O7 V1 2.189822 1_555
O7 Sm1 2.335306 1_555
O7 Sm3 2.502670 1_555
O8 V3 2.143267 1_655
O8 V2 2.178963 1_545
O8 Sm0 2.307588 1_555
O8 Sm3 2.307603 1_555
O9 V2 2.143264 1_455
O9 V3 2.178967 1_554
O9 Sm2 2.307596 1_555
O9 Sm1 2.307596 1_555
