# generated using pymatgen
data_Na3(CoO2)5
_symmetry_space_group_name_H-M   'P 1'
_cell_length_a   4.98093049
_cell_length_b   9.25998664
_cell_length_c   9.25970180
_cell_angle_alpha   75.08333009
_cell_angle_beta   85.31013871
_cell_angle_gamma   94.68848444
_symmetry_Int_Tables_number   1
_chemical_formula_structural   Na3(CoO2)5
_chemical_formula_sum   'Na6 Co10 O20'
_cell_volume   408.96507887
_cell_formula_units_Z   2
loop_
 _symmetry_equiv_pos_site_id
 _symmetry_equiv_pos_as_xyz
  1  'x, y, z'
loop_
 _atom_site_type_symbol
 _atom_site_label
 _atom_site_symmetry_multiplicity
 _atom_site_fract_x
 _atom_site_fract_y
 _atom_site_fract_z
 _atom_site_occupancy
  Na  Na0  1  0.40860300  0.64361500  0.15637400  1
  Na  Na1  1  0.90383700  0.15494200  0.64506100  1
  Na  Na2  1  0.92200900  0.34871000  0.84737300  1
  Na  Na3  1  0.42264300  0.84322900  0.35108700  1
  Na  Na4  1  0.42266200  0.44888300  0.95676400  1
  Na  Na5  1  0.92197100  0.95260900  0.45129400  1
  Co  Co0  1  0.50046800  0.90430300  0.89570100  1
  Co  Co1  1  0.00270700  0.41515300  0.38485500  1
  Co  Co2  1  0.99703600  0.99476400  0.00001100  1
  Co  Co3  1  0.49605700  0.49106100  0.51139000  1
  Co  Co4  1  0.99703600  0.79999700  0.80523800  1
  Co  Co5  1  0.49605100  0.28859500  0.30896100  1
  Co  Co6  1  0.50011200  0.09639800  0.09191300  1
  Co  Co7  1  0.00501000  0.61113300  0.59863700  1
  Co  Co8  1  0.00499800  0.20135900  0.18889000  1
  Co  Co9  1  0.50011900  0.70809900  0.70361500  1
  O  O0  1  0.69394000  0.49193800  0.30804200  1
  O  O1  1  0.18573600  0.98547800  0.81452000  1
  O  O2  1  0.80292900  0.81555200  0.98445700  1
  O  O3  1  0.28642400  0.30466800  0.49534300  1
  O  O4  1  0.19164200  0.18296200  0.00383800  1
  O  O5  1  0.68870500  0.70999000  0.52397700  1
  O  O6  1  0.68870900  0.27601700  0.08996300  1
  O  O7  1  0.19165000  0.79617400  0.61703600  1
  O  O8  1  0.70038000  0.08738200  0.90795300  1
  O  O9  1  0.21569000  0.60336900  0.40943100  1
  O  O10  1  0.21568300  0.39054000  0.19662700  1
  O  O11  1  0.70039200  0.89204400  0.71261600  1
  O  O12  1  0.30874200  0.91119000  0.08335900  1
  O  O13  1  0.81314100  0.42295400  0.59984800  1
  O  O14  1  0.30873500  0.71665700  0.88880800  1
  O  O15  1  0.81313800  0.20015100  0.37706100  1
  O  O16  1  0.79568900  0.62036700  0.80005900  1
  O  O17  1  0.30483700  0.08992300  0.27618500  1
  O  O18  1  0.30481600  0.52383600  0.71005900  1
  O  O19  1  0.79569400  0.99995900  0.17965200  1
loop_
_geom_bond_atom_site_label_1
_geom_bond_atom_site_label_2
_geom_bond_distance
_geom_bond_site_symmetry_2
Na0 O0 2.366893 1_555
Na0 O9 2.382565 1_555
Na0 O10 2.382805 1_555
Na0 O14 2.497425 1_554
Na0 O12 2.497548 1_555
Na0 O2 2.568935 1_554
Na1 O3 2.371117 1_655
Na1 O8 2.460307 1_555
Na1 O11 2.460425 1_545
Na1 O15 2.493408 1_555
Na1 O13 2.493575 1_555
Na1 O1 2.519732 1_645
Na2 O13 2.339433 1_555
Na2 O6 2.348660 1_556
Na2 O4 2.401837 1_656
Na2 O18 2.432827 1_655
Na2 O8 2.480398 1_555
Na2 O16 2.579186 1_555
Na3 O9 2.281364 1_555
Na3 O5 2.332112 1_555
Na3 O17 2.348139 1_565
Na3 O19 2.443290 1_555
Na3 O12 2.519705 1_555
Na3 O7 2.545659 1_555
Na4 O10 2.281356 1_556
Na4 O6 2.331791 1_556
Na4 O18 2.348281 1_555
Na4 O16 2.443332 1_555
Na4 O14 2.520207 1_555
Na4 O4 2.545548 1_556
Na5 O15 2.339569 1_565
Na5 O5 2.348897 1_555
Na5 O7 2.401822 1_655
Na5 O17 2.432936 1_665
Na5 O11 2.480184 1_555
Na5 O19 2.578899 1_555
Co0 O2 1.917720 1_555
Co0 O1 1.918875 1_555
Co0 O8 1.928726 1_565
Co0 O11 1.928756 1_555
Co0 O12 1.931618 1_556
Co0 O14 1.931620 1_555
Co1 O0 1.863872 1_455
Co1 O3 2.006087 1_555
Co1 O9 2.038683 1_555
Co1 O10 2.038822 1_555
Co1 O13 2.153541 1_455
Co1 O15 2.153677 1_455
Co2 O19 1.884497 1_555
Co2 O2 1.895516 1_554
Co2 O1 1.914730 1_654
Co2 O8 1.918936 1_564
Co2 O12 1.920924 1_655
Co2 O4 1.933685 1_665
Co3 O13 1.916118 1_555
Co3 O9 1.967383 1_555
Co3 O3 1.988521 1_555
Co3 O0 2.050453 1_555
Co3 O18 2.105186 1_555
Co3 O5 2.205932 1_555
Co4 O16 1.884443 1_555
Co4 O2 1.895510 1_555
Co4 O1 1.914704 1_655
Co4 O11 1.918860 1_555
Co4 O14 1.920853 1_655
Co4 O7 1.933656 1_655
Co5 O15 1.916061 1_555
Co5 O10 1.967445 1_555
Co5 O3 1.988436 1_555
Co5 O0 2.050392 1_555
Co5 O17 2.105231 1_555
Co5 O6 2.206419 1_555
Co6 O6 1.837276 1_555
Co6 O17 1.878170 1_555
Co6 O19 1.913673 1_545
Co6 O12 1.916040 1_545
Co6 O8 1.926814 1_554
Co6 O4 1.933409 1_555
Co7 O13 1.914638 1_455
Co7 O7 1.935212 1_555
Co7 O5 1.971336 1_455
Co7 O9 1.988061 1_555
Co7 O18 1.991940 1_555
Co7 O16 2.086066 1_455
Co8 O15 1.914495 1_455
Co8 O4 1.935237 1_555
Co8 O6 1.971545 1_455
Co8 O10 1.987867 1_555
Co8 O17 1.992134 1_555
Co8 O19 2.085937 1_445
Co9 O5 1.837484 1_555
Co9 O18 1.878296 1_555
Co9 O16 1.913617 1_555
Co9 O14 1.915895 1_555
Co9 O11 1.926729 1_555
Co9 O7 1.933457 1_555
