# generated using pymatgen
data_Ba2Ge(Sb2S5)2
_symmetry_space_group_name_H-M   'P 1'
_cell_length_a   11.63893500
_cell_length_b   11.63893500
_cell_length_c   13.80348000
_cell_angle_alpha   90.00000000
_cell_angle_beta   90.00000000
_cell_angle_gamma   90.00000000
_symmetry_Int_Tables_number   1
_chemical_formula_structural   Ba2Ge(Sb2S5)2
_chemical_formula_sum   'Ba8 Ge4 Sb16 S40'
_cell_volume   1869.88576702
_cell_formula_units_Z   4
loop_
 _symmetry_equiv_pos_site_id
 _symmetry_equiv_pos_as_xyz
  1  'x, y, z'
loop_
 _atom_site_type_symbol
 _atom_site_label
 _atom_site_symmetry_multiplicity
 _atom_site_fract_x
 _atom_site_fract_y
 _atom_site_fract_z
 _atom_site_occupancy
  Ba  Ba0  1  0.76410400  0.26410400  0.75000000  1
  Ba  Ba1  1  0.26410400  0.23589600  0.25000000  1
  Ba  Ba2  1  0.73589600  0.76410400  0.75000000  1
  Ba  Ba3  1  0.76410400  0.26410400  0.25000000  1
  Ba  Ba4  1  0.26410400  0.23589600  0.75000000  1
  Ba  Ba5  1  0.73589600  0.76410400  0.25000000  1
  Ba  Ba6  1  0.23589600  0.73589600  0.25000000  1
  Ba  Ba7  1  0.23589600  0.73589600  0.75000000  1
  Ge  Ge0  1  0.50000000  0.50000000  0.75000000  1
  Ge  Ge1  1  0.50000000  0.50000000  0.25000000  1
  Ge  Ge2  1  0.00000000  0.00000000  0.75000000  1
  Ge  Ge3  1  0.00000000  0.00000000  0.25000000  1
  Sb  Sb0  1  0.09068900  0.36626100  0.50000000  1
  Sb  Sb1  1  0.36626100  0.90931100  0.00000000  1
  Sb  Sb2  1  0.40931100  0.86626100  0.50000000  1
  Sb  Sb3  1  0.86626100  0.59068900  0.00000000  1
  Sb  Sb4  1  0.90931100  0.63373900  0.50000000  1
  Sb  Sb5  1  0.63373900  0.09068900  0.00000000  1
  Sb  Sb6  1  0.59068900  0.13373900  0.50000000  1
  Sb  Sb7  1  0.13373900  0.40931100  0.00000000  1
  Sb  Sb8  1  0.15560200  0.03857800  0.50000000  1
  Sb  Sb9  1  0.03857800  0.84439800  0.00000000  1
  Sb  Sb10  1  0.34439800  0.53857800  0.50000000  1
  Sb  Sb11  1  0.53857800  0.65560200  0.00000000  1
  Sb  Sb12  1  0.84439800  0.96142200  0.50000000  1
  Sb  Sb13  1  0.96142200  0.15560200  0.00000000  1
  Sb  Sb14  1  0.65560200  0.46142200  0.50000000  1
  Sb  Sb15  1  0.46142200  0.34439800  0.00000000  1
  S  S0  1  0.25605900  0.22788300  0.50000000  1
  S  S1  1  0.22788300  0.74394100  0.00000000  1
  S  S2  1  0.24394100  0.72788300  0.50000000  1
  S  S3  1  0.72788300  0.75605900  0.00000000  1
  S  S4  1  0.74394100  0.77211700  0.50000000  1
  S  S5  1  0.77211700  0.25605900  0.00000000  1
  S  S6  1  0.75605900  0.27211700  0.50000000  1
  S  S7  1  0.27211700  0.24394100  0.00000000  1
  S  S8  1  0.34991300  0.47627600  0.84900600  1
  S  S9  1  0.47627600  0.65008700  0.34900600  1
  S  S10  1  0.15008700  0.97627600  0.84900600  1
  S  S11  1  0.97627600  0.84991300  0.34900600  1
  S  S12  1  0.34991300  0.47627600  0.15099400  1
  S  S13  1  0.47627600  0.65008700  0.65099400  1
  S  S14  1  0.15008700  0.97627600  0.15099400  1
  S  S15  1  0.97627600  0.84991300  0.65099400  1
  S  S16  1  0.65008700  0.52372400  0.15099400  1
  S  S17  1  0.52372400  0.34991300  0.65099400  1
  S  S18  1  0.84991300  0.02372400  0.15099400  1
  S  S19  1  0.02372400  0.15008700  0.65099400  1
  S  S20  1  0.65008700  0.52372400  0.84900600  1
  S  S21  1  0.52372400  0.34991300  0.34900600  1
  S  S22  1  0.84991300  0.02372400  0.84900600  1
  S  S23  1  0.02372400  0.15008700  0.34900600  1
  S  S24  1  0.18329300  0.47679900  0.63093700  1
  S  S25  1  0.47679900  0.81670700  0.13093700  1
  S  S26  1  0.31670700  0.97679900  0.63093700  1
  S  S27  1  0.97679900  0.68329300  0.13093700  1
  S  S28  1  0.18329300  0.47679900  0.36906300  1
  S  S29  1  0.47679900  0.81670700  0.86906300  1
  S  S30  1  0.31670700  0.97679900  0.36906300  1
  S  S31  1  0.97679900  0.68329300  0.86906300  1
  S  S32  1  0.81670700  0.52320100  0.36906300  1
  S  S33  1  0.52320100  0.18329300  0.86906300  1
  S  S34  1  0.68329300  0.02320100  0.36906300  1
  S  S35  1  0.02320100  0.31670700  0.86906300  1
  S  S36  1  0.81670700  0.52320100  0.63093700  1
  S  S37  1  0.52320100  0.18329300  0.13093700  1
  S  S38  1  0.68329300  0.02320100  0.63093700  1
  S  S39  1  0.02320100  0.31670700  0.13093700  1
loop_
_geom_bond_atom_site_label_1
_geom_bond_atom_site_label_2
_geom_bond_distance
_geom_bond_site_symmetry_2
Ba0 S22 3.269958 1_555
Ba0 S17 3.269958 1_555
Ba0 S33 3.383383 1_555
Ba0 S38 3.383383 1_555
Ba0 S5 3.453400 1_556
Ba0 S6 3.453400 1_555
Ba0 S36 3.488524 1_555
Ba0 S35 3.488524 1_655
Ba0 S20 3.572026 1_555
Ba0 S19 3.572026 1_655
Ba1 S12 3.269958 1_555
Ba1 S23 3.269958 1_555
Ba1 S28 3.383383 1_555
Ba1 S39 3.383383 1_555
Ba1 S0 3.453400 1_555
Ba1 S7 3.453400 1_555
Ba1 S30 3.488524 1_545
Ba1 S37 3.488524 1_555
Ba1 S21 3.572026 1_555
Ba1 S14 3.572026 1_545
Ba2 S20 3.269958 1_555
Ba2 S15 3.269958 1_555
Ba2 S31 3.383383 1_555
Ba2 S36 3.383383 1_555
Ba2 S3 3.453400 1_556
Ba2 S4 3.453400 1_555
Ba2 S38 3.488524 1_565
Ba2 S29 3.488524 1_555
Ba2 S13 3.572026 1_555
Ba2 S22 3.572026 1_565
Ba3 S21 3.269958 1_555
Ba3 S18 3.269958 1_555
Ba3 S37 3.383383 1_555
Ba3 S34 3.383383 1_555
Ba3 S5 3.453400 1_555
Ba3 S6 3.453400 1_555
Ba3 S32 3.488524 1_555
Ba3 S39 3.488524 1_655
Ba3 S16 3.572026 1_555
Ba3 S23 3.572026 1_655
Ba4 S8 3.269958 1_555
Ba4 S19 3.269958 1_555
Ba4 S24 3.383383 1_555
Ba4 S35 3.383383 1_555
Ba4 S7 3.453400 1_556
Ba4 S0 3.453400 1_555
Ba4 S33 3.488524 1_555
Ba4 S26 3.488524 1_545
Ba4 S17 3.572026 1_555
Ba4 S10 3.572026 1_545
Ba5 S11 3.269958 1_555
Ba5 S16 3.269958 1_555
Ba5 S32 3.383383 1_555
Ba5 S27 3.383383 1_555
Ba5 S3 3.453400 1_555
Ba5 S4 3.453400 1_555
Ba5 S34 3.488524 1_565
Ba5 S25 3.488524 1_555
Ba5 S9 3.572026 1_555
Ba5 S18 3.572026 1_565
Ba6 S9 3.269958 1_555
Ba6 S14 3.269958 1_555
Ba6 S25 3.383383 1_555
Ba6 S30 3.383383 1_555
Ba6 S1 3.453400 1_555
Ba6 S2 3.453400 1_555
Ba6 S28 3.488524 1_555
Ba6 S27 3.488524 1_455
Ba6 S11 3.572026 1_455
Ba6 S12 3.572026 1_555
Ba7 S13 3.269958 1_555
Ba7 S10 3.269958 1_555
Ba7 S29 3.383383 1_555
Ba7 S26 3.383383 1_555
Ba7 S2 3.453400 1_555
Ba7 S1 3.453400 1_556
Ba7 S24 3.488524 1_555
Ba7 S31 3.488524 1_455
Ba7 S15 3.572026 1_455
Ba7 S8 3.572026 1_555
Ge0 S20 2.235041 1_555
Ge0 S13 2.235041 1_555
Ge0 S8 2.235041 1_555
Ge0 S17 2.235041 1_555
Ge1 S9 2.235041 1_555
Ge1 S16 2.235041 1_555
Ge1 S21 2.235041 1_555
Ge1 S12 2.235041 1_555
Ge2 S15 2.235041 1_445
Ge2 S22 2.235041 1_455
Ge2 S10 2.235041 1_545
Ge2 S19 2.235041 1_555
Ge3 S11 2.235041 1_445
Ge3 S18 2.235041 1_455
Ge3 S23 2.235041 1_555
Ge3 S14 2.235041 1_545
S0 Sb8 2.494319 1_555
S0 Sb0 2.509688 1_555
S1 Sb9 2.494319 1_555
S1 Sb1 2.509688 1_555
S2 Sb10 2.494319 1_555
S2 Sb2 2.509688 1_555
S3 Sb11 2.494319 1_555
S3 Sb3 2.509688 1_555
S4 Sb12 2.494319 1_555
S4 Sb4 2.509688 1_555
S5 Sb13 2.494319 1_555
S5 Sb5 2.509688 1_555
S6 Sb14 2.494319 1_555
S6 Sb6 2.509688 1_555
S7 Sb15 2.494319 1_555
S7 Sb7 2.509688 1_555
S8 Sb15 2.895591 1_556
S9 Sb10 2.895591 1_555
S10 Sb9 2.895591 1_556
S11 Sb12 2.895591 1_555
S12 Sb15 2.895591 1_555
S13 Sb10 2.895591 1_555
S14 Sb9 2.895591 1_555
S15 Sb12 2.895591 1_555
S16 Sb11 2.895591 1_555
S17 Sb14 2.895591 1_555
S18 Sb13 2.895591 1_555
S19 Sb8 2.895591 1_555
S20 Sb11 2.895591 1_556
S21 Sb14 2.895591 1_555
S22 Sb13 2.895591 1_556
S23 Sb8 2.895591 1_555
S24 Sb0 2.466479 1_555
S24 Sb10 2.701783 1_555
S25 Sb1 2.466479 1_555
S25 Sb11 2.701783 1_555
S26 Sb2 2.466479 1_555
S26 Sb8 2.701783 1_565
S27 Sb3 2.466479 1_555
S27 Sb9 2.701783 1_655
S28 Sb0 2.466479 1_555
S28 Sb10 2.701783 1_555
S29 Sb1 2.466479 1_556
S29 Sb11 2.701783 1_556
S30 Sb2 2.466479 1_555
S30 Sb8 2.701783 1_565
S31 Sb3 2.466479 1_556
S31 Sb9 2.701783 1_656
S32 Sb4 2.466479 1_555
S32 Sb14 2.701783 1_555
S33 Sb5 2.466479 1_556
S33 Sb15 2.701783 1_556
S34 Sb6 2.466479 1_555
S34 Sb12 2.701783 1_545
S35 Sb7 2.466479 1_556
S35 Sb13 2.701783 1_456
S36 Sb4 2.466479 1_555
S36 Sb14 2.701783 1_555
S37 Sb5 2.466479 1_555
S37 Sb15 2.701783 1_555
S38 Sb6 2.466479 1_555
S38 Sb12 2.701783 1_545
S39 Sb7 2.466479 1_555
S39 Sb13 2.701783 1_455
