# generated using pymatgen
data_Ba2ZnAs2
_symmetry_space_group_name_H-M   'P 1'
_cell_length_a   8.29456281
_cell_length_b   8.29456281
_cell_length_c   8.29456281
_cell_angle_alpha   133.10755886
_cell_angle_beta   130.51143489
_cell_angle_gamma   70.55086478
_symmetry_Int_Tables_number   1
_chemical_formula_structural   Ba2ZnAs2
_chemical_formula_sum   'Ba4 Zn2 As4'
_cell_volume   310.35861727
_cell_formula_units_Z   2
loop_
 _symmetry_equiv_pos_site_id
 _symmetry_equiv_pos_as_xyz
  1  'x, y, z'
loop_
 _atom_site_type_symbol
 _atom_site_label
 _atom_site_symmetry_multiplicity
 _atom_site_fract_x
 _atom_site_fract_y
 _atom_site_fract_z
 _atom_site_occupancy
  Ba  Ba0  1  0.66526242  0.86105722  0.80420520  1
  Ba  Ba1  1  0.33473758  0.13894278  0.19579480  1
  Ba  Ba2  1  0.94314698  0.63894278  0.30420520  1
  Ba  Ba3  1  0.05685302  0.36105722  0.69579480  1
  Zn  Zn0  1  0.50000000  0.25000000  0.75000000  1
  Zn  Zn1  1  0.50000000  0.75000000  0.25000000  1
  As  As0  1  0.40700252  0.60698428  0.80001624  1
  As  As1  1  0.59299748  0.39301572  0.19998376  1
  As  As2  1  0.19303196  0.89301572  0.30001624  1
  As  As3  1  0.80696804  0.10698428  0.69998376  1
loop_
_geom_bond_atom_site_label_1
_geom_bond_atom_site_label_2
_geom_bond_distance
_geom_bond_site_symmetry_2
Ba0 Zn1 3.275014 1_555
Ba0 Zn0 3.275014 1_565
Ba1 Zn0 3.275014 1_555
Ba1 Zn1 3.275014 1_545
Ba2 Zn1 3.275007 1_555
Ba2 Zn0 3.275010 1_554
Ba3 Zn0 3.275007 1_555
Ba3 Zn1 3.275010 1_556
As0 Zn0 2.598192 1_555
As0 Zn1 2.598201 1_556
As0 Ba1 3.406323 1_555
As0 Ba1 3.406335 1_566
As0 Ba3 3.408341 1_555
As0 Ba0 3.441049 1_555
As0 Ba2 3.469869 1_455
As0 Ba2 3.527575 1_556
As1 Zn1 2.598192 1_555
As1 Zn0 2.598201 1_554
As1 Ba0 3.406323 1_555
As1 Ba0 3.406335 1_544
As1 Ba2 3.408341 1_555
As1 Ba1 3.441049 1_555
As1 Ba3 3.469869 1_655
As1 Ba3 3.527575 1_554
As2 Zn0 2.598193 1_565
As2 Zn1 2.598193 1_555
As2 Ba3 3.406325 1_565
As2 Ba3 3.406331 1_554
As2 Ba1 3.408334 1_565
As2 Ba2 3.441070 1_455
As2 Ba0 3.469861 1_454
As2 Ba0 3.527588 1_555
As3 Zn0 2.598193 1_555
As3 Zn1 2.598193 1_545
As3 Ba2 3.406325 1_545
As3 Ba2 3.406331 1_556
As3 Ba0 3.408334 1_545
As3 Ba3 3.441070 1_655
As3 Ba1 3.469861 1_656
As3 Ba1 3.527588 1_555
