# generated using pymatgen
data_Ba2MnNbO6
_symmetry_space_group_name_H-M   'P 1'
_cell_length_a   5.91409572
_cell_length_b   5.91407447
_cell_length_c   8.03613900
_cell_angle_alpha   90.00029642
_cell_angle_beta   90.00054833
_cell_angle_gamma   85.60837969
_symmetry_Int_Tables_number   1
_chemical_formula_structural   Ba2MnNbO6
_chemical_formula_sum   'Ba4 Mn2 Nb2 O12'
_cell_volume   280.24998458
_cell_formula_units_Z   2
loop_
 _symmetry_equiv_pos_site_id
 _symmetry_equiv_pos_as_xyz
  1  'x, y, z'
loop_
 _atom_site_type_symbol
 _atom_site_label
 _atom_site_symmetry_multiplicity
 _atom_site_fract_x
 _atom_site_fract_y
 _atom_site_fract_z
 _atom_site_occupancy
  Ba  Ba0  1  0.00009600  0.00008100  0.99995900  1
  Ba  Ba1  1  0.49995800  0.50010600  0.49995900  1
  Ba  Ba2  1  0.00009500  0.00008000  0.49995900  1
  Ba  Ba3  1  0.49995400  0.50010000  0.99996000  1
  Mn  Mn0  1  0.00017300  0.50021100  0.24992200  1
  Mn  Mn1  1  0.50002600  0.99998700  0.75013500  1
  Nb  Nb0  1  0.49984000  0.00000200  0.25018600  1
  Nb  Nb1  1  0.00015700  0.49997300  0.74984700  1
  O  O0  1  0.26945900  0.76922800  0.24994000  1
  O  O1  1  0.76921900  0.26927800  0.75008600  1
  O  O2  1  0.73079500  0.23057700  0.24994300  1
  O  O3  1  0.23055600  0.73059200  0.75009800  1
  O  O4  1  0.49999000  0.00002300  0.50417900  1
  O  O5  1  0.99988900  0.49994000  0.00405900  1
  O  O6  1  0.49998500  0.00003400  0.99596600  1
  O  O7  1  0.99989400  0.49995600  0.49583800  1
  O  O8  1  0.75416400  0.74572500  0.24995400  1
  O  O9  1  0.25425300  0.24572300  0.75002200  1
  O  O10  1  0.24570200  0.25417700  0.24995900  1
  O  O11  1  0.74579500  0.75420600  0.75003000  1
loop_
_geom_bond_atom_site_label_1
_geom_bond_atom_site_label_2
_geom_bond_distance
_geom_bond_site_symmetry_2
Ba0 O3 2.845501 1_545
Ba0 O2 2.845713 1_456
Ba0 O1 2.845735 1_455
Ba0 O0 2.846797 1_546
Ba0 O9 2.956095 1_555
Ba0 O10 2.956099 1_556
Ba0 O5 2.956293 1_456
Ba0 O6 2.956545 1_555
Ba0 O11 2.957217 1_445
Ba0 O6 2.957899 1_455
Ba0 O8 2.957963 1_446
Ba0 O5 2.958149 1_446
Ba1 O0 2.845356 1_555
Ba1 O3 2.846879 1_555
Ba1 O1 2.847246 1_555
Ba1 O2 2.847476 1_555
Ba1 O8 2.956552 1_555
Ba1 O4 2.956755 1_565
Ba1 O7 2.956787 1_555
Ba1 O11 2.957224 1_555
Ba1 O10 2.957629 1_555
Ba1 O7 2.957680 1_455
Ba1 O4 2.957708 1_555
Ba1 O9 2.957710 1_555
Ba2 O2 2.845882 1_455
Ba2 O0 2.847025 1_545
Ba2 O3 2.847070 1_545
Ba2 O1 2.847183 1_455
Ba2 O10 2.956135 1_555
Ba2 O7 2.956399 1_455
Ba2 O4 2.956595 1_555
Ba2 O9 2.956759 1_555
Ba2 O4 2.957889 1_455
Ba2 O8 2.957982 1_445
Ba2 O11 2.958016 1_445
Ba2 O7 2.958047 1_445
Ba3 O0 2.845149 1_556
Ba3 O3 2.845299 1_555
Ba3 O1 2.845819 1_555
Ba3 O2 2.847274 1_556
Ba3 O8 2.956494 1_556
Ba3 O11 2.956516 1_555
Ba3 O5 2.956774 1_556
Ba3 O6 2.956835 1_565
Ba3 O9 2.956966 1_555
Ba3 O6 2.957588 1_555
Ba3 O10 2.957621 1_556
Ba3 O5 2.957689 1_456
Mn0 O8 1.975231 1_455
Mn0 O10 1.975392 1_555
Mn0 O5 1.975791 1_455
Mn0 O7 1.976217 1_455
Mn0 O0 2.335722 1_555
Mn0 O2 2.338799 1_455
Mn1 O9 1.975174 1_565
Mn1 O11 1.975339 1_555
Mn1 O6 1.975532 1_565
Mn1 O4 1.976537 1_565
Mn1 O1 2.336507 1_565
Mn1 O3 2.338161 1_555
Nb0 O0 2.000975 1_545
Nb0 O2 2.002602 1_555
Nb0 O4 2.041123 1_555
Nb0 O10 2.042703 1_555
Nb0 O6 2.042947 1_554
Nb0 O8 2.043860 1_545
Nb1 O3 2.000380 1_555
Nb1 O1 2.003048 1_455
Nb1 O7 2.041252 1_455
Nb1 O9 2.042835 1_555
Nb1 O5 2.042884 1_456
Nb1 O11 2.043836 1_455
