# generated using pymatgen
data_Eu2Ge3Au
_symmetry_space_group_name_H-M   'P 1'
_cell_length_a   8.66356855
_cell_length_b   8.58326763
_cell_length_c   6.18783777
_cell_angle_alpha   69.67032230
_cell_angle_beta   68.28407774
_cell_angle_gamma   42.04747685
_symmetry_Int_Tables_number   1
_chemical_formula_structural   Eu2Ge3Au
_chemical_formula_sum   'Eu4 Ge6 Au2'
_cell_volume   284.34575840
_cell_formula_units_Z   2
loop_
 _symmetry_equiv_pos_site_id
 _symmetry_equiv_pos_as_xyz
  1  'x, y, z'
loop_
 _atom_site_type_symbol
 _atom_site_label
 _atom_site_symmetry_multiplicity
 _atom_site_fract_x
 _atom_site_fract_y
 _atom_site_fract_z
 _atom_site_occupancy
  Eu  Eu0  1  0.24702114  0.75297886  0.24702114  1
  Eu  Eu1  1  0.75297886  0.24702114  0.75297886  1
  Eu  Eu2  1  0.24999713  0.25000287  0.24999713  1
  Eu  Eu3  1  0.75000287  0.74999713  0.75000287  1
  Ge  Ge0  1  0.16467486  0.16467474  0.83532514  1
  Ge  Ge1  1  0.83532514  0.83532526  0.16467486  1
  Ge  Ge2  1  0.83387333  0.33069334  0.16612667  1
  Ge  Ge3  1  0.66928825  0.16613378  0.33071175  1
  Ge  Ge4  1  0.33071175  0.83386622  0.66928825  1
  Ge  Ge5  1  0.16612667  0.66930666  0.83387333  1
  Au  Au0  1  0.66656756  0.66660153  0.33343244  1
  Au  Au1  1  0.33343244  0.33339847  0.66656756  1
loop_
_geom_bond_atom_site_label_1
_geom_bond_atom_site_label_2
_geom_bond_distance
_geom_bond_site_symmetry_2
Eu0 Ge0 3.291125 1_564
Eu0 Ge1 3.291125 1_455
Eu0 Ge5 3.300264 1_554
Eu0 Ge2 3.300264 1_465
Eu0 Ge4 3.300406 1_554
Eu0 Ge3 3.300406 1_465
Eu0 Ge4 3.353385 1_555
Eu0 Ge3 3.353385 1_555
Eu0 Ge5 3.353465 1_555
Eu0 Ge2 3.353465 1_555
Eu1 Ge1 3.291125 1_546
Eu1 Ge0 3.291125 1_655
Eu1 Ge2 3.300264 1_556
Eu1 Ge5 3.300264 1_645
Eu1 Ge3 3.300406 1_556
Eu1 Ge4 3.300406 1_645
Eu1 Ge3 3.353385 1_555
Eu1 Ge4 3.353385 1_555
Eu1 Ge2 3.353465 1_555
Eu1 Ge5 3.353465 1_555
Eu2 Ge4 3.342483 1_545
Eu2 Ge3 3.342483 1_555
Eu2 Ge2 3.342511 1_455
Eu2 Ge5 3.342511 1_554
Eu2 Ge0 3.343682 1_554
Eu2 Ge1 3.343682 1_455
Eu2 Ge0 3.343757 1_555
Eu2 Ge1 3.343757 1_545
Eu3 Ge3 3.342483 1_565
Eu3 Ge4 3.342483 1_555
Eu3 Ge5 3.342511 1_655
Eu3 Ge2 3.342511 1_556
Eu3 Ge1 3.343682 1_556
Eu3 Ge0 3.343682 1_655
Eu3 Ge1 3.343757 1_555
Eu3 Ge0 3.343757 1_565
Ge0 Ge4 2.460554 1_545
Ge0 Ge2 2.460556 1_456
Ge1 Ge3 2.460554 1_565
Ge1 Ge5 2.460556 1_654
Ge2 Ge3 2.445903 1_555
Ge4 Ge5 2.445903 1_555
Au0 Ge4 2.498140 1_555
Au0 Ge2 2.498474 1_555
Au0 Ge1 2.507854 1_555
Au0 Eu3 3.332961 1_555
Au0 Eu2 3.332961 1_565
Au0 Eu3 3.333156 1_554
Au0 Eu2 3.333156 1_655
Au0 Eu0 3.347775 1_555
Au0 Eu1 3.347775 1_555
Au1 Ge3 2.498140 1_555
Au1 Ge5 2.498474 1_555
Au1 Ge0 2.507854 1_555
Au1 Eu2 3.332961 1_555
Au1 Eu3 3.332961 1_545
Au1 Eu2 3.333156 1_556
Au1 Eu3 3.333156 1_455
Au1 Eu1 3.347775 1_555
Au1 Eu0 3.347775 1_555
