# generated using pymatgen
data_Nd5S9
_symmetry_space_group_name_H-M   'P 1'
_cell_length_a   12.13416053
_cell_length_b   12.13416053
_cell_length_c   9.92942022
_cell_angle_alpha   81.91821085
_cell_angle_beta   81.91821085
_cell_angle_gamma   26.32585770
_symmetry_Int_Tables_number   1
_chemical_formula_structural   Nd5S9
_chemical_formula_sum   'Nd10 S18'
_cell_volume   641.56227687
_cell_formula_units_Z   2
loop_
 _symmetry_equiv_pos_site_id
 _symmetry_equiv_pos_as_xyz
  1  'x, y, z'
loop_
 _atom_site_type_symbol
 _atom_site_label
 _atom_site_symmetry_multiplicity
 _atom_site_fract_x
 _atom_site_fract_y
 _atom_site_fract_z
 _atom_site_occupancy
  Nd  Nd0  1  0.55529600  0.45948900  0.26476700  1
  Nd  Nd1  1  0.35009100  0.25121200  0.65195300  1
  Nd  Nd2  1  0.15581800  0.05395800  0.07164900  1
  Nd  Nd3  1  0.94379500  0.86697300  0.45866900  1
  Nd  Nd4  1  0.76777500  0.63936600  0.86792100  1
  Nd  Nd5  1  0.13302700  0.05620500  0.54133100  1
  Nd  Nd6  1  0.94604200  0.84418200  0.92835100  1
  Nd  Nd7  1  0.74878800  0.64990900  0.34804700  1
  Nd  Nd8  1  0.54051100  0.44470400  0.73523300  1
  Nd  Nd9  1  0.36063400  0.23222500  0.13207900  1
  S  S0  1  0.02530700  0.92736400  0.67890400  1
  S  S1  1  0.42370500  0.32647100  0.87467000  1
  S  S2  1  0.61852100  0.53408800  0.48688100  1
  S  S3  1  0.84250300  0.71661400  0.07779700  1
  S  S4  1  0.22586900  0.12936200  0.28597200  1
  S  S5  1  0.46591200  0.38147900  0.51311900  1
  S  S6  1  0.87063800  0.77413100  0.71402800  1
  S  S7  1  0.07263600  0.97469300  0.32109600  1
  S  S8  1  0.28338600  0.15749700  0.92220300  1
  S  S9  1  0.67352900  0.57629500  0.12533000  1
  S  S10  1  0.29987100  0.70012900  0.00000000  1
  S  S11  1  0.71130000  0.11418100  0.17346200  1
  S  S12  1  0.88581900  0.28870000  0.82653800  1
  S  S13  1  0.11353100  0.50914900  0.37582100  1
  S  S14  1  0.49085100  0.88646900  0.62417900  1
  S  S15  1  0.99280700  0.39659500  0.61183000  1
  S  S16  1  0.79863200  0.20136800  0.00000000  1
  S  S17  1  0.60340500  0.00719300  0.38817000  1
loop_
_geom_bond_atom_site_label_1
_geom_bond_atom_site_label_2
_geom_bond_distance
_geom_bond_site_symmetry_2
Nd0 S7 2.850525 1_555
Nd0 S7 2.861945 1_645
Nd0 S11 2.886023 1_555
Nd0 S9 2.918696 1_555
Nd0 S2 2.924712 1_555
Nd0 S5 2.930103 1_555
Nd0 S10 2.992253 1_555
Nd0 S16 2.999107 1_555
Nd1 S6 2.886897 1_545
Nd1 S6 2.899417 1_455
Nd1 S15 2.940141 1_455
Nd1 S17 2.945808 1_555
Nd1 S1 3.017917 1_555
Nd1 S5 3.032948 1_555
Nd1 S14 3.039985 1_545
Nd1 S13 3.041134 1_555
Nd1 S8 3.054548 1_555
Nd2 S9 2.854058 1_545
Nd2 S9 2.878703 1_455
Nd2 S12 2.887026 1_454
Nd2 S7 2.906231 1_545
Nd2 S8 2.914205 1_554
Nd2 S4 2.922111 1_555
Nd2 S10 3.008546 1_545
Nd2 S16 3.017075 1_455
Nd3 S5 2.840178 1_565
Nd3 S13 2.875484 1_655
Nd3 S5 2.880809 1_655
Nd3 S17 2.885365 1_565
Nd3 S7 2.929030 1_655
Nd3 S0 2.941999 1_655
Nd3 S6 2.973696 1_555
Nd3 S11 3.108849 1_565
Nd4 S8 2.847517 1_655
Nd4 S8 2.860999 1_565
Nd4 S14 2.885224 1_555
Nd4 S15 2.886995 1_555
Nd4 S9 2.936542 1_556
Nd4 S3 2.940713 1_556
Nd4 S6 2.997807 1_555
Nd4 S12 3.118761 1_555
Nd5 S2 2.840178 1_455
Nd5 S14 2.875484 1_545
Nd5 S2 2.880809 1_545
Nd5 S15 2.885365 1_455
Nd5 S0 2.929030 1_545
Nd5 S7 2.941999 1_545
Nd5 S4 2.973696 1_555
Nd5 S12 3.108849 1_455
Nd6 S1 2.854058 1_655
Nd6 S1 2.878703 1_565
Nd6 S11 2.887026 1_566
Nd6 S0 2.906231 1_655
Nd6 S3 2.914205 1_556
Nd6 S6 2.922111 1_555
Nd6 S10 3.008546 1_656
Nd6 S16 3.017075 1_566
Nd7 S4 2.886897 1_655
Nd7 S4 2.899417 1_565
Nd7 S17 2.940141 1_565
Nd7 S15 2.945808 1_555
Nd7 S9 3.017917 1_555
Nd7 S2 3.032948 1_555
Nd7 S13 3.039985 1_655
Nd7 S14 3.041134 1_555
Nd7 S3 3.054548 1_555
Nd8 S0 2.850525 1_555
Nd8 S0 2.861945 1_645
Nd8 S12 2.886023 1_555
Nd8 S1 2.918696 1_555
Nd8 S5 2.924712 1_555
Nd8 S2 2.930103 1_555
Nd8 S10 2.992253 1_556
Nd8 S16 2.999107 1_556
Nd9 S3 2.847517 1_545
Nd9 S3 2.860999 1_455
Nd9 S13 2.885224 1_555
Nd9 S17 2.886995 1_555
Nd9 S1 2.936542 1_554
Nd9 S8 2.940713 1_554
Nd9 S4 2.997807 1_555
Nd9 S11 3.118761 1_555
S10 S16 2.756355 1_555
S10 S16 2.770049 1_465
S11 S16 2.488553 1_555
S12 S16 2.488553 1_556
