# generated using pymatgen
data_Sr2Fe23O38
_symmetry_space_group_name_H-M   'P 1'
_cell_length_a   5.99366171
_cell_length_b   5.99402644
_cell_length_c   23.38703419
_cell_angle_alpha   89.93106952
_cell_angle_beta   90.07499318
_cell_angle_gamma   120.04118270
_symmetry_Int_Tables_number   1
_chemical_formula_structural   Sr2Fe23O38
_chemical_formula_sum   'Sr2 Fe23 O38'
_cell_volume   727.33724904
_cell_formula_units_Z   1
loop_
 _symmetry_equiv_pos_site_id
 _symmetry_equiv_pos_as_xyz
  1  'x, y, z'
loop_
 _atom_site_type_symbol
 _atom_site_label
 _atom_site_symmetry_multiplicity
 _atom_site_fract_x
 _atom_site_fract_y
 _atom_site_fract_z
 _atom_site_occupancy
  Sr  Sr0  1  0.33326400  0.66669400  0.74947900  1
  Sr  Sr1  1  0.66552200  0.33409500  0.25033200  1
  Fe  Fe0  1  0.16820300  0.83179600  0.60944700  1
  Fe  Fe1  1  0.16840100  0.83162800  0.89060900  1
  Fe  Fe2  1  0.33319600  0.66675300  0.19171500  1
  Fe  Fe3  1  0.33329500  0.66673300  0.02724400  1
  Fe  Fe4  1  0.16816700  0.33650000  0.60943000  1
  Fe  Fe5  1  0.33092800  0.66839800  0.30498000  1
  Fe  Fe6  1  0.00006300  0.99998300  0.00016300  1
  Fe  Fe7  1  0.00012900  0.99992100  0.49970300  1
  Fe  Fe8  1  0.99997300  0.00003600  0.75125600  1
  Fe  Fe9  1  0.33323000  0.66671900  0.47254100  1
  Fe  Fe10  1  0.16843500  0.33682000  0.89059300  1
  Fe  Fe11  1  0.66318700  0.83158300  0.89058800  1
  Fe  Fe12  1  0.66349600  0.83183100  0.60942700  1
  Fe  Fe13  1  0.33471100  0.16718700  0.10982500  1
  Fe  Fe14  1  0.33406200  0.16745300  0.38971500  1
  Fe  Fe15  1  0.66672500  0.33330100  0.69097800  1
  Fe  Fe16  1  0.66690500  0.33320400  0.97305500  1
  Fe  Fe17  1  0.66669100  0.33331500  0.52652000  1
  Fe  Fe18  1  0.66658700  0.33339700  0.80901900  1
  Fe  Fe19  1  0.83246200  0.66594600  0.38975600  1
  Fe  Fe20  1  0.83298200  0.66549100  0.10983700  1
  Fe  Fe21  1  0.83318800  0.16694700  0.10986500  1
  Fe  Fe22  1  0.83299100  0.16684300  0.38998500  1
  O  O0  1  0.15641900  0.84366600  0.05283000  1
  O  O1  1  0.15608900  0.84393900  0.44714400  1
  O  O2  1  0.01185400  0.50602400  0.84860000  1
  O  O3  1  0.01212900  0.50591700  0.65160300  1
  O  O4  1  0.19459000  0.80529800  0.25326100  1
  O  O5  1  0.33340900  0.66664400  0.94424900  1
  O  O6  1  0.33320300  0.66673100  0.55576600  1
  O  O7  1  0.15630800  0.31247300  0.05284100  1
  O  O8  1  0.00023900  0.99993000  0.14792600  1
  O  O9  1  0.99957800  0.00028500  0.35239300  1
  O  O10  1  0.00010300  0.99993300  0.65197000  1
  O  O11  1  0.15627900  0.31227300  0.44719900  1
  O  O12  1  0.99995600  0.00005000  0.84775500  1
  O  O13  1  0.19728700  0.39352100  0.25170400  1
  O  O14  1  0.49412400  0.98789300  0.65160100  1
  O  O15  1  0.49396900  0.98813700  0.84859100  1
  O  O16  1  0.60589300  0.80240100  0.25151700  1
  O  O17  1  0.31197200  0.15604400  0.55278700  1
  O  O18  1  0.31128700  0.15560700  0.94715400  1
  O  O19  1  0.49401300  0.50603800  0.65159900  1
  O  O20  1  0.49401900  0.50596500  0.84856000  1
  O  O21  1  0.50144200  0.49861300  0.34746300  1
  O  O22  1  0.50660700  0.49357400  0.15242500  1
  O  O23  1  0.68760400  0.84377400  0.05284600  1
  O  O24  1  0.68769300  0.84372700  0.44720800  1
  O  O25  1  0.36536600  0.18259600  0.75010400  1
  O  O26  1  0.50438600  0.00773100  0.15259000  1
  O  O27  1  0.50208400  0.00332600  0.34757500  1
  O  O28  1  0.66676900  0.33324000  0.44267200  1
  O  O29  1  0.66734100  0.33294500  0.05632900  1
  O  O30  1  0.81743300  0.63465900  0.75011100  1
  O  O31  1  0.84444100  0.68877100  0.94714700  1
  O  O32  1  0.84395400  0.68805400  0.55277700  1
  O  O33  1  0.81739500  0.18269000  0.75015000  1
  O  O34  1  0.99295800  0.49605500  0.15258500  1
  O  O35  1  0.99647400  0.49784400  0.34759500  1
  O  O36  1  0.84445500  0.15558300  0.94711200  1
  O  O37  1  0.84409500  0.15587700  0.55272900  1
loop_
_geom_bond_atom_site_label_1
_geom_bond_atom_site_label_2
_geom_bond_distance
_geom_bond_site_symmetry_2
Fe0 O14 1.957169 1_555
Fe0 O3 1.957250 1_555
Fe0 O10 2.010357 1_555
Fe0 O6 2.125796 1_555
Fe0 O32 2.143665 1_455
Fe0 O17 2.143777 1_565
Fe1 O2 1.955341 1_555
Fe1 O15 1.955350 1_555
Fe1 O12 2.014524 1_465
Fe1 O5 2.121988 1_555
Fe1 O31 2.142681 1_455
Fe1 O18 2.142757 1_565
Fe2 O34 1.987769 1_455
Fe2 O16 1.988656 1_555
Fe2 O26 1.991371 1_565
Fe2 O13 1.993947 1_555
Fe2 O22 2.021679 1_555
Fe2 O4 2.036753 1_555
Fe3 O0 1.932769 1_555
Fe3 O7 1.932855 1_555
Fe3 O23 1.932922 1_555
Fe3 O5 1.941009 1_554
Fe4 O19 1.956980 1_555
Fe4 O3 1.958166 1_555
Fe4 O10 2.009344 1_545
Fe4 O6 2.123328 1_555
Fe4 O37 2.143502 1_455
Fe4 O17 2.146543 1_555
Fe5 O4 1.862939 1_555
Fe5 O13 1.894632 1_555
Fe5 O16 1.897936 1_555
Fe5 O35 2.001935 1_455
Fe5 O27 2.003787 1_565
Fe5 O21 2.025742 1_555
Fe6 O36 2.035735 1_464
Fe6 O0 2.036336 1_555
Fe6 O31 2.036545 1_454
Fe6 O18 2.036597 1_564
Fe6 O7 2.037015 1_565
Fe6 O23 2.037059 1_455
Fe7 O24 2.032705 1_455
Fe7 O11 2.032743 1_565
Fe7 O1 2.034629 1_555
Fe7 O17 2.038605 1_565
Fe7 O32 2.038821 1_455
Fe7 O37 2.041456 1_465
Fe8 O25 1.896059 1_655
Fe8 O30 1.896084 1_545
Fe8 O33 1.896386 1_555
Fe8 O12 2.256826 1_555
Fe8 O10 2.322007 1_645
Fe9 O1 1.932487 1_555
Fe9 O11 1.932656 1_555
Fe9 O24 1.932671 1_555
Fe9 O6 1.946386 1_555
Fe10 O2 1.955022 1_555
Fe10 O20 1.955517 1_555
Fe10 O12 2.014814 1_455
Fe10 O5 2.122797 1_555
Fe10 O18 2.141830 1_555
Fe10 O36 2.142234 1_455
Fe11 O15 1.955004 1_555
Fe11 O20 1.955540 1_555
Fe11 O12 2.014819 1_565
Fe11 O5 2.122775 1_555
Fe11 O31 2.141791 1_555
Fe11 O36 2.142270 1_565
Fe12 O19 1.957019 1_555
Fe12 O14 1.958079 1_555
Fe12 O10 2.009308 1_655
Fe12 O6 2.123277 1_555
Fe12 O37 2.143621 1_565
Fe12 O32 2.146545 1_555
Fe13 O8 1.951457 1_545
Fe13 O22 1.966047 1_555
Fe13 O26 1.978966 1_555
Fe13 O29 2.132466 1_555
Fe13 O7 2.145607 1_555
Fe13 O0 2.146348 1_545
Fe14 O9 1.941974 1_455
Fe14 O21 1.981682 1_555
Fe14 O27 1.987505 1_555
Fe14 O28 2.123762 1_555
Fe14 O1 2.151390 1_545
Fe14 O11 2.151512 1_555
Fe15 O19 2.014980 1_555
Fe15 O14 2.015534 1_545
Fe15 O3 2.015546 1_655
Fe15 O33 2.087000 1_555
Fe15 O30 2.088161 1_555
Fe15 O25 2.088175 1_555
Fe16 O18 1.941546 1_555
Fe16 O31 1.941558 1_555
Fe16 O36 1.942098 1_555
Fe16 O29 1.947530 1_556
Fe17 O37 1.940751 1_555
Fe17 O17 1.940754 1_555
Fe17 O32 1.940778 1_555
Fe17 O28 1.960957 1_555
Fe18 O2 2.015779 1_655
Fe18 O15 2.015898 1_545
Fe18 O20 2.017649 1_555
Fe18 O25 2.082682 1_555
Fe18 O30 2.082995 1_555
Fe18 O33 2.086225 1_555
Fe19 O9 1.941969 1_565
Fe19 O21 1.981284 1_555
Fe19 O35 1.987595 1_555
Fe19 O28 2.123470 1_555
Fe19 O24 2.150833 1_555
Fe19 O1 2.150966 1_655
Fe20 O8 1.951125 1_655
Fe20 O22 1.965930 1_555
Fe20 O34 1.979998 1_555
Fe20 O29 2.132179 1_555
Fe20 O23 2.145589 1_555
Fe20 O0 2.146285 1_655
Fe21 O8 1.948376 1_645
Fe21 O26 1.978062 1_555
Fe21 O34 1.979269 1_555
Fe21 O29 2.128326 1_555
Fe21 O7 2.145380 1_655
Fe21 O23 2.145414 1_545
Fe22 O9 1.941403 1_555
Fe22 O27 1.982145 1_555
Fe22 O35 1.982585 1_555
Fe22 O28 2.122907 1_555
Fe22 O24 2.146743 1_545
Fe22 O11 2.147026 1_655
O2 Sr0 2.856771 1_555
O3 Sr0 2.830140 1_555
O4 Sr1 3.010077 1_565
O4 Sr1 3.011635 1_455
O13 Sr1 3.000865 1_555
O13 Sr1 3.024786 1_455
O14 Sr0 2.830680 1_555
O15 Sr0 2.856511 1_555
O16 Sr1 3.002108 1_555
O16 Sr1 3.024032 1_565
O19 Sr0 2.834736 1_555
O20 Sr0 2.853802 1_555
O21 Sr1 2.842891 1_555
O22 Sr1 2.822169 1_555
O25 Sr0 3.000685 1_545
O25 Sr0 3.002661 1_555
O26 Sr1 2.845740 1_555
O27 Sr1 2.848323 1_555
O30 Sr0 3.000251 1_655
O30 Sr0 3.002695 1_555
O33 Sr0 2.999275 1_655
O33 Sr0 3.000054 1_545
O34 Sr1 2.849328 1_555
O35 Sr1 2.848950 1_555
