# generated using pymatgen
data_Zn(CrS2)4
_symmetry_space_group_name_H-M   'P 1'
_cell_length_a   6.95061364
_cell_length_b   6.93261464
_cell_length_c   6.93261554
_cell_angle_alpha   60.00000272
_cell_angle_beta   60.08561751
_cell_angle_gamma   60.08561009
_symmetry_Int_Tables_number   1
_chemical_formula_structural   Zn(CrS2)4
_chemical_formula_sum   'Zn1 Cr4 S8'
_cell_volume   236.51741548
_cell_formula_units_Z   1
loop_
 _symmetry_equiv_pos_site_id
 _symmetry_equiv_pos_as_xyz
  1  'x, y, z'
loop_
 _atom_site_type_symbol
 _atom_site_label
 _atom_site_symmetry_multiplicity
 _atom_site_fract_x
 _atom_site_fract_y
 _atom_site_fract_z
 _atom_site_occupancy
  Zn  Zn0  1  0.50000000  0.00000000  0.00000000  1
  Cr  Cr0  1  0.00000000  0.50000000  0.50000000  1
  Cr  Cr1  1  0.50000000  0.50000000  0.00000000  1
  Cr  Cr2  1  0.50000000  0.50000000  0.50000000  1
  Cr  Cr3  1  0.50000000  0.00000000  0.50000000  1
  S  S0  1  0.25947000  0.25497700  0.25497700  1
  S  S1  1  0.25947000  0.25497700  0.73057500  1
  S  S2  1  0.25947000  0.73057500  0.25497700  1
  S  S3  1  0.72788200  0.25737200  0.25737200  1
  S  S4  1  0.27211800  0.74262800  0.74262800  1
  S  S5  1  0.74053000  0.74502300  0.26942500  1
  S  S6  1  0.74053000  0.26942500  0.74502300  1
  S  S7  1  0.74053000  0.74502300  0.74502300  1
loop_
_geom_bond_atom_site_label_1
_geom_bond_atom_site_label_2
_geom_bond_distance
_geom_bond_site_symmetry_2
Cr0 S1 2.407832 1_555
Cr0 S5 2.407832 1_455
Cr0 S6 2.407832 1_455
Cr0 S2 2.407832 1_555
Cr0 S0 2.407837 1_555
Cr0 S7 2.407837 1_455
Cr1 S3 2.383682 1_555
Cr1 S4 2.383682 1_554
Cr1 S6 2.384810 1_554
Cr1 S2 2.384810 1_555
Cr1 S0 2.384815 1_555
Cr1 S7 2.384815 1_554
Cr2 S4 2.383692 1_555
Cr2 S3 2.383692 1_555
Cr2 S6 2.384815 1_555
Cr2 S2 2.384815 1_555
Cr2 S1 2.384815 1_555
Cr2 S5 2.384815 1_555
Cr3 S4 2.383682 1_545
Cr3 S3 2.383682 1_555
Cr3 S5 2.384810 1_545
Cr3 S1 2.384810 1_555
Cr3 S7 2.384815 1_545
Cr3 S0 2.384815 1_555
S0 Zn0 2.504738 1_555
S1 Zn0 2.504743 1_556
S2 Zn0 2.504743 1_565
S5 Zn0 2.504743 1_565
S6 Zn0 2.504743 1_556
S7 Zn0 2.504738 1_566
