# generated using pymatgen
data_Nb8N5
_symmetry_space_group_name_H-M   'P 1'
_cell_length_a   4.38348500
_cell_length_b   4.38348500
_cell_length_c   8.79862900
_cell_angle_alpha   90.00000000
_cell_angle_beta   90.00000000
_cell_angle_gamma   90.00000000
_symmetry_Int_Tables_number   1
_chemical_formula_structural   Nb8N5
_chemical_formula_sum   'Nb8 N5'
_cell_volume   169.06513487
_cell_formula_units_Z   1
loop_
 _symmetry_equiv_pos_site_id
 _symmetry_equiv_pos_as_xyz
  1  'x, y, z'
loop_
 _atom_site_type_symbol
 _atom_site_label
 _atom_site_symmetry_multiplicity
 _atom_site_fract_x
 _atom_site_fract_y
 _atom_site_fract_z
 _atom_site_occupancy
  Nb  Nb0  1  0.50000000  0.50000000  0.25230800  1
  Nb  Nb1  1  0.00000000  0.00000000  0.74844200  1
  Nb  Nb2  1  0.00000000  0.00000000  0.25155800  1
  Nb  Nb3  1  0.50000000  0.50000000  0.74769200  1
  Nb  Nb4  1  0.00000000  0.50000000  0.50000000  1
  Nb  Nb5  1  0.50000000  0.00000000  0.00000000  1
  Nb  Nb6  1  0.00000000  0.50000000  0.00000000  1
  Nb  Nb7  1  0.50000000  0.00000000  0.50000000  1
  N  N0  1  0.00000000  0.50000000  0.24943000  1
  N  N1  1  0.50000000  0.00000000  0.75057000  1
  N  N2  1  0.50000000  0.00000000  0.24943000  1
  N  N3  1  0.00000000  0.50000000  0.75057000  1
  N  N4  1  0.00000000  0.00000000  0.00000000  1
loop_
_geom_bond_atom_site_label_1
_geom_bond_atom_site_label_2
_geom_bond_distance
_geom_bond_site_symmetry_2
N0 Nb2 2.191822 1_565
N0 Nb2 2.191822 1_555
N0 Nb0 2.191889 1_555
N0 Nb0 2.191889 1_455
N0 Nb6 2.194642 1_555
N0 Nb4 2.204672 1_555
N1 Nb1 2.191822 1_655
N1 Nb1 2.191822 1_555
N1 Nb3 2.191889 1_555
N1 Nb3 2.191889 1_545
N1 Nb5 2.194642 1_556
N1 Nb7 2.204672 1_555
N2 Nb2 2.191822 1_655
N2 Nb2 2.191822 1_555
N2 Nb0 2.191889 1_545
N2 Nb0 2.191889 1_555
N2 Nb5 2.194642 1_555
N2 Nb7 2.204672 1_555
N3 Nb1 2.191822 1_565
N3 Nb1 2.191822 1_555
N3 Nb3 2.191889 1_555
N3 Nb3 2.191889 1_455
N3 Nb6 2.194642 1_556
N3 Nb4 2.204672 1_555
N4 Nb5 2.191743 1_555
N4 Nb6 2.191743 1_545
N4 Nb6 2.191743 1_555
N4 Nb5 2.191743 1_455
N4 Nb2 2.213366 1_555
N4 Nb1 2.213366 1_554
