# generated using pymatgen
data_ZrTi3
_symmetry_space_group_name_H-M   'P 1'
_cell_length_a   6.05734567
_cell_length_b   6.05734567
_cell_length_c   4.75397534
_cell_angle_alpha   90.00000000
_cell_angle_beta   90.00000000
_cell_angle_gamma   119.99999703
_symmetry_Int_Tables_number   1
_chemical_formula_structural   ZrTi3
_chemical_formula_sum   'Zr2 Ti6'
_cell_volume   151.06097551
_cell_formula_units_Z   2
loop_
 _symmetry_equiv_pos_site_id
 _symmetry_equiv_pos_as_xyz
  1  'x, y, z'
loop_
 _atom_site_type_symbol
 _atom_site_label
 _atom_site_symmetry_multiplicity
 _atom_site_fract_x
 _atom_site_fract_y
 _atom_site_fract_z
 _atom_site_occupancy
  Zr  Zr0  1  0.33333300  0.66666700  0.75000000  1
  Zr  Zr1  1  0.66666700  0.33333300  0.25000000  1
  Ti  Ti0  1  0.16037327  0.32074554  0.25000000  1
  Ti  Ti1  1  0.67925446  0.83962673  0.25000000  1
  Ti  Ti2  1  0.16037327  0.83962673  0.25000000  1
  Ti  Ti3  1  0.83962673  0.67925446  0.75000000  1
  Ti  Ti4  1  0.32074554  0.16037327  0.75000000  1
  Ti  Ti5  1  0.83962673  0.16037327  0.75000000  1
loop_
_geom_bond_atom_site_label_1
_geom_bond_atom_site_label_2
_geom_bond_distance
_geom_bond_site_symmetry_2
Ti0 Ti4 2.912233 1_554
Ti0 Ti4 2.912233 1_555
Ti0 Ti5 2.912239 1_454
Ti0 Ti5 2.912239 1_455
Ti0 Ti2 2.914303 1_545
Ti0 Ti1 2.914303 1_445
Ti0 Zr0 2.990483 1_555
Ti0 Zr0 2.990483 1_554
Ti0 Zr1 3.029393 1_455
Ti0 Zr1 3.029393 1_555
Ti0 Ti2 3.143043 1_555
Ti0 Ti1 3.143043 1_555
Ti1 Ti3 2.912233 1_555
Ti1 Ti3 2.912233 1_554
Ti1 Ti5 2.912239 1_565
Ti1 Ti5 2.912239 1_564
Ti1 Ti2 2.914303 1_655
Ti1 Zr0 2.990483 1_555
Ti1 Zr0 2.990483 1_554
Ti1 Zr1 3.029393 1_565
Ti1 Zr1 3.029393 1_555
Ti1 Ti2 3.143043 1_555
Ti2 Ti4 2.912239 1_565
Ti2 Ti4 2.912239 1_564
Ti2 Ti3 2.912239 1_455
Ti2 Ti3 2.912239 1_454
Ti2 Zr0 2.990477 1_555
Ti2 Zr0 2.990477 1_554
Ti2 Zr1 3.029393 1_455
Ti2 Zr1 3.029393 1_565
Ti3 Ti5 2.914303 1_565
Ti3 Ti4 2.914303 1_665
Ti3 Zr1 2.990483 1_555
Ti3 Zr1 2.990483 1_556
Ti3 Zr0 3.029393 1_655
Ti3 Zr0 3.029393 1_555
Ti3 Ti5 3.143043 1_555
Ti3 Ti4 3.143043 1_555
Ti4 Ti5 2.914303 1_455
Ti4 Zr1 2.990483 1_555
Ti4 Zr1 2.990483 1_556
Ti4 Zr0 3.029393 1_545
Ti4 Zr0 3.029393 1_555
Ti4 Ti5 3.143043 1_555
Ti5 Zr1 2.990477 1_556
Ti5 Zr1 2.990477 1_555
Ti5 Zr0 3.029393 1_545
Ti5 Zr0 3.029393 1_655
