# generated using pymatgen
data_BaSrDySbO6
_symmetry_space_group_name_H-M   'P 1'
_cell_length_a   8.43697470
_cell_length_b   8.41925144
_cell_length_c   8.42789582
_cell_angle_alpha   90.00000000
_cell_angle_beta   90.00000000
_cell_angle_gamma   90.00000000
_symmetry_Int_Tables_number   1
_chemical_formula_structural   BaSrDySbO6
_chemical_formula_sum   'Ba4 Sr4 Dy4 Sb4 O24'
_cell_volume   598.65881979
_cell_formula_units_Z   4
loop_
 _symmetry_equiv_pos_site_id
 _symmetry_equiv_pos_as_xyz
  1  'x, y, z'
loop_
 _atom_site_type_symbol
 _atom_site_label
 _atom_site_symmetry_multiplicity
 _atom_site_fract_x
 _atom_site_fract_y
 _atom_site_fract_z
 _atom_site_occupancy
  Ba  Ba0  1  0.00000000  0.00000000  0.00000000  1
  Ba  Ba1  1  0.50000000  0.50000000  0.50000000  1
  Ba  Ba2  1  0.50000000  0.00000000  0.50000000  1
  Ba  Ba3  1  0.50000000  0.00000000  0.00000000  1
  Sr  Sr0  1  0.00000000  0.50000000  0.50000000  1
  Sr  Sr1  1  0.50000000  0.50000000  0.00000000  1
  Sr  Sr2  1  0.00000000  0.50000000  0.00000000  1
  Sr  Sr3  1  0.00000000  0.00000000  0.50000000  1
  Dy  Dy0  1  0.75262367  0.74814371  0.74938498  1
  Dy  Dy1  1  0.24737633  0.25185629  0.74938498  1
  Dy  Dy2  1  0.24737633  0.74814371  0.25061502  1
  Dy  Dy3  1  0.75262367  0.25185629  0.25061502  1
  Sb  Sb0  1  0.24624585  0.25264883  0.25100811  1
  Sb  Sb1  1  0.75375415  0.74735117  0.25100811  1
  Sb  Sb2  1  0.75375415  0.25264883  0.74899189  1
  Sb  Sb3  1  0.24624585  0.74735117  0.74899189  1
  O  O0  1  0.01174583  0.22228606  0.27809759  1
  O  O1  1  0.98825417  0.77771394  0.27809759  1
  O  O2  1  0.98825417  0.22228606  0.72190241  1
  O  O3  1  0.01174583  0.77771394  0.72190241  1
  O  O4  1  0.26859610  0.01462039  0.22911570  1
  O  O5  1  0.26859610  0.98537961  0.77088430  1
  O  O6  1  0.73140390  0.98537961  0.22911570  1
  O  O7  1  0.73140390  0.01462039  0.77088430  1
  O  O8  1  0.22024906  0.27951394  0.01394757  1
  O  O9  1  0.77975094  0.27951394  0.98605243  1
  O  O10  1  0.22024906  0.72048606  0.98605243  1
  O  O11  1  0.77975094  0.72048606  0.01394757  1
  O  O12  1  0.48439236  0.28025824  0.22377923  1
  O  O13  1  0.51560764  0.71974176  0.22377923  1
  O  O14  1  0.51560764  0.28025824  0.77622077  1
  O  O15  1  0.48439236  0.71974176  0.77622077  1
  O  O16  1  0.21781321  0.48788118  0.27749155  1
  O  O17  1  0.21781321  0.51211882  0.72250845  1
  O  O18  1  0.78218679  0.51211882  0.27749155  1
  O  O19  1  0.78218679  0.48788118  0.72250845  1
  O  O20  1  0.27065555  0.23185693  0.48730689  1
  O  O21  1  0.72934445  0.23185693  0.51269311  1
  O  O22  1  0.27065555  0.76814307  0.51269311  1
  O  O23  1  0.72934445  0.76814307  0.48730689  1
loop_
_geom_bond_atom_site_label_1
_geom_bond_atom_site_label_2
_geom_bond_distance
_geom_bond_site_symmetry_2
Ba0 O6 2.979791 1_445
Ba0 O4 2.979791 1_555
Ba0 O7 2.979791 1_454
Ba0 O5 2.979791 1_544
Ba0 O10 3.000812 1_544
Ba0 O11 3.000812 1_445
Ba0 O8 3.000812 1_555
Ba0 O9 3.000812 1_454
Ba0 O3 3.000926 1_544
Ba0 O1 3.000926 1_445
Ba0 O0 3.000926 1_555
Ba0 O2 3.000926 1_454
Ba1 O20 2.975258 1_555
Ba1 O21 2.975258 1_555
Ba1 O22 2.975258 1_555
Ba1 O23 2.975258 1_555
Ba1 O14 2.976485 1_555
Ba1 O15 2.976485 1_555
Ba1 O13 2.976485 1_555
Ba1 O12 2.976485 1_555
Ba1 O19 3.032375 1_555
Ba1 O17 3.032375 1_555
Ba1 O18 3.032375 1_555
Ba1 O16 3.032375 1_555
Ba2 O20 2.750656 1_555
Ba2 O22 2.750656 1_545
Ba2 O23 2.750656 1_545
Ba2 O21 2.750656 1_555
Ba2 O7 3.006466 1_555
Ba2 O5 3.006466 1_545
Ba2 O4 3.006466 1_555
Ba2 O6 3.006466 1_545
Ba2 O14 3.317270 1_555
Ba2 O13 3.317270 1_545
Ba2 O12 3.317270 1_555
Ba2 O15 3.317270 1_545
Ba3 O4 2.748716 1_555
Ba3 O6 2.748716 1_545
Ba3 O7 2.748716 1_554
Ba3 O5 2.748716 1_544
Ba3 O15 3.023547 1_544
Ba3 O14 3.023547 1_554
Ba3 O13 3.023547 1_545
Ba3 O12 3.023547 1_555
Ba3 O10 3.335059 1_544
Ba3 O11 3.335059 1_545
Ba3 O8 3.335059 1_555
Ba3 O9 3.335059 1_554
Dy0 O3 2.212494 1_655
Dy0 O19 2.216968 1_555
Dy0 O23 2.223866 1_555
Dy0 O11 2.253485 1_556
Dy0 O7 2.257948 1_565
Dy0 O15 2.286870 1_555
Dy1 O2 2.212494 1_455
Dy1 O17 2.216968 1_555
Dy1 O20 2.223866 1_555
Dy1 O8 2.253485 1_556
Dy1 O5 2.257948 1_545
Dy1 O14 2.286870 1_555
Dy2 O1 2.212494 1_455
Dy2 O16 2.216968 1_555
Dy2 O22 2.223866 1_555
Dy2 O10 2.253485 1_554
Dy2 O4 2.257948 1_565
Dy2 O13 2.286870 1_555
Dy3 O0 2.212494 1_655
Dy3 O18 2.216968 1_555
Dy3 O21 2.223866 1_555
Dy3 O9 2.253485 1_554
Dy3 O6 2.257948 1_545
Dy3 O12 2.286870 1_555
O0 Sb0 2.007939 1_555
O0 Sr3 2.647603 1_555
O0 Sr0 2.995709 1_555
O1 Sb1 2.007939 1_555
O1 Sr3 2.647603 1_665
O1 Sr0 2.995709 1_655
O2 Sb2 2.007939 1_555
O2 Sr3 2.647603 1_655
O2 Sr0 2.995709 1_655
O3 Sb3 2.007939 1_555
O3 Sr3 2.647603 1_565
O3 Sr0 2.995709 1_555
O4 Sb0 2.021312 1_555
O4 Sr3 3.219092 1_555
O5 Sb3 2.021312 1_555
O5 Sr3 3.219092 1_565
O6 Sb1 2.021312 1_555
O6 Sr3 3.219092 1_665
O7 Sb2 2.021312 1_555
O7 Sr3 3.219092 1_655
O8 Sb0 2.022611 1_555
O8 Sr2 2.629222 1_555
O8 Sr1 3.005089 1_555
O9 Sb2 2.022611 1_555
O9 Sr2 2.629222 1_656
O9 Sr1 3.005089 1_556
O10 Sb3 2.022611 1_555
O10 Sr2 2.629222 1_556
O10 Sr1 3.005089 1_556
O11 Sb1 2.022611 1_555
O11 Sr2 2.629222 1_655
O11 Sr1 3.005089 1_555
O12 Sb0 2.035614 1_555
O12 Sr1 2.645188 1_555
O13 Sb1 2.035614 1_555
O13 Sr1 2.645188 1_555
O14 Sb2 2.035614 1_555
O14 Sr1 2.645188 1_556
O15 Sb3 2.035614 1_555
O15 Sr1 2.645188 1_556
O16 Sb0 2.007403 1_555
O16 Sr0 2.627577 1_555
O16 Sr2 2.976050 1_555
O17 Sb3 2.007403 1_555
O17 Sr0 2.627577 1_555
O17 Sr2 2.976050 1_556
O18 Sb1 2.007403 1_555
O18 Sr0 2.627577 1_655
O18 Sr2 2.976050 1_655
O19 Sb2 2.007403 1_555
O19 Sr0 2.627577 1_655
O19 Sr2 2.976050 1_656
O20 Sb0 2.009760 1_555
O20 Sr3 3.006065 1_555
O20 Sr0 3.212861 1_555
O21 Sb2 2.009760 1_555
O21 Sr3 3.006065 1_655
O21 Sr0 3.212861 1_655
O22 Sb3 2.009760 1_555
O22 Sr3 3.006065 1_565
O22 Sr0 3.212861 1_555
O23 Sb1 2.009760 1_555
O23 Sr3 3.006065 1_665
O23 Sr0 3.212861 1_655
