# generated using pymatgen
data_BeFe3
_symmetry_space_group_name_H-M   'P 1'
_cell_length_a   4.86825632
_cell_length_b   4.86825632
_cell_length_c   14.71860234
_cell_angle_alpha   90.00000000
_cell_angle_beta   90.00000000
_cell_angle_gamma   101.26089943
_symmetry_Int_Tables_number   1
_chemical_formula_structural   BeFe3
_chemical_formula_sum   'Be8 Fe24'
_cell_volume   342.11407501
_cell_formula_units_Z   8
loop_
 _symmetry_equiv_pos_site_id
 _symmetry_equiv_pos_as_xyz
  1  'x, y, z'
loop_
 _atom_site_type_symbol
 _atom_site_label
 _atom_site_symmetry_multiplicity
 _atom_site_fract_x
 _atom_site_fract_y
 _atom_site_fract_z
 _atom_site_occupancy
  Be  Be0_0  1  0.00000000  0.00000000  0.00001779  1
  Be  Be0_1  1  0.00000000  0.00000000  0.50001779  1
  Be  Be0_2  1  1.00000000  0.50000000  0.00001779  1
  Be  Be0_3  1  1.00000000  0.50000000  0.50001779  1
  Be  Be0_4  1  0.50000000  0.00000000  0.00001779  1
  Be  Be0_5  1  0.50000000  0.00000000  0.50001779  1
  Be  Be0_6  1  0.50000000  0.50000000  0.00001779  1
  Be  Be0_7  1  0.50000000  0.50000000  0.50001779  1
  Fe  Fe0_0  1  0.25000000  0.25000000  0.38571737  1
  Fe  Fe0_1  1  0.25000000  0.25000000  0.88571737  1
  Fe  Fe0_2  1  0.25000000  0.75000000  0.38571737  1
  Fe  Fe0_3  1  0.25000000  0.75000000  0.88571737  1
  Fe  Fe0_4  1  0.75000000  0.25000000  0.38571737  1
  Fe  Fe0_5  1  0.75000000  0.25000000  0.88571737  1
  Fe  Fe0_6  1  0.75000000  0.75000000  0.38571737  1
  Fe  Fe0_7  1  0.75000000  0.75000000  0.88571737  1
  Fe  Fe1_0  1  0.00000000  0.00000000  0.24996515  1
  Fe  Fe1_1  1  0.00000000  0.00000000  0.74996515  1
  Fe  Fe1_2  1  1.00000000  0.50000000  0.24996515  1
  Fe  Fe1_3  1  1.00000000  0.50000000  0.74996515  1
  Fe  Fe1_4  1  0.50000000  0.00000000  0.24996515  1
  Fe  Fe1_5  1  0.50000000  0.00000000  0.74996515  1
  Fe  Fe1_6  1  0.50000000  0.50000000  0.24996515  1
  Fe  Fe1_7  1  0.50000000  0.50000000  0.74996515  1
  Fe  Fe2_0  1  0.25000000  0.25000000  0.11429970  1
  Fe  Fe2_1  1  0.25000000  0.25000000  0.61429970  1
  Fe  Fe2_2  1  0.25000000  0.75000000  0.11429970  1
  Fe  Fe2_3  1  0.25000000  0.75000000  0.61429970  1
  Fe  Fe2_4  1  0.75000000  0.25000000  0.11429970  1
  Fe  Fe2_5  1  0.75000000  0.25000000  0.61429970  1
  Fe  Fe2_6  1  0.75000000  0.75000000  0.11429970  1
  Fe  Fe2_7  1  0.75000000  0.75000000  0.61429970  1
loop_
_geom_bond_atom_site_label_1
_geom_bond_atom_site_label_2
_geom_bond_distance
_geom_bond_site_symmetry_2
Be0_0 Fe2_0 2.283275 1_555
Be0_0 Fe2_6 2.283275 1_445
Be0_0 Fe0_1 2.283475 1_554
Be0_0 Fe0_7 2.283475 1_444
Be0_0 Be0_4 2.434128 1_555
Be0_0 Be0_2 2.434128 1_455
Be0_0 Be0_4 2.434128 1_455
Be0_0 Be0_2 2.434128 1_445
Be0_0 Fe2_2 2.523956 1_545
Be0_0 Fe2_4 2.523956 1_455
Be0_0 Fe0_3 2.524138 1_544
Be0_0 Fe0_5 2.524138 1_454
Be0_1 Fe2_1 2.283275 1_555
Be0_1 Fe2_7 2.283275 1_445
Be0_1 Fe0_0 2.283475 1_555
Be0_1 Fe0_6 2.283475 1_445
Be0_1 Be0_5 2.434128 1_555
Be0_1 Be0_3 2.434128 1_445
Be0_1 Be0_5 2.434128 1_455
Be0_1 Be0_3 2.434128 1_455
Be0_1 Fe2_3 2.523956 1_545
Be0_1 Fe2_5 2.523956 1_455
Be0_1 Fe0_2 2.524138 1_545
Be0_1 Fe0_4 2.524138 1_455
Be0_2 Fe2_2 2.283275 1_655
Be0_2 Fe2_4 2.283275 1_555
Be0_2 Fe0_3 2.283475 1_654
Be0_2 Fe0_5 2.283475 1_554
Be0_2 Be0_6 2.434128 1_555
Be0_2 Be0_6 2.434128 1_655
Be0_2 Fe2_6 2.523956 1_555
Be0_2 Fe2_0 2.523956 1_655
Be0_2 Fe0_7 2.524138 1_554
Be0_2 Fe0_1 2.524138 1_654
Be0_3 Fe2_3 2.283275 1_655
Be0_3 Fe2_5 2.283275 1_555
Be0_3 Fe0_2 2.283475 1_655
Be0_3 Fe0_4 2.283475 1_555
Be0_3 Be0_7 2.434128 1_555
Be0_3 Be0_7 2.434128 1_655
Be0_3 Fe2_7 2.523956 1_555
Be0_3 Fe2_1 2.523956 1_655
Be0_3 Fe0_6 2.524138 1_555
Be0_3 Fe0_0 2.524138 1_655
Be0_4 Fe2_4 2.283275 1_555
Be0_4 Fe2_2 2.283275 1_545
Be0_4 Fe0_5 2.283475 1_554
Be0_4 Fe0_3 2.283475 1_544
Be0_4 Be0_6 2.434128 1_545
Be0_4 Be0_6 2.434128 1_555
Be0_4 Fe2_0 2.523956 1_555
Be0_4 Fe2_6 2.523956 1_545
Be0_4 Fe0_7 2.524138 1_544
Be0_4 Fe0_1 2.524138 1_554
Be0_5 Fe2_5 2.283275 1_555
Be0_5 Fe2_3 2.283275 1_545
Be0_5 Fe0_4 2.283475 1_555
Be0_5 Fe0_2 2.283475 1_545
Be0_5 Be0_7 2.434128 1_555
Be0_5 Be0_7 2.434128 1_545
Be0_5 Fe2_7 2.523956 1_545
Be0_5 Fe2_1 2.523956 1_555
Be0_5 Fe0_0 2.524138 1_555
Be0_5 Fe0_6 2.524138 1_545
Be0_6 Fe2_6 2.283275 1_555
Be0_6 Fe2_0 2.283275 1_555
Be0_6 Fe0_1 2.283475 1_554
Be0_6 Fe0_7 2.283475 1_554
Be0_6 Fe2_4 2.523956 1_555
Be0_6 Fe2_2 2.523956 1_555
Be0_6 Fe0_3 2.524138 1_554
Be0_6 Fe0_5 2.524138 1_554
Be0_7 Fe2_1 2.283275 1_555
Be0_7 Fe2_7 2.283275 1_555
Be0_7 Fe0_0 2.283475 1_555
Be0_7 Fe0_6 2.283475 1_555
Be0_7 Fe2_5 2.523956 1_555
Be0_7 Fe2_3 2.523956 1_555
Be0_7 Fe0_4 2.524138 1_555
Be0_7 Fe0_2 2.524138 1_555
Fe0_0 Fe1_0 2.525138 1_555
Fe0_0 Fe1_6 2.525138 1_555
Fe0_0 Fe1_4 2.744691 1_555
Fe0_0 Fe1_2 2.744691 1_455
Fe0_1 Fe1_1 2.525138 1_555
Fe0_1 Fe1_7 2.525138 1_555
Fe0_1 Fe1_3 2.744691 1_455
Fe0_1 Fe1_5 2.744691 1_555
Fe0_2 Fe1_2 2.525138 1_455
Fe0_2 Fe1_4 2.525138 1_565
Fe0_2 Fe1_0 2.744691 1_565
Fe0_2 Fe1_6 2.744691 1_555
Fe0_3 Fe1_3 2.525138 1_455
Fe0_3 Fe1_5 2.525138 1_565
Fe0_3 Fe1_1 2.744691 1_565
Fe0_3 Fe1_7 2.744691 1_555
Fe0_4 Fe1_2 2.525138 1_555
Fe0_4 Fe1_4 2.525138 1_555
Fe0_4 Fe1_6 2.744691 1_555
Fe0_4 Fe1_0 2.744691 1_655
Fe0_5 Fe1_5 2.525138 1_555
Fe0_5 Fe1_3 2.525138 1_555
Fe0_5 Fe1_7 2.744691 1_555
Fe0_5 Fe1_1 2.744691 1_655
Fe0_6 Fe1_6 2.525138 1_555
Fe0_6 Fe1_0 2.525138 1_665
Fe0_6 Fe1_4 2.744691 1_565
Fe0_6 Fe1_2 2.744691 1_555
Fe0_7 Fe1_1 2.525138 1_665
Fe0_7 Fe1_7 2.525138 1_555
Fe0_7 Fe1_5 2.744691 1_565
Fe0_7 Fe1_3 2.744691 1_555
Fe1_0 Fe1_4 2.434128 1_555
Fe1_0 Fe1_2 2.434128 1_455
Fe1_0 Fe1_4 2.434128 1_455
Fe1_0 Fe1_2 2.434128 1_445
Fe1_0 Fe2_0 2.524127 1_555
Fe1_0 Fe2_6 2.524127 1_445
Fe1_0 Fe2_2 2.743762 1_545
Fe1_0 Fe2_4 2.743762 1_455
Fe1_1 Fe1_5 2.434128 1_555
Fe1_1 Fe1_3 2.434128 1_445
Fe1_1 Fe1_5 2.434128 1_455
Fe1_1 Fe1_3 2.434128 1_455
Fe1_1 Fe2_1 2.524127 1_555
Fe1_1 Fe2_7 2.524127 1_445
Fe1_1 Fe2_3 2.743762 1_545
Fe1_1 Fe2_5 2.743762 1_455
Fe1_2 Fe1_6 2.434128 1_555
Fe1_2 Fe1_6 2.434128 1_655
Fe1_2 Fe2_4 2.524127 1_555
Fe1_2 Fe2_2 2.524127 1_655
Fe1_2 Fe2_0 2.743762 1_655
Fe1_2 Fe2_6 2.743762 1_555
Fe1_3 Fe1_7 2.434128 1_555
Fe1_3 Fe1_7 2.434128 1_655
Fe1_3 Fe2_3 2.524127 1_655
Fe1_3 Fe2_5 2.524127 1_555
Fe1_3 Fe2_1 2.743762 1_655
Fe1_3 Fe2_7 2.743762 1_555
Fe1_4 Fe1_6 2.434128 1_545
Fe1_4 Fe1_6 2.434128 1_555
Fe1_4 Fe2_4 2.524127 1_555
Fe1_4 Fe2_2 2.524127 1_545
Fe1_4 Fe2_6 2.743762 1_545
Fe1_4 Fe2_0 2.743762 1_555
Fe1_5 Fe1_7 2.434128 1_545
Fe1_5 Fe1_7 2.434128 1_555
Fe1_5 Fe2_5 2.524127 1_555
Fe1_5 Fe2_3 2.524127 1_545
Fe1_5 Fe2_1 2.743762 1_555
Fe1_5 Fe2_7 2.743762 1_545
Fe1_6 Fe2_0 2.524127 1_555
Fe1_6 Fe2_6 2.524127 1_555
Fe1_6 Fe2_2 2.743762 1_555
Fe1_6 Fe2_4 2.743762 1_555
Fe1_7 Fe2_7 2.524127 1_555
Fe1_7 Fe2_1 2.524127 1_555
Fe1_7 Fe2_5 2.743762 1_555
Fe1_7 Fe2_3 2.743762 1_555
