# generated using pymatgen
data_LaCu4P3
_symmetry_space_group_name_H-M   'P 1'
_cell_length_a   5.78902700
_cell_length_b   5.78902700
_cell_length_c   7.36641000
_cell_angle_alpha   90.00000000
_cell_angle_beta   90.00000000
_cell_angle_gamma   90.00000000
_symmetry_Int_Tables_number   1
_chemical_formula_structural   LaCu4P3
_chemical_formula_sum   'La2 Cu8 P6'
_cell_volume   246.86927261
_cell_formula_units_Z   2
loop_
 _symmetry_equiv_pos_site_id
 _symmetry_equiv_pos_as_xyz
  1  'x, y, z'
loop_
 _atom_site_type_symbol
 _atom_site_label
 _atom_site_symmetry_multiplicity
 _atom_site_fract_x
 _atom_site_fract_y
 _atom_site_fract_z
 _atom_site_occupancy
  La  La0  1  0.00000000  0.50000000  0.98048700  1
  La  La1  1  0.50000000  0.00000000  0.01951300  1
  Cu  Cu0  1  0.76745200  0.73254800  0.32684200  1
  Cu  Cu1  1  0.23254800  0.73254800  0.32684200  1
  Cu  Cu2  1  0.76745200  0.26745200  0.32684200  1
  Cu  Cu3  1  0.23254800  0.26745200  0.32684200  1
  Cu  Cu4  1  0.73254800  0.76745200  0.67315800  1
  Cu  Cu5  1  0.26745200  0.76745200  0.67315800  1
  Cu  Cu6  1  0.73254800  0.23254800  0.67315800  1
  Cu  Cu7  1  0.26745200  0.23254800  0.67315800  1
  P  P0  1  0.00000000  0.00000000  0.15373900  1
  P  P1  1  0.50000000  0.50000000  0.15373900  1
  P  P2  1  0.50000000  0.50000000  0.84626100  1
  P  P3  1  0.00000000  0.00000000  0.84626100  1
  P  P4  1  0.00000000  0.50000000  0.52442300  1
  P  P5  1  0.50000000  0.00000000  0.47557700  1
loop_
_geom_bond_atom_site_label_1
_geom_bond_atom_site_label_2
_geom_bond_distance
_geom_bond_site_symmetry_2
La0 P3 3.058735 1_565
La0 P3 3.058735 1_555
La0 P2 3.058735 1_455
La0 P2 3.058735 1_555
La0 P1 3.163386 1_456
La0 P1 3.163386 1_556
La0 P0 3.163386 1_566
La0 P0 3.163386 1_556
La0 P4 3.359554 1_555
La1 P1 3.058735 1_555
La1 P1 3.058735 1_545
La1 P0 3.058735 1_555
La1 P0 3.058735 1_655
La1 P3 3.163386 1_654
La1 P2 3.163386 1_554
La1 P3 3.163386 1_554
La1 P2 3.163386 1_544
La1 P5 3.359554 1_555
Cu0 P4 2.396461 1_655
Cu0 P1 2.415682 1_555
Cu0 P0 2.415682 1_665
Cu0 P5 2.448432 1_565
Cu0 La1 3.149552 1_565
Cu0 La0 3.183435 1_654
Cu1 P4 2.396461 1_555
Cu1 P0 2.415682 1_565
Cu1 P1 2.415682 1_555
Cu1 P5 2.448432 1_565
Cu1 La1 3.149552 1_565
Cu1 La0 3.183435 1_554
Cu2 P4 2.396461 1_655
Cu2 P1 2.415682 1_555
Cu2 P0 2.415682 1_655
Cu2 P5 2.448432 1_555
Cu2 La1 3.149552 1_555
Cu2 La0 3.183435 1_654
Cu3 P4 2.396461 1_555
Cu3 P0 2.415682 1_555
Cu3 P1 2.415682 1_555
Cu3 P5 2.448432 1_555
Cu3 La1 3.149552 1_555
Cu3 La0 3.183435 1_554
Cu4 P5 2.396461 1_565
Cu4 P2 2.415682 1_555
Cu4 P3 2.415682 1_665
Cu4 P4 2.448432 1_655
Cu4 La0 3.149552 1_655
Cu4 La1 3.183435 1_566
Cu5 P5 2.396461 1_565
Cu5 P2 2.415682 1_555
Cu5 P3 2.415682 1_565
Cu5 P4 2.448432 1_555
Cu5 La0 3.149552 1_555
Cu5 La1 3.183435 1_566
Cu6 P5 2.396461 1_555
Cu6 P3 2.415682 1_655
Cu6 P2 2.415682 1_555
Cu6 P4 2.448432 1_655
Cu6 La0 3.149552 1_655
Cu6 La1 3.183435 1_556
Cu7 P5 2.396461 1_555
Cu7 P3 2.415682 1_555
Cu7 P2 2.415682 1_555
Cu7 P4 2.448432 1_555
Cu7 La0 3.149552 1_555
Cu7 La1 3.183435 1_556
P0 P3 2.265009 1_554
P1 P2 2.265009 1_554
