# generated using pymatgen
data_FeSeN
_symmetry_space_group_name_H-M   'P 1'
_cell_length_a   3.58438300
_cell_length_b   3.58438300
_cell_length_c   6.90850800
_cell_angle_alpha   90.00000000
_cell_angle_beta   90.00000000
_cell_angle_gamma   90.00000000
_symmetry_Int_Tables_number   1
_chemical_formula_structural   FeSeN
_chemical_formula_sum   'Fe2 Se2 N2'
_cell_volume   88.75913938
_cell_formula_units_Z   2
loop_
 _symmetry_equiv_pos_site_id
 _symmetry_equiv_pos_as_xyz
  1  'x, y, z'
loop_
 _atom_site_type_symbol
 _atom_site_label
 _atom_site_symmetry_multiplicity
 _atom_site_fract_x
 _atom_site_fract_y
 _atom_site_fract_z
 _atom_site_occupancy
  Fe  Fe0  1  0.00000000  0.00000000  0.00000000  1
  Fe  Fe1  1  0.50000000  0.50000000  0.00000000  1
  Se  Se0  1  0.00000000  0.50000000  0.77002000  1
  Se  Se1  1  0.50000000  0.00000000  0.22998000  1
  N  N0  1  0.50000000  0.00000000  0.48259200  1
  N  N1  1  0.00000000  0.50000000  0.51740800  1
loop_
_geom_bond_atom_site_label_1
_geom_bond_atom_site_label_2
_geom_bond_distance
_geom_bond_site_symmetry_2
Fe0 Se0 2.395056 1_544
Fe0 Se0 2.395056 1_554
Fe0 Se1 2.395056 1_455
Fe0 Se1 2.395056 1_555
Fe1 Se0 2.395056 1_654
Fe1 Se0 2.395056 1_554
Fe1 Se1 2.395056 1_565
Fe1 Se1 2.395056 1_555
N0 Se1 1.745172 1_555
N1 Se0 1.745172 1_555
