# generated using pymatgen
data_Li4V3P8O29
_symmetry_space_group_name_H-M   'P 1'
_cell_length_a   9.76188300
_cell_length_b   9.77230357
_cell_length_c   14.22861335
_cell_angle_alpha   90.19910683
_cell_angle_beta   90.23705839
_cell_angle_gamma   119.92169551
_symmetry_Int_Tables_number   1
_chemical_formula_structural   Li4V3P8O29
_chemical_formula_sum   'Li8 V6 P16 O58'
_cell_volume   1176.39537872
_cell_formula_units_Z   2
loop_
 _symmetry_equiv_pos_site_id
 _symmetry_equiv_pos_as_xyz
  1  'x, y, z'
loop_
 _atom_site_type_symbol
 _atom_site_label
 _atom_site_symmetry_multiplicity
 _atom_site_fract_x
 _atom_site_fract_y
 _atom_site_fract_z
 _atom_site_occupancy
  Li  Li0  1  0.22679700  0.31798100  0.94477600  1
  Li  Li1  1  0.69606700  0.92042300  0.94154100  1
  Li  Li2  1  0.67258400  0.76603900  0.43692900  1
  Li  Li3  1  0.31091100  0.08616600  0.06357200  1
  Li  Li4  1  0.77088800  0.68121700  0.05836100  1
  Li  Li5  1  0.90976300  0.67120200  0.55905700  1
  Li  Li6  1  0.76862700  0.09671500  0.55429800  1
  Li  Li7  1  0.07438900  0.04974200  0.50458700  1
  V  V0  1  0.43166600  0.42734300  0.74227200  1
  V  V1  1  0.56492600  0.56483400  0.25031100  1
  V  V2  1  0.42940200  0.99398600  0.25406900  1
  V  V3  1  0.56474300  0.00190300  0.74962000  1
  V  V4  1  0.00062200  0.56533500  0.75331100  1
  V  V5  1  0.99985000  0.43274100  0.25008500  1
  P  P0  1  0.08278000  0.77225400  0.16304600  1
  P  P1  1  0.22093300  0.91279400  0.66197500  1
  P  P2  1  0.07992200  0.30610900  0.65830600  1
  P  P3  1  0.33735400  0.66274000  0.86631200  1
  P  P4  1  0.33269700  0.66657900  0.37052500  1
  P  P5  1  0.22873800  0.31968700  0.15978900  1
  P  P6  1  0.31056600  0.22538700  0.33996100  1
  P  P7  1  0.67996200  0.90946500  0.15647300  1
  P  P8  1  0.31941100  0.08955800  0.84335800  1
  P  P9  1  0.68273600  0.77129000  0.65852900  1
  P  P10  1  0.76889300  0.67988900  0.83877900  1
  P  P11  1  0.67227600  0.33732400  0.62888000  1
  P  P12  1  0.66437700  0.33021800  0.13197800  1
  P  P13  1  0.91463000  0.68611500  0.34576300  1
  P  P14  1  0.77487200  0.08748300  0.33712800  1
  P  P15  1  0.91508200  0.22816400  0.84243500  1
  O  O0  1  0.98617400  0.76512700  0.43714300  1
  O  O1  1  0.07981400  0.73755400  0.66611100  1
  O  O2  1  0.25601900  0.02106700  0.93636400  1
  O  O3  1  0.25413500  0.91620500  0.16211900  1
  O  O4  1  0.08962100  0.61816300  0.17777500  1
  O  O5  1  0.18595500  0.65910600  0.82006900  1
  O  O6  1  0.07731400  0.46222000  0.66986100  1
  O  O7  1  0.00801200  0.23992100  0.92743200  1
  O  O8  1  0.08174600  0.34019700  0.16605900  1
  O  O9  1  0.32918100  0.81448100  0.32345500  1
  O  O10  1  0.37876600  0.91500000  0.66963700  1
  O  O11  1  0.18668700  0.51984100  0.32341200  1
  O  O12  1  0.33104300  0.65457600  0.97036900  1
  O  O13  1  0.32878200  0.67483800  0.47442800  1
  O  O14  1  0.33476300  0.51286400  0.82282600  1
  O  O15  1  0.52056400  0.90090100  0.17952400  1
  O  O16  1  0.48578700  0.81349000  0.82774600  1
  O  O17  1  0.25428900  0.34146100  0.66434600  1
  O  O18  1  0.20963000  0.20397800  0.24403200  1
  O  O19  1  0.21087300  0.20553700  0.42222200  1
  O  O20  1  0.24102500  0.24686500  0.06966300  1
  O  O21  1  0.37816800  0.48162800  0.17905200  1
  O  O22  1  0.48844100  0.67754100  0.33383300  1
  O  O23  1  0.33773900  0.25751000  0.83281000  1
  O  O24  1  0.52318600  0.61715900  0.67344500  1
  O  O25  1  0.66001900  0.91680900  0.66016100  1
  O  O26  1  0.20127500  0.98738800  0.76034300  1
  O  O27  1  0.19752000  0.99494400  0.58187700  1
  O  O28  1  0.77189000  0.00175300  0.42585100  1
  O  O29  1  0.34472500  0.08527000  0.32972600  1
  O  O30  1  0.46619100  0.38123400  0.33095800  1
  O  O31  1  0.66164500  0.74260500  0.16049100  1
  O  O32  1  0.51819200  0.33123000  0.67289600  1
  O  O33  1  0.61716500  0.52094100  0.81899300  1
  O  O34  1  0.76012900  0.75749200  0.92747200  1
  O  O35  1  0.76454200  0.76601300  0.57047800  1
  O  O36  1  0.79029900  0.79217200  0.74977200  1
  O  O37  1  0.74452800  0.66152900  0.33674700  1
  O  O38  1  0.51470800  0.17930200  0.17120600  1
  O  O39  1  0.48179200  0.10251100  0.82042600  1
  O  O40  1  0.66789900  0.48296400  0.17143900  1
  O  O41  1  0.66742900  0.33229500  0.02755000  1
  O  O42  1  0.67771200  0.35285700  0.52498900  1
  O  O43  1  0.81459200  0.49084000  0.67461300  1
  O  O44  1  0.61808700  0.09054100  0.32471200  1
  O  O45  1  0.67833800  0.19057700  0.66553100  1
  O  O46  1  0.91536100  0.65821400  0.83448200  1
  O  O47  1  0.01032100  0.79851200  0.25941100  1
  O  O48  1  0.98960500  0.77031400  0.08025600  1
  O  O49  1  0.91194800  0.52837600  0.32798700  1
  O  O50  1  0.81414700  0.33491600  0.17985400  1
  O  O51  1  0.90436600  0.38001200  0.82202200  1
  O  O52  1  0.74680500  0.08245400  0.83971200  1
  O  O53  1  0.75109500  0.99079200  0.06714200  1
  O  O54  1  0.79352400  0.00026500  0.24658700  1
  O  O55  1  0.91659600  0.25670800  0.33463600  1
  O  O56  1  0.99646600  0.20601200  0.57472300  1
  O  O57  1  0.99950000  0.20491600  0.75108500  1
loop_
_geom_bond_atom_site_label_1
_geom_bond_atom_site_label_2
_geom_bond_distance
_geom_bond_site_symmetry_2
Li0 O7 1.890298 1_555
Li0 O20 1.939775 1_556
Li0 O23 2.169412 1_555
Li0 O14 2.405049 1_555
Li1 O53 1.889514 1_556
Li1 O34 1.989590 1_555
Li1 O52 2.022690 1_565
Li1 O16 2.397512 1_555
Li2 O28 2.011626 1_565
Li2 O37 2.069287 1_555
Li2 O35 2.098279 1_555
Li2 O22 2.132958 1_555
Li3 O2 1.900476 1_554
Li3 O20 2.001862 1_555
Li3 O3 2.033762 1_545
Li3 O38 2.300085 1_555
Li4 O48 1.884616 1_555
Li4 O34 2.030068 1_554
Li4 O31 2.062480 1_555
Li4 O40 2.333412 1_555
Li5 O0 1.935634 1_555
Li5 O35 2.050791 1_555
Li5 O1 2.096357 1_655
Li5 O43 2.252173 1_555
Li6 O56 1.947975 1_555
Li6 O28 2.054406 1_555
Li6 O25 2.157759 1_545
Li6 O45 2.220608 1_555
Li7 O19 1.862304 1_555
Li7 O27 1.891097 1_545
Li7 O56 2.249706 1_455
O0 P13 1.490646 1_555
O1 P1 1.575342 1_555
O1 V4 1.921963 1_555
O2 P8 1.477125 1_555
O3 P0 1.558823 1_555
O3 V2 1.973302 1_555
O4 P0 1.555084 1_555
O4 V5 1.883120 1_455
O5 P3 1.599351 1_555
O5 V4 1.827828 1_555
O6 P2 1.546630 1_555
O6 V4 1.933239 1_555
O7 P15 1.478093 1_455
O8 P5 1.547571 1_555
O8 V5 1.899500 1_455
O9 P4 1.610831 1_555
O9 V2 1.821234 1_555
O10 P1 1.533528 1_555
O10 V3 1.936595 1_565
O11 P4 1.575938 1_555
O11 V5 1.889158 1_455
O12 P3 1.482892 1_555
O13 P4 1.482007 1_555
O14 P3 1.576468 1_555
O14 V0 1.923021 1_555
O15 P7 1.552510 1_555
O15 V2 1.884978 1_555
O16 P3 1.566385 1_555
O16 V3 1.955872 1_565
O17 P2 1.560764 1_555
O17 V0 1.860064 1_555
O18 P5 1.597190 1_555
O18 P6 1.630619 1_555
O19 P6 1.475594 1_555
O20 P5 1.498456 1_555
O21 P5 1.548571 1_555
O21 V1 1.874300 1_555
O22 P4 1.562048 1_555
O22 V1 2.000379 1_555
O23 P8 1.567580 1_555
O23 V0 1.939384 1_555
O24 P9 1.550525 1_555
O24 V0 1.888016 1_555
O25 P9 1.544792 1_555
O25 V3 1.987656 1_565
O26 P8 1.598077 1_565
O26 P1 1.631527 1_555
O27 P1 1.477446 1_555
O28 P14 1.509872 1_555
O29 P6 1.569017 1_555
O29 V2 1.836900 1_545
O30 P6 1.529240 1_555
O30 V1 1.939873 1_555
O31 P7 1.550476 1_555
O31 V1 1.982879 1_555
O32 P11 1.605285 1_555
O32 V0 1.833564 1_555
O33 P10 1.544045 1_555
O33 V0 1.905695 1_555
O34 P10 1.494653 1_555
O35 P9 1.502971 1_555
O36 P9 1.613312 1_555
O36 P10 1.623158 1_555
O37 P13 1.559328 1_555
O37 V1 1.949528 1_555
O38 P12 1.576089 1_555
O38 V2 1.970183 1_545
O39 P8 1.561910 1_555
O39 V3 1.852416 1_555
O40 P12 1.577133 1_555
O40 V1 1.927532 1_555
O41 P12 1.486294 1_555
O42 P11 1.484984 1_555
O43 P11 1.584488 1_555
O43 V4 1.933989 1_655
O44 P14 1.554996 1_555
O44 V2 1.880837 1_545
O45 P11 1.556142 1_555
O45 V3 2.011792 1_555
O46 P10 1.547808 1_555
O46 V4 1.898625 1_655
O47 P13 1.607462 1_455
O47 P0 1.622605 1_555
O48 P0 1.479559 1_655
O49 P13 1.548474 1_555
O49 V5 1.907642 1_555
O50 P12 1.590058 1_555
O50 V5 1.856939 1_555
O51 P15 1.566806 1_555
O51 V4 1.854941 1_655
O52 P15 1.546956 1_555
O52 V3 1.999995 1_555
O53 P7 1.480931 1_555
O54 P14 1.602617 1_555
O54 P7 1.630740 1_545
O55 P14 1.538966 1_555
O55 V5 1.922183 1_555
O56 P2 1.491237 1_655
O57 P2 1.606264 1_655
O57 P15 1.616708 1_555
