# generated using pymatgen
data_CsMg14Mo
_symmetry_space_group_name_H-M   'P 1'
_cell_length_a   6.45373112
_cell_length_b   6.45373058
_cell_length_c   10.75286297
_cell_angle_alpha   90.00000000
_cell_angle_beta   90.00000000
_cell_angle_gamma   120.00000275
_symmetry_Int_Tables_number   1
_chemical_formula_structural   CsMg14Mo
_chemical_formula_sum   'Cs1 Mg14 Mo1'
_cell_volume   387.86128331
_cell_formula_units_Z   1
loop_
 _symmetry_equiv_pos_site_id
 _symmetry_equiv_pos_as_xyz
  1  'x, y, z'
loop_
 _atom_site_type_symbol
 _atom_site_label
 _atom_site_symmetry_multiplicity
 _atom_site_fract_x
 _atom_site_fract_y
 _atom_site_fract_z
 _atom_site_occupancy
  Cs  Cs0  1  0.16666700  0.33333300  0.12500000  1
  Mg  Mg0  1  0.17565420  0.83782660  0.12500000  1
  Mg  Mg1  1  0.15606467  0.82803184  0.62500000  1
  Mg  Mg2  1  0.66217340  0.32434580  0.12500000  1
  Mg  Mg3  1  0.67196816  0.34393533  0.62500000  1
  Mg  Mg4  1  0.66217340  0.83782660  0.12500000  1
  Mg  Mg5  1  0.67196816  0.82803184  0.62500000  1
  Mg  Mg6  1  0.33175054  0.16824946  0.40761856  1
  Mg  Mg7  1  0.33175054  0.16824946  0.84238144  1
  Mg  Mg8  1  0.33175054  0.66350207  0.40761856  1
  Mg  Mg9  1  0.33175054  0.66350207  0.84238144  1
  Mg  Mg10  1  0.83649793  0.16824946  0.40761856  1
  Mg  Mg11  1  0.83649793  0.16824946  0.84238144  1
  Mg  Mg12  1  0.83333300  0.66666700  0.36250378  1
  Mg  Mg13  1  0.83333300  0.66666700  0.88749622  1
  Mo  Mo0  1  0.16666700  0.33333300  0.62500000  1
loop_
_geom_bond_atom_site_label_1
_geom_bond_atom_site_label_2
_geom_bond_distance
_geom_bond_site_symmetry_2
Cs0 Mg0 3.227256 1_555
Cs0 Mg4 3.227256 1_555
Cs0 Mg4 3.227256 1_445
Cs0 Mg0 3.227256 1_545
Cs0 Mg2 3.227256 1_455
Cs0 Mg2 3.227256 1_555
Cs0 Mg7 3.555353 1_554
Cs0 Mg6 3.555353 1_555
Cs0 Mg9 3.555358 1_554
Cs0 Mg8 3.555358 1_555
Cs0 Mg11 3.555358 1_454
Cs0 Mg10 3.555358 1_455
Mg0 Mg13 3.191036 1_454
Mg0 Mg12 3.191036 1_455
Mg1 Mg8 3.013431 1_555
Mg1 Mg9 3.013431 1_555
Mg1 Mg6 3.013438 1_565
Mg1 Mg7 3.013438 1_565
Mg1 Mg3 3.124228 1_455
Mg1 Mg5 3.124229 1_455
Mg1 Mo0 3.227409 1_565
Mg1 Mo0 3.227409 1_555
Mg1 Mg3 3.329502 1_565
Mg1 Mg5 3.329502 1_555
Mg1 Mg12 3.349717 1_455
Mg1 Mg13 3.349717 1_455
Mg3 Mg6 3.013438 1_555
Mg3 Mg7 3.013438 1_555
Mg3 Mg5 3.124228 1_555
Mg3 Mo0 3.227410 1_555
Mg3 Mo0 3.227410 1_655
Mg3 Mg5 3.329502 1_545
Mg5 Mg8 3.013438 1_555
Mg5 Mg9 3.013438 1_555
Mg5 Mo0 3.227409 1_665
Mg5 Mo0 3.227409 1_555
Mg6 Mo0 2.978094 1_555
Mg7 Mo0 2.978094 1_555
Mg8 Mo0 2.978100 1_555
Mg9 Mo0 2.978100 1_555
Mg10 Mo0 2.978100 1_655
Mg10 Mg3 3.013431 1_555
Mg10 Mg5 3.013438 1_545
Mg10 Mg12 3.263174 1_545
Mg10 Mg12 3.263174 1_555
Mg11 Mo0 2.978100 1_655
Mg11 Mg3 3.013431 1_555
Mg11 Mg5 3.013438 1_545
Mg11 Mg13 3.263174 1_545
Mg11 Mg13 3.263174 1_555
Mg12 Mg4 3.191030 1_555
Mg12 Mg2 3.191036 1_555
Mg12 Mg6 3.263174 1_665
Mg12 Mg6 3.263174 1_555
Mg12 Mg8 3.263175 1_555
Mg12 Mg8 3.263175 1_655
Mg12 Mg5 3.349711 1_555
Mg12 Mg3 3.349717 1_555
Mg13 Mg4 3.191030 1_556
Mg13 Mg2 3.191036 1_556
Mg13 Mg7 3.263174 1_665
Mg13 Mg7 3.263174 1_555
Mg13 Mg9 3.263175 1_555
Mg13 Mg9 3.263175 1_655
Mg13 Mg5 3.349711 1_555
Mg13 Mg3 3.349717 1_555
