# generated using pymatgen
data_La4Cu5Sb8
_symmetry_space_group_name_H-M   'P 1'
_cell_length_a   4.46672500
_cell_length_b   4.46672500
_cell_length_c   20.79843200
_cell_angle_alpha   90.00000000
_cell_angle_beta   90.00000000
_cell_angle_gamma   90.00000000
_symmetry_Int_Tables_number   1
_chemical_formula_structural   La4Cu5Sb8
_chemical_formula_sum   'La4 Cu5 Sb8'
_cell_volume   414.96266613
_cell_formula_units_Z   1
loop_
 _symmetry_equiv_pos_site_id
 _symmetry_equiv_pos_as_xyz
  1  'x, y, z'
loop_
 _atom_site_type_symbol
 _atom_site_label
 _atom_site_symmetry_multiplicity
 _atom_site_fract_x
 _atom_site_fract_y
 _atom_site_fract_z
 _atom_site_occupancy
  La  La0  1  0.50000000  0.50000000  0.37594300  1
  La  La1  1  0.50000000  0.50000000  0.87150500  1
  La  La2  1  0.00000000  0.00000000  0.12505100  1
  La  La3  1  0.00000000  0.00000000  0.62545200  1
  Cu  Cu0  1  0.50000000  0.00000000  0.25029200  1
  Cu  Cu1  1  0.50000000  0.00000000  0.75002600  1
  Cu  Cu2  1  0.00000000  0.50000000  0.25029200  1
  Cu  Cu3  1  0.00000000  0.50000000  0.75002600  1
  Cu  Cu4  1  0.50000000  0.50000000  0.06489700  1
  Sb  Sb0  1  0.50000000  0.00000000  0.99583800  1
  Sb  Sb1  1  0.50000000  0.00000000  0.50016800  1
  Sb  Sb2  1  0.00000000  0.50000000  0.99583800  1
  Sb  Sb3  1  0.00000000  0.50000000  0.50016800  1
  Sb  Sb4  1  0.50000000  0.50000000  0.18459100  1
  Sb  Sb5  1  0.50000000  0.50000000  0.67728800  1
  Sb  Sb6  1  0.00000000  0.00000000  0.32336600  1
  Sb  Sb7  1  0.00000000  0.00000000  0.82306200  1
loop_
_geom_bond_atom_site_label_1
_geom_bond_atom_site_label_2
_geom_bond_distance
_geom_bond_site_symmetry_2
La0 Sb6 3.342394 1_565
La0 Sb6 3.342394 1_655
La0 Sb6 3.342394 1_665
La0 Sb6 3.342394 1_555
La0 Sb1 3.415163 1_555
La0 Sb1 3.415163 1_565
La0 Sb3 3.415163 1_555
La0 Sb3 3.415163 1_655
La1 Sb7 3.315260 1_665
La1 Sb7 3.315260 1_555
La1 Sb7 3.315260 1_565
La1 Sb7 3.315260 1_655
La1 Sb2 3.416863 1_555
La1 Sb0 3.416863 1_565
La1 Sb0 3.416863 1_555
La1 Sb2 3.416863 1_655
La2 Sb4 3.392536 1_455
La2 Sb4 3.392536 1_555
La2 Sb4 3.392536 1_445
La2 Sb4 3.392536 1_545
La2 Sb0 3.494306 1_554
La2 Sb2 3.494306 1_544
La2 Sb0 3.494306 1_454
La2 Sb2 3.494306 1_554
La3 Sb5 3.337384 1_455
La3 Sb5 3.337384 1_545
La3 Sb5 3.337384 1_555
La3 Sb5 3.337384 1_445
La3 Sb3 3.431856 1_555
La3 Sb3 3.431856 1_545
La3 Sb1 3.431856 1_455
La3 Sb1 3.431856 1_555
Cu0 Sb4 2.618238 1_555
Cu0 Sb4 2.618238 1_545
Cu0 Sb6 2.701439 1_555
Cu0 Sb6 2.701439 1_655
Cu0 La2 3.431177 1_555
Cu0 La2 3.431177 1_655
Cu0 La0 3.437655 1_545
Cu0 La0 3.437655 1_555
Cu1 Sb5 2.697514 1_545
Cu1 Sb5 2.697514 1_555
Cu1 Sb7 2.700995 1_555
Cu1 Sb7 2.700995 1_655
Cu1 La1 3.372162 1_555
Cu1 La1 3.372162 1_545
Cu1 La3 3.420658 1_555
Cu1 La3 3.420658 1_655
Cu2 Sb4 2.618238 1_555
Cu2 Sb4 2.618238 1_455
Cu2 Sb6 2.701439 1_555
Cu2 Sb6 2.701439 1_565
Cu2 La2 3.431177 1_555
Cu2 La2 3.431177 1_565
Cu2 La0 3.437655 1_455
Cu2 La0 3.437655 1_555
Cu3 Sb5 2.697514 1_455
Cu3 Sb5 2.697514 1_555
Cu3 Sb7 2.700995 1_555
Cu3 Sb7 2.700995 1_565
Cu3 La1 3.372162 1_455
Cu3 La1 3.372162 1_555
Cu3 La3 3.420658 1_565
Cu3 La3 3.420658 1_555
Cu4 Sb4 2.489448 1_555
Cu4 Sb2 2.655357 1_554
Cu4 Sb0 2.655357 1_554
Cu4 Sb2 2.655357 1_654
Cu4 Sb0 2.655357 1_564
Cu4 La2 3.397218 1_555
Cu4 La2 3.397218 1_565
Cu4 La2 3.397218 1_655
Cu4 La2 3.397218 1_665
Sb0 Sb2 3.158452 1_655
Sb0 Sb2 3.158452 1_545
Sb0 Sb2 3.158452 1_645
Sb0 Sb2 3.158452 1_555
Sb1 Sb3 3.158452 1_555
Sb1 Sb3 3.158452 1_655
Sb1 Sb3 3.158452 1_545
Sb1 Sb3 3.158452 1_645
