# generated using pymatgen
data_Ce2Fe20Si2C
_symmetry_space_group_name_H-M   'P 1'
_cell_length_a   6.36789500
_cell_length_b   7.76240281
_cell_length_c   7.77591961
_cell_angle_alpha   81.50249500
_cell_angle_beta   113.96969729
_cell_angle_gamma   114.20190408
_symmetry_Int_Tables_number   1
_chemical_formula_structural   Ce2Fe20Si2C
_chemical_formula_sum   'Ce2 Fe20 Si2 C1'
_cell_volume   320.26646669
_cell_formula_units_Z   1
loop_
 _symmetry_equiv_pos_site_id
 _symmetry_equiv_pos_as_xyz
  1  'x, y, z'
loop_
 _atom_site_type_symbol
 _atom_site_label
 _atom_site_symmetry_multiplicity
 _atom_site_fract_x
 _atom_site_fract_y
 _atom_site_fract_z
 _atom_site_occupancy
  Ce  Ce0  1  0.87568600  0.74633400  0.24910300  1
  Ce  Ce1  1  0.12431400  0.25366600  0.75089700  1
  Fe  Fe0  1  0.62984500  0.25072200  0.75303500  1
  Fe  Fe1  1  0.37015500  0.74927800  0.24696500  1
  Fe  Fe2  1  0.63691700  0.57597700  0.83396000  1
  Fe  Fe3  1  0.63973200  0.32989000  0.07815300  1
  Fe  Fe4  1  0.30447800  0.08039100  0.16441800  1
  Fe  Fe5  1  0.30215500  0.66457600  0.57888900  1
  Fe  Fe6  1  0.23959000  0.17556000  0.41612400  1
  Fe  Fe7  1  0.24341900  0.91986400  0.67667800  1
  Fe  Fe8  1  0.06366600  0.82486300  0.92361000  1
  Fe  Fe9  1  0.06648100  0.42488800  0.32234600  1
  Fe  Fe10  1  0.36308300  0.42402300  0.16604000  1
  Fe  Fe11  1  0.36026800  0.67011000  0.92184700  1
  Fe  Fe12  1  0.69552200  0.91960900  0.83558200  1
  Fe  Fe13  1  0.69784500  0.33542400  0.42111100  1
  Fe  Fe14  1  0.76041000  0.82444000  0.58387600  1
  Fe  Fe15  1  0.75658100  0.08013600  0.32332200  1
  Fe  Fe16  1  0.93633400  0.17513700  0.07639000  1
  Fe  Fe17  1  0.93351900  0.57511200  0.67765400  1
  Fe  Fe18  1  0.50000000  0.00000000  0.50000000  1
  Fe  Fe19  1  0.50000000  0.50000000  0.50000000  1
  Si  Si0  1  0.50000000  0.00000000  0.00000000  1
  Si  Si1  1  0.00000000  0.50000000  0.00000000  1
  C  C0  1  0.00000000  0.00000000  0.50000000  1
loop_
_geom_bond_atom_site_label_1
_geom_bond_atom_site_label_2
_geom_bond_distance
_geom_bond_site_symmetry_2
Ce0 Fe10 3.065994 1_555
Ce0 Fe9 3.087052 1_655
Ce0 Fe8 3.101275 1_654
Ce0 Fe5 3.102848 1_655
Ce0 Fe11 3.108800 1_554
Ce0 Fe4 3.124797 1_665
Ce0 Fe1 3.146220 1_655
Ce0 Fe2 3.179043 1_554
Ce0 Fe3 3.184196 1_555
Ce0 Fe13 3.202118 1_555
Ce0 Fe1 3.221888 1_555
Ce0 Fe12 3.233338 1_554
Ce0 Fe16 3.328414 1_565
Ce0 Fe17 3.331985 1_555
Ce0 Fe18 3.450158 1_665
Ce0 Fe19 3.482077 1_555
Ce1 Fe2 3.065994 1_555
Ce1 Fe17 3.087052 1_455
Ce1 Fe16 3.101275 1_456
Ce1 Fe13 3.102848 1_455
Ce1 Fe3 3.108800 1_556
Ce1 Fe12 3.124797 1_445
Ce1 Fe0 3.146220 1_455
Ce1 Fe10 3.179043 1_556
Ce1 Fe11 3.184196 1_555
Ce1 Fe5 3.202118 1_555
Ce1 Fe0 3.221888 1_555
Ce1 Fe4 3.233338 1_556
Ce1 Fe8 3.328414 1_545
Ce1 Fe9 3.331985 1_555
Ce1 Fe18 3.450158 1_455
Ce1 Fe19 3.482077 1_555
Fe0 Si1 2.582396 1_656
Fe0 Fe18 2.614039 1_555
Fe0 Fe17 2.629823 1_555
Fe0 Fe16 2.644075 1_556
Fe0 Si0 2.650555 1_556
Fe0 Fe3 2.659127 1_556
Fe0 Fe7 2.661868 1_545
Fe0 Fe2 2.669400 1_555
Fe0 Fe19 2.676569 1_555
Fe0 Fe6 2.711567 1_555
Fe0 Fe12 2.714531 1_545
Fe0 Fe13 2.730304 1_555
Fe1 Si1 2.582396 1_555
Fe1 Fe18 2.614039 1_565
Fe1 Fe9 2.629823 1_555
Fe1 Fe8 2.644075 1_554
Fe1 Si0 2.650555 1_565
Fe1 Fe11 2.659127 1_554
Fe1 Fe15 2.661868 1_565
Fe1 Fe10 2.669400 1_555
Fe1 Fe19 2.676569 1_555
Fe1 Fe14 2.711567 1_555
Fe1 Fe4 2.714531 1_565
Fe1 Fe5 2.730304 1_555
Fe2 Si1 2.414125 1_656
Fe2 Fe8 2.481415 1_655
Fe2 Fe3 2.486622 1_556
Fe2 Fe5 2.512915 1_555
Fe3 Si1 2.405807 1_655
Fe3 Si0 2.422973 1_555
Fe3 Fe9 2.472306 1_655
Fe3 Fe4 2.479529 1_555
Fe4 Si0 2.395899 1_555
Fe4 Fe6 2.425277 1_555
Fe4 Fe8 2.462283 1_544
Fe5 Fe7 2.434982 1_555
Fe5 Fe9 2.463416 1_555
Fe6 Fe9 2.484278 1_555
Fe7 Si0 2.380884 1_566
Fe7 Fe8 2.493218 1_555
Fe8 Si0 2.392033 1_566
Fe8 Si1 2.406453 1_556
Fe9 Si1 2.389602 1_555
Fe10 Si1 2.414125 1_555
Fe10 Fe19 2.458252 1_555
Fe10 Fe16 2.481415 1_455
Fe10 Fe11 2.486622 1_554
Fe10 Fe3 2.507120 1_555
Fe10 Fe13 2.512915 1_555
Fe10 Fe4 2.538591 1_555
Fe10 Fe9 2.631085 1_555
Fe10 Fe6 2.647705 1_555
Fe11 Si1 2.405807 1_556
Fe11 Si0 2.422973 1_566
Fe11 Fe17 2.472306 1_455
Fe11 Fe12 2.479529 1_555
Fe11 Fe2 2.507120 1_555
Fe11 Fe5 2.543553 1_555
Fe11 Fe7 2.623835 1_555
Fe11 Fe8 2.626148 1_555
Fe12 Si0 2.395899 1_566
Fe12 Fe14 2.425277 1_555
Fe12 Fe16 2.462283 1_566
Fe12 Fe18 2.502973 1_565
Fe12 Fe2 2.538591 1_555
Fe12 Fe8 2.542879 1_655
Fe12 Fe7 2.632246 1_555
Fe12 Fe5 2.686509 1_555
Fe13 Fe19 2.403063 1_555
Fe13 Fe15 2.434982 1_555
Fe13 Fe17 2.463416 1_555
Fe13 Fe18 2.491819 1_555
Fe13 Fe3 2.543553 1_555
Fe13 Fe9 2.559902 1_655
Fe13 Fe6 2.647656 1_555
Fe13 Fe4 2.686509 1_555
Fe14 Fe19 2.387526 1_555
Fe14 Fe18 2.396616 1_565
Fe14 Fe17 2.484278 1_555
Fe14 Fe8 2.561320 1_655
Fe14 Fe5 2.647656 1_555
Fe14 Fe2 2.647705 1_555
Fe15 Si0 2.380884 1_555
Fe15 Fe18 2.383668 1_555
Fe15 Fe16 2.493218 1_555
Fe15 Fe9 2.594636 1_655
Fe15 Fe3 2.623835 1_555
Fe15 Fe4 2.632246 1_555
Fe16 Si0 2.392033 1_555
Fe16 Si1 2.406453 1_655
Fe16 Fe4 2.542879 1_655
Fe16 Fe6 2.561320 1_655
Fe16 Fe9 2.567809 1_655
Fe16 Fe3 2.626148 1_555
Fe17 Fe19 2.385163 1_555
Fe17 Si1 2.389602 1_656
Fe17 Fe5 2.559902 1_655
Fe17 Fe8 2.567809 1_655
Fe17 Fe7 2.594636 1_655
Fe17 Fe2 2.631085 1_555
Fe18 Fe7 2.383668 1_545
Fe18 Fe6 2.396616 1_555
Fe18 Fe5 2.491819 1_545
Fe18 Fe4 2.502973 1_555
Fe19 Fe9 2.385163 1_555
Fe19 Fe6 2.387526 1_555
Fe19 Fe5 2.403063 1_555
Fe19 Fe2 2.458252 1_555
C0 Fe14 1.857780 1_445
C0 Fe6 1.857780 1_555
C0 Fe7 1.866766 1_545
C0 Fe15 1.866766 1_455
C0 Ce0 2.629164 1_445
C0 Ce1 2.629164 1_555
