# generated using pymatgen
data_Na2Zn2P2O11
_symmetry_space_group_name_H-M   'P 1'
_cell_length_a   10.64525480
_cell_length_b   10.64525480
_cell_length_c   15.15420308
_cell_angle_alpha   90.00000000
_cell_angle_beta   90.00000000
_cell_angle_gamma   119.99999633
_symmetry_Int_Tables_number   1
_chemical_formula_structural   Na2Zn2P2O11
_chemical_formula_sum   'Na12 Zn12 P12 O66'
_cell_volume   1487.22224428
_cell_formula_units_Z   6
loop_
 _symmetry_equiv_pos_site_id
 _symmetry_equiv_pos_as_xyz
  1  'x, y, z'
loop_
 _atom_site_type_symbol
 _atom_site_label
 _atom_site_symmetry_multiplicity
 _atom_site_fract_x
 _atom_site_fract_y
 _atom_site_fract_z
 _atom_site_occupancy
  Na  Na0  1  0.32018547  0.66596474  0.94407813  1
  Na  Na1  1  0.34577926  0.67981453  0.61074513  1
  Na  Na2  1  0.67981453  0.33403526  0.44407813  1
  Na  Na3  1  0.33403526  0.65422074  0.27741113  1
  Na  Na4  1  0.65422074  0.32018547  0.11074513  1
  Na  Na5  1  0.66596474  0.34577926  0.77741113  1
  Na  Na6  1  0.83176586  0.02769215  0.87547926  1
  Na  Na7  1  0.19592629  0.16823414  0.54214626  1
  Na  Na8  1  0.16823414  0.97230785  0.37547926  1
  Na  Na9  1  0.97230785  0.80407371  0.20881226  1
  Na  Na10  1  0.80407371  0.83176586  0.04214626  1
  Na  Na11  1  0.02769215  0.19592629  0.70881226  1
  Zn  Zn0  1  0.69332432  0.84724089  0.60997738  1
  Zn  Zn1  1  0.15391657  0.30667568  0.27664438  1
  Zn  Zn2  1  0.30667568  0.15275911  0.10997738  1
  Zn  Zn3  1  0.15275911  0.84608343  0.94331038  1
  Zn  Zn4  1  0.84608343  0.69332432  0.77664438  1
  Zn  Zn5  1  0.84724089  0.15391657  0.44331038  1
  Zn  Zn6  1  0.99060736  0.49975842  0.60603058  1
  Zn  Zn7  1  0.50915107  0.00939264  0.27269758  1
  Zn  Zn8  1  0.00939264  0.50024158  0.10603058  1
  Zn  Zn9  1  0.50024158  0.49084893  0.93936358  1
  Zn  Zn10  1  0.49084893  0.99060736  0.77269758  1
  Zn  Zn11  1  0.49975842  0.50915107  0.43936358  1
  P  P0  1  0.58988338  0.83053076  0.41684441  1
  P  P1  1  0.24064739  0.41011662  0.08351141  1
  P  P2  1  0.41011662  0.16946924  0.91684441  1
  P  P3  1  0.16946924  0.75935261  0.75017741  1
  P  P4  1  0.75935261  0.58988338  0.58351141  1
  P  P5  1  0.83053076  0.24064739  0.25017741  1
  P  P6  1  0.58643570  0.75609632  0.80107607  1
  P  P7  1  0.16966062  0.41356430  0.46774307  1
  P  P8  1  0.41356430  0.24390368  0.30107607  1
  P  P9  1  0.24390368  0.83033938  0.13440907  1
  P  P10  1  0.83033938  0.58643570  0.96774307  1
  P  P11  1  0.75609632  0.16966062  0.63440907  1
  O  O0  1  0.54767948  0.72927676  0.70196436  1
  O  O1  1  0.18159728  0.45232052  0.36863136  1
  O  O2  1  0.45232052  0.27072324  0.20196436  1
  O  O3  1  0.27072324  0.81840272  0.03529736  1
  O  O4  1  0.81840272  0.54767948  0.86863136  1
  O  O5  1  0.72927676  0.18159728  0.53529736  1
  O  O6  1  0.58046507  0.89191011  0.83471053  1
  O  O7  1  0.31144504  0.41953493  0.50137753  1
  O  O8  1  0.41953493  0.10808989  0.33471053  1
  O  O9  1  0.10808989  0.68855496  0.16804353  1
  O  O10  1  0.68855496  0.58046507  0.00137753  1
  O  O11  1  0.89191011  0.31144504  0.66804353  1
  O  O12  1  0.75627471  0.94867978  0.40885607  1
  O  O13  1  0.19240508  0.24372529  0.07552307  1
  O  O14  1  0.24372529  0.05132022  0.90885607  1
  O  O15  1  0.05132022  0.80759492  0.74218907  1
  O  O16  1  0.80759492  0.75627471  0.57552307  1
  O  O17  1  0.94867978  0.19240508  0.24218907  1
  O  O18  1  0.50536443  0.12016400  0.86896314  1
  O  O19  1  0.61479957  0.49463557  0.53563014  1
  O  O20  1  0.49463557  0.87983600  0.36896314  1
  O  O21  1  0.87983600  0.38520043  0.20229614  1
  O  O22  1  0.38520043  0.50536443  0.03563014  1
  O  O23  1  0.12016400  0.61479957  0.70229614  1
  O  O24  1  0.66593632  0.06442123  0.01998130  1
  O  O25  1  0.39848492  0.33406368  0.68664830  1
  O  O26  1  0.33406368  0.93557877  0.51998130  1
  O  O27  1  0.93557877  0.60151508  0.35331430  1
  O  O28  1  0.60151508  0.66593632  0.18664830  1
  O  O29  1  0.06442123  0.39848492  0.85331430  1
  O  O30  1  0.74777198  0.79596069  0.81826070  1
  O  O31  1  0.04818871  0.25222802  0.48492770  1
  O  O32  1  0.25222802  0.20403931  0.31826070  1
  O  O33  1  0.20403931  0.95181129  0.15159370  1
  O  O34  1  0.95181129  0.74777198  0.98492770  1
  O  O35  1  0.79596069  0.04818871  0.65159370  1
  O  O36  1  0.97958772  0.08158675  0.01403006  1
  O  O37  1  0.10199903  0.02041228  0.68069706  1
  O  O38  1  0.02041228  0.91841325  0.51403006  1
  O  O39  1  0.91841325  0.89800097  0.34736306  1
  O  O40  1  0.89800097  0.97958772  0.18069706  1
  O  O41  1  0.08158675  0.10199903  0.84736306  1
  O  O42  1  0.56168829  0.68685724  0.37430058  1
  O  O43  1  0.12516895  0.43831171  0.04096758  1
  O  O44  1  0.43831171  0.31314276  0.87430058  1
  O  O45  1  0.31314276  0.87483105  0.70763358  1
  O  O46  1  0.87483105  0.56168829  0.54096758  1
  O  O47  1  0.68685724  0.12516895  0.20763358  1
  O  O48  1  0.93556867  0.31491091  0.87025281  1
  O  O49  1  0.37934223  0.06443133  0.53691981  1
  O  O50  1  0.06443133  0.68508909  0.37025281  1
  O  O51  1  0.68508909  0.62065777  0.20358581  1
  O  O52  1  0.62065777  0.93556867  0.03691981  1
  O  O53  1  0.31491091  0.37934223  0.70358581  1
  O  O54  1  0.47895561  0.62262024  0.85566392  1
  O  O55  1  0.14366463  0.52104439  0.52233092  1
  O  O56  1  0.52104439  0.37737976  0.35566392  1
  O  O57  1  0.37737976  0.85633537  0.18899692  1
  O  O58  1  0.85633537  0.47895561  0.02233092  1
  O  O59  1  0.62262024  0.14366463  0.68899692  1
  O  O60  1  0.54954318  0.80856117  0.51653071  1
  O  O61  1  0.25901799  0.45045682  0.18319771  1
  O  O62  1  0.45045682  0.19143883  0.01653071  1
  O  O63  1  0.19143883  0.74098201  0.84986371  1
  O  O64  1  0.74098201  0.54954318  0.68319771  1
  O  O65  1  0.80856117  0.25901799  0.34986371  1
loop_
_geom_bond_atom_site_label_1
_geom_bond_atom_site_label_2
_geom_bond_distance
_geom_bond_site_symmetry_2
Na0 O54 2.375826 1_555
Na0 O63 2.376772 1_555
Na0 O3 2.382409 1_556
Na0 O22 2.551461 1_556
Na0 O43 2.703255 1_556
Na1 O55 2.375826 1_555
Na1 O60 2.376772 1_555
Na1 O0 2.382409 1_555
Na1 O23 2.551452 1_555
Na1 O45 2.703247 1_555
Na2 O56 2.375826 1_555
Na2 O65 2.376772 1_555
Na2 O5 2.382409 1_555
Na2 O19 2.551461 1_555
Na2 O46 2.703255 1_555
Na3 O57 2.375826 1_555
Na3 O61 2.376763 1_555
Na3 O1 2.382418 1_555
Na3 O20 2.551461 1_555
Na3 O42 2.703255 1_555
Na4 O58 2.375826 1_555
Na4 O62 2.376772 1_555
Na4 O2 2.382409 1_555
Na4 O21 2.551452 1_555
Na4 O47 2.703247 1_555
Na5 O59 2.375826 1_555
Na5 O64 2.376763 1_555
Na5 O4 2.382418 1_555
Na5 O18 2.551461 1_555
Na5 O44 2.703255 1_555
Na6 O30 2.330441 1_545
Na6 O6 2.400145 1_545
Na6 O41 2.403344 1_655
Na6 O36 2.512171 1_556
Na6 O48 2.682750 1_555
Na7 O31 2.330441 1_555
Na7 O7 2.400145 1_555
Na7 O38 2.403344 1_545
Na7 O37 2.512171 1_555
Na7 O49 2.682749 1_555
Na8 O32 2.330441 1_565
Na8 O8 2.400145 1_565
Na8 O39 2.403344 1_455
Na8 O38 2.512171 1_555
Na8 O50 2.682750 1_555
Na9 O33 2.330441 1_655
Na9 O9 2.400145 1_655
Na9 O40 2.403341 1_555
Na9 O39 2.512171 1_555
Na9 O51 2.682750 1_555
Na10 O34 2.330441 1_554
Na10 O10 2.400145 1_555
Na10 O36 2.403344 1_565
Na10 O40 2.512171 1_555
Na10 O52 2.682749 1_555
Na11 O35 2.330441 1_455
Na11 O11 2.400145 1_455
Na11 O37 2.403341 1_555
Na11 O41 2.512171 1_555
Na11 O53 2.682750 1_555
O0 P6 1.545903 1_555
O0 Zn0 1.994241 1_555
O1 P7 1.545903 1_555
O1 Zn1 1.994241 1_555
O2 P8 1.545903 1_555
O2 Zn2 1.994241 1_555
O3 P9 1.545903 1_555
O3 Zn3 1.994241 1_554
O4 P10 1.545903 1_555
O4 Zn4 1.994241 1_555
O5 P11 1.545903 1_555
O5 Zn5 1.994241 1_555
O6 P6 1.563965 1_555
O6 Zn10 1.974697 1_555
O7 P7 1.563965 1_555
O7 Zn11 1.974704 1_555
O8 P8 1.563965 1_555
O8 Zn7 1.974697 1_555
O9 P9 1.563965 1_555
O9 Zn8 1.974697 1_555
O10 P10 1.563965 1_554
O10 Zn9 1.974704 1_554
O11 P11 1.563965 1_555
O11 Zn6 1.974697 1_555
O12 P0 1.583090 1_555
O12 Zn5 1.966726 1_565
O13 P1 1.583090 1_555
O13 Zn2 1.966726 1_555
O14 P2 1.583090 1_555
O14 Zn3 1.966726 1_545
O15 P3 1.583090 1_555
O15 Zn4 1.966730 1_455
O16 P4 1.583090 1_555
O16 Zn0 1.966726 1_555
O17 P5 1.583090 1_555
O17 Zn1 1.966730 1_655
O18 P2 1.536956 1_555
O18 Zn10 1.959856 1_545
O19 P4 1.536956 1_555
O19 Zn11 1.959868 1_555
O20 P0 1.536956 1_555
O20 Zn7 1.959856 1_565
O21 P5 1.536956 1_555
O21 Zn8 1.959857 1_655
O22 P1 1.536956 1_555
O22 Zn9 1.959868 1_554
O23 P3 1.536956 1_555
O23 Zn6 1.959857 1_455
O24 O52 1.232292 1_545
O25 O53 1.232288 1_555
O26 O49 1.232292 1_565
O27 O50 1.232292 1_655
O28 O51 1.232288 1_555
O29 O48 1.232292 1_455
O30 P6 1.571229 1_555
O30 Zn4 1.957091 1_555
O31 P7 1.571229 1_555
O31 Zn5 1.957096 1_455
O32 P8 1.571229 1_555
O32 Zn1 1.957091 1_555
O33 P9 1.571229 1_555
O33 Zn2 1.957092 1_565
O34 P10 1.571229 1_555
O34 Zn3 1.957096 1_655
O35 P11 1.571229 1_555
O35 Zn0 1.957092 1_545
O42 P0 1.544631 1_555
O42 Zn11 1.933460 1_555
O43 P1 1.544631 1_555
O43 Zn8 1.933460 1_555
O44 P2 1.544631 1_555
O44 Zn9 1.933460 1_555
O45 P3 1.544631 1_555
O45 Zn10 1.933468 1_555
O46 P4 1.544631 1_555
O46 Zn6 1.933460 1_555
O47 P5 1.544631 1_555
O47 Zn7 1.933468 1_555
O54 P6 1.544866 1_555
O54 Zn9 1.986383 1_555
O55 P7 1.544866 1_555
O55 Zn6 1.986383 1_455
O56 P8 1.544866 1_555
O56 Zn11 1.986383 1_555
O57 P9 1.544866 1_555
O57 Zn7 1.986393 1_565
O58 P10 1.544866 1_554
O58 Zn8 1.986383 1_655
O59 P11 1.544866 1_555
O59 Zn10 1.986393 1_545
O60 P0 1.555888 1_555
O60 Zn0 1.971644 1_555
O61 P1 1.555888 1_555
O61 Zn1 1.971644 1_555
O62 P2 1.555888 1_554
O62 Zn2 1.971644 1_555
O63 P3 1.555888 1_555
O63 Zn3 1.971644 1_555
O64 P4 1.555888 1_555
O64 Zn4 1.971644 1_555
O65 P5 1.555888 1_555
O65 Zn5 1.971644 1_555
