# generated using pymatgen
data_Nd2Co3Ge5
_symmetry_space_group_name_H-M   'P 1'
_cell_length_a   8.23156345
_cell_length_b   8.23156345
_cell_length_c   8.23156345
_cell_angle_alpha   138.01004288
_cell_angle_beta   106.86656998
_cell_angle_gamma   88.08562227
_symmetry_Int_Tables_number   1
_chemical_formula_structural   Nd2Co3Ge5
_chemical_formula_sum   'Nd4 Co6 Ge10'
_cell_volume   342.31634080
_cell_formula_units_Z   2
loop_
 _symmetry_equiv_pos_site_id
 _symmetry_equiv_pos_as_xyz
  1  'x, y, z'
loop_
 _atom_site_type_symbol
 _atom_site_label
 _atom_site_symmetry_multiplicity
 _atom_site_fract_x
 _atom_site_fract_y
 _atom_site_fract_z
 _atom_site_occupancy
  Nd  Nd0  1  0.62970700  0.86556600  0.76414100  1
  Nd  Nd1  1  0.37029300  0.13443400  0.23585900  1
  Nd  Nd2  1  0.10142600  0.36556600  0.73585900  1
  Nd  Nd3  1  0.89857400  0.63443400  0.26414100  1
  Co  Co0  1  0.24493500  0.63723600  0.60769900  1
  Co  Co1  1  0.75506500  0.36276400  0.39230100  1
  Co  Co2  1  0.02953600  0.13723600  0.89230100  1
  Co  Co3  1  0.97046400  0.86276400  0.10769900  1
  Co  Co4  1  0.50000000  0.75000000  0.25000000  1
  Co  Co5  1  0.50000000  0.25000000  0.75000000  1
  Ge  Ge0  1  0.26795100  0.01795100  0.75000000  1
  Ge  Ge1  1  0.73204900  0.98204900  0.25000000  1
  Ge  Ge2  1  0.73204900  0.48204900  0.75000000  1
  Ge  Ge3  1  0.26795100  0.51795100  0.25000000  1
  Ge  Ge4  1  0.43893900  0.59731900  0.84161900  1
  Ge  Ge5  1  0.56106100  0.40268100  0.15838100  1
  Ge  Ge6  1  0.75570000  0.09731900  0.65838100  1
  Ge  Ge7  1  0.24430000  0.90268100  0.34161900  1
  Ge  Ge8  1  0.00000000  0.75000000  0.75000000  1
  Ge  Ge9  1  0.00000000  0.25000000  0.25000000  1
loop_
_geom_bond_atom_site_label_1
_geom_bond_atom_site_label_2
_geom_bond_distance
_geom_bond_site_symmetry_2
Co0 Ge4 2.342427 1_555
Co0 Ge3 2.383944 1_555
Co0 Ge0 2.383944 1_565
Co0 Ge9 2.434725 1_555
Co0 Ge8 2.434725 1_555
Co1 Ge5 2.342427 1_555
Co1 Ge2 2.383944 1_555
Co1 Ge1 2.383944 1_545
Co1 Ge8 2.434725 1_655
Co1 Ge9 2.434725 1_655
Co2 Ge6 2.342417 1_455
Co2 Ge3 2.383948 1_556
Co2 Ge0 2.383951 1_555
Co2 Ge9 2.434722 1_556
Co2 Ge8 2.434725 1_545
Co3 Ge7 2.342417 1_655
Co3 Ge2 2.383948 1_554
Co3 Ge1 2.383951 1_555
Co3 Ge8 2.434722 1_654
Co3 Ge9 2.434725 1_665
Co4 Ge5 2.431862 1_555
Co4 Ge6 2.431864 1_565
Co4 Ge7 2.431864 1_555
Co4 Ge4 2.431865 1_554
Co4 Ge3 2.746076 1_555
Co4 Ge1 2.746076 1_555
Co5 Ge4 2.431862 1_555
Co5 Ge7 2.431864 1_545
Co5 Ge6 2.431864 1_555
Co5 Ge5 2.431865 1_556
Co5 Ge2 2.746076 1_555
Co5 Ge0 2.746076 1_555
Ge0 Ge5 2.670147 1_556
Ge0 Ge7 2.670152 1_545
Ge1 Ge4 2.670147 1_554
Ge1 Ge6 2.670152 1_565
Ge2 Ge4 2.670144 1_555
Ge2 Ge6 2.670152 1_555
Ge3 Ge5 2.670144 1_555
Ge3 Ge7 2.670152 1_555
Ge4 Nd2 2.932183 1_555
Ge4 Nd1 3.157055 1_555
Ge4 Nd1 3.157060 1_566
Ge4 Nd0 3.264127 1_555
Ge5 Nd3 2.932183 1_555
Ge5 Nd0 3.157055 1_555
Ge5 Nd0 3.157060 1_544
Ge5 Nd1 3.264127 1_555
Ge6 Nd0 2.932183 1_545
Ge6 Nd3 3.157052 1_545
Ge6 Nd3 3.157057 1_556
Ge6 Nd2 3.264139 1_655
Ge7 Nd1 2.932183 1_565
Ge7 Nd2 3.157052 1_565
Ge7 Nd2 3.157057 1_554
Ge7 Nd3 3.264139 1_455
Ge8 Nd3 3.171262 1_455
Ge8 Nd0 3.171263 1_455
Ge8 Nd1 3.171263 1_566
Ge8 Nd2 3.171265 1_555
Ge9 Nd2 3.171262 1_555
Ge9 Nd0 3.171263 1_444
Ge9 Nd1 3.171263 1_555
Ge9 Nd3 3.171265 1_455
