# generated using pymatgen
data_CrFeAs
_symmetry_space_group_name_H-M   'P 1'
_cell_length_a   3.68395100
_cell_length_b   6.06932643
_cell_length_c   6.06932643
_cell_angle_alpha   120.00000472
_cell_angle_beta   90.00000000
_cell_angle_gamma   90.00000000
_symmetry_Int_Tables_number   1
_chemical_formula_structural   CrFeAs
_chemical_formula_sum   'Cr3 Fe3 As3'
_cell_volume   117.52369802
_cell_formula_units_Z   3
loop_
 _symmetry_equiv_pos_site_id
 _symmetry_equiv_pos_as_xyz
  1  'x, y, z'
loop_
 _atom_site_type_symbol
 _atom_site_label
 _atom_site_symmetry_multiplicity
 _atom_site_fract_x
 _atom_site_fract_y
 _atom_site_fract_z
 _atom_site_occupancy
  Cr  Cr0  1  0.00000000  0.41257200  0.41257200  1
  Cr  Cr1  1  0.00000000  0.00000000  0.58742800  1
  Cr  Cr2  1  0.00000000  0.58742800  0.00000000  1
  Fe  Fe0  1  0.50000000  0.75345400  0.75345400  1
  Fe  Fe1  1  0.50000000  0.00000000  0.24654600  1
  Fe  Fe2  1  0.50000000  0.24654600  0.00000000  1
  As  As0  1  0.50000000  0.66666700  0.33333300  1
  As  As1  1  0.50000000  0.33333300  0.66666700  1
  As  As2  1  0.00000000  0.00000000  0.00000000  1
loop_
_geom_bond_atom_site_label_1
_geom_bond_atom_site_label_2
_geom_bond_distance
_geom_bond_site_symmetry_2
As0 Fe1 2.331537 1_565
As0 Fe2 2.331541 1_555
As0 Fe0 2.331543 1_555
As0 Cr2 2.596952 1_555
As0 Cr2 2.596952 1_655
As0 Cr1 2.596953 1_565
As0 Cr1 2.596953 1_665
As0 Cr0 2.596956 1_655
As0 Cr0 2.596956 1_555
As1 Fe2 2.331537 1_556
As1 Fe1 2.331541 1_555
As1 Fe0 2.331543 1_555
As1 Cr1 2.596952 1_655
As1 Cr1 2.596952 1_555
As1 Cr2 2.596953 1_556
As1 Cr2 2.596953 1_656
As1 Cr0 2.596956 1_555
As1 Cr0 2.596956 1_655
As2 Fe0 2.373182 1_544
As2 Fe0 2.373182 1_444
As2 Fe1 2.373182 1_455
As2 Fe2 2.373182 1_455
As2 Fe2 2.373182 1_555
As2 Fe1 2.373182 1_555
As2 Cr0 2.504034 1_555
As2 Cr2 2.504034 1_545
As2 Cr1 2.504034 1_554
