# generated using pymatgen
data_Mg3Si4
_symmetry_space_group_name_H-M   'P 1'
_cell_length_a   5.75972200
_cell_length_b   6.93378141
_cell_length_c   7.20473915
_cell_angle_alpha   113.72595910
_cell_angle_beta   91.15196726
_cell_angle_gamma   107.71001181
_symmetry_Int_Tables_number   1
_chemical_formula_structural   Mg3Si4
_chemical_formula_sum   'Mg6 Si8'
_cell_volume   247.55779111
_cell_formula_units_Z   2
loop_
 _symmetry_equiv_pos_site_id
 _symmetry_equiv_pos_as_xyz
  1  'x, y, z'
loop_
 _atom_site_type_symbol
 _atom_site_label
 _atom_site_symmetry_multiplicity
 _atom_site_fract_x
 _atom_site_fract_y
 _atom_site_fract_z
 _atom_site_occupancy
  Mg  Mg0  1  0.46274800  0.54430300  0.38888900  1
  Mg  Mg1  1  0.85392400  0.97877300  0.51078800  1
  Mg  Mg2  1  0.31908500  0.21950100  0.88979800  1
  Mg  Mg3  1  0.83500400  0.25999500  0.95845300  1
  Mg  Mg4  1  0.97594300  0.56935800  0.42828700  1
  Mg  Mg5  1  0.07979400  0.09170600  0.21297900  1
  Si  Si0  1  0.39047500  0.83516100  0.84989900  1
  Si  Si1  1  0.66509800  0.37901400  0.66077300  1
  Si  Si2  1  0.57483200  0.14580200  0.25541000  1
  Si  Si3  1  0.76534300  0.66167000  0.07646900  1
  Si  Si4  1  0.80390800  0.80629300  0.80679500  1
  Si  Si5  1  0.36712300  0.94663500  0.46165100  1
  Si  Si6  1  0.15084600  0.41309600  0.67195700  1
  Si  Si7  1  0.25610500  0.64874300  0.07454200  1
loop_
_geom_bond_atom_site_label_1
_geom_bond_atom_site_label_2
_geom_bond_distance
_geom_bond_site_symmetry_2
Mg0 Si2 2.819272 1_555
Mg0 Si5 2.851322 1_555
Mg0 Mg4 2.874207 1_455
Mg0 Mg4 2.908956 1_555
Mg0 Mg1 2.929981 1_555
Mg0 Mg5 2.965703 1_555
Mg0 Si7 2.967504 1_555
Mg0 Si6 2.976626 1_555
Mg0 Si1 3.006062 1_555
Mg0 Si4 3.068483 1_555
Mg0 Si3 3.087930 1_555
Mg0 Si0 3.232413 1_555
Mg0 Mg2 3.303996 1_554
Mg1 Si6 2.704614 1_665
Mg1 Si5 2.748267 1_555
Mg1 Si4 2.815854 1_555
Mg1 Si3 2.933084 1_555
Mg1 Si5 3.048207 1_655
Mg1 Mg3 3.049446 1_565
Mg1 Si1 3.085851 1_565
Mg1 Si2 3.168470 1_565
Mg2 Si0 2.721858 1_545
Mg2 Si6 2.762205 1_555
Mg2 Si1 2.859654 1_555
Mg2 Si7 2.872238 1_556
Mg2 Mg3 2.911209 1_555
Mg2 Mg3 2.918456 1_455
Mg2 Si5 2.971153 1_545
Mg2 Si3 3.092496 1_556
Mg3 Si3 2.725579 1_556
Mg3 Si7 2.823928 1_656
Mg3 Si4 2.829432 1_545
Mg3 Si1 2.840729 1_555
Mg3 Si2 2.867090 1_556
Mg3 Si0 3.053074 1_545
Mg3 Mg5 3.054707 1_656
Mg3 Si6 3.071856 1_655
Mg3 Mg4 3.115383 1_556
Mg4 Si6 2.719283 1_655
Mg4 Si5 2.804232 1_655
Mg4 Si1 2.866168 1_555
Mg4 Si2 2.885575 1_555
Mg4 Si4 2.934513 1_555
Mg4 Si3 3.156008 1_555
Mg4 Si7 3.186900 1_655
Mg5 Si3 2.724215 1_445
Mg5 Si2 2.754261 1_555
Mg5 Si4 2.871381 1_444
Mg5 Si2 3.049651 1_455
Mg5 Si5 3.050302 1_545
Mg5 Si6 3.086934 1_555
Si0 Si7 2.452451 1_556
Si0 Si4 2.465077 1_555
Si0 Si6 2.562264 1_555
Si0 Si2 2.778913 1_566
Si1 Si4 2.557388 1_555
Si1 Si2 2.653619 1_555
Si1 Si5 2.702077 1_545
Si1 Si6 2.731892 1_655
Si1 Si3 2.768182 1_556
Si2 Si5 2.502782 1_545
Si3 Si4 2.505915 1_554
Si3 Si7 2.855331 1_655
Si3 Si7 2.906636 1_555
Si5 Si7 2.634915 1_555
Si6 Si7 2.638773 1_556
