# generated using pymatgen
data_RbEr2Cu3Se5
_symmetry_space_group_name_H-M   'P 1'
_cell_length_a   7.55391108
_cell_length_b   7.55391108
_cell_length_c   17.05048100
_cell_angle_alpha   90.00000000
_cell_angle_beta   90.00000000
_cell_angle_gamma   148.44046444
_symmetry_Int_Tables_number   1
_chemical_formula_structural   RbEr2Cu3Se5
_chemical_formula_sum   'Rb2 Er4 Cu6 Se10'
_cell_volume   509.21480797
_cell_formula_units_Z   2
loop_
 _symmetry_equiv_pos_site_id
 _symmetry_equiv_pos_as_xyz
  1  'x, y, z'
loop_
 _atom_site_type_symbol
 _atom_site_label
 _atom_site_symmetry_multiplicity
 _atom_site_fract_x
 _atom_site_fract_y
 _atom_site_fract_z
 _atom_site_occupancy
  Rb  Rb0  1  0.43909300  0.56090700  0.25000000  1
  Rb  Rb1  1  0.56090700  0.43909300  0.75000000  1
  Er  Er0  1  0.69201000  0.30799000  0.09220700  1
  Er  Er1  1  0.30799000  0.69201000  0.90779300  1
  Er  Er2  1  0.30799000  0.69201000  0.59220700  1
  Er  Er3  1  0.69201000  0.30799000  0.40779300  1
  Cu  Cu0  1  0.91562100  0.08437900  0.02984800  1
  Cu  Cu1  1  0.08437900  0.91562100  0.97015200  1
  Cu  Cu2  1  0.08437900  0.91562100  0.52984800  1
  Cu  Cu3  1  0.91562100  0.08437900  0.47015200  1
  Cu  Cu4  1  0.15852000  0.84148000  0.25000000  1
  Cu  Cu5  1  0.84148000  0.15852000  0.75000000  1
  Se  Se0  1  0.93954000  0.06046000  0.88378600  1
  Se  Se1  1  0.06046000  0.93954000  0.11621400  1
  Se  Se2  1  0.06046000  0.93954000  0.38378600  1
  Se  Se3  1  0.93954000  0.06046000  0.61621400  1
  Se  Se4  1  0.25489400  0.74510600  0.75000000  1
  Se  Se5  1  0.74510600  0.25489400  0.25000000  1
  Se  Se6  1  0.66713600  0.33286400  0.92857100  1
  Se  Se7  1  0.33286400  0.66713600  0.07142900  1
  Se  Se8  1  0.33286400  0.66713600  0.42857100  1
  Se  Se9  1  0.66713600  0.33286400  0.57142900  1
loop_
_geom_bond_atom_site_label_1
_geom_bond_atom_site_label_2
_geom_bond_distance
_geom_bond_site_symmetry_2
Rb0 Se8 3.414018 1_555
Rb0 Se7 3.414018 1_555
Rb0 Se5 3.489089 1_455
Rb0 Se5 3.489089 1_565
Rb0 Se2 3.540722 1_545
Rb0 Se2 3.540722 1_655
Rb0 Se1 3.540722 1_545
Rb0 Se1 3.540722 1_655
Rb1 Se6 3.414018 1_555
Rb1 Se9 3.414018 1_555
Rb1 Se4 3.489089 1_545
Rb1 Se4 3.489089 1_655
Rb1 Se0 3.540722 1_455
Rb1 Se0 3.540722 1_565
Rb1 Se3 3.540722 1_455
Rb1 Se3 3.540722 1_565
Er0 Se5 2.798997 1_555
Er0 Se6 2.813411 1_554
Er0 Se1 2.836396 1_545
Er0 Se1 2.836396 1_655
Er0 Se7 2.922122 1_545
Er0 Se7 2.922122 1_655
Er1 Se4 2.798997 1_555
Er1 Se7 2.813411 1_556
Er1 Se0 2.836396 1_455
Er1 Se0 2.836396 1_565
Er1 Se6 2.922122 1_455
Er1 Se6 2.922122 1_565
Er2 Se4 2.798997 1_555
Er2 Se8 2.813411 1_555
Er2 Se3 2.836396 1_565
Er2 Se3 2.836396 1_455
Er2 Se9 2.922122 1_455
Er2 Se9 2.922122 1_565
Er3 Se5 2.798997 1_555
Er3 Se9 2.813411 1_555
Er3 Se2 2.836396 1_545
Er3 Se2 2.836396 1_655
Er3 Se8 2.922122 1_545
Er3 Se8 2.922122 1_655
Cu0 Se7 2.483956 1_545
Cu0 Se7 2.483956 1_655
Cu0 Se0 2.514589 1_554
Cu0 Se1 2.569558 1_645
Cu1 Se6 2.483956 1_455
Cu1 Se6 2.483956 1_565
Cu1 Se1 2.514589 1_556
Cu1 Se0 2.569558 1_465
Cu2 Se9 2.483956 1_455
Cu2 Se9 2.483956 1_565
Cu2 Se2 2.514589 1_555
Cu2 Se3 2.569558 1_465
Cu3 Se8 2.483956 1_545
Cu3 Se8 2.483956 1_655
Cu3 Se3 2.514589 1_555
Cu3 Se2 2.569558 1_645
Cu4 Se5 2.409241 1_565
Cu4 Se5 2.409241 1_455
Cu4 Se2 2.689971 1_555
Cu4 Se1 2.689971 1_555
Cu5 Se4 2.409241 1_655
Cu5 Se4 2.409241 1_545
Cu5 Se0 2.689971 1_555
Cu5 Se3 2.689971 1_555
