# generated using pymatgen
data_Cs3Cl5O
_symmetry_space_group_name_H-M   'P 1'
_cell_length_a   10.35422262
_cell_length_b   10.35422262
_cell_length_c   6.91242700
_cell_angle_alpha   90.00000000
_cell_angle_beta   90.00000000
_cell_angle_gamma   120.00000394
_symmetry_Int_Tables_number   1
_chemical_formula_structural   Cs3Cl5O
_chemical_formula_sum   'Cs6 Cl10 O2'
_cell_volume   641.79476238
_cell_formula_units_Z   2
loop_
 _symmetry_equiv_pos_site_id
 _symmetry_equiv_pos_as_xyz
  1  'x, y, z'
loop_
 _atom_site_type_symbol
 _atom_site_label
 _atom_site_symmetry_multiplicity
 _atom_site_fract_x
 _atom_site_fract_y
 _atom_site_fract_z
 _atom_site_occupancy
  Cs  Cs0  1  0.98763400  0.62969400  0.75084900  1
  Cs  Cs1  1  0.64206000  0.01236600  0.75084900  1
  Cs  Cs2  1  0.37030600  0.35794000  0.75084900  1
  Cs  Cs3  1  0.01236600  0.37030600  0.25084900  1
  Cs  Cs4  1  0.35794000  0.98763400  0.25084900  1
  Cs  Cs5  1  0.62969400  0.64206000  0.25084900  1
  Cl  Cl0  1  0.33333300  0.66666700  0.94180700  1
  Cl  Cl1  1  0.66666700  0.33333300  0.44180700  1
  Cl  Cl2  1  0.66666700  0.33333300  0.05706800  1
  Cl  Cl3  1  0.33333300  0.66666700  0.55706800  1
  Cl  Cl4  1  0.00554900  0.23886300  0.76132400  1
  Cl  Cl5  1  0.23331400  0.99445100  0.76132400  1
  Cl  Cl6  1  0.76113700  0.76668600  0.76132400  1
  Cl  Cl7  1  0.99445100  0.76113700  0.26132400  1
  Cl  Cl8  1  0.76668600  0.00554900  0.26132400  1
  Cl  Cl9  1  0.23886300  0.23331400  0.26132400  1
  O  O0  1  0.00000000  0.00000000  0.85447200  1
  O  O1  1  0.00000000  0.00000000  0.35447200  1
loop_
_geom_bond_atom_site_label_1
_geom_bond_atom_site_label_2
_geom_bond_distance
_geom_bond_site_symmetry_2
Cl0 Cl3 2.659480 1_555
Cl0 Cs0 3.651168 1_455
Cl0 Cs1 3.651172 1_565
Cl0 Cs2 3.651178 1_555
Cl0 Cs4 3.850506 1_556
Cl0 Cs3 3.850509 1_556
Cl0 Cs5 3.850514 1_556
Cl1 Cl2 2.659480 1_555
Cl1 Cs3 3.651168 1_655
Cl1 Cs4 3.651172 1_545
Cl1 Cs5 3.651178 1_555
Cl1 Cs1 3.850506 1_555
Cl1 Cs0 3.850509 1_555
Cl1 Cs2 3.850514 1_555
Cl2 Cs3 3.658268 1_655
Cl2 Cs4 3.658272 1_545
Cl2 Cs5 3.658278 1_555
Cl2 Cs1 3.839714 1_554
Cl2 Cs0 3.839718 1_554
Cl2 Cs2 3.839723 1_554
Cl3 Cs0 3.658268 1_455
Cl3 Cs1 3.658272 1_565
Cl3 Cs2 3.658278 1_555
Cl3 Cs4 3.839714 1_555
Cl3 Cs3 3.839718 1_555
Cl3 Cs5 3.839723 1_555
Cl4 Cs1 3.292983 1_455
Cl4 Cs2 3.336595 1_555
Cl4 Cs3 3.634742 1_556
Cl4 Cs3 3.769931 1_555
Cl5 Cs2 3.292983 1_565
Cl5 Cs0 3.336595 1_455
Cl5 Cs4 3.634742 1_556
Cl5 Cs4 3.769931 1_555
Cl6 Cs0 3.292983 1_555
Cl6 Cs1 3.336595 1_565
Cl6 Cs5 3.634742 1_556
Cl6 Cs5 3.769931 1_555
Cl7 Cs4 3.292983 1_655
Cl7 Cs5 3.336595 1_555
Cl7 Cs0 3.634742 1_555
Cl7 Cs0 3.769931 1_554
Cl8 Cs5 3.292983 1_545
Cl8 Cs3 3.336595 1_655
Cl8 Cs1 3.634742 1_555
Cl8 Cs1 3.769931 1_554
Cl9 Cs3 3.292983 1_555
Cl9 Cs4 3.336595 1_545
Cl9 Cs2 3.634742 1_555
Cl9 Cs2 3.769931 1_554
