# generated using pymatgen
data_SrSi
_symmetry_space_group_name_H-M   'P 1'
_cell_length_a   4.04645073
_cell_length_b   6.12276327
_cell_length_c   8.91174552
_cell_angle_alpha   90.00000000
_cell_angle_beta   90.00000000
_cell_angle_gamma   90.00000000
_symmetry_Int_Tables_number   1
_chemical_formula_structural   SrSi
_chemical_formula_sum   'Sr4 Si4'
_cell_volume   220.79259380
_cell_formula_units_Z   4
loop_
 _symmetry_equiv_pos_site_id
 _symmetry_equiv_pos_as_xyz
  1  'x, y, z'
loop_
 _atom_site_type_symbol
 _atom_site_label
 _atom_site_symmetry_multiplicity
 _atom_site_fract_x
 _atom_site_fract_y
 _atom_site_fract_z
 _atom_site_occupancy
  Sr  Sr0  1  0.25000000  0.39158148  0.68061092  1
  Sr  Sr1  1  0.75000000  0.60841852  0.31938908  1
  Sr  Sr2  1  0.75000000  0.89158148  0.81938908  1
  Sr  Sr3  1  0.25000000  0.10841852  0.18061092  1
  Si  Si0  1  0.25000000  0.89346566  0.53283437  1
  Si  Si1  1  0.75000000  0.10653434  0.46716563  1
  Si  Si2  1  0.75000000  0.39346566  0.96716563  1
  Si  Si3  1  0.25000000  0.60653434  0.03283437  1
loop_
_geom_bond_atom_site_label_1
_geom_bond_atom_site_label_2
_geom_bond_distance
_geom_bond_site_symmetry_2
Si0 Si1 2.477464 1_565
Si0 Si1 2.477464 1_465
Si0 Sr2 3.258062 1_455
Si0 Sr2 3.258062 1_555
Si0 Sr1 3.279890 1_455
Si0 Sr1 3.279890 1_555
Si0 Sr0 3.322033 1_565
Si0 Sr0 3.343228 1_555
Si0 Sr3 3.403673 1_565
Si1 Sr3 3.258062 1_555
Si1 Sr3 3.258062 1_655
Si1 Sr0 3.279890 1_655
Si1 Sr0 3.279890 1_555
Si1 Sr1 3.322033 1_545
Si1 Sr1 3.343228 1_555
Si1 Sr2 3.403673 1_545
Si2 Si3 2.477464 1_656
Si2 Si3 2.477464 1_556
Si2 Sr0 3.258062 1_555
Si2 Sr0 3.258062 1_655
Si2 Sr3 3.279890 1_556
Si2 Sr3 3.279890 1_656
Si2 Sr2 3.322033 1_555
Si2 Sr2 3.343228 1_545
Si2 Sr1 3.403673 1_556
Si3 Sr1 3.258062 1_455
Si3 Sr1 3.258062 1_555
Si3 Sr2 3.279890 1_554
Si3 Sr2 3.279890 1_454
Si3 Sr3 3.322033 1_555
Si3 Sr3 3.343228 1_565
Si3 Sr0 3.403673 1_554
