# generated using pymatgen
data_Li9Mn2Co5O16
_symmetry_space_group_name_H-M   'P 1'
_cell_length_a   5.89663100
_cell_length_b   6.48806139
_cell_length_c   7.75901668
_cell_angle_alpha   89.05295058
_cell_angle_beta   98.52500822
_cell_angle_gamma   103.11946202
_symmetry_Int_Tables_number   1
_chemical_formula_structural   Li9Mn2Co5O16
_chemical_formula_sum   'Li9 Mn2 Co5 O16'
_cell_volume   285.85496530
_cell_formula_units_Z   1
loop_
 _symmetry_equiv_pos_site_id
 _symmetry_equiv_pos_as_xyz
  1  'x, y, z'
loop_
 _atom_site_type_symbol
 _atom_site_label
 _atom_site_symmetry_multiplicity
 _atom_site_fract_x
 _atom_site_fract_y
 _atom_site_fract_z
 _atom_site_occupancy
  Li  Li0  1  0.12139400  0.13571200  0.38414000  1
  Li  Li1  1  0.61256800  0.61660100  0.86617300  1
  Li  Li2  1  0.35342400  0.87055600  0.61571900  1
  Li  Li3  1  0.87907600  0.37697100  0.13438700  1
  Li  Li4  1  0.63993100  0.13663600  0.38766100  1
  Li  Li5  1  0.11915600  0.61850000  0.86048900  1
  Li  Li6  1  0.88696300  0.86254100  0.62449500  1
  Li  Li7  1  0.37791900  0.38041900  0.12588100  1
  Li  Li8  1  0.99713000  0.50152100  0.50099300  1
  Mn  Mn0  1  0.00407300  0.00027300  0.00195800  1
  Mn  Mn1  1  0.24803500  0.74757500  0.25312900  1
  Co  Co0  1  0.50034200  0.50262400  0.49996000  1
  Co  Co1  1  0.75462300  0.25587200  0.74161600  1
  Co  Co2  1  0.50268000  0.99767400  0.99908200  1
  Co  Co3  1  0.75628900  0.75279100  0.25655800  1
  Co  Co4  1  0.24379900  0.25149300  0.74115600  1
  O  O0  1  0.82771700  0.04312900  0.18606300  1
  O  O1  1  0.31747800  0.54618000  0.68385600  1
  O  O2  1  0.07424800  0.81134000  0.42314900  1
  O  O3  1  0.56329300  0.28358400  0.93182000  1
  O  O4  1  0.29875600  0.04538900  0.16565800  1
  O  O5  1  0.79437900  0.55361900  0.68443400  1
  O  O6  1  0.54202700  0.81018600  0.41271500  1
  O  O7  1  0.06086200  0.29097300  0.93630400  1
  O  O8  1  0.44138600  0.19226100  0.56680700  1
  O  O9  1  0.95770400  0.70592700  0.08268200  1
  O  O10  1  0.71043500  0.94142800  0.84483700  1
  O  O11  1  0.19555900  0.46071200  0.30950600  1
  O  O12  1  0.92950400  0.18199000  0.57689900  1
  O  O13  1  0.43562200  0.71242400  0.06802600  1
  O  O14  1  0.17510600  0.94762600  0.81966900  1
  O  O15  1  0.67852100  0.46547400  0.31417900  1
loop_
_geom_bond_atom_site_label_1
_geom_bond_atom_site_label_2
_geom_bond_distance
_geom_bond_site_symmetry_2
Li0 O12 2.068368 1_455
Li0 O2 2.082378 1_545
Li0 O0 2.119166 1_455
Li0 O11 2.142187 1_555
Li0 O8 2.147959 1_555
Li0 O4 2.268837 1_555
Li1 O5 1.992705 1_555
Li1 O1 2.041631 1_555
Li1 O10 2.065589 1_555
Li1 O3 2.175940 1_555
Li1 O13 2.176981 1_556
Li1 O9 2.404757 1_556
Li2 O2 2.023038 1_555
Li2 O8 2.076137 1_565
Li2 O1 2.132506 1_555
Li2 O6 2.146789 1_555
Li2 O14 2.148941 1_555
Li2 O10 2.506291 1_555
Li3 O11 2.106270 1_655
Li3 O15 2.120891 1_555
Li3 O9 2.123373 1_555
Li3 O7 2.147278 1_654
Li3 O0 2.157195 1_555
Li3 O3 2.226272 1_554
Li4 O8 2.030727 1_555
Li4 O12 2.049619 1_555
Li4 O6 2.078867 1_545
Li4 O15 2.169475 1_555
Li4 O0 2.211508 1_555
Li4 O4 2.414636 1_555
Li5 O1 2.052201 1_555
Li5 O14 2.111363 1_555
Li5 O5 2.142007 1_455
Li5 O7 2.160304 1_555
Li5 O9 2.228084 1_456
Li5 O13 2.252094 1_556
Li6 O5 2.019727 1_555
Li6 O12 2.064253 1_565
Li6 O14 2.079390 1_655
Li6 O2 2.113236 1_655
Li6 O10 2.250942 1_555
Li6 O6 2.380420 1_555
Li7 O11 2.047107 1_555
Li7 O15 2.096609 1_555
Li7 O4 2.144298 1_555
Li7 O13 2.153576 1_555
Li7 O3 2.165124 1_554
Li7 O7 2.171649 1_554
Li8 O2 2.058770 1_655
Li8 O5 2.067196 1_555
Li8 O11 2.077416 1_655
Li8 O12 2.111340 1_555
Li8 O1 2.153087 1_655
Li8 O15 2.165567 1_555
Mn0 O7 1.913381 1_554
Mn0 O10 1.928586 1_444
Mn0 O14 1.931199 1_544
Mn0 O0 1.945268 1_455
Mn0 O4 1.960965 1_555
Mn0 O9 1.971887 1_445
Mn1 O11 1.871597 1_555
Mn1 O2 1.890196 1_555
Mn1 O6 1.940102 1_555
Mn1 O9 1.970642 1_455
Mn1 O13 1.983585 1_555
Mn1 O4 2.009500 1_565
Co0 O15 1.953280 1_555
Co0 O1 1.971362 1_555
Co0 O8 2.036128 1_555
Co0 O5 2.045437 1_555
Co0 O6 2.069449 1_555
Co0 O11 2.119337 1_555
Co1 O12 1.887314 1_555
Co1 O5 1.944371 1_555
Co1 O3 2.019317 1_555
Co1 O8 2.085969 1_555
Co1 O7 2.147211 1_655
Co1 O10 2.153602 1_545
Co2 O3 1.887714 1_565
Co2 O13 1.888239 1_556
Co2 O10 1.928290 1_555
Co2 O4 1.963472 1_566
Co2 O14 2.169633 1_555
Co2 O0 2.190513 1_566
Co3 O15 1.878915 1_555
Co3 O0 1.923300 1_565
Co3 O6 1.971114 1_555
Co3 O9 1.993902 1_555
Co3 O2 2.074771 1_655
Co3 O13 2.179808 1_555
Co4 O1 1.921987 1_555
Co4 O8 2.005712 1_555
Co4 O14 2.023105 1_545
Co4 O7 2.035783 1_555
Co4 O12 2.049784 1_455
Co4 O3 2.187899 1_555
