# generated using pymatgen
data_KV3O8
_symmetry_space_group_name_H-M   'P 1'
_cell_length_a   8.39336692
_cell_length_b   4.99849940
_cell_length_c   7.67201694
_cell_angle_alpha   81.86481302
_cell_angle_beta   90.00000000
_cell_angle_gamma   90.00000000
_symmetry_Int_Tables_number   1
_chemical_formula_structural   KV3O8
_chemical_formula_sum   'K2 V6 O16'
_cell_volume   318.63460250
_cell_formula_units_Z   2
loop_
 _symmetry_equiv_pos_site_id
 _symmetry_equiv_pos_as_xyz
  1  'x, y, z'
loop_
 _atom_site_type_symbol
 _atom_site_label
 _atom_site_symmetry_multiplicity
 _atom_site_fract_x
 _atom_site_fract_y
 _atom_site_fract_z
 _atom_site_occupancy
  K  K0  1  0.25000000  0.04016442  0.06269031  1
  K  K1  1  0.75000000  0.95983558  0.93730969  1
  V  V0  1  0.55363789  0.44657770  0.31140375  1
  V  V1  1  0.94636211  0.44657770  0.31140375  1
  V  V2  1  0.75000000  0.92833877  0.42373842  1
  V  V3  1  0.44636211  0.55342230  0.68859625  1
  V  V4  1  0.25000000  0.07166123  0.57626158  1
  V  V5  1  0.05363789  0.55342230  0.68859625  1
  O  O0  1  0.58735798  0.68343269  0.49415711  1
  O  O1  1  0.08735798  0.31656731  0.50584289  1
  O  O2  1  0.25000000  0.88187924  0.42324925  1
  O  O3  1  0.59978620  0.12139262  0.26444709  1
  O  O4  1  0.43260611  0.58150216  0.16136702  1
  O  O5  1  0.41264202  0.31656731  0.50584289  1
  O  O6  1  0.75000000  0.11812076  0.57675075  1
  O  O7  1  0.56739389  0.41849784  0.83863298  1
  O  O8  1  0.40021380  0.87860738  0.73555291  1
  O  O9  1  0.75000000  0.59429469  0.23789206  1
  O  O10  1  0.06739389  0.58150216  0.16136702  1
  O  O11  1  0.09978620  0.87860738  0.73555291  1
  O  O12  1  0.90021380  0.12139262  0.26444709  1
  O  O13  1  0.25000000  0.40570531  0.76210794  1
  O  O14  1  0.93260611  0.41849784  0.83863298  1
  O  O15  1  0.91264202  0.68343269  0.49415711  1
loop_
_geom_bond_atom_site_label_1
_geom_bond_atom_site_label_2
_geom_bond_distance
_geom_bond_site_symmetry_2
K0 O13 2.732025 1_554
K0 O2 2.767401 1_545
K0 O4 2.772569 1_545
K0 O10 2.772569 1_545
K0 O11 3.019018 1_544
K0 O8 3.019018 1_544
K0 O4 3.289948 1_555
K0 O10 3.289948 1_555
K0 O12 3.370174 1_455
K0 O3 3.370174 1_555
K1 O9 2.732025 1_556
K1 O6 2.767401 1_565
K1 O14 2.772569 1_565
K1 O7 2.772569 1_565
K1 O12 3.019018 1_566
K1 O3 3.019018 1_566
K1 O7 3.289948 1_555
K1 O14 3.289948 1_555
K1 O8 3.370174 1_555
K1 O11 3.370174 1_655
O0 V2 1.861937 1_555
O0 V3 1.942613 1_555
O0 V0 1.979246 1_555
O1 V4 1.861937 1_555
O1 V1 1.942613 1_455
O1 V5 1.979246 1_555
O2 V4 1.610321 1_565
O3 V0 1.757153 1_555
O3 V2 1.918472 1_545
O4 V0 1.610002 1_555
O5 V4 1.861937 1_555
O5 V0 1.942613 1_555
O5 V3 1.979246 1_555
O6 V2 1.610321 1_545
O7 V3 1.610002 1_555
O8 V3 1.757153 1_555
O8 V4 1.918472 1_565
O9 V1 1.860582 1_555
O9 V0 1.860582 1_555
O9 V2 2.344078 1_555
O10 V1 1.610002 1_455
O11 V5 1.757153 1_555
O11 V4 1.918472 1_565
O12 V1 1.757153 1_555
O12 V2 1.918472 1_545
O13 V3 1.860582 1_555
O13 V5 1.860582 1_555
O13 V4 2.344078 1_555
O14 V5 1.610002 1_655
O15 V2 1.861937 1_555
O15 V5 1.942613 1_655
O15 V1 1.979246 1_555
