# generated using pymatgen
data_LuRhO3
_symmetry_space_group_name_H-M   'P 1'
_cell_length_a   5.15042715
_cell_length_b   5.66071551
_cell_length_c   7.48237152
_cell_angle_alpha   90.00000000
_cell_angle_beta   90.00000000
_cell_angle_gamma   90.00000000
_symmetry_Int_Tables_number   1
_chemical_formula_structural   LuRhO3
_chemical_formula_sum   'Lu4 Rh4 O12'
_cell_volume   218.14931124
_cell_formula_units_Z   4
loop_
 _symmetry_equiv_pos_site_id
 _symmetry_equiv_pos_as_xyz
  1  'x, y, z'
loop_
 _atom_site_type_symbol
 _atom_site_label
 _atom_site_symmetry_multiplicity
 _atom_site_fract_x
 _atom_site_fract_y
 _atom_site_fract_z
 _atom_site_occupancy
  Lu  Lu0  1  0.53112646  0.58514376  0.25000000  1
  Lu  Lu1  1  0.96887354  0.08514376  0.25000000  1
  Lu  Lu2  1  0.46887354  0.41485624  0.75000000  1
  Lu  Lu3  1  0.03112646  0.91485624  0.75000000  1
  Rh  Rh0  1  0.00000000  0.50000000  0.00000000  1
  Rh  Rh1  1  0.50000000  -0.00000000  0.50000000  1
  Rh  Rh2  1  0.00000000  0.50000000  0.50000000  1
  Rh  Rh3  1  0.50000000  -0.00000000  0.00000000  1
  O  O0  1  0.35538815  0.93966727  0.25000000  1
  O  O1  1  0.14461185  0.43966727  0.25000000  1
  O  O2  1  0.64461185  0.06033273  0.75000000  1
  O  O3  1  0.85538815  0.56033273  0.75000000  1
  O  O4  1  0.82615650  0.81292084  0.06723306  1
  O  O5  1  0.67384350  0.31292084  0.43276694  1
  O  O6  1  0.17384350  0.18707916  0.56723306  1
  O  O7  1  0.32615650  0.68707916  0.93276694  1
  O  O8  1  0.17384350  0.18707916  0.93276694  1
  O  O9  1  0.32615650  0.68707916  0.56723306  1
  O  O10  1  0.82615650  0.81292084  0.43276694  1
  O  O11  1  0.67384350  0.31292084  0.06723306  1
loop_
_geom_bond_atom_site_label_1
_geom_bond_atom_site_label_2
_geom_bond_distance
_geom_bond_site_symmetry_2
Lu0 O1 2.154322 1_555
Lu0 O11 2.187476 1_555
Lu0 O5 2.187476 1_555
Lu0 O0 2.201529 1_555
Lu0 O10 2.416944 1_555
Lu0 O4 2.416944 1_555
Lu0 O7 2.661140 1_554
Lu0 O9 2.661140 1_555
Lu1 O0 2.154322 1_645
Lu1 O4 2.187476 1_545
Lu1 O10 2.187476 1_545
Lu1 O1 2.201529 1_655
Lu1 O11 2.416944 1_555
Lu1 O5 2.416944 1_555
Lu1 O8 2.661140 1_654
Lu1 O6 2.661140 1_655
Lu2 O3 2.154322 1_555
Lu2 O9 2.187476 1_555
Lu2 O7 2.187476 1_555
Lu2 O2 2.201529 1_555
Lu2 O6 2.416944 1_555
Lu2 O8 2.416944 1_555
Lu2 O11 2.661140 1_556
Lu2 O5 2.661140 1_555
Lu3 O2 2.154322 1_465
Lu3 O6 2.187476 1_565
Lu3 O8 2.187476 1_565
Lu3 O3 2.201529 1_455
Lu3 O9 2.416944 1_555
Lu3 O7 2.416944 1_555
Lu3 O4 2.661140 1_456
Lu3 O10 2.661140 1_455
O0 Rh1 2.042181 1_565
O0 Rh3 2.042181 1_565
O1 Rh2 2.042181 1_555
O1 Rh0 2.042181 1_555
O2 Rh1 2.042181 1_555
O2 Rh3 2.042181 1_556
O3 Rh2 2.042181 1_655
O3 Rh0 2.042181 1_656
O4 Rh0 2.047549 1_655
O4 Rh3 2.048521 1_565
O5 Rh1 2.047549 1_555
O5 Rh2 2.048521 1_655
O6 Rh2 2.047549 1_555
O6 Rh1 2.048521 1_555
O7 Rh3 2.047549 1_566
O7 Rh0 2.048521 1_556
O8 Rh0 2.047549 1_556
O8 Rh3 2.048521 1_556
O9 Rh1 2.047549 1_565
O9 Rh2 2.048521 1_555
O10 Rh2 2.047549 1_655
O10 Rh1 2.048521 1_565
O11 Rh3 2.047549 1_555
O11 Rh0 2.048521 1_655
