# generated using pymatgen
data_K2LiH2(SeO3)2
_symmetry_space_group_name_H-M   'P 1'
_cell_length_a   6.13045192
_cell_length_b   5.53428378
_cell_length_c   8.31152993
_cell_angle_alpha   108.02466456
_cell_angle_beta   123.09887744
_cell_angle_gamma   89.93017774
_symmetry_Int_Tables_number   1
_chemical_formula_structural   K2LiH2(SeO3)2
_chemical_formula_sum   'K2 Li1 H2 Se2 O6'
_cell_volume   219.60115648
_cell_formula_units_Z   1
loop_
 _symmetry_equiv_pos_site_id
 _symmetry_equiv_pos_as_xyz
  1  'x, y, z'
loop_
 _atom_site_type_symbol
 _atom_site_label
 _atom_site_symmetry_multiplicity
 _atom_site_fract_x
 _atom_site_fract_y
 _atom_site_fract_z
 _atom_site_occupancy
  K  K0  1  0.26086100  0.65549000  0.28217400  1
  K  K1  1  0.73913900  0.34451000  0.71782600  1
  Li  Li0  1  0.50000000  0.50000000  0.00000000  1
  H  H0  1  0.27678000  0.16809400  0.07160500  1
  H  H1  1  0.72322000  0.83190600  0.92839500  1
  Se  Se0  1  0.93845900  0.16910400  0.31810200  1
  Se  Se1  1  0.06154100  0.83089600  0.68189800  1
  O  O0  1  0.23677700  0.24247400  0.96840700  1
  O  O1  1  0.76322300  0.75752600  0.03159300  1
  O  O2  1  0.84060200  0.43638700  0.26099700  1
  O  O3  1  0.15939800  0.56361300  0.73900300  1
  O  O4  1  0.24570100  0.18183400  0.36407900  1
  O  O5  1  0.75429900  0.81816600  0.63592100  1
loop_
_geom_bond_atom_site_label_1
_geom_bond_atom_site_label_2
_geom_bond_distance
_geom_bond_site_symmetry_2
K0 O5 2.694532 1_555
K0 O2 2.742135 1_455
K0 O1 2.783485 1_455
K0 O4 2.792584 1_565
K0 O0 2.817593 1_554
K0 O4 2.918486 1_555
K1 O4 2.694532 1_555
K1 O3 2.742135 1_655
K1 O0 2.783485 1_655
K1 O5 2.792584 1_545
K1 O1 2.817593 1_556
K1 O5 2.918486 1_555
Li0 O1 2.003841 1_555
Li0 O0 2.003841 1_554
Li0 O2 2.171045 1_555
Li0 O3 2.171045 1_554
H0 O0 0.976635 1_554
H0 K0 2.759139 1_555
H1 O1 0.976635 1_556
H1 K1 2.759139 1_555
O0 Se1 2.422463 1_545
O1 Se0 2.422463 1_565
O2 Se0 1.701352 1_555
O3 Se1 1.701352 1_555
O4 Se0 1.701833 1_455
O5 Se1 1.701833 1_655
