# generated using pymatgen
data_Ba2FeS3
_symmetry_space_group_name_H-M   'P 1'
_cell_length_a   4.17253400
_cell_length_b   12.10000100
_cell_length_c   12.18052100
_cell_angle_alpha   90.00000000
_cell_angle_beta   90.00000000
_cell_angle_gamma   90.00000000
_symmetry_Int_Tables_number   1
_chemical_formula_structural   Ba2FeS3
_chemical_formula_sum   'Ba8 Fe4 S12'
_cell_volume   614.96607075
_cell_formula_units_Z   4
loop_
 _symmetry_equiv_pos_site_id
 _symmetry_equiv_pos_as_xyz
  1  'x, y, z'
loop_
 _atom_site_type_symbol
 _atom_site_label
 _atom_site_symmetry_multiplicity
 _atom_site_fract_x
 _atom_site_fract_y
 _atom_site_fract_z
 _atom_site_occupancy
  Ba  Ba0  1  0.25000000  0.48035100  0.82522800  1
  Ba  Ba1  1  0.25000000  0.01964900  0.32522800  1
  Ba  Ba2  1  0.75000000  0.51964900  0.17477200  1
  Ba  Ba3  1  0.75000000  0.98035100  0.67477200  1
  Ba  Ba4  1  0.25000000  0.67057000  0.48764300  1
  Ba  Ba5  1  0.25000000  0.82943000  0.98764300  1
  Ba  Ba6  1  0.75000000  0.32943000  0.51235700  1
  Ba  Ba7  1  0.75000000  0.17057000  0.01235700  1
  Fe  Fe0  1  0.25000000  0.20046100  0.74511000  1
  Fe  Fe1  1  0.25000000  0.29953900  0.24511000  1
  Fe  Fe2  1  0.75000000  0.79953900  0.25489000  1
  Fe  Fe3  1  0.75000000  0.70046100  0.75489000  1
  S  S0  1  0.25000000  0.05475800  0.85729400  1
  S  S1  1  0.25000000  0.44524200  0.35729400  1
  S  S2  1  0.75000000  0.94524200  0.14270600  1
  S  S3  1  0.75000000  0.55475800  0.64270600  1
  S  S4  1  0.25000000  0.14450400  0.56900900  1
  S  S5  1  0.25000000  0.35549600  0.06900900  1
  S  S6  1  0.75000000  0.85549600  0.43099100  1
  S  S7  1  0.75000000  0.64450400  0.93099100  1
  S  S8  1  0.25000000  0.73711700  0.23423800  1
  S  S9  1  0.25000000  0.76288300  0.73423800  1
  S  S10  1  0.75000000  0.26288300  0.76576200  1
  S  S11  1  0.75000000  0.23711700  0.26576200  1
loop_
_geom_bond_atom_site_label_1
_geom_bond_atom_site_label_2
_geom_bond_distance
_geom_bond_site_symmetry_2
Ba0 S7 3.155517 1_555
Ba0 S7 3.155517 1_455
Ba0 S3 3.178958 1_455
Ba0 S3 3.178958 1_555
Ba0 S5 3.331601 1_556
Ba0 S10 3.435292 1_555
Ba0 S10 3.435292 1_455
Ba1 S6 3.155517 1_445
Ba1 S6 3.155517 1_545
Ba1 S2 3.178958 1_545
Ba1 S2 3.178958 1_445
Ba1 S4 3.331601 1_555
Ba1 S11 3.435292 1_455
Ba1 S11 3.435292 1_555
Ba2 S5 3.155517 1_555
Ba2 S5 3.155517 1_655
Ba2 S1 3.178958 1_555
Ba2 S1 3.178958 1_655
Ba2 S7 3.331601 1_554
Ba2 S8 3.435292 1_655
Ba2 S8 3.435292 1_555
Ba3 S4 3.155517 1_565
Ba3 S4 3.155517 1_665
Ba3 S0 3.178958 1_565
Ba3 S0 3.178958 1_665
Ba3 S6 3.331601 1_555
Ba3 S9 3.435292 1_555
Ba3 S9 3.435292 1_655
Ba4 S6 3.136169 1_455
Ba4 S6 3.136169 1_555
Ba4 S3 3.143818 1_555
Ba4 S3 3.143818 1_455
Ba4 S1 3.155073 1_555
Ba4 S8 3.189907 1_555
Ba4 S9 3.204623 1_555
Ba5 S7 3.136169 1_455
Ba5 S7 3.136169 1_555
Ba5 S2 3.143818 1_456
Ba5 S2 3.143818 1_556
Ba5 S0 3.155073 1_565
Ba5 S9 3.189907 1_555
Ba5 S8 3.204623 1_556
Ba6 S4 3.136169 1_655
Ba6 S4 3.136169 1_555
Ba6 S1 3.143818 1_555
Ba6 S1 3.143818 1_655
Ba6 S3 3.155073 1_555
Ba6 S10 3.189907 1_555
Ba6 S11 3.204623 1_555
Ba7 S5 3.136169 1_555
Ba7 S5 3.136169 1_655
Ba7 S0 3.143818 1_654
Ba7 S0 3.143818 1_554
Ba7 S2 3.155073 1_545
Ba7 S11 3.189907 1_555
Ba7 S10 3.204623 1_554
Fe0 S0 2.230561 1_555
Fe0 S10 2.232997 1_455
Fe0 S10 2.232997 1_555
Fe0 S4 2.249327 1_555
Fe1 S1 2.230561 1_555
Fe1 S11 2.232997 1_455
Fe1 S11 2.232997 1_555
Fe1 S5 2.249327 1_555
Fe2 S2 2.230561 1_555
Fe2 S8 2.232997 1_655
Fe2 S8 2.232997 1_555
Fe2 S6 2.249327 1_555
Fe3 S3 2.230561 1_555
Fe3 S9 2.232997 1_555
Fe3 S9 2.232997 1_655
Fe3 S7 2.249327 1_555
