# generated using pymatgen
data_K2Ga2As3
_symmetry_space_group_name_H-M   'P 1'
_cell_length_a   6.76220461
_cell_length_b   13.83648293
_cell_length_c   15.69994349
_cell_angle_alpha   89.61274069
_cell_angle_beta   90.00000000
_cell_angle_gamma   90.00000000
_symmetry_Int_Tables_number   1
_chemical_formula_structural   K2Ga2As3
_chemical_formula_sum   'K16 Ga16 As24'
_cell_volume   1468.93367972
_cell_formula_units_Z   8
loop_
 _symmetry_equiv_pos_site_id
 _symmetry_equiv_pos_as_xyz
  1  'x, y, z'
loop_
 _atom_site_type_symbol
 _atom_site_label
 _atom_site_symmetry_multiplicity
 _atom_site_fract_x
 _atom_site_fract_y
 _atom_site_fract_z
 _atom_site_occupancy
  K  K0  1  0.96944549  0.85604533  0.99510764  1
  K  K1  1  0.46944549  0.14395467  0.50489236  1
  K  K2  1  0.03055451  0.14395467  0.00489236  1
  K  K3  1  0.53055451  0.85604533  0.49510764  1
  K  K4  1  0.55223768  0.34673699  0.01843817  1
  K  K5  1  0.05223768  0.65326301  0.48156183  1
  K  K6  1  0.44776232  0.65326301  0.98156183  1
  K  K7  1  0.94776232  0.34673699  0.51843817  1
  K  K8  1  0.53405557  0.07837595  0.10744667  1
  K  K9  1  0.03405557  0.92162405  0.39255333  1
  K  K10  1  0.46594443  0.92162405  0.89255333  1
  K  K11  1  0.96594443  0.07837595  0.60744667  1
  K  K12  1  0.93282325  0.55753691  0.89957745  1
  K  K13  1  0.43282325  0.44246309  0.60042255  1
  K  K14  1  0.06717675  0.44246309  0.10042255  1
  K  K15  1  0.56717675  0.55753691  0.39957745  1
  Ga  Ga0  1  0.27428112  0.31448763  0.82497841  1
  Ga  Ga1  1  0.77428112  0.68551237  0.67502159  1
  Ga  Ga2  1  0.72571888  0.68551237  0.17502159  1
  Ga  Ga3  1  0.22571888  0.31448763  0.32497841  1
  Ga  Ga4  1  0.78887453  0.90894020  0.73130812  1
  Ga  Ga5  1  0.28887453  0.09105980  0.76869188  1
  Ga  Ga6  1  0.21112547  0.09105980  0.26869188  1
  Ga  Ga7  1  0.71112547  0.90894020  0.23130812  1
  Ga  Ga8  1  0.76075572  0.18340279  0.81876189  1
  Ga  Ga9  1  0.26075572  0.81659721  0.68123811  1
  Ga  Ga10  1  0.23924428  0.81659721  0.18123811  1
  Ga  Ga11  1  0.73924428  0.18340279  0.31876189  1
  Ga  Ga12  1  0.75347332  0.40793476  0.75890948  1
  Ga  Ga13  1  0.25347332  0.59206524  0.74109052  1
  Ga  Ga14  1  0.24652668  0.59206524  0.24109052  1
  Ga  Ga15  1  0.74652668  0.40793476  0.25890948  1
  As  As0  1  0.96073736  0.03184921  0.82130430  1
  As  As1  1  0.46073736  0.96815079  0.67869570  1
  As  As2  1  0.03926264  0.96815079  0.17869570  1
  As  As3  1  0.53926264  0.03184921  0.32130430  1
  As  As4  1  0.44726686  0.16542279  0.89654593  1
  As  As5  1  0.94726686  0.83457721  0.60345407  1
  As  As6  1  0.55273314  0.83457721  0.10345407  1
  As  As7  1  0.05273314  0.16542279  0.39654593  1
  As  As8  1  0.93644789  0.32811417  0.87982435  1
  As  As9  1  0.43644789  0.67188583  0.62017565  1
  As  As10  1  0.06355211  0.67188583  0.12017565  1
  As  As11  1  0.56355211  0.32811417  0.37982435  1
  As  As12  1  0.83711179  0.25427143  0.17680256  1
  As  As13  1  0.33711179  0.74572857  0.32319744  1
  As  As14  1  0.16288821  0.74572857  0.82319744  1
  As  As15  1  0.66288821  0.25427143  0.67680256  1
  As  As16  1  0.45022812  0.47343431  0.83210212  1
  As  As17  1  0.95022812  0.52656569  0.66789788  1
  As  As18  1  0.54977188  0.52656569  0.16789788  1
  As  As19  1  0.04977188  0.47343431  0.33210212  1
  As  As20  1  0.20346516  0.24366335  0.18055183  1
  As  As21  1  0.70346516  0.75633665  0.31944817  1
  As  As22  1  0.79653484  0.75633665  0.81944817  1
  As  As23  1  0.29653484  0.24366335  0.68055183  1
loop_
_geom_bond_atom_site_label_1
_geom_bond_atom_site_label_2
_geom_bond_distance
_geom_bond_site_symmetry_2
Ga0 K4 3.602160 1_556
Ga1 K5 3.602160 1_655
Ga2 K6 3.602160 1_554
Ga3 K7 3.602160 1_455
Ga4 K11 3.263407 1_565
Ga4 K10 3.348751 1_555
Ga5 K10 3.263407 1_545
Ga5 K11 3.348751 1_455
Ga6 K9 3.263407 1_545
Ga6 K8 3.348751 1_555
Ga7 K8 3.263407 1_565
Ga7 K9 3.348751 1_655
Ga8 K2 3.484881 1_656
Ga9 K3 3.484881 1_555
Ga10 K0 3.484881 1_454
Ga11 K1 3.484881 1_555
Ga12 K12 3.270295 1_555
Ga12 K13 3.332420 1_555
Ga13 K13 3.270295 1_555
Ga13 K12 3.332420 1_455
Ga14 K14 3.270295 1_555
Ga14 K15 3.332420 1_555
Ga15 K15 3.270295 1_555
Ga15 K14 3.332420 1_655
As0 Ga8 2.495295 1_555
As0 Ga5 2.503597 1_655
As0 Ga4 2.504326 1_545
As0 K2 3.316197 1_656
As0 K11 3.414618 1_555
As0 K0 3.643714 1_545
As1 Ga9 2.495295 1_555
As1 Ga4 2.503597 1_555
As1 Ga5 2.504326 1_565
As1 K3 3.316197 1_555
As1 K10 3.414618 1_555
As1 K1 3.643714 1_565
As2 Ga10 2.495295 1_555
As2 Ga7 2.503597 1_455
As2 Ga6 2.504326 1_565
As2 K0 3.316197 1_454
As2 K9 3.414618 1_555
As2 K2 3.643714 1_565
As3 Ga11 2.495295 1_555
As3 Ga6 2.503597 1_555
As3 Ga7 2.504326 1_545
As3 K1 3.316197 1_555
As3 K8 3.414618 1_555
As3 K3 3.643714 1_545
As4 Ga8 2.458251 1_555
As4 Ga5 2.502613 1_555
As4 Ga0 2.617930 1_555
As4 K4 3.244202 1_556
As4 K2 3.303853 1_556
As4 K10 3.376686 1_545
As4 K8 3.564370 1_556
As5 Ga9 2.458251 1_655
As5 Ga4 2.502613 1_555
As5 Ga1 2.617930 1_555
As5 K5 3.244202 1_655
As5 K3 3.303853 1_555
As5 K11 3.376686 1_565
As5 K9 3.564370 1_655
As6 Ga10 2.458251 1_555
As6 Ga7 2.502613 1_555
As6 Ga2 2.617930 1_555
As6 K6 3.244202 1_554
As6 K0 3.303853 1_554
As6 K8 3.376686 1_565
As6 K10 3.564370 1_554
As7 Ga11 2.458251 1_455
As7 Ga6 2.502613 1_555
As7 Ga3 2.617930 1_555
As7 K7 3.244202 1_455
As7 K1 3.303853 1_555
As7 K9 3.376686 1_545
As7 K11 3.564370 1_455
As8 Ga0 2.449107 1_655
As8 Ga12 2.515181 1_555
As8 Ga8 2.523035 1_555
As8 K12 3.191696 1_555
As8 K2 3.268916 1_656
As8 K4 3.400017 1_556
As9 Ga1 2.449107 1_555
As9 Ga13 2.515181 1_555
As9 Ga9 2.523035 1_555
As9 K13 3.191696 1_555
As9 K3 3.268916 1_555
As9 K5 3.400017 1_555
As10 Ga2 2.449107 1_455
As10 Ga14 2.515181 1_555
As10 Ga10 2.523035 1_555
As10 K14 3.191696 1_555
As10 K0 3.268916 1_454
As10 K6 3.400017 1_554
As11 Ga3 2.449107 1_555
As11 Ga15 2.515181 1_555
As11 Ga11 2.523035 1_555
As11 K15 3.191696 1_555
As11 K1 3.268916 1_555
As11 K7 3.400017 1_555
As12 As20 2.482375 1_655
As12 Ga11 2.517400 1_555
As12 Ga15 2.567984 1_555
As12 K14 3.255223 1_655
As12 K8 3.368159 1_555
As12 K2 3.373602 1_655
As12 K4 3.389179 1_555
As13 As21 2.482375 1_555
As13 Ga10 2.517400 1_555
As13 Ga14 2.567984 1_555
As13 K15 3.255223 1_555
As13 K9 3.368159 1_555
As13 K3 3.373602 1_555
As13 K5 3.389179 1_555
As14 As22 2.482375 1_455
As14 Ga9 2.517400 1_555
As14 Ga13 2.567984 1_555
As14 K12 3.255223 1_455
As14 K10 3.368159 1_555
As14 K0 3.373602 1_455
As14 K6 3.389179 1_555
As15 As23 2.482375 1_555
As15 Ga8 2.517400 1_555
As15 Ga12 2.567984 1_555
As15 K13 3.255223 1_555
As15 K11 3.368159 1_555
As15 K1 3.373602 1_555
As15 K7 3.389179 1_555
As16 Ga0 2.503636 1_555
As16 Ga12 2.522081 1_555
As16 Ga13 2.544506 1_555
As16 K6 3.431680 1_555
As16 K4 3.469586 1_556
As16 K12 3.625313 1_555
As16 K13 3.667277 1_555
As16 K12 3.838574 1_455
As17 Ga1 2.503636 1_555
As17 Ga13 2.522081 1_655
As17 Ga12 2.544506 1_555
As17 K7 3.431680 1_555
As17 K5 3.469586 1_655
As17 K13 3.625313 1_655
As17 K12 3.667277 1_555
As17 K13 3.838574 1_555
As18 Ga2 2.503636 1_555
As18 Ga14 2.522081 1_555
As18 Ga15 2.544506 1_555
As18 K4 3.431680 1_555
As18 K6 3.469586 1_554
As18 K14 3.625313 1_555
As18 K15 3.667277 1_555
As18 K14 3.838574 1_655
As19 Ga3 2.503636 1_555
As19 Ga15 2.522081 1_455
As19 Ga14 2.544506 1_555
As19 K5 3.431680 1_555
As19 K7 3.469586 1_455
As19 K15 3.625313 1_455
As19 K14 3.667277 1_555
As19 K15 3.838574 1_555
As20 Ga3 2.480828 1_555
As20 Ga6 2.517238 1_555
As20 K14 3.154601 1_555
As20 K2 3.305698 1_555
As20 K8 3.403044 1_555
As20 K4 3.745025 1_555
As21 Ga2 2.480828 1_555
As21 Ga7 2.517238 1_555
As21 K15 3.154601 1_555
As21 K3 3.305698 1_555
As21 K9 3.403044 1_655
As21 K5 3.745025 1_655
As22 Ga1 2.480828 1_555
As22 Ga4 2.517238 1_555
As22 K12 3.154601 1_555
As22 K0 3.305698 1_555
As22 K10 3.403044 1_555
As22 K6 3.745025 1_555
As23 Ga0 2.480828 1_555
As23 Ga5 2.517238 1_555
As23 K13 3.154601 1_555
As23 K1 3.305698 1_555
As23 K11 3.403044 1_455
As23 K7 3.745025 1_455
