# generated using pymatgen
data_Ni(BW)3
_symmetry_space_group_name_H-M   'P 1'
_cell_length_a   4.49655756
_cell_length_b   4.49655756
_cell_length_c   10.73782126
_cell_angle_alpha   90.00000000
_cell_angle_beta   90.00000000
_cell_angle_gamma   138.40573179
_symmetry_Int_Tables_number   1
_chemical_formula_structural   Ni(BW)3
_chemical_formula_sum   'Ni2 B6 W6'
_cell_volume   144.12766859
_cell_formula_units_Z   2
loop_
 _symmetry_equiv_pos_site_id
 _symmetry_equiv_pos_as_xyz
  1  'x, y, z'
loop_
 _atom_site_type_symbol
 _atom_site_label
 _atom_site_symmetry_multiplicity
 _atom_site_fract_x
 _atom_site_fract_y
 _atom_site_fract_z
 _atom_site_occupancy
  Ni  Ni0  1  0.50000000  0.50000000  0.50000000  1
  Ni  Ni1  1  0.50000000  0.50000000  0.00000000  1
  B  B0  1  0.08801756  0.91198244  0.39618819  1
  B  B1  1  0.91198244  0.08801756  0.60381181  1
  B  B2  1  0.08801756  0.91198244  0.10381181  1
  B  B3  1  0.91198244  0.08801756  0.89618819  1
  B  B4  1  0.20886670  0.79113330  0.25000000  1
  B  B5  1  0.79113330  0.20886670  0.75000000  1
  W  W0  1  0.78810961  0.21189039  0.39186449  1
  W  W1  1  0.21189039  0.78810961  0.60813551  1
  W  W2  1  0.78810961  0.21189039  0.10813551  1
  W  W3  1  0.21189039  0.78810961  0.89186449  1
  W  W4  1  0.50204643  0.49795357  0.25000000  1
  W  W5  1  0.49795357  0.50204643  0.75000000  1
loop_
_geom_bond_atom_site_label_1
_geom_bond_atom_site_label_2
_geom_bond_distance
_geom_bond_site_symmetry_2
Ni0 W0 2.659057 1_455
Ni0 W1 2.659057 1_545
Ni0 W1 2.659057 1_655
Ni0 W0 2.659057 1_565
Ni0 W4 2.684510 1_555
Ni0 W5 2.684510 1_555
Ni0 W1 2.686115 1_555
Ni0 W0 2.686115 1_555
Ni1 W2 2.659057 1_455
Ni1 W3 2.659057 1_654
Ni1 W2 2.659057 1_565
Ni1 W3 2.659057 1_544
Ni1 W5 2.684510 1_554
Ni1 W4 2.684510 1_555
Ni1 W2 2.686115 1_555
Ni1 W3 2.686115 1_554
B0 B4 1.869851 1_555
B0 Ni0 2.083055 1_455
B0 Ni0 2.083055 1_565
B0 W0 2.319684 1_455
B0 W0 2.319684 1_565
B0 W4 2.352756 1_455
B0 W4 2.352756 1_565
B0 W1 2.502810 1_555
B0 W0 2.521800 1_465
B1 B5 1.869851 1_555
B1 Ni0 2.083055 1_545
B1 Ni0 2.083055 1_655
B1 W1 2.319684 1_545
B1 W1 2.319684 1_655
B1 W5 2.352756 1_655
B1 W5 2.352756 1_545
B1 W0 2.502810 1_555
B1 W1 2.521800 1_645
B2 B4 1.869851 1_555
B2 Ni1 2.083055 1_455
B2 Ni1 2.083055 1_565
B2 W2 2.319684 1_455
B2 W2 2.319684 1_565
B2 W4 2.352756 1_455
B2 W4 2.352756 1_565
B2 W3 2.502810 1_554
B2 W2 2.521800 1_465
B3 B5 1.869851 1_555
B3 Ni1 2.083055 1_546
B3 Ni1 2.083055 1_656
B3 W3 2.319684 1_545
B3 W3 2.319684 1_655
B3 W5 2.352756 1_655
B3 W5 2.352756 1_545
B3 W2 2.502810 1_556
B3 W3 2.521800 1_645
B4 W2 2.305058 1_565
B4 W0 2.305058 1_565
B4 W0 2.305058 1_455
B4 W2 2.305058 1_455
B4 W4 2.360570 1_455
B4 W4 2.360570 1_565
B4 W4 2.464807 1_555
B5 W1 2.305058 1_655
B5 W3 2.305058 1_545
B5 W1 2.305058 1_545
B5 W3 2.305058 1_655
B5 W5 2.360570 1_655
B5 W5 2.360570 1_545
B5 W5 2.464807 1_555
