# generated using pymatgen
data_MgTiF4
_symmetry_space_group_name_H-M   'P 1'
_cell_length_a   3.60303800
_cell_length_b   3.60303800
_cell_length_c   5.11337400
_cell_angle_alpha   90.00000000
_cell_angle_beta   90.00000000
_cell_angle_gamma   90.00000000
_symmetry_Int_Tables_number   1
_chemical_formula_structural   MgTiF4
_chemical_formula_sum   'Mg1 Ti1 F4'
_cell_volume   66.38122213
_cell_formula_units_Z   1
loop_
 _symmetry_equiv_pos_site_id
 _symmetry_equiv_pos_as_xyz
  1  'x, y, z'
loop_
 _atom_site_type_symbol
 _atom_site_label
 _atom_site_symmetry_multiplicity
 _atom_site_fract_x
 _atom_site_fract_y
 _atom_site_fract_z
 _atom_site_occupancy
  Mg  Mg0  1  0.00000000  0.00000000  0.50000000  1
  Ti  Ti0  1  0.50000000  0.50000000  0.00000000  1
  F  F0  1  0.50000000  0.00000000  0.25520900  1
  F  F1  1  0.50000000  0.00000000  0.74479100  1
  F  F2  1  0.00000000  0.50000000  0.74479100  1
  F  F3  1  0.00000000  0.50000000  0.25520900  1
loop_
_geom_bond_atom_site_label_1
_geom_bond_atom_site_label_2
_geom_bond_distance
_geom_bond_site_symmetry_2
F0 Mg0 2.193683 1_555
F0 Mg0 2.193683 1_655
F0 Ti0 2.224509 1_545
F0 Ti0 2.224509 1_555
F1 Mg0 2.193683 1_655
F1 Mg0 2.193683 1_555
F1 Ti0 2.224509 1_556
F1 Ti0 2.224509 1_546
F2 Mg0 2.193683 1_565
F2 Mg0 2.193683 1_555
F2 Ti0 2.224509 1_456
F2 Ti0 2.224509 1_556
F3 Mg0 2.193683 1_555
F3 Mg0 2.193683 1_565
F3 Ti0 2.224509 1_555
F3 Ti0 2.224509 1_455
