# generated using pymatgen
data_Ho4CoB13
_symmetry_space_group_name_H-M   'P 1'
_cell_length_a   7.28454200
_cell_length_b   7.28454200
_cell_length_c   6.87185100
_cell_angle_alpha   90.00000000
_cell_angle_beta   90.00000000
_cell_angle_gamma   90.00000000
_symmetry_Int_Tables_number   1
_chemical_formula_structural   Ho4CoB13
_chemical_formula_sum   'Ho8 Co2 B26'
_cell_volume   364.65169575
_cell_formula_units_Z   2
loop_
 _symmetry_equiv_pos_site_id
 _symmetry_equiv_pos_as_xyz
  1  'x, y, z'
loop_
 _atom_site_type_symbol
 _atom_site_label
 _atom_site_symmetry_multiplicity
 _atom_site_fract_x
 _atom_site_fract_y
 _atom_site_fract_z
 _atom_site_occupancy
  Ho  Ho0  1  0.68476300  0.18172100  0.50000000  1
  Ho  Ho1  1  0.31523700  0.81827900  0.50000000  1
  Ho  Ho2  1  0.18476300  0.31827900  0.00000000  1
  Ho  Ho3  1  0.81523700  0.68172100  0.00000000  1
  Ho  Ho4  1  0.81827900  0.68476300  0.50000000  1
  Ho  Ho5  1  0.18172100  0.31523700  0.50000000  1
  Ho  Ho6  1  0.68172100  0.18476300  0.00000000  1
  Ho  Ho7  1  0.31827900  0.81523700  0.00000000  1
  Co  Co0  1  0.50000000  0.50000000  0.50000000  1
  Co  Co1  1  0.00000000  0.00000000  0.00000000  1
  B  B0  1  0.50000000  0.50000000  0.00000000  1
  B  B1  1  0.00000000  0.00000000  0.50000000  1
  B  B2  1  0.90919800  0.40919800  0.25000000  1
  B  B3  1  0.09080200  0.59080200  0.25000000  1
  B  B4  1  0.40919800  0.09080200  0.75000000  1
  B  B5  1  0.59080200  0.90919800  0.75000000  1
  B  B6  1  0.59080200  0.90919800  0.25000000  1
  B  B7  1  0.40919800  0.09080200  0.25000000  1
  B  B8  1  0.90919800  0.40919800  0.75000000  1
  B  B9  1  0.09080200  0.59080200  0.75000000  1
  B  B10  1  0.53908100  0.67003000  0.24569500  1
  B  B11  1  0.46091900  0.32997000  0.24569500  1
  B  B12  1  0.03908100  0.82997000  0.74569500  1
  B  B13  1  0.96091900  0.17003000  0.74569500  1
  B  B14  1  0.32997000  0.53908100  0.24569500  1
  B  B15  1  0.67003000  0.46091900  0.24569500  1
  B  B16  1  0.17003000  0.03908100  0.74569500  1
  B  B17  1  0.82997000  0.96091900  0.74569500  1
  B  B18  1  0.46091900  0.32997000  0.75430500  1
  B  B19  1  0.53908100  0.67003000  0.75430500  1
  B  B20  1  0.96091900  0.17003000  0.25430500  1
  B  B21  1  0.03908100  0.82997000  0.25430500  1
  B  B22  1  0.67003000  0.46091900  0.75430500  1
  B  B23  1  0.32997000  0.53908100  0.75430500  1
  B  B24  1  0.82997000  0.96091900  0.25430500  1
  B  B25  1  0.17003000  0.03908100  0.25430500  1
loop_
_geom_bond_atom_site_label_1
_geom_bond_atom_site_label_2
_geom_bond_distance
_geom_bond_site_symmetry_2
Co0 Ho4 2.680859 1_555
Co0 Ho1 2.680859 1_555
Co0 Ho0 2.680859 1_555
Co0 Ho5 2.680859 1_555
Co1 Ho3 2.680859 1_445
Co1 Ho2 2.680859 1_555
Co1 Ho6 2.680859 1_455
Co1 Ho7 2.680859 1_545
B0 B23 2.113239 1_554
B0 B10 2.113239 1_555
B0 B14 2.113239 1_555
B0 B11 2.113239 1_555
B0 B22 2.113239 1_554
B0 B18 2.113239 1_554
B0 B15 2.113239 1_555
B0 B19 2.113239 1_554
B0 Ho7 2.650581 1_555
B0 Ho6 2.650581 1_555
B0 Ho2 2.650581 1_555
B0 Ho3 2.650581 1_555
B1 B16 2.113239 1_555
B1 B12 2.113239 1_545
B1 B17 2.113239 1_445
B1 B21 2.113239 1_545
B1 B24 2.113239 1_445
B1 B25 2.113239 1_555
B1 B13 2.113239 1_455
B1 B20 2.113239 1_455
B1 Ho0 2.650581 1_455
B1 Ho1 2.650581 1_545
B1 Ho4 2.650581 1_445
B1 Ho5 2.650581 1_555
B2 B20 1.782748 1_555
B2 B3 1.870866 1_655
B2 Ho3 2.713103 1_555
B2 Ho5 2.713103 1_655
B2 Ho4 2.723886 1_555
B2 Ho2 2.723886 1_655
B2 Ho6 2.893127 1_555
B2 Ho0 2.893127 1_555
B3 Ho4 2.713103 1_455
B3 Ho2 2.713103 1_555
B3 Ho3 2.723886 1_455
B3 Ho5 2.723886 1_555
B3 Ho1 2.893127 1_555
B3 Ho7 2.893127 1_555
B4 B5 1.870866 1_545
B4 Ho1 2.713103 1_545
B4 Ho6 2.713103 1_556
B4 Ho0 2.723886 1_555
B4 Ho7 2.723886 1_546
B4 Ho2 2.893127 1_556
B4 Ho5 2.893127 1_555
B5 Ho7 2.713103 1_556
B5 Ho0 2.713103 1_565
B5 Ho6 2.723886 1_566
B5 Ho1 2.723886 1_555
B5 Ho3 2.893127 1_556
B5 Ho4 2.893127 1_555
B6 B7 1.870866 1_565
B6 Ho0 2.713103 1_565
B6 Ho7 2.713103 1_555
B6 Ho1 2.723886 1_555
B6 Ho6 2.723886 1_565
B6 Ho3 2.893127 1_555
B6 Ho4 2.893127 1_555
B7 Ho1 2.713103 1_545
B7 Ho6 2.713103 1_555
B7 Ho7 2.723886 1_545
B7 Ho0 2.723886 1_555
B7 Ho2 2.893127 1_555
B7 Ho5 2.893127 1_555
B8 B9 1.870866 1_655
B8 Ho3 2.713103 1_556
B8 Ho5 2.713103 1_655
B8 Ho4 2.723886 1_555
B8 Ho2 2.723886 1_656
B8 Ho6 2.893127 1_556
B8 Ho0 2.893127 1_555
B9 Ho4 2.713103 1_455
B9 Ho2 2.713103 1_556
B9 Ho3 2.723886 1_456
B9 Ho5 2.723886 1_555
B9 Ho1 2.893127 1_555
B9 Ho7 2.893127 1_556
B10 B6 1.782748 1_555
B10 B15 1.797306 1_555
B10 B14 1.797306 1_555
B10 Co0 2.160803 1_555
B10 Ho7 2.560582 1_555
B10 Ho1 2.622788 1_555
B10 Ho3 2.627678 1_555
B10 Ho4 2.683635 1_555
B11 B7 1.782748 1_555
B11 B15 1.797306 1_555
B11 B14 1.797306 1_555
B11 Co0 2.160803 1_555
B11 Ho6 2.560582 1_555
B11 Ho0 2.622788 1_555
B11 Ho2 2.627678 1_555
B11 Ho5 2.683635 1_555
B12 B9 1.782748 1_555
B12 B16 1.797306 1_565
B12 B17 1.797306 1_455
B12 Co1 2.160803 1_566
B12 Ho4 2.560582 1_455
B12 Ho3 2.622788 1_456
B12 Ho1 2.627678 1_555
B12 Ho7 2.683635 1_556
B13 B8 1.782748 1_555
B13 B16 1.797306 1_655
B13 B17 1.797306 1_545
B13 Co1 2.160803 1_656
B13 Ho5 2.560582 1_655
B13 Ho2 2.622788 1_656
B13 Ho0 2.627678 1_555
B13 Ho6 2.683635 1_556
B14 B3 1.782748 1_555
B14 Co0 2.160803 1_555
B14 Ho2 2.560582 1_555
B14 Ho5 2.622788 1_555
B14 Ho7 2.627678 1_555
B14 Ho1 2.683635 1_555
B15 B2 1.782748 1_555
B15 Co0 2.160803 1_555
B15 Ho3 2.560582 1_555
B15 Ho4 2.622788 1_555
B15 Ho6 2.627678 1_555
B15 Ho0 2.683635 1_555
B16 B4 1.782748 1_555
B16 Co1 2.160803 1_556
B16 Ho1 2.560582 1_545
B16 Ho7 2.622788 1_546
B16 Ho5 2.627678 1_555
B16 Ho2 2.683635 1_556
B17 B5 1.782748 1_555
B17 Co1 2.160803 1_666
B17 Ho0 2.560582 1_565
B17 Ho6 2.622788 1_566
B17 Ho4 2.627678 1_555
B17 Ho3 2.683635 1_556
B18 B4 1.782748 1_555
B18 B22 1.797306 1_555
B18 B23 1.797306 1_555
B18 Co0 2.160803 1_555
B18 Ho6 2.560582 1_556
B18 Ho0 2.622788 1_555
B18 Ho2 2.627678 1_556
B18 Ho5 2.683635 1_555
B19 B5 1.782748 1_555
B19 B22 1.797306 1_555
B19 B23 1.797306 1_555
B19 Co0 2.160803 1_555
B19 Ho7 2.560582 1_556
B19 Ho1 2.622788 1_555
B19 Ho3 2.627678 1_556
B19 Ho4 2.683635 1_555
B20 B25 1.797306 1_655
B20 B24 1.797306 1_545
B20 Co1 2.160803 1_655
B20 Ho5 2.560582 1_655
B20 Ho2 2.622788 1_655
B20 Ho0 2.627678 1_555
B20 Ho6 2.683635 1_555
B21 B3 1.782748 1_555
B21 B25 1.797306 1_565
B21 B24 1.797306 1_455
B21 Co1 2.160803 1_565
B21 Ho4 2.560582 1_455
B21 Ho3 2.622788 1_455
B21 Ho1 2.627678 1_555
B21 Ho7 2.683635 1_555
B22 B8 1.782748 1_555
B22 Co0 2.160803 1_555
B22 Ho3 2.560582 1_556
B22 Ho4 2.622788 1_555
B22 Ho6 2.627678 1_556
B22 Ho0 2.683635 1_555
B23 B9 1.782748 1_555
B23 Co0 2.160803 1_555
B23 Ho2 2.560582 1_556
B23 Ho5 2.622788 1_555
B23 Ho7 2.627678 1_556
B23 Ho1 2.683635 1_555
B24 B6 1.782748 1_555
B24 Co1 2.160803 1_665
B24 Ho0 2.560582 1_565
B24 Ho6 2.622788 1_565
B24 Ho4 2.627678 1_555
B24 Ho3 2.683635 1_555
B25 B7 1.782748 1_555
B25 Co1 2.160803 1_555
B25 Ho1 2.560582 1_545
B25 Ho7 2.622788 1_545
B25 Ho5 2.627678 1_555
B25 Ho2 2.683635 1_555
