# generated using pymatgen
data_GaGeTe2
_symmetry_space_group_name_H-M   'P 1'
_cell_length_a   4.22175022
_cell_length_b   4.22175022
_cell_length_c   17.26808400
_cell_angle_alpha   90.00000000
_cell_angle_beta   90.00000000
_cell_angle_gamma   120.00000341
_symmetry_Int_Tables_number   1
_chemical_formula_structural   GaGeTe2
_chemical_formula_sum   'Ga2 Ge2 Te4'
_cell_volume   266.53843186
_cell_formula_units_Z   2
loop_
 _symmetry_equiv_pos_site_id
 _symmetry_equiv_pos_as_xyz
  1  'x, y, z'
loop_
 _atom_site_type_symbol
 _atom_site_label
 _atom_site_symmetry_multiplicity
 _atom_site_fract_x
 _atom_site_fract_y
 _atom_site_fract_z
 _atom_site_occupancy
  Ga  Ga0  1  0.33333300  0.66666700  0.32699700  1
  Ga  Ga1  1  0.66666700  0.33333300  0.67300300  1
  Ge  Ge0  1  0.66666700  0.33333300  0.82533900  1
  Ge  Ge1  1  0.33333300  0.66666700  0.17466100  1
  Te  Te0  1  0.33333300  0.66666700  0.90133500  1
  Te  Te1  1  0.66666700  0.33333300  0.09866500  1
  Te  Te2  1  0.66666700  0.33333300  0.39997000  1
  Te  Te3  1  0.33333300  0.66666700  0.60003000  1
loop_
_geom_bond_atom_site_label_1
_geom_bond_atom_site_label_2
_geom_bond_distance
_geom_bond_site_symmetry_2
Ga0 Ge1 2.630551 1_555
Ga0 Te2 2.743886 1_455
Ga0 Te2 2.743886 1_565
Ga0 Te2 2.743892 1_555
Ga1 Ge0 2.630551 1_555
Ga1 Te3 2.743886 1_545
Ga1 Te3 2.743886 1_655
Ga1 Te3 2.743892 1_555
Ge0 Te0 2.768247 1_545
Ge0 Te0 2.768247 1_655
Ge0 Te0 2.768254 1_555
Ge1 Te1 2.768247 1_455
Ge1 Te1 2.768247 1_565
Ge1 Te1 2.768254 1_555
