# generated using pymatgen
data_Mo3Ir
_symmetry_space_group_name_H-M   'P 1'
_cell_length_a   5.00278200
_cell_length_b   5.00278200
_cell_length_c   5.00278200
_cell_angle_alpha   90.00000000
_cell_angle_beta   90.00000000
_cell_angle_gamma   90.00000000
_symmetry_Int_Tables_number   1
_chemical_formula_structural   Mo3Ir
_chemical_formula_sum   'Mo6 Ir2'
_cell_volume   125.20876611
_cell_formula_units_Z   2
loop_
 _symmetry_equiv_pos_site_id
 _symmetry_equiv_pos_as_xyz
  1  'x, y, z'
loop_
 _atom_site_type_symbol
 _atom_site_label
 _atom_site_symmetry_multiplicity
 _atom_site_fract_x
 _atom_site_fract_y
 _atom_site_fract_z
 _atom_site_occupancy
  Mo  Mo0  1  0.50000000  0.25000000  0.00000000  1
  Mo  Mo1  1  0.50000000  0.75000000  0.00000000  1
  Mo  Mo2  1  0.25000000  0.00000000  0.50000000  1
  Mo  Mo3  1  0.75000000  0.00000000  0.50000000  1
  Mo  Mo4  1  0.00000000  0.50000000  0.25000000  1
  Mo  Mo5  1  0.00000000  0.50000000  0.75000000  1
  Ir  Ir0  1  0.50000000  0.50000000  0.50000000  1
  Ir  Ir1  1  0.00000000  0.00000000  0.00000000  1
loop_
_geom_bond_atom_site_label_1
_geom_bond_atom_site_label_2
_geom_bond_distance
_geom_bond_site_symmetry_2
Mo0 Mo1 2.501391 1_555
Mo0 Mo1 2.501391 1_545
Mo0 Mo2 3.063566 1_555
Mo0 Mo3 3.063566 1_554
Mo0 Mo4 3.063566 1_655
Mo0 Mo5 3.063566 1_654
Mo0 Mo3 3.063566 1_555
Mo0 Mo4 3.063566 1_555
Mo0 Mo5 3.063566 1_554
Mo0 Mo2 3.063566 1_554
Mo1 Mo2 3.063566 1_565
Mo1 Mo2 3.063566 1_564
Mo1 Mo5 3.063566 1_654
Mo1 Mo3 3.063566 1_565
Mo1 Mo4 3.063566 1_655
Mo1 Mo3 3.063566 1_564
Mo1 Mo5 3.063566 1_554
Mo1 Mo4 3.063566 1_555
Mo2 Mo3 2.501391 1_555
Mo2 Mo3 2.501391 1_455
Mo2 Mo5 3.063566 1_555
Mo2 Mo4 3.063566 1_545
Mo2 Mo4 3.063566 1_555
Mo2 Mo5 3.063566 1_545
Mo3 Mo4 3.063566 1_655
Mo3 Mo5 3.063566 1_655
Mo3 Mo4 3.063566 1_645
Mo3 Mo5 3.063566 1_645
Mo4 Mo5 2.501391 1_554
Mo4 Mo5 2.501391 1_555
Ir0 Mo2 2.796640 1_555
Ir0 Mo5 2.796640 1_655
Ir0 Mo4 2.796640 1_655
Ir0 Mo3 2.796640 1_555
Ir0 Mo0 2.796640 1_555
Ir0 Mo4 2.796640 1_555
Ir0 Mo1 2.796640 1_555
Ir0 Mo1 2.796640 1_556
Ir0 Mo2 2.796640 1_565
Ir0 Mo0 2.796640 1_556
Ir0 Mo3 2.796640 1_565
Ir0 Mo5 2.796640 1_555
Ir1 Mo2 2.796640 1_555
Ir1 Mo3 2.796640 1_454
Ir1 Mo0 2.796640 1_555
Ir1 Mo1 2.796640 1_445
Ir1 Mo4 2.796640 1_545
Ir1 Mo1 2.796640 1_545
Ir1 Mo4 2.796640 1_555
Ir1 Mo5 2.796640 1_554
Ir1 Mo2 2.796640 1_554
Ir1 Mo3 2.796640 1_455
Ir1 Mo0 2.796640 1_455
Ir1 Mo5 2.796640 1_544
