# generated using pymatgen
data_HfMg14BO15
_symmetry_space_group_name_H-M   'P 1'
_cell_length_a   8.64124655
_cell_length_b   8.71280399
_cell_length_c   4.27913592
_cell_angle_alpha   90.00000000
_cell_angle_beta   90.00000000
_cell_angle_gamma   90.00000000
_symmetry_Int_Tables_number   1
_chemical_formula_structural   HfMg14BO15
_chemical_formula_sum   'Hf1 Mg14 B1 O15'
_cell_volume   322.17395001
_cell_formula_units_Z   1
loop_
 _symmetry_equiv_pos_site_id
 _symmetry_equiv_pos_as_xyz
  1  'x, y, z'
loop_
 _atom_site_type_symbol
 _atom_site_label
 _atom_site_symmetry_multiplicity
 _atom_site_fract_x
 _atom_site_fract_y
 _atom_site_fract_z
 _atom_site_occupancy
  Hf  Hf0  1  0.50234137  0.50000000  -0.00000000  1
  Mg  Mg0  1  0.99681534  0.50000000  -0.00000000  1
  Mg  Mg1  1  0.49423024  0.00000000  -0.00000000  1
  Mg  Mg2  1  0.00017981  0.24230363  0.50000000  1
  Mg  Mg3  1  0.00017981  0.75769637  0.50000000  1
  Mg  Mg4  1  0.49875481  0.23718629  0.50000000  1
  Mg  Mg5  1  0.49875481  0.76281371  0.50000000  1
  Mg  Mg6  1  0.24062601  0.00000000  0.50000000  1
  Mg  Mg7  1  0.23713790  0.50000000  0.50000000  1
  Mg  Mg8  1  0.76019584  0.00000000  0.50000000  1
  Mg  Mg9  1  0.76172929  0.50000000  0.50000000  1
  Mg  Mg10  1  0.23704242  0.24604116  -0.00000000  1
  Mg  Mg11  1  0.23704242  0.75395884  -0.00000000  1
  Mg  Mg12  1  0.76463207  0.23068580  -0.00000000  1
  Mg  Mg13  1  0.76463207  0.76931420  0.00000000  1
  B  B0  1  0.04485974  0.00000000  -0.00000000  1
  O  O0  1  0.25294855  0.50000000  -0.00000000  1
  O  O1  1  0.72325903  0.00000000  -0.00000000  1
  O  O2  1  0.74739174  0.50000000  -0.00000000  1
  O  O3  1  0.24962013  0.25244220  0.50000000  1
  O  O4  1  0.24962013  0.74755780  0.50000000  1
  O  O5  1  0.74936802  0.24815559  0.50000000  1
  O  O6  1  0.74936802  0.75184441  0.50000000  1
  O  O7  1  0.00380301  0.00000000  0.50000000  1
  O  O8  1  0.99922310  0.50000000  0.50000000  1
  O  O9  1  0.49164191  0.00000000  0.50000000  1
  O  O10  1  0.50131687  0.50000000  0.50000000  1
  O  O11  1  -0.00019863  0.27070333  -0.00000000  1
  O  O12  1  -0.00019863  0.72929667  -0.00000000  1
  O  O13  1  0.49684138  0.25398144  -0.00000000  1
  O  O14  1  0.49684138  0.74601856  -0.00000000  1
loop_
_geom_bond_atom_site_label_1
_geom_bond_atom_site_label_2
_geom_bond_distance
_geom_bond_site_symmetry_2
Hf0 O2 2.117541 1_555
Hf0 O10 2.139586 1_555
Hf0 O10 2.139586 1_554
Hf0 O14 2.144038 1_555
Hf0 O13 2.144038 1_555
Hf0 O0 2.155065 1_555
Mg0 O11 1.997984 1_655
Mg0 O12 1.997984 1_655
Mg0 O8 2.139669 1_555
Mg0 O8 2.139669 1_554
Mg0 O2 2.155331 1_555
Mg0 O0 2.213310 1_655
Mg1 O1 1.979094 1_555
Mg1 O9 2.139685 1_555
Mg1 O9 2.139685 1_554
Mg1 O14 2.213006 1_545
Mg1 O13 2.213006 1_555
Mg2 O7 2.111376 1_555
Mg2 O11 2.153831 1_556
Mg2 O11 2.153831 1_555
Mg2 O3 2.157285 1_555
Mg2 O5 2.167926 1_455
Mg2 O8 2.245273 1_455
Mg3 O7 2.111376 1_565
Mg3 O12 2.153831 1_556
Mg3 O12 2.153831 1_555
Mg3 O4 2.157285 1_555
Mg3 O6 2.167926 1_455
Mg3 O8 2.245273 1_455
Mg4 O9 2.067471 1_555
Mg4 O13 2.144630 1_555
Mg4 O13 2.144630 1_556
Mg4 O3 2.156934 1_555
Mg4 O5 2.167718 1_555
Mg4 O10 2.289951 1_555
Mg5 O9 2.067471 1_565
Mg5 O14 2.144630 1_556
Mg5 O14 2.144630 1_555
Mg5 O4 2.156934 1_555
Mg5 O6 2.167718 1_555
Mg5 O10 2.289951 1_555
Mg6 O7 2.046446 1_555
Mg6 O9 2.169090 1_555
Mg6 O3 2.200852 1_555
Mg6 O4 2.200852 1_545
Mg7 O8 2.055880 1_455
Mg7 O0 2.143926 1_555
Mg7 O0 2.143926 1_556
Mg7 O4 2.159618 1_555
Mg7 O3 2.159618 1_555
Mg7 O10 2.282836 1_555
Mg8 O7 2.105070 1_655
Mg8 O1 2.163245 1_556
Mg8 O1 2.163245 1_555
Mg8 O6 2.164155 1_545
Mg8 O5 2.164155 1_555
Mg8 O9 2.320641 1_555
Mg9 O8 2.052243 1_555
Mg9 O2 2.143152 1_555
Mg9 O2 2.143152 1_556
Mg9 O6 2.196869 1_555
Mg9 O5 2.196869 1_555
Mg9 O10 2.250288 1_555
Mg10 O11 2.061289 1_555
Mg10 O3 2.143053 1_554
Mg10 O3 2.143053 1_555
Mg10 O0 2.216959 1_555
Mg10 O13 2.246053 1_555
Mg11 O12 2.061289 1_555
Mg11 O4 2.143053 1_554
Mg11 O4 2.143053 1_555
Mg11 O0 2.216959 1_555
Mg11 O14 2.246053 1_555
Mg12 O1 2.041469 1_555
Mg12 O11 2.061850 1_655
Mg12 O5 2.149027 1_555
Mg12 O5 2.149027 1_554
Mg12 O13 2.322930 1_555
Mg12 O2 2.351206 1_555
Mg13 O1 2.041469 1_565
Mg13 O12 2.061850 1_655
Mg13 O6 2.149027 1_555
Mg13 O6 2.149027 1_554
Mg13 O14 2.322930 1_555
Mg13 O2 2.351206 1_555
B0 O7 2.168783 1_555
B0 O7 2.168783 1_554
