# generated using pymatgen
data_Li9Mn2Co5O16
_symmetry_space_group_name_H-M   'P 1'
_cell_length_a   2.90547000
_cell_length_b   10.26756200
_cell_length_c   10.34209637
_cell_angle_alpha   69.93605675
_cell_angle_beta   90.00000000
_cell_angle_gamma   90.00000000
_symmetry_Int_Tables_number   1
_chemical_formula_structural   Li9Mn2Co5O16
_chemical_formula_sum   'Li9 Mn2 Co5 O16'
_cell_volume   289.80202140
_cell_formula_units_Z   1
loop_
 _symmetry_equiv_pos_site_id
 _symmetry_equiv_pos_as_xyz
  1  'x, y, z'
loop_
 _atom_site_type_symbol
 _atom_site_label
 _atom_site_symmetry_multiplicity
 _atom_site_fract_x
 _atom_site_fract_y
 _atom_site_fract_z
 _atom_site_occupancy
  Li  Li0  1  0.50000000  0.99169700  0.75651600  1
  Li  Li1  1  0.50000000  0.99921600  0.24677700  1
  Li  Li2  1  0.00000000  0.74306800  0.75215600  1
  Li  Li3  1  0.00000000  0.74645600  0.24619500  1
  Li  Li4  1  0.50000000  0.50428600  0.76553000  1
  Li  Li5  1  0.50000000  0.50332400  0.23218900  1
  Li  Li6  1  0.00000000  0.25437300  0.75640000  1
  Li  Li7  1  0.00000000  0.25499700  0.24401900  1
  Li  Li8  1  0.00000000  0.50068100  0.99996300  1
  Mn  Mn0  1  0.00000000  0.00022100  0.99974200  1
  Mn  Mn1  1  0.50000000  0.24980500  0.50179500  1
  Co  Co0  1  0.00000000  0.99757800  0.50040000  1
  Co  Co1  1  0.50000000  0.73222100  0.99285600  1
  Co  Co2  1  0.50000000  0.75301500  0.49814200  1
  Co  Co3  1  0.00000000  0.50453900  0.50040800  1
  Co  Co4  1  0.50000000  0.26804100  0.00732500  1
  O  O0  1  0.50000000  0.10927000  0.88732700  1
  O  O1  1  0.50000000  0.12566500  0.39462100  1
  O  O2  1  0.00000000  0.87686800  0.89289100  1
  O  O3  1  0.00000000  0.86617800  0.37972100  1
  O  O4  1  0.50000000  0.63644000  0.87774900  1
  O  O5  1  0.50000000  0.61506900  0.38708800  1
  O  O6  1  0.00000000  0.36364800  0.88195900  1
  O  O7  1  0.00000000  0.36080000  0.39080600  1
  O  O8  1  0.50000000  0.87990100  0.61334600  1
  O  O9  1  0.50000000  0.89118600  0.11061100  1
  O  O10  1  0.00000000  0.62925500  0.61350900  1
  O  O11  1  0.00000000  0.63620500  0.11815800  1
  O  O12  1  0.50000000  0.37530000  0.60732700  1
  O  O13  1  0.50000000  0.36354300  0.12336400  1
  O  O14  1  0.00000000  0.14255900  0.61426300  1
  O  O15  1  0.00000000  0.12459700  0.10684500  1
loop_
_geom_bond_atom_site_label_1
_geom_bond_atom_site_label_2
_geom_bond_distance
_geom_bond_site_symmetry_2
Li0 O2 2.085374 1_655
Li0 O2 2.085374 1_555
Li0 O0 2.099548 1_565
Li0 O8 2.162452 1_555
Li0 O14 2.260663 1_565
Li0 O14 2.260663 1_665
Li1 O9 2.070084 1_555
Li1 O3 2.139648 1_655
Li1 O3 2.139648 1_555
Li1 O15 2.140976 1_565
Li1 O15 2.140976 1_665
Li1 O1 2.320695 1_565
Li2 O4 2.005108 1_555
Li2 O4 2.005108 1_455
Li2 O10 2.138076 1_555
Li2 O8 2.182047 1_555
Li2 O8 2.182047 1_455
Li2 O2 2.319000 1_555
Li3 O11 2.015781 1_555
Li3 O3 2.140745 1_555
Li3 O5 2.169052 1_555
Li3 O5 2.169052 1_455
Li3 O9 2.203453 1_455
Li3 O9 2.203453 1_555
Li4 O4 2.066070 1_555
Li4 O6 2.110090 1_655
Li4 O6 2.110090 1_555
Li4 O10 2.201031 1_555
Li4 O10 2.201031 1_655
Li4 O12 2.432637 1_555
Li5 O11 2.063665 1_655
Li5 O11 2.063665 1_555
Li5 O13 2.105908 1_555
Li5 O5 2.268015 1_555
Li5 O7 2.301261 1_555
Li5 O7 2.301261 1_655
Li6 O6 1.986137 1_555
Li6 O14 2.153339 1_555
Li6 O12 2.171534 1_455
Li6 O12 2.171534 1_555
Li6 O0 2.186184 1_455
Li6 O0 2.186184 1_555
Li7 O13 1.988821 1_455
Li7 O13 1.988821 1_555
Li7 O7 2.148549 1_555
Li7 O1 2.209212 1_555
Li7 O1 2.209212 1_455
Li7 O15 2.260203 1_555
Li8 O4 2.107639 1_455
Li8 O4 2.107639 1_555
Li8 O13 2.118692 1_556
Li8 O13 2.118692 1_456
Li8 O11 2.144197 1_556
Li8 O6 2.155738 1_555
Mn0 O2 1.945660 1_545
Mn0 O9 1.948777 1_446
Mn0 O9 1.948777 1_546
Mn0 O0 1.955142 1_455
Mn0 O0 1.955142 1_555
Mn0 O15 1.956611 1_556
Mn1 O14 1.948614 1_555
Mn1 O14 1.948614 1_655
Mn1 O12 1.953571 1_555
Mn1 O1 1.955139 1_555
Mn1 O7 1.956845 1_555
Mn1 O7 1.956845 1_655
Co0 O8 1.991579 1_455
Co0 O8 1.991579 1_555
Co0 O1 2.012375 1_565
Co0 O1 2.012375 1_465
Co0 O3 2.129147 1_555
Co0 O14 2.192122 1_565
Co1 O4 1.785384 1_555
Co1 O11 1.971062 1_656
Co1 O11 1.971062 1_556
Co1 O2 2.081224 1_655
Co1 O2 2.081224 1_555
Co1 O9 2.347551 1_556
Co2 O3 1.996003 1_655
Co2 O3 1.996003 1_555
Co2 O10 2.026931 1_555
Co2 O10 2.026931 1_655
Co2 O8 2.044973 1_555
Co2 O5 2.107462 1_555
Co3 O5 1.964509 1_455
Co3 O5 1.964509 1_555
Co3 O10 2.008900 1_555
Co3 O12 2.021689 1_555
Co3 O12 2.021689 1_455
Co3 O7 2.147282 1_555
Co4 O13 1.791412 1_555
Co4 O6 1.970235 1_554
Co4 O6 1.970235 1_654
Co4 O15 2.073372 1_555
Co4 O15 2.073372 1_655
Co4 O0 2.363433 1_554
