# generated using pymatgen
data_K15Re7N19
_symmetry_space_group_name_H-M   'P 1'
_cell_length_a   6.82991800
_cell_length_b   12.54611842
_cell_length_c   19.32573331
_cell_angle_alpha   90.88102368
_cell_angle_beta   94.39610033
_cell_angle_gamma   99.46143253
_symmetry_Int_Tables_number   1
_chemical_formula_structural   K15Re7N19
_chemical_formula_sum   'K30 Re14 N38'
_cell_volume   1628.00973181
_cell_formula_units_Z   2
loop_
 _symmetry_equiv_pos_site_id
 _symmetry_equiv_pos_as_xyz
  1  'x, y, z'
loop_
 _atom_site_type_symbol
 _atom_site_label
 _atom_site_symmetry_multiplicity
 _atom_site_fract_x
 _atom_site_fract_y
 _atom_site_fract_z
 _atom_site_occupancy
  K  K0  1  0.52083700  0.62264600  0.43750400  1
  K  K1  1  0.47916300  0.37735400  0.56249600  1
  K  K2  1  0.61891500  0.13562200  0.65165200  1
  K  K3  1  0.38108500  0.86437800  0.34834800  1
  K  K4  1  0.72140700  0.02269600  0.19500400  1
  K  K5  1  0.27859300  0.97730400  0.80499600  1
  K  K6  1  0.93270600  0.03838300  0.38522800  1
  K  K7  1  0.06729400  0.96161700  0.61477200  1
  K  K8  1  0.77282300  0.74957000  0.27948800  1
  K  K9  1  0.22717700  0.25043000  0.72051200  1
  K  K10  1  0.86657500  0.17333000  0.83565200  1
  K  K11  1  0.13342500  0.82667000  0.16434800  1
  K  K12  1  0.86542800  0.90168600  0.90019800  1
  K  K13  1  0.13457200  0.09831400  0.09980200  1
  K  K14  1  0.71546700  0.08281300  0.00683300  1
  K  K15  1  0.28453300  0.91718700  0.99316700  1
  K  K16  1  0.60833300  0.89415100  0.53290500  1
  K  K17  1  0.39166700  0.10584900  0.46709500  1
  K  K18  1  0.60070700  0.44978100  0.27845900  1
  K  K19  1  0.39929300  0.55021900  0.72154100  1
  K  K20  1  0.97576300  0.34120200  0.01529000  1
  K  K21  1  0.02423700  0.65879800  0.98471000  1
  K  K22  1  0.91616000  0.66134100  0.78602500  1
  K  K23  1  0.08384000  0.33865900  0.21397500  1
  K  K24  1  0.74577900  0.26531400  0.38390700  1
  K  K25  1  0.25422100  0.73468600  0.61609300  1
  K  K26  1  0.60534300  0.38063000  0.84286400  1
  K  K27  1  0.39465700  0.61937000  0.15713600  1
  K  K28  1  0.00000000  0.50000000  0.50000000  1
  K  K29  1  0.50000000  0.50000000  0.00000000  1
  Re  Re0  1  0.57590800  0.27053700  0.12555800  1
  Re  Re1  1  0.42409200  0.72946300  0.87444200  1
  Re  Re2  1  0.86989000  0.40744600  0.68505900  1
  Re  Re3  1  0.13011000  0.59255400  0.31494100  1
  Re  Re4  1  0.74950000  0.65562100  0.60679600  1
  Re  Re5  1  0.25050000  0.34437900  0.39320400  1
  Re  Re6  1  0.98607300  0.78206100  0.45027100  1
  Re  Re7  1  0.01392700  0.21793900  0.54972900  1
  Re  Re8  1  0.86289300  0.54728500  0.13814400  1
  Re  Re9  1  0.13710700  0.45271500  0.86185700  1
  Re  Re10  1  0.66413100  0.87974400  0.72589800  1
  Re  Re11  1  0.33586900  0.12025600  0.27410200  1
  Re  Re12  1  0.68292800  0.79413900  0.05736900  1
  Re  Re13  1  0.31707200  0.20586100  0.94263100  1
  N  N0  1  0.79692100  0.21220000  0.12336800  1
  N  N1  1  0.20307900  0.78780000  0.87663200  1
  N  N2  1  0.94453900  0.32553500  0.61007900  1
  N  N3  1  0.05546100  0.67446500  0.38992100  1
  N  N4  1  0.54755000  0.07418000  0.31752200  1
  N  N5  1  0.45245000  0.92582000  0.68247800  1
  N  N6  1  0.58192700  0.78572000  0.80430500  1
  N  N7  1  0.41807300  0.21428000  0.19569500  1
  N  N8  1  0.65538800  0.42499300  0.13603900  1
  N  N9  1  0.34461200  0.57500700  0.86396100  1
  N  N10  1  0.50174700  0.39971500  0.42097900  1
  N  N11  1  0.49825300  0.60028500  0.57902100  1
  N  N12  1  0.80350600  0.11168800  0.52844300  1
  N  N13  1  0.19649400  0.88831200  0.47155700  1
  N  N14  1  0.89674100  0.70737800  0.53094400  1
  N  N15  1  0.10325900  0.29262200  0.46905600  1
  N  N16  1  0.91108200  0.89078200  0.05126200  1
  N  N17  1  0.08891800  0.10921800  0.94873800  1
  N  N18  1  0.77411000  0.83259300  0.41019400  1
  N  N19  1  0.22589000  0.16740700  0.58980600  1
  N  N20  1  0.75168100  0.77015500  0.67126200  1
  N  N21  1  0.24831900  0.22984500  0.32873800  1
  N  N22  1  0.93509900  0.47866200  0.90782000  1
  N  N23  1  0.06490100  0.52133800  0.09218000  1
  N  N24  1  0.57085700  0.75670800  0.96368500  1
  N  N25  1  0.42914300  0.24329200  0.03631500  1
  N  N26  1  0.75405300  0.67106200  0.10186300  1
  N  N27  1  0.24594700  0.32893800  0.89813700  1
  N  N28  1  0.86635300  0.98866200  0.75019300  1
  N  N29  1  0.13364700  0.01133800  0.24980700  1
  N  N30  1  0.94981600  0.58023600  0.23494400  1
  N  N31  1  0.05018400  0.41976400  0.76505600  1
  N  N32  1  0.89119700  0.55304400  0.64892900  1
  N  N33  1  0.10880300  0.44695600  0.35107100  1
  N  N34  1  0.62099500  0.35863400  0.70575500  1
  N  N35  1  0.37900500  0.64136600  0.29424500  1
  N  N36  1  0.50181400  0.84746200  0.10543100  1
  N  N37  1  0.49818600  0.15253800  0.89456900  1
loop_
_geom_bond_atom_site_label_1
_geom_bond_atom_site_label_2
_geom_bond_distance
_geom_bond_site_symmetry_2
K0 N11 2.767006 1_555
K0 N10 2.790699 1_555
K0 N35 2.888296 1_555
K0 N18 2.982223 1_555
K0 N14 3.052119 1_555
K1 N10 2.767006 1_555
K1 N11 2.790699 1_555
K1 N34 2.888296 1_555
K1 N19 2.982223 1_555
K1 N15 3.052119 1_555
K2 N5 2.782838 1_545
K2 N12 2.812823 1_555
K2 N19 2.944135 1_555
K2 N34 2.969271 1_555
K2 N2 3.139964 1_555
K2 N28 3.243644 1_545
K3 N4 2.782838 1_565
K3 N13 2.812823 1_555
K3 N18 2.944135 1_555
K3 N35 2.969271 1_555
K3 N3 3.139964 1_555
K3 N29 3.243644 1_565
K4 N0 2.764571 1_555
K4 N4 2.840703 1_555
K4 N36 2.912099 1_545
K4 N29 2.957841 1_655
K5 N1 2.764571 1_555
K5 N5 2.840703 1_555
K5 N37 2.912099 1_565
K5 N28 2.957841 1_455
K6 N18 2.696501 1_545
K6 N4 2.951708 1_555
K6 N29 3.086150 1_655
K6 N12 3.138123 1_555
K6 N13 3.213317 1_645
K6 N21 3.216777 1_655
K7 N19 2.696501 1_565
K7 N5 2.951708 1_555
K7 N28 3.086150 1_455
K7 N13 3.138123 1_555
K7 N12 3.213317 1_465
K7 N20 3.216777 1_455
K8 N18 2.716309 1_555
K8 N30 2.768289 1_555
K8 N35 2.843942 1_555
K8 N3 3.032720 1_655
K9 N19 2.716309 1_555
K9 N31 2.768289 1_555
K9 N34 2.843942 1_555
K9 N2 3.032720 1_455
K10 N17 2.770601 1_655
K10 N37 2.815603 1_555
K10 N28 2.824235 1_545
K10 N27 3.125390 1_655
K11 N16 2.770601 1_455
K11 N36 2.815603 1_555
K11 N29 2.824235 1_565
K11 N26 3.125390 1_455
K12 N6 2.782296 1_555
K12 N24 2.847010 1_555
K12 N17 2.896209 1_665
K12 N16 2.919884 1_556
K12 N1 2.965046 1_655
K12 N28 3.113287 1_555
K13 N7 2.782296 1_555
K13 N25 2.847010 1_555
K13 N16 2.896209 1_445
K13 N17 2.919884 1_554
K13 N0 2.965046 1_455
K13 N29 3.113287 1_555
K14 N0 2.723100 1_555
K14 N37 2.768790 1_554
K14 N17 2.837019 1_654
K14 N16 3.045107 1_545
K14 N25 3.103644 1_555
K15 N1 2.723100 1_555
K15 N36 2.768790 1_556
K15 N16 2.837019 1_456
K15 N17 3.045107 1_565
K15 N24 3.103644 1_555
K16 N12 2.839350 1_565
K16 N18 2.853972 1_555
K16 N13 2.956575 1_555
K16 N5 3.197272 1_555
K16 N20 3.279553 1_555
K16 N14 3.301324 1_555
K17 N13 2.839350 1_545
K17 N19 2.853972 1_555
K17 N12 2.956575 1_555
K17 N4 3.197272 1_555
K17 N21 3.279553 1_555
K17 N15 3.301324 1_555
K18 N8 2.825099 1_555
K18 N30 2.852719 1_555
K18 N10 2.938806 1_555
K18 N35 3.067291 1_555
K18 N7 3.343829 1_555
K19 N9 2.825099 1_555
K19 N31 2.852719 1_555
K19 N11 2.938806 1_555
K19 N34 3.067291 1_555
K19 N6 3.343829 1_555
K20 N23 2.644245 1_655
K20 N22 2.746671 1_554
K20 N0 2.884302 1_555
K20 N27 3.045991 1_654
K21 N22 2.644245 1_455
K21 N23 2.746671 1_556
K21 N1 2.884302 1_555
K21 N26 3.045991 1_456
K22 N1 2.791036 1_655
K22 N20 2.874036 1_555
K22 N32 2.939181 1_555
K22 N6 3.008123 1_555
K22 N22 3.320626 1_555
K22 N31 3.334579 1_655
K23 N0 2.791036 1_455
K23 N21 2.874036 1_555
K23 N33 2.939181 1_555
K23 N7 3.008123 1_555
K23 N23 3.320626 1_555
K23 N30 3.334579 1_455
K24 N10 2.684109 1_555
K24 N4 2.793033 1_555
K24 N15 2.806813 1_655
K24 N33 3.189303 1_655
K25 N11 2.684109 1_555
K25 N5 2.793033 1_555
K25 N14 2.806813 1_455
K25 N32 3.189303 1_455
K26 N22 2.601802 1_555
K26 N34 2.671947 1_555
K26 N27 2.736203 1_555
K26 N37 3.038873 1_555
K26 N9 3.285270 1_555
K27 N23 2.601802 1_555
K27 N35 2.671947 1_555
K27 N26 2.736203 1_555
K27 N36 3.038873 1_555
K27 N8 3.285270 1_555
K28 N15 2.871302 1_555
K28 N14 2.871302 1_455
K28 N2 3.074798 1_455
K28 N3 3.074798 1_555
K28 N32 3.116166 1_455
K28 N33 3.116166 1_555
K29 N9 2.983372 1_554
K29 N8 2.983372 1_555
K29 N26 3.100680 1_555
K29 N27 3.100680 1_554
K29 N24 3.272420 1_554
K29 N25 3.272420 1_555
N0 Re0 1.785534 1_555
N1 Re1 1.785534 1_555
N2 Re7 1.911485 1_655
N2 Re2 1.911933 1_555
N3 Re6 1.911485 1_455
N3 Re3 1.911933 1_555
N4 Re11 1.797842 1_555
N5 Re10 1.797842 1_555
N6 Re1 1.871033 1_555
N6 Re10 1.992602 1_555
N7 Re0 1.871033 1_555
N7 Re11 1.992602 1_555
N8 Re8 1.907518 1_555
N8 Re0 1.927718 1_555
N9 Re9 1.907519 1_555
N9 Re1 1.927718 1_555
N10 Re5 1.780566 1_555
N11 Re4 1.780566 1_555
N12 Re7 1.809501 1_655
N13 Re6 1.809501 1_455
N14 Re4 1.903260 1_555
N14 Re6 1.919291 1_555
N15 Re5 1.903260 1_555
N15 Re7 1.919291 1_555
N16 Re12 1.823104 1_555
N17 Re13 1.823104 1_555
N18 Re6 1.800713 1_555
N19 Re7 1.800713 1_555
N20 Re4 1.884749 1_555
N20 Re10 1.919707 1_555
N21 Re5 1.884749 1_555
N21 Re11 1.919707 1_555
N22 Re9 1.767826 1_655
N23 Re8 1.767837 1_455
N24 Re1 1.923634 1_555
N24 Re12 1.930701 1_556
N25 Re0 1.923634 1_555
N25 Re13 1.930701 1_554
N26 Re12 1.892919 1_555
N26 Re8 1.946507 1_555
N27 Re13 1.892919 1_555
N27 Re9 1.946500 1_555
N28 Re10 1.804362 1_555
N29 Re11 1.804362 1_555
N30 Re3 1.889066 1_655
N30 Re8 1.936043 1_555
N31 Re2 1.889066 1_455
N31 Re9 1.936061 1_555
N32 Re4 1.891221 1_555
N32 Re2 1.952669 1_555
N33 Re5 1.891221 1_555
N33 Re3 1.952669 1_555
N34 Re2 1.787256 1_555
N35 Re3 1.787256 1_555
N36 Re12 1.808187 1_555
N37 Re13 1.808187 1_555
