# generated using pymatgen
data_Ce6Mg23As
_symmetry_space_group_name_H-M   'P 1'
_cell_length_a   10.28149159
_cell_length_b   10.28141167
_cell_length_c   10.28115735
_cell_angle_alpha   60.00081825
_cell_angle_beta   60.00107538
_cell_angle_gamma   59.99864219
_symmetry_Int_Tables_number   1
_chemical_formula_structural   Ce6Mg23As
_chemical_formula_sum   'Ce6 Mg23 As1'
_cell_volume   768.48897177
_cell_formula_units_Z   1
loop_
 _symmetry_equiv_pos_site_id
 _symmetry_equiv_pos_as_xyz
  1  'x, y, z'
loop_
 _atom_site_type_symbol
 _atom_site_label
 _atom_site_symmetry_multiplicity
 _atom_site_fract_x
 _atom_site_fract_y
 _atom_site_fract_z
 _atom_site_occupancy
  Ce  Ce0  1  0.79524039  0.79517702  0.20479129  1
  Ce  Ce1  1  0.20477052  0.79519864  0.20481524  1
  Ce  Ce2  1  0.79522948  0.20480136  0.20478439  1
  Ce  Ce3  1  0.20475961  0.20482298  0.79520871  1
  Ce  Ce4  1  0.79522948  0.20480136  0.79518476  1
  Ce  Ce5  1  0.20477052  0.79519864  0.79521561  1
  Mg  Mg0  1  0.82827936  0.82826589  0.51518162  1
  Mg  Mg1  1  0.82828390  0.51518006  0.82826852  1
  Mg  Mg2  1  0.51526056  0.82824522  0.82824761  1
  Mg  Mg3  1  0.82827936  0.82826589  0.82827412  1
  Mg  Mg4  1  0.17172064  0.17173411  0.48481838  1
  Mg  Mg5  1  0.17171610  0.48481994  0.17173148  1
  Mg  Mg6  1  0.48473944  0.17175478  0.17175239  1
  Mg  Mg7  1  0.17172064  0.17173411  0.17172588  1
  Mg  Mg8  1  0.62243180  0.62246893  0.13262948  1
  Mg  Mg9  1  0.62237886  0.13273624  0.62244295  1
  Mg  Mg10  1  0.13267188  0.62241609  0.62245652  1
  Mg  Mg11  1  0.62243180  0.62246893  0.62247078  1
  Mg  Mg12  1  0.37756820  0.37753107  0.86737052  1
  Mg  Mg13  1  0.37762114  0.86726376  0.37755705  1
  Mg  Mg14  1  0.86732812  0.37758391  0.37754348  1
  Mg  Mg15  1  0.37756820  0.37753107  0.37752922  1
  Mg  Mg16  1  0.00000000  0.00000000  0.50000000  1
  Mg  Mg17  1  0.50000000  0.00000000  0.50000000  1
  Mg  Mg18  1  0.00000000  0.50000000  0.50000000  1
  Mg  Mg19  1  0.50000000  0.50000000  -0.00000000  1
  Mg  Mg20  1  0.00000000  0.50000000  -0.00000000  1
  Mg  Mg21  1  0.50000000  0.00000000  -0.00000000  1
  Mg  Mg22  1  0.50000000  0.50000000  0.50000000  1
  As  As0  1  0.00000000  0.00000000  -0.00000000  1
loop_
_geom_bond_atom_site_label_1
_geom_bond_atom_site_label_2
_geom_bond_distance
_geom_bond_site_symmetry_2
Ce0 Mg14 3.556148 1_555
Ce0 Mg13 3.556418 1_555
Ce0 Mg8 3.556792 1_555
Ce0 Mg11 3.556799 1_555
Ce0 Mg5 3.563324 1_655
Ce0 Mg3 3.563675 1_554
Ce0 Mg0 3.563686 1_555
Ce0 Mg6 3.564526 1_565
Ce0 Mg20 3.693682 1_655
Ce0 Mg18 3.693682 1_655
Ce0 Mg21 3.694146 1_565
Ce0 Mg17 3.694146 1_565
Ce1 Mg10 3.556511 1_555
Ce1 Mg8 3.556596 1_555
Ce1 Mg15 3.556662 1_555
Ce1 Mg13 3.556709 1_555
Ce1 Mg0 3.563539 1_455
Ce1 Mg5 3.563713 1_555
Ce1 Mg7 3.563898 1_565
Ce1 Mg2 3.564501 1_554
Ce1 Mg16 3.693800 1_565
Ce1 Mg18 3.693854 1_555
Ce1 Mg19 3.694009 1_555
Ce1 Mg21 3.694306 1_565
Ce2 Mg14 3.556502 1_555
Ce2 Mg15 3.556594 1_555
Ce2 Mg8 3.556664 1_555
Ce2 Mg9 3.556718 1_555
Ce2 Mg7 3.563535 1_655
Ce2 Mg1 3.563707 1_554
Ce2 Mg0 3.563902 1_545
Ce2 Mg6 3.564507 1_555
Ce2 Mg16 3.693800 1_655
Ce2 Mg20 3.693854 1_655
Ce2 Mg19 3.694009 1_555
Ce2 Mg17 3.694306 1_555
Ce3 Mg10 3.556148 1_555
Ce3 Mg9 3.556418 1_555
Ce3 Mg12 3.556792 1_555
Ce3 Mg15 3.556799 1_555
Ce3 Mg1 3.563324 1_455
Ce3 Mg7 3.563675 1_556
Ce3 Mg4 3.563686 1_555
Ce3 Mg2 3.564526 1_545
Ce3 Mg20 3.693682 1_556
Ce3 Mg18 3.693682 1_555
Ce3 Mg21 3.694146 1_556
Ce3 Mg17 3.694146 1_555
Ce4 Mg14 3.556511 1_555
Ce4 Mg12 3.556596 1_555
Ce4 Mg11 3.556662 1_555
Ce4 Mg9 3.556709 1_555
Ce4 Mg4 3.563539 1_655
Ce4 Mg1 3.563713 1_555
Ce4 Mg3 3.563898 1_545
Ce4 Mg6 3.564501 1_556
Ce4 Mg16 3.693800 1_655
Ce4 Mg18 3.693854 1_655
Ce4 Mg19 3.694009 1_556
Ce4 Mg21 3.694306 1_556
Ce5 Mg10 3.556502 1_555
Ce5 Mg11 3.556594 1_555
Ce5 Mg12 3.556664 1_555
Ce5 Mg13 3.556718 1_555
Ce5 Mg3 3.563535 1_455
Ce5 Mg5 3.563707 1_556
Ce5 Mg4 3.563902 1_565
Ce5 Mg2 3.564507 1_555
Ce5 Mg16 3.693800 1_565
Ce5 Mg20 3.693854 1_556
Ce5 Mg19 3.694009 1_556
Ce5 Mg17 3.694306 1_565
Mg0 Mg18 2.970618 1_655
Mg0 Mg17 2.970760 1_565
Mg0 Mg16 2.970764 1_665
Mg0 Mg11 3.159569 1_555
Mg0 Mg10 3.159693 1_655
Mg0 Mg9 3.160273 1_565
Mg0 Mg2 3.218543 1_555
Mg0 Mg3 3.218953 1_555
Mg0 Mg1 3.218970 1_555
Mg1 Mg20 2.970627 1_656
Mg1 Mg18 2.970636 1_655
Mg1 Mg19 2.970877 1_556
Mg1 Mg8 3.159483 1_556
Mg1 Mg11 3.159484 1_555
Mg1 Mg10 3.159582 1_655
Mg1 Mg2 3.218483 1_555
Mg1 Mg3 3.218970 1_555
Mg2 Mg21 2.970701 1_566
Mg2 Mg8 3.159038 1_556
Mg2 Mg9 3.159824 1_565
Mg2 Mg3 3.218543 1_555
Mg3 Mg8 3.159569 1_556
Mg3 Mg9 3.160273 1_565
Mg4 Mg6 3.218543 1_555
Mg4 Mg7 3.218953 1_555
Mg4 Mg5 3.218970 1_555
Mg5 Mg6 3.218483 1_555
Mg5 Mg7 3.218970 1_555
Mg6 Mg7 3.218543 1_555
Mg10 Mg22 3.083634 1_555
Mg10 Mg3 3.159693 1_455
Mg10 Mg20 3.169940 1_556
Mg10 Mg18 3.169949 1_555
Mg10 Mg16 3.170274 1_565
Mg11 Mg22 3.083966 1_555
Mg11 Mg2 3.159038 1_555
Mg11 Mg19 3.169809 1_556
Mg11 Mg17 3.169830 1_565
Mg11 Mg18 3.170172 1_655
Mg12 Mg22 3.083957 1_555
Mg12 Mg6 3.159038 1_556
Mg12 Mg5 3.159483 1_556
Mg12 Mg7 3.159569 1_556
Mg12 Mg19 3.169818 1_556
Mg12 Mg21 3.169830 1_556
Mg12 Mg20 3.170172 1_556
Mg13 Mg22 3.083062 1_555
Mg13 Mg6 3.159824 1_565
Mg13 Mg7 3.160273 1_565
Mg13 Mg4 3.160273 1_565
Mg13 Mg21 3.170064 1_565
Mg13 Mg17 3.170072 1_565
Mg13 Mg16 3.170628 1_565
Mg14 Mg22 3.083634 1_555
Mg14 Mg5 3.159582 1_655
Mg14 Mg7 3.159693 1_655
Mg14 Mg4 3.159693 1_655
Mg14 Mg20 3.169940 1_655
Mg14 Mg18 3.169949 1_655
Mg14 Mg16 3.170274 1_655
Mg15 Mg22 3.083966 1_555
Mg15 Mg6 3.159038 1_555
Mg15 Mg5 3.159484 1_555
Mg15 Mg4 3.159569 1_555
Mg15 Mg19 3.169809 1_555
Mg15 Mg17 3.169830 1_555
Mg15 Mg18 3.170172 1_555
Mg16 Mg4 2.970764 1_555
Mg16 Mg3 2.970770 1_445
Mg16 Mg7 2.970770 1_555
Mg16 Mg9 3.170628 1_455
Mg17 Mg2 2.970710 1_545
Mg17 Mg6 2.970710 1_555
Mg17 Mg4 2.970760 1_555
Mg17 Mg9 3.170072 1_555
Mg18 Mg4 2.970618 1_555
Mg18 Mg5 2.970636 1_555
Mg19 Mg2 2.970771 1_554
Mg19 Mg6 2.970771 1_555
Mg19 Mg5 2.970877 1_555
Mg19 Mg8 3.169818 1_555
Mg20 Mg3 2.970615 1_454
Mg20 Mg7 2.970615 1_555
Mg20 Mg5 2.970627 1_555
Mg20 Mg8 3.170172 1_455
Mg21 Mg6 2.970701 1_555
Mg21 Mg7 2.970757 1_555
Mg21 Mg3 2.970757 1_544
Mg21 Mg8 3.169830 1_545
Mg21 Mg9 3.170064 1_554
Mg22 Mg9 3.083062 1_555
Mg22 Mg8 3.083957 1_555
As0 Ce5 2.977650 1_544
As0 Ce2 2.977650 1_455
As0 Ce4 2.977650 1_454
As0 Ce1 2.977650 1_545
As0 Ce0 2.977773 1_445
As0 Ce3 2.977773 1_554
