# generated using pymatgen
data_YFe6Co5W
_symmetry_space_group_name_H-M   'P 1'
_cell_length_a   4.70587900
_cell_length_b   6.41431584
_cell_length_c   6.41431584
_cell_angle_alpha   97.63967509
_cell_angle_beta   111.52001244
_cell_angle_gamma   68.47998756
_symmetry_Int_Tables_number   1
_chemical_formula_structural   YFe6Co5W
_chemical_formula_sum   'Y1 Fe6 Co5 W1'
_cell_volume   167.56253247
_cell_formula_units_Z   1
loop_
 _symmetry_equiv_pos_site_id
 _symmetry_equiv_pos_as_xyz
  1  'x, y, z'
loop_
 _atom_site_type_symbol
 _atom_site_label
 _atom_site_symmetry_multiplicity
 _atom_site_fract_x
 _atom_site_fract_y
 _atom_site_fract_z
 _atom_site_occupancy
  Y  Y0  1  0.00000000  0.00420800  0.00420800  1
  Fe  Fe0  1  0.49753000  0.00396100  0.50153200  1
  Fe  Fe1  1  0.00004100  0.00396100  0.50153200  1
  Fe  Fe2  1  0.50247000  0.50153200  0.00396100  1
  Fe  Fe3  1  0.99995900  0.50153200  0.00396100  1
  Fe  Fe4  1  0.50000000  0.77396100  0.77396100  1
  Fe  Fe5  1  0.50000000  0.23062900  0.23062900  1
  Co  Co0  1  0.63998000  0.36065000  0.64061000  1
  Co  Co1  1  0.36002000  0.64061000  0.36065000  1
  Co  Co2  1  0.00000000  0.35058200  0.35058200  1
  Co  Co3  1  0.72315300  0.77619000  0.22249500  1
  Co  Co4  1  0.27684700  0.22249500  0.77619000  1
  W  W0  1  0.00000000  0.62969100  0.62969100  1
loop_
_geom_bond_atom_site_label_1
_geom_bond_atom_site_label_2
_geom_bond_distance
_geom_bond_site_symmetry_2
Fe0 Fe1 2.341123 1_555
Fe0 Fe1 2.364756 1_655
Fe0 Fe5 2.415042 1_555
Fe0 Fe4 2.426553 1_545
Fe0 W0 2.638985 1_645
Fe0 Y0 3.190134 1_555
Fe0 Y0 3.224183 1_656
Fe1 Fe5 2.415042 1_455
Fe1 Fe4 2.426553 1_545
Fe1 W0 2.638985 1_545
Fe1 Y0 3.190133 1_555
Fe1 Y0 3.224183 1_556
Fe2 Fe3 2.341123 1_555
Fe2 Fe3 2.364756 1_455
Fe2 Fe5 2.415042 1_555
Fe2 Fe4 2.426553 1_554
Fe2 W0 2.638985 1_554
Fe2 Y0 3.190134 1_655
Fe2 Y0 3.224183 1_565
Fe3 Fe5 2.415042 1_655
Fe3 Fe4 2.426553 1_554
Fe3 W0 2.638985 1_654
Fe3 Y0 3.190133 1_655
Fe3 Y0 3.224183 1_665
Fe4 W0 2.649781 1_555
Fe4 W0 2.649781 1_655
Fe4 Y0 3.052657 1_566
Fe4 Y0 3.052657 1_666
Fe5 Y0 3.032170 1_555
Fe5 Y0 3.032170 1_655
Co0 Co1 2.360331 1_555
Co0 Fe5 2.567890 1_555
Co0 Fe0 2.573626 1_555
Co0 Fe1 2.573626 1_655
Co0 Fe4 2.592903 1_555
Co0 Fe2 2.604755 1_556
Co0 Fe3 2.604755 1_556
Co0 Co4 2.620682 1_655
Co0 Co4 2.620686 1_555
Co0 W0 2.849128 1_655
Co0 W0 2.849128 1_555
Co0 Co2 2.921551 1_655
Co0 Co2 2.921551 1_555
Co0 Y0 3.035464 1_656
Co1 Fe5 2.567890 1_555
Co1 Fe2 2.573626 1_555
Co1 Fe3 2.573626 1_455
Co1 Fe4 2.592903 1_555
Co1 Fe0 2.604755 1_565
Co1 Fe1 2.604755 1_565
Co1 Co3 2.620682 1_455
Co1 Co3 2.620686 1_555
Co1 W0 2.849128 1_555
Co1 W0 2.849128 1_655
Co1 Co2 2.921551 1_555
Co1 Co2 2.921551 1_655
Co1 Y0 3.035464 1_565
Co2 W0 2.357562 1_555
Co2 Fe1 2.540205 1_555
Co2 Fe3 2.540205 1_455
Co2 Fe0 2.540206 1_555
Co2 Fe2 2.540206 1_455
Co2 Fe5 2.561820 1_555
Co2 Fe5 2.561820 1_455
Co2 Co3 2.650825 1_455
Co2 Co4 2.650825 1_555
Co2 Y0 2.925732 1_555
Co3 Fe3 2.400998 1_555
Co3 Fe2 2.401000 1_555
Co3 Fe1 2.454830 1_665
Co3 Fe0 2.454833 1_565
Co3 W0 2.580740 1_655
Co3 Fe4 2.676537 1_554
Co3 Fe5 2.712240 1_565
Co3 Y0 3.012910 1_665
Co3 Y0 3.012914 1_565
Co4 Fe1 2.400998 1_555
Co4 Fe0 2.401000 1_555
Co4 Fe3 2.454830 1_456
Co4 Fe2 2.454833 1_556
Co4 W0 2.580740 1_555
Co4 Fe4 2.676537 1_545
Co4 Fe5 2.712240 1_556
Co4 Y0 3.012910 1_556
Co4 Y0 3.012914 1_656
W0 Y0 3.163448 1_566
