# generated using pymatgen
data_MgAlSi4O15
_symmetry_space_group_name_H-M   'P 1'
_cell_length_a   11.14199199
_cell_length_b   11.14199199
_cell_length_c   5.28421297
_cell_angle_alpha   84.20412286
_cell_angle_beta   84.20412286
_cell_angle_gamma   104.74299667
_symmetry_Int_Tables_number   1
_chemical_formula_structural   MgAlSi4O15
_chemical_formula_sum   'Mg2 Al2 Si8 O30'
_cell_volume   625.66748650
_cell_formula_units_Z   2
loop_
 _symmetry_equiv_pos_site_id
 _symmetry_equiv_pos_as_xyz
  1  'x, y, z'
loop_
 _atom_site_type_symbol
 _atom_site_label
 _atom_site_symmetry_multiplicity
 _atom_site_fract_x
 _atom_site_fract_y
 _atom_site_fract_z
 _atom_site_occupancy
  Mg  Mg0  1  0.11107100  0.88892900  0.50000000  1
  Mg  Mg1  1  0.88892900  0.11107100  0.50000000  1
  Al  Al0  1  0.16545900  0.83454100  0.00000000  1
  Al  Al1  1  0.83454100  0.16545900  0.00000000  1
  Si  Si0  1  0.29416800  0.11463300  0.11226400  1
  Si  Si1  1  0.11463300  0.29416800  0.11226400  1
  Si  Si2  1  0.70583200  0.88536700  0.88773600  1
  Si  Si3  1  0.88536700  0.70583200  0.88773600  1
  Si  Si4  1  0.37885100  0.04172500  0.61533500  1
  Si  Si5  1  0.04172500  0.37885100  0.61533500  1
  Si  Si6  1  0.62114900  0.95827500  0.38466500  1
  Si  Si7  1  0.95827500  0.62114900  0.38466500  1
  O  O0  1  0.38283700  0.61716300  0.50000000  1
  O  O1  1  0.61716300  0.38283700  0.50000000  1
  O  O2  1  0.19887600  0.97259400  0.15874100  1
  O  O3  1  0.97259400  0.19887600  0.15874100  1
  O  O4  1  0.80112400  0.02740600  0.84125900  1
  O  O5  1  0.02740600  0.80112400  0.84125900  1
  O  O6  1  0.25935200  0.91727900  0.69506000  1
  O  O7  1  0.91727900  0.25935200  0.69506000  1
  O  O8  1  0.74064800  0.08272100  0.30494000  1
  O  O9  1  0.08272100  0.74064800  0.30494000  1
  O  O10  1  0.40854800  0.59145200  0.00000000  1
  O  O11  1  0.59145200  0.40854800  0.00000000  1
  O  O12  1  0.50000000  0.00000000  0.50000000  1
  O  O13  1  0.00000000  0.50000000  0.50000000  1
  O  O14  1  0.04212400  0.04212400  0.55670500  1
  O  O15  1  0.95787600  0.95787600  0.44329500  1
  O  O16  1  0.22114800  0.22114800  0.04442500  1
  O  O17  1  0.77885200  0.77885200  0.95557500  1
  O  O18  1  0.39969500  0.11522500  0.86927500  1
  O  O19  1  0.11522500  0.39969500  0.86927500  1
  O  O20  1  0.60030500  0.88477500  0.13072500  1
  O  O21  1  0.88477500  0.60030500  0.13072500  1
  O  O22  1  0.35046200  0.13641500  0.38302400  1
  O  O23  1  0.13641500  0.35046200  0.38302400  1
  O  O24  1  0.64953800  0.86358500  0.61697600  1
  O  O25  1  0.86358500  0.64953800  0.61697600  1
  O  O26  1  0.32174300  0.75449500  0.05872700  1
  O  O27  1  0.75449500  0.32174300  0.05872700  1
  O  O28  1  0.67825700  0.24550500  0.94127300  1
  O  O29  1  0.24550500  0.67825700  0.94127300  1
loop_
_geom_bond_atom_site_label_1
_geom_bond_atom_site_label_2
_geom_bond_distance
_geom_bond_site_symmetry_2
Mg0 O2 1.979379 1_555
Mg0 O5 1.979379 1_555
Mg0 O9 2.008947 1_555
Mg0 O6 2.008947 1_555
Mg0 O15 2.077888 1_455
Mg0 O14 2.077888 1_565
Mg1 O3 1.979379 1_555
Mg1 O4 1.979379 1_555
Mg1 O8 2.008947 1_555
Mg1 O7 2.008947 1_555
Mg1 O15 2.077888 1_545
Mg1 O14 2.077888 1_655
Al0 O2 1.800124 1_555
Al0 O5 1.800124 1_554
Al0 O9 1.846467 1_555
Al0 O6 1.846467 1_554
Al0 O29 2.183483 1_554
Al0 O26 2.183483 1_555
Al1 O3 1.800124 1_555
Al1 O4 1.800124 1_554
Al1 O7 1.846467 1_554
Al1 O8 1.846467 1_555
Al1 O27 2.183483 1_555
Al1 O28 2.183483 1_554
O2 Si0 1.644943 1_565
O3 Si1 1.644943 1_655
O4 Si2 1.644943 1_545
O5 Si3 1.644943 1_455
O6 Si4 1.643759 1_565
O7 Si5 1.643759 1_655
O8 Si6 1.643759 1_545
O9 Si7 1.643759 1_455
O12 Si6 1.618675 1_545
O12 Si4 1.618675 1_555
O13 Si7 1.618675 1_455
O13 Si5 1.618675 1_555
O14 O15 1.378470 1_445
O16 Si1 1.631967 1_555
O16 Si0 1.631967 1_555
O17 Si2 1.631967 1_555
O17 Si3 1.631967 1_555
O18 Si4 1.647211 1_555
O18 Si0 1.649425 1_556
O19 Si5 1.647211 1_555
O19 Si1 1.649425 1_556
O20 Si6 1.647211 1_555
O20 Si2 1.649425 1_554
O21 Si7 1.647211 1_555
O21 Si3 1.649425 1_554
O22 Si0 1.635015 1_555
O22 Si4 1.645236 1_555
O23 Si1 1.635015 1_555
O23 Si5 1.645236 1_555
O24 Si2 1.635015 1_555
O24 Si6 1.645236 1_555
O25 Si3 1.635015 1_555
O25 Si7 1.645236 1_555
O26 O29 1.293843 1_554
O27 O28 1.293843 1_554
