# generated using pymatgen
data_ErSi2
_symmetry_space_group_name_H-M   'P 1'
_cell_length_a   7.94917282
_cell_length_b   7.94917282
_cell_length_c   7.94917282
_cell_angle_alpha   151.78416747
_cell_angle_beta   151.78416747
_cell_angle_gamma   40.32857374
_symmetry_Int_Tables_number   1
_chemical_formula_structural   ErSi2
_chemical_formula_sum   'Er2 Si4'
_cell_volume   112.05779870
_cell_formula_units_Z   2
loop_
 _symmetry_equiv_pos_site_id
 _symmetry_equiv_pos_as_xyz
  1  'x, y, z'
loop_
 _atom_site_type_symbol
 _atom_site_label
 _atom_site_symmetry_multiplicity
 _atom_site_fract_x
 _atom_site_fract_y
 _atom_site_fract_z
 _atom_site_occupancy
  Er  Er0  1  0.75000000  0.25000000  0.50000000  1
  Er  Er1  1  0.00000000  0.00000000  0.00000000  1
  Si  Si0  1  0.16902902  0.66902902  0.50000000  1
  Si  Si1  1  0.58097098  0.58097098  0.00000000  1
  Si  Si2  1  0.33097098  0.83097098  0.50000000  1
  Si  Si3  1  0.41902902  0.41902902  -0.00000000  1
loop_
_geom_bond_atom_site_label_1
_geom_bond_atom_site_label_2
_geom_bond_distance
_geom_bond_site_symmetry_2
Er0 Si2 2.994804 1_555
Er0 Si0 2.994804 1_544
Er0 Si0 2.994804 1_555
Er0 Si0 2.994804 1_656
Er0 Si0 2.994804 1_645
Er0 Si2 2.994804 1_544
Er0 Si2 2.994804 1_656
Er0 Si2 2.994804 1_645
Er0 Si3 3.180830 1_656
Er0 Si3 3.180830 1_555
Er0 Si1 3.180830 1_545
Er0 Si1 3.180830 1_556
Er1 Si3 2.994804 1_455
Er1 Si3 2.994804 1_545
Er1 Si3 2.994804 1_444
Er1 Si3 2.994804 1_556
Er1 Si1 2.994804 1_444
Er1 Si1 2.994804 1_455
Er1 Si1 2.994804 1_545
Er1 Si1 2.994804 1_556
Er1 Si2 3.180830 1_545
Er1 Si0 3.180830 1_544
Er1 Si0 3.180830 1_555
Er1 Si2 3.180830 1_444
Si0 Si1 2.341228 1_455
Si0 Si1 2.341228 1_556
Si0 Si2 2.416806 1_555
Si1 Si3 2.416806 1_555
Si2 Si3 2.341228 1_566
Si2 Si3 2.341228 1_555
