# generated using pymatgen
data_BeH6(NF)2
_symmetry_space_group_name_H-M   'P 1'
_cell_length_a   5.01343434
_cell_length_b   7.14796800
_cell_length_c   10.41157912
_cell_angle_alpha   90.00000000
_cell_angle_beta   92.76522989
_cell_angle_gamma   90.00000000
_symmetry_Int_Tables_number   1
_chemical_formula_structural   BeH6(NF)2
_chemical_formula_sum   'Be4 H24 N8 F8'
_cell_volume   372.67352976
_cell_formula_units_Z   4
loop_
 _symmetry_equiv_pos_site_id
 _symmetry_equiv_pos_as_xyz
  1  'x, y, z'
loop_
 _atom_site_type_symbol
 _atom_site_label
 _atom_site_symmetry_multiplicity
 _atom_site_fract_x
 _atom_site_fract_y
 _atom_site_fract_z
 _atom_site_occupancy
  Be  Be0  1  0.36440100  0.36324500  0.31540100  1
  Be  Be1  1  0.63559900  0.86324500  0.18459900  1
  Be  Be2  1  0.63559900  0.63675500  0.68459900  1
  Be  Be3  1  0.36440100  0.13675500  0.81540100  1
  H  H0  1  0.25927500  0.16318500  0.48770700  1
  H  H1  1  0.74072500  0.66318500  0.01229300  1
  H  H2  1  0.74072500  0.83681500  0.51229300  1
  H  H3  1  0.25927500  0.33681500  0.98770700  1
  H  H4  1  0.02269200  0.15974000  0.37193000  1
  H  H5  1  0.97730800  0.65974000  0.12807000  1
  H  H6  1  0.97730800  0.84026000  0.62807000  1
  H  H7  1  0.02269200  0.34026000  0.87193000  1
  H  H8  1  0.30815500  0.04889800  0.35251800  1
  H  H9  1  0.69184500  0.54889800  0.14748200  1
  H  H10  1  0.69184500  0.95110200  0.64748200  1
  H  H11  1  0.30815500  0.45110200  0.85251800  1
  H  H12  1  0.29189000  0.67990400  0.33080000  1
  H  H13  1  0.70811000  0.17990400  0.16920000  1
  H  H14  1  0.70811000  0.32009600  0.66920000  1
  H  H15  1  0.29189000  0.82009600  0.83080000  1
  H  H16  1  0.01583500  0.56480200  0.36201900  1
  H  H17  1  0.98416500  0.06480200  0.13798100  1
  H  H18  1  0.98416500  0.43519800  0.63798100  1
  H  H19  1  0.01583500  0.93519800  0.86201900  1
  H  H20  1  0.26079300  0.58589600  0.47386000  1
  H  H21  1  0.73920700  0.08589600  0.02614000  1
  H  H22  1  0.73920700  0.41410400  0.52614000  1
  H  H23  1  0.26079300  0.91410400  0.97386000  1
  N  N0  1  0.22506800  0.16785400  0.38925000  1
  N  N1  1  0.77493200  0.66785400  0.11075000  1
  N  N2  1  0.77493200  0.83214600  0.61075000  1
  N  N3  1  0.22506800  0.33214600  0.88925000  1
  N  N4  1  0.21929500  0.56478000  0.37677900  1
  N  N5  1  0.78070500  0.06478000  0.12322100  1
  N  N6  1  0.78070500  0.43522000  0.62322100  1
  N  N7  1  0.21929500  0.93522000  0.87677900  1
  F  F0  1  0.66936500  0.36699500  0.35160800  1
  F  F1  1  0.33063500  0.86699500  0.14839200  1
  F  F2  1  0.33063500  0.63300500  0.64839200  1
  F  F3  1  0.66936500  0.13300500  0.85160800  1
  F  F4  1  0.30744100  0.35408900  0.16883300  1
  F  F5  1  0.69255900  0.85408900  0.33116700  1
  F  F6  1  0.69255900  0.64591100  0.83116700  1
  F  F7  1  0.30744100  0.14591100  0.66883300  1
loop_
_geom_bond_atom_site_label_1
_geom_bond_atom_site_label_2
_geom_bond_distance
_geom_bond_site_symmetry_2
Be0 F4 1.540284 1_555
Be0 F0 1.557178 1_555
Be0 N4 1.748624 1_555
Be0 N0 1.755445 1_555
Be1 F5 1.540284 1_555
Be1 F1 1.557178 1_555
Be1 N5 1.748624 1_565
Be1 N1 1.755445 1_555
Be2 F6 1.540284 1_555
Be2 F2 1.557178 1_555
Be2 N6 1.748624 1_555
Be2 N2 1.755445 1_555
Be3 F7 1.540284 1_555
Be3 F3 1.557178 1_555
Be3 N7 1.748624 1_545
Be3 N3 1.755445 1_555
H0 N0 1.031687 1_555
H1 N1 1.031687 1_555
H2 N2 1.031687 1_555
H3 N3 1.031687 1_555
H4 N0 1.023543 1_555
H5 N1 1.023543 1_555
H6 N2 1.023543 1_555
H7 N3 1.023543 1_555
H8 N0 1.028661 1_555
H9 N1 1.028661 1_555
H10 N2 1.028661 1_555
H11 N3 1.028661 1_555
H12 N4 1.027427 1_555
H13 N5 1.027427 1_555
H14 N6 1.027427 1_555
H15 N7 1.027427 1_555
H16 N4 1.024187 1_555
H17 N5 1.024187 1_555
H18 N6 1.024187 1_555
H19 N7 1.024187 1_555
H20 N4 1.033162 1_555
H21 N5 1.033162 1_555
H22 N6 1.033162 1_555
H23 N7 1.033162 1_555
