# generated using pymatgen
data_Ti2Zn3(Si2O7)2
_symmetry_space_group_name_H-M   'P 1'
_cell_length_a   9.19717701
_cell_length_b   9.19717701
_cell_length_c   9.80499802
_cell_angle_alpha   61.30346067
_cell_angle_beta   61.30346067
_cell_angle_gamma   49.57344249
_symmetry_Int_Tables_number   1
_chemical_formula_structural   Ti2Zn3(Si2O7)2
_chemical_formula_sum   'Ti4 Zn6 Si8 O28'
_cell_volume   535.82699315
_cell_formula_units_Z   2
loop_
 _symmetry_equiv_pos_site_id
 _symmetry_equiv_pos_as_xyz
  1  'x, y, z'
loop_
 _atom_site_type_symbol
 _atom_site_label
 _atom_site_symmetry_multiplicity
 _atom_site_fract_x
 _atom_site_fract_y
 _atom_site_fract_z
 _atom_site_occupancy
  Ti  Ti0  1  0.81412100  0.18587900  0.75000000  1
  Ti  Ti1  1  0.18587900  0.81412100  0.25000000  1
  Ti  Ti2  1  0.00000000  0.00000000  0.00000000  1
  Ti  Ti3  1  0.00000000  0.00000000  0.50000000  1
  Zn  Zn0  1  0.07251100  0.28386600  0.08881700  1
  Zn  Zn1  1  0.71613400  0.92748900  0.41118300  1
  Zn  Zn2  1  0.28386600  0.07251100  0.58881700  1
  Zn  Zn3  1  0.39388100  0.60611900  0.75000000  1
  Zn  Zn4  1  0.92748900  0.71613400  0.91118300  1
  Zn  Zn5  1  0.60611900  0.39388100  0.25000000  1
  Si  Si0  1  0.52396300  0.10715500  0.71145700  1
  Si  Si1  1  0.10715500  0.52396300  0.21145700  1
  Si  Si2  1  0.52466100  0.23404600  0.09938100  1
  Si  Si3  1  0.23404600  0.52466100  0.59938100  1
  Si  Si4  1  0.89284500  0.47603700  0.78854300  1
  Si  Si5  1  0.47533900  0.76595400  0.90061900  1
  Si  Si6  1  0.76595400  0.47533900  0.40061900  1
  Si  Si7  1  0.47603700  0.89284500  0.28854300  1
  O  O0  1  0.84217000  0.28922200  0.33933900  1
  O  O1  1  0.94397600  0.89007300  0.41379200  1
  O  O2  1  0.45874600  0.64654200  0.08928200  1
  O  O3  1  0.89007300  0.94397600  0.91379200  1
  O  O4  1  0.25868100  0.93989000  0.32400300  1
  O  O5  1  0.05158700  0.51206800  0.62386900  1
  O  O6  1  0.64654200  0.45874600  0.58928200  1
  O  O7  1  0.06011000  0.74131900  0.17599700  1
  O  O8  1  0.94841300  0.48793200  0.37613100  1
  O  O9  1  0.64314000  0.66648400  0.26566900  1
  O  O10  1  0.05602400  0.10992700  0.58620800  1
  O  O11  1  0.74131900  0.06011000  0.67599700  1
  O  O12  1  0.48793200  0.94841300  0.87613100  1
  O  O13  1  0.28922200  0.84217000  0.83933900  1
  O  O14  1  0.66648400  0.64314000  0.76566900  1
  O  O15  1  0.93989000  0.25868100  0.82400300  1
  O  O16  1  0.89687000  0.51228200  0.93399600  1
  O  O17  1  0.35686000  0.33351600  0.73433100  1
  O  O18  1  0.48771800  0.10313000  0.56600400  1
  O  O19  1  0.33351600  0.35686000  0.23433100  1
  O  O20  1  0.51206800  0.05158700  0.12386900  1
  O  O21  1  0.10992700  0.05602400  0.08620800  1
  O  O22  1  0.51228200  0.89687000  0.43399600  1
  O  O23  1  0.54125400  0.35345800  0.91071800  1
  O  O24  1  0.10313000  0.48771800  0.06600400  1
  O  O25  1  0.35345800  0.54125400  0.41071800  1
  O  O26  1  0.71077800  0.15783000  0.16066100  1
  O  O27  1  0.15783000  0.71077800  0.66066100  1
loop_
_geom_bond_atom_site_label_1
_geom_bond_atom_site_label_2
_geom_bond_distance
_geom_bond_site_symmetry_2
O0 Si6 1.676163 1_555
O0 Zn5 2.171038 1_555
O0 Ti3 2.197357 1_655
O0 Zn0 2.346829 1_655
O1 Zn1 1.902103 1_555
O1 Ti1 1.909812 1_655
O1 Ti3 1.979070 1_665
O2 Si5 1.626838 1_554
O2 Zn5 2.042038 1_555
O2 Ti1 2.162152 1_555
O3 Zn4 1.902103 1_555
O3 Ti0 1.909812 1_565
O3 Ti2 1.979070 1_666
O4 Si7 1.630808 1_555
O4 Ti3 2.052164 1_565
O4 Ti1 2.142410 1_555
O5 Si4 1.642614 1_455
O5 Si3 1.650919 1_555
O6 Si6 1.626838 1_555
O6 Zn3 2.042038 1_555
O6 Ti0 2.162152 1_555
O7 Si1 1.630808 1_555
O7 Ti2 2.052164 1_565
O7 Ti1 2.142410 1_555
O8 Si1 1.642614 1_655
O8 Si6 1.650919 1_555
O9 Si7 1.647485 1_555
O9 Si6 1.656281 1_555
O10 Zn2 1.902103 1_555
O10 Ti0 1.909812 1_455
O10 Ti3 1.979070 1_555
O11 Si0 1.630808 1_555
O11 Ti3 2.052164 1_655
O11 Ti0 2.142410 1_555
O12 Si0 1.642614 1_565
O12 Si5 1.650919 1_555
O13 Si5 1.676163 1_555
O13 Zn3 2.171038 1_555
O13 Ti2 2.197357 1_566
O13 Zn2 2.346829 1_565
O14 Si4 1.647485 1_555
O14 Si5 1.656281 1_555
O15 Si4 1.630808 1_555
O15 Ti2 2.052164 1_656
O15 Ti0 2.142410 1_555
O16 Si4 1.633925 1_555
O16 Zn4 1.966208 1_555
O16 Zn0 2.053843 1_656
O17 Si0 1.647485 1_555
O17 Si3 1.656281 1_555
O18 Si0 1.633925 1_555
O18 Zn2 1.966208 1_555
O18 Zn1 2.053843 1_545
O19 Si1 1.647485 1_555
O19 Si2 1.656281 1_555
O20 Si7 1.642614 1_545
O20 Si2 1.650919 1_555
O21 Zn0 1.902103 1_555
O21 Ti1 1.909812 1_545
O21 Ti2 1.979070 1_555
O22 Si7 1.633925 1_555
O22 Zn1 1.966208 1_555
O22 Zn2 2.053843 1_565
O23 Si2 1.626838 1_556
O23 Zn3 2.042038 1_555
O23 Ti0 2.162152 1_555
O24 Si1 1.633925 1_555
O24 Zn0 1.966208 1_555
O24 Zn4 2.053843 1_454
O25 Si3 1.626838 1_555
O25 Zn5 2.042038 1_555
O25 Ti1 2.162152 1_555
O26 Si2 1.676163 1_555
O26 Zn5 2.171038 1_555
O26 Ti2 2.197357 1_655
O26 Zn1 2.346829 1_545
O27 Si3 1.676163 1_555
O27 Zn3 2.171038 1_555
O27 Ti3 2.197357 1_565
O27 Zn4 2.346829 1_455
