# generated using pymatgen
data_LiLa2Fe2(TeO6)2
_symmetry_space_group_name_H-M   'P 1'
_cell_length_a   5.22879377
_cell_length_b   5.19717311
_cell_length_c   10.81016304
_cell_angle_alpha   89.83587218
_cell_angle_beta   90.00963773
_cell_angle_gamma   60.01301361
_symmetry_Int_Tables_number   1
_chemical_formula_structural   LiLa2Fe2(TeO6)2
_chemical_formula_sum   'Li1 La2 Fe2 Te2 O12'
_cell_volume   254.44035029
_cell_formula_units_Z   1
loop_
 _symmetry_equiv_pos_site_id
 _symmetry_equiv_pos_as_xyz
  1  'x, y, z'
loop_
 _atom_site_type_symbol
 _atom_site_label
 _atom_site_symmetry_multiplicity
 _atom_site_fract_x
 _atom_site_fract_y
 _atom_site_fract_z
 _atom_site_occupancy
  Li  Li0  1  0.00070100  0.99913600  0.25000300  1
  La  La0  1  0.00181600  0.99837400  0.51083500  1
  La  La1  1  0.00168600  0.99875100  0.98914900  1
  Fe  Fe0  1  0.33368900  0.33188100  0.75003200  1
  Fe  Fe1  1  0.66991400  0.66360500  0.25001600  1
  Te  Te0  1  0.66730500  0.66605500  0.74996200  1
  Te  Te1  1  0.33273000  0.33246800  0.25002300  1
  O  O0  1  0.99691300  0.37969900  0.64817700  1
  O  O1  1  0.62670700  0.99893800  0.64910400  1
  O  O2  1  0.38006900  0.62482300  0.64818500  1
  O  O3  1  0.64740700  0.02475000  0.14788400  1
  O  O4  1  0.31842500  0.64993700  0.14667900  1
  O  O5  1  0.02805900  0.32354400  0.14708000  1
  O  O6  1  0.02960900  0.64826000  0.35277900  1
  O  O7  1  0.32056100  0.02900100  0.35383200  1
  O  O8  1  0.64714900  0.32697700  0.35167600  1
  O  O9  1  0.37812800  0.99698500  0.85128700  1
  O  O10  1  0.62279900  0.37973700  0.85223600  1
  O  O11  1  0.99633200  0.62707600  0.85106100  1
loop_
_geom_bond_atom_site_label_1
_geom_bond_atom_site_label_2
_geom_bond_distance
_geom_bond_site_symmetry_2
Li0 O6 2.072538 1_555
Li0 O4 2.073548 1_555
Li0 O5 2.081196 1_565
Li0 O7 2.083493 1_565
Li0 O8 2.095581 1_465
Li0 O3 2.097986 1_465
La0 O7 2.438900 1_565
La0 O6 2.450509 1_555
La0 O2 2.455529 1_555
La0 O1 2.465035 1_455
La0 O0 2.469539 1_465
La0 O8 2.476325 1_465
La1 O4 2.430930 1_556
La1 O11 2.455803 1_455
La1 O5 2.456060 1_566
La1 O9 2.465455 1_555
La1 O10 2.469219 1_465
La1 O3 2.479217 1_466
Fe0 O9 1.966270 1_545
Fe0 O1 1.973131 1_545
Fe0 O0 1.983765 1_455
Fe0 O10 1.986104 1_555
Fe0 O2 1.987070 1_555
Fe0 O11 1.990762 1_455
Fe1 O8 2.116573 1_555
Fe1 O3 2.126727 1_565
Fe1 O5 2.138282 1_655
Fe1 O6 2.150949 1_655
Fe1 O7 2.178973 1_565
Fe1 O4 2.181959 1_555
O0 Te0 1.960090 1_555
O1 Te0 1.961856 1_555
O2 Te0 1.958220 1_555
O3 Te1 1.965811 1_555
O4 Te1 1.960104 1_555
O5 Te1 1.962637 1_555
O6 Te1 1.962243 1_555
O7 Te1 1.959854 1_555
O8 Te1 1.965584 1_555
O9 Te0 1.963649 1_555
O10 Te0 1.956423 1_555
O11 Te0 1.960867 1_555
