# generated using pymatgen
data_Co7B24(H3O23)2
_symmetry_space_group_name_H-M   'P 1'
_cell_length_a   8.26390400
_cell_length_b   20.42360200
_cell_length_c   7.74371300
_cell_angle_alpha   90.00000000
_cell_angle_beta   90.00000000
_cell_angle_gamma   90.00000000
_symmetry_Int_Tables_number   1
_chemical_formula_structural   Co7B24(H3O23)2
_chemical_formula_sum   'Co14 B48 H12 O92'
_cell_volume   1306.97370693
_cell_formula_units_Z   2
loop_
 _symmetry_equiv_pos_site_id
 _symmetry_equiv_pos_as_xyz
  1  'x, y, z'
loop_
 _atom_site_type_symbol
 _atom_site_label
 _atom_site_symmetry_multiplicity
 _atom_site_fract_x
 _atom_site_fract_y
 _atom_site_fract_z
 _atom_site_occupancy
  Co  Co0  1  0.80858200  0.06868600  0.50000000  1
  Co  Co1  1  0.19141800  0.93131400  0.50000000  1
  Co  Co2  1  0.30858200  0.43131400  0.50000000  1
  Co  Co3  1  0.69141800  0.56868600  0.50000000  1
  Co  Co4  1  0.89956600  0.32684900  0.50000000  1
  Co  Co5  1  0.10043400  0.67315100  0.50000000  1
  Co  Co6  1  0.39956600  0.17315100  0.50000000  1
  Co  Co7  1  0.60043400  0.82684900  0.50000000  1
  Co  Co8  1  0.59605100  0.11772700  0.00000000  1
  Co  Co9  1  0.40394900  0.88227300  0.00000000  1
  Co  Co10  1  0.09605100  0.38227300  0.00000000  1
  Co  Co11  1  0.90394900  0.61772700  0.00000000  1
  Co  Co12  1  0.50000000  0.50000000  0.00000000  1
  Co  Co13  1  0.00000000  0.00000000  0.00000000  1
  B  B0  1  0.64908300  0.42904800  0.33112100  1
  B  B1  1  0.35091700  0.57095200  0.33112100  1
  B  B2  1  0.14908300  0.07095200  0.66887900  1
  B  B3  1  0.85091700  0.92904800  0.66887900  1
  B  B4  1  0.35091700  0.57095200  0.66887900  1
  B  B5  1  0.64908300  0.42904800  0.66887900  1
  B  B6  1  0.85091700  0.92904800  0.33112100  1
  B  B7  1  0.14908300  0.07095200  0.33112100  1
  B  B8  1  0.71229000  0.32230500  0.17778700  1
  B  B9  1  0.28771000  0.67769500  0.17778700  1
  B  B10  1  0.21229000  0.17769500  0.82221300  1
  B  B11  1  0.78771000  0.82230500  0.82221300  1
  B  B12  1  0.28771000  0.67769500  0.82221300  1
  B  B13  1  0.71229000  0.32230500  0.82221300  1
  B  B14  1  0.78771000  0.82230500  0.17778700  1
  B  B15  1  0.21229000  0.17769500  0.17778700  1
  B  B16  1  0.73326400  0.20717100  0.33402200  1
  B  B17  1  0.26673600  0.79282900  0.33402200  1
  B  B18  1  0.23326400  0.29282900  0.66597800  1
  B  B19  1  0.76673600  0.70717100  0.66597800  1
  B  B20  1  0.26673600  0.79282900  0.66597800  1
  B  B21  1  0.73326400  0.20717100  0.66597800  1
  B  B22  1  0.76673600  0.70717100  0.33402200  1
  B  B23  1  0.23326400  0.29282900  0.33402200  1
  B  B24  1  0.87073500  0.49163100  0.16886600  1
  B  B25  1  0.12926500  0.50836900  0.16886600  1
  B  B26  1  0.37073500  0.00836900  0.83113400  1
  B  B27  1  0.62926500  0.99163100  0.83113400  1
  B  B28  1  0.12926500  0.50836900  0.83113400  1
  B  B29  1  0.87073500  0.49163100  0.83113400  1
  B  B30  1  0.62926500  0.99163100  0.16886600  1
  B  B31  1  0.37073500  0.00836900  0.16886600  1
  B  B32  1  0.92200600  0.13088200  0.16823900  1
  B  B33  1  0.07799400  0.86911800  0.16823900  1
  B  B34  1  0.42200600  0.36911800  0.83176100  1
  B  B35  1  0.57799400  0.63088200  0.83176100  1
  B  B36  1  0.07799400  0.86911800  0.83176100  1
  B  B37  1  0.92200600  0.13088200  0.83176100  1
  B  B38  1  0.57799400  0.63088200  0.16823900  1
  B  B39  1  0.42200600  0.36911800  0.16823900  1
  B  B40  1  0.98242000  0.26014000  0.16691300  1
  B  B41  1  0.01758000  0.73986000  0.16691300  1
  B  B42  1  0.48242000  0.23986000  0.83308700  1
  B  B43  1  0.51758000  0.76014000  0.83308700  1
  B  B44  1  0.01758000  0.73986000  0.83308700  1
  B  B45  1  0.98242000  0.26014000  0.83308700  1
  B  B46  1  0.51758000  0.76014000  0.16691300  1
  B  B47  1  0.48242000  0.23986000  0.16691300  1
  H  H0  1  0.51834100  0.06848100  0.38867900  1
  H  H1  1  0.48165900  0.93151900  0.38867900  1
  H  H2  1  0.01834100  0.43151900  0.61132100  1
  H  H3  1  0.98165900  0.56848100  0.61132100  1
  H  H4  1  0.48165900  0.93151900  0.61132100  1
  H  H5  1  0.51834100  0.06848100  0.61132100  1
  H  H6  1  0.98165900  0.56848100  0.38867900  1
  H  H7  1  0.01834100  0.43151900  0.38867900  1
  H  H8  1  0.74928500  0.40046500  0.00000000  1
  H  H9  1  0.25071500  0.59953500  0.00000000  1
  H  H10  1  0.24928500  0.09953500  0.00000000  1
  H  H11  1  0.75071500  0.90046500  0.00000000  1
  O  O0  1  0.52221300  0.42692300  0.19189900  1
  O  O1  1  0.47778700  0.57307700  0.19189900  1
  O  O2  1  0.02221300  0.07307700  0.80810100  1
  O  O3  1  0.97778700  0.92692300  0.80810100  1
  O  O4  1  0.47778700  0.57307700  0.80810100  1
  O  O5  1  0.52221300  0.42692300  0.80810100  1
  O  O6  1  0.97778700  0.92692300  0.19189900  1
  O  O7  1  0.02221300  0.07307700  0.19189900  1
  O  O8  1  0.52423200  0.05238700  0.18127600  1
  O  O9  1  0.47576800  0.94761300  0.18127600  1
  O  O10  1  0.02423200  0.44761300  0.81872400  1
  O  O11  1  0.97576800  0.55238700  0.81872400  1
  O  O12  1  0.47576800  0.94761300  0.81872400  1
  O  O13  1  0.52423200  0.05238700  0.81872400  1
  O  O14  1  0.97576800  0.55238700  0.18127600  1
  O  O15  1  0.02423200  0.44761300  0.18127600  1
  O  O16  1  0.53726900  0.30904700  0.17118800  1
  O  O17  1  0.46273100  0.69095300  0.17118800  1
  O  O18  1  0.03726900  0.19095300  0.82881200  1
  O  O19  1  0.96273100  0.80904700  0.82881200  1
  O  O20  1  0.46273100  0.69095300  0.82881200  1
  O  O21  1  0.53726900  0.30904700  0.82881200  1
  O  O22  1  0.96273100  0.80904700  0.17118800  1
  O  O23  1  0.03726900  0.19095300  0.17118800  1
  O  O24  1  0.55852800  0.20407300  0.30373600  1
  O  O25  1  0.44147200  0.79592700  0.30373600  1
  O  O26  1  0.05852800  0.29592700  0.69626400  1
  O  O27  1  0.94147200  0.70407300  0.69626400  1
  O  O28  1  0.44147200  0.79592700  0.69626400  1
  O  O29  1  0.55852800  0.20407300  0.69626400  1
  O  O30  1  0.94147200  0.70407300  0.30373600  1
  O  O31  1  0.05852800  0.29592700  0.30373600  1
  O  O32  1  0.75102000  0.36746800  0.31015000  1
  O  O33  1  0.24898000  0.63253200  0.31015000  1
  O  O34  1  0.25102000  0.13253200  0.68985000  1
  O  O35  1  0.74898000  0.86746800  0.68985000  1
  O  O36  1  0.24898000  0.63253200  0.68985000  1
  O  O37  1  0.75102000  0.36746800  0.68985000  1
  O  O38  1  0.74898000  0.86746800  0.31015000  1
  O  O39  1  0.25102000  0.13253200  0.31015000  1
  O  O40  1  0.75684700  0.48644000  0.30970900  1
  O  O41  1  0.24315300  0.51356000  0.30970900  1
  O  O42  1  0.25684700  0.01356000  0.69029100  1
  O  O43  1  0.74315300  0.98644000  0.69029100  1
  O  O44  1  0.24315300  0.51356000  0.69029100  1
  O  O45  1  0.75684700  0.48644000  0.69029100  1
  O  O46  1  0.74315300  0.98644000  0.30970900  1
  O  O47  1  0.25684700  0.01356000  0.30970900  1
  O  O48  1  0.80074100  0.25830900  0.19610800  1
  O  O49  1  0.19925900  0.74169100  0.19610800  1
  O  O50  1  0.30074100  0.24169100  0.80389200  1
  O  O51  1  0.69925900  0.75830900  0.80389200  1
  O  O52  1  0.19925900  0.74169100  0.80389200  1
  O  O53  1  0.80074100  0.25830900  0.80389200  1
  O  O54  1  0.69925900  0.75830900  0.19610800  1
  O  O55  1  0.30074100  0.24169100  0.19610800  1
  O  O56  1  0.80677700  0.14268400  0.30497600  1
  O  O57  1  0.19322300  0.85731600  0.30497600  1
  O  O58  1  0.30677700  0.35731600  0.69502400  1
  O  O59  1  0.69322300  0.64268400  0.69502400  1
  O  O60  1  0.19322300  0.85731600  0.69502400  1
  O  O61  1  0.80677700  0.14268400  0.69502400  1
  O  O62  1  0.69322300  0.64268400  0.30497600  1
  O  O63  1  0.30677700  0.35731600  0.30497600  1
  O  O64  1  0.55252500  0.08972400  0.50000000  1
  O  O65  1  0.44747500  0.91027600  0.50000000  1
  O  O66  1  0.05252500  0.41027600  0.50000000  1
  O  O67  1  0.94747500  0.58972400  0.50000000  1
  O  O68  1  0.56708700  0.43108700  0.50000000  1
  O  O69  1  0.43291300  0.56891300  0.50000000  1
  O  O70  1  0.06708700  0.06891300  0.50000000  1
  O  O71  1  0.93291300  0.93108700  0.50000000  1
  O  O72  1  0.77504400  0.23535900  0.50000000  1
  O  O73  1  0.22495600  0.76464100  0.50000000  1
  O  O74  1  0.27504400  0.26464100  0.50000000  1
  O  O75  1  0.72495600  0.73535900  0.50000000  1
  O  O76  1  0.52193000  0.21090500  0.00000000  1
  O  O77  1  0.47807000  0.78909500  0.00000000  1
  O  O78  1  0.02193000  0.28909500  0.00000000  1
  O  O79  1  0.97807000  0.71090500  0.00000000  1
  O  O80  1  0.75838300  0.35130800  0.00000000  1
  O  O81  1  0.24161700  0.64869200  0.00000000  1
  O  O82  1  0.25838300  0.14869200  0.00000000  1
  O  O83  1  0.74161700  0.85130800  0.00000000  1
  O  O84  1  0.78820200  0.48345100  0.00000000  1
  O  O85  1  0.21179800  0.51654900  0.00000000  1
  O  O86  1  0.28820200  0.01654900  0.00000000  1
  O  O87  1  0.71179800  0.98345100  0.00000000  1
  O  O88  1  0.83868300  0.12876100  0.00000000  1
  O  O89  1  0.16131700  0.87123900  0.00000000  1
  O  O90  1  0.33868300  0.37123900  0.00000000  1
  O  O91  1  0.66131700  0.62876100  0.00000000  1
loop_
_geom_bond_atom_site_label_1
_geom_bond_atom_site_label_2
_geom_bond_distance
_geom_bond_site_symmetry_2
Co0 O70 2.136266 1_655
Co0 O61 2.136586 1_555
Co0 O56 2.136586 1_555
Co0 O64 2.159213 1_555
Co0 O43 2.298983 1_545
Co0 O46 2.298983 1_545
Co1 O71 2.136266 1_455
Co1 O60 2.136586 1_555
Co1 O57 2.136586 1_555
Co1 O65 2.159213 1_555
Co1 O47 2.298983 1_565
Co1 O42 2.298983 1_565
Co2 O68 2.136266 1_555
Co2 O58 2.136586 1_555
Co2 O63 2.136586 1_555
Co2 O66 2.159213 1_555
Co2 O41 2.298983 1_555
Co2 O44 2.298983 1_555
Co3 O69 2.136266 1_555
Co3 O59 2.136586 1_555
Co3 O62 2.136586 1_555
Co3 O67 2.159213 1_555
Co3 O40 2.298983 1_555
Co3 O45 2.298983 1_555
Co4 O32 2.087214 1_555
Co4 O37 2.087214 1_555
Co4 O26 2.105787 1_655
Co4 O31 2.105787 1_655
Co4 O66 2.121556 1_655
Co4 O72 2.133171 1_555
Co5 O33 2.087214 1_555
Co5 O36 2.087214 1_555
Co5 O30 2.105787 1_455
Co5 O27 2.105787 1_455
Co5 O67 2.121556 1_455
Co5 O73 2.133171 1_555
Co6 O39 2.087214 1_555
Co6 O34 2.087214 1_555
Co6 O29 2.105787 1_555
Co6 O24 2.105787 1_555
Co6 O64 2.121556 1_555
Co6 O74 2.133171 1_555
Co7 O38 2.087214 1_555
Co7 O35 2.087214 1_555
Co7 O25 2.105787 1_555
Co7 O28 2.105787 1_555
Co7 O65 2.121556 1_555
Co7 O75 2.133171 1_555
Co8 O76 1.999179 1_555
Co8 O88 2.017712 1_555
Co8 O13 2.025733 1_554
Co8 O8 2.025733 1_555
Co9 O77 1.999179 1_555
Co9 O89 2.017712 1_555
Co9 O9 2.025733 1_555
Co9 O12 2.025733 1_554
Co10 O78 1.999179 1_555
Co10 O90 2.017712 1_555
Co10 O15 2.025733 1_555
Co10 O10 2.025733 1_554
Co11 O79 1.999179 1_555
Co11 O91 2.017712 1_555
Co11 O11 2.025733 1_554
Co11 O14 2.025733 1_555
Co12 O0 2.114112 1_555
Co12 O5 2.114112 1_554
Co12 O1 2.114112 1_555
Co12 O4 2.114112 1_554
Co12 O85 2.405537 1_555
Co12 O84 2.405537 1_555
Co13 O7 2.114112 1_555
Co13 O2 2.114112 1_554
Co13 O6 2.114112 1_445
Co13 O3 2.114112 1_444
Co13 O86 2.405537 1_555
Co13 O87 2.405537 1_445
B0 O68 1.473464 1_555
B0 O40 1.481389 1_555
B0 O0 1.504461 1_555
B0 O32 1.522425 1_555
B1 O69 1.473464 1_555
B1 O41 1.481389 1_555
B1 O1 1.504461 1_555
B1 O33 1.522425 1_555
B2 O70 1.473464 1_555
B2 O42 1.481389 1_555
B2 O2 1.504461 1_555
B2 O34 1.522425 1_555
B3 O71 1.473464 1_555
B3 O43 1.481389 1_555
B3 O3 1.504461 1_555
B3 O35 1.522425 1_555
B4 O69 1.473464 1_555
B4 O44 1.481389 1_555
B4 O4 1.504461 1_555
B4 O36 1.522425 1_555
B5 O68 1.473464 1_555
B5 O45 1.481389 1_555
B5 O5 1.504461 1_555
B5 O37 1.522425 1_555
B6 O71 1.473464 1_555
B6 O46 1.481389 1_555
B6 O6 1.504461 1_555
B6 O38 1.522425 1_555
B7 O70 1.473464 1_555
B7 O47 1.481389 1_555
B7 O7 1.504461 1_555
B7 O39 1.522425 1_555
B8 O32 1.415567 1_555
B8 O16 1.472372 1_555
B8 O48 1.504241 1_555
B8 O80 1.546400 1_555
B9 O33 1.415567 1_555
B9 O17 1.472372 1_555
B9 O49 1.504241 1_555
B9 O81 1.546400 1_555
B10 O34 1.415567 1_555
B10 O18 1.472372 1_555
B10 O50 1.504241 1_555
B10 O82 1.546400 1_556
B11 O35 1.415567 1_555
B11 O19 1.472372 1_555
B11 O51 1.504241 1_555
B11 O83 1.546400 1_556
B12 O36 1.415567 1_555
B12 O20 1.472372 1_555
B12 O52 1.504241 1_555
B12 O81 1.546400 1_556
B13 O37 1.415567 1_555
B13 O21 1.472372 1_555
B13 O53 1.504241 1_555
B13 O80 1.546400 1_556
B14 O38 1.415567 1_555
B14 O22 1.472372 1_555
B14 O54 1.504241 1_555
B14 O83 1.546400 1_555
B15 O39 1.415567 1_555
B15 O23 1.472372 1_555
B15 O55 1.504241 1_555
B15 O82 1.546400 1_555
B16 O72 1.450034 1_555
B16 O24 1.464290 1_555
B16 O56 1.467750 1_555
B16 O48 1.594464 1_555
B17 O73 1.450034 1_555
B17 O25 1.464290 1_555
B17 O57 1.467750 1_555
B17 O49 1.594464 1_555
B18 O74 1.450034 1_555
B18 O26 1.464290 1_555
B18 O58 1.467750 1_555
B18 O50 1.594464 1_555
B19 O75 1.450034 1_555
B19 O27 1.464290 1_555
B19 O59 1.467750 1_555
B19 O51 1.594464 1_555
B20 O73 1.450034 1_555
B20 O28 1.464290 1_555
B20 O60 1.467750 1_555
B20 O52 1.594464 1_555
B21 O72 1.450034 1_555
B21 O29 1.464290 1_555
B21 O61 1.467750 1_555
B21 O53 1.594464 1_555
B22 O75 1.450034 1_555
B22 O30 1.464290 1_555
B22 O62 1.467750 1_555
B22 O54 1.594464 1_555
B23 O74 1.450034 1_555
B23 O31 1.464290 1_555
B23 O63 1.467750 1_555
B23 O55 1.594464 1_555
B24 O40 1.444484 1_555
B24 O84 1.484265 1_555
B24 O14 1.517351 1_555
B24 O15 1.557723 1_655
B25 O41 1.444484 1_555
B25 O85 1.484265 1_555
B25 O15 1.517351 1_555
B25 O14 1.557723 1_455
B26 O42 1.444484 1_555
B26 O86 1.484265 1_556
B26 O12 1.517351 1_545
B26 O13 1.557723 1_555
B27 O43 1.444484 1_555
B27 O87 1.484265 1_556
B27 O13 1.517351 1_565
B27 O12 1.557723 1_555
B28 O44 1.444484 1_555
B28 O85 1.484265 1_556
B28 O10 1.517351 1_555
B28 O11 1.557723 1_455
B29 O45 1.444484 1_555
B29 O84 1.484265 1_556
B29 O11 1.517351 1_555
B29 O10 1.557723 1_655
B30 O46 1.444484 1_555
B30 O87 1.484265 1_555
B30 O8 1.517351 1_565
B30 O9 1.557723 1_555
B31 O47 1.444484 1_555
B31 O86 1.484265 1_555
B31 O9 1.517351 1_545
B31 O8 1.557723 1_555
B32 O56 1.444310 1_555
B32 O7 1.453652 1_655
B32 O88 1.474206 1_555
B32 O23 1.553390 1_655
B33 O57 1.444310 1_555
B33 O6 1.453652 1_455
B33 O89 1.474206 1_555
B33 O22 1.553390 1_455
B34 O58 1.444310 1_555
B34 O5 1.453652 1_555
B34 O90 1.474206 1_556
B34 O21 1.553390 1_555
B35 O59 1.444310 1_555
B35 O4 1.453652 1_555
B35 O91 1.474206 1_556
B35 O20 1.553390 1_555
B36 O60 1.444310 1_555
B36 O3 1.453652 1_455
B36 O89 1.474206 1_556
B36 O19 1.553390 1_455
B37 O61 1.444310 1_555
B37 O2 1.453652 1_655
B37 O88 1.474206 1_556
B37 O18 1.553390 1_655
B38 O62 1.444310 1_555
B38 O1 1.453652 1_555
B38 O91 1.474206 1_555
B38 O17 1.553390 1_555
B39 O63 1.444310 1_555
B39 O0 1.453652 1_555
B39 O90 1.474206 1_555
B39 O16 1.553390 1_555
B40 O31 1.432609 1_655
B40 O78 1.458405 1_655
B40 O23 1.484335 1_655
B40 O48 1.518764 1_555
B41 O30 1.432609 1_455
B41 O79 1.458405 1_455
B41 O22 1.484335 1_455
B41 O49 1.518764 1_555
B42 O29 1.432609 1_555
B42 O76 1.458405 1_556
B42 O21 1.484335 1_555
B42 O50 1.518764 1_555
B43 O28 1.432609 1_555
B43 O77 1.458405 1_556
B43 O20 1.484335 1_555
B43 O51 1.518764 1_555
B44 O27 1.432609 1_455
B44 O79 1.458405 1_456
B44 O19 1.484335 1_455
B44 O52 1.518764 1_555
B45 O26 1.432609 1_655
B45 O78 1.458405 1_656
B45 O18 1.484335 1_655
B45 O53 1.518764 1_555
B46 O25 1.432609 1_555
B46 O77 1.458405 1_555
B46 O17 1.484335 1_555
B46 O54 1.518764 1_555
B47 O24 1.432609 1_555
B47 O76 1.458405 1_555
B47 O16 1.484335 1_555
B47 O55 1.518764 1_555
H0 O64 1.005557 1_555
H0 O8 1.640083 1_555
H1 O65 1.005557 1_555
H1 O9 1.640083 1_555
H2 O66 1.005557 1_555
H2 O10 1.640083 1_555
H3 O67 1.005557 1_555
H3 O11 1.640083 1_555
H4 O65 1.005557 1_555
H4 O12 1.640083 1_555
H5 O64 1.005557 1_555
H5 O13 1.640083 1_555
H6 O67 1.005557 1_555
H6 O14 1.640083 1_555
H7 O66 1.005557 1_555
H7 O15 1.640083 1_555
H8 O80 1.006774 1_555
H9 O81 1.006774 1_555
H10 O82 1.006774 1_555
H11 O83 1.006774 1_555
