# generated using pymatgen
data_LaAlO3
_symmetry_space_group_name_H-M   'P 1'
_cell_length_a   4.73142022
_cell_length_b   6.39844200
_cell_length_c   4.76175457
_cell_angle_alpha   89.32638111
_cell_angle_beta   119.78947951
_cell_angle_gamma   91.35596217
_symmetry_Int_Tables_number   1
_chemical_formula_structural   LaAlO3
_chemical_formula_sum   'La1 Al1 O3'
_cell_volume   125.07172858
_cell_formula_units_Z   1
loop_
 _symmetry_equiv_pos_site_id
 _symmetry_equiv_pos_as_xyz
  1  'x, y, z'
loop_
 _atom_site_type_symbol
 _atom_site_label
 _atom_site_symmetry_multiplicity
 _atom_site_fract_x
 _atom_site_fract_y
 _atom_site_fract_z
 _atom_site_occupancy
  La  La0  1  0.00000000  0.00000000  0.00000000  1
  Al  Al0  1  0.00000000  0.50000000  0.00000000  1
  O  O0  1  0.50000000  0.00000000  0.00000000  1
  O  O1  1  0.00000000  0.00000000  0.50000000  1
  O  O2  1  0.50000000  0.00000000  0.50000000  1
loop_
_geom_bond_atom_site_label_1
_geom_bond_atom_site_label_2
_geom_bond_distance
_geom_bond_site_symmetry_2
La0 O0 2.365710 1_555
La0 O0 2.365710 1_455
La0 O1 2.380877 1_555
La0 O1 2.380877 1_554
La0 O2 2.380878 1_555
La0 O2 2.380878 1_454
Al0 La0 3.199221 1_565
Al0 La0 3.199221 1_555
