# generated using pymatgen
data_CsSrSiHO4
_symmetry_space_group_name_H-M   'P 1'
_cell_length_a   6.33929844
_cell_length_b   8.25928403
_cell_length_c   5.78044613
_cell_angle_alpha   90.00000000
_cell_angle_beta   116.86989002
_cell_angle_gamma   90.00000000
_symmetry_Int_Tables_number   1
_chemical_formula_structural   CsSrSiHO4
_chemical_formula_sum   'Cs2 Sr2 Si2 H2 O8'
_cell_volume   269.97710394
_cell_formula_units_Z   2
loop_
 _symmetry_equiv_pos_site_id
 _symmetry_equiv_pos_as_xyz
  1  'x, y, z'
loop_
 _atom_site_type_symbol
 _atom_site_label
 _atom_site_symmetry_multiplicity
 _atom_site_fract_x
 _atom_site_fract_y
 _atom_site_fract_z
 _atom_site_occupancy
  Cs  Cs0  1  0.38442748  0.80499034  0.64957541  1
  Cs  Cs1  1  0.61557252  0.30499034  0.35042459  1
  Sr  Sr0  1  0.09856525  0.55761560  0.02931363  1
  Sr  Sr1  1  0.90143475  0.05761560  0.97068637  1
  Si  Si0  1  0.76032182  0.73981954  0.34038878  1
  Si  Si1  1  0.23967818  0.23981954  0.65961122  1
  H  H0  1  0.91163125  0.99479468  0.47785339  1
  H  H1  1  0.08836875  0.49479468  0.52214661  1
  O  O0  1  0.48133797  0.68837254  0.19923155  1
  O  O1  1  0.51866203  0.18837254  0.80076845  1
  O  O2  1  0.87153638  0.76948984  0.13453358  1
  O  O3  1  0.12846362  0.26948984  0.86546642  1
  O  O4  1  0.92248289  0.60904973  0.56636540  1
  O  O5  1  0.07751711  0.10904973  0.43363460  1
  O  O6  1  0.79368085  0.91886772  0.50572105  1
  O  O7  1  0.20631915  0.41886772  0.49427895  1
loop_
_geom_bond_atom_site_label_1
_geom_bond_atom_site_label_2
_geom_bond_distance
_geom_bond_site_symmetry_2
Cs0 H1 3.062539 1_555
Cs0 O5 3.074878 1_565
Cs0 O0 3.086639 1_555
Cs0 O0 3.104140 1_556
Cs0 O2 3.107234 1_556
Cs0 H0 3.120373 1_455
Cs0 O4 3.186326 1_455
Cs0 O6 3.202652 1_555
Cs0 O2 3.281915 1_455
Cs0 O1 3.292744 1_565
Cs0 O7 3.366721 1_555
Cs1 H0 3.062539 1_545
Cs1 O4 3.074878 1_555
Cs1 O1 3.086639 1_555
Cs1 O1 3.104140 1_554
Cs1 O3 3.107234 1_554
Cs1 H1 3.120373 1_655
Cs1 O5 3.186326 1_655
Cs1 O7 3.202652 1_555
Cs1 O3 3.281915 1_655
Cs1 O0 3.292744 1_555
Cs1 O6 3.366721 1_545
H0 O6 1.042676 1_555
H0 O5 1.518114 1_665
H1 O7 1.042676 1_555
H1 O4 1.518114 1_455
O0 Si0 1.633925 1_555
O0 Sr0 2.421698 1_555
O1 Si1 1.633925 1_555
O1 Sr1 2.421698 1_555
O2 Si0 1.652692 1_555
O2 Sr0 2.508933 1_655
O2 Sr1 2.599661 1_564
O3 Si1 1.652692 1_555
O3 Sr1 2.508933 1_455
O3 Sr0 2.599661 1_556
O4 Si0 1.647960 1_555
O4 Sr0 2.426425 1_656
O5 Si1 1.647960 1_555
O5 Sr1 2.426425 1_454
O6 Si0 1.721123 1_555
O6 Sr1 2.709988 1_565
O7 Si1 1.721123 1_555
O7 Sr0 2.709988 1_555
