# generated using pymatgen
data_Sr2AlCu2NiO7
_symmetry_space_group_name_H-M   'P 1'
_cell_length_a   5.30866474
_cell_length_b   5.41388909
_cell_length_c   12.05617888
_cell_angle_alpha   102.97662003
_cell_angle_beta   102.70415406
_cell_angle_gamma   90.01554499
_symmetry_Int_Tables_number   1
_chemical_formula_structural   Sr2AlCu2NiO7
_chemical_formula_sum   'Sr4 Al2 Cu4 Ni2 O14'
_cell_volume   328.93600747
_cell_formula_units_Z   2
loop_
 _symmetry_equiv_pos_site_id
 _symmetry_equiv_pos_as_xyz
  1  'x, y, z'
loop_
 _atom_site_type_symbol
 _atom_site_label
 _atom_site_symmetry_multiplicity
 _atom_site_fract_x
 _atom_site_fract_y
 _atom_site_fract_z
 _atom_site_occupancy
  Sr  Sr0  1  0.33887700  0.33545200  0.69882900  1
  Sr  Sr1  1  0.64068000  0.66475800  0.30188900  1
  Sr  Sr2  1  0.83872100  0.86346700  0.69875300  1
  Sr  Sr3  1  0.14071800  0.13684500  0.30185600  1
  Al  Al0  1  0.98499800  0.00098900  0.00040800  1
  Al  Al1  1  0.48513100  0.50007100  0.00044000  1
  Cu  Cu0  1  0.92380800  0.44231100  0.88132200  1
  Cu  Cu1  1  0.04291300  0.55893800  0.11945400  1
  Cu  Cu2  1  0.42391000  0.93977900  0.88165100  1
  Cu  Cu3  1  0.54308300  0.06097300  0.11975200  1
  Ni  Ni0  1  0.27865400  0.67870300  0.50025400  1
  Ni  Ni1  1  0.77895200  0.32169200  0.50020500  1
  O  O0  1  0.13804500  0.35804900  0.50028400  1
  O  O1  1  0.63731400  0.64241400  0.50029600  1
  O  O2  1  0.25096000  0.26819900  0.89252300  1
  O  O3  1  0.35925500  0.73252200  0.10836100  1
  O  O4  1  0.75089900  0.12521200  0.89250500  1
  O  O5  1  0.85933900  0.87614400  0.10834200  1
  O  O6  1  0.60312500  0.62114100  0.88951500  1
  O  O7  1  0.71431900  0.37954500  0.11138800  1
  O  O8  1  0.10285300  0.76903400  0.88950400  1
  O  O9  1  0.21426400  0.23233400  0.11136100  1
  O  O10  1  0.29504100  0.85917400  0.65231200  1
  O  O11  1  0.64356800  0.14139900  0.34774700  1
  O  O12  1  0.79577700  0.29388700  0.65278700  1
  O  O13  1  0.14304000  0.70700100  0.34794400  1
loop_
_geom_bond_atom_site_label_1
_geom_bond_atom_site_label_2
_geom_bond_distance
_geom_bond_site_symmetry_2
Al0 O9 1.835766 1_655
Al0 O8 1.835888 1_644
Al0 O4 1.836127 1_554
Al0 O5 1.836218 1_545
Al1 O2 1.835283 1_554
Al1 O3 1.835937 1_555
Al1 O7 1.836273 1_555
Al1 O6 1.836394 1_554
Cu0 O6 1.969053 1_555
Cu0 O2 1.969249 1_655
Cu0 O8 1.980265 1_655
Cu0 O4 1.991348 1_555
Cu0 O12 2.623132 1_555
Cu1 O3 1.968666 1_555
Cu1 O7 1.969183 1_455
Cu1 O9 1.981395 1_555
Cu1 O5 1.990892 1_455
Cu1 O13 2.622517 1_555
Cu2 O8 1.969218 1_555
Cu2 O4 1.969359 1_565
Cu2 O6 1.981079 1_555
Cu2 O2 1.992659 1_565
Cu2 O10 2.632374 1_555
Cu3 O5 1.969665 1_545
Cu3 O9 1.970624 1_555
Cu3 O7 1.982100 1_555
Cu3 O3 1.990886 1_545
Cu3 O11 2.616715 1_555
Ni0 O10 1.856971 1_555
Ni0 O13 1.859739 1_555
Ni0 O0 1.889583 1_555
Ni0 O1 1.914069 1_555
Ni1 O11 1.860267 1_555
Ni1 O12 1.861910 1_555
Ni1 O1 1.892223 1_555
Ni1 O0 1.916156 1_655
O0 Sr3 2.426043 1_555
O0 Sr0 2.427041 1_555
O1 Sr1 2.426008 1_555
O1 Sr2 2.426574 1_555
O2 Sr0 2.581615 1_555
O3 Sr1 2.581088 1_555
O4 Sr2 2.583533 1_545
O5 Sr3 2.579461 1_665
O6 Sr0 2.574628 1_555
O7 Sr1 2.571871 1_555
O8 Sr2 2.574173 1_455
O9 Sr3 2.573277 1_555
O10 Sr0 2.512020 1_565
O10 Sr2 2.602506 1_455
O10 Sr2 2.815602 1_555
O10 Sr0 3.010831 1_555
O11 Sr1 2.514022 1_545
O11 Sr3 2.603263 1_555
O11 Sr3 2.812162 1_655
O11 Sr1 3.005649 1_555
O12 Sr2 2.512729 1_545
O12 Sr0 2.603524 1_555
O12 Sr0 2.812628 1_655
O12 Sr2 3.007411 1_555
O13 Sr3 2.510407 1_565
O13 Sr1 2.600788 1_455
O13 Sr1 2.815706 1_555
O13 Sr3 3.010593 1_555
