# generated using pymatgen
data_Ba4Sm(CuO3)3
_symmetry_space_group_name_H-M   'P 1'
_cell_length_a   8.23500400
_cell_length_b   8.23500400
_cell_length_c   8.23500400
_cell_angle_alpha   90.00000000
_cell_angle_beta   90.00000000
_cell_angle_gamma   90.00000000
_symmetry_Int_Tables_number   1
_chemical_formula_structural   Ba4Sm(CuO3)3
_chemical_formula_sum   'Ba8 Sm2 Cu6 O18'
_cell_volume   558.45919166
_cell_formula_units_Z   2
loop_
 _symmetry_equiv_pos_site_id
 _symmetry_equiv_pos_as_xyz
  1  'x, y, z'
loop_
 _atom_site_type_symbol
 _atom_site_label
 _atom_site_symmetry_multiplicity
 _atom_site_fract_x
 _atom_site_fract_y
 _atom_site_fract_z
 _atom_site_occupancy
  Ba  Ba0  1  0.24935400  0.24935400  0.75064600  1
  Ba  Ba1  1  0.24935400  0.75064600  0.24935400  1
  Ba  Ba2  1  0.75064600  0.24935400  0.24935400  1
  Ba  Ba3  1  0.75064600  0.75064600  0.75064600  1
  Ba  Ba4  1  0.75064600  0.75064600  0.24935400  1
  Ba  Ba5  1  0.75064600  0.24935400  0.75064600  1
  Ba  Ba6  1  0.24935400  0.75064600  0.75064600  1
  Ba  Ba7  1  0.24935400  0.24935400  0.24935400  1
  Sm  Sm0  1  0.50000000  0.50000000  0.50000000  1
  Sm  Sm1  1  0.00000000  0.00000000  0.00000000  1
  Cu  Cu0  1  0.00000000  0.50000000  0.50000000  1
  Cu  Cu1  1  0.50000000  0.00000000  0.50000000  1
  Cu  Cu2  1  0.50000000  0.50000000  0.00000000  1
  Cu  Cu3  1  0.50000000  0.00000000  0.00000000  1
  Cu  Cu4  1  0.00000000  0.50000000  0.00000000  1
  Cu  Cu5  1  0.00000000  0.00000000  0.50000000  1
  O  O0  1  0.22349800  0.50000000  0.50000000  1
  O  O1  1  0.77650200  0.50000000  0.50000000  1
  O  O2  1  0.50000000  0.22349800  0.50000000  1
  O  O3  1  0.50000000  0.77650200  0.50000000  1
  O  O4  1  0.50000000  0.50000000  0.22349800  1
  O  O5  1  0.50000000  0.50000000  0.77650200  1
  O  O6  1  0.27660200  0.00000000  0.00000000  1
  O  O7  1  0.72339800  0.00000000  0.00000000  1
  O  O8  1  0.00000000  0.27660200  0.00000000  1
  O  O9  1  0.00000000  0.72339800  0.00000000  1
  O  O10  1  0.00000000  0.00000000  0.27660200  1
  O  O11  1  0.00000000  0.00000000  0.72339800  1
  O  O12  1  0.25667300  0.00000000  0.50000000  1
  O  O13  1  0.74332700  0.00000000  0.50000000  1
  O  O14  1  0.50000000  0.25667300  0.00000000  1
  O  O15  1  0.50000000  0.74332700  0.00000000  1
  O  O16  1  0.00000000  0.50000000  0.25667300  1
  O  O17  1  0.00000000  0.50000000  0.74332700  1
loop_
_geom_bond_atom_site_label_1
_geom_bond_atom_site_label_2
_geom_bond_distance
_geom_bond_site_symmetry_2
Ba0 O17 2.912147 1_555
Ba0 O12 2.912147 1_555
Ba0 O14 2.912147 1_556
Ba0 O6 2.912646 1_556
Ba0 O8 2.912646 1_556
Ba0 O11 2.912646 1_555
Ba0 O0 2.926792 1_555
Ba0 O2 2.926792 1_555
Ba0 O5 2.926792 1_555
Ba1 O12 2.912147 1_565
Ba1 O16 2.912147 1_555
Ba1 O15 2.912147 1_555
Ba1 O10 2.912646 1_565
Ba1 O6 2.912646 1_565
Ba1 O9 2.912646 1_555
Ba1 O0 2.926792 1_555
Ba1 O3 2.926792 1_555
Ba1 O4 2.926792 1_555
Ba2 O16 2.912147 1_655
Ba2 O13 2.912147 1_555
Ba2 O14 2.912147 1_555
Ba2 O8 2.912646 1_655
Ba2 O7 2.912646 1_555
Ba2 O10 2.912646 1_655
Ba2 O2 2.926792 1_555
Ba2 O1 2.926792 1_555
Ba2 O4 2.926792 1_555
Ba3 O13 2.912147 1_565
Ba3 O17 2.912147 1_655
Ba3 O15 2.912147 1_556
Ba3 O11 2.912646 1_665
Ba3 O7 2.912646 1_566
Ba3 O9 2.912646 1_656
Ba3 O5 2.926792 1_555
Ba3 O3 2.926792 1_555
Ba3 O1 2.926792 1_555
Ba4 O16 2.912147 1_655
Ba4 O13 2.912147 1_565
Ba4 O15 2.912147 1_555
Ba4 O7 2.912646 1_565
Ba4 O10 2.912646 1_665
Ba4 O9 2.912646 1_655
Ba4 O3 2.926792 1_555
Ba4 O1 2.926792 1_555
Ba4 O4 2.926792 1_555
Ba5 O17 2.912147 1_655
Ba5 O13 2.912147 1_555
Ba5 O14 2.912147 1_556
Ba5 O8 2.912646 1_656
Ba5 O11 2.912646 1_655
Ba5 O7 2.912646 1_556
Ba5 O5 2.926792 1_555
Ba5 O2 2.926792 1_555
Ba5 O1 2.926792 1_555
Ba6 O12 2.912147 1_565
Ba6 O17 2.912147 1_555
Ba6 O15 2.912147 1_556
Ba6 O11 2.912646 1_565
Ba6 O6 2.912646 1_566
Ba6 O9 2.912646 1_556
Ba6 O5 2.926792 1_555
Ba6 O0 2.926792 1_555
Ba6 O3 2.926792 1_555
Ba7 O12 2.912147 1_555
Ba7 O16 2.912147 1_555
Ba7 O14 2.912147 1_555
Ba7 O6 2.912646 1_555
Ba7 O8 2.912646 1_555
Ba7 O10 2.912646 1_555
Ba7 O0 2.926792 1_555
Ba7 O2 2.926792 1_555
Ba7 O4 2.926792 1_555
Cu0 O1 1.840507 1_455
Cu0 O0 1.840507 1_555
Cu0 O17 2.003799 1_555
Cu0 O16 2.003799 1_555
Cu1 O3 1.840507 1_545
Cu1 O2 1.840507 1_555
Cu1 O13 2.003799 1_555
Cu1 O12 2.003799 1_555
Cu2 O5 1.840507 1_554
Cu2 O4 1.840507 1_555
Cu2 O15 2.003799 1_555
Cu2 O14 2.003799 1_555
Cu3 O6 1.839683 1_555
Cu3 O7 1.839683 1_555
Cu3 O14 2.113703 1_555
Cu3 O15 2.113703 1_545
Cu4 O9 1.839683 1_555
Cu4 O8 1.839683 1_555
Cu4 O16 2.113703 1_555
Cu4 O17 2.113703 1_554
Cu5 O11 1.839683 1_555
Cu5 O10 1.839683 1_555
Cu5 O12 2.113703 1_555
Cu5 O13 2.113703 1_455
O0 Sm0 2.276995 1_555
O1 Sm0 2.276995 1_555
O2 Sm0 2.276995 1_555
O3 Sm0 2.276995 1_555
O4 Sm0 2.276995 1_555
O5 Sm0 2.276995 1_555
O6 Sm1 2.277819 1_555
O7 Sm1 2.277819 1_655
O8 Sm1 2.277819 1_555
O9 Sm1 2.277819 1_565
O10 Sm1 2.277819 1_555
O11 Sm1 2.277819 1_556
