# generated using pymatgen
data_Li2TiCrO4
_symmetry_space_group_name_H-M   'P 1'
_cell_length_a   5.17909211
_cell_length_b   6.00119331
_cell_length_c   5.93617308
_cell_angle_alpha   60.14855902
_cell_angle_beta   106.21355808
_cell_angle_gamma   105.58621872
_symmetry_Int_Tables_number   1
_chemical_formula_structural   Li2TiCrO4
_chemical_formula_sum   'Li4 Ti2 Cr2 O8'
_cell_volume   151.78148534
_cell_formula_units_Z   2
loop_
 _symmetry_equiv_pos_site_id
 _symmetry_equiv_pos_as_xyz
  1  'x, y, z'
loop_
 _atom_site_type_symbol
 _atom_site_label
 _atom_site_symmetry_multiplicity
 _atom_site_fract_x
 _atom_site_fract_y
 _atom_site_fract_z
 _atom_site_occupancy
  Li  Li0  1  0.00016000  0.50015900  0.49934500  1
  Li  Li1  1  0.99887800  0.00024500  0.00139600  1
  Li  Li2  1  0.00666200  0.00054000  0.49663600  1
  Li  Li3  1  0.99480500  0.49868600  0.00321000  1
  Ti  Ti0  1  0.50214600  0.75764700  0.74211700  1
  Ti  Ti1  1  0.50108500  0.24152400  0.25738200  1
  Cr  Cr0  1  0.49976900  0.25195800  0.75156600  1
  Cr  Cr1  1  0.49755600  0.74783900  0.24707900  1
  O  O0  1  0.72650300  0.61807600  0.63482400  1
  O  O1  1  0.73494000  0.14956900  0.11634500  1
  O  O2  1  0.27405000  0.88641700  0.86058600  1
  O  O3  1  0.26644900  0.34643800  0.38855300  1
  O  O4  1  0.73275900  0.12252300  0.62891100  1
  O  O5  1  0.72669800  0.61677500  0.11852800  1
  O  O6  1  0.27544400  0.38431300  0.87807600  1
  O  O7  1  0.26209600  0.87729000  0.37544400  1
loop_
_geom_bond_atom_site_label_1
_geom_bond_atom_site_label_2
_geom_bond_distance
_geom_bond_site_symmetry_2
Li0 O7 2.180298 1_555
Li0 O6 2.181093 1_555
Li0 O5 2.185338 1_455
Li0 O4 2.195105 1_455
Li0 O0 2.213207 1_455
Li0 O3 2.231541 1_555
Li1 O7 2.133603 1_645
Li1 O4 2.133910 1_554
Li1 O1 2.219257 1_555
Li1 O2 2.225565 1_644
Li1 O5 2.231060 1_545
Li1 O6 2.243152 1_654
Li2 O3 2.046031 1_555
Li2 O7 2.098039 1_545
Li2 O2 2.102456 1_545
Li2 O1 2.183763 1_455
Li2 O4 2.217446 1_455
Li2 O0 2.246562 1_445
Li3 O1 2.059286 1_555
Li3 O5 2.107474 1_555
Li3 O0 2.122418 1_554
Li3 O6 2.186776 1_654
Li3 O3 2.204445 1_655
Li3 O2 2.266469 1_654
Cr0 O6 2.030171 1_555
Cr0 O3 2.030521 1_555
Cr0 O4 2.036394 1_555
Cr0 O1 2.038315 1_556
Cr0 O2 2.056401 1_545
Cr0 O0 2.058840 1_555
Cr1 O5 2.052846 1_555
Cr1 O7 2.070885 1_555
Cr1 O2 2.104784 1_554
Cr1 O0 2.120859 1_555
Cr1 O3 2.222311 1_555
Cr1 O1 2.236848 1_565
O0 Ti0 1.981095 1_555
O1 Ti1 1.964108 1_555
O2 Ti0 1.995696 1_555
O3 Ti1 1.976618 1_555
O4 Ti1 2.056329 1_555
O4 Ti0 2.061745 1_545
O5 Ti0 2.063157 1_554
O5 Ti1 2.095708 1_555
O6 Ti1 2.077914 1_556
O6 Ti0 2.089263 1_555
O7 Ti0 2.052224 1_555
O7 Ti1 2.075232 1_565
