# generated using pymatgen
data_Sb2C6(Br3N)3
_symmetry_space_group_name_H-M   'P 1'
_cell_length_a   8.68374400
_cell_length_b   10.84869400
_cell_length_c   13.98376429
_cell_angle_alpha   85.08855987
_cell_angle_beta   90.00000000
_cell_angle_gamma   90.00000000
_symmetry_Int_Tables_number   1
_chemical_formula_structural   Sb2C6(Br3N)3
_chemical_formula_sum   'Sb4 C12 Br18 N6'
_cell_volume   1312.53531774
_cell_formula_units_Z   2
loop_
 _symmetry_equiv_pos_site_id
 _symmetry_equiv_pos_as_xyz
  1  'x, y, z'
loop_
 _atom_site_type_symbol
 _atom_site_label
 _atom_site_symmetry_multiplicity
 _atom_site_fract_x
 _atom_site_fract_y
 _atom_site_fract_z
 _atom_site_occupancy
  Sb  Sb0  1  0.05652900  0.87331200  0.08077300  1
  Sb  Sb1  1  0.55652900  0.12668800  0.91922700  1
  Sb  Sb2  1  0.92266400  0.15988400  0.41066800  1
  Sb  Sb3  1  0.42266400  0.84011600  0.58933200  1
  C  C0  1  0.52165400  0.72728700  0.94523200  1
  C  C1  1  0.02165400  0.27271300  0.05476800  1
  C  C2  1  0.48149200  0.27980700  0.54865200  1
  C  C3  1  0.98149200  0.72019300  0.45134800  1
  C  C4  1  0.47738700  0.83767900  0.25367300  1
  C  C5  1  0.97738700  0.16232100  0.74632700  1
  C  C6  1  0.41400600  0.06069300  0.27404800  1
  C  C7  1  0.91400600  0.93930700  0.72595200  1
  C  C8  1  0.69782500  0.60335300  0.84747500  1
  C  C9  1  0.19782500  0.39664700  0.15252500  1
  C  C10  1  0.30147000  0.37596300  0.66186500  1
  C  C11  1  0.80147000  0.62403700  0.33813500  1
  Br  Br0  1  0.33675600  0.75140800  0.17351100  1
  Br  Br1  1  0.83675600  0.24859200  0.82648900  1
  Br  Br2  1  0.72518200  0.28695100  0.31233100  1
  Br  Br3  1  0.22518200  0.71304900  0.68766900  1
  Br  Br4  1  0.26480600  0.03809700  0.99432500  1
  Br  Br5  1  0.76480600  0.96190300  0.00567500  1
  Br  Br6  1  0.74420400  0.99260100  0.49283400  1
  Br  Br7  1  0.24420400  0.00739900  0.50716600  1
  Br  Br8  1  0.84136100  0.65174000  0.20271900  1
  Br  Br9  1  0.34136100  0.34826000  0.79728100  1
  Br  Br10  1  0.19677500  0.36040400  0.28839300  1
  Br  Br11  1  0.69677500  0.63959600  0.71160700  1
  Br  Br12  1  0.01035400  0.98974900  0.24635000  1
  Br  Br13  1  0.51035400  0.01025100  0.75365000  1
  Br  Br14  1  0.07394000  0.69022000  0.96844200  1
  Br  Br15  1  0.57394000  0.30978000  0.03155800  1
  Br  Br16  1  0.93382700  0.30049000  0.55539000  1
  Br  Br17  1  0.43382700  0.69951000  0.44461000  1
  N  N0  1  0.43167400  0.95285400  0.26054000  1
  N  N1  1  0.93167400  0.04714600  0.73946000  1
  N  N2  1  0.59926100  0.67518400  0.88925800  1
  N  N3  1  0.09926100  0.32481600  0.11074200  1
  N  N4  1  0.40483300  0.31952800  0.61158000  1
  N  N5  1  0.90483300  0.68047200  0.38842000  1
loop_
_geom_bond_atom_site_label_1
_geom_bond_atom_site_label_2
_geom_bond_distance
_geom_bond_site_symmetry_2
C0 N2 1.209171 1_555
C1 N3 1.209171 1_555
C2 N4 1.211656 1_555
C3 N5 1.211656 1_555
C4 N0 1.322342 1_555
C5 N1 1.322342 1_555
C6 N0 1.210683 1_545
C7 N1 1.210683 1_565
C8 N2 1.326345 1_555
C9 N3 1.326345 1_555
C10 N4 1.322370 1_555
C11 N5 1.322370 1_555
Br0 C4 1.950259 1_555
Br0 Sb0 3.009754 1_555
Br1 C5 1.950259 1_555
Br1 Sb1 3.009754 1_555
Br2 Sb2 2.531301 1_555
Br3 Sb3 2.531301 1_555
Br4 Sb0 2.749239 1_546
Br4 Sb1 2.875943 1_555
Br5 Sb1 2.749239 1_564
Br5 Sb0 2.875943 1_655
Br6 Sb2 2.580350 1_565
Br7 Sb3 2.580350 1_545
Br8 C11 1.923197 1_555
Br9 C10 1.923197 1_555
Br10 C9 1.906977 1_555
Br11 C8 1.906977 1_555
Br12 Sb0 2.760121 1_555
Br12 Sb2 3.161114 1_465
Br13 Sb1 2.760121 1_555
Br13 Sb3 3.161114 1_545
Br14 Sb0 2.640074 1_556
Br15 Sb1 2.640074 1_554
Br16 Sb2 2.638259 1_555
Br17 Sb3 2.638259 1_555
