# generated using pymatgen
data_Ca2Mo3O8
_symmetry_space_group_name_H-M   'P 1'
_cell_length_a   6.49892257
_cell_length_b   6.49892257
_cell_length_c   4.91791430
_cell_angle_alpha   76.54121954
_cell_angle_beta   76.54121954
_cell_angle_gamma   52.98215973
_symmetry_Int_Tables_number   1
_chemical_formula_structural   Ca2Mo3O8
_chemical_formula_sum   'Ca2 Mo3 O8'
_cell_volume   160.14207036
_cell_formula_units_Z   1
loop_
 _symmetry_equiv_pos_site_id
 _symmetry_equiv_pos_as_xyz
  1  'x, y, z'
loop_
 _atom_site_type_symbol
 _atom_site_label
 _atom_site_symmetry_multiplicity
 _atom_site_fract_x
 _atom_site_fract_y
 _atom_site_fract_z
 _atom_site_occupancy
  Ca  Ca0  1  0.72726407  0.72726407  0.32704902  1
  Ca  Ca1  1  0.27273593  0.27273593  0.67295098  1
  Mo  Mo0  1  0.00000000  -0.00000000  0.50000000  1
  Mo  Mo1  1  0.77140114  0.22859886  -0.00000000  1
  Mo  Mo2  1  0.22859886  0.77140114  -0.00000000  1
  O  O0  1  0.41006202  0.41006202  0.91280701  1
  O  O1  1  0.58993798  0.58993798  0.08719299  1
  O  O2  1  0.87681966  0.87681966  0.90314990  1
  O  O3  1  0.12318034  0.12318034  0.09685010  1
  O  O4  1  0.34173260  0.87585337  0.60833808  1
  O  O5  1  0.87585337  0.34173260  0.60833808  1
  O  O6  1  0.12414663  0.65826740  0.39166192  1
  O  O7  1  0.65826740  0.12414663  0.39166192  1
loop_
_geom_bond_atom_site_label_1
_geom_bond_atom_site_label_2
_geom_bond_distance
_geom_bond_site_symmetry_2
Ca0 O1 2.218927 1_555
Ca0 O4 2.284495 1_555
Ca0 O5 2.284495 1_555
Ca0 O2 2.342326 1_554
Ca0 O6 2.424336 1_655
Ca0 O7 2.424336 1_565
Ca1 O0 2.218927 1_555
Ca1 O6 2.284495 1_555
Ca1 O7 2.284495 1_555
Ca1 O3 2.342326 1_556
Ca1 O4 2.424336 1_545
Ca1 O5 2.424336 1_455
Mo0 O5 2.015014 1_455
Mo0 O4 2.015014 1_545
Mo0 O7 2.015014 1_455
Mo0 O6 2.015014 1_545
Mo0 O2 2.122895 1_445
Mo0 O3 2.122895 1_555
Mo1 O0 1.996965 1_554
Mo1 O1 1.996965 1_555
Mo1 O5 2.011119 1_554
Mo1 O7 2.011119 1_555
Mo1 O3 2.095676 1_655
Mo1 O2 2.095676 1_544
Mo2 O1 1.996965 1_555
Mo2 O0 1.996965 1_554
Mo2 O4 2.011119 1_554
Mo2 O6 2.011119 1_555
Mo2 O3 2.095676 1_565
Mo2 O2 2.095676 1_454
