# generated using pymatgen
data_TiReW2
_symmetry_space_group_name_H-M   'P 1'
_cell_length_a   10.53461593
_cell_length_b   10.53461593
_cell_length_c   10.53461593
_cell_angle_alpha   127.98650133
_cell_angle_beta   118.12574771
_cell_angle_gamma   85.01562603
_symmetry_Int_Tables_number   1
_chemical_formula_structural   TiReW2
_chemical_formula_sum   'Ti1 Re1 W2'
_cell_volume   777.11403692
_cell_formula_units_Z   1
loop_
 _symmetry_equiv_pos_site_id
 _symmetry_equiv_pos_as_xyz
  1  'x, y, z'
loop_
 _atom_site_type_symbol
 _atom_site_label
 _atom_site_symmetry_multiplicity
 _atom_site_fract_x
 _atom_site_fract_y
 _atom_site_fract_z
 _atom_site_occupancy
  Ti  Ti0  1  0.00000000  0.00000000  0.00000000  1
  Re  Re0  1  0.00000000  0.50000000  0.50000000  1
  W  W0  1  0.00000000  0.24975100  0.24975100  1
  W  W1  1  0.00000000  0.75024900  0.75024900  1
loop_
_geom_bond_atom_site_label_1
_geom_bond_atom_site_label_2
_geom_bond_distance
_geom_bond_site_symmetry_2
Ti0 W1 2.307293 1_544
Ti0 W0 2.307293 1_555
Re0 W0 2.311894 1_555
Re0 W1 2.311894 1_555
