# generated using pymatgen
data_YbCuSb
_symmetry_space_group_name_H-M   'P 1'
_cell_length_a   4.50664967
_cell_length_b   4.50664967
_cell_length_c   7.45498700
_cell_angle_alpha   90.00000000
_cell_angle_beta   90.00000000
_cell_angle_gamma   119.99999509
_symmetry_Int_Tables_number   1
_chemical_formula_structural   YbCuSb
_chemical_formula_sum   'Yb2 Cu2 Sb2'
_cell_volume   131.12489117
_cell_formula_units_Z   2
loop_
 _symmetry_equiv_pos_site_id
 _symmetry_equiv_pos_as_xyz
  1  'x, y, z'
loop_
 _atom_site_type_symbol
 _atom_site_label
 _atom_site_symmetry_multiplicity
 _atom_site_fract_x
 _atom_site_fract_y
 _atom_site_fract_z
 _atom_site_occupancy
  Yb  Yb0  1  0.00000000  0.00000000  0.26519200  1
  Yb  Yb1  1  0.00000000  0.00000000  0.76519200  1
  Cu  Cu0  1  0.66666700  0.33333300  0.44766900  1
  Cu  Cu1  1  0.33333300  0.66666700  0.94766900  1
  Sb  Sb0  1  0.33333300  0.66666700  0.53613900  1
  Sb  Sb1  1  0.66666700  0.33333300  0.03613900  1
loop_
_geom_bond_atom_site_label_1
_geom_bond_atom_site_label_2
_geom_bond_distance
_geom_bond_site_symmetry_2
Cu0 Sb0 2.684203 1_545
Cu0 Sb0 2.684203 1_655
Cu0 Sb0 2.684211 1_555
Cu0 Yb0 2.936075 1_655
Cu0 Yb0 2.936079 1_665
Cu0 Yb0 2.936079 1_555
Cu0 Sb1 3.067951 1_555
Cu0 Yb1 3.517564 1_655
Cu0 Yb1 3.517567 1_555
Cu0 Yb1 3.517567 1_665
Cu1 Sb1 2.684203 1_456
Cu1 Sb1 2.684203 1_566
Cu1 Sb1 2.684211 1_556
Cu1 Yb1 2.936075 1_565
Cu1 Yb1 2.936079 1_555
Cu1 Yb1 2.936079 1_665
Cu1 Sb0 3.067951 1_555
Cu1 Yb0 3.517564 1_566
Cu1 Yb0 3.517567 1_556
Cu1 Yb0 3.517567 1_666
Sb0 Yb1 3.112202 1_565
Sb0 Yb1 3.112206 1_665
Sb0 Yb1 3.112206 1_555
Sb0 Yb0 3.293930 1_565
Sb0 Yb0 3.293933 1_555
Sb0 Yb0 3.293933 1_665
Sb1 Yb0 3.112202 1_655
Sb1 Yb0 3.112206 1_665
Sb1 Yb0 3.112206 1_555
Sb1 Yb1 3.293930 1_654
Sb1 Yb1 3.293933 1_664
Sb1 Yb1 3.293933 1_554
