# generated using pymatgen
data_Ba2LiY2(Fe2O5)2
_symmetry_space_group_name_H-M   'P 1'
_cell_length_a   3.93157200
_cell_length_b   8.47430500
_cell_length_c   8.06836300
_cell_angle_alpha   90.00000000
_cell_angle_beta   90.00000000
_cell_angle_gamma   90.00000000
_symmetry_Int_Tables_number   1
_chemical_formula_structural   Ba2LiY2(Fe2O5)2
_chemical_formula_sum   'Ba2 Li1 Y2 Fe4 O10'
_cell_volume   268.81639539
_cell_formula_units_Z   1
loop_
 _symmetry_equiv_pos_site_id
 _symmetry_equiv_pos_as_xyz
  1  'x, y, z'
loop_
 _atom_site_type_symbol
 _atom_site_label
 _atom_site_symmetry_multiplicity
 _atom_site_fract_x
 _atom_site_fract_y
 _atom_site_fract_z
 _atom_site_occupancy
  Ba  Ba0  1  0.00000000  0.07520300  0.48293600  1
  Ba  Ba1  1  0.00000000  0.07520300  0.01706400  1
  Li  Li0  1  0.00000000  0.87462800  0.75000000  1
  Y  Y0  1  0.00000000  0.51380600  0.00613400  1
  Y  Y1  1  0.00000000  0.51380600  0.49386600  1
  Fe  Fe0  1  0.49999900  0.74225900  0.25000000  1
  Fe  Fe1  1  0.49999900  0.30545000  0.75000000  1
  Fe  Fe2  1  0.49999900  0.31868700  0.25000000  1
  Fe  Fe3  1  0.49999900  0.69495600  0.75000000  1
  O  O0  1  0.49999900  0.65598500  0.48769100  1
  O  O1  1  0.49999900  0.31568800  0.49671100  1
  O  O2  1  0.49999900  0.65598500  0.01230800  1
  O  O3  1  0.49999900  0.31568800  0.00328900  1
  O  O4  1  0.00000000  0.65454500  0.75000000  1
  O  O5  1  0.00000000  0.32966300  0.25000000  1
  O  O6  1  0.00000000  0.66957600  0.25000000  1
  O  O7  1  0.00000000  0.31326900  0.75000000  1
  O  O8  1  0.49999900  0.96788000  0.25000000  1
  O  O9  1  0.49999900  0.95772200  0.75000000  1
loop_
_geom_bond_atom_site_label_1
_geom_bond_atom_site_label_2
_geom_bond_distance
_geom_bond_site_symmetry_2
Ba0 Li0 2.744472 1_545
Ba0 O1 2.833702 1_555
Ba0 O1 2.833707 1_455
Ba0 O5 2.860442 1_555
Ba0 O8 2.867692 1_545
Ba0 O8 2.867697 1_445
Ba0 O7 2.951798 1_555
Ba0 O9 3.081962 1_545
Ba0 O9 3.081967 1_445
Ba1 Li0 2.744472 1_544
Ba1 O3 2.833702 1_555
Ba1 O3 2.833707 1_455
Ba1 O5 2.860442 1_555
Ba1 O8 2.867692 1_545
Ba1 O8 2.867697 1_445
Ba1 O7 2.951798 1_554
Ba1 O9 3.081962 1_544
Ba1 O9 3.081967 1_444
Li0 O4 1.865050 1_555
Li0 O9 2.088096 1_555
Li0 O9 2.088104 1_455
Fe0 O8 1.911981 1_555
Fe0 O0 2.052412 1_555
Fe0 O2 2.052419 1_555
Fe0 O6 2.060019 1_555
Fe0 O6 2.060027 1_655
Fe1 O7 1.966898 1_555
Fe1 O7 1.966906 1_655
Fe1 O3 2.045468 1_556
Fe1 O1 2.045468 1_555
Fe2 O5 1.967981 1_555
Fe2 O5 1.967989 1_655
Fe2 O1 1.990716 1_555
Fe2 O3 1.990716 1_555
Fe3 O4 1.995388 1_555
Fe3 O4 1.995396 1_655
Fe3 O2 2.142008 1_556
Fe3 O0 2.142016 1_555
Fe3 O9 2.226759 1_555
O0 Y1 2.306185 1_555
O0 Y1 2.306192 1_655
O1 Y1 2.585261 1_555
O1 Y1 2.585267 1_655
O2 Y0 2.306185 1_555
O2 Y0 2.306191 1_655
O3 Y0 2.585261 1_555
O3 Y0 2.585267 1_655
O4 Y0 2.386045 1_556
O4 Y1 2.386045 1_555
O5 Y1 2.511286 1_555
O5 Y0 2.511286 1_555
O6 Y1 2.369380 1_555
O6 Y0 2.369380 1_555
O7 Y0 2.675586 1_556
O7 Y1 2.675586 1_555
