# generated using pymatgen
data_Ta2MnV3
_symmetry_space_group_name_H-M   'P 1'
_cell_length_a   4.91660991
_cell_length_b   4.91660991
_cell_length_c   4.91660934
_cell_angle_alpha   61.42841253
_cell_angle_beta   61.42841253
_cell_angle_gamma   61.42842472
_symmetry_Int_Tables_number   1
_chemical_formula_structural   Ta2MnV3
_chemical_formula_sum   'Ta2 Mn1 V3'
_cell_volume   86.73526567
_cell_formula_units_Z   1
loop_
 _symmetry_equiv_pos_site_id
 _symmetry_equiv_pos_as_xyz
  1  'x, y, z'
loop_
 _atom_site_type_symbol
 _atom_site_label
 _atom_site_symmetry_multiplicity
 _atom_site_fract_x
 _atom_site_fract_y
 _atom_site_fract_z
 _atom_site_occupancy
  Ta  Ta0  1  0.62547438  0.62547438  0.62547438  1
  Ta  Ta1  1  0.37452562  0.37452562  0.37452562  1
  Mn  Mn0  1  0.00000000  0.00000000  -0.00000000  1
  V  V0  1  0.00000000  0.50000000  -0.00000000  1
  V  V1  1  0.50000000  0.00000000  -0.00000000  1
  V  V2  1  0.00000000  0.00000000  0.50000000  1
loop_
_geom_bond_atom_site_label_1
_geom_bond_atom_site_label_2
_geom_bond_distance
_geom_bond_site_symmetry_2
Ta0 V2 2.869181 1_665
Ta0 V1 2.869181 1_566
Ta0 V0 2.869181 1_656
Ta0 V0 2.922306 1_655
Ta0 V1 2.922306 1_565
Ta0 V1 2.922306 1_556
Ta0 V0 2.922306 1_556
Ta0 V2 2.922307 1_565
Ta0 V2 2.922307 1_655
Ta0 Ta1 2.989185 1_555
Ta0 Ta1 3.061224 1_556
Ta0 Ta1 3.061224 1_655
Ta0 Ta1 3.061224 1_565
Ta1 V2 2.869181 1_555
Ta1 V0 2.869181 1_555
Ta1 V1 2.869181 1_555
Ta1 V0 2.922306 1_556
Ta1 V1 2.922306 1_556
Ta1 V0 2.922306 1_655
Ta1 V1 2.922306 1_565
Ta1 V2 2.922307 1_565
Ta1 V2 2.922307 1_655
Mn0 V2 2.458305 1_554
Mn0 V2 2.458305 1_555
Mn0 V1 2.458305 1_455
Mn0 V0 2.458305 1_545
Mn0 V1 2.458305 1_555
Mn0 V0 2.458305 1_555
Mn0 Ta0 2.940891 1_445
Mn0 Ta1 2.940891 1_554
Mn0 Ta0 2.940891 1_544
Mn0 Ta1 2.940891 1_455
Mn0 Ta1 2.940891 1_545
Mn0 Ta0 2.940891 1_454
V0 V2 2.511188 1_564
V0 V2 2.511188 1_555
V0 V1 2.511189 1_555
V0 V1 2.511189 1_465
V1 V2 2.511188 1_654
V1 V2 2.511188 1_555
