# generated using pymatgen
data_Cd3Te
_symmetry_space_group_name_H-M   'P 1'
_cell_length_a   6.03268849
_cell_length_b   6.03268849
_cell_length_c   6.03268849
_cell_angle_alpha   135.94367361
_cell_angle_beta   135.94367361
_cell_angle_gamma   64.06742872
_symmetry_Int_Tables_number   1
_chemical_formula_structural   Cd3Te
_chemical_formula_sum   'Cd3 Te1'
_cell_volume   104.72737130
_cell_formula_units_Z   1
loop_
 _symmetry_equiv_pos_site_id
 _symmetry_equiv_pos_as_xyz
  1  'x, y, z'
loop_
 _atom_site_type_symbol
 _atom_site_label
 _atom_site_symmetry_multiplicity
 _atom_site_fract_x
 _atom_site_fract_y
 _atom_site_fract_z
 _atom_site_occupancy
  Cd  Cd0  1  0.75000000  0.25000000  0.50000000  1
  Cd  Cd1  1  0.25000000  0.75000000  0.50000000  1
  Cd  Cd2  1  0.50000000  0.50000000  0.00000000  1
  Te  Te0  1  0.00000000  0.00000000  0.00000000  1
loop_
_geom_bond_atom_site_label_1
_geom_bond_atom_site_label_2
_geom_bond_distance
_geom_bond_site_symmetry_2
Cd0 Cd1 3.199848 1_656
Cd0 Cd1 3.199848 1_555
Cd0 Cd1 3.199848 1_544
Cd0 Cd1 3.199848 1_645
Cd0 Te0 3.414394 1_555
Cd0 Cd2 3.414394 1_656
Cd0 Te0 3.414394 1_655
Cd0 Te0 3.414394 1_656
Cd0 Cd2 3.414394 1_545
Cd0 Te0 3.414394 1_666
Cd0 Cd2 3.414394 1_555
Cd0 Cd2 3.414394 1_556
Cd1 Cd2 3.414394 1_455
Cd1 Te0 3.414394 1_666
Cd1 Cd2 3.414394 1_566
Cd1 Te0 3.414394 1_565
Cd1 Cd2 3.414394 1_555
Cd1 Te0 3.414394 1_555
Cd1 Cd2 3.414394 1_556
Cd1 Te0 3.414394 1_566
Cd2 Te0 3.199848 1_565
Cd2 Te0 3.199848 1_655
Cd2 Te0 3.199848 1_554
Cd2 Te0 3.199848 1_666
