# generated using pymatgen
data_MnP2H12(CO2)4
_symmetry_space_group_name_H-M   'P 1'
_cell_length_a   10.05170400
_cell_length_b   10.68271836
_cell_length_c   11.00167683
_cell_angle_alpha   88.03292588
_cell_angle_beta   80.85511790
_cell_angle_gamma   87.20157514
_symmetry_Int_Tables_number   1
_chemical_formula_structural   MnP2H12(CO2)4
_chemical_formula_sum   'Mn4 P8 H48 C16 O32'
_cell_volume   1164.52563531
_cell_formula_units_Z   4
loop_
 _symmetry_equiv_pos_site_id
 _symmetry_equiv_pos_as_xyz
  1  'x, y, z'
loop_
 _atom_site_type_symbol
 _atom_site_label
 _atom_site_symmetry_multiplicity
 _atom_site_fract_x
 _atom_site_fract_y
 _atom_site_fract_z
 _atom_site_occupancy
  Mn  Mn0  1  0.85646900  0.84775900  0.06619100  1
  Mn  Mn1  1  0.14353100  0.15224100  0.93380900  1
  Mn  Mn2  1  0.12263100  0.64939700  0.94473600  1
  Mn  Mn3  1  0.87736900  0.35060300  0.05526400  1
  P  P0  1  0.77444800  0.59099000  0.24834600  1
  P  P1  1  0.22555200  0.40901000  0.75165400  1
  P  P2  1  0.15299100  0.90611400  0.13360900  1
  P  P3  1  0.84700900  0.09388600  0.86639100  1
  P  P4  1  0.19798800  0.39082100  0.10418400  1
  P  P5  1  0.80201200  0.60917900  0.89581600  1
  P  P6  1  0.26322600  0.88933800  0.75346900  1
  P  P7  1  0.73677400  0.11066200  0.24653100  1
  H  H0  1  0.82478300  0.48805100  0.54629900  1
  H  H1  1  0.17521700  0.51194900  0.45370100  1
  H  H2  1  0.75041800  0.40261600  0.43803000  1
  H  H3  1  0.24958200  0.59738400  0.56197000  1
  H  H4  1  0.92529300  0.43486500  0.40577200  1
  H  H5  1  0.07470700  0.56513500  0.59422800  1
  H  H6  1  0.42234000  0.54882100  0.27959800  1
  H  H7  1  0.57766000  0.45117900  0.72040200  1
  H  H8  1  0.49936100  0.59917200  0.40430100  1
  H  H9  1  0.50063900  0.40082800  0.59569900  1
  H  H10  1  0.50247400  0.69612500  0.26760400  1
  H  H11  1  0.49752600  0.30387500  0.73239600  1
  H  H12  1  0.12013400  0.79022300  0.43826800  1
  H  H13  1  0.87986600  0.20977700  0.56173200  1
  H  H14  1  0.02370900  0.72643700  0.33241600  1
  H  H15  1  0.97629100  0.27356300  0.66758400  1
  H  H16  1  0.20424400  0.71806700  0.30004600  1
  H  H17  1  0.79575600  0.28193300  0.69995400  1
  H  H18  1  0.50520500  0.87715700  0.12263700  1
  H  H19  1  0.49479500  0.12284300  0.87736300  1
  H  H20  1  0.40824800  0.02117400  0.11073800  1
  H  H21  1  0.59175200  0.97882600  0.88926200  1
  H  H22  1  0.38725500  0.92988000  0.25151600  1
  H  H23  1  0.61274500  0.07012000  0.74848400  1
  H  H24  1  0.15737600  0.27842100  0.41245300  1
  H  H25  1  0.84262400  0.72157900  0.58754700  1
  H  H26  1  0.05824200  0.23050300  0.30071500  1
  H  H27  1  0.94175800  0.76949700  0.69928500  1
  H  H28  1  0.23516600  0.19225000  0.28039400  1
  H  H29  1  0.76483400  0.80775000  0.71960600  1
  H  H30  1  0.53648000  0.27117100  0.03191400  1
  H  H31  1  0.46352000  0.72882900  0.96808600  1
  H  H32  1  0.48624800  0.43248300  0.05524100  1
  H  H33  1  0.51375200  0.56751700  0.94475900  1
  H  H34  1  0.46451900  0.32201600  0.18195800  1
  H  H35  1  0.53548100  0.67798400  0.81804200  1
  H  H36  1  0.57254600  0.80119400  0.56958900  1
  H  H37  1  0.42745400  0.19880600  0.43041100  1
  H  H38  1  0.44147000  0.69901700  0.63469400  1
  H  H39  1  0.55853000  0.30098300  0.36530600  1
  H  H40  1  0.41430600  0.81179600  0.51520600  1
  H  H41  1  0.58569400  0.18820400  0.48479400  1
  H  H42  1  0.11986700  0.02698800  0.50617800  1
  H  H43  1  0.88013300  0.97301200  0.49382200  1
  H  H44  1  0.18987900  0.10381200  0.62329700  1
  H  H45  1  0.81012100  0.89618800  0.37670300  1
  H  H46  1  0.29758300  0.01705600  0.50649500  1
  H  H47  1  0.70241700  0.98294400  0.49350500  1
  C  C0  1  0.82549200  0.47131500  0.44849700  1
  C  C1  1  0.17450800  0.52868500  0.55150300  1
  C  C2  1  0.50686700  0.59901200  0.30346700  1
  C  C3  1  0.49313300  0.40098800  0.69653300  1
  C  C4  1  0.11543200  0.77493600  0.34103000  1
  C  C5  1  0.88456800  0.22506400  0.65897000  1
  C  C6  1  0.40724500  0.92558100  0.15063600  1
  C  C7  1  0.59275500  0.07441900  0.84936400  1
  C  C8  1  0.15646700  0.26305700  0.31459600  1
  C  C9  1  0.84353300  0.73694300  0.68540400  1
  C  C10  1  0.46207000  0.33575900  0.08320700  1
  C  C11  1  0.53793000  0.66424100  0.91679300  1
  C  C12  1  0.46353000  0.79385600  0.59693000  1
  C  C13  1  0.53647000  0.20614400  0.40307000  1
  C  C14  1  0.19814200  0.02126600  0.56520500  1
  C  C15  1  0.80185800  0.97873400  0.43479500  1
  O  O0  1  0.77092600  0.72751500  0.20921200  1
  O  O1  1  0.22907400  0.27248500  0.79078800  1
  O  O2  1  0.87605100  0.50068300  0.17854000  1
  O  O3  1  0.12394900  0.49931700  0.82146000  1
  O  O4  1  0.79390500  0.59090200  0.39156900  1
  O  O5  1  0.20609500  0.40909800  0.60843100  1
  O  O6  1  0.62885800  0.53266600  0.24920300  1
  O  O7  1  0.37114200  0.46733400  0.75079700  1
  O  O8  1  0.07264300  0.81349600  0.07462600  1
  O  O9  1  0.92735700  0.18650400  0.92537400  1
  O  O10  1  0.13692000  0.04272400  0.09871100  1
  O  O11  1  0.86308000  0.95727600  0.90128900  1
  O  O12  1  0.11330400  0.89787000  0.28085300  1
  O  O13  1  0.88669600  0.10213000  0.71914700  1
  O  O14  1  0.30681400  0.85368500  0.10607400  1
  O  O15  1  0.69318600  0.14631500  0.89392600  1
  O  O16  1  0.21081000  0.52763600  0.06832000  1
  O  O17  1  0.78919000  0.47236400  0.93168000  1
  O  O18  1  0.08942400  0.31835100  0.05813500  1
  O  O19  1  0.91057600  0.68164900  0.94186500  1
  O  O20  1  0.18255800  0.38333300  0.25158400  1
  O  O21  1  0.81744200  0.61666700  0.74841600  1
  O  O22  1  0.33140100  0.30676900  0.05467500  1
  O  O23  1  0.66859900  0.69323100  0.94532500  1
  O  O24  1  0.22975100  0.76235600  0.81033800  1
  O  O25  1  0.77024900  0.23764400  0.18966200  1
  O  O26  1  0.24500400  0.00211700  0.83328400  1
  O  O27  1  0.75499600  0.99788300  0.16671600  1
  O  O28  1  0.41954500  0.88742500  0.68788500  1
  O  O29  1  0.58045500  0.11257500  0.31211500  1
  O  O30  1  0.17981500  0.90711300  0.63955000  1
  O  O31  1  0.82018500  0.09288700  0.36045000  1
loop_
_geom_bond_atom_site_label_1
_geom_bond_atom_site_label_2
_geom_bond_distance
_geom_bond_site_symmetry_2
Mn0 O0 2.098624 1_555
Mn0 O27 2.106869 1_555
Mn0 O11 2.118502 1_554
Mn0 O8 2.201876 1_655
Mn0 O19 2.269682 1_554
Mn1 O1 2.098624 1_555
Mn1 O26 2.106869 1_555
Mn1 O10 2.118502 1_556
Mn1 O9 2.201876 1_455
Mn1 O18 2.269682 1_556
Mn2 O24 2.073669 1_555
Mn2 O16 2.115468 1_556
Mn2 O3 2.133427 1_555
Mn2 O19 2.147557 1_455
Mn2 O8 2.285904 1_556
Mn3 O25 2.073669 1_555
Mn3 O17 2.115468 1_554
Mn3 O2 2.133427 1_555
Mn3 O18 2.147557 1_655
Mn3 O9 2.285904 1_554
C0 H0 1.095630 1_555
C0 H4 1.097020 1_555
C0 H2 1.099460 1_555
C0 O4 1.446990 1_555
C1 H1 1.095630 1_555
C1 H5 1.097020 1_555
C1 H3 1.099460 1_555
C1 O5 1.446990 1_555
C2 H6 1.096996 1_555
C2 H10 1.098567 1_555
C2 H8 1.099932 1_555
C2 O6 1.440084 1_555
C3 H7 1.096996 1_555
C3 H11 1.098567 1_555
C3 H9 1.099932 1_555
C3 O7 1.440084 1_555
C4 H12 1.096427 1_555
C4 H14 1.097829 1_555
C4 H16 1.098734 1_555
C4 O12 1.451038 1_555
C5 H13 1.096427 1_555
C5 H15 1.097829 1_555
C5 H17 1.098734 1_555
C5 O13 1.451038 1_555
C6 H18 1.094002 1_555
C6 H20 1.097468 1_565
C6 H22 1.098163 1_555
C6 O14 1.451969 1_555
C7 H19 1.094002 1_555
C7 H21 1.097468 1_545
C7 H23 1.098163 1_555
C7 O15 1.451969 1_555
C8 H24 1.096118 1_555
C8 H26 1.097351 1_555
C8 H28 1.098188 1_555
C8 O20 1.454038 1_555
C9 H25 1.096118 1_555
C9 H27 1.097351 1_555
C9 H29 1.098188 1_555
C9 O21 1.454038 1_555
C10 H30 1.093670 1_555
C10 H34 1.095299 1_555
C10 H32 1.095587 1_555
C10 O22 1.448111 1_555
C11 H31 1.093670 1_555
C11 H35 1.095299 1_555
C11 H33 1.095587 1_555
C11 O23 1.448111 1_555
C12 H36 1.095167 1_555
C12 H40 1.100109 1_555
C12 H38 1.100903 1_555
C12 O28 1.442504 1_555
C13 H37 1.095167 1_555
C13 H41 1.100109 1_555
C13 H39 1.100903 1_555
C13 O29 1.442504 1_555
C14 H42 1.095212 1_555
C14 H44 1.098919 1_555
C14 H46 1.100323 1_555
C14 O30 1.447615 1_545
C15 H43 1.095212 1_555
C15 H45 1.098919 1_555
C15 H47 1.100323 1_555
C15 O31 1.447615 1_565
O0 P0 1.506789 1_555
O1 P1 1.506789 1_555
O2 P0 1.506273 1_555
O3 P1 1.506273 1_555
O4 P0 1.618300 1_555
O5 P1 1.618300 1_555
O6 P0 1.616835 1_555
O7 P1 1.616835 1_555
O8 P2 1.530028 1_555
O9 P3 1.530028 1_555
O10 P2 1.503822 1_545
O11 P3 1.503822 1_565
O12 P2 1.606019 1_555
O13 P3 1.606019 1_555
O14 P2 1.604478 1_555
O15 P3 1.604478 1_555
O16 P4 1.507010 1_555
O17 P5 1.507010 1_555
O18 P4 1.527086 1_555
O19 P5 1.527086 1_555
O20 P4 1.603918 1_555
O21 P5 1.603918 1_555
O22 P4 1.607821 1_555
O23 P5 1.607821 1_555
O24 P6 1.504719 1_555
O25 P7 1.504719 1_555
O26 P6 1.502023 1_545
O27 P7 1.502023 1_565
O28 P6 1.620936 1_555
O29 P7 1.620936 1_555
O30 P6 1.616136 1_555
O31 P7 1.616136 1_555
