# generated using pymatgen
data_Tm5(In2Ni)2
_symmetry_space_group_name_H-M   'P 1'
_cell_length_a   7.04097200
_cell_length_b   15.95494400
_cell_length_c   35.65150800
_cell_angle_alpha   90.00000000
_cell_angle_beta   90.00000000
_cell_angle_gamma   90.00000000
_symmetry_Int_Tables_number   1
_chemical_formula_structural   Tm5(In2Ni)2
_chemical_formula_sum   'Tm80 In64 Ni32'
_cell_volume   4005.03029905
_cell_formula_units_Z   16
loop_
 _symmetry_equiv_pos_site_id
 _symmetry_equiv_pos_as_xyz
  1  'x, y, z'
loop_
 _atom_site_type_symbol
 _atom_site_label
 _atom_site_symmetry_multiplicity
 _atom_site_fract_x
 _atom_site_fract_y
 _atom_site_fract_z
 _atom_site_occupancy
  Tm  Tm0_0  1  0.00000000  0.25000000  0.25000000  1
  Tm  Tm0_1  1  0.00000000  0.25000000  0.75000000  1
  Tm  Tm0_2  1  0.00000000  0.75000000  0.25000000  1
  Tm  Tm0_3  1  0.00000000  0.75000000  0.75000000  1
  Tm  Tm0_4  1  0.50000000  0.25000000  0.25000000  1
  Tm  Tm0_5  1  0.50000000  0.25000000  0.75000000  1
  Tm  Tm0_6  1  0.50000000  0.75000000  0.25000000  1
  Tm  Tm0_7  1  0.50000000  0.75000000  0.75000000  1
  Tm  Tm1_0  1  0.00000000  0.00000000  0.00000000  1
  Tm  Tm1_1  1  0.00000000  0.00000000  0.50000000  1
  Tm  Tm1_2  1  0.00000000  0.50000000  0.00000000  1
  Tm  Tm1_3  1  0.00000000  0.50000000  0.50000000  1
  Tm  Tm1_4  1  0.50000000  0.00000000  0.00000000  1
  Tm  Tm1_5  1  0.50000000  0.00000000  0.50000000  1
  Tm  Tm1_6  1  0.50000000  0.50000000  0.00000000  1
  Tm  Tm1_7  1  0.50000000  0.50000000  0.50000000  1
  Tm  Tm2_0  1  0.00000000  0.37285850  0.13930650  1
  Tm  Tm2_1  1  0.00000000  0.37285850  0.63930650  1
  Tm  Tm2_2  1  0.00000000  0.87285850  0.13930650  1
  Tm  Tm2_3  1  0.00000000  0.87285850  0.63930650  1
  Tm  Tm2_4  1  0.50000000  0.37285850  0.13930650  1
  Tm  Tm2_5  1  0.50000000  0.37285850  0.63930650  1
  Tm  Tm2_6  1  0.50000000  0.87285850  0.13930650  1
  Tm  Tm2_7  1  0.50000000  0.87285850  0.63930650  1
  Tm  Tm3_0  1  0.00000000  0.12714150  0.36069350  1
  Tm  Tm3_1  1  0.00000000  0.12714150  0.86069350  1
  Tm  Tm3_2  1  0.00000000  0.62714150  0.36069350  1
  Tm  Tm3_3  1  0.00000000  0.62714150  0.86069350  1
  Tm  Tm3_4  1  0.50000000  0.12714150  0.36069350  1
  Tm  Tm3_5  1  0.50000000  0.12714150  0.86069350  1
  Tm  Tm3_6  1  0.50000000  0.62714150  0.36069350  1
  Tm  Tm3_7  1  0.50000000  0.62714150  0.86069350  1
  Tm  Tm4_0  1  0.00000000  0.37714150  0.38930650  1
  Tm  Tm4_1  1  0.00000000  0.37714150  0.88930650  1
  Tm  Tm4_2  1  0.00000000  0.87714150  0.38930650  1
  Tm  Tm4_3  1  0.00000000  0.87714150  0.88930650  1
  Tm  Tm4_4  1  0.50000000  0.37714150  0.38930650  1
  Tm  Tm4_5  1  0.50000000  0.37714150  0.88930650  1
  Tm  Tm4_6  1  0.50000000  0.87714150  0.38930650  1
  Tm  Tm4_7  1  0.50000000  0.87714150  0.88930650  1
  Tm  Tm5_0  1  0.00000000  0.12285850  0.11069350  1
  Tm  Tm5_1  1  0.00000000  0.12285850  0.61069350  1
  Tm  Tm5_2  1  0.00000000  0.62285850  0.11069350  1
  Tm  Tm5_3  1  0.00000000  0.62285850  0.61069350  1
  Tm  Tm5_4  1  0.50000000  0.12285850  0.11069350  1
  Tm  Tm5_5  1  0.50000000  0.12285850  0.61069350  1
  Tm  Tm5_6  1  0.50000000  0.62285850  0.11069350  1
  Tm  Tm5_7  1  0.50000000  0.62285850  0.61069350  1
  Tm  Tm6_0  1  0.00000000  0.30890400  0.04368550  1
  Tm  Tm6_1  1  0.00000000  0.30890400  0.54368550  1
  Tm  Tm6_2  1  0.00000000  0.80890400  0.04368550  1
  Tm  Tm6_3  1  0.00000000  0.80890400  0.54368550  1
  Tm  Tm6_4  1  0.50000000  0.30890400  0.04368550  1
  Tm  Tm6_5  1  0.50000000  0.30890400  0.54368550  1
  Tm  Tm6_6  1  0.50000000  0.80890400  0.04368550  1
  Tm  Tm6_7  1  0.50000000  0.80890400  0.54368550  1
  Tm  Tm7_0  1  0.00000000  0.19109600  0.45631450  1
  Tm  Tm7_1  1  0.00000000  0.19109600  0.95631450  1
  Tm  Tm7_2  1  0.00000000  0.69109600  0.45631450  1
  Tm  Tm7_3  1  0.00000000  0.69109600  0.95631450  1
  Tm  Tm7_4  1  0.50000000  0.19109600  0.45631450  1
  Tm  Tm7_5  1  0.50000000  0.19109600  0.95631450  1
  Tm  Tm7_6  1  0.50000000  0.69109600  0.45631450  1
  Tm  Tm7_7  1  0.50000000  0.69109600  0.95631450  1
  Tm  Tm8_0  1  0.00000000  0.44109600  0.29368550  1
  Tm  Tm8_1  1  0.00000000  0.44109600  0.79368550  1
  Tm  Tm8_2  1  0.00000000  0.94109600  0.29368550  1
  Tm  Tm8_3  1  0.00000000  0.94109600  0.79368550  1
  Tm  Tm8_4  1  0.50000000  0.44109600  0.29368550  1
  Tm  Tm8_5  1  0.50000000  0.44109600  0.79368550  1
  Tm  Tm8_6  1  0.50000000  0.94109600  0.29368550  1
  Tm  Tm8_7  1  0.50000000  0.94109600  0.79368550  1
  Tm  Tm9_0  1  0.00000000  0.05890400  0.20631450  1
  Tm  Tm9_1  1  0.00000000  0.05890400  0.70631450  1
  Tm  Tm9_2  1  0.00000000  0.55890400  0.20631450  1
  Tm  Tm9_3  1  0.00000000  0.55890400  0.70631450  1
  Tm  Tm9_4  1  0.50000000  0.05890400  0.20631450  1
  Tm  Tm9_5  1  0.50000000  0.05890400  0.70631450  1
  Tm  Tm9_6  1  0.50000000  0.55890400  0.20631450  1
  Tm  Tm9_7  1  0.50000000  0.55890400  0.70631450  1
  In  In0_0  1  0.25000000  0.35291050  0.46520750  1
  In  In0_1  1  0.25000000  0.35291050  0.96520750  1
  In  In0_2  1  0.25000000  0.85291050  0.46520750  1
  In  In0_3  1  0.25000000  0.85291050  0.96520750  1
  In  In0_4  1  0.75000000  0.35291050  0.46520750  1
  In  In0_5  1  0.75000000  0.35291050  0.96520750  1
  In  In0_6  1  0.75000000  0.85291050  0.46520750  1
  In  In0_7  1  0.75000000  0.85291050  0.96520750  1
  In  In1_0  1  0.25000000  0.14708950  0.03479250  1
  In  In1_1  1  0.25000000  0.14708950  0.53479250  1
  In  In1_2  1  0.25000000  0.64708950  0.03479250  1
  In  In1_3  1  0.25000000  0.64708950  0.53479250  1
  In  In1_4  1  0.75000000  0.14708950  0.03479250  1
  In  In1_5  1  0.75000000  0.14708950  0.53479250  1
  In  In1_6  1  0.75000000  0.64708950  0.03479250  1
  In  In1_7  1  0.75000000  0.64708950  0.53479250  1
  In  In2_0  1  0.25000000  0.39708950  0.21520750  1
  In  In2_1  1  0.25000000  0.39708950  0.71520750  1
  In  In2_2  1  0.25000000  0.89708950  0.21520750  1
  In  In2_3  1  0.25000000  0.89708950  0.71520750  1
  In  In2_4  1  0.75000000  0.39708950  0.21520750  1
  In  In2_5  1  0.75000000  0.39708950  0.71520750  1
  In  In2_6  1  0.75000000  0.89708950  0.21520750  1
  In  In2_7  1  0.75000000  0.89708950  0.71520750  1
  In  In3_0  1  0.25000000  0.10291050  0.28479250  1
  In  In3_1  1  0.25000000  0.10291050  0.78479250  1
  In  In3_2  1  0.25000000  0.60291050  0.28479250  1
  In  In3_3  1  0.25000000  0.60291050  0.78479250  1
  In  In3_4  1  0.75000000  0.10291050  0.28479250  1
  In  In3_5  1  0.75000000  0.10291050  0.78479250  1
  In  In3_6  1  0.75000000  0.60291050  0.28479250  1
  In  In3_7  1  0.75000000  0.60291050  0.78479250  1
  In  In4_0  1  0.25000000  0.28661450  0.32595500  1
  In  In4_1  1  0.25000000  0.28661450  0.82595500  1
  In  In4_2  1  0.25000000  0.78661450  0.32595500  1
  In  In4_3  1  0.25000000  0.78661450  0.82595500  1
  In  In4_4  1  0.75000000  0.28661450  0.32595500  1
  In  In4_5  1  0.75000000  0.28661450  0.82595500  1
  In  In4_6  1  0.75000000  0.78661450  0.32595500  1
  In  In4_7  1  0.75000000  0.78661450  0.82595500  1
  In  In5_0  1  0.25000000  0.21338550  0.17404500  1
  In  In5_1  1  0.25000000  0.21338550  0.67404500  1
  In  In5_2  1  0.25000000  0.71338550  0.17404500  1
  In  In5_3  1  0.25000000  0.71338550  0.67404500  1
  In  In5_4  1  0.75000000  0.21338550  0.17404500  1
  In  In5_5  1  0.75000000  0.21338550  0.67404500  1
  In  In5_6  1  0.75000000  0.71338550  0.17404500  1
  In  In5_7  1  0.75000000  0.71338550  0.67404500  1
  In  In6_0  1  0.25000000  0.46338550  0.07595500  1
  In  In6_1  1  0.25000000  0.46338550  0.57595500  1
  In  In6_2  1  0.25000000  0.96338550  0.07595500  1
  In  In6_3  1  0.25000000  0.96338550  0.57595500  1
  In  In6_4  1  0.75000000  0.46338550  0.07595500  1
  In  In6_5  1  0.75000000  0.46338550  0.57595500  1
  In  In6_6  1  0.75000000  0.96338550  0.07595500  1
  In  In6_7  1  0.75000000  0.96338550  0.57595500  1
  In  In7_0  1  0.25000000  0.03661450  0.42404500  1
  In  In7_1  1  0.25000000  0.03661450  0.92404500  1
  In  In7_2  1  0.25000000  0.53661450  0.42404500  1
  In  In7_3  1  0.25000000  0.53661450  0.92404500  1
  In  In7_4  1  0.75000000  0.03661450  0.42404500  1
  In  In7_5  1  0.75000000  0.03661450  0.92404500  1
  In  In7_6  1  0.75000000  0.53661450  0.42404500  1
  In  In7_7  1  0.75000000  0.53661450  0.92404500  1
  Ni  Ni0_0  1  0.25000000  0.26232400  0.09768050  1
  Ni  Ni0_1  1  0.25000000  0.26232400  0.59768050  1
  Ni  Ni0_2  1  0.25000000  0.76232400  0.09768050  1
  Ni  Ni0_3  1  0.25000000  0.76232400  0.59768050  1
  Ni  Ni0_4  1  0.75000000  0.26232400  0.09768050  1
  Ni  Ni0_5  1  0.75000000  0.26232400  0.59768050  1
  Ni  Ni0_6  1  0.75000000  0.76232400  0.09768050  1
  Ni  Ni0_7  1  0.75000000  0.76232400  0.59768050  1
  Ni  Ni1_0  1  0.25000000  0.23767600  0.40231950  1
  Ni  Ni1_1  1  0.25000000  0.23767600  0.90231950  1
  Ni  Ni1_2  1  0.25000000  0.73767600  0.40231950  1
  Ni  Ni1_3  1  0.25000000  0.73767600  0.90231950  1
  Ni  Ni1_4  1  0.75000000  0.23767600  0.40231950  1
  Ni  Ni1_5  1  0.75000000  0.23767600  0.90231950  1
  Ni  Ni1_6  1  0.75000000  0.73767600  0.40231950  1
  Ni  Ni1_7  1  0.75000000  0.73767600  0.90231950  1
  Ni  Ni2_0  1  0.25000000  0.48767600  0.34768050  1
  Ni  Ni2_1  1  0.25000000  0.48767600  0.84768050  1
  Ni  Ni2_2  1  0.25000000  0.98767600  0.34768050  1
  Ni  Ni2_3  1  0.25000000  0.98767600  0.84768050  1
  Ni  Ni2_4  1  0.75000000  0.48767600  0.34768050  1
  Ni  Ni2_5  1  0.75000000  0.48767600  0.84768050  1
  Ni  Ni2_6  1  0.75000000  0.98767600  0.34768050  1
  Ni  Ni2_7  1  0.75000000  0.98767600  0.84768050  1
  Ni  Ni3_0  1  0.25000000  0.01232400  0.15231950  1
  Ni  Ni3_1  1  0.25000000  0.01232400  0.65231950  1
  Ni  Ni3_2  1  0.25000000  0.51232400  0.15231950  1
  Ni  Ni3_3  1  0.25000000  0.51232400  0.65231950  1
  Ni  Ni3_4  1  0.75000000  0.01232400  0.15231950  1
  Ni  Ni3_5  1  0.75000000  0.01232400  0.65231950  1
  Ni  Ni3_6  1  0.75000000  0.51232400  0.15231950  1
  Ni  Ni3_7  1  0.75000000  0.51232400  0.65231950  1
loop_
_geom_bond_atom_site_label_1
_geom_bond_atom_site_label_2
_geom_bond_distance
_geom_bond_site_symmetry_2
Tm0_0 Tm8_0 3.423684 1_555
Tm0_0 Tm9_0 3.423684 1_555
Tm0_0 Tm0_4 3.520486 1_455
Tm0_0 Tm0_4 3.520486 1_555
Tm0_1 Tm8_1 3.423684 1_555
Tm0_1 Tm9_1 3.423684 1_555
Tm0_1 Tm0_5 3.520486 1_455
Tm0_1 Tm0_5 3.520486 1_555
Tm0_2 Tm8_2 3.423684 1_555
Tm0_2 Tm9_2 3.423684 1_555
Tm0_2 Tm0_6 3.520486 1_555
Tm0_2 Tm0_6 3.520486 1_455
Tm0_3 Tm8_3 3.423684 1_555
Tm0_3 Tm9_3 3.423684 1_555
Tm0_3 Tm0_7 3.520486 1_555
Tm0_3 Tm0_7 3.520486 1_455
Tm0_4 Tm8_4 3.423684 1_555
Tm0_4 Tm9_4 3.423684 1_555
Tm0_5 Tm8_5 3.423684 1_555
Tm0_5 Tm9_5 3.423684 1_555
Tm0_6 Tm8_6 3.423684 1_555
Tm0_6 Tm9_6 3.423684 1_555
Tm0_7 Tm8_7 3.423684 1_555
Tm0_7 Tm9_7 3.423684 1_555
Tm1_0 Tm6_2 3.423684 1_545
Tm1_0 Tm7_1 3.423684 1_554
Tm1_0 Tm1_4 3.520486 1_455
Tm1_0 Tm1_4 3.520486 1_555
Tm1_1 Tm6_3 3.423684 1_545
Tm1_1 Tm7_0 3.423684 1_555
Tm1_1 Tm1_5 3.520486 1_455
Tm1_1 Tm1_5 3.520486 1_555
Tm1_2 Tm6_0 3.423684 1_555
Tm1_2 Tm7_3 3.423684 1_554
Tm1_2 Tm1_6 3.520486 1_455
Tm1_2 Tm1_6 3.520486 1_555
Tm1_3 Tm6_1 3.423684 1_555
Tm1_3 Tm7_2 3.423684 1_555
Tm1_3 Tm1_7 3.520486 1_555
Tm1_3 Tm1_7 3.520486 1_455
Tm1_4 Tm6_6 3.423684 1_545
Tm1_4 Tm7_5 3.423684 1_554
Tm1_5 Tm6_7 3.423684 1_545
Tm1_5 Tm7_4 3.423684 1_555
Tm1_6 Tm6_4 3.423684 1_555
Tm1_6 Tm7_7 3.423684 1_554
Tm1_7 Tm6_5 3.423684 1_555
Tm1_7 Tm7_6 3.423684 1_555
In0_0 Ni1_0 2.899500 1_555
In0_0 Tm7_0 3.140758 1_555
In0_0 Tm7_4 3.140758 1_555
In0_0 Tm1_3 3.185051 1_555
In0_0 Tm1_7 3.185051 1_555
In0_0 Tm4_0 3.251196 1_555
In0_0 Tm4_4 3.251196 1_555
In0_0 In7_2 3.277843 1_555
In0_0 Tm6_1 3.379267 1_555
In0_0 Tm6_5 3.379267 1_555
In0_0 In0_4 3.520486 1_455
In0_0 In0_4 3.520486 1_555
In0_1 Ni1_1 2.899500 1_555
In0_1 Tm7_1 3.140758 1_555
In0_1 Tm7_5 3.140758 1_555
In0_1 Tm1_2 3.185051 1_556
In0_1 Tm1_6 3.185051 1_556
In0_1 Tm4_1 3.251196 1_555
In0_1 Tm4_5 3.251196 1_555
In0_1 In7_3 3.277843 1_555
In0_1 Tm6_0 3.379267 1_556
In0_1 Tm6_4 3.379267 1_556
In0_1 In0_5 3.520486 1_555
In0_1 In0_5 3.520486 1_455
In0_2 Ni1_2 2.899500 1_555
In0_2 Tm7_2 3.140758 1_555
In0_2 Tm7_6 3.140758 1_555
In0_2 Tm1_1 3.185051 1_565
In0_2 Tm1_5 3.185051 1_565
In0_2 Tm4_2 3.251196 1_555
In0_2 Tm4_6 3.251196 1_555
In0_2 In7_0 3.277843 1_565
In0_2 Tm6_7 3.379267 1_555
In0_2 Tm6_3 3.379267 1_555
In0_2 In0_6 3.520486 1_555
In0_2 In0_6 3.520486 1_455
In0_3 Ni1_3 2.899500 1_555
In0_3 Tm7_3 3.140758 1_555
In0_3 Tm7_7 3.140758 1_555
In0_3 Tm1_0 3.185051 1_566
In0_3 Tm1_4 3.185051 1_566
In0_3 Tm4_7 3.251196 1_555
In0_3 Tm4_3 3.251196 1_555
In0_3 In7_1 3.277843 1_565
In0_3 Tm6_2 3.379267 1_556
In0_3 Tm6_6 3.379267 1_556
In0_3 In0_7 3.520486 1_455
In0_3 In0_7 3.520486 1_555
In0_4 Ni1_4 2.899500 1_555
In0_4 Tm7_4 3.140758 1_555
In0_4 Tm7_0 3.140758 1_655
In0_4 Tm1_7 3.185051 1_555
In0_4 Tm1_3 3.185051 1_655
In0_4 Tm4_0 3.251196 1_655
In0_4 Tm4_4 3.251196 1_555
In0_4 In7_6 3.277843 1_555
In0_4 Tm6_1 3.379267 1_655
In0_4 Tm6_5 3.379267 1_555
In0_5 Ni1_5 2.899500 1_555
In0_5 Tm7_1 3.140758 1_655
In0_5 Tm7_5 3.140758 1_555
In0_5 Tm1_6 3.185051 1_556
In0_5 Tm1_2 3.185051 1_656
In0_5 Tm4_1 3.251196 1_655
In0_5 Tm4_5 3.251196 1_555
In0_5 In7_7 3.277843 1_555
In0_5 Tm6_0 3.379267 1_656
In0_5 Tm6_4 3.379267 1_556
In0_6 Ni1_6 2.899500 1_555
In0_6 Tm7_2 3.140758 1_655
In0_6 Tm7_6 3.140758 1_555
In0_6 Tm1_1 3.185051 1_665
In0_6 Tm1_5 3.185051 1_565
In0_6 Tm4_2 3.251196 1_655
In0_6 Tm4_6 3.251196 1_555
In0_6 In7_4 3.277843 1_565
In0_6 Tm6_7 3.379267 1_555
In0_6 Tm6_3 3.379267 1_655
In0_7 Ni1_7 2.899500 1_555
In0_7 Tm7_3 3.140758 1_655
In0_7 Tm7_7 3.140758 1_555
In0_7 Tm1_4 3.185051 1_566
In0_7 Tm1_0 3.185051 1_666
In0_7 Tm4_3 3.251196 1_655
In0_7 Tm4_7 3.251196 1_555
In0_7 In7_5 3.277843 1_565
In0_7 Tm6_2 3.379267 1_656
In0_7 Tm6_6 3.379267 1_556
In1_0 Ni0_0 2.899500 1_555
In1_0 Tm6_0 3.140758 1_555
In1_0 Tm6_4 3.140758 1_555
In1_0 Tm1_0 3.185051 1_555
In1_0 Tm1_4 3.185051 1_555
In1_0 Tm5_0 3.251196 1_555
In1_0 Tm5_4 3.251196 1_555
In1_0 In6_2 3.277843 1_545
In1_0 Tm7_5 3.379267 1_554
In1_0 Tm7_1 3.379267 1_554
In1_0 In1_4 3.520486 1_555
In1_0 In1_4 3.520486 1_455
In1_1 Ni0_1 2.899500 1_555
In1_1 Tm6_5 3.140758 1_555
In1_1 Tm6_1 3.140758 1_555
In1_1 Tm1_5 3.185051 1_555
In1_1 Tm1_1 3.185051 1_555
In1_1 Tm5_1 3.251196 1_555
In1_1 Tm5_5 3.251196 1_555
In1_1 In6_3 3.277843 1_545
In1_1 Tm7_0 3.379267 1_555
In1_1 Tm7_4 3.379267 1_555
In1_1 In1_5 3.520486 1_555
In1_1 In1_5 3.520486 1_455
In1_2 Ni0_2 2.899500 1_555
In1_2 Tm6_2 3.140758 1_555
In1_2 Tm6_6 3.140758 1_555
In1_2 Tm1_2 3.185051 1_555
In1_2 Tm1_6 3.185051 1_555
In1_2 Tm5_2 3.251196 1_555
In1_2 Tm5_6 3.251196 1_555
In1_2 In6_0 3.277843 1_555
In1_2 Tm7_3 3.379267 1_554
In1_2 Tm7_7 3.379267 1_554
In1_2 In1_6 3.520486 1_455
In1_2 In1_6 3.520486 1_555
In1_3 Ni0_3 2.899500 1_555
In1_3 Tm6_3 3.140758 1_555
In1_3 Tm6_7 3.140758 1_555
In1_3 Tm1_3 3.185051 1_555
In1_3 Tm1_7 3.185051 1_555
In1_3 Tm5_7 3.251196 1_555
In1_3 Tm5_3 3.251196 1_555
In1_3 In6_1 3.277843 1_555
In1_3 Tm7_6 3.379267 1_555
In1_3 Tm7_2 3.379267 1_555
In1_3 In1_7 3.520486 1_455
In1_3 In1_7 3.520486 1_555
In1_4 Ni0_4 2.899500 1_555
In1_4 Tm6_4 3.140758 1_555
In1_4 Tm6_0 3.140758 1_655
In1_4 Tm1_4 3.185051 1_555
In1_4 Tm1_0 3.185051 1_655
In1_4 Tm5_0 3.251196 1_655
In1_4 Tm5_4 3.251196 1_555
In1_4 In6_6 3.277843 1_545
In1_4 Tm7_5 3.379267 1_554
In1_4 Tm7_1 3.379267 1_654
In1_5 Ni0_5 2.899500 1_555
In1_5 Tm6_1 3.140758 1_655
In1_5 Tm6_5 3.140758 1_555
In1_5 Tm1_1 3.185051 1_655
In1_5 Tm1_5 3.185051 1_555
In1_5 Tm5_5 3.251196 1_555
In1_5 Tm5_1 3.251196 1_655
In1_5 In6_7 3.277843 1_545
In1_5 Tm7_0 3.379267 1_655
In1_5 Tm7_4 3.379267 1_555
In1_6 Ni0_6 2.899500 1_555
In1_6 Tm6_6 3.140758 1_555
In1_6 Tm6_2 3.140758 1_655
In1_6 Tm1_2 3.185051 1_655
In1_6 Tm1_6 3.185051 1_555
In1_6 Tm5_2 3.251196 1_655
In1_6 Tm5_6 3.251196 1_555
In1_6 In6_4 3.277843 1_555
In1_6 Tm7_3 3.379267 1_654
In1_6 Tm7_7 3.379267 1_554
In1_7 Ni0_7 2.899500 1_555
In1_7 Tm6_3 3.140758 1_655
In1_7 Tm6_7 3.140758 1_555
In1_7 Tm1_3 3.185051 1_655
In1_7 Tm1_7 3.185051 1_555
In1_7 Tm5_7 3.251196 1_555
In1_7 Tm5_3 3.251196 1_655
In1_7 In6_5 3.277843 1_555
In1_7 Tm7_6 3.379267 1_555
In1_7 Tm7_2 3.379267 1_655
In2_0 Ni3_2 2.899500 1_555
In2_0 Tm9_6 3.140758 1_555
In2_0 Tm9_2 3.140758 1_555
In2_0 Tm0_4 3.185051 1_555
In2_0 Tm0_0 3.185051 1_555
In2_0 Tm2_4 3.251196 1_555
In2_0 Tm2_0 3.251196 1_555
In2_0 In5_0 3.277843 1_555
In2_0 Tm8_0 3.379267 1_555
In2_0 Tm8_4 3.379267 1_555
In2_0 In2_4 3.520486 1_555
In2_0 In2_4 3.520486 1_455
In2_1 Ni3_3 2.899500 1_555
In2_1 Tm9_7 3.140758 1_555
In2_1 Tm9_3 3.140758 1_555
In2_1 Tm0_5 3.185051 1_555
In2_1 Tm0_1 3.185051 1_555
In2_1 Tm2_1 3.251196 1_555
In2_1 Tm2_5 3.251196 1_555
In2_1 In5_1 3.277843 1_555
In2_1 Tm8_1 3.379267 1_555
In2_1 Tm8_5 3.379267 1_555
In2_1 In2_5 3.520486 1_555
In2_1 In2_5 3.520486 1_455
In2_2 Ni3_0 2.899500 1_565
In2_2 Tm9_0 3.140758 1_565
In2_2 Tm9_4 3.140758 1_565
In2_2 Tm0_6 3.185051 1_555
In2_2 Tm0_2 3.185051 1_555
In2_2 Tm2_6 3.251196 1_555
In2_2 Tm2_2 3.251196 1_555
In2_2 In5_2 3.277843 1_555
In2_2 Tm8_2 3.379267 1_555
In2_2 Tm8_6 3.379267 1_555
In2_2 In2_6 3.520486 1_555
In2_2 In2_6 3.520486 1_455
In2_3 Ni3_1 2.899500 1_565
In2_3 Tm9_1 3.140758 1_565
In2_3 Tm9_5 3.140758 1_565
In2_3 Tm0_7 3.185051 1_555
In2_3 Tm0_3 3.185051 1_555
In2_3 Tm2_3 3.251196 1_555
In2_3 Tm2_7 3.251196 1_555
In2_3 In5_3 3.277843 1_555
In2_3 Tm8_3 3.379267 1_555
In2_3 Tm8_7 3.379267 1_555
In2_3 In2_7 3.520486 1_455
In2_3 In2_7 3.520486 1_555
In2_4 Ni3_6 2.899500 1_555
In2_4 Tm9_6 3.140758 1_555
In2_4 Tm9_2 3.140758 1_655
In2_4 Tm0_0 3.185051 1_655
In2_4 Tm0_4 3.185051 1_555
In2_4 Tm2_4 3.251196 1_555
In2_4 Tm2_0 3.251196 1_655
In2_4 In5_4 3.277843 1_555
In2_4 Tm8_0 3.379267 1_655
In2_4 Tm8_4 3.379267 1_555
In2_5 Ni3_7 2.899500 1_555
In2_5 Tm9_3 3.140758 1_655
In2_5 Tm9_7 3.140758 1_555
In2_5 Tm0_1 3.185051 1_655
In2_5 Tm0_5 3.185051 1_555
In2_5 Tm2_5 3.251196 1_555
In2_5 Tm2_1 3.251196 1_655
In2_5 In5_5 3.277843 1_555
In2_5 Tm8_1 3.379267 1_655
In2_5 Tm8_5 3.379267 1_555
In2_6 Ni3_4 2.899500 1_565
In2_6 Tm9_4 3.140758 1_565
In2_6 Tm9_0 3.140758 1_665
In2_6 Tm0_6 3.185051 1_555
In2_6 Tm0_2 3.185051 1_655
In2_6 Tm2_6 3.251196 1_555
In2_6 Tm2_2 3.251196 1_655
In2_6 In5_6 3.277843 1_555
In2_6 Tm8_2 3.379267 1_655
In2_6 Tm8_6 3.379267 1_555
In2_7 Ni3_5 2.899500 1_565
In2_7 Tm9_1 3.140758 1_665
In2_7 Tm9_5 3.140758 1_565
In2_7 Tm0_7 3.185051 1_555
In2_7 Tm0_3 3.185051 1_655
In2_7 Tm2_3 3.251196 1_655
In2_7 Tm2_7 3.251196 1_555
In2_7 In5_7 3.277843 1_555
In2_7 Tm8_3 3.379267 1_655
In2_7 Tm8_7 3.379267 1_555
In3_0 Ni2_2 2.899500 1_545
In3_0 Tm8_2 3.140758 1_545
In3_0 Tm8_6 3.140758 1_545
In3_0 Tm0_0 3.185051 1_555
In3_0 Tm0_4 3.185051 1_555
In3_0 Tm3_0 3.251196 1_555
In3_0 Tm3_4 3.251196 1_555
In3_0 In4_0 3.277843 1_555
In3_0 Tm9_0 3.379267 1_555
In3_0 Tm9_4 3.379267 1_555
In3_0 In3_4 3.520486 1_455
In3_0 In3_4 3.520486 1_555
In3_1 Ni2_3 2.899500 1_545
In3_1 Tm8_3 3.140758 1_545
In3_1 Tm8_7 3.140758 1_545
In3_1 Tm0_5 3.185051 1_555
In3_1 Tm0_1 3.185051 1_555
In3_1 Tm3_5 3.251196 1_555
In3_1 Tm3_1 3.251196 1_555
In3_1 In4_1 3.277843 1_555
In3_1 Tm9_1 3.379267 1_555
In3_1 Tm9_5 3.379267 1_555
In3_1 In3_5 3.520486 1_555
In3_1 In3_5 3.520486 1_455
In3_2 Ni2_0 2.899500 1_555
In3_2 Tm8_4 3.140758 1_555
In3_2 Tm8_0 3.140758 1_555
In3_2 Tm0_6 3.185051 1_555
In3_2 Tm0_2 3.185051 1_555
In3_2 Tm3_6 3.251196 1_555
In3_2 Tm3_2 3.251196 1_555
In3_2 In4_2 3.277843 1_555
In3_2 Tm9_6 3.379267 1_555
In3_2 Tm9_2 3.379267 1_555
In3_2 In3_6 3.520486 1_455
In3_2 In3_6 3.520486 1_555
In3_3 Ni2_1 2.899500 1_555
In3_3 Tm8_1 3.140758 1_555
In3_3 Tm8_5 3.140758 1_555
In3_3 Tm0_3 3.185051 1_555
In3_3 Tm0_7 3.185051 1_555
In3_3 Tm3_3 3.251196 1_555
In3_3 Tm3_7 3.251196 1_555
In3_3 In4_3 3.277843 1_555
In3_3 Tm9_3 3.379267 1_555
In3_3 Tm9_7 3.379267 1_555
In3_3 In3_7 3.520486 1_555
In3_3 In3_7 3.520486 1_455
In3_4 Ni2_6 2.899500 1_545
In3_4 Tm8_2 3.140758 1_645
In3_4 Tm8_6 3.140758 1_545
In3_4 Tm0_0 3.185051 1_655
In3_4 Tm0_4 3.185051 1_555
In3_4 Tm3_0 3.251196 1_655
In3_4 Tm3_4 3.251196 1_555
In3_4 In4_4 3.277843 1_555
In3_4 Tm9_0 3.379267 1_655
In3_4 Tm9_4 3.379267 1_555
In3_5 Ni2_7 2.899500 1_545
In3_5 Tm8_3 3.140758 1_645
In3_5 Tm8_7 3.140758 1_545
In3_5 Tm0_1 3.185051 1_655
In3_5 Tm0_5 3.185051 1_555
In3_5 Tm3_5 3.251196 1_555
In3_5 Tm3_1 3.251196 1_655
In3_5 In4_5 3.277843 1_555
In3_5 Tm9_1 3.379267 1_655
In3_5 Tm9_5 3.379267 1_555
In3_6 Ni2_4 2.899500 1_555
In3_6 Tm8_0 3.140758 1_655
In3_6 Tm8_4 3.140758 1_555
In3_6 Tm0_6 3.185051 1_555
In3_6 Tm0_2 3.185051 1_655
In3_6 Tm3_6 3.251196 1_555
In3_6 Tm3_2 3.251196 1_655
In3_6 In4_6 3.277843 1_555
In3_6 Tm9_2 3.379267 1_655
In3_6 Tm9_6 3.379267 1_555
In3_7 Ni2_5 2.899500 1_555
In3_7 Tm8_5 3.140758 1_555
In3_7 Tm8_1 3.140758 1_655
In3_7 Tm0_7 3.185051 1_555
In3_7 Tm0_3 3.185051 1_655
In3_7 Tm3_3 3.251196 1_655
In3_7 Tm3_7 3.251196 1_555
In3_7 In4_7 3.277843 1_555
In3_7 Tm9_7 3.379267 1_555
In3_7 Tm9_3 3.379267 1_655
In4_0 Ni1_0 2.832265 1_555
In4_0 Tm4_0 3.207145 1_555
In4_0 Tm4_4 3.207145 1_555
In4_0 Tm8_0 3.239902 1_555
In4_0 Tm8_4 3.239902 1_555
In4_0 Tm0_4 3.282149 1_555
In4_0 Tm0_0 3.282149 1_555
In4_0 Ni2_0 3.300107 1_555
In4_0 Tm3_4 3.332592 1_555
In4_0 Tm3_0 3.332592 1_555
In4_0 In4_4 3.520486 1_555
In4_0 In4_4 3.520486 1_455
In4_1 Ni1_1 2.832265 1_555
In4_1 Tm4_1 3.207145 1_555
In4_1 Tm4_5 3.207145 1_555
In4_1 Tm8_5 3.239902 1_555
In4_1 Tm8_1 3.239902 1_555
In4_1 Tm0_1 3.282149 1_555
In4_1 Tm0_5 3.282149 1_555
In4_1 Ni2_1 3.300107 1_555
In4_1 Tm3_1 3.332592 1_555
In4_1 Tm3_5 3.332592 1_555
In4_1 In4_5 3.520486 1_455
In4_1 In4_5 3.520486 1_555
In4_2 Ni1_2 2.832265 1_555
In4_2 Tm4_2 3.207145 1_555
In4_2 Tm4_6 3.207145 1_555
In4_2 Tm8_6 3.239902 1_555
In4_2 Tm8_2 3.239902 1_555
In4_2 Tm0_2 3.282149 1_555
In4_2 Tm0_6 3.282149 1_555
In4_2 Ni2_2 3.300107 1_555
In4_2 Tm3_2 3.332592 1_555
In4_2 Tm3_6 3.332592 1_555
In4_2 In4_6 3.520486 1_555
In4_2 In4_6 3.520486 1_455
In4_3 Ni1_3 2.832265 1_555
In4_3 Tm4_3 3.207145 1_555
In4_3 Tm4_7 3.207145 1_555
In4_3 Tm8_3 3.239902 1_555
In4_3 Tm8_7 3.239902 1_555
In4_3 Tm0_7 3.282149 1_555
In4_3 Tm0_3 3.282149 1_555
In4_3 Ni2_3 3.300107 1_555
In4_3 Tm3_3 3.332592 1_555
In4_3 Tm3_7 3.332592 1_555
In4_3 In4_7 3.520486 1_455
In4_3 In4_7 3.520486 1_555
In4_4 Ni1_4 2.832265 1_555
In4_4 Tm4_0 3.207145 1_655
In4_4 Tm4_4 3.207145 1_555
In4_4 Tm8_0 3.239902 1_655
In4_4 Tm8_4 3.239902 1_555
In4_4 Tm0_4 3.282149 1_555
In4_4 Tm0_0 3.282149 1_655
In4_4 Ni2_4 3.300107 1_555
In4_4 Tm3_0 3.332592 1_655
In4_4 Tm3_4 3.332592 1_555
In4_5 Ni1_5 2.832265 1_555
In4_5 Tm4_1 3.207145 1_655
In4_5 Tm4_5 3.207145 1_555
In4_5 Tm8_5 3.239902 1_555
In4_5 Tm8_1 3.239902 1_655
In4_5 Tm0_1 3.282149 1_655
In4_5 Tm0_5 3.282149 1_555
In4_5 Ni2_5 3.300107 1_555
In4_5 Tm3_1 3.332592 1_655
In4_5 Tm3_5 3.332592 1_555
In4_6 Ni1_6 2.832265 1_555
In4_6 Tm4_2 3.207145 1_655
In4_6 Tm4_6 3.207145 1_555
In4_6 Tm8_6 3.239902 1_555
In4_6 Tm8_2 3.239902 1_655
In4_6 Tm0_2 3.282149 1_655
In4_6 Tm0_6 3.282149 1_555
In4_6 Ni2_6 3.300107 1_555
In4_6 Tm3_6 3.332592 1_555
In4_6 Tm3_2 3.332592 1_655
In4_7 Ni1_7 2.832265 1_555
In4_7 Tm4_3 3.207145 1_655
In4_7 Tm4_7 3.207145 1_555
In4_7 Tm8_7 3.239902 1_555
In4_7 Tm8_3 3.239902 1_655
In4_7 Tm0_7 3.282149 1_555
In4_7 Tm0_3 3.282149 1_655
In4_7 Ni2_7 3.300107 1_555
In4_7 Tm3_3 3.332592 1_655
In4_7 Tm3_7 3.332592 1_555
In5_0 Ni0_0 2.832265 1_555
In5_0 Tm5_0 3.207145 1_555
In5_0 Tm5_4 3.207145 1_555
In5_0 Tm9_0 3.239902 1_555
In5_0 Tm9_4 3.239902 1_555
In5_0 Tm0_4 3.282149 1_555
In5_0 Tm0_0 3.282149 1_555
In5_0 Ni3_0 3.300107 1_555
In5_0 Tm2_4 3.332592 1_555
In5_0 Tm2_0 3.332592 1_555
In5_0 In5_4 3.520486 1_555
In5_0 In5_4 3.520486 1_455
In5_1 Ni0_1 2.832265 1_555
In5_1 Tm5_1 3.207145 1_555
In5_1 Tm5_5 3.207145 1_555
In5_1 Tm9_1 3.239902 1_555
In5_1 Tm9_5 3.239902 1_555
In5_1 Tm0_1 3.282149 1_555
In5_1 Tm0_5 3.282149 1_555
In5_1 Ni3_1 3.300107 1_555
In5_1 Tm2_5 3.332592 1_555
In5_1 Tm2_1 3.332592 1_555
In5_1 In5_5 3.520486 1_455
In5_1 In5_5 3.520486 1_555
In5_2 Ni0_2 2.832265 1_555
In5_2 Tm5_6 3.207145 1_555
In5_2 Tm5_2 3.207145 1_555
In5_2 Tm9_6 3.239902 1_555
In5_2 Tm9_2 3.239902 1_555
In5_2 Tm0_6 3.282149 1_555
In5_2 Tm0_2 3.282149 1_555
In5_2 Ni3_2 3.300107 1_555
In5_2 Tm2_2 3.332592 1_555
In5_2 Tm2_6 3.332592 1_555
In5_2 In5_6 3.520486 1_555
In5_2 In5_6 3.520486 1_455
In5_3 Ni0_3 2.832265 1_555
In5_3 Tm5_3 3.207145 1_555
In5_3 Tm5_7 3.207145 1_555
In5_3 Tm9_7 3.239902 1_555
In5_3 Tm9_3 3.239902 1_555
In5_3 Tm0_7 3.282149 1_555
In5_3 Tm0_3 3.282149 1_555
In5_3 Ni3_3 3.300107 1_555
In5_3 Tm2_7 3.332592 1_555
In5_3 Tm2_3 3.332592 1_555
In5_3 In5_7 3.520486 1_555
In5_3 In5_7 3.520486 1_455
In5_4 Ni0_4 2.832265 1_555
In5_4 Tm5_0 3.207145 1_655
In5_4 Tm5_4 3.207145 1_555
In5_4 Tm9_4 3.239902 1_555
In5_4 Tm9_0 3.239902 1_655
In5_4 Tm0_4 3.282149 1_555
In5_4 Tm0_0 3.282149 1_655
In5_4 Ni3_4 3.300107 1_555
In5_4 Tm2_4 3.332592 1_555
In5_4 Tm2_0 3.332592 1_655
In5_5 Ni0_5 2.832265 1_555
In5_5 Tm5_1 3.207145 1_655
In5_5 Tm5_5 3.207145 1_555
In5_5 Tm9_1 3.239902 1_655
In5_5 Tm9_5 3.239902 1_555
In5_5 Tm0_5 3.282149 1_555
In5_5 Tm0_1 3.282149 1_655
In5_5 Ni3_5 3.300107 1_555
In5_5 Tm2_5 3.332592 1_555
In5_5 Tm2_1 3.332592 1_655
In5_6 Ni0_6 2.832265 1_555
In5_6 Tm5_2 3.207145 1_655
In5_6 Tm5_6 3.207145 1_555
In5_6 Tm9_6 3.239902 1_555
In5_6 Tm9_2 3.239902 1_655
In5_6 Tm0_6 3.282149 1_555
In5_6 Tm0_2 3.282149 1_655
In5_6 Ni3_6 3.300107 1_555
In5_6 Tm2_2 3.332592 1_655
In5_6 Tm2_6 3.332592 1_555
In5_7 Ni0_7 2.832265 1_555
In5_7 Tm5_3 3.207145 1_655
In5_7 Tm5_7 3.207145 1_555
In5_7 Tm9_7 3.239902 1_555
In5_7 Tm9_3 3.239902 1_655
In5_7 Tm0_7 3.282149 1_555
In5_7 Tm0_3 3.282149 1_655
In5_7 Ni3_7 3.300107 1_555
In5_7 Tm2_3 3.332592 1_655
In5_7 Tm2_7 3.332592 1_555
In6_0 Ni3_2 2.832265 1_555
In6_0 Tm2_0 3.207145 1_555
In6_0 Tm2_4 3.207145 1_555
In6_0 Tm6_4 3.239902 1_555
In6_0 Tm6_0 3.239902 1_555
In6_0 Tm1_2 3.282149 1_555
In6_0 Tm1_6 3.282149 1_555
In6_0 Ni0_0 3.300107 1_555
In6_0 Tm5_6 3.332592 1_555
In6_0 Tm5_2 3.332592 1_555
In6_0 In6_4 3.520486 1_455
In6_0 In6_4 3.520486 1_555
In6_1 Ni3_3 2.832265 1_555
In6_1 Tm2_5 3.207145 1_555
In6_1 Tm2_1 3.207145 1_555
In6_1 Tm6_5 3.239902 1_555
In6_1 Tm6_1 3.239902 1_555
In6_1 Tm1_3 3.282149 1_555
In6_1 Tm1_7 3.282149 1_555
In6_1 Ni0_1 3.300107 1_555
In6_1 Tm5_3 3.332592 1_555
In6_1 Tm5_7 3.332592 1_555
In6_1 In6_5 3.520486 1_555
In6_1 In6_5 3.520486 1_455
In6_2 Ni3_0 2.832265 1_565
In6_2 Tm2_6 3.207145 1_555
In6_2 Tm2_2 3.207145 1_555
In6_2 Tm6_2 3.239902 1_555
In6_2 Tm6_6 3.239902 1_555
In6_2 Tm1_0 3.282149 1_565
In6_2 Tm1_4 3.282149 1_565
In6_2 Ni0_2 3.300107 1_555
In6_2 Tm5_0 3.332592 1_565
In6_2 Tm5_4 3.332592 1_565
In6_2 In6_6 3.520486 1_555
In6_2 In6_6 3.520486 1_455
In6_3 Ni3_1 2.832265 1_565
In6_3 Tm2_3 3.207145 1_555
In6_3 Tm2_7 3.207145 1_555
In6_3 Tm6_7 3.239902 1_555
In6_3 Tm6_3 3.239902 1_555
In6_3 Tm1_1 3.282149 1_565
In6_3 Tm1_5 3.282149 1_565
In6_3 Ni0_3 3.300107 1_555
In6_3 Tm5_5 3.332592 1_565
In6_3 Tm5_1 3.332592 1_565
In6_3 In6_7 3.520486 1_555
In6_3 In6_7 3.520486 1_455
In6_4 Ni3_6 2.832265 1_555
In6_4 Tm2_0 3.207145 1_655
In6_4 Tm2_4 3.207145 1_555
In6_4 Tm6_4 3.239902 1_555
In6_4 Tm6_0 3.239902 1_655
In6_4 Tm1_2 3.282149 1_655
In6_4 Tm1_6 3.282149 1_555
In6_4 Ni0_4 3.300107 1_555
In6_4 Tm5_6 3.332592 1_555
In6_4 Tm5_2 3.332592 1_655
In6_5 Ni3_7 2.832265 1_555
In6_5 Tm2_5 3.207145 1_555
In6_5 Tm2_1 3.207145 1_655
In6_5 Tm6_5 3.239902 1_555
In6_5 Tm6_1 3.239902 1_655
In6_5 Tm1_7 3.282149 1_555
In6_5 Tm1_3 3.282149 1_655
In6_5 Ni0_5 3.300107 1_555
In6_5 Tm5_3 3.332592 1_655
In6_5 Tm5_7 3.332592 1_555
In6_6 Ni3_4 2.832265 1_565
In6_6 Tm2_2 3.207145 1_655
In6_6 Tm2_6 3.207145 1_555
In6_6 Tm6_6 3.239902 1_555
In6_6 Tm6_2 3.239902 1_655
In6_6 Tm1_0 3.282149 1_665
In6_6 Tm1_4 3.282149 1_565
In6_6 Ni0_6 3.300107 1_555
In6_6 Tm5_4 3.332592 1_565
In6_6 Tm5_0 3.332592 1_665
In6_7 Ni3_5 2.832265 1_565
In6_7 Tm2_3 3.207145 1_655
In6_7 Tm2_7 3.207145 1_555
In6_7 Tm6_7 3.239902 1_555
In6_7 Tm6_3 3.239902 1_655
In6_7 Tm1_1 3.282149 1_665
In6_7 Tm1_5 3.282149 1_565
In6_7 Ni0_7 3.300107 1_555
In6_7 Tm5_1 3.332592 1_665
In6_7 Tm5_5 3.332592 1_565
In7_0 Ni2_2 2.832265 1_545
In7_0 Tm3_0 3.207145 1_555
In7_0 Tm3_4 3.207145 1_555
In7_0 Tm7_0 3.239902 1_555
In7_0 Tm7_4 3.239902 1_555
In7_0 Tm1_5 3.282149 1_555
In7_0 Tm1_1 3.282149 1_555
In7_0 Ni1_0 3.300107 1_555
In7_0 Tm4_6 3.332592 1_545
In7_0 Tm4_2 3.332592 1_545
In7_0 In7_4 3.520486 1_555
In7_0 In7_4 3.520486 1_455
In7_1 Ni2_3 2.832265 1_545
In7_1 Tm3_5 3.207145 1_555
In7_1 Tm3_1 3.207145 1_555
In7_1 Tm7_1 3.239902 1_555
In7_1 Tm7_5 3.239902 1_555
In7_1 Tm1_0 3.282149 1_556
In7_1 Tm1_4 3.282149 1_556
In7_1 Ni1_1 3.300107 1_555
In7_1 Tm4_3 3.332592 1_545
In7_1 Tm4_7 3.332592 1_545
In7_1 In7_5 3.520486 1_455
In7_1 In7_5 3.520486 1_555
In7_2 Ni2_0 2.832265 1_555
In7_2 Tm3_2 3.207145 1_555
In7_2 Tm3_6 3.207145 1_555
In7_2 Tm7_6 3.239902 1_555
In7_2 Tm7_2 3.239902 1_555
In7_2 Tm1_7 3.282149 1_555
In7_2 Tm1_3 3.282149 1_555
In7_2 Ni1_2 3.300107 1_555
In7_2 Tm4_0 3.332592 1_555
In7_2 Tm4_4 3.332592 1_555
In7_2 In7_6 3.520486 1_555
In7_2 In7_6 3.520486 1_455
In7_3 Ni2_1 2.832265 1_555
In7_3 Tm3_3 3.207145 1_555
In7_3 Tm3_7 3.207145 1_555
In7_3 Tm7_7 3.239902 1_555
In7_3 Tm7_3 3.239902 1_555
In7_3 Tm1_2 3.282149 1_556
In7_3 Tm1_6 3.282149 1_556
In7_3 Ni1_3 3.300107 1_555
In7_3 Tm4_5 3.332592 1_555
In7_3 Tm4_1 3.332592 1_555
In7_3 In7_7 3.520486 1_555
In7_3 In7_7 3.520486 1_455
In7_4 Ni2_6 2.832265 1_545
In7_4 Tm3_0 3.207145 1_655
In7_4 Tm3_4 3.207145 1_555
In7_4 Tm7_4 3.239902 1_555
In7_4 Tm7_0 3.239902 1_655
In7_4 Tm1_5 3.282149 1_555
In7_4 Tm1_1 3.282149 1_655
In7_4 Ni1_4 3.300107 1_555
In7_4 Tm4_2 3.332592 1_645
In7_4 Tm4_6 3.332592 1_545
In7_5 Ni2_7 2.832265 1_545
In7_5 Tm3_5 3.207145 1_555
In7_5 Tm3_1 3.207145 1_655
In7_5 Tm7_5 3.239902 1_555
In7_5 Tm7_1 3.239902 1_655
In7_5 Tm1_4 3.282149 1_556
In7_5 Tm1_0 3.282149 1_656
In7_5 Ni1_5 3.300107 1_555
In7_5 Tm4_7 3.332592 1_545
In7_5 Tm4_3 3.332592 1_645
In7_6 Ni2_4 2.832265 1_555
In7_6 Tm3_2 3.207145 1_655
In7_6 Tm3_6 3.207145 1_555
In7_6 Tm7_6 3.239902 1_555
In7_6 Tm7_2 3.239902 1_655
In7_6 Tm1_7 3.282149 1_555
In7_6 Tm1_3 3.282149 1_655
In7_6 Ni1_6 3.300107 1_555
In7_6 Tm4_0 3.332592 1_655
In7_6 Tm4_4 3.332592 1_555
In7_7 Ni2_5 2.832265 1_555
In7_7 Tm3_3 3.207145 1_655
In7_7 Tm3_7 3.207145 1_555
In7_7 Tm7_3 3.239902 1_655
In7_7 Tm7_7 3.239902 1_555
In7_7 Tm1_2 3.282149 1_656
In7_7 Tm1_6 3.282149 1_556
In7_7 Ni1_7 3.300107 1_555
In7_7 Tm4_5 3.332592 1_555
In7_7 Tm4_1 3.332592 1_655
Ni0_0 Tm6_0 2.712270 1_555
Ni0_0 Tm6_4 2.712270 1_555
Ni0_0 Tm5_4 2.874899 1_555
Ni0_0 Tm5_0 2.874899 1_555
Ni0_0 Tm2_4 2.900170 1_555
Ni0_0 Tm2_0 2.900170 1_555
Ni0_1 Tm6_1 2.712270 1_555
Ni0_1 Tm6_5 2.712270 1_555
Ni0_1 Tm5_5 2.874899 1_555
Ni0_1 Tm5_1 2.874899 1_555
Ni0_1 Tm2_5 2.900170 1_555
Ni0_1 Tm2_1 2.900170 1_555
Ni0_2 Tm6_6 2.712270 1_555
Ni0_2 Tm6_2 2.712270 1_555
Ni0_2 Tm5_6 2.874899 1_555
Ni0_2 Tm5_2 2.874899 1_555
Ni0_2 Tm2_2 2.900170 1_555
Ni0_2 Tm2_6 2.900170 1_555
Ni0_3 Tm6_3 2.712270 1_555
Ni0_3 Tm6_7 2.712270 1_555
Ni0_3 Tm5_7 2.874899 1_555
Ni0_3 Tm5_3 2.874899 1_555
Ni0_3 Tm2_7 2.900170 1_555
Ni0_3 Tm2_3 2.900170 1_555
Ni0_4 Tm6_0 2.712270 1_655
Ni0_4 Tm6_4 2.712270 1_555
Ni0_4 Tm5_0 2.874899 1_655
Ni0_4 Tm5_4 2.874899 1_555
Ni0_4 Tm2_4 2.900170 1_555
Ni0_4 Tm2_0 2.900170 1_655
Ni0_5 Tm6_1 2.712270 1_655
Ni0_5 Tm6_5 2.712270 1_555
Ni0_5 Tm5_1 2.874899 1_655
Ni0_5 Tm5_5 2.874899 1_555
Ni0_5 Tm2_5 2.900170 1_555
Ni0_5 Tm2_1 2.900170 1_655
Ni0_6 Tm6_2 2.712270 1_655
Ni0_6 Tm6_6 2.712270 1_555
Ni0_6 Tm5_2 2.874899 1_655
Ni0_6 Tm5_6 2.874899 1_555
Ni0_6 Tm2_2 2.900170 1_655
Ni0_6 Tm2_6 2.900170 1_555
Ni0_7 Tm6_3 2.712270 1_655
Ni0_7 Tm6_7 2.712270 1_555
Ni0_7 Tm5_7 2.874899 1_555
Ni0_7 Tm5_3 2.874899 1_655
Ni0_7 Tm2_3 2.900170 1_655
Ni0_7 Tm2_7 2.900170 1_555
Ni1_0 Tm7_4 2.712270 1_555
Ni1_0 Tm7_0 2.712270 1_555
Ni1_0 Tm4_4 2.874899 1_555
Ni1_0 Tm4_0 2.874899 1_555
Ni1_0 Tm3_4 2.900170 1_555
Ni1_0 Tm3_0 2.900170 1_555
Ni1_1 Tm7_5 2.712270 1_555
Ni1_1 Tm7_1 2.712270 1_555
Ni1_1 Tm4_5 2.874899 1_555
Ni1_1 Tm4_1 2.874899 1_555
Ni1_1 Tm3_5 2.900170 1_555
Ni1_1 Tm3_1 2.900170 1_555
Ni1_2 Tm7_6 2.712270 1_555
Ni1_2 Tm7_2 2.712270 1_555
Ni1_2 Tm4_6 2.874899 1_555
Ni1_2 Tm4_2 2.874899 1_555
Ni1_2 Tm3_2 2.900170 1_555
Ni1_2 Tm3_6 2.900170 1_555
Ni1_3 Tm7_7 2.712270 1_555
Ni1_3 Tm7_3 2.712270 1_555
Ni1_3 Tm4_3 2.874899 1_555
Ni1_3 Tm4_7 2.874899 1_555
Ni1_3 Tm3_3 2.900170 1_555
Ni1_3 Tm3_7 2.900170 1_555
Ni1_4 Tm7_4 2.712270 1_555
Ni1_4 Tm7_0 2.712270 1_655
Ni1_4 Tm4_4 2.874899 1_555
Ni1_4 Tm4_0 2.874899 1_655
Ni1_4 Tm3_0 2.900170 1_655
Ni1_4 Tm3_4 2.900170 1_555
Ni1_5 Tm7_5 2.712270 1_555
Ni1_5 Tm7_1 2.712270 1_655
Ni1_5 Tm4_5 2.874899 1_555
Ni1_5 Tm4_1 2.874899 1_655
Ni1_5 Tm3_1 2.900170 1_655
Ni1_5 Tm3_5 2.900170 1_555
Ni1_6 Tm7_2 2.712270 1_655
Ni1_6 Tm7_6 2.712270 1_555
Ni1_6 Tm4_2 2.874899 1_655
Ni1_6 Tm4_6 2.874899 1_555
Ni1_6 Tm3_6 2.900170 1_555
Ni1_6 Tm3_2 2.900170 1_655
Ni1_7 Tm7_3 2.712270 1_655
Ni1_7 Tm7_7 2.712270 1_555
Ni1_7 Tm4_3 2.874899 1_655
Ni1_7 Tm4_7 2.874899 1_555
Ni1_7 Tm3_3 2.900170 1_655
Ni1_7 Tm3_7 2.900170 1_555
Ni2_0 Tm8_4 2.712270 1_555
Ni2_0 Tm8_0 2.712270 1_555
Ni2_0 Tm3_2 2.874899 1_555
Ni2_0 Tm3_6 2.874899 1_555
Ni2_0 Tm4_4 2.900170 1_555
Ni2_0 Tm4_0 2.900170 1_555
Ni2_1 Tm8_5 2.712270 1_555
Ni2_1 Tm8_1 2.712270 1_555
Ni2_1 Tm3_3 2.874899 1_555
Ni2_1 Tm3_7 2.874899 1_555
Ni2_1 Tm4_1 2.900170 1_555
Ni2_1 Tm4_5 2.900170 1_555
Ni2_2 Tm8_2 2.712270 1_555
Ni2_2 Tm8_6 2.712270 1_555
Ni2_2 Tm3_4 2.874899 1_565
Ni2_2 Tm3_0 2.874899 1_565
Ni2_2 Tm4_2 2.900170 1_555
Ni2_2 Tm4_6 2.900170 1_555
Ni2_3 Tm8_3 2.712270 1_555
Ni2_3 Tm8_7 2.712270 1_555
Ni2_3 Tm3_1 2.874899 1_565
Ni2_3 Tm3_5 2.874899 1_565
Ni2_3 Tm4_7 2.900170 1_555
Ni2_3 Tm4_3 2.900170 1_555
Ni2_4 Tm8_4 2.712270 1_555
Ni2_4 Tm8_0 2.712270 1_655
Ni2_4 Tm3_6 2.874899 1_555
Ni2_4 Tm3_2 2.874899 1_655
Ni2_4 Tm4_4 2.900170 1_555
Ni2_4 Tm4_0 2.900170 1_655
Ni2_5 Tm8_5 2.712270 1_555
Ni2_5 Tm8_1 2.712270 1_655
Ni2_5 Tm3_3 2.874899 1_655
Ni2_5 Tm3_7 2.874899 1_555
Ni2_5 Tm4_5 2.900170 1_555
Ni2_5 Tm4_1 2.900170 1_655
Ni2_6 Tm8_2 2.712270 1_655
Ni2_6 Tm8_6 2.712270 1_555
Ni2_6 Tm3_4 2.874899 1_565
Ni2_6 Tm3_0 2.874899 1_665
Ni2_6 Tm4_2 2.900170 1_655
Ni2_6 Tm4_6 2.900170 1_555
Ni2_7 Tm8_3 2.712270 1_655
Ni2_7 Tm8_7 2.712270 1_555
Ni2_7 Tm3_1 2.874899 1_665
Ni2_7 Tm3_5 2.874899 1_565
Ni2_7 Tm4_3 2.900170 1_655
Ni2_7 Tm4_7 2.900170 1_555
Ni3_0 Tm9_0 2.712270 1_555
Ni3_0 Tm9_4 2.712270 1_555
Ni3_0 Tm2_2 2.874899 1_545
Ni3_0 Tm2_6 2.874899 1_545
Ni3_0 Tm5_0 2.900170 1_555
Ni3_0 Tm5_4 2.900170 1_555
Ni3_1 Tm9_1 2.712270 1_555
Ni3_1 Tm9_5 2.712270 1_555
Ni3_1 Tm2_3 2.874899 1_545
Ni3_1 Tm2_7 2.874899 1_545
Ni3_1 Tm5_5 2.900170 1_555
Ni3_1 Tm5_1 2.900170 1_555
Ni3_2 Tm9_6 2.712270 1_555
Ni3_2 Tm9_2 2.712270 1_555
Ni3_2 Tm2_0 2.874899 1_555
Ni3_2 Tm2_4 2.874899 1_555
Ni3_2 Tm5_2 2.900170 1_555
Ni3_2 Tm5_6 2.900170 1_555
Ni3_3 Tm9_7 2.712270 1_555
Ni3_3 Tm9_3 2.712270 1_555
Ni3_3 Tm2_1 2.874899 1_555
Ni3_3 Tm2_5 2.874899 1_555
Ni3_3 Tm5_7 2.900170 1_555
Ni3_3 Tm5_3 2.900170 1_555
Ni3_4 Tm9_4 2.712270 1_555
Ni3_4 Tm9_0 2.712270 1_655
Ni3_4 Tm2_2 2.874899 1_645
Ni3_4 Tm2_6 2.874899 1_545
Ni3_4 Tm5_4 2.900170 1_555
Ni3_4 Tm5_0 2.900170 1_655
Ni3_5 Tm9_1 2.712270 1_655
Ni3_5 Tm9_5 2.712270 1_555
Ni3_5 Tm2_7 2.874899 1_545
Ni3_5 Tm2_3 2.874899 1_645
Ni3_5 Tm5_5 2.900170 1_555
Ni3_5 Tm5_1 2.900170 1_655
Ni3_6 Tm9_6 2.712270 1_555
Ni3_6 Tm9_2 2.712270 1_655
Ni3_6 Tm2_0 2.874899 1_655
Ni3_6 Tm2_4 2.874899 1_555
Ni3_6 Tm5_2 2.900170 1_655
Ni3_6 Tm5_6 2.900170 1_555
Ni3_7 Tm9_3 2.712270 1_655
Ni3_7 Tm9_7 2.712270 1_555
Ni3_7 Tm2_1 2.874899 1_655
Ni3_7 Tm2_5 2.874899 1_555
Ni3_7 Tm5_7 2.900170 1_555
Ni3_7 Tm5_3 2.900170 1_655
