# generated using pymatgen
data_Li7Mn2(CoO4)3
_symmetry_space_group_name_H-M   'P 1'
_cell_length_a   4.99601000
_cell_length_b   5.09638440
_cell_length_c   8.76589980
_cell_angle_alpha   90.30137594
_cell_angle_beta   90.50596821
_cell_angle_gamma   108.71134664
_symmetry_Int_Tables_number   1
_chemical_formula_structural   Li7Mn2(CoO4)3
_chemical_formula_sum   'Li7 Mn2 Co3 O12'
_cell_volume   211.38125400
_cell_formula_units_Z   1
loop_
 _symmetry_equiv_pos_site_id
 _symmetry_equiv_pos_as_xyz
  1  'x, y, z'
loop_
 _atom_site_type_symbol
 _atom_site_label
 _atom_site_symmetry_multiplicity
 _atom_site_fract_x
 _atom_site_fract_y
 _atom_site_fract_z
 _atom_site_occupancy
  Li  Li0  1  0.99996400  0.49994200  0.16704100  1
  Li  Li1  1  0.50567300  0.49913200  0.32343400  1
  Li  Li2  1  0.00082100  0.50087300  0.49584400  1
  Li  Li3  1  0.49819300  0.50000500  0.66593000  1
  Li  Li4  1  0.99905800  0.49940200  0.83857900  1
  Li  Li5  1  0.49898300  0.50270400  0.00976900  1
  Li  Li6  1  0.50336400  0.00303500  0.16308200  1
  Mn  Mn0  1  0.00201200  0.00108200  0.00341400  1
  Mn  Mn1  1  0.99749300  0.99665200  0.66790600  1
  Co  Co0  1  0.99449700  0.00944900  0.32655400  1
  Co  Co1  1  0.49144300  0.99338600  0.49099500  1
  Co  Co2  1  0.49855100  0.99870800  0.83554600  1
  O  O0  1  0.25246500  0.78158800  0.98829600  1
  O  O1  1  0.78008600  0.76709000  0.15612400  1
  O  O2  1  0.25543700  0.77105500  0.34421500  1
  O  O3  1  0.76463100  0.76763900  0.51029100  1
  O  O4  1  0.24684400  0.77605600  0.67520500  1
  O  O5  1  0.75755200  0.78178400  0.83241600  1
  O  O6  1  0.75799700  0.23510100  0.34048100  1
  O  O7  1  0.23467900  0.22977000  0.51511400  1
  O  O8  1  0.73905200  0.21099600  0.67102500  1
  O  O9  1  0.23943600  0.21597500  0.83338800  1
  O  O10  1  0.75344300  0.22210700  0.98726900  1
  O  O11  1  0.22832500  0.23647000  0.15808100  1
loop_
_geom_bond_atom_site_label_1
_geom_bond_atom_site_label_2
_geom_bond_distance
_geom_bond_site_symmetry_2
Li0 O1 2.007147 1_555
Li0 O11 2.023404 1_655
Li0 O6 2.145183 1_555
Li0 O2 2.182010 1_655
Li0 O10 2.197387 1_554
Li0 O0 2.236860 1_654
Li1 O6 2.123500 1_555
Li1 O11 2.137031 1_555
Li1 O2 2.151652 1_555
Li1 O1 2.179636 1_555
Li1 O3 2.243305 1_555
Li1 O7 2.326527 1_555
Li2 O6 2.014510 1_455
Li2 O2 2.050884 1_555
Li2 O3 2.070493 1_455
Li2 O7 2.082597 1_555
Li2 O4 2.187761 1_555
Li2 O8 2.251819 1_455
Li3 O7 2.040720 1_555
Li3 O3 2.092943 1_555
Li3 O5 2.149830 1_555
Li3 O4 2.167221 1_555
Li3 O8 2.180907 1_555
Li3 O9 2.185538 1_555
Li4 O10 2.033903 1_555
Li4 O0 2.043543 1_655
Li4 O4 2.122281 1_655
Li4 O5 2.154890 1_555
Li4 O9 2.154995 1_655
Li4 O8 2.173390 1_555
Li5 O1 2.041973 1_555
Li5 O11 2.057216 1_555
Li5 O0 2.166613 1_554
Li5 O10 2.206338 1_554
Li5 O9 2.220902 1_554
Li5 O5 2.233510 1_554
Li6 O0 2.057348 1_544
Li6 O10 2.083220 1_554
Li6 O11 2.086557 1_555
Li6 O6 2.101365 1_555
Li6 O1 2.104351 1_545
Li6 O2 2.137286 1_545
Mn0 O1 1.907367 1_445
Mn0 O11 1.908206 1_555
Mn0 O10 1.930583 1_454
Mn0 O0 1.932348 1_544
Mn0 O9 2.010650 1_554
Mn0 O5 2.015402 1_444
Mn1 O3 1.925631 1_555
Mn1 O4 1.928177 1_655
Mn1 O7 1.936765 1_665
Mn1 O8 1.940728 1_565
Mn1 O9 1.974792 1_665
Mn1 O5 1.980061 1_555
Co0 O6 1.899047 1_555
Co0 O1 2.002112 1_545
Co0 O11 2.016326 1_655
Co0 O2 2.052857 1_645
Co0 O7 2.124549 1_655
Co0 O3 2.139433 1_545
Co1 O2 1.852109 1_555
Co1 O6 2.006821 1_565
Co1 O7 2.033521 1_565
Co1 O3 2.054387 1_555
Co1 O8 2.077884 1_565
Co1 O4 2.124342 1_555
Co2 O0 1.923709 1_555
Co2 O10 1.926319 1_565
Co2 O5 1.953315 1_555
Co2 O9 1.954923 1_565
Co2 O4 1.970018 1_555
Co2 O8 1.976627 1_565
