# generated using pymatgen
data_RbIO2
_symmetry_space_group_name_H-M   'P 1'
_cell_length_a   9.65161397
_cell_length_b   9.65161397
_cell_length_c   9.65161397
_cell_angle_alpha   132.72266874
_cell_angle_beta   132.72266874
_cell_angle_gamma   69.09001720
_symmetry_Int_Tables_number   1
_chemical_formula_structural   RbIO2
_chemical_formula_sum   'Rb4 I4 O8'
_cell_volume   476.25206348
_cell_formula_units_Z   4
loop_
 _symmetry_equiv_pos_site_id
 _symmetry_equiv_pos_as_xyz
  1  'x, y, z'
loop_
 _atom_site_type_symbol
 _atom_site_label
 _atom_site_symmetry_multiplicity
 _atom_site_fract_x
 _atom_site_fract_y
 _atom_site_fract_z
 _atom_site_occupancy
  Rb  Rb0  1  0.87500000  0.62500000  0.25000000  1
  Rb  Rb1  1  0.37500000  0.62500000  0.75000000  1
  Rb  Rb2  1  0.37500000  0.62500000  0.25000000  1
  Rb  Rb3  1  0.37500000  0.12500000  0.75000000  1
  I  I0  1  0.37500000  0.12500000  0.25000000  1
  I  I1  1  0.87500000  0.12500000  0.75000000  1
  I  I2  1  0.87500000  0.12500000  0.25000000  1
  I  I3  1  0.87500000  0.62500000  0.75000000  1
  O  O0  1  0.30653400  0.29117000  0.13266500  1
  O  O1  1  0.15850400  0.17386900  0.86733500  1
  O  O2  1  0.04117000  0.40850400  0.48463500  1
  O  O3  1  0.44346600  0.95883000  0.36733500  1
  O  O4  1  0.92386900  0.55653400  0.51536500  1
  O  O5  1  0.59149600  0.07613100  0.63266500  1
  O  O6  1  0.70883000  0.84149600  0.01536500  1
  O  O7  1  0.82613100  0.69346600  0.98463500  1
loop_
_geom_bond_atom_site_label_1
_geom_bond_atom_site_label_2
_geom_bond_distance
_geom_bond_site_symmetry_2
I0 O0 2.232473 1_555
I0 O3 2.232473 1_545
I1 O5 2.232463 1_555
I1 O1 2.232463 1_655
I2 O2 2.232468 1_655
I2 O6 2.232468 1_545
I3 O4 2.232463 1_555
I3 O7 2.232463 1_555
O0 O1 1.461852 1_554
O0 Rb2 2.766528 1_555
O1 Rb3 2.766538 1_555
O2 O4 1.461858 1_455
O2 Rb1 2.766530 1_555
O3 O5 1.461852 1_565
O3 Rb2 2.766528 1_555
O4 Rb0 2.766538 1_555
O5 Rb3 2.766538 1_555
O6 O7 1.461858 1_554
O6 Rb1 2.766530 1_554
O7 Rb0 2.766538 1_556
