# generated using pymatgen
data_Mg3Ge3(WO6)2
_symmetry_space_group_name_H-M   'P 1'
_cell_length_a   10.73376840
_cell_length_b   10.73376784
_cell_length_c   10.73376798
_cell_angle_alpha   109.47122090
_cell_angle_beta   109.47121984
_cell_angle_gamma   109.47121985
_symmetry_Int_Tables_number   1
_chemical_formula_structural   Mg3Ge3(WO6)2
_chemical_formula_sum   'Mg12 Ge12 W8 O48'
_cell_volume   951.99515438
_cell_formula_units_Z   4
loop_
 _symmetry_equiv_pos_site_id
 _symmetry_equiv_pos_as_xyz
  1  'x, y, z'
loop_
 _atom_site_type_symbol
 _atom_site_label
 _atom_site_symmetry_multiplicity
 _atom_site_fract_x
 _atom_site_fract_y
 _atom_site_fract_z
 _atom_site_occupancy
  Mg  Mg0  1  0.62500000  0.25000000  0.87500000  1
  Mg  Mg1  1  0.87500000  0.75000000  0.62500000  1
  Mg  Mg2  1  0.75000000  0.62500000  0.87500000  1
  Mg  Mg3  1  0.25000000  0.87500000  0.62500000  1
  Mg  Mg4  1  0.87500000  0.62500000  0.25000000  1
  Mg  Mg5  1  0.62500000  0.87500000  0.75000000  1
  Mg  Mg6  1  0.37500000  0.75000000  0.12500000  1
  Mg  Mg7  1  0.12500000  0.25000000  0.37500000  1
  Mg  Mg8  1  0.25000000  0.37500000  0.12500000  1
  Mg  Mg9  1  0.75000000  0.12500000  0.37500000  1
  Mg  Mg10  1  0.12500000  0.37500000  0.75000000  1
  Mg  Mg11  1  0.37500000  0.12500000  0.25000000  1
  Ge  Ge0  1  0.87500000  0.12500000  0.75000000  1
  Ge  Ge1  1  0.12500000  0.87500000  0.25000000  1
  Ge  Ge2  1  0.25000000  0.62500000  0.37500000  1
  Ge  Ge3  1  0.12500000  0.75000000  0.87500000  1
  Ge  Ge4  1  0.75000000  0.87500000  0.12500000  1
  Ge  Ge5  1  0.37500000  0.25000000  0.62500000  1
  Ge  Ge6  1  0.62500000  0.75000000  0.37500000  1
  Ge  Ge7  1  0.87500000  0.25000000  0.12500000  1
  Ge  Ge8  1  0.25000000  0.12500000  0.87500000  1
  Ge  Ge9  1  0.75000000  0.37500000  0.62500000  1
  Ge  Ge10  1  0.37500000  0.62500000  0.75000000  1
  Ge  Ge11  1  0.62500000  0.37500000  0.25000000  1
  W  W0  1  0.50000000  0.50000000  0.50000000  1
  W  W1  1  0.50000000  0.50000000  0.00000000  1
  W  W2  1  0.50000000  0.00000000  0.50000000  1
  W  W3  1  0.00000000  0.50000000  0.50000000  1
  W  W4  1  0.50000000  0.00000000  0.00000000  1
  W  W5  1  0.00000000  0.00000000  0.50000000  1
  W  W6  1  0.00000000  0.50000000  0.00000000  1
  W  W7  1  0.00000000  0.00000000  0.00000000  1
  O  O0  1  0.78047724  0.41265210  0.81086836  1
  O  O1  1  0.08734790  0.86782514  0.39821625  1
  O  O2  1  0.68913164  0.10178375  0.96960789  1
  O  O3  1  0.71952276  0.53039211  0.63217486  1
  O  O4  1  0.71952276  0.68913164  0.08734790  1
  O  O5  1  0.53039211  0.63217486  0.71952276  1
  O  O6  1  0.10178375  0.63217486  0.41265210  1
  O  O7  1  0.63217486  0.71952276  0.53039211  1
  O  O8  1  0.39821625  0.81086836  0.53039211  1
  O  O9  1  0.86782514  0.96960789  0.78047724  1
  O  O10  1  0.96960789  0.78047724  0.86782514  1
  O  O11  1  0.08734790  0.71952276  0.68913164  1
  O  O12  1  0.63217486  0.41265210  0.10178375  1
  O  O13  1  0.53039211  0.39821625  0.81086836  1
  O  O14  1  0.68913164  0.08734790  0.71952276  1
  O  O15  1  0.41265210  0.10178375  0.63217486  1
  O  O16  1  0.81086836  0.53039211  0.39821625  1
  O  O17  1  0.39821625  0.08734790  0.86782514  1
  O  O18  1  0.10178375  0.96960789  0.68913164  1
  O  O19  1  0.60178375  0.18913164  0.46960789  1
  O  O20  1  0.96960789  0.68913164  0.10178375  1
  O  O21  1  0.81086836  0.78047724  0.41265210  1
  O  O22  1  0.86782514  0.39821625  0.08734790  1
  O  O23  1  0.78047724  0.86782514  0.96960789  1
  O  O24  1  0.21952276  0.58734790  0.18913164  1
  O  O25  1  0.91265210  0.13217486  0.60178375  1
  O  O26  1  0.31086836  0.89821625  0.03039211  1
  O  O27  1  0.28047724  0.46960789  0.36782514  1
  O  O28  1  0.28047724  0.31086836  0.91265210  1
  O  O29  1  0.46960789  0.36782514  0.28047724  1
  O  O30  1  0.89821625  0.36782514  0.58734790  1
  O  O31  1  0.36782514  0.28047724  0.46960789  1
  O  O32  1  0.21952276  0.13217486  0.03039211  1
  O  O33  1  0.13217486  0.60178375  0.91265210  1
  O  O34  1  0.18913164  0.21952276  0.58734790  1
  O  O35  1  0.58734790  0.18913164  0.21952276  1
  O  O36  1  0.03039211  0.31086836  0.89821625  1
  O  O37  1  0.89821625  0.03039211  0.31086836  1
  O  O38  1  0.60178375  0.91265210  0.13217486  1
  O  O39  1  0.18913164  0.46960789  0.60178375  1
  O  O40  1  0.58734790  0.89821625  0.36782514  1
  O  O41  1  0.31086836  0.91265210  0.28047724  1
  O  O42  1  0.46960789  0.60178375  0.18913164  1
  O  O43  1  0.36782514  0.58734790  0.89821625  1
  O  O44  1  0.91265210  0.28047724  0.31086836  1
  O  O45  1  0.03039211  0.21952276  0.13217486  1
  O  O46  1  0.13217486  0.03039211  0.21952276  1
  O  O47  1  0.41265210  0.81086836  0.78047724  1
loop_
_geom_bond_atom_site_label_1
_geom_bond_atom_site_label_2
_geom_bond_distance
_geom_bond_site_symmetry_2
Mg0 O2 2.318888 1_555
Mg0 O13 2.318888 1_555
Mg0 O15 2.318894 1_555
Mg0 O22 2.318894 1_556
Mg0 O14 2.435502 1_555
Mg0 O0 2.435502 1_555
Mg0 O12 2.435502 1_556
Mg0 O17 2.435503 1_555
Mg1 O10 2.318894 1_555
Mg1 O7 2.318894 1_555
Mg1 O21 2.318894 1_555
Mg1 O11 2.318894 1_655
Mg1 O9 2.435494 1_555
Mg1 O3 2.435494 1_555
Mg1 O16 2.435497 1_555
Mg1 O18 2.435497 1_655
Mg2 O23 2.318894 1_555
Mg2 O3 2.318894 1_555
Mg2 O0 2.318894 1_555
Mg2 O4 2.318894 1_556
Mg2 O10 2.435494 1_555
Mg2 O5 2.435494 1_555
Mg2 O13 2.435497 1_555
Mg2 O20 2.435497 1_556
Mg3 O18 2.318888 1_555
Mg3 O8 2.318888 1_555
Mg3 O6 2.318894 1_555
Mg3 O17 2.318894 1_565
Mg3 O11 2.435502 1_555
Mg3 O47 2.435502 1_555
Mg3 O15 2.435502 1_565
Mg3 O1 2.435502 1_555
Mg4 O16 2.318888 1_555
Mg4 O20 2.318888 1_555
Mg4 O1 2.318894 1_655
Mg4 O12 2.318894 1_555
Mg4 O21 2.435502 1_555
Mg4 O4 2.435502 1_555
Mg4 O22 2.435502 1_555
Mg4 O6 2.435503 1_655
Mg5 O5 2.318894 1_555
Mg5 O9 2.318894 1_555
Mg5 O14 2.318894 1_565
Mg5 O47 2.318894 1_555
Mg5 O7 2.435494 1_555
Mg5 O23 2.435494 1_555
Mg5 O2 2.435497 1_565
Mg5 O8 2.435497 1_555
Mg6 O26 2.318888 1_555
Mg6 O42 2.318888 1_555
Mg6 O40 2.318894 1_555
Mg6 O33 2.318894 1_554
Mg6 O41 2.435502 1_555
Mg6 O24 2.435502 1_555
Mg6 O43 2.435502 1_554
Mg6 O38 2.435503 1_555
Mg7 O45 2.318894 1_555
Mg7 O31 2.318894 1_555
Mg7 O34 2.318894 1_555
Mg7 O44 2.318894 1_455
Mg7 O46 2.435494 1_555
Mg7 O27 2.435494 1_555
Mg7 O39 2.435497 1_555
Mg7 O37 2.435497 1_455
Mg8 O32 2.318894 1_555
Mg8 O27 2.318894 1_555
Mg8 O24 2.318894 1_555
Mg8 O28 2.318894 1_554
Mg8 O45 2.435494 1_555
Mg8 O29 2.435494 1_555
Mg8 O42 2.435497 1_555
Mg8 O36 2.435497 1_554
Mg9 O37 2.318888 1_555
Mg9 O19 2.318888 1_555
Mg9 O30 2.318894 1_555
Mg9 O38 2.318894 1_545
Mg9 O44 2.435502 1_555
Mg9 O35 2.435502 1_555
Mg9 O40 2.435502 1_545
Mg9 O25 2.435502 1_555
Mg10 O39 2.318888 1_555
Mg10 O36 2.318888 1_555
Mg10 O25 2.318894 1_455
Mg10 O43 2.318894 1_555
Mg10 O34 2.435502 1_555
Mg10 O28 2.435502 1_555
Mg10 O33 2.435502 1_555
Mg10 O30 2.435503 1_455
Mg11 O29 2.318894 1_555
Mg11 O46 2.318894 1_555
Mg11 O41 2.318894 1_545
Mg11 O35 2.318894 1_555
Mg11 O31 2.435494 1_555
Mg11 O32 2.435494 1_555
Mg11 O26 2.435497 1_545
Mg11 O19 2.435497 1_555
Ge0 O25 1.786020 1_555
Ge0 O14 1.786020 1_555
Ge0 O36 1.786023 1_655
Ge0 O9 1.786030 1_545
Ge1 O1 1.786020 1_555
Ge1 O41 1.786020 1_555
Ge1 O20 1.786023 1_455
Ge1 O46 1.786030 1_565
Ge2 O6 1.786020 1_555
Ge2 O24 1.786020 1_555
Ge2 O8 1.786023 1_555
Ge2 O27 1.786030 1_555
Ge3 O33 1.786020 1_555
Ge3 O11 1.786020 1_555
Ge3 O26 1.786023 1_556
Ge3 O10 1.786030 1_455
Ge4 O38 1.786020 1_555
Ge4 O4 1.786020 1_555
Ge4 O37 1.786023 1_565
Ge4 O23 1.786030 1_554
Ge5 O15 1.786020 1_555
Ge5 O34 1.786020 1_555
Ge5 O13 1.786023 1_555
Ge5 O31 1.786030 1_555
Ge6 O40 1.786020 1_555
Ge6 O21 1.786020 1_555
Ge6 O42 1.786023 1_555
Ge6 O7 1.786030 1_555
Ge7 O22 1.786020 1_555
Ge7 O44 1.786020 1_555
Ge7 O2 1.786023 1_554
Ge7 O45 1.786030 1_655
Ge8 O17 1.786020 1_555
Ge8 O28 1.786020 1_555
Ge8 O18 1.786023 1_545
Ge8 O32 1.786030 1_556
Ge9 O30 1.786020 1_555
Ge9 O0 1.786020 1_555
Ge9 O19 1.786023 1_555
Ge9 O3 1.786030 1_555
Ge10 O43 1.786020 1_555
Ge10 O47 1.786020 1_555
Ge10 O39 1.786023 1_555
Ge10 O5 1.786030 1_555
Ge11 O12 1.786020 1_555
Ge11 O35 1.786020 1_555
Ge11 O16 1.786023 1_555
Ge11 O29 1.786030 1_555
O0 W6 2.149832 1_656
O1 W5 2.149832 1_565
O2 W4 2.149839 1_556
O3 W0 2.149828 1_555
O4 W1 2.149832 1_555
O5 W0 2.149828 1_555
O6 W3 2.149832 1_555
O7 W0 2.149828 1_555
O8 W2 2.149839 1_565
O9 W7 2.149828 1_666
O10 W7 2.149828 1_666
O11 W3 2.149832 1_555
O12 W1 2.149832 1_555
O13 W1 2.149839 1_556
O14 W2 2.149832 1_555
O15 W2 2.149832 1_555
O16 W3 2.149839 1_655
O17 W4 2.149832 1_556
O18 W5 2.149839 1_565
O19 W2 2.149839 1_555
O20 W6 2.149839 1_655
O21 W5 2.149832 1_665
O22 W6 2.149832 1_655
O23 W7 2.149828 1_666
O24 W6 2.149832 1_555
O25 W5 2.149832 1_655
O26 W4 2.149839 1_565
O27 W0 2.149828 1_555
O28 W1 2.149832 1_556
O29 W0 2.149828 1_555
O30 W3 2.149832 1_655
O31 W0 2.149828 1_555
O32 W7 2.149828 1_555
O33 W6 2.149832 1_556
O34 W5 2.149832 1_555
O35 W4 2.149832 1_555
O36 W6 2.149839 1_556
O37 W5 2.149839 1_655
O38 W4 2.149832 1_565
O39 W3 2.149839 1_555
O40 W2 2.149832 1_565
O41 W2 2.149832 1_565
O42 W1 2.149839 1_555
O43 W1 2.149832 1_556
O44 W3 2.149832 1_655
O45 W7 2.149828 1_555
O46 W7 2.149828 1_555
O47 W4 2.149832 1_566
