# generated using pymatgen
data_Mg6AlNi
_symmetry_space_group_name_H-M   'P 1'
_cell_length_a   4.85903200
_cell_length_b   6.04087200
_cell_length_c   10.46779000
_cell_angle_alpha   90.00000000
_cell_angle_beta   90.00000000
_cell_angle_gamma   90.00000000
_symmetry_Int_Tables_number   1
_chemical_formula_structural   Mg6AlNi
_chemical_formula_sum   'Mg12 Al2 Ni2'
_cell_volume   307.25884536
_cell_formula_units_Z   2
loop_
 _symmetry_equiv_pos_site_id
 _symmetry_equiv_pos_as_xyz
  1  'x, y, z'
loop_
 _atom_site_type_symbol
 _atom_site_label
 _atom_site_symmetry_multiplicity
 _atom_site_fract_x
 _atom_site_fract_y
 _atom_site_fract_z
 _atom_site_occupancy
  Mg  Mg0  1  0.00000000  0.24999400  0.41615000  1
  Mg  Mg1  1  0.00000000  0.75000600  0.41615000  1
  Mg  Mg2  1  0.50000000  0.74193800  0.08773200  1
  Mg  Mg3  1  0.50000000  0.25806200  0.08773200  1
  Mg  Mg4  1  0.50000000  0.00000000  0.33110100  1
  Mg  Mg5  1  0.50000000  0.50000000  0.32568600  1
  Mg  Mg6  1  0.00000000  0.74999400  0.91615000  1
  Mg  Mg7  1  0.00000000  0.25000600  0.91615000  1
  Mg  Mg8  1  0.50000000  0.24193800  0.58773200  1
  Mg  Mg9  1  0.50000000  0.75806200  0.58773200  1
  Mg  Mg10  1  0.50000000  0.50000000  0.83110100  1
  Mg  Mg11  1  0.50000000  0.00000000  0.82568600  1
  Al  Al0  1  0.00000000  0.00000000  0.16836000  1
  Al  Al1  1  0.00000000  0.50000000  0.66836000  1
  Ni  Ni0  1  0.00000000  0.50000000  0.16708400  1
  Ni  Ni1  1  0.00000000  0.00000000  0.66708400  1
loop_
_geom_bond_atom_site_label_1
_geom_bond_atom_site_label_2
_geom_bond_distance
_geom_bond_site_symmetry_2
Mg0 Mg4 2.995962 1_555
Mg0 Mg4 2.995962 1_455
Mg0 Ni0 3.013006 1_555
Mg0 Mg5 3.013328 1_455
Mg0 Mg5 3.013328 1_555
Mg0 Mg1 3.020364 1_545
Mg0 Mg1 3.020508 1_555
Mg0 Mg8 3.021727 1_455
Mg0 Mg8 3.021727 1_555
Mg0 Ni1 3.029906 1_555
Mg1 Mg4 2.995962 1_465
Mg1 Mg4 2.995962 1_565
Mg1 Ni0 3.013006 1_555
Mg1 Mg5 3.013328 1_455
Mg1 Mg5 3.013328 1_555
Mg1 Mg9 3.021727 1_555
Mg1 Mg9 3.021727 1_455
Mg1 Ni1 3.029906 1_565
Mg2 Mg5 2.887971 1_555
Mg2 Mg3 2.923033 1_555
Mg2 Ni0 2.954410 1_655
Mg2 Ni0 2.954410 1_555
Mg2 Mg4 2.986665 1_565
Mg2 Mg6 3.021727 1_554
Mg2 Mg6 3.021727 1_654
Mg2 Mg3 3.117839 1_565
Mg3 Mg5 2.887971 1_555
Mg3 Ni0 2.954410 1_655
Mg3 Ni0 2.954410 1_555
Mg3 Mg4 2.986665 1_555
Mg3 Mg7 3.021727 1_654
Mg3 Mg7 3.021727 1_554
Mg4 Mg5 3.020968 1_555
Mg4 Mg5 3.020968 1_545
Mg4 Mg9 3.058195 1_545
Mg4 Mg8 3.058195 1_555
Mg5 Ni0 2.942593 1_555
Mg5 Ni0 2.942593 1_655
Mg5 Mg8 3.155077 1_555
Mg5 Mg9 3.155077 1_555
Mg6 Ni1 3.013006 1_565
Mg6 Mg7 3.020364 1_555
Mg6 Mg7 3.020508 1_565
Mg6 Ni0 3.029906 1_556
Mg7 Ni1 3.013006 1_555
Mg7 Ni0 3.029906 1_556
Mg8 Mg9 2.923033 1_545
Mg8 Ni1 2.954410 1_655
Mg8 Ni1 2.954410 1_555
Mg8 Mg9 3.117839 1_555
Mg9 Ni1 2.954410 1_565
Mg9 Ni1 2.954410 1_665
Mg10 Mg8 2.986665 1_555
Mg10 Mg9 2.986665 1_555
Mg10 Mg6 2.995962 1_655
Mg10 Mg6 2.995962 1_555
Mg10 Mg7 2.995962 1_555
Mg10 Mg7 2.995962 1_655
Mg10 Mg11 3.020968 1_555
Mg10 Mg11 3.020968 1_565
Mg10 Mg3 3.058195 1_556
Mg10 Mg2 3.058195 1_556
Mg11 Mg9 2.887971 1_545
Mg11 Mg8 2.887971 1_555
Mg11 Ni1 2.942593 1_555
Mg11 Ni1 2.942593 1_655
Mg11 Mg7 3.013328 1_555
Mg11 Mg7 3.013328 1_655
Mg11 Mg6 3.013328 1_645
Mg11 Mg6 3.013328 1_545
Mg11 Mg3 3.155077 1_556
Mg11 Mg2 3.155077 1_546
Al0 Mg4 2.967253 1_455
Al0 Mg4 2.967253 1_555
Al0 Mg0 3.001419 1_555
Al0 Mg1 3.001419 1_545
Al0 Mg3 3.007509 1_555
Al0 Mg3 3.007509 1_455
Al0 Mg2 3.007509 1_445
Al0 Mg2 3.007509 1_545
Al0 Ni0 3.020466 1_555
Al0 Ni0 3.020466 1_545
Al0 Mg7 3.041529 1_554
Al0 Mg6 3.041529 1_544
Al1 Mg10 2.967253 1_455
Al1 Mg10 2.967253 1_555
Al1 Mg6 3.001419 1_555
Al1 Mg7 3.001419 1_555
Al1 Mg8 3.007509 1_455
Al1 Mg8 3.007509 1_555
Al1 Mg9 3.007509 1_455
Al1 Mg9 3.007509 1_555
Al1 Ni1 3.020466 1_555
Al1 Ni1 3.020466 1_565
Al1 Mg1 3.041529 1_555
Al1 Mg0 3.041529 1_555
