# generated using pymatgen
data_Li4Mn3O7
_symmetry_space_group_name_H-M   'P 1'
_cell_length_a   17.36606692
_cell_length_b   17.36606692
_cell_length_c   5.27326326
_cell_angle_alpha   83.25247795
_cell_angle_beta   83.25247795
_cell_angle_gamma   9.52118926
_symmetry_Int_Tables_number   1
_chemical_formula_structural   Li4Mn3O7
_chemical_formula_sum   'Li8 Mn6 O14'
_cell_volume   261.22253526
_cell_formula_units_Z   2
loop_
 _symmetry_equiv_pos_site_id
 _symmetry_equiv_pos_as_xyz
  1  'x, y, z'
loop_
 _atom_site_type_symbol
 _atom_site_label
 _atom_site_symmetry_multiplicity
 _atom_site_fract_x
 _atom_site_fract_y
 _atom_site_fract_z
 _atom_site_occupancy
  Li  Li0  1  0.93095800  0.93095800  0.35084400  1
  Li  Li1  1  0.35743300  0.35743300  0.21462000  1
  Li  Li2  1  0.78588700  0.78588700  0.07081900  1
  Li  Li3  1  0.21411300  0.21411300  0.92918100  1
  Li  Li4  1  0.64256700  0.64256700  0.78538000  1
  Li  Li5  1  0.50000000  0.50000000  0.50000000  1
  Li  Li6  1  0.06904200  0.06904200  0.64915600  1
  Li  Li7  1  0.00000000  0.00000000  0.00000000  1
  Mn  Mn0  1  0.43209300  0.43209300  0.87559800  1
  Mn  Mn1  1  0.56790700  0.56790700  0.12440200  1
  Mn  Mn2  1  0.85875700  0.85875700  0.72376800  1
  Mn  Mn3  1  0.28632600  0.28632600  0.57195800  1
  Mn  Mn4  1  0.71367400  0.71367400  0.42804200  1
  Mn  Mn5  1  0.14124300  0.14124300  0.27623200  1
  O  O0  1  0.96093300  0.96093300  0.69222400  1
  O  O1  1  0.39228100  0.39228100  0.57242100  1
  O  O2  1  0.81856000  0.81856000  0.40214000  1
  O  O3  1  0.24596700  0.24596700  0.25891600  1
  O  O4  1  0.67442300  0.67442300  0.11352900  1
  O  O5  1  0.53965800  0.53965800  0.85632800  1
  O  O6  1  0.10243400  0.10243400  0.97381000  1
  O  O7  1  0.89756600  0.89756600  0.02619000  1
  O  O8  1  0.32557700  0.32557700  0.88647100  1
  O  O9  1  0.75403300  0.75403300  0.74108400  1
  O  O10  1  0.18144000  0.18144000  0.59786000  1
  O  O11  1  0.60771900  0.60771900  0.42757900  1
  O  O12  1  0.46034200  0.46034200  0.14367200  1
  O  O13  1  0.03906700  0.03906700  0.30777600  1
loop_
_geom_bond_atom_site_label_1
_geom_bond_atom_site_label_2
_geom_bond_distance
_geom_bond_site_symmetry_2
Li0 O12 2.010745 1_655
Li0 O12 2.010745 1_565
Li0 O7 2.175612 1_555
Li0 O0 2.181168 1_555
Li0 O1 2.205840 1_565
Li0 O1 2.205840 1_655
Li1 O2 2.133452 1_545
Li1 O2 2.133452 1_455
Li1 O8 2.158702 1_554
Li1 O7 2.160706 1_455
Li1 O7 2.160706 1_545
Li1 O1 2.356144 1_555
Li2 O8 2.143488 1_654
Li2 O8 2.143488 1_564
Li2 O3 2.155699 1_565
Li2 O3 2.155699 1_655
Li2 O9 2.165872 1_554
Li2 O2 2.190279 1_555
Li3 O4 2.143488 1_456
Li3 O4 2.143488 1_546
Li3 O9 2.155699 1_545
Li3 O9 2.155699 1_455
Li3 O3 2.165872 1_556
Li3 O10 2.190279 1_555
Li4 O10 2.133452 1_655
Li4 O10 2.133452 1_565
Li4 O4 2.158702 1_556
Li4 O6 2.160706 1_655
Li4 O6 2.160706 1_565
Li4 O11 2.356144 1_555
Li5 O13 2.147075 1_565
Li5 O13 2.147075 1_655
Li5 O0 2.147075 1_455
Li5 O0 2.147075 1_545
Li5 O5 2.454191 1_555
Li5 O12 2.454191 1_555
Li6 O5 2.010745 1_455
Li6 O5 2.010745 1_545
Li6 O6 2.175612 1_555
Li6 O13 2.181168 1_555
Li6 O11 2.205840 1_545
Li6 O11 2.205840 1_455
Li7 O5 2.071270 1_544
Li7 O12 2.071270 1_455
Li7 O5 2.071270 1_454
Li7 O12 2.071270 1_545
Li7 O13 2.231594 1_555
Li7 O0 2.231594 1_444
Mn0 O12 1.811154 1_556
Mn0 O0 1.944503 1_545
Mn0 O0 1.944503 1_455
Mn0 O7 1.977931 1_456
Mn0 O7 1.977931 1_546
Mn0 O1 2.230307 1_555
Mn1 O5 1.811154 1_554
Mn1 O13 1.944503 1_655
Mn1 O13 1.944503 1_565
Mn1 O6 1.977931 1_654
Mn1 O6 1.977931 1_564
Mn1 O11 2.230307 1_555
Mn2 O1 1.960151 1_655
Mn2 O1 1.960151 1_565
Mn2 O8 1.974815 1_655
Mn2 O8 1.974815 1_565
Mn2 O7 2.202892 1_556
Mn2 O2 2.317042 1_555
Mn3 O9 1.971515 1_545
Mn3 O9 1.971515 1_455
Mn3 O2 1.971878 1_455
Mn3 O2 1.971878 1_545
Mn3 O8 2.264436 1_555
Mn3 O3 2.284758 1_555
Mn4 O3 1.971515 1_655
Mn4 O3 1.971515 1_565
Mn4 O10 1.971878 1_655
Mn4 O10 1.971878 1_565
Mn4 O4 2.264436 1_555
Mn4 O9 2.284758 1_555
Mn5 O11 1.960151 1_455
Mn5 O11 1.960151 1_545
Mn5 O4 1.974815 1_545
Mn5 O4 1.974815 1_455
Mn5 O6 2.202892 1_554
Mn5 O10 2.317042 1_555
