# generated using pymatgen
data_Yb4SmS5
_symmetry_space_group_name_H-M   'P 1'
_cell_length_a   16.58929042
_cell_length_b   16.58929042
_cell_length_c   16.58929025
_cell_angle_alpha   13.80223226
_cell_angle_beta   13.80223226
_cell_angle_gamma   13.80223414
_symmetry_Int_Tables_number   1
_chemical_formula_structural   Yb4SmS5
_chemical_formula_sum   'Yb4 Sm1 S5'
_cell_volume   226.12337253
_cell_formula_units_Z   1
loop_
 _symmetry_equiv_pos_site_id
 _symmetry_equiv_pos_as_xyz
  1  'x, y, z'
loop_
 _atom_site_type_symbol
 _atom_site_label
 _atom_site_symmetry_multiplicity
 _atom_site_fract_x
 _atom_site_fract_y
 _atom_site_fract_z
 _atom_site_occupancy
  Yb  Yb0  1  0.09968100  0.09968100  0.09968100  1
  Yb  Yb1  1  0.70005900  0.70005900  0.70005900  1
  Yb  Yb2  1  0.29994100  0.29994100  0.29994100  1
  Yb  Yb3  1  0.90031900  0.90031900  0.90031900  1
  Sm  Sm0  1  0.50000000  0.50000000  0.50000000  1
  S  S0  1  0.59985000  0.59985000  0.59985000  1
  S  S1  1  0.40015000  0.40015000  0.40015000  1
  S  S2  1  0.00000000  0.00000000  0.00000000  1
  S  S3  1  0.20064200  0.20064200  0.20064200  1
  S  S4  1  0.79935800  0.79935800  0.79935800  1
loop_
_geom_bond_atom_site_label_1
_geom_bond_atom_site_label_2
_geom_bond_distance
_geom_bond_site_symmetry_2
S0 Yb3 2.814488 1_554
S0 Yb3 2.814488 1_455
S0 Yb3 2.814488 1_545
S0 Yb2 2.830462 1_556
S0 Yb2 2.830462 1_565
S0 Yb2 2.830462 1_655
S1 Yb0 2.814488 1_556
S1 Yb0 2.814488 1_655
S1 Yb0 2.814488 1_565
S1 Yb1 2.830462 1_554
S1 Yb1 2.830462 1_455
S1 Yb1 2.830462 1_545
S2 Yb1 2.829544 1_445
S2 Yb2 2.829544 1_554
S2 Yb2 2.829545 1_545
S2 Yb1 2.829545 1_454
S2 Yb2 2.829545 1_455
S2 Yb1 2.829545 1_544
S3 Yb3 2.818635 1_445
S3 Yb3 2.818635 1_454
S3 Yb3 2.818635 1_544
S3 Sm0 2.846353 1_554
S3 Sm0 2.846354 1_545
S3 Sm0 2.846354 1_455
S4 Yb0 2.818635 1_665
S4 Yb0 2.818635 1_656
S4 Yb0 2.818635 1_566
S4 Sm0 2.846353 1_556
S4 Sm0 2.846354 1_565
S4 Sm0 2.846354 1_655
