# generated using pymatgen
data_Na3Si34
_symmetry_space_group_name_H-M   'P 1'
_cell_length_a   10.37028534
_cell_length_b   10.37028534
_cell_length_c   10.37028554
_cell_angle_alpha   59.92595469
_cell_angle_beta   59.92595469
_cell_angle_gamma   59.92595158
_symmetry_Int_Tables_number   1
_chemical_formula_structural   Na3Si34
_chemical_formula_sum   'Na3 Si34'
_cell_volume   787.27611663
_cell_formula_units_Z   1
loop_
 _symmetry_equiv_pos_site_id
 _symmetry_equiv_pos_as_xyz
  1  'x, y, z'
loop_
 _atom_site_type_symbol
 _atom_site_label
 _atom_site_symmetry_multiplicity
 _atom_site_fract_x
 _atom_site_fract_y
 _atom_site_fract_z
 _atom_site_occupancy
  Na  Na0  1  0.37504758  0.37504758  0.37504758  1
  Na  Na1  1  0.62495242  0.62495242  0.62495242  1
  Na  Na2  1  -0.00000000  0.00000000  0.00000000  1
  Si  Si0  1  0.21764011  0.21764011  0.21764011  1
  Si  Si1  1  0.84755406  0.21779867  0.21779867  1
  Si  Si2  1  0.21779867  0.21779867  0.84755406  1
  Si  Si3  1  0.21779867  0.84755406  0.21779867  1
  Si  Si4  1  0.78235989  0.78235989  0.78235989  1
  Si  Si5  1  0.15244594  0.78220133  0.78220133  1
  Si  Si6  1  0.78220133  0.78220133  0.15244594  1
  Si  Si7  1  0.78220133  0.15244594  0.78220133  1
  Si  Si8  1  0.12540176  0.12540176  0.12540176  1
  Si  Si9  1  0.87459824  0.87459824  0.87459824  1
  Si  Si10  1  0.37062573  0.99453512  0.37062573  1
  Si  Si11  1  0.76291420  0.37127996  0.99488726  1
  Si  Si12  1  0.99488726  0.37127996  0.76291420  1
  Si  Si13  1  0.37131533  0.76323151  0.37131533  1
  Si  Si14  1  0.37127996  0.99488726  0.76291420  1
  Si  Si15  1  0.99453512  0.37062573  0.37062573  1
  Si  Si16  1  0.76323151  0.37131533  0.37131533  1
  Si  Si17  1  0.37127996  0.76291420  0.99488726  1
  Si  Si18  1  0.76291420  0.99488726  0.37127996  1
  Si  Si19  1  0.37131533  0.37131533  0.76323151  1
  Si  Si20  1  0.37062573  0.37062573  0.99453512  1
  Si  Si21  1  0.99488726  0.76291420  0.37127996  1
  Si  Si22  1  0.62937427  0.00546488  0.62937427  1
  Si  Si23  1  0.23708580  0.62872004  0.00511274  1
  Si  Si24  1  0.00511274  0.62872004  0.23708580  1
  Si  Si25  1  0.62868467  0.23676849  0.62868467  1
  Si  Si26  1  0.62872004  0.00511274  0.23708580  1
  Si  Si27  1  0.00546488  0.62937427  0.62937427  1
  Si  Si28  1  0.23676849  0.62868467  0.62868467  1
  Si  Si29  1  0.62872004  0.23708580  0.00511274  1
  Si  Si30  1  0.23708580  0.00511274  0.62872004  1
  Si  Si31  1  0.62868467  0.62868467  0.23676849  1
  Si  Si32  1  0.62937427  0.62937427  0.00546488  1
  Si  Si33  1  0.00511274  0.23708580  0.62872004  1
loop_
_geom_bond_atom_site_label_1
_geom_bond_atom_site_label_2
_geom_bond_distance
_geom_bond_site_symmetry_2
Na2 Si8 3.187225 1_555
Na2 Si9 3.187225 1_444
Na2 Si5 3.264599 1_544
Na2 Si7 3.264599 1_454
Na2 Si3 3.264599 1_545
Na2 Si1 3.264599 1_455
Na2 Si2 3.264599 1_554
Na2 Si6 3.264599 1_445
Na2 Si29 3.363153 1_455
Na2 Si23 3.363153 1_545
Na2 Si11 3.363153 1_454
Na2 Si17 3.363153 1_544
Na2 Si24 3.363153 1_545
Na2 Si26 3.363153 1_455
Na2 Si12 3.363153 1_454
Na2 Si14 3.363153 1_544
Na2 Si33 3.363153 1_554
Na2 Si30 3.363153 1_554
Na2 Si21 3.363153 1_445
Na2 Si18 3.363153 1_445
Si0 Si8 2.344340 1_555
Si0 Si15 2.356259 1_455
Si0 Si10 2.356259 1_545
Si0 Si20 2.356259 1_554
Si1 Si8 2.350434 1_655
Si1 Si16 2.362909 1_555
Si1 Si11 2.365024 1_554
Si1 Si18 2.365024 1_545
Si2 Si8 2.350434 1_556
Si3 Si8 2.350434 1_565
Si4 Si9 2.344340 1_555
Si5 Si9 2.350434 1_455
Si6 Si9 2.350434 1_554
Si7 Si9 2.350434 1_545
Si10 Si26 2.349617 1_565
Si10 Si30 2.349617 1_565
Si10 Si13 2.391538 1_555
Si11 Si32 2.349617 1_556
Si11 Si29 2.351530 1_556
Si11 Si12 2.402934 1_555
Si12 Si27 2.349617 1_655
Si12 Si33 2.351530 1_655
Si12 Si2 2.365024 1_655
Si13 Si31 2.345992 1_555
Si13 Si28 2.345992 1_555
Si13 Si3 2.362909 1_555
Si14 Si22 2.349617 1_565
Si14 Si30 2.351530 1_565
Si14 Si2 2.365024 1_565
Si14 Si17 2.402934 1_555
Si15 Si24 2.349617 1_655
Si15 Si33 2.349617 1_655
Si15 Si16 2.391538 1_555
Si16 Si31 2.345992 1_555
Si16 Si25 2.345992 1_555
Si17 Si32 2.349617 1_556
Si17 Si23 2.351530 1_556
Si17 Si3 2.365024 1_556
Si18 Si22 2.349617 1_565
Si18 Si26 2.351530 1_565
Si18 Si21 2.402934 1_555
Si19 Si28 2.345992 1_555
Si19 Si25 2.345992 1_555
Si19 Si2 2.362909 1_555
Si19 Si20 2.391538 1_555
Si20 Si29 2.349617 1_556
Si20 Si23 2.349617 1_556
Si21 Si27 2.349617 1_655
Si21 Si24 2.351530 1_655
Si21 Si3 2.365024 1_655
Si22 Si4 2.356259 1_545
Si22 Si25 2.391538 1_555
Si23 Si5 2.365024 1_554
Si23 Si24 2.402934 1_555
Si24 Si6 2.365024 1_455
Si25 Si7 2.362909 1_555
Si26 Si6 2.365024 1_545
Si26 Si29 2.402934 1_555
Si27 Si4 2.356259 1_455
Si27 Si28 2.391538 1_555
Si28 Si5 2.362909 1_555
Si29 Si7 2.365024 1_554
Si30 Si5 2.365024 1_545
Si30 Si33 2.402934 1_555
Si31 Si6 2.362909 1_555
Si31 Si32 2.391538 1_555
Si32 Si4 2.356259 1_554
Si33 Si7 2.365024 1_455
