# generated using pymatgen
data_ErGaRh
_symmetry_space_group_name_H-M   'P 1'
_cell_length_a   4.25633396
_cell_length_b   6.71583096
_cell_length_c   7.70447188
_cell_angle_alpha   90.00000000
_cell_angle_beta   90.00000000
_cell_angle_gamma   90.00000000
_symmetry_Int_Tables_number   1
_chemical_formula_structural   ErGaRh
_chemical_formula_sum   'Er4 Ga4 Rh4'
_cell_volume   220.23093714
_cell_formula_units_Z   4
loop_
 _symmetry_equiv_pos_site_id
 _symmetry_equiv_pos_as_xyz
  1  'x, y, z'
loop_
 _atom_site_type_symbol
 _atom_site_label
 _atom_site_symmetry_multiplicity
 _atom_site_fract_x
 _atom_site_fract_y
 _atom_site_fract_z
 _atom_site_occupancy
  Er  Er0  1  0.25000000  0.97199687  0.31364747  1
  Er  Er1  1  0.25000000  0.47199687  0.18635253  1
  Er  Er2  1  0.75000000  0.02800313  0.68635253  1
  Er  Er3  1  0.75000000  0.52800313  0.81364747  1
  Ga  Ga0  1  0.25000000  0.34857679  0.56615387  1
  Ga  Ga1  1  0.25000000  0.84857679  0.93384613  1
  Ga  Ga2  1  0.75000000  0.65142321  0.43384613  1
  Ga  Ga3  1  0.75000000  0.15142321  0.06615387  1
  Rh  Rh0  1  0.25000000  0.23398270  0.88545183  1
  Rh  Rh1  1  0.25000000  0.73398270  0.61454817  1
  Rh  Rh2  1  0.75000000  0.76601730  0.11454817  1
  Rh  Rh3  1  0.75000000  0.26601730  0.38545183  1
loop_
_geom_bond_atom_site_label_1
_geom_bond_atom_site_label_2
_geom_bond_distance
_geom_bond_site_symmetry_2
Er0 Rh1 2.815939 1_555
Er0 Rh3 2.955360 1_565
Er0 Rh3 2.955360 1_465
Er0 Rh2 2.965754 1_455
Er0 Rh2 2.965754 1_555
Er0 Ga1 3.041297 1_554
Er0 Ga3 3.101133 1_565
Er0 Ga3 3.101133 1_465
Er0 Ga2 3.165715 1_555
Er0 Ga2 3.165715 1_455
Er0 Ga0 3.190732 1_565
Er1 Rh0 2.815939 1_554
Er1 Rh2 2.955360 1_455
Er1 Rh2 2.955360 1_555
Er1 Rh3 2.965754 1_555
Er1 Rh3 2.965754 1_455
Er1 Ga0 3.041297 1_555
Er1 Ga2 3.101133 1_455
Er1 Ga2 3.101133 1_555
Er1 Ga3 3.165715 1_455
Er1 Ga3 3.165715 1_555
Er1 Ga1 3.190732 1_554
Er2 Rh3 2.815939 1_555
Er2 Rh1 2.955360 1_545
Er2 Rh1 2.955360 1_645
Er2 Rh0 2.965754 1_555
Er2 Rh0 2.965754 1_655
Er2 Ga3 3.041297 1_556
Er2 Ga1 3.101133 1_545
Er2 Ga1 3.101133 1_645
Er2 Ga0 3.165715 1_655
Er2 Ga0 3.165715 1_555
Er2 Ga2 3.190732 1_545
Er3 Rh2 2.815939 1_556
Er3 Rh0 2.955360 1_655
Er3 Rh0 2.955360 1_555
Er3 Rh1 2.965754 1_555
Er3 Rh1 2.965754 1_655
Er3 Ga2 3.041297 1_555
Er3 Ga0 3.101133 1_555
Er3 Ga0 3.101133 1_655
Er3 Ga1 3.165715 1_655
Er3 Ga1 3.165715 1_555
Er3 Ga3 3.190732 1_556
Ga0 Rh0 2.577593 1_555
Ga0 Rh3 2.602840 1_555
Ga0 Rh3 2.602840 1_455
Ga0 Rh1 2.615038 1_555
Ga1 Rh1 2.577593 1_555
Ga1 Rh2 2.602840 1_456
Ga1 Rh2 2.602840 1_556
Ga1 Rh0 2.615038 1_565
Ga2 Rh2 2.577593 1_555
Ga2 Rh1 2.602840 1_655
Ga2 Rh1 2.602840 1_555
Ga2 Rh3 2.615038 1_555
Ga3 Rh3 2.577593 1_555
Ga3 Rh0 2.602840 1_654
Ga3 Rh0 2.602840 1_554
Ga3 Rh2 2.615038 1_545
