# generated using pymatgen
data_TiZn2O4
_symmetry_space_group_name_H-M   'P 1'
_cell_length_a   6.08499000
_cell_length_b   6.08499000
_cell_length_c   8.47019600
_cell_angle_alpha   90.00000000
_cell_angle_beta   90.00000000
_cell_angle_gamma   90.00000000
_symmetry_Int_Tables_number   1
_chemical_formula_structural   TiZn2O4
_chemical_formula_sum   'Ti4 Zn8 O16'
_cell_volume   313.62682226
_cell_formula_units_Z   4
loop_
 _symmetry_equiv_pos_site_id
 _symmetry_equiv_pos_as_xyz
  1  'x, y, z'
loop_
 _atom_site_type_symbol
 _atom_site_label
 _atom_site_symmetry_multiplicity
 _atom_site_fract_x
 _atom_site_fract_y
 _atom_site_fract_z
 _atom_site_occupancy
  Ti  Ti0  1  0.23858400  0.50000000  0.25000000  1
  Ti  Ti1  1  0.50000000  0.76141600  0.50000000  1
  Ti  Ti2  1  0.50000000  0.23858400  0.00000000  1
  Ti  Ti3  1  0.76141600  0.50000000  0.75000000  1
  Zn  Zn0  1  0.00000000  0.24321500  0.00000000  1
  Zn  Zn1  1  0.00000000  0.75678500  0.50000000  1
  Zn  Zn2  1  0.25382800  0.25382800  0.62500000  1
  Zn  Zn3  1  0.25382800  0.74617200  0.87500000  1
  Zn  Zn4  1  0.24321500  0.00000000  0.25000000  1
  Zn  Zn5  1  0.75678500  0.00000000  0.75000000  1
  Zn  Zn6  1  0.74617200  0.25382800  0.37500000  1
  Zn  Zn7  1  0.74617200  0.74617200  0.12500000  1
  O  O0  1  0.51579700  0.73370500  0.73309800  1
  O  O1  1  0.51579700  0.26629500  0.76690200  1
  O  O2  1  0.73429800  0.97437700  0.49857400  1
  O  O3  1  0.73429800  0.02562300  0.00142600  1
  O  O4  1  0.73370500  0.51579700  0.51690200  1
  O  O5  1  0.73370500  0.48420300  0.98309800  1
  O  O6  1  0.97437700  0.73429800  0.75142600  1
  O  O7  1  0.97437700  0.26570200  0.74857400  1
  O  O8  1  0.02562300  0.73429800  0.24857400  1
  O  O9  1  0.02562300  0.26570200  0.25142600  1
  O  O10  1  0.26629500  0.51579700  0.48309800  1
  O  O11  1  0.26629500  0.48420300  0.01690200  1
  O  O12  1  0.26570200  0.97437700  0.50142600  1
  O  O13  1  0.26570200  0.02562300  0.99857400  1
  O  O14  1  0.48420300  0.73370500  0.26690200  1
  O  O15  1  0.48420300  0.26629500  0.23309800  1
loop_
_geom_bond_atom_site_label_1
_geom_bond_atom_site_label_2
_geom_bond_distance
_geom_bond_site_symmetry_2
O0 Ti1 1.983903 1_555
O0 Zn3 1.997873 1_555
O0 Ti3 2.068004 1_555
O0 Zn5 2.190104 1_565
O1 Ti2 1.983903 1_556
O1 Zn2 1.997873 1_555
O1 Ti3 2.068004 1_555
O1 Zn5 2.190104 1_555
O2 Ti1 1.926665 1_555
O2 Zn6 1.998085 1_565
O2 Zn1 2.089800 1_655
O2 Zn5 2.139707 1_565
O3 Ti2 1.926665 1_555
O3 Zn7 1.998085 1_545
O3 Zn0 2.089800 1_655
O3 Zn5 2.139707 1_554
O4 Ti3 1.983903 1_555
O4 Zn6 1.997873 1_555
O4 Ti1 2.068004 1_555
O4 Zn1 2.190104 1_655
O5 Ti3 1.983903 1_555
O5 Zn7 1.997873 1_556
O5 Ti2 2.068004 1_556
O5 Zn0 2.190104 1_656
O6 Ti3 1.926665 1_555
O6 Zn3 1.998085 1_655
O6 Zn5 2.089800 1_565
O6 Zn1 2.139707 1_655
O7 Ti3 1.926665 1_555
O7 Zn2 1.998085 1_655
O7 Zn5 2.089800 1_555
O7 Zn0 2.139707 1_656
O8 Ti0 1.926665 1_555
O8 Zn7 1.998085 1_455
O8 Zn4 2.089800 1_565
O8 Zn1 2.139707 1_555
O9 Ti0 1.926665 1_555
O9 Zn6 1.998085 1_455
O9 Zn4 2.089800 1_555
O9 Zn0 2.139707 1_555
O10 Ti0 1.983903 1_555
O10 Zn2 1.997873 1_555
O10 Ti1 2.068004 1_555
O10 Zn1 2.190104 1_555
O11 Ti0 1.983903 1_555
O11 Zn3 1.997873 1_554
O11 Ti2 2.068004 1_555
O11 Zn0 2.190104 1_555
O12 Ti1 1.926665 1_555
O12 Zn2 1.998085 1_565
O12 Zn1 2.089800 1_555
O12 Zn4 2.139707 1_565
O13 Ti2 1.926665 1_556
O13 Zn3 1.998085 1_545
O13 Zn0 2.089800 1_556
O13 Zn4 2.139707 1_556
O14 Ti1 1.983903 1_555
O14 Zn7 1.997873 1_555
O14 Ti0 2.068004 1_555
O14 Zn4 2.190104 1_565
O15 Ti2 1.983903 1_555
O15 Zn6 1.997873 1_555
O15 Ti0 2.068004 1_555
O15 Zn4 2.190104 1_555
