# generated using pymatgen
data_Al2SiO5
_symmetry_space_group_name_H-M   'P 1'
_cell_length_a   5.70603200
_cell_length_b   15.39899365
_cell_length_c   11.17900573
_cell_angle_alpha   46.49845775
_cell_angle_beta   90.00000000
_cell_angle_gamma   90.00000000
_symmetry_Int_Tables_number   1
_chemical_formula_structural   Al2SiO5
_chemical_formula_sum   'Al16 Si8 O40'
_cell_volume   712.49338189
_cell_formula_units_Z   8
loop_
 _symmetry_equiv_pos_site_id
 _symmetry_equiv_pos_as_xyz
  1  'x, y, z'
loop_
 _atom_site_type_symbol
 _atom_site_label
 _atom_site_symmetry_multiplicity
 _atom_site_fract_x
 _atom_site_fract_y
 _atom_site_fract_z
 _atom_site_occupancy
  Al  Al0  1  0.00234200  0.00082200  0.00307600  1
  Al  Al1  1  0.00148300  0.49604100  0.99005900  1
  Al  Al2  1  0.99999600  0.50456000  0.48645600  1
  Al  Al3  1  0.25000000  0.43096500  0.30353100  1
  Al  Al4  1  0.25000000  0.26159700  0.80075700  1
  Al  Al5  1  0.25000000  0.75144700  0.82966500  1
  Al  Al6  1  0.50000400  0.50456000  0.48645600  1
  Al  Al7  1  0.50734700  0.99583200  0.50843700  1
  Al  Al8  1  0.49765800  0.00082200  0.00307600  1
  Al  Al9  1  0.49851700  0.49604100  0.99005900  1
  Al  Al10  1  0.75000000  0.23881200  0.18916100  1
  Al  Al11  1  0.75000000  0.06642100  0.69676300  1
  Al  Al12  1  0.75000000  0.75032000  0.32079300  1
  Al  Al13  1  0.75000000  0.57365000  0.67395300  1
  Al  Al14  1  0.75000000  0.05034800  0.20327300  1
  Al  Al15  1  0.99265300  0.99583200  0.50843700  1
  Si  Si0  1  0.25000000  0.94827300  0.80631300  1
  Si  Si1  1  0.25000000  0.45358000  0.78678500  1
  Si  Si2  1  0.25000000  0.24794100  0.29520600  1
  Si  Si3  1  0.25000000  0.75581200  0.29193500  1
  Si  Si4  1  0.25000000  0.93482600  0.30867400  1
  Si  Si5  1  0.75000000  0.54974300  0.18236600  1
  Si  Si6  1  0.75000000  0.24910300  0.70176600  1
  Si  Si7  1  0.75000000  0.74002200  0.82048500  1
  O  O0  1  0.01198900  0.00137500  0.82489900  1
  O  O1  1  0.01490600  0.50800000  0.80499300  1
  O  O2  1  0.01557500  0.17270200  0.32167500  1
  O  O3  1  0.01418600  0.68230600  0.32239000  1
  O  O4  1  0.25000000  0.11017500  0.90599200  1
  O  O5  1  0.25000000  0.00275300  0.61316500  1
  O  O6  1  0.25000000  0.60534400  0.90997000  1
  O  O7  1  0.25000000  0.31055100  0.90327600  1
  O  O8  1  0.25000000  0.50804700  0.59688500  1
  O  O9  1  0.25000000  0.80396400  0.92839200  1
  O  O10  1  0.25000000  0.27952400  0.40660500  1
  O  O11  1  0.25000000  0.38180900  0.09951100  1
  O  O12  1  0.25000000  0.88781400  0.10124600  1
  O  O13  1  0.25000000  0.79261300  0.40079800  1
  O  O14  1  0.25000000  0.48890200  0.39446300  1
  O  O15  1  0.25000000  0.96277100  0.42738500  1
  O  O16  1  0.48442500  0.17270200  0.32167500  1
  O  O17  1  0.48801100  0.00137500  0.82489900  1
  O  O18  1  0.48581400  0.68230600  0.32239000  1
  O  O19  1  0.48509400  0.50800000  0.80499300  1
  O  O20  1  0.51248700  0.49190500  0.17608600  1
  O  O21  1  0.51247300  0.32487500  0.66940900  1
  O  O22  1  0.48511600  0.99475800  0.18855200  1
  O  O23  1  0.51683200  0.81698600  0.71185400  1
  O  O24  1  0.75000000  0.20237300  0.07537300  1
  O  O25  1  0.75000000  0.01557900  0.59919800  1
  O  O26  1  0.75000000  0.39069000  0.08507900  1
  O  O27  1  0.75000000  0.21848400  0.58955000  1
  O  O28  1  0.75000000  0.51664400  0.35671900  1
  O  O29  1  0.75000000  0.51180400  0.58392400  1
  O  O30  1  0.75000000  0.11520700  0.89688400  1
  O  O31  1  0.75000000  0.69379300  0.00607000  1
  O  O32  1  0.75000000  0.89429400  0.11541500  1
  O  O33  1  0.75000000  0.72482500  0.49768000  1
  O  O34  1  0.75000000  0.61090100  0.87095700  1
  O  O35  1  0.75000000  0.98795600  0.40826700  1
  O  O36  1  0.98751300  0.49190500  0.17608600  1
  O  O37  1  0.98752700  0.32487500  0.66940900  1
  O  O38  1  0.01488400  0.99475800  0.18855200  1
  O  O39  1  0.98316800  0.81698600  0.71185400  1
loop_
_geom_bond_atom_site_label_1
_geom_bond_atom_site_label_2
_geom_bond_distance
_geom_bond_site_symmetry_2
Al0 O4 1.869322 1_554
Al0 O32 1.872192 1_445
Al0 O12 1.897472 1_545
Al0 O30 1.925167 1_454
Al0 O0 1.986752 1_554
Al0 O38 2.011572 1_545
Al1 O26 1.856566 1_456
Al1 O6 1.889646 1_555
Al1 O11 1.907628 1_556
Al1 O34 1.928235 1_455
Al1 O1 1.948180 1_555
Al1 O36 2.037838 1_456
Al2 O29 1.844413 1_555
Al2 O14 1.868715 1_655
Al2 O8 1.911306 1_655
Al2 O28 1.949715 1_555
Al2 O3 1.987659 1_655
Al2 O37 2.013208 1_555
Al3 O10 1.751178 1_555
Al3 O14 1.754395 1_555
Al3 O20 1.820173 1_555
Al3 O36 1.820173 1_455
Al4 O4 1.744829 1_555
Al4 O7 1.752476 1_555
Al4 O21 1.838134 1_555
Al4 O37 1.838134 1_455
Al5 O6 1.756989 1_555
Al5 O9 1.760940 1_555
Al5 O23 1.800361 1_555
Al5 O39 1.800361 1_455
Al6 O29 1.844413 1_555
Al6 O14 1.868715 1_555
Al6 O8 1.911306 1_555
Al6 O28 1.949715 1_555
Al6 O18 1.987659 1_555
Al6 O21 2.013208 1_555
Al7 O35 1.836497 1_555
Al7 O25 1.861118 1_565
Al7 O5 1.926161 1_565
Al7 O15 1.967623 1_555
Al7 O16 1.991337 1_565
Al7 O23 2.033868 1_555
Al8 O4 1.869322 1_554
Al8 O32 1.872192 1_545
Al8 O12 1.897472 1_545
Al8 O30 1.925167 1_554
Al8 O17 1.986752 1_554
Al8 O22 2.011572 1_545
Al9 O26 1.856566 1_556
Al9 O6 1.889646 1_555
Al9 O11 1.907628 1_556
Al9 O34 1.928235 1_555
Al9 O19 1.948180 1_555
Al9 O20 2.037838 1_556
Al10 O24 1.707518 1_555
Al10 O26 1.754193 1_555
Al10 O2 1.857681 1_655
Al10 O16 1.857681 1_555
Al11 O25 1.725734 1_555
Al11 O27 1.748085 1_555
Al11 O0 1.820602 1_655
Al11 O17 1.820602 1_555
Al12 O33 1.730755 1_555
Al12 O32 1.782887 1_555
Al12 O3 1.828641 1_655
Al12 O18 1.828641 1_555
Al13 O33 1.728235 1_555
Al13 O29 1.799866 1_555
Al13 O1 1.847670 1_655
Al13 O19 1.847670 1_555
Al14 O24 1.707776 1_555
Al14 O35 1.772967 1_545
Al14 O38 1.799516 1_645
Al14 O22 1.799516 1_545
Al15 O35 1.836497 1_555
Al15 O25 1.861118 1_565
Al15 O5 1.926161 1_665
Al15 O15 1.967623 1_655
Al15 O2 1.991337 1_665
Al15 O39 2.033868 1_555
O0 Si0 1.670381 1_545
O1 Si1 1.666744 1_555
O2 Si2 1.657469 1_555
O3 Si3 1.636194 1_555
O5 Si0 1.694722 1_545
O7 Si1 1.611853 1_555
O8 Si1 1.660960 1_555
O9 Si0 1.620318 1_555
O10 Si2 1.619019 1_555
O11 Si2 1.681263 1_555
O12 Si3 1.646340 1_555
O13 Si4 1.658741 1_555
O13 Si3 1.658818 1_555
O15 Si4 1.653033 1_555
O16 Si2 1.657469 1_555
O17 Si0 1.670381 1_545
O18 Si3 1.636194 1_555
O19 Si1 1.666744 1_555
O20 Si5 1.649541 1_555
O21 Si6 1.657758 1_555
O22 Si4 1.657888 1_555
O23 Si7 1.633403 1_555
O27 Si6 1.615646 1_555
O28 Si5 1.640439 1_555
O30 Si6 1.678467 1_555
O31 Si7 1.666626 1_554
O31 Si5 1.669098 1_555
O34 Si7 1.651450 1_555
O36 Si5 1.649541 1_555
O37 Si6 1.657758 1_555
O38 Si4 1.657888 1_555
O39 Si7 1.633403 1_555
