# generated using pymatgen
data_MgMnGaS4
_symmetry_space_group_name_H-M   'P 1'
_cell_length_a   7.34516218
_cell_length_b   7.28497154
_cell_length_c   7.28593162
_cell_angle_alpha   60.40929245
_cell_angle_beta   59.75005195
_cell_angle_gamma   59.70320933
_symmetry_Int_Tables_number   1
_chemical_formula_structural   MgMnGaS4
_chemical_formula_sum   'Mg2 Mn2 Ga2 S8'
_cell_volume   275.36349142
_cell_formula_units_Z   2
loop_
 _symmetry_equiv_pos_site_id
 _symmetry_equiv_pos_as_xyz
  1  'x, y, z'
loop_
 _atom_site_type_symbol
 _atom_site_label
 _atom_site_symmetry_multiplicity
 _atom_site_fract_x
 _atom_site_fract_y
 _atom_site_fract_z
 _atom_site_occupancy
  Mg  Mg0  1  0.87575755  0.87417572  0.87431581  1
  Mg  Mg1  1  0.12427775  0.12580113  0.12564490  1
  Mn  Mn0  1  0.49997063  0.49999406  0.00009082  1
  Mn  Mn1  1  0.50001641  0.00005003  0.49992892  1
  Ga  Ga0  1  0.49999508  0.50000865  0.50000040  1
  Ga  Ga1  1  0.99998387  0.50000093  0.50001453  1
  S  S0  1  0.73666962  0.73957199  0.73949669  1
  S  S1  1  0.26352791  0.25797206  0.71502400  1
  S  S2  1  0.26373526  0.71477874  0.25771537  1
  S  S3  1  0.71574663  0.26046620  0.26039999  1
  S  S4  1  0.73627395  0.28520571  0.74228532  1
  S  S5  1  0.28429230  0.73951368  0.73961684  1
  S  S6  1  0.26327213  0.26041295  0.26052517  1
  S  S7  1  0.73648491  0.74204316  0.28494224  1
loop_
_geom_bond_atom_site_label_1
_geom_bond_atom_site_label_2
_geom_bond_distance
_geom_bond_site_symmetry_2
Mg0 S0 2.437882 1_555
Mg0 S5 2.437944 1_655
Mg0 S7 2.447373 1_556
Mg0 S4 2.448286 1_565
Mg1 S6 2.437725 1_555
Mg1 S3 2.437914 1_455
Mg1 S1 2.447340 1_554
Mg1 S2 2.448241 1_545
Mn0 S2 2.421167 1_555
Mn0 S4 2.422152 1_554
Mn0 S3 2.474607 1_555
Mn0 S5 2.475016 1_554
Mn0 S6 2.477184 1_555
Mn0 S0 2.477246 1_554
Mn1 S7 2.423990 1_545
Mn1 S1 2.424064 1_555
Mn1 S6 2.474832 1_555
Mn1 S0 2.475250 1_545
Mn1 S3 2.476421 1_555
Mn1 S5 2.477045 1_545
Ga0 S5 2.456562 1_555
Ga0 S3 2.456651 1_555
Ga0 S2 2.488974 1_555
Ga0 S4 2.489059 1_555
Ga0 S1 2.490057 1_555
Ga0 S7 2.490150 1_555
Ga1 S0 2.456163 1_555
Ga1 S6 2.456266 1_655
Ga1 S1 2.488754 1_655
Ga1 S7 2.488818 1_555
Ga1 S4 2.490307 1_555
Ga1 S2 2.490448 1_655
