# generated using pymatgen
data_Mg4Si7
_symmetry_space_group_name_H-M   'P 1'
_cell_length_a   14.76948315
_cell_length_b   14.76948315
_cell_length_c   5.68810087
_cell_angle_alpha   89.57793053
_cell_angle_beta   89.57793053
_cell_angle_gamma   17.22673693
_symmetry_Int_Tables_number   1
_chemical_formula_structural   Mg4Si7
_chemical_formula_sum   'Mg8 Si14'
_cell_volume   367.45413141
_cell_formula_units_Z   2
loop_
 _symmetry_equiv_pos_site_id
 _symmetry_equiv_pos_as_xyz
  1  'x, y, z'
loop_
 _atom_site_type_symbol
 _atom_site_label
 _atom_site_symmetry_multiplicity
 _atom_site_fract_x
 _atom_site_fract_y
 _atom_site_fract_z
 _atom_site_occupancy
  Mg  Mg0  1  0.58498700  0.58498700  0.20105500  1
  Mg  Mg1  1  0.77188800  0.77188800  0.45071100  1
  Mg  Mg2  1  0.32750600  0.32750600  0.20409400  1
  Mg  Mg3  1  0.21642100  0.21642100  0.70075100  1
  Mg  Mg4  1  0.59099100  0.59099100  0.70336200  1
  Mg  Mg5  1  0.95535000  0.95535000  0.21499900  1
  Mg  Mg6  1  0.32188300  0.32188300  0.70979400  1
  Mg  Mg7  1  0.22112200  0.22112200  0.19527900  1
  Si  Si0  1  0.04379400  0.04379400  0.46331100  1
  Si  Si1  1  0.04193500  0.04193500  0.94371600  1
  Si  Si2  1  0.49941300  0.49941300  0.49287200  1
  Si  Si3  1  0.49972000  0.49972000  0.92745800  1
  Si  Si4  1  0.77089900  0.77089900  0.95195800  1
  Si  Si5  1  0.86772200  0.86772200  0.94366400  1
  Si  Si6  1  0.41102100  0.41102100  0.92811900  1
  Si  Si7  1  0.13180500  0.13180500  0.96130500  1
  Si  Si8  1  0.67385400  0.67385400  0.42400700  1
  Si  Si9  1  0.86964200  0.86964200  0.46475000  1
  Si  Si10  1  0.41149600  0.41149600  0.48516800  1
  Si  Si11  1  0.13168500  0.13168500  0.44041700  1
  Si  Si12  1  0.67620900  0.67620900  0.97716200  1
  Si  Si13  1  0.95321500  0.95321500  0.71974000  1
loop_
_geom_bond_atom_site_label_1
_geom_bond_atom_site_label_2
_geom_bond_distance
_geom_bond_site_symmetry_2
Mg0 Mg4 2.835049 1_554
Mg0 Mg4 2.863852 1_555
Mg0 Si8 2.897168 1_555
Mg0 Si0 2.922110 1_655
Mg0 Si0 2.922110 1_565
Mg0 Si7 2.931624 1_654
Mg0 Si7 2.931624 1_564
Mg0 Si11 2.938416 1_655
Mg0 Si11 2.938416 1_565
Mg0 Si1 2.940038 1_654
Mg0 Si1 2.940038 1_564
Mg0 Si12 2.944374 1_554
Mg0 Si3 2.946389 1_554
Mg0 Si2 2.989932 1_555
Mg1 Si4 2.837320 1_554
Mg1 Si4 2.851075 1_555
Mg1 Si9 2.856696 1_555
Mg1 Si8 2.868319 1_555
Mg1 Mg6 3.037869 1_565
Mg1 Mg6 3.037869 1_655
Mg1 Mg7 3.038778 1_655
Mg1 Mg7 3.038778 1_565
Mg1 Mg2 3.076559 1_655
Mg1 Mg2 3.076559 1_565
Mg1 Mg3 3.083105 1_655
Mg1 Mg3 3.083105 1_565
Mg2 Mg6 2.817641 1_554
Mg2 Mg6 2.879935 1_555
Mg2 Si6 2.890754 1_554
Mg2 Si5 2.905309 1_454
Mg2 Si5 2.905309 1_544
Mg2 Si10 2.937978 1_555
Mg2 Si9 2.938131 1_455
Mg2 Si9 2.938131 1_545
Mg2 Mg7 3.107809 1_555
Mg2 Si4 3.117408 1_544
Mg2 Si4 3.117408 1_454
Mg3 Mg7 2.817295 1_556
Mg3 Si7 2.872131 1_555
Mg3 Mg7 2.877430 1_555
Mg3 Si11 2.893432 1_555
Mg3 Si12 2.952378 1_455
Mg3 Si12 2.952378 1_545
Mg3 Si8 2.990895 1_455
Mg3 Si8 2.990895 1_545
Mg3 Mg6 3.080916 1_555
Mg3 Si4 3.082194 1_545
Mg3 Si4 3.082194 1_455
Mg4 Si8 2.885205 1_555
Mg4 Si7 2.914177 1_565
Mg4 Si7 2.914177 1_655
Mg4 Si11 2.918191 1_655
Mg4 Si11 2.918191 1_565
Mg4 Si2 2.938495 1_555
Mg4 Si12 2.945791 1_555
Mg4 Si3 2.946156 1_555
Mg4 Si0 2.947086 1_655
Mg4 Si0 2.947086 1_565
Mg4 Si1 2.964021 1_655
Mg4 Si1 2.964021 1_565
Mg5 Si13 2.818238 1_554
Mg5 Si9 2.868974 1_555
Mg5 Si13 2.871230 1_555
Mg5 Si1 2.952579 1_664
Mg5 Si0 2.953236 1_665
Mg5 Si10 2.977498 1_655
Mg5 Si10 2.977498 1_565
Mg5 Si5 2.998437 1_554
Mg5 Si2 3.012874 1_565
Mg5 Si2 3.012874 1_655
Mg5 Si3 3.035710 1_564
Mg5 Si3 3.035710 1_654
Mg5 Si6 3.043553 1_654
Mg5 Si6 3.043553 1_564
Mg6 Si6 2.892714 1_555
Mg6 Si10 2.903880 1_555
Mg6 Si5 2.912261 1_545
Mg6 Si5 2.912261 1_455
Mg6 Si9 2.958409 1_545
Mg6 Si9 2.958409 1_455
Mg6 Si4 2.996134 1_455
Mg6 Si4 2.996134 1_545
Mg7 Si12 2.859532 1_544
Mg7 Si12 2.859532 1_454
Mg7 Si8 2.909380 1_455
Mg7 Si8 2.909380 1_545
Mg7 Si7 2.937279 1_554
Mg7 Si11 2.951772 1_555
Mg7 Si4 2.981918 1_544
Mg7 Si4 2.981918 1_454
Si0 Si2 2.568640 1_455
Si0 Si2 2.568640 1_545
Si0 Si11 2.569260 1_555
Si0 Si1 2.732727 1_555
Si1 Si3 2.534393 1_455
Si1 Si3 2.534393 1_545
Si1 Si7 2.627377 1_555
Si2 Si3 2.472052 1_555
Si3 Si6 2.590501 1_555
Si4 Si5 2.827836 1_555
Si5 Si6 2.549141 1_655
Si5 Si6 2.549141 1_565
Si5 Si9 2.724270 1_555
Si5 Si9 2.964938 1_556
Si10 Si6 2.519485 1_555
Si10 Si9 2.530339 1_455
Si10 Si9 2.530339 1_545
Si10 Si2 2.568388 1_555
Si11 Si8 2.533098 1_455
Si11 Si8 2.533098 1_545
Si11 Si7 2.725214 1_554
Si12 Si8 2.542118 1_556
Si12 Si7 2.566030 1_655
Si12 Si7 2.566030 1_565
Si12 Si4 2.768145 1_555
Si13 Si6 2.791865 1_655
Si13 Si6 2.791865 1_565
Si13 Si5 2.794530 1_555
Si13 Si3 2.856126 1_655
Si13 Si3 2.856126 1_565
