# generated using pymatgen
data_LaCoO3
_symmetry_space_group_name_H-M   'P 1'
_cell_length_a   5.43777762
_cell_length_b   8.03293511
_cell_length_c   5.56924046
_cell_angle_alpha   89.94873461
_cell_angle_beta   90.01827884
_cell_angle_gamma   91.42050150
_symmetry_Int_Tables_number   1
_chemical_formula_structural   LaCoO3
_chemical_formula_sum   'La4 Co4 O12'
_cell_volume   243.19687583
_cell_formula_units_Z   4
loop_
 _symmetry_equiv_pos_site_id
 _symmetry_equiv_pos_as_xyz
  1  'x, y, z'
loop_
 _atom_site_type_symbol
 _atom_site_label
 _atom_site_symmetry_multiplicity
 _atom_site_fract_x
 _atom_site_fract_y
 _atom_site_fract_z
 _atom_site_occupancy
  La  La0  1  0.25113700  0.49937600  0.75092600  1
  La  La1  1  0.75074000  0.99976600  0.25164200  1
  La  La2  1  0.74926000  0.50023400  0.24835000  1
  La  La3  1  0.24886300  0.00062300  0.74908100  1
  Co  Co0  1  0.25000000  0.75000000  0.24999700  1
  Co  Co1  1  0.25000100  0.25000000  0.24999700  1
  Co  Co2  1  0.75000100  0.25000000  0.75000300  1
  Co  Co3  1  0.75000100  0.75000000  0.75000400  1
  O  O0  1  0.74495500  0.49993200  0.82529400  1
  O  O1  1  0.24705700  0.00024900  0.32532800  1
  O  O2  1  0.25294200  0.49975200  0.17467300  1
  O  O3  1  0.75504400  0.00006800  0.67470600  1
  O  O4  1  0.02731300  0.21671000  0.95608100  1
  O  O5  1  0.54003200  0.71453400  0.47707300  1
  O  O6  1  0.95996800  0.78546700  0.02292700  1
  O  O7  1  0.47268600  0.28329000  0.54391800  1
  O  O8  1  0.46047300  0.78855700  0.97817500  1
  O  O9  1  0.97320400  0.28688500  0.45654800  1
  O  O10  1  0.52679500  0.21311600  0.04345200  1
  O  O11  1  0.03952700  0.71144300  0.52182500  1
loop_
_geom_bond_atom_site_label_1
_geom_bond_atom_site_label_2
_geom_bond_distance
_geom_bond_site_symmetry_2
La0 O2 2.359971 1_556
La0 O7 2.429337 1_555
La0 O11 2.438523 1_555
La0 O0 2.716790 1_555
La0 O5 2.764662 1_555
La0 O0 2.783736 1_455
La0 O9 2.785875 1_455
La0 O4 2.793171 1_555
La0 O8 2.857791 1_555
La1 O3 2.356257 1_565
La1 O10 2.421470 1_565
La1 O6 2.445868 1_555
La1 O1 2.729662 1_665
La1 O8 2.749504 1_554
La1 O1 2.769717 1_565
La1 O4 2.806211 1_664
La1 O9 2.819696 1_565
La1 O5 2.829220 1_555
La2 O0 2.356212 1_554
La2 O9 2.421482 1_555
La2 O5 2.445897 1_555
La2 O2 2.729660 1_555
La2 O11 2.749529 1_655
La2 O2 2.769704 1_655
La2 O7 2.806237 1_555
La2 O10 2.819674 1_555
La2 O6 2.829206 1_555
La3 O1 2.360004 1_555
La3 O4 2.429324 1_555
La3 O8 2.438497 1_545
La3 O3 2.716801 1_455
La3 O6 2.764631 1_446
La3 O3 2.783736 1_555
La3 O10 2.785859 1_556
La3 O7 2.793193 1_555
La3 O11 2.857802 1_545
Co0 O8 1.918393 1_554
Co0 O11 1.918419 1_555
Co0 O6 2.046485 1_455
Co0 O5 2.046504 1_555
Co0 O2 2.054349 1_555
Co0 O1 2.054365 1_565
Co1 O10 1.923605 1_555
Co1 O9 1.923639 1_455
Co1 O1 2.048938 1_555
Co1 O2 2.048938 1_555
Co1 O4 2.049567 1_554
Co1 O7 2.049580 1_555
Co2 O4 1.918595 1_655
Co2 O7 1.918632 1_555
Co2 O0 2.052226 1_555
Co2 O3 2.052232 1_555
Co2 O10 2.052907 1_556
Co2 O9 2.052925 1_555
Co3 O6 1.917976 1_556
Co3 O5 1.918017 1_555
Co3 O0 2.051228 1_555
Co3 O3 2.051237 1_565
Co3 O8 2.053184 1_555
Co3 O11 2.053204 1_655
