# generated using pymatgen
data_SrHfMg6
_symmetry_space_group_name_H-M   'P 1'
_cell_length_a   6.58827846
_cell_length_b   6.58827846
_cell_length_c   4.71365400
_cell_angle_alpha   90.00000000
_cell_angle_beta   90.00000000
_cell_angle_gamma   93.00186121
_symmetry_Int_Tables_number   1
_chemical_formula_structural   SrHfMg6
_chemical_formula_sum   'Sr1 Hf1 Mg6'
_cell_volume   204.31735616
_cell_formula_units_Z   1
loop_
 _symmetry_equiv_pos_site_id
 _symmetry_equiv_pos_as_xyz
  1  'x, y, z'
loop_
 _atom_site_type_symbol
 _atom_site_label
 _atom_site_symmetry_multiplicity
 _atom_site_fract_x
 _atom_site_fract_y
 _atom_site_fract_z
 _atom_site_occupancy
  Sr  Sr0  1  0.50000000  0.50000000  0.00000000  1
  Hf  Hf0  1  0.00000000  0.00000000  0.00000000  1
  Mg  Mg0  1  0.50000000  0.00000000  0.00000000  1
  Mg  Mg1  1  0.00000000  0.50000000  0.00000000  1
  Mg  Mg2  1  0.77259700  0.77259700  0.50000000  1
  Mg  Mg3  1  0.22740300  0.22740300  0.50000000  1
  Mg  Mg4  1  0.76632400  0.23367600  0.50000000  1
  Mg  Mg5  1  0.23367600  0.76632400  0.50000000  1
loop_
_geom_bond_atom_site_label_1
_geom_bond_atom_site_label_2
_geom_bond_distance
_geom_bond_site_symmetry_2
Hf0 Mg3 3.131887 1_555
Hf0 Mg3 3.131887 1_554
Hf0 Mg2 3.131887 1_445
Hf0 Mg2 3.131887 1_444
Hf0 Mg5 3.247019 1_545
Hf0 Mg5 3.247019 1_544
Hf0 Mg4 3.247019 1_455
Hf0 Mg4 3.247019 1_454
Hf0 Mg1 3.294139 1_555
Hf0 Mg0 3.294139 1_455
Hf0 Mg0 3.294139 1_555
Hf0 Mg1 3.294139 1_545
Mg0 Mg4 3.274221 1_554
Mg0 Mg4 3.274221 1_555
Mg0 Mg5 3.274221 1_544
Mg0 Mg5 3.274221 1_545
Mg0 Sr0 3.294139 1_545
Mg0 Sr0 3.294139 1_555
Mg0 Mg2 3.362507 1_544
Mg0 Mg3 3.362507 1_555
Mg0 Mg2 3.362507 1_545
Mg0 Mg3 3.362507 1_554
Mg1 Mg5 3.274221 1_555
Mg1 Mg4 3.274221 1_455
Mg1 Mg5 3.274221 1_554
Mg1 Mg4 3.274221 1_454
Mg1 Sr0 3.294139 1_455
Mg1 Sr0 3.294139 1_555
Mg1 Mg2 3.362507 1_454
Mg1 Mg2 3.362507 1_455
Mg1 Mg3 3.362507 1_555
Mg1 Mg3 3.362507 1_554
Mg2 Mg5 3.040161 1_655
Mg2 Mg4 3.040161 1_565
Mg2 Sr0 3.415794 1_555
Mg2 Sr0 3.415794 1_556
Mg2 Mg4 3.548637 1_555
Mg2 Mg5 3.548637 1_555
Mg3 Mg5 3.040161 1_545
Mg3 Mg4 3.040161 1_455
Mg3 Sr0 3.415794 1_555
Mg3 Sr0 3.415794 1_556
Mg3 Mg4 3.548637 1_555
Mg3 Mg5 3.548637 1_555
Mg4 Sr0 3.469070 1_555
Mg4 Sr0 3.469070 1_556
Mg5 Sr0 3.469070 1_555
Mg5 Sr0 3.469070 1_556
