# generated using pymatgen
data_TbAgSn
_symmetry_space_group_name_H-M   'P 1'
_cell_length_a   6.57592600
_cell_length_b   10.26259948
_cell_length_c   10.26259948
_cell_angle_alpha   60.00861630
_cell_angle_beta   90.00000000
_cell_angle_gamma   90.00000000
_symmetry_Int_Tables_number   1
_chemical_formula_structural   TbAgSn
_chemical_formula_sum   'Tb8 Ag8 Sn8'
_cell_volume   599.84633413
_cell_formula_units_Z   8
loop_
 _symmetry_equiv_pos_site_id
 _symmetry_equiv_pos_as_xyz
  1  'x, y, z'
loop_
 _atom_site_type_symbol
 _atom_site_label
 _atom_site_symmetry_multiplicity
 _atom_site_fract_x
 _atom_site_fract_y
 _atom_site_fract_z
 _atom_site_occupancy
  Tb  Tb0_0  1  0.00000000  0.33332900  0.33332900  1
  Tb  Tb0_1  1  0.00000000  0.33332900  0.83332900  1
  Tb  Tb0_2  1  0.00000000  0.83332900  0.33332900  1
  Tb  Tb0_3  1  0.00000000  0.83332900  0.83332900  1
  Tb  Tb0_4  1  0.50000000  0.33332900  0.33332900  1
  Tb  Tb0_5  1  0.50000000  0.33332900  0.83332900  1
  Tb  Tb0_6  1  0.50000000  0.83332900  0.33332900  1
  Tb  Tb0_7  1  0.50000000  0.83332900  0.83332900  1
  Ag  Ag0_0  1  0.00000000  0.16666750  0.16666750  1
  Ag  Ag0_1  1  0.00000000  0.16666750  0.66666750  1
  Ag  Ag0_2  1  0.00000000  0.66666750  0.16666750  1
  Ag  Ag0_3  1  0.00000000  0.66666750  0.66666750  1
  Ag  Ag0_4  1  0.50000000  0.16666750  0.16666750  1
  Ag  Ag0_5  1  0.50000000  0.16666750  0.66666750  1
  Ag  Ag0_6  1  0.50000000  0.66666750  0.16666750  1
  Ag  Ag0_7  1  0.50000000  0.66666750  0.66666750  1
  Sn  Sn0_0  1  0.25000000  0.00000350  0.00000350  1
  Sn  Sn0_1  1  0.25000000  0.00000350  0.50000350  1
  Sn  Sn0_2  1  0.25000000  0.50000350  0.00000350  1
  Sn  Sn0_3  1  0.25000000  0.50000350  0.50000350  1
  Sn  Sn0_4  1  0.75000000  0.00000350  0.00000350  1
  Sn  Sn0_5  1  0.75000000  0.00000350  0.50000350  1
  Sn  Sn0_6  1  0.75000000  0.50000350  0.00000350  1
  Sn  Sn0_7  1  0.75000000  0.50000350  0.50000350  1
loop_
_geom_bond_atom_site_label_1
_geom_bond_atom_site_label_2
_geom_bond_distance
_geom_bond_site_symmetry_2
Tb0_0 Tb0_4 3.287963 1_555
Tb0_0 Tb0_4 3.287963 1_455
Tb0_1 Tb0_5 3.287963 1_555
Tb0_1 Tb0_5 3.287963 1_455
Tb0_2 Tb0_6 3.287963 1_555
Tb0_2 Tb0_6 3.287963 1_455
Tb0_3 Tb0_7 3.287963 1_555
Tb0_3 Tb0_7 3.287963 1_455
Ag0_0 Tb0_0 2.962337 1_555
Ag0_0 Tb0_1 2.962860 1_554
Ag0_0 Tb0_2 2.962860 1_545
Ag0_0 Ag0_4 3.287963 1_555
Ag0_0 Ag0_4 3.287963 1_455
Ag0_0 Sn0_4 3.387975 1_455
Ag0_0 Sn0_0 3.387975 1_555
Ag0_0 Sn0_6 3.388375 1_455
Ag0_0 Sn0_1 3.388375 1_555
Ag0_0 Sn0_5 3.388375 1_455
Ag0_0 Sn0_2 3.388375 1_555
Ag0_1 Tb0_1 2.962337 1_555
Ag0_1 Tb0_0 2.962860 1_555
Ag0_1 Tb0_3 2.962860 1_545
Ag0_1 Ag0_5 3.287963 1_555
Ag0_1 Ag0_5 3.287963 1_455
Ag0_1 Sn0_1 3.387975 1_555
Ag0_1 Sn0_5 3.387975 1_455
Ag0_1 Sn0_3 3.388375 1_555
Ag0_1 Sn0_7 3.388375 1_455
Ag0_1 Sn0_4 3.388375 1_456
Ag0_1 Sn0_0 3.388375 1_556
Ag0_2 Tb0_2 2.962337 1_555
Ag0_2 Tb0_0 2.962860 1_555
Ag0_2 Tb0_3 2.962860 1_554
Ag0_2 Ag0_6 3.287963 1_555
Ag0_2 Ag0_6 3.287963 1_455
Ag0_2 Sn0_6 3.387975 1_455
Ag0_2 Sn0_2 3.387975 1_555
Ag0_2 Sn0_3 3.388375 1_555
Ag0_2 Sn0_7 3.388375 1_455
Ag0_2 Sn0_4 3.388375 1_465
Ag0_2 Sn0_0 3.388375 1_565
Ag0_3 Tb0_3 2.962337 1_555
Ag0_3 Tb0_2 2.962860 1_555
Ag0_3 Tb0_1 2.962860 1_555
Ag0_3 Ag0_7 3.287963 1_555
Ag0_3 Ag0_7 3.287963 1_455
Ag0_3 Sn0_3 3.387975 1_555
Ag0_3 Sn0_7 3.387975 1_455
Ag0_3 Sn0_1 3.388375 1_565
Ag0_3 Sn0_6 3.388375 1_456
Ag0_3 Sn0_5 3.388375 1_465
Ag0_3 Sn0_2 3.388375 1_556
Ag0_4 Tb0_4 2.962337 1_555
Ag0_4 Tb0_5 2.962860 1_554
Ag0_4 Tb0_6 2.962860 1_545
Ag0_4 Sn0_4 3.387975 1_555
Ag0_4 Sn0_0 3.387975 1_555
Ag0_4 Sn0_6 3.388375 1_555
Ag0_4 Sn0_1 3.388375 1_555
Ag0_4 Sn0_5 3.388375 1_555
Ag0_4 Sn0_2 3.388375 1_555
Ag0_5 Tb0_5 2.962337 1_555
Ag0_5 Tb0_4 2.962860 1_555
Ag0_5 Tb0_7 2.962860 1_545
Ag0_5 Sn0_1 3.387975 1_555
Ag0_5 Sn0_5 3.387975 1_555
Ag0_5 Sn0_3 3.388375 1_555
Ag0_5 Sn0_7 3.388375 1_555
Ag0_5 Sn0_0 3.388375 1_556
Ag0_5 Sn0_4 3.388375 1_556
Ag0_6 Tb0_6 2.962337 1_555
Ag0_6 Tb0_4 2.962860 1_555
Ag0_6 Tb0_7 2.962860 1_554
Ag0_6 Sn0_6 3.387975 1_555
Ag0_6 Sn0_2 3.387975 1_555
Ag0_6 Sn0_3 3.388375 1_555
Ag0_6 Sn0_7 3.388375 1_555
Ag0_6 Sn0_0 3.388375 1_565
Ag0_6 Sn0_4 3.388375 1_565
Ag0_7 Tb0_7 2.962337 1_555
Ag0_7 Tb0_6 2.962860 1_555
Ag0_7 Tb0_5 2.962860 1_555
Ag0_7 Sn0_7 3.387975 1_555
Ag0_7 Sn0_3 3.387975 1_555
Ag0_7 Sn0_1 3.388375 1_565
Ag0_7 Sn0_2 3.388375 1_556
Ag0_7 Sn0_5 3.388375 1_565
Ag0_7 Sn0_6 3.388375 1_556
Sn0_0 Sn0_4 3.287963 1_555
Sn0_0 Sn0_4 3.287963 1_455
Sn0_0 Tb0_7 3.388139 1_544
Sn0_0 Tb0_3 3.388139 1_544
Sn0_0 Tb0_1 3.388293 1_554
Sn0_0 Tb0_2 3.388293 1_545
Sn0_0 Tb0_5 3.388293 1_554
Sn0_0 Tb0_6 3.388293 1_545
Sn0_1 Sn0_5 3.287963 1_555
Sn0_1 Sn0_5 3.287963 1_455
Sn0_1 Tb0_2 3.388139 1_545
Sn0_1 Tb0_6 3.388139 1_545
Sn0_1 Tb0_4 3.388293 1_555
Sn0_1 Tb0_0 3.388293 1_555
Sn0_1 Tb0_7 3.388293 1_545
Sn0_1 Tb0_3 3.388293 1_545
Sn0_2 Sn0_6 3.287963 1_455
Sn0_2 Sn0_6 3.287963 1_555
Sn0_2 Tb0_1 3.388139 1_554
Sn0_2 Tb0_5 3.388139 1_554
Sn0_2 Tb0_3 3.388293 1_554
Sn0_2 Tb0_0 3.388293 1_555
Sn0_2 Tb0_7 3.388293 1_554
Sn0_2 Tb0_4 3.388293 1_555
Sn0_3 Sn0_7 3.287963 1_555
Sn0_3 Sn0_7 3.287963 1_455
Sn0_3 Tb0_0 3.388139 1_555
Sn0_3 Tb0_4 3.388139 1_555
Sn0_3 Tb0_1 3.388293 1_555
Sn0_3 Tb0_5 3.388293 1_555
Sn0_3 Tb0_2 3.388293 1_555
Sn0_3 Tb0_6 3.388293 1_555
Sn0_4 Tb0_3 3.388139 1_644
Sn0_4 Tb0_7 3.388139 1_544
Sn0_4 Tb0_5 3.388293 1_554
Sn0_4 Tb0_6 3.388293 1_545
Sn0_4 Tb0_2 3.388293 1_645
Sn0_4 Tb0_1 3.388293 1_654
Sn0_5 Tb0_2 3.388139 1_645
Sn0_5 Tb0_6 3.388139 1_545
Sn0_5 Tb0_0 3.388293 1_655
Sn0_5 Tb0_4 3.388293 1_555
Sn0_5 Tb0_7 3.388293 1_545
Sn0_5 Tb0_3 3.388293 1_645
Sn0_6 Tb0_5 3.388139 1_554
Sn0_6 Tb0_1 3.388139 1_654
Sn0_6 Tb0_3 3.388293 1_654
Sn0_6 Tb0_0 3.388293 1_655
Sn0_6 Tb0_7 3.388293 1_554
Sn0_6 Tb0_4 3.388293 1_555
Sn0_7 Tb0_0 3.388139 1_655
Sn0_7 Tb0_4 3.388139 1_555
Sn0_7 Tb0_1 3.388293 1_655
Sn0_7 Tb0_2 3.388293 1_655
Sn0_7 Tb0_6 3.388293 1_555
Sn0_7 Tb0_5 3.388293 1_555
