# generated using pymatgen
data_Mn2GaCo4Ge
_symmetry_space_group_name_H-M   'P 1'
_cell_length_a   7.01678917
_cell_length_b   7.01678917
_cell_length_c   7.01678942
_cell_angle_alpha   33.55193582
_cell_angle_beta   33.55193582
_cell_angle_gamma   33.55194429
_symmetry_Int_Tables_number   1
_chemical_formula_structural   Mn2GaCo4Ge
_chemical_formula_sum   'Mn2 Ga1 Co4 Ge1'
_cell_volume   93.99869285
_cell_formula_units_Z   1
loop_
 _symmetry_equiv_pos_site_id
 _symmetry_equiv_pos_as_xyz
  1  'x, y, z'
loop_
 _atom_site_type_symbol
 _atom_site_label
 _atom_site_symmetry_multiplicity
 _atom_site_fract_x
 _atom_site_fract_y
 _atom_site_fract_z
 _atom_site_occupancy
  Mn  Mn0  1  0.25104500  0.25104500  0.25104500  1
  Mn  Mn1  1  0.74895500  0.74895500  0.74895500  1
  Ga  Ga0  1  0.00000000  0.00000000  0.00000000  1
  Co  Co0  1  0.37589900  0.37589900  0.37589900  1
  Co  Co1  1  0.87416400  0.87416400  0.87416400  1
  Co  Co2  1  0.62410100  0.62410100  0.62410100  1
  Co  Co3  1  0.12583600  0.12583600  0.12583600  1
  Ge  Ge0  1  0.50000000  0.50000000  0.50000000  1
loop_
_geom_bond_atom_site_label_1
_geom_bond_atom_site_label_2
_geom_bond_distance
_geom_bond_site_symmetry_2
Ga0 Mn0 2.852388 1_554
Ga0 Mn1 2.852388 1_445
Ga0 Mn0 2.852389 1_545
Ga0 Mn0 2.852389 1_455
Ga0 Mn1 2.852389 1_454
Ga0 Mn1 2.852389 1_544
Co0 Ge0 2.463016 1_555
Co0 Mn1 2.467877 1_554
Co0 Mn1 2.467878 1_545
Co0 Mn1 2.467878 1_455
Co0 Mn0 2.477960 1_555
Co0 Ga0 2.486477 1_556
Co0 Ga0 2.486478 1_655
Co0 Ga0 2.486478 1_565
Co1 Ge0 2.474990 1_556
Co1 Ge0 2.474990 1_565
Co1 Ge0 2.474990 1_655
Co1 Mn1 2.485006 1_555
Co1 Mn0 2.493166 1_665
Co1 Mn0 2.493167 1_566
Co1 Mn0 2.493167 1_656
Co1 Ga0 2.497450 1_666
Co2 Ge0 2.463016 1_555
Co2 Mn0 2.467877 1_556
Co2 Mn0 2.467878 1_655
Co2 Mn0 2.467878 1_565
Co2 Mn1 2.477960 1_555
Co2 Ga0 2.486477 1_665
Co2 Ga0 2.486478 1_566
Co2 Ga0 2.486478 1_656
Co3 Ge0 2.474990 1_554
Co3 Ge0 2.474990 1_545
Co3 Ge0 2.474990 1_455
Co3 Mn0 2.485006 1_555
Co3 Mn1 2.493166 1_445
Co3 Mn1 2.493167 1_544
Co3 Mn1 2.493167 1_454
Co3 Ga0 2.497450 1_555
Ge0 Mn1 2.876339 1_554
Ge0 Mn0 2.876339 1_556
Ge0 Mn1 2.876339 1_545
Ge0 Mn1 2.876339 1_455
Ge0 Mn0 2.876339 1_655
Ge0 Mn0 2.876339 1_565
