# generated using pymatgen
data_Li9Mn2Co5O16
_symmetry_space_group_name_H-M   'P 1'
_cell_length_a   4.97902300
_cell_length_b   6.54495004
_cell_length_c   8.89164583
_cell_angle_alpha   98.03360167
_cell_angle_beta   96.22367152
_cell_angle_gamma   97.30802694
_symmetry_Int_Tables_number   1
_chemical_formula_structural   Li9Mn2Co5O16
_chemical_formula_sum   'Li9 Mn2 Co5 O16'
_cell_volume   282.22319721
_cell_formula_units_Z   1
loop_
 _symmetry_equiv_pos_site_id
 _symmetry_equiv_pos_as_xyz
  1  'x, y, z'
loop_
 _atom_site_type_symbol
 _atom_site_label
 _atom_site_symmetry_multiplicity
 _atom_site_fract_x
 _atom_site_fract_y
 _atom_site_fract_z
 _atom_site_occupancy
  Li  Li0  1  0.74435300  0.30756100  0.18484300  1
  Li  Li1  1  0.74017200  0.80784200  0.68856200  1
  Li  Li2  1  0.26459500  0.18427800  0.30068100  1
  Li  Li3  1  0.26091200  0.69292200  0.82385000  1
  Li  Li4  1  0.74573800  0.05245300  0.42293800  1
  Li  Li5  1  0.74267300  0.57193900  0.94625800  1
  Li  Li6  1  0.26882900  0.44896200  0.06963100  1
  Li  Li7  1  0.24720800  0.93094300  0.55579600  1
  Li  Li8  1  0.50501400  0.87554500  0.12145900  1
  Mn  Mn0  1  0.00146700  0.99755100  0.00243100  1
  Mn  Mn1  1  0.99377400  0.24900300  0.75450500  1
  Co  Co0  1  0.99962800  0.50282800  0.49458600  1
  Co  Co1  1  0.49173400  0.37653000  0.62652400  1
  Co  Co2  1  0.99901300  0.75183500  0.24149100  1
  Co  Co3  1  0.50604300  0.62796200  0.37048300  1
  Co  Co4  1  0.49644800  0.12417100  0.87683700  1
  O  O0  1  0.86423300  0.26140000  0.95486300  1
  O  O1  1  0.86353600  0.77144000  0.46074500  1
  O  O2  1  0.36270200  0.14796800  0.07226000  1
  O  O3  1  0.35707200  0.63911600  0.59720600  1
  O  O4  1  0.89858000  0.03314700  0.20209500  1
  O  O5  1  0.86665800  0.50675700  0.71867200  1
  O  O6  1  0.35591800  0.38535300  0.83950100  1
  O  O7  1  0.36803100  0.88280300  0.34504100  1
  O  O8  1  0.63171400  0.35778700  0.41636600  1
  O  O9  1  0.63927800  0.87024200  0.90629500  1
  O  O10  1  0.11596500  0.22387200  0.55287500  1
  O  O11  1  0.11463800  0.73815800  0.02826000  1
  O  O12  1  0.62848500  0.11044100  0.67478700  1
  O  O13  1  0.65132300  0.59683900  0.16368200  1
  O  O14  1  0.14736000  0.48228200  0.29220300  1
  O  O15  1  0.12690400  0.99007100  0.79427200  1
loop_
_geom_bond_atom_site_label_1
_geom_bond_atom_site_label_2
_geom_bond_distance
_geom_bond_site_symmetry_2
Li0 O13 2.034297 1_555
Li0 O4 2.059429 1_555
Li0 O2 2.120004 1_555
Li0 O0 2.183348 1_554
Li0 O8 2.183711 1_555
Li0 O14 2.222864 1_655
Li1 O9 2.051666 1_555
Li1 O3 2.096468 1_555
Li1 O12 2.140052 1_565
Li1 O1 2.170135 1_555
Li1 O15 2.173402 1_655
Li1 O5 2.185895 1_555
Li2 O4 2.005151 1_455
Li2 O8 2.103954 1_555
Li2 O14 2.114650 1_555
Li2 O2 2.128365 1_555
Li2 O7 2.178555 1_545
Li2 O10 2.426812 1_555
Li3 O11 2.028052 1_556
Li3 O9 2.083235 1_555
Li3 O3 2.113804 1_555
Li3 O6 2.145152 1_555
Li3 O15 2.175259 1_555
Li3 O5 2.210780 1_455
Li4 O7 2.054434 1_545
Li4 O1 2.060153 1_545
Li4 O8 2.152533 1_555
Li4 O10 2.154380 1_655
Li4 O4 2.174893 1_555
Li4 O12 2.366821 1_555
Li5 O13 2.022959 1_556
Li5 O11 2.029300 1_656
Li5 O9 2.147794 1_555
Li5 O5 2.180518 1_555
Li5 O6 2.186768 1_555
Li5 O0 2.202151 1_555
Li6 O13 2.054877 1_555
Li6 O2 2.084375 1_555
Li6 O14 2.121872 1_555
Li6 O6 2.132749 1_554
Li6 O11 2.193255 1_555
Li6 O0 2.276292 1_454
Li7 O7 2.024972 1_555
Li7 O1 2.085516 1_455
Li7 O10 2.105310 1_565
Li7 O3 2.121691 1_555
Li7 O12 2.180174 1_565
Li7 O15 2.260496 1_555
Li8 O11 2.066654 1_555
Li8 O2 2.084404 1_565
Li8 O9 2.091157 1_554
Li8 O4 2.095808 1_565
Li8 O13 2.114050 1_555
Li8 O7 2.166902 1_555
Mn0 O11 1.891239 1_555
Mn0 O4 1.892218 1_465
Mn0 O2 1.930335 1_565
Mn0 O9 1.939445 1_454
Mn0 O15 2.012783 1_554
Mn0 O0 2.017317 1_464
Mn1 O6 1.930144 1_655
Mn1 O5 1.930328 1_555
Mn1 O12 1.937528 1_555
Mn1 O10 1.947033 1_655
Mn1 O0 1.954080 1_555
Mn1 O15 1.959302 1_645
Co0 O3 1.952482 1_655
Co0 O8 1.958920 1_555
Co0 O14 2.010453 1_655
Co0 O1 2.011755 1_555
Co0 O10 2.099039 1_655
Co0 O5 2.164496 1_555
Co1 O3 1.962554 1_555
Co1 O5 1.987702 1_555
Co1 O10 2.000878 1_555
Co1 O12 2.031732 1_555
Co1 O8 2.057358 1_555
Co1 O6 2.074563 1_555
Co2 O13 1.897898 1_555
Co2 O7 1.992557 1_655
Co2 O11 2.033838 1_655
Co2 O4 2.034503 1_565
Co2 O14 2.083981 1_655
Co2 O1 2.123526 1_555
Co3 O7 1.915379 1_555
Co3 O14 1.922176 1_555
Co3 O1 1.936131 1_555
Co3 O8 2.027947 1_555
Co3 O13 2.041350 1_555
Co3 O3 2.217286 1_555
Co4 O2 1.920601 1_556
Co4 O9 1.928317 1_545
Co4 O0 1.942496 1_555
Co4 O15 1.952164 1_545
Co4 O12 1.973290 1_555
Co4 O6 1.983549 1_555
