# generated using pymatgen
data_La2MgAl3
_symmetry_space_group_name_H-M   'P 1'
_cell_length_a   5.79625152
_cell_length_b   5.79625152
_cell_length_c   5.79625169
_cell_angle_alpha   60.96070114
_cell_angle_beta   60.96070114
_cell_angle_gamma   60.96069382
_symmetry_Int_Tables_number   1
_chemical_formula_structural   La2MgAl3
_chemical_formula_sum   'La2 Mg1 Al3'
_cell_volume   140.67821600
_cell_formula_units_Z   1
loop_
 _symmetry_equiv_pos_site_id
 _symmetry_equiv_pos_as_xyz
  1  'x, y, z'
loop_
 _atom_site_type_symbol
 _atom_site_label
 _atom_site_symmetry_multiplicity
 _atom_site_fract_x
 _atom_site_fract_y
 _atom_site_fract_z
 _atom_site_occupancy
  La  La0  1  0.61887818  0.61887818  0.61887818  1
  La  La1  1  0.38112182  0.38112182  0.38112182  1
  Mg  Mg0  1  0.00000000  0.00000000  -0.00000000  1
  Al  Al0  1  0.00000000  0.50000000  -0.00000000  1
  Al  Al1  1  0.50000000  0.00000000  -0.00000000  1
  Al  Al2  1  0.00000000  0.00000000  0.50000000  1
loop_
_geom_bond_atom_site_label_1
_geom_bond_atom_site_label_2
_geom_bond_distance
_geom_bond_site_symmetry_2
La0 La1 3.350915 1_555
La0 Mg0 3.461109 1_656
La0 Mg0 3.461109 1_566
La0 Mg0 3.461109 1_665
La0 La1 3.652422 1_565
La0 La1 3.652422 1_655
La0 La1 3.652423 1_556
La1 Mg0 3.461109 1_565
La1 Mg0 3.461109 1_655
La1 Mg0 3.461109 1_556
Al0 Mg0 2.898126 1_555
Al0 Mg0 2.898126 1_565
Al0 Al1 2.940107 1_555
Al0 Al1 2.940107 1_465
Al0 Al2 2.940107 1_555
Al0 Al2 2.940107 1_564
Al0 La0 3.383990 1_455
Al0 La1 3.383990 1_554
Al0 La0 3.383990 1_554
Al0 La1 3.383990 1_455
Al0 La0 3.466551 1_454
Al0 La1 3.466551 1_555
Al1 Mg0 2.898126 1_655
Al1 Mg0 2.898126 1_555
Al1 Al2 2.940107 1_555
Al1 Al2 2.940107 1_654
Al1 La1 3.383990 1_554
Al1 La0 3.383990 1_545
Al1 La0 3.383990 1_554
Al1 La1 3.383990 1_545
Al1 La0 3.466551 1_544
Al1 La1 3.466551 1_555
Al2 Mg0 2.898126 1_556
Al2 Mg0 2.898126 1_555
Al2 La1 3.383989 1_545
Al2 La0 3.383989 1_455
Al2 La0 3.383989 1_545
Al2 La1 3.383989 1_455
Al2 La0 3.466551 1_445
Al2 La1 3.466551 1_555
