# generated using pymatgen
data_RbMg14Ti
_symmetry_space_group_name_H-M   'P 1'
_cell_length_a   6.57539073
_cell_length_b   6.57539017
_cell_length_c   10.46512062
_cell_angle_alpha   90.00000000
_cell_angle_beta   90.00000000
_cell_angle_gamma   120.00000288
_symmetry_Int_Tables_number   1
_chemical_formula_structural   RbMg14Ti
_chemical_formula_sum   'Rb1 Mg14 Ti1'
_cell_volume   391.84828506
_cell_formula_units_Z   1
loop_
 _symmetry_equiv_pos_site_id
 _symmetry_equiv_pos_as_xyz
  1  'x, y, z'
loop_
 _atom_site_type_symbol
 _atom_site_label
 _atom_site_symmetry_multiplicity
 _atom_site_fract_x
 _atom_site_fract_y
 _atom_site_fract_z
 _atom_site_occupancy
  Rb  Rb0  1  0.16666700  0.33333300  0.62500000  1
  Mg  Mg0  1  0.16267814  0.83133857  0.12500000  1
  Mg  Mg1  1  0.17761044  0.83880472  0.62500000  1
  Mg  Mg2  1  0.66866143  0.33732186  0.12500000  1
  Mg  Mg3  1  0.66119528  0.32238956  0.62500000  1
  Mg  Mg4  1  0.66866143  0.83133857  0.12500000  1
  Mg  Mg5  1  0.66119528  0.83880472  0.62500000  1
  Mg  Mg6  1  0.33536992  0.16463008  0.35607247  1
  Mg  Mg7  1  0.33536992  0.16463008  0.89392753  1
  Mg  Mg8  1  0.33536992  0.67074084  0.35607247  1
  Mg  Mg9  1  0.33536992  0.67074084  0.89392753  1
  Mg  Mg10  1  0.82925916  0.16463008  0.35607247  1
  Mg  Mg11  1  0.82925916  0.16463008  0.89392753  1
  Mg  Mg12  1  0.83333300  0.66666700  0.37971644  1
  Mg  Mg13  1  0.83333300  0.66666700  0.87028356  1
  Ti  Ti0  1  0.16666700  0.33333300  0.12500000  1
loop_
_geom_bond_atom_site_label_1
_geom_bond_atom_site_label_2
_geom_bond_distance
_geom_bond_site_symmetry_2
Mg0 Mg9 3.074298 1_554
Mg0 Mg8 3.074298 1_555
Mg0 Mg7 3.074305 1_564
Mg0 Mg6 3.074305 1_565
Mg0 Mg2 3.248353 1_455
Mg0 Mg4 3.248353 1_455
Mg0 Mg12 3.259280 1_455
Mg0 Mg13 3.259280 1_454
Mg0 Ti0 3.287774 1_565
Mg0 Ti0 3.287774 1_555
Mg0 Mg2 3.327038 1_565
Mg0 Mg4 3.327038 1_555
Mg1 Mg3 3.179759 1_565
Mg1 Mg5 3.179759 1_555
Mg1 Mg13 3.229944 1_455
Mg1 Mg12 3.229944 1_455
Mg1 Rb0 3.288286 1_555
Mg1 Rb0 3.288286 1_565
Mg1 Mg8 3.371086 1_555
Mg1 Mg9 3.371086 1_555
Mg1 Mg6 3.371093 1_565
Mg1 Mg7 3.371093 1_565
Mg1 Mg3 3.395631 1_455
Mg1 Mg5 3.395631 1_455
Mg2 Mg6 3.074305 1_555
Mg2 Mg7 3.074305 1_554
Mg2 Mg4 3.248353 1_555
Mg2 Ti0 3.287774 1_555
Mg2 Ti0 3.287774 1_655
Mg2 Mg4 3.327038 1_545
Mg3 Mg5 3.179759 1_545
Mg3 Rb0 3.288286 1_655
Mg3 Rb0 3.288286 1_555
Mg3 Mg6 3.371093 1_555
Mg3 Mg7 3.371093 1_555
Mg3 Mg5 3.395631 1_555
Mg4 Mg9 3.074306 1_554
Mg4 Mg8 3.074306 1_555
Mg4 Ti0 3.287774 1_665
Mg4 Ti0 3.287774 1_555
Mg5 Rb0 3.288286 1_555
Mg5 Rb0 3.288286 1_665
Mg5 Mg8 3.371093 1_555
Mg5 Mg9 3.371093 1_555
Mg6 Ti0 3.088568 1_555
Mg6 Mg8 3.247514 1_545
Mg6 Mg8 3.327876 1_555
Mg6 Rb0 3.407664 1_555
Mg7 Ti0 3.088568 1_556
Mg7 Mg9 3.247514 1_545
Mg7 Mg9 3.327876 1_555
Mg7 Rb0 3.407664 1_555
Mg8 Ti0 3.088575 1_555
Mg8 Rb0 3.407670 1_555
Mg9 Ti0 3.088575 1_556
Mg9 Rb0 3.407670 1_555
Mg10 Mg2 3.074298 1_555
Mg10 Mg4 3.074305 1_545
Mg10 Ti0 3.088575 1_655
Mg10 Mg8 3.247514 1_545
Mg10 Mg6 3.247515 1_555
Mg10 Mg12 3.297075 1_555
Mg10 Mg12 3.297075 1_545
Mg10 Mg8 3.327876 1_655
Mg10 Mg6 3.327876 1_655
Mg10 Mg3 3.371086 1_555
Mg10 Mg5 3.371093 1_545
Mg10 Rb0 3.407670 1_655
Mg11 Mg2 3.074298 1_556
Mg11 Mg4 3.074305 1_546
Mg11 Ti0 3.088575 1_656
Mg11 Mg9 3.247514 1_545
Mg11 Mg7 3.247515 1_555
Mg11 Mg13 3.297075 1_555
Mg11 Mg13 3.297075 1_545
Mg11 Mg9 3.327876 1_655
Mg11 Mg7 3.327876 1_655
Mg11 Mg3 3.371086 1_555
Mg11 Mg5 3.371093 1_545
Mg11 Rb0 3.407670 1_655
Mg12 Mg5 3.229938 1_555
Mg12 Mg3 3.229944 1_555
Mg12 Mg4 3.259274 1_555
Mg12 Mg2 3.259280 1_555
Mg12 Mg6 3.297075 1_555
Mg12 Mg6 3.297075 1_665
Mg12 Mg8 3.297075 1_655
Mg12 Mg8 3.297075 1_555
Mg13 Mg5 3.229938 1_555
Mg13 Mg3 3.229944 1_555
Mg13 Mg4 3.259274 1_556
Mg13 Mg2 3.259280 1_556
Mg13 Mg7 3.297075 1_555
Mg13 Mg7 3.297075 1_665
Mg13 Mg9 3.297075 1_655
Mg13 Mg9 3.297075 1_555
