# generated using pymatgen
data_Al6Tc
_symmetry_space_group_name_H-M   'P 1'
_cell_length_a   5.00096739
_cell_length_b   5.00096614
_cell_length_c   8.97717816
_cell_angle_alpha   90.00000000
_cell_angle_beta   90.00000000
_cell_angle_gamma   98.39092196
_symmetry_Int_Tables_number   1
_chemical_formula_structural   Al6Tc
_chemical_formula_sum   'Al12 Tc2'
_cell_volume   222.11290892
_cell_formula_units_Z   2
loop_
 _symmetry_equiv_pos_site_id
 _symmetry_equiv_pos_as_xyz
  1  'x, y, z'
loop_
 _atom_site_type_symbol
 _atom_site_label
 _atom_site_symmetry_multiplicity
 _atom_site_fract_x
 _atom_site_fract_y
 _atom_site_fract_z
 _atom_site_occupancy
  Al  Al0  1  0.32421934  0.67578066  0.00000000  1
  Al  Al1  1  0.67578066  0.32421934  0.50000000  1
  Al  Al2  1  0.67578066  0.32421934  0.00000000  1
  Al  Al3  1  0.32421934  0.67578066  0.50000000  1
  Al  Al4  1  0.13437207  0.13437207  0.60062250  1
  Al  Al5  1  0.86562793  0.86562793  0.10062250  1
  Al  Al6  1  0.13437207  0.13437207  0.89937750  1
  Al  Al7  1  0.86562793  0.86562793  0.39937750  1
  Al  Al8  1  0.38968594  0.02675607  0.25000000  1
  Al  Al9  1  0.61031406  0.97324393  0.75000000  1
  Al  Al10  1  0.02675607  0.38968594  0.25000000  1
  Al  Al11  1  0.97324393  0.61031406  0.75000000  1
  Tc  Tc0  1  0.54245514  0.54245514  0.25000000  1
  Tc  Tc1  1  0.45754486  0.45754486  0.75000000  1
loop_
_geom_bond_atom_site_label_1
_geom_bond_atom_site_label_2
_geom_bond_distance
_geom_bond_site_symmetry_2
Al0 Tc1 2.623916 1_554
Al0 Tc0 2.623916 1_555
Al0 Al2 2.661634 1_555
Al0 Al6 2.759080 1_564
Al0 Al5 2.759081 1_455
Al0 Al8 2.838506 1_565
Al0 Al11 2.838506 1_454
Al0 Al6 2.880631 1_554
Al0 Al5 2.880631 1_555
Al0 Al9 2.945453 1_554
Al0 Al10 2.945453 1_555
Al1 Tc0 2.623916 1_555
Al1 Tc1 2.623916 1_555
Al1 Al3 2.661634 1_555
Al1 Al7 2.759080 1_545
Al1 Al4 2.759081 1_655
Al1 Al9 2.838506 1_545
Al1 Al10 2.838506 1_655
Al1 Al7 2.880631 1_555
Al1 Al4 2.880631 1_555
Al1 Al8 2.945453 1_555
Al1 Al11 2.945453 1_555
Al2 Tc0 2.623916 1_555
Al2 Tc1 2.623916 1_554
Al2 Al5 2.759080 1_545
Al2 Al6 2.759081 1_654
Al2 Al9 2.838506 1_544
Al2 Al5 2.880631 1_555
Al2 Al6 2.880631 1_554
Al2 Al8 2.945453 1_555
Al3 Tc1 2.623916 1_555
Al3 Tc0 2.623916 1_555
Al3 Al4 2.759080 1_565
Al3 Al7 2.759081 1_455
Al3 Al8 2.838506 1_565
Al3 Al4 2.880631 1_555
Al3 Al7 2.880631 1_555
Al3 Al9 2.945453 1_555
Al4 Tc1 2.501994 1_555
Al4 Al7 2.519771 1_445
Al4 Al6 2.681977 1_555
Al4 Al9 2.944915 1_545
Al4 Al9 2.949541 1_445
Al5 Tc0 2.501994 1_555
Al5 Al6 2.519771 1_664
Al5 Al7 2.681977 1_555
Al5 Al8 2.944915 1_565
Al5 Al8 2.949541 1_665
Al6 Tc1 2.501994 1_555
Al6 Al9 2.944915 1_545
Al6 Al9 2.949541 1_445
Al7 Tc0 2.501994 1_555
Al7 Al8 2.944915 1_565
Al7 Al8 2.949541 1_665
Al8 Tc0 2.580668 1_555
Al8 Tc0 2.643799 1_545
Al9 Tc1 2.580668 1_555
Al9 Tc1 2.643799 1_565
Al10 Tc0 2.580669 1_555
Al10 Tc0 2.643800 1_455
Al10 Al2 2.838506 1_455
Al10 Al5 2.944914 1_455
Al10 Al7 2.944914 1_455
Al10 Al3 2.945453 1_555
Al10 Al7 2.949540 1_445
Al10 Al5 2.949540 1_445
Al11 Tc1 2.580669 1_555
Al11 Tc1 2.643800 1_655
Al11 Al3 2.838506 1_655
Al11 Al4 2.944914 1_655
Al11 Al6 2.944914 1_655
Al11 Al2 2.945453 1_556
Al11 Al6 2.949540 1_665
Al11 Al4 2.949540 1_665
