# generated using pymatgen
data_YbSnIr
_symmetry_space_group_name_H-M   'P 1'
_cell_length_a   7.29851354
_cell_length_b   7.29851354
_cell_length_c   4.18858400
_cell_angle_alpha   90.00000000
_cell_angle_beta   90.00000000
_cell_angle_gamma   119.99999581
_symmetry_Int_Tables_number   1
_chemical_formula_structural   YbSnIr
_chemical_formula_sum   'Yb3 Sn3 Ir3'
_cell_volume   193.22651242
_cell_formula_units_Z   3
loop_
 _symmetry_equiv_pos_site_id
 _symmetry_equiv_pos_as_xyz
  1  'x, y, z'
loop_
 _atom_site_type_symbol
 _atom_site_label
 _atom_site_symmetry_multiplicity
 _atom_site_fract_x
 _atom_site_fract_y
 _atom_site_fract_z
 _atom_site_occupancy
  Yb  Yb0  1  0.00000000  0.40778400  0.50000000  1
  Yb  Yb1  1  0.59221600  0.59221600  0.50000000  1
  Yb  Yb2  1  0.40778400  0.00000000  0.50000000  1
  Sn  Sn0  1  0.00000000  0.74162200  0.00000000  1
  Sn  Sn1  1  0.25837800  0.25837800  0.00000000  1
  Sn  Sn2  1  0.74162200  0.00000000  0.00000000  1
  Ir  Ir0  1  0.33333300  0.66666700  0.00000000  1
  Ir  Ir1  1  0.66666700  0.33333300  0.00000000  1
  Ir  Ir2  1  0.00000000  0.00000000  0.50000000  1
loop_
_geom_bond_atom_site_label_1
_geom_bond_atom_site_label_2
_geom_bond_distance
_geom_bond_site_symmetry_2
Sn0 Yb0 3.212895 1_555
Sn0 Yb0 3.212895 1_554
Sn0 Yb1 3.344787 1_455
Sn0 Yb1 3.344787 1_454
Sn0 Yb2 3.344787 1_565
Sn0 Yb2 3.344787 1_564
Sn1 Yb1 3.212895 1_555
Sn1 Yb1 3.212895 1_554
Sn1 Yb0 3.344787 1_555
Sn1 Yb2 3.344787 1_555
Sn1 Yb2 3.344787 1_554
Sn1 Yb0 3.344787 1_554
Sn2 Yb2 3.212895 1_554
Sn2 Yb2 3.212895 1_555
Sn2 Yb1 3.344787 1_544
Sn2 Yb1 3.344787 1_545
Sn2 Yb0 3.344787 1_655
Sn2 Yb0 3.344787 1_654
Ir0 Sn0 2.747521 1_555
Ir0 Sn2 2.747526 1_565
Ir0 Sn1 2.747528 1_555
Ir0 Yb2 3.045990 1_565
Ir0 Yb2 3.045990 1_564
Ir0 Yb0 3.045991 1_555
Ir0 Yb0 3.045991 1_554
Ir0 Yb1 3.045995 1_555
Ir0 Yb1 3.045995 1_554
Ir1 Sn2 2.747521 1_555
Ir1 Sn0 2.747526 1_655
Ir1 Sn1 2.747528 1_555
Ir1 Yb0 3.045990 1_655
Ir1 Yb0 3.045990 1_654
Ir1 Yb2 3.045991 1_554
Ir1 Yb2 3.045991 1_555
Ir1 Yb1 3.045995 1_555
Ir1 Yb1 3.045995 1_554
Ir2 Sn0 2.818192 1_545
Ir2 Sn2 2.818192 1_455
Ir2 Sn2 2.818192 1_456
Ir2 Sn0 2.818192 1_546
Ir2 Sn1 2.818192 1_555
Ir2 Sn1 2.818192 1_556
Ir2 Yb2 2.976217 1_555
Ir2 Yb0 2.976217 1_555
Ir2 Yb1 2.976217 1_445
