# generated using pymatgen
data_Ca11(Cd9Au2)2
_symmetry_space_group_name_H-M   'P 1'
_cell_length_a   17.08999723
_cell_length_b   17.08999723
_cell_length_c   17.08999723
_cell_angle_alpha   144.46757799
_cell_angle_beta   144.46757799
_cell_angle_gamma   51.12866904
_symmetry_Int_Tables_number   1
_chemical_formula_structural   Ca11(Cd9Au2)2
_chemical_formula_sum   'Ca22 Cd36 Au8'
_cell_volume   1676.95646194
_cell_formula_units_Z   2
loop_
 _symmetry_equiv_pos_site_id
 _symmetry_equiv_pos_as_xyz
  1  'x, y, z'
loop_
 _atom_site_type_symbol
 _atom_site_label
 _atom_site_symmetry_multiplicity
 _atom_site_fract_x
 _atom_site_fract_y
 _atom_site_fract_z
 _atom_site_occupancy
  Ca  Ca0  1  0.52335000  0.52335000  0.00000000  1
  Ca  Ca1  1  0.27335000  0.77335000  0.50000000  1
  Ca  Ca2  1  0.98220300  0.48220300  0.50000000  1
  Ca  Ca3  1  0.23220300  0.23220300  0.00000000  1
  Ca  Ca4  1  0.62521600  0.12521600  0.50000000  1
  Ca  Ca5  1  0.87521600  0.87521600  0.00000000  1
  Ca  Ca6  1  0.69266800  0.48532500  0.79265600  1
  Ca  Ca7  1  0.23532500  0.94266800  0.29265600  1
  Ca  Ca8  1  0.65001200  0.94266800  0.70734400  1
  Ca  Ca9  1  0.69266800  0.90001200  0.20734400  1
  Ca  Ca10  1  0.80745600  0.51365300  0.70619700  1
  Ca  Ca11  1  0.26365300  0.05745600  0.20619700  1
  Ca  Ca12  1  0.85125900  0.05745600  0.79380300  1
  Ca  Ca13  1  0.80745600  0.10125900  0.29380300  1
  Ca  Ca14  1  0.41064900  0.19249900  0.78185000  1
  Ca  Ca15  1  0.94249900  0.66064900  0.28185000  1
  Ca  Ca16  1  0.37879900  0.66064900  0.71815000  1
  Ca  Ca17  1  0.41064900  0.62879900  0.21815000  1
  Ca  Ca18  1  0.08505200  0.79264900  0.70759700  1
  Ca  Ca19  1  0.54264900  0.33505200  0.20759700  1
  Ca  Ca20  1  0.12745500  0.33505200  0.79240300  1
  Ca  Ca21  1  0.08505200  0.37745500  0.29240300  1
  Cd  Cd0  1  0.74004200  0.37418200  0.93065900  1
  Cd  Cd1  1  0.44352300  0.37418200  0.63413900  1
  Cd  Cd2  1  0.12418200  0.99004200  0.43065900  1
  Cd  Cd3  1  0.55938300  0.99004200  0.86586100  1
  Cd  Cd4  1  0.74004200  0.80938300  0.36586100  1
  Cd  Cd5  1  0.44352300  0.80938300  0.06934100  1
  Cd  Cd6  1  0.12418200  0.69352300  0.13413900  1
  Cd  Cd7  1  0.55938300  0.69352300  0.56934100  1
  Cd  Cd8  1  0.76207700  0.62826200  0.57399300  1
  Cd  Cd9  1  0.05426900  0.62826200  0.86618500  1
  Cd  Cd10  1  0.37826200  0.01207700  0.07399300  1
  Cd  Cd11  1  0.93808400  0.01207700  0.63381500  1
  Cd  Cd12  1  0.76207700  0.18808400  0.13381500  1
  Cd  Cd13  1  0.05426900  0.18808400  0.42600700  1
  Cd  Cd14  1  0.37826200  0.30426900  0.36618500  1
  Cd  Cd15  1  0.93808400  0.30426900  0.92600700  1
  Cd  Cd16  1  0.02476500  0.49914200  0.02286400  1
  Cd  Cd17  1  0.47627800  0.49914200  0.47437700  1
  Cd  Cd18  1  0.24914200  0.27476500  0.52286400  1
  Cd  Cd19  1  0.75190100  0.27476500  0.02562300  1
  Cd  Cd20  1  0.02476500  0.00190100  0.52562300  1
  Cd  Cd21  1  0.47627800  0.00190100  0.97713600  1
  Cd  Cd22  1  0.24914200  0.72627800  0.97437700  1
  Cd  Cd23  1  0.75190100  0.72627800  0.47713600  1
  Cd  Cd24  1  0.87093400  0.23142100  0.63951200  1
  Cd  Cd25  1  0.59190900  0.23142100  0.36048800  1
  Cd  Cd26  1  0.98142100  0.12093400  0.13951200  1
  Cd  Cd27  1  0.98142100  0.84190900  0.86048800  1
  Cd  Cd28  1  0.62789600  0.76831400  0.85958200  1
  Cd  Cd29  1  0.90873200  0.76831400  0.14041800  1
  Cd  Cd30  1  0.51831400  0.87789600  0.35958200  1
  Cd  Cd31  1  0.51831400  0.15873200  0.64041800  1
  Cd  Cd32  1  0.19327800  0.89597600  0.70269800  1
  Cd  Cd33  1  0.64597600  0.44327800  0.20269800  1
  Cd  Cd34  1  0.24057900  0.44327800  0.79730200  1
  Cd  Cd35  1  0.19327800  0.49057900  0.29730200  1
  Au  Au0  1  0.62431800  0.62431800  0.00000000  1
  Au  Au1  1  0.37431800  0.87431800  0.50000000  1
  Au  Au2  1  0.87686100  0.37686100  0.50000000  1
  Au  Au3  1  0.12686100  0.12686100  0.00000000  1
  Au  Au4  1  0.30673300  0.10278500  0.79605300  1
  Au  Au5  1  0.85278500  0.55673300  0.29605300  1
  Au  Au6  1  0.26068000  0.55673300  0.70394700  1
  Au  Au7  1  0.30673300  0.51068000  0.20394700  1
loop_
_geom_bond_atom_site_label_1
_geom_bond_atom_site_label_2
_geom_bond_distance
_geom_bond_site_symmetry_2
Ca0 Cd33 3.250343 1_555
Ca0 Cd34 3.250358 1_554
Ca0 Cd4 3.463179 1_555
Ca0 Cd5 3.463182 1_555
Ca0 Cd0 3.463182 1_554
Ca0 Cd1 3.463198 1_554
Ca0 Cd19 3.593442 1_555
Ca0 Cd22 3.593442 1_554
Ca0 Cd18 3.593442 1_554
Ca0 Cd23 3.593442 1_555
Ca0 Cd30 3.753463 1_555
Ca0 Cd31 3.753463 1_554
Ca1 Cd32 3.250343 1_555
Ca1 Cd35 3.250358 1_555
Ca1 Cd3 3.463179 1_555
Ca1 Cd7 3.463182 1_555
Ca1 Cd2 3.463182 1_555
Ca1 Cd6 3.463198 1_555
Ca1 Cd20 3.593442 1_565
Ca1 Cd16 3.593442 1_555
Ca1 Cd21 3.593442 1_565
Ca1 Cd17 3.593442 1_555
Ca1 Cd29 3.753463 1_455
Ca1 Cd28 3.753463 1_555
Ca2 Cd33 3.324883 1_555
Ca2 Cd34 3.324884 1_655
Ca2 Cd22 3.547724 1_655
Ca2 Cd19 3.547724 1_555
Ca2 Cd23 3.547724 1_555
Ca2 Cd18 3.547724 1_655
Ca2 Cd8 3.577845 1_555
Ca2 Cd13 3.577845 1_655
Ca2 Cd9 3.577845 1_655
Ca2 Cd12 3.577845 1_555
Ca2 Cd26 3.759771 1_555
Ca2 Cd27 3.759776 1_555
Ca2 Ca21 3.839851 1_655
Ca3 Cd32 3.324883 1_544
Ca3 Cd35 3.324884 1_555
Ca3 Cd16 3.547724 1_555
Ca3 Cd21 3.547724 1_554
Ca3 Cd17 3.547724 1_555
Ca3 Cd20 3.547724 1_554
Ca3 Cd14 3.577845 1_555
Ca3 Cd10 3.577845 1_555
Ca3 Cd15 3.577845 1_454
Ca3 Cd11 3.577845 1_454
Ca3 Cd24 3.759771 1_454
Ca3 Cd25 3.759776 1_555
Ca4 Cd11 3.446268 1_555
Ca4 Cd15 3.446268 1_555
Ca4 Cd10 3.446268 1_555
Ca4 Cd14 3.446268 1_555
Ca4 Cd1 3.482567 1_555
Ca4 Cd0 3.482574 1_555
Ca4 Cd5 3.482574 1_545
Ca4 Cd4 3.482576 1_545
Ca4 Cd25 3.583410 1_555
Ca4 Cd24 3.583426 1_555
Ca4 Cd30 3.606887 1_545
Ca4 Cd31 3.606887 1_555
Ca4 Ca9 3.693479 1_545
Ca4 Ca6 3.693492 1_555
Ca5 Cd13 3.446268 1_665
Ca5 Cd12 3.446268 1_565
Ca5 Cd9 3.446268 1_654
Ca5 Cd8 3.446268 1_554
Ca5 Cd6 3.482567 1_655
Ca5 Cd2 3.482574 1_655
Ca5 Cd7 3.482574 1_554
Ca5 Cd3 3.482576 1_554
Ca5 Cd27 3.583410 1_554
Ca5 Cd26 3.583426 1_565
Ca5 Cd28 3.606887 1_554
Ca5 Cd29 3.606887 1_555
Ca5 Ca8 3.693479 1_554
Ca5 Ca7 3.693492 1_655
Ca6 Cd17 3.402025 1_555
Ca6 Cd16 3.402034 1_656
Ca6 Cd14 3.462684 1_555
Ca6 Cd15 3.462693 1_555
Ca6 Cd1 3.475450 1_555
Ca6 Cd0 3.475466 1_555
Ca6 Cd28 3.501615 1_555
Ca6 Cd29 3.501619 1_556
Ca6 Cd25 3.586240 1_555
Ca6 Cd24 3.586256 1_555
Ca7 Cd22 3.402025 1_554
Ca7 Cd18 3.402034 1_565
Ca7 Cd9 3.462684 1_554
Ca7 Cd13 3.462693 1_565
Ca7 Cd6 3.475450 1_555
Ca7 Cd2 3.475466 1_555
Ca7 Cd30 3.501615 1_555
Ca7 Cd31 3.501619 1_565
Ca7 Cd27 3.586240 1_454
Ca7 Cd26 3.586256 1_465
Ca8 Cd19 3.402037 1_566
Ca8 Cd23 3.402037 1_555
Ca8 Cd12 3.462682 1_566
Ca8 Cd8 3.462682 1_555
Ca8 Cd7 3.475450 1_555
Ca8 Cd3 3.475466 1_555
Ca8 Cd31 3.501631 1_565
Ca8 Cd30 3.501631 1_555
Ca8 Cd27 3.586242 1_555
Ca8 Cd26 3.586245 1_566
Ca9 Cd20 3.402037 1_665
Ca9 Cd21 3.402037 1_564
Ca9 Cd11 3.462682 1_565
Ca9 Cd10 3.462682 1_565
Ca9 Cd5 3.475450 1_555
Ca9 Cd4 3.475466 1_555
Ca9 Cd29 3.501631 1_555
Ca9 Cd28 3.501631 1_554
Ca9 Cd25 3.586242 1_565
Ca9 Cd24 3.586245 1_565
Ca10 Cd17 3.385026 1_555
Ca10 Cd16 3.385026 1_656
Ca10 Cd9 3.462186 1_655
Ca10 Cd8 3.462186 1_555
Ca10 Cd6 3.478367 1_656
Ca10 Cd7 3.478369 1_555
Ca10 Cd24 3.498328 1_555
Ca10 Cd25 3.498333 1_555
Ca10 Cd28 3.604261 1_555
Ca10 Cd29 3.604261 1_556
Ca10 Ca6 3.652399 1_555
Ca10 Ca5 3.708713 1_556
Ca10 Ca19 3.827386 1_555
Ca10 Ca20 3.827386 1_655
Ca11 Cd18 3.385026 1_555
Ca11 Cd22 3.385026 1_544
Ca11 Cd14 3.462186 1_555
Ca11 Cd10 3.462186 1_555
Ca11 Cd1 3.478367 1_555
Ca11 Cd5 3.478369 1_545
Ca11 Cd26 3.498328 1_455
Ca11 Cd27 3.498333 1_444
Ca11 Cd30 3.604261 1_545
Ca11 Cd31 3.604261 1_555
Ca11 Ca7 3.652399 1_545
Ca11 Ca4 3.708713 1_555
Ca11 Ca21 3.827386 1_555
Ca11 Ca18 3.827386 1_544
Ca12 Cd23 3.385026 1_545
Ca12 Cd19 3.385026 1_556
Ca12 Cd11 3.462186 1_555
Ca12 Cd15 3.462186 1_555
Ca12 Cd4 3.478358 1_545
Ca12 Cd0 3.478369 1_555
Ca12 Cd26 3.498321 1_556
Ca12 Cd27 3.498333 1_545
Ca12 Cd30 3.604261 1_545
Ca12 Cd31 3.604261 1_555
Ca12 Ca8 3.652412 1_545
Ca12 Ca4 3.708713 1_555
Ca12 Ca21 3.827386 1_656
Ca12 Ca18 3.827386 1_645
Ca13 Cd21 3.385026 1_554
Ca13 Cd20 3.385026 1_655
Ca13 Cd12 3.462186 1_555
Ca13 Cd13 3.462186 1_655
Ca13 Cd3 3.478358 1_544
Ca13 Cd2 3.478369 1_645
Ca13 Cd24 3.498321 1_555
Ca13 Cd25 3.498333 1_555
Ca13 Cd28 3.604261 1_544
Ca13 Cd29 3.604261 1_545
Ca13 Ca9 3.652412 1_545
Ca13 Ca5 3.708713 1_545
Ca13 Ca19 3.827386 1_555
Ca13 Ca20 3.827386 1_655
Ca14 Cd33 3.264630 1_556
Ca14 Cd34 3.264632 1_555
Ca14 Cd2 3.405960 1_545
Ca14 Cd3 3.405971 1_545
Ca14 Cd31 3.632680 1_555
Ca14 Cd12 3.691876 1_556
Ca14 Cd13 3.691876 1_555
Ca14 Ca8 3.780474 1_545
Ca14 Ca7 3.780479 1_545
Ca14 Cd19 3.815620 1_556
Ca14 Cd18 3.815620 1_555
Ca14 Ca20 3.911209 1_555
Ca14 Ca19 3.911209 1_556
Ca15 Cd32 3.264630 1_655
Ca15 Cd35 3.264632 1_655
Ca15 Cd0 3.405960 1_554
Ca15 Cd4 3.405971 1_555
Ca15 Cd29 3.632680 1_555
Ca15 Cd15 3.691876 1_554
Ca15 Cd11 3.691876 1_565
Ca15 Ca9 3.780474 1_555
Ca15 Ca6 3.780479 1_554
Ca15 Cd16 3.815620 1_655
Ca15 Cd20 3.815620 1_665
Ca15 Ca21 3.911209 1_655
Ca15 Ca18 3.911209 1_655
Ca16 Cd35 3.264625 1_555
Ca16 Cd32 3.264630 1_555
Ca16 Cd1 3.405952 1_555
Ca16 Cd5 3.405960 1_556
Ca16 Cd28 3.632680 1_555
Ca16 Cd14 3.691876 1_555
Ca16 Cd10 3.691876 1_566
Ca16 Ca6 3.780471 1_555
Ca16 Ca9 3.780474 1_556
Ca16 Cd17 3.815620 1_555
Ca16 Cd21 3.815620 1_565
Ca16 Ca21 3.911209 1_555
Ca16 Ca18 3.911209 1_555
Ca17 Cd34 3.264625 1_554
Ca17 Cd33 3.264630 1_555
Ca17 Cd6 3.405952 1_555
Ca17 Cd7 3.405960 1_555
Ca17 Cd30 3.632680 1_555
Ca17 Cd8 3.691876 1_555
Ca17 Cd9 3.691876 1_554
Ca17 Ca7 3.780471 1_555
Ca17 Ca8 3.780474 1_555
Ca17 Cd23 3.815620 1_555
Ca17 Cd22 3.815620 1_554
Ca17 Ca20 3.911209 1_554
Ca17 Ca19 3.911209 1_555
Ca18 Cd32 3.337412 1_555
Ca18 Cd11 3.560972 1_465
Ca18 Cd10 3.560972 1_566
Ca18 Cd27 3.571114 1_455
Ca18 Cd4 3.675807 1_455
Ca18 Cd5 3.675813 1_556
Ca18 Cd22 3.681403 1_555
Ca18 Cd23 3.681403 1_455
Ca18 Ca2 3.839851 1_455
Ca19 Cd33 3.337412 1_555
Ca19 Cd12 3.560972 1_555
Ca19 Cd8 3.560972 1_555
Ca19 Cd25 3.571114 1_555
Ca19 Cd3 3.675807 1_544
Ca19 Cd7 3.675813 1_555
Ca19 Cd21 3.681403 1_554
Ca19 Cd17 3.681403 1_555
Ca19 Ca3 3.839851 1_555
Ca20 Cd34 3.337396 1_555
Ca20 Cd9 3.560972 1_555
Ca20 Cd13 3.560972 1_555
Ca20 Cd24 3.571098 1_455
Ca20 Cd6 3.675809 1_556
Ca20 Cd2 3.675813 1_545
Ca20 Cd20 3.681403 1_555
Ca20 Cd16 3.681403 1_556
Ca20 Ca3 3.839851 1_556
Ca21 Cd35 3.337396 1_555
Ca21 Cd14 3.560972 1_555
Ca21 Cd15 3.560972 1_454
Ca21 Cd26 3.571098 1_455
Ca21 Cd1 3.675809 1_555
Ca21 Cd0 3.675813 1_454
Ca21 Cd18 3.681403 1_555
Ca21 Cd19 3.681403 1_455
Cd0 Cd15 2.845463 1_555
Cd0 Cd19 3.013649 1_556
Cd0 Cd1 3.092541 1_555
Cd0 Cd31 3.116944 1_555
Cd1 Cd14 2.845446 1_555
Cd1 Cd18 3.013662 1_555
Cd1 Cd31 3.116955 1_555
Cd2 Cd20 3.013649 1_565
Cd2 Cd6 3.092541 1_555
Cd2 Cd29 3.116944 1_455
Cd3 Cd7 3.092541 1_555
Cd4 Cd5 3.092541 1_555
Cd6 Cd9 2.845446 1_554
Cd7 Cd8 2.845463 1_555
Cd8 Cd9 3.047408 1_655
Cd10 Cd5 2.845463 1_545
Cd10 Cd32 2.987888 1_544
Cd10 Cd21 3.042179 1_554
Cd10 Cd14 3.047408 1_555
Cd10 Cd25 3.093009 1_555
Cd11 Cd4 2.845469 1_545
Cd11 Cd32 2.987888 1_645
Cd11 Cd20 3.042179 1_655
Cd11 Cd15 3.047408 1_555
Cd11 Cd24 3.093015 1_555
Cd12 Cd3 2.845469 1_544
Cd12 Cd33 2.987888 1_555
Cd12 Cd19 3.042179 1_555
Cd12 Cd13 3.047408 1_655
Cd12 Cd26 3.093015 1_555
Cd13 Cd2 2.845463 1_545
Cd13 Cd34 2.987884 1_555
Cd13 Cd18 3.042179 1_555
Cd13 Cd26 3.093020 1_455
Cd14 Cd35 2.987876 1_555
Cd14 Cd17 3.042179 1_555
Cd14 Cd25 3.093009 1_555
Cd15 Cd35 2.987884 1_656
Cd15 Cd16 3.042179 1_656
Cd15 Cd24 3.093020 1_555
Cd16 Cd35 2.986130 1_555
Cd16 Cd24 3.007477 1_454
Cd16 Cd6 3.013662 1_555
Cd16 Cd29 3.020370 1_455
Cd17 Cd35 2.986122 1_555
Cd17 Cd25 3.007478 1_555
Cd17 Cd7 3.013649 1_555
Cd17 Cd28 3.020370 1_555
Cd18 Cd34 2.986130 1_555
Cd18 Cd26 3.007477 1_455
Cd18 Cd31 3.020370 1_555
Cd19 Cd33 2.986118 1_555
Cd19 Cd26 3.007468 1_555
Cd19 Cd31 3.020370 1_554
Cd20 Cd32 2.986118 1_545
Cd20 Cd24 3.007468 1_455
Cd20 Cd29 3.020370 1_445
Cd21 Cd32 2.986118 1_545
Cd21 Cd25 3.007478 1_556
Cd21 Cd3 3.013633 1_545
Cd21 Cd28 3.020370 1_545
Cd22 Cd34 2.986122 1_555
Cd22 Cd27 3.007478 1_455
Cd22 Cd5 3.013649 1_556
Cd22 Cd30 3.020370 1_556
Cd22 Cd9 3.042179 1_555
Cd23 Cd33 2.986118 1_555
Cd23 Cd27 3.007478 1_555
Cd23 Cd4 3.013633 1_555
Cd23 Cd30 3.020370 1_555
Cd23 Cd8 3.042179 1_555
Cd24 Cd25 2.910078 1_555
Cd26 Cd27 2.910078 1_544
Cd27 Cd8 3.093009 1_555
Cd27 Cd9 3.093009 1_655
Cd28 Cd29 2.928971 1_556
Cd28 Cd3 3.116933 1_555
Cd28 Cd7 3.116944 1_555
Cd29 Cd6 3.116955 1_655
Cd30 Cd31 2.928971 1_565
Cd30 Cd4 3.116933 1_555
Cd30 Cd5 3.116944 1_555
Cd33 Cd8 2.987888 1_555
Cd34 Cd9 2.987876 1_555
Au0 Cd5 2.923659 1_555
Au0 Cd0 2.923659 1_554
Au0 Cd1 2.923660 1_554
Au0 Cd4 2.923671 1_555
Au0 Ca9 3.019582 1_555
Au0 Ca6 3.019589 1_554
Au0 Ca0 3.113229 1_555
Au0 Ca16 3.145764 1_554
Au0 Ca15 3.145764 1_555
Au1 Cd7 2.923659 1_555
Au1 Cd2 2.923659 1_555
Au1 Cd6 2.923660 1_555
Au1 Cd3 2.923671 1_555
Au1 Ca8 3.019582 1_555
Au1 Ca7 3.019589 1_555
Au1 Ca1 3.113229 1_555
Au1 Ca17 3.145764 1_555
Au1 Ca14 3.145764 1_565
Au2 Cd8 2.919369 1_555
Au2 Cd12 2.919369 1_555
Au2 Cd9 2.919369 1_655
Au2 Cd13 2.919369 1_655
Au2 Ca10 3.033884 1_555
Au2 Ca13 3.033884 1_555
Au2 Ca2 3.248096 1_555
Au2 Ca19 3.310887 1_555
Au2 Ca20 3.310887 1_655
Au3 Cd11 2.919369 1_454
Au3 Cd10 2.919369 1_555
Au3 Cd14 2.919369 1_555
Au3 Cd15 2.919369 1_454
Au3 Ca12 3.033884 1_454
Au3 Ca11 3.033884 1_555
Au3 Ca3 3.248096 1_555
Au3 Ca21 3.310887 1_555
Au3 Ca18 3.310887 1_544
Au4 Cd3 2.948606 1_545
Au4 Cd2 2.948619 1_545
Au4 Cd21 2.960541 1_555
Au4 Cd20 2.960549 1_555
Au4 Ca3 3.131348 1_556
Au4 Ca19 3.158264 1_556
Au4 Ca20 3.158271 1_555
Au4 Ca14 3.207564 1_555
Au4 Ca1 3.254718 1_545
Au5 Cd4 2.948606 1_555
Au5 Cd0 2.948619 1_554
Au5 Cd23 2.960541 1_555
Au5 Cd19 2.960549 1_555
Au5 Ca2 3.131348 1_555
Au5 Ca18 3.158264 1_655
Au5 Ca21 3.158271 1_655
Au5 Ca15 3.207564 1_555
Au5 Ca0 3.254718 1_555
Au6 Cd5 2.948612 1_556
Au6 Cd1 2.948619 1_555
Au6 Cd22 2.960555 1_555
Au6 Cd18 2.960555 1_555
Au6 Ca2 3.131356 1_455
Au6 Ca18 3.158259 1_555
Au6 Ca21 3.158259 1_555
Au6 Ca16 3.207549 1_555
Au6 Ca0 3.254728 1_556
Au7 Cd7 2.948612 1_555
Au7 Cd6 2.948619 1_555
Au7 Cd16 2.960555 1_555
Au7 Cd17 2.960555 1_555
Au7 Ca3 3.131356 1_555
Au7 Ca20 3.158259 1_554
Au7 Ca19 3.158259 1_555
Au7 Ca17 3.207549 1_555
Au7 Ca1 3.254728 1_555
