# generated using pymatgen
data_BaSrZr4O12
_symmetry_space_group_name_H-M   'P 1'
_cell_length_a   5.95007904
_cell_length_b   5.95007904
_cell_length_c   8.38780272
_cell_angle_alpha   90.00000000
_cell_angle_beta   90.00000000
_cell_angle_gamma   89.70934844
_symmetry_Int_Tables_number   1
_chemical_formula_structural   BaSrZr4O12
_chemical_formula_sum   'Ba1 Sr1 Zr4 O12'
_cell_volume   296.95325447
_cell_formula_units_Z   1
loop_
 _symmetry_equiv_pos_site_id
 _symmetry_equiv_pos_as_xyz
  1  'x, y, z'
loop_
 _atom_site_type_symbol
 _atom_site_label
 _atom_site_symmetry_multiplicity
 _atom_site_fract_x
 _atom_site_fract_y
 _atom_site_fract_z
 _atom_site_occupancy
  Ba  Ba0  1  0.51276292  0.51276292  -0.00000000  1
  Sr  Sr0  1  0.98447086  0.98447086  0.50000000  1
  Zr  Zr0  1  0.49244314  0.00678158  0.74690027  1
  Zr  Zr1  1  0.49244314  0.00678158  0.25309973  1
  Zr  Zr2  1  0.00678158  0.49244314  0.25309973  1
  Zr  Zr3  1  0.00678158  0.49244314  0.74690027  1
  O  O0  1  0.73328392  0.26688086  0.75188141  1
  O  O1  1  0.26688086  0.73328392  0.75188141  1
  O  O2  1  0.26688086  0.73328392  0.24811859  1
  O  O3  1  0.73328392  0.26688086  0.24811859  1
  O  O4  1  0.76158703  0.76158703  0.75681317  1
  O  O5  1  0.22132618  0.22132618  0.71336879  1
  O  O6  1  0.22132618  0.22132618  0.28663121  1
  O  O7  1  0.76158703  0.76158703  0.24318683  1
  O  O8  1  0.49112303  0.01647061  -0.00000000  1
  O  O9  1  0.54607055  0.98619663  0.50000000  1
  O  O10  1  0.01647061  0.49112303  -0.00000000  1
  O  O11  1  0.98619663  0.54607055  0.50000000  1
loop_
_geom_bond_atom_site_label_1
_geom_bond_atom_site_label_2
_geom_bond_distance
_geom_bond_site_symmetry_2
Ba0 O3 2.858997 1_555
Ba0 O0 2.858997 1_554
Ba0 O1 2.858997 1_554
Ba0 O2 2.858997 1_555
Ba0 O4 2.926932 1_554
Ba0 O7 2.926932 1_555
Ba0 O10 2.956437 1_555
Ba0 O8 2.956437 1_555
Ba0 O10 2.999212 1_655
Ba0 O8 2.999212 1_565
O0 Zr0 2.114923 1_555
O0 Zr3 2.115038 1_655
O0 Sr0 3.081484 1_545
O1 Zr3 2.114923 1_555
O1 Zr0 2.115038 1_565
O1 Sr0 3.081484 1_455
O2 Zr2 2.114923 1_555
O2 Zr1 2.115038 1_565
O2 Sr0 3.081484 1_455
O3 Zr1 2.114923 1_555
O3 Zr2 2.115038 1_655
O3 Sr0 3.081484 1_545
O4 Zr0 2.162463 1_565
O4 Zr3 2.162463 1_655
O4 Sr0 2.859278 1_555
O5 Zr3 2.071260 1_555
O5 Zr0 2.071260 1_555
O5 Sr0 2.682435 1_445
O6 Zr2 2.071260 1_555
O6 Zr1 2.071260 1_555
O6 Sr0 2.682435 1_445
O7 Zr1 2.162463 1_565
O7 Zr2 2.162463 1_655
O7 Sr0 2.859278 1_555
O8 Zr0 2.123747 1_554
O8 Zr1 2.123747 1_555
O9 Zr1 2.098871 1_565
O9 Zr0 2.098871 1_565
O9 Sr0 2.608485 1_555
O10 Zr3 2.123747 1_554
O10 Zr2 2.123747 1_555
O11 Zr2 2.098871 1_655
O11 Zr3 2.098871 1_655
O11 Sr0 2.608485 1_555
