# generated using pymatgen
data_FeH4SO4
_symmetry_space_group_name_H-M   'P 1'
_cell_length_a   13.73361100
_cell_length_b   5.64977400
_cell_length_c   8.85519103
_cell_angle_alpha   58.98987349
_cell_angle_beta   90.00000000
_cell_angle_gamma   90.00000000
_symmetry_Int_Tables_number   1
_chemical_formula_structural   FeH4SO4
_chemical_formula_sum   'Fe4 H16 S4 O16'
_cell_volume   588.88869540
_cell_formula_units_Z   4
loop_
 _symmetry_equiv_pos_site_id
 _symmetry_equiv_pos_as_xyz
  1  'x, y, z'
loop_
 _atom_site_type_symbol
 _atom_site_label
 _atom_site_symmetry_multiplicity
 _atom_site_fract_x
 _atom_site_fract_y
 _atom_site_fract_z
 _atom_site_occupancy
  Fe  Fe0  1  0.55739900  0.57240400  0.23334800  1
  Fe  Fe1  1  0.44260100  0.42759600  0.76665200  1
  Fe  Fe2  1  0.05739900  0.42759600  0.26665200  1
  Fe  Fe3  1  0.94260100  0.57240400  0.73334800  1
  H  H0  1  0.70832800  0.70650200  0.26283900  1
  H  H1  1  0.29167200  0.29349800  0.73716100  1
  H  H2  1  0.20832800  0.29349800  0.23716100  1
  H  H3  1  0.79167200  0.70650200  0.76283900  1
  H  H4  1  0.89590600  0.08771000  0.05596800  1
  H  H5  1  0.10409400  0.91229000  0.94403200  1
  H  H6  1  0.39590600  0.91229000  0.44403200  1
  H  H7  1  0.60409400  0.08771000  0.55596800  1
  H  H8  1  0.20204600  0.44574500  0.16883500  1
  H  H9  1  0.79795400  0.55425500  0.83116500  1
  H  H10  1  0.70204600  0.55425500  0.33116500  1
  H  H11  1  0.29795400  0.44574500  0.66883500  1
  H  H12  1  0.07007400  0.74421600  0.08931900  1
  H  H13  1  0.92992600  0.25578400  0.91068100  1
  H  H14  1  0.57007400  0.25578400  0.41068100  1
  H  H15  1  0.42992600  0.74421600  0.58931900  1
  S  S0  1  0.36859400  0.99032500  0.17683700  1
  S  S1  1  0.63140600  0.00967500  0.82316300  1
  S  S2  1  0.86859400  0.00967500  0.32316300  1
  S  S3  1  0.13140600  0.99032500  0.67683700  1
  O  O0  1  0.37204300  0.07364200  0.31843300  1
  O  O1  1  0.62795700  0.92635800  0.68156700  1
  O  O2  1  0.87204300  0.92635800  0.18156700  1
  O  O3  1  0.12795700  0.07364200  0.81843300  1
  O  O4  1  0.41444900  0.23356900  0.02128600  1
  O  O5  1  0.58555100  0.76643100  0.97871400  1
  O  O6  1  0.91444900  0.76643100  0.47871400  1
  O  O7  1  0.08555100  0.23356900  0.52128600  1
  O  O8  1  0.43182100  0.74165100  0.24228800  1
  O  O9  1  0.56817900  0.25834900  0.75771200  1
  O  O10  1  0.93182100  0.25834900  0.25771200  1
  O  O11  1  0.06817900  0.74165100  0.74228800  1
  O  O12  1  0.27003900  0.94106900  0.14475300  1
  O  O13  1  0.72996100  0.05893100  0.85524700  1
  O  O14  1  0.77003900  0.05893100  0.35524700  1
  O  O15  1  0.22996100  0.94106900  0.64475300  1
loop_
_geom_bond_atom_site_label_1
_geom_bond_atom_site_label_2
_geom_bond_distance
_geom_bond_site_symmetry_2
Fe0 H14 1.673842 1_555
Fe0 O5 1.971945 1_554
Fe0 O8 1.993233 1_555
Fe0 H10 2.148387 1_555
Fe1 H15 1.673842 1_555
Fe1 O4 1.971945 1_556
Fe1 O9 1.993233 1_555
Fe1 H11 2.148387 1_555
Fe2 H12 1.673842 1_555
Fe2 O7 1.971945 1_555
Fe2 O10 1.993233 1_455
Fe2 H8 2.148387 1_555
Fe3 H13 1.673842 1_555
Fe3 O6 1.971945 1_555
Fe3 O11 1.993233 1_655
Fe3 H9 2.148387 1_555
H0 H10 0.759705 1_555
H1 H11 0.759705 1_555
H2 H8 0.759705 1_555
H3 H9 0.759705 1_555
H4 O2 1.063358 1_545
H5 O3 1.063358 1_565
H6 O0 1.063358 1_565
H7 O1 1.063358 1_545
H12 H5 1.231422 1_554
H13 H4 1.231422 1_556
H14 H7 1.231422 1_555
H15 H6 1.231422 1_555
O0 S0 1.550528 1_545
O1 S1 1.550528 1_565
O2 S2 1.550528 1_565
O3 S3 1.550528 1_545
O4 S0 1.494010 1_545
O5 S1 1.494010 1_565
O6 S2 1.494010 1_565
O7 S3 1.494010 1_545
O8 S0 1.491573 1_555
O9 S1 1.491573 1_555
O10 S2 1.491573 1_555
O11 S3 1.491573 1_555
O12 S0 1.439317 1_555
O13 S1 1.439317 1_555
O14 S2 1.439317 1_555
O15 S3 1.439317 1_555
