# generated using pymatgen
data_SmCuSb2
_symmetry_space_group_name_H-M   'P 1'
_cell_length_a   4.33232756
_cell_length_b   4.33232756
_cell_length_c   10.04303377
_cell_angle_alpha   90.00000000
_cell_angle_beta   90.00000000
_cell_angle_gamma   90.00000000
_symmetry_Int_Tables_number   1
_chemical_formula_structural   SmCuSb2
_chemical_formula_sum   'Sm2 Cu2 Sb4'
_cell_volume   188.49832437
_cell_formula_units_Z   2
loop_
 _symmetry_equiv_pos_site_id
 _symmetry_equiv_pos_as_xyz
  1  'x, y, z'
loop_
 _atom_site_type_symbol
 _atom_site_label
 _atom_site_symmetry_multiplicity
 _atom_site_fract_x
 _atom_site_fract_y
 _atom_site_fract_z
 _atom_site_occupancy
  Sm  Sm0  1  -0.00000000  0.50000000  0.75171648  1
  Sm  Sm1  1  0.50000000  0.00000000  0.24828352  1
  Cu  Cu0  1  0.50000000  0.50000000  0.50000000  1
  Cu  Cu1  1  -0.00000000  0.00000000  0.50000000  1
  Sb  Sb0  1  0.50000000  0.50000000  0.00000000  1
  Sb  Sb1  1  0.00000000  -0.00000000  0.00000000  1
  Sb  Sb2  1  -0.00000000  0.50000000  0.34821400  1
  Sb  Sb3  1  0.50000000  0.00000000  0.65178600  1
loop_
_geom_bond_atom_site_label_1
_geom_bond_atom_site_label_2
_geom_bond_distance
_geom_bond_site_symmetry_2
Cu0 Sb3 2.648780 1_565
Cu0 Sb3 2.648780 1_555
Cu0 Sb2 2.648780 1_555
Cu0 Sb2 2.648780 1_655
Cu0 Cu1 3.063418 1_565
Cu0 Cu1 3.063418 1_655
Cu0 Cu1 3.063418 1_555
Cu0 Cu1 3.063418 1_665
Cu0 Sm0 3.329119 1_655
Cu0 Sm1 3.329119 1_565
Cu0 Sm1 3.329119 1_555
Cu0 Sm0 3.329119 1_555
Cu1 Sb3 2.648780 1_455
Cu1 Sb3 2.648780 1_555
Cu1 Sb2 2.648780 1_555
Cu1 Sb2 2.648780 1_545
Cu1 Sm0 3.329119 1_555
Cu1 Sm0 3.329119 1_545
Cu1 Sm1 3.329119 1_555
Cu1 Sm1 3.329119 1_455
Sb0 Sb1 3.063418 1_565
Sb0 Sb1 3.063418 1_655
Sb0 Sb1 3.063418 1_555
Sb0 Sb1 3.063418 1_665
Sb0 Sm0 3.303015 1_654
Sb0 Sm0 3.303015 1_554
Sb0 Sm1 3.303015 1_555
Sb0 Sm1 3.303015 1_565
Sb1 Sm0 3.303015 1_544
Sb1 Sm0 3.303015 1_554
Sb1 Sm1 3.303015 1_555
Sb1 Sm1 3.303015 1_455
Sb2 Sm1 3.223624 1_465
Sb2 Sm1 3.223624 1_555
Sb2 Sm1 3.223624 1_455
Sb2 Sm1 3.223624 1_565
Sb3 Sm0 3.223624 1_645
Sb3 Sm0 3.223624 1_555
Sb3 Sm0 3.223624 1_655
Sb3 Sm0 3.223624 1_545
