# generated using pymatgen
data_LiHoF2
_symmetry_space_group_name_H-M   'P 1'
_cell_length_a   7.85855096
_cell_length_b   7.85855096
_cell_length_c   7.85855096
_cell_angle_alpha   132.20023613
_cell_angle_beta   132.20023613
_cell_angle_gamma   69.91295896
_symmetry_Int_Tables_number   1
_chemical_formula_structural   LiHoF2
_chemical_formula_sum   'Li4 Ho4 F8'
_cell_volume   261.15138887
_cell_formula_units_Z   4
loop_
 _symmetry_equiv_pos_site_id
 _symmetry_equiv_pos_as_xyz
  1  'x, y, z'
loop_
 _atom_site_type_symbol
 _atom_site_label
 _atom_site_symmetry_multiplicity
 _atom_site_fract_x
 _atom_site_fract_y
 _atom_site_fract_z
 _atom_site_occupancy
  Li  Li0  1  0.37500000  0.12500000  0.25000000  1
  Li  Li1  1  0.87500000  0.12500000  0.75000000  1
  Li  Li2  1  0.87500000  0.12500000  0.25000000  1
  Li  Li3  1  0.87500000  0.62500000  0.75000000  1
  Ho  Ho0  1  0.87500000  0.62500000  0.25000000  1
  Ho  Ho1  1  0.37500000  0.62500000  0.75000000  1
  Ho  Ho2  1  0.37500000  0.62500000  0.25000000  1
  Ho  Ho3  1  0.37500000  0.12500000  0.75000000  1
  F  F0  1  0.19316700  0.45180500  0.25863800  1
  F  F1  1  0.19316700  0.93453000  0.74136200  1
  F  F2  1  0.20180500  0.44316700  0.75863800  1
  F  F3  1  0.55683300  0.79819500  0.24136200  1
  F  F4  1  0.68453000  0.44316700  0.24136200  1
  F  F5  1  0.55683300  0.31547000  0.75863800  1
  F  F6  1  0.54819500  0.80683300  0.74136200  1
  F  F7  1  0.06547000  0.80683300  0.25863800  1
loop_
_geom_bond_atom_site_label_1
_geom_bond_atom_site_label_2
_geom_bond_distance
_geom_bond_site_symmetry_2
F0 Ho2 2.342935 1_555
F0 Ho1 2.380606 1_555
F0 Ho0 2.380606 1_455
F0 Li1 2.453064 1_454
F0 Li0 2.453064 1_555
F1 Ho3 2.342928 1_565
F1 Ho0 2.380608 1_455
F1 Ho1 2.380612 1_555
F1 Li1 2.453062 1_465
F1 Li0 2.453067 1_566
F2 Ho1 2.342935 1_555
F2 Ho3 2.380606 1_555
F2 Ho2 2.380606 1_556
F2 Li2 2.453064 1_455
F2 Li3 2.453064 1_455
F3 Ho2 2.342935 1_555
F3 Ho0 2.380606 1_555
F3 Ho1 2.380606 1_554
F3 Li0 2.453064 1_565
F3 Li1 2.453064 1_565
F4 Ho0 2.342928 1_555
F4 Ho3 2.380608 1_554
F4 Ho2 2.380612 1_555
F4 Li2 2.453062 1_555
F4 Li3 2.453067 1_555
F5 Ho3 2.342928 1_555
F5 Ho0 2.380608 1_556
F5 Ho1 2.380612 1_555
F5 Li1 2.453062 1_555
F5 Li0 2.453067 1_555
F6 Ho1 2.342935 1_555
F6 Ho3 2.380606 1_565
F6 Ho2 2.380606 1_555
F6 Li3 2.453064 1_555
F6 Li2 2.453064 1_566
F7 Ho0 2.342928 1_455
F7 Ho3 2.380608 1_565
F7 Ho2 2.380612 1_555
F7 Li2 2.453062 1_465
F7 Li3 2.453067 1_454
