# generated using pymatgen
data_LiMnO2
_symmetry_space_group_name_H-M   'P 1'
_cell_length_a   4.16699505
_cell_length_b   7.97828458
_cell_length_c   5.11805869
_cell_angle_alpha   79.41469286
_cell_angle_beta   65.97673804
_cell_angle_gamma   74.85963651
_symmetry_Int_Tables_number   1
_chemical_formula_structural   LiMnO2
_chemical_formula_sum   'Li4 Mn4 O8'
_cell_volume   149.44041984
_cell_formula_units_Z   4
loop_
 _symmetry_equiv_pos_site_id
 _symmetry_equiv_pos_as_xyz
  1  'x, y, z'
loop_
 _atom_site_type_symbol
 _atom_site_label
 _atom_site_symmetry_multiplicity
 _atom_site_fract_x
 _atom_site_fract_y
 _atom_site_fract_z
 _atom_site_occupancy
  Li  Li0  1  0.24766400  0.12496500  0.37619600  1
  Li  Li1  1  0.24766700  0.62496700  0.87618700  1
  Li  Li2  1  0.49947800  0.74859300  0.24877500  1
  Li  Li3  1  0.49948000  0.24859500  0.74876700  1
  Mn  Mn0  1  0.99809000  0.49860200  0.50157200  1
  Mn  Mn1  1  0.74932900  0.87479900  0.62296500  1
  Mn  Mn2  1  0.99807800  0.99855900  0.00163400  1
  Mn  Mn3  1  0.74933200  0.37484800  0.12290900  1
  O  O0  1  0.23169900  0.38254900  0.15049100  1
  O  O1  1  0.23169100  0.88254200  0.65052200  1
  O  O2  1  0.76676300  0.61482400  0.84807700  1
  O  O3  1  0.76675400  0.11482700  0.34809000  1
  O  O4  1  0.51572900  0.99087000  0.97399500  1
  O  O5  1  0.51573600  0.49087900  0.47396900  1
  O  O6  1  0.98072600  0.25855600  0.77644100  1
  O  O7  1  0.98072500  0.75855600  0.27645000  1
loop_
_geom_bond_atom_site_label_1
_geom_bond_atom_site_label_2
_geom_bond_distance
_geom_bond_site_symmetry_2
Li0 O3 2.089388 1_555
Li0 O3 2.089665 1_455
Li0 O0 2.163598 1_555
Li0 O1 2.170250 1_545
Li0 O6 2.212944 1_455
Li0 O4 2.223141 1_544
Li1 O2 2.089397 1_555
Li1 O2 2.089662 1_455
Li1 O1 2.163461 1_555
Li1 O0 2.170166 1_556
Li1 O7 2.213011 1_456
Li1 O5 2.223183 1_555
Li2 O7 2.089057 1_455
Li2 O7 2.089617 1_555
Li2 O5 2.163502 1_555
Li2 O4 2.170436 1_554
Li2 O2 2.215560 1_554
Li2 O1 2.220654 1_555
Li3 O6 2.089066 1_455
Li3 O6 2.089606 1_555
Li3 O4 2.163641 1_545
Li3 O5 2.170523 1_555
Li3 O3 2.215469 1_555
Li3 O0 2.220579 1_556
Mn0 O2 1.918179 1_555
Mn0 O0 1.936447 1_655
Mn0 O5 2.088583 1_655
Mn0 O5 2.088735 1_555
Mn0 O6 2.156798 1_555
Mn0 O7 2.178472 1_555
Mn1 O7 1.918308 1_555
Mn1 O4 1.936309 1_555
Mn1 O1 2.088595 1_555
Mn1 O1 2.088706 1_655
Mn1 O3 2.156701 1_565
Mn1 O2 2.178595 1_555
Mn2 O3 1.918168 1_565
Mn2 O1 1.936427 1_654
Mn2 O4 2.088602 1_654
Mn2 O4 2.088720 1_554
Mn2 O7 2.156403 1_555
Mn2 O6 2.178896 1_564
Mn3 O6 1.918317 1_554
Mn3 O5 1.936269 1_555
Mn3 O0 2.088607 1_555
Mn3 O0 2.088688 1_655
Mn3 O2 2.156275 1_554
Mn3 O3 2.179035 1_555
