# generated using pymatgen
data_MoWSe3S
_symmetry_space_group_name_H-M   'P 1'
_cell_length_a   3.29145642
_cell_length_b   3.29145642
_cell_length_c   37.40797200
_cell_angle_alpha   90.00000000
_cell_angle_beta   90.00000000
_cell_angle_gamma   120.00000850
_symmetry_Int_Tables_number   1
_chemical_formula_structural   MoWSe3S
_chemical_formula_sum   'Mo2 W2 Se6 S2'
_cell_volume   350.97079403
_cell_formula_units_Z   2
loop_
 _symmetry_equiv_pos_site_id
 _symmetry_equiv_pos_as_xyz
  1  'x, y, z'
loop_
 _atom_site_type_symbol
 _atom_site_label
 _atom_site_symmetry_multiplicity
 _atom_site_fract_x
 _atom_site_fract_y
 _atom_site_fract_z
 _atom_site_occupancy
  Mo  Mo0  1  0.00000000  0.00000000  0.09392000  1
  Mo  Mo1  1  0.33333300  0.66666700  0.28179800  1
  W  W0  1  0.00000000  0.00000000  0.46965100  1
  W  W1  1  0.33333300  0.66666700  0.65755200  1
  Se  Se0  1  0.00000000  0.00000000  0.32685300  1
  Se  Se1  1  0.00000000  0.00000000  0.70290200  1
  Se  Se2  1  0.33333300  0.66666700  0.42432200  1
  Se  Se3  1  0.33333300  0.66666700  0.51496800  1
  Se  Se4  1  0.00000000  0.00000000  0.23670400  1
  Se  Se5  1  0.00000000  0.00000000  0.61222800  1
  S  S0  1  0.33333300  0.66666700  0.05292900  1
  S  S1  1  0.33333300  0.66666700  0.13492100  1
loop_
_geom_bond_atom_site_label_1
_geom_bond_atom_site_label_2
_geom_bond_distance
_geom_bond_site_symmetry_2
Mo0 S0 2.441825 1_545
Mo0 S0 2.441827 1_445
Mo0 S0 2.441827 1_555
Mo0 S1 2.442059 1_545
Mo0 S1 2.442061 1_555
Mo0 S1 2.442061 1_445
Mo1 Se0 2.540049 1_565
Mo1 Se0 2.540051 1_665
Mo1 Se0 2.540051 1_555
Mo1 Se4 2.541017 1_565
Mo1 Se4 2.541019 1_555
Mo1 Se4 2.541019 1_665
Se1 W1 2.547385 1_545
Se1 W1 2.547387 1_555
Se1 W1 2.547387 1_445
Se2 W0 2.546862 1_565
Se2 W0 2.546864 1_555
Se2 W0 2.546864 1_665
Se3 W0 2.546563 1_565
Se3 W0 2.546565 1_555
Se3 W0 2.546565 1_665
Se5 W1 2.546737 1_545
Se5 W1 2.546739 1_555
Se5 W1 2.546739 1_445
