# generated using pymatgen
data_KVP2O7
_symmetry_space_group_name_H-M   'P 1'
_cell_length_a   10.25862700
_cell_length_b   7.50195400
_cell_length_c   8.33943567
_cell_angle_alpha   73.11663838
_cell_angle_beta   90.00000000
_cell_angle_gamma   90.00000000
_symmetry_Int_Tables_number   1
_chemical_formula_structural   KVP2O7
_chemical_formula_sum   'K4 V4 P8 O28'
_cell_volume   614.13794134
_cell_formula_units_Z   4
loop_
 _symmetry_equiv_pos_site_id
 _symmetry_equiv_pos_as_xyz
  1  'x, y, z'
loop_
 _atom_site_type_symbol
 _atom_site_label
 _atom_site_symmetry_multiplicity
 _atom_site_fract_x
 _atom_site_fract_y
 _atom_site_fract_z
 _atom_site_occupancy
  K  K0  1  0.17656300  0.17646400  0.44123500  1
  K  K1  1  0.82343700  0.82353600  0.55876500  1
  K  K2  1  0.32343700  0.17646400  0.94123500  1
  K  K3  1  0.67656300  0.82353600  0.05876500  1
  V  V0  1  0.60048000  0.23688500  0.23988000  1
  V  V1  1  0.10048000  0.76311500  0.26012000  1
  V  V2  1  0.39952000  0.76311500  0.76012000  1
  V  V3  1  0.89952000  0.23688500  0.73988000  1
  P  P0  1  0.90129300  0.13151200  0.17119600  1
  P  P1  1  0.59870700  0.13151200  0.67119600  1
  P  P2  1  0.09870700  0.86848800  0.82880400  1
  P  P3  1  0.40129300  0.86848800  0.32880400  1
  P  P4  1  0.86367800  0.44059600  0.30799100  1
  P  P5  1  0.63632200  0.44059600  0.80799100  1
  P  P6  1  0.13632200  0.55940400  0.69200900  1
  P  P7  1  0.36367800  0.55940400  0.19200900  1
  O  O0  1  0.93826400  0.33697700  0.18634000  1
  O  O1  1  0.43826400  0.66302300  0.31366000  1
  O  O2  1  0.06173600  0.66302300  0.81366000  1
  O  O3  1  0.56173600  0.33697700  0.68634000  1
  O  O4  1  0.76428700  0.08041000  0.24660200  1
  O  O5  1  0.26428700  0.91959000  0.25339800  1
  O  O6  1  0.23571300  0.91959000  0.75339800  1
  O  O7  1  0.73571300  0.08041000  0.74660200  1
  O  O8  1  0.42372700  0.36437700  0.23509000  1
  O  O9  1  0.92372700  0.63562300  0.26491000  1
  O  O10  1  0.57627300  0.63562300  0.76491000  1
  O  O11  1  0.07627300  0.36437700  0.73509000  1
  O  O12  1  0.71915200  0.45541700  0.25865900  1
  O  O13  1  0.21915200  0.54458300  0.24134100  1
  O  O14  1  0.28084800  0.54458300  0.74134100  1
  O  O15  1  0.78084800  0.45541700  0.75865900  1
  O  O16  1  0.90555800  0.14132300  0.98790400  1
  O  O17  1  0.40555800  0.85867700  0.51209600  1
  O  O18  1  0.09444200  0.85867700  0.01209600  1
  O  O19  1  0.59444200  0.14132300  0.48790400  1
  O  O20  1  0.89232200  0.32048800  0.48618400  1
  O  O21  1  0.39232200  0.67951200  0.01381600  1
  O  O22  1  0.10767800  0.67951200  0.51381600  1
  O  O23  1  0.60767800  0.32048800  0.98618400  1
  O  O24  1  0.99796100  0.00083200  0.72134000  1
  O  O25  1  0.49796100  0.99916800  0.77866000  1
  O  O26  1  0.00203900  0.99916800  0.27866000  1
  O  O27  1  0.50203900  0.00083200  0.22134000  1
loop_
_geom_bond_atom_site_label_1
_geom_bond_atom_site_label_2
_geom_bond_distance
_geom_bond_site_symmetry_2
K0 O26 2.803589 1_545
K0 O13 2.814655 1_555
K0 O6 2.818657 1_545
K0 O5 2.954755 1_545
K0 O24 2.960037 1_455
K0 O8 3.156599 1_555
K0 O20 3.169505 1_455
K0 O0 3.233870 1_455
K0 O17 3.276139 1_545
K0 O11 3.325325 1_555
K1 O24 2.803589 1_565
K1 O15 2.814655 1_555
K1 O4 2.818657 1_565
K1 O7 2.954755 1_565
K1 O26 2.960037 1_655
K1 O10 3.156599 1_555
K1 O22 3.169505 1_655
K1 O2 3.233870 1_655
K1 O19 3.276139 1_565
K1 O9 3.325325 1_555
K2 O25 2.803589 1_545
K2 O14 2.814655 1_555
K2 O5 2.818657 1_546
K2 O6 2.954755 1_545
K2 O27 2.960037 1_556
K2 O11 3.156599 1_555
K2 O23 3.169505 1_555
K2 O3 3.233870 1_555
K2 O18 3.276139 1_546
K2 O8 3.325325 1_556
K3 O27 2.803589 1_565
K3 O12 2.814655 1_555
K3 O7 2.818657 1_564
K3 O4 2.954755 1_565
K3 O25 2.960037 1_554
K3 O9 3.156599 1_555
K3 O21 3.169505 1_555
K3 O1 3.233870 1_555
K3 O16 3.276139 1_564
K3 O10 3.325325 1_554
O0 P0 1.627497 1_555
O0 P4 1.636154 1_555
O1 P3 1.627497 1_555
O1 P7 1.636154 1_555
O2 P2 1.627497 1_555
O2 P6 1.636154 1_555
O3 P1 1.627497 1_555
O3 P5 1.636154 1_555
O4 P0 1.542010 1_555
O4 V0 2.041261 1_555
O5 P3 1.542010 1_555
O5 V1 2.041261 1_555
O6 P2 1.542010 1_555
O6 V2 2.041261 1_555
O7 P1 1.542010 1_555
O7 V3 2.041261 1_555
O8 P7 1.530964 1_555
O8 V0 2.045001 1_555
O9 P4 1.530964 1_555
O9 V1 2.045001 1_655
O10 P5 1.530964 1_555
O10 V2 2.045001 1_555
O11 P6 1.530964 1_555
O11 V3 2.045001 1_455
O12 P4 1.534034 1_555
O12 V0 2.084091 1_555
O13 P7 1.534034 1_555
O13 V1 2.084091 1_555
O14 P6 1.534034 1_555
O14 V2 2.084091 1_555
O15 P5 1.534034 1_555
O15 V3 2.084091 1_555
O16 P0 1.509455 1_556
O16 V3 1.983604 1_555
O17 P3 1.509455 1_555
O17 V2 1.983604 1_555
O18 P2 1.509455 1_554
O18 V1 1.983604 1_555
O19 P1 1.509455 1_555
O19 V0 1.983604 1_555
O20 P4 1.526030 1_555
O20 V3 2.025878 1_555
O21 P7 1.526030 1_555
O21 V2 2.025878 1_554
O22 P6 1.526030 1_555
O22 V1 2.025878 1_555
O23 P5 1.526030 1_555
O23 V0 2.025878 1_556
O24 P2 1.529776 1_645
O24 V3 2.082959 1_555
O25 P1 1.529776 1_565
O25 V2 2.082959 1_555
O26 P0 1.529776 1_465
O26 V1 2.082959 1_555
O27 P3 1.529776 1_545
O27 V0 2.082959 1_555
