# generated using pymatgen
data_La7SmTiV7O24
_symmetry_space_group_name_H-M   'P 1'
_cell_length_a   7.92779910
_cell_length_b   7.92779910
_cell_length_c   7.92779904
_cell_angle_alpha   89.99598819
_cell_angle_beta   89.99598819
_cell_angle_gamma   89.99598322
_symmetry_Int_Tables_number   1
_chemical_formula_structural   La7SmTiV7O24
_chemical_formula_sum   'La7 Sm1 Ti1 V7 O24'
_cell_volume   498.26215458
_cell_formula_units_Z   1
loop_
 _symmetry_equiv_pos_site_id
 _symmetry_equiv_pos_as_xyz
  1  'x, y, z'
loop_
 _atom_site_type_symbol
 _atom_site_label
 _atom_site_symmetry_multiplicity
 _atom_site_fract_x
 _atom_site_fract_y
 _atom_site_fract_z
 _atom_site_occupancy
  La  La0  1  0.74685400  0.25268900  0.25268900  1
  La  La1  1  0.74730800  0.25316100  0.74730800  1
  La  La2  1  0.74730800  0.74730800  0.25316100  1
  La  La3  1  0.74802600  0.74802600  0.74802600  1
  La  La4  1  0.25268900  0.25268900  0.74685400  1
  La  La5  1  0.25268900  0.74685400  0.25268900  1
  La  La6  1  0.25316100  0.74730800  0.74730800  1
  Sm  Sm0  1  0.25334400  0.25334400  0.25334400  1
  Ti  Ti0  1  0.00082600  0.00082600  0.00082600  1
  V  V0  1  0.00026400  0.00026400  0.49972000  1
  V  V1  1  0.00026400  0.49972000  0.00026400  1
  V  V2  1  0.00036000  0.49960900  0.49960900  1
  V  V3  1  0.49972000  0.00026400  0.00026400  1
  V  V4  1  0.49960900  0.00036000  0.49960900  1
  V  V5  1  0.49960900  0.49960900  0.00036000  1
  V  V6  1  0.49955100  0.49955100  0.49955100  1
  O  O0  1  0.75531600  0.00026000  0.00026000  1
  O  O1  1  0.74893900  0.00020700  0.49976700  1
  O  O2  1  0.74893900  0.49976700  0.00020700  1
  O  O3  1  0.74808900  0.50114700  0.50114700  1
  O  O4  1  0.24509100  0.00135900  0.00135900  1
  O  O5  1  0.25082700  0.00179800  0.49822500  1
  O  O6  1  0.25082700  0.49822500  0.00179800  1
  O  O7  1  0.25152800  0.49666800  0.49666800  1
  O  O8  1  0.00135900  0.24509100  0.00135900  1
  O  O9  1  0.00179800  0.25082700  0.49822500  1
  O  O10  1  0.00026000  0.75531600  0.00026000  1
  O  O11  1  0.00020700  0.74893900  0.49976700  1
  O  O12  1  0.49822500  0.25082700  0.00179800  1
  O  O13  1  0.49666800  0.25152800  0.49666800  1
  O  O14  1  0.49976700  0.74893900  0.00020700  1
  O  O15  1  0.50114700  0.74808900  0.50114700  1
  O  O16  1  0.00135900  0.00135900  0.24509100  1
  O  O17  1  0.00026000  0.00026000  0.75531600  1
  O  O18  1  0.00179800  0.49822500  0.25082700  1
  O  O19  1  0.00020700  0.49976700  0.74893900  1
  O  O20  1  0.49822500  0.00179800  0.25082700  1
  O  O21  1  0.49976700  0.00020700  0.74893900  1
  O  O22  1  0.49666800  0.49666800  0.25152800  1
  O  O23  1  0.50114700  0.50114700  0.74808900  1
loop_
_geom_bond_atom_site_label_1
_geom_bond_atom_site_label_2
_geom_bond_distance
_geom_bond_site_symmetry_2
La0 O22 2.770327 1_555
La0 O13 2.770327 1_555
La0 O3 2.785728 1_555
La0 O12 2.800377 1_555
La0 O20 2.800377 1_555
La0 O1 2.800548 1_555
La0 O2 2.800548 1_555
La0 O9 2.806222 1_655
La0 O18 2.806222 1_655
La0 O0 2.831021 1_555
La0 O16 2.836206 1_655
La0 O8 2.836206 1_655
La1 O23 2.770018 1_555
La1 O3 2.770018 1_555
La1 O2 2.800477 1_556
La1 O19 2.800477 1_655
La1 O1 2.805966 1_555
La1 O21 2.805966 1_555
La1 O13 2.810205 1_555
La1 O9 2.823054 1_655
La1 O12 2.823054 1_556
La1 O17 2.836322 1_655
La1 O0 2.836322 1_556
La1 O8 2.849130 1_656
La2 O15 2.770018 1_555
La2 O3 2.770018 1_555
La2 O1 2.800477 1_565
La2 O11 2.800477 1_655
La2 O2 2.805966 1_555
La2 O14 2.805966 1_555
La2 O22 2.810205 1_555
La2 O20 2.823054 1_565
La2 O18 2.823054 1_655
La2 O10 2.836322 1_655
La2 O0 2.836322 1_565
La2 O16 2.849130 1_665
La3 O3 2.768006 1_555
La3 O15 2.768006 1_555
La3 O23 2.768006 1_555
La3 O21 2.805364 1_565
La3 O19 2.805364 1_655
La3 O14 2.805364 1_556
La3 O2 2.805364 1_556
La3 O11 2.805364 1_655
La3 O1 2.805364 1_565
La3 O0 2.828642 1_566
La3 O10 2.828642 1_656
La3 O17 2.828642 1_665
La4 O7 2.770327 1_555
La4 O13 2.770327 1_555
La4 O23 2.785728 1_555
La4 O9 2.800377 1_555
La4 O5 2.800377 1_555
La4 O19 2.800548 1_555
La4 O21 2.800548 1_555
La4 O12 2.806222 1_556
La4 O6 2.806222 1_556
La4 O17 2.831021 1_555
La4 O8 2.836206 1_556
La4 O4 2.836206 1_556
La5 O22 2.770327 1_555
La5 O7 2.770327 1_555
La5 O15 2.785728 1_555
La5 O6 2.800377 1_555
La5 O18 2.800377 1_555
La5 O11 2.800548 1_555
La5 O14 2.800548 1_555
La5 O5 2.806222 1_565
La5 O20 2.806222 1_565
La5 O10 2.831021 1_555
La5 O16 2.836206 1_565
La5 O4 2.836206 1_565
La6 O23 2.770018 1_555
La6 O15 2.770018 1_555
La6 O14 2.800477 1_556
La6 O21 2.800477 1_565
La6 O11 2.805966 1_555
La6 O19 2.805966 1_555
La6 O7 2.810205 1_555
La6 O5 2.823054 1_565
La6 O6 2.823054 1_556
La6 O17 2.836322 1_565
La6 O10 2.836322 1_556
La6 O4 2.849130 1_566
O0 Ti0 1.946365 1_655
O0 V3 2.026314 1_555
O1 V4 1.976639 1_555
O1 V0 1.992454 1_655
O2 V5 1.976639 1_555
O2 V1 1.992454 1_655
O3 V6 1.970442 1_555
O3 V2 2.000026 1_655
O4 Ti0 1.936494 1_555
O4 V3 2.018684 1_555
O4 Sm0 2.826018 1_555
O5 V4 1.972357 1_555
O5 V0 1.986486 1_555
O5 Sm0 2.783096 1_555
O6 V5 1.972357 1_555
O6 V1 1.986486 1_555
O6 Sm0 2.783096 1_555
O7 V6 1.966545 1_555
O7 V2 1.991479 1_555
O7 Sm0 2.728184 1_555
O8 Ti0 1.936494 1_555
O8 V1 2.018684 1_555
O8 Sm0 2.826018 1_555
O9 V2 1.972357 1_555
O9 V0 1.986486 1_555
O9 Sm0 2.783096 1_555
O10 Ti0 1.946365 1_565
O10 V1 2.026314 1_555
O11 V2 1.976639 1_555
O11 V0 1.992454 1_565
O12 V5 1.972357 1_555
O12 V3 1.986486 1_555
O12 Sm0 2.783096 1_555
O13 V6 1.966545 1_555
O13 V4 1.991479 1_555
O13 Sm0 2.728184 1_555
O14 V5 1.976639 1_555
O14 V3 1.992454 1_565
O15 V6 1.970442 1_555
O15 V4 2.000026 1_565
O16 Ti0 1.936494 1_555
O16 V0 2.018684 1_555
O16 Sm0 2.826018 1_555
O17 Ti0 1.946365 1_556
O17 V0 2.026314 1_555
O18 V2 1.972357 1_555
O18 V1 1.986486 1_555
O18 Sm0 2.783096 1_555
O19 V2 1.976639 1_555
O19 V1 1.992454 1_556
O20 V4 1.972357 1_555
O20 V3 1.986486 1_555
O20 Sm0 2.783096 1_555
O21 V4 1.976639 1_555
O21 V3 1.992454 1_556
O22 V6 1.966545 1_555
O22 V5 1.991479 1_555
O22 Sm0 2.728184 1_555
O23 V6 1.970442 1_555
O23 V5 2.000026 1_556
