# generated using pymatgen
data_Sm2Mn2Ga2Fe13C
_symmetry_space_group_name_H-M   'P 1'
_cell_length_a   6.47061717
_cell_length_b   6.47061717
_cell_length_c   6.48394733
_cell_angle_alpha   83.06918871
_cell_angle_beta   83.06918871
_cell_angle_gamma   82.99644088
_symmetry_Int_Tables_number   1
_chemical_formula_structural   Sm2Mn2Ga2Fe13C
_chemical_formula_sum   'Sm2 Mn2 Ga2 Fe13 C1'
_cell_volume   265.92990546
_cell_formula_units_Z   1
loop_
 _symmetry_equiv_pos_site_id
 _symmetry_equiv_pos_as_xyz
  1  'x, y, z'
loop_
 _atom_site_type_symbol
 _atom_site_label
 _atom_site_symmetry_multiplicity
 _atom_site_fract_x
 _atom_site_fract_y
 _atom_site_fract_z
 _atom_site_occupancy
  Sm  Sm0  1  0.65697140  0.65697140  0.64470677  1
  Sm  Sm1  1  0.34302860  0.34302860  0.35529323  1
  Mn  Mn0  1  0.00000000  0.50000000  0.00000000  1
  Mn  Mn1  1  0.50000000  0.00000000  0.00000000  1
  Ga  Ga0  1  0.89637641  0.89637641  0.89759713  1
  Ga  Ga1  1  0.10362359  0.10362359  0.10240287  1
  Fe  Fe0  1  0.34416553  0.34416553  0.84980425  1
  Fe  Fe1  1  0.34099124  0.84521247  0.34289037  1
  Fe  Fe2  1  0.84521247  0.34099124  0.34289037  1
  Fe  Fe3  1  0.65583447  0.65583447  0.15019575  1
  Fe  Fe4  1  0.65900876  0.15478753  0.65710963  1
  Fe  Fe5  1  0.15478753  0.65900876  0.65710963  1
  Fe  Fe6  1  0.28612593  0.71387407  0.00000000  1
  Fe  Fe7  1  0.70767105  0.00045911  0.29059804  1
  Fe  Fe8  1  0.99954089  0.29232895  0.70940196  1
  Fe  Fe9  1  0.29232895  0.99954089  0.70940196  1
  Fe  Fe10  1  0.00045911  0.70767105  0.29059804  1
  Fe  Fe11  1  0.71387407  0.28612593  0.00000000  1
  Fe  Fe12  1  0.00000000  0.00000000  0.50000000  1
  C  C0  1  0.50000000  0.50000000  0.00000000  1
loop_
_geom_bond_atom_site_label_1
_geom_bond_atom_site_label_2
_geom_bond_distance
_geom_bond_site_symmetry_2
Ga0 Ga1 2.580351 1_666
Ga0 Mn1 2.597252 1_566
Ga0 Mn0 2.597252 1_656
Ga0 Sm0 3.049488 1_555
Ga1 Mn0 2.597252 1_555
Ga1 Mn1 2.597252 1_555
Ga1 Sm1 3.049488 1_555
Fe0 Mn1 2.467896 1_556
Fe0 Mn0 2.467896 1_556
Fe0 Fe4 2.521779 1_555
Fe0 Fe5 2.521779 1_555
Fe0 Fe8 2.580676 1_455
Fe0 Fe9 2.580676 1_545
Fe0 Ga1 2.624484 1_556
Fe1 Fe12 2.464560 1_565
Fe1 Mn1 2.483255 1_565
Fe1 Fe5 2.494676 1_555
Fe1 Fe3 2.521779 1_555
Fe1 Fe10 2.548251 1_555
Fe1 Fe6 2.551727 1_555
Fe1 Ga1 2.628461 1_565
Fe1 Fe7 2.656761 1_565
Fe1 Fe9 2.656932 1_555
Fe1 Sm0 3.045770 1_555
Fe1 Sm1 3.233536 1_565
Fe1 Sm1 3.239173 1_555
Fe2 Mn0 2.483255 1_655
Fe2 Fe4 2.494676 1_555
Fe2 Fe3 2.521779 1_555
Fe2 Fe7 2.548251 1_555
Fe2 Ga1 2.628461 1_655
Fe2 Fe8 2.656932 1_555
Fe2 Sm0 3.045770 1_555
Fe2 Sm1 3.233536 1_655
Fe2 Sm1 3.239173 1_555
Fe3 Mn0 2.467896 1_655
Fe3 Mn1 2.467896 1_565
Fe3 Fe7 2.580676 1_565
Fe3 Ga0 2.624484 1_554
Fe4 Mn1 2.483255 1_556
Fe4 Fe8 2.548251 1_555
Fe4 Ga0 2.628461 1_545
Fe4 Fe9 2.656761 1_545
Fe4 Fe7 2.656932 1_555
Fe4 Sm1 3.045770 1_555
Fe4 Sm0 3.233536 1_545
Fe4 Sm0 3.239173 1_555
Fe5 Mn0 2.483255 1_556
Fe5 Fe9 2.548251 1_555
Fe5 Fe6 2.551727 1_556
Fe5 Ga0 2.628461 1_455
Fe5 Fe8 2.656761 1_455
Fe5 Sm1 3.045770 1_555
Fe5 Sm0 3.233536 1_455
Fe5 Sm0 3.239173 1_555
Fe6 Mn1 2.442890 1_565
Fe6 Mn0 2.442890 1_555
Fe6 Fe9 2.475463 1_554
Fe6 Ga1 2.772023 1_565
Fe6 Ga0 2.772023 1_454
Fe7 Mn1 2.443232 1_555
Fe7 Ga0 2.810790 1_544
Fe7 Ga1 2.822183 1_655
Fe7 Sm0 3.013906 1_545
Fe7 Sm1 3.060494 1_555
Fe8 Mn0 2.443232 1_656
Fe8 Fe9 2.510605 1_645
Fe8 Ga1 2.810790 1_656
Fe8 Ga0 2.822183 1_545
Fe8 Sm1 3.013906 1_655
Fe8 Sm0 3.060494 1_555
Fe9 Mn1 2.443232 1_566
Fe9 Ga1 2.810790 1_566
Fe9 Ga0 2.822183 1_455
Fe9 Sm1 3.013906 1_565
Fe9 Sm0 3.060494 1_555
Fe10 Mn0 2.443232 1_555
Fe10 Fe12 2.457425 1_565
Fe10 Fe6 2.475463 1_555
Fe10 Fe7 2.510605 1_465
Fe10 Fe3 2.580676 1_455
Fe10 Fe2 2.656761 1_455
Fe10 Fe5 2.656932 1_555
Fe10 Ga0 2.810790 1_454
Fe10 Ga1 2.822183 1_565
Fe10 Sm0 3.013906 1_455
Fe10 Sm1 3.060494 1_555
Fe11 Mn0 2.442890 1_655
Fe11 Mn1 2.442890 1_555
Fe11 Fe8 2.475463 1_554
Fe11 Fe7 2.475463 1_555
Fe11 Fe2 2.551727 1_555
Fe11 Fe4 2.551727 1_554
Fe11 Ga1 2.772023 1_655
Fe11 Ga0 2.772023 1_544
Fe12 Fe8 2.457425 1_455
Fe12 Fe7 2.457425 1_455
Fe12 Fe9 2.457425 1_545
Fe12 Fe5 2.464560 1_545
Fe12 Fe4 2.464560 1_455
Fe12 Fe2 2.464560 1_455
Fe12 Ga0 2.611614 1_445
Fe12 Ga1 2.611614 1_555
Fe12 Sm1 3.306033 1_555
Fe12 Sm0 3.306033 1_445
C0 Fe11 1.833932 1_555
C0 Fe6 1.833932 1_555
C0 Fe0 1.924543 1_554
C0 Fe3 1.924543 1_555
C0 Sm0 2.548040 1_554
C0 Sm1 2.548040 1_555
