# generated using pymatgen
data_Ho3(Si3Ru)4
_symmetry_space_group_name_H-M   'P 1'
_cell_length_a   10.10096377
_cell_length_b   10.10096377
_cell_length_c   8.12967700
_cell_angle_alpha   90.00000000
_cell_angle_beta   90.00000000
_cell_angle_gamma   132.55560374
_symmetry_Int_Tables_number   1
_chemical_formula_structural   Ho3(Si3Ru)4
_chemical_formula_sum   'Ho6 Si24 Ru8'
_cell_volume   611.00282866
_cell_formula_units_Z   2
loop_
 _symmetry_equiv_pos_site_id
 _symmetry_equiv_pos_as_xyz
  1  'x, y, z'
loop_
 _atom_site_type_symbol
 _atom_site_label
 _atom_site_symmetry_multiplicity
 _atom_site_fract_x
 _atom_site_fract_y
 _atom_site_fract_z
 _atom_site_occupancy
  Ho  Ho0  1  0.50000000  0.50000000  0.50000000  1
  Ho  Ho1  1  0.00000000  0.00000000  0.00000000  1
  Ho  Ho2  1  0.50378700  0.00378700  0.75000000  1
  Ho  Ho3  1  0.99621300  0.49621300  0.25000000  1
  Ho  Ho4  1  0.49621300  0.99621300  0.25000000  1
  Ho  Ho5  1  0.00378700  0.50378700  0.75000000  1
  Si  Si0  1  0.79516000  0.20484000  0.50000000  1
  Si  Si1  1  0.29516000  0.70484000  0.00000000  1
  Si  Si2  1  0.20484000  0.79516000  0.50000000  1
  Si  Si3  1  0.70484000  0.29516000  0.00000000  1
  Si  Si4  1  0.33332800  0.33332800  0.83338600  1
  Si  Si5  1  0.66667200  0.66667200  0.16661400  1
  Si  Si6  1  0.16667200  0.16667200  0.33338600  1
  Si  Si7  1  0.83332800  0.83332800  0.66661400  1
  Si  Si8  1  0.12329600  0.88909000  0.72874100  1
  Si  Si9  1  0.11091000  0.87670400  0.27125900  1
  Si  Si10  1  0.61091000  0.37670400  0.22874100  1
  Si  Si11  1  0.62329600  0.38909000  0.77125900  1
  Si  Si12  1  0.87670400  0.11091000  0.27125900  1
  Si  Si13  1  0.88909000  0.12329600  0.72874100  1
  Si  Si14  1  0.38909000  0.62329600  0.77125900  1
  Si  Si15  1  0.37670400  0.61091000  0.22874100  1
  Si  Si16  1  0.34654000  0.11238800  0.50712900  1
  Si  Si17  1  0.88761200  0.65346000  0.49287100  1
  Si  Si18  1  0.38761200  0.15346000  0.00712900  1
  Si  Si19  1  0.84654000  0.61238800  0.99287100  1
  Si  Si20  1  0.65346000  0.88761200  0.49287100  1
  Si  Si21  1  0.11238800  0.34654000  0.50712900  1
  Si  Si22  1  0.61238800  0.84654000  0.99287100  1
  Si  Si23  1  0.15346000  0.38761200  0.00712900  1
  Ru  Ru0  1  0.66951400  0.33048600  0.50000000  1
  Ru  Ru1  1  0.16951400  0.83048600  0.00000000  1
  Ru  Ru2  1  0.33048600  0.66951400  0.50000000  1
  Ru  Ru3  1  0.83048600  0.16951400  0.00000000  1
  Ru  Ru4  1  0.12730700  0.12730700  0.62725300  1
  Ru  Ru5  1  0.87269300  0.87269300  0.37274700  1
  Ru  Ru6  1  0.37269300  0.37269300  0.12725300  1
  Ru  Ru7  1  0.62730700  0.62730700  0.87274700  1
loop_
_geom_bond_atom_site_label_1
_geom_bond_atom_site_label_2
_geom_bond_distance
_geom_bond_site_symmetry_2
Ho0 Si7 3.028809 1_555
Ho0 Si6 3.028809 1_555
Ho0 Si4 3.029976 1_555
Ho0 Si5 3.029976 1_555
Ho0 Si20 3.086480 1_555
Ho0 Si17 3.086480 1_555
Ho0 Si21 3.086480 1_555
Ho0 Si16 3.086480 1_555
Ho0 Si11 3.091348 1_555
Ho0 Si15 3.091348 1_555
Ho0 Si10 3.091348 1_555
Ho0 Si14 3.091348 1_555
Ho0 Ru2 3.135162 1_555
Ho0 Ru0 3.135162 1_555
Ho0 Ru4 3.200778 1_555
Ho0 Ru5 3.200778 1_555
Ho0 Ru6 3.202080 1_555
Ho0 Ru7 3.202080 1_555
Ho1 Si5 3.028809 1_445
Ho1 Si4 3.028809 1_554
Ho1 Si7 3.029976 1_444
Ho1 Si6 3.029976 1_555
Ho1 Si22 3.086480 1_444
Ho1 Si19 3.086480 1_444
Ho1 Si18 3.086480 1_555
Ho1 Si23 3.086480 1_555
Ho1 Si9 3.091348 1_545
Ho1 Si12 3.091348 1_455
Ho1 Si8 3.091348 1_544
Ho1 Si13 3.091348 1_454
Ho1 Ru1 3.135162 1_545
Ho1 Ru3 3.135162 1_455
Ho1 Ru6 3.200778 1_555
Ho1 Ru7 3.200778 1_444
Ho1 Ru5 3.202080 1_445
Ho1 Ru4 3.202080 1_554
Ho2 Si0 2.971955 1_555
Ho2 Si3 2.971955 1_556
Ho2 Si1 3.013745 1_546
Ho2 Si2 3.013745 1_545
Ho2 Si16 3.159344 1_555
Ho2 Si22 3.159344 1_545
Ho2 Si8 3.181275 1_545
Ho2 Si14 3.181275 1_545
Ho2 Si11 3.206156 1_555
Ho2 Si13 3.206156 1_555
Ho2 Ru3 3.217266 1_556
Ho2 Ru0 3.217266 1_555
Ho2 Si18 3.229873 1_556
Ho2 Si20 3.229873 1_545
Ho2 Ru2 3.255909 1_545
Ho2 Ru1 3.255909 1_546
Ho3 Si3 2.971955 1_555
Ho3 Si0 2.971955 1_555
Ho3 Si2 3.013745 1_655
Ho3 Si1 3.013745 1_655
Ho3 Si23 3.159344 1_655
Ho3 Si17 3.159344 1_555
Ho3 Si15 3.181275 1_655
Ho3 Si9 3.181275 1_655
Ho3 Si12 3.206156 1_555
Ho3 Si10 3.206156 1_555
Ho3 Ru0 3.217266 1_555
Ho3 Ru3 3.217266 1_555
Ho3 Si21 3.229873 1_655
Ho3 Si19 3.229873 1_554
Ho3 Ru1 3.255909 1_655
Ho3 Ru2 3.255909 1_655
Ho4 Si2 2.971955 1_555
Ho4 Si1 2.971955 1_555
Ho4 Si0 3.013745 1_565
Ho4 Si3 3.013745 1_565
Ho4 Si18 3.159344 1_565
Ho4 Si20 3.159344 1_555
Ho4 Si10 3.181275 1_565
Ho4 Si12 3.181275 1_565
Ho4 Si15 3.206156 1_555
Ho4 Si9 3.206156 1_555
Ho4 Ru2 3.217266 1_555
Ho4 Ru1 3.217266 1_555
Ho4 Si16 3.229873 1_565
Ho4 Si22 3.229873 1_554
Ho4 Ru3 3.255909 1_565
Ho4 Ru0 3.255909 1_565
Ho5 Si2 2.971955 1_555
Ho5 Si1 2.971955 1_556
Ho5 Si3 3.013745 1_456
Ho5 Si0 3.013745 1_455
Ho5 Si21 3.159344 1_555
Ho5 Si19 3.159344 1_455
Ho5 Si13 3.181275 1_455
Ho5 Si11 3.181275 1_455
Ho5 Si14 3.206156 1_555
Ho5 Si8 3.206156 1_555
Ho5 Ru1 3.217266 1_556
Ho5 Ru2 3.217266 1_555
Ho5 Si23 3.229873 1_556
Ho5 Si17 3.229873 1_455
Ho5 Ru0 3.255909 1_455
Ho5 Ru3 3.255909 1_456
Si0 Si12 2.468553 1_555
Si0 Si13 2.468553 1_555
Si0 Si21 2.473064 1_655
Si0 Si20 2.473064 1_545
Si1 Si14 2.468553 1_554
Si1 Si15 2.468553 1_555
Si1 Si23 2.473064 1_555
Si1 Si22 2.473064 1_554
Si2 Si8 2.468553 1_555
Si2 Si9 2.468553 1_555
Si6 Si9 2.630529 1_545
Si7 Si8 2.630529 1_655
Si10 Si3 2.468553 1_555
Si10 Si18 2.557071 1_555
Si10 Si5 2.630529 1_555
Si10 Si19 2.710199 1_554
Si11 Si3 2.468553 1_556
Si11 Si19 2.557071 1_555
Si11 Si4 2.630529 1_555
Si11 Si18 2.710199 1_556
Si12 Si20 2.557071 1_545
Si12 Si6 2.630529 1_655
Si12 Si21 2.710199 1_655
Si13 Si21 2.557071 1_655
Si13 Si7 2.630529 1_545
Si13 Si20 2.710199 1_545
Si14 Si22 2.557071 1_555
Si14 Si4 2.630529 1_555
Si14 Si23 2.710199 1_556
Si15 Si23 2.557071 1_555
Si15 Si5 2.630529 1_555
Si15 Si22 2.710199 1_554
Si16 Si2 2.473064 1_545
Si16 Si8 2.557071 1_545
Si16 Si6 2.635172 1_555
Si16 Si9 2.710199 1_545
Si17 Si2 2.473064 1_655
Si17 Si9 2.557071 1_655
Si17 Si7 2.635172 1_555
Si17 Si8 2.710199 1_655
Si18 Si3 2.473064 1_555
Si18 Si4 2.635172 1_554
Si19 Si3 2.473064 1_556
Si19 Si5 2.635172 1_556
Si20 Si7 2.635172 1_555
Si21 Si6 2.635172 1_555
Si22 Si5 2.635172 1_556
Si23 Si4 2.635172 1_554
Ru0 Si0 2.323823 1_555
Ru0 Si16 2.403817 1_555
Ru0 Si17 2.403817 1_555
Ru0 Si10 2.409414 1_555
Ru0 Si11 2.409414 1_555
Ru1 Si1 2.323823 1_555
Ru1 Si18 2.403817 1_565
Ru1 Si19 2.403817 1_454
Ru1 Si9 2.409414 1_555
Ru1 Si8 2.409414 1_554
Ru2 Si2 2.323823 1_555
Ru2 Si21 2.403817 1_555
Ru2 Si20 2.403817 1_555
Ru2 Si15 2.409414 1_555
Ru2 Si14 2.409414 1_555
Ru3 Si3 2.323823 1_555
Ru3 Si23 2.403817 1_655
Ru3 Si22 2.403817 1_544
Ru3 Si12 2.409414 1_555
Ru3 Si13 2.409414 1_554
Ru4 Si4 2.368940 1_555
Ru4 Si6 2.410370 1_555
Ru4 Si7 2.410584 1_445
Ru4 Si16 2.516273 1_555
Ru4 Si21 2.516273 1_555
Ru4 Si8 2.518017 1_545
Ru4 Si13 2.518017 1_455
Ru5 Si5 2.368940 1_555
Ru5 Si7 2.410370 1_555
Ru5 Si6 2.410584 1_665
Ru5 Si17 2.516273 1_555
Ru5 Si20 2.516273 1_555
Ru5 Si12 2.518017 1_565
Ru5 Si9 2.518017 1_655
Ru6 Si6 2.368940 1_555
Ru6 Si4 2.410370 1_554
Ru6 Si5 2.410584 1_555
Ru6 Si23 2.516273 1_555
Ru6 Si18 2.516273 1_555
Ru6 Si10 2.518017 1_555
Ru6 Si15 2.518017 1_555
Ru7 Si7 2.368940 1_555
Ru7 Si5 2.410370 1_556
Ru7 Si4 2.410584 1_555
Ru7 Si22 2.516273 1_555
Ru7 Si19 2.516273 1_555
Ru7 Si14 2.518017 1_555
Ru7 Si11 2.518017 1_555
