# generated using pymatgen
data_Fe2NiB
_symmetry_space_group_name_H-M   'P 1'
_cell_length_a   4.40348800
_cell_length_b   5.33304600
_cell_length_c   6.61849700
_cell_angle_alpha   90.00000000
_cell_angle_beta   90.00000000
_cell_angle_gamma   90.00000000
_symmetry_Int_Tables_number   1
_chemical_formula_structural   Fe2NiB
_chemical_formula_sum   'Fe8 Ni4 B4'
_cell_volume   155.42881045
_cell_formula_units_Z   4
loop_
 _symmetry_equiv_pos_site_id
 _symmetry_equiv_pos_as_xyz
  1  'x, y, z'
loop_
 _atom_site_type_symbol
 _atom_site_label
 _atom_site_symmetry_multiplicity
 _atom_site_fract_x
 _atom_site_fract_y
 _atom_site_fract_z
 _atom_site_occupancy
  Fe  Fe0  1  0.35332600  0.68079500  0.06069600  1
  Fe  Fe1  1  0.14667400  0.18079500  0.43930400  1
  Fe  Fe2  1  0.64667400  0.31920500  0.56069600  1
  Fe  Fe3  1  0.85332600  0.81920500  0.93930400  1
  Fe  Fe4  1  0.64667400  0.31920500  0.93930400  1
  Fe  Fe5  1  0.85332600  0.81920500  0.56069600  1
  Fe  Fe6  1  0.35332600  0.68079500  0.43930400  1
  Fe  Fe7  1  0.14667400  0.18079500  0.06069600  1
  Ni  Ni0  1  0.86660500  0.53020100  0.25000000  1
  Ni  Ni1  1  0.63339500  0.03020100  0.25000000  1
  Ni  Ni2  1  0.13339500  0.46979900  0.75000000  1
  Ni  Ni3  1  0.36660500  0.96979900  0.75000000  1
  B  B0  1  0.05579400  0.87754700  0.25000000  1
  B  B1  1  0.44420600  0.37754700  0.25000000  1
  B  B2  1  0.94420600  0.12245300  0.75000000  1
  B  B3  1  0.55579400  0.62245300  0.75000000  1
loop_
_geom_bond_atom_site_label_1
_geom_bond_atom_site_label_2
_geom_bond_distance
_geom_bond_site_symmetry_2
B0 Ni1 2.030390 1_465
B0 Ni0 2.031126 1_455
B0 Fe1 2.084558 1_565
B0 Fe7 2.084558 1_565
B0 Fe6 2.094600 1_555
B0 Fe0 2.094600 1_555
B0 Fe3 2.262793 1_454
B0 Fe5 2.262793 1_455
B1 Ni0 2.030390 1_555
B1 Ni1 2.031126 1_555
B1 Fe0 2.084558 1_555
B1 Fe6 2.084558 1_555
B1 Fe1 2.094600 1_555
B1 Fe7 2.094600 1_555
B1 Fe4 2.262793 1_554
B1 Fe2 2.262793 1_555
B2 Ni3 2.030390 1_645
B2 Ni2 2.031126 1_655
B2 Fe5 2.084558 1_545
B2 Fe3 2.084558 1_545
B2 Fe4 2.094600 1_555
B2 Fe2 2.094600 1_555
B2 Fe1 2.262793 1_655
B2 Fe7 2.262793 1_656
B3 Ni2 2.030390 1_555
B3 Ni3 2.031126 1_555
B3 Fe2 2.084558 1_555
B3 Fe4 2.084558 1_555
B3 Fe3 2.094600 1_555
B3 Fe5 2.094600 1_555
B3 Fe6 2.262793 1_555
B3 Fe0 2.262793 1_556
