# generated using pymatgen
data_Mg5(Si4O15)2
_symmetry_space_group_name_H-M   'P 1'
_cell_length_a   13.39151441
_cell_length_b   18.30437884
_cell_length_c   5.35703325
_cell_angle_alpha   90.00000000
_cell_angle_beta   90.00000000
_cell_angle_gamma   90.00000000
_symmetry_Int_Tables_number   1
_chemical_formula_structural   Mg5(Si4O15)2
_chemical_formula_sum   'Mg10 Si16 O60'
_cell_volume   1313.13395238
_cell_formula_units_Z   2
loop_
 _symmetry_equiv_pos_site_id
 _symmetry_equiv_pos_as_xyz
  1  'x, y, z'
loop_
 _atom_site_type_symbol
 _atom_site_label
 _atom_site_symmetry_multiplicity
 _atom_site_fract_x
 _atom_site_fract_y
 _atom_site_fract_z
 _atom_site_occupancy
  Mg  Mg0  1  0.50000000  0.50000000  0.00000000  1
  Mg  Mg1  1  -0.00000000  -0.00000000  0.00000000  1
  Mg  Mg2  1  0.50000000  0.59495002  0.50000000  1
  Mg  Mg3  1  -0.00000000  0.90504998  0.50000000  1
  Mg  Mg4  1  0.50000000  0.40504998  0.50000000  1
  Mg  Mg5  1  -0.00000000  0.09495002  0.50000000  1
  Mg  Mg6  1  0.50000000  0.66727656  -0.00000000  1
  Mg  Mg7  1  -0.00000000  0.83272344  0.00000000  1
  Mg  Mg8  1  0.50000000  0.33272344  0.00000000  1
  Mg  Mg9  1  -0.00000000  0.16727656  -0.00000000  1
  Si  Si0  1  0.29081189  0.58494670  0.82436383  1
  Si  Si1  1  0.70918811  0.58494670  0.17563617  1
  Si  Si2  1  0.20918811  0.91505330  0.82436383  1
  Si  Si3  1  0.79081189  0.91505330  0.17563617  1
  Si  Si4  1  0.70918811  0.41505330  0.17563617  1
  Si  Si5  1  0.29081189  0.41505330  0.82436383  1
  Si  Si6  1  0.79081189  0.08494670  0.17563617  1
  Si  Si7  1  0.20918811  0.08494670  0.82436383  1
  Si  Si8  1  0.29028292  0.66652674  0.31818804  1
  Si  Si9  1  0.70971708  0.66652674  0.68181196  1
  Si  Si10  1  0.20971708  0.83347326  0.31818804  1
  Si  Si11  1  0.79028292  0.83347326  0.68181196  1
  Si  Si12  1  0.70971708  0.33347326  0.68181196  1
  Si  Si13  1  0.29028292  0.33347326  0.31818804  1
  Si  Si14  1  0.79028292  0.16652674  0.68181196  1
  Si  Si15  1  0.20971708  0.16652674  0.31818804  1
  O  O0  1  0.44081660  0.50000000  0.35321834  1
  O  O1  1  0.55918340  0.50000000  0.64678166  1
  O  O2  1  0.05918340  -0.00000000  0.35321834  1
  O  O3  1  0.94081660  -0.00000000  0.64678166  1
  O  O4  1  0.41352038  0.58881057  0.83375134  1
  O  O5  1  0.58647962  0.58881057  0.16624866  1
  O  O6  1  0.08647962  0.91118943  0.83375134  1
  O  O7  1  0.91352038  0.91118943  0.16624866  1
  O  O8  1  0.58647962  0.41118943  0.16624866  1
  O  O9  1  0.41352038  0.41118943  0.83375134  1
  O  O10  1  0.91352038  0.08881057  0.16624866  1
  O  O11  1  0.08647962  0.08881057  0.83375134  1
  O  O12  1  0.41137523  0.66481058  0.30448317  1
  O  O13  1  0.58862477  0.66481058  0.69551683  1
  O  O14  1  0.08862477  0.83518942  0.30448317  1
  O  O15  1  0.91137523  0.83518942  0.69551683  1
  O  O16  1  0.58862477  0.33518942  0.69551683  1
  O  O17  1  0.41137523  0.33518942  0.30448317  1
  O  O18  1  0.91137523  0.16481058  0.69551683  1
  O  O19  1  0.08862477  0.16481058  0.30448317  1
  O  O20  1  0.46849473  0.78279347  0.81200533  1
  O  O21  1  0.53150527  0.78279347  0.18799467  1
  O  O22  1  0.03150527  0.71720653  0.81200533  1
  O  O23  1  0.96849473  0.71720653  0.18799467  1
  O  O24  1  0.53150527  0.21720653  0.18799467  1
  O  O25  1  0.46849473  0.21720653  0.81200533  1
  O  O26  1  0.96849473  0.28279347  0.18799467  1
  O  O27  1  0.03150527  0.28279347  0.81200533  1
  O  O28  1  0.25333302  0.50000000  0.82881388  1
  O  O29  1  0.74666698  0.50000000  0.17118612  1
  O  O30  1  0.24666698  0.00000000  0.82881388  1
  O  O31  1  0.75333302  0.00000000  0.17118612  1
  O  O32  1  0.25000000  0.75000000  0.32705239  1
  O  O33  1  0.75000000  0.75000000  0.67294761  1
  O  O34  1  0.75000000  0.25000000  0.67294761  1
  O  O35  1  0.25000000  0.25000000  0.32705239  1
  O  O36  1  0.25042256  0.62394516  0.56888305  1
  O  O37  1  0.74957744  0.62394516  0.43111695  1
  O  O38  1  0.24957744  0.87605484  0.56888305  1
  O  O39  1  0.75042256  0.87605484  0.43111695  1
  O  O40  1  0.74957744  0.37605484  0.43111695  1
  O  O41  1  0.25042256  0.37605484  0.56888305  1
  O  O42  1  0.75042256  0.12394516  0.43111695  1
  O  O43  1  0.24957744  0.12394516  0.56888305  1
  O  O44  1  0.24334430  0.62729138  0.06690619  1
  O  O45  1  0.75665570  0.62729138  0.93309381  1
  O  O46  1  0.25665570  0.87270862  0.06690619  1
  O  O47  1  0.74334430  0.87270862  0.93309381  1
  O  O48  1  0.75665570  0.37270862  0.93309381  1
  O  O49  1  0.24334430  0.37270862  0.06690619  1
  O  O50  1  0.74334430  0.12729138  0.93309381  1
  O  O51  1  0.25665570  0.12729138  0.06690619  1
  O  O52  1  0.50000000  0.85837526  0.50000000  1
  O  O53  1  -0.00000000  0.64162474  0.50000000  1
  O  O54  1  0.50000000  0.14162474  0.50000000  1
  O  O55  1  -0.00000000  0.35837526  0.50000000  1
  O  O56  1  0.50000000  0.82248093  0.00000000  1
  O  O57  1  -0.00000000  0.67751907  -0.00000000  1
  O  O58  1  0.50000000  0.17751907  -0.00000000  1
  O  O59  1  -0.00000000  0.32248093  0.00000000  1
loop_
_geom_bond_atom_site_label_1
_geom_bond_atom_site_label_2
_geom_bond_distance
_geom_bond_site_symmetry_2
Mg0 O1 2.051481 1_554
Mg0 O0 2.051481 1_555
Mg0 O9 2.185634 1_554
Mg0 O8 2.185634 1_555
Mg0 O5 2.185634 1_555
Mg0 O4 2.185634 1_554
Mg1 O3 2.051481 1_454
Mg1 O2 2.051481 1_555
Mg1 O10 2.185634 1_455
Mg1 O11 2.185634 1_554
Mg1 O7 2.185634 1_445
Mg1 O6 2.185634 1_544
Mg2 O13 2.034891 1_555
Mg2 O12 2.034891 1_555
Mg2 O0 2.065692 1_555
Mg2 O1 2.065692 1_555
Mg2 O5 2.133180 1_555
Mg2 O4 2.133180 1_555
Mg3 O14 2.034891 1_555
Mg3 O15 2.034891 1_455
Mg3 O3 2.065692 1_465
Mg3 O2 2.065692 1_565
Mg3 O6 2.133180 1_555
Mg3 O7 2.133180 1_455
Mg4 O16 2.034891 1_555
Mg4 O17 2.034891 1_555
Mg4 O0 2.065692 1_555
Mg4 O1 2.065692 1_555
Mg4 O9 2.133180 1_555
Mg4 O8 2.133180 1_555
Mg5 O19 2.034891 1_555
Mg5 O18 2.034891 1_455
Mg5 O2 2.065692 1_555
Mg5 O3 2.065692 1_455
Mg5 O10 2.133180 1_455
Mg5 O11 2.133180 1_555
Mg6 O12 2.017710 1_555
Mg6 O13 2.017710 1_554
Mg6 O4 2.048712 1_554
Mg6 O5 2.048712 1_555
Mg6 O20 2.379749 1_554
Mg6 O21 2.379749 1_555
Mg7 O15 2.017710 1_454
Mg7 O14 2.017710 1_555
Mg7 O7 2.048712 1_455
Mg7 O6 2.048712 1_554
Mg7 O23 2.379749 1_455
Mg7 O22 2.379749 1_554
Mg8 O16 2.017710 1_554
Mg8 O17 2.017710 1_555
Mg8 O9 2.048712 1_554
Mg8 O8 2.048712 1_555
Mg8 O24 2.379749 1_555
Mg8 O25 2.379749 1_554
Mg9 O19 2.017710 1_555
Mg9 O18 2.017710 1_454
Mg9 O10 2.048712 1_455
Mg9 O11 2.048712 1_554
Mg9 O26 2.379749 1_455
Mg9 O27 2.379749 1_554
O4 Si0 1.645542 1_555
O5 Si1 1.645542 1_555
O6 Si2 1.645542 1_555
O7 Si3 1.645542 1_555
O8 Si4 1.645542 1_555
O9 Si5 1.645542 1_555
O10 Si6 1.645542 1_555
O11 Si7 1.645542 1_555
O12 Si8 1.623574 1_555
O13 Si9 1.623574 1_555
O14 Si10 1.623574 1_555
O15 Si11 1.623574 1_555
O16 Si12 1.623574 1_555
O17 Si13 1.623574 1_555
O18 Si14 1.623574 1_555
O19 Si15 1.623574 1_555
O20 O56 1.311479 1_556
O21 O56 1.311479 1_555
O22 O57 1.311479 1_556
O23 O57 1.311479 1_655
O24 O58 1.311479 1_555
O25 O58 1.311479 1_556
O26 O59 1.311479 1_655
O27 O59 1.311479 1_556
O28 Si5 1.634067 1_555
O28 Si0 1.634067 1_555
O29 Si4 1.634067 1_555
O29 Si1 1.634067 1_555
O30 Si7 1.634067 1_555
O30 Si2 1.634067 1_545
O31 Si6 1.634067 1_555
O31 Si3 1.634067 1_545
O32 Si10 1.621055 1_555
O32 Si8 1.621055 1_555
O33 Si11 1.621055 1_555
O33 Si9 1.621055 1_555
O34 Si12 1.621055 1_555
O34 Si14 1.621055 1_555
O35 Si13 1.621055 1_555
O35 Si15 1.621055 1_555
O36 Si0 1.635614 1_555
O36 Si8 1.641963 1_555
O37 Si1 1.635614 1_555
O37 Si9 1.641963 1_555
O38 Si2 1.635614 1_555
O38 Si10 1.641963 1_555
O39 Si3 1.635614 1_555
O39 Si11 1.641963 1_555
O40 Si4 1.635614 1_555
O40 Si12 1.641963 1_555
O41 Si5 1.635614 1_555
O41 Si13 1.641963 1_555
O42 Si6 1.635614 1_555
O42 Si14 1.641963 1_555
O43 Si7 1.635614 1_555
O43 Si15 1.641963 1_555
O44 Si0 1.641047 1_554
O44 Si8 1.650135 1_555
O45 Si1 1.641047 1_556
O45 Si9 1.650135 1_555
O46 Si2 1.641047 1_554
O46 Si10 1.650135 1_555
O47 Si3 1.641047 1_556
O47 Si11 1.650135 1_555
O48 Si4 1.641047 1_556
O48 Si12 1.650135 1_555
O49 Si5 1.641047 1_554
O49 Si13 1.650135 1_555
O50 Si6 1.641047 1_556
O50 Si14 1.650135 1_555
O51 Si7 1.641047 1_554
O51 Si15 1.650135 1_555
