# generated using pymatgen
data_CaPr(SbO3)2
_symmetry_space_group_name_H-M   'P 1'
_cell_length_a   4.29250422
_cell_length_b   5.90448427
_cell_length_c   5.90448427
_cell_angle_alpha   89.30649672
_cell_angle_beta   90.00000000
_cell_angle_gamma   90.00000000
_symmetry_Int_Tables_number   1
_chemical_formula_structural   CaPr(SbO3)2
_chemical_formula_sum   'Ca1 Pr1 Sb2 O6'
_cell_volume   149.63833155
_cell_formula_units_Z   1
loop_
 _symmetry_equiv_pos_site_id
 _symmetry_equiv_pos_as_xyz
  1  'x, y, z'
loop_
 _atom_site_type_symbol
 _atom_site_label
 _atom_site_symmetry_multiplicity
 _atom_site_fract_x
 _atom_site_fract_y
 _atom_site_fract_z
 _atom_site_occupancy
  Ca  Ca0  1  0.50000000  0.50000000  0.50000000  1
  Pr  Pr0  1  0.50000000  0.00000000  0.00000000  1
  Sb  Sb0  1  0.00000000  0.00000000  0.50000000  1
  Sb  Sb1  1  0.00000000  0.50000000  0.00000000  1
  O  O0  1  0.50000000  0.00000000  0.50000000  1
  O  O1  1  0.50000000  0.50000000  0.00000000  1
  O  O2  1  0.00000000  0.32785881  0.67214119  1
  O  O3  1  0.00000000  0.67214119  0.32785881  1
  O  O4  1  -0.00000000  0.83842833  0.83842833  1
  O  O5  1  0.00000000  0.16157167  0.16157167  1
loop_
_geom_bond_atom_site_label_1
_geom_bond_atom_site_label_2
_geom_bond_distance
_geom_bond_site_symmetry_2
Ca0 O2 2.578284 1_655
Ca0 O3 2.578284 1_555
Ca0 O2 2.578284 1_555
Ca0 O3 2.578284 1_655
Ca0 O0 2.952242 1_565
Ca0 O1 2.952242 1_556
Ca0 O0 2.952242 1_555
Ca0 O1 2.952242 1_555
O0 Sb0 2.146252 1_555
O0 Sb0 2.146252 1_655
O0 Pr0 2.952242 1_556
O0 Pr0 2.952242 1_555
O1 Sb1 2.146252 1_655
O1 Sb1 2.146252 1_555
O1 Pr0 2.952242 1_565
O1 Pr0 2.952242 1_555
O2 Sb1 2.197311 1_556
O2 Sb0 2.197311 1_555
O3 Sb0 2.197311 1_565
O3 Sb1 2.197311 1_555
O4 Sb0 2.203848 1_565
O4 Sb1 2.203848 1_556
O4 Pr0 2.539420 1_566
O4 Pr0 2.539420 1_466
O5 Sb1 2.203848 1_555
O5 Sb0 2.203848 1_555
O5 Pr0 2.539420 1_555
O5 Pr0 2.539420 1_455
