# generated using pymatgen
data_Li2O
_symmetry_space_group_name_H-M   'P 1'
_cell_length_a   10.11815425
_cell_length_b   9.71550927
_cell_length_c   10.05902595
_cell_angle_alpha   96.37024057
_cell_angle_beta   91.51237550
_cell_angle_gamma   91.25258599
_symmetry_Int_Tables_number   1
_chemical_formula_structural   Li2O
_chemical_formula_sum   'Li68 O34'
_cell_volume   982.07909826
_cell_formula_units_Z   34
loop_
 _symmetry_equiv_pos_site_id
 _symmetry_equiv_pos_as_xyz
  1  'x, y, z'
loop_
 _atom_site_type_symbol
 _atom_site_label
 _atom_site_symmetry_multiplicity
 _atom_site_fract_x
 _atom_site_fract_y
 _atom_site_fract_z
 _atom_site_occupancy
  Li  Li0  1  0.90376500  0.72030900  0.88544300  1
  Li  Li1  1  0.16859500  0.39748400  0.01327700  1
  Li  Li2  1  0.80289900  0.31902600  0.43608800  1
  Li  Li3  1  0.17676500  0.52008900  0.80957100  1
  Li  Li4  1  0.76202400  0.70803400  0.08755600  1
  Li  Li5  1  0.97809400  0.92649700  0.96040600  1
  Li  Li6  1  0.11587500  0.25079700  0.63095500  1
  Li  Li7  1  0.45268300  0.82924700  0.90016100  1
  Li  Li8  1  0.22914100  0.63838700  0.62654000  1
  Li  Li9  1  0.84740500  0.47926400  0.19084200  1
  Li  Li10  1  0.67926900  0.30849900  0.92448600  1
  Li  Li11  1  0.81135900  0.07508700  0.91639200  1
  Li  Li12  1  0.46090900  0.55592300  0.91367500  1
  Li  Li13  1  0.25260300  0.13909900  0.40785900  1
  Li  Li14  1  0.24876500  0.38336800  0.51996900  1
  Li  Li15  1  0.79887700  0.56149600  0.42216400  1
  Li  Li16  1  0.56102900  0.67157200  0.34832500  1
  Li  Li17  1  0.44604500  0.04907300  0.00566900  1
  Li  Li18  1  0.31860700  0.56840000  0.17195000  1
  Li  Li19  1  0.76522600  0.07986400  0.43813200  1
  Li  Li20  1  0.21675900  0.02409800  0.99068300  1
  Li  Li21  1  0.23481200  0.71153300  0.96489800  1
  Li  Li22  1  0.40870800  0.37203000  0.68348400  1
  Li  Li23  1  0.61516700  0.51409500  0.15621900  1
  Li  Li24  1  0.20617600  0.99916700  0.58456900  1
  Li  Li25  1  0.42053400  0.98924700  0.67615800  1
  Li  Li26  1  0.67479300  0.56196800  0.88876100  1
  Li  Li27  1  0.24352600  0.15244500  0.80306100  1
  Li  Li28  1  0.89859200  0.74885400  0.27308900  1
  Li  Li29  1  0.55005900  0.06033100  0.29095300  1
  Li  Li30  1  0.47398600  0.77777200  0.12205700  1
  Li  Li31  1  0.56469600  0.91031300  0.48529400  1
  Li  Li32  1  0.08283800  0.46855300  0.25618700  1
  Li  Li33  1  0.66896000  0.86045300  0.90492900  1
  Li  Li34  1  0.03576700  0.62405800  0.04029800  1
  Li  Li35  1  0.99075200  0.59950000  0.69831000  1
  Li  Li36  1  0.10274200  0.77991900  0.45910100  1
  Li  Li37  1  0.95479000  0.09110500  0.72132200  1
  Li  Li38  1  0.04788400  0.17116400  0.93205400  1
  Li  Li39  1  0.90972100  0.43134600  0.89223200  1
  Li  Li40  1  0.77339700  0.67716100  0.66201100  1
  Li  Li41  1  0.66670000  0.92744700  0.70111400  1
  Li  Li42  1  0.69037700  0.41711300  0.71383900  1
  Li  Li43  1  0.77627400  0.17265100  0.65924800  1
  Li  Li44  1  0.54905600  0.16454100  0.75906200  1
  Li  Li45  1  0.59476900  0.39642600  0.35759100  1
  Li  Li46  1  0.88119600  0.28981200  0.03281500  1
  Li  Li47  1  0.80513600  0.22468200  0.21232300  1
  Li  Li48  1  0.20252800  0.85399300  0.78143100  1
  Li  Li49  1  0.35518100  0.96655800  0.20592500  1
  Li  Li50  1  0.98432100  0.84305000  0.71749500  1
  Li  Li51  1  0.99314600  0.02304100  0.42607200  1
  Li  Li52  1  0.32536500  0.27537000  0.20261500  1
  Li  Li53  1  0.44329900  0.72315400  0.61217200  1
  Li  Li54  1  0.68368400  0.83950300  0.28083900  1
  Li  Li55  1  0.31590800  0.82545200  0.40367300  1
  Li  Li56  1  0.80537500  0.81504400  0.49006300  1
  Li  Li57  1  0.90480900  0.96500600  0.18181200  1
  Li  Li58  1  0.08784700  0.21634500  0.17289200  1
  Li  Li59  1  0.02907500  0.29938300  0.42322100  1
  Li  Li60  1  0.02731800  0.54341300  0.47435900  1
  Li  Li61  1  0.33255200  0.53572500  0.38923100  1
  Li  Li62  1  0.59283700  0.23363900  0.50428500  1
  Li  Li63  1  0.38320400  0.34278300  0.95488300  1
  Li  Li64  1  0.91899700  0.36928000  0.65496500  1
  Li  Li65  1  0.58153100  0.24887500  0.17330700  1
  Li  Li66  1  0.13273700  0.81609800  0.22924200  1
  Li  Li67  1  0.56035000  0.55341000  0.56125000  1
  O  O0  1  0.93829700  0.11204500  0.07840300  1
  O  O1  1  0.62467900  0.74903400  0.56203100  1
  O  O2  1  0.92231900  0.42408700  0.35125500  1
  O  O3  1  0.29678500  0.18914900  0.62758400  1
  O  O4  1  0.73572000  0.64764100  0.25867000  1
  O  O5  1  0.18755400  0.64967300  0.31617400  1
  O  O6  1  0.54054200  0.37955500  0.82906200  1
  O  O7  1  0.62412300  0.07694600  0.59289800  1
  O  O8  1  0.29347300  0.52831200  0.97457400  1
  O  O9  1  0.09539800  0.44569900  0.63036300  1
  O  O10  1  0.71543500  0.35189400  0.09877400  1
  O  O11  1  0.43706900  0.13168800  0.17622400  1
  O  O12  1  0.67397800  0.20267600  0.33567500  1
  O  O13  1  0.82747600  0.89245500  0.81821200  1
  O  O14  1  0.32330000  0.87317700  0.02882500  1
  O  O15  1  0.83995000  0.92710000  0.34987200  1
  O  O16  1  0.46734400  0.49941100  0.26483500  1
  O  O17  1  0.23216100  0.22118800  0.98919800  1
  O  O18  1  0.82569800  0.55145500  0.79071500  1
  O  O19  1  0.29878500  0.83580700  0.61705900  1
  O  O20  1  0.84773300  0.24088000  0.83022400  1
  O  O21  1  0.10231700  0.01708600  0.79943600  1
  O  O22  1  0.19001500  0.30097900  0.33275400  1
  O  O23  1  0.68277200  0.42020300  0.53406500  1
  O  O24  1  0.49544700  0.86416400  0.30720600  1
  O  O25  1  0.37887200  0.53012300  0.58197800  1
  O  O26  1  0.93540500  0.18093000  0.55036400  1
  O  O27  1  0.00254700  0.44107200  0.06152100  1
  O  O28  1  0.16671200  0.95616900  0.38548500  1
  O  O29  1  0.94533000  0.78587700  0.09092700  1
  O  O30  1  0.58945200  0.70747600  0.98023200  1
  O  O31  1  0.94551000  0.71089600  0.55127500  1
  O  O32  1  0.09756100  0.70284800  0.83206700  1
  O  O33  1  0.53248500  0.99053800  0.84338600  1
loop_
_geom_bond_atom_site_label_1
_geom_bond_atom_site_label_2
_geom_bond_distance
_geom_bond_site_symmetry_2
Li0 O18 1.944192 1_555
Li0 O13 2.032308 1_555
Li0 O32 2.052296 1_655
Li0 O29 2.122557 1_556
Li1 O27 1.807239 1_555
Li1 O17 1.835855 1_554
Li1 O8 1.851821 1_554
Li2 O23 1.820829 1_555
Li2 O2 1.850367 1_555
Li2 O12 1.900581 1_555
Li2 O26 2.293141 1_555
Li3 O32 1.956735 1_555
Li3 O8 2.004660 1_555
Li3 O9 2.014015 1_555
Li4 O4 1.902430 1_555
Li4 O29 1.985638 1_555
Li4 O30 2.028101 1_554
Li5 O29 2.025176 1_556
Li5 O13 2.058074 1_555
Li5 O0 2.098290 1_566
Li5 O21 2.313339 1_665
Li6 O9 1.910018 1_555
Li6 O3 1.938356 1_555
Li6 O26 2.048869 1_455
Li7 O14 1.887400 1_556
Li7 O33 1.897711 1_555
Li7 O30 2.046365 1_555
Li8 O25 1.898266 1_555
Li8 O19 2.041951 1_555
Li8 O9 2.290261 1_555
Li8 O32 2.516600 1_555
Li9 O2 1.900205 1_555
Li9 O10 1.944269 1_555
Li9 O4 2.071817 1_555
Li9 O27 2.078494 1_655
Li10 O10 1.783431 1_556
Li10 O6 1.867213 1_555
Li10 O20 2.057221 1_555
Li11 O20 1.944744 1_555
Li11 O13 1.944890 1_545
Li11 O0 2.043010 1_556
Li12 O8 1.840848 1_555
Li12 O30 1.989824 1_555
Li12 O6 2.020559 1_555
Li13 O22 1.930616 1_555
Li13 O28 1.948833 1_545
Li13 O3 2.240807 1_555
Li14 O25 1.957609 1_555
Li14 O9 1.997677 1_555
Li14 O22 2.031288 1_555
Li14 O3 2.331094 1_555
Li15 O2 1.938974 1_555
Li15 O4 2.021598 1_555
Li15 O23 2.207638 1_555
Li15 O31 2.319612 1_555
Li16 O16 1.994618 1_555
Li16 O4 2.011763 1_555
Li16 O24 2.079438 1_555
Li16 O1 2.269135 1_555
Li17 O11 1.817051 1_555
Li17 O33 1.908986 1_544
Li17 O14 2.127890 1_545
Li18 O16 1.922481 1_555
Li18 O8 1.988880 1_554
Li18 O5 2.092750 1_555
Li19 O15 1.831592 1_545
Li19 O12 1.899758 1_555
Li19 O7 2.141984 1_555
Li19 O26 2.186566 1_555
Li20 O14 1.905611 1_546
Li20 O17 1.919507 1_555
Li20 O21 2.212736 1_555
Li21 O14 1.834528 1_556
Li21 O32 1.895493 1_555
Li21 O8 1.900542 1_555
Li22 O6 1.948830 1_555
Li22 O25 1.960829 1_555
Li22 O3 2.100548 1_555
Li23 O16 1.887509 1_555
Li23 O10 1.935276 1_555
Li23 O4 1.949630 1_555
Li24 O19 1.915141 1_555
Li24 O28 2.027112 1_555
Li24 O3 2.040211 1_565
Li24 O21 2.418772 1_565
Li25 O19 1.943617 1_555
Li25 O33 2.001749 1_555
Li25 O7 2.417325 1_565
Li25 O3 2.421377 1_565
Li26 O18 1.838051 1_555
Li26 O30 1.843201 1_555
Li26 O6 2.227586 1_555
Li27 O21 1.917453 1_555
Li27 O17 1.924118 1_555
Li27 O3 1.927360 1_555
Li28 O4 1.894375 1_555
Li28 O15 1.928697 1_555
Li28 O29 1.973618 1_555
Li29 O11 1.806115 1_555
Li29 O12 1.855637 1_555
Li29 O24 1.998060 1_545
Li30 O30 1.942491 1_554
Li30 O24 1.960625 1_555
Li30 O14 2.059728 1_555
Li31 O24 1.908620 1_555
Li31 O7 1.920489 1_565
Li31 O1 1.924739 1_555
Li32 O2 1.970277 1_455
Li32 O5 2.057251 1_555
Li32 O27 2.087141 1_555
Li32 O22 2.175119 1_555
Li33 O13 1.882086 1_555
Li33 O30 1.913007 1_555
Li33 O33 2.022905 1_555
Li34 O27 1.838754 1_555
Li34 O29 1.864989 1_455
Li34 O32 2.401719 1_554
Li35 O32 1.887434 1_655
Li35 O9 1.924005 1_655
Li35 O31 1.977248 1_555
Li35 O18 2.003757 1_555
Li36 O31 2.002375 1_455
Li36 O5 2.028189 1_555
Li36 O28 2.039040 1_555
Li37 O21 1.863631 1_655
Li37 O26 2.019911 1_555
Li37 O20 2.066066 1_555
Li38 O17 1.971028 1_555
Li38 O21 1.988834 1_555
Li38 O0 1.993111 1_456
Li38 O20 2.390330 1_455
Li39 O18 1.840982 1_555
Li39 O27 1.914908 1_656
Li39 O20 1.969561 1_555
Li40 O18 1.946959 1_555
Li40 O1 1.971092 1_555
Li40 O31 2.130574 1_555
Li41 O7 1.957961 1_565
Li41 O13 2.039911 1_555
Li41 O33 2.052395 1_555
Li41 O1 2.130942 1_555
Li42 O23 1.811563 1_555
Li42 O18 1.954035 1_555
Li42 O6 1.984272 1_555
Li43 O7 1.850813 1_555
Li43 O20 1.892221 1_555
Li43 O26 1.976238 1_555
Li44 O7 1.968379 1_555
Li44 O33 1.979591 1_545
Li44 O6 2.133468 1_555
Li45 O16 1.932363 1_555
Li45 O23 1.952942 1_555
Li45 O12 2.053649 1_555
Li46 O27 1.886492 1_655
Li46 O10 1.905560 1_555
Li46 O0 1.931927 1_555
Li46 O20 2.057938 1_554
Li47 O12 1.865426 1_555
Li47 O10 1.990843 1_555
Li47 O0 2.158869 1_555
Li48 O21 1.894173 1_565
Li48 O32 1.915757 1_555
Li48 O19 1.934241 1_555
Li49 O11 1.846869 1_565
Li49 O14 1.923265 1_555
Li49 O24 2.062063 1_555
Li50 O13 1.945654 1_555
Li50 O31 2.016249 1_555
Li50 O21 2.124685 1_665
Li50 O32 2.200755 1_655
Li51 O15 1.890666 1_545
Li51 O28 1.924001 1_645
Li51 O26 1.977295 1_555
Li52 O11 1.816358 1_555
Li52 O22 1.920504 1_555
Li52 O17 2.322869 1_554
Li53 O19 1.843964 1_555
Li53 O1 1.934557 1_555
Li53 O25 1.960613 1_555
Li54 O15 1.859707 1_555
Li54 O4 1.938669 1_555
Li54 O24 1.946229 1_555
Li55 O28 2.011463 1_555
Li55 O24 2.127739 1_555
Li55 O19 2.149391 1_555
Li55 O5 2.210651 1_555
Li56 O31 1.889001 1_555
Li56 O15 1.909529 1_555
Li56 O1 2.097548 1_555
Li57 O0 1.888063 1_565
Li57 O15 1.900079 1_555
Li57 O29 1.931464 1_555
Li58 O0 1.965509 1_455
Li58 O22 1.977948 1_555
Li58 O17 2.389013 1_554
Li59 O2 1.835556 1_455
Li59 O22 1.886888 1_555
Li59 O26 2.049697 1_455
Li59 O9 2.457617 1_555
Li60 O2 1.887919 1_455
Li60 O31 1.935154 1_455
Li60 O9 2.034800 1_555
Li61 O16 1.887714 1_555
Li61 O25 1.989550 1_555
Li61 O5 2.027977 1_555
Li62 O7 1.876055 1_555
Li62 O12 1.900580 1_555
Li62 O23 1.999048 1_555
Li63 O17 1.972252 1_555
Li63 O8 2.028396 1_555
Li63 O6 2.108475 1_555
Li64 O9 1.950468 1_655
Li64 O26 2.019527 1_555
Li64 O18 2.343756 1_555
Li64 O20 2.387434 1_555
Li65 O11 1.835911 1_555
Li65 O10 1.886891 1_555
Li65 O12 1.960705 1_555
Li66 O28 1.979046 1_555
Li66 O5 2.003506 1_555
Li66 O29 2.315887 1_455
Li67 O23 1.814783 1_555
Li67 O25 1.865178 1_555
Li67 O1 1.994563 1_555
