# generated using pymatgen
data_UBe13
_symmetry_space_group_name_H-M   'P 1'
_cell_length_a   7.23990365
_cell_length_b   7.23990383
_cell_length_c   7.23990327
_cell_angle_alpha   60.00000260
_cell_angle_beta   60.00000180
_cell_angle_gamma   59.99999654
_symmetry_Int_Tables_number   1
_chemical_formula_structural   UBe13
_chemical_formula_sum   'U2 Be26'
_cell_volume   268.33872576
_cell_formula_units_Z   2
loop_
 _symmetry_equiv_pos_site_id
 _symmetry_equiv_pos_as_xyz
  1  'x, y, z'
loop_
 _atom_site_type_symbol
 _atom_site_label
 _atom_site_symmetry_multiplicity
 _atom_site_fract_x
 _atom_site_fract_y
 _atom_site_fract_z
 _atom_site_occupancy
  U  U0  1  0.75000000  0.75000000  0.75000000  1
  U  U1  1  0.25000000  0.25000000  0.25000000  1
  Be  Be0  1  0.06200160  0.29031259  0.70968741  1
  Be  Be1  1  0.70968741  0.93799840  0.06200160  1
  Be  Be2  1  0.00000000  0.00000000  -0.00000000  1
  Be  Be3  1  0.50000000  0.50000000  0.50000000  1
  Be  Be4  1  0.29031259  0.06200160  0.93799840  1
  Be  Be5  1  0.43799840  0.56200160  0.79031259  1
  Be  Be6  1  0.79031259  0.20968741  0.43799840  1
  Be  Be7  1  0.43799840  0.79031259  0.20968741  1
  Be  Be8  1  0.56200160  0.20968741  0.79031259  1
  Be  Be9  1  0.56200160  0.79031259  0.43799840  1
  Be  Be10  1  0.79031259  0.56200160  0.20968741  1
  Be  Be11  1  0.93799840  0.29031259  0.06200160  1
  Be  Be12  1  0.06200160  0.93799840  0.29031259  1
  Be  Be13  1  0.70968741  0.29031259  0.93799840  1
  Be  Be14  1  0.06200160  0.70968741  0.93799840  1
  Be  Be15  1  0.70968741  0.06200160  0.29031259  1
  Be  Be16  1  0.93799840  0.06200160  0.70968741  1
  Be  Be17  1  0.29031259  0.93799840  0.70968741  1
  Be  Be18  1  0.29031259  0.70968741  0.06200160  1
  Be  Be19  1  0.79031259  0.43799840  0.56200160  1
  Be  Be20  1  0.20968741  0.79031259  0.56200160  1
  Be  Be21  1  0.20968741  0.43799840  0.79031259  1
  Be  Be22  1  0.43799840  0.20968741  0.56200160  1
  Be  Be23  1  0.56200160  0.43799840  0.20968741  1
  Be  Be24  1  0.20968741  0.56200160  0.43799840  1
  Be  Be25  1  0.93799840  0.70968741  0.29031259  1
loop_
_geom_bond_atom_site_label_1
_geom_bond_atom_site_label_2
_geom_bond_distance
_geom_bond_site_symmetry_2
Be0 Be2 2.149235 1_556
Be0 Be19 2.238828 1_455
Be0 Be24 2.238829 1_555
Be0 Be22 2.240257 1_555
Be0 Be21 2.240257 1_555
Be0 Be11 2.241028 1_456
Be0 Be17 2.241028 1_545
Be0 Be13 2.241028 1_455
Be0 Be16 2.241028 1_455
Be0 Be4 2.337624 1_555
Be0 U1 3.009685 1_555
Be0 U0 3.009685 1_455
Be1 Be2 2.149235 1_665
Be1 Be8 2.238828 1_564
Be1 Be7 2.238829 1_555
Be1 Be9 2.240257 1_555
Be1 Be10 2.240257 1_555
Be1 Be15 2.241028 1_565
Be1 Be14 2.241028 1_654
Be1 Be16 2.241028 1_564
Be1 Be13 2.241028 1_564
Be1 Be25 2.337624 1_555
Be1 U0 3.009685 1_554
Be1 U1 3.009685 1_565
Be2 Be4 2.149235 1_554
Be2 Be25 2.149235 1_445
Be3 Be5 2.149234 1_555
Be3 Be6 2.149235 1_555
Be3 Be8 2.149235 1_555
Be3 Be7 2.149235 1_555
Be3 Be9 2.149235 1_555
Be4 Be7 2.238828 1_546
Be4 Be8 2.238829 1_555
Be4 U1 3.009685 1_556
Be4 U0 3.009685 1_545
Be5 Be8 2.241028 1_555
Be5 Be9 2.241028 1_555
Be5 U0 3.009685 1_555
Be5 U1 3.009685 1_556
Be6 Be8 2.241028 1_555
Be6 U1 3.009685 1_655
Be6 U0 3.009685 1_545
Be7 Be9 2.241028 1_555
Be7 U0 3.009685 1_554
Be7 U1 3.009685 1_565
Be8 U1 3.009685 1_556
Be8 U0 3.009685 1_545
Be9 U0 3.009685 1_555
Be9 U1 3.009685 1_565
Be10 Be3 2.149235 1_555
Be10 Be11 2.238828 1_555
Be10 Be14 2.238829 1_654
Be10 Be25 2.240257 1_555
Be10 Be7 2.241028 1_555
Be10 Be19 2.241028 1_555
Be10 Be23 2.241028 1_555
Be10 Be6 2.241028 1_555
Be10 Be9 2.337624 1_555
Be10 U1 3.009685 1_655
Be10 U0 3.009685 1_554
Be11 Be2 2.149235 1_655
Be11 Be21 2.238829 1_654
Be11 Be23 2.240257 1_555
Be11 Be6 2.240257 1_555
Be11 Be4 2.241028 1_654
Be11 Be13 2.241028 1_554
Be11 Be12 2.241028 1_645
Be11 Be15 2.337624 1_555
Be11 U1 3.009685 1_655
Be11 U0 3.009685 1_554
Be12 Be2 2.149234 1_565
Be12 Be20 2.238828 1_555
Be12 Be6 2.238828 1_465
Be12 Be7 2.240257 1_555
Be12 Be24 2.240257 1_555
Be12 Be15 2.241028 1_465
Be12 Be4 2.241028 1_564
Be12 Be25 2.241028 1_455
Be12 Be18 2.337624 1_555
Be12 U0 3.009685 1_455
Be12 U1 3.009685 1_565
Be13 Be2 2.149235 1_656
Be13 Be23 2.238828 1_556
Be13 Be5 2.238828 1_555
Be13 Be8 2.240257 1_555
Be13 Be19 2.240257 1_555
Be13 Be15 2.241028 1_556
Be13 Be16 2.337624 1_555
Be13 U1 3.009685 1_556
Be13 U0 3.009685 1_555
Be14 Be2 2.149235 1_566
Be14 Be21 2.238828 1_555
Be14 Be5 2.240257 1_555
Be14 Be20 2.240257 1_555
Be14 Be25 2.241028 1_456
Be14 Be18 2.241028 1_556
Be14 Be16 2.241028 1_465
Be14 Be17 2.337624 1_555
Be14 U0 3.009685 1_455
Be14 U1 3.009685 1_556
Be15 Be2 2.149235 1_655
Be15 Be22 2.238828 1_555
Be15 Be9 2.238829 1_545
Be15 Be6 2.240257 1_555
Be15 Be23 2.240257 1_555
Be15 Be25 2.241028 1_545
Be15 U1 3.009685 1_555
Be15 U0 3.009685 1_545
Be16 Be2 2.149234 1_656
Be16 Be6 2.238828 1_555
Be16 Be20 2.238828 1_645
Be16 Be8 2.240257 1_555
Be16 Be19 2.240257 1_555
Be16 Be17 2.241028 1_645
Be16 U1 3.009685 1_655
Be16 U0 3.009685 1_545
Be17 Be2 2.149235 1_566
Be17 Be9 2.238828 1_555
Be17 Be22 2.238829 1_565
Be17 Be20 2.240257 1_555
Be17 Be5 2.240257 1_555
Be17 Be4 2.241028 1_565
Be17 Be18 2.241028 1_556
Be17 U0 3.009685 1_555
Be17 U1 3.009685 1_565
Be18 Be2 2.149235 1_565
Be18 Be5 2.238828 1_554
Be18 Be23 2.238828 1_555
Be18 Be7 2.240257 1_555
Be18 Be24 2.240257 1_555
Be18 Be25 2.241028 1_455
Be18 Be4 2.241028 1_564
Be18 U0 3.009685 1_554
Be18 U1 3.009685 1_555
Be19 Be3 2.149235 1_555
Be19 Be25 2.238829 1_555
Be19 Be5 2.241028 1_555
Be19 Be9 2.241028 1_555
Be19 Be6 2.241028 1_555
Be19 Be8 2.337624 1_555
Be19 U1 3.009685 1_655
Be19 U0 3.009685 1_555
Be20 Be3 2.149235 1_555
Be20 Be7 2.241028 1_555
Be20 Be24 2.241028 1_555
Be20 Be9 2.241028 1_555
Be20 Be21 2.241028 1_555
Be20 Be5 2.337624 1_555
Be20 U0 3.009685 1_455
Be20 U1 3.009685 1_565
Be21 Be3 2.149235 1_555
Be21 Be4 2.240257 1_555
Be21 Be8 2.241028 1_555
Be21 Be24 2.241028 1_555
Be21 Be5 2.241028 1_555
Be21 Be22 2.337624 1_555
Be21 U0 3.009685 1_455
Be21 U1 3.009685 1_556
Be22 Be3 2.149235 1_555
Be22 Be4 2.240257 1_555
Be22 Be8 2.241028 1_555
Be22 Be24 2.241028 1_555
Be22 Be6 2.241028 1_555
Be22 Be23 2.241028 1_555
Be22 U1 3.009685 1_555
Be22 U0 3.009685 1_545
Be23 Be3 2.149234 1_555
Be23 Be24 2.241028 1_555
Be23 Be7 2.241028 1_555
Be23 Be6 2.337624 1_555
Be23 U1 3.009685 1_555
Be23 U0 3.009685 1_554
Be24 Be3 2.149235 1_555
Be24 Be25 2.238828 1_455
Be24 Be7 2.337624 1_555
Be24 U0 3.009685 1_455
Be24 U1 3.009685 1_555
Be25 Be9 2.240257 1_555
Be25 U0 3.009685 1_555
Be25 U1 3.009685 1_655
