# generated using pymatgen
data_In2AgTe3Cl
_symmetry_space_group_name_H-M   'P 1'
_cell_length_a   4.30318600
_cell_length_b   4.30318600
_cell_length_c   11.40048000
_cell_angle_alpha   90.00000000
_cell_angle_beta   90.00000000
_cell_angle_gamma   90.00000000
_symmetry_Int_Tables_number   1
_chemical_formula_structural   In2AgTe3Cl
_chemical_formula_sum   'In2 Ag1 Te3 Cl1'
_cell_volume   211.10735951
_cell_formula_units_Z   1
loop_
 _symmetry_equiv_pos_site_id
 _symmetry_equiv_pos_as_xyz
  1  'x, y, z'
loop_
 _atom_site_type_symbol
 _atom_site_label
 _atom_site_symmetry_multiplicity
 _atom_site_fract_x
 _atom_site_fract_y
 _atom_site_fract_z
 _atom_site_occupancy
  In  In0  1  0.50000000  0.50000000  0.73008400  1
  In  In1  1  0.50000000  0.50000000  0.26991600  1
  Ag  Ag0  1  0.00000000  0.00000000  0.00000000  1
  Te  Te0  1  0.00000000  0.00000000  0.75291000  1
  Te  Te1  1  0.00000000  0.00000000  0.24709000  1
  Te  Te2  1  0.50000000  0.50000000  0.00000000  1
  Cl  Cl0  1  0.50000000  0.50000000  0.50000000  1
loop_
_geom_bond_atom_site_label_1
_geom_bond_atom_site_label_2
_geom_bond_distance
_geom_bond_site_symmetry_2
In0 Te0 3.053919 1_665
In0 Te0 3.053919 1_555
In0 Te0 3.053919 1_565
In0 Te0 3.053919 1_655
In0 Te2 3.077172 1_556
In1 Te1 3.053919 1_555
In1 Te1 3.053919 1_655
In1 Te1 3.053919 1_665
In1 Te1 3.053919 1_565
In1 Te2 3.077172 1_555
Ag0 Te0 2.816945 1_554
Ag0 Te1 2.816945 1_555
Ag0 Te2 3.042812 1_445
Ag0 Te2 3.042812 1_455
Ag0 Te2 3.042812 1_545
Ag0 Te2 3.042812 1_555
Cl0 In0 2.623068 1_555
Cl0 In1 2.623068 1_555
