# generated using pymatgen
data_Li9Mn2Co5O16
_symmetry_space_group_name_H-M   'P 1'
_cell_length_a   2.90675300
_cell_length_b   6.58816661
_cell_length_c   15.40226972
_cell_angle_alpha   88.07397260
_cell_angle_beta   89.26194386
_cell_angle_gamma   77.34052758
_symmetry_Int_Tables_number   1
_chemical_formula_structural   Li9Mn2Co5O16
_chemical_formula_sum   'Li9 Mn2 Co5 O16'
_cell_volume   287.61850497
_cell_formula_units_Z   1
loop_
 _symmetry_equiv_pos_site_id
 _symmetry_equiv_pos_as_xyz
  1  'x, y, z'
loop_
 _atom_site_type_symbol
 _atom_site_label
 _atom_site_symmetry_multiplicity
 _atom_site_fract_x
 _atom_site_fract_y
 _atom_site_fract_z
 _atom_site_occupancy
  Li  Li0  1  0.95436400  0.11080200  0.81626700  1
  Li  Li1  1  0.18007900  0.62453400  0.56438600  1
  Li  Li2  1  0.44269500  0.12656100  0.31125400  1
  Li  Li3  1  0.57456400  0.86941600  0.69109800  1
  Li  Li4  1  0.81389100  0.37677400  0.43374500  1
  Li  Li5  1  0.07779600  0.87513300  0.18890100  1
  Li  Li6  1  0.67259500  0.62919700  0.05631000  1
  Li  Li7  1  0.30295400  0.38765400  0.93443100  1
  Li  Li8  1  0.62774200  0.74549400  0.87726200  1
  Mn  Mn0  1  0.99316900  0.98793600  0.99687100  1
  Mn  Mn1  1  0.87564300  0.24902400  0.62696400  1
  Co  Co0  1  0.23854700  0.52602000  0.75893000  1
  Co  Co1  1  0.49739900  0.99639300  0.49826300  1
  Co  Co2  1  0.76170300  0.50352800  0.25006800  1
  Co  Co3  1  0.12747800  0.75350400  0.37486100  1
  Co  Co4  1  0.36781800  0.25345500  0.12365300  1
  O  O0  1  0.46471500  0.05523700  0.91791000  1
  O  O1  1  0.73684200  0.53290500  0.65991100  1
  O  O2  1  0.96473100  0.05603200  0.40946100  1
  O  O3  1  0.10539400  0.79888400  0.77733900  1
  O  O4  1  0.35147100  0.30306800  0.54264500  1
  O  O5  1  0.62206100  0.80828900  0.28637100  1
  O  O6  1  0.21124500  0.55440200  0.16307000  1
  O  O7  1  0.82236900  0.29409100  0.03572300  1
  O  O8  1  0.40013200  0.19154100  0.70682900  1
  O  O9  1  0.63871200  0.69397100  0.46423300  1
  O  O10  1  0.92003700  0.19747600  0.21181200  1
  O  O11  1  0.02094500  0.95799900  0.59029800  1
  O  O12  1  0.30800100  0.44875400  0.33924100  1
  O  O13  1  0.50752900  0.94939000  0.08374700  1
  O  O14  1  0.13558100  0.71132200  0.97251500  1
  O  O15  1  0.78180000  0.43121500  0.83562500  1
loop_
_geom_bond_atom_site_label_1
_geom_bond_atom_site_label_2
_geom_bond_distance
_geom_bond_site_symmetry_2
Li0 O15 2.090668 1_555
Li0 O3 2.110861 1_645
Li0 O0 2.137487 1_655
Li0 O0 2.177865 1_555
Li0 O8 2.233532 1_655
Li0 O8 2.313790 1_555
Li1 O1 2.102719 1_455
Li1 O4 2.103952 1_555
Li1 O9 2.129078 1_555
Li1 O1 2.172948 1_555
Li1 O9 2.182817 1_455
Li1 O11 2.192825 1_555
Li2 O5 2.094063 1_545
Li2 O2 2.123518 1_555
Li2 O12 2.130184 1_555
Li2 O10 2.138456 1_455
Li2 O2 2.148415 1_455
Li2 O10 2.161170 1_555
Li3 O3 2.007430 1_555
Li3 O3 2.014496 1_655
Li3 O8 2.092687 1_565
Li3 O11 2.157233 1_655
Li3 O11 2.220912 1_555
Li3 O1 2.230619 1_555
Li4 O12 2.051594 1_555
Li4 O2 2.107165 1_555
Li4 O9 2.107185 1_555
Li4 O12 2.145854 1_655
Li4 O4 2.242571 1_555
Li4 O4 2.274006 1_655
Li5 O5 2.088682 1_455
Li5 O10 2.112831 1_465
Li5 O6 2.113509 1_555
Li5 O13 2.141322 1_555
Li5 O5 2.159155 1_555
Li5 O13 2.295790 1_455
Li6 O14 1.999270 1_654
Li6 O14 2.007454 1_554
Li6 O13 2.114187 1_555
Li6 O7 2.187781 1_555
Li6 O6 2.218878 1_555
Li6 O6 2.252081 1_655
Li7 O15 2.104009 1_555
Li7 O15 2.129001 1_455
Li7 O0 2.159872 1_555
Li7 O7 2.163702 1_556
Li7 O14 2.179408 1_555
Li7 O7 2.240990 1_456
Li8 O14 2.066419 1_655
Li8 O14 2.077158 1_555
Li8 O0 2.105970 1_565
Li8 O3 2.131358 1_655
Li8 O15 2.138766 1_555
Li8 O3 2.141831 1_555
Mn0 O14 1.828784 1_655
Mn0 O0 1.934322 1_665
Mn0 O0 1.936129 1_565
Mn0 O13 1.983256 1_556
Mn0 O13 1.988121 1_656
Mn0 O7 2.075434 1_566
Mn1 O1 1.909432 1_555
Mn1 O8 1.929079 1_555
Mn1 O8 1.935146 1_655
Mn1 O4 1.965936 1_655
Mn1 O11 1.971074 1_645
Mn1 O4 1.979139 1_555
Co0 O3 1.785580 1_555
Co0 O15 1.954905 1_455
Co0 O15 1.960931 1_555
Co0 O1 2.095996 1_555
Co0 O1 2.116230 1_455
Co0 O8 2.318607 1_555
Co1 O2 2.005089 1_565
Co1 O11 2.017507 1_555
Co1 O9 2.029548 1_555
Co1 O2 2.043098 1_465
Co1 O11 2.062064 1_655
Co1 O4 2.106908 1_565
Co2 O6 1.931839 1_655
Co2 O12 1.970908 1_555
Co2 O5 2.054539 1_555
Co2 O6 2.063487 1_555
Co2 O10 2.071398 1_555
Co2 O12 2.076038 1_655
Co3 O5 1.983007 1_455
Co3 O9 2.004470 1_555
Co3 O2 2.032705 1_465
Co3 O5 2.049041 1_555
Co3 O12 2.052370 1_555
Co3 O9 2.055404 1_455
Co4 O7 1.932920 1_555
Co4 O10 1.950668 1_455
Co4 O6 2.045740 1_555
Co4 O7 2.065072 1_455
Co4 O13 2.067704 1_545
Co4 O10 2.078301 1_555
