# generated using pymatgen
data_Ca2Y3Si3O13
_symmetry_space_group_name_H-M   'P 1'
_cell_length_a   6.91222000
_cell_length_b   9.44281100
_cell_length_c   9.44404002
_cell_angle_alpha   60.18698106
_cell_angle_beta   90.00000000
_cell_angle_gamma   90.00000000
_symmetry_Int_Tables_number   1
_chemical_formula_structural   Ca2Y3Si3O13
_chemical_formula_sum   'Ca4 Y6 Si6 O26'
_cell_volume   534.83829336
_cell_formula_units_Z   2
loop_
 _symmetry_equiv_pos_site_id
 _symmetry_equiv_pos_as_xyz
  1  'x, y, z'
loop_
 _atom_site_type_symbol
 _atom_site_label
 _atom_site_symmetry_multiplicity
 _atom_site_fract_x
 _atom_site_fract_y
 _atom_site_fract_z
 _atom_site_occupancy
  Ca  Ca0  1  0.50252600  0.66890000  0.66459700  1
  Ca  Ca1  1  0.00252600  0.33110000  0.33540300  1
  Ca  Ca2  1  0.99747400  0.66890000  0.66459700  1
  Ca  Ca3  1  0.49747400  0.33110000  0.33540300  1
  Y  Y0  1  0.25000000  0.00683800  0.24006600  1
  Y  Y1  1  0.75000000  0.99316200  0.75993400  1
  Y  Y2  1  0.25000000  0.24360600  0.75210500  1
  Y  Y3  1  0.75000000  0.75639400  0.24789500  1
  Y  Y4  1  0.75000000  0.24710700  0.99389800  1
  Y  Y5  1  0.25000000  0.75289300  0.00610200  1
  Si  Si0  1  0.25000000  0.39222300  0.97683300  1
  Si  Si1  1  0.75000000  0.60777700  0.02316700  1
  Si  Si2  1  0.25000000  0.63287100  0.38936400  1
  Si  Si3  1  0.75000000  0.36712900  0.61063600  1
  Si  Si4  1  0.75000000  0.02254500  0.36808100  1
  Si  Si5  1  0.25000000  0.97745500  0.63191900  1
  O  O0  1  0.75000000  0.47602700  0.70033300  1
  O  O1  1  0.25000000  0.52397300  0.29966700  1
  O  O2  1  0.25000000  0.88481700  0.52449400  1
  O  O3  1  0.75000000  0.11518300  0.47550600  1
  O  O4  1  0.25000000  0.59183900  0.88383300  1
  O  O5  1  0.75000000  0.40816100  0.11616700  1
  O  O6  1  0.25000000  0.30083900  0.17491900  1
  O  O7  1  0.75000000  0.69916100  0.82508100  1
  O  O8  1  0.25000000  0.52676600  0.58888700  1
  O  O9  1  0.75000000  0.47323400  0.41111300  1
  O  O10  1  0.75000000  0.82402500  0.47455100  1
  O  O11  1  0.25000000  0.17597500  0.52544900  1
  O  O12  1  0.43663600  0.33295400  0.90970900  1
  O  O13  1  0.93663600  0.66704600  0.09029100  1
  O  O14  1  0.06336400  0.33295400  0.90970900  1
  O  O15  1  0.56336400  0.66704600  0.09029100  1
  O  O16  1  0.43678000  0.75867200  0.33088300  1
  O  O17  1  0.93678000  0.24132800  0.66911700  1
  O  O18  1  0.06322000  0.75867200  0.33088300  1
  O  O19  1  0.56322000  0.24132800  0.66911700  1
  O  O20  1  0.93720800  0.08962200  0.24226700  1
  O  O21  1  0.43720800  0.91037800  0.75773300  1
  O  O22  1  0.56279200  0.08962200  0.24226700  1
  O  O23  1  0.06279200  0.91037800  0.75773300  1
  O  O24  1  0.25000000  0.00103200  0.99832700  1
  O  O25  1  0.75000000  0.99896800  0.00167300  1
loop_
_geom_bond_atom_site_label_1
_geom_bond_atom_site_label_2
_geom_bond_distance
_geom_bond_site_symmetry_2
Ca0 O10 2.383056 1_555
Ca0 O7 2.394894 1_555
Ca0 O0 2.397050 1_555
Ca0 O2 2.504406 1_555
Ca0 O8 2.512693 1_555
Ca0 O4 2.522913 1_555
Ca0 O21 2.858541 1_555
Ca0 O16 2.863783 1_555
Ca0 O12 2.885739 1_555
Ca1 O11 2.383056 1_555
Ca1 O6 2.394894 1_555
Ca1 O1 2.397050 1_555
Ca1 O3 2.504406 1_455
Ca1 O9 2.512693 1_455
Ca1 O5 2.522913 1_455
Ca1 O20 2.858541 1_455
Ca1 O17 2.863783 1_455
Ca1 O13 2.885739 1_455
Ca2 O10 2.383056 1_555
Ca2 O7 2.394894 1_555
Ca2 O0 2.397050 1_555
Ca2 O2 2.504406 1_655
Ca2 O8 2.512693 1_655
Ca2 O4 2.522913 1_655
Ca2 O23 2.858541 1_655
Ca2 O18 2.863783 1_655
Ca2 O14 2.885739 1_655
Ca3 O11 2.383056 1_555
Ca3 O6 2.394894 1_555
Ca3 O1 2.397050 1_555
Ca3 O3 2.504406 1_555
Ca3 O9 2.512693 1_555
Ca3 O5 2.522913 1_555
Ca3 O22 2.858541 1_555
Ca3 O19 2.863783 1_555
Ca3 O15 2.885739 1_555
O0 Si3 1.625158 1_555
O0 Y4 2.529825 1_555
O1 Si2 1.625158 1_555
O1 Y5 2.529825 1_555
O2 Si5 1.636130 1_555
O2 Y0 2.337838 1_565
O3 Si4 1.636130 1_555
O3 Y1 2.337838 1_545
O4 Si0 1.636528 1_555
O4 Y5 2.322145 1_556
O5 Si1 1.636528 1_555
O5 Y4 2.322145 1_554
O6 Si0 1.624534 1_554
O6 Y0 2.527331 1_555
O7 Si1 1.624534 1_556
O7 Y1 2.527331 1_555
O8 Si2 1.636216 1_555
O8 Y2 2.329626 1_555
O9 Si3 1.636216 1_555
O9 Y3 2.329626 1_555
O10 Si4 1.628151 1_565
O10 Y3 2.519736 1_555
O11 Si5 1.628151 1_545
O11 Y2 2.519736 1_555
O12 Si0 1.652918 1_555
O12 Y4 2.310876 1_555
O12 Y2 2.416642 1_555
O13 Si1 1.652918 1_555
O13 Y5 2.310876 1_655
O13 Y3 2.416642 1_555
O14 Si0 1.652918 1_555
O14 Y4 2.310876 1_455
O14 Y2 2.416642 1_555
O15 Si1 1.652918 1_555
O15 Y5 2.310876 1_555
O15 Y3 2.416642 1_555
O16 Si2 1.652468 1_555
O16 Y3 2.306274 1_555
O16 Y0 2.428047 1_565
O17 Si3 1.652468 1_555
O17 Y2 2.306274 1_655
O17 Y1 2.428047 1_545
O18 Si2 1.652468 1_555
O18 Y3 2.306274 1_455
O18 Y0 2.428047 1_565
O19 Si3 1.652468 1_555
O19 Y2 2.306274 1_555
O19 Y1 2.428047 1_545
O20 Si4 1.655037 1_555
O20 Y0 2.302669 1_655
O20 Y4 2.432985 1_554
O21 Si5 1.655037 1_555
O21 Y1 2.302669 1_555
O21 Y5 2.432985 1_556
O22 Si4 1.655037 1_555
O22 Y0 2.302669 1_555
O22 Y4 2.432985 1_554
O23 Si5 1.655037 1_555
O23 Y1 2.302669 1_455
O23 Y5 2.432985 1_556
O24 Y5 2.307503 1_546
O24 Y0 2.310740 1_556
O24 Y2 2.314670 1_555
O25 Y4 2.307503 1_564
O25 Y1 2.310740 1_554
O25 Y3 2.314670 1_555
