# generated using pymatgen
data_Dy4CrGe8
_symmetry_space_group_name_H-M   'P 1'
_cell_length_a   4.02277000
_cell_length_b   4.23159500
_cell_length_c   15.85819600
_cell_angle_alpha   90.00000000
_cell_angle_beta   90.00000000
_cell_angle_gamma   90.00000000
_symmetry_Int_Tables_number   1
_chemical_formula_structural   Dy4CrGe8
_chemical_formula_sum   'Dy4 Cr1 Ge8'
_cell_volume   269.94984300
_cell_formula_units_Z   1
loop_
 _symmetry_equiv_pos_site_id
 _symmetry_equiv_pos_as_xyz
  1  'x, y, z'
loop_
 _atom_site_type_symbol
 _atom_site_label
 _atom_site_symmetry_multiplicity
 _atom_site_fract_x
 _atom_site_fract_y
 _atom_site_fract_z
 _atom_site_occupancy
  Dy  Dy0  1  0.25000000  0.00000000  0.40167900  1
  Dy  Dy1  1  0.25000000  0.50000000  0.89402000  1
  Dy  Dy2  1  0.75000000  0.50000000  0.10097900  1
  Dy  Dy3  1  0.75000000  0.00000000  0.60449300  1
  Cr  Cr0  1  0.25000000  0.00000000  0.19365400  1
  Ge  Ge0  1  0.25000000  0.50000000  0.25907100  1
  Ge  Ge1  1  0.25000000  0.00000000  0.75182100  1
  Ge  Ge2  1  0.75000000  0.00000000  0.26633800  1
  Ge  Ge3  1  0.75000000  0.50000000  0.74752200  1
  Ge  Ge4  1  0.25000000  0.00000000  0.04237000  1
  Ge  Ge5  1  0.25000000  0.50000000  0.55464700  1
  Ge  Ge6  1  0.75000000  0.50000000  0.44550000  1
  Ge  Ge7  1  0.75000000  0.00000000  0.93720600  1
loop_
_geom_bond_atom_site_label_1
_geom_bond_atom_site_label_2
_geom_bond_distance
_geom_bond_site_symmetry_2
Dy0 Ge2 2.941448 1_455
Dy0 Ge2 2.941448 1_555
Dy0 Ge6 3.000864 1_445
Dy0 Ge6 3.000864 1_545
Dy0 Ge6 3.000864 1_455
Dy0 Ge6 3.000864 1_555
Dy0 Ge0 3.096935 1_555
Dy0 Ge0 3.096935 1_545
Dy0 Ge5 3.218864 1_545
Dy0 Ge5 3.218864 1_555
Dy1 Ge7 2.998548 1_555
Dy1 Ge7 2.998548 1_465
Dy1 Ge7 2.998548 1_455
Dy1 Ge7 2.998548 1_565
Dy1 Ge3 3.072930 1_455
Dy1 Ge3 3.072930 1_555
Dy1 Ge1 3.092202 1_555
Dy1 Ge1 3.092202 1_565
Dy1 Ge4 3.164041 1_566
Dy1 Ge4 3.164041 1_556
Dy2 Ge4 3.063677 1_655
Dy2 Ge4 3.063677 1_555
Dy2 Ge4 3.063677 1_565
Dy2 Ge4 3.063677 1_665
Dy2 Ge0 3.214186 1_555
Dy2 Ge0 3.214186 1_655
Dy2 Ge7 3.349889 1_564
Dy2 Ge7 3.349889 1_554
Dy2 Ge2 3.369426 1_565
Dy2 Ge2 3.369426 1_555
Dy3 Ge5 3.024419 1_655
Dy3 Ge5 3.024419 1_545
Dy3 Ge5 3.024419 1_645
Dy3 Ge5 3.024419 1_555
Dy3 Ge1 3.082893 1_555
Dy3 Ge1 3.082893 1_655
Dy3 Ge3 3.101814 1_545
Dy3 Ge3 3.101814 1_555
Dy3 Ge6 3.291469 1_545
Dy3 Ge6 3.291469 1_555
Cr0 Ge2 2.318241 1_555
Cr0 Ge2 2.318241 1_455
Cr0 Ge0 2.356436 1_545
Cr0 Ge0 2.356436 1_555
Cr0 Ge4 2.399091 1_555
Cr0 Dy2 3.268358 1_455
Cr0 Dy2 3.268358 1_445
Cr0 Dy2 3.268358 1_555
Cr0 Dy2 3.268358 1_545
Ge1 Ge3 2.920088 1_545
Ge1 Ge3 2.920088 1_555
Ge1 Ge3 2.920088 1_455
Ge1 Ge3 2.920088 1_445
Ge4 Ge7 2.612840 1_554
Ge4 Ge7 2.612840 1_454
Ge5 Ge6 2.653601 1_455
Ge5 Ge6 2.653601 1_555
