# generated using pymatgen
data_K2B2(SO4)3
_symmetry_space_group_name_H-M   'P 1'
_cell_length_a   10.66709100
_cell_length_b   10.66709100
_cell_length_c   10.66709100
_cell_angle_alpha   90.00000000
_cell_angle_beta   90.00000000
_cell_angle_gamma   90.00000000
_symmetry_Int_Tables_number   1
_chemical_formula_structural   K2B2(SO4)3
_chemical_formula_sum   'K8 B8 S12 O48'
_cell_volume   1213.77447450
_cell_formula_units_Z   4
loop_
 _symmetry_equiv_pos_site_id
 _symmetry_equiv_pos_as_xyz
  1  'x, y, z'
loop_
 _atom_site_type_symbol
 _atom_site_label
 _atom_site_symmetry_multiplicity
 _atom_site_fract_x
 _atom_site_fract_y
 _atom_site_fract_z
 _atom_site_occupancy
  K  K0  1  0.81774300  0.81774300  0.81774300  1
  K  K1  1  0.68225700  0.18225700  0.31774300  1
  K  K2  1  0.18225700  0.31774300  0.68225700  1
  K  K3  1  0.31774300  0.68225700  0.18225700  1
  K  K4  1  0.04902700  0.04902700  0.04902700  1
  K  K5  1  0.45097300  0.95097300  0.54902700  1
  K  K6  1  0.95097300  0.54902700  0.45097300  1
  K  K7  1  0.54902700  0.45097300  0.95097300  1
  B  B0  1  0.51735200  0.51735200  0.51735200  1
  B  B1  1  0.98264800  0.48264800  0.01735200  1
  B  B2  1  0.48264800  0.01735200  0.98264800  1
  B  B3  1  0.01735200  0.98264800  0.48264800  1
  B  B4  1  0.27733000  0.27733000  0.27733000  1
  B  B5  1  0.22267000  0.72267000  0.77733000  1
  B  B6  1  0.72267000  0.77733000  0.22267000  1
  B  B7  1  0.77733000  0.22267000  0.72267000  1
  S  S0  1  0.04493600  0.20893900  0.37153700  1
  S  S1  1  0.45506400  0.79106100  0.87153700  1
  S  S2  1  0.95506400  0.70893900  0.12846300  1
  S  S3  1  0.37153700  0.04493600  0.20893900  1
  S  S4  1  0.54493600  0.29106100  0.62846300  1
  S  S5  1  0.87153700  0.45506400  0.79106100  1
  S  S6  1  0.12846300  0.95506400  0.70893900  1
  S  S7  1  0.62846300  0.54493600  0.29106100  1
  S  S8  1  0.20893900  0.37153700  0.04493600  1
  S  S9  1  0.70893900  0.12846300  0.95506400  1
  S  S10  1  0.29106100  0.62846300  0.54493600  1
  S  S11  1  0.79106100  0.87153700  0.45506400  1
  O  O0  1  0.22456100  0.52148100  0.49017600  1
  O  O1  1  0.27543900  0.47851900  0.99017600  1
  O  O2  1  0.77543900  0.02148100  0.00982400  1
  O  O3  1  0.49017600  0.22456100  0.52148100  1
  O  O4  1  0.72456100  0.97851900  0.50982400  1
  O  O5  1  0.99017600  0.27543900  0.47851900  1
  O  O6  1  0.00982400  0.77543900  0.02148100  1
  O  O7  1  0.50982400  0.72456100  0.97851900  1
  O  O8  1  0.52148100  0.49017600  0.22456100  1
  O  O9  1  0.02148100  0.00982400  0.77543900  1
  O  O10  1  0.97851900  0.50982400  0.72456100  1
  O  O11  1  0.47851900  0.99017600  0.27543900  1
  O  O12  1  0.98220700  0.05321500  0.37968900  1
  O  O13  1  0.51779300  0.94678500  0.87968900  1
  O  O14  1  0.01779300  0.55321500  0.12031100  1
  O  O15  1  0.37968900  0.98220700  0.05321500  1
  O  O16  1  0.48220700  0.44678500  0.62031100  1
  O  O17  1  0.87968900  0.51779300  0.94678500  1
  O  O18  1  0.12031100  0.01779300  0.55321500  1
  O  O19  1  0.62031100  0.48220700  0.44678500  1
  O  O20  1  0.05321500  0.37968900  0.98220700  1
  O  O21  1  0.55321500  0.12031100  0.01779300  1
  O  O22  1  0.44678500  0.62031100  0.48220700  1
  O  O23  1  0.94678500  0.87968900  0.51779300  1
  O  O24  1  0.20407600  0.24924100  0.38187000  1
  O  O25  1  0.29592400  0.75075900  0.88187000  1
  O  O26  1  0.79592400  0.74924100  0.11813000  1
  O  O27  1  0.38187000  0.20407600  0.24924100  1
  O  O28  1  0.70407600  0.25075900  0.61813000  1
  O  O29  1  0.88187000  0.29592400  0.75075900  1
  O  O30  1  0.11813000  0.79592400  0.74924100  1
  O  O31  1  0.61813000  0.70407600  0.25075900  1
  O  O32  1  0.24924100  0.38187000  0.20407600  1
  O  O33  1  0.74924100  0.11813000  0.79592400  1
  O  O34  1  0.25075900  0.61813000  0.70407600  1
  O  O35  1  0.75075900  0.88187000  0.29592400  1
  O  O36  1  0.00100900  0.74339900  0.25259700  1
  O  O37  1  0.49899100  0.25660100  0.75259700  1
  O  O38  1  0.99899100  0.24339900  0.24740300  1
  O  O39  1  0.25259700  0.00100900  0.74339900  1
  O  O40  1  0.50100900  0.75660100  0.74740300  1
  O  O41  1  0.75259700  0.49899100  0.25660100  1
  O  O42  1  0.24740300  0.99899100  0.24339900  1
  O  O43  1  0.74740300  0.50100900  0.75660100  1
  O  O44  1  0.74339900  0.25259700  0.00100900  1
  O  O45  1  0.24339900  0.24740300  0.99899100  1
  O  O46  1  0.75660100  0.74740300  0.50100900  1
  O  O47  1  0.25660100  0.75259700  0.49899100  1
loop_
_geom_bond_atom_site_label_1
_geom_bond_atom_site_label_2
_geom_bond_distance
_geom_bond_site_symmetry_2
K0 O2 3.020763 1_566
K0 O6 3.020763 1_656
K0 O9 3.020763 1_665
K0 O33 3.294749 1_565
K0 O30 3.294749 1_655
K0 O26 3.294749 1_556
K1 O3 3.020763 1_555
K1 O4 3.020763 1_545
K1 O11 3.020763 1_545
K1 O27 3.294749 1_555
K1 O28 3.294749 1_555
K1 O35 3.294749 1_545
K2 O0 3.020763 1_555
K2 O10 3.020763 1_455
K2 O5 3.020763 1_455
K2 O24 3.294749 1_555
K2 O34 3.294749 1_555
K2 O29 3.294749 1_455
K3 O8 3.020763 1_555
K3 O7 3.020763 1_554
K3 O1 3.020763 1_554
K3 O32 3.294749 1_555
K3 O25 3.294749 1_554
K3 O31 3.294749 1_555
K4 O9 2.962804 1_554
K4 O2 2.962804 1_455
K4 O6 2.962804 1_545
K4 O42 3.010258 1_545
K4 O45 3.010258 1_554
K4 O38 3.010258 1_455
K5 O11 2.962804 1_555
K5 O3 2.962804 1_565
K5 O4 2.962804 1_555
K5 O39 3.010258 1_565
K5 O47 3.010258 1_555
K5 O40 3.010258 1_555
K6 O5 2.962804 1_555
K6 O0 2.962804 1_655
K6 O10 2.962804 1_555
K6 O36 3.010258 1_655
K6 O41 3.010258 1_555
K6 O46 3.010258 1_555
K7 O1 2.962804 1_555
K7 O8 2.962804 1_556
K7 O7 2.962804 1_555
K7 O44 3.010258 1_556
K7 O43 3.010258 1_555
K7 O37 3.010258 1_555
B0 O22 1.383248 1_555
B0 O19 1.383248 1_555
B0 O16 1.383248 1_555
B1 O20 1.383248 1_654
B1 O14 1.383248 1_655
B1 O17 1.383248 1_554
B2 O15 1.383248 1_546
B2 O21 1.383248 1_556
B2 O13 1.383248 1_545
B3 O12 1.383248 1_465
B3 O18 1.383248 1_565
B3 O23 1.383248 1_455
B4 O32 1.394240 1_555
B4 O27 1.394240 1_555
B4 O24 1.394240 1_555
B5 O25 1.394240 1_555
B5 O30 1.394240 1_555
B5 O34 1.394240 1_555
B6 O35 1.394240 1_555
B6 O26 1.394240 1_555
B6 O31 1.394240 1_555
B7 O29 1.394240 1_555
B7 O33 1.394240 1_555
B7 O28 1.394240 1_555
O0 S10 1.465165 1_555
O1 S8 1.465165 1_556
O2 S9 1.465165 1_554
O3 S4 1.465165 1_555
O4 S11 1.465165 1_555
O5 S0 1.465165 1_655
O6 S2 1.465165 1_455
O7 S1 1.465165 1_555
O8 S7 1.465165 1_555
O9 S6 1.465165 1_545
O10 S5 1.465165 1_555
O11 S3 1.465165 1_565
O12 S0 1.792939 1_655
O13 S1 1.792939 1_555
O14 S2 1.792939 1_455
O15 S3 1.792939 1_565
O16 S4 1.792939 1_555
O17 S5 1.792939 1_555
O18 S6 1.792939 1_545
O19 S7 1.792939 1_555
O20 S8 1.792939 1_556
O21 S9 1.792939 1_554
O22 S10 1.792939 1_555
O23 S11 1.792939 1_555
O24 S0 1.754617 1_555
O25 S1 1.754617 1_555
O26 S2 1.754617 1_555
O27 S3 1.754617 1_555
O28 S4 1.754617 1_555
O29 S5 1.754617 1_555
O30 S6 1.754617 1_555
O31 S7 1.754617 1_555
O32 S8 1.754617 1_555
O33 S9 1.754617 1_555
O34 S10 1.754617 1_555
O35 S11 1.754617 1_555
O36 S2 1.459002 1_455
O37 S4 1.459002 1_555
O38 S0 1.459002 1_655
O39 S6 1.459002 1_545
O40 S1 1.459002 1_555
O41 S7 1.459002 1_555
O42 S3 1.459002 1_565
O43 S5 1.459002 1_555
O44 S9 1.459002 1_554
O45 S8 1.459002 1_556
O46 S11 1.459002 1_555
O47 S10 1.459002 1_555
