# generated using pymatgen
data_Li5Mn3O8
_symmetry_space_group_name_H-M   'P 1'
_cell_length_a   5.00093446
_cell_length_b   7.80630170
_cell_length_c   7.80950761
_cell_angle_alpha   81.39415987
_cell_angle_beta   77.94879672
_cell_angle_gamma   102.10910387
_symmetry_Int_Tables_number   1
_chemical_formula_structural   Li5Mn3O8
_chemical_formula_sum   'Li10 Mn6 O16'
_cell_volume   285.49362460
_cell_formula_units_Z   2
loop_
 _symmetry_equiv_pos_site_id
 _symmetry_equiv_pos_as_xyz
  1  'x, y, z'
loop_
 _atom_site_type_symbol
 _atom_site_label
 _atom_site_symmetry_multiplicity
 _atom_site_fract_x
 _atom_site_fract_y
 _atom_site_fract_z
 _atom_site_occupancy
  Li  Li0  1  0.00009400  0.37502600  0.87497500  1
  Li  Li1  1  0.00000000  0.87499800  0.37495700  1
  Li  Li2  1  0.99627600  0.62771600  0.12234500  1
  Li  Li3  1  0.00380000  0.12231100  0.62761200  1
  Li  Li4  1  0.49971200  0.12635500  0.12660000  1
  Li  Li5  1  0.50028200  0.62370600  0.62335500  1
  Li  Li6  1  0.49581700  0.49737500  0.99035000  1
  Li  Li7  1  0.50411600  0.99027800  0.49738600  1
  Li  Li8  1  0.50419400  0.25260200  0.75960900  1
  Li  Li9  1  0.49578600  0.75977200  0.25255600  1
  Mn  Mn0  1  0.50013500  0.87506700  0.87487100  1
  Mn  Mn1  1  0.49994500  0.37498300  0.37496100  1
  Mn  Mn2  1  0.00020300  0.50259800  0.50245500  1
  Mn  Mn3  1  0.99941400  0.00156500  0.00192600  1
  Mn  Mn4  1  0.99972200  0.24740100  0.24761400  1
  Mn  Mn5  1  0.00040800  0.74821800  0.74823500  1
  O  O0  1  0.22258600  0.25477500  0.01856900  1
  O  O1  1  0.22365100  0.73161700  0.49458800  1
  O  O2  1  0.77733900  0.49525500  0.73155000  1
  O  O3  1  0.77631100  0.01840900  0.25545300  1
  O  O4  1  0.24169000  0.48286600  0.26712900  1
  O  O5  1  0.26931800  0.99378900  0.75542200  1
  O  O6  1  0.73077600  0.75616300  0.99456000  1
  O  O7  1  0.75821700  0.26709800  0.48292700  1
  O  O8  1  0.74872000  0.60031500  0.38038800  1
  O  O9  1  0.74892600  0.10138600  0.88217500  1
  O  O10  1  0.74837100  0.36965400  0.14972100  1
  O  O11  1  0.74929400  0.86775300  0.64882900  1
  O  O12  1  0.25117200  0.64861400  0.86778300  1
  O  O13  1  0.25127400  0.14968600  0.36966100  1
  O  O14  1  0.25082600  0.88225800  0.10112200  1
  O  O15  1  0.25162300  0.38038900  0.60031400  1
loop_
_geom_bond_atom_site_label_1
_geom_bond_atom_site_label_2
_geom_bond_distance
_geom_bond_site_symmetry_2
Li0 O0 2.005230 1_556
Li0 O2 2.005358 1_455
Li0 O12 2.224990 1_555
Li0 O9 2.225476 1_455
Li0 O15 2.238141 1_555
Li0 O10 2.239028 1_456
Li1 O3 2.006081 1_465
Li1 O1 2.006287 1_555
Li1 O14 2.227930 1_555
Li1 O11 2.227986 1_455
Li1 O8 2.235801 1_455
Li1 O13 2.236079 1_565
Li2 O14 2.085274 1_655
Li2 O10 2.086519 1_555
Li2 O8 2.087472 1_555
Li2 O12 2.088346 1_654
Li2 O6 2.139293 1_554
Li2 O4 2.200540 1_655
Li3 O11 2.085298 1_445
Li3 O15 2.086572 1_555
Li3 O13 2.086761 1_555
Li3 O9 2.088268 1_455
Li3 O5 2.139779 1_545
Li3 O7 2.200493 1_455
Li4 O10 2.095634 1_555
Li4 O13 2.096071 1_555
Li4 O14 2.107492 1_545
Li4 O3 2.110108 1_555
Li4 O9 2.110639 1_554
Li4 O0 2.110795 1_555
Li5 O15 2.095530 1_555
Li5 O8 2.095651 1_555
Li5 O11 2.107436 1_555
Li5 O1 2.109743 1_555
Li5 O12 2.110271 1_555
Li5 O2 2.111236 1_555
Li6 O0 2.041039 1_556
Li6 O6 2.122020 1_555
Li6 O12 2.136287 1_555
Li6 O2 2.213331 1_555
Li6 O10 2.225230 1_556
Li6 O4 2.240387 1_556
Li7 O3 2.036515 1_565
Li7 O5 2.117135 1_555
Li7 O11 2.139154 1_555
Li7 O1 2.209671 1_555
Li7 O13 2.226567 1_565
Li7 O7 2.238790 1_565
Li8 O2 2.041377 1_555
Li8 O5 2.121986 1_545
Li8 O9 2.136514 1_555
Li8 O0 2.214614 1_556
Li8 O15 2.225183 1_555
Li8 O7 2.239589 1_555
Li9 O1 2.036944 1_555
Li9 O6 2.117426 1_554
Li9 O14 2.138111 1_555
Li9 O3 2.209874 1_565
Li9 O8 2.227563 1_555
Li9 O4 2.239155 1_555
Mn0 O5 1.923861 1_555
Mn0 O6 1.924924 1_555
Mn0 O9 1.951951 1_565
Mn0 O12 1.952651 1_555
Mn0 O11 1.952838 1_555
Mn0 O14 1.954158 1_556
Mn1 O13 1.940888 1_555
Mn1 O8 1.941625 1_555
Mn1 O10 1.941745 1_555
Mn1 O15 1.942368 1_555
Mn1 O4 1.945419 1_555
Mn1 O7 1.946030 1_555
Mn2 O1 1.883870 1_555
Mn2 O2 1.885806 1_455
Mn2 O8 1.938505 1_455
Mn2 O15 1.939421 1_555
Mn2 O7 2.023605 1_455
Mn2 O4 2.023760 1_555
Mn3 O14 1.931420 1_645
Mn3 O9 1.931738 1_554
Mn3 O0 2.093202 1_655
Mn3 O3 2.097437 1_555
Mn3 O6 2.112695 1_544
Mn3 O5 2.125043 1_644
Mn4 O3 1.883677 1_555
Mn4 O0 1.885428 1_655
Mn4 O13 1.938697 1_655
Mn4 O10 1.939449 1_555
Mn4 O4 2.023316 1_655
Mn4 O7 2.023625 1_555
Mn5 O12 1.931213 1_555
Mn5 O11 1.931933 1_455
Mn5 O2 2.091503 1_455
Mn5 O1 2.097873 1_555
Mn5 O5 2.113922 1_555
Mn5 O6 2.123734 1_455
