# generated using pymatgen
data_K2NiH12(SeO7)2
_symmetry_space_group_name_H-M   'P 1'
_cell_length_a   12.48548300
_cell_length_b   6.32775000
_cell_length_c   9.19978314
_cell_angle_alpha   76.08261178
_cell_angle_beta   90.00000000
_cell_angle_gamma   90.00000000
_symmetry_Int_Tables_number   1
_chemical_formula_structural   K2NiH12(SeO7)2
_chemical_formula_sum   'K4 Ni2 H24 Se4 O28'
_cell_volume   705.49187297
_cell_formula_units_Z   2
loop_
 _symmetry_equiv_pos_site_id
 _symmetry_equiv_pos_as_xyz
  1  'x, y, z'
loop_
 _atom_site_type_symbol
 _atom_site_label
 _atom_site_symmetry_multiplicity
 _atom_site_fract_x
 _atom_site_fract_y
 _atom_site_fract_z
 _atom_site_occupancy
  K  K0  1  0.15907300  0.65967200  0.63719500  1
  K  K1  1  0.65907300  0.34032800  0.86280500  1
  K  K2  1  0.84092700  0.34032800  0.36280500  1
  K  K3  1  0.34092700  0.65967200  0.13719500  1
  Ni  Ni0  1  0.50000000  0.00000000  0.50000000  1
  Ni  Ni1  1  0.00000000  0.00000000  0.00000000  1
  H  H0  1  0.41445300  0.68936400  0.70405100  1
  H  H1  1  0.91445300  0.31063600  0.79594900  1
  H  H2  1  0.58554700  0.31063600  0.29594900  1
  H  H3  1  0.08554700  0.68936400  0.20405100  1
  H  H4  1  0.37278300  0.91057000  0.74105800  1
  H  H5  1  0.87278300  0.08943000  0.75894200  1
  H  H6  1  0.62721700  0.08943000  0.25894200  1
  H  H7  1  0.12721700  0.91057000  0.24105800  1
  H  H8  1  0.40494000  0.07298900  0.23470900  1
  H  H9  1  0.90494000  0.92701100  0.26529100  1
  H  H10  1  0.59506000  0.92701100  0.76529100  1
  H  H11  1  0.09506000  0.07298900  0.73470900  1
  H  H12  1  0.31686400  0.99154800  0.36360500  1
  H  H13  1  0.81686400  0.00845200  0.13639500  1
  H  H14  1  0.68313600  0.00845200  0.63639500  1
  H  H15  1  0.18313600  0.99154800  0.86360500  1
  H  H16  1  0.54931700  0.66385700  0.40194200  1
  H  H17  1  0.04931700  0.33614300  0.09805800  1
  H  H18  1  0.45068300  0.33614300  0.59805800  1
  H  H19  1  0.95068300  0.66385700  0.90194200  1
  H  H20  1  0.63710800  0.66546800  0.52816200  1
  H  H21  1  0.13710800  0.33453200  0.97183800  1
  H  H22  1  0.36289200  0.33453200  0.47183800  1
  H  H23  1  0.86289200  0.66546800  0.02816200  1
  Se  Se0  1  0.36320600  0.27304800  0.91166700  1
  Se  Se1  1  0.86320600  0.72695200  0.58833300  1
  Se  Se2  1  0.63679400  0.72695200  0.08833300  1
  Se  Se3  1  0.13679400  0.27304800  0.41166700  1
  O  O0  1  0.25753600  0.43737300  0.91135300  1
  O  O1  1  0.75753600  0.56262700  0.58864700  1
  O  O2  1  0.74246400  0.56262700  0.08864700  1
  O  O3  1  0.24246400  0.43737300  0.41135300  1
  O  O4  1  0.43011200  0.24450000  0.07263500  1
  O  O5  1  0.93011200  0.75550000  0.42736500  1
  O  O6  1  0.56988800  0.75550000  0.92736500  1
  O  O7  1  0.06988800  0.24450000  0.57263500  1
  O  O8  1  0.44556100  0.39435800  0.77198700  1
  O  O9  1  0.94556100  0.60564200  0.72801300  1
  O  O10  1  0.55443900  0.60564200  0.22801300  1
  O  O11  1  0.05443900  0.39435800  0.27198700  1
  O  O12  1  0.32120000  0.02964700  0.88902900  1
  O  O13  1  0.82120000  0.97035300  0.61097100  1
  O  O14  1  0.67880000  0.97035300  0.11097100  1
  O  O15  1  0.17880000  0.02964700  0.38902900  1
  O  O16  1  0.38661600  0.83708300  0.65853000  1
  O  O17  1  0.88661600  0.16291700  0.84147000  1
  O  O18  1  0.61338400  0.16291700  0.34147000  1
  O  O19  1  0.11338400  0.83708300  0.15853000  1
  O  O20  1  0.39184200  0.96767400  0.33351600  1
  O  O21  1  0.89184200  0.03232600  0.16648400  1
  O  O22  1  0.60815800  0.03232600  0.66648400  1
  O  O23  1  0.10815800  0.96767400  0.83351600  1
  O  O24  1  0.56094100  0.70203700  0.49921700  1
  O  O25  1  0.06094100  0.29796300  0.00078300  1
  O  O26  1  0.43905900  0.29796300  0.50078300  1
  O  O27  1  0.93905900  0.70203700  0.99921700  1
loop_
_geom_bond_atom_site_label_1
_geom_bond_atom_site_label_2
_geom_bond_distance
_geom_bond_site_symmetry_2
K0 O9 2.789989 1_455
K0 O0 2.853906 1_555
K0 O15 2.860547 1_565
K0 O3 2.964026 1_555
K0 O23 3.026200 1_555
K0 O7 3.040552 1_555
K0 O16 3.078306 1_555
K1 O8 2.789989 1_555
K1 O1 2.853906 1_555
K1 O14 2.860547 1_546
K1 O2 2.964026 1_556
K1 O22 3.026200 1_555
K1 O6 3.040552 1_555
K1 O17 3.078306 1_555
K2 O11 2.789989 1_655
K2 O2 2.853906 1_555
K2 O13 2.860547 1_545
K2 O1 2.964026 1_555
K2 O21 3.026200 1_555
K2 O5 3.040552 1_555
K2 O18 3.078306 1_555
K3 O10 2.789989 1_555
K3 O3 2.853906 1_555
K3 O12 2.860547 1_564
K3 O0 2.964026 1_554
K3 O20 3.026200 1_555
K3 O4 3.040552 1_555
K3 O19 3.078306 1_555
Ni0 O26 2.034794 1_555
Ni0 O24 2.034794 1_545
Ni0 O22 2.088538 1_555
Ni0 O20 2.088538 1_545
Ni0 O18 2.114385 1_555
Ni0 O16 2.114385 1_545
Ni1 O25 2.034794 1_555
Ni1 O27 2.034794 1_444
Ni1 O23 2.088538 1_544
Ni1 O21 2.088538 1_455
Ni1 O17 2.114385 1_454
Ni1 O19 2.114385 1_545
H0 O16 0.990752 1_555
H1 O17 0.990752 1_555
H2 O18 0.990752 1_555
H3 O19 0.990752 1_555
H4 O16 0.996163 1_555
H5 O17 0.996163 1_555
H6 O18 0.996163 1_555
H7 O19 0.996163 1_555
H8 O20 1.002860 1_545
H8 O4 1.649665 1_555
H9 O21 1.002860 1_565
H9 O5 1.649665 1_555
H10 O22 1.002860 1_565
H10 O6 1.649665 1_555
H11 O23 1.002860 1_545
H11 O7 1.649665 1_555
H12 O20 0.997955 1_555
H13 O21 0.997955 1_555
H14 O22 0.997955 1_555
H15 O23 0.997955 1_555
H16 O24 0.992117 1_555
H16 O10 1.727333 1_555
H17 O25 0.992117 1_555
H17 O11 1.727333 1_555
H18 O26 0.992117 1_555
H18 O8 1.727333 1_555
H19 O27 0.992117 1_555
H19 O9 1.727333 1_555
H20 O24 0.999590 1_555
H20 O1 1.679208 1_555
H21 O25 0.999590 1_556
H21 O0 1.679208 1_555
H22 O26 0.999590 1_555
H22 O3 1.679208 1_555
H23 O27 0.999590 1_554
H23 O2 1.679208 1_555
O0 Se0 1.679412 1_555
O1 Se1 1.679412 1_555
O2 Se2 1.679412 1_555
O3 Se3 1.679412 1_555
O4 Se0 1.671748 1_554
O5 Se1 1.671748 1_555
O6 Se2 1.671748 1_556
O7 Se3 1.671748 1_555
O8 Se0 1.680269 1_555
O9 Se1 1.680269 1_555
O10 Se2 1.680269 1_555
O11 Se3 1.680269 1_555
O12 Se0 1.686682 1_555
O13 Se1 1.686682 1_555
O14 Se2 1.686682 1_555
O15 Se3 1.686682 1_555
