# generated using pymatgen
data_ErMg5
_symmetry_space_group_name_H-M   'P 1'
_cell_length_a   12.56359667
_cell_length_b   12.56359667
_cell_length_c   15.35403675
_cell_angle_alpha   74.48918397
_cell_angle_beta   74.48918397
_cell_angle_gamma   29.89416702
_symmetry_Int_Tables_number   1
_chemical_formula_structural   ErMg5
_chemical_formula_sum   'Er8 Mg40'
_cell_volume   1160.70182736
_cell_formula_units_Z   8
loop_
 _symmetry_equiv_pos_site_id
 _symmetry_equiv_pos_as_xyz
  1  'x, y, z'
loop_
 _atom_site_type_symbol
 _atom_site_label
 _atom_site_symmetry_multiplicity
 _atom_site_fract_x
 _atom_site_fract_y
 _atom_site_fract_z
 _atom_site_occupancy
  Er  Er0_0  1  0.30857108  0.30857108  0.13369483  1
  Er  Er0_1  1  0.30857108  0.30857108  0.63369483  1
  Er  Er0_2  1  0.30857108  0.80857108  0.13369483  1
  Er  Er0_3  1  0.30857108  0.80857108  0.63369483  1
  Er  Er0_4  1  0.80857108  0.30857108  0.13369483  1
  Er  Er0_5  1  0.80857108  0.30857108  0.63369483  1
  Er  Er0_6  1  0.80857108  0.80857108  0.13369483  1
  Er  Er0_7  1  0.80857108  0.80857108  0.63369483  1
  Mg  Mg0_0  1  0.49548724  0.49548724  0.00090553  1
  Mg  Mg0_1  1  0.49548724  0.49548724  0.50090553  1
  Mg  Mg0_2  1  0.49548724  0.99548724  0.00090553  1
  Mg  Mg0_3  1  0.49548724  0.99548724  0.50090553  1
  Mg  Mg0_4  1  0.99548724  0.49548724  0.00090553  1
  Mg  Mg0_5  1  0.99548724  0.49548724  0.50090553  1
  Mg  Mg0_6  1  0.99548724  0.99548724  0.00090553  1
  Mg  Mg0_7  1  0.99548724  0.99548724  0.50090553  1
  Mg  Mg1_0  1  0.14112885  0.14112885  0.46590475  1
  Mg  Mg1_1  1  0.14112885  0.14112885  0.96590475  1
  Mg  Mg1_2  1  0.14112885  0.64112885  0.46590476  1
  Mg  Mg1_3  1  0.14112885  0.64112885  0.96590475  1
  Mg  Mg1_4  1  0.64112885  0.14112885  0.46590476  1
  Mg  Mg1_5  1  0.64112885  0.14112885  0.96590475  1
  Mg  Mg1_6  1  0.64112885  0.64112885  0.46590475  1
  Mg  Mg1_7  1  0.64112885  0.64112885  0.96590475  1
  Mg  Mg2_0  1  0.33118199  0.33118199  0.33619765  1
  Mg  Mg2_1  1  0.33118199  0.33118199  0.83619765  1
  Mg  Mg2_2  1  0.33118199  0.83118199  0.33619765  1
  Mg  Mg2_3  1  0.33118199  0.83118198  0.83619765  1
  Mg  Mg2_4  1  0.83118199  0.33118199  0.33619765  1
  Mg  Mg2_5  1  0.83118198  0.33118199  0.83619765  1
  Mg  Mg2_6  1  0.83118199  0.83118199  0.33619765  1
  Mg  Mg2_7  1  0.83118199  0.83118198  0.83619765  1
  Mg  Mg3_0  1  0.47158758  0.47158758  0.30811678  1
  Mg  Mg3_1  1  0.47158758  0.47158758  0.80811678  1
  Mg  Mg3_2  1  0.47158758  0.97158758  0.30811678  1
  Mg  Mg3_3  1  0.47158758  0.97158758  0.80811678  1
  Mg  Mg3_4  1  0.97158758  0.47158758  0.30811678  1
  Mg  Mg3_5  1  0.97158758  0.47158758  0.80811678  1
  Mg  Mg3_6  1  0.97158758  0.97158758  0.30811678  1
  Mg  Mg3_7  1  0.97158758  0.97158758  0.80811678  1
  Mg  Mg4_0  1  0.16870877  0.16870877  0.17184745  1
  Mg  Mg4_1  1  0.16870877  0.16870877  0.67184745  1
  Mg  Mg4_2  1  0.16870877  0.66870877  0.17184745  1
  Mg  Mg4_3  1  0.16870877  0.66870877  0.67184745  1
  Mg  Mg4_4  1  0.66870877  0.16870877  0.17184745  1
  Mg  Mg4_5  1  0.66870877  0.16870877  0.67184745  1
  Mg  Mg4_6  1  0.66870877  0.66870877  0.17184745  1
  Mg  Mg4_7  1  0.66870877  0.66870877  0.67184745  1
loop_
_geom_bond_atom_site_label_1
_geom_bond_atom_site_label_2
_geom_bond_distance
_geom_bond_site_symmetry_2
Er0_0 Mg1_5 3.228153 1_554
Er0_0 Mg1_3 3.228153 1_554
Er0_0 Er0_6 3.240489 1_545
Er0_0 Er0_6 3.240489 1_455
Er0_0 Mg4_0 3.281932 1_555
Er0_0 Mg0_4 3.294855 1_455
Er0_0 Mg0_2 3.294855 1_545
Er0_0 Mg2_0 3.303553 1_555
Er0_0 Mg4_4 3.314316 1_555
Er0_0 Mg4_2 3.314316 1_555
Er0_0 Mg3_2 3.335562 1_545
Er0_0 Mg3_4 3.335562 1_455
Er0_1 Mg1_2 3.228153 1_555
Er0_1 Mg1_4 3.228153 1_555
Er0_1 Er0_7 3.240489 1_455
Er0_1 Er0_7 3.240489 1_545
Er0_1 Mg4_1 3.281932 1_555
Er0_1 Mg0_5 3.294855 1_455
Er0_1 Mg0_3 3.294855 1_545
Er0_1 Mg2_1 3.303553 1_555
Er0_1 Mg4_3 3.314316 1_555
Er0_1 Mg4_5 3.314316 1_555
Er0_1 Mg3_3 3.335562 1_545
Er0_1 Mg3_5 3.335562 1_455
Er0_2 Mg1_1 3.228153 1_564
Er0_2 Mg1_7 3.228153 1_554
Er0_2 Er0_4 3.240489 1_555
Er0_2 Er0_4 3.240489 1_465
Er0_2 Mg4_2 3.281932 1_555
Er0_2 Mg0_6 3.294855 1_455
Er0_2 Mg0_0 3.294855 1_555
Er0_2 Mg2_2 3.303553 1_555
Er0_2 Mg4_6 3.314316 1_555
Er0_2 Mg4_0 3.314316 1_565
Er0_2 Mg3_6 3.335562 1_455
Er0_2 Mg3_0 3.335562 1_555
Er0_3 Mg1_0 3.228153 1_565
Er0_3 Mg1_6 3.228153 1_555
Er0_3 Er0_5 3.240489 1_465
Er0_3 Er0_5 3.240489 1_555
Er0_3 Mg4_3 3.281932 1_555
Er0_3 Mg0_7 3.294855 1_455
Er0_3 Mg0_1 3.294855 1_555
Er0_3 Mg2_3 3.303553 1_555
Er0_3 Mg4_7 3.314316 1_555
Er0_3 Mg4_1 3.314316 1_565
Er0_3 Mg3_7 3.335562 1_455
Er0_3 Mg3_1 3.335562 1_555
Er0_4 Mg1_1 3.228153 1_654
Er0_4 Mg1_7 3.228153 1_554
Er0_4 Mg4_4 3.281932 1_555
Er0_4 Mg0_6 3.294855 1_545
Er0_4 Mg0_0 3.294855 1_555
Er0_4 Mg2_4 3.303553 1_555
Er0_4 Mg4_6 3.314316 1_555
Er0_4 Mg4_0 3.314316 1_655
Er0_4 Mg3_6 3.335562 1_545
Er0_4 Mg3_0 3.335562 1_555
Er0_5 Mg1_0 3.228153 1_655
Er0_5 Mg1_6 3.228153 1_555
Er0_5 Mg4_5 3.281932 1_555
Er0_5 Mg0_7 3.294855 1_545
Er0_5 Mg0_1 3.294855 1_555
Er0_5 Mg2_5 3.303553 1_555
Er0_5 Mg4_7 3.314316 1_555
Er0_5 Mg4_1 3.314316 1_655
Er0_5 Mg3_7 3.335562 1_545
Er0_5 Mg3_1 3.335562 1_555
Er0_6 Mg1_5 3.228153 1_564
Er0_6 Mg1_3 3.228153 1_654
Er0_6 Mg4_6 3.281932 1_555
Er0_6 Mg0_2 3.294855 1_555
Er0_6 Mg0_4 3.294855 1_555
Er0_6 Mg2_6 3.303553 1_555
Er0_6 Mg4_4 3.314316 1_565
Er0_6 Mg4_2 3.314316 1_655
Er0_6 Mg3_4 3.335562 1_555
Er0_6 Mg3_2 3.335562 1_555
Er0_7 Mg1_2 3.228153 1_655
Er0_7 Mg1_4 3.228153 1_565
Er0_7 Mg4_7 3.281932 1_555
Er0_7 Mg0_3 3.294855 1_555
Er0_7 Mg0_5 3.294855 1_555
Er0_7 Mg2_7 3.303553 1_555
Er0_7 Mg4_5 3.314316 1_565
Er0_7 Mg4_3 3.314316 1_655
Er0_7 Mg3_5 3.335562 1_555
Er0_7 Mg3_3 3.335562 1_555
Mg0_0 Mg3_1 3.170094 1_554
Mg0_0 Mg1_3 3.175902 1_554
Mg0_0 Mg1_5 3.175902 1_554
Mg0_0 Mg4_4 3.206259 1_555
Mg0_0 Mg4_2 3.206259 1_555
Mg0_0 Mg2_3 3.230532 1_554
Mg0_0 Mg2_5 3.230532 1_554
Mg0_0 Mg0_6 3.240489 1_545
Mg0_0 Mg0_6 3.240489 1_455
Mg0_0 Mg1_7 3.426138 1_554
Mg0_1 Mg3_0 3.170094 1_555
Mg0_1 Mg1_2 3.175902 1_555
Mg0_1 Mg1_4 3.175902 1_555
Mg0_1 Mg4_5 3.206259 1_555
Mg0_1 Mg4_3 3.206259 1_555
Mg0_1 Mg2_2 3.230532 1_555
Mg0_1 Mg2_4 3.230532 1_555
Mg0_1 Mg0_7 3.240489 1_455
Mg0_1 Mg0_7 3.240489 1_545
Mg0_1 Mg1_6 3.426138 1_555
Mg0_2 Mg3_3 3.170094 1_554
Mg0_2 Mg1_7 3.175902 1_554
Mg0_2 Mg1_1 3.175902 1_564
Mg0_2 Mg4_0 3.206259 1_565
Mg0_2 Mg4_6 3.206259 1_555
Mg0_2 Mg2_7 3.230532 1_554
Mg0_2 Mg2_1 3.230532 1_564
Mg0_2 Mg0_4 3.240489 1_555
Mg0_2 Mg0_4 3.240489 1_465
Mg0_2 Mg1_5 3.426138 1_564
Mg0_3 Mg3_2 3.170094 1_555
Mg0_3 Mg1_6 3.175902 1_555
Mg0_3 Mg1_0 3.175902 1_565
Mg0_3 Mg4_1 3.206259 1_565
Mg0_3 Mg4_7 3.206259 1_555
Mg0_3 Mg2_6 3.230532 1_555
Mg0_3 Mg2_0 3.230532 1_565
Mg0_3 Mg0_5 3.240489 1_555
Mg0_3 Mg0_5 3.240489 1_465
Mg0_3 Mg1_4 3.426138 1_565
Mg0_4 Mg3_5 3.170094 1_554
Mg0_4 Mg1_7 3.175902 1_554
Mg0_4 Mg1_1 3.175902 1_654
Mg0_4 Mg4_0 3.206259 1_655
Mg0_4 Mg4_6 3.206259 1_555
Mg0_4 Mg2_7 3.230532 1_554
Mg0_4 Mg2_1 3.230532 1_654
Mg0_4 Mg1_3 3.426138 1_654
Mg0_5 Mg3_4 3.170094 1_555
Mg0_5 Mg1_6 3.175902 1_555
Mg0_5 Mg1_0 3.175902 1_655
Mg0_5 Mg4_1 3.206259 1_655
Mg0_5 Mg4_7 3.206259 1_555
Mg0_5 Mg2_6 3.230532 1_555
Mg0_5 Mg2_0 3.230532 1_655
Mg0_5 Mg1_2 3.426138 1_655
Mg0_6 Mg3_7 3.170094 1_554
Mg0_6 Mg1_5 3.175902 1_564
Mg0_6 Mg1_3 3.175902 1_654
Mg0_6 Mg4_4 3.206259 1_565
Mg0_6 Mg4_2 3.206259 1_655
Mg0_6 Mg2_5 3.230532 1_564
Mg0_6 Mg2_3 3.230532 1_654
Mg0_6 Mg1_1 3.426138 1_664
Mg0_7 Mg3_6 3.170094 1_555
Mg0_7 Mg1_2 3.175902 1_655
Mg0_7 Mg1_4 3.175902 1_565
Mg0_7 Mg4_5 3.206259 1_565
Mg0_7 Mg4_3 3.206259 1_655
Mg0_7 Mg2_4 3.230532 1_565
Mg0_7 Mg2_2 3.230532 1_655
Mg0_7 Mg1_0 3.426138 1_665
Mg1_0 Mg3_4 3.112930 1_455
Mg1_0 Mg3_2 3.112930 1_545
Mg1_0 Mg2_4 3.211509 1_455
Mg1_0 Mg2_2 3.211509 1_545
Mg1_0 Mg1_6 3.240489 1_545
Mg1_0 Mg1_6 3.240489 1_455
Mg1_0 Mg4_1 3.408649 1_555
Mg1_1 Mg3_5 3.112930 1_455
Mg1_1 Mg3_3 3.112930 1_545
Mg1_1 Mg2_5 3.211509 1_455
Mg1_1 Mg2_3 3.211509 1_545
Mg1_1 Mg1_7 3.240489 1_545
Mg1_1 Mg1_7 3.240489 1_455
Mg1_1 Mg4_0 3.408649 1_556
Mg1_2 Mg3_6 3.112930 1_455
Mg1_2 Mg3_0 3.112930 1_555
Mg1_2 Mg2_0 3.211509 1_555
Mg1_2 Mg2_6 3.211509 1_455
Mg1_2 Mg1_4 3.240489 1_465
Mg1_2 Mg1_4 3.240489 1_555
Mg1_2 Mg4_3 3.408649 1_555
Mg1_3 Mg3_1 3.112930 1_555
Mg1_3 Mg3_7 3.112930 1_455
Mg1_3 Mg2_1 3.211509 1_555
Mg1_3 Mg2_7 3.211509 1_455
Mg1_3 Mg1_5 3.240489 1_555
Mg1_3 Mg1_5 3.240489 1_465
Mg1_3 Mg4_2 3.408649 1_556
Mg1_4 Mg3_0 3.112930 1_555
Mg1_4 Mg3_6 3.112930 1_545
Mg1_4 Mg2_0 3.211509 1_555
Mg1_4 Mg2_6 3.211509 1_545
Mg1_4 Mg4_5 3.408649 1_555
Mg1_5 Mg3_1 3.112930 1_555
Mg1_5 Mg3_7 3.112930 1_545
Mg1_5 Mg2_1 3.211509 1_555
Mg1_5 Mg2_7 3.211509 1_545
Mg1_5 Mg4_4 3.408649 1_556
Mg1_6 Mg3_2 3.112930 1_555
Mg1_6 Mg3_4 3.112930 1_555
Mg1_6 Mg2_2 3.211509 1_555
Mg1_6 Mg2_4 3.211509 1_555
Mg1_6 Mg4_7 3.408649 1_555
Mg1_7 Mg3_3 3.112930 1_555
Mg1_7 Mg3_5 3.112930 1_555
Mg1_7 Mg2_5 3.211509 1_555
Mg1_7 Mg2_3 3.211509 1_555
Mg1_7 Mg4_6 3.408649 1_556
Mg2_0 Mg2_6 3.240489 1_545
Mg2_0 Mg2_6 3.240489 1_455
Mg2_0 Mg3_2 3.244230 1_545
Mg2_0 Mg3_4 3.244230 1_455
Mg2_0 Mg4_4 3.246509 1_555
Mg2_0 Mg4_2 3.246509 1_555
Mg2_0 Mg3_0 3.315279 1_555
Mg2_1 Mg2_7 3.240489 1_455
Mg2_1 Mg2_7 3.240489 1_545
Mg2_1 Mg3_5 3.244230 1_455
Mg2_1 Mg3_3 3.244230 1_545
Mg2_1 Mg4_5 3.246509 1_555
Mg2_1 Mg4_3 3.246509 1_555
Mg2_1 Mg3_1 3.315279 1_555
Mg2_2 Mg2_4 3.240489 1_465
Mg2_2 Mg2_4 3.240489 1_555
Mg2_2 Mg3_6 3.244230 1_455
Mg2_2 Mg3_0 3.244230 1_555
Mg2_2 Mg4_6 3.246509 1_555
Mg2_2 Mg4_0 3.246509 1_565
Mg2_2 Mg3_2 3.315279 1_555
Mg2_3 Mg2_5 3.240489 1_555
Mg2_3 Mg2_5 3.240489 1_465
Mg2_3 Mg3_7 3.244230 1_455
Mg2_3 Mg3_1 3.244230 1_555
Mg2_3 Mg4_7 3.246509 1_555
Mg2_3 Mg4_1 3.246509 1_565
Mg2_3 Mg3_3 3.315279 1_555
Mg2_4 Mg3_6 3.244230 1_545
Mg2_4 Mg3_0 3.244230 1_555
Mg2_4 Mg4_6 3.246509 1_555
Mg2_4 Mg4_0 3.246509 1_655
Mg2_4 Mg3_4 3.315279 1_555
Mg2_5 Mg3_7 3.244230 1_545
Mg2_5 Mg3_1 3.244230 1_555
Mg2_5 Mg4_7 3.246509 1_555
Mg2_5 Mg4_1 3.246509 1_655
Mg2_5 Mg3_5 3.315279 1_555
Mg2_6 Mg3_2 3.244230 1_555
Mg2_6 Mg3_4 3.244230 1_555
Mg2_6 Mg4_2 3.246509 1_655
Mg2_6 Mg4_4 3.246509 1_565
Mg2_6 Mg3_6 3.315279 1_555
Mg2_7 Mg3_5 3.244230 1_555
Mg2_7 Mg3_3 3.244230 1_555
Mg2_7 Mg4_3 3.246509 1_655
Mg2_7 Mg4_5 3.246509 1_565
Mg2_7 Mg3_7 3.315279 1_555
Mg3_0 Mg4_4 3.183974 1_555
Mg3_0 Mg4_2 3.183974 1_555
Mg3_0 Mg3_6 3.240489 1_455
Mg3_0 Mg3_6 3.240489 1_545
Mg3_1 Mg4_5 3.183974 1_555
Mg3_1 Mg4_3 3.183974 1_555
Mg3_1 Mg3_7 3.240489 1_545
Mg3_1 Mg3_7 3.240489 1_455
Mg3_2 Mg4_0 3.183974 1_565
Mg3_2 Mg4_6 3.183974 1_555
Mg3_2 Mg3_4 3.240489 1_555
Mg3_2 Mg3_4 3.240489 1_465
Mg3_3 Mg4_1 3.183974 1_565
Mg3_3 Mg4_7 3.183974 1_555
Mg3_3 Mg3_5 3.240489 1_465
Mg3_3 Mg3_5 3.240489 1_555
Mg3_4 Mg4_0 3.183974 1_655
Mg3_4 Mg4_6 3.183974 1_555
Mg3_5 Mg4_1 3.183974 1_655
Mg3_5 Mg4_7 3.183974 1_555
Mg3_6 Mg4_2 3.183974 1_655
Mg3_6 Mg4_4 3.183974 1_565
Mg3_7 Mg4_3 3.183974 1_655
Mg3_7 Mg4_5 3.183974 1_565
Mg4_0 Mg4_6 3.240489 1_455
Mg4_0 Mg4_6 3.240489 1_545
Mg4_1 Mg4_7 3.240489 1_545
Mg4_1 Mg4_7 3.240489 1_455
Mg4_2 Mg4_4 3.240489 1_555
Mg4_2 Mg4_4 3.240489 1_465
Mg4_3 Mg4_5 3.240489 1_555
Mg4_3 Mg4_5 3.240489 1_465
