# generated using pymatgen
data_Ca(NiO2)2
_symmetry_space_group_name_H-M   'P 1'
_cell_length_a   6.08574862
_cell_length_b   6.08574862
_cell_length_c   6.08574862
_cell_angle_alpha   118.19705869
_cell_angle_beta   118.19705869
_cell_angle_gamma   93.15222506
_symmetry_Int_Tables_number   1
_chemical_formula_structural   Ca(NiO2)2
_chemical_formula_sum   'Ca2 Ni4 O8'
_cell_volume   163.45318397
_cell_formula_units_Z   2
loop_
 _symmetry_equiv_pos_site_id
 _symmetry_equiv_pos_as_xyz
  1  'x, y, z'
loop_
 _atom_site_type_symbol
 _atom_site_label
 _atom_site_symmetry_multiplicity
 _atom_site_fract_x
 _atom_site_fract_y
 _atom_site_fract_z
 _atom_site_occupancy
  Ca  Ca0  1  0.75000000  0.25000000  0.50000000  1
  Ca  Ca1  1  0.00000000  0.00000000  0.00000000  1
  Ni  Ni0  1  0.37500000  0.12500000  0.75000000  1
  Ni  Ni1  1  0.37500000  0.62500000  0.25000000  1
  Ni  Ni2  1  0.87500000  0.62500000  0.25000000  1
  Ni  Ni3  1  0.37500000  0.62500000  0.75000000  1
  O  O0  1  0.11259400  0.85966600  0.67560300  1
  O  O1  1  0.56301000  0.88740600  0.74707200  1
  O  O2  1  0.14033400  0.81593700  0.25292800  1
  O  O3  1  0.56593700  0.81301000  0.17560300  1
  O  O4  1  0.60966600  0.43406300  0.24707200  1
  O  O5  1  0.18699000  0.36259400  0.75292800  1
  O  O6  1  0.18406300  0.43699000  0.32439700  1
  O  O7  1  0.63740600  0.39033400  0.82439700  1
loop_
_geom_bond_atom_site_label_1
_geom_bond_atom_site_label_2
_geom_bond_distance
_geom_bond_site_symmetry_2
Ca0 O5 2.201306 1_655
Ca0 O3 2.201306 1_545
Ca0 O7 2.201311 1_555
Ca0 O4 2.201311 1_555
Ca1 O1 2.201306 1_444
Ca1 O6 2.201306 1_555
Ca1 O0 2.201311 1_544
Ca1 O2 2.201311 1_545
Ni0 O5 1.891315 1_555
Ni0 O1 1.891315 1_545
Ni0 O7 1.924804 1_555
Ni0 O0 1.924804 1_545
Ni0 O4 2.230092 1_556
Ni0 O2 2.230092 1_545
Ni1 O4 1.891311 1_555
Ni1 O2 1.891311 1_555
Ni1 O6 1.924808 1_555
Ni1 O3 1.924808 1_555
Ni1 O1 2.230090 1_555
Ni1 O5 2.230090 1_554
Ni2 O0 1.891311 1_655
Ni2 O7 1.891311 1_554
Ni2 O2 1.924804 1_655
Ni2 O4 1.924804 1_555
Ni2 O6 2.230095 1_655
Ni2 O3 2.230095 1_555
Ni3 O3 1.891310 1_556
Ni3 O6 1.891310 1_555
Ni3 O1 1.924808 1_555
Ni3 O5 1.924808 1_555
Ni3 O0 2.230092 1_555
Ni3 O7 2.230092 1_555
