# generated using pymatgen
data_Yb3Sn5
_symmetry_space_group_name_H-M   'P 1'
_cell_length_a   6.54106365
_cell_length_b   6.54106365
_cell_length_c   10.51026700
_cell_angle_alpha   90.00000000
_cell_angle_beta   90.00000000
_cell_angle_gamma   101.76470268
_symmetry_Int_Tables_number   1
_chemical_formula_structural   Yb3Sn5
_chemical_formula_sum   'Yb6 Sn10'
_cell_volume   440.24067635
_cell_formula_units_Z   2
loop_
 _symmetry_equiv_pos_site_id
 _symmetry_equiv_pos_as_xyz
  1  'x, y, z'
loop_
 _atom_site_type_symbol
 _atom_site_label
 _atom_site_symmetry_multiplicity
 _atom_site_fract_x
 _atom_site_fract_y
 _atom_site_fract_z
 _atom_site_occupancy
  Yb  Yb0  1  0.12386100  0.12386100  0.25000000  1
  Yb  Yb1  1  0.87613900  0.87613900  0.75000000  1
  Yb  Yb2  1  0.29400800  0.70599200  0.50000000  1
  Yb  Yb3  1  0.29400800  0.70599200  0.00000000  1
  Yb  Yb4  1  0.70599200  0.29400800  0.50000000  1
  Yb  Yb5  1  0.70599200  0.29400800  0.00000000  1
  Sn  Sn0  1  0.99823700  0.57099600  0.25000000  1
  Sn  Sn1  1  0.42900400  0.00176300  0.75000000  1
  Sn  Sn2  1  0.00176300  0.42900400  0.75000000  1
  Sn  Sn3  1  0.57099600  0.99823700  0.25000000  1
  Sn  Sn4  1  0.80487200  0.80487200  0.04488000  1
  Sn  Sn5  1  0.19512800  0.19512800  0.95512000  1
  Sn  Sn6  1  0.80487200  0.80487200  0.45512000  1
  Sn  Sn7  1  0.19512800  0.19512800  0.54488000  1
  Sn  Sn8  1  0.51832400  0.51832400  0.25000000  1
  Sn  Sn9  1  0.48167600  0.48167600  0.75000000  1
loop_
_geom_bond_atom_site_label_1
_geom_bond_atom_site_label_2
_geom_bond_distance
_geom_bond_site_symmetry_2
Sn0 Sn4 3.062159 1_555
Sn0 Sn6 3.062159 1_555
Sn0 Sn8 3.087374 1_555
Sn0 Yb0 3.195206 1_655
Sn0 Yb3 3.275681 1_655
Sn0 Yb2 3.275681 1_655
Sn0 Yb5 3.525417 1_555
Sn0 Yb4 3.525417 1_555
Sn0 Yb0 3.541363 1_665
Sn1 Sn7 3.062159 1_555
Sn1 Sn5 3.062159 1_555
Sn1 Sn9 3.087374 1_555
Sn1 Yb1 3.195206 1_545
Sn1 Yb2 3.275681 1_545
Sn1 Yb3 3.275681 1_546
Sn1 Yb4 3.525417 1_555
Sn1 Yb5 3.525417 1_556
Sn1 Yb1 3.541363 1_445
Sn2 Sn5 3.062159 1_555
Sn2 Sn7 3.062159 1_555
Sn2 Sn9 3.087374 1_555
Sn2 Yb1 3.195206 1_455
Sn2 Yb4 3.275681 1_455
Sn2 Yb5 3.275681 1_456
Sn2 Yb2 3.525417 1_555
Sn2 Yb3 3.525417 1_556
Sn2 Yb1 3.541363 1_445
Sn3 Sn4 3.062159 1_555
Sn3 Sn6 3.062159 1_555
Sn3 Sn8 3.087374 1_555
Sn3 Yb0 3.195206 1_565
Sn3 Yb5 3.275681 1_565
Sn3 Yb4 3.275681 1_565
Sn3 Yb2 3.525417 1_555
Sn3 Yb3 3.525417 1_555
Sn3 Yb0 3.541363 1_665
Sn4 Yb1 3.154593 1_554
Sn4 Sn8 3.200215 1_555
Sn4 Yb5 3.305410 1_555
Sn4 Yb3 3.305410 1_555
Sn4 Sn5 3.356371 1_664
Sn4 Yb0 3.402883 1_665
Sn4 Yb5 3.423636 1_565
Sn4 Yb3 3.423636 1_655
Sn5 Yb0 3.154593 1_556
Sn5 Sn9 3.200215 1_555
Sn5 Yb5 3.305410 1_556
Sn5 Yb3 3.305410 1_556
Sn5 Yb1 3.402883 1_445
Sn5 Yb3 3.423636 1_546
Sn5 Yb5 3.423636 1_456
Sn6 Yb1 3.154593 1_555
Sn6 Sn8 3.200215 1_555
Sn6 Yb2 3.305410 1_555
Sn6 Yb4 3.305410 1_555
Sn6 Sn7 3.356371 1_665
Sn6 Yb0 3.402883 1_665
Sn6 Yb4 3.423636 1_565
Sn6 Yb2 3.423636 1_655
Sn7 Yb0 3.154593 1_555
Sn7 Sn9 3.200215 1_555
Sn7 Yb2 3.305410 1_555
Sn7 Yb4 3.305410 1_555
Sn7 Yb1 3.402883 1_445
Sn7 Yb2 3.423636 1_545
Sn7 Yb4 3.423636 1_455
Sn8 Yb0 3.255782 1_555
Sn8 Yb4 3.361299 1_555
Sn8 Yb5 3.361299 1_555
Sn8 Yb2 3.361299 1_555
Sn8 Yb3 3.361299 1_555
Sn9 Yb1 3.255782 1_555
Sn9 Yb2 3.361299 1_555
Sn9 Yb3 3.361299 1_556
Sn9 Yb4 3.361299 1_555
Sn9 Yb5 3.361299 1_556
