# generated using pymatgen
data_Sr2NiMoO6
_symmetry_space_group_name_H-M   'P 1'
_cell_length_a   5.61246145
_cell_length_b   5.65605096
_cell_length_c   9.74635140
_cell_angle_alpha   106.06916514
_cell_angle_beta   73.26622123
_cell_angle_gamma   119.74521058
_symmetry_Int_Tables_number   1
_chemical_formula_structural   Sr2NiMoO6
_chemical_formula_sum   'Sr4 Ni2 Mo2 O12'
_cell_volume   253.89091765
_cell_formula_units_Z   2
loop_
 _symmetry_equiv_pos_site_id
 _symmetry_equiv_pos_as_xyz
  1  'x, y, z'
loop_
 _atom_site_type_symbol
 _atom_site_label
 _atom_site_symmetry_multiplicity
 _atom_site_fract_x
 _atom_site_fract_y
 _atom_site_fract_z
 _atom_site_occupancy
  Sr  Sr0  1  0.62499900  0.37500000  0.12500000  1
  Sr  Sr1  1  0.12499900  0.87500000  0.62500000  1
  Sr  Sr2  1  0.37500100  0.62500000  0.87500000  1
  Sr  Sr3  1  0.87500100  0.12500000  0.37500000  1
  Ni  Ni0  1  0.25000000  0.75000000  0.25000000  1
  Ni  Ni1  1  0.75000000  0.25000000  0.75000000  1
  Mo  Mo0  1  0.00000100  0.00000100  0.00000400  1
  Mo  Mo1  1  0.49999900  0.49999900  0.49999600  1
  O  O0  1  0.12088400  0.36264400  0.12088100  1
  O  O1  1  0.62088500  0.86264900  0.62088300  1
  O  O2  1  0.87911500  0.63735100  0.87911700  1
  O  O3  1  0.37911600  0.13735600  0.37911900  1
  O  O4  1  0.15796400  0.35880200  0.64120200  1
  O  O5  1  0.65796900  0.85880100  0.14120100  1
  O  O6  1  0.68197700  0.39957900  0.60042100  1
  O  O7  1  0.18198200  0.89958200  0.10041700  1
  O  O8  1  0.81802300  0.10042100  0.89957900  1
  O  O9  1  0.31801800  0.60041800  0.39958300  1
  O  O10  1  0.34203600  0.14119800  0.85879800  1
  O  O11  1  0.84203100  0.64119900  0.35879900  1
loop_
_geom_bond_atom_site_label_1
_geom_bond_atom_site_label_2
_geom_bond_distance
_geom_bond_site_symmetry_2
Ni0 O7 2.076236 1_555
Ni0 O9 2.076236 1_555
Ni0 O11 2.076248 1_455
Ni0 O5 2.076248 1_555
Ni0 O0 2.081409 1_555
Ni0 O3 2.081409 1_565
Ni1 O8 2.076207 1_555
Ni1 O6 2.076207 1_555
Ni1 O4 2.076222 1_655
Ni1 O10 2.076222 1_555
Ni1 O2 2.081381 1_555
Ni1 O1 2.081381 1_545
Mo0 O7 1.944866 1_545
Mo0 O5 1.944881 1_445
Mo0 O10 1.944936 1_554
Mo0 O8 1.944942 1_454
Mo0 O0 1.948599 1_555
Mo0 O2 1.948668 1_444
Mo1 O9 1.944866 1_555
Mo1 O11 1.944881 1_555
Mo1 O4 1.944936 1_555
Mo1 O6 1.944942 1_555
Mo1 O3 1.948599 1_555
Mo1 O1 1.948668 1_555
O0 Sr0 2.806997 1_555
O0 Sr2 2.807028 1_554
O0 Sr3 2.807034 1_455
O0 Sr0 2.807036 1_455
O1 Sr1 2.806999 1_655
O1 Sr3 2.807030 1_565
O1 Sr2 2.807031 1_555
O1 Sr1 2.807032 1_555
O2 Sr2 2.806999 1_555
O2 Sr0 2.807030 1_556
O2 Sr1 2.807031 1_655
O2 Sr2 2.807032 1_655
O3 Sr3 2.806997 1_455
O3 Sr1 2.807028 1_545
O3 Sr0 2.807034 1_555
O3 Sr3 2.807036 1_555
O4 Sr2 2.611951 1_555
O4 Sr1 2.611961 1_545
O4 Sr1 3.064562 1_555
O4 Sr3 3.064589 1_455
O5 Sr0 2.611945 1_555
O5 Sr3 2.611947 1_565
O5 Sr0 3.064580 1_565
O5 Sr2 3.064596 1_554
O6 Sr1 2.611979 1_655
O6 Sr3 2.611986 1_555
O6 Sr2 3.064549 1_555
O6 Sr1 3.064552 1_545
O7 Sr0 2.611960 1_565
O7 Sr2 2.611961 1_554
O7 Sr0 3.064577 1_455
O7 Sr3 3.064579 1_465
O8 Sr2 2.611979 1_545
O8 Sr0 2.611986 1_556
O8 Sr1 3.064549 1_645
O8 Sr2 3.064552 1_655
O9 Sr3 2.611960 1_455
O9 Sr1 2.611961 1_555
O9 Sr3 3.064577 1_565
O9 Sr0 3.064579 1_555
O10 Sr1 2.611951 1_545
O10 Sr2 2.611961 1_555
O10 Sr2 3.064562 1_545
O10 Sr0 3.064589 1_556
O11 Sr3 2.611945 1_565
O11 Sr0 2.611947 1_555
O11 Sr3 3.064580 1_555
O11 Sr1 3.064596 1_655
