# generated using pymatgen
data_Fe3(P2O7)2
_symmetry_space_group_name_H-M   'P 1'
_cell_length_a   5.69609200
_cell_length_b   6.85864176
_cell_length_c   7.60605107
_cell_angle_alpha   77.99959869
_cell_angle_beta   76.29552645
_cell_angle_gamma   72.23543904
_symmetry_Int_Tables_number   1
_chemical_formula_structural   Fe3(P2O7)2
_chemical_formula_sum   'Fe3 P4 O14'
_cell_volume   271.95391072
_cell_formula_units_Z   1
loop_
 _symmetry_equiv_pos_site_id
 _symmetry_equiv_pos_as_xyz
  1  'x, y, z'
loop_
 _atom_site_type_symbol
 _atom_site_label
 _atom_site_symmetry_multiplicity
 _atom_site_fract_x
 _atom_site_fract_y
 _atom_site_fract_z
 _atom_site_occupancy
  Fe  Fe0  1  0.76490400  0.51299300  0.66723300  1
  Fe  Fe1  1  0.24256300  0.48273800  0.33681600  1
  Fe  Fe2  1  0.95273200  0.02799200  0.98508200  1
  P  P0  1  0.21815400  0.70454500  0.66884700  1
  P  P1  1  0.37699900  0.29306600  0.93940000  1
  P  P2  1  0.61765000  0.70072200  0.06669500  1
  P  P3  1  0.80048200  0.29891400  0.31872400  1
  O  O0  1  0.47356900  0.70692400  0.55707000  1
  O  O1  1  0.72644600  0.85979000  0.11149500  1
  O  O2  1  0.95601200  0.34925600  0.43916800  1
  O  O3  1  0.25633700  0.13753700  0.90504700  1
  O  O4  1  0.06495900  0.64848100  0.54915400  1
  O  O5  1  0.32877100  0.31812700  0.13937700  1
  O  O6  1  0.07028400  0.89027800  0.76532000  1
  O  O7  1  0.24230400  0.50971300  0.83407400  1
  O  O8  1  0.91903100  0.10067300  0.23658800  1
  O  O9  1  0.53529800  0.31887700  0.43388500  1
  O  O10  1  0.64944100  0.69629500  0.86708900  1
  O  O11  1  0.66728700  0.25152100  0.86081600  1
  O  O12  1  0.79086200  0.47758300  0.14540100  1
  O  O13  1  0.34591700  0.71397500  0.17272000  1
loop_
_geom_bond_atom_site_label_1
_geom_bond_atom_site_label_2
_geom_bond_distance
_geom_bond_site_symmetry_2
Fe0 O0 2.018316 1_555
Fe0 O10 2.034772 1_555
Fe0 O4 2.118039 1_655
Fe0 O2 2.150490 1_555
Fe0 O11 2.194482 1_555
Fe1 O9 1.919193 1_555
Fe1 O5 1.946358 1_555
Fe1 O13 1.954006 1_555
Fe1 O2 2.030206 1_455
Fe1 O4 2.052221 1_555
Fe2 O1 1.943100 1_546
Fe2 O6 1.968437 1_645
Fe2 O3 2.007390 1_655
Fe2 O8 2.027052 1_556
Fe2 O11 2.119411 1_555
O0 P0 1.504112 1_555
O1 P2 1.535456 1_555
O2 P3 1.563984 1_555
O3 P1 1.525425 1_555
O4 P0 1.569988 1_555
O5 P1 1.516732 1_554
O6 P0 1.520443 1_555
O7 P1 1.593396 1_555
O7 P0 1.629523 1_555
O8 P3 1.512625 1_555
O9 P3 1.537655 1_555
O10 P2 1.491386 1_556
O11 P1 1.577201 1_555
O12 P3 1.601272 1_555
O12 P2 1.628345 1_555
O13 P2 1.551619 1_555
