# generated using pymatgen
data_CsMg30WO32
_symmetry_space_group_name_H-M   'P 1'
_cell_length_a   8.66497600
_cell_length_b   8.66497600
_cell_length_c   8.79829200
_cell_angle_alpha   90.00000000
_cell_angle_beta   90.00000000
_cell_angle_gamma   90.00000000
_symmetry_Int_Tables_number   1
_chemical_formula_structural   CsMg30WO32
_chemical_formula_sum   'Cs1 Mg30 W1 O32'
_cell_volume   660.59168018
_cell_formula_units_Z   1
loop_
 _symmetry_equiv_pos_site_id
 _symmetry_equiv_pos_as_xyz
  1  'x, y, z'
loop_
 _atom_site_type_symbol
 _atom_site_label
 _atom_site_symmetry_multiplicity
 _atom_site_fract_x
 _atom_site_fract_y
 _atom_site_fract_z
 _atom_site_occupancy
  Cs  Cs0  1  0.00000000  0.00000000  0.00000000  1
  Mg  Mg0  1  0.00000000  0.50000000  0.00000000  1
  Mg  Mg1  1  0.00000000  0.50000000  0.50000000  1
  Mg  Mg2  1  0.50000000  0.00000000  0.00000000  1
  Mg  Mg3  1  0.50000000  0.00000000  0.50000000  1
  Mg  Mg4  1  0.50000000  0.50000000  0.00000000  1
  Mg  Mg5  1  0.50000000  0.50000000  0.50000000  1
  Mg  Mg6  1  0.00000000  0.25836000  0.24797300  1
  Mg  Mg7  1  0.00000000  0.25836000  0.75202700  1
  Mg  Mg8  1  0.00000000  0.74164000  0.24797300  1
  Mg  Mg9  1  0.00000000  0.74164000  0.75202700  1
  Mg  Mg10  1  0.50000000  0.25100900  0.24951300  1
  Mg  Mg11  1  0.50000000  0.25100900  0.75048700  1
  Mg  Mg12  1  0.50000000  0.74899100  0.24951300  1
  Mg  Mg13  1  0.50000000  0.74899100  0.75048700  1
  Mg  Mg14  1  0.25836000  0.00000000  0.24797300  1
  Mg  Mg15  1  0.25836000  0.00000000  0.75202700  1
  Mg  Mg16  1  0.25100900  0.50000000  0.24951300  1
  Mg  Mg17  1  0.25100900  0.50000000  0.75048700  1
  Mg  Mg18  1  0.74164000  0.00000000  0.24797300  1
  Mg  Mg19  1  0.74164000  0.00000000  0.75202700  1
  Mg  Mg20  1  0.74899100  0.50000000  0.24951300  1
  Mg  Mg21  1  0.74899100  0.50000000  0.75048700  1
  Mg  Mg22  1  0.25533800  0.25533800  0.00000000  1
  Mg  Mg23  1  0.25377100  0.25377100  0.50000000  1
  Mg  Mg24  1  0.25533800  0.74466200  0.00000000  1
  Mg  Mg25  1  0.25377100  0.74622900  0.50000000  1
  Mg  Mg26  1  0.74466200  0.25533800  0.00000000  1
  Mg  Mg27  1  0.74622900  0.25377100  0.50000000  1
  Mg  Mg28  1  0.74466200  0.74466200  0.00000000  1
  Mg  Mg29  1  0.74622900  0.74622900  0.50000000  1
  W  W0  1  0.00000000  0.00000000  0.50000000  1
  O  O0  1  0.28598900  0.00000000  0.00000000  1
  O  O1  1  0.25515600  0.00000000  0.50000000  1
  O  O2  1  0.25734900  0.50000000  0.00000000  1
  O  O3  1  0.25147800  0.50000000  0.50000000  1
  O  O4  1  0.71401100  0.00000000  0.00000000  1
  O  O5  1  0.74484400  0.00000000  0.50000000  1
  O  O6  1  0.74265100  0.50000000  0.00000000  1
  O  O7  1  0.74852200  0.50000000  0.50000000  1
  O  O8  1  0.24940000  0.24940000  0.25050000  1
  O  O9  1  0.24940000  0.24940000  0.74950000  1
  O  O10  1  0.24940000  0.75060000  0.25050000  1
  O  O11  1  0.24940000  0.75060000  0.74950000  1
  O  O12  1  0.75060000  0.24940000  0.25050000  1
  O  O13  1  0.75060000  0.24940000  0.74950000  1
  O  O14  1  0.75060000  0.75060000  0.25050000  1
  O  O15  1  0.75060000  0.75060000  0.74950000  1
  O  O16  1  0.00000000  0.00000000  0.27176200  1
  O  O17  1  0.00000000  0.00000000  0.72823800  1
  O  O18  1  0.00000000  0.50000000  0.25929200  1
  O  O19  1  0.00000000  0.50000000  0.74070800  1
  O  O20  1  0.50000000  0.00000000  0.25929200  1
  O  O21  1  0.50000000  0.00000000  0.74070800  1
  O  O22  1  0.50000000  0.50000000  0.25340000  1
  O  O23  1  0.50000000  0.50000000  0.74660000  1
  O  O24  1  0.00000000  0.28598900  0.00000000  1
  O  O25  1  0.00000000  0.25515600  0.50000000  1
  O  O26  1  0.00000000  0.71401100  0.00000000  1
  O  O27  1  0.00000000  0.74484400  0.50000000  1
  O  O28  1  0.50000000  0.25734900  0.00000000  1
  O  O29  1  0.50000000  0.25147800  0.50000000  1
  O  O30  1  0.50000000  0.74265100  0.00000000  1
  O  O31  1  0.50000000  0.74852200  0.50000000  1
loop_
_geom_bond_atom_site_label_1
_geom_bond_atom_site_label_2
_geom_bond_distance
_geom_bond_site_symmetry_2
Cs0 O16 2.391041 1_555
Cs0 O17 2.391041 1_554
Cs0 O0 2.478088 1_555
Cs0 O24 2.478088 1_555
Cs0 O4 2.478088 1_455
Cs0 O26 2.478088 1_545
Mg0 O26 1.854400 1_555
Mg0 O24 1.854400 1_555
Mg0 O2 2.229923 1_555
Mg0 O6 2.229923 1_455
Mg0 O18 2.281327 1_555
Mg0 O19 2.281327 1_554
Mg1 O19 2.117819 1_555
Mg1 O18 2.117819 1_555
Mg1 O27 2.121567 1_555
Mg1 O25 2.121567 1_555
Mg1 O3 2.179051 1_555
Mg1 O7 2.179051 1_455
Mg2 O4 1.854400 1_555
Mg2 O0 1.854400 1_555
Mg2 O28 2.229923 1_555
Mg2 O30 2.229923 1_545
Mg2 O20 2.281327 1_555
Mg2 O21 2.281327 1_554
Mg3 O21 2.117819 1_555
Mg3 O20 2.117819 1_555
Mg3 O5 2.121567 1_555
Mg3 O1 2.121567 1_555
Mg3 O31 2.179051 1_545
Mg3 O29 2.179051 1_555
Mg4 O6 2.102565 1_555
Mg4 O30 2.102565 1_555
Mg4 O2 2.102565 1_555
Mg4 O28 2.102565 1_555
Mg4 O23 2.229487 1_554
Mg4 O22 2.229487 1_555
Mg5 O29 2.153437 1_555
Mg5 O7 2.153437 1_555
Mg5 O31 2.153437 1_555
Mg5 O3 2.153437 1_555
Mg5 O22 2.169659 1_555
Mg5 O23 2.169659 1_555
Mg6 O18 2.096172 1_555
Mg6 O12 2.162553 1_455
Mg6 O8 2.162553 1_555
Mg6 O24 2.194835 1_555
Mg6 O25 2.217581 1_555
Mg6 O16 2.248446 1_555
Mg7 O19 2.096172 1_555
Mg7 O13 2.162553 1_455
Mg7 O9 2.162553 1_555
Mg7 O24 2.194835 1_556
Mg7 O25 2.217581 1_555
Mg7 O17 2.248446 1_555
Mg8 O18 2.096172 1_555
Mg8 O14 2.162553 1_455
Mg8 O10 2.162553 1_555
Mg8 O26 2.194835 1_555
Mg8 O27 2.217581 1_555
Mg8 O16 2.248446 1_565
Mg9 O19 2.096172 1_555
Mg9 O15 2.162553 1_455
Mg9 O11 2.162553 1_555
Mg9 O26 2.194835 1_556
Mg9 O27 2.217581 1_555
Mg9 O17 2.248446 1_565
Mg10 O22 2.157772 1_555
Mg10 O8 2.171505 1_555
Mg10 O12 2.171505 1_555
Mg10 O20 2.176688 1_555
Mg10 O28 2.195975 1_555
Mg10 O29 2.203862 1_555
Mg11 O23 2.157772 1_555
Mg11 O9 2.171505 1_555
Mg11 O13 2.171505 1_555
Mg11 O21 2.176688 1_555
Mg11 O28 2.195975 1_556
Mg11 O29 2.203862 1_555
Mg12 O22 2.157772 1_555
Mg12 O10 2.171505 1_555
Mg12 O14 2.171505 1_555
Mg12 O20 2.176688 1_565
Mg12 O30 2.195975 1_555
Mg12 O31 2.203862 1_555
Mg13 O23 2.157772 1_555
Mg13 O11 2.171505 1_555
Mg13 O15 2.171505 1_555
Mg13 O21 2.176688 1_565
Mg13 O30 2.195975 1_556
Mg13 O31 2.203862 1_555
Mg14 O20 2.096172 1_555
Mg14 O10 2.162553 1_545
Mg14 O8 2.162553 1_555
Mg14 O0 2.194835 1_555
Mg14 O1 2.217581 1_555
Mg14 O16 2.248446 1_555
Mg15 O21 2.096172 1_555
Mg15 O11 2.162553 1_545
Mg15 O9 2.162553 1_555
Mg15 O0 2.194835 1_556
Mg15 O1 2.217581 1_555
Mg15 O17 2.248446 1_555
Mg16 O22 2.157772 1_555
Mg16 O8 2.171505 1_555
Mg16 O10 2.171505 1_555
Mg16 O18 2.176688 1_555
Mg16 O2 2.195975 1_555
Mg16 O3 2.203862 1_555
Mg17 O23 2.157772 1_555
Mg17 O9 2.171505 1_555
Mg17 O11 2.171505 1_555
Mg17 O19 2.176688 1_555
Mg17 O2 2.195975 1_556
Mg17 O3 2.203862 1_555
Mg18 O20 2.096172 1_555
Mg18 O14 2.162553 1_545
Mg18 O12 2.162553 1_555
Mg18 O4 2.194835 1_555
Mg18 O5 2.217581 1_555
Mg18 O16 2.248446 1_655
Mg19 O21 2.096172 1_555
Mg19 O15 2.162553 1_545
Mg19 O13 2.162553 1_555
Mg19 O4 2.194835 1_556
Mg19 O5 2.217581 1_555
Mg19 O17 2.248446 1_655
Mg20 O22 2.157772 1_555
Mg20 O12 2.171505 1_555
Mg20 O14 2.171505 1_555
Mg20 O18 2.176688 1_655
Mg20 O6 2.195975 1_555
Mg20 O7 2.203862 1_555
Mg21 O23 2.157772 1_555
Mg21 O13 2.171505 1_555
Mg21 O15 2.171505 1_555
Mg21 O19 2.176688 1_655
Mg21 O6 2.195975 1_556
Mg21 O7 2.203862 1_555
Mg22 O2 2.120062 1_555
Mg22 O28 2.120062 1_555
Mg22 O9 2.205173 1_554
Mg22 O8 2.205173 1_555
Mg22 O0 2.228381 1_555
Mg22 O24 2.228381 1_555
Mg23 O3 2.133661 1_555
Mg23 O29 2.133661 1_555
Mg23 O8 2.195827 1_555
Mg23 O9 2.195827 1_555
Mg23 O25 2.198952 1_555
Mg23 O1 2.198952 1_555
Mg24 O2 2.120062 1_555
Mg24 O30 2.120062 1_555
Mg24 O11 2.205173 1_554
Mg24 O10 2.205173 1_555
Mg24 O26 2.228381 1_555
Mg24 O0 2.228381 1_565
Mg25 O3 2.133661 1_555
Mg25 O31 2.133661 1_555
Mg25 O10 2.195827 1_555
Mg25 O11 2.195827 1_555
Mg25 O27 2.198952 1_555
Mg25 O1 2.198952 1_565
Mg26 O28 2.120062 1_555
Mg26 O6 2.120062 1_555
Mg26 O13 2.205173 1_554
Mg26 O12 2.205173 1_555
Mg26 O4 2.228381 1_555
Mg26 O24 2.228381 1_655
Mg27 O29 2.133661 1_555
Mg27 O7 2.133661 1_555
Mg27 O12 2.195827 1_555
Mg27 O13 2.195827 1_555
Mg27 O5 2.198952 1_555
Mg27 O25 2.198952 1_655
Mg28 O30 2.120062 1_555
Mg28 O6 2.120062 1_555
Mg28 O15 2.205173 1_554
Mg28 O14 2.205173 1_555
Mg28 O26 2.228381 1_655
Mg28 O4 2.228381 1_565
Mg29 O31 2.133661 1_555
Mg29 O7 2.133661 1_555
Mg29 O14 2.195827 1_555
Mg29 O15 2.195827 1_555
Mg29 O27 2.198952 1_655
Mg29 O5 2.198952 1_565
O1 W0 2.210921 1_555
O5 W0 2.210921 1_655
O16 W0 2.008105 1_555
O17 W0 2.008105 1_555
O25 W0 2.210921 1_555
O27 W0 2.210921 1_565
