# generated using pymatgen
data_Ba2CaMnV2F14
_symmetry_space_group_name_H-M   'P 1'
_cell_length_a   7.38551001
_cell_length_b   7.38551001
_cell_length_c   14.99483327
_cell_angle_alpha   88.34880632
_cell_angle_beta   88.34880632
_cell_angle_gamma   42.83530849
_symmetry_Int_Tables_number   1
_chemical_formula_structural   Ba2CaMnV2F14
_chemical_formula_sum   'Ba4 Ca2 Mn2 V4 F28'
_cell_volume   555.82141049
_cell_formula_units_Z   2
loop_
 _symmetry_equiv_pos_site_id
 _symmetry_equiv_pos_as_xyz
  1  'x, y, z'
loop_
 _atom_site_type_symbol
 _atom_site_label
 _atom_site_symmetry_multiplicity
 _atom_site_fract_x
 _atom_site_fract_y
 _atom_site_fract_z
 _atom_site_occupancy
  Ba  Ba0  1  0.64959701  0.73447634  0.87852547  1
  Ba  Ba1  1  0.35040299  0.26552366  0.12147453  1
  Ba  Ba2  1  0.26552366  0.35040299  0.62147453  1
  Ba  Ba3  1  0.73447634  0.64959701  0.37852547  1
  Ca  Ca0  1  0.94438408  0.05561592  0.75000000  1
  Ca  Ca1  1  0.05561592  0.94438408  0.25000000  1
  Mn  Mn0  1  0.00000000  -0.00000000  0.50000000  1
  Mn  Mn1  1  0.00000000  -0.00000000  -0.00000000  1
  V  V0  1  0.62170136  0.61886232  0.62414568  1
  V  V1  1  0.37829864  0.38113768  0.37585432  1
  V  V2  1  0.38113768  0.37829864  0.87585432  1
  V  V3  1  0.61886232  0.62170136  0.12414568  1
  F  F0  1  0.40317381  0.76904813  0.51492658  1
  F  F1  1  0.59682619  0.23095187  0.48507342  1
  F  F2  1  0.23095187  0.59682619  0.98507342  1
  F  F3  1  0.76904813  0.40317381  0.01492658  1
  F  F4  1  0.69986076  0.80452616  0.58710027  1
  F  F5  1  0.30013924  0.19547384  0.41289973  1
  F  F6  1  0.19547384  0.30013924  0.91289973  1
  F  F7  1  0.80452616  0.69986076  0.08710027  1
  F  F8  1  0.66833418  0.07589159  0.95221359  1
  F  F9  1  0.33166582  0.92410841  0.04778641  1
  F  F10  1  0.92410841  0.33166582  0.54778641  1
  F  F11  1  0.07589159  0.66833418  0.45221359  1
  F  F12  1  0.55865171  0.12014808  0.77552283  1
  F  F13  1  0.44134829  0.87985192  0.22447717  1
  F  F14  1  0.87985192  0.44134829  0.72447717  1
  F  F15  1  0.12014808  0.55865171  0.27552283  1
  F  F16  1  0.85029046  0.03593098  0.12264129  1
  F  F17  1  0.14970954  0.96406902  0.87735871  1
  F  F18  1  0.96406902  0.14970954  0.37735871  1
  F  F19  1  0.03593098  0.85029046  0.62264129  1
  F  F20  1  0.34720522  0.90511797  0.70260148  1
  F  F21  1  0.65279478  0.09488203  0.29739852  1
  F  F22  1  0.09488203  0.65279478  0.79739852  1
  F  F23  1  0.90511797  0.34720522  0.20260148  1
  F  F24  1  0.58532669  0.39489604  0.65660854  1
  F  F25  1  0.41467331  0.60510396  0.34339146  1
  F  F26  1  0.60510396  0.41467331  0.84339146  1
  F  F27  1  0.39489604  0.58532669  0.15660854  1
loop_
_geom_bond_atom_site_label_1
_geom_bond_atom_site_label_2
_geom_bond_distance
_geom_bond_site_symmetry_2
Ba0 F26 2.680321 1_555
Ba0 F17 2.706745 1_555
Ba0 F14 2.752607 1_555
Ba0 F3 2.756503 1_556
Ba0 F6 2.804758 1_655
Ba0 F12 2.819620 1_565
Ba0 F8 2.877372 1_565
Ba0 F6 2.905566 1_565
Ba0 F9 2.992483 1_556
Ba0 F20 3.091078 1_555
Ba0 F22 3.092104 1_655
Ba0 F7 3.299589 1_556
Ba1 F27 2.680321 1_555
Ba1 F16 2.706745 1_555
Ba1 F15 2.752607 1_555
Ba1 F2 2.756503 1_554
Ba1 F7 2.804758 1_455
Ba1 F13 2.819620 1_545
Ba1 F9 2.877372 1_545
Ba1 F7 2.905566 1_545
Ba1 F8 2.992483 1_554
Ba1 F21 3.091078 1_555
Ba1 F23 3.092104 1_455
Ba1 F6 3.299589 1_554
Ba2 F24 2.680321 1_555
Ba2 F19 2.706745 1_555
Ba2 F12 2.752607 1_555
Ba2 F1 2.756503 1_555
Ba2 F4 2.804758 1_545
Ba2 F14 2.819620 1_455
Ba2 F10 2.877372 1_455
Ba2 F4 2.905566 1_455
Ba2 F11 2.992483 1_555
Ba2 F22 3.091078 1_555
Ba2 F20 3.092104 1_545
Ba2 F5 3.299589 1_555
Ba3 F25 2.680321 1_555
Ba3 F18 2.706745 1_555
Ba3 F13 2.752607 1_555
Ba3 F0 2.756503 1_555
Ba3 F5 2.804758 1_565
Ba3 F15 2.819620 1_655
Ba3 F11 2.877372 1_655
Ba3 F5 2.905566 1_655
Ba3 F10 2.992483 1_555
Ba3 F23 3.091078 1_555
Ba3 F21 3.092104 1_565
Ba3 F4 3.299589 1_555
Ca0 F17 2.234394 1_645
Ca0 F19 2.234394 1_645
Ca0 F24 2.353384 1_555
Ca0 F26 2.353384 1_555
Ca0 F22 2.380196 1_645
Ca0 F20 2.380196 1_645
Ca0 F12 2.538860 1_555
Ca0 F14 2.538860 1_555
Ca1 F16 2.234394 1_465
Ca1 F18 2.234394 1_465
Ca1 F25 2.353384 1_555
Ca1 F27 2.353384 1_555
Ca1 F23 2.380196 1_465
Ca1 F21 2.380196 1_465
Ca1 F15 2.538860 1_555
Ca1 F13 2.538860 1_555
F0 V0 1.984786 1_555
F0 Mn0 2.096034 1_565
F1 V1 1.984786 1_555
F1 Mn0 2.096034 1_655
F2 V2 1.984786 1_555
F2 Mn1 2.096034 1_566
F3 V3 1.984786 1_555
F3 Mn1 2.096034 1_655
F4 V0 1.902771 1_555
F5 V1 1.902771 1_555
F6 V2 1.902771 1_555
F7 V3 1.902771 1_555
F8 V2 1.960357 1_555
F8 Mn1 2.211823 1_656
F9 V3 1.960357 1_555
F9 Mn1 2.211823 1_565
F10 V0 1.960357 1_555
F10 Mn0 2.211823 1_655
F11 V1 1.960357 1_555
F11 Mn0 2.211823 1_565
F12 V2 2.000726 1_555
F13 V3 2.000726 1_555
F14 V0 2.000726 1_555
F15 V1 2.000726 1_555
F16 Mn1 2.038489 1_655
F17 Mn1 2.038489 1_566
F18 Mn0 2.038489 1_655
F19 Mn0 2.038489 1_565
F20 V0 1.919238 1_555
F21 V1 1.919238 1_555
F22 V2 1.919238 1_555
F23 V3 1.919238 1_555
F24 V0 1.908656 1_555
F25 V1 1.908656 1_555
F26 V2 1.908656 1_555
F27 V3 1.908656 1_555
