# generated using pymatgen
data_Na3Sr4Cr5F26
_symmetry_space_group_name_H-M   'P 1'
_cell_length_a   7.58799240
_cell_length_b   10.84831447
_cell_length_c   28.07901762
_cell_angle_alpha   86.05131602
_cell_angle_beta   82.19925608
_cell_angle_gamma   69.50674283
_symmetry_Int_Tables_number   1
_chemical_formula_structural   Na3Sr4Cr5F26
_chemical_formula_sum   'Na12 Sr16 Cr20 F104'
_cell_volume   2144.49608091
_cell_formula_units_Z   4
loop_
 _symmetry_equiv_pos_site_id
 _symmetry_equiv_pos_as_xyz
  1  'x, y, z'
loop_
 _atom_site_type_symbol
 _atom_site_label
 _atom_site_symmetry_multiplicity
 _atom_site_fract_x
 _atom_site_fract_y
 _atom_site_fract_z
 _atom_site_occupancy
  Na  Na0  1  0.88946516  0.37371830  0.37374579  1
  Na  Na1  1  0.99584777  0.75210971  0.75077893  1
  Na  Na2  1  0.24806438  0.50523938  0.50199524  1
  Na  Na3  1  0.12960865  0.12727210  0.12665126  1
  Na  Na4  1  0.12144882  0.62715719  0.62611590  1
  Na  Na5  1  0.86916495  0.87139980  0.87358357  1
  Na  Na6  1  0.49933035  0.74989252  0.74948740  1
  Na  Na7  1  0.75582469  0.99339043  0.99675183  1
  Na  Na8  1  0.49683757  0.24945087  0.25099554  1
  Na  Na9  1  0.25088403  0.00222483  0.00323059  1
  Na  Na10  1  0.75536740  0.49742797  0.49850676  1
  Na  Na11  1  0.00700590  0.24992887  0.25000929  1
  Sr  Sr0  1  0.98356453  0.36461414  0.74633922  1
  Sr  Sr1  1  0.01441306  0.63603508  0.25382744  1
  Sr  Sr2  1  0.40177072  0.86211607  0.24584037  1
  Sr  Sr3  1  0.57872631  0.23954295  0.59318925  1
  Sr  Sr4  1  0.59729359  0.13664473  0.75296418  1
  Sr  Sr5  1  0.29462799  0.47318404  0.84972298  1
  Sr  Sr6  1  0.68346252  0.63419319  0.99388493  1
  Sr  Sr7  1  0.12159704  0.02527002  0.65026247  1
  Sr  Sr8  1  0.18630552  0.13499283  0.49348383  1
  Sr  Sr9  1  0.81349162  0.86671719  0.50633931  1
  Sr  Sr10  1  0.70315188  0.52627556  0.15054736  1
  Sr  Sr11  1  0.09002309  0.73900434  0.09323528  1
  Sr  Sr12  1  0.91427716  0.25736609  0.90655554  1
  Sr  Sr13  1  0.88043944  0.97434536  0.34975222  1
  Sr  Sr14  1  0.31335099  0.36531407  0.00637583  1
  Sr  Sr15  1  0.41933811  0.76165330  0.40657441  1
  Cr  Cr0  1  0.40178787  0.46747677  0.72030868  1
  Cr  Cr1  1  0.63680900  0.61249715  0.61292581  1
  Cr  Cr2  1  0.59730195  0.53218630  0.27977599  1
  Cr  Cr3  1  0.07043599  0.33058273  0.60099912  1
  Cr  Cr4  1  0.12930673  0.69937881  0.96565328  1
  Cr  Cr5  1  0.71011438  0.91294650  0.65696777  1
  Cr  Cr6  1  0.70690566  0.19953443  0.46565182  1
  Cr  Cr7  1  0.63863622  0.11231142  0.11243657  1
  Cr  Cr8  1  0.50472946  0.16658727  0.89892297  1
  Cr  Cr9  1  0.49794913  0.83189721  0.10022038  1
  Cr  Cr10  1  0.86853680  0.30183739  0.03478604  1
  Cr  Cr11  1  0.21947936  0.41270070  0.15677871  1
  Cr  Cr12  1  0.36067312  0.88729832  0.88710829  1
  Cr  Cr13  1  0.36520219  0.38763253  0.38698462  1
  Cr  Cr14  1  0.90550041  0.96741350  0.22061076  1
  Cr  Cr15  1  0.77751854  0.58708699  0.84313311  1
  Cr  Cr16  1  0.92999783  0.66788219  0.39989938  1
  Cr  Cr17  1  0.29098422  0.08771824  0.34275978  1
  Cr  Cr18  1  0.09286963  0.03197952  0.77936548  1
  Cr  Cr19  1  0.29644373  0.80193549  0.53423578  1
  F  F0  1  0.67480431  0.39370361  0.23217878  1
  F  F1  1  0.39696988  0.52696980  0.41768001  1
  F  F2  1  0.93903789  0.13980001  0.73160376  1
  F  F3  1  0.75870975  0.72862166  0.10773694  1
  F  F4  1  0.98460099  0.42165058  0.83415132  1
  F  F5  1  0.97212274  0.66898100  0.84062932  1
  F  F6  1  0.23607775  0.92553821  0.09047155  1
  F  F7  1  0.85553941  0.46222838  0.29715317  1
  F  F8  1  0.30876573  0.35934440  0.76818202  1
  F  F9  1  0.53067263  0.11112056  0.48796342  1
  F  F10  1  0.39311373  0.73775185  0.59742547  1
  F  F11  1  0.22079921  0.76545381  0.90212893  1
  F  F12  1  0.77133979  0.54801327  0.91098492  1
  F  F13  1  0.76635917  0.07310919  0.90864676  1
  F  F14  1  0.26748563  0.04962467  0.41065394  1
  F  F15  1  0.02297590  0.33178157  0.16028859  1
  F  F16  1  0.72131756  0.88255767  0.24216194  1
  F  F17  1  0.41957078  0.23934642  0.15107361  1
  F  F18  1  0.12220833  0.50876735  0.36878037  1
  F  F19  1  0.09486366  0.77154089  0.39240945  1
  F  F20  1  0.72241834  0.82377565  0.42257762  1
  F  F21  1  0.24941905  0.42327646  0.59160156  1
  F  F22  1  0.02435924  0.62412642  0.02157503  1
  F  F23  1  0.32434714  0.60488886  0.76843008  1
  F  F24  1  0.56213550  0.22589786  0.83363323  1
  F  F25  1  0.34875488  0.61382117  0.25850980  1
  F  F26  1  0.24279421  0.26836489  0.89158327  1
  F  F27  1  0.02497328  0.36842428  0.53488042  1
  F  F28  1  0.84192832  0.97282352  0.08206102  1
  F  F29  1  0.39582878  0.50160147  0.15810751  1
  F  F30  1  0.52075193  0.16314895  0.05573496  1
  F  F31  1  0.22709096  0.45190485  0.08892336  1
  F  F32  1  0.16868043  0.53924808  0.93237258  1
  F  F33  1  0.31761707  0.25972352  0.34746935  1
  F  F34  1  0.15588750  0.02650134  0.91671175  1
  F  F35  1  0.12542823  0.21557935  0.05066288  1
  F  F36  1  0.47420033  0.88919088  0.51330053  1
  F  F37  1  0.14443379  0.54097666  0.70286185  1
  F  F38  1  0.76028719  0.66214314  0.55589734  1
  F  F39  1  0.75120793  0.57523239  0.40963238  1
  F  F40  1  0.01785779  0.17142234  0.33880233  1
  F  F41  1  0.60979605  0.26414296  0.40248742  1
  F  F42  1  0.79542981  0.61011032  0.77236108  1
  F  F43  1  0.20323839  0.38982511  0.22744783  1
  F  F44  1  0.68158785  0.74144299  0.65236769  1
  F  F45  1  0.89688185  0.28210263  0.44887801  1
  F  F46  1  0.73225486  0.95252991  0.58907909  1
  F  F47  1  0.82730680  0.46353512  0.06730905  1
  F  F48  1  0.49811236  0.99182391  0.13052629  1
  F  F49  1  0.74439014  0.07773313  0.66605824  1
  F  F50  1  0.87811866  0.49069890  0.63151752  1
  F  F51  1  0.97996406  0.62677569  0.46562873  1
  F  F52  1  0.10600419  0.71917255  0.55070501  1
  F  F53  1  0.17083071  0.87782342  0.47847332  1
  F  F54  1  0.97839468  0.37599056  0.97917295  1
  F  F55  1  0.50489187  0.00569472  0.86872776  1
  F  F56  1  0.60110344  0.47396969  0.58290939  1
  F  F57  1  0.25112332  0.91660790  0.82504794  1
  F  F58  1  0.52244613  0.67770062  0.32228931  1
  F  F59  1  0.14427695  0.96277531  0.56714907  1
  F  F60  1  0.89062579  0.95889105  0.79667690  1
  F  F61  1  0.57474647  0.75863612  0.84813116  1
  F  F62  1  0.55442571  0.34790516  0.50485424  1
  F  F63  1  0.55726236  0.99975219  0.34200361  1
  F  F64  1  0.37242064  0.61107020  0.98717425  1
  F  F65  1  0.74913894  0.08375098  0.17452733  1
  F  F66  1  0.05833693  0.86138769  0.26896627  1
  F  F67  1  0.09853357  0.84696016  0.00465174  1
  F  F68  1  0.44682165  0.65293359  0.49515342  1
  F  F69  1  0.90472547  0.22777318  0.60824784  1
  F  F70  1  0.27907048  0.17444396  0.57933387  1
  F  F71  1  0.87120083  0.78381770  0.95024203  1
  F  F72  1  0.01380939  0.57864038  0.16580984  1
  F  F73  1  0.83385984  0.12535455  0.52137333  1
  F  F74  1  0.47362398  0.32210623  0.67779893  1
  F  F75  1  0.98319438  0.82909945  0.66015442  1
  F  F76  1  0.32547705  0.10622739  0.27196334  1
  F  F77  1  0.25622910  0.92289985  0.33411611  1
  F  F78  1  0.90029426  0.15396288  0.99570048  1
  F  F79  1  0.43757832  0.77131492  0.16512850  1
  F  F80  1  0.02615723  0.82243051  0.17817920  1
  F  F81  1  0.12092488  0.27100590  0.66632271  1
  F  F82  1  0.77671102  0.23549717  0.09799041  1
  F  F83  1  0.87733069  0.72813603  0.33487946  1
  F  F84  1  0.64936400  0.38744640  0.74192158  1
  F  F85  1  0.57224552  0.87062429  0.03416173  1
  F  F86  1  0.53354215  0.32369215  0.92040370  1
  F  F87  1  0.51003448  0.41536897  0.32506128  1
  F  F88  1  0.10944774  0.03897304  0.20302941  1
  F  F89  1  0.62409088  0.39047643  0.01381660  1
  F  F90  1  0.28031713  0.11312290  0.75749605  1
  F  F91  1  0.24246701  0.33525832  0.44349884  1
  F  F92  1  0.47442200  0.83847983  0.94451248  1
  F  F93  1  0.43066184  0.13011292  0.96519989  1
  F  F94  1  0.44375606  0.00195195  0.65835832  1
  F  F95  1  0.97415964  0.17753408  0.82166482  1
  F  F96  1  0.79575321  0.10542608  0.26837679  1
  F  F97  1  0.59779634  0.50170939  0.84135919  1
  F  F98  1  0.67891617  0.89202930  0.72768503  1
  F  F99  1  0.46754955  0.67635781  0.07793567  1
  F  F100  1  0.48839280  0.58348099  0.67427276  1
  F  F101  1  0.69108407  0.63829298  0.23132403  1
  F  F102  1  0.20263814  0.89294045  0.73177451  1
  F  F103  1  0.86096898  0.03895865  0.43264109  1
loop_
_geom_bond_atom_site_label_1
_geom_bond_atom_site_label_2
_geom_bond_distance
_geom_bond_site_symmetry_2
Cr0 F74 1.920839 1_555
Cr0 F84 1.935488 1_555
Cr0 F8 1.945835 1_555
Cr0 F37 1.950599 1_555
Cr0 F100 1.952154 1_555
Cr0 F23 1.960034 1_555
Cr1 F38 1.886634 1_555
Cr1 F56 1.887767 1_555
Cr1 F10 1.957765 1_555
Cr1 F50 1.959994 1_555
Cr1 F44 1.986724 1_555
Cr1 F100 1.995375 1_555
Cr2 F58 1.920209 1_555
Cr2 F25 1.939369 1_555
Cr2 F101 1.943542 1_555
Cr2 F87 1.948954 1_555
Cr2 F7 1.954731 1_555
Cr2 F0 1.957935 1_555
Cr3 F27 1.924586 1_555
Cr3 F69 1.935882 1_455
Cr3 F21 1.935902 1_555
Cr3 F70 1.936057 1_555
Cr3 F81 1.944986 1_555
Cr3 F50 1.992916 1_455
Cr4 F64 1.916107 1_555
Cr4 F22 1.924950 1_556
Cr4 F67 1.930581 1_556
Cr4 F32 1.940258 1_555
Cr4 F71 1.944581 1_455
Cr4 F11 2.003390 1_555
Cr5 F94 1.906857 1_565
Cr5 F46 1.922821 1_555
Cr5 F49 1.932597 1_565
Cr5 F44 1.961571 1_555
Cr5 F75 1.961756 1_555
Cr5 F98 1.974430 1_555
Cr6 F9 1.920571 1_555
Cr6 F73 1.927826 1_555
Cr6 F62 1.932721 1_555
Cr6 F103 1.939746 1_555
Cr6 F45 1.940074 1_555
Cr6 F41 2.000449 1_555
Cr7 F30 1.886638 1_555
Cr7 F28 1.892879 1_545
Cr7 F82 1.959188 1_555
Cr7 F48 1.959818 1_545
Cr7 F17 1.987887 1_555
Cr7 F65 1.994796 1_555
Cr8 F93 1.925123 1_555
Cr8 F13 1.934807 1_555
Cr8 F86 1.937678 1_555
Cr8 F26 1.937841 1_555
Cr8 F24 1.944641 1_555
Cr8 F55 1.991820 1_555
Cr9 F85 1.926005 1_555
Cr9 F3 1.934791 1_555
Cr9 F99 1.936232 1_555
Cr9 F6 1.936834 1_555
Cr9 F79 1.944913 1_555
Cr9 F48 1.984757 1_555
Cr10 F89 1.918708 1_555
Cr10 F54 1.929676 1_554
Cr10 F78 1.932867 1_554
Cr10 F47 1.941052 1_555
Cr10 F35 1.943029 1_655
Cr10 F82 1.998145 1_555
Cr11 F29 1.908992 1_555
Cr11 F31 1.920977 1_555
Cr11 F72 1.931004 1_555
Cr11 F17 1.960545 1_555
Cr11 F15 1.966793 1_555
Cr11 F43 1.975223 1_555
Cr12 F92 1.887739 1_555
Cr12 F34 1.888183 1_565
Cr12 F11 1.958460 1_555
Cr12 F55 1.962948 1_565
Cr12 F61 1.981127 1_555
Cr12 F57 1.990119 1_555
Cr13 F91 1.885061 1_555
Cr13 F1 1.891240 1_555
Cr13 F41 1.956238 1_555
Cr13 F18 1.963327 1_555
Cr13 F33 1.989602 1_555
Cr13 F87 1.990557 1_555
Cr14 F80 1.919691 1_655
Cr14 F16 1.939416 1_555
Cr14 F66 1.946749 1_655
Cr14 F65 1.954038 1_565
Cr14 F88 1.955066 1_665
Cr14 F96 1.958149 1_565
Cr15 F97 1.905071 1_555
Cr15 F12 1.920977 1_555
Cr15 F4 1.932313 1_555
Cr15 F61 1.955218 1_555
Cr15 F5 1.963801 1_555
Cr15 F42 1.977865 1_555
Cr16 F51 1.925389 1_555
Cr16 F39 1.934349 1_555
Cr16 F19 1.937733 1_655
Cr16 F20 1.938410 1_555
Cr16 F83 1.941888 1_555
Cr16 F18 1.992294 1_655
Cr17 F63 1.906479 1_545
Cr17 F14 1.920352 1_555
Cr17 F77 1.932023 1_545
Cr17 F33 1.960979 1_555
Cr17 F40 1.965450 1_555
Cr17 F76 1.975128 1_555
Cr18 F95 1.920247 1_455
Cr18 F90 1.933952 1_555
Cr18 F2 1.944768 1_455
Cr18 F57 1.948973 1_545
Cr18 F60 1.953569 1_445
Cr18 F102 1.962231 1_545
Cr19 F36 1.913888 1_555
Cr19 F53 1.927691 1_555
Cr19 F68 1.931848 1_555
Cr19 F59 1.937401 1_555
Cr19 F52 1.943710 1_555
Cr19 F10 1.999142 1_555
F0 Na8 2.392448 1_555
F0 Na11 2.553360 1_655
F0 Sr10 2.645232 1_555
F1 Na2 2.514105 1_555
F1 Sr15 2.605114 1_555
F2 Sr4 2.592773 1_555
F2 Sr0 2.643342 1_555
F2 Sr7 2.646898 1_655
F3 Sr11 2.532345 1_655
F3 Sr10 2.566751 1_555
F4 Sr0 2.584815 1_555
F4 Sr5 2.696598 1_655
F4 Sr12 2.732517 1_555
F5 Na5 2.273974 1_555
F5 Na1 2.624457 1_555
F5 Sr5 2.649687 1_655
F6 Na3 2.306418 1_565
F6 Na9 2.532887 1_565
F6 Sr11 2.618101 1_555
F7 Na0 2.303543 1_555
F7 Na11 2.555578 1_655
F7 Sr1 2.714033 1_655
F8 Sr0 2.603044 1_455
F8 Sr4 2.645219 1_555
F8 Sr5 2.647427 1_555
F9 Sr8 2.518114 1_555
F9 Sr9 2.833644 1_545
F10 Na4 2.735975 1_555
F11 Na5 2.718292 1_455
F12 Sr6 2.485756 1_555
F12 Sr12 2.959108 1_555
F13 Na5 2.293274 1_545
F13 Na7 2.564090 1_545
F13 Sr12 2.606837 1_555
F14 Sr8 2.480861 1_555
F14 Sr15 2.931419 1_545
F15 Na3 2.300674 1_555
F15 Na11 2.614241 1_555
F15 Sr10 2.632775 1_455
F16 Sr2 2.498892 1_555
F16 Sr1 2.849241 1_655
F18 Na0 2.646026 1_455
F19 Sr15 2.511319 1_555
F19 Sr13 2.565535 1_455
F20 Sr9 2.654006 1_555
F20 Sr15 2.711545 1_555
F20 Sr13 2.921145 1_555
F21 Na4 2.304336 1_555
F21 Sr3 2.597955 1_555
F21 Na2 2.610318 1_555
F22 Sr11 2.627241 1_555
F22 Sr6 2.764786 1_454
F22 Sr14 2.910987 1_555
F23 Na6 2.382408 1_555
F23 Na1 2.539398 1_455
F23 Sr5 2.634260 1_555
F24 Sr4 2.469117 1_555
F24 Sr5 2.761542 1_555
F25 Sr1 2.483897 1_555
F25 Sr2 2.851607 1_555
F26 Sr12 2.514324 1_455
F26 Sr5 2.569048 1_555
F27 Na10 2.356373 1_455
F27 Na2 2.658441 1_555
F27 Sr8 2.666640 1_555
F28 Na7 2.542390 1_554
F28 Sr11 2.604546 1_655
F29 Sr10 2.418601 1_555
F30 Na7 2.575690 1_544
F30 Sr14 2.638985 1_555
F31 Sr14 2.478063 1_555
F31 Sr11 2.923419 1_555
F32 Sr5 2.441340 1_555
F32 Sr14 2.777071 1_556
F34 Sr12 2.558026 1_455
F34 Na9 2.597132 1_556
F35 Na3 2.277478 1_555
F35 Na9 2.564128 1_555
F35 Sr14 2.660940 1_555
F36 Sr9 2.481202 1_555
F36 Sr8 2.870390 1_565
F37 Na4 2.293180 1_555
F37 Na1 2.555783 1_455
F37 Sr0 2.747713 1_455
F38 Na10 2.500160 1_555
F38 Sr9 2.659719 1_555
F39 Na0 2.303377 1_555
F39 Na10 2.579455 1_555
F39 Sr15 2.628234 1_555
F40 Na0 2.295218 1_455
F40 Na11 2.581171 1_555
F40 Sr13 2.671338 1_445
F41 Na0 2.781552 1_555
F42 Na6 2.373202 1_555
F42 Na1 2.512880 1_555
F42 Sr0 2.643356 1_555
F43 Na8 2.367512 1_555
F43 Na11 2.472956 1_555
F43 Sr1 2.653374 1_555
F45 Na0 2.268441 1_555
F45 Na10 2.614821 1_555
F45 Sr8 2.637421 1_655
F46 Sr9 2.480203 1_555
F46 Sr3 2.922026 1_565
F47 Sr10 2.446615 1_555
F47 Sr6 2.745840 1_554
F48 Na3 2.678314 1_565
F49 Sr4 2.566116 1_555
F49 Sr7 2.694922 1_655
F49 Sr3 2.739794 1_555
F50 Na4 2.725886 1_655
F51 Na2 2.328097 1_655
F51 Na10 2.606648 1_555
F51 Sr9 2.719067 1_555
F52 Na4 2.277752 1_555
F52 Na2 2.589225 1_555
F52 Sr9 2.651185 1_455
F53 Sr15 2.621602 1_555
F53 Sr9 2.760207 1_455
F53 Sr8 2.894734 1_565
F54 Sr12 2.668230 1_555
F54 Sr14 2.713948 1_656
F54 Sr6 2.923037 1_555
F55 Na5 2.652665 1_545
F56 Na10 2.534569 1_555
F56 Sr3 2.601468 1_555
F58 Sr15 2.517513 1_555
F58 Sr2 2.847494 1_555
F59 Sr7 2.441883 1_565
F59 Sr8 2.752544 1_565
F60 Na5 2.306758 1_555
F60 Na1 2.489025 1_555
F60 Sr4 2.754910 1_565
F62 Na2 2.361632 1_555
F62 Na10 2.570192 1_555
F62 Sr3 2.671872 1_555
F63 Sr13 2.408366 1_555
F64 Sr6 2.492122 1_555
F64 Sr14 2.858759 1_556
F66 Sr2 2.601378 1_555
F66 Sr13 2.619691 1_455
F66 Sr1 2.649608 1_555
F67 Na9 2.348765 1_565
F67 Na7 2.559430 1_454
F67 Sr11 2.677824 1_555
F68 Na10 2.368255 1_555
F68 Na2 2.539599 1_555
F68 Sr15 2.680545 1_555
F69 Sr3 2.523790 1_555
F69 Sr7 2.562149 1_655
F70 Sr3 2.687476 1_555
F70 Sr8 2.702442 1_555
F70 Sr7 2.877015 1_555
F71 Na5 2.292003 1_555
F71 Na7 2.519068 1_555
F71 Sr6 2.652735 1_555
F72 Sr1 2.590898 1_555
F72 Sr10 2.703416 1_455
F72 Sr11 2.722117 1_555
F73 Sr3 2.637022 1_555
F73 Sr8 2.718891 1_655
F73 Sr9 2.925570 1_545
F74 Sr3 2.522114 1_555
F74 Sr4 2.830873 1_555
F75 Na4 2.284806 1_655
F75 Na1 2.626687 1_555
F75 Sr7 2.667070 1_665
F76 Na8 2.352074 1_555
F76 Na11 2.506837 1_555
F76 Sr2 2.639114 1_545
F77 Sr2 2.602018 1_555
F77 Sr13 2.686044 1_455
F77 Sr15 2.721878 1_555
F78 Na7 2.357576 1_545
F78 Na9 2.621060 1_656
F78 Sr12 2.675749 1_555
F79 Sr2 2.476528 1_555
F79 Sr10 2.733129 1_555
F80 Sr11 2.533628 1_555
F80 Sr1 2.844625 1_555
F81 Sr0 2.470437 1_455
F81 Sr7 2.732290 1_555
F82 Na3 2.729493 1_655
F83 Sr1 2.490512 1_655
F83 Sr13 2.740324 1_555
F84 Sr0 2.479704 1_555
F84 Sr4 2.873698 1_555
F85 Na7 2.350888 1_554
F85 Na9 2.589454 1_565
F85 Sr6 2.682281 1_554
F86 Sr12 2.700629 1_555
F86 Sr14 2.711077 1_556
F86 Sr5 2.886207 1_555
F88 Na3 2.295863 1_555
F88 Na11 2.544312 1_555
F88 Sr2 2.733596 1_545
F89 Sr14 2.504011 1_555
F89 Sr6 2.840466 1_554
F90 Sr4 2.491696 1_555
F90 Sr0 2.895540 1_455
F91 Na2 2.567289 1_555
F91 Sr8 2.633892 1_555
F92 Na9 2.507069 1_566
F92 Sr6 2.657393 1_555
F93 Na9 2.377338 1_556
F93 Na7 2.631072 1_545
F93 Sr14 2.678817 1_556
F94 Sr7 2.408607 1_555
F95 Sr12 2.520523 1_555
F95 Sr0 2.840200 1_555
F96 Na8 2.353307 1_555
F96 Na11 2.591654 1_655
F96 Sr13 2.639555 1_545
F97 Sr5 2.405145 1_555
F98 Na6 2.392508 1_555
F98 Na1 2.497944 1_555
F98 Sr4 2.630332 1_565
F99 Sr6 2.652854 1_554
F99 Sr11 2.682482 1_555
F99 Sr10 2.915143 1_555
F101 Sr1 2.606864 1_655
F101 Sr10 2.621987 1_555
F101 Sr2 2.653727 1_555
F102 Na6 2.339940 1_555
F102 Na1 2.533768 1_455
F102 Sr7 2.643652 1_565
F103 Sr13 2.447234 1_545
F103 Sr9 2.764040 1_545
