# generated using pymatgen
data_KMg14Si
_symmetry_space_group_name_H-M   'P 1'
_cell_length_a   6.40139261
_cell_length_b   6.40139208
_cell_length_c   10.74298645
_cell_angle_alpha   90.00000000
_cell_angle_beta   90.00000000
_cell_angle_gamma   120.00000269
_symmetry_Int_Tables_number   1
_chemical_formula_structural   KMg14Si
_chemical_formula_sum   'K1 Mg14 Si1'
_cell_volume   381.24533668
_cell_formula_units_Z   1
loop_
 _symmetry_equiv_pos_site_id
 _symmetry_equiv_pos_as_xyz
  1  'x, y, z'
loop_
 _atom_site_type_symbol
 _atom_site_label
 _atom_site_symmetry_multiplicity
 _atom_site_fract_x
 _atom_site_fract_y
 _atom_site_fract_z
 _atom_site_occupancy
  K  K0  1  0.16666700  0.33333300  0.12500000  1
  Mg  Mg0  1  0.17454418  0.83727159  0.12500000  1
  Mg  Mg1  1  0.16200110  0.83100005  0.62500000  1
  Mg  Mg2  1  0.66272841  0.32545582  0.12500000  1
  Mg  Mg3  1  0.66899995  0.33799890  0.62500000  1
  Mg  Mg4  1  0.66272841  0.83727159  0.12500000  1
  Mg  Mg5  1  0.66899995  0.83100005  0.62500000  1
  Mg  Mg6  1  0.33363415  0.16636585  0.39050872  1
  Mg  Mg7  1  0.33363415  0.16636585  0.85949128  1
  Mg  Mg8  1  0.33363415  0.66726929  0.39050872  1
  Mg  Mg9  1  0.33363415  0.66726929  0.85949128  1
  Mg  Mg10  1  0.83273071  0.16636585  0.39050872  1
  Mg  Mg11  1  0.83273071  0.16636585  0.85949128  1
  Mg  Mg12  1  0.83333300  0.66666700  0.36757389  1
  Mg  Mg13  1  0.83333300  0.66666700  0.88242611  1
  Si  Si0  1  0.16666700  0.33333300  0.62500000  1
loop_
_geom_bond_atom_site_label_1
_geom_bond_atom_site_label_2
_geom_bond_distance
_geom_bond_site_symmetry_2
K0 Mg0 3.200994 1_555
K0 Mg4 3.200994 1_555
K0 Mg0 3.200994 1_545
K0 Mg4 3.200994 1_445
K0 Mg2 3.200994 1_555
K0 Mg2 3.200994 1_455
K0 Mg6 3.400453 1_555
K0 Mg7 3.400453 1_554
K0 Mg8 3.400459 1_555
K0 Mg9 3.400459 1_554
K0 Mg10 3.400459 1_455
K0 Mg11 3.400459 1_454
Mg0 Mg2 3.125059 1_565
Mg0 Mg4 3.125059 1_555
Mg0 Mg13 3.220125 1_454
Mg0 Mg12 3.220125 1_455
Mg0 Mg2 3.276333 1_455
Mg0 Mg4 3.276334 1_455
Mg0 Mg8 3.386094 1_555
Mg0 Mg9 3.386094 1_554
Mg0 Mg6 3.386100 1_565
Mg0 Mg7 3.386100 1_564
Mg1 Mg9 3.131012 1_555
Mg1 Mg8 3.131012 1_555
Mg1 Mg7 3.131019 1_565
Mg1 Mg6 3.131019 1_565
Mg1 Mg3 3.155894 1_455
Mg1 Mg5 3.155894 1_455
Mg1 Si0 3.200801 1_565
Mg1 Si0 3.200801 1_555
Mg1 Mg3 3.245498 1_565
Mg1 Mg5 3.245499 1_555
Mg1 Mg12 3.311802 1_455
Mg1 Mg13 3.311802 1_455
Mg2 Mg4 3.125059 1_545
Mg2 Mg4 3.276333 1_555
Mg2 Mg6 3.386100 1_555
Mg2 Mg7 3.386100 1_554
Mg3 Mg7 3.131019 1_555
Mg3 Mg6 3.131019 1_555
Mg3 Mg5 3.155894 1_555
Mg3 Si0 3.200801 1_655
Mg3 Si0 3.200801 1_555
Mg3 Mg5 3.245498 1_545
Mg4 Mg8 3.386100 1_555
Mg4 Mg9 3.386100 1_554
Mg5 Mg9 3.131019 1_555
Mg5 Mg8 3.131019 1_555
Mg5 Si0 3.200801 1_665
Mg5 Si0 3.200801 1_555
Mg6 Si0 3.126211 1_555
Mg6 Mg8 3.194913 1_545
Mg6 Mg8 3.206479 1_555
Mg7 Si0 3.126211 1_555
Mg7 Mg9 3.194913 1_545
Mg7 Mg9 3.206479 1_555
Mg8 Si0 3.126217 1_555
Mg9 Si0 3.126217 1_555
Mg10 Si0 3.126217 1_655
Mg10 Mg3 3.131012 1_555
Mg10 Mg5 3.131019 1_545
Mg10 Mg8 3.194913 1_545
Mg10 Mg6 3.194913 1_555
Mg10 Mg8 3.206479 1_655
Mg10 Mg6 3.206480 1_655
Mg10 Mg12 3.210167 1_545
Mg10 Mg12 3.210167 1_555
Mg10 Mg2 3.386094 1_555
Mg10 Mg4 3.386100 1_545
Mg11 Si0 3.126217 1_655
Mg11 Mg3 3.131012 1_555
Mg11 Mg5 3.131019 1_545
Mg11 Mg9 3.194913 1_545
Mg11 Mg7 3.194913 1_555
Mg11 Mg9 3.206479 1_655
Mg11 Mg7 3.206480 1_655
Mg11 Mg13 3.210167 1_545
Mg11 Mg13 3.210167 1_555
Mg11 Mg2 3.386094 1_556
Mg11 Mg4 3.386100 1_546
Mg12 Mg6 3.210167 1_555
Mg12 Mg6 3.210167 1_665
Mg12 Mg8 3.210167 1_555
Mg12 Mg8 3.210168 1_655
Mg12 Mg4 3.220118 1_555
Mg12 Mg2 3.220125 1_555
Mg12 Mg5 3.311796 1_555
Mg12 Mg3 3.311802 1_555
Mg13 Mg7 3.210167 1_555
Mg13 Mg7 3.210167 1_665
Mg13 Mg9 3.210167 1_555
Mg13 Mg9 3.210168 1_655
Mg13 Mg4 3.220118 1_556
Mg13 Mg2 3.220125 1_556
Mg13 Mg5 3.311796 1_555
Mg13 Mg3 3.311802 1_555
