# generated using pymatgen
data_Mg16Al12Tl
_symmetry_space_group_name_H-M   'P 1'
_cell_length_a   9.16747819
_cell_length_b   9.16747819
_cell_length_c   9.16747819
_cell_angle_alpha   109.47122063
_cell_angle_beta   109.47122063
_cell_angle_gamma   109.47122063
_symmetry_Int_Tables_number   1
_chemical_formula_structural   Mg16Al12Tl
_chemical_formula_sum   'Mg16 Al12 Tl1'
_cell_volume   593.09978325
_cell_formula_units_Z   1
loop_
 _symmetry_equiv_pos_site_id
 _symmetry_equiv_pos_as_xyz
  1  'x, y, z'
loop_
 _atom_site_type_symbol
 _atom_site_label
 _atom_site_symmetry_multiplicity
 _atom_site_fract_x
 _atom_site_fract_y
 _atom_site_fract_z
 _atom_site_occupancy
  Mg  Mg0  1  0.65378400  0.00000000  0.00000000  1
  Mg  Mg1  1  0.28531800  0.60028100  0.60028100  1
  Mg  Mg2  1  0.34621600  0.34621600  0.34621600  1
  Mg  Mg3  1  0.71468200  0.31496300  0.31496300  1
  Mg  Mg4  1  0.00000000  0.68503700  0.39971900  1
  Mg  Mg5  1  0.39971900  0.00000000  0.68503700  1
  Mg  Mg6  1  0.60028100  0.60028100  0.28531800  1
  Mg  Mg7  1  0.00000000  0.00000000  0.65378400  1
  Mg  Mg8  1  0.68503700  0.39971900  0.00000000  1
  Mg  Mg9  1  0.31496300  0.71468200  0.31496300  1
  Mg  Mg10  1  0.31496300  0.31496300  0.71468200  1
  Mg  Mg11  1  0.68503700  0.00000000  0.39971900  1
  Mg  Mg12  1  0.00000000  0.65378400  0.00000000  1
  Mg  Mg13  1  0.60028100  0.28531800  0.60028100  1
  Mg  Mg14  1  0.39971900  0.68503700  0.00000000  1
  Mg  Mg15  1  0.00000000  0.39971900  0.68503700  1
  Al  Al0  1  0.18427900  0.81235000  0.81235000  1
  Al  Al1  1  0.81572100  0.62807100  0.62807100  1
  Al  Al2  1  0.00000000  0.37192900  0.18765000  1
  Al  Al3  1  0.37192900  0.18765000  0.00000000  1
  Al  Al4  1  0.62807100  0.81572100  0.62807100  1
  Al  Al5  1  0.81235000  0.18427900  0.81235000  1
  Al  Al6  1  0.18765000  0.37192900  0.00000000  1
  Al  Al7  1  0.18765000  0.00000000  0.37192900  1
  Al  Al8  1  0.81235000  0.81235000  0.18427900  1
  Al  Al9  1  0.37192900  0.00000000  0.18765000  1
  Al  Al10  1  0.62807100  0.62807100  0.81572100  1
  Al  Al11  1  0.00000000  0.18765000  0.37192900  1
  Tl  Tl0  1  0.00000000  0.00000000  0.00000000  1
loop_
_geom_bond_atom_site_label_1
_geom_bond_atom_site_label_2
_geom_bond_distance
_geom_bond_site_symmetry_2
Mg0 Mg3 3.046078 1_555
Mg0 Mg14 3.046078 1_545
Mg0 Mg5 3.046078 1_554
Mg0 Tl0 3.173928 1_655
Mg1 Mg2 3.046078 1_555
Mg1 Mg4 3.150732 1_555
Mg1 Mg15 3.150732 1_555
Mg1 Mg5 3.182463 1_565
Mg1 Mg9 3.182463 1_555
Mg1 Mg10 3.182463 1_555
Mg1 Mg14 3.182463 1_556
Mg2 Mg6 3.046078 1_555
Mg2 Tl0 3.173928 1_555
Mg3 Mg4 3.150732 1_655
Mg3 Mg8 3.182463 1_555
Mg3 Mg6 3.182463 1_555
Mg4 Mg7 3.046078 1_565
Mg4 Mg5 3.182463 1_565
Mg4 Mg8 3.182463 1_455
Mg4 Mg9 3.182463 1_555
Mg4 Mg6 3.182463 1_455
Mg5 Mg9 3.150732 1_545
Mg5 Mg8 3.182463 1_556
Mg6 Mg8 3.150732 1_555
Mg6 Mg9 3.182463 1_555
Mg7 Tl0 3.173928 1_556
Mg10 Mg7 3.046078 1_555
Mg10 Mg8 3.150732 1_556
Mg10 Mg14 3.150732 1_556
Mg10 Mg15 3.182463 1_555
Mg10 Mg5 3.182463 1_555
Mg10 Mg13 3.182463 1_555
Mg11 Mg7 3.046078 1_655
Mg11 Mg9 3.150732 1_545
Mg11 Mg13 3.150732 1_555
Mg11 Mg14 3.182463 1_545
Mg11 Mg15 3.182463 1_655
Mg11 Mg3 3.182463 1_555
Mg11 Mg6 3.182463 1_545
Mg12 Mg9 3.046078 1_555
Mg12 Mg8 3.046078 1_455
Mg12 Mg15 3.046078 1_554
Mg12 Tl0 3.173928 1_565
Mg13 Mg2 3.046078 1_555
Mg13 Mg5 3.150732 1_555
Mg13 Mg3 3.182463 1_555
Mg13 Mg15 3.182463 1_655
Mg13 Mg8 3.182463 1_556
Mg14 Mg6 3.150732 1_555
Mg14 Mg15 3.182463 1_554
Mg14 Mg9 3.182463 1_555
Mg15 Mg3 3.150732 1_455
Al0 Al1 2.758736 1_455
Al0 Al9 2.809201 1_566
Al0 Al3 2.809201 1_566
Al0 Mg1 2.880731 1_555
Al0 Mg14 2.971965 1_556
Al0 Mg5 2.971965 1_565
Al0 Mg7 3.145449 1_565
Al0 Mg12 3.145449 1_556
Al0 Mg4 3.163457 1_555
Al0 Mg15 3.163457 1_555
Al0 Tl0 3.267218 1_566
Al1 Al4 2.809201 1_555
Al1 Al10 2.809201 1_555
Al1 Mg3 2.880731 1_555
Al1 Mg6 2.971965 1_555
Al1 Mg13 2.971965 1_555
Al1 Mg12 3.145449 1_656
Al1 Mg7 3.145449 1_665
Al1 Mg15 3.163457 1_655
Al1 Mg4 3.163457 1_655
Al1 Tl0 3.267218 1_666
Al2 Al5 2.809201 1_454
Al2 Al6 2.809201 1_555
Al2 Mg4 2.880731 1_555
Al2 Mg8 2.971965 1_455
Al2 Mg9 2.971965 1_555
Al2 Mg0 3.145449 1_455
Al2 Mg2 3.145449 1_555
Al2 Mg1 3.163457 1_555
Al2 Mg3 3.163457 1_455
Al2 Tl0 3.267218 1_555
Al3 Al6 2.758736 1_555
Al3 Al9 2.809201 1_555
Al3 Mg8 2.880731 1_555
Al3 Mg5 2.971965 1_554
Al3 Mg3 2.971965 1_555
Al3 Mg7 3.145449 1_554
Al3 Mg2 3.145449 1_555
Al3 Mg10 3.163457 1_554
Al3 Mg6 3.163457 1_555
Al3 Tl0 3.267218 1_555
Al4 Al5 2.758736 1_565
Al4 Mg9 2.880731 1_555
Al4 Mg6 2.971965 1_555
Al4 Mg1 2.971965 1_555
Al4 Mg7 3.145449 1_665
Al4 Mg0 3.145449 1_566
Al4 Mg5 3.163457 1_565
Al4 Mg11 3.163457 1_565
Al4 Tl0 3.267218 1_666
Al5 Al6 2.809201 1_656
Al5 Mg13 2.880731 1_555
Al5 Mg15 2.971965 1_655
Al5 Mg8 2.971965 1_556
Al5 Mg7 3.145449 1_655
Al5 Mg0 3.145449 1_556
Al5 Mg11 3.163457 1_555
Al5 Mg5 3.163457 1_555
Al5 Tl0 3.267218 1_656
Al6 Mg14 2.880731 1_555
Al6 Mg15 2.971965 1_554
Al6 Mg9 2.971965 1_555
Al6 Mg7 3.145449 1_554
Al6 Mg2 3.145449 1_555
Al6 Mg10 3.163457 1_554
Al6 Mg6 3.163457 1_555
Al6 Tl0 3.267218 1_555
Al7 Al9 2.758736 1_555
Al7 Al8 2.809201 1_445
Al7 Mg5 2.880731 1_555
Al7 Mg4 2.971965 1_545
Al7 Mg10 2.971965 1_555
Al7 Mg12 3.145449 1_545
Al7 Mg2 3.145449 1_555
Al7 Mg9 3.163457 1_545
Al7 Mg13 3.163457 1_555
Al7 Tl0 3.267218 1_555
Al8 Mg6 2.880731 1_555
Al8 Mg11 2.971965 1_565
Al8 Mg4 2.971965 1_655
Al8 Mg0 3.145449 1_565
Al8 Mg12 3.145449 1_655
Al8 Mg8 3.163457 1_555
Al8 Mg14 3.163457 1_555
Al8 Tl0 3.267218 1_665
Al9 Mg11 2.880731 1_555
Al9 Mg3 2.971965 1_555
Al9 Mg14 2.971965 1_545
Al9 Mg12 3.145449 1_545
Al9 Mg2 3.145449 1_555
Al9 Mg9 3.163457 1_545
Al9 Mg13 3.163457 1_555
Al9 Tl0 3.267218 1_555
Al10 Al8 2.758736 1_556
Al10 Al4 2.809201 1_555
Al10 Mg10 2.880731 1_555
Al10 Mg1 2.971965 1_555
Al10 Mg13 2.971965 1_555
Al10 Mg0 3.145449 1_566
Al10 Mg12 3.145449 1_656
Al10 Mg14 3.163457 1_556
Al10 Mg8 3.163457 1_556
Al10 Tl0 3.267218 1_666
Al11 Al2 2.758736 1_555
Al11 Al8 2.809201 1_445
Al11 Al7 2.809201 1_555
Al11 Mg15 2.880731 1_555
Al11 Mg11 2.971965 1_455
Al11 Mg10 2.971965 1_555
Al11 Mg0 3.145449 1_455
Al11 Mg2 3.145449 1_555
Al11 Mg1 3.163457 1_555
Al11 Mg3 3.163457 1_455
Al11 Tl0 3.267218 1_555
