# generated using pymatgen
data_Ba(MnN)2
_symmetry_space_group_name_H-M   'P 1'
_cell_length_a   6.54418104
_cell_length_b   6.24450383
_cell_length_c   9.66010196
_cell_angle_alpha   89.99999921
_cell_angle_beta   42.43289759
_cell_angle_gamma   61.50359792
_symmetry_Int_Tables_number   1
_chemical_formula_structural   Ba(MnN)2
_chemical_formula_sum   'Ba2 Mn4 N4'
_cell_volume   188.34215849
_cell_formula_units_Z   2
loop_
 _symmetry_equiv_pos_site_id
 _symmetry_equiv_pos_as_xyz
  1  'x, y, z'
loop_
 _atom_site_type_symbol
 _atom_site_label
 _atom_site_symmetry_multiplicity
 _atom_site_fract_x
 _atom_site_fract_y
 _atom_site_fract_z
 _atom_site_occupancy
  Ba  Ba0  1  -0.00000000  0.00000000  0.25000000  1
  Ba  Ba1  1  -0.00000000  0.00000000  0.75000000  1
  Mn  Mn0  1  0.72892603  0.50000000  0.63553749  1
  Mn  Mn1  1  0.27107397  0.50000000  0.36446251  1
  Mn  Mn2  1  0.27107397  0.22892603  0.86446251  1
  Mn  Mn3  1  0.72892603  0.77107397  0.13553749  1
  N  N0  1  0.67967455  0.50000000  0.16016273  1
  N  N1  1  0.32032545  0.50000000  0.83983727  1
  N  N2  1  0.32032545  0.17967455  0.33983727  1
  N  N3  1  0.67967455  0.82032545  0.66016273  1
loop_
_geom_bond_atom_site_label_1
_geom_bond_atom_site_label_2
_geom_bond_distance
_geom_bond_site_symmetry_2
Ba0 N0 3.366897 1_545
Ba0 N1 3.366897 1_455
Ba0 N0 3.366897 1_455
Ba0 N3 3.366897 1_544
Ba0 N2 3.366897 1_455
Ba0 N2 3.366897 1_555
Ba0 N1 3.366897 1_544
Ba0 N3 3.366897 1_445
Ba0 Mn0 3.424665 1_544
Ba0 Mn2 3.424665 1_455
Ba0 Mn1 3.424665 1_545
Ba0 Mn3 3.424665 1_445
Ba0 Mn1 3.424672 1_455
Ba0 Mn3 3.424672 1_545
Ba0 Mn0 3.424672 1_455
Ba0 Mn2 3.424672 1_554
Ba1 N1 3.366897 1_455
Ba1 N0 3.366897 1_545
Ba1 N1 3.366897 1_545
Ba1 N2 3.366897 1_456
Ba1 N3 3.366897 1_545
Ba1 N3 3.366897 1_445
Ba1 N0 3.366897 1_456
Ba1 N2 3.366897 1_555
Ba1 Mn1 3.424665 1_456
Ba1 Mn3 3.424665 1_545
Ba1 Mn0 3.424665 1_455
Ba1 Mn2 3.424665 1_555
Ba1 Mn0 3.424672 1_545
Ba1 Mn2 3.424672 1_455
Ba1 Mn1 3.424672 1_545
Ba1 Mn3 3.424672 1_446
Mn0 N1 1.804188 1_555
Mn0 N2 1.852890 1_655
Mn0 N3 1.852890 1_555
Mn1 N0 1.804188 1_555
Mn1 N3 1.852890 1_455
Mn1 N2 1.852890 1_555
Mn2 N3 1.804188 1_545
Mn2 N0 1.852890 1_456
Mn2 N1 1.852890 1_555
Mn3 N2 1.804188 1_565
Mn3 N1 1.852890 1_654
Mn3 N0 1.852890 1_555
