# generated using pymatgen
data_KCu2(SO5)2
_symmetry_space_group_name_H-M   'P 1'
_cell_length_a   5.56633835
_cell_length_b   5.56633835
_cell_length_c   8.65741721
_cell_angle_alpha   65.03771049
_cell_angle_beta   65.03771049
_cell_angle_gamma   66.99330958
_symmetry_Int_Tables_number   1
_chemical_formula_structural   KCu2(SO5)2
_chemical_formula_sum   'K1 Cu2 S2 O10'
_cell_volume   212.95464427
_cell_formula_units_Z   1
loop_
 _symmetry_equiv_pos_site_id
 _symmetry_equiv_pos_as_xyz
  1  'x, y, z'
loop_
 _atom_site_type_symbol
 _atom_site_label
 _atom_site_symmetry_multiplicity
 _atom_site_fract_x
 _atom_site_fract_y
 _atom_site_fract_z
 _atom_site_occupancy
  K  K0  1  0.50000000  0.50000000  0.50000000  1
  Cu  Cu0  1  0.00000000  0.50000000  0.00000000  1
  Cu  Cu1  1  0.50000000  0.00000000  0.00000000  1
  S  S0  1  0.06520700  0.06520700  0.72772800  1
  S  S1  1  0.93479300  0.93479300  0.27227200  1
  O  O0  1  0.16418300  0.16418300  0.81635600  1
  O  O1  1  0.83581700  0.83581700  0.18364400  1
  O  O2  1  0.16567100  0.16567100  0.53269600  1
  O  O3  1  0.83432900  0.83432900  0.46730400  1
  O  O4  1  0.75068700  0.15915100  0.78051700  1
  O  O5  1  0.15915100  0.75068700  0.78051700  1
  O  O6  1  0.24931300  0.84084900  0.21948300  1
  O  O7  1  0.84084900  0.24931300  0.21948300  1
  O  O8  1  0.32989400  0.32989400  0.03451900  1
  O  O9  1  0.67010600  0.67010600  0.96548100  1
loop_
_geom_bond_atom_site_label_1
_geom_bond_atom_site_label_2
_geom_bond_distance
_geom_bond_site_symmetry_2
K0 O4 2.889030 1_555
K0 O5 2.889030 1_555
K0 O6 2.889030 1_555
K0 O7 2.889030 1_555
K0 O1 2.928906 1_555
K0 O0 2.928906 1_555
K0 O3 2.970623 1_555
K0 O2 2.970623 1_555
Cu0 O8 1.795297 1_555
Cu0 O9 1.795297 1_454
Cu0 O7 1.910516 1_455
Cu0 O5 1.910516 1_554
Cu1 O8 1.795297 1_555
Cu1 O9 1.795297 1_544
Cu1 O6 1.910516 1_545
Cu1 O4 1.910516 1_554
O0 S0 1.465145 1_555
O1 S1 1.465145 1_555
O2 S0 1.458392 1_555
O3 S1 1.458392 1_555
O4 S0 1.535615 1_655
O5 S0 1.535615 1_565
O6 S1 1.535615 1_455
O7 S1 1.535615 1_545
