# generated using pymatgen
data_BaMg14Sn
_symmetry_space_group_name_H-M   'P 1'
_cell_length_a   6.57999714
_cell_length_b   6.57999657
_cell_length_c   10.76078634
_cell_angle_alpha   90.00000000
_cell_angle_beta   90.00000000
_cell_angle_gamma   120.00000287
_symmetry_Int_Tables_number   1
_chemical_formula_structural   BaMg14Sn
_chemical_formula_sum   'Ba1 Mg14 Sn1'
_cell_volume   403.48370441
_cell_formula_units_Z   1
loop_
 _symmetry_equiv_pos_site_id
 _symmetry_equiv_pos_as_xyz
  1  'x, y, z'
loop_
 _atom_site_type_symbol
 _atom_site_label
 _atom_site_symmetry_multiplicity
 _atom_site_fract_x
 _atom_site_fract_y
 _atom_site_fract_z
 _atom_site_occupancy
  Ba  Ba0  1  0.16666700  0.33333300  0.62500000  1
  Mg  Mg0  1  0.16197610  0.83098755  0.12500000  1
  Mg  Mg1  1  0.17867236  0.83933568  0.62500000  1
  Mg  Mg2  1  0.66901245  0.33802390  0.12500000  1
  Mg  Mg3  1  0.66066432  0.32132764  0.62500000  1
  Mg  Mg4  1  0.66901245  0.83098755  0.12500000  1
  Mg  Mg5  1  0.66066432  0.83933568  0.62500000  1
  Mg  Mg6  1  0.33870637  0.16129363  0.36313093  1
  Mg  Mg7  1  0.33870637  0.16129363  0.88686907  1
  Mg  Mg8  1  0.33870637  0.67741374  0.36313093  1
  Mg  Mg9  1  0.33870637  0.67741374  0.88686907  1
  Mg  Mg10  1  0.82258626  0.16129363  0.36313093  1
  Mg  Mg11  1  0.82258626  0.16129363  0.88686907  1
  Mg  Mg12  1  0.83333300  0.66666700  0.38239759  1
  Mg  Mg13  1  0.83333300  0.66666700  0.86760241  1
  Sn  Sn0  1  0.16666700  0.33333300  0.12500000  1
loop_
_geom_bond_atom_site_label_1
_geom_bond_atom_site_label_2
_geom_bond_distance
_geom_bond_site_symmetry_2
Ba0 Mg5 3.290709 1_555
Ba0 Mg1 3.290709 1_555
Ba0 Mg5 3.290709 1_445
Ba0 Mg1 3.290709 1_545
Ba0 Mg3 3.290710 1_555
Ba0 Mg3 3.290710 1_455
Ba0 Mg6 3.432937 1_555
Ba0 Mg7 3.432937 1_555
Ba0 Mg8 3.432943 1_555
Ba0 Mg9 3.432943 1_555
Ba0 Mg10 3.432943 1_455
Ba0 Mg11 3.432943 1_455
Mg0 Mg9 3.180383 1_554
Mg0 Mg8 3.180383 1_555
Mg0 Mg6 3.180390 1_565
Mg0 Mg7 3.180390 1_564
Mg0 Mg2 3.243699 1_455
Mg0 Mg4 3.243699 1_455
Mg0 Sn0 3.290107 1_565
Mg0 Sn0 3.290107 1_555
Mg0 Mg2 3.336297 1_565
Mg0 Mg4 3.336298 1_555
Mg0 Mg13 3.343502 1_454
Mg0 Mg12 3.343502 1_455
Mg1 Mg3 3.171505 1_565
Mg1 Mg5 3.171506 1_555
Mg1 Mg12 3.269222 1_455
Mg1 Mg13 3.269222 1_455
Mg1 Mg8 3.362533 1_555
Mg1 Mg9 3.362533 1_555
Mg1 Mg6 3.362539 1_565
Mg1 Mg7 3.362539 1_565
Mg1 Mg3 3.408491 1_455
Mg1 Mg5 3.408491 1_455
Mg2 Mg7 3.180390 1_554
Mg2 Mg6 3.180390 1_555
Mg2 Mg4 3.243699 1_555
Mg2 Sn0 3.290107 1_655
Mg2 Sn0 3.290107 1_555
Mg2 Mg4 3.336297 1_545
Mg3 Mg5 3.171505 1_545
Mg3 Mg6 3.362539 1_555
Mg3 Mg7 3.362539 1_555
Mg3 Mg5 3.408491 1_555
Mg4 Mg9 3.180390 1_554
Mg4 Mg8 3.180390 1_555
Mg4 Sn0 3.290107 1_665
Mg4 Sn0 3.290107 1_555
Mg5 Mg8 3.362539 1_555
Mg5 Mg9 3.362539 1_555
Mg6 Mg8 3.183928 1_545
Mg6 Sn0 3.226559 1_555
Mg6 Mg8 3.396069 1_555
Mg7 Mg9 3.183928 1_545
Mg7 Sn0 3.226559 1_556
Mg7 Mg9 3.396069 1_555
Mg8 Sn0 3.226566 1_555
Mg9 Sn0 3.226566 1_556
Mg10 Mg2 3.180383 1_555
Mg10 Mg4 3.180390 1_545
Mg10 Mg8 3.183928 1_545
Mg10 Mg6 3.183928 1_555
Mg10 Sn0 3.226566 1_655
Mg10 Mg12 3.297093 1_555
Mg10 Mg12 3.297093 1_545
Mg10 Mg3 3.362533 1_555
Mg10 Mg5 3.362539 1_545
Mg10 Mg8 3.396069 1_655
Mg10 Mg6 3.396069 1_655
Mg11 Mg2 3.180383 1_556
Mg11 Mg4 3.180390 1_546
Mg11 Mg9 3.183928 1_545
Mg11 Mg7 3.183928 1_555
Mg11 Sn0 3.226566 1_656
Mg11 Mg13 3.297093 1_555
Mg11 Mg13 3.297093 1_545
Mg11 Mg3 3.362533 1_555
Mg11 Mg5 3.362539 1_545
Mg11 Mg9 3.396069 1_655
Mg11 Mg7 3.396069 1_655
Mg12 Mg5 3.269215 1_555
Mg12 Mg3 3.269222 1_555
Mg12 Mg6 3.297093 1_555
Mg12 Mg6 3.297093 1_665
Mg12 Mg8 3.297093 1_655
Mg12 Mg8 3.297093 1_555
Mg12 Mg4 3.343495 1_555
Mg12 Mg2 3.343502 1_555
Mg13 Mg5 3.269215 1_555
Mg13 Mg3 3.269222 1_555
Mg13 Mg7 3.297093 1_555
Mg13 Mg7 3.297093 1_665
Mg13 Mg9 3.297093 1_655
Mg13 Mg9 3.297093 1_555
Mg13 Mg4 3.343495 1_556
Mg13 Mg2 3.343502 1_556
