# generated using pymatgen
data_Ta2Mn4O9
_symmetry_space_group_name_H-M   'P 1'
_cell_length_a   5.29409560
_cell_length_b   5.29409822
_cell_length_c   14.34459484
_cell_angle_alpha   89.99985760
_cell_angle_beta   90.00000380
_cell_angle_gamma   119.99953110
_symmetry_Int_Tables_number   1
_chemical_formula_structural   Ta2Mn4O9
_chemical_formula_sum   'Ta4 Mn8 O18'
_cell_volume   348.18074008
_cell_formula_units_Z   2
loop_
 _symmetry_equiv_pos_site_id
 _symmetry_equiv_pos_as_xyz
  1  'x, y, z'
loop_
 _atom_site_type_symbol
 _atom_site_label
 _atom_site_symmetry_multiplicity
 _atom_site_fract_x
 _atom_site_fract_y
 _atom_site_fract_z
 _atom_site_occupancy
  Ta  Ta0  1  0.00000299  0.00000385  0.35704126  1
  Ta  Ta1  1  0.00000790  0.00000802  0.14295992  1
  Ta  Ta2  1  0.99999095  0.99999052  0.64295351  1
  Ta  Ta3  1  -0.00000172  -0.00000210  0.85703975  1
  Mn  Mn0  1  0.66666116  0.33332676  0.48258497  1
  Mn  Mn1  1  0.66667211  0.33333901  0.98259431  1
  Mn  Mn2  1  0.66666134  0.33332717  0.69623897  1
  Mn  Mn3  1  0.66666940  0.33333660  0.19624731  1
  Mn  Mn4  1  0.33333534  0.66666675  0.01741427  1
  Mn  Mn5  1  0.33333173  0.66666474  0.51740915  1
  Mn  Mn6  1  0.33333170  0.66666271  0.80376444  1
  Mn  Mn7  1  0.33333713  0.66666909  0.30376167  1
  O  O0  1  0.27897228  0.00000345  0.25000029  1
  O  O1  1  0.00000642  0.27897346  0.25000045  1
  O  O2  1  0.72103602  0.72103837  0.24999978  1
  O  O3  1  0.72102106  0.99999174  0.74999837  1
  O  O4  1  -0.00000691  0.72102094  0.74999853  1
  O  O5  1  0.27896476  0.27896659  0.74999789  1
  O  O6  1  0.68879570  0.66232057  0.58557247  1
  O  O7  1  0.33766218  0.02646416  0.58557271  1
  O  O8  1  0.97351636  0.31118878  0.58557294  1
  O  O9  1  0.02646836  0.33767382  0.91442145  1
  O  O10  1  0.31120778  0.97353575  0.91441995  1
  O  O11  1  0.66233682  0.68880737  0.91442765  1
  O  O12  1  0.31121250  0.33767328  0.41441896  1
  O  O13  1  0.66232694  0.97354247  0.41441767  1
  O  O14  1  0.02646001  0.68878545  0.41441789  1
  O  O15  1  0.97354922  0.66233195  0.08558353  1
  O  O16  1  0.68878911  0.02646567  0.08558373  1
  O  O17  1  0.33768235  0.31122204  0.08558320  1
loop_
_geom_bond_atom_site_label_1
_geom_bond_atom_site_label_2
_geom_bond_distance
_geom_bond_site_symmetry_2
Mn0 O13 2.130961 1_545
Mn0 O12 2.130972 1_555
Mn0 O14 2.131022 1_655
Mn0 O8 2.241801 1_555
Mn0 O6 2.241810 1_555
Mn0 O7 2.241832 1_555
Mn1 O11 2.131041 1_555
Mn1 O9 2.131050 1_655
Mn1 O10 2.131097 1_545
Mn1 O17 2.241835 1_556
Mn1 O16 2.241839 1_556
Mn1 O15 2.241864 1_556
Mn2 O3 2.073536 1_545
Mn2 O5 2.073543 1_555
Mn2 O4 2.073543 1_655
Mn2 O8 2.315864 1_555
Mn2 O6 2.315874 1_555
Mn2 O7 2.315904 1_555
Mn3 O0 2.073517 1_555
Mn3 O1 2.073521 1_655
Mn3 O2 2.073526 1_555
Mn3 O17 2.315863 1_555
Mn3 O16 2.315864 1_555
Mn3 O15 2.315895 1_555
Mn4 O17 2.130973 1_555
Mn4 O15 2.130978 1_455
Mn4 O16 2.131030 1_565
Mn4 O11 2.241818 1_554
Mn4 O9 2.241880 1_554
Mn4 O10 2.241891 1_554
Mn5 O7 2.131017 1_565
Mn5 O6 2.131021 1_555
Mn5 O8 2.131079 1_455
Mn5 O12 2.241853 1_555
Mn5 O14 2.241860 1_555
Mn5 O13 2.241886 1_555
Mn6 O3 2.073556 1_555
Mn6 O5 2.073572 1_555
Mn6 O4 2.073582 1_555
Mn6 O9 2.315786 1_555
Mn6 O10 2.315802 1_555
Mn6 O11 2.315871 1_555
Mn7 O2 2.073554 1_555
Mn7 O1 2.073555 1_555
Mn7 O0 2.073556 1_565
Mn7 O13 2.315801 1_555
Mn7 O14 2.315806 1_555
Mn7 O12 2.315809 1_555
O0 Ta1 2.130439 1_555
O0 Ta0 2.130456 1_555
O1 Ta1 2.130442 1_555
O1 Ta0 2.130446 1_555
O2 Ta1 2.130454 1_665
O2 Ta0 2.130459 1_665
O3 Ta3 2.130477 1_665
O3 Ta2 2.130500 1_555
O4 Ta3 2.130480 1_565
O4 Ta2 2.130500 1_455
O5 Ta3 2.130463 1_555
O5 Ta2 2.130521 1_445
O6 Ta2 1.908497 1_555
O7 Ta2 1.908492 1_445
O8 Ta2 1.908493 1_545
O9 Ta3 1.908530 1_555
O10 Ta3 1.908512 1_565
O11 Ta3 1.908503 1_665
O12 Ta0 1.908505 1_555
O13 Ta0 1.908513 1_665
O14 Ta0 1.908518 1_565
O15 Ta1 1.908522 1_665
O16 Ta1 1.908520 1_655
O17 Ta1 1.908518 1_555
