# generated using pymatgen
data_LaMgMnFeO6
_symmetry_space_group_name_H-M   'P 1'
_cell_length_a   5.33904471
_cell_length_b   7.62388446
_cell_length_c   5.48240000
_cell_angle_alpha   89.99932728
_cell_angle_beta   90.00014881
_cell_angle_gamma   90.17617603
_symmetry_Int_Tables_number   1
_chemical_formula_structural   LaMgMnFeO6
_chemical_formula_sum   'La2 Mg2 Mn2 Fe2 O12'
_cell_volume   223.15597994
_cell_formula_units_Z   2
loop_
 _symmetry_equiv_pos_site_id
 _symmetry_equiv_pos_as_xyz
  1  'x, y, z'
loop_
 _atom_site_type_symbol
 _atom_site_label
 _atom_site_symmetry_multiplicity
 _atom_site_fract_x
 _atom_site_fract_y
 _atom_site_fract_z
 _atom_site_occupancy
  La  La0  1  0.99233800  0.25028900  0.03299800  1
  La  La1  1  0.49232900  0.75030000  0.46700500  1
  Mg  Mg0  1  0.52669800  0.25085500  0.55606200  1
  Mg  Mg1  1  0.02670300  0.75085100  0.94394500  1
  Mn  Mn0  1  0.49937400  0.99870700  0.99791000  1
  Mn  Mn1  1  0.99937900  0.49870500  0.50208700  1
  Fe  Fe0  1  0.00065200  0.00290000  0.49911900  1
  Fe  Fe1  1  0.50067400  0.50290600  0.00087400  1
  O  O0  1  0.62808000  0.75756700  0.01928600  1
  O  O1  1  0.12808600  0.25756600  0.48071200  1
  O  O2  1  0.20014200  0.94285400  0.19467400  1
  O  O3  1  0.70014500  0.44284600  0.30532700  1
  O  O4  1  0.18825500  0.55785700  0.20391500  1
  O  O5  1  0.68825100  0.05784900  0.29608600  1
  O  O6  1  0.92283700  0.74256400  0.54517700  1
  O  O7  1  0.42283300  0.24256300  0.95482300  1
  O  O8  1  0.26603900  0.55083400  0.72775500  1
  O  O9  1  0.76603900  0.05083700  0.77224400  1
  O  O10  1  0.27557000  0.94557400  0.73369900  1
  O  O11  1  0.77557300  0.44557000  0.76630400  1
loop_
_geom_bond_atom_site_label_1
_geom_bond_atom_site_label_2
_geom_bond_distance
_geom_bond_site_symmetry_2
La0 O7 2.338971 1_654
La0 O11 2.388357 1_554
La0 O9 2.409232 1_554
La0 O1 2.559865 1_655
La0 O3 2.613822 1_555
La0 O5 2.618026 1_555
La0 O4 2.730479 1_655
La0 O2 2.743384 1_645
La1 O6 2.339036 1_555
La1 O10 2.388333 1_555
La1 O8 2.409244 1_555
La1 O0 2.559897 1_555
La1 O2 2.613771 1_555
La1 O4 2.618017 1_555
La1 O5 2.730352 1_565
La1 O3 2.743557 1_555
Mg0 O1 2.168686 1_555
Mg0 O3 2.209355 1_555
Mg0 O5 2.224516 1_555
Mg0 O7 2.256242 1_555
Mg0 O11 2.299074 1_555
Mg0 O9 2.318381 1_555
Mg1 O0 2.168738 1_456
Mg1 O2 2.209396 1_556
Mg1 O4 2.224408 1_556
Mg1 O6 2.256278 1_455
Mg1 O10 2.299086 1_555
Mg1 O8 2.318406 1_555
Mn0 O7 1.919329 1_565
Mn0 O10 1.920178 1_555
Mn0 O9 1.926691 1_565
Mn0 O0 1.968120 1_556
Mn0 O5 1.972243 1_566
Mn0 O2 1.973114 1_556
Mn1 O6 1.919360 1_555
Mn1 O11 1.920211 1_555
Mn1 O8 1.926678 1_655
Mn1 O1 1.968117 1_655
Mn1 O4 1.972235 1_655
Mn1 O3 1.973122 1_555
Fe0 O9 1.986852 1_455
Fe0 O10 2.000830 1_545
Fe0 O2 2.032943 1_545
Fe0 O6 2.042205 1_445
Fe0 O5 2.049573 1_455
Fe0 O1 2.057805 1_555
Fe1 O8 1.986877 1_554
Fe1 O11 2.000749 1_554
Fe1 O3 2.032937 1_555
Fe1 O7 2.042286 1_554
Fe1 O4 2.049689 1_555
Fe1 O0 2.057723 1_555
