# generated using pymatgen
data_KCrF3
_symmetry_space_group_name_H-M   'P 1'
_cell_length_a   5.84693191
_cell_length_b   5.84693191
_cell_length_c   5.84693191
_cell_angle_alpha   118.27137503
_cell_angle_beta   118.27137503
_cell_angle_gamma   93.02108626
_symmetry_Int_Tables_number   1
_chemical_formula_structural   KCrF3
_chemical_formula_sum   'K2 Cr2 F6'
_cell_volume   144.81653080
_cell_formula_units_Z   2
loop_
 _symmetry_equiv_pos_site_id
 _symmetry_equiv_pos_as_xyz
  1  'x, y, z'
loop_
 _atom_site_type_symbol
 _atom_site_label
 _atom_site_symmetry_multiplicity
 _atom_site_fract_x
 _atom_site_fract_y
 _atom_site_fract_z
 _atom_site_occupancy
  K  K0  1  0.25000000  0.25000000  -0.00000000  1
  K  K1  1  0.75000000  0.75000000  -0.00000000  1
  Cr  Cr0  1  -0.00000000  0.50000000  0.50000000  1
  Cr  Cr1  1  0.50000000  -0.00000000  0.50000000  1
  F  F0  1  0.73275212  0.23275212  0.96550625  1
  F  F1  1  0.76724788  0.73275212  0.50000000  1
  F  F2  1  0.23275212  0.26724788  0.50000000  1
  F  F3  1  0.26724788  0.76724788  0.03449375  1
  F  F4  1  0.75000000  0.25000000  0.50000000  1
  F  F5  1  0.25000000  0.75000000  0.50000000  1
loop_
_geom_bond_atom_site_label_1
_geom_bond_atom_site_label_2
_geom_bond_distance
_geom_bond_site_symmetry_2
Cr0 F1 1.974648 1_455
Cr0 F2 1.974648 1_555
Cr0 F4 2.011991 1_455
Cr0 F5 2.011991 1_555
Cr0 F3 2.267298 1_556
Cr0 F0 2.267298 1_454
Cr1 F0 1.974657 1_555
Cr1 F3 1.974657 1_545
Cr1 F4 2.011991 1_555
Cr1 F5 2.011991 1_545
Cr1 F1 2.267307 1_545
Cr1 F2 2.267307 1_555
F0 K0 2.927120 1_556
F0 K1 2.927120 1_546
F0 K0 2.927131 1_656
F0 K1 2.927131 1_556
F1 K0 2.927126 1_666
F1 K1 2.927126 1_556
F1 K0 2.927126 1_555
F1 K1 2.927126 1_555
F2 K1 2.927126 1_445
F2 K1 2.927126 1_556
F2 K0 2.927126 1_555
F2 K0 2.927126 1_556
F3 K1 2.927120 1_555
F3 K0 2.927120 1_565
F3 K1 2.927131 1_455
F3 K0 2.927131 1_555
F4 K0 2.999515 1_555
F4 K0 2.999515 1_656
F4 K1 2.999515 1_545
F4 K1 2.999515 1_556
F5 K0 2.999515 1_555
F5 K0 2.999515 1_566
F5 K1 2.999515 1_556
F5 K1 2.999515 1_455
