# generated using pymatgen
data_Nd5(In2Pt)2
_symmetry_space_group_name_H-M   'P 1'
_cell_length_a   3.78458277
_cell_length_b   8.26430396
_cell_length_c   18.63323504
_cell_angle_alpha   90.00000000
_cell_angle_beta   90.00000000
_cell_angle_gamma   90.00000000
_symmetry_Int_Tables_number   1
_chemical_formula_structural   Nd5(In2Pt)2
_chemical_formula_sum   'Nd10 In8 Pt4'
_cell_volume   582.79061857
_cell_formula_units_Z   2
loop_
 _symmetry_equiv_pos_site_id
 _symmetry_equiv_pos_as_xyz
  1  'x, y, z'
loop_
 _atom_site_type_symbol
 _atom_site_label
 _atom_site_symmetry_multiplicity
 _atom_site_fract_x
 _atom_site_fract_y
 _atom_site_fract_z
 _atom_site_occupancy
  Nd  Nd0  1  0.00000000  0.11713816  0.41569928  1
  Nd  Nd1  1  0.00000000  0.88286184  0.58430072  1
  Nd  Nd2  1  -0.00000000  0.38286184  0.91569928  1
  Nd  Nd3  1  0.00000000  0.61713816  0.08430072  1
  Nd  Nd4  1  -0.00000000  0.24178391  0.22195620  1
  Nd  Nd5  1  0.00000000  0.75821609  0.77804380  1
  Nd  Nd6  1  0.00000000  0.25821609  0.72195620  1
  Nd  Nd7  1  0.00000000  0.74178391  0.27804380  1
  Nd  Nd8  1  0.00000000  -0.00000000  0.00000000  1
  Nd  Nd9  1  0.00000000  0.50000000  0.50000000  1
  In  In0  1  0.50000000  0.43064260  0.35070300  1
  In  In1  1  0.50000000  0.56935740  0.64929700  1
  In  In2  1  0.50000000  0.06935740  0.85070300  1
  In  In3  1  0.50000000  0.93064260  0.14929700  1
  In  In4  1  0.50000000  0.28912506  0.07054290  1
  In  In5  1  0.50000000  0.71087494  0.92945710  1
  In  In6  1  0.50000000  0.21087494  0.57054290  1
  In  In7  1  0.50000000  0.78912506  0.42945710  1
  Pt  Pt0  1  0.50000000  0.01948314  0.30370260  1
  Pt  Pt1  1  0.50000000  0.98051686  0.69629740  1
  Pt  Pt2  1  0.50000000  0.48051686  0.80370260  1
  Pt  Pt3  1  0.50000000  0.51948314  0.19629740  1
loop_
_geom_bond_atom_site_label_1
_geom_bond_atom_site_label_2
_geom_bond_distance
_geom_bond_site_symmetry_2
Nd0 Pt0 2.930373 1_555
Nd0 Pt0 2.930373 1_455
Nd1 Pt1 2.930373 1_455
Nd1 Pt1 2.930373 1_555
Nd2 Pt2 2.930373 1_455
Nd2 Pt2 2.930373 1_555
Nd3 Pt3 2.930373 1_455
Nd3 Pt3 2.930373 1_555
Nd4 Pt3 3.012696 1_555
Nd4 Pt3 3.012696 1_455
Nd4 Pt0 3.045663 1_455
Nd4 Pt0 3.045663 1_555
Nd5 Pt2 3.012696 1_455
Nd5 Pt2 3.012696 1_555
Nd5 Pt1 3.045663 1_455
Nd5 Pt1 3.045663 1_555
Nd6 Pt1 3.012696 1_445
Nd6 Pt1 3.012696 1_545
Nd6 Pt2 3.045663 1_455
Nd6 Pt2 3.045663 1_555
Nd7 Pt0 3.012696 1_565
Nd7 Pt0 3.012696 1_465
Nd7 Pt3 3.045663 1_455
Nd7 Pt3 3.045663 1_555
In0 Pt3 2.969280 1_555
In0 In7 3.306121 1_555
In0 Nd9 3.412947 1_555
In0 Nd9 3.412947 1_655
In0 Nd0 3.429322 1_555
In0 Nd0 3.429322 1_655
In0 Nd4 3.431016 1_555
In0 Nd4 3.431016 1_655
In0 Nd7 3.467805 1_655
In0 Nd7 3.467805 1_555
In0 Pt0 3.508991 1_555
In1 Pt2 2.969280 1_555
In1 In6 3.306121 1_555
In1 Nd9 3.412947 1_555
In1 Nd9 3.412947 1_655
In1 Nd1 3.429322 1_555
In1 Nd1 3.429322 1_655
In1 Nd5 3.431016 1_555
In1 Nd5 3.431016 1_655
In1 Nd6 3.467805 1_555
In1 Nd6 3.467805 1_655
In1 Pt1 3.508991 1_555
In2 Pt1 2.969280 1_545
In2 In5 3.306121 1_545
In2 Nd8 3.412947 1_556
In2 Nd8 3.412947 1_656
In2 Nd2 3.429322 1_555
In2 Nd2 3.429322 1_655
In2 Nd6 3.431016 1_655
In2 Nd6 3.431016 1_555
In2 Nd5 3.467805 1_545
In2 Nd5 3.467805 1_645
In2 Pt2 3.508991 1_555
In3 Pt0 2.969280 1_565
In3 In4 3.306121 1_565
In3 Nd8 3.412947 1_665
In3 Nd8 3.412947 1_565
In3 Nd3 3.429322 1_655
In3 Nd3 3.429322 1_555
In3 Nd7 3.431016 1_655
In3 Nd7 3.431016 1_555
In3 Nd4 3.467805 1_565
In3 Nd4 3.467805 1_665
In3 Pt3 3.508991 1_555
In4 Pt3 3.019091 1_555
In4 Nd3 3.315859 1_555
In4 Nd3 3.315859 1_655
In4 Nd8 3.319313 1_655
In4 Nd8 3.319313 1_555
In4 Nd4 3.419602 1_655
In4 Nd4 3.419602 1_555
In4 Nd2 3.536308 1_654
In4 Nd2 3.536308 1_554
In5 Pt2 3.019091 1_555
In5 Nd2 3.315859 1_555
In5 Nd2 3.315859 1_655
In5 Nd8 3.319313 1_566
In5 Nd8 3.319313 1_666
In5 Nd5 3.419602 1_655
In5 Nd5 3.419602 1_555
In5 Nd3 3.536308 1_556
In5 Nd3 3.536308 1_656
In6 Pt1 3.019091 1_545
In6 Nd1 3.315859 1_645
In6 Nd1 3.315859 1_545
In6 Nd9 3.319313 1_555
In6 Nd9 3.319313 1_655
In6 Nd6 3.419602 1_555
In6 Nd6 3.419602 1_655
In6 Nd0 3.536308 1_555
In6 Nd0 3.536308 1_655
In7 Pt0 3.019091 1_565
In7 Nd0 3.315859 1_565
In7 Nd0 3.315859 1_665
In7 Nd9 3.319313 1_555
In7 Nd9 3.319313 1_655
In7 Nd7 3.419602 1_655
In7 Nd7 3.419602 1_555
In7 Nd1 3.536308 1_655
In7 Nd1 3.536308 1_555
