# generated using pymatgen
data_Ca2SiO5
_symmetry_space_group_name_H-M   'P 1'
_cell_length_a   3.50262485
_cell_length_b   8.70257050
_cell_length_c   11.34533597
_cell_angle_alpha   87.04963944
_cell_angle_beta   90.07734314
_cell_angle_gamma   78.52151194
_symmetry_Int_Tables_number   1
_chemical_formula_structural   Ca2SiO5
_chemical_formula_sum   'Ca6 Si3 O15'
_cell_volume   338.43703279
_cell_formula_units_Z   3
loop_
 _symmetry_equiv_pos_site_id
 _symmetry_equiv_pos_as_xyz
  1  'x, y, z'
loop_
 _atom_site_type_symbol
 _atom_site_label
 _atom_site_symmetry_multiplicity
 _atom_site_fract_x
 _atom_site_fract_y
 _atom_site_fract_z
 _atom_site_occupancy
  Ca  Ca0  1  0.89686400  0.18649700  0.44255100  1
  Ca  Ca1  1  0.07925200  0.81239000  0.95593600  1
  Ca  Ca2  1  0.20795000  0.56879500  0.59582800  1
  Ca  Ca3  1  0.76659000  0.44136700  0.07684400  1
  Ca  Ca4  1  0.54356900  0.90111900  0.69893000  1
  Ca  Ca5  1  0.44382000  0.09781700  0.18627700  1
  Si  Si0  1  0.11498600  0.74983100  0.22017000  1
  Si  Si1  1  0.58164900  0.81826800  0.40345400  1
  Si  Si2  1  0.34297200  0.18211800  0.89234500  1
  O  O0  1  0.62283400  0.73814600  0.53873800  1
  O  O1  1  0.35106200  0.27370200  0.01228900  1
  O  O2  1  0.12817900  0.72532700  0.76430700  1
  O  O3  1  0.86583500  0.25408800  0.23453800  1
  O  O4  1  0.48567600  0.01034100  0.39124100  1
  O  O5  1  0.49072400  0.99350700  0.89472600  1
  O  O6  1  0.30093700  0.37764800  0.45487800  1
  O  O7  1  0.66338500  0.64410500  0.89860200  1
  O  O8  1  0.80031100  0.38356800  0.58277900  1
  O  O9  1  0.18341400  0.60973700  0.12557100  1
  O  O10  1  0.97097500  0.04908300  0.62638600  1
  O  O11  1  0.03111300  0.91994200  0.14378800  1
  O  O12  1  0.10208700  0.77691100  0.37512100  1
  O  O13  1  0.88880600  0.22792000  0.83499800  1
  O  O14  1  0.62110900  0.73757600  0.26110200  1
loop_
_geom_bond_atom_site_label_1
_geom_bond_atom_site_label_2
_geom_bond_distance
_geom_bond_site_symmetry_2
Ca0 O10 2.337885 1_555
Ca0 O8 2.374497 1_555
Ca0 O4 2.394081 1_555
Ca0 O6 2.397997 1_655
Ca0 O3 2.399639 1_555
Ca0 O4 2.403997 1_655
Ca0 O6 2.405504 1_555
Ca1 O2 2.334315 1_555
Ca1 O11 2.364359 1_556
Ca1 O7 2.373649 1_455
Ca1 O7 2.379730 1_555
Ca1 O5 2.409617 1_455
Ca1 O5 2.416175 1_555
Ca1 O9 2.517930 1_556
Ca2 O0 2.336661 1_555
Ca2 O0 2.342606 1_455
Ca2 O6 2.343080 1_555
Ca2 O8 2.366210 1_455
Ca2 O8 2.370539 1_555
Ca2 O2 2.388595 1_555
Ca3 O3 2.334659 1_555
Ca3 O9 2.348773 1_655
Ca3 O9 2.349512 1_555
Ca3 O1 2.395011 1_555
Ca3 O1 2.404495 1_655
Ca3 O7 2.590335 1_554
Ca4 O10 2.283952 1_465
Ca4 O10 2.288682 1_565
Ca4 O0 2.345562 1_555
Ca4 O2 2.390781 1_655
Ca4 O5 2.396022 1_555
Ca4 O2 2.404051 1_555
Ca5 O3 2.282277 1_555
Ca5 O3 2.287273 1_455
Ca5 O11 2.381650 1_645
Ca5 O11 2.384062 1_545
Ca5 O4 2.404343 1_555
Ca5 O1 2.415419 1_555
O0 Si1 1.646795 1_555
O1 Si2 1.615042 1_554
O4 Si1 1.636645 1_545
O5 Si2 1.618662 1_565
O9 Si0 1.647670 1_555
O11 Si0 1.650156 1_555
O12 Si0 1.785124 1_555
O12 Si1 1.818078 1_555
O12 Si1 1.818845 1_455
O13 Si2 1.682526 1_655
O13 Si2 2.125399 1_555
O14 Si1 1.788652 1_555
O14 Si0 1.813046 1_555
O14 Si0 1.813826 1_655
