# generated using pymatgen
data_CoNiAs
_symmetry_space_group_name_H-M   'P 1'
_cell_length_a   6.09603287
_cell_length_b   6.09603287
_cell_length_c   3.40448300
_cell_angle_alpha   90.00000000
_cell_angle_beta   90.00000000
_cell_angle_gamma   119.99998772
_symmetry_Int_Tables_number   1
_chemical_formula_structural   CoNiAs
_chemical_formula_sum   'Co3 Ni3 As3'
_cell_volume   109.56616359
_cell_formula_units_Z   3
loop_
 _symmetry_equiv_pos_site_id
 _symmetry_equiv_pos_as_xyz
  1  'x, y, z'
loop_
 _atom_site_type_symbol
 _atom_site_label
 _atom_site_symmetry_multiplicity
 _atom_site_fract_x
 _atom_site_fract_y
 _atom_site_fract_z
 _atom_site_occupancy
  Co  Co0  1  0.39096400  0.39096400  0.50000000  1
  Co  Co1  1  0.60903600  0.00000000  0.50000000  1
  Co  Co2  1  0.00000000  0.60903600  0.50000000  1
  Ni  Ni0  1  0.73837400  0.73837400  0.00000000  1
  Ni  Ni1  1  0.26162600  0.00000000  0.00000000  1
  Ni  Ni2  1  0.00000000  0.26162600  0.00000000  1
  As  As0  1  0.66666700  0.33333300  0.00000000  1
  As  As1  1  0.33333300  0.66666700  0.00000000  1
  As  As2  1  0.00000000  0.00000000  0.50000000  1
loop_
_geom_bond_atom_site_label_1
_geom_bond_atom_site_label_2
_geom_bond_distance
_geom_bond_site_symmetry_2
As0 Ni2 2.282190 1_655
As0 Ni1 2.282194 1_555
As0 Ni0 2.282196 1_555
As0 Co1 2.536972 1_554
As0 Co1 2.536972 1_555
As0 Co2 2.536974 1_654
As0 Co2 2.536974 1_655
As0 Co0 2.536976 1_554
As0 Co0 2.536976 1_555
As1 Ni1 2.282190 1_565
As1 Ni2 2.282194 1_555
As1 Ni0 2.282196 1_555
As1 Co2 2.536972 1_554
As1 Co2 2.536972 1_555
As1 Co1 2.536974 1_565
As1 Co1 2.536974 1_564
As1 Co0 2.536976 1_554
As1 Co0 2.536976 1_555
As2 Ni2 2.332653 1_556
As2 Ni1 2.332653 1_556
As2 Ni2 2.332653 1_555
As2 Ni1 2.332653 1_555
As2 Ni0 2.332653 1_446
As2 Ni0 2.332653 1_445
As2 Co2 2.383329 1_545
As2 Co1 2.383329 1_455
As2 Co0 2.383330 1_555
