# generated using pymatgen
data_Yb3Ge13Ir4
_symmetry_space_group_name_H-M   'P 1'
_cell_length_a   8.92854048
_cell_length_b   8.92854048
_cell_length_c   8.92854048
_cell_angle_alpha   90.00000000
_cell_angle_beta   90.00000000
_cell_angle_gamma   90.00000000
_symmetry_Int_Tables_number   1
_chemical_formula_structural   Yb3Ge13Ir4
_chemical_formula_sum   'Yb6 Ge26 Ir8'
_cell_volume   711.77284592
_cell_formula_units_Z   2
loop_
 _symmetry_equiv_pos_site_id
 _symmetry_equiv_pos_as_xyz
  1  'x, y, z'
loop_
 _atom_site_type_symbol
 _atom_site_label
 _atom_site_symmetry_multiplicity
 _atom_site_fract_x
 _atom_site_fract_y
 _atom_site_fract_z
 _atom_site_occupancy
  Yb  Yb0  1  0.00000000  0.50000000  0.75000000  1
  Yb  Yb1  1  0.50000000  0.25000000  0.00000000  1
  Yb  Yb2  1  0.75000000  0.00000000  0.50000000  1
  Yb  Yb3  1  0.00000000  0.50000000  0.25000000  1
  Yb  Yb4  1  0.50000000  0.75000000  0.00000000  1
  Yb  Yb5  1  0.25000000  0.00000000  0.50000000  1
  Ge  Ge0  1  0.50000000  0.50000000  0.50000000  1
  Ge  Ge1  1  0.00000000  0.00000000  0.00000000  1
  Ge  Ge2  1  0.80777539  0.35669130  0.50000000  1
  Ge  Ge3  1  0.64330870  0.50000000  0.80777539  1
  Ge  Ge4  1  0.50000000  0.19222461  0.64330870  1
  Ge  Ge5  1  0.19222461  0.64330870  0.50000000  1
  Ge  Ge6  1  0.35669130  0.50000000  0.19222461  1
  Ge  Ge7  1  0.50000000  0.80777539  0.35669130  1
  Ge  Ge8  1  0.80777539  0.64330870  0.50000000  1
  Ge  Ge9  1  0.64330870  0.50000000  0.19222461  1
  Ge  Ge10  1  0.19222461  0.35669130  0.50000000  1
  Ge  Ge11  1  0.35669130  0.50000000  0.80777539  1
  Ge  Ge12  1  0.50000000  0.80777539  0.64330870  1
  Ge  Ge13  1  0.50000000  0.19222461  0.35669130  1
  Ge  Ge14  1  0.30777539  0.00000000  0.85669130  1
  Ge  Ge15  1  0.14330870  0.30777539  0.00000000  1
  Ge  Ge16  1  0.00000000  0.14330870  0.69222461  1
  Ge  Ge17  1  0.69222461  0.00000000  0.14330870  1
  Ge  Ge18  1  0.85669130  0.69222461  0.00000000  1
  Ge  Ge19  1  0.00000000  0.85669130  0.30777539  1
  Ge  Ge20  1  0.30777539  0.00000000  0.14330870  1
  Ge  Ge21  1  0.14330870  0.69222461  0.00000000  1
  Ge  Ge22  1  0.69222461  0.00000000  0.85669130  1
  Ge  Ge23  1  0.85669130  0.30777539  0.00000000  1
  Ge  Ge24  1  0.00000000  0.14330870  0.30777539  1
  Ge  Ge25  1  0.00000000  0.85669130  0.69222461  1
  Ir  Ir0  1  0.75000000  0.25000000  0.75000000  1
  Ir  Ir1  1  0.25000000  0.75000000  0.25000000  1
  Ir  Ir2  1  0.75000000  0.75000000  0.25000000  1
  Ir  Ir3  1  0.25000000  0.25000000  0.75000000  1
  Ir  Ir4  1  0.25000000  0.75000000  0.75000000  1
  Ir  Ir5  1  0.75000000  0.25000000  0.25000000  1
  Ir  Ir6  1  0.25000000  0.25000000  0.25000000  1
  Ir  Ir7  1  0.75000000  0.75000000  0.75000000  1
loop_
_geom_bond_atom_site_label_1
_geom_bond_atom_site_label_2
_geom_bond_distance
_geom_bond_site_symmetry_2
Ge0 Ge3 3.031277 1_555
Ge0 Ge8 3.031277 1_555
Ge0 Ge12 3.031277 1_555
Ge0 Ge11 3.031277 1_555
Ge0 Ge7 3.031277 1_555
Ge0 Ge2 3.031277 1_555
Ge0 Ge4 3.031277 1_555
Ge0 Ge9 3.031277 1_555
Ge0 Ge5 3.031277 1_555
Ge0 Ge6 3.031277 1_555
Ge0 Ge13 3.031277 1_555
Ge0 Ge10 3.031277 1_555
Ge1 Ge20 3.031277 1_555
Ge1 Ge24 3.031277 1_555
Ge1 Ge15 3.031277 1_555
Ge1 Ge23 3.031277 1_455
Ge1 Ge14 3.031277 1_554
Ge1 Ge19 3.031277 1_545
Ge1 Ge16 3.031277 1_554
Ge1 Ge17 3.031277 1_455
Ge1 Ge21 3.031277 1_545
Ge1 Ge22 3.031277 1_454
Ge1 Ge25 3.031277 1_544
Ge1 Ge18 3.031277 1_445
Ge2 Ir0 2.481123 1_555
Ge2 Ir5 2.481123 1_555
Ge2 Ge8 2.559075 1_555
Ge2 Yb3 3.092778 1_655
Ge2 Yb0 3.092778 1_655
Ge2 Yb2 3.226240 1_555
Ge3 Ir7 2.481123 1_555
Ge3 Ir0 2.481123 1_555
Ge3 Yb4 3.092778 1_556
Ge3 Yb1 3.092778 1_556
Ge3 Yb0 3.226240 1_655
Ge4 Ir3 2.481123 1_555
Ge4 Ir0 2.481123 1_555
Ge4 Yb5 3.092778 1_555
Ge4 Yb2 3.092778 1_555
Ge4 Yb1 3.226240 1_556
Ge5 Ir4 2.481123 1_555
Ge5 Ir1 2.481123 1_555
Ge5 Yb0 3.092778 1_555
Ge5 Yb3 3.092778 1_555
Ge5 Yb5 3.226240 1_565
Ge6 Ir6 2.481123 1_555
Ge6 Ir1 2.481123 1_555
Ge6 Ge9 2.559075 1_555
Ge6 Yb4 3.092778 1_555
Ge6 Yb1 3.092778 1_555
Ge6 Yb3 3.226240 1_555
Ge7 Ir1 2.481123 1_555
Ge7 Ir2 2.481123 1_555
Ge7 Yb5 3.092778 1_565
Ge7 Yb2 3.092778 1_565
Ge7 Yb4 3.226240 1_555
Ge8 Ir2 2.481123 1_555
Ge8 Ir7 2.481123 1_555
Ge8 Yb3 3.092778 1_655
Ge8 Yb0 3.092778 1_655
Ge8 Yb2 3.226240 1_565
Ge9 Ir5 2.481123 1_555
Ge9 Ir2 2.481123 1_555
Ge9 Yb1 3.092778 1_555
Ge9 Yb4 3.092778 1_555
Ge9 Yb3 3.226240 1_655
Ge10 Ir6 2.481123 1_555
Ge10 Ir3 2.481123 1_555
Ge10 Ge5 2.559075 1_555
Ge10 Yb3 3.092778 1_555
Ge10 Yb0 3.092778 1_555
Ge10 Yb5 3.226240 1_555
Ge11 Ir4 2.481123 1_555
Ge11 Ir3 2.481123 1_555
Ge11 Ge3 2.559075 1_555
Ge11 Yb4 3.092778 1_556
Ge11 Yb1 3.092778 1_556
Ge11 Yb0 3.226240 1_555
Ge12 Ir7 2.481123 1_555
Ge12 Ir4 2.481123 1_555
Ge12 Ge7 2.559075 1_555
Ge12 Yb5 3.092778 1_565
Ge12 Yb2 3.092778 1_565
Ge12 Yb4 3.226240 1_556
Ge13 Ir5 2.481123 1_555
Ge13 Ir6 2.481123 1_555
Ge13 Ge4 2.559075 1_555
Ge13 Yb5 3.092778 1_555
Ge13 Yb2 3.092778 1_555
Ge13 Yb1 3.226240 1_555
Ge14 Ir4 2.481123 1_545
Ge14 Ir3 2.481123 1_555
Ge14 Ge20 2.559075 1_556
Ge14 Yb4 3.092778 1_546
Ge14 Yb1 3.092778 1_556
Ge14 Yb5 3.226240 1_555
Ge15 Ir3 2.481123 1_554
Ge15 Ir6 2.481123 1_555
Ge15 Ge23 2.559075 1_455
Ge15 Yb3 3.092778 1_555
Ge15 Yb0 3.092778 1_554
Ge15 Yb1 3.226240 1_555
Ge16 Ir3 2.481123 1_555
Ge16 Ir0 2.481123 1_455
Ge16 Ge25 2.559075 1_545
Ge16 Yb2 3.092778 1_455
Ge16 Yb5 3.092778 1_555
Ge16 Yb0 3.226240 1_555
Ge17 Ir5 2.481123 1_555
Ge17 Ir2 2.481123 1_545
Ge17 Ge22 2.559075 1_554
Ge17 Yb1 3.092778 1_555
Ge17 Yb4 3.092778 1_545
Ge17 Yb2 3.226240 1_555
Ge18 Ir7 2.481123 1_554
Ge18 Ir2 2.481123 1_555
Ge18 Ge21 2.559075 1_655
Ge18 Yb0 3.092778 1_654
Ge18 Yb3 3.092778 1_655
Ge18 Yb4 3.226240 1_555
Ge19 Ir2 2.481123 1_455
Ge19 Ir1 2.481123 1_555
Ge19 Ge24 2.559075 1_565
Ge19 Yb2 3.092778 1_465
Ge19 Yb5 3.092778 1_565
Ge19 Yb3 3.226240 1_555
Ge20 Ir1 2.481123 1_545
Ge20 Ir6 2.481123 1_555
Ge20 Yb4 3.092778 1_545
Ge20 Yb1 3.092778 1_555
Ge20 Yb5 3.226240 1_555
Ge21 Ir4 2.481123 1_554
Ge21 Ir1 2.481123 1_555
Ge21 Yb0 3.092778 1_554
Ge21 Yb3 3.092778 1_555
Ge21 Yb4 3.226240 1_555
Ge22 Ir0 2.481123 1_555
Ge22 Ir7 2.481123 1_545
Ge22 Yb1 3.092778 1_556
Ge22 Yb4 3.092778 1_546
Ge22 Yb2 3.226240 1_555
Ge23 Ir5 2.481123 1_555
Ge23 Ir0 2.481123 1_554
Ge23 Yb0 3.092778 1_654
Ge23 Yb3 3.092778 1_655
Ge23 Yb1 3.226240 1_555
Ge24 Ir5 2.481123 1_455
Ge24 Ir6 2.481123 1_555
Ge24 Yb2 3.092778 1_455
Ge24 Yb5 3.092778 1_555
Ge24 Yb3 3.226240 1_555
Ge25 Ir7 2.481123 1_455
Ge25 Ir4 2.481123 1_555
Ge25 Yb2 3.092778 1_465
Ge25 Yb5 3.092778 1_565
Ge25 Yb0 3.226240 1_555
Ir0 Yb0 3.156716 1_655
Ir0 Yb1 3.156716 1_556
Ir0 Yb2 3.156716 1_555
Ir1 Yb4 3.156716 1_555
Ir1 Yb3 3.156716 1_555
Ir1 Yb5 3.156716 1_565
Ir2 Yb4 3.156716 1_555
Ir2 Yb2 3.156716 1_565
Ir2 Yb3 3.156716 1_655
Ir3 Yb1 3.156716 1_556
Ir3 Yb5 3.156716 1_555
Ir3 Yb0 3.156716 1_555
Ir4 Yb4 3.156716 1_556
Ir4 Yb0 3.156716 1_555
Ir4 Yb5 3.156716 1_565
Ir5 Yb1 3.156716 1_555
Ir5 Yb2 3.156716 1_555
Ir5 Yb3 3.156716 1_655
Ir6 Yb1 3.156716 1_555
Ir6 Yb5 3.156716 1_555
Ir6 Yb3 3.156716 1_555
Ir7 Yb0 3.156716 1_655
Ir7 Yb4 3.156716 1_556
Ir7 Yb2 3.156716 1_565
