# generated using pymatgen
data_SrTbEuWO6
_symmetry_space_group_name_H-M   'P 1'
_cell_length_a   8.33102937
_cell_length_b   8.43056690
_cell_length_c   8.39115779
_cell_angle_alpha   90.00000000
_cell_angle_beta   90.00000000
_cell_angle_gamma   90.00000000
_symmetry_Int_Tables_number   1
_chemical_formula_structural   SrTbEuWO6
_chemical_formula_sum   'Sr4 Tb4 Eu4 W4 O24'
_cell_volume   589.35548850
_cell_formula_units_Z   4
loop_
 _symmetry_equiv_pos_site_id
 _symmetry_equiv_pos_as_xyz
  1  'x, y, z'
loop_
 _atom_site_type_symbol
 _atom_site_label
 _atom_site_symmetry_multiplicity
 _atom_site_fract_x
 _atom_site_fract_y
 _atom_site_fract_z
 _atom_site_occupancy
  Sr  Sr0  1  -0.00000000  0.50000000  0.50000000  1
  Sr  Sr1  1  0.50000000  0.50000000  0.00000000  1
  Sr  Sr2  1  -0.00000000  0.50000000  0.00000000  1
  Sr  Sr3  1  -0.00000000  -0.00000000  0.50000000  1
  Tb  Tb0  1  0.74976861  0.74988674  0.75007947  1
  Tb  Tb1  1  0.25023139  0.25011326  0.75007947  1
  Tb  Tb2  1  0.25023139  0.74988674  0.24992053  1
  Tb  Tb3  1  0.74976861  0.25011326  0.24992053  1
  Eu  Eu0  1  0.50000000  -0.00000000  0.50000000  1
  Eu  Eu1  1  0.50000000  -0.00000000  0.00000000  1
  Eu  Eu2  1  -0.00000000  -0.00000000  0.00000000  1
  Eu  Eu3  1  0.50000000  0.50000000  0.50000000  1
  W  W0  1  0.25041591  0.24965469  0.24996025  1
  W  W1  1  0.74958409  0.75034531  0.24996025  1
  W  W2  1  0.74958409  0.24965469  0.75003975  1
  W  W3  1  0.25041591  0.75034531  0.75003975  1
  O  O0  1  0.01681624  0.20881225  0.28630479  1
  O  O1  1  0.98318376  0.79118775  0.28630479  1
  O  O2  1  0.98318376  0.20881225  0.71369521  1
  O  O3  1  0.01681624  0.79118775  0.71369521  1
  O  O4  1  0.28579719  0.01292832  0.20863524  1
  O  O5  1  0.28579719  0.98707168  0.79136476  1
  O  O6  1  0.71420281  0.98707168  0.20863524  1
  O  O7  1  0.71420281  0.01292832  0.79136476  1
  O  O8  1  0.21033740  0.28413100  0.01480379  1
  O  O9  1  0.78966260  0.28413100  0.98519621  1
  O  O10  1  0.21033740  0.71586900  0.98519621  1
  O  O11  1  0.78966260  0.71586900  0.01480379  1
  O  O12  1  0.48354393  0.29082425  0.21347158  1
  O  O13  1  0.51645607  0.70917575  0.21347158  1
  O  O14  1  0.51645607  0.29082425  0.78652842  1
  O  O15  1  0.48354393  0.70917575  0.78652842  1
  O  O16  1  0.21644462  0.48692263  0.29115318  1
  O  O17  1  0.21644462  0.51307737  0.70884682  1
  O  O18  1  0.78355538  0.51307737  0.29115318  1
  O  O19  1  0.78355538  0.48692263  0.70884682  1
  O  O20  1  0.29134475  0.21363614  0.48460687  1
  O  O21  1  0.70865525  0.21363614  0.51539313  1
  O  O22  1  0.29134475  0.78636386  0.51539313  1
  O  O23  1  0.70865525  0.78636386  0.48460687  1
loop_
_geom_bond_atom_site_label_1
_geom_bond_atom_site_label_2
_geom_bond_distance
_geom_bond_site_symmetry_2
Eu0 O23 2.506448 1_545
Eu0 O21 2.506448 1_555
Eu0 O22 2.506448 1_545
Eu0 O20 2.506448 1_555
Eu0 O4 3.028845 1_555
Eu0 O6 3.028845 1_545
Eu0 O7 3.028845 1_555
Eu0 O5 3.028845 1_545
Eu1 O7 2.502268 1_554
Eu1 O6 2.502268 1_545
Eu1 O5 2.502268 1_544
Eu1 O4 2.502268 1_555
Eu2 O5 2.957345 1_544
Eu2 O4 2.957345 1_555
Eu2 O6 2.957345 1_445
Eu2 O7 2.957345 1_454
Eu2 O10 2.970514 1_544
Eu2 O9 2.970514 1_454
Eu2 O8 2.970514 1_555
Eu2 O11 2.970514 1_445
Eu2 O0 2.981664 1_555
Eu2 O2 2.981664 1_454
Eu2 O3 2.981664 1_544
Eu2 O1 2.981664 1_445
Eu3 O18 2.943432 1_555
Eu3 O19 2.943432 1_555
Eu3 O16 2.943432 1_555
Eu3 O17 2.943432 1_555
Eu3 O23 2.977721 1_555
Eu3 O21 2.977721 1_555
Eu3 O22 2.977721 1_555
Eu3 O20 2.977721 1_555
Eu3 O14 2.984846 1_555
Eu3 O15 2.984846 1_555
Eu3 O12 2.984846 1_555
Eu3 O13 2.984846 1_555
O0 W0 1.999743 1_555
O0 Tb3 2.272466 1_455
O0 Sr3 2.516752 1_555
O0 Sr0 3.043261 1_555
O1 W1 1.999743 1_555
O1 Tb2 2.272466 1_655
O1 Sr3 2.516752 1_665
O1 Sr0 3.043261 1_655
O2 W2 1.999743 1_555
O2 Tb1 2.272466 1_655
O2 Sr3 2.516752 1_655
O2 Sr0 3.043261 1_655
O3 W3 1.999743 1_555
O3 Tb0 2.272466 1_455
O3 Sr3 2.516752 1_565
O3 Sr0 3.043261 1_555
O4 W0 2.046973 1_555
O4 Tb2 2.263959 1_545
O5 W3 2.046973 1_555
O5 Tb1 2.263959 1_565
O6 W1 2.046973 1_555
O6 Tb3 2.263959 1_565
O7 W2 2.046973 1_555
O7 Tb0 2.263959 1_545
O8 W0 2.022282 1_555
O8 Tb1 2.264305 1_554
O8 Sr2 2.529449 1_555
O8 Sr1 3.025051 1_555
O9 W2 2.022282 1_555
O9 Tb3 2.264305 1_556
O9 Sr2 2.529449 1_656
O9 Sr1 3.025051 1_556
O10 W3 2.022282 1_555
O10 Tb2 2.264305 1_556
O10 Sr2 2.529449 1_556
O10 Sr1 3.025051 1_556
O11 W1 2.022282 1_555
O11 Tb0 2.264305 1_554
O11 Sr2 2.529449 1_655
O11 Sr1 3.025051 1_555
O12 W0 1.996582 1_555
O12 Tb3 2.265069 1_555
O12 Sr1 2.517396 1_555
O13 W1 1.996582 1_555
O13 Tb2 2.265069 1_555
O13 Sr1 2.517396 1_555
O14 W2 1.996582 1_555
O14 Tb1 2.265069 1_555
O14 Sr1 2.517396 1_556
O15 W3 1.996582 1_555
O15 Tb0 2.265069 1_555
O15 Sr1 2.517396 1_556
O16 W0 2.049583 1_555
O16 Tb2 2.261359 1_555
O16 Sr0 2.516912 1_555
O16 Sr2 3.038504 1_555
O17 W3 2.049583 1_555
O17 Tb1 2.261359 1_555
O17 Sr0 2.516912 1_555
O17 Sr2 3.038504 1_556
O18 W1 2.049583 1_555
O18 Tb3 2.261359 1_555
O18 Sr0 2.516912 1_655
O18 Sr2 3.038504 1_655
O19 W2 2.049583 1_555
O19 Tb0 2.261359 1_555
O19 Sr0 2.516912 1_655
O19 Sr2 3.038504 1_656
O20 W0 2.021204 1_555
O20 Tb1 2.274685 1_555
O20 Sr3 3.025204 1_555
O21 W2 2.021204 1_555
O21 Tb3 2.274685 1_555
O21 Sr3 3.025204 1_655
O22 W3 2.021204 1_555
O22 Tb2 2.274685 1_555
O22 Sr3 3.025204 1_565
O23 W1 2.021204 1_555
O23 Tb0 2.274685 1_555
O23 Sr3 3.025204 1_665
