# generated using pymatgen
data_NaYb3
_symmetry_space_group_name_H-M   'P 1'
_cell_length_a   7.69198439
_cell_length_b   7.69198439
_cell_length_c   6.30199200
_cell_angle_alpha   90.00000000
_cell_angle_beta   90.00000000
_cell_angle_gamma   120.00000336
_symmetry_Int_Tables_number   1
_chemical_formula_structural   NaYb3
_chemical_formula_sum   'Na2 Yb6'
_cell_volume   322.91279446
_cell_formula_units_Z   2
loop_
 _symmetry_equiv_pos_site_id
 _symmetry_equiv_pos_as_xyz
  1  'x, y, z'
loop_
 _atom_site_type_symbol
 _atom_site_label
 _atom_site_symmetry_multiplicity
 _atom_site_fract_x
 _atom_site_fract_y
 _atom_site_fract_z
 _atom_site_occupancy
  Na  Na0  1  0.33333300  0.66666700  0.75000000  1
  Na  Na1  1  0.66666700  0.33333300  0.25000000  1
  Yb  Yb0  1  0.66915300  0.83457600  0.25000000  1
  Yb  Yb1  1  0.16542400  0.83457600  0.25000000  1
  Yb  Yb2  1  0.83457600  0.66915300  0.75000000  1
  Yb  Yb3  1  0.33084700  0.16542400  0.75000000  1
  Yb  Yb4  1  0.83457600  0.16542400  0.75000000  1
  Yb  Yb5  1  0.16542400  0.33084700  0.25000000  1
loop_
_geom_bond_atom_site_label_1
_geom_bond_atom_site_label_2
_geom_bond_distance
_geom_bond_site_symmetry_2
Na0 Yb4 3.846028 1_455
Na0 Yb4 3.846028 1_565
Na0 Yb2 3.846028 1_555
Na0 Yb3 3.846028 1_555
Na0 Yb3 3.846028 1_565
Na0 Yb2 3.846028 1_455
Na0 Yb1 3.864338 1_555
Na0 Yb1 3.864338 1_556
Na0 Yb5 3.864345 1_555
Na0 Yb5 3.864345 1_556
Na0 Yb0 3.864345 1_556
Na0 Yb0 3.864345 1_555
Na1 Yb1 3.846028 1_655
Na1 Yb1 3.846028 1_545
Na1 Yb5 3.846028 1_555
Na1 Yb0 3.846028 1_555
Na1 Yb0 3.846028 1_545
Na1 Yb5 3.846028 1_655
Na1 Yb4 3.864338 1_554
Na1 Yb4 3.864338 1_555
Na1 Yb2 3.864345 1_555
Na1 Yb2 3.864345 1_554
Na1 Yb3 3.864345 1_554
Na1 Yb3 3.864345 1_555
Yb0 Yb5 3.817309 1_665
Yb0 Yb1 3.817309 1_655
Yb0 Yb2 3.845259 1_554
Yb0 Yb2 3.845259 1_555
Yb0 Yb4 3.845267 1_565
Yb0 Yb4 3.845267 1_564
Yb0 Yb5 3.874675 1_555
Yb0 Yb1 3.874676 1_555
Yb1 Yb5 3.817309 1_565
Yb1 Yb3 3.845267 1_564
Yb1 Yb3 3.845267 1_565
Yb1 Yb2 3.845267 1_455
Yb1 Yb2 3.845267 1_454
Yb1 Yb5 3.874676 1_555
Yb2 Yb3 3.817309 1_665
Yb2 Yb4 3.817309 1_565
Yb2 Yb3 3.874675 1_555
Yb2 Yb4 3.874676 1_555
Yb3 Yb4 3.817309 1_455
Yb3 Yb5 3.845259 1_555
Yb3 Yb5 3.845259 1_556
Yb3 Yb4 3.874676 1_555
Yb4 Yb5 3.845267 1_656
Yb4 Yb5 3.845267 1_655
