# generated using pymatgen
data_SrNd3Fe4(AsO)4
_symmetry_space_group_name_H-M   'P 1'
_cell_length_a   10.29765316
_cell_length_b   10.29765316
_cell_length_c   10.29765316
_cell_angle_alpha   147.19927378
_cell_angle_beta   147.19927378
_cell_angle_gamma   47.06881520
_symmetry_Int_Tables_number   1
_chemical_formula_structural   SrNd3Fe4(AsO)4
_chemical_formula_sum   'Sr1 Nd3 Fe4 As4 O4'
_cell_volume   319.24717904
_cell_formula_units_Z   1
loop_
 _symmetry_equiv_pos_site_id
 _symmetry_equiv_pos_as_xyz
  1  'x, y, z'
loop_
 _atom_site_type_symbol
 _atom_site_label
 _atom_site_symmetry_multiplicity
 _atom_site_fract_x
 _atom_site_fract_y
 _atom_site_fract_z
 _atom_site_occupancy
  Sr  Sr0  1  0.43461300  0.43461300  0.00000000  1
  Nd  Nd0  1  0.94243000  0.94243000  0.00000000  1
  Nd  Nd1  1  0.55874500  0.05874500  0.50000000  1
  Nd  Nd2  1  0.05874500  0.55874500  0.50000000  1
  Fe  Fe0  1  0.49978400  0.99942800  0.00000000  1
  Fe  Fe1  1  0.99942800  0.49978400  0.00000000  1
  Fe  Fe2  1  0.49978400  0.49978400  0.50035700  1
  Fe  Fe3  1  0.99942800  0.99942800  0.49964300  1
  As  As0  1  0.66346500  0.66346500  0.00000000  1
  As  As1  1  0.16405200  0.16405200  0.00000000  1
  As  As2  1  0.33517200  0.83517200  0.50000000  1
  As  As3  1  0.83517200  0.33517200  0.50000000  1
  O  O0  1  0.24639800  0.75819300  0.00000000  1
  O  O1  1  0.75819300  0.24639800  0.00000000  1
  O  O2  1  0.24639800  0.24639800  0.48820400  1
  O  O3  1  0.75819300  0.75819300  0.51179600  1
loop_
_geom_bond_atom_site_label_1
_geom_bond_atom_site_label_2
_geom_bond_distance
_geom_bond_site_symmetry_2
Nd0 O3 2.303803 1_554
Nd0 O0 2.303811 1_655
Nd0 O1 2.303811 1_565
Nd0 O2 2.303812 1_665
Nd1 O2 2.316308 1_555
Nd1 O0 2.316312 1_545
Nd1 O1 2.316312 1_556
Nd1 O3 2.316317 1_545
Nd2 O2 2.316308 1_555
Nd2 O1 2.316312 1_455
Nd2 O0 2.316312 1_556
Nd2 O3 2.316317 1_455
As0 Fe2 2.620375 1_554
As0 Fe1 2.620385 1_555
As0 Fe0 2.620385 1_555
As0 Fe3 2.620387 1_555
As0 Nd2 3.516183 1_554
As0 Nd1 3.516183 1_554
As0 Nd2 3.516183 1_655
As0 Nd1 3.516183 1_565
As1 Fe2 2.615818 1_555
As1 Fe0 2.615821 1_545
As1 Fe1 2.615821 1_455
As1 Fe3 2.615830 1_444
As1 Nd2 3.522428 1_544
As1 Nd1 3.522428 1_454
As1 Nd1 3.522428 1_555
As1 Nd2 3.522428 1_555
As2 Fe3 2.614804 1_455
As2 Fe0 2.614810 1_556
As2 Fe1 2.614810 1_455
As2 Fe2 2.614816 1_555
As2 Sr0 3.461110 1_555
As2 Sr0 3.461110 1_566
As2 Nd0 3.543354 1_556
As2 Nd0 3.543354 1_455
As3 Fe3 2.614804 1_545
As3 Fe0 2.614810 1_545
As3 Fe1 2.614810 1_556
As3 Fe2 2.614816 1_555
As3 Sr0 3.461110 1_555
As3 Sr0 3.461110 1_656
As3 Nd0 3.543354 1_545
As3 Nd0 3.543354 1_556
O0 Sr0 2.462087 1_555
O1 Sr0 2.462087 1_555
O2 Sr0 2.462095 1_556
O3 Sr0 2.462085 1_555
