# generated using pymatgen
data_ErCd2
_symmetry_space_group_name_H-M   'P 1'
_cell_length_a   11.23684827
_cell_length_b   11.23684827
_cell_length_c   6.56760290
_cell_angle_alpha   83.45910607
_cell_angle_beta   83.45910607
_cell_angle_gamma   59.29784133
_symmetry_Int_Tables_number   1
_chemical_formula_structural   ErCd2
_chemical_formula_sum   'Er8 Cd16'
_cell_volume   706.88210503
_cell_formula_units_Z   8
loop_
 _symmetry_equiv_pos_site_id
 _symmetry_equiv_pos_as_xyz
  1  'x, y, z'
loop_
 _atom_site_type_symbol
 _atom_site_label
 _atom_site_symmetry_multiplicity
 _atom_site_fract_x
 _atom_site_fract_y
 _atom_site_fract_z
 _atom_site_occupancy
  Er  Er0_0  1  0.00000000  0.00000000  0.00000000  1
  Er  Er0_1  1  0.00000000  0.00000000  0.50000000  1
  Er  Er0_2  1  0.00000000  0.50000000  0.00000000  1
  Er  Er0_3  1  0.00000000  0.50000000  0.50000000  1
  Er  Er0_4  1  0.50000000  0.00000000  0.00000000  1
  Er  Er0_5  1  0.50000000  0.00000000  0.50000000  1
  Er  Er0_6  1  0.50000000  0.50000000  0.00000000  1
  Er  Er0_7  1  0.50000000  0.50000000  0.50000000  1
  Cd  Cd0_0  1  0.33300250  0.33300250  0.05026800  1
  Cd  Cd0_1  1  0.33300250  0.33300250  0.55026800  1
  Cd  Cd0_2  1  0.33300250  0.83300250  0.05026800  1
  Cd  Cd0_3  1  0.33300250  0.83300250  0.55026800  1
  Cd  Cd0_4  1  0.83300250  0.33300250  0.05026800  1
  Cd  Cd0_5  1  0.83300250  0.33300250  0.55026800  1
  Cd  Cd0_6  1  0.83300250  0.83300250  0.05026800  1
  Cd  Cd0_7  1  0.83300250  0.83300250  0.55026800  1
  Cd  Cd1_0  1  0.16699750  0.16699750  0.44973200  1
  Cd  Cd1_1  1  0.16699750  0.16699750  0.94973200  1
  Cd  Cd1_2  1  0.16699750  0.66699750  0.44973200  1
  Cd  Cd1_3  1  0.16699750  0.66699750  0.94973200  1
  Cd  Cd1_4  1  0.66699750  0.16699750  0.44973200  1
  Cd  Cd1_5  1  0.66699750  0.16699750  0.94973200  1
  Cd  Cd1_6  1  0.66699750  0.66699750  0.44973200  1
  Cd  Cd1_7  1  0.66699750  0.66699750  0.94973200  1
loop_
_geom_bond_atom_site_label_1
_geom_bond_atom_site_label_2
_geom_bond_distance
_geom_bond_site_symmetry_2
Er0_0 Er0_1 3.283801 1_555
Er0_0 Er0_1 3.283801 1_554
Er0_2 Er0_3 3.283801 1_555
Er0_2 Er0_3 3.283801 1_554
Er0_4 Er0_5 3.283801 1_554
Er0_4 Er0_5 3.283801 1_555
Er0_6 Er0_7 3.283801 1_554
Er0_6 Er0_7 3.283801 1_555
Cd0_0 Er0_6 3.235001 1_555
Cd0_0 Cd1_3 3.250863 1_554
Cd0_0 Cd1_5 3.250863 1_554
Cd0_0 Er0_4 3.256097 1_555
Cd0_0 Er0_2 3.256097 1_555
Cd0_0 Cd0_1 3.283801 1_555
Cd0_0 Cd0_1 3.283801 1_554
Cd0_0 Cd1_1 3.392584 1_554
Cd0_1 Er0_7 3.235001 1_555
Cd0_1 Cd1_4 3.250863 1_555
Cd0_1 Cd1_2 3.250863 1_555
Cd0_1 Er0_5 3.256097 1_555
Cd0_1 Er0_3 3.256097 1_555
Cd0_1 Cd1_0 3.392584 1_555
Cd0_2 Er0_4 3.235001 1_565
Cd0_2 Cd1_1 3.250863 1_564
Cd0_2 Cd1_7 3.250863 1_554
Cd0_2 Er0_0 3.256097 1_565
Cd0_2 Er0_6 3.256097 1_555
Cd0_2 Cd0_3 3.283801 1_555
Cd0_2 Cd0_3 3.283801 1_554
Cd0_2 Cd1_3 3.392584 1_554
Cd0_3 Er0_5 3.235001 1_565
Cd0_3 Cd1_0 3.250863 1_565
Cd0_3 Cd1_6 3.250863 1_555
Cd0_3 Er0_7 3.256097 1_555
Cd0_3 Er0_1 3.256097 1_565
Cd0_3 Cd1_2 3.392584 1_555
Cd0_4 Er0_2 3.235001 1_655
Cd0_4 Cd1_1 3.250863 1_654
Cd0_4 Cd1_7 3.250863 1_554
Cd0_4 Er0_0 3.256097 1_655
Cd0_4 Er0_6 3.256097 1_555
Cd0_4 Cd0_5 3.283801 1_555
Cd0_4 Cd0_5 3.283801 1_554
Cd0_4 Cd1_5 3.392584 1_554
Cd0_5 Er0_3 3.235001 1_655
Cd0_5 Cd1_0 3.250863 1_655
Cd0_5 Cd1_6 3.250863 1_555
Cd0_5 Er0_7 3.256097 1_555
Cd0_5 Er0_1 3.256097 1_655
Cd0_5 Cd1_4 3.392584 1_555
Cd0_6 Er0_0 3.235001 1_665
Cd0_6 Cd1_3 3.250863 1_654
Cd0_6 Cd1_5 3.250863 1_564
Cd0_6 Er0_4 3.256097 1_565
Cd0_6 Er0_2 3.256097 1_655
Cd0_6 Cd0_7 3.283801 1_555
Cd0_6 Cd0_7 3.283801 1_554
Cd0_6 Cd1_7 3.392584 1_554
Cd0_7 Er0_1 3.235001 1_665
Cd0_7 Cd1_2 3.250863 1_655
Cd0_7 Cd1_4 3.250863 1_565
Cd0_7 Er0_3 3.256097 1_655
Cd0_7 Er0_5 3.256097 1_565
Cd0_7 Cd1_6 3.392584 1_555
Cd1_0 Er0_1 3.235001 1_555
Cd1_0 Er0_5 3.256097 1_555
Cd1_0 Er0_3 3.256097 1_555
Cd1_0 Cd1_1 3.283801 1_555
Cd1_0 Cd1_1 3.283801 1_554
Cd1_1 Er0_0 3.235001 1_556
Cd1_1 Er0_2 3.256097 1_556
Cd1_1 Er0_4 3.256097 1_556
Cd1_2 Er0_3 3.235001 1_555
Cd1_2 Er0_1 3.256097 1_565
Cd1_2 Er0_7 3.256097 1_555
Cd1_2 Cd1_3 3.283801 1_555
Cd1_2 Cd1_3 3.283801 1_554
Cd1_3 Er0_2 3.235001 1_556
Cd1_3 Er0_0 3.256097 1_566
Cd1_3 Er0_6 3.256097 1_556
Cd1_4 Er0_5 3.235001 1_555
Cd1_4 Er0_1 3.256097 1_655
Cd1_4 Er0_7 3.256097 1_555
Cd1_4 Cd1_5 3.283801 1_554
Cd1_4 Cd1_5 3.283801 1_555
Cd1_5 Er0_4 3.235001 1_556
Cd1_5 Er0_6 3.256097 1_556
Cd1_5 Er0_0 3.256097 1_656
Cd1_6 Er0_7 3.235001 1_555
Cd1_6 Er0_3 3.256097 1_655
Cd1_6 Er0_5 3.256097 1_565
Cd1_6 Cd1_7 3.283801 1_555
Cd1_6 Cd1_7 3.283801 1_554
Cd1_7 Er0_6 3.235001 1_556
Cd1_7 Er0_4 3.256097 1_566
Cd1_7 Er0_2 3.256097 1_656
