# generated using pymatgen
data_Mg149P
_symmetry_space_group_name_H-M   'P 1'
_cell_length_a   15.95064563
_cell_length_b   15.95065139
_cell_length_c   15.58947839
_cell_angle_alpha   90.00000000
_cell_angle_beta   90.00000000
_cell_angle_gamma   120.00000974
_symmetry_Int_Tables_number   1
_chemical_formula_structural   Mg149P
_chemical_formula_sum   'Mg149 P1'
_cell_volume   3434.93768986
_cell_formula_units_Z   1
loop_
 _symmetry_equiv_pos_site_id
 _symmetry_equiv_pos_as_xyz
  1  'x, y, z'
loop_
 _atom_site_type_symbol
 _atom_site_label
 _atom_site_symmetry_multiplicity
 _atom_site_fract_x
 _atom_site_fract_y
 _atom_site_fract_z
 _atom_site_occupancy
  Mg  Mg0  1  0.80447288  0.00181495  0.00000000  1
  Mg  Mg1  1  0.19734107  0.00181495  0.00000000  1
  Mg  Mg2  1  0.99818605  0.19552712  0.00000000  1
  Mg  Mg3  1  0.19734107  0.19552712  0.00000000  1
  Mg  Mg4  1  0.80066630  0.19933370  0.00000000  1
  Mg  Mg5  1  0.39866741  0.19933370  0.00000000  1
  Mg  Mg6  1  0.60010766  0.20021631  0.00000000  1
  Mg  Mg7  1  0.19870531  0.39740962  0.00000000  1
  Mg  Mg8  1  0.39952280  0.39971962  0.00000000  1
  Mg  Mg9  1  0.00019682  0.39971962  0.00000000  1
  Mg  Mg10  1  0.79978369  0.39989134  0.00000000  1
  Mg  Mg11  1  0.60010766  0.39989134  0.00000000  1
  Mg  Mg12  1  0.39992966  0.60007034  0.00000000  1
  Mg  Mg13  1  0.20014169  0.60007134  0.00000000  1
  Mg  Mg14  1  0.00019682  0.60047720  0.00000000  1
  Mg  Mg15  1  0.60028038  0.60047820  0.00000000  1
  Mg  Mg16  1  0.80066630  0.60133259  0.00000000  1
  Mg  Mg17  1  0.39992966  0.79985831  0.00000000  1
  Mg  Mg18  1  0.60259138  0.80129569  0.00000000  1
  Mg  Mg19  1  0.19870531  0.80129569  0.00000000  1
  Mg  Mg20  1  0.80447288  0.80265893  0.00000000  1
  Mg  Mg21  1  0.99818605  0.80265893  0.00000000  1
  Mg  Mg22  1  0.39952280  0.99980318  0.00000000  1
  Mg  Mg23  1  0.60028038  0.99980318  0.00000000  1
  Mg  Mg24  1  0.06490248  0.12980596  0.16326640  1
  Mg  Mg25  1  0.06490248  0.93509652  0.16326640  1
  Mg  Mg26  1  0.87019404  0.93509752  0.16326640  1
  Mg  Mg27  1  0.26562333  0.33154640  0.16538647  1
  Mg  Mg28  1  0.06592307  0.33154640  0.16538647  1
  Mg  Mg29  1  0.06592307  0.73437667  0.16538647  1
  Mg  Mg30  1  0.66845360  0.73437667  0.16538647  1
  Mg  Mg31  1  0.26562333  0.93407693  0.16538647  1
  Mg  Mg32  1  0.66845360  0.93407693  0.16538647  1
  Mg  Mg33  1  0.26627551  0.53255102  0.16598538  1
  Mg  Mg34  1  0.26627551  0.73372449  0.16598538  1
  Mg  Mg35  1  0.46744898  0.73372449  0.16598538  1
  Mg  Mg36  1  0.66666700  0.33333300  0.16619605  1
  Mg  Mg37  1  0.46668071  0.13345569  0.16609799  1
  Mg  Mg38  1  0.66677498  0.13345569  0.16609799  1
  Mg  Mg39  1  0.46668071  0.33322502  0.16609799  1
  Mg  Mg40  1  0.86654331  0.33322502  0.16609799  1
  Mg  Mg41  1  0.86654331  0.53331929  0.16609799  1
  Mg  Mg42  1  0.66677498  0.53331929  0.16609799  1
  Mg  Mg43  1  0.46662996  0.53337004  0.16594395  1
  Mg  Mg44  1  0.06674007  0.53337004  0.16594395  1
  Mg  Mg45  1  0.46662996  0.93325993  0.16594395  1
  Mg  Mg46  1  0.86623742  0.13376258  0.16722057  1
  Mg  Mg47  1  0.26752615  0.13376258  0.16722057  1
  Mg  Mg48  1  0.86623742  0.73247385  0.16722057  1
  Mg  Mg49  1  0.00000000  0.00000000  0.33136516  1
  Mg  Mg50  1  0.19985158  0.39970315  0.33235091  1
  Mg  Mg51  1  0.60029585  0.80014842  0.33235091  1
  Mg  Mg52  1  0.19985158  0.80014842  0.33235091  1
  Mg  Mg53  1  0.80062959  0.99974345  0.33316002  1
  Mg  Mg54  1  0.19911386  0.99974345  0.33316002  1
  Mg  Mg55  1  0.19911386  0.19937041  0.33316002  1
  Mg  Mg56  1  0.00025655  0.19937041  0.33316002  1
  Mg  Mg57  1  0.00025655  0.80088614  0.33316002  1
  Mg  Mg58  1  0.80062959  0.80088614  0.33316002  1
  Mg  Mg59  1  0.60021323  0.99985533  0.33290368  1
  Mg  Mg60  1  0.39964110  0.99985533  0.33290368  1
  Mg  Mg61  1  0.00014467  0.39978577  0.33290368  1
  Mg  Mg62  1  0.39964110  0.39978577  0.33290368  1
  Mg  Mg63  1  0.60021323  0.60035890  0.33290368  1
  Mg  Mg64  1  0.00014467  0.60035890  0.33290368  1
  Mg  Mg65  1  0.60011963  0.20023825  0.33269068  1
  Mg  Mg66  1  0.79976175  0.39988037  0.33269068  1
  Mg  Mg67  1  0.60011963  0.39988137  0.33269068  1
  Mg  Mg68  1  0.80013554  0.19986446  0.33287052  1
  Mg  Mg69  1  0.39972892  0.19986446  0.33287052  1
  Mg  Mg70  1  0.80013554  0.60027108  0.33287052  1
  Mg  Mg71  1  0.20028395  0.60014247  0.33262366  1
  Mg  Mg72  1  0.39985753  0.60014247  0.33262366  1
  Mg  Mg73  1  0.39985753  0.79971605  0.33262366  1
  Mg  Mg74  1  0.06633380  0.13266859  0.50000000  1
  Mg  Mg75  1  0.26628463  0.13314232  0.50000000  1
  Mg  Mg76  1  0.86685768  0.13314232  0.50000000  1
  Mg  Mg77  1  0.46652506  0.13297641  0.50000000  1
  Mg  Mg78  1  0.66645135  0.13297641  0.50000000  1
  Mg  Mg79  1  0.26635270  0.33292337  0.50000000  1
  Mg  Mg80  1  0.06657067  0.33292437  0.50000000  1
  Mg  Mg81  1  0.66666700  0.33333300  0.50000000  1
  Mg  Mg82  1  0.86702359  0.33354865  0.50000000  1
  Mg  Mg83  1  0.46652506  0.33354965  0.50000000  1
  Mg  Mg84  1  0.66645135  0.53347494  0.50000000  1
  Mg  Mg85  1  0.86702359  0.53347494  0.50000000  1
  Mg  Mg86  1  0.26636196  0.53272292  0.50000000  1
  Mg  Mg87  1  0.06665098  0.53332499  0.50000000  1
  Mg  Mg88  1  0.46667501  0.53332599  0.50000000  1
  Mg  Mg89  1  0.46727808  0.73363904  0.50000000  1
  Mg  Mg90  1  0.26636196  0.73363904  0.50000000  1
  Mg  Mg91  1  0.86685768  0.73371537  0.50000000  1
  Mg  Mg92  1  0.66707663  0.73364730  0.50000000  1
  Mg  Mg93  1  0.06657067  0.73364730  0.50000000  1
  Mg  Mg94  1  0.46667501  0.93335002  0.50000000  1
  Mg  Mg95  1  0.26635270  0.93342933  0.50000000  1
  Mg  Mg96  1  0.66707663  0.93342933  0.50000000  1
  Mg  Mg97  1  0.06633380  0.93366520  0.50000000  1
  Mg  Mg98  1  0.86733141  0.93366520  0.50000000  1
  Mg  Mg99  1  0.20028395  0.60014247  0.66737634  1
  Mg  Mg100  1  0.39985753  0.60014247  0.66737634  1
  Mg  Mg101  1  0.39985753  0.79971605  0.66737634  1
  Mg  Mg102  1  0.80013554  0.19986446  0.66712948  1
  Mg  Mg103  1  0.39972892  0.19986446  0.66712948  1
  Mg  Mg104  1  0.80013554  0.60027108  0.66712948  1
  Mg  Mg105  1  0.60011963  0.20023825  0.66730932  1
  Mg  Mg106  1  0.79976175  0.39988037  0.66730932  1
  Mg  Mg107  1  0.60011963  0.39988137  0.66730932  1
  Mg  Mg108  1  0.60021323  0.99985533  0.66709632  1
  Mg  Mg109  1  0.39964110  0.99985533  0.66709632  1
  Mg  Mg110  1  0.00014467  0.39978577  0.66709632  1
  Mg  Mg111  1  0.39964110  0.39978577  0.66709632  1
  Mg  Mg112  1  0.60021323  0.60035890  0.66709632  1
  Mg  Mg113  1  0.00014467  0.60035890  0.66709632  1
  Mg  Mg114  1  0.80062959  0.99974345  0.66683998  1
  Mg  Mg115  1  0.19911386  0.99974345  0.66683998  1
  Mg  Mg116  1  0.19911386  0.19937041  0.66683998  1
  Mg  Mg117  1  0.00025655  0.19937041  0.66683998  1
  Mg  Mg118  1  0.00025655  0.80088614  0.66683998  1
  Mg  Mg119  1  0.80062959  0.80088614  0.66683998  1
  Mg  Mg120  1  0.19985158  0.39970315  0.66764909  1
  Mg  Mg121  1  0.60029585  0.80014842  0.66764909  1
  Mg  Mg122  1  0.19985158  0.80014842  0.66764909  1
  Mg  Mg123  1  0.00000000  0.00000000  0.66863484  1
  Mg  Mg124  1  0.86623742  0.13376258  0.83277943  1
  Mg  Mg125  1  0.26752615  0.13376258  0.83277943  1
  Mg  Mg126  1  0.86623742  0.73247385  0.83277943  1
  Mg  Mg127  1  0.46662996  0.53337004  0.83405505  1
  Mg  Mg128  1  0.06674007  0.53337004  0.83405505  1
  Mg  Mg129  1  0.46662996  0.93325993  0.83405505  1
  Mg  Mg130  1  0.46668071  0.13345569  0.83390201  1
  Mg  Mg131  1  0.66677498  0.13345569  0.83390201  1
  Mg  Mg132  1  0.46668071  0.33322502  0.83390201  1
  Mg  Mg133  1  0.86654331  0.33322502  0.83390201  1
  Mg  Mg134  1  0.86654331  0.53331929  0.83390201  1
  Mg  Mg135  1  0.66677498  0.53331929  0.83390201  1
  Mg  Mg136  1  0.66666700  0.33333300  0.83380395  1
  Mg  Mg137  1  0.26627551  0.53255102  0.83401462  1
  Mg  Mg138  1  0.26627551  0.73372449  0.83401462  1
  Mg  Mg139  1  0.46744898  0.73372449  0.83401462  1
  Mg  Mg140  1  0.26562333  0.33154640  0.83461353  1
  Mg  Mg141  1  0.06592307  0.33154640  0.83461353  1
  Mg  Mg142  1  0.06592307  0.73437667  0.83461353  1
  Mg  Mg143  1  0.66845360  0.73437667  0.83461353  1
  Mg  Mg144  1  0.26562333  0.93407693  0.83461353  1
  Mg  Mg145  1  0.66845360  0.93407693  0.83461353  1
  Mg  Mg146  1  0.06490248  0.12980596  0.83673360  1
  Mg  Mg147  1  0.06490248  0.93509652  0.83673360  1
  Mg  Mg148  1  0.87019404  0.93509752  0.83673360  1
  P  P0  1  0.00000000  0.00000000  0.00000000  1
loop_
_geom_bond_atom_site_label_1
_geom_bond_atom_site_label_2
_geom_bond_distance
_geom_bond_site_symmetry_2
Mg0 Mg2 3.089842 1_555
Mg0 P0 3.133359 1_655
Mg0 Mg26 3.134523 1_545
Mg0 Mg148 3.134523 1_544
Mg0 Mg20 3.176668 1_545
Mg0 Mg4 3.181346 1_555
Mg0 Mg124 3.181588 1_554
Mg0 Mg46 3.181588 1_555
Mg0 Mg145 3.190290 1_544
Mg0 Mg32 3.190290 1_545
Mg0 Mg18 3.209331 1_545
Mg0 Mg23 3.241077 1_545
Mg1 Mg3 3.089835 1_555
Mg1 P0 3.133343 1_555
Mg1 Mg25 3.134523 1_545
Mg1 Mg147 3.134523 1_544
Mg1 Mg21 3.176659 1_445
Mg1 Mg5 3.181353 1_555
Mg1 Mg47 3.181589 1_555
Mg1 Mg125 3.181589 1_554
Mg1 Mg144 3.190298 1_544
Mg1 Mg31 3.190298 1_545
Mg1 Mg19 3.209348 1_545
Mg1 Mg22 3.241093 1_545
Mg2 P0 3.133352 1_655
Mg2 Mg24 3.134515 1_655
Mg2 Mg3 3.176651 1_655
Mg2 Mg4 3.181361 1_555
Mg2 Mg46 3.181596 1_555
Mg2 Mg28 3.190290 1_655
Mg2 Mg7 3.209339 1_655
Mg2 Mg9 3.241086 1_655
Mg3 P0 3.133351 1_555
Mg3 Mg5 3.181361 1_555
Mg3 Mg47 3.181604 1_555
Mg3 Mg7 3.209332 1_555
Mg3 Mg8 3.241085 1_555
Mg4 Mg46 3.174518 1_555
Mg4 Mg40 3.182129 1_555
Mg4 Mg9 3.189485 1_655
Mg4 Mg6 3.206102 1_555
Mg5 Mg8 3.189486 1_555
Mg5 Mg6 3.206086 1_555
Mg7 Mg8 3.184905 1_555
Mg7 Mg9 3.184921 1_555
Mg10 Mg136 3.177122 1_554
Mg10 Mg36 3.177122 1_555
Mg10 Mg40 3.178351 1_555
Mg10 Mg133 3.178351 1_554
Mg10 Mg41 3.178368 1_555
Mg10 Mg134 3.178368 1_554
Mg10 Mg6 3.184954 1_555
Mg10 Mg11 3.184962 1_555
Mg10 Mg9 3.198089 1_655
Mg10 Mg14 3.198097 1_655
Mg10 Mg4 3.206087 1_555
Mg10 Mg16 3.206103 1_555
Mg11 Mg136 3.177130 1_554
Mg11 Mg36 3.177130 1_555
Mg11 Mg39 3.178359 1_555
Mg11 Mg132 3.178359 1_554
Mg11 Mg42 3.178368 1_555
Mg11 Mg135 3.178368 1_554
Mg11 Mg6 3.184947 1_555
Mg11 Mg8 3.198089 1_555
Mg11 Mg15 3.198114 1_555
Mg11 Mg5 3.206086 1_555
Mg11 Mg16 3.206102 1_555
Mg12 Mg43 3.176192 1_555
Mg12 Mg127 3.176205 1_554
Mg12 Mg137 3.178770 1_554
Mg12 Mg33 3.178770 1_555
Mg12 Mg139 3.178770 1_554
Mg12 Mg35 3.178770 1_555
Mg12 Mg17 3.186748 1_555
Mg12 Mg13 3.186755 1_555
Mg12 Mg15 3.192475 1_555
Mg12 Mg8 3.192485 1_555
Mg12 Mg7 3.221175 1_555
Mg12 Mg18 3.221191 1_555
Mg13 Mg44 3.176200 1_555
Mg13 Mg138 3.178762 1_554
Mg13 Mg34 3.178762 1_555
Mg13 Mg137 3.178770 1_554
Mg13 Mg33 3.178770 1_555
Mg13 Mg17 3.186739 1_555
Mg13 Mg14 3.192492 1_555
Mg13 Mg9 3.192500 1_555
Mg13 Mg19 3.221176 1_555
Mg13 Mg7 3.221192 1_555
Mg14 Mg142 3.173190 1_554
Mg14 Mg29 3.173190 1_555
Mg14 Mg44 3.178199 1_555
Mg14 Mg41 3.180179 1_455
Mg14 Mg19 3.184922 1_555
Mg14 Mg16 3.189485 1_455
Mg14 Mg9 3.202214 1_555
Mg14 Mg21 3.241086 1_455
Mg15 Mg30 3.173182 1_555
Mg15 Mg43 3.178198 1_555
Mg15 Mg42 3.180180 1_555
Mg15 Mg18 3.184899 1_555
Mg15 Mg16 3.189493 1_555
Mg15 Mg8 3.202221 1_555
Mg15 Mg20 3.241077 1_555
Mg16 Mg48 3.174510 1_555
Mg16 Mg21 3.181361 1_555
Mg16 Mg20 3.181362 1_555
Mg16 Mg41 3.182121 1_555
Mg16 Mg42 3.182129 1_555
Mg17 Mg45 3.176200 1_555
Mg17 Mg35 3.178762 1_555
Mg17 Mg34 3.178770 1_555
Mg17 Mg23 3.192492 1_555
Mg17 Mg22 3.192501 1_555
Mg17 Mg18 3.221183 1_555
Mg17 Mg19 3.221183 1_555
Mg18 Mg30 3.164162 1_555
Mg18 Mg32 3.164162 1_555
Mg18 Mg23 3.184915 1_555
Mg18 Mg35 3.190735 1_555
Mg18 Mg20 3.209323 1_555
Mg19 Mg31 3.164162 1_555
Mg19 Mg29 3.164169 1_555
Mg19 Mg22 3.184906 1_555
Mg19 Mg34 3.190727 1_555
Mg19 Mg21 3.209339 1_455
Mg20 Mg21 3.089850 1_555
Mg20 P0 3.133351 1_665
Mg20 Mg26 3.134523 1_555
Mg20 Mg48 3.181604 1_555
Mg20 Mg30 3.190290 1_555
Mg21 P0 3.133352 1_665
Mg21 Mg25 3.134515 1_655
Mg21 Mg48 3.181596 1_555
Mg21 Mg29 3.190290 1_655
Mg22 Mg31 3.173189 1_555
Mg22 Mg45 3.178199 1_555
Mg22 Mg37 3.180172 1_565
Mg22 Mg5 3.189486 1_565
Mg22 Mg6 3.198089 1_565
Mg22 Mg23 3.202213 1_555
Mg23 Mg32 3.173190 1_555
Mg23 Mg45 3.178198 1_555
Mg23 Mg38 3.180172 1_565
Mg23 Mg4 3.189485 1_565
Mg23 Mg6 3.198098 1_565
Mg24 Mg26 3.105725 1_445
Mg24 Mg25 3.105742 1_545
Mg24 P0 3.113428 1_555
Mg24 Mg3 3.134522 1_555
Mg24 Mg49 3.175310 1_555
Mg24 Mg46 3.201451 1_455
Mg24 Mg47 3.201483 1_555
Mg24 Mg28 3.209953 1_555
Mg24 Mg27 3.209960 1_555
Mg24 Mg56 3.233180 1_555
Mg24 Mg55 3.233188 1_555
Mg25 Mg26 3.105733 1_455
Mg25 P0 3.113428 1_565
Mg25 Mg49 3.175310 1_565
Mg25 Mg48 3.201460 1_455
Mg25 Mg47 3.201476 1_565
Mg25 Mg29 3.209953 1_555
Mg25 Mg31 3.209960 1_555
Mg25 Mg57 3.233180 1_555
Mg25 Mg54 3.233188 1_555
Mg26 P0 3.113427 1_665
Mg26 Mg49 3.175309 1_665
Mg26 Mg46 3.201453 1_565
Mg26 Mg48 3.201484 1_555
Mg26 Mg32 3.209952 1_555
Mg26 Mg30 3.209960 1_555
Mg26 Mg53 3.233180 1_555
Mg26 Mg58 3.233188 1_555
Mg27 Mg7 3.164162 1_555
Mg27 Mg47 3.170194 1_555
Mg27 Mg8 3.173189 1_555
Mg27 Mg28 3.185348 1_555
Mg27 Mg55 3.189760 1_555
Mg27 Mg3 3.190290 1_555
Mg27 Mg50 3.193439 1_555
Mg27 Mg39 3.193711 1_555
Mg27 Mg33 3.200980 1_555
Mg27 Mg62 3.201183 1_555
Mg27 Mg43 3.212733 1_555
Mg28 Mg7 3.164169 1_555
Mg28 Mg46 3.170185 1_455
Mg28 Mg9 3.173190 1_555
Mg28 Mg56 3.189760 1_555
Mg28 Mg50 3.193439 1_555
Mg28 Mg40 3.193727 1_455
Mg28 Mg33 3.200979 1_555
Mg28 Mg61 3.201183 1_555
Mg28 Mg44 3.212734 1_555
Mg29 Mg48 3.170177 1_455
Mg29 Mg31 3.185348 1_555
Mg29 Mg57 3.189760 1_555
Mg29 Mg52 3.193439 1_555
Mg29 Mg41 3.193719 1_455
Mg29 Mg34 3.200978 1_555
Mg29 Mg64 3.201183 1_555
Mg29 Mg44 3.212734 1_555
Mg30 Mg48 3.170193 1_555
Mg30 Mg32 3.185349 1_555
Mg30 Mg58 3.189760 1_555
Mg30 Mg51 3.193447 1_555
Mg30 Mg42 3.193712 1_555
Mg30 Mg35 3.200978 1_555
Mg30 Mg63 3.201183 1_555
Mg30 Mg43 3.212733 1_555
Mg31 Mg47 3.170179 1_565
Mg31 Mg54 3.189760 1_555
Mg31 Mg52 3.193439 1_555
Mg31 Mg37 3.193711 1_565
Mg31 Mg34 3.200980 1_555
Mg31 Mg60 3.201183 1_555
Mg31 Mg45 3.212733 1_555
Mg32 Mg46 3.170185 1_565
Mg32 Mg53 3.189760 1_555
Mg32 Mg51 3.193439 1_555
Mg32 Mg38 3.193712 1_565
Mg32 Mg35 3.200979 1_555
Mg32 Mg59 3.201191 1_555
Mg32 Mg45 3.212733 1_555
Mg33 Mg50 3.177131 1_555
Mg33 Mg72 3.186490 1_555
Mg33 Mg71 3.186499 1_555
Mg33 Mg43 3.189271 1_555
Mg33 Mg44 3.189271 1_555
Mg33 Mg7 3.190728 1_555
Mg33 Mg35 3.208847 1_555
Mg33 Mg34 3.208848 1_555
Mg34 Mg52 3.177131 1_555
Mg34 Mg73 3.186490 1_555
Mg34 Mg71 3.186491 1_555
Mg34 Mg45 3.189271 1_555
Mg34 Mg44 3.189271 1_555
Mg34 Mg35 3.208847 1_555
Mg35 Mg51 3.177123 1_555
Mg35 Mg72 3.186491 1_555
Mg35 Mg73 3.186499 1_555
Mg35 Mg43 3.189272 1_555
Mg35 Mg45 3.189272 1_555
Mg36 Mg6 3.177123 1_555
Mg36 Mg66 3.180744 1_555
Mg36 Mg65 3.180744 1_555
Mg36 Mg67 3.180752 1_555
Mg36 Mg40 3.189018 1_555
Mg36 Mg41 3.189034 1_555
Mg36 Mg38 3.189035 1_555
Mg36 Mg37 3.189042 1_555
Mg36 Mg39 3.189050 1_555
Mg36 Mg42 3.189051 1_555
Mg37 Mg6 3.178359 1_555
Mg37 Mg47 3.179142 1_555
Mg37 Mg5 3.182129 1_555
Mg37 Mg65 3.184741 1_555
Mg37 Mg69 3.186405 1_555
Mg37 Mg39 3.186451 1_555
Mg37 Mg60 3.188742 1_545
Mg37 Mg38 3.191633 1_555
Mg37 Mg45 3.192849 1_545
Mg38 Mg6 3.178367 1_555
Mg38 Mg46 3.179158 1_555
Mg38 Mg4 3.182129 1_555
Mg38 Mg65 3.184733 1_555
Mg38 Mg68 3.186405 1_555
Mg38 Mg40 3.186442 1_555
Mg38 Mg59 3.188742 1_545
Mg38 Mg45 3.192848 1_545
Mg39 Mg47 3.179150 1_555
Mg39 Mg8 3.180172 1_555
Mg39 Mg5 3.182129 1_555
Mg39 Mg67 3.184741 1_555
Mg39 Mg69 3.186405 1_555
Mg39 Mg62 3.188742 1_555
Mg39 Mg42 3.191633 1_555
Mg39 Mg43 3.192849 1_555
Mg40 Mg46 3.179167 1_555
Mg40 Mg9 3.180179 1_655
Mg40 Mg66 3.184725 1_555
Mg40 Mg68 3.186405 1_555
Mg40 Mg61 3.188750 1_655
Mg40 Mg41 3.191634 1_555
Mg40 Mg44 3.192856 1_655
Mg41 Mg48 3.179136 1_555
Mg41 Mg66 3.184741 1_555
Mg41 Mg70 3.186397 1_555
Mg41 Mg42 3.186434 1_555
Mg41 Mg64 3.188750 1_655
Mg41 Mg44 3.192864 1_655
Mg42 Mg48 3.179150 1_555
Mg42 Mg67 3.184734 1_555
Mg42 Mg70 3.186405 1_555
Mg42 Mg63 3.188750 1_555
Mg42 Mg43 3.192848 1_555
Mg43 Mg8 3.178199 1_555
Mg43 Mg72 3.186695 1_555
Mg43 Mg63 3.190563 1_555
Mg43 Mg62 3.190572 1_555
Mg44 Mg9 3.178199 1_555
Mg44 Mg71 3.186686 1_555
Mg44 Mg64 3.190571 1_555
Mg44 Mg61 3.190572 1_555
Mg45 Mg73 3.186687 1_555
Mg45 Mg59 3.190563 1_555
Mg45 Mg60 3.190571 1_555
Mg46 Mg68 3.162886 1_555
Mg46 Mg56 3.181178 1_655
Mg46 Mg53 3.181178 1_545
Mg47 Mg69 3.162877 1_555
Mg47 Mg5 3.174510 1_555
Mg47 Mg54 3.181179 1_545
Mg47 Mg55 3.181186 1_555
Mg48 Mg70 3.162878 1_555
Mg48 Mg57 3.181178 1_655
Mg48 Mg58 3.181186 1_555
Mg49 Mg53 3.178166 1_445
Mg49 Mg54 3.178166 1_545
Mg49 Mg58 3.178166 1_445
Mg49 Mg55 3.178166 1_555
Mg49 Mg57 3.178167 1_545
Mg49 Mg56 3.178167 1_555
Mg49 Mg98 3.204658 1_445
Mg49 Mg74 3.204659 1_555
Mg49 Mg97 3.204659 1_545
Mg50 Mg62 3.186125 1_555
Mg50 Mg61 3.186125 1_555
Mg50 Mg56 3.189594 1_555
Mg50 Mg55 3.189595 1_555
Mg50 Mg72 3.193689 1_555
Mg50 Mg71 3.193698 1_555
Mg50 Mg86 3.194852 1_555
Mg50 Mg80 3.196928 1_555
Mg50 Mg79 3.196929 1_555
Mg51 Mg63 3.186126 1_555
Mg51 Mg59 3.186126 1_555
Mg51 Mg53 3.189602 1_555
Mg51 Mg58 3.189610 1_555
Mg51 Mg73 3.193681 1_555
Mg51 Mg72 3.193681 1_555
Mg51 Mg89 3.194836 1_555
Mg51 Mg96 3.196929 1_555
Mg51 Mg92 3.196937 1_555
Mg52 Mg60 3.186125 1_555
Mg52 Mg64 3.186125 1_555
Mg52 Mg57 3.189594 1_555
Mg52 Mg54 3.189596 1_555
Mg52 Mg73 3.193681 1_555
Mg52 Mg71 3.193682 1_555
Mg52 Mg90 3.194852 1_555
Mg52 Mg93 3.196928 1_555
Mg52 Mg95 3.196929 1_555
Mg53 Mg58 3.171904 1_555
Mg53 Mg98 3.182636 1_555
Mg53 Mg56 3.184179 1_665
Mg53 Mg76 3.187575 1_565
Mg53 Mg96 3.188805 1_555
Mg53 Mg68 3.196011 1_565
Mg53 Mg59 3.197665 1_555
Mg54 Mg57 3.171903 1_555
Mg54 Mg97 3.182636 1_555
Mg54 Mg55 3.184180 1_565
Mg54 Mg75 3.187575 1_565
Mg54 Mg95 3.188806 1_555
Mg54 Mg69 3.196010 1_565
Mg54 Mg60 3.197650 1_555
Mg55 Mg56 3.171902 1_555
Mg55 Mg74 3.182636 1_555
Mg55 Mg75 3.187575 1_555
Mg55 Mg79 3.188806 1_555
Mg55 Mg69 3.196010 1_555
Mg55 Mg62 3.197650 1_555
Mg56 Mg74 3.182628 1_555
Mg56 Mg76 3.187575 1_455
Mg56 Mg80 3.188814 1_555
Mg56 Mg68 3.196010 1_455
Mg56 Mg61 3.197651 1_555
Mg57 Mg97 3.182628 1_555
Mg57 Mg58 3.184179 1_455
Mg57 Mg91 3.187575 1_455
Mg57 Mg93 3.188806 1_555
Mg57 Mg70 3.196010 1_455
Mg57 Mg64 3.197651 1_555
Mg58 Mg98 3.182628 1_555
Mg58 Mg91 3.187575 1_555
Mg58 Mg92 3.188805 1_555
Mg58 Mg70 3.196011 1_555
Mg58 Mg63 3.197658 1_555
Mg59 Mg78 3.188617 1_565
Mg59 Mg68 3.189583 1_565
Mg59 Mg96 3.189956 1_555
Mg59 Mg94 3.191942 1_555
Mg59 Mg73 3.194081 1_555
Mg59 Mg65 3.196987 1_565
Mg59 Mg60 3.199255 1_555
Mg60 Mg77 3.188617 1_565
Mg60 Mg69 3.189576 1_565
Mg60 Mg95 3.189948 1_555
Mg60 Mg94 3.191950 1_555
Mg60 Mg73 3.194082 1_555
Mg60 Mg65 3.197002 1_565
Mg61 Mg82 3.188617 1_455
Mg61 Mg68 3.189575 1_455
Mg61 Mg80 3.189940 1_555
Mg61 Mg87 3.191950 1_555
Mg61 Mg71 3.194089 1_555
Mg61 Mg66 3.196993 1_455
Mg61 Mg64 3.199272 1_555
Mg62 Mg83 3.188609 1_555
Mg62 Mg69 3.189576 1_555
Mg62 Mg79 3.189948 1_555
Mg62 Mg88 3.191958 1_555
Mg62 Mg72 3.194098 1_555
Mg62 Mg67 3.197002 1_555
Mg62 Mg63 3.199263 1_555
Mg63 Mg84 3.188625 1_555
Mg63 Mg70 3.189591 1_555
Mg63 Mg92 3.189949 1_555
Mg63 Mg88 3.191942 1_555
Mg63 Mg72 3.194081 1_555
Mg63 Mg67 3.197003 1_555
Mg64 Mg85 3.188617 1_455
Mg64 Mg70 3.189575 1_455
Mg64 Mg93 3.189949 1_555
Mg64 Mg87 3.191958 1_555
Mg64 Mg71 3.194081 1_555
Mg64 Mg66 3.197002 1_455
Mg65 Mg66 3.184421 1_555
Mg65 Mg67 3.184438 1_555
Mg65 Mg81 3.191117 1_555
Mg65 Mg68 3.193369 1_555
Mg65 Mg69 3.193386 1_555
Mg65 Mg78 3.195100 1_555
Mg65 Mg77 3.195108 1_555
Mg66 Mg67 3.184429 1_555
Mg66 Mg81 3.191116 1_555
Mg66 Mg68 3.193371 1_555
Mg66 Mg70 3.193387 1_555
Mg66 Mg82 3.195100 1_555
Mg66 Mg85 3.195108 1_555
Mg67 Mg81 3.191125 1_555
Mg67 Mg70 3.193370 1_555
Mg67 Mg69 3.193386 1_555
Mg67 Mg84 3.195100 1_555
Mg67 Mg83 3.195108 1_555
Mg68 Mg76 3.191612 1_555
Mg68 Mg78 3.193527 1_555
Mg68 Mg82 3.193527 1_555
Mg69 Mg75 3.191612 1_555
Mg69 Mg77 3.193527 1_555
Mg69 Mg83 3.193535 1_555
Mg70 Mg91 3.191612 1_555
Mg70 Mg84 3.193527 1_555
Mg70 Mg85 3.193527 1_555
Mg71 Mg72 3.183327 1_555
Mg71 Mg73 3.183328 1_555
Mg71 Mg90 3.195189 1_555
Mg71 Mg86 3.195197 1_555
Mg71 Mg87 3.196259 1_555
Mg72 Mg73 3.183329 1_555
Mg72 Mg86 3.195181 1_555
Mg72 Mg89 3.195189 1_555
Mg72 Mg88 3.196267 1_555
Mg73 Mg90 3.195181 1_555
Mg73 Mg89 3.195197 1_555
Mg73 Mg94 3.196267 1_555
Mg74 Mg98 3.174225 1_445
Mg74 Mg97 3.174234 1_545
Mg74 Mg76 3.185558 1_455
Mg74 Mg75 3.185573 1_555
Mg74 Mg79 3.192314 1_555
Mg74 Mg80 3.192323 1_555
Mg75 Mg97 3.185574 1_545
Mg75 Mg79 3.186095 1_555
Mg75 Mg95 3.186095 1_545
Mg75 Mg77 3.195288 1_555
Mg75 Mg83 3.195296 1_555
Mg76 Mg98 3.185575 1_545
Mg76 Mg96 3.186094 1_545
Mg76 Mg80 3.186102 1_655
Mg76 Mg78 3.195288 1_555
Mg76 Mg82 3.195289 1_555
Mg77 Mg94 3.185368 1_545
Mg77 Mg95 3.187903 1_545
Mg77 Mg78 3.188953 1_555
Mg77 Mg81 3.194107 1_555
Mg77 Mg83 3.199274 1_555
Mg78 Mg94 3.185366 1_545
Mg78 Mg96 3.187904 1_545
Mg78 Mg81 3.194100 1_555
Mg78 Mg82 3.199257 1_555
Mg79 Mg80 3.186660 1_555
Mg79 Mg86 3.186859 1_555
Mg79 Mg83 3.187895 1_555
Mg79 Mg88 3.195911 1_555
Mg80 Mg86 3.186858 1_555
Mg80 Mg82 3.187895 1_455
Mg80 Mg87 3.195880 1_555
Mg81 Mg82 3.194098 1_555
Mg81 Mg85 3.194107 1_555
Mg81 Mg84 3.194116 1_555
Mg81 Mg83 3.194122 1_555
Mg82 Mg87 3.185374 1_655
Mg82 Mg85 3.188955 1_555
Mg83 Mg88 3.185368 1_555
Mg83 Mg84 3.188946 1_555
Mg84 Mg88 3.185374 1_555
Mg84 Mg92 3.187904 1_555
Mg84 Mg91 3.195288 1_555
Mg84 Mg85 3.199257 1_555
Mg85 Mg87 3.185382 1_655
Mg85 Mg93 3.187903 1_655
Mg85 Mg91 3.195289 1_555
Mg86 Mg88 3.190324 1_555
Mg86 Mg87 3.190332 1_555
Mg86 Mg99 3.195197 1_555
Mg86 Mg89 3.204742 1_555
Mg86 Mg90 3.204743 1_555
Mg87 Mg90 3.190340 1_555
Mg87 Mg93 3.195912 1_555
Mg87 Mg99 3.196259 1_555
Mg88 Mg89 3.190325 1_555
Mg88 Mg92 3.195895 1_555
Mg89 Mg92 3.186850 1_555
Mg89 Mg96 3.186850 1_555
Mg89 Mg94 3.190341 1_555
Mg89 Mg90 3.204742 1_555
Mg90 Mg95 3.186859 1_555
Mg90 Mg93 3.186866 1_555
Mg90 Mg94 3.190332 1_555
Mg90 Mg99 3.195189 1_555
Mg91 Mg97 3.185558 1_655
Mg91 Mg98 3.185559 1_555
Mg91 Mg92 3.186094 1_555
Mg91 Mg93 3.186094 1_655
Mg92 Mg96 3.186654 1_555
Mg92 Mg98 3.192306 1_555
Mg93 Mg95 3.186652 1_555
Mg93 Mg97 3.192307 1_555
Mg94 Mg96 3.195903 1_555
Mg94 Mg95 3.195903 1_555
Mg95 Mg97 3.192313 1_555
Mg96 Mg98 3.192314 1_555
Mg97 Mg98 3.174217 1_455
Mg100 Mg99 3.183327 1_555
Mg100 Mg101 3.183329 1_555
Mg100 Mg137 3.186490 1_555
Mg100 Mg139 3.186491 1_555
Mg100 Mg127 3.186682 1_555
Mg100 Mg121 3.193681 1_555
Mg100 Mg120 3.193689 1_555
Mg100 Mg112 3.194081 1_555
Mg100 Mg111 3.194098 1_555
Mg100 Mg86 3.195181 1_555
Mg100 Mg89 3.195189 1_555
Mg100 Mg88 3.196267 1_555
Mg101 Mg99 3.183328 1_555
Mg101 Mg138 3.186490 1_555
Mg101 Mg139 3.186499 1_555
Mg101 Mg129 3.186674 1_555
Mg101 Mg121 3.193681 1_555
Mg101 Mg122 3.193681 1_555
Mg101 Mg108 3.194081 1_555
Mg101 Mg109 3.194082 1_555
Mg101 Mg90 3.195181 1_555
Mg101 Mg89 3.195197 1_555
Mg101 Mg94 3.196267 1_555
Mg102 Mg124 3.162886 1_555
Mg102 Mg131 3.186405 1_555
Mg102 Mg133 3.186405 1_555
Mg102 Mg110 3.189575 1_655
Mg102 Mg108 3.189583 1_545
Mg102 Mg76 3.191612 1_555
Mg102 Mg105 3.193369 1_555
Mg102 Mg106 3.193371 1_555
Mg102 Mg78 3.193527 1_555
Mg102 Mg82 3.193527 1_555
Mg102 Mg117 3.196010 1_655
Mg102 Mg114 3.196011 1_545
Mg103 Mg125 3.162877 1_555
Mg103 Mg130 3.186405 1_555
Mg103 Mg132 3.186405 1_555
Mg103 Mg111 3.189576 1_555
Mg103 Mg109 3.189576 1_545
Mg103 Mg75 3.191612 1_555
Mg103 Mg105 3.193386 1_555
Mg103 Mg107 3.193386 1_555
Mg103 Mg77 3.193527 1_555
Mg103 Mg83 3.193535 1_555
Mg103 Mg116 3.196010 1_555
Mg103 Mg115 3.196010 1_545
Mg104 Mg126 3.162878 1_555
Mg104 Mg134 3.186397 1_555
Mg104 Mg135 3.186405 1_555
Mg104 Mg113 3.189575 1_655
Mg104 Mg112 3.189591 1_555
Mg104 Mg91 3.191612 1_555
Mg104 Mg107 3.193370 1_555
Mg104 Mg106 3.193387 1_555
Mg104 Mg84 3.193527 1_555
Mg104 Mg85 3.193527 1_555
Mg104 Mg118 3.196010 1_655
Mg104 Mg119 3.196011 1_555
Mg105 Mg136 3.180744 1_555
Mg105 Mg106 3.184421 1_555
Mg105 Mg107 3.184438 1_555
Mg105 Mg131 3.184733 1_555
Mg105 Mg130 3.184741 1_555
Mg105 Mg81 3.191117 1_555
Mg105 Mg78 3.195100 1_555
Mg105 Mg77 3.195108 1_555
Mg105 Mg108 3.196987 1_545
Mg105 Mg109 3.197002 1_545
Mg106 Mg136 3.180744 1_555
Mg106 Mg107 3.184429 1_555
Mg106 Mg133 3.184725 1_555
Mg106 Mg134 3.184741 1_555
Mg106 Mg81 3.191116 1_555
Mg106 Mg82 3.195100 1_555
Mg106 Mg85 3.195108 1_555
Mg106 Mg110 3.196993 1_655
Mg106 Mg113 3.197002 1_655
Mg107 Mg136 3.180752 1_555
Mg107 Mg135 3.184734 1_555
Mg107 Mg132 3.184741 1_555
Mg107 Mg81 3.191125 1_555
Mg107 Mg84 3.195100 1_555
Mg107 Mg83 3.195108 1_555
Mg107 Mg111 3.197002 1_555
Mg107 Mg112 3.197003 1_555
Mg108 Mg121 3.186126 1_555
Mg108 Mg78 3.188617 1_565
Mg108 Mg131 3.188742 1_565
Mg108 Mg96 3.189956 1_555
Mg108 Mg129 3.190550 1_555
Mg108 Mg94 3.191942 1_555
Mg108 Mg114 3.197665 1_555
Mg108 Mg109 3.199255 1_555
Mg108 Mg145 3.201191 1_555
Mg109 Mg122 3.186125 1_555
Mg109 Mg77 3.188617 1_565
Mg109 Mg130 3.188742 1_565
Mg109 Mg95 3.189948 1_555
Mg109 Mg129 3.190559 1_555
Mg109 Mg94 3.191950 1_555
Mg109 Mg115 3.197650 1_555
Mg109 Mg144 3.201183 1_555
Mg110 Mg120 3.186125 1_555
Mg110 Mg82 3.188617 1_455
Mg110 Mg133 3.188750 1_455
Mg110 Mg80 3.189940 1_555
Mg110 Mg128 3.190559 1_555
Mg110 Mg87 3.191950 1_555
Mg110 Mg99 3.194089 1_555
Mg110 Mg117 3.197651 1_555
Mg110 Mg113 3.199272 1_555
Mg110 Mg141 3.201183 1_555
Mg111 Mg120 3.186125 1_555
Mg111 Mg83 3.188609 1_555
Mg111 Mg132 3.188742 1_555
Mg111 Mg79 3.189948 1_555
Mg111 Mg127 3.190559 1_555
Mg111 Mg88 3.191958 1_555
Mg111 Mg116 3.197650 1_555
Mg111 Mg112 3.199263 1_555
Mg111 Mg140 3.201183 1_555
Mg112 Mg121 3.186126 1_555
Mg112 Mg84 3.188625 1_555
Mg112 Mg135 3.188750 1_555
Mg112 Mg92 3.189949 1_555
Mg112 Mg127 3.190550 1_555
Mg112 Mg88 3.191942 1_555
Mg112 Mg119 3.197658 1_555
Mg112 Mg143 3.201183 1_555
Mg113 Mg122 3.186125 1_555
Mg113 Mg85 3.188617 1_455
Mg113 Mg134 3.188750 1_455
Mg113 Mg93 3.189949 1_555
Mg113 Mg128 3.190559 1_555
Mg113 Mg87 3.191958 1_555
Mg113 Mg99 3.194081 1_555
Mg113 Mg118 3.197651 1_555
Mg113 Mg142 3.201183 1_555
Mg114 Mg119 3.171904 1_555
Mg114 Mg123 3.178166 1_665
Mg114 Mg124 3.181178 1_565
Mg114 Mg98 3.182636 1_555
Mg114 Mg117 3.184179 1_665
Mg114 Mg76 3.187575 1_565
Mg114 Mg96 3.188805 1_555
Mg114 Mg121 3.189602 1_555
Mg114 Mg145 3.189760 1_555
Mg114 Mg148 3.233180 1_555
Mg115 Mg118 3.171903 1_555
Mg115 Mg123 3.178166 1_565
Mg115 Mg125 3.181179 1_565
Mg115 Mg97 3.182636 1_555
Mg115 Mg116 3.184180 1_565
Mg115 Mg75 3.187575 1_565
Mg115 Mg95 3.188806 1_555
Mg115 Mg122 3.189596 1_555
Mg115 Mg144 3.189760 1_555
Mg115 Mg147 3.233188 1_555
Mg116 Mg117 3.171902 1_555
Mg116 Mg123 3.178166 1_555
Mg116 Mg125 3.181186 1_555
Mg116 Mg74 3.182636 1_555
Mg116 Mg75 3.187575 1_555
Mg116 Mg79 3.188806 1_555
Mg116 Mg120 3.189595 1_555
Mg116 Mg140 3.189760 1_555
Mg116 Mg146 3.233188 1_555
Mg117 Mg123 3.178167 1_555
Mg117 Mg124 3.181178 1_455
Mg117 Mg74 3.182628 1_555
Mg117 Mg76 3.187575 1_455
Mg117 Mg80 3.188814 1_555
Mg117 Mg120 3.189594 1_555
Mg117 Mg141 3.189760 1_555
Mg117 Mg146 3.233180 1_555
Mg118 Mg123 3.178167 1_565
Mg118 Mg126 3.181178 1_455
Mg118 Mg97 3.182628 1_555
Mg118 Mg119 3.184179 1_455
Mg118 Mg91 3.187575 1_455
Mg118 Mg93 3.188806 1_555
Mg118 Mg122 3.189594 1_555
Mg118 Mg142 3.189760 1_555
Mg118 Mg147 3.233180 1_555
Mg119 Mg123 3.178166 1_665
Mg119 Mg126 3.181186 1_555
Mg119 Mg98 3.182628 1_555
Mg119 Mg91 3.187575 1_555
Mg119 Mg92 3.188805 1_555
Mg119 Mg121 3.189610 1_555
Mg119 Mg143 3.189760 1_555
Mg119 Mg148 3.233188 1_555
Mg120 Mg137 3.177131 1_555
Mg120 Mg141 3.193439 1_555
Mg120 Mg140 3.193439 1_555
Mg120 Mg99 3.193698 1_555
Mg120 Mg86 3.194852 1_555
Mg120 Mg80 3.196928 1_555
Mg120 Mg79 3.196929 1_555
Mg121 Mg139 3.177123 1_555
Mg121 Mg145 3.193439 1_555
Mg121 Mg143 3.193447 1_555
Mg121 Mg89 3.194836 1_555
Mg121 Mg96 3.196929 1_555
Mg121 Mg92 3.196937 1_555
Mg122 Mg138 3.177131 1_555
Mg122 Mg142 3.193439 1_555
Mg122 Mg144 3.193439 1_555
Mg122 Mg99 3.193682 1_555
Mg122 Mg90 3.194852 1_555
Mg122 Mg93 3.196928 1_555
Mg122 Mg95 3.196929 1_555
Mg123 Mg148 3.175309 1_445
Mg123 Mg147 3.175310 1_545
Mg123 Mg146 3.175310 1_555
Mg123 Mg98 3.204658 1_445
Mg123 Mg74 3.204659 1_555
Mg123 Mg97 3.204659 1_545
Mg124 Mg141 3.170185 1_655
Mg124 Mg145 3.170185 1_545
Mg124 Mg4 3.174518 1_556
Mg124 Mg131 3.179158 1_555
Mg124 Mg133 3.179167 1_555
Mg124 Mg2 3.181596 1_556
Mg124 Mg146 3.201451 1_655
Mg124 Mg148 3.201453 1_545
Mg125 Mg144 3.170179 1_545
Mg125 Mg140 3.170194 1_555
Mg125 Mg5 3.174510 1_556
Mg125 Mg130 3.179142 1_555
Mg125 Mg132 3.179150 1_555
Mg125 Mg3 3.181604 1_556
Mg125 Mg147 3.201476 1_545
Mg125 Mg146 3.201483 1_555
Mg126 Mg142 3.170177 1_655
Mg126 Mg143 3.170193 1_555
Mg126 Mg16 3.174510 1_556
Mg126 Mg134 3.179136 1_555
Mg126 Mg135 3.179150 1_555
Mg126 Mg21 3.181596 1_556
Mg126 Mg20 3.181604 1_556
Mg126 Mg147 3.201460 1_655
Mg126 Mg148 3.201484 1_555
Mg127 Mg15 3.178211 1_556
Mg127 Mg8 3.178211 1_556
Mg127 Mg137 3.189271 1_555
Mg127 Mg139 3.189272 1_555
Mg127 Mg135 3.192848 1_555
Mg127 Mg132 3.192849 1_555
Mg127 Mg143 3.212733 1_555
Mg127 Mg140 3.212733 1_555
Mg128 Mg13 3.176213 1_556
Mg128 Mg14 3.178211 1_556
Mg128 Mg9 3.178211 1_556
Mg128 Mg99 3.186674 1_555
Mg128 Mg137 3.189271 1_555
Mg128 Mg138 3.189271 1_555
Mg128 Mg133 3.192856 1_455
Mg128 Mg134 3.192864 1_455
Mg128 Mg142 3.212734 1_555
Mg128 Mg141 3.212734 1_555
Mg129 Mg17 3.176213 1_556
Mg129 Mg23 3.178211 1_556
Mg129 Mg22 3.178211 1_556
Mg129 Mg138 3.189271 1_555
Mg129 Mg139 3.189272 1_555
Mg129 Mg131 3.192848 1_565
Mg129 Mg130 3.192849 1_565
Mg129 Mg144 3.212733 1_555
Mg129 Mg145 3.212733 1_555
Mg130 Mg6 3.178359 1_556
Mg130 Mg22 3.180172 1_546
Mg130 Mg5 3.182129 1_556
Mg130 Mg132 3.186451 1_555
Mg130 Mg136 3.189042 1_555
Mg130 Mg131 3.191633 1_555
Mg130 Mg144 3.193711 1_545
Mg131 Mg6 3.178367 1_556
Mg131 Mg23 3.180172 1_546
Mg131 Mg4 3.182129 1_556
Mg131 Mg133 3.186442 1_555
Mg131 Mg136 3.189035 1_555
Mg131 Mg145 3.193712 1_545
Mg132 Mg8 3.180172 1_556
Mg132 Mg5 3.182129 1_556
Mg132 Mg136 3.189050 1_555
Mg132 Mg135 3.191633 1_555
Mg132 Mg140 3.193711 1_555
Mg133 Mg9 3.180179 1_656
Mg133 Mg4 3.182129 1_556
Mg133 Mg136 3.189018 1_555
Mg133 Mg134 3.191634 1_555
Mg133 Mg141 3.193727 1_655
Mg134 Mg14 3.180179 1_656
Mg134 Mg16 3.182121 1_556
Mg134 Mg135 3.186434 1_555
Mg134 Mg136 3.189034 1_555
Mg134 Mg142 3.193719 1_655
Mg135 Mg15 3.180180 1_556
Mg135 Mg16 3.182129 1_556
Mg135 Mg136 3.189051 1_555
Mg135 Mg143 3.193712 1_555
Mg136 Mg6 3.177123 1_556
Mg137 Mg99 3.186499 1_555
Mg137 Mg7 3.190728 1_556
Mg137 Mg141 3.200979 1_555
Mg137 Mg140 3.200980 1_555
Mg137 Mg139 3.208847 1_555
Mg137 Mg138 3.208848 1_555
Mg138 Mg17 3.178770 1_556
Mg138 Mg99 3.186491 1_555
Mg138 Mg19 3.190727 1_556
Mg138 Mg142 3.200978 1_555
Mg138 Mg144 3.200980 1_555
Mg138 Mg139 3.208847 1_555
Mg139 Mg17 3.178762 1_556
Mg139 Mg18 3.190735 1_556
Mg139 Mg143 3.200978 1_555
Mg139 Mg145 3.200979 1_555
Mg140 Mg7 3.164162 1_556
Mg140 Mg8 3.173189 1_556
Mg140 Mg141 3.185348 1_555
Mg140 Mg3 3.190290 1_556
Mg140 Mg146 3.209960 1_555
Mg141 Mg7 3.164169 1_556
Mg141 Mg9 3.173190 1_556
Mg141 Mg2 3.190290 1_456
Mg141 Mg146 3.209953 1_555
Mg142 Mg19 3.164169 1_556
Mg142 Mg144 3.185348 1_555
Mg142 Mg21 3.190290 1_456
Mg142 Mg147 3.209953 1_555
Mg143 Mg18 3.164162 1_556
Mg143 Mg15 3.173182 1_556
Mg143 Mg145 3.185349 1_555
Mg143 Mg20 3.190290 1_556
Mg143 Mg148 3.209960 1_555
Mg144 Mg19 3.164162 1_556
Mg144 Mg22 3.173189 1_556
Mg144 Mg147 3.209960 1_555
Mg145 Mg18 3.164162 1_556
Mg145 Mg23 3.173190 1_556
Mg145 Mg148 3.209952 1_555
Mg146 Mg148 3.105725 1_445
Mg146 Mg147 3.105742 1_545
Mg146 P0 3.113428 1_556
Mg146 Mg2 3.134515 1_456
Mg146 Mg3 3.134522 1_556
Mg147 Mg148 3.105733 1_455
Mg147 P0 3.113428 1_566
Mg147 Mg21 3.134515 1_456
Mg148 P0 3.113427 1_666
Mg148 Mg20 3.134523 1_556
