# generated using pymatgen
data_Mg4Si3
_symmetry_space_group_name_H-M   'P 1'
_cell_length_a   5.26134400
_cell_length_b   6.43558623
_cell_length_c   8.78269775
_cell_angle_alpha   102.28494074
_cell_angle_beta   105.29406692
_cell_angle_gamma   100.47900822
_symmetry_Int_Tables_number   1
_chemical_formula_structural   Mg4Si3
_chemical_formula_sum   'Mg8 Si6'
_cell_volume   271.19705738
_cell_formula_units_Z   2
loop_
 _symmetry_equiv_pos_site_id
 _symmetry_equiv_pos_as_xyz
  1  'x, y, z'
loop_
 _atom_site_type_symbol
 _atom_site_label
 _atom_site_symmetry_multiplicity
 _atom_site_fract_x
 _atom_site_fract_y
 _atom_site_fract_z
 _atom_site_occupancy
  Mg  Mg0  1  0.76840800  0.51338200  0.81594700  1
  Mg  Mg1  1  0.51542300  0.16665600  0.05947500  1
  Mg  Mg2  1  0.22853100  0.79933500  0.38744200  1
  Mg  Mg3  1  0.85828900  0.13605400  0.53534900  1
  Mg  Mg4  1  0.59680700  0.68789300  0.15276600  1
  Mg  Mg5  1  0.24427700  0.69459400  0.69191300  1
  Mg  Mg6  1  0.31239400  0.29617000  0.37692300  1
  Mg  Mg7  1  0.87639400  0.02368500  0.84905500  1
  Si  Si0  1  0.40444400  0.11526900  0.67561600  1
  Si  Si1  1  0.25745600  0.38823800  0.84840400  1
  Si  Si2  1  0.09306400  0.85823900  0.09688700  1
  Si  Si3  1  0.69801700  0.70529000  0.54412800  1
  Si  Si4  1  0.05736500  0.42774300  0.10297300  1
  Si  Si5  1  0.83896400  0.43738200  0.36317200  1
loop_
_geom_bond_atom_site_label_1
_geom_bond_atom_site_label_2
_geom_bond_distance
_geom_bond_site_symmetry_2
Mg0 Si0 2.716031 1_555
Mg0 Si1 2.769699 1_555
Mg0 Si1 2.795535 1_655
Mg0 Si4 2.800719 1_656
Mg0 Si2 2.828189 1_656
Mg0 Si3 2.883808 1_555
Mg1 Si5 2.756073 1_555
Mg1 Si1 2.795307 1_554
Mg1 Si2 2.836190 1_545
Mg1 Si4 2.916986 1_655
Mg1 Si0 3.198893 1_554
Mg2 Si2 2.591159 1_555
Mg2 Si0 2.699287 1_565
Mg2 Si3 2.732501 1_555
Mg2 Si5 2.737522 1_455
Mg2 Si4 2.873852 1_555
Mg3 Si5 2.701131 1_555
Mg3 Si3 2.770765 1_545
Mg3 Si0 2.852199 1_655
Mg3 Si1 2.901595 1_655
Mg3 Si0 2.956868 1_555
Mg4 Si1 2.844003 1_554
Mg4 Si2 2.850201 1_655
Mg4 Si4 2.890462 1_555
Mg4 Si5 2.900026 1_555
Mg4 Si2 3.011107 1_555
Mg5 Si1 2.633160 1_555
Mg5 Si0 2.731063 1_565
Mg5 Si3 2.844587 1_455
Mg5 Si3 3.000237 1_555
Mg5 Si5 3.009612 1_455
Mg6 Si5 2.785024 1_455
Mg6 Si5 2.797023 1_555
Mg6 Si4 2.807749 1_555
Mg6 Si3 2.836361 1_555
Mg6 Si0 3.050622 1_555
Mg6 Si2 3.113469 1_545
Mg7 Si2 2.699942 1_646
Mg7 Si0 2.784328 1_555
Mg7 Si1 2.797261 1_655
Mg7 Si3 2.809075 1_545
Mg7 Si4 2.855371 1_656
Si0 Si1 2.442522 1_555
Si1 Si4 2.696089 1_556
Si2 Si4 2.755504 1_555
Si3 Si5 2.443192 1_555
Si4 Si5 2.810251 1_455
