# generated using pymatgen
data_Cu2SnSe3
_symmetry_space_group_name_H-M   'P 1'
_cell_length_a   7.06346942
_cell_length_b   7.06346942
_cell_length_c   13.45874765
_cell_angle_alpha   85.08372034
_cell_angle_beta   85.08372034
_cell_angle_gamma   119.94000294
_symmetry_Int_Tables_number   1
_chemical_formula_structural   Cu2SnSe3
_chemical_formula_sum   'Cu8 Sn4 Se12'
_cell_volume   573.28508019
_cell_formula_units_Z   4
loop_
 _symmetry_equiv_pos_site_id
 _symmetry_equiv_pos_as_xyz
  1  'x, y, z'
loop_
 _atom_site_type_symbol
 _atom_site_label
 _atom_site_symmetry_multiplicity
 _atom_site_fract_x
 _atom_site_fract_y
 _atom_site_fract_z
 _atom_site_occupancy
  Cu  Cu0  1  0.08483700  0.91971700  0.74144700  1
  Cu  Cu1  1  0.91971700  0.08483700  0.24144700  1
  Cu  Cu2  1  0.23380700  0.74012000  0.24346000  1
  Cu  Cu3  1  0.74012000  0.23380700  0.74346000  1
  Cu  Cu4  1  0.15475000  0.31350900  0.49151700  1
  Cu  Cu5  1  0.31350900  0.15475000  0.99151700  1
  Cu  Cu6  1  0.83569700  0.65695400  0.49204500  1
  Cu  Cu7  1  0.65695400  0.83569700  0.99204500  1
  Sn  Sn0  1  0.49608800  0.00350000  0.50083200  1
  Sn  Sn1  1  0.00350000  0.49608800  0.00083200  1
  Sn  Sn2  1  0.42632800  0.57665800  0.74958300  1
  Sn  Sn3  1  0.57665800  0.42632800  0.24958300  1
  Se  Se0  1  0.11726700  0.96719800  0.55995700  1
  Se  Se1  1  0.96719800  0.11726700  0.05995700  1
  Se  Se2  1  0.47654200  0.61547300  0.54815900  1
  Se  Se3  1  0.61547300  0.47654200  0.04815900  1
  Se  Se4  1  0.55995800  0.03978200  0.29903400  1
  Se  Se5  1  0.03978200  0.55995800  0.79903400  1
  Se  Se6  1  0.83341200  0.32742700  0.56094700  1
  Se  Se7  1  0.32742700  0.83341200  0.06094700  1
  Se  Se8  1  0.39162700  0.20017900  0.80988000  1
  Se  Se9  1  0.20017900  0.39162700  0.30988000  1
  Se  Se10  1  0.75063000  0.91213900  0.81044000  1
  Se  Se11  1  0.91213900  0.75063000  0.31044000  1
loop_
_geom_bond_atom_site_label_1
_geom_bond_atom_site_label_2
_geom_bond_distance
_geom_bond_site_symmetry_2
Cu0 Se0 2.412132 1_555
Cu0 Se8 2.416275 1_565
Cu0 Se10 2.434635 1_455
Cu0 Se5 2.443832 1_555
Cu1 Se1 2.412132 1_555
Cu1 Se9 2.416275 1_655
Cu1 Se11 2.434635 1_545
Cu1 Se4 2.443832 1_555
Cu2 Se11 2.410255 1_455
Cu2 Se7 2.431991 1_555
Cu2 Se9 2.432625 1_555
Cu2 Se4 2.458911 1_565
Cu3 Se10 2.410255 1_545
Cu3 Se6 2.431991 1_555
Cu3 Se8 2.432625 1_555
Cu3 Se5 2.458911 1_655
Cu4 Se0 2.414078 1_545
Cu4 Se9 2.416846 1_555
Cu4 Se6 2.430968 1_455
Cu4 Se2 2.456276 1_555
Cu5 Se1 2.414078 1_456
Cu5 Se8 2.416846 1_555
Cu5 Se7 2.430968 1_546
Cu5 Se3 2.456276 1_556
Cu6 Se11 2.417299 1_555
Cu6 Se6 2.422380 1_555
Cu6 Se0 2.428501 1_655
Cu6 Se2 2.446161 1_555
Cu7 Se10 2.417299 1_555
Cu7 Se7 2.422380 1_556
Cu7 Se1 2.428501 1_566
Cu7 Se3 2.446161 1_556
Se0 Sn0 2.602694 1_565
Se1 Sn1 2.602694 1_655
Se2 Sn2 2.675960 1_555
Se2 Sn0 2.691624 1_565
Se3 Sn3 2.675960 1_555
Se3 Sn1 2.691624 1_655
Se4 Sn0 2.683442 1_555
Se4 Sn3 2.695422 1_555
Se5 Sn1 2.683442 1_556
Se5 Sn2 2.695422 1_555
Se6 Sn0 2.602468 1_555
Se7 Sn1 2.602468 1_555
Se8 Sn2 2.595311 1_555
Se9 Sn3 2.595311 1_555
Se10 Sn2 2.601801 1_555
Se11 Sn3 2.601801 1_555
