# generated using pymatgen
data_TiSF
_symmetry_space_group_name_H-M   'P 1'
_cell_length_a   3.60221600
_cell_length_b   8.99967600
_cell_length_c   16.65441800
_cell_angle_alpha   90.00000000
_cell_angle_beta   90.00000000
_cell_angle_gamma   90.00000000
_symmetry_Int_Tables_number   1
_chemical_formula_structural   TiSF
_chemical_formula_sum   'Ti12 S12 F12'
_cell_volume   539.91586124
_cell_formula_units_Z   12
loop_
 _symmetry_equiv_pos_site_id
 _symmetry_equiv_pos_as_xyz
  1  'x, y, z'
loop_
 _atom_site_type_symbol
 _atom_site_label
 _atom_site_symmetry_multiplicity
 _atom_site_fract_x
 _atom_site_fract_y
 _atom_site_fract_z
 _atom_site_occupancy
  Ti  Ti0  1  0.75000000  0.91926400  0.08033000  1
  Ti  Ti1  1  0.75000000  0.41926400  0.41967000  1
  Ti  Ti2  1  0.25000000  0.08073600  0.91967000  1
  Ti  Ti3  1  0.25000000  0.58073600  0.58033000  1
  Ti  Ti4  1  0.75000000  0.92037400  0.41559900  1
  Ti  Ti5  1  0.75000000  0.42037400  0.08440100  1
  Ti  Ti6  1  0.25000000  0.07962600  0.58440100  1
  Ti  Ti7  1  0.25000000  0.57962600  0.91559900  1
  Ti  Ti8  1  0.75000000  0.72759100  0.74019100  1
  Ti  Ti9  1  0.75000000  0.22759100  0.75980900  1
  Ti  Ti10  1  0.25000000  0.27240900  0.25980900  1
  Ti  Ti11  1  0.25000000  0.77240900  0.24019100  1
  S  S0  1  0.75000000  0.67657300  0.14921300  1
  S  S1  1  0.75000000  0.17657300  0.35078700  1
  S  S2  1  0.25000000  0.32342700  0.85078700  1
  S  S3  1  0.25000000  0.82342700  0.64921300  1
  S  S4  1  0.75000000  0.66428400  0.48598500  1
  S  S5  1  0.75000000  0.16428400  0.01401500  1
  S  S6  1  0.25000000  0.33571600  0.51401500  1
  S  S7  1  0.25000000  0.83571600  0.98598500  1
  S  S8  1  0.75000000  0.99287800  0.82662900  1
  S  S9  1  0.75000000  0.49287800  0.67337100  1
  S  S10  1  0.25000000  0.00712200  0.17337100  1
  S  S11  1  0.25000000  0.50712200  0.32662900  1
  F  F0  1  0.75000000  0.06608800  0.51911900  1
  F  F1  1  0.75000000  0.56608800  0.98088100  1
  F  F2  1  0.25000000  0.93391200  0.48088100  1
  F  F3  1  0.25000000  0.43391200  0.01911900  1
  F  F4  1  0.75000000  0.09296800  0.65366800  1
  F  F5  1  0.75000000  0.59296800  0.84633200  1
  F  F6  1  0.25000000  0.90703200  0.34633200  1
  F  F7  1  0.25000000  0.40703200  0.15366800  1
  F  F8  1  0.75000000  0.77627500  0.30262400  1
  F  F9  1  0.75000000  0.27627500  0.19737600  1
  F  F10  1  0.25000000  0.22372500  0.69737600  1
  F  F11  1  0.25000000  0.72372500  0.80262400  1
loop_
_geom_bond_atom_site_label_1
_geom_bond_atom_site_label_2
_geom_bond_distance
_geom_bond_site_symmetry_2
S0 Ti0 2.467094 1_555
S0 Ti11 2.506725 1_655
S0 Ti11 2.506725 1_555
S0 Ti5 2.545861 1_555
S1 Ti1 2.467094 1_555
S1 Ti10 2.506725 1_655
S1 Ti10 2.506725 1_555
S1 Ti4 2.545861 1_545
S2 Ti2 2.467094 1_555
S2 Ti9 2.506725 1_455
S2 Ti9 2.506725 1_555
S2 Ti7 2.545861 1_555
S3 Ti3 2.467094 1_555
S3 Ti8 2.506725 1_555
S3 Ti8 2.506725 1_455
S3 Ti6 2.545861 1_565
S4 Ti1 2.466222 1_555
S4 Ti3 2.505636 1_655
S4 Ti3 2.505636 1_555
S4 Ti4 2.585712 1_555
S5 Ti0 2.466222 1_545
S5 Ti2 2.505636 1_654
S5 Ti2 2.505636 1_554
S5 Ti5 2.585712 1_555
S6 Ti3 2.466222 1_555
S6 Ti1 2.505636 1_555
S6 Ti1 2.505636 1_455
S6 Ti6 2.585712 1_555
S7 Ti2 2.466222 1_565
S7 Ti0 2.505636 1_556
S7 Ti0 2.505636 1_456
S7 Ti7 2.585712 1_555
S8 Ti9 2.387554 1_565
S8 Ti2 2.504051 1_665
S8 Ti2 2.504051 1_565
S8 Ti8 2.787923 1_555
S9 Ti8 2.387554 1_555
S9 Ti3 2.504051 1_655
S9 Ti3 2.504051 1_555
S9 Ti9 2.787923 1_555
S10 Ti11 2.387554 1_545
S10 Ti0 2.504051 1_545
S10 Ti0 2.504051 1_445
S10 Ti10 2.787923 1_555
S11 Ti10 2.387554 1_555
S11 Ti1 2.504051 1_555
S11 Ti1 2.504051 1_455
S11 Ti11 2.787923 1_555
F0 Ti6 2.107347 1_555
F0 Ti6 2.107347 1_655
F0 Ti4 2.166129 1_545
F1 Ti7 2.107347 1_555
F1 Ti7 2.107347 1_655
F1 Ti5 2.166129 1_556
F2 Ti4 2.107347 1_455
F2 Ti4 2.107347 1_555
F2 Ti6 2.166129 1_565
F3 Ti5 2.107347 1_455
F3 Ti5 2.107347 1_555
F3 Ti7 2.166129 1_554
F4 Ti6 2.142243 1_555
F4 Ti6 2.142243 1_655
F4 Ti9 2.143060 1_555
F5 Ti7 2.142243 1_655
F5 Ti7 2.142243 1_555
F5 Ti8 2.143060 1_555
F6 Ti4 2.142243 1_555
F6 Ti4 2.142243 1_455
F6 Ti11 2.143060 1_555
F7 Ti5 2.142243 1_555
F7 Ti5 2.142243 1_455
F7 Ti10 2.143060 1_555
F8 Ti11 2.079989 1_655
F8 Ti11 2.079989 1_555
F8 Ti4 2.285163 1_555
F9 Ti10 2.079989 1_555
F9 Ti10 2.079989 1_655
F9 Ti5 2.285163 1_555
F10 Ti9 2.079989 1_455
F10 Ti9 2.079989 1_555
F10 Ti6 2.285163 1_555
F11 Ti8 2.079989 1_455
F11 Ti8 2.079989 1_555
F11 Ti7 2.285163 1_555
