# generated using pymatgen
data_YMg14SiO16
_symmetry_space_group_name_H-M   'P 1'
_cell_length_a   4.38115700
_cell_length_b   8.77986600
_cell_length_c   8.78427400
_cell_angle_alpha   90.00000000
_cell_angle_beta   90.00000000
_cell_angle_gamma   90.00000000
_symmetry_Int_Tables_number   1
_chemical_formula_structural   YMg14SiO16
_chemical_formula_sum   'Y1 Mg14 Si1 O16'
_cell_volume   337.89563232
_cell_formula_units_Z   1
loop_
 _symmetry_equiv_pos_site_id
 _symmetry_equiv_pos_as_xyz
  1  'x, y, z'
loop_
 _atom_site_type_symbol
 _atom_site_label
 _atom_site_symmetry_multiplicity
 _atom_site_fract_x
 _atom_site_fract_y
 _atom_site_fract_z
 _atom_site_occupancy
  Y  Y0  1  0.00000000  0.00000000  0.00000000  1
  Mg  Mg0  1  0.00000000  0.00000000  0.50000000  1
  Mg  Mg1  1  0.00000000  0.50000000  0.50000000  1
  Mg  Mg2  1  0.50000000  0.73820300  0.00000000  1
  Mg  Mg3  1  0.50000000  0.26179700  0.00000000  1
  Mg  Mg4  1  0.50000000  0.74709100  0.50000000  1
  Mg  Mg5  1  0.50000000  0.25290900  0.50000000  1
  Mg  Mg6  1  0.50000000  0.00000000  0.73622400  1
  Mg  Mg7  1  0.50000000  0.50000000  0.74401000  1
  Mg  Mg8  1  0.50000000  0.00000000  0.26377600  1
  Mg  Mg9  1  0.50000000  0.50000000  0.25599000  1
  Mg  Mg10  1  0.00000000  0.74288800  0.74064200  1
  Mg  Mg11  1  0.00000000  0.25711200  0.74064200  1
  Mg  Mg12  1  0.00000000  0.74288800  0.25935800  1
  Mg  Mg13  1  0.00000000  0.25711200  0.25935800  1
  Si  Si0  1  0.00000000  0.50000000  0.00000000  1
  O  O0  1  0.00000000  0.00000000  0.74055700  1
  O  O1  1  0.00000000  0.50000000  0.73360300  1
  O  O2  1  0.00000000  0.00000000  0.25944300  1
  O  O3  1  0.00000000  0.50000000  0.26639700  1
  O  O4  1  0.50000000  0.74907700  0.75318300  1
  O  O5  1  0.50000000  0.25092300  0.75318300  1
  O  O6  1  0.50000000  0.74907700  0.24681700  1
  O  O7  1  0.50000000  0.25092300  0.24681700  1
  O  O8  1  0.50000000  0.00000000  0.00000000  1
  O  O9  1  0.50000000  0.50000000  0.00000000  1
  O  O10  1  0.50000000  0.00000000  0.50000000  1
  O  O11  1  0.50000000  0.50000000  0.50000000  1
  O  O12  1  0.00000000  0.74832300  0.00000000  1
  O  O13  1  0.00000000  0.25167700  0.00000000  1
  O  O14  1  0.00000000  0.75146300  0.50000000  1
  O  O15  1  0.00000000  0.24853700  0.50000000  1
loop_
_geom_bond_atom_site_label_1
_geom_bond_atom_site_label_2
_geom_bond_distance
_geom_bond_site_symmetry_2
Mg0 O2 2.113119 1_555
Mg0 O0 2.113119 1_555
Mg0 O15 2.182122 1_555
Mg0 O14 2.182122 1_545
Mg0 O10 2.190578 1_455
Mg0 O10 2.190578 1_555
Mg1 O3 2.052033 1_555
Mg1 O1 2.052033 1_555
Mg1 O11 2.190578 1_455
Mg1 O11 2.190578 1_555
Mg1 O14 2.207811 1_555
Mg1 O15 2.207811 1_555
Mg2 O9 2.091390 1_555
Mg2 O6 2.170209 1_555
Mg2 O4 2.170209 1_554
Mg2 O12 2.192380 1_655
Mg2 O12 2.192380 1_555
Mg2 O8 2.298543 1_565
Mg3 O9 2.091390 1_555
Mg3 O7 2.170209 1_555
Mg3 O5 2.170209 1_554
Mg3 O13 2.192380 1_555
Mg3 O13 2.192380 1_655
Mg3 O8 2.298543 1_555
Mg4 O11 2.169426 1_555
Mg4 O14 2.190915 1_555
Mg4 O14 2.190915 1_655
Mg4 O10 2.220507 1_565
Mg4 O4 2.224097 1_555
Mg4 O6 2.224097 1_555
Mg5 O11 2.169426 1_555
Mg5 O15 2.190915 1_655
Mg5 O15 2.190915 1_555
Mg5 O10 2.220507 1_555
Mg5 O5 2.224097 1_555
Mg5 O7 2.224097 1_555
Mg6 O10 2.075056 1_555
Mg6 O0 2.190909 1_555
Mg6 O0 2.190909 1_655
Mg6 O5 2.208101 1_555
Mg6 O4 2.208101 1_545
Mg6 O8 2.317081 1_556
Mg7 O11 2.143451 1_555
Mg7 O4 2.188347 1_555
Mg7 O5 2.188347 1_555
Mg7 O1 2.192485 1_655
Mg7 O1 2.192485 1_555
Mg7 O9 2.248686 1_556
Mg8 O10 2.075056 1_555
Mg8 O2 2.190909 1_655
Mg8 O2 2.190909 1_555
Mg8 O6 2.208101 1_545
Mg8 O7 2.208101 1_555
Mg8 O8 2.317081 1_555
Mg9 O11 2.143451 1_555
Mg9 O6 2.188347 1_555
Mg9 O7 2.188347 1_555
Mg9 O3 2.192485 1_655
Mg9 O3 2.192485 1_555
Mg9 O9 2.248686 1_555
Mg10 O14 2.115206 1_555
Mg10 O1 2.133420 1_555
Mg10 O4 2.194020 1_555
Mg10 O4 2.194020 1_455
Mg10 O0 2.257409 1_565
Mg10 O12 2.278771 1_556
Mg11 O15 2.115206 1_555
Mg11 O1 2.133420 1_555
Mg11 O5 2.194020 1_455
Mg11 O5 2.194020 1_555
Mg11 O0 2.257409 1_555
Mg11 O13 2.278771 1_556
Mg12 O14 2.115206 1_555
Mg12 O3 2.133420 1_555
Mg12 O6 2.194020 1_455
Mg12 O6 2.194020 1_555
Mg12 O2 2.257409 1_565
Mg12 O12 2.278771 1_555
Mg13 O15 2.115206 1_555
Mg13 O3 2.133420 1_555
Mg13 O7 2.194020 1_555
Mg13 O7 2.194020 1_455
Mg13 O2 2.257409 1_555
Mg13 O13 2.278771 1_555
O0 Y0 2.279018 1_556
O1 Si0 2.340104 1_556
O2 Y0 2.279018 1_555
O3 Si0 2.340104 1_555
O8 Y0 2.190578 1_655
O8 Y0 2.190578 1_555
O9 Si0 2.190578 1_655
O9 Si0 2.190578 1_555
O12 Si0 2.180243 1_555
O12 Y0 2.209690 1_565
O13 Si0 2.180243 1_555
O13 Y0 2.209690 1_555
