# generated using pymatgen
data_RbY(CO3)4
_symmetry_space_group_name_H-M   'P 1'
_cell_length_a   9.30771077
_cell_length_b   9.30771077
_cell_length_c   9.30771077
_cell_angle_alpha   101.99772164
_cell_angle_beta   101.99772164
_cell_angle_gamma   125.75033499
_symmetry_Int_Tables_number   1
_chemical_formula_structural   RbY(CO3)4
_chemical_formula_sum   'Rb2 Y2 C8 O24'
_cell_volume   582.44160615
_cell_formula_units_Z   2
loop_
 _symmetry_equiv_pos_site_id
 _symmetry_equiv_pos_as_xyz
  1  'x, y, z'
loop_
 _atom_site_type_symbol
 _atom_site_label
 _atom_site_symmetry_multiplicity
 _atom_site_fract_x
 _atom_site_fract_y
 _atom_site_fract_z
 _atom_site_occupancy
  Rb  Rb0  1  0.25000000  0.75000000  0.50000000  1
  Rb  Rb1  1  0.00000000  0.00000000  0.00000000  1
  Y  Y0  1  0.75000000  0.25000000  0.50000000  1
  Y  Y1  1  0.50000000  0.50000000  0.00000000  1
  C  C0  1  0.18839700  0.45640200  0.72268700  1
  C  C1  1  0.73371500  0.46571000  0.27731300  1
  C  C2  1  0.70640200  0.48371500  0.76800500  1
  C  C3  1  0.71571000  0.93839700  0.23199500  1
  C  C4  1  0.06160300  0.29359800  0.77731300  1
  C  C5  1  0.51628500  0.28429000  0.22268700  1
  C  C6  1  0.54359800  0.26628500  0.73199500  1
  C  C7  1  0.53429000  0.81160300  0.26800500  1
  O  O0  1  0.09475300  0.46560100  0.61124700  1
  O  O1  1  0.85435400  0.48350600  0.38875300  1
  O  O2  1  0.71560100  0.60435400  0.87084800  1
  O  O3  1  0.73350600  0.84475300  0.12915200  1
  O  O4  1  0.15524700  0.28439900  0.88875300  1
  O  O5  1  0.39564600  0.26649400  0.11124700  1
  O  O6  1  0.53439900  0.14564600  0.62915200  1
  O  O7  1  0.51649400  0.90524700  0.37084800  1
  O  O8  1  0.37026500  0.56226400  0.79405700  1
  O  O9  1  0.76820700  0.57620800  0.20594300  1
  O  O10  1  0.81226400  0.51820700  0.69199900  1
  O  O11  1  0.82620800  0.12026500  0.30800100  1
  O  O12  1  0.87973500  0.18773600  0.70594300  1
  O  O13  1  0.48179300  0.17379200  0.29405700  1
  O  O14  1  0.43773600  0.23179300  0.80800100  1
  O  O15  1  0.42379200  0.62973500  0.19199900  1
  O  O16  1  0.06443400  0.98128800  0.48090100  1
  O  O17  1  0.50038600  0.58353300  0.51909900  1
  O  O18  1  0.23128800  0.25038600  0.41685400  1
  O  O19  1  0.83353300  0.81443400  0.58314600  1
  O  O20  1  0.18556600  0.76871200  0.01909900  1
  O  O21  1  0.74961400  0.16646700  0.98090100  1
  O  O22  1  0.01871200  0.49961400  0.08314600  1
  O  O23  1  0.41646700  0.93556600  0.91685400  1
loop_
_geom_bond_atom_site_label_1
_geom_bond_atom_site_label_2
_geom_bond_distance
_geom_bond_site_symmetry_2
C0 O8 1.260560 1_555
C0 O0 1.261423 1_555
C1 O9 1.260560 1_555
C1 O1 1.261423 1_555
C2 O10 1.260560 1_555
C2 O2 1.261423 1_555
C3 O11 1.260560 1_565
C3 O3 1.261423 1_555
C4 O12 1.260560 1_455
C4 O4 1.261423 1_555
C5 O13 1.260560 1_555
C5 O5 1.261423 1_555
C6 O14 1.260560 1_555
C6 O6 1.261423 1_555
C7 O15 1.260560 1_555
C7 O7 1.261423 1_555
O0 Y0 2.371978 1_455
O0 Rb0 2.731175 1_555
O1 Y0 2.371978 1_555
O1 Rb0 2.731175 1_655
O2 Y1 2.371978 1_556
O2 Rb1 2.731175 1_666
O3 Y1 2.371978 1_555
O3 Rb1 2.731175 1_665
O4 Y1 2.371978 1_556
O4 Rb1 2.731175 1_556
O5 Y1 2.371978 1_555
O5 Rb1 2.731175 1_555
O6 Y0 2.371978 1_555
O6 Rb0 2.731175 1_545
O7 Y0 2.371978 1_565
O7 Rb0 2.731175 1_555
O8 Y1 2.405330 1_556
O9 Y1 2.405330 1_555
O10 Y0 2.405330 1_555
O11 Y0 2.405330 1_555
O12 Y0 2.405330 1_555
O13 Y0 2.405330 1_555
O14 Y1 2.405330 1_556
O15 Y1 2.405330 1_555
O16 Rb0 3.467771 1_555
O17 Rb0 3.467762 1_555
O18 Rb1 3.467770 1_555
O19 Rb1 3.467771 1_666
O20 Rb1 3.467771 1_565
O21 Rb1 3.467762 1_656
O22 Rb0 3.467770 1_555
O23 Rb0 3.467771 1_555
