# generated using pymatgen
data_BaSn2S5
_symmetry_space_group_name_H-M   'P 1'
_cell_length_a   6.70628813
_cell_length_b   10.75741299
_cell_length_c   11.60311401
_cell_angle_alpha   90.00000000
_cell_angle_beta   90.00000000
_cell_angle_gamma   90.00000000
_symmetry_Int_Tables_number   1
_chemical_formula_structural   BaSn2S5
_chemical_formula_sum   'Ba4 Sn8 S20'
_cell_volume   837.07545999
_cell_formula_units_Z   4
loop_
 _symmetry_equiv_pos_site_id
 _symmetry_equiv_pos_as_xyz
  1  'x, y, z'
loop_
 _atom_site_type_symbol
 _atom_site_label
 _atom_site_symmetry_multiplicity
 _atom_site_fract_x
 _atom_site_fract_y
 _atom_site_fract_z
 _atom_site_occupancy
  Ba  Ba0  1  0.25000000  0.25000000  0.80026255  1
  Ba  Ba1  1  0.75000000  0.75000000  0.69973745  1
  Ba  Ba2  1  0.75000000  0.75000000  0.19973745  1
  Ba  Ba3  1  0.25000000  0.25000000  0.30026255  1
  Sn  Sn0  1  0.24653787  0.55922894  0.52673125  1
  Sn  Sn1  1  0.25346213  0.94077106  0.52673125  1
  Sn  Sn2  1  0.74653787  0.44077106  0.97326875  1
  Sn  Sn3  1  0.75346213  0.05922894  0.97326875  1
  Sn  Sn4  1  0.75346213  0.44077106  0.47326875  1
  Sn  Sn5  1  0.74653787  0.05922894  0.47326875  1
  Sn  Sn6  1  0.25346213  0.55922894  0.02673125  1
  Sn  Sn7  1  0.24653787  0.94077106  0.02673125  1
  S  S0  1  0.07079697  0.13369892  0.56424347  1
  S  S1  1  0.42920303  0.36630108  0.56424347  1
  S  S2  1  0.57079697  0.86630108  0.93575653  1
  S  S3  1  0.92920303  0.63369892  0.93575653  1
  S  S4  1  0.92920303  0.86630108  0.43575653  1
  S  S5  1  0.57079697  0.63369892  0.43575653  1
  S  S6  1  0.42920303  0.13369892  0.06424347  1
  S  S7  1  0.07079697  0.36630108  0.06424347  1
  S  S8  1  0.04984699  0.97217453  0.85264698  1
  S  S9  1  0.45015301  0.52782547  0.85264698  1
  S  S10  1  0.54984699  0.02782547  0.64735302  1
  S  S11  1  0.95015301  0.47217453  0.64735302  1
  S  S12  1  0.95015301  0.02782547  0.14735302  1
  S  S13  1  0.54984699  0.47217453  0.14735302  1
  S  S14  1  0.45015301  0.97217453  0.35264698  1
  S  S15  1  0.04984699  0.52782547  0.35264698  1
  S  S16  1  0.75000000  0.25000000  0.84950059  1
  S  S17  1  0.25000000  0.75000000  0.65049941  1
  S  S18  1  0.25000000  0.75000000  0.15049941  1
  S  S19  1  0.75000000  0.25000000  0.34950059  1
loop_
_geom_bond_atom_site_label_1
_geom_bond_atom_site_label_2
_geom_bond_distance
_geom_bond_site_symmetry_2
Ba0 S1 3.241794 1_555
Ba0 S0 3.241794 1_555
Ba0 S9 3.332177 1_555
Ba0 S8 3.332177 1_545
Ba0 S16 3.401467 1_455
Ba0 S16 3.401467 1_555
Ba0 S7 3.520158 1_556
Ba0 S6 3.520158 1_556
Ba0 S11 3.592165 1_455
Ba0 S10 3.592165 1_555
Ba1 S3 3.241794 1_555
Ba1 S2 3.241794 1_555
Ba1 S11 3.332177 1_555
Ba1 S10 3.332177 1_565
Ba1 S17 3.401467 1_655
Ba1 S17 3.401467 1_555
Ba1 S5 3.520158 1_555
Ba1 S4 3.520158 1_555
Ba1 S8 3.592165 1_655
Ba1 S9 3.592165 1_555
Ba2 S5 3.241794 1_555
Ba2 S4 3.241794 1_555
Ba2 S13 3.332177 1_555
Ba2 S12 3.332177 1_565
Ba2 S18 3.401467 1_555
Ba2 S18 3.401467 1_655
Ba2 S3 3.520158 1_554
Ba2 S2 3.520158 1_554
Ba2 S14 3.592165 1_555
Ba2 S15 3.592165 1_655
Ba3 S6 3.241794 1_555
Ba3 S7 3.241794 1_555
Ba3 S15 3.332177 1_555
Ba3 S14 3.332177 1_545
Ba3 S19 3.401467 1_455
Ba3 S19 3.401467 1_555
Ba3 S1 3.520158 1_555
Ba3 S0 3.520158 1_555
Ba3 S13 3.592165 1_555
Ba3 S12 3.592165 1_455
S0 Sn1 2.448957 1_545
S0 Sn5 2.546530 1_455
S1 Sn0 2.448957 1_555
S1 Sn4 2.546530 1_555
S2 Sn3 2.448957 1_565
S2 Sn7 2.546530 1_556
S3 Sn2 2.448957 1_555
S3 Sn6 2.546530 1_656
S4 Sn5 2.448957 1_565
S4 Sn1 2.546530 1_655
S5 Sn4 2.448957 1_555
S5 Sn0 2.546530 1_555
S6 Sn7 2.448957 1_545
S6 Sn3 2.546530 1_554
S7 Sn6 2.448957 1_555
S7 Sn2 2.546530 1_454
S8 Sn7 2.436007 1_556
S8 Sn3 2.605103 1_465
S9 Sn6 2.436007 1_556
S9 Sn2 2.605103 1_555
S10 Sn5 2.436007 1_555
S10 Sn1 2.605103 1_545
S11 Sn4 2.436007 1_555
S11 Sn0 2.605103 1_655
S12 Sn3 2.436007 1_554
S12 Sn7 2.605103 1_645
S13 Sn2 2.436007 1_554
S13 Sn6 2.605103 1_555
S14 Sn1 2.436007 1_555
S14 Sn5 2.605103 1_565
S15 Sn0 2.436007 1_555
S15 Sn4 2.605103 1_455
S16 Sn2 2.504885 1_555
S16 Sn3 2.504885 1_555
S17 Sn0 2.504885 1_555
S17 Sn1 2.504885 1_555
S18 Sn7 2.504885 1_555
S18 Sn6 2.504885 1_555
S19 Sn4 2.504885 1_555
S19 Sn5 2.504885 1_555
