# generated using pymatgen
data_Pr(Ga4Fe)2
_symmetry_space_group_name_H-M   'P 1'
_cell_length_a   4.05563500
_cell_length_b   12.63970700
_cell_length_c   14.30809500
_cell_angle_alpha   90.00000000
_cell_angle_beta   90.00000000
_cell_angle_gamma   90.00000000
_symmetry_Int_Tables_number   1
_chemical_formula_structural   Pr(Ga4Fe)2
_chemical_formula_sum   'Pr4 Ga32 Fe8'
_cell_volume   733.46211101
_cell_formula_units_Z   4
loop_
 _symmetry_equiv_pos_site_id
 _symmetry_equiv_pos_as_xyz
  1  'x, y, z'
loop_
 _atom_site_type_symbol
 _atom_site_label
 _atom_site_symmetry_multiplicity
 _atom_site_fract_x
 _atom_site_fract_y
 _atom_site_fract_z
 _atom_site_occupancy
  Pr  Pr0  1  0.00000000  0.84280800  0.18096000  1
  Pr  Pr1  1  0.00000000  0.15719200  0.81904000  1
  Pr  Pr2  1  0.00000000  0.65719200  0.68096000  1
  Pr  Pr3  1  0.00000000  0.34280800  0.31904000  1
  Ga  Ga0  1  0.00000000  0.50000000  0.50000000  1
  Ga  Ga1  1  0.00000000  0.00000000  0.00000000  1
  Ga  Ga2  1  0.50000000  0.00000000  0.50000000  1
  Ga  Ga3  1  0.50000000  0.50000000  0.00000000  1
  Ga  Ga4  1  0.50000000  0.73871100  0.32639000  1
  Ga  Ga5  1  0.50000000  0.26128900  0.67361000  1
  Ga  Ga6  1  0.50000000  0.76128900  0.82639000  1
  Ga  Ga7  1  0.50000000  0.23871100  0.17361000  1
  Ga  Ga8  1  0.50000000  0.95163500  0.31829200  1
  Ga  Ga9  1  0.50000000  0.04836500  0.68170800  1
  Ga  Ga10  1  0.50000000  0.54836500  0.81829200  1
  Ga  Ga11  1  0.50000000  0.45163500  0.18170800  1
  Ga  Ga12  1  0.50000000  0.66353000  0.12105800  1
  Ga  Ga13  1  0.50000000  0.33647000  0.87894200  1
  Ga  Ga14  1  0.50000000  0.83647000  0.62105800  1
  Ga  Ga15  1  0.50000000  0.16353000  0.37894200  1
  Ga  Ga16  1  0.00000000  0.83599700  0.45392100  1
  Ga  Ga17  1  0.00000000  0.16400300  0.54607900  1
  Ga  Ga18  1  0.00000000  0.66400300  0.95392100  1
  Ga  Ga19  1  0.00000000  0.33599700  0.04607900  1
  Ga  Ga20  1  0.00000000  0.59834000  0.24545400  1
  Ga  Ga21  1  0.00000000  0.40166000  0.75454600  1
  Ga  Ga22  1  0.00000000  0.90166000  0.74545400  1
  Ga  Ga23  1  0.00000000  0.09834000  0.25454600  1
  Ga  Ga24  1  0.50000000  0.83132700  0.00866300  1
  Ga  Ga25  1  0.50000000  0.16867300  0.99133700  1
  Ga  Ga26  1  0.50000000  0.66867300  0.50866300  1
  Ga  Ga27  1  0.50000000  0.33132700  0.49133700  1
  Ga  Ga28  1  0.50000000  0.52506000  0.36609100  1
  Ga  Ga29  1  0.50000000  0.47494000  0.63390900  1
  Ga  Ga30  1  0.50000000  0.97494000  0.86609100  1
  Ga  Ga31  1  0.50000000  0.02506000  0.13390900  1
  Fe  Fe0  1  0.00000000  0.65204800  0.40314200  1
  Fe  Fe1  1  0.00000000  0.34795200  0.59685800  1
  Fe  Fe2  1  0.00000000  0.84795200  0.90314200  1
  Fe  Fe3  1  0.00000000  0.15204800  0.09685800  1
  Fe  Fe4  1  0.00000000  0.53381100  0.09088200  1
  Fe  Fe5  1  0.00000000  0.46618900  0.90911800  1
  Fe  Fe6  1  0.00000000  0.96618900  0.59088200  1
  Fe  Fe7  1  0.00000000  0.03381100  0.40911800  1
loop_
_geom_bond_atom_site_label_1
_geom_bond_atom_site_label_2
_geom_bond_distance
_geom_bond_site_symmetry_2
Ga0 Ga29 2.807733 1_455
Ga0 Ga29 2.807733 1_555
Ga0 Ga28 2.807733 1_455
Ga0 Ga28 2.807733 1_555
Ga0 Ga26 2.944951 1_555
Ga0 Ga26 2.944951 1_455
Ga0 Ga27 2.944951 1_555
Ga0 Ga27 2.944951 1_455
Ga0 Pr3 3.263669 1_555
Ga0 Pr2 3.263669 1_555
Ga1 Ga31 2.807733 1_455
Ga1 Ga31 2.807733 1_555
Ga1 Ga30 2.807733 1_544
Ga1 Ga30 2.807733 1_444
Ga1 Ga25 2.944951 1_554
Ga1 Ga25 2.944951 1_454
Ga1 Ga24 2.944951 1_545
Ga1 Ga24 2.944951 1_445
Ga1 Pr1 3.263669 1_554
Ga1 Pr0 3.263669 1_545
Ga2 Ga9 2.670799 1_555
Ga2 Ga8 2.670799 1_545
Ga4 Ga8 2.693790 1_555
Ga4 Pr0 3.189529 1_555
Ga4 Pr0 3.189529 1_655
Ga5 Ga9 2.693790 1_555
Ga5 Pr1 3.189529 1_655
Ga5 Pr1 3.189529 1_555
Ga6 Pr2 3.189529 1_555
Ga6 Pr2 3.189529 1_655
Ga7 Pr3 3.189529 1_555
Ga7 Pr3 3.189529 1_655
Ga8 Pr0 3.140895 1_555
Ga8 Pr0 3.140895 1_655
Ga9 Pr1 3.140895 1_555
Ga9 Pr1 3.140895 1_655
Ga10 Ga3 2.670799 1_556
Ga10 Ga6 2.693790 1_555
Ga10 Ga29 2.796650 1_555
Ga10 Ga13 2.815367 1_555
Ga10 Ga21 2.895237 1_555
Ga10 Ga21 2.895237 1_655
Ga10 Pr2 3.140895 1_655
Ga10 Pr2 3.140895 1_555
Ga11 Ga3 2.670799 1_555
Ga11 Ga7 2.693790 1_555
Ga11 Ga28 2.796650 1_555
Ga11 Ga12 2.815367 1_555
Ga11 Ga20 2.895237 1_555
Ga11 Ga20 2.895237 1_655
Ga11 Pr3 3.140895 1_655
Ga11 Pr3 3.140895 1_555
Ga12 Ga24 2.661656 1_555
Ga12 Ga3 2.696771 1_555
Ga12 Ga20 2.821157 1_555
Ga12 Ga20 2.821157 1_655
Ga12 Ga4 3.087769 1_555
Ga12 Ga18 3.135432 1_654
Ga12 Ga18 3.135432 1_554
Ga12 Pr0 3.159349 1_655
Ga12 Pr0 3.159349 1_555
Ga13 Ga25 2.661656 1_555
Ga13 Ga3 2.696771 1_556
Ga13 Ga21 2.821157 1_655
Ga13 Ga21 2.821157 1_555
Ga13 Ga5 3.087769 1_555
Ga13 Ga19 3.135432 1_556
Ga13 Ga19 3.135432 1_656
Ga13 Pr1 3.159349 1_555
Ga13 Pr1 3.159349 1_655
Ga14 Ga26 2.661656 1_555
Ga14 Ga2 2.696771 1_565
Ga14 Ga9 2.815367 1_565
Ga14 Ga22 2.821157 1_655
Ga14 Ga22 2.821157 1_555
Ga14 Ga6 3.087769 1_555
Ga14 Ga16 3.135432 1_555
Ga14 Ga16 3.135432 1_655
Ga14 Pr2 3.159349 1_655
Ga14 Pr2 3.159349 1_555
Ga15 Ga27 2.661656 1_555
Ga15 Ga2 2.696771 1_555
Ga15 Ga8 2.815367 1_545
Ga15 Ga23 2.821157 1_555
Ga15 Ga23 2.821157 1_655
Ga15 Ga7 3.087769 1_555
Ga15 Ga17 3.135432 1_555
Ga15 Ga17 3.135432 1_655
Ga15 Pr3 3.159349 1_555
Ga15 Pr3 3.159349 1_655
Ga16 Ga2 2.973860 1_465
Ga16 Ga2 2.973860 1_565
Ga16 Ga4 2.992281 1_455
Ga16 Ga4 2.992281 1_555
Ga16 Ga26 3.032894 1_455
Ga16 Ga26 3.032894 1_555
Ga17 Ga2 2.973860 1_555
Ga17 Ga2 2.973860 1_455
Ga17 Ga5 2.992281 1_555
Ga17 Ga5 2.992281 1_455
Ga17 Ga27 3.032894 1_555
Ga17 Ga27 3.032894 1_455
Ga18 Ga3 2.973860 1_556
Ga18 Ga3 2.973860 1_456
Ga18 Ga6 2.992281 1_555
Ga18 Ga6 2.992281 1_455
Ga18 Ga24 3.032894 1_456
Ga18 Ga24 3.032894 1_556
Ga19 Ga3 2.973860 1_455
Ga19 Ga3 2.973860 1_555
Ga19 Ga7 2.992281 1_455
Ga19 Ga7 2.992281 1_555
Ga19 Ga25 3.032894 1_554
Ga19 Ga25 3.032894 1_454
Ga20 Ga28 2.819456 1_455
Ga20 Ga28 2.819456 1_555
Ga20 Ga4 2.932756 1_455
Ga20 Ga4 2.932756 1_555
Ga20 Pr0 3.224850 1_555
Ga20 Pr3 3.397128 1_555
Ga21 Ga29 2.819456 1_455
Ga21 Ga29 2.819456 1_555
Ga21 Ga5 2.932756 1_555
Ga21 Ga5 2.932756 1_455
Ga21 Pr1 3.224850 1_555
Ga21 Pr2 3.397128 1_555
Ga22 Ga30 2.819456 1_555
Ga22 Ga30 2.819456 1_455
Ga22 Ga9 2.895237 1_565
Ga22 Ga9 2.895237 1_465
Ga22 Ga6 2.932756 1_555
Ga22 Ga6 2.932756 1_455
Ga22 Pr2 3.224850 1_555
Ga22 Pr1 3.397128 1_565
Ga23 Ga31 2.819456 1_555
Ga23 Ga31 2.819456 1_455
Ga23 Ga8 2.895237 1_445
Ga23 Ga8 2.895237 1_545
Ga23 Ga7 2.932756 1_455
Ga23 Ga7 2.932756 1_555
Ga23 Pr3 3.224850 1_555
Ga23 Pr0 3.397128 1_545
Ga24 Ga30 2.730637 1_554
Ga24 Ga6 2.754132 1_554
Ga24 Ga31 3.034411 1_565
Ga24 Pr0 3.195390 1_655
Ga24 Pr0 3.195390 1_555
Ga25 Ga31 2.730637 1_556
Ga25 Ga7 2.754132 1_556
Ga25 Ga30 3.034411 1_545
Ga25 Pr1 3.195390 1_655
Ga25 Pr1 3.195390 1_555
Ga26 Ga28 2.730637 1_555
Ga26 Ga4 2.754132 1_555
Ga26 Ga29 3.034411 1_555
Ga26 Pr2 3.195390 1_655
Ga26 Pr2 3.195390 1_555
Ga27 Ga29 2.730637 1_555
Ga27 Ga5 2.754132 1_555
Ga27 Ga28 3.034411 1_555
Ga27 Pr3 3.195390 1_555
Ga27 Pr3 3.195390 1_655
Ga28 Ga4 2.759583 1_555
Ga28 Pr3 3.141955 1_555
Ga28 Pr3 3.141955 1_655
Ga29 Ga5 2.759583 1_555
Ga29 Pr2 3.141955 1_655
Ga29 Pr2 3.141955 1_555
Ga30 Ga6 2.759583 1_555
Ga30 Ga9 2.796650 1_565
Ga30 Pr1 3.141955 1_665
Ga30 Pr1 3.141955 1_565
Ga31 Ga7 2.759583 1_555
Ga31 Ga8 2.796650 1_545
Ga31 Pr0 3.141955 1_545
Ga31 Pr0 3.141955 1_645
Fe0 Ga20 2.356130 1_555
Fe0 Ga0 2.369402 1_555
Fe0 Ga16 2.435937 1_555
Fe0 Ga26 2.536870 1_555
Fe0 Ga26 2.536870 1_455
Fe0 Ga4 2.553022 1_455
Fe0 Ga4 2.553022 1_555
Fe0 Ga28 2.639962 1_455
Fe0 Ga28 2.639962 1_555
Fe1 Ga21 2.356130 1_555
Fe1 Ga0 2.369402 1_555
Fe1 Ga17 2.435937 1_555
Fe1 Ga27 2.536870 1_555
Fe1 Ga27 2.536870 1_455
Fe1 Ga5 2.553022 1_555
Fe1 Ga5 2.553022 1_455
Fe1 Ga29 2.639962 1_555
Fe1 Ga29 2.639962 1_455
Fe2 Ga22 2.356130 1_555
Fe2 Ga1 2.369402 1_566
Fe2 Ga18 2.435937 1_555
Fe2 Ga24 2.536870 1_556
Fe2 Ga24 2.536870 1_456
Fe2 Ga6 2.553022 1_455
Fe2 Ga6 2.553022 1_555
Fe2 Ga30 2.639962 1_555
Fe2 Ga30 2.639962 1_455
Fe3 Ga23 2.356130 1_555
Fe3 Ga1 2.369402 1_555
Fe3 Ga19 2.435937 1_555
Fe3 Ga25 2.536870 1_454
Fe3 Ga25 2.536870 1_554
Fe3 Ga7 2.553022 1_555
Fe3 Ga7 2.553022 1_455
Fe3 Ga31 2.639962 1_555
Fe3 Ga31 2.639962 1_455
Fe4 Ga20 2.357236 1_555
Fe4 Ga3 2.446546 1_455
Fe4 Ga3 2.446546 1_555
Fe4 Ga18 2.558944 1_554
Fe4 Ga19 2.581181 1_555
Fe4 Ga11 2.622923 1_455
Fe4 Ga11 2.622923 1_555
Fe4 Ga12 2.643252 1_555
Fe4 Ga12 2.643252 1_455
Fe4 Fe5 2.737549 1_554
Fe5 Ga21 2.357236 1_555
Fe5 Ga3 2.446546 1_556
Fe5 Ga3 2.446546 1_456
Fe5 Ga19 2.558944 1_556
Fe5 Ga18 2.581181 1_555
Fe5 Ga10 2.622923 1_455
Fe5 Ga10 2.622923 1_555
Fe5 Ga13 2.643252 1_555
Fe5 Ga13 2.643252 1_455
Fe6 Ga22 2.357236 1_555
Fe6 Ga2 2.446546 1_465
Fe6 Ga2 2.446546 1_565
Fe6 Ga16 2.558944 1_555
Fe6 Ga17 2.581181 1_565
Fe6 Ga9 2.622923 1_565
Fe6 Ga9 2.622923 1_465
Fe6 Ga14 2.643252 1_455
Fe6 Ga14 2.643252 1_555
Fe6 Fe7 2.737549 1_565
Fe7 Ga23 2.357236 1_555
Fe7 Ga2 2.446546 1_455
Fe7 Ga2 2.446546 1_555
Fe7 Ga17 2.558944 1_555
Fe7 Ga16 2.581181 1_545
Fe7 Ga8 2.622923 1_445
Fe7 Ga8 2.622923 1_545
Fe7 Ga15 2.643252 1_555
Fe7 Ga15 2.643252 1_455
