# generated using pymatgen
data_CeNiAs
_symmetry_space_group_name_H-M   'P 1'
_cell_length_a   4.09521860
_cell_length_b   4.09521860
_cell_length_c   4.01509154
_cell_angle_alpha   90.00000000
_cell_angle_beta   90.00000000
_cell_angle_gamma   120.00002191
_symmetry_Int_Tables_number   1
_chemical_formula_structural   CeNiAs
_chemical_formula_sum   'Ce1 Ni1 As1'
_cell_volume   58.31498448
_cell_formula_units_Z   1
loop_
 _symmetry_equiv_pos_site_id
 _symmetry_equiv_pos_as_xyz
  1  'x, y, z'
loop_
 _atom_site_type_symbol
 _atom_site_label
 _atom_site_symmetry_multiplicity
 _atom_site_fract_x
 _atom_site_fract_y
 _atom_site_fract_z
 _atom_site_occupancy
  Ce  Ce0  1  0.66666700  0.33333300  -0.00000000  1
  Ni  Ni0  1  0.33333300  0.66666700  0.50000000  1
  As  As0  1  -0.00000000  0.00000000  0.50000000  1
loop_
_geom_bond_atom_site_label_1
_geom_bond_atom_site_label_2
_geom_bond_distance
_geom_bond_site_symmetry_2
Ce0 Ni0 3.101693 1_545
Ce0 Ni0 3.101693 1_544
Ce0 Ni0 3.101693 1_654
Ce0 Ni0 3.101693 1_655
Ce0 Ni0 3.101699 1_555
Ce0 Ni0 3.101699 1_554
As0 Ni0 2.364373 1_545
As0 Ni0 2.364376 1_445
As0 Ni0 2.364376 1_555
As0 Ce0 3.101693 1_456
As0 Ce0 3.101693 1_455
As0 Ce0 3.101695 1_445
As0 Ce0 3.101695 1_556
As0 Ce0 3.101695 1_446
As0 Ce0 3.101695 1_555
