# generated using pymatgen
data_Na2CoO3
_symmetry_space_group_name_H-M   'P 1'
_cell_length_a   6.31403500
_cell_length_b   6.25130260
_cell_length_c   5.18793800
_cell_angle_alpha   90.00030945
_cell_angle_beta   90.00041855
_cell_angle_gamma   59.66681108
_symmetry_Int_Tables_number   1
_chemical_formula_structural   Na2CoO3
_chemical_formula_sum   'Na4 Co2 O6'
_cell_volume   176.74005606
_cell_formula_units_Z   2
loop_
 _symmetry_equiv_pos_site_id
 _symmetry_equiv_pos_as_xyz
  1  'x, y, z'
loop_
 _atom_site_type_symbol
 _atom_site_label
 _atom_site_symmetry_multiplicity
 _atom_site_fract_x
 _atom_site_fract_y
 _atom_site_fract_z
 _atom_site_occupancy
  Na  Na0  1  0.83032100  0.67462900  0.52038600  1
  Na  Na1  1  0.49505300  0.67462800  0.02038000  1
  Na  Na2  1  0.50494900  0.32537000  0.52038100  1
  Na  Na3  1  0.16968000  0.32537200  0.02037900  1
  Co  Co0  1  0.84124500  0.00000000  0.04851600  1
  Co  Co1  1  0.15875200  0.00000100  0.54851800  1
  O  O0  1  0.83458800  0.72678400  0.98116300  1
  O  O1  1  0.43863100  0.72678200  0.48116400  1
  O  O2  1  0.56136900  0.27321600  0.98115800  1
  O  O3  1  0.16541100  0.27321800  0.48116400  1
  O  O4  1  0.88860300  0.99999900  0.40639500  1
  O  O5  1  0.11139800  0.00000100  0.90639400  1
loop_
_geom_bond_atom_site_label_1
_geom_bond_atom_site_label_2
_geom_bond_distance
_geom_bond_site_symmetry_2
Na0 O4 2.319113 1_555
Na0 O1 2.334464 1_555
Na0 O3 2.334975 1_655
Na0 O0 2.414600 1_555
Na0 O0 2.818096 1_554
Na1 O5 2.319095 1_564
Na1 O0 2.334470 1_554
Na1 O2 2.335010 1_554
Na1 O1 2.414638 1_555
Na1 O1 2.818057 1_554
Na2 O4 2.319090 1_545
Na2 O3 2.334470 1_555
Na2 O1 2.335005 1_555
Na2 O2 2.414600 1_555
Na2 O2 2.818093 1_554
Na3 O5 2.319105 1_554
Na3 O2 2.334452 1_554
Na3 O0 2.334980 1_454
Na3 O3 2.414646 1_555
Na3 O3 2.818051 1_554
Co0 O2 1.764504 1_554
Co0 O0 1.764506 1_544
Co0 O5 1.858298 1_654
Co0 O4 1.880576 1_545
Co1 O1 1.764520 1_545
Co1 O3 1.764523 1_555
Co1 O4 1.858270 1_445
Co1 O5 1.880562 1_555
