# generated using pymatgen
data_Li4Zn(PS4)2
_symmetry_space_group_name_H-M   'P 1'
_cell_length_a   6.14038100
_cell_length_b   8.09198988
_cell_length_c   19.09873335
_cell_angle_alpha   90.12813579
_cell_angle_beta   90.12901116
_cell_angle_gamma   90.10222203
_symmetry_Int_Tables_number   1
_chemical_formula_structural   Li4Zn(PS4)2
_chemical_formula_sum   'Li12 Zn3 P6 S24'
_cell_volume   948.96967232
_cell_formula_units_Z   3
loop_
 _symmetry_equiv_pos_site_id
 _symmetry_equiv_pos_as_xyz
  1  'x, y, z'
loop_
 _atom_site_type_symbol
 _atom_site_label
 _atom_site_symmetry_multiplicity
 _atom_site_fract_x
 _atom_site_fract_y
 _atom_site_fract_z
 _atom_site_occupancy
  Li  Li0  1  0.99177200  0.75631700  0.10612200  1
  Li  Li1  1  0.99856700  0.75860700  0.76444900  1
  Li  Li2  1  0.49022100  0.75590700  0.56606600  1
  Li  Li3  1  0.49701400  0.74585800  0.89385700  1
  Li  Li4  1  0.99916400  0.24953800  0.11089600  1
  Li  Li5  1  0.99935200  0.25129800  0.42803200  1
  Li  Li6  1  0.49652100  0.25699100  0.24251200  1
  Li  Li7  1  0.50000100  0.24338400  0.55796400  1
  Li  Li8  1  0.48968400  0.25598900  0.89429500  1
  Li  Li9  1  0.48810500  0.00839300  0.05505200  1
  Li  Li10  1  0.99083100  0.49218100  0.61238100  1
  Li  Li11  1  0.99085200  0.50598800  0.94776900  1
  Zn  Zn0  1  0.00244400  0.76114800  0.43523500  1
  Zn  Zn1  1  0.50183100  0.74117000  0.23672500  1
  Zn  Zn2  1  0.99856200  0.23004500  0.76444100  1
  P  P0  1  0.99012200  0.98672300  0.27222900  1
  P  P1  1  0.01218700  0.00910500  0.60439600  1
  P  P2  1  0.00418700  0.99791500  0.93847200  1
  P  P3  1  0.50427600  0.49810700  0.06291600  1
  P  P4  1  0.49147000  0.51582800  0.39698500  1
  P  P5  1  0.48502900  0.48972600  0.72609600  1
  S  S0  1  0.88379600  0.76721200  0.22817200  1
  S  S1  1  0.89205300  0.79117900  0.55735100  1
  S  S2  1  0.89300400  0.78884900  0.88922400  1
  S  S3  1  0.39362600  0.71321000  0.11218400  1
  S  S4  1  0.38603100  0.73376100  0.44216200  1
  S  S5  1  0.38876700  0.70069700  0.77294200  1
  S  S6  1  0.88250500  0.20027600  0.22961900  1
  S  S7  1  0.89763500  0.21497900  0.55359300  1
  S  S8  1  0.89223800  0.21135300  0.88731200  1
  S  S9  1  0.39544000  0.29106800  0.11337200  1
  S  S10  1  0.38905100  0.29905300  0.43758400  1
  S  S11  1  0.38293700  0.27046100  0.77093900  1
  S  S12  1  0.32701100  0.99051000  0.26110400  1
  S  S13  1  0.33866100  0.00508100  0.61077400  1
  S  S14  1  0.33862900  0.00020200  0.93611200  1
  S  S15  1  0.83919000  0.49981800  0.06455500  1
  S  S16  1  0.82940100  0.51541900  0.40192700  1
  S  S17  1  0.83092500  0.48661500  0.73451200  1
  S  S18  1  0.89384700  0.00712700  0.03975800  1
  S  S19  1  0.88217200  0.99351800  0.37459300  1
  S  S20  1  0.86590900  0.00185800  0.70314700  1
  S  S21  1  0.37282100  0.51145400  0.29499300  1
  S  S22  1  0.39811600  0.49306700  0.62252800  1
  S  S23  1  0.39357500  0.50301600  0.96086800  1
loop_
_geom_bond_atom_site_label_1
_geom_bond_atom_site_label_2
_geom_bond_distance
_geom_bond_site_symmetry_2
Li0 S15 2.407997 1_555
Li0 S0 2.426350 1_555
Li0 S18 2.469725 1_565
Li0 S3 2.495152 1_655
Li1 S20 2.433218 1_565
Li1 S5 2.447285 1_655
Li1 S2 2.482712 1_555
Li1 S17 2.492868 1_555
Li2 S13 2.379761 1_565
Li2 S22 2.452573 1_555
Li2 S4 2.456051 1_555
Li2 S1 2.489335 1_555
Li3 S14 2.415853 1_565
Li3 S5 2.428326 1_555
Li3 S23 2.431738 1_555
Li3 S2 2.457494 1_555
Li4 S6 2.413243 1_555
Li4 S15 2.420977 1_555
Li4 S9 2.456124 1_655
Li4 S18 2.468105 1_555
Li5 S19 2.427426 1_545
Li5 S10 2.429610 1_655
Li5 S16 2.432258 1_555
Li5 S7 2.497276 1_555
Li6 S21 2.412738 1_555
Li6 S12 2.420009 1_545
Li6 S6 2.427876 1_555
Li6 S9 2.557580 1_555
Li7 S13 2.392414 1_555
Li7 S10 2.439595 1_555
Li7 S22 2.447630 1_555
Li7 S7 2.454417 1_555
Li8 S14 2.405457 1_555
Li8 S23 2.440669 1_555
Li8 S11 2.447115 1_555
Li8 S8 2.502533 1_555
Li9 S14 2.448821 1_554
Li9 S18 2.509164 1_555
Li9 S9 2.606283 1_555
Li9 S3 2.691138 1_545
Li10 S22 2.507944 1_655
Li10 S17 2.533284 1_555
Li10 S7 2.569229 1_555
Li10 S1 2.709273 1_555
Li11 S15 2.419587 1_556
Li11 S23 2.485099 1_655
Li11 S2 2.619856 1_555
Li11 S8 2.713596 1_555
P0 S6 2.023141 1_565
P0 S19 2.066397 1_555
P0 S0 2.067883 1_555
P0 S12 2.080164 1_655
P1 S13 2.008425 1_555
P1 S7 2.054228 1_455
P1 S20 2.091700 1_455
P1 S1 2.108677 1_445
P2 S2 2.049070 1_455
P2 S18 2.052334 1_466
P2 S14 2.054249 1_565
P2 S8 2.102143 1_465
P3 S9 2.046504 1_555
P3 S15 2.056689 1_555
P3 S23 2.063168 1_554
P3 S3 2.092016 1_555
P4 S10 2.019428 1_555
P4 S4 2.067219 1_555
P4 S16 2.076967 1_555
P4 S21 2.078372 1_555
P5 S5 2.015804 1_555
P5 S22 2.047837 1_555
P5 S11 2.068775 1_555
P5 S17 2.129843 1_555
S0 Zn1 2.360542 1_555
S1 Zn0 2.441954 1_655
S3 Zn1 2.477944 1_555
S4 Zn0 2.369594 1_555
S8 Zn2 2.442163 1_555
S11 Zn2 2.385098 1_455
S12 Zn1 2.333629 1_555
S16 Zn0 2.339087 1_655
S17 Zn2 2.388941 1_555
S19 Zn0 2.330945 1_655
S20 Zn2 2.328960 1_555
S21 Zn1 2.308524 1_555
