# generated using pymatgen
data_Yb3Si11Pt23
_symmetry_space_group_name_H-M   'P 1'
_cell_length_a   12.02963856
_cell_length_b   12.02963856
_cell_length_c   12.02963856
_cell_angle_alpha   60.00000000
_cell_angle_beta   60.00000000
_cell_angle_gamma   60.00000000
_symmetry_Int_Tables_number   1
_chemical_formula_structural   Yb3Si11Pt23
_chemical_formula_sum   'Yb6 Si22 Pt46'
_cell_volume   1230.95659217
_cell_formula_units_Z   2
loop_
 _symmetry_equiv_pos_site_id
 _symmetry_equiv_pos_as_xyz
  1  'x, y, z'
loop_
 _atom_site_type_symbol
 _atom_site_label
 _atom_site_symmetry_multiplicity
 _atom_site_fract_x
 _atom_site_fract_y
 _atom_site_fract_z
 _atom_site_occupancy
  Yb  Yb0  1  0.00000000  0.00000000  0.50000000  1
  Yb  Yb1  1  0.50000000  0.00000000  0.50000000  1
  Yb  Yb2  1  0.00000000  0.50000000  0.50000000  1
  Yb  Yb3  1  0.50000000  0.50000000  0.00000000  1
  Yb  Yb4  1  0.00000000  0.50000000  0.00000000  1
  Yb  Yb5  1  0.50000000  0.00000000  0.00000000  1
  Si  Si0  1  0.82818800  0.82818800  0.17181200  1
  Si  Si1  1  0.17181200  0.82818800  0.17181200  1
  Si  Si2  1  0.82818800  0.17181200  0.17181200  1
  Si  Si3  1  0.17181200  0.17181200  0.82818800  1
  Si  Si4  1  0.82818800  0.17181200  0.82818800  1
  Si  Si5  1  0.17181200  0.82818800  0.82818800  1
  Si  Si6  1  0.83527800  0.83527800  0.49416600  1
  Si  Si7  1  0.83527800  0.49416600  0.83527800  1
  Si  Si8  1  0.49416600  0.83527800  0.83527800  1
  Si  Si9  1  0.83527800  0.83527800  0.83527800  1
  Si  Si10  1  0.16472200  0.16472200  0.50583400  1
  Si  Si11  1  0.16472200  0.50583400  0.16472200  1
  Si  Si12  1  0.50583400  0.16472200  0.16472200  1
  Si  Si13  1  0.16472200  0.16472200  0.16472200  1
  Si  Si14  1  0.60682600  0.60682600  0.17952100  1
  Si  Si15  1  0.60682600  0.17952100  0.60682600  1
  Si  Si16  1  0.17952100  0.60682600  0.60682600  1
  Si  Si17  1  0.60682600  0.60682600  0.60682600  1
  Si  Si18  1  0.39317400  0.39317400  0.82047900  1
  Si  Si19  1  0.39317400  0.82047900  0.39317400  1
  Si  Si20  1  0.82047900  0.39317400  0.39317400  1
  Si  Si21  1  0.39317400  0.39317400  0.39317400  1
  Pt  Pt0  1  0.91722800  0.91722800  0.24831600  1
  Pt  Pt1  1  0.91722800  0.24831600  0.91722800  1
  Pt  Pt2  1  0.24831600  0.91722800  0.91722800  1
  Pt  Pt3  1  0.91722800  0.91722800  0.91722800  1
  Pt  Pt4  1  0.08277200  0.08277200  0.75168400  1
  Pt  Pt5  1  0.08277200  0.75168400  0.08277200  1
  Pt  Pt6  1  0.75168400  0.08277200  0.08277200  1
  Pt  Pt7  1  0.08277200  0.08277200  0.08277200  1
  Pt  Pt8  1  0.69237600  0.69237600  0.92287300  1
  Pt  Pt9  1  0.69237600  0.92287300  0.69237600  1
  Pt  Pt10  1  0.92287300  0.69237600  0.69237600  1
  Pt  Pt11  1  0.69237600  0.69237600  0.69237600  1
  Pt  Pt12  1  0.30762400  0.30762400  0.07712700  1
  Pt  Pt13  1  0.30762400  0.07712700  0.30762400  1
  Pt  Pt14  1  0.07712700  0.30762400  0.30762400  1
  Pt  Pt15  1  0.30762400  0.30762400  0.30762400  1
  Pt  Pt16  1  0.62451500  0.62451500  0.37548500  1
  Pt  Pt17  1  0.37548500  0.62451500  0.37548500  1
  Pt  Pt18  1  0.62451500  0.37548500  0.37548500  1
  Pt  Pt19  1  0.37548500  0.37548500  0.62451500  1
  Pt  Pt20  1  0.62451500  0.37548500  0.62451500  1
  Pt  Pt21  1  0.37548500  0.62451500  0.62451500  1
  Pt  Pt22  1  0.74722400  0.08282700  0.42272500  1
  Pt  Pt23  1  0.74722400  0.74722400  0.42272500  1
  Pt  Pt24  1  0.08282700  0.74722400  0.42272500  1
  Pt  Pt25  1  0.74722400  0.42272500  0.08282700  1
  Pt  Pt26  1  0.08282700  0.42272500  0.74722400  1
  Pt  Pt27  1  0.74722400  0.42272500  0.74722400  1
  Pt  Pt28  1  0.42272500  0.74722400  0.74722400  1
  Pt  Pt29  1  0.42272500  0.08282700  0.74722400  1
  Pt  Pt30  1  0.42272500  0.74722400  0.08282700  1
  Pt  Pt31  1  0.08282700  0.74722400  0.74722400  1
  Pt  Pt32  1  0.74722400  0.74722400  0.08282700  1
  Pt  Pt33  1  0.74722400  0.08282700  0.74722400  1
  Pt  Pt34  1  0.25277600  0.91717300  0.57727500  1
  Pt  Pt35  1  0.25277600  0.25277600  0.57727500  1
  Pt  Pt36  1  0.91717300  0.25277600  0.57727500  1
  Pt  Pt37  1  0.25277600  0.57727500  0.91717300  1
  Pt  Pt38  1  0.91717300  0.57727500  0.25277600  1
  Pt  Pt39  1  0.25277600  0.57727500  0.25277600  1
  Pt  Pt40  1  0.57727500  0.25277600  0.25277600  1
  Pt  Pt41  1  0.57727500  0.91717300  0.25277600  1
  Pt  Pt42  1  0.57727500  0.25277600  0.91717300  1
  Pt  Pt43  1  0.91717300  0.25277600  0.25277600  1
  Pt  Pt44  1  0.25277600  0.25277600  0.91717300  1
  Pt  Pt45  1  0.25277600  0.91717300  0.25277600  1
loop_
_geom_bond_atom_site_label_1
_geom_bond_atom_site_label_2
_geom_bond_distance
_geom_bond_site_symmetry_2
Pt0 Si6 2.414778 1_555
Pt0 Si0 2.502080 1_555
Pt0 Si1 2.502080 1_655
Pt0 Si2 2.502080 1_565
Pt1 Si7 2.414778 1_555
Pt1 Si4 2.502080 1_555
Pt1 Si2 2.502080 1_556
Pt1 Si3 2.502080 1_655
Pt2 Si8 2.414778 1_555
Pt2 Si1 2.502080 1_556
Pt2 Si3 2.502080 1_565
Pt2 Si5 2.502080 1_555
Pt3 Si9 2.414778 1_555
Pt3 Si4 2.502080 1_565
Pt3 Si0 2.502080 1_556
Pt3 Si5 2.502080 1_655
Pt4 Si10 2.414778 1_555
Pt4 Si5 2.502080 1_545
Pt4 Si4 2.502080 1_455
Pt4 Si3 2.502080 1_555
Pt5 Si11 2.414778 1_555
Pt5 Si0 2.502080 1_455
Pt5 Si5 2.502080 1_554
Pt5 Si1 2.502080 1_555
Pt6 Si12 2.414778 1_555
Pt6 Si0 2.502080 1_545
Pt6 Si4 2.502080 1_554
Pt6 Si2 2.502080 1_555
Pt7 Si13 2.414778 1_555
Pt7 Si3 2.502080 1_554
Pt7 Si2 2.502080 1_455
Pt7 Si1 2.502080 1_545
Pt8 Si9 2.520513 1_555
Pt8 Si8 2.520523 1_555
Pt8 Si7 2.520523 1_555
Pt8 Si14 2.520837 1_556
Pt9 Si9 2.520513 1_555
Pt9 Si6 2.520523 1_555
Pt9 Si8 2.520523 1_555
Pt9 Si15 2.520837 1_565
Pt10 Si9 2.520513 1_555
Pt10 Si6 2.520523 1_555
Pt10 Si7 2.520523 1_555
Pt10 Si16 2.520837 1_655
Pt11 Si6 2.520516 1_555
Pt11 Si8 2.520516 1_555
Pt11 Si7 2.520516 1_555
Pt11 Si17 2.520857 1_555
Pt12 Si13 2.520513 1_555
Pt12 Si12 2.520523 1_555
Pt12 Si11 2.520523 1_555
Pt12 Si18 2.520837 1_554
Pt13 Si13 2.520513 1_555
Pt13 Si10 2.520523 1_555
Pt13 Si12 2.520523 1_555
Pt13 Si19 2.520837 1_545
Pt14 Si13 2.520513 1_555
Pt14 Si10 2.520523 1_555
Pt14 Si11 2.520523 1_555
Pt14 Si20 2.520837 1_455
Pt15 Si11 2.520516 1_555
Pt15 Si10 2.520516 1_555
Pt15 Si12 2.520516 1_555
Pt15 Si21 2.520857 1_555
Pt16 Si17 2.587714 1_555
Pt16 Si19 2.587719 1_555
Pt16 Si20 2.587719 1_555
Pt16 Si14 2.587726 1_555
Pt17 Si21 2.587714 1_555
Pt17 Si14 2.587719 1_555
Pt17 Si16 2.587719 1_555
Pt17 Si19 2.587726 1_555
Pt18 Si21 2.587714 1_555
Pt18 Si15 2.587719 1_555
Pt18 Si14 2.587719 1_555
Pt18 Si20 2.587726 1_555
Pt19 Si21 2.587714 1_555
Pt19 Si15 2.587719 1_555
Pt19 Si16 2.587719 1_555
Pt19 Si18 2.587726 1_555
Pt20 Si17 2.587714 1_555
Pt20 Si18 2.587719 1_555
Pt20 Si20 2.587719 1_555
Pt20 Si15 2.587726 1_555
Pt21 Si17 2.587714 1_555
Pt21 Si18 2.587719 1_555
Pt21 Si19 2.587719 1_555
Pt21 Si16 2.587726 1_555
Pt22 Si6 2.434202 1_545
Pt22 Si15 2.445685 1_555
Pt22 Si2 2.465137 1_555
Pt22 Yb0 3.158177 1_655
Pt22 Yb1 3.158177 1_555
Pt23 Si6 2.434202 1_555
Pt23 Si17 2.445692 1_555
Pt23 Si0 2.465137 1_555
Pt23 Yb1 3.158177 1_565
Pt23 Yb2 3.158177 1_655
Pt24 Si6 2.434202 1_455
Pt24 Si16 2.445685 1_555
Pt24 Si1 2.465137 1_555
Pt24 Yb0 3.158177 1_565
Pt24 Yb2 3.158177 1_555
Pt25 Si7 2.434202 1_554
Pt25 Si14 2.445685 1_555
Pt25 Si2 2.465137 1_555
Pt25 Yb4 3.158177 1_655
Pt25 Yb3 3.158177 1_555
Pt26 Si7 2.434202 1_455
Pt26 Si16 2.445685 1_555
Pt26 Si3 2.465137 1_555
Pt26 Yb4 3.158177 1_556
Pt26 Yb2 3.158177 1_555
Pt27 Si7 2.434202 1_555
Pt27 Si17 2.445692 1_555
Pt27 Si4 2.465137 1_555
Pt27 Yb2 3.158177 1_655
Pt27 Yb3 3.158177 1_556
Pt28 Si8 2.434202 1_555
Pt28 Si17 2.445692 1_555
Pt28 Si5 2.465137 1_555
Pt28 Yb3 3.158177 1_556
Pt28 Yb1 3.158177 1_565
Pt29 Si8 2.434202 1_545
Pt29 Si15 2.445685 1_555
Pt29 Si3 2.465137 1_555
Pt29 Yb5 3.158177 1_556
Pt29 Yb1 3.158177 1_555
Pt30 Si8 2.434202 1_554
Pt30 Si14 2.445685 1_555
Pt30 Si1 2.465137 1_555
Pt30 Yb5 3.158177 1_565
Pt30 Yb3 3.158177 1_555
Pt31 Si9 2.434202 1_455
Pt31 Si16 2.445695 1_555
Pt31 Si5 2.465137 1_555
Pt31 Yb4 3.158177 1_556
Pt31 Yb0 3.158177 1_565
Pt32 Si9 2.434202 1_554
Pt32 Si14 2.445695 1_555
Pt32 Si0 2.465137 1_555
Pt32 Yb4 3.158177 1_655
Pt32 Yb5 3.158177 1_565
Pt33 Si9 2.434202 1_545
Pt33 Si15 2.445695 1_555
Pt33 Si4 2.465137 1_555
Pt33 Yb0 3.158177 1_655
Pt33 Yb5 3.158177 1_556
Pt34 Si10 2.434202 1_565
Pt34 Si19 2.445685 1_555
Pt34 Si5 2.465137 1_555
Pt34 Yb0 3.158177 1_565
Pt34 Yb1 3.158177 1_565
Pt35 Si10 2.434202 1_555
Pt35 Si21 2.445692 1_555
Pt35 Si3 2.465137 1_555
Pt35 Yb1 3.158177 1_555
Pt35 Yb2 3.158177 1_555
Pt36 Si10 2.434202 1_655
Pt36 Si20 2.445685 1_555
Pt36 Si4 2.465137 1_555
Pt36 Yb0 3.158177 1_655
Pt36 Yb2 3.158177 1_655
Pt37 Si11 2.434202 1_556
Pt37 Si18 2.445685 1_555
Pt37 Si5 2.465137 1_555
Pt37 Yb4 3.158177 1_556
Pt37 Yb3 3.158177 1_556
Pt38 Si11 2.434202 1_655
Pt38 Si20 2.445685 1_555
Pt38 Si0 2.465137 1_555
Pt38 Yb4 3.158177 1_655
Pt38 Yb2 3.158177 1_655
Pt39 Si11 2.434202 1_555
Pt39 Si21 2.445692 1_555
Pt39 Si1 2.465137 1_555
Pt39 Yb2 3.158177 1_555
Pt39 Yb3 3.158177 1_555
Pt40 Si12 2.434202 1_555
Pt40 Si21 2.445692 1_555
Pt40 Si2 2.465137 1_555
Pt40 Yb3 3.158177 1_555
Pt40 Yb1 3.158177 1_555
Pt41 Si12 2.434202 1_565
Pt41 Si19 2.445685 1_555
Pt41 Si0 2.465137 1_555
Pt41 Yb5 3.158177 1_565
Pt41 Yb1 3.158177 1_565
Pt42 Si12 2.434202 1_556
Pt42 Si18 2.445685 1_555
Pt42 Si4 2.465137 1_555
Pt42 Yb5 3.158177 1_556
Pt42 Yb3 3.158177 1_556
Pt43 Si13 2.434202 1_655
Pt43 Si20 2.445695 1_555
Pt43 Si2 2.465137 1_555
Pt43 Yb0 3.158177 1_655
Pt43 Yb4 3.158177 1_655
Pt44 Si13 2.434202 1_556
Pt44 Si18 2.445695 1_555
Pt44 Si3 2.465137 1_555
Pt44 Yb4 3.158177 1_556
Pt44 Yb5 3.158177 1_556
Pt45 Si13 2.434202 1_565
Pt45 Si19 2.445695 1_555
Pt45 Si1 2.465137 1_555
Pt45 Yb0 3.158177 1_565
Pt45 Yb5 3.158177 1_565
