# generated using pymatgen
data_Na3V(H14O11)2
_symmetry_space_group_name_H-M   'P 1'
_cell_length_a   7.68818180
_cell_length_b   8.82813126
_cell_length_c   9.25871468
_cell_angle_alpha   117.40484451
_cell_angle_beta   99.84628271
_cell_angle_gamma   68.72346981
_symmetry_Int_Tables_number   1
_chemical_formula_structural   Na3V(H14O11)2
_chemical_formula_sum   'Na3 V1 H28 O22'
_cell_volume   519.85597620
_cell_formula_units_Z   1
loop_
 _symmetry_equiv_pos_site_id
 _symmetry_equiv_pos_as_xyz
  1  'x, y, z'
loop_
 _atom_site_type_symbol
 _atom_site_label
 _atom_site_symmetry_multiplicity
 _atom_site_fract_x
 _atom_site_fract_y
 _atom_site_fract_z
 _atom_site_occupancy
  Na  Na0  1  0.35776100  0.22285700  0.62229100  1
  Na  Na1  1  0.64136400  0.77760200  0.37854500  1
  Na  Na2  1  0.49995300  0.50290200  0.50286900  1
  V  V0  1  0.99678400  0.00453300  0.00259200  1
  H  H0  1  0.48997000  0.85456100  0.07956900  1
  H  H1  1  0.51133900  0.13636700  0.91928000  1
  H  H2  1  0.26022900  0.87318400  0.46275700  1
  H  H3  1  0.74190400  0.12838600  0.54308400  1
  H  H4  1  0.74955500  0.57612600  0.00019300  1
  H  H5  1  0.24004900  0.43029300  0.99492400  1
  H  H6  1  0.36410400  0.61680600  0.82502000  1
  H  H7  1  0.63456800  0.38564600  0.17811900  1
  H  H8  1  0.18644900  0.64583300  0.07805600  1
  H  H9  1  0.85765300  0.36752000  0.94956300  1
  H  H10  1  0.24760700  0.93517300  0.32501900  1
  H  H11  1  0.77870500  0.02214300  0.65048300  1
  H  H12  1  0.72967800  0.76515600  0.70473900  1
  H  H13  1  0.26936200  0.23428800  0.29087500  1
  H  H14  1  0.14020900  0.80188700  0.62859000  1
  H  H15  1  0.82023100  0.20033700  0.35688800  1
  H  H16  1  0.56328600  0.47217100  0.80195200  1
  H  H17  1  0.43255900  0.52206400  0.19962600  1
  H  H18  1  0.11938400  0.67155700  0.44773000  1
  H  H19  1  0.89367700  0.31672300  0.53369500  1
  H  H20  1  0.03083100  0.55026600  0.73051800  1
  H  H21  1  0.96943200  0.45556600  0.27036800  1
  H  H22  1  0.96100400  0.43822300  0.78345400  1
  H  H23  1  0.03321600  0.56801300  0.21532300  1
  H  H24  1  0.30175100  0.13687300  0.91014000  1
  H  H25  1  0.67764600  0.90593100  0.11706600  1
  H  H26  1  0.52188100  0.87318600  0.69587200  1
  H  H27  1  0.47762200  0.13177100  0.30668800  1
  O  O0  1  0.26211100  0.85181800  0.98309500  1
  O  O1  1  0.73281700  0.14963700  0.03470200  1
  O  O2  1  0.61688900  0.75679300  0.63548700  1
  O  O3  1  0.37900000  0.24560900  0.36402900  1
  O  O4  1  0.30455700  0.94742000  0.43189400  1
  O  O5  1  0.69029700  0.05771400  0.57217000  1
  O  O6  1  0.43954300  0.49479200  0.74905400  1
  O  O7  1  0.55749200  0.50793000  0.25216900  1
  O  O8  1  0.61268300  0.83724300  0.13587600  1
  O  O9  1  0.39735700  0.13630400  0.85031300  1
  O  O10  1  0.93248200  0.80139100  0.82378200  1
  O  O11  1  0.06434900  0.21229900  0.16690700  1
  O  O12  1  0.79105300  0.45702300  0.90576200  1
  O  O13  1  0.21091200  0.53803200  0.09916800  1
  O  O14  1  0.04261300  0.42445900  0.70250700  1
  O  O15  1  0.95678800  0.58220800  0.30015700  1
  O  O16  1  0.20862400  0.73044300  0.52314500  1
  O  O17  1  0.79282900  0.26631100  0.47513000  1
  O  O18  1  0.96643900  0.92001200  0.76944300  1
  O  O19  1  0.15980300  0.85339000  0.10397900  1
  O  O20  1  0.06516500  0.19597300  0.00193900  1
  O  O21  1  0.79563900  0.05615700  0.13960400  1
loop_
_geom_bond_atom_site_label_1
_geom_bond_atom_site_label_2
_geom_bond_distance
_geom_bond_site_symmetry_2
Na0 O4 2.390990 1_545
Na0 O6 2.405289 1_555
Na0 O14 2.420491 1_555
Na0 O5 2.440279 1_555
Na0 O9 2.496002 1_555
Na0 O3 2.526695 1_555
Na1 O7 2.396744 1_555
Na1 O15 2.407632 1_555
Na1 O5 2.415366 1_565
Na1 O4 2.476916 1_555
Na1 O8 2.491839 1_555
Na1 O2 2.511784 1_555
Na2 O16 2.370325 1_555
Na2 O17 2.406108 1_555
Na2 O2 2.427160 1_555
Na2 O6 2.439820 1_555
Na2 O7 2.458805 1_555
Na2 O3 2.472393 1_555
H0 O8 0.992831 1_555
H1 O9 0.992127 1_555
H2 O4 0.997545 1_555
H3 O5 0.995017 1_555
H4 O12 0.988662 1_554
H5 O13 0.980118 1_556
H6 O6 0.989974 1_555
H7 O7 0.989930 1_555
H8 O13 1.004018 1_555
H8 O19 1.672302 1_555
H9 O12 0.990610 1_555
H10 O4 0.985011 1_555
H11 O5 0.986145 1_555
H12 O2 0.990571 1_555
H13 O3 0.991370 1_555
H14 O16 0.997810 1_555
H14 O18 1.704671 1_455
H15 O17 0.992467 1_555
H16 O6 0.988753 1_555
H17 O7 0.991915 1_555
H18 O16 0.994674 1_555
H19 O17 0.988799 1_555
H20 O14 0.989371 1_555
H21 O15 0.990913 1_555
H22 O14 0.995885 1_655
H23 O15 0.995844 1_455
H24 O9 0.990526 1_555
H25 O8 0.997118 1_555
H26 O2 0.983906 1_555
H27 O3 0.979923 1_555
O0 O19 1.466430 1_556
O0 V0 1.979226 1_466
O1 O21 1.464856 1_555
O1 V0 1.953711 1_555
O10 O18 1.465004 1_555
O10 V0 1.957496 1_566
O11 O20 1.467552 1_555
O11 V0 1.949619 1_455
O18 V0 1.934517 1_566
O19 V0 1.941482 1_465
O20 V0 1.946288 1_455
O21 V0 1.958483 1_555
