# generated using pymatgen
data_Li7Mn2(CoO4)3
_symmetry_space_group_name_H-M   'P 1'
_cell_length_a   2.97642700
_cell_length_b   7.61515610
_cell_length_c   9.86911537
_cell_angle_alpha   101.31825093
_cell_angle_beta   91.73444487
_cell_angle_gamma   99.83468220
_symmetry_Int_Tables_number   1
_chemical_formula_structural   Li7Mn2(CoO4)3
_chemical_formula_sum   'Li7 Mn2 Co3 O12'
_cell_volume   215.64771713
_cell_formula_units_Z   1
loop_
 _symmetry_equiv_pos_site_id
 _symmetry_equiv_pos_as_xyz
  1  'x, y, z'
loop_
 _atom_site_type_symbol
 _atom_site_label
 _atom_site_symmetry_multiplicity
 _atom_site_fract_x
 _atom_site_fract_y
 _atom_site_fract_z
 _atom_site_occupancy
  Li  Li0  1  0.09392900  0.17089400  0.74958400  1
  Li  Li1  1  0.59238200  0.16972400  0.24811800  1
  Li  Li2  1  0.75102100  0.49789300  0.74749400  1
  Li  Li3  1  0.25231900  0.50858200  0.26075900  1
  Li  Li4  1  0.40471200  0.82444000  0.74425300  1
  Li  Li5  1  0.90497900  0.82441000  0.25595700  1
  Li  Li6  1  0.84301600  0.66744700  0.49050200  1
  Mn  Mn0  1  0.99977700  0.99959300  0.99794600  1
  Mn  Mn1  1  0.49320300  0.99313500  0.49968500  1
  Co  Co0  1  0.67272500  0.33587500  0.00236500  1
  Co  Co1  1  0.17163500  0.34819200  0.50468500  1
  Co  Co2  1  0.32794000  0.66479700  0.99938900  1
  O  O0  1  0.58782500  0.09506100  0.88122100  1
  O  O1  1  0.03059700  0.08820300  0.39833200  1
  O  O2  1  0.20736800  0.42517600  0.88505600  1
  O  O3  1  0.73323300  0.40238600  0.38718400  1
  O  O4  1  0.86451900  0.75556800  0.88100600  1
  O  O5  1  0.38900200  0.77031200  0.38153000  1
  O  O6  1  0.58953500  0.24634400  0.61101700  1
  O  O7  1  0.13687400  0.24273000  0.11623200  1
  O  O8  1  0.27557100  0.55907800  0.61645000  1
  O  O9  1  0.79155500  0.57485200  0.11681300  1
  O  O10  1  0.97450300  0.92885500  0.60929300  1
  O  O11  1  0.41177900  0.90645300  0.11513100  1
loop_
_geom_bond_atom_site_label_1
_geom_bond_atom_site_label_2
_geom_bond_distance
_geom_bond_site_symmetry_2
Li0 O10 2.045798 1_445
Li0 O2 2.093871 1_555
Li0 O0 2.099097 1_455
Li0 O6 2.125391 1_555
Li0 O0 2.156654 1_555
Li0 O6 2.221025 1_455
Li1 O3 1.988839 1_555
Li1 O7 2.067873 1_555
Li1 O11 2.141787 1_545
Li1 O7 2.175696 1_655
Li1 O1 2.192069 1_655
Li1 O1 2.352824 1_555
Li2 O8 2.059927 1_555
Li2 O6 2.085231 1_555
Li2 O4 2.105332 1_555
Li2 O2 2.105967 1_655
Li2 O8 2.106549 1_655
Li2 O2 2.211361 1_555
Li3 O5 2.078421 1_555
Li3 O9 2.133907 1_455
Li3 O3 2.164202 1_455
Li3 O7 2.202364 1_555
Li3 O3 2.223300 1_555
Li3 O9 2.234186 1_555
Li4 O4 2.093041 1_555
Li4 O8 2.127678 1_555
Li4 O10 2.169381 1_455
Li4 O4 2.191545 1_455
Li4 O0 2.202165 1_565
Li4 O10 2.318252 1_555
Li5 O5 2.018943 1_655
Li5 O5 2.040497 1_555
Li5 O9 2.083205 1_555
Li5 O11 2.177885 1_655
Li5 O1 2.180186 1_665
Li5 O11 2.237754 1_555
Li6 O3 2.041420 1_555
Li6 O5 2.049548 1_555
Li6 O10 2.068906 1_555
Li6 O5 2.100650 1_655
Li6 O8 2.133626 1_655
Li6 O8 2.265442 1_555
Mn0 O4 1.954928 1_555
Mn0 O7 1.955019 1_666
Mn0 O11 1.969173 1_656
Mn0 O0 1.976550 1_565
Mn0 O11 2.219010 1_556
Mn0 O0 2.221521 1_665
Mn1 O5 1.832173 1_555
Mn1 O10 1.953346 1_555
Mn1 O10 1.960631 1_455
Mn1 O1 1.990460 1_565
Mn1 O6 1.991978 1_565
Mn1 O1 2.017077 1_665
Co0 O9 1.913588 1_555
Co0 O0 1.954237 1_554
Co0 O7 2.056255 1_655
Co0 O2 2.062777 1_554
Co0 O7 2.084385 1_555
Co0 O2 2.094278 1_654
Co1 O8 1.733696 1_555
Co1 O3 1.870285 1_455
Co1 O6 1.954471 1_555
Co1 O1 2.017787 1_555
Co1 O3 2.092532 1_555
Co1 O6 2.162197 1_455
Co2 O2 1.917110 1_555
Co2 O11 1.937613 1_556
Co2 O9 2.062509 1_556
Co2 O4 2.071362 1_455
Co2 O9 2.100234 1_456
Co2 O4 2.108631 1_555
