# generated using pymatgen
data_Sr2ZnWO6
_symmetry_space_group_name_H-M   'P 1'
_cell_length_a   5.67528300
_cell_length_b   5.73651100
_cell_length_c   9.88713740
_cell_angle_alpha   54.44102534
_cell_angle_beta   90.00000000
_cell_angle_gamma   90.00000000
_symmetry_Int_Tables_number   1
_chemical_formula_structural   Sr2ZnWO6
_chemical_formula_sum   'Sr4 Zn2 W2 O12'
_cell_volume   261.86216393
_cell_formula_units_Z   2
loop_
 _symmetry_equiv_pos_site_id
 _symmetry_equiv_pos_as_xyz
  1  'x, y, z'
loop_
 _atom_site_type_symbol
 _atom_site_label
 _atom_site_symmetry_multiplicity
 _atom_site_fract_x
 _atom_site_fract_y
 _atom_site_fract_z
 _atom_site_occupancy
  Sr  Sr0  1  0.01289900  0.75335600  0.25003400  1
  Sr  Sr1  1  0.48710100  0.75335600  0.75003400  1
  Sr  Sr2  1  0.98710100  0.24664400  0.74996600  1
  Sr  Sr3  1  0.51289900  0.24664400  0.24996600  1
  Zn  Zn0  1  0.00000000  0.00000000  0.50000000  1
  Zn  Zn1  1  0.50000000  0.00000000  0.00000000  1
  W  W0  1  0.50000000  0.50000000  0.50000000  1
  W  W1  1  0.00000000  0.50000000  0.00000000  1
  O  O0  1  0.75950600  0.74953200  0.47027100  1
  O  O1  1  0.74049400  0.74953200  0.97027100  1
  O  O2  1  0.24049400  0.25046800  0.52972900  1
  O  O3  1  0.25950600  0.25046800  0.02972900  1
  O  O4  1  0.27939600  0.78799700  0.47003500  1
  O  O5  1  0.22060400  0.78799700  0.97003500  1
  O  O6  1  0.72060400  0.21200300  0.52996500  1
  O  O7  1  0.77939600  0.21200300  0.02996500  1
  O  O8  1  0.49471600  0.68180100  0.26098300  1
  O  O9  1  0.00528400  0.68180100  0.76098300  1
  O  O10  1  0.50528400  0.31819900  0.73901700  1
  O  O11  1  0.99471600  0.31819900  0.23901700  1
loop_
_geom_bond_atom_site_label_1
_geom_bond_atom_site_label_2
_geom_bond_distance
_geom_bond_site_symmetry_2
O0 W0 1.953231 1_555
O0 Zn0 2.122476 1_665
O0 Sr0 2.598953 1_655
O0 Sr3 2.758788 1_565
O0 Sr2 2.891246 1_555
O0 Sr1 3.179962 1_555
O1 W1 1.953231 1_656
O1 Zn1 2.122476 1_566
O1 Sr1 2.598953 1_555
O1 Sr2 2.758788 1_565
O1 Sr3 2.891246 1_556
O1 Sr0 3.179962 1_656
O2 W0 1.953231 1_555
O2 Zn0 2.122476 1_555
O2 Sr2 2.598953 1_455
O2 Sr1 2.758788 1_545
O2 Sr0 2.891246 1_555
O2 Sr3 3.179962 1_555
O3 W1 1.953231 1_555
O3 Zn1 2.122476 1_555
O3 Sr3 2.598953 1_555
O3 Sr0 2.758788 1_545
O3 Sr1 2.891246 1_554
O3 Sr2 3.179962 1_454
O4 W0 1.953304 1_555
O4 Zn0 2.121361 1_565
O4 Sr3 2.598938 1_565
O4 Sr0 2.749751 1_555
O4 Sr1 2.907430 1_555
O4 Sr2 3.171636 1_455
O5 W1 1.953304 1_556
O5 Zn1 2.121361 1_566
O5 Sr2 2.598938 1_465
O5 Sr1 2.749751 1_555
O5 Sr0 2.907430 1_556
O5 Sr3 3.171636 1_556
O6 W0 1.953304 1_555
O6 Zn0 2.121361 1_655
O6 Sr1 2.598938 1_545
O6 Sr2 2.749751 1_555
O6 Sr3 2.907430 1_555
O6 Sr0 3.171636 1_655
O7 W1 1.953304 1_655
O7 Zn1 2.121361 1_555
O7 Sr0 2.598938 1_645
O7 Sr3 2.749751 1_555
O7 Sr2 2.907430 1_554
O7 Sr1 3.171636 1_554
O8 W0 1.951082 1_555
O8 Zn1 2.124364 1_565
O8 Sr3 2.563240 1_555
O8 Sr0 2.757849 1_555
O8 Sr0 2.962607 1_655
O8 Sr3 3.179793 1_565
O9 W1 1.951082 1_556
O9 Zn0 2.124364 1_565
O9 Sr2 2.563240 1_455
O9 Sr1 2.757849 1_555
O9 Sr1 2.962607 1_455
O9 Sr2 3.179793 1_465
O10 W0 1.951082 1_555
O10 Zn1 2.124364 1_556
O10 Sr1 2.563240 1_555
O10 Sr2 2.757849 1_555
O10 Sr2 2.962607 1_455
O10 Sr1 3.179793 1_545
O11 W1 1.951082 1_655
O11 Zn0 2.124364 1_655
O11 Sr0 2.563240 1_655
O11 Sr3 2.757849 1_555
O11 Sr3 2.962607 1_655
O11 Sr0 3.179793 1_645
