# generated using pymatgen
data_LiY(BH4)4
_symmetry_space_group_name_H-M   'P 1'
_cell_length_a   6.27920400
_cell_length_b   6.27920400
_cell_length_c   6.33324700
_cell_angle_alpha   90.00000000
_cell_angle_beta   90.00000000
_cell_angle_gamma   90.00000000
_symmetry_Int_Tables_number   1
_chemical_formula_structural   LiY(BH4)4
_chemical_formula_sum   'Li1 Y1 B4 H16'
_cell_volume   249.70981421
_cell_formula_units_Z   1
loop_
 _symmetry_equiv_pos_site_id
 _symmetry_equiv_pos_as_xyz
  1  'x, y, z'
loop_
 _atom_site_type_symbol
 _atom_site_label
 _atom_site_symmetry_multiplicity
 _atom_site_fract_x
 _atom_site_fract_y
 _atom_site_fract_z
 _atom_site_occupancy
  Li  Li0  1  0.00000000  0.00000000  0.50000000  1
  Y  Y0  1  0.50000000  0.50000000  0.50000000  1
  B  B0  1  0.74462200  0.74462200  0.30937100  1
  B  B1  1  0.25537800  0.25537800  0.30937100  1
  B  B2  1  0.74462200  0.25537800  0.69062900  1
  B  B3  1  0.25537800  0.74462200  0.69062900  1
  H  H0  1  0.76097400  0.76097400  0.50366700  1
  H  H1  1  0.23902600  0.23902600  0.50366700  1
  H  H2  1  0.76097400  0.23902600  0.49633300  1
  H  H3  1  0.23902600  0.76097400  0.49633300  1
  H  H4  1  0.86330800  0.86330800  0.21562100  1
  H  H5  1  0.13669200  0.13669200  0.21562100  1
  H  H6  1  0.86330800  0.13669200  0.78437900  1
  H  H7  1  0.13669200  0.86330800  0.78437900  1
  H  H8  1  0.78230200  0.55549800  0.26667400  1
  H  H9  1  0.21769800  0.44450200  0.26667400  1
  H  H10  1  0.78230200  0.44450200  0.73332600  1
  H  H11  1  0.21769800  0.55549800  0.73332600  1
  H  H12  1  0.55549800  0.21769800  0.73332600  1
  H  H13  1  0.44450200  0.78230200  0.73332600  1
  H  H14  1  0.44450200  0.21769800  0.26667400  1
  H  H15  1  0.55549800  0.78230200  0.26667400  1
loop_
_geom_bond_atom_site_label_1
_geom_bond_atom_site_label_2
_geom_bond_distance
_geom_bond_site_symmetry_2
B0 H4 1.209684 1_555
B0 H0 1.239063 1_555
B0 H8 1.240714 1_555
B0 H15 1.240714 1_555
B1 H5 1.209684 1_555
B1 H1 1.239063 1_555
B1 H14 1.240714 1_555
B1 H9 1.240714 1_555
B2 H6 1.209684 1_555
B2 H2 1.239063 1_555
B2 H12 1.240714 1_555
B2 H10 1.240714 1_555
B3 H7 1.209684 1_555
B3 H3 1.239063 1_555
B3 H11 1.240714 1_555
B3 H13 1.240714 1_555
H0 Li0 2.122710 1_665
H0 Y0 2.317601 1_555
H1 Li0 2.122710 1_555
H1 Y0 2.317601 1_555
H2 Li0 2.122710 1_655
H2 Y0 2.317601 1_555
H3 Li0 2.122710 1_565
H3 Y0 2.317601 1_555
H4 Li0 2.171905 1_665
H5 Li0 2.171905 1_555
H6 Li0 2.171905 1_655
H7 Li0 2.171905 1_565
H8 Y0 2.333944 1_555
H9 Y0 2.333944 1_555
H10 Y0 2.333944 1_555
H11 Y0 2.333944 1_555
H12 Y0 2.333944 1_555
H13 Y0 2.333944 1_555
H14 Y0 2.333944 1_555
H15 Y0 2.333944 1_555
