# generated using pymatgen
data_Pr5(Sn5Ir2)2
_symmetry_space_group_name_H-M   'P 1'
_cell_length_a   14.19269600
_cell_length_b   14.19269600
_cell_length_c   4.70257600
_cell_angle_alpha   90.00000000
_cell_angle_beta   90.00000000
_cell_angle_gamma   90.00000000
_symmetry_Int_Tables_number   1
_chemical_formula_structural   Pr5(Sn5Ir2)2
_chemical_formula_sum   'Pr10 Sn20 Ir8'
_cell_volume   947.25220325
_cell_formula_units_Z   2
loop_
 _symmetry_equiv_pos_site_id
 _symmetry_equiv_pos_as_xyz
  1  'x, y, z'
loop_
 _atom_site_type_symbol
 _atom_site_label
 _atom_site_symmetry_multiplicity
 _atom_site_fract_x
 _atom_site_fract_y
 _atom_site_fract_z
 _atom_site_occupancy
  Pr  Pr0  1  0.50000000  0.50000000  0.00000000  1
  Pr  Pr1  1  0.00000000  0.00000000  0.00000000  1
  Pr  Pr2  1  0.67647400  0.17647400  0.50000000  1
  Pr  Pr3  1  0.32352600  0.82352600  0.50000000  1
  Pr  Pr4  1  0.17647400  0.32352600  0.50000000  1
  Pr  Pr5  1  0.82352600  0.67647400  0.50000000  1
  Pr  Pr6  1  0.88749500  0.38749500  0.50000000  1
  Pr  Pr7  1  0.11250500  0.61250500  0.50000000  1
  Pr  Pr8  1  0.38749500  0.11250500  0.50000000  1
  Pr  Pr9  1  0.61250500  0.88749500  0.50000000  1
  Sn  Sn0  1  0.56957200  0.06957200  0.00000000  1
  Sn  Sn1  1  0.43042800  0.93042800  0.00000000  1
  Sn  Sn2  1  0.06957200  0.43042800  0.00000000  1
  Sn  Sn3  1  0.93042800  0.56957200  0.00000000  1
  Sn  Sn4  1  0.65523500  0.69816700  0.00000000  1
  Sn  Sn5  1  0.34476500  0.30183300  0.00000000  1
  Sn  Sn6  1  0.15523500  0.80183300  0.00000000  1
  Sn  Sn7  1  0.84476500  0.19816700  0.00000000  1
  Sn  Sn8  1  0.30183300  0.65523500  0.00000000  1
  Sn  Sn9  1  0.69816700  0.34476500  0.00000000  1
  Sn  Sn10  1  0.19816700  0.15523500  0.00000000  1
  Sn  Sn11  1  0.80183300  0.84476500  0.00000000  1
  Sn  Sn12  1  0.66342400  0.50554200  0.50000000  1
  Sn  Sn13  1  0.33657600  0.49445800  0.50000000  1
  Sn  Sn14  1  0.16342400  0.99445800  0.50000000  1
  Sn  Sn15  1  0.83657600  0.00554200  0.50000000  1
  Sn  Sn16  1  0.49445800  0.66342400  0.50000000  1
  Sn  Sn17  1  0.50554200  0.33657600  0.50000000  1
  Sn  Sn18  1  0.00554200  0.16342400  0.50000000  1
  Sn  Sn19  1  0.99445800  0.83657600  0.50000000  1
  Ir  Ir0  1  0.74613800  0.52733400  0.00000000  1
  Ir  Ir1  1  0.25386200  0.47266600  0.00000000  1
  Ir  Ir2  1  0.24613800  0.97266600  0.00000000  1
  Ir  Ir3  1  0.75386200  0.02733400  0.00000000  1
  Ir  Ir4  1  0.47266600  0.74613800  0.00000000  1
  Ir  Ir5  1  0.52733400  0.25386200  0.00000000  1
  Ir  Ir6  1  0.02733400  0.24613800  0.00000000  1
  Ir  Ir7  1  0.97266600  0.75386200  0.00000000  1
loop_
_geom_bond_atom_site_label_1
_geom_bond_atom_site_label_2
_geom_bond_distance
_geom_bond_site_symmetry_2
Pr0 Sn12 3.303708 1_554
Pr0 Sn17 3.303708 1_555
Pr0 Sn12 3.303708 1_555
Pr0 Sn17 3.303708 1_554
Pr0 Sn13 3.303708 1_555
Pr0 Sn16 3.303708 1_555
Pr0 Sn16 3.303708 1_554
Pr0 Sn13 3.303708 1_554
Pr0 Sn9 3.572729 1_555
Pr0 Sn4 3.572729 1_555
Pr0 Sn8 3.572729 1_555
Pr0 Sn5 3.572729 1_555
Pr1 Sn18 3.303708 1_555
Pr1 Sn14 3.303708 1_545
Pr1 Sn18 3.303708 1_554
Pr1 Sn14 3.303708 1_544
Pr1 Sn19 3.303708 1_444
Pr1 Sn19 3.303708 1_445
Pr1 Sn15 3.303708 1_455
Pr1 Sn15 3.303708 1_454
Pr1 Sn10 3.572729 1_555
Pr1 Sn7 3.572729 1_455
Pr1 Sn6 3.572729 1_545
Pr1 Sn11 3.572729 1_445
Pr2 Sn0 3.183161 1_555
Pr2 Sn0 3.183161 1_556
Pr2 Sn15 3.323952 1_555
Pr2 Sn17 3.323952 1_555
Pr2 Sn7 3.365753 1_556
Pr2 Sn7 3.365753 1_555
Pr2 Sn9 3.365753 1_556
Pr2 Sn9 3.365753 1_555
Pr3 Sn1 3.183161 1_556
Pr3 Sn1 3.183161 1_555
Pr3 Sn16 3.323952 1_555
Pr3 Sn14 3.323952 1_555
Pr3 Sn8 3.365753 1_556
Pr3 Sn8 3.365753 1_555
Pr3 Sn6 3.365753 1_555
Pr3 Sn6 3.365753 1_556
Pr4 Sn2 3.183161 1_556
Pr4 Sn2 3.183161 1_555
Pr4 Sn13 3.323952 1_555
Pr4 Sn18 3.323952 1_555
Pr4 Sn5 3.365753 1_556
Pr4 Sn5 3.365753 1_555
Pr4 Sn10 3.365753 1_556
Pr4 Sn10 3.365753 1_555
Pr5 Sn3 3.183161 1_556
Pr5 Sn3 3.183161 1_555
Pr5 Sn19 3.323952 1_555
Pr5 Sn12 3.323952 1_555
Pr5 Sn11 3.365753 1_555
Pr5 Sn4 3.365753 1_556
Pr5 Sn11 3.365753 1_556
Pr5 Sn4 3.365753 1_555
Pr6 Sn3 3.546512 1_556
Pr6 Sn3 3.546512 1_555
Pr6 Sn2 3.546512 1_655
Pr6 Sn2 3.546512 1_656
Pr6 Sn12 3.594506 1_555
Pr6 Sn18 3.594506 1_655
Pr6 Sn9 3.621700 1_556
Pr6 Sn9 3.621700 1_555
Pr6 Sn7 3.621700 1_556
Pr6 Sn7 3.621700 1_555
Pr7 Sn2 3.546512 1_555
Pr7 Sn2 3.546512 1_556
Pr7 Sn3 3.546512 1_455
Pr7 Sn3 3.546512 1_456
Pr7 Sn19 3.594506 1_455
Pr7 Sn13 3.594506 1_555
Pr7 Sn8 3.621700 1_556
Pr7 Sn8 3.621700 1_555
Pr7 Sn6 3.621700 1_555
Pr7 Sn6 3.621700 1_556
Pr8 Sn0 3.546512 1_556
Pr8 Sn0 3.546512 1_555
Pr8 Sn1 3.546512 1_546
Pr8 Sn1 3.546512 1_545
Pr8 Sn17 3.594506 1_555
Pr8 Sn14 3.594506 1_545
Pr8 Sn5 3.621700 1_556
Pr8 Sn5 3.621700 1_555
Pr8 Sn10 3.621700 1_556
Pr8 Sn10 3.621700 1_555
Pr9 Sn1 3.546512 1_555
Pr9 Sn1 3.546512 1_556
Pr9 Sn0 3.546512 1_566
Pr9 Sn0 3.546512 1_565
Pr9 Sn16 3.594506 1_555
Pr9 Sn15 3.594506 1_565
Pr9 Sn4 3.621700 1_556
Pr9 Sn4 3.621700 1_555
Pr9 Sn11 3.621700 1_556
Pr9 Sn11 3.621700 1_555
Sn0 Sn1 2.792829 1_545
Sn2 Sn3 2.792829 1_455
Sn6 Sn8 2.942442 1_555
Sn7 Sn9 2.942442 1_555
Sn10 Sn5 2.942442 1_555
Sn10 Sn14 3.313394 1_545
Sn10 Sn14 3.313394 1_544
Sn11 Sn4 2.942442 1_555
Sn11 Sn15 3.313394 1_565
Sn11 Sn15 3.313394 1_564
Sn12 Sn9 3.313394 1_556
Sn12 Sn9 3.313394 1_555
Sn13 Sn8 3.313394 1_555
Sn13 Sn8 3.313394 1_556
Sn16 Sn4 3.313394 1_555
Sn16 Sn4 3.313394 1_556
Sn17 Sn5 3.313394 1_556
Sn17 Sn5 3.313394 1_555
Sn18 Sn7 3.313394 1_455
Sn18 Sn7 3.313394 1_456
Sn19 Sn6 3.313394 1_656
Sn19 Sn6 3.313394 1_655
Ir0 Sn12 2.646193 1_554
Ir0 Sn12 2.646193 1_555
Ir0 Sn9 2.679100 1_555
Ir0 Sn3 2.683390 1_555
Ir0 Sn4 2.746471 1_555
Ir0 Pr5 3.348930 1_555
Ir0 Pr5 3.348930 1_554
Ir0 Pr0 3.514837 1_555
Ir0 Pr6 3.673220 1_555
Ir0 Pr6 3.673220 1_554
Ir1 Sn13 2.646193 1_555
Ir1 Sn13 2.646193 1_554
Ir1 Sn8 2.679100 1_555
Ir1 Sn2 2.683390 1_555
Ir1 Sn5 2.746471 1_555
Ir1 Pr4 3.348930 1_554
Ir1 Pr4 3.348930 1_555
Ir1 Pr0 3.514837 1_555
Ir1 Pr7 3.673220 1_555
Ir1 Pr7 3.673220 1_554
Ir2 Sn14 2.646193 1_554
Ir2 Sn14 2.646193 1_555
Ir2 Sn10 2.679100 1_565
Ir2 Sn1 2.683390 1_555
Ir2 Sn6 2.746471 1_555
Ir2 Pr3 3.348930 1_554
Ir2 Pr3 3.348930 1_555
Ir2 Pr1 3.514837 1_565
Ir2 Pr8 3.673220 1_565
Ir2 Pr8 3.673220 1_564
Ir3 Sn15 2.646193 1_554
Ir3 Sn15 2.646193 1_555
Ir3 Sn11 2.679100 1_545
Ir3 Sn0 2.683390 1_555
Ir3 Sn7 2.746471 1_555
Ir3 Pr2 3.348930 1_555
Ir3 Pr2 3.348930 1_554
Ir3 Pr1 3.514837 1_655
Ir3 Pr9 3.673220 1_545
Ir3 Pr9 3.673220 1_544
Ir4 Sn16 2.646193 1_555
Ir4 Sn16 2.646193 1_554
Ir4 Sn4 2.679100 1_555
Ir4 Sn1 2.683390 1_555
Ir4 Sn8 2.746471 1_555
Ir4 Pr3 3.348930 1_554
Ir4 Pr3 3.348930 1_555
Ir4 Pr0 3.514837 1_555
Ir4 Pr9 3.673220 1_554
Ir4 Pr9 3.673220 1_555
Ir5 Sn17 2.646193 1_554
Ir5 Sn17 2.646193 1_555
Ir5 Sn5 2.679100 1_555
Ir5 Sn0 2.683390 1_555
Ir5 Sn9 2.746471 1_555
Ir5 Pr2 3.348930 1_554
Ir5 Pr2 3.348930 1_555
Ir5 Pr0 3.514837 1_555
Ir5 Pr8 3.673220 1_555
Ir5 Pr8 3.673220 1_554
Ir6 Sn18 2.646193 1_554
Ir6 Sn18 2.646193 1_555
Ir6 Sn7 2.679100 1_455
Ir6 Sn2 2.683390 1_555
Ir6 Sn10 2.746471 1_555
Ir6 Pr4 3.348930 1_554
Ir6 Pr4 3.348930 1_555
Ir6 Pr1 3.514837 1_555
Ir6 Pr6 3.673220 1_454
Ir6 Pr6 3.673220 1_455
Ir7 Sn19 2.646193 1_554
Ir7 Sn19 2.646193 1_555
Ir7 Sn6 2.679100 1_655
Ir7 Sn3 2.683390 1_555
Ir7 Sn11 2.746471 1_555
Ir7 Pr5 3.348930 1_555
Ir7 Pr5 3.348930 1_554
Ir7 Pr1 3.514837 1_665
Ir7 Pr7 3.673220 1_655
Ir7 Pr7 3.673220 1_654
