# generated using pymatgen
data_ZnS
_symmetry_space_group_name_H-M   'P 1'
_cell_length_a   12.90717697
_cell_length_b   14.15932743
_cell_length_c   12.75675790
_cell_angle_alpha   93.12601868
_cell_angle_beta   88.54079750
_cell_angle_gamma   90.13944415
_symmetry_Int_Tables_number   1
_chemical_formula_structural   ZnS
_chemical_formula_sum   'Zn50 S50'
_cell_volume   2327.16082708
_cell_formula_units_Z   50
loop_
 _symmetry_equiv_pos_site_id
 _symmetry_equiv_pos_as_xyz
  1  'x, y, z'
loop_
 _atom_site_type_symbol
 _atom_site_label
 _atom_site_symmetry_multiplicity
 _atom_site_fract_x
 _atom_site_fract_y
 _atom_site_fract_z
 _atom_site_occupancy
  Zn  Zn0  1  0.54959439  0.93203236  0.35714193  1
  Zn  Zn1  1  0.15327644  0.63204359  0.79811051  1
  Zn  Zn2  1  0.34140611  0.62576596  0.55286634  1
  Zn  Zn3  1  0.07186732  0.28356433  0.44682272  1
  Zn  Zn4  1  0.47399158  0.49862626  0.76005204  1
  Zn  Zn5  1  0.09919466  0.83261167  0.82699390  1
  Zn  Zn6  1  0.57542135  0.14520594  0.23794544  1
  Zn  Zn7  1  0.76562105  0.70259596  0.29775735  1
  Zn  Zn8  1  0.07318174  0.38456029  0.61940977  1
  Zn  Zn9  1  0.33027882  0.25501008  0.20626327  1
  Zn  Zn10  1  0.03764952  0.00630590  0.36576960  1
  Zn  Zn11  1  0.03584918  0.13444145  0.22245688  1
  Zn  Zn12  1  0.36109109  0.80782383  0.73353119  1
  Zn  Zn13  1  0.83517851  0.98535389  0.90003392  1
  Zn  Zn14  1  0.13051362  0.13096596  0.96726598  1
  Zn  Zn15  1  0.18249607  0.81178835  0.24132376  1
  Zn  Zn16  1  0.21813051  0.10196012  0.72661700  1
  Zn  Zn17  1  0.59825917  0.36335583  0.12595769  1
  Zn  Zn18  1  0.87002410  0.26246159  0.93192972  1
  Zn  Zn19  1  0.50653908  0.01325209  0.64362635  1
  Zn  Zn20  1  0.73216871  0.86548280  0.51041540  1
  Zn  Zn21  1  0.56924065  0.64736859  0.36468112  1
  Zn  Zn22  1  0.56368854  0.55450660  0.91439313  1
  Zn  Zn23  1  0.48397402  0.98802182  0.87719817  1
  Zn  Zn24  1  0.72705386  0.12796203  0.78928277  1
  Zn  Zn25  1  0.79318984  0.26010772  0.36222507  1
  Zn  Zn26  1  0.95526438  0.48534623  0.11930608  1
  Zn  Zn27  1  0.97505466  0.96400225  0.18546441  1
  Zn  Zn28  1  0.66919328  0.62792499  0.62470121  1
  Zn  Zn29  1  0.85000463  0.10543864  0.63509717  1
  Zn  Zn30  1  0.32361145  0.05027341  0.28390067  1
  Zn  Zn31  1  0.62668596  0.67987149  0.16860457  1
  Zn  Zn32  1  0.87687734  0.70394176  0.78896470  1
  Zn  Zn33  1  0.08733967  0.40248198  0.28567224  1
  Zn  Zn34  1  0.32334135  0.58622703  0.35649161  1
  Zn  Zn35  1  0.99384946  0.46547053  0.90314738  1
  Zn  Zn36  1  0.45801226  0.52668242  0.12796717  1
  Zn  Zn37  1  0.20874133  0.86768085  0.49585293  1
  Zn  Zn38  1  0.69597966  0.84748928  0.81808423  1
  Zn  Zn39  1  0.65902108  0.26596520  0.64179592  1
  Zn  Zn40  1  0.24469448  0.47395895  0.47459752  1
  Zn  Zn41  1  0.24101424  0.91193858  0.97114433  1
  Zn  Zn42  1  0.96114448  0.76312726  0.07971389  1
  Zn  Zn43  1  0.05087168  0.62338737  0.30752841  1
  Zn  Zn44  1  0.20724257  0.55428364  0.06640486  1
  Zn  Zn45  1  0.48808382  0.90011078  0.10689311  1
  Zn  Zn46  1  0.81706556  0.40210239  0.72447180  1
  Zn  Zn47  1  0.40722866  0.21073367  0.91966423  1
  Zn  Zn48  1  0.91382487  0.58574980  0.54954453  1
  Zn  Zn49  1  0.72515036  0.89450773  0.04133570  1
  S  S0  1  0.07414989  0.60056358  0.95516288  1
  S  S1  1  0.80323662  0.23997345  0.53860307  1
  S  S2  1  0.15031014  0.98989052  0.84332747  1
  S  S3  1  0.00982460  0.64554065  0.68892325  1
  S  S4  1  0.70087280  0.68094922  0.79990779  1
  S  S5  1  0.20416136  0.13470021  0.15506004  1
  S  S6  1  0.53514495  0.12540695  0.80812513  1
  S  S7  1  0.62338656  0.99283654  0.50252335  1
  S  S8  1  0.93997314  0.81553601  0.91129840  1
  S  S9  1  0.71044097  0.30441647  0.82082625  1
  S  S10  1  0.11744222  0.41852581  0.11337626  1
  S  S11  1  0.05309463  0.09442722  0.64366480  1
  S  S12  1  0.26041303  0.76197301  0.87351516  1
  S  S13  1  0.52083849  0.87721645  0.74558846  1
  S  S14  1  0.63738681  0.52053763  0.07242144  1
  S  S15  1  0.10967561  0.86990467  0.09751069  1
  S  S16  1  0.91596440  0.63577108  0.19523027  1
  S  S17  1  0.43563384  0.31149581  0.06813374  1
  S  S18  1  0.24180627  0.21845919  0.86048750  1
  S  S19  1  0.77351513  0.49507199  0.59241075  1
  S  S20  1  0.23061942  0.33824954  0.36210672  1
  S  S21  1  0.84981052  0.41538531  0.00043096  1
  S  S22  1  0.52027240  0.67376769  0.54135660  1
  S  S23  1  0.05210644  0.12813721  0.48967711  1
  S  S24  1  0.29479525  0.54353389  0.71943528  1
  S  S25  1  0.98208594  0.35625988  0.76742344  1
  S  S26  1  0.38304134  0.00002034  0.01980074  1
  S  S27  1  0.42671741  0.17589366  0.32682419  1
  S  S28  1  0.07282022  0.84914370  0.38666040  1
  S  S29  1  0.61287638  0.98882047  0.20198566  1
  S  S30  1  0.78633951  0.71251216  0.47817505  1
  S  S31  1  0.83699045  0.85928272  0.18046172  1
  S  S32  1  0.34981884  0.08083807  0.59582900  1
  S  S33  1  0.48778806  0.28080536  0.61753786  1
  S  S34  1  0.21248578  0.64860103  0.23720322  1
  S  S35  1  0.28858408  0.00652673  0.46739775  1
  S  S36  1  0.37002664  0.58310520  0.00135682  1
  S  S37  1  0.24542769  0.76324977  0.61065141  1
  S  S38  1  0.04039954  0.51487735  0.43174656  1
  S  S39  1  0.52254001  0.42035806  0.60275779  1
  S  S40  1  0.58764998  0.77705518  0.03700210  1
  S  S41  1  0.87394591  0.94715690  0.57447119  1
  S  S42  1  0.69808388  0.25752093  0.21039168  1
  S  S43  1  0.35172197  0.87922027  0.23894570  1
  S  S44  1  0.24991532  0.41569928  0.64123511  1
  S  S45  1  0.47533389  0.51356576  0.30121864  1
  S  S46  1  0.94050991  0.12265248  0.98256384  1
  S  S47  1  0.86316762  0.88949575  0.72154233  1
  S  S48  1  0.42959590  0.81140769  0.35680301  1
  S  S49  1  0.96328307  0.27309499  0.29497975  1
loop_
_geom_bond_atom_site_label_1
_geom_bond_atom_site_label_2
_geom_bond_distance
_geom_bond_site_symmetry_2
Zn21 Zn7 2.778146 1_555
Zn22 Zn4 2.405131 1_555
Zn24 Zn29 2.502781 1_555
Zn31 Zn7 2.474601 1_555
S0 Zn35 2.249529 1_455
S0 Zn1 2.290553 1_555
S0 Zn44 2.371768 1_556
S1 Zn39 2.271329 1_555
S1 Zn25 2.290337 1_555
S1 Zn29 2.409884 1_555
S2 Zn5 2.321056 1_555
S2 Zn41 2.355269 1_555
S2 Zn16 2.384429 1_565
S2 Zn14 2.488498 1_565
S3 Zn32 2.244401 1_455
S3 Zn48 2.314378 1_455
S3 Zn1 2.359448 1_555
S4 Zn32 2.295953 1_555
S4 Zn38 2.357692 1_555
S4 Zn28 2.363988 1_555
S4 Zn22 2.934545 1_555
S5 Zn11 2.316001 1_555
S5 Zn9 2.428515 1_555
S5 Zn14 2.597583 1_554
S5 Zn30 2.619119 1_555
S6 Zn23 2.268880 1_545
S6 Zn47 2.431615 1_555
S6 Zn24 2.482904 1_555
S6 Zn19 2.595173 1_555
S7 Zn0 2.236010 1_555
S7 Zn20 2.296205 1_555
S7 Zn19 2.324933 1_565
S8 Zn5 2.313411 1_655
S8 Zn32 2.320535 1_555
S8 Zn42 2.333643 1_556
S8 Zn13 2.774032 1_555
S9 Zn46 2.325512 1_555
S9 Zn39 2.427484 1_555
S9 Zn24 2.517706 1_555
S9 Zn18 2.617404 1_555
S10 Zn33 2.245893 1_555
S10 Zn26 2.297039 1_455
S10 Zn44 2.340277 1_555
S11 S23 2.047037 1_555
S11 Zn16 2.402099 1_555
S11 Zn29 2.631730 1_455
S12 Zn12 2.302852 1_555
S12 Zn5 2.412548 1_555
S12 Zn41 2.412664 1_555
S12 Zn1 2.466660 1_555
S13 Zn23 2.276478 1_555
S13 Zn12 2.286976 1_555
S13 Zn19 2.392331 1_565
S13 Zn38 2.509227 1_555
S14 Zn22 2.325038 1_554
S14 Zn36 2.404289 1_555
S14 Zn17 2.411940 1_555
S14 Zn31 2.511047 1_555
S15 Zn15 2.276515 1_555
S15 Zn41 2.405649 1_554
S15 Zn27 2.408771 1_455
S15 Zn42 2.446086 1_455
S16 Zn43 2.295851 1_655
S16 Zn26 2.342471 1_555
S16 Zn42 2.450377 1_555
S16 Zn7 2.473095 1_555
S17 Zn47 2.344197 1_554
S17 Zn17 2.345537 1_555
S17 Zn9 2.370686 1_555
S18 Zn47 2.287550 1_555
S18 Zn16 2.334032 1_555
S18 Zn14 2.351461 1_555
S19 Zn46 2.276107 1_555
S19 Zn48 2.289557 1_555
S19 Zn28 2.328279 1_555
S20 Zn33 2.322648 1_555
S20 Zn40 2.344245 1_555
S20 Zn3 2.436554 1_555
S20 Zn9 2.572491 1_555
S21 Zn26 2.251286 1_555
S21 Zn18 2.303252 1_554
S21 Zn35 2.339127 1_554
S22 Zn28 2.330627 1_555
S22 Zn21 2.335714 1_555
S22 Zn2 2.408194 1_555
S23 Zn10 2.285861 1_555
S23 Zn3 2.308370 1_555
S24 S44 2.105803 1_555
S24 Zn1 2.386418 1_555
S24 Zn4 2.475178 1_555
S24 Zn2 2.536550 1_555
S25 Zn8 2.252868 1_655
S25 Zn35 2.265442 1_555
S25 Zn46 2.315855 1_555
S25 Zn18 2.898276 1_555
S26 Zn23 2.209525 1_544
S26 Zn41 2.294258 1_544
S26 Zn45 2.308954 1_545
S27 Zn6 2.235556 1_555
S27 Zn30 2.270244 1_555
S27 Zn9 2.337063 1_555
S28 Zn37 2.273609 1_555
S28 Zn10 2.303229 1_565
S28 Zn15 2.341822 1_555
S29 Zn6 2.287020 1_565
S29 Zn0 2.306368 1_555
S29 Zn45 2.359482 1_555
S29 Zn49 2.764584 1_555
S30 Zn20 2.290192 1_555
S30 Zn7 2.320399 1_555
S30 Zn48 2.650841 1_555
S30 Zn28 2.702965 1_555
S31 Zn27 2.315350 1_555
S31 Zn49 2.390190 1_555
S31 Zn42 2.405883 1_555
S31 Zn7 2.879500 1_555
S32 S35 2.071216 1_555
S32 Zn19 2.348455 1_555
S32 Zn16 2.359193 1_555
S33 S39 2.042847 1_555
S33 Zn39 2.251399 1_555
S34 Zn43 2.284644 1_555
S34 Zn34 2.325203 1_555
S34 Zn15 2.341291 1_555
S34 Zn44 2.495014 1_555
S35 Zn37 2.260027 1_545
S35 Zn30 2.484036 1_555
S36 Zn36 2.185219 1_555
S36 Zn44 2.283336 1_555
S36 Zn22 2.730848 1_554
S37 Zn37 2.197778 1_555
S37 Zn12 2.256314 1_555
S37 Zn2 2.382503 1_555
S38 Zn43 2.267933 1_555
S38 Zn48 2.377544 1_455
S38 Zn33 2.448654 1_555
S38 Zn40 2.775423 1_555
S39 Zn4 2.311695 1_555
S40 Zn31 2.294393 1_555
S40 Zn45 2.294660 1_555
S40 Zn49 2.428806 1_555
S41 S47 2.087844 1_555
S41 Zn20 2.305773 1_555
S41 Zn29 2.349169 1_565
S42 Zn6 2.275872 1_555
S42 Zn17 2.306956 1_555
S42 Zn25 2.317962 1_555
S43 S48 2.105182 1_555
S43 Zn15 2.381813 1_555
S43 Zn45 2.433890 1_555
S43 Zn30 2.483704 1_565
S44 Zn40 2.324368 1_555
S44 Zn8 2.342977 1_555
S45 Zn36 2.244833 1_555
S45 Zn34 2.294464 1_555
S45 Zn21 2.363344 1_555
S46 Zn18 2.311253 1_555
S46 Zn14 2.458249 1_655
S46 Zn13 2.563767 1_545
S47 Zn38 2.542723 1_555
S47 Zn13 2.603992 1_555
S47 Zn32 2.816088 1_555
S48 Zn0 2.302766 1_555
S48 Zn21 2.951057 1_555
S49 Zn11 2.313918 1_655
S49 Zn25 2.347104 1_555
S49 Zn3 2.417482 1_655
S49 Zn33 2.436003 1_655
