# generated using pymatgen
data_Ba2Sr6Co3(CuO4)5
_symmetry_space_group_name_H-M   'P 1'
_cell_length_a   11.14063921
_cell_length_b   11.11013066
_cell_length_c   17.93277581
_cell_angle_alpha   108.13302582
_cell_angle_beta   108.16141816
_cell_angle_gamma   89.60973466
_symmetry_Int_Tables_number   1
_chemical_formula_structural   Ba2Sr6Co3(CuO4)5
_chemical_formula_sum   'Ba8 Sr24 Co12 Cu20 O80'
_cell_volume   1994.26881896
_cell_formula_units_Z   4
loop_
 _symmetry_equiv_pos_site_id
 _symmetry_equiv_pos_as_xyz
  1  'x, y, z'
loop_
 _atom_site_type_symbol
 _atom_site_label
 _atom_site_symmetry_multiplicity
 _atom_site_fract_x
 _atom_site_fract_y
 _atom_site_fract_z
 _atom_site_occupancy
  Ba  Ba0  1  0.30858000  0.05731400  0.11874100  1
  Ba  Ba1  1  0.30678000  0.55742200  0.11800900  1
  Ba  Ba2  1  0.80835400  0.06097400  0.12012400  1
  Ba  Ba3  1  0.80778500  0.55571300  0.12031500  1
  Ba  Ba4  1  0.18652500  0.94313900  0.87648300  1
  Ba  Ba5  1  0.06032200  0.81114000  0.11901600  1
  Ba  Ba6  1  0.55623300  0.31063800  0.11933300  1
  Ba  Ba7  1  0.93389700  0.68726700  0.87537900  1
  Sr  Sr0  1  0.30021100  0.05768100  0.61191600  1
  Sr  Sr1  1  0.30630800  0.55497100  0.60963200  1
  Sr  Sr2  1  0.80518800  0.05624800  0.61020000  1
  Sr  Sr3  1  0.80412600  0.55622400  0.60922800  1
  Sr  Sr4  1  0.19266100  0.44493700  0.38990800  1
  Sr  Sr5  1  0.18820400  0.43905500  0.88497500  1
  Sr  Sr6  1  0.19005500  0.94772300  0.39033300  1
  Sr  Sr7  1  0.69676900  0.44023600  0.38953900  1
  Sr  Sr8  1  0.69485100  0.43974600  0.88520900  1
  Sr  Sr9  1  0.69540300  0.94808600  0.38948600  1
  Sr  Sr10  1  0.69028300  0.94107600  0.88441500  1
  Sr  Sr11  1  0.05681200  0.31270200  0.11105500  1
  Sr  Sr12  1  0.05610600  0.30831000  0.60975000  1
  Sr  Sr13  1  0.05217100  0.80679800  0.60919700  1
  Sr  Sr14  1  0.56091500  0.30309100  0.61301000  1
  Sr  Sr15  1  0.55561200  0.80500800  0.11286900  1
  Sr  Sr16  1  0.55375400  0.79863700  0.61112900  1
  Sr  Sr17  1  0.44338900  0.19181100  0.39141400  1
  Sr  Sr18  1  0.43842800  0.18987800  0.88447000  1
  Sr  Sr19  1  0.44165200  0.69378500  0.39097000  1
  Sr  Sr20  1  0.44552200  0.69360100  0.88359900  1
  Sr  Sr21  1  0.95166900  0.19903600  0.39337000  1
  Sr  Sr22  1  0.94454700  0.19851200  0.88570900  1
  Sr  Sr23  1  0.94435400  0.70252200  0.39259700  1
  Co  Co0  1  0.99128800  0.00185300  0.99243700  1
  Co  Co1  1  0.99408400  0.49551900  0.99030200  1
  Co  Co2  1  0.49287900  0.99641700  0.99194300  1
  Co  Co3  1  0.49946500  0.99938600  0.50152600  1
  Co  Co4  1  0.49194700  0.49175100  0.98541100  1
  Co  Co5  1  0.49778400  0.49469500  0.49686400  1
  Co  Co6  1  0.24176800  0.74034300  0.98593500  1
  Co  Co7  1  0.24962500  0.75223600  0.50150400  1
  Co  Co8  1  0.74446000  0.24600700  0.98723500  1
  Co  Co9  1  0.75307500  0.25148600  0.50177100  1
  Co  Co10  1  0.74506800  0.74602900  0.99533700  1
  Co  Co11  1  0.74950100  0.75084700  0.49723500  1
  Cu  Cu0  1  0.00047700  0.00428100  0.50206000  1
  Cu  Cu1  1  0.00202000  0.50223500  0.50103500  1
  Cu  Cu2  1  0.24475500  0.24827700  0.99304900  1
  Cu  Cu3  1  0.25338800  0.25102100  0.50199800  1
  Cu  Cu4  1  0.12081300  0.11076100  0.25569700  1
  Cu  Cu5  1  0.11148100  0.10360900  0.74438600  1
  Cu  Cu6  1  0.12051400  0.60467200  0.25547200  1
  Cu  Cu7  1  0.11772200  0.59221400  0.74501400  1
  Cu  Cu8  1  0.62034800  0.10131400  0.25400800  1
  Cu  Cu9  1  0.61255700  0.09863300  0.74681300  1
  Cu  Cu10  1  0.61983900  0.61242200  0.25917400  1
  Cu  Cu11  1  0.61115600  0.59866200  0.74854300  1
  Cu  Cu12  1  0.36624300  0.39744900  0.25614300  1
  Cu  Cu13  1  0.36605800  0.39777600  0.74789600  1
  Cu  Cu14  1  0.37592800  0.89925400  0.25876700  1
  Cu  Cu15  1  0.36740200  0.89701100  0.74575400  1
  Cu  Cu16  1  0.87453500  0.40327400  0.25876300  1
  Cu  Cu17  1  0.86368400  0.39294700  0.74527200  1
  Cu  Cu18  1  0.86524600  0.89863100  0.25302800  1
  Cu  Cu19  1  0.85784400  0.90514500  0.74701600  1
  O  O0  1  0.12375700  0.12627500  0.49791700  1
  O  O1  1  0.10772100  0.11963400  0.99634700  1
  O  O2  1  0.12750600  0.63308500  0.49570700  1
  O  O3  1  0.11548500  0.61833200  0.99244000  1
  O  O4  1  0.62219200  0.11927200  0.49515700  1
  O  O5  1  0.61141600  0.10873000  0.99138900  1
  O  O6  1  0.61438000  0.61218400  0.49602100  1
  O  O7  1  0.61168100  0.61253500  0.99368000  1
  O  O8  1  0.12046500  0.37303700  0.99784200  1
  O  O9  1  0.13133100  0.37879300  0.50521400  1
  O  O10  1  0.13405800  0.86424900  0.99666000  1
  O  O11  1  0.12698400  0.87888800  0.50645300  1
  O  O12  1  0.62738900  0.36050100  0.99644200  1
  O  O13  1  0.63151300  0.36736400  0.50346700  1
  O  O14  1  0.62996600  0.86250600  0.99939200  1
  O  O15  1  0.62293500  0.87223100  0.50623100  1
  O  O16  1  0.37841000  0.11513000  0.49826600  1
  O  O17  1  0.36779800  0.12298100  0.99259700  1
  O  O18  1  0.37164700  0.61801300  0.49541400  1
  O  O19  1  0.36496400  0.63132800  0.99267400  1
  O  O20  1  0.86710700  0.13146100  0.49647900  1
  O  O21  1  0.86086600  0.13177500  0.99432900  1
  O  O22  1  0.86519900  0.62962300  0.49791400  1
  O  O23  1  0.86155100  0.62823400  0.99348500  1
  O  O24  1  0.38066500  0.38384100  0.99631500  1
  O  O25  1  0.38872800  0.38059600  0.50633300  1
  O  O26  1  0.38668200  0.87878000  0.99702900  1
  O  O27  1  0.37204600  0.87152900  0.50638000  1
  O  O28  1  0.87518600  0.37918600  0.99683200  1
  O  O29  1  0.87659500  0.38141400  0.50672900  1
  O  O30  1  0.87958700  0.88630500  0.99901700  1
  O  O31  1  0.87379000  0.88310500  0.50560100  1
  O  O32  1  0.07193400  0.09361600  0.14370100  1
  O  O33  1  0.06620000  0.08970900  0.63365600  1
  O  O34  1  0.07053100  0.57887900  0.14337600  1
  O  O35  1  0.07973500  0.58868300  0.63594600  1
  O  O36  1  0.57063800  0.07580200  0.14090200  1
  O  O37  1  0.57682400  0.08300100  0.63619000  1
  O  O38  1  0.57457300  0.59454100  0.14902200  1
  O  O39  1  0.57845700  0.58230200  0.63892200  1
  O  O40  1  0.43812800  0.40755800  0.36659400  1
  O  O41  1  0.44156300  0.41257000  0.86052100  1
  O  O42  1  0.44048500  0.91047000  0.36933000  1
  O  O43  1  0.43762700  0.91225500  0.85779400  1
  O  O44  1  0.94131700  0.41593400  0.36939300  1
  O  O45  1  0.93484400  0.41560600  0.85766100  1
  O  O46  1  0.93406600  0.91402000  0.36391000  1
  O  O47  1  0.92538600  0.92879100  0.86149200  1
  O  O48  1  0.31842200  0.31304700  0.14397200  1
  O  O49  1  0.32619000  0.30492900  0.63662300  1
  O  O50  1  0.33612700  0.81368800  0.14794100  1
  O  O51  1  0.32918500  0.79782200  0.63639700  1
  O  O52  1  0.83378300  0.31489300  0.14801900  1
  O  O53  1  0.81566900  0.29656100  0.63450300  1
  O  O54  1  0.81876400  0.80905300  0.13939600  1
  O  O55  1  0.82269900  0.80304800  0.63781300  1
  O  O56  1  0.19034600  0.20225200  0.36726600  1
  O  O57  1  0.18245200  0.19409200  0.85655900  1
  O  O58  1  0.19477000  0.70466800  0.36494200  1
  O  O59  1  0.18970200  0.68569100  0.85809500  1
  O  O60  1  0.69739600  0.20084800  0.36276500  1
  O  O61  1  0.68848300  0.19495600  0.85904200  1
  O  O62  1  0.68947100  0.70758500  0.37095100  1
  O  O63  1  0.67537100  0.69567300  0.86120000  1
  O  O64  1  0.47235400  0.04642500  0.26418000  1
  O  O65  1  0.45397700  0.05230400  0.74785300  1
  O  O66  1  0.47244500  0.53836000  0.26273300  1
  O  O67  1  0.45061400  0.54860900  0.74662200  1
  O  O68  1  0.97412200  0.03968800  0.26205500  1
  O  O69  1  0.95519300  0.05028800  0.74839800  1
  O  O70  1  0.97205700  0.55052300  0.26577300  1
  O  O71  1  0.95806500  0.52895900  0.73552000  1
  O  O72  1  0.20859100  0.45285500  0.25324900  1
  O  O73  1  0.20441600  0.43884500  0.74782700  1
  O  O74  1  0.22576200  0.97307900  0.26129800  1
  O  O75  1  0.20895000  0.96094000  0.73613100  1
  O  O76  1  0.72363000  0.47161400  0.26167200  1
  O  O77  1  0.70786700  0.45321600  0.75102400  1
  O  O78  1  0.70659500  0.94778400  0.25097300  1
  O  O79  1  0.69620100  0.94362300  0.74627700  1
loop_
_geom_bond_atom_site_label_1
_geom_bond_atom_site_label_2
_geom_bond_distance
_geom_bond_site_symmetry_2
Ba0 O64 2.715294 1_555
Ba0 O48 2.731748 1_555
Ba0 O10 2.766655 1_544
Ba0 O26 2.814425 1_544
Ba0 O32 2.814664 1_555
Ba0 O36 2.820931 1_555
Ba0 O17 2.837044 1_554
Ba0 O1 2.857830 1_554
Ba0 O50 2.909539 1_545
Ba1 O50 2.730071 1_555
Ba1 O66 2.745458 1_555
Ba1 O24 2.763639 1_554
Ba1 O8 2.769551 1_554
Ba1 O34 2.803806 1_555
Ba1 O3 2.829772 1_554
Ba1 O19 2.865367 1_554
Ba1 O38 2.866989 1_555
Ba1 O48 2.889536 1_555
Ba2 O52 2.707968 1_555
Ba2 O68 2.717188 1_555
Ba2 O30 2.746345 1_544
Ba2 O36 2.783974 1_555
Ba2 O14 2.811579 1_544
Ba2 O21 2.825483 1_554
Ba2 O5 2.830865 1_554
Ba2 O32 2.842204 1_655
Ba2 O54 2.922204 1_545
Ba3 O70 2.696840 1_555
Ba3 O54 2.726420 1_555
Ba3 O28 2.761712 1_554
Ba3 O38 2.807433 1_555
Ba3 O12 2.820439 1_554
Ba3 O34 2.827526 1_655
Ba3 O7 2.847692 1_554
Ba3 O23 2.859621 1_554
Ba3 O52 2.866418 1_555
Ba4 O75 2.671856 1_555
Ba4 O17 2.692633 1_565
Ba4 O59 2.776691 1_555
Ba4 O10 2.778915 1_555
Ba4 O1 2.786670 1_565
Ba4 O47 2.837876 1_455
Ba4 O26 2.844663 1_555
Ba4 O57 2.917460 1_565
Ba4 O43 2.924981 1_555
Ba5 O74 2.720366 1_555
Ba5 O34 2.743934 1_555
Ba5 O10 2.788100 1_554
Ba5 O30 2.788709 1_454
Ba5 O3 2.818464 1_554
Ba5 O54 2.827618 1_455
Ba5 O23 2.864796 1_454
Ba5 O50 2.951184 1_555
Ba5 O32 3.027705 1_565
Ba6 O76 2.725494 1_555
Ba6 O36 2.750691 1_555
Ba6 O12 2.765303 1_554
Ba6 O24 2.785509 1_554
Ba6 O48 2.817181 1_555
Ba6 O17 2.838139 1_554
Ba6 O5 2.886368 1_554
Ba6 O52 2.970374 1_555
Ba6 O38 3.028177 1_555
Ba7 O71 2.669282 1_555
Ba7 O3 2.723625 1_655
Ba7 O23 2.738896 1_555
Ba7 O47 2.769333 1_555
Ba7 O63 2.814818 1_555
Ba7 O30 2.817479 1_555
Ba7 O10 2.818429 1_655
Ba7 O45 2.935179 1_555
Ba7 O59 2.960490 1_655
Co0 O1 1.819102 1_655
Co0 O30 1.848815 1_545
Co0 O21 2.041456 1_555
Co0 O47 2.111620 1_545
Co0 O10 2.199240 1_645
Co0 O32 2.444695 1_656
Co1 O3 1.911207 1_655
Co1 O28 1.911281 1_555
Co1 O8 1.955032 1_655
Co1 O23 2.080362 1_555
Co1 O45 2.143951 1_555
Co1 O34 2.467635 1_656
Co2 O26 1.810727 1_555
Co2 O5 1.827403 1_565
Co2 O17 1.972916 1_565
Co2 O14 2.128221 1_555
Co2 O43 2.173710 1_555
Co2 O36 2.401098 1_566
Co3 O16 1.857379 1_565
Co3 O15 1.967316 1_555
Co3 O4 1.968089 1_565
Co3 O27 2.054737 1_555
Co3 O42 2.146547 1_555
Co3 O37 2.180500 1_565
Co4 O24 1.824791 1_555
Co4 O7 1.838286 1_555
Co4 O41 2.025232 1_555
Co4 O19 2.093382 1_555
Co4 O12 2.099001 1_555
Co4 O38 2.646687 1_556
Co5 O25 1.842680 1_555
Co5 O6 1.854451 1_555
Co5 O18 1.955935 1_555
Co5 O13 2.049503 1_555
Co5 O40 2.114113 1_555
Co5 O39 2.299148 1_555
Co6 O10 1.824422 1_555
Co6 O19 1.824914 1_555
Co6 O3 2.014238 1_555
Co6 O59 2.066444 1_555
Co6 O26 2.157481 1_555
Co6 O50 2.616031 1_556
Co7 O2 1.861406 1_555
Co7 O27 1.871485 1_555
Co7 O11 1.956095 1_555
Co7 O18 2.011777 1_555
Co7 O51 2.191036 1_555
Co7 O58 2.217183 1_555
Co8 O21 1.812153 1_555
Co8 O12 1.824095 1_555
Co8 O28 2.013594 1_555
Co8 O61 2.072405 1_555
Co8 O5 2.167701 1_555
Co8 O52 2.595691 1_556
Co9 O20 1.836956 1_555
Co9 O13 1.862793 1_555
Co9 O29 1.963715 1_555
Co9 O4 2.027514 1_555
Co9 O53 2.151916 1_555
Co9 O60 2.254563 1_555
Co10 O14 1.816916 1_555
Co10 O23 1.836991 1_555
Co10 O7 2.093773 1_555
Co10 O30 2.141322 1_555
Co10 O63 2.169331 1_555
Co10 O54 2.323333 1_556
Co11 O22 1.858016 1_555
Co11 O15 1.952787 1_555
Co11 O31 1.964672 1_555
Co11 O62 2.046830 1_555
Co11 O6 2.151774 1_555
Co11 O55 2.274071 1_555
Cu0 O0 1.969891 1_555
Cu0 O11 1.976284 1_545
Cu0 O31 1.985812 1_445
Cu0 O20 2.044737 1_455
Cu0 O33 2.131695 1_555
Cu0 O46 2.238676 1_445
Cu1 O9 1.982830 1_555
Cu1 O29 1.991129 1_455
Cu1 O2 2.067450 1_555
Cu1 O22 2.072762 1_455
Cu1 O44 2.134083 1_455
Cu1 O35 2.187331 1_555
Cu2 O17 1.947003 1_555
Cu2 O8 1.954447 1_555
Cu2 O24 2.117857 1_555
Cu2 O1 2.124971 1_555
Cu2 O57 2.205580 1_555
Cu2 O48 2.434635 1_556
Cu3 O9 1.959376 1_555
Cu3 O0 1.977392 1_555
Cu3 O16 2.047048 1_555
Cu3 O25 2.058811 1_555
Cu3 O49 2.175054 1_555
Cu3 O56 2.181045 1_555
Cu4 O56 1.847957 1_555
Cu4 O32 1.856875 1_555
Cu4 O68 1.870028 1_455
Cu4 O74 1.927447 1_545
Cu5 O33 1.845820 1_555
Cu5 O57 1.855475 1_555
Cu5 O69 1.872535 1_455
Cu5 O75 1.908973 1_545
Cu6 O34 1.838173 1_555
Cu6 O70 1.845166 1_455
Cu6 O58 1.847969 1_555
Cu6 O72 1.941488 1_555
Cu7 O71 1.854819 1_455
Cu7 O35 1.855429 1_555
Cu7 O59 1.876314 1_555
Cu7 O73 1.959470 1_555
Cu8 O60 1.841267 1_555
Cu8 O64 1.842268 1_555
Cu8 O36 1.856099 1_555
Cu8 O78 1.946335 1_545
Cu9 O37 1.848837 1_555
Cu9 O65 1.850772 1_555
Cu9 O61 1.876612 1_555
Cu9 O79 1.951348 1_545
Cu10 O38 1.825329 1_555
Cu10 O62 1.860162 1_555
Cu10 O66 1.869207 1_555
Cu10 O76 1.942435 1_555
Cu11 O39 1.833636 1_555
Cu11 O67 1.863470 1_555
Cu11 O63 1.873249 1_555
Cu11 O77 1.940407 1_555
Cu12 O48 1.836865 1_555
Cu12 O72 1.847890 1_555
Cu12 O40 1.857695 1_555
Cu12 O66 1.920326 1_555
Cu13 O49 1.848139 1_555
Cu13 O73 1.854407 1_555
Cu13 O41 1.884109 1_555
Cu13 O67 1.937749 1_555
Cu14 O50 1.824979 1_555
Cu14 O42 1.849970 1_555
Cu14 O74 1.865211 1_555
Cu14 O64 1.922778 1_565
Cu15 O51 1.839078 1_555
Cu15 O43 1.867536 1_555
Cu15 O75 1.876084 1_555
Cu15 O65 1.966733 1_565
Cu16 O52 1.828793 1_555
Cu16 O44 1.848455 1_555
Cu16 O76 1.848836 1_555
Cu16 O70 1.919272 1_555
Cu17 O53 1.843914 1_555
Cu17 O45 1.856002 1_555
Cu17 O77 1.877538 1_555
Cu17 O71 1.928829 1_555
Cu18 O78 1.839107 1_555
Cu18 O46 1.846803 1_555
Cu18 O54 1.870262 1_555
Cu18 O68 1.923285 1_565
Cu19 O79 1.844991 1_555
Cu19 O55 1.849419 1_555
Cu19 O47 1.885085 1_555
Cu19 O69 1.938906 1_565
O0 Sr21 2.554514 1_455
O0 Sr6 2.586308 1_545
O0 Sr0 2.658668 1_555
O0 Sr12 2.660274 1_555
O1 Sr22 2.611743 1_455
O1 Sr11 2.668028 1_556
O2 Sr23 2.586884 1_455
O2 Sr4 2.620175 1_555
O2 Sr13 2.677507 1_555
O2 Sr1 2.727281 1_555
O3 Sr5 2.626686 1_555
O4 Sr9 2.563671 1_545
O4 Sr17 2.584522 1_555
O4 Sr2 2.675907 1_555
O4 Sr14 2.701342 1_555
O5 Sr10 2.593416 1_545
O5 Sr18 2.636657 1_555
O6 Sr19 2.617866 1_555
O6 Sr7 2.633692 1_555
O6 Sr3 2.658747 1_555
O6 Sr16 2.682678 1_555
O7 Sr20 2.634518 1_555
O7 Sr8 2.665061 1_555
O7 Sr15 2.738706 1_556
O8 Sr22 2.610034 1_455
O8 Sr11 2.612488 1_556
O8 Sr5 2.662315 1_555
O9 Sr1 2.575391 1_555
O9 Sr12 2.594569 1_555
O9 Sr21 2.660084 1_455
O9 Sr4 2.667562 1_555
O11 Sr13 2.572130 1_555
O11 Sr0 2.585641 1_565
O11 Sr23 2.668755 1_455
O11 Sr6 2.706564 1_555
O12 Sr18 2.665898 1_555
O12 Sr8 2.712124 1_555
O13 Sr14 2.613686 1_555
O13 Sr3 2.646137 1_555
O13 Sr17 2.687975 1_555
O13 Sr7 2.705835 1_555
O14 Sr20 2.650046 1_555
O14 Sr15 2.665048 1_556
O14 Sr10 2.730715 1_555
O15 Sr16 2.582805 1_555
O15 Sr2 2.665061 1_565
O15 Sr19 2.680146 1_555
O15 Sr9 2.811797 1_555
O16 Sr17 2.609733 1_555
O16 Sr6 2.624753 1_545
O16 Sr0 2.691497 1_555
O16 Sr14 2.739344 1_555
O17 Sr18 2.605279 1_555
O18 Sr4 2.586342 1_555
O18 Sr19 2.593442 1_555
O18 Sr1 2.654261 1_555
O18 Sr16 2.699647 1_555
O19 Sr20 2.656177 1_555
O19 Sr5 2.699915 1_555
O19 Sr15 2.737423 1_556
O20 Sr9 2.612114 1_545
O20 Sr21 2.613366 1_555
O20 Sr2 2.697878 1_555
O20 Sr12 2.706634 1_655
O21 Sr10 2.665676 1_545
O21 Sr22 2.693219 1_555
O21 Sr11 2.789212 1_656
O22 Sr7 2.638251 1_555
O22 Sr3 2.641986 1_555
O22 Sr23 2.645863 1_555
O22 Sr13 2.686159 1_655
O23 Sr8 2.622705 1_555
O24 Sr5 2.652522 1_555
O24 Sr18 2.678829 1_555
O25 Sr14 2.606928 1_555
O25 Sr1 2.613457 1_555
O25 Sr17 2.662976 1_555
O25 Sr4 2.775964 1_555
O26 Sr20 2.647267 1_555
O26 Sr15 2.670316 1_556
O27 Sr16 2.614650 1_555
O27 Sr0 2.642886 1_565
O27 Sr19 2.687007 1_555
O27 Sr6 2.756987 1_555
O28 Sr8 2.609356 1_555
O28 Sr22 2.654505 1_555
O28 Sr11 2.678283 1_656
O29 Sr3 2.546384 1_555
O29 Sr12 2.584733 1_655
O29 Sr7 2.658860 1_555
O29 Sr21 2.722233 1_555
O30 Sr10 2.664701 1_555
O31 Sr2 2.535869 1_565
O31 Sr13 2.602920 1_655
O31 Sr9 2.672648 1_555
O31 Sr23 2.681559 1_555
O32 Sr11 2.667535 1_555
O33 Sr12 2.590222 1_555
O33 Sr0 2.758593 1_555
O33 Sr2 2.815240 1_455
O33 Sr13 3.033512 1_545
O34 Sr11 2.826433 1_555
O35 Sr13 2.611185 1_555
O35 Sr1 2.711829 1_555
O35 Sr3 2.962732 1_455
O35 Sr12 3.002719 1_555
O36 Sr15 2.888796 1_545
O37 Sr14 2.600807 1_555
O37 Sr2 2.724110 1_555
O37 Sr0 2.977332 1_555
O37 Sr16 3.050347 1_545
O38 Sr15 2.604647 1_555
O39 Sr16 2.598487 1_555
O39 Sr3 2.723378 1_555
O39 Sr1 2.912233 1_555
O39 Sr14 2.988541 1_555
O40 Sr17 2.567672 1_555
O40 Sr7 2.790322 1_555
O40 Sr4 2.900829 1_555
O40 Sr19 3.070976 1_555
O41 Sr18 2.641769 1_555
O41 Sr8 2.720162 1_555
O41 Sr5 2.987615 1_555
O41 Sr20 3.017965 1_555
O42 Sr19 2.554265 1_555
O42 Sr9 2.766378 1_555
O42 Sr6 2.939267 1_555
O42 Sr17 3.025059 1_565
O43 Sr20 2.606665 1_555
O43 Sr10 2.707897 1_555
O43 Sr18 2.970168 1_565
O44 Sr21 2.572040 1_555
O44 Sr4 2.715923 1_655
O44 Sr7 2.858099 1_555
O44 Sr23 3.079016 1_555
O45 Sr22 2.607647 1_555
O45 Sr5 2.709896 1_655
O45 Sr8 2.862808 1_555
O46 Sr23 2.551705 1_555
O46 Sr6 2.749484 1_655
O46 Sr9 2.839293 1_555
O46 Sr21 3.040933 1_565
O47 Sr10 2.771138 1_555
O47 Sr22 2.890480 1_565
O48 Sr11 2.787300 1_555
O49 Sr0 2.645594 1_555
O49 Sr14 2.775257 1_555
O49 Sr12 2.897064 1_555
O49 Sr1 2.960128 1_555
O50 Sr15 2.702151 1_555
O51 Sr1 2.588849 1_555
O51 Sr16 2.678467 1_555
O51 Sr13 2.976515 1_555
O51 Sr0 3.052863 1_565
O52 Sr11 2.762158 1_655
O53 Sr2 2.565196 1_555
O53 Sr14 2.746167 1_555
O53 Sr12 2.858521 1_655
O53 Sr3 3.052388 1_555
O54 Sr15 2.818186 1_555
O55 Sr3 2.625287 1_555
O55 Sr13 2.762818 1_655
O55 Sr16 2.881377 1_555
O55 Sr2 2.999344 1_565
O56 Sr4 2.597756 1_555
O56 Sr17 2.722844 1_555
O56 Sr21 2.842257 1_455
O56 Sr6 2.982773 1_545
O57 Sr5 2.605667 1_555
O57 Sr18 2.740088 1_555
O57 Sr22 2.854173 1_455
O58 Sr6 2.598026 1_555
O58 Sr19 2.650965 1_555
O58 Sr23 2.983324 1_455
O58 Sr4 3.056074 1_555
O59 Sr20 2.739565 1_555
O59 Sr5 2.927268 1_555
O60 Sr7 2.551706 1_555
O60 Sr21 2.713500 1_555
O60 Sr9 2.993540 1_545
O60 Sr17 3.037116 1_555
O61 Sr8 2.609450 1_555
O61 Sr22 2.739997 1_555
O61 Sr18 2.963391 1_555
O61 Sr10 2.992632 1_545
O62 Sr9 2.586564 1_555
O62 Sr23 2.746130 1_555
O62 Sr19 2.903900 1_555
O62 Sr7 3.088106 1_555
O63 Sr10 2.625079 1_555
O63 Sr20 2.714154 1_555
O63 Sr8 3.002107 1_555
O64 Sr17 2.465161 1_555
O64 Sr9 3.229261 1_545
O65 Sr18 2.509671 1_555
O65 Sr0 2.523219 1_555
O66 Sr19 2.529791 1_555
O66 Sr7 3.250892 1_555
O67 Sr20 2.500916 1_555
O67 Sr1 2.503802 1_555
O68 Sr21 2.551136 1_555
O68 Sr6 3.178448 1_645
O69 Sr22 2.538622 1_555
O69 Sr2 2.541219 1_555
O70 Sr23 2.481807 1_555
O70 Sr4 3.247662 1_655
O71 Sr3 2.482088 1_555
O71 Sr12 3.216690 1_655
O72 Sr4 2.539798 1_555
O72 Sr11 2.581180 1_555
O73 Sr12 2.492261 1_555
O73 Sr5 2.520878 1_555
O74 Sr6 2.563805 1_555
O75 Sr13 2.510129 1_555
O75 Sr0 3.172960 1_565
O76 Sr7 2.528977 1_555
O77 Sr8 2.505138 1_555
O77 Sr14 2.555279 1_555
O78 Sr9 2.524541 1_555
O78 Sr15 2.544241 1_555
O79 Sr16 2.488789 1_555
O79 Sr10 2.507415 1_555
