# generated using pymatgen
data_Mg30CdSiO32
_symmetry_space_group_name_H-M   'P 1'
_cell_length_a   8.60471200
_cell_length_b   8.60471200
_cell_length_c   8.55911700
_cell_angle_alpha   90.00000000
_cell_angle_beta   90.00000000
_cell_angle_gamma   90.00000000
_symmetry_Int_Tables_number   1
_chemical_formula_structural   Mg30CdSiO32
_chemical_formula_sum   'Mg30 Cd1 Si1 O32'
_cell_volume   633.72616898
_cell_formula_units_Z   1
loop_
 _symmetry_equiv_pos_site_id
 _symmetry_equiv_pos_as_xyz
  1  'x, y, z'
loop_
 _atom_site_type_symbol
 _atom_site_label
 _atom_site_symmetry_multiplicity
 _atom_site_fract_x
 _atom_site_fract_y
 _atom_site_fract_z
 _atom_site_occupancy
  Mg  Mg0  1  0.50000000  0.00000000  0.00000000  1
  Mg  Mg1  1  0.50000000  0.00000000  0.50000000  1
  Mg  Mg2  1  0.00000000  0.50000000  0.00000000  1
  Mg  Mg3  1  0.00000000  0.50000000  0.50000000  1
  Mg  Mg4  1  0.50000000  0.50000000  0.00000000  1
  Mg  Mg5  1  0.50000000  0.50000000  0.50000000  1
  Mg  Mg6  1  0.25510900  0.00000000  0.24883200  1
  Mg  Mg7  1  0.25510900  0.00000000  0.75116800  1
  Mg  Mg8  1  0.74489100  0.00000000  0.24883200  1
  Mg  Mg9  1  0.74489100  0.00000000  0.75116800  1
  Mg  Mg10  1  0.25079800  0.50000000  0.24983300  1
  Mg  Mg11  1  0.25079800  0.50000000  0.75016700  1
  Mg  Mg12  1  0.74920200  0.50000000  0.24983300  1
  Mg  Mg13  1  0.74920200  0.50000000  0.75016700  1
  Mg  Mg14  1  0.00000000  0.25510900  0.24883200  1
  Mg  Mg15  1  0.00000000  0.25510900  0.75116800  1
  Mg  Mg16  1  0.50000000  0.25079800  0.24983300  1
  Mg  Mg17  1  0.50000000  0.25079800  0.75016700  1
  Mg  Mg18  1  0.00000000  0.74489100  0.24883200  1
  Mg  Mg19  1  0.00000000  0.74489100  0.75116800  1
  Mg  Mg20  1  0.50000000  0.74920200  0.24983300  1
  Mg  Mg21  1  0.50000000  0.74920200  0.75016700  1
  Mg  Mg22  1  0.25143700  0.25143700  0.00000000  1
  Mg  Mg23  1  0.25250200  0.25250200  0.50000000  1
  Mg  Mg24  1  0.74856300  0.25143700  0.00000000  1
  Mg  Mg25  1  0.74749800  0.25250200  0.50000000  1
  Mg  Mg26  1  0.25143700  0.74856300  0.00000000  1
  Mg  Mg27  1  0.25250200  0.74749800  0.50000000  1
  Mg  Mg28  1  0.74856300  0.74856300  0.00000000  1
  Mg  Mg29  1  0.74749800  0.74749800  0.50000000  1
  Cd  Cd0  1  0.00000000  0.00000000  0.50000000  1
  Si  Si0  1  0.00000000  0.00000000  0.00000000  1
  O  O0  1  0.00000000  0.26132300  0.00000000  1
  O  O1  1  0.00000000  0.26519400  0.50000000  1
  O  O2  1  0.50000000  0.25204000  0.00000000  1
  O  O3  1  0.50000000  0.25257600  0.50000000  1
  O  O4  1  0.00000000  0.73867700  0.00000000  1
  O  O5  1  0.00000000  0.73480600  0.50000000  1
  O  O6  1  0.50000000  0.74796000  0.00000000  1
  O  O7  1  0.50000000  0.74742400  0.50000000  1
  O  O8  1  0.24933100  0.24933100  0.24998200  1
  O  O9  1  0.24933100  0.24933100  0.75001800  1
  O  O10  1  0.75066900  0.24933100  0.24998200  1
  O  O11  1  0.75066900  0.24933100  0.75001800  1
  O  O12  1  0.24933100  0.75066900  0.24998200  1
  O  O13  1  0.24933100  0.75066900  0.75001800  1
  O  O14  1  0.75066900  0.75066900  0.24998200  1
  O  O15  1  0.75066900  0.75066900  0.75001800  1
  O  O16  1  0.00000000  0.00000000  0.23675900  1
  O  O17  1  0.00000000  0.00000000  0.76324100  1
  O  O18  1  0.50000000  0.00000000  0.24929300  1
  O  O19  1  0.50000000  0.00000000  0.75070700  1
  O  O20  1  0.00000000  0.50000000  0.24929300  1
  O  O21  1  0.00000000  0.50000000  0.75070700  1
  O  O22  1  0.50000000  0.50000000  0.24969300  1
  O  O23  1  0.50000000  0.50000000  0.75030700  1
  O  O24  1  0.26132300  0.00000000  0.00000000  1
  O  O25  1  0.26519400  0.00000000  0.50000000  1
  O  O26  1  0.73867700  0.00000000  0.00000000  1
  O  O27  1  0.73480600  0.00000000  0.50000000  1
  O  O28  1  0.25204000  0.50000000  0.00000000  1
  O  O29  1  0.25257600  0.50000000  0.50000000  1
  O  O30  1  0.74796000  0.50000000  0.00000000  1
  O  O31  1  0.74742400  0.50000000  0.50000000  1
loop_
_geom_bond_atom_site_label_1
_geom_bond_atom_site_label_2
_geom_bond_distance
_geom_bond_site_symmetry_2
Mg0 O24 2.053747 1_555
Mg0 O26 2.053747 1_555
Mg0 O19 2.133728 1_554
Mg0 O18 2.133728 1_555
Mg0 O2 2.168732 1_555
Mg0 O6 2.168732 1_545
Mg1 O27 2.020438 1_555
Mg1 O25 2.020438 1_555
Mg1 O18 2.145831 1_555
Mg1 O19 2.145831 1_555
Mg1 O7 2.173344 1_545
Mg1 O3 2.173344 1_555
Mg2 O0 2.053747 1_555
Mg2 O4 2.053747 1_555
Mg2 O20 2.133728 1_555
Mg2 O21 2.133728 1_554
Mg2 O28 2.168732 1_555
Mg2 O30 2.168732 1_455
Mg3 O5 2.020438 1_555
Mg3 O1 2.020438 1_555
Mg3 O21 2.145831 1_555
Mg3 O20 2.145831 1_555
Mg3 O31 2.173344 1_455
Mg3 O29 2.173344 1_555
Mg4 O6 2.133624 1_555
Mg4 O30 2.133624 1_555
Mg4 O2 2.133624 1_555
Mg4 O28 2.133624 1_555
Mg4 O22 2.137152 1_555
Mg4 O23 2.137152 1_554
Mg5 O7 2.129012 1_555
Mg5 O29 2.129012 1_555
Mg5 O31 2.129012 1_555
Mg5 O3 2.129012 1_555
Mg5 O23 2.142407 1_555
Mg5 O22 2.142407 1_555
Mg6 O18 2.107220 1_555
Mg6 O24 2.130453 1_555
Mg6 O12 2.146020 1_545
Mg6 O8 2.146020 1_555
Mg6 O25 2.151527 1_555
Mg6 O16 2.197570 1_555
Mg7 O19 2.107220 1_555
Mg7 O24 2.130453 1_556
Mg7 O13 2.146020 1_545
Mg7 O9 2.146020 1_555
Mg7 O25 2.151527 1_555
Mg7 O17 2.197570 1_555
Mg8 O18 2.107220 1_555
Mg8 O26 2.130453 1_555
Mg8 O10 2.146020 1_555
Mg8 O14 2.146020 1_545
Mg8 O27 2.151527 1_555
Mg8 O16 2.197570 1_655
Mg9 O19 2.107220 1_555
Mg9 O26 2.130453 1_556
Mg9 O11 2.146020 1_555
Mg9 O15 2.146020 1_545
Mg9 O27 2.151527 1_555
Mg9 O17 2.197570 1_655
Mg10 O28 2.138377 1_555
Mg10 O29 2.141263 1_555
Mg10 O22 2.144312 1_555
Mg10 O12 2.156972 1_555
Mg10 O8 2.156972 1_555
Mg10 O20 2.158050 1_555
Mg11 O28 2.138377 1_556
Mg11 O29 2.141263 1_555
Mg11 O23 2.144312 1_555
Mg11 O9 2.156972 1_555
Mg11 O13 2.156972 1_555
Mg11 O21 2.158050 1_555
Mg12 O30 2.138377 1_555
Mg12 O31 2.141263 1_555
Mg12 O22 2.144312 1_555
Mg12 O10 2.156972 1_555
Mg12 O14 2.156972 1_555
Mg12 O20 2.158050 1_655
Mg13 O30 2.138377 1_556
Mg13 O31 2.141263 1_555
Mg13 O23 2.144312 1_555
Mg13 O15 2.156972 1_555
Mg13 O11 2.156972 1_555
Mg13 O21 2.158050 1_655
Mg14 O20 2.107220 1_555
Mg14 O0 2.130453 1_555
Mg14 O8 2.146020 1_555
Mg14 O10 2.146020 1_455
Mg14 O1 2.151527 1_555
Mg14 O16 2.197570 1_555
Mg15 O21 2.107220 1_555
Mg15 O0 2.130453 1_556
Mg15 O11 2.146020 1_455
Mg15 O9 2.146020 1_555
Mg15 O1 2.151527 1_555
Mg15 O17 2.197570 1_555
Mg16 O2 2.138377 1_555
Mg16 O3 2.141263 1_555
Mg16 O22 2.144312 1_555
Mg16 O10 2.156972 1_555
Mg16 O8 2.156972 1_555
Mg16 O18 2.158050 1_555
Mg17 O2 2.138377 1_556
Mg17 O3 2.141263 1_555
Mg17 O23 2.144312 1_555
Mg17 O9 2.156972 1_555
Mg17 O11 2.156972 1_555
Mg17 O19 2.158050 1_555
Mg18 O20 2.107220 1_555
Mg18 O4 2.130453 1_555
Mg18 O12 2.146020 1_555
Mg18 O14 2.146020 1_455
Mg18 O5 2.151527 1_555
Mg18 O16 2.197570 1_565
Mg19 O21 2.107220 1_555
Mg19 O4 2.130453 1_556
Mg19 O15 2.146020 1_455
Mg19 O13 2.146020 1_555
Mg19 O5 2.151527 1_555
Mg19 O17 2.197570 1_565
Mg20 O6 2.138377 1_555
Mg20 O7 2.141263 1_555
Mg20 O22 2.144312 1_555
Mg20 O12 2.156972 1_555
Mg20 O14 2.156972 1_555
Mg20 O18 2.158050 1_565
Mg21 O6 2.138377 1_556
Mg21 O7 2.141263 1_555
Mg21 O23 2.144312 1_555
Mg21 O15 2.156972 1_555
Mg21 O13 2.156972 1_555
Mg21 O19 2.158050 1_565
Mg22 O2 2.138819 1_555
Mg22 O28 2.138819 1_555
Mg22 O8 2.139779 1_555
Mg22 O9 2.139779 1_554
Mg22 O24 2.165215 1_555
Mg22 O0 2.165215 1_555
Mg23 O29 2.129649 1_555
Mg23 O3 2.129649 1_555
Mg23 O8 2.140281 1_555
Mg23 O9 2.140281 1_555
Mg23 O25 2.175450 1_555
Mg23 O1 2.175450 1_555
Mg24 O2 2.138819 1_555
Mg24 O30 2.138819 1_555
Mg24 O10 2.139779 1_555
Mg24 O11 2.139779 1_554
Mg24 O0 2.165215 1_655
Mg24 O26 2.165215 1_555
Mg25 O31 2.129649 1_555
Mg25 O3 2.129649 1_555
Mg25 O10 2.140281 1_555
Mg25 O11 2.140281 1_555
Mg25 O1 2.175450 1_655
Mg25 O27 2.175450 1_555
Mg26 O28 2.138819 1_555
Mg26 O6 2.138819 1_555
Mg26 O13 2.139779 1_554
Mg26 O12 2.139779 1_555
Mg26 O24 2.165215 1_565
Mg26 O4 2.165215 1_555
Mg27 O29 2.129649 1_555
Mg27 O7 2.129649 1_555
Mg27 O13 2.140281 1_555
Mg27 O12 2.140281 1_555
Mg27 O25 2.175450 1_565
Mg27 O5 2.175450 1_555
Mg28 O6 2.138819 1_555
Mg28 O30 2.138819 1_555
Mg28 O14 2.139779 1_555
Mg28 O15 2.139779 1_554
Mg28 O26 2.165215 1_565
Mg28 O4 2.165215 1_655
Mg29 O31 2.129649 1_555
Mg29 O7 2.129649 1_555
Mg29 O14 2.140281 1_555
Mg29 O15 2.140281 1_555
Mg29 O27 2.175450 1_565
Mg29 O5 2.175450 1_655
Cd0 O17 2.253111 1_555
Cd0 O16 2.253111 1_555
Cd0 O25 2.281918 1_555
Cd0 O1 2.281918 1_555
Cd0 O5 2.281918 1_545
Cd0 O27 2.281918 1_455
O0 Si0 2.248609 1_555
O4 Si0 2.248609 1_565
O16 Si0 2.026448 1_555
O17 Si0 2.026448 1_556
O24 Si0 2.248609 1_555
O26 Si0 2.248609 1_655
