# generated using pymatgen
data_MgTa4Mn4Nb4O24
_symmetry_space_group_name_H-M   'P 1'
_cell_length_a   5.24456010
_cell_length_b   6.06495794
_cell_length_c   14.74726806
_cell_angle_alpha   90.33921419
_cell_angle_beta   85.20090949
_cell_angle_gamma   90.64892974
_symmetry_Int_Tables_number   1
_chemical_formula_structural   MgTa4Mn4Nb4O24
_chemical_formula_sum   'Mg1 Ta4 Mn4 Nb4 O24'
_cell_volume   467.40132654
_cell_formula_units_Z   1
loop_
 _symmetry_equiv_pos_site_id
 _symmetry_equiv_pos_as_xyz
  1  'x, y, z'
loop_
 _atom_site_type_symbol
 _atom_site_label
 _atom_site_symmetry_multiplicity
 _atom_site_fract_x
 _atom_site_fract_y
 _atom_site_fract_z
 _atom_site_occupancy
  Mg  Mg0  1  0.90177225  0.14728981  0.95220537  1
  Ta  Ta0  1  0.32126349  0.66712703  0.17224718  1
  Ta  Ta1  1  0.79271450  0.82813329  0.34284915  1
  Ta  Ta2  1  0.69431082  0.83745366  0.65613562  1
  Ta  Ta3  1  0.17597280  0.67436069  0.82881237  1
  Mn  Mn0  1  0.36627504  0.15287868  0.04627235  1
  Mn  Mn1  1  0.74387160  0.33376105  0.49894032  1
  Mn  Mn2  1  0.75269287  0.65656031  0.00069134  1
  Mn  Mn3  1  0.24560888  0.66650981  0.49932555  1
  Nb  Nb0  1  0.64514441  0.35792763  0.81316751  1
  Nb  Nb1  1  0.18769826  0.17138350  0.65355029  1
  Nb  Nb2  1  0.29977247  0.16681248  0.34367439  1
  Nb  Nb3  1  0.83752669  0.33733913  0.18045469  1
  O  O0  1  0.86151343  0.14274019  0.73985335  1
  O  O1  1  0.32279360  0.38945892  0.74936021  1
  O  O2  1  0.16287494  0.37330130  0.24622037  1
  O  O3  1  0.63155872  0.13007653  0.25635289  1
  O  O4  1  0.13528738  0.86591673  0.25869063  1
  O  O5  1  0.64311482  0.63031627  0.24946996  1
  O  O6  1  0.84424942  0.64324451  0.74943054  1
  O  O7  1  0.35496018  0.87530944  0.73965788  1
  O  O8  1  0.54459805  0.17085359  0.91511517  1
  O  O9  1  0.07484825  0.37588619  0.57544515  1
  O  O10  1  0.41909115  0.37493871  0.42051816  1
  O  O11  1  0.97995743  0.16103020  0.07942358  1
  O  O12  1  0.49257665  0.85825823  0.08704621  1
  O  O13  1  0.91415448  0.62188998  0.41827916  1
  O  O14  1  0.57513281  0.62615037  0.58026304  1
  O  O15  1  0.01581973  0.86407317  0.91597707  1
  O  O16  1  0.95682181  0.43241451  0.89596458  1
  O  O17  1  0.54481525  0.09955032  0.59703635  1
  O  O18  1  0.94378367  0.09545146  0.40023933  1
  O  O19  1  0.54169925  0.42114291  0.10056418  1
  O  O20  1  0.03018938  0.60472622  0.10639446  1
  O  O21  1  0.45692428  0.89084596  0.40324442  1
  O  O22  1  0.03252660  0.89435760  0.59406407  1
  O  O23  1  0.46858464  0.61677962  0.89288413  1
loop_
_geom_bond_atom_site_label_1
_geom_bond_atom_site_label_2
_geom_bond_distance
_geom_bond_site_symmetry_2
Mg0 O15 1.884839 1_645
Mg0 O16 1.930605 1_555
Mg0 O11 1.954740 1_556
Mg0 O8 2.001750 1_555
Mn0 O12 2.024693 1_545
Mn0 O11 2.045152 1_455
Mn0 O19 2.051483 1_555
Mn0 O8 2.079714 1_554
Mn1 O10 2.154971 1_555
Mn1 O9 2.159982 1_655
Mn1 O17 2.222262 1_555
Mn1 O18 2.249666 1_555
Mn1 O13 2.253391 1_555
Mn1 O14 2.280115 1_555
Mn2 O12 2.169776 1_555
Mn2 O15 2.177129 1_654
Mn2 O20 2.245571 1_655
Mn2 O16 2.260730 1_554
Mn2 O19 2.269096 1_555
Mn2 O23 2.278098 1_554
Mn3 O21 2.193868 1_555
Mn3 O14 2.197616 1_555
Mn3 O13 2.203798 1_455
Mn3 O22 2.204841 1_555
Mn3 O9 2.233485 1_555
Mn3 O10 2.267333 1_555
Nb0 O8 1.923468 1_555
Nb0 O0 1.992858 1_555
Nb0 O1 2.013888 1_555
Nb0 O23 2.129102 1_555
Nb0 O16 2.162790 1_555
Nb0 O6 2.186869 1_555
Nb1 O9 1.833840 1_555
Nb1 O17 2.035986 1_555
Nb1 O0 2.051363 1_455
Nb1 O22 2.079857 1_545
Nb1 O1 2.090897 1_555
Nb1 O7 2.419825 1_545
Nb2 O10 1.831116 1_555
Nb2 O18 2.023427 1_455
Nb2 O2 2.088939 1_555
Nb2 O3 2.089558 1_555
Nb2 O21 2.102905 1_545
Nb2 O4 2.400702 1_545
Nb3 O11 1.932436 1_555
Nb3 O3 1.945099 1_555
Nb3 O2 2.040996 1_655
Nb3 O19 2.093877 1_555
Nb3 O20 2.154745 1_655
Nb3 O5 2.253624 1_555
O0 Ta2 2.416353 1_545
O1 Ta3 2.192419 1_555
O2 Ta0 2.212154 1_555
O3 Ta1 2.436829 1_545
O4 Ta0 1.957152 1_555
O4 Ta1 2.107541 1_455
O5 Ta1 2.022683 1_555
O5 Ta0 2.128191 1_555
O6 Ta2 2.029752 1_555
O6 Ta3 2.182546 1_655
O7 Ta3 1.970209 1_555
O7 Ta2 2.091999 1_555
O12 Ta0 1.880025 1_555
O13 Ta1 1.833236 1_555
O14 Ta2 1.834910 1_555
O15 Ta3 1.872283 1_555
O16 Ta3 2.059981 1_655
O17 Ta2 2.014978 1_545
O18 Ta1 2.009830 1_545
O19 Ta0 2.120302 1_555
O20 Ta0 1.909804 1_555
O21 Ta1 1.946287 1_555
O22 Ta2 1.954884 1_455
O23 Ta3 1.904861 1_555
