# generated using pymatgen
data_Nd25Ni49P33
_symmetry_space_group_name_H-M   'P 1'
_cell_length_a   3.98461445
_cell_length_b   22.35928388
_cell_length_c   22.35928388
_cell_angle_alpha   119.99999835
_cell_angle_beta   90.00000000
_cell_angle_gamma   90.00000000
_symmetry_Int_Tables_number   1
_chemical_formula_structural   Nd25Ni49P33
_chemical_formula_sum   'Nd25 Ni49 P33'
_cell_volume   1725.17328529
_cell_formula_units_Z   1
loop_
 _symmetry_equiv_pos_site_id
 _symmetry_equiv_pos_as_xyz
  1  'x, y, z'
loop_
 _atom_site_type_symbol
 _atom_site_label
 _atom_site_symmetry_multiplicity
 _atom_site_fract_x
 _atom_site_fract_y
 _atom_site_fract_z
 _atom_site_occupancy
  Nd  Nd0  1  0.50000000  0.57266563  0.60853258  1
  Nd  Nd1  1  0.50000000  0.03586695  0.42733437  1
  Nd  Nd2  1  0.50000000  0.03586695  0.60853258  1
  Nd  Nd3  1  0.50000000  0.39146742  0.96413305  1
  Nd  Nd4  1  0.50000000  0.39146742  0.42733437  1
  Nd  Nd5  1  0.50000000  0.57266563  0.96413305  1
  Nd  Nd6  1  0.00000000  0.82244249  0.64488499  1
  Nd  Nd7  1  -0.00000000  0.82244249  0.17755751  1
  Nd  Nd8  1  0.00000000  0.35511501  0.17755751  1
  Nd  Nd9  1  0.50000000  0.57438970  0.14877940  1
  Nd  Nd10  1  0.50000000  0.57438970  0.42561030  1
  Nd  Nd11  1  0.50000000  0.85122060  0.42561030  1
  Nd  Nd12  1  -0.00000000  0.00095397  0.18008369  1
  Nd  Nd13  1  0.00000000  0.17912972  0.99904603  1
  Nd  Nd14  1  -0.00000000  0.17912972  0.18008369  1
  Nd  Nd15  1  -0.00000000  0.81991631  0.82087028  1
  Nd  Nd16  1  -0.00000000  0.81991631  0.99904603  1
  Nd  Nd17  1  0.00000000  0.00095397  0.82087028  1
  Nd  Nd18  1  -0.00000000  0.00000000  0.00000000  1
  Nd  Nd19  1  0.50000000  0.21349875  0.42699750  1
  Nd  Nd20  1  0.50000000  0.21349875  0.78650125  1
  Nd  Nd21  1  0.50000000  0.57300250  0.78650125  1
  Nd  Nd22  1  0.50000000  0.39297448  0.78594897  1
  Nd  Nd23  1  0.50000000  0.39297448  0.60702552  1
  Nd  Nd24  1  0.50000000  0.21405103  0.60702552  1
  Ni  Ni0  1  0.50000000  0.88512885  0.30377619  1
  Ni  Ni1  1  0.50000000  0.41864735  0.11487115  1
  Ni  Ni2  1  0.50000000  0.41864735  0.30377619  1
  Ni  Ni3  1  0.50000000  0.69622381  0.58135265  1
  Ni  Ni4  1  0.50000000  0.69622381  0.11487115  1
  Ni  Ni5  1  0.50000000  0.88512885  0.58135265  1
  Ni  Ni6  1  0.00000000  0.80468053  0.30371866  1
  Ni  Ni7  1  -0.00000000  0.49903813  0.19531947  1
  Ni  Ni8  1  0.00000000  0.49903813  0.30371866  1
  Ni  Ni9  1  0.00000000  0.69628134  0.50096187  1
  Ni  Ni10  1  0.00000000  0.69628134  0.19531947  1
  Ni  Ni11  1  -0.00000000  0.80468053  0.50096187  1
  Ni  Ni12  1  0.50000000  0.69540978  0.75985860  1
  Ni  Ni13  1  0.50000000  0.06444883  0.30459022  1
  Ni  Ni14  1  0.50000000  0.06444883  0.75985860  1
  Ni  Ni15  1  0.50000000  0.24014140  0.93555117  1
  Ni  Ni16  1  0.50000000  0.24014140  0.30459022  1
  Ni  Ni17  1  0.50000000  0.69540978  0.93555117  1
  Ni  Ni18  1  -0.00000000  0.51245905  0.02491810  1
  Ni  Ni19  1  0.00000000  0.51245905  0.48754095  1
  Ni  Ni20  1  -0.00000000  0.97508190  0.48754095  1
  Ni  Ni21  1  -0.00000000  0.63100638  0.26201275  1
  Ni  Ni22  1  0.00000000  0.63100638  0.36899362  1
  Ni  Ni23  1  -0.00000000  0.73798725  0.36899362  1
  Ni  Ni24  1  0.50000000  0.06019394  0.12038789  1
  Ni  Ni25  1  0.50000000  0.06019394  0.93980606  1
  Ni  Ni26  1  0.50000000  0.87961211  0.93980606  1
  Ni  Ni27  1  0.50000000  0.70750110  0.41500219  1
  Ni  Ni28  1  0.50000000  0.70750110  0.29249890  1
  Ni  Ni29  1  0.50000000  0.58499781  0.29249890  1
  Ni  Ni30  1  -0.00000000  0.33333300  0.66666700  1
  Ni  Ni31  1  0.00000000  0.97367080  0.30293720  1
  Ni  Ni32  1  -0.00000000  0.32926640  0.02632920  1
  Ni  Ni33  1  -0.00000000  0.32926640  0.30293720  1
  Ni  Ni34  1  -0.00000000  0.69706280  0.67073360  1
  Ni  Ni35  1  0.00000000  0.69706280  0.02632920  1
  Ni  Ni36  1  -0.00000000  0.97367080  0.67073360  1
  Ni  Ni37  1  0.00000000  0.15104440  0.30208879  1
  Ni  Ni38  1  -0.00000000  0.15104440  0.84895560  1
  Ni  Ni39  1  0.00000000  0.69791121  0.84895560  1
  Ni  Ni40  1  0.50000000  0.88067140  0.76134280  1
  Ni  Ni41  1  0.50000000  0.88067140  0.11932860  1
  Ni  Ni42  1  0.50000000  0.23865720  0.11932860  1
  Ni  Ni43  1  -0.00000000  0.51277830  0.66720561  1
  Ni  Ni44  1  0.00000000  0.15442731  0.48722170  1
  Ni  Ni45  1  0.00000000  0.15442731  0.66720561  1
  Ni  Ni46  1  0.00000000  0.33279439  0.84557269  1
  Ni  Ni47  1  -0.00000000  0.33279439  0.48722170  1
  Ni  Ni48  1  0.00000000  0.51277830  0.84557269  1
  P  P0  1  0.50000000  0.76377806  0.52755612  1
  P  P1  1  0.50000000  0.76377806  0.23622194  1
  P  P2  1  0.50000000  0.47244388  0.23622194  1
  P  P3  1  -0.00000000  0.27372522  0.54745043  1
  P  P4  1  0.00000000  0.27372522  0.72627478  1
  P  P5  1  -0.00000000  0.45254957  0.72627478  1
  P  P6  1  0.00000000  0.45245407  0.90490814  1
  P  P7  1  -0.00000000  0.45245407  0.54754593  1
  P  P8  1  0.00000000  0.09509186  0.54754593  1
  P  P9  1  0.50000000  0.11928351  0.23856701  1
  P  P10  1  0.50000000  0.11928351  0.88071649  1
  P  P11  1  0.50000000  0.76143299  0.88071649  1
  P  P12  1  -0.00000000  0.63157696  0.72676512  1
  P  P13  1  0.00000000  0.09518816  0.36842304  1
  P  P14  1  0.00000000  0.09518816  0.72676512  1
  P  P15  1  0.00000000  0.27323488  0.90481184  1
  P  P16  1  -0.00000000  0.27323488  0.36842304  1
  P  P17  1  0.00000000  0.63157696  0.90481184  1
  P  P18  1  0.00000000  0.91947485  0.37018912  1
  P  P19  1  0.00000000  0.45071427  0.08052515  1
  P  P20  1  -0.00000000  0.45071427  0.37018912  1
  P  P21  1  -0.00000000  0.62981088  0.54928573  1
  P  P22  1  0.00000000  0.62981088  0.08052515  1
  P  P23  1  0.00000000  0.91947485  0.54928573  1
  P  P24  1  0.50000000  0.94058707  0.88117414  1
  P  P25  1  0.50000000  0.94058707  0.05941293  1
  P  P26  1  0.50000000  0.11882586  0.05941293  1
  P  P27  1  0.50000000  0.94194692  0.23850196  1
  P  P28  1  0.50000000  0.29655504  0.05805308  1
  P  P29  1  0.50000000  0.29655504  0.23850196  1
  P  P30  1  0.50000000  0.76149804  0.70344496  1
  P  P31  1  0.50000000  0.76149804  0.05805308  1
  P  P32  1  0.50000000  0.94194692  0.70344496  1
loop_
_geom_bond_atom_site_label_1
_geom_bond_atom_site_label_2
_geom_bond_distance
_geom_bond_site_symmetry_2
Nd0 P21 3.008218 1_655
Nd0 P21 3.008218 1_555
Nd0 P12 3.034923 1_555
Nd0 P12 3.034923 1_655
Nd0 Ni43 3.039741 1_555
Nd0 Ni43 3.039741 1_655
Nd0 P7 3.063994 1_555
Nd0 P7 3.063994 1_655
Nd0 Ni19 3.075428 1_655
Nd0 Ni19 3.075428 1_555
Nd0 Ni3 3.111371 1_555
Nd0 Ni12 3.113590 1_555
Nd0 Ni34 3.125949 1_555
Nd0 Ni34 3.125949 1_655
Nd1 P18 3.008218 1_545
Nd1 P18 3.008218 1_645
Nd1 P13 3.034923 1_655
Nd1 P13 3.034923 1_555
Nd1 Ni44 3.039741 1_555
Nd1 Ni44 3.039741 1_655
Nd1 P8 3.063994 1_555
Nd1 P8 3.063994 1_655
Nd1 Ni20 3.075428 1_645
Nd1 Ni20 3.075428 1_545
Nd1 Ni0 3.111371 1_545
Nd1 Ni13 3.113590 1_555
Nd1 Ni31 3.125949 1_645
Nd1 Ni31 3.125949 1_545
Nd2 P23 3.008218 1_645
Nd2 P23 3.008218 1_545
Nd2 P14 3.034923 1_655
Nd2 P14 3.034923 1_555
Nd2 Ni45 3.039741 1_655
Nd2 Ni45 3.039741 1_555
Nd2 P8 3.063994 1_555
Nd2 P8 3.063994 1_655
Nd2 Ni20 3.075428 1_645
Nd2 Ni20 3.075428 1_545
Nd2 Ni5 3.111371 1_545
Nd2 Ni14 3.113590 1_555
Nd2 Ni36 3.125949 1_545
Nd2 Ni36 3.125949 1_645
Nd3 P19 3.008218 1_556
Nd3 P19 3.008218 1_656
Nd3 P15 3.034923 1_655
Nd3 P15 3.034923 1_555
Nd3 Ni46 3.039741 1_555
Nd3 Ni46 3.039741 1_655
Nd3 P6 3.063994 1_655
Nd3 P6 3.063994 1_555
Nd3 Ni18 3.075428 1_556
Nd3 Ni18 3.075428 1_656
Nd3 Ni1 3.111371 1_556
Nd3 Ni15 3.113590 1_555
Nd3 Ni32 3.125949 1_656
Nd3 Ni32 3.125949 1_556
Nd4 P20 3.008218 1_555
Nd4 P20 3.008218 1_655
Nd4 P16 3.034923 1_655
Nd4 P16 3.034923 1_555
Nd4 Ni47 3.039741 1_555
Nd4 Ni47 3.039741 1_655
Nd4 P7 3.063994 1_555
Nd4 P7 3.063994 1_655
Nd4 Ni19 3.075428 1_655
Nd4 Ni19 3.075428 1_555
Nd4 Ni2 3.111371 1_555
Nd4 Ni16 3.113590 1_555
Nd4 Ni33 3.125949 1_555
Nd4 Ni33 3.125949 1_655
Nd5 P22 3.008218 1_556
Nd5 P22 3.008218 1_656
Nd5 P17 3.034923 1_555
Nd5 P17 3.034923 1_655
Nd5 Ni48 3.039741 1_555
Nd5 Ni48 3.039741 1_655
Nd5 P6 3.063994 1_655
Nd5 P6 3.063994 1_555
Nd5 Ni18 3.075428 1_556
Nd5 Ni18 3.075428 1_656
Nd5 Ni4 3.111371 1_556
Nd5 Ni17 3.113590 1_555
Nd5 Ni35 3.125949 1_556
Nd5 Ni35 3.125949 1_656
Nd6 Ni40 3.009080 1_555
Nd6 Ni40 3.009080 1_455
Nd6 P0 3.021741 1_455
Nd6 P0 3.021741 1_555
Nd6 Ni9 3.038971 1_555
Nd6 Ni11 3.038971 1_555
Nd6 P30 3.053657 1_455
Nd6 P30 3.053657 1_555
Nd6 P32 3.053657 1_455
Nd6 P32 3.053657 1_555
Nd6 Ni34 3.132623 1_555
Nd6 Ni36 3.132624 1_555
Nd6 Ni3 3.153223 1_555
Nd6 Ni3 3.153223 1_455
Nd6 Ni5 3.153223 1_555
Nd6 Ni5 3.153223 1_455
Nd7 Ni41 3.009080 1_555
Nd7 Ni41 3.009080 1_455
Nd7 P1 3.021741 1_455
Nd7 P1 3.021741 1_555
Nd7 Ni6 3.038971 1_555
Nd7 Ni10 3.038971 1_555
Nd7 P27 3.053657 1_555
Nd7 P27 3.053657 1_455
Nd7 P31 3.053657 1_555
Nd7 P31 3.053657 1_455
Nd7 Ni31 3.132624 1_555
Nd7 Ni35 3.132624 1_555
Nd7 Ni0 3.153223 1_455
Nd7 Ni0 3.153223 1_555
Nd7 Ni4 3.153223 1_455
Nd7 Ni4 3.153223 1_555
Nd8 Ni42 3.009080 1_455
Nd8 Ni42 3.009080 1_555
Nd8 P2 3.021741 1_455
Nd8 P2 3.021741 1_555
Nd8 Ni8 3.038971 1_555
Nd8 Ni7 3.038971 1_555
Nd8 P29 3.053657 1_555
Nd8 P29 3.053657 1_455
Nd8 P28 3.053657 1_555
Nd8 P28 3.053657 1_455
Nd8 Ni33 3.132623 1_555
Nd8 Ni32 3.132624 1_555
Nd8 Ni2 3.153223 1_555
Nd8 Ni2 3.153223 1_455
Nd8 Ni1 3.153223 1_555
Nd8 Ni1 3.153223 1_455
Nd9 Ni21 2.962577 1_555
Nd9 Ni21 2.962577 1_655
Nd9 Ni29 3.101680 1_555
Nd9 Ni28 3.101680 1_555
Nd9 Ni7 3.105468 1_555
Nd9 Ni7 3.105468 1_655
Nd9 Ni10 3.105468 1_655
Nd9 Ni10 3.105468 1_555
Nd9 Ni18 3.117961 1_655
Nd9 Ni18 3.117961 1_555
Nd9 P22 3.118495 1_555
Nd9 P22 3.118495 1_655
Nd9 P19 3.118495 1_655
Nd9 P19 3.118495 1_555
Nd9 Ni1 3.171907 1_555
Nd9 Ni4 3.171907 1_555
Nd10 Ni22 2.962577 1_655
Nd10 Ni22 2.962577 1_555
Nd10 Ni27 3.101680 1_555
Nd10 Ni29 3.101680 1_555
Nd10 Ni9 3.105468 1_655
Nd10 Ni8 3.105468 1_555
Nd10 Ni9 3.105468 1_555
Nd10 Ni8 3.105468 1_655
Nd10 Ni19 3.117961 1_555
Nd10 Ni19 3.117961 1_655
Nd10 P20 3.118495 1_655
Nd10 P20 3.118495 1_555
Nd10 P21 3.118495 1_655
Nd10 P21 3.118495 1_555
Nd10 Ni2 3.171907 1_555
Nd10 Ni3 3.171907 1_555
Nd11 Ni23 2.962577 1_655
Nd11 Ni23 2.962577 1_555
Nd11 Ni27 3.101680 1_555
Nd11 Ni28 3.101680 1_555
Nd11 Ni11 3.105468 1_555
Nd11 Ni11 3.105468 1_655
Nd11 Ni6 3.105468 1_655
Nd11 Ni6 3.105468 1_555
Nd11 Ni20 3.117961 1_655
Nd11 Ni20 3.117961 1_555
Nd11 P18 3.118495 1_555
Nd11 P18 3.118495 1_655
Nd11 P23 3.118495 1_555
Nd11 P23 3.118495 1_655
Nd11 Ni5 3.171907 1_555
Nd11 Ni0 3.171907 1_555
Nd12 P27 3.023152 1_545
Nd12 P27 3.023152 1_445
Nd12 P9 3.036374 1_455
Nd12 P9 3.036374 1_555
Nd12 Ni24 3.045209 1_555
Nd12 Ni24 3.045209 1_455
Nd12 Ni41 3.065006 1_445
Nd12 Ni41 3.065006 1_545
Nd12 P25 3.070691 1_545
Nd12 P25 3.070691 1_445
Nd12 Ni37 3.090162 1_555
Nd12 Ni31 3.097321 1_545
Nd12 Ni13 3.127705 1_455
Nd12 Ni13 3.127705 1_555
Nd13 P28 3.023152 1_556
Nd13 P28 3.023152 1_456
Nd13 P10 3.036374 1_555
Nd13 P10 3.036374 1_455
Nd13 Ni25 3.045209 1_555
Nd13 Ni25 3.045209 1_455
Nd13 Ni42 3.065006 1_556
Nd13 Ni42 3.065006 1_456
Nd13 P26 3.070691 1_456
Nd13 P26 3.070691 1_556
Nd13 Ni38 3.090162 1_555
Nd13 Ni32 3.097321 1_556
Nd13 Ni15 3.127705 1_455
Nd13 Ni15 3.127705 1_555
Nd14 P29 3.023152 1_455
Nd14 P29 3.023152 1_555
Nd14 P9 3.036374 1_455
Nd14 P9 3.036374 1_555
Nd14 Ni24 3.045209 1_455
Nd14 Ni24 3.045209 1_555
Nd14 Ni42 3.065006 1_555
Nd14 Ni42 3.065006 1_455
Nd14 P26 3.070691 1_555
Nd14 P26 3.070691 1_455
Nd14 Ni37 3.090162 1_555
Nd14 Ni33 3.097321 1_555
Nd14 Ni16 3.127705 1_455
Nd14 Ni16 3.127705 1_555
Nd15 P30 3.023152 1_455
Nd15 P30 3.023152 1_555
Nd15 P11 3.036374 1_555
Nd15 P11 3.036374 1_455
Nd15 Ni26 3.045209 1_555
Nd15 Ni26 3.045209 1_455
Nd15 Ni40 3.065006 1_555
Nd15 Ni40 3.065006 1_455
Nd15 P24 3.070691 1_555
Nd15 P24 3.070691 1_455
Nd15 Ni39 3.090162 1_555
Nd15 Ni34 3.097321 1_555
Nd15 Ni12 3.127705 1_455
Nd15 Ni12 3.127705 1_555
Nd16 P31 3.023152 1_456
Nd16 P31 3.023152 1_556
Nd16 P11 3.036374 1_555
Nd16 P11 3.036374 1_455
Nd16 Ni26 3.045209 1_555
Nd16 Ni26 3.045209 1_455
Nd16 Ni41 3.065006 1_456
Nd16 Ni41 3.065006 1_556
Nd16 P25 3.070691 1_456
Nd16 P25 3.070691 1_556
Nd16 Ni39 3.090162 1_555
Nd16 Ni35 3.097321 1_556
Nd16 Ni17 3.127705 1_555
Nd16 Ni17 3.127705 1_455
Nd17 P32 3.023152 1_445
Nd17 P32 3.023152 1_545
Nd17 P10 3.036374 1_555
Nd17 P10 3.036374 1_455
Nd17 Ni25 3.045209 1_555
Nd17 Ni25 3.045209 1_455
Nd17 Ni40 3.065006 1_445
Nd17 Ni40 3.065006 1_545
Nd17 P24 3.070691 1_445
Nd17 P24 3.070691 1_545
Nd17 Ni38 3.090162 1_555
Nd17 Ni36 3.097321 1_545
Nd17 Ni14 3.127705 1_455
Nd17 Ni14 3.127705 1_555
Nd18 P25 3.043595 1_545
Nd18 P25 3.043595 1_445
Nd18 P24 3.043595 1_444
Nd18 P24 3.043595 1_544
Nd18 P26 3.043595 1_455
Nd18 P26 3.043595 1_555
Nd18 Ni25 3.066525 1_554
Nd18 Ni25 3.066525 1_454
Nd18 Ni26 3.066525 1_444
Nd18 Ni26 3.066525 1_544
Nd18 Ni24 3.066525 1_455
Nd18 Ni24 3.066525 1_555
Nd19 P16 3.036087 1_555
Nd19 P16 3.036087 1_655
Nd19 P13 3.036087 1_655
Nd19 P13 3.036087 1_555
Nd19 Ni44 3.050505 1_555
Nd19 Ni44 3.050505 1_655
Nd19 Ni47 3.050505 1_555
Nd19 Ni47 3.050505 1_655
Nd19 P3 3.067483 1_655
Nd19 P3 3.067483 1_555
Nd19 Ni13 3.078332 1_555
Nd19 Ni16 3.078332 1_555
Nd19 Ni37 3.133589 1_655
Nd19 Ni37 3.133589 1_555
Nd20 P14 3.036087 1_655
Nd20 P15 3.036087 1_555
Nd20 P15 3.036087 1_655
Nd20 P14 3.036087 1_555
Nd20 Ni46 3.050505 1_655
Nd20 Ni46 3.050505 1_555
Nd20 Ni45 3.050505 1_655
Nd20 Ni45 3.050505 1_555
Nd20 P4 3.067483 1_555
Nd20 P4 3.067483 1_655
Nd20 Ni14 3.078332 1_555
Nd20 Ni15 3.078332 1_555
Nd20 Ni38 3.133588 1_655
Nd20 Ni38 3.133588 1_555
Nd21 P12 3.036087 1_555
Nd21 P12 3.036087 1_655
Nd21 P17 3.036087 1_655
Nd21 P17 3.036087 1_555
Nd21 Ni48 3.050505 1_555
Nd21 Ni48 3.050505 1_655
Nd21 Ni43 3.050505 1_655
Nd21 Ni43 3.050505 1_555
Nd21 P5 3.067483 1_655
Nd21 P5 3.067483 1_555
Nd21 Ni17 3.078332 1_555
Nd21 Ni12 3.078332 1_555
Nd21 Ni39 3.133589 1_555
Nd21 Ni39 3.133589 1_655
Nd22 P6 3.045547 1_655
Nd22 P6 3.045547 1_555
Nd22 P4 3.049798 1_555
Nd22 P4 3.049798 1_655
Nd22 P5 3.049798 1_655
Nd22 P5 3.049798 1_555
Nd22 Ni30 3.050277 1_555
Nd22 Ni30 3.050277 1_655
Nd22 Ni46 3.057942 1_555
Nd22 Ni46 3.057942 1_655
Nd22 Ni48 3.057943 1_555
Nd22 Ni48 3.057943 1_655
Nd23 P7 3.045547 1_655
Nd23 P7 3.045547 1_555
Nd23 P3 3.049798 1_555
Nd23 P5 3.049798 1_655
Nd23 P5 3.049798 1_555
Nd23 P3 3.049798 1_655
Nd23 Ni30 3.050292 1_555
Nd23 Ni30 3.050292 1_655
Nd23 Ni43 3.057943 1_655
Nd23 Ni43 3.057943 1_555
Nd23 Ni47 3.057943 1_555
Nd23 Ni47 3.057943 1_655
Nd24 P8 3.045547 1_655
Nd24 P8 3.045547 1_555
Nd24 P4 3.049798 1_655
Nd24 P4 3.049798 1_555
Nd24 P3 3.049798 1_555
Nd24 P3 3.049798 1_655
Nd24 Ni30 3.050277 1_655
Nd24 Ni30 3.050277 1_555
Nd24 Ni45 3.057942 1_655
Nd24 Ni45 3.057942 1_555
Nd24 Ni44 3.057943 1_655
Nd24 Ni44 3.057943 1_555
Ni0 P1 2.354830 1_555
Ni0 P27 2.366049 1_555
Ni0 P18 2.371442 1_555
Ni0 P18 2.371442 1_655
Ni1 P2 2.354830 1_555
Ni1 P28 2.366049 1_555
Ni1 P19 2.371441 1_655
Ni1 P19 2.371441 1_555
Ni2 P2 2.354829 1_555
Ni2 P29 2.366049 1_555
Ni2 P20 2.371442 1_655
Ni2 P20 2.371442 1_555
Ni3 P0 2.354829 1_555
Ni3 P30 2.366049 1_555
Ni3 P21 2.371442 1_555
Ni3 P21 2.371442 1_655
Ni4 P1 2.354830 1_555
Ni4 P31 2.366049 1_555
Ni4 P22 2.371442 1_555
Ni4 P22 2.371442 1_655
Ni5 P0 2.354830 1_555
Ni5 P32 2.366049 1_555
Ni5 P23 2.371441 1_555
Ni5 P23 2.371441 1_655
Ni6 P18 2.232082 1_555
Ni6 P1 2.388114 1_555
Ni6 P1 2.388114 1_455
Ni7 P19 2.232082 1_555
Ni7 P2 2.388114 1_555
Ni7 P2 2.388114 1_455
Ni8 P20 2.232082 1_555
Ni8 P2 2.388114 1_555
Ni8 P2 2.388114 1_455
Ni9 P21 2.232082 1_555
Ni9 P0 2.388114 1_455
Ni9 P0 2.388114 1_555
Ni10 P22 2.232082 1_555
Ni10 P1 2.388114 1_455
Ni10 P1 2.388114 1_555
Ni10 Ni21 2.555444 1_555
Ni11 P23 2.232082 1_555
Ni11 P0 2.388114 1_455
Ni11 P0 2.388114 1_555
Ni11 Ni23 2.555444 1_555
Ni12 P11 2.343597 1_555
Ni12 P12 2.344734 1_555
Ni12 P12 2.344734 1_655
Ni12 P30 2.374556 1_555
Ni13 P9 2.343597 1_555
Ni13 P13 2.344734 1_555
Ni13 P13 2.344734 1_655
Ni13 P27 2.374556 1_545
Ni14 P10 2.343597 1_555
Ni14 P14 2.344734 1_655
Ni14 P14 2.344734 1_555
Ni14 P32 2.374556 1_545
Ni15 P10 2.343597 1_555
Ni15 P15 2.344734 1_555
Ni15 P15 2.344734 1_655
Ni15 P28 2.374556 1_556
Ni16 P9 2.343597 1_555
Ni16 P16 2.344734 1_555
Ni16 P16 2.344734 1_655
Ni16 P29 2.374556 1_555
Ni17 P11 2.343597 1_555
Ni17 P17 2.344734 1_655
Ni17 P17 2.344734 1_555
Ni17 P31 2.374556 1_556
Ni18 P19 2.273402 1_555
Ni18 P22 2.273402 1_555
Ni18 P6 2.323838 1_554
Ni19 P21 2.273402 1_555
Ni19 P20 2.273402 1_555
Ni19 P7 2.323838 1_555
Ni20 P23 2.273402 1_555
Ni20 P18 2.273402 1_555
Ni20 P8 2.323838 1_565
Ni21 Ni22 2.392016 1_555
Ni21 Ni23 2.392016 1_555
Ni21 Ni29 2.488658 1_455
Ni21 Ni29 2.488658 1_555
Ni21 Ni28 2.488658 1_555
Ni21 Ni28 2.488658 1_455
Ni21 Ni7 2.555444 1_555
Ni22 Ni23 2.392016 1_555
Ni22 Ni27 2.488658 1_455
Ni22 Ni29 2.488658 1_555
Ni22 Ni29 2.488658 1_455
Ni22 Ni27 2.488658 1_555
Ni22 Ni8 2.555444 1_555
Ni22 Ni9 2.555444 1_555
Ni23 Ni27 2.488658 1_555
Ni23 Ni27 2.488658 1_455
Ni23 Ni28 2.488658 1_555
Ni23 Ni28 2.488658 1_455
Ni23 Ni6 2.555444 1_555
Ni24 P9 2.288386 1_555
Ni24 P25 2.316181 1_545
Ni24 P26 2.316181 1_555
Ni25 P10 2.288386 1_555
Ni25 P26 2.316181 1_556
Ni25 P24 2.316181 1_545
Ni26 P11 2.288386 1_555
Ni26 P25 2.316181 1_556
Ni26 P24 2.316181 1_555
Ni27 P0 2.179461 1_555
Ni28 P1 2.179461 1_555
Ni29 P2 2.179461 1_555
Ni30 P4 2.308455 1_555
Ni30 P3 2.308475 1_555
Ni30 P5 2.308475 1_555
Ni31 P27 2.350782 1_555
Ni31 P27 2.350782 1_455
Ni31 P13 2.355399 1_565
Ni31 P18 2.356206 1_555
Ni32 P28 2.350782 1_455
Ni32 P28 2.350782 1_555
Ni32 P15 2.355399 1_554
Ni32 P19 2.356206 1_555
Ni33 P29 2.350782 1_455
Ni33 P29 2.350782 1_555
Ni33 P16 2.355399 1_555
Ni33 P20 2.356206 1_555
Ni34 P30 2.350782 1_455
Ni34 P30 2.350782 1_555
Ni34 P12 2.355399 1_555
Ni34 P21 2.356206 1_555
Ni35 P31 2.350782 1_555
Ni35 P31 2.350782 1_455
Ni35 P17 2.355399 1_554
Ni35 P22 2.356206 1_555
Ni36 P32 2.350782 1_455
Ni36 P32 2.350782 1_555
Ni36 P14 2.355399 1_565
Ni36 P23 2.356206 1_555
Ni37 P9 2.341416 1_455
Ni37 P9 2.341416 1_555
Ni37 P16 2.368959 1_555
Ni37 P13 2.368959 1_555
Ni38 P10 2.341416 1_555
Ni38 P10 2.341416 1_455
Ni38 P14 2.368959 1_555
Ni38 P15 2.368959 1_555
Ni39 P11 2.341416 1_455
Ni39 P11 2.341416 1_555
Ni39 P12 2.368959 1_555
Ni39 P17 2.368959 1_555
Ni40 P32 2.307947 1_555
Ni40 P30 2.307947 1_555
Ni40 P24 2.320379 1_555
Ni41 P31 2.307947 1_555
Ni41 P27 2.307947 1_555
Ni41 P25 2.320379 1_555
Ni42 P28 2.307947 1_555
Ni42 P29 2.307947 1_555
Ni42 P26 2.320379 1_555
Ni43 P12 2.300385 1_555
Ni43 P5 2.310086 1_555
Ni43 P7 2.317081 1_555
Ni44 P13 2.300385 1_555
Ni44 P3 2.310086 1_555
Ni44 P8 2.317081 1_555
Ni45 P14 2.300385 1_555
Ni45 P4 2.310086 1_555
Ni45 P8 2.317081 1_555
Ni46 P15 2.300385 1_555
Ni46 P4 2.310086 1_555
Ni46 P6 2.317081 1_555
Ni47 P16 2.300385 1_555
Ni47 P3 2.310086 1_555
Ni47 P7 2.317081 1_555
Ni48 P17 2.300385 1_555
Ni48 P5 2.310086 1_555
Ni48 P6 2.317081 1_555
