# generated using pymatgen
data_Zn7P10
_symmetry_space_group_name_H-M   'P 1'
_cell_length_a   17.00805074
_cell_length_b   13.27054903
_cell_length_c   11.08825632
_cell_angle_alpha   88.09498920
_cell_angle_beta   51.24407855
_cell_angle_gamma   40.66093226
_symmetry_Int_Tables_number   1
_chemical_formula_structural   Zn7P10
_chemical_formula_sum   'Zn14 P20'
_cell_volume   628.88756831
_cell_formula_units_Z   2
loop_
 _symmetry_equiv_pos_site_id
 _symmetry_equiv_pos_as_xyz
  1  'x, y, z'
loop_
 _atom_site_type_symbol
 _atom_site_label
 _atom_site_symmetry_multiplicity
 _atom_site_fract_x
 _atom_site_fract_y
 _atom_site_fract_z
 _atom_site_occupancy
  Zn  Zn0  1  0.97400800  0.18606500  0.26434900  1
  Zn  Zn1  1  0.57557800  0.26434900  0.18606500  1
  Zn  Zn2  1  0.06393500  0.27599200  0.67442200  1
  Zn  Zn3  1  0.98565100  0.67442200  0.27599200  1
  Zn  Zn4  1  0.26690300  0.32714600  0.73518600  1
  Zn  Zn5  1  0.67076500  0.73518600  0.32714600  1
  Zn  Zn6  1  0.92285400  0.98309700  0.57923500  1
  Zn  Zn7  1  0.51481400  0.57923500  0.98309700  1
  Zn  Zn8  1  0.99894300  0.00105700  0.00105700  1
  Zn  Zn9  1  0.24894300  0.25105700  0.25105700  1
  Zn  Zn10  1  0.30506300  0.77103100  0.42363900  1
  Zn  Zn11  1  0.50026700  0.42363900  0.77103100  1
  Zn  Zn12  1  0.47896900  0.94493700  0.74973300  1
  Zn  Zn13  1  0.82636100  0.74973300  0.94493700  1
  P  P0  1  0.12423800  0.88076500  0.21295400  1
  P  P1  1  0.78204300  0.21295400  0.88076500  1
  P  P2  1  0.36923500  0.12576200  0.46795700  1
  P  P3  1  0.03704600  0.46795700  0.12576200  1
  P  P4  1  0.46335700  0.65794100  0.62580500  1
  P  P5  1  0.25289800  0.62580500  0.65794100  1
  P  P6  1  0.59205900  0.78664300  0.99710200  1
  P  P7  1  0.62419500  0.99710200  0.78664300  1
  P  P8  1  0.78126600  0.59648300  0.63736500  1
  P  P9  1  0.98488700  0.63736500  0.59648300  1
  P  P10  1  0.65351700  0.46873400  0.26511300  1
  P  P11  1  0.61263500  0.26511300  0.46873400  1
  P  P12  1  0.26420700  0.97210400  0.33201200  1
  P  P13  1  0.43167700  0.33201200  0.97210400  1
  P  P14  1  0.27789600  0.98579300  0.81832300  1
  P  P15  1  0.91798800  0.81832300  0.98579300  1
  P  P16  1  0.89394900  0.33019300  0.53310800  1
  P  P17  1  0.24275000  0.53310800  0.33019300  1
  P  P18  1  0.91980700  0.35605100  0.00725000  1
  P  P19  1  0.71689200  0.00725000  0.35605100  1
loop_
_geom_bond_atom_site_label_1
_geom_bond_atom_site_label_2
_geom_bond_distance
_geom_bond_site_symmetry_2
P0 Zn11 2.364834 1_554
P0 Zn7 2.405899 1_554
P0 Zn0 2.427503 1_465
P0 Zn6 2.442159 1_455
P0 Zn11 2.750940 1_465
P1 Zn10 2.364834 1_645
P1 Zn6 2.405899 1_545
P1 Zn1 2.427503 1_556
P1 Zn7 2.442159 1_555
P1 Zn10 2.750940 1_556
P2 Zn13 2.364834 1_544
P2 Zn5 2.405899 1_545
P2 Zn2 2.427503 1_555
P2 Zn4 2.442159 1_555
P2 Zn13 2.750940 1_455
P3 Zn12 2.364834 1_544
P3 Zn4 2.405899 1_554
P3 Zn3 2.427503 1_455
P3 Zn5 2.442159 1_455
P3 Zn12 2.750940 1_455
P4 Zn8 2.445808 1_466
P4 Zn0 2.506430 1_555
P5 Zn8 2.445796 1_466
P5 Zn1 2.506440 1_555
P6 P8 2.216411 1_555
P6 Zn9 2.445805 1_566
P6 Zn2 2.506436 1_655
P7 P9 2.216429 1_555
P7 Zn9 2.445801 1_566
P7 Zn3 2.506431 1_555
P8 Zn12 2.379544 1_555
P8 Zn9 2.441236 1_655
P9 Zn13 2.379538 1_555
P9 Zn9 2.441249 1_655
P10 P18 2.172527 1_555
P10 P4 2.216431 1_555
P10 Zn10 2.379536 1_555
P10 Zn8 2.441239 1_555
P11 P19 2.172515 1_555
P11 P5 2.216413 1_555
P11 Zn11 2.379548 1_555
P11 Zn8 2.441243 1_555
P12 P6 2.191320 1_554
P12 P16 2.221081 1_465
P12 Zn2 2.503313 1_565
P12 Zn10 2.554553 1_555
P12 Zn7 2.701418 1_554
P13 P7 2.191330 1_545
P13 P17 2.221081 1_556
P13 Zn3 2.503313 1_456
P13 Zn11 2.554553 1_555
P13 Zn6 2.701418 1_545
P14 P4 2.191318 1_555
P14 P18 2.221081 1_466
P14 Zn0 2.503313 1_466
P14 Zn12 2.554553 1_555
P14 Zn5 2.701418 1_555
P15 P5 2.191330 1_655
P15 P19 2.221081 1_566
P15 Zn1 2.503313 1_566
P15 Zn13 2.554553 1_555
P15 Zn4 2.701418 1_655
P16 P8 2.172527 1_555
P16 Zn0 2.395928 1_555
P16 Zn7 2.424996 1_555
P17 P9 2.172516 1_455
P17 Zn1 2.395928 1_555
P17 Zn6 2.424996 1_455
P18 Zn2 2.395928 1_654
P18 Zn5 2.424996 1_555
P19 Zn3 2.395928 1_545
P19 Zn4 2.424996 1_555
