# generated using pymatgen
data_Sr3LiBiO6
_symmetry_space_group_name_H-M   'P 1'
_cell_length_a   6.99199880
_cell_length_b   6.99199880
_cell_length_c   6.99068410
_cell_angle_alpha   87.68504103
_cell_angle_beta   87.68504103
_cell_angle_gamma   92.51346355
_symmetry_Int_Tables_number   1
_chemical_formula_structural   Sr3LiBiO6
_chemical_formula_sum   'Sr6 Li2 Bi2 O12'
_cell_volume   340.84898358
_cell_formula_units_Z   2
loop_
 _symmetry_equiv_pos_site_id
 _symmetry_equiv_pos_as_xyz
  1  'x, y, z'
loop_
 _atom_site_type_symbol
 _atom_site_label
 _atom_site_symmetry_multiplicity
 _atom_site_fract_x
 _atom_site_fract_y
 _atom_site_fract_z
 _atom_site_occupancy
  Sr  Sr0  1  0.89687000  0.74823200  0.39674600  1
  Sr  Sr1  1  0.25028200  0.09943300  0.09965600  1
  Sr  Sr2  1  0.59907600  0.40098700  0.74856900  1
  Sr  Sr3  1  0.74823200  0.89687000  0.89674600  1
  Sr  Sr4  1  0.40098700  0.59907600  0.24856900  1
  Sr  Sr5  1  0.09943300  0.25028200  0.59965600  1
  Li  Li0  1  0.22804300  0.74995000  0.72791100  1
  Li  Li1  1  0.74995000  0.22804300  0.22791100  1
  Bi  Bi0  1  0.50029600  0.00066100  0.50095600  1
  Bi  Bi1  1  0.00066100  0.50029600  0.00095600  1
  O  O0  1  0.20796000  0.91675200  0.45497200  1
  O  O1  1  0.42163700  0.05167600  0.79153200  1
  O  O2  1  0.54888500  0.70819200  0.57643400  1
  O  O3  1  0.91675200  0.20796000  0.95497200  1
  O  O4  1  0.70819200  0.54888500  0.07643400  1
  O  O5  1  0.05167600  0.42163700  0.29153200  1
  O  O6  1  0.79264600  0.07657900  0.54898200  1
  O  O7  1  0.58214300  0.95533100  0.20787000  1
  O  O8  1  0.44799200  0.29057700  0.42057200  1
  O  O9  1  0.07657900  0.79264600  0.04898200  1
  O  O10  1  0.29057700  0.44799200  0.92057200  1
  O  O11  1  0.95533100  0.58214300  0.70787000  1
loop_
_geom_bond_atom_site_label_1
_geom_bond_atom_site_label_2
_geom_bond_distance
_geom_bond_site_symmetry_2
Li0 O11 2.206990 1_455
Li0 O0 2.208335 1_555
Li0 O2 2.475805 1_555
Li0 O9 2.477563 1_556
Li0 O1 2.520859 1_565
Li0 O10 2.522202 1_555
Li1 O7 2.206990 1_545
Li1 O3 2.208335 1_554
Li1 O4 2.475805 1_555
Li1 O6 2.477563 1_555
Li1 O5 2.520859 1_655
Li1 O8 2.522202 1_555
Bi0 O1 2.131076 1_555
Bi0 O6 2.132497 1_555
Bi0 O8 2.132656 1_555
Bi0 O2 2.136321 1_545
Bi0 O0 2.142118 1_545
Bi0 O7 2.144639 1_545
Bi1 O5 2.131076 1_555
Bi1 O9 2.132497 1_555
Bi1 O10 2.132656 1_554
Bi1 O4 2.136321 1_455
Bi1 O3 2.142118 1_454
Bi1 O11 2.144639 1_454
O0 Sr0 2.484103 1_455
O0 Sr5 2.705733 1_565
O0 Sr1 2.745907 1_565
O0 Sr4 3.033431 1_555
O1 Sr1 2.464020 1_556
O1 Sr3 2.686141 1_545
O1 Sr2 2.690636 1_555
O1 Sr5 3.028354 1_555
O2 Sr2 2.465038 1_555
O2 Sr4 2.677359 1_555
O2 Sr0 2.690955 1_555
O2 Sr3 3.004443 1_555
O3 Sr3 2.484103 1_545
O3 Sr1 2.705733 1_656
O3 Sr5 2.745907 1_655
O3 Sr2 3.033431 1_555
O4 Sr4 2.465038 1_555
O4 Sr2 2.677359 1_554
O4 Sr3 2.690955 1_554
O4 Sr0 3.004443 1_555
O5 Sr5 2.464020 1_555
O5 Sr0 2.686141 1_455
O5 Sr4 2.690636 1_555
O5 Sr1 3.028354 1_555
O6 Sr5 2.463631 1_655
O6 Sr0 2.686228 1_545
O6 Sr3 2.691391 1_545
O6 Sr2 3.048919 1_555
O7 Sr3 2.481046 1_554
O7 Sr1 2.693857 1_565
O7 Sr4 2.743536 1_555
O7 Sr0 3.007068 1_555
O8 Sr4 2.468027 1_555
O8 Sr2 2.690083 1_555
O8 Sr5 2.692778 1_555
O8 Sr1 3.010121 1_555
O9 Sr1 2.463631 1_565
O9 Sr3 2.686228 1_454
O9 Sr0 2.691391 1_455
O9 Sr4 3.048919 1_555
O10 Sr2 2.468027 1_555
O10 Sr4 2.690083 1_556
O10 Sr1 2.692778 1_556
O10 Sr5 3.010121 1_555
O11 Sr0 2.481046 1_555
O11 Sr5 2.693857 1_655
O11 Sr2 2.743536 1_555
O11 Sr3 3.007068 1_555
