# generated using pymatgen
data_Li2Mn(CoO3)2
_symmetry_space_group_name_H-M   'P 1'
_cell_length_a   5.08466975
_cell_length_b   5.08466975
_cell_length_c   10.07554800
_cell_angle_alpha   90.00000000
_cell_angle_beta   90.00000000
_cell_angle_gamma   119.17879701
_symmetry_Int_Tables_number   1
_chemical_formula_structural   Li2Mn(CoO3)2
_chemical_formula_sum   'Li4 Mn2 Co4 O12'
_cell_volume   227.43611967
_cell_formula_units_Z   2
loop_
 _symmetry_equiv_pos_site_id
 _symmetry_equiv_pos_as_xyz
  1  'x, y, z'
loop_
 _atom_site_type_symbol
 _atom_site_label
 _atom_site_symmetry_multiplicity
 _atom_site_fract_x
 _atom_site_fract_y
 _atom_site_fract_z
 _atom_site_occupancy
  Li  Li0  1  0.14659900  0.64659900  0.75000000  1
  Li  Li1  1  0.35340100  0.85340100  0.25000000  1
  Li  Li2  1  0.64659900  0.14659900  0.75000000  1
  Li  Li3  1  0.85340100  0.35340100  0.25000000  1
  Mn  Mn0  1  0.00000000  0.00000000  0.00000000  1
  Mn  Mn1  1  0.50000000  0.50000000  0.50000000  1
  Co  Co0  1  0.33720800  0.66279200  0.00000000  1
  Co  Co1  1  0.83720800  0.16279200  0.50000000  1
  Co  Co2  1  0.16279200  0.83720800  0.50000000  1
  Co  Co3  1  0.66279200  0.33720800  0.00000000  1
  O  O0  1  0.17853000  0.17853000  0.59762700  1
  O  O1  1  0.32147000  0.32147000  0.09762700  1
  O  O2  1  0.67853000  0.67853000  0.90237300  1
  O  O3  1  0.98377600  0.31591000  0.89291800  1
  O  O4  1  0.82147000  0.82147000  0.40237300  1
  O  O5  1  0.18409000  0.51622400  0.39291800  1
  O  O6  1  0.48377600  0.81591000  0.60708200  1
  O  O7  1  0.68409000  0.01622400  0.10708200  1
  O  O8  1  0.01622400  0.68409000  0.10708200  1
  O  O9  1  0.31591000  0.98377600  0.89291800  1
  O  O10  1  0.51622400  0.18409000  0.39291800  1
  O  O11  1  0.81591000  0.48377600  0.60708200  1
loop_
_geom_bond_atom_site_label_1
_geom_bond_atom_site_label_2
_geom_bond_distance
_geom_bond_site_symmetry_2
Li0 O3 2.056414 1_455
Li0 O11 2.056414 1_455
Li0 O6 2.077210 1_555
Li0 O9 2.077210 1_555
Li1 O10 2.056414 1_565
Li1 O7 2.056414 1_565
Li1 O8 2.077210 1_555
Li1 O5 2.077210 1_555
Li2 O9 2.056414 1_545
Li2 O6 2.056414 1_545
Li2 O11 2.077210 1_555
Li2 O3 2.077210 1_555
Li3 O5 2.056414 1_655
Li3 O8 2.056414 1_655
Li3 O7 2.077210 1_555
Li3 O10 2.077210 1_555
Mn0 O1 1.925091 1_555
Mn0 O2 1.925091 1_444
Mn0 O7 1.969835 1_455
Mn0 O8 1.969835 1_545
Mn0 O9 1.969835 1_544
Mn0 O3 1.969835 1_454
Mn1 O0 1.925091 1_555
Mn1 O4 1.925091 1_555
Mn1 O10 1.969835 1_555
Mn1 O11 1.969835 1_555
Mn1 O5 1.969835 1_555
Mn1 O6 1.969835 1_555
Co0 O1 1.962279 1_555
Co0 O2 1.962279 1_554
Co0 O8 2.002962 1_555
Co0 O9 2.002962 1_554
Co0 O3 2.100911 1_454
Co0 O7 2.100911 1_565
Co1 O4 1.962279 1_545
Co1 O0 1.962279 1_655
Co1 O10 2.002962 1_555
Co1 O11 2.002962 1_555
Co1 O6 2.100911 1_545
Co1 O5 2.100911 1_655
Co2 O4 1.962279 1_455
Co2 O0 1.962279 1_565
Co2 O5 2.002962 1_555
Co2 O6 2.002962 1_555
Co2 O11 2.100911 1_455
Co2 O10 2.100911 1_565
Co3 O1 1.962279 1_555
Co3 O2 1.962279 1_554
Co3 O7 2.002962 1_555
Co3 O3 2.002962 1_554
Co3 O9 2.100911 1_544
Co3 O8 2.100911 1_655
