# generated using pymatgen
data_V3C2
_symmetry_space_group_name_H-M   'P 1'
_cell_length_a   2.95520200
_cell_length_b   2.95520200
_cell_length_c   27.56275400
_cell_angle_alpha   90.00000000
_cell_angle_beta   90.00000000
_cell_angle_gamma   119.99999990
_symmetry_Int_Tables_number   1
_chemical_formula_structural   V3C2
_chemical_formula_sum   'V12 C8'
_cell_volume   208.46232819
_cell_formula_units_Z   4
loop_
 _symmetry_equiv_pos_site_id
 _symmetry_equiv_pos_as_xyz
  1  'x, y, z'
loop_
 _atom_site_type_symbol
 _atom_site_label
 _atom_site_symmetry_multiplicity
 _atom_site_fract_x
 _atom_site_fract_y
 _atom_site_fract_z
 _atom_site_occupancy
  V  V0  1  0.33333300  0.66666700  0.04183500  1
  V  V1  1  0.00000000  0.00000000  0.37567400  1
  V  V2  1  0.66666700  0.33333300  0.70986600  1
  V  V3  1  0.66666700  0.33333300  0.95816500  1
  V  V4  1  0.33333300  0.66666700  0.29013400  1
  V  V5  1  0.00000000  0.00000000  0.62432600  1
  V  V6  1  0.33333300  0.66666700  0.87711300  1
  V  V7  1  0.00000000  0.00000000  0.20745500  1
  V  V8  1  0.66666700  0.33333300  0.54193800  1
  V  V9  1  0.66666700  0.33333300  0.12288700  1
  V  V10  1  0.33333300  0.66666700  0.45806200  1
  V  V11  1  0.00000000  0.00000000  0.79254500  1
  C  C0  1  0.66666700  0.33333300  0.33295500  1
  C  C1  1  0.33333300  0.66666700  0.66704500  1
  C  C2  1  0.00000000  0.00000000  0.08212400  1
  C  C3  1  0.66666700  0.33333300  0.42236100  1
  C  C4  1  0.33333300  0.66666700  0.75664700  1
  C  C5  1  0.00000000  0.00000000  0.91787600  1
  C  C6  1  0.66666700  0.33333300  0.24335300  1
  C  C7  1  0.33333300  0.66666700  0.57763900  1
loop_
_geom_bond_atom_site_label_1
_geom_bond_atom_site_label_2
_geom_bond_distance
_geom_bond_site_symmetry_2
C0 V1 2.073032 1_655
C0 V1 2.073035 1_665
C0 V1 2.073035 1_555
C0 V4 2.074631 1_545
C0 V4 2.074631 1_655
C0 V4 2.074635 1_555
C1 V5 2.073032 1_565
C1 V5 2.073035 1_555
C1 V5 2.073035 1_665
C1 V2 2.074631 1_455
C1 V2 2.074631 1_565
C1 V2 2.074635 1_555
C2 V0 2.035737 1_545
C2 V0 2.035739 1_445
C2 V0 2.035739 1_555
C2 V9 2.042893 1_455
C2 V9 2.042895 1_445
C2 V9 2.042895 1_555
C3 V10 1.969609 1_545
C3 V10 1.969609 1_655
C3 V10 1.969613 1_555
C3 V1 2.137049 1_655
C3 V1 2.137051 1_665
C3 V1 2.137051 1_555
C4 V11 1.972327 1_565
C4 V11 1.972329 1_665
C4 V11 1.972329 1_555
C4 V2 2.138610 1_565
C4 V2 2.138610 1_455
C4 V2 2.138614 1_555
C5 V3 2.035737 1_455
C5 V3 2.035739 1_445
C5 V3 2.035739 1_555
C5 V6 2.042893 1_545
C5 V6 2.042895 1_445
C5 V6 2.042895 1_555
C6 V7 1.972327 1_655
C6 V7 1.972329 1_555
C6 V7 1.972329 1_665
C6 V4 2.138610 1_545
C6 V4 2.138610 1_655
C6 V4 2.138614 1_555
C7 V8 1.969609 1_455
C7 V8 1.969609 1_565
C7 V8 1.969613 1_555
C7 V5 2.137049 1_565
C7 V5 2.137051 1_555
C7 V5 2.137051 1_665
