# generated using pymatgen
data_Er2Pa2O5
_symmetry_space_group_name_H-M   'P 1'
_cell_length_a   19.65374400
_cell_length_b   8.18830600
_cell_length_c   8.18830600
_cell_angle_alpha   90.00000000
_cell_angle_beta   90.00000000
_cell_angle_gamma   90.00000000
_symmetry_Int_Tables_number   1
_chemical_formula_structural   Er2Pa2O5
_chemical_formula_sum   'Er16 Pa16 O40'
_cell_volume   1317.75120773
_cell_formula_units_Z   8
loop_
 _symmetry_equiv_pos_site_id
 _symmetry_equiv_pos_as_xyz
  1  'x, y, z'
loop_
 _atom_site_type_symbol
 _atom_site_label
 _atom_site_symmetry_multiplicity
 _atom_site_fract_x
 _atom_site_fract_y
 _atom_site_fract_z
 _atom_site_occupancy
  Er  Er0_0  1  0.00000000  0.00000000  0.00000000  1
  Er  Er0_1  1  0.00000000  0.00000000  0.50000000  1
  Er  Er0_2  1  0.00000000  0.50000000  0.00000000  1
  Er  Er0_3  1  0.00000000  0.50000000  0.50000000  1
  Er  Er0_4  1  0.50000000  0.00000000  0.00000000  1
  Er  Er0_5  1  0.50000000  0.00000000  0.50000000  1
  Er  Er0_6  1  0.50000000  0.50000000  0.00000000  1
  Er  Er0_7  1  0.50000000  0.50000000  0.50000000  1
  Er  Er1_0  1  0.25000050  0.00000000  0.00000000  1
  Er  Er1_1  1  0.25000050  0.00000000  0.50000000  1
  Er  Er1_2  1  0.25000050  0.50000000  0.00000000  1
  Er  Er1_3  1  0.25000050  0.50000000  0.50000000  1
  Er  Er1_4  1  0.75000050  0.00000000  0.00000000  1
  Er  Er1_5  1  0.75000050  0.00000000  0.50000000  1
  Er  Er1_6  1  0.75000050  0.50000000  0.00000000  1
  Er  Er1_7  1  0.75000050  0.50000000  0.50000000  1
  Pa  Pa0_0  1  0.13663350  0.24999900  0.24999900  1
  Pa  Pa0_1  1  0.13663350  0.24999900  0.74999900  1
  Pa  Pa0_2  1  0.13663350  0.74999900  0.24999900  1
  Pa  Pa0_3  1  0.13663350  0.74999900  0.74999900  1
  Pa  Pa0_4  1  0.63663350  0.24999900  0.24999900  1
  Pa  Pa0_5  1  0.63663350  0.24999900  0.74999900  1
  Pa  Pa0_6  1  0.63663350  0.74999900  0.24999900  1
  Pa  Pa0_7  1  0.63663350  0.74999900  0.74999900  1
  Pa  Pa1_0  1  0.36336650  0.24999900  0.24999900  1
  Pa  Pa1_1  1  0.36336650  0.24999900  0.74999900  1
  Pa  Pa1_2  1  0.36336650  0.74999900  0.24999900  1
  Pa  Pa1_3  1  0.36336650  0.74999900  0.74999900  1
  Pa  Pa1_4  1  0.86336650  0.24999900  0.24999900  1
  Pa  Pa1_5  1  0.86336650  0.24999900  0.74999900  1
  Pa  Pa1_6  1  0.86336650  0.74999900  0.24999900  1
  Pa  Pa1_7  1  0.86336650  0.74999900  0.74999900  1
  O  O0_0  1  0.17420200  0.24999900  0.00000000  1
  O  O0_1  1  0.17420200  0.24999900  0.50000000  1
  O  O0_2  1  0.17420200  0.74999900  0.00000000  1
  O  O0_3  1  0.17420200  0.74999900  0.50000000  1
  O  O0_4  1  0.67420200  0.24999900  0.00000000  1
  O  O0_5  1  0.67420200  0.24999900  0.50000000  1
  O  O0_6  1  0.67420200  0.74999900  0.00000000  1
  O  O0_7  1  0.67420200  0.74999900  0.50000000  1
  O  O1_0  1  0.32579800  0.24999900  0.00000000  1
  O  O1_1  1  0.32579800  0.24999900  0.50000000  1
  O  O1_2  1  0.32579800  0.74999900  0.00000000  1
  O  O1_3  1  0.32579800  0.74999900  0.50000000  1
  O  O1_4  1  0.82579800  0.24999900  0.00000000  1
  O  O1_5  1  0.82579800  0.24999900  0.50000000  1
  O  O1_6  1  0.82579800  0.74999900  0.00000000  1
  O  O1_7  1  0.82579800  0.74999900  0.50000000  1
  O  O2_0  1  0.25000050  0.24999900  0.24999900  1
  O  O2_1  1  0.25000050  0.24999900  0.74999900  1
  O  O2_2  1  0.25000050  0.74999900  0.24999900  1
  O  O2_3  1  0.25000050  0.74999900  0.74999900  1
  O  O2_4  1  0.75000050  0.24999900  0.24999900  1
  O  O2_5  1  0.75000050  0.24999900  0.74999900  1
  O  O2_6  1  0.75000050  0.74999900  0.24999900  1
  O  O2_7  1  0.75000050  0.74999900  0.74999900  1
  O  O3_0  1  0.17420200  0.00000000  0.24999900  1
  O  O3_1  1  0.17420200  0.00000000  0.74999900  1
  O  O3_2  1  0.17420200  0.50000000  0.24999900  1
  O  O3_3  1  0.17420200  0.50000000  0.74999900  1
  O  O3_4  1  0.67420200  0.00000000  0.24999900  1
  O  O3_5  1  0.67420200  0.00000000  0.74999900  1
  O  O3_6  1  0.67420200  0.50000000  0.24999900  1
  O  O3_7  1  0.67420200  0.50000000  0.74999900  1
  O  O4_0  1  0.32579800  0.00000000  0.24999900  1
  O  O4_1  1  0.32579800  0.00000000  0.74999900  1
  O  O4_2  1  0.32579800  0.50000000  0.24999900  1
  O  O4_3  1  0.32579800  0.50000000  0.74999900  1
  O  O4_4  1  0.82579800  0.00000000  0.24999900  1
  O  O4_5  1  0.82579800  0.00000000  0.74999900  1
  O  O4_6  1  0.82579800  0.50000000  0.24999900  1
  O  O4_7  1  0.82579800  0.50000000  0.74999900  1
loop_
_geom_bond_atom_site_label_1
_geom_bond_atom_site_label_2
_geom_bond_distance
_geom_bond_site_symmetry_2
Er0_0 Pa0_0 3.948688 1_555
Er0_0 Pa1_4 3.948688 1_455
Er0_0 Pa0_1 3.948696 1_554
Er0_0 Pa0_2 3.948696 1_545
Er0_0 Pa1_5 3.948696 1_454
Er0_0 Pa1_6 3.948696 1_445
Er0_0 Pa0_3 3.948705 1_544
Er0_0 Pa1_7 3.948705 1_444
Er0_0 Er0_2 4.094153 1_555
Er0_0 Er0_1 4.094153 1_555
Er0_0 Er0_2 4.094153 1_545
Er0_0 Er0_1 4.094153 1_554
Er0_1 Pa0_1 3.948688 1_555
Er0_1 Pa1_5 3.948688 1_455
Er0_1 Pa0_0 3.948696 1_555
Er0_1 Pa0_3 3.948696 1_545
Er0_1 Pa1_4 3.948696 1_455
Er0_1 Pa1_7 3.948696 1_445
Er0_1 Pa0_2 3.948705 1_545
Er0_1 Pa1_6 3.948705 1_445
Er0_1 Er0_3 4.094153 1_555
Er0_1 Er0_3 4.094153 1_545
Er0_2 Pa0_2 3.948688 1_555
Er0_2 Pa1_6 3.948688 1_455
Er0_2 Pa0_0 3.948696 1_555
Er0_2 Pa0_3 3.948696 1_554
Er0_2 Pa1_4 3.948696 1_455
Er0_2 Pa1_7 3.948696 1_454
Er0_2 Pa0_1 3.948705 1_554
Er0_2 Pa1_5 3.948705 1_454
Er0_2 Er0_3 4.094153 1_555
Er0_2 Er0_3 4.094153 1_554
Er0_3 Pa0_3 3.948688 1_555
Er0_3 Pa1_7 3.948688 1_455
Er0_3 Pa0_2 3.948696 1_555
Er0_3 Pa0_1 3.948696 1_555
Er0_3 Pa1_5 3.948696 1_455
Er0_3 Pa1_6 3.948696 1_455
Er0_3 Pa0_0 3.948705 1_555
Er0_3 Pa1_4 3.948705 1_455
Er0_4 Pa1_0 3.948688 1_555
Er0_4 Pa0_4 3.948688 1_555
Er0_4 Pa1_1 3.948696 1_554
Er0_4 Pa1_2 3.948696 1_545
Er0_4 Pa0_5 3.948696 1_554
Er0_4 Pa0_6 3.948696 1_545
Er0_4 Pa1_3 3.948705 1_544
Er0_4 Pa0_7 3.948705 1_544
Er0_4 Er0_6 4.094153 1_555
Er0_4 Er0_5 4.094153 1_555
Er0_4 Er0_6 4.094153 1_545
Er0_4 Er0_5 4.094153 1_554
Er0_5 Pa1_1 3.948688 1_555
Er0_5 Pa0_5 3.948688 1_555
Er0_5 Pa1_0 3.948696 1_555
Er0_5 Pa0_4 3.948696 1_555
Er0_5 Pa1_3 3.948696 1_545
Er0_5 Pa0_7 3.948696 1_545
Er0_5 Pa1_2 3.948705 1_545
Er0_5 Pa0_6 3.948705 1_545
Er0_5 Er0_7 4.094153 1_555
Er0_5 Er0_7 4.094153 1_545
Er0_6 Pa1_2 3.948688 1_555
Er0_6 Pa0_6 3.948688 1_555
Er0_6 Pa1_0 3.948696 1_555
Er0_6 Pa0_4 3.948696 1_555
Er0_6 Pa1_3 3.948696 1_554
Er0_6 Pa0_7 3.948696 1_554
Er0_6 Pa1_1 3.948705 1_554
Er0_6 Pa0_5 3.948705 1_554
Er0_6 Er0_7 4.094153 1_555
Er0_6 Er0_7 4.094153 1_554
Er0_7 Pa1_3 3.948688 1_555
Er0_7 Pa0_7 3.948688 1_555
Er0_7 Pa1_1 3.948696 1_555
Er0_7 Pa1_2 3.948696 1_555
Er0_7 Pa0_6 3.948696 1_555
Er0_7 Pa0_5 3.948696 1_555
Er0_7 Pa1_0 3.948705 1_555
Er0_7 Pa0_4 3.948705 1_555
Er1_0 O1_0 2.531740 1_555
Er1_0 O4_0 2.531740 1_555
Er1_0 O0_0 2.531752 1_555
Er1_0 O3_0 2.531752 1_555
Er1_0 O4_1 2.531753 1_554
Er1_0 O1_2 2.531753 1_545
Er1_0 O3_1 2.531765 1_554
Er1_0 O0_2 2.531765 1_545
Er1_1 O4_1 2.531740 1_555
Er1_1 O1_1 2.531740 1_555
Er1_1 O3_1 2.531752 1_555
Er1_1 O0_1 2.531752 1_555
Er1_1 O4_0 2.531753 1_555
Er1_1 O1_3 2.531753 1_545
Er1_1 O3_0 2.531765 1_555
Er1_1 O0_3 2.531765 1_545
Er1_2 O1_2 2.531740 1_555
Er1_2 O4_2 2.531740 1_555
Er1_2 O0_2 2.531752 1_555
Er1_2 O3_2 2.531752 1_555
Er1_2 O1_0 2.531753 1_555
Er1_2 O4_3 2.531753 1_554
Er1_2 O0_0 2.531765 1_555
Er1_2 O3_3 2.531765 1_554
Er1_3 O1_3 2.531740 1_555
Er1_3 O4_3 2.531740 1_555
Er1_3 O3_3 2.531752 1_555
Er1_3 O0_3 2.531752 1_555
Er1_3 O4_2 2.531753 1_555
Er1_3 O1_1 2.531753 1_555
Er1_3 O0_1 2.531765 1_555
Er1_3 O3_2 2.531765 1_555
Er1_4 O1_4 2.531740 1_555
Er1_4 O4_4 2.531740 1_555
Er1_4 O3_4 2.531752 1_555
Er1_4 O0_4 2.531752 1_555
Er1_4 O1_6 2.531753 1_545
Er1_4 O4_5 2.531753 1_554
Er1_4 O3_5 2.531765 1_554
Er1_4 O0_6 2.531765 1_545
Er1_5 O4_5 2.531740 1_555
Er1_5 O1_5 2.531740 1_555
Er1_5 O3_5 2.531752 1_555
Er1_5 O0_5 2.531752 1_555
Er1_5 O4_4 2.531753 1_555
Er1_5 O1_7 2.531753 1_545
Er1_5 O3_4 2.531765 1_555
Er1_5 O0_7 2.531765 1_545
Er1_6 O1_6 2.531740 1_555
Er1_6 O4_6 2.531740 1_555
Er1_6 O0_6 2.531752 1_555
Er1_6 O3_6 2.531752 1_555
Er1_6 O1_4 2.531753 1_555
Er1_6 O4_7 2.531753 1_554
Er1_6 O0_4 2.531765 1_555
Er1_6 O3_7 2.531765 1_554
Er1_7 O4_7 2.531740 1_555
Er1_7 O1_7 2.531740 1_555
Er1_7 O0_7 2.531752 1_555
Er1_7 O3_7 2.531752 1_555
Er1_7 O4_6 2.531753 1_555
Er1_7 O1_5 2.531753 1_555
Er1_7 O0_5 2.531765 1_555
Er1_7 O3_6 2.531765 1_555
O0_0 Pa0_0 2.176159 1_555
O0_0 Pa0_1 2.176174 1_554
O0_1 Pa0_1 2.176159 1_555
O0_1 Pa0_0 2.176174 1_555
O0_2 Pa0_2 2.176159 1_555
O0_2 Pa0_3 2.176174 1_554
O0_3 Pa0_3 2.176159 1_555
O0_3 Pa0_2 2.176174 1_555
O0_4 Pa0_4 2.176159 1_555
O0_4 Pa0_5 2.176174 1_554
O0_5 Pa0_5 2.176159 1_555
O0_5 Pa0_4 2.176174 1_555
O0_6 Pa0_6 2.176159 1_555
O0_6 Pa0_7 2.176174 1_554
O0_7 Pa0_7 2.176159 1_555
O0_7 Pa0_6 2.176174 1_555
O1_0 Pa1_0 2.176159 1_555
O1_0 Pa1_1 2.176174 1_554
O1_1 Pa1_1 2.176159 1_555
O1_1 Pa1_0 2.176174 1_555
O1_2 Pa1_2 2.176159 1_555
O1_2 Pa1_3 2.176174 1_554
O1_3 Pa1_3 2.176159 1_555
O1_3 Pa1_2 2.176174 1_555
O1_4 Pa1_4 2.176159 1_555
O1_4 Pa1_5 2.176174 1_554
O1_5 Pa1_5 2.176159 1_555
O1_5 Pa1_4 2.176174 1_555
O1_6 Pa1_6 2.176159 1_555
O1_6 Pa1_7 2.176174 1_554
O1_7 Pa1_7 2.176159 1_555
O1_7 Pa1_6 2.176174 1_555
O2_0 Pa1_0 2.228066 1_555
O2_0 Pa0_0 2.228086 1_555
O2_1 Pa1_1 2.228066 1_555
O2_1 Pa0_1 2.228086 1_555
O2_2 Pa1_2 2.228066 1_555
O2_2 Pa0_2 2.228086 1_555
O2_3 Pa1_3 2.228066 1_555
O2_3 Pa0_3 2.228086 1_555
O2_4 Pa1_4 2.228066 1_555
O2_4 Pa0_4 2.228086 1_555
O2_5 Pa1_5 2.228066 1_555
O2_5 Pa0_5 2.228086 1_555
O2_6 Pa1_6 2.228066 1_555
O2_6 Pa0_6 2.228086 1_555
O2_7 Pa1_7 2.228066 1_555
O2_7 Pa0_7 2.228086 1_555
O3_0 Pa0_0 2.176159 1_555
O3_0 Pa0_2 2.176174 1_545
O3_1 Pa0_1 2.176159 1_555
O3_1 Pa0_3 2.176174 1_545
O3_2 Pa0_2 2.176159 1_555
O3_2 Pa0_0 2.176174 1_555
O3_3 Pa0_3 2.176159 1_555
O3_3 Pa0_1 2.176174 1_555
O3_4 Pa0_4 2.176159 1_555
O3_4 Pa0_6 2.176174 1_545
O3_5 Pa0_5 2.176159 1_555
O3_5 Pa0_7 2.176174 1_545
O3_6 Pa0_6 2.176159 1_555
O3_6 Pa0_4 2.176174 1_555
O3_7 Pa0_7 2.176159 1_555
O3_7 Pa0_5 2.176174 1_555
O4_0 Pa1_0 2.176159 1_555
O4_0 Pa1_2 2.176174 1_545
O4_1 Pa1_1 2.176159 1_555
O4_1 Pa1_3 2.176174 1_545
O4_2 Pa1_2 2.176159 1_555
O4_2 Pa1_0 2.176174 1_555
O4_3 Pa1_3 2.176159 1_555
O4_3 Pa1_1 2.176174 1_555
O4_4 Pa1_4 2.176159 1_555
O4_4 Pa1_6 2.176174 1_545
O4_5 Pa1_5 2.176159 1_555
O4_5 Pa1_7 2.176174 1_545
O4_6 Pa1_6 2.176159 1_555
O4_6 Pa1_4 2.176174 1_555
O4_7 Pa1_7 2.176159 1_555
O4_7 Pa1_5 2.176174 1_555
