# generated using pymatgen
data_UP2S7
_symmetry_space_group_name_H-M   'P 1'
_cell_length_a   17.13370321
_cell_length_b   15.97984751
_cell_length_c   8.96552692
_cell_angle_alpha   81.53643755
_cell_angle_beta   67.29417555
_cell_angle_gamma   31.16938690
_symmetry_Int_Tables_number   1
_chemical_formula_structural   UP2S7
_chemical_formula_sum   'U4 P8 S28'
_cell_volume   1082.41553461
_cell_formula_units_Z   4
loop_
 _symmetry_equiv_pos_site_id
 _symmetry_equiv_pos_as_xyz
  1  'x, y, z'
loop_
 _atom_site_type_symbol
 _atom_site_label
 _atom_site_symmetry_multiplicity
 _atom_site_fract_x
 _atom_site_fract_y
 _atom_site_fract_z
 _atom_site_occupancy
  U  U0  1  0.11068200  0.11068200  0.88931800  1
  U  U1  1  0.88931800  0.88931800  0.11068200  1
  U  U2  1  0.13931800  0.13931800  0.36068200  1
  U  U3  1  0.36068200  0.36068200  0.13931800  1
  P  P0  1  0.25453300  0.85825400  0.13141700  1
  P  P1  1  0.75579600  0.13141700  0.85825400  1
  P  P2  1  0.13141700  0.75579600  0.25453300  1
  P  P3  1  0.85825400  0.25453300  0.75579600  1
  P  P4  1  0.99546700  0.39174600  0.11858300  1
  P  P5  1  0.49420400  0.11858300  0.39174600  1
  P  P6  1  0.11858300  0.49420400  0.99546700  1
  P  P7  1  0.39174600  0.99546700  0.49420400  1
  S  S0  1  0.63894100  0.99950000  0.12205800  1
  S  S1  1  0.23950100  0.12205800  0.99950000  1
  S  S2  1  0.12205800  0.23950100  0.63894100  1
  S  S3  1  0.99950000  0.63894100  0.23950100  1
  S  S4  1  0.61105900  0.25050000  0.12794200  1
  S  S5  1  0.01049900  0.12794200  0.25050000  1
  S  S6  1  0.12794200  0.01049900  0.61105900  1
  S  S7  1  0.25050000  0.61105900  0.01049900  1
  S  S8  1  0.41620800  0.79378300  0.14711200  1
  S  S9  1  0.64289600  0.14711200  0.79378300  1
  S  S10  1  0.14711200  0.64289600  0.41620800  1
  S  S11  1  0.79378300  0.41620800  0.64289600  1
  S  S12  1  0.83379200  0.45621700  0.10288800  1
  S  S13  1  0.60710400  0.10288800  0.45621700  1
  S  S14  1  0.10288800  0.60710400  0.83379200  1
  S  S15  1  0.45621700  0.83379200  0.60710400  1
  S  S16  1  0.79443000  0.30568900  0.00744800  1
  S  S17  1  0.89243200  0.00744800  0.30568900  1
  S  S18  1  0.00744800  0.89243200  0.79443000  1
  S  S19  1  0.30568900  0.79443000  0.89243200  1
  S  S20  1  0.45557000  0.94431100  0.24255200  1
  S  S21  1  0.35756800  0.24255200  0.94431100  1
  S  S22  1  0.24255200  0.35756800  0.45557000  1
  S  S23  1  0.94431100  0.45557000  0.35756800  1
  S  S24  1  0.27501100  0.72498900  0.27501100  1
  S  S25  1  0.72498900  0.27501100  0.72498900  1
  S  S26  1  0.97498900  0.52501100  0.97498900  1
  S  S27  1  0.52501100  0.97498900  0.52501100  1
loop_
_geom_bond_atom_site_label_1
_geom_bond_atom_site_label_2
_geom_bond_distance
_geom_bond_site_symmetry_2
P0 S19 2.015677 1_554
P0 S8 2.032018 1_555
P0 S5 2.065662 1_565
P0 S24 2.139755 1_555
P1 S18 2.015670 1_645
P1 S9 2.032035 1_555
P1 S4 2.065662 1_556
P1 S25 2.139755 1_555
P2 S17 2.015672 1_465
P2 S10 2.032029 1_555
P2 S7 2.065662 1_555
P2 S24 2.139755 1_555
P3 S16 2.015668 1_556
P3 S11 2.032023 1_555
P3 S6 2.065662 1_655
P3 S25 2.139755 1_555
P4 S23 2.015677 1_555
P4 S12 2.032018 1_555
P4 S1 2.065662 1_654
P4 S26 2.139755 1_554
P5 S22 2.015670 1_555
P5 S13 2.032035 1_555
P5 S0 2.065662 1_545
P5 S27 2.139755 1_545
P6 S21 2.015672 1_555
P6 S14 2.032029 1_555
P6 S3 2.065662 1_456
P6 S26 2.139755 1_455
P7 S20 2.015668 1_555
P7 S15 2.032023 1_555
P7 S2 2.065662 1_565
P7 S27 2.139755 1_555
S0 U1 2.881500 1_555
S0 U3 2.944484 1_565
S1 U0 2.881500 1_555
S1 U2 2.944484 1_556
S2 U0 2.881500 1_555
S2 U2 2.944484 1_555
S3 U1 2.881500 1_555
S3 U3 2.944484 1_655
S4 U3 2.881500 1_555
S4 U1 2.944484 1_545
S5 U2 2.881500 1_555
S5 U0 2.944484 1_554
S6 U2 2.881500 1_555
S6 U0 2.944484 1_555
S7 U3 2.881500 1_555
S7 U1 2.944484 1_455
S8 U2 2.816587 1_565
S9 U3 2.816582 1_556
S10 U3 2.816577 1_555
S11 U2 2.816584 1_655
S12 U0 2.816587 1_654
S13 U1 2.816582 1_545
S14 U1 2.816577 1_456
S15 U0 2.816584 1_565
S16 U0 2.799802 1_654
S17 U1 2.799787 1_545
S18 U1 2.799794 1_456
S19 U0 2.799800 1_565
S20 U2 2.799802 1_565
S21 U3 2.799787 1_556
S22 U3 2.799794 1_555
S23 U2 2.799800 1_655
