# generated using pymatgen
data_Cu3TePbO7
_symmetry_space_group_name_H-M   'P 1'
_cell_length_a   6.42067600
_cell_length_b   8.89775400
_cell_length_c   10.66654300
_cell_angle_alpha   90.00000000
_cell_angle_beta   90.00000000
_cell_angle_gamma   90.00000000
_symmetry_Int_Tables_number   1
_chemical_formula_structural   Cu3TePbO7
_chemical_formula_sum   'Cu12 Te4 Pb4 O28'
_cell_volume   609.37528763
_cell_formula_units_Z   4
loop_
 _symmetry_equiv_pos_site_id
 _symmetry_equiv_pos_as_xyz
  1  'x, y, z'
loop_
 _atom_site_type_symbol
 _atom_site_label
 _atom_site_symmetry_multiplicity
 _atom_site_fract_x
 _atom_site_fract_y
 _atom_site_fract_z
 _atom_site_occupancy
  Cu  Cu0  1  0.00908000  0.87607600  0.88821800  1
  Cu  Cu1  1  0.49092000  0.62392400  0.38821800  1
  Cu  Cu2  1  0.50908000  0.12392400  0.11178200  1
  Cu  Cu3  1  0.99092000  0.37607600  0.61178200  1
  Cu  Cu4  1  0.99092000  0.12392400  0.11178200  1
  Cu  Cu5  1  0.50908000  0.37607600  0.61178200  1
  Cu  Cu6  1  0.49092000  0.87607600  0.88821800  1
  Cu  Cu7  1  0.00908000  0.62392400  0.38821800  1
  Cu  Cu8  1  0.25000000  0.59475500  0.74707600  1
  Cu  Cu9  1  0.25000000  0.90524500  0.24707600  1
  Cu  Cu10  1  0.75000000  0.40524500  0.25292400  1
  Cu  Cu11  1  0.75000000  0.09475500  0.75292400  1
  Te  Te0  1  0.25000000  0.20238600  0.88530000  1
  Te  Te1  1  0.25000000  0.29761400  0.38530000  1
  Te  Te2  1  0.75000000  0.79761400  0.11470000  1
  Te  Te3  1  0.75000000  0.70238600  0.61470000  1
  Pb  Pb0  1  0.25000000  0.95461300  0.60716500  1
  Pb  Pb1  1  0.25000000  0.54538700  0.10716500  1
  Pb  Pb2  1  0.75000000  0.04538700  0.39283500  1
  Pb  Pb3  1  0.75000000  0.45461300  0.89283500  1
  O  O0  1  0.25000000  0.36077000  0.76466700  1
  O  O1  1  0.25000000  0.13923000  0.26466700  1
  O  O2  1  0.75000000  0.63923000  0.23533300  1
  O  O3  1  0.75000000  0.86077000  0.73533300  1
  O  O4  1  0.25000000  0.79842500  0.79752500  1
  O  O5  1  0.25000000  0.70157500  0.29752500  1
  O  O6  1  0.75000000  0.20157500  0.20247500  1
  O  O7  1  0.75000000  0.29842500  0.70247500  1
  O  O8  1  0.25000000  0.04507500  0.01880900  1
  O  O9  1  0.25000000  0.45492500  0.51880900  1
  O  O10  1  0.75000000  0.95492500  0.98119100  1
  O  O11  1  0.75000000  0.54507500  0.48119100  1
  O  O12  1  0.95558200  0.57284900  0.70936900  1
  O  O13  1  0.54441800  0.92715100  0.20936900  1
  O  O14  1  0.45558200  0.42715100  0.29063100  1
  O  O15  1  0.04441800  0.07284900  0.79063100  1
  O  O16  1  0.04441800  0.42715100  0.29063100  1
  O  O17  1  0.45558200  0.07284900  0.79063100  1
  O  O18  1  0.54441800  0.57284900  0.70936900  1
  O  O19  1  0.95558200  0.92715100  0.20936900  1
  O  O20  1  0.97268300  0.71034200  0.01244500  1
  O  O21  1  0.52731700  0.78965800  0.51244500  1
  O  O22  1  0.47268300  0.28965800  0.98755500  1
  O  O23  1  0.02731700  0.21034200  0.48755500  1
  O  O24  1  0.02731700  0.28965800  0.98755500  1
  O  O25  1  0.47268300  0.21034200  0.48755500  1
  O  O26  1  0.52731700  0.71034200  0.01244500  1
  O  O27  1  0.97268300  0.78965800  0.51244500  1
loop_
_geom_bond_atom_site_label_1
_geom_bond_atom_site_label_2
_geom_bond_distance
_geom_bond_site_symmetry_2
Cu0 O4 1.950897 1_555
Cu0 O20 1.996260 1_456
Cu0 O15 2.049493 1_565
Cu0 O10 2.059809 1_455
Cu0 O3 2.333460 1_455
Cu0 O8 2.567932 1_566
Cu1 O5 1.950897 1_555
Cu1 O21 1.996260 1_555
Cu1 O14 2.049493 1_555
Cu1 O11 2.059809 1_555
Cu1 O2 2.333460 1_555
Cu1 O9 2.567932 1_555
Cu2 O6 1.950897 1_555
Cu2 O22 1.996260 1_554
Cu2 O13 2.049493 1_545
Cu2 O8 2.059809 1_555
Cu2 O1 2.333460 1_555
Cu2 O10 2.567932 1_544
Cu3 O7 1.950897 1_555
Cu3 O23 1.996260 1_655
Cu3 O12 2.049493 1_555
Cu3 O9 2.059809 1_655
Cu3 O0 2.333460 1_655
Cu3 O11 2.567932 1_555
Cu4 O6 1.950897 1_555
Cu4 O24 1.996260 1_654
Cu4 O19 2.049493 1_545
Cu4 O8 2.059809 1_655
Cu4 O1 2.333460 1_655
Cu4 O10 2.567932 1_544
Cu5 O7 1.950897 1_555
Cu5 O25 1.996260 1_555
Cu5 O18 2.049493 1_555
Cu5 O9 2.059809 1_555
Cu5 O0 2.333460 1_555
Cu5 O11 2.567932 1_555
Cu6 O4 1.950897 1_555
Cu6 O26 1.996260 1_556
Cu6 O17 2.049493 1_565
Cu6 O10 2.059809 1_555
Cu6 O3 2.333460 1_555
Cu6 O8 2.567932 1_566
Cu7 O5 1.950897 1_555
Cu7 O27 1.996260 1_455
Cu7 O16 2.049493 1_555
Cu7 O11 2.059809 1_455
Cu7 O2 2.333460 1_455
Cu7 O9 2.567932 1_555
Cu8 O4 1.890412 1_555
Cu8 O18 1.942480 1_555
Cu8 O12 1.942480 1_455
Cu8 O0 2.090379 1_555
Cu9 O5 1.890412 1_555
Cu9 O13 1.942480 1_555
Cu9 O19 1.942480 1_455
Cu9 O1 2.090379 1_565
Cu10 O6 1.890412 1_555
Cu10 O14 1.942480 1_555
Cu10 O16 1.942480 1_655
Cu10 O2 2.090379 1_555
Cu11 O7 1.890412 1_555
Cu11 O17 1.942480 1_555
Cu11 O15 1.942480 1_655
Cu11 O3 2.090379 1_545
O0 Te0 1.908327 1_555
O1 Te1 1.908327 1_555
O2 Te2 1.908327 1_555
O3 Te3 1.908327 1_555
O4 Pb0 2.460526 1_555
O5 Pb1 2.460526 1_555
O6 Pb2 2.460526 1_555
O7 Pb3 2.460526 1_555
O8 Te0 1.996798 1_554
O9 Te1 1.996798 1_555
O10 Te2 1.996798 1_556
O11 Te3 1.996798 1_555
O12 Te3 2.022492 1_555
O12 Pb3 2.584329 1_555
O13 Te2 2.022492 1_555
O13 Pb2 2.584329 1_565
O14 Te1 2.022492 1_555
O14 Pb1 2.584329 1_555
O15 Te0 2.022492 1_555
O15 Pb0 2.584329 1_545
O16 Te1 2.022492 1_555
O16 Pb1 2.584329 1_555
O17 Te0 2.022492 1_555
O17 Pb0 2.584329 1_545
O18 Te3 2.022492 1_555
O18 Pb3 2.584329 1_555
O19 Te2 2.022492 1_555
O19 Pb2 2.584329 1_565
O20 Te2 1.958798 1_555
O20 Pb1 2.519009 1_655
O21 Te3 1.958798 1_555
O21 Pb0 2.519009 1_555
O22 Te0 1.958798 1_555
O22 Pb3 2.519009 1_555
O23 Te1 1.958798 1_555
O23 Pb2 2.519009 1_455
O24 Te0 1.958798 1_555
O24 Pb3 2.519009 1_455
O25 Te1 1.958798 1_555
O25 Pb2 2.519009 1_555
O26 Te2 1.958798 1_555
O26 Pb1 2.519009 1_555
O27 Te3 1.958798 1_555
O27 Pb0 2.519009 1_655
