# generated using pymatgen
data_Mg5Si9
_symmetry_space_group_name_H-M   'P 1'
_cell_length_a   7.97004093
_cell_length_b   7.82651888
_cell_length_c   9.77655944
_cell_angle_alpha   84.02180807
_cell_angle_beta   90.70969738
_cell_angle_gamma   123.49055567
_symmetry_Int_Tables_number   1
_chemical_formula_structural   Mg5Si9
_chemical_formula_sum   'Mg10 Si18'
_cell_volume   505.07794375
_cell_formula_units_Z   2
loop_
 _symmetry_equiv_pos_site_id
 _symmetry_equiv_pos_as_xyz
  1  'x, y, z'
loop_
 _atom_site_type_symbol
 _atom_site_label
 _atom_site_symmetry_multiplicity
 _atom_site_fract_x
 _atom_site_fract_y
 _atom_site_fract_z
 _atom_site_occupancy
  Mg  Mg0  1  0.54040100  0.08379700  0.79017800  1
  Mg  Mg1  1  0.18357400  0.91368300  0.40402600  1
  Mg  Mg2  1  0.95165900  0.45589600  0.55135600  1
  Mg  Mg3  1  0.28841000  0.57435800  0.34075200  1
  Mg  Mg4  1  0.22260900  0.22193200  0.57876400  1
  Mg  Mg5  1  0.72554700  0.68487600  0.40516500  1
  Mg  Mg6  1  0.36907600  0.97153800  0.08362800  1
  Mg  Mg7  1  0.68041200  0.79259600  0.88217100  1
  Mg  Mg8  1  0.87409400  0.21945100  0.05818400  1
  Mg  Mg9  1  0.08682800  0.63367500  0.87057400  1
  Si  Si0  1  0.61224600  0.79967700  0.15817300  1
  Si  Si1  1  0.40754300  0.35664700  0.92638000  1
  Si  Si2  1  0.95438400  0.16701800  0.37304300  1
  Si  Si3  1  0.93268500  0.76807900  0.66325100  1
  Si  Si4  1  0.96858200  0.60166600  0.24145200  1
  Si  Si5  1  0.97485100  0.22601600  0.78589700  1
  Si  Si6  1  0.56384200  0.32858000  0.25923200  1
  Si  Si7  1  0.34041800  0.55110400  0.72438700  1
  Si  Si8  1  0.19865400  0.21581500  0.19399600  1
  Si  Si9  1  0.80878100  0.98971800  0.60909400  1
  Si  Si10  1  0.12548600  0.01578900  0.86699600  1
  Si  Si11  1  0.95200800  0.86527600  0.10068400  1
  Si  Si12  1  0.60065200  0.02557300  0.30698000  1
  Si  Si13  1  0.58999700  0.46234000  0.68572600  1
  Si  Si14  1  0.72826700  0.46380400  0.02723800  1
  Si  Si15  1  0.30297900  0.54602400  0.05420700  1
  Si  Si16  1  0.47088100  0.85168000  0.54338600  1
  Si  Si17  1  0.54543200  0.21358000  0.51486800  1
loop_
_geom_bond_atom_site_label_1
_geom_bond_atom_site_label_2
_geom_bond_distance
_geom_bond_site_symmetry_2
Mg0 Si17 2.768794 1_555
Mg0 Si13 2.839698 1_555
Mg0 Si5 2.995106 1_555
Mg0 Mg6 3.019141 1_546
Mg0 Si16 3.032792 1_545
Mg0 Mg7 3.098906 1_545
Mg0 Si10 3.133467 1_555
Mg0 Si9 3.217947 1_545
Mg0 Si1 3.252274 1_555
Mg1 Si4 2.747519 1_455
Mg1 Si17 2.825398 1_565
Mg1 Si16 2.889030 1_555
Mg1 Si8 2.916055 1_565
Mg1 Si3 2.954494 1_455
Mg1 Si12 3.067473 1_565
Mg1 Si6 3.165662 1_565
Mg2 Si17 2.746327 1_555
Mg2 Si5 2.833052 1_555
Mg2 Si3 2.856213 1_555
Mg2 Si2 3.004556 1_555
Mg2 Si4 3.101569 1_555
Mg2 Si9 3.151036 1_545
Mg2 Si13 3.210126 1_555
Mg2 Si7 3.256057 1_655
Mg3 Si0 2.718997 1_555
Mg3 Si2 2.792012 1_455
Mg3 Si4 2.825330 1_455
Mg3 Si15 2.841921 1_555
Mg3 Si16 2.844519 1_555
Mg3 Si12 2.975211 1_565
Mg3 Si8 3.007092 1_555
Mg4 Si17 2.692268 1_555
Mg4 Si13 2.731554 1_555
Mg4 Si9 2.750627 1_445
Mg4 Si7 2.758079 1_555
Mg4 Si2 2.803468 1_455
Mg4 Si5 2.860637 1_455
Mg4 Si10 2.978526 1_555
Mg4 Si3 3.002821 1_445
Mg5 Si0 2.800555 1_555
Mg5 Si6 2.879158 1_555
Mg5 Si4 2.902398 1_555
Mg5 Si3 2.927227 1_555
Mg5 Si13 2.953974 1_555
Mg5 Si9 3.052649 1_555
Mg5 Si2 3.136299 1_565
Mg5 Si17 3.191752 1_555
Mg5 Si11 3.249249 1_555
Mg6 Si12 2.754020 1_565
Mg6 Si11 2.950039 1_455
Mg6 Si0 2.955374 1_555
Mg6 Si10 2.976914 1_564
Mg6 Si6 3.051533 1_565
Mg6 Si1 3.093330 1_564
Mg6 Si15 3.116207 1_555
Mg6 Si4 3.153334 1_455
Mg6 Si8 3.161667 1_565
Mg7 Si0 2.771284 1_556
Mg7 Si9 2.832359 1_555
Mg7 Si1 2.843426 1_555
Mg7 Si7 2.854164 1_555
Mg7 Si11 2.890103 1_556
Mg7 Si5 2.916210 1_565
Mg7 Si15 2.940184 1_556
Mg7 Si10 2.962620 1_665
Mg7 Si14 3.014684 1_556
Mg7 Si3 3.046010 1_555
Mg7 Si13 3.135755 1_555
Mg8 Si14 2.724612 1_555
Mg8 Si5 2.777201 1_554
Mg8 Si0 2.814151 1_545
Mg8 Si8 2.905751 1_655
Mg8 Si15 2.925629 1_655
Mg8 Si12 2.946428 1_555
Mg8 Si11 3.145688 1_545
Mg8 Si2 3.167226 1_555
Mg9 Si15 2.762713 1_556
Mg9 Si3 2.764874 1_455
Mg9 Si14 2.787736 1_456
Mg9 Si10 2.828704 1_565
Mg9 Si7 2.872385 1_555
Mg9 Si5 3.008468 1_455
Si0 Si12 2.443396 1_565
Si0 Si15 2.451084 1_555
Si0 Si11 2.521029 1_555
Si1 Si14 2.440011 1_556
Si1 Si10 2.485820 1_555
Si1 Si15 2.495575 1_556
Si1 Si13 2.585774 1_555
Si1 Si7 2.597812 1_555
Si1 Si8 2.883410 1_556
Si2 Si8 2.474832 1_655
Si2 Si9 2.494027 1_545
Si3 Si9 2.439426 1_555
Si4 Si6 2.707725 1_555
Si5 Si9 2.463271 1_545
Si5 Si7 2.620641 1_655
Si6 Si8 2.625540 1_555
Si10 Si11 2.497841 1_446
Si10 Si5 2.581054 1_455
Si10 Si3 2.743804 1_445
Si11 Si4 2.423398 1_555
Si11 Si8 2.597767 1_665
Si11 Si14 2.796981 1_555
Si12 Si16 2.472722 1_545
Si12 Si2 2.500075 1_555
Si12 Si6 2.542003 1_555
Si12 Si17 2.801674 1_555
Si13 Si3 2.434450 1_555
Si13 Si7 2.486082 1_555
Si13 Si17 2.570309 1_555
Si14 Si6 2.454532 1_555
Si14 Si4 2.703567 1_555
Si15 Si8 2.481758 1_555
Si16 Si9 2.392345 1_555
Si16 Si7 2.495115 1_555
Si16 Si17 2.536863 1_565
Si17 Si6 2.544131 1_555
