# generated using pymatgen
data_Na4Mg(SiSe3)2
_symmetry_space_group_name_H-M   'P 1'
_cell_length_a   7.04670190
_cell_length_b   7.04670190
_cell_length_c   7.03453792
_cell_angle_alpha   81.01735063
_cell_angle_beta   81.01735063
_cell_angle_gamma   114.23514821
_symmetry_Int_Tables_number   1
_chemical_formula_structural   Na4Mg(SiSe3)2
_chemical_formula_sum   'Na4 Mg1 Si2 Se6'
_cell_volume   305.06606981
_cell_formula_units_Z   1
loop_
 _symmetry_equiv_pos_site_id
 _symmetry_equiv_pos_as_xyz
  1  'x, y, z'
loop_
 _atom_site_type_symbol
 _atom_site_label
 _atom_site_symmetry_multiplicity
 _atom_site_fract_x
 _atom_site_fract_y
 _atom_site_fract_z
 _atom_site_occupancy
  Na  Na0  1  0.51209120  0.48790880  0.50000000  1
  Na  Na1  1  0.35855978  0.64144022  -0.00000000  1
  Na  Na2  1  0.68209410  0.31790590  -0.00000000  1
  Na  Na3  1  0.04682570  0.95317430  -0.00000000  1
  Mg  Mg0  1  0.87211549  0.12788451  0.50000000  1
  Si  Si0  1  0.35548190  0.96109026  0.44538452  1
  Si  Si1  1  0.03890974  0.64451810  0.55461548  1
  Se  Se0  1  0.26165636  0.19814404  0.26941140  1
  Se  Se1  1  0.80185596  0.73834364  0.73058860  1
  Se  Se2  1  0.47079783  0.05841962  0.71575163  1
  Se  Se3  1  0.94158038  0.52920217  0.28424837  1
  Se  Se4  1  0.61926240  0.91807183  0.25395380  1
  Se  Se5  1  0.08192817  0.38073760  0.74604620  1
loop_
_geom_bond_atom_site_label_1
_geom_bond_atom_site_label_2
_geom_bond_distance
_geom_bond_site_symmetry_2
Na0 Se5 2.971292 1_555
Na0 Se4 2.971292 1_555
Na0 Se0 2.980716 1_555
Na0 Se1 2.980716 1_555
Na0 Se2 3.041786 1_555
Na0 Se3 3.041786 1_555
Na1 Se2 3.003517 1_564
Na1 Se3 3.003517 1_455
Na1 Se4 3.088453 1_555
Na1 Se5 3.088453 1_554
Na1 Se1 3.132413 1_554
Na1 Se0 3.132413 1_555
Na2 Se4 2.912544 1_545
Na2 Se5 2.912544 1_654
Na2 Se1 2.962442 1_554
Na2 Se0 2.962442 1_555
Na2 Se3 3.065122 1_555
Na2 Se2 3.065122 1_554
Na3 Se1 2.938614 1_454
Na3 Se0 2.938614 1_565
Na3 Se3 3.053926 1_455
Na3 Se2 3.053926 1_564
Na3 Se5 3.146366 1_564
Na3 Se4 3.146366 1_455
Mg0 Se0 2.766636 1_655
Mg0 Se1 2.766636 1_545
Mg0 Se3 2.798523 1_555
Mg0 Se2 2.798523 1_555
Mg0 Se4 2.820609 1_545
Mg0 Se5 2.820609 1_655
Se0 Si0 2.297053 1_545
Se1 Si1 2.297053 1_655
Se2 Si0 2.276041 1_545
Se3 Si1 2.276041 1_655
Se4 Si0 2.273497 1_555
Se5 Si1 2.273497 1_555
