# generated using pymatgen
data_FePH6C2SO7
_symmetry_space_group_name_H-M   'P 1'
_cell_length_a   7.49860600
_cell_length_b   9.99753920
_cell_length_c   12.21859436
_cell_angle_alpha   112.06886239
_cell_angle_beta   90.00000000
_cell_angle_gamma   90.00000000
_symmetry_Int_Tables_number   1
_chemical_formula_structural   FePH6C2SO7
_chemical_formula_sum   'Fe4 P4 H24 C8 S4 O28'
_cell_volume   848.88626059
_cell_formula_units_Z   4
loop_
 _symmetry_equiv_pos_site_id
 _symmetry_equiv_pos_as_xyz
  1  'x, y, z'
loop_
 _atom_site_type_symbol
 _atom_site_label
 _atom_site_symmetry_multiplicity
 _atom_site_fract_x
 _atom_site_fract_y
 _atom_site_fract_z
 _atom_site_occupancy
  Fe  Fe0  1  0.36690300  0.25900900  0.99602500  1
  Fe  Fe1  1  0.86690300  0.24099100  0.00397500  1
  Fe  Fe2  1  0.63309700  0.74099100  0.00397500  1
  Fe  Fe3  1  0.13309700  0.75900900  0.99602500  1
  P  P0  1  0.38071100  0.46739800  0.84751800  1
  P  P1  1  0.88071100  0.03260200  0.15248200  1
  P  P2  1  0.61928900  0.53260200  0.15248200  1
  P  P3  1  0.11928900  0.96739800  0.84751800  1
  H  H0  1  0.45544300  0.34773000  0.64334600  1
  H  H1  1  0.95544300  0.15227000  0.35665400  1
  H  H2  1  0.54455700  0.65227000  0.35665400  1
  H  H3  1  0.04455700  0.84773000  0.64334600  1
  H  H4  1  0.37109800  0.52638300  0.67349500  1
  H  H5  1  0.87109800  0.97361700  0.32650500  1
  H  H6  1  0.62890200  0.47361700  0.32650500  1
  H  H7  1  0.12890200  0.02638300  0.67349500  1
  H  H8  1  0.61214100  0.07903000  0.99757100  1
  H  H9  1  0.11214100  0.42097000  0.00242900  1
  H  H10  1  0.38785900  0.92097000  0.00242900  1
  H  H11  1  0.88785900  0.57903000  0.99757100  1
  H  H12  1  0.86440900  0.44349900  0.62338100  1
  H  H13  1  0.36440900  0.05650100  0.37661900  1
  H  H14  1  0.13559100  0.55650100  0.37661900  1
  H  H15  1  0.63559100  0.94349900  0.62338100  1
  H  H16  1  0.97795700  0.53872900  0.76120800  1
  H  H17  1  0.47795700  0.96127100  0.23879200  1
  H  H18  1  0.02204300  0.46127100  0.23879200  1
  H  H19  1  0.52204300  0.03872900  0.76120800  1
  H  H20  1  0.03972900  0.57029200  0.63023800  1
  H  H21  1  0.53972900  0.92970800  0.36976200  1
  H  H22  1  0.96027100  0.42970800  0.36976200  1
  H  H23  1  0.46027100  0.07029200  0.63023800  1
  C  C0  1  0.99095400  0.49073000  0.66486000  1
  C  C1  1  0.49095400  0.00927000  0.33514000  1
  C  C2  1  0.00904600  0.50927000  0.33514000  1
  C  C3  1  0.50904600  0.99073000  0.66486000  1
  C  C4  1  0.35212400  0.42674300  0.69076000  1
  C  C5  1  0.85212400  0.07325700  0.30924000  1
  C  C6  1  0.64787600  0.57325700  0.30924000  1
  C  C7  1  0.14787600  0.92674300  0.69076000  1
  S  S0  1  0.14504300  0.34542400  0.62364500  1
  S  S1  1  0.64504300  0.15457600  0.37635500  1
  S  S2  1  0.85495700  0.65457600  0.37635500  1
  S  S3  1  0.35495700  0.84542400  0.62364500  1
  O  O0  1  0.40103700  0.32271900  0.86276600  1
  O  O1  1  0.90103700  0.17728100  0.13723400  1
  O  O2  1  0.59896300  0.67728100  0.13723400  1
  O  O3  1  0.09896300  0.82271900  0.86276600  1
  O  O4  1  0.55543500  0.55489800  0.88016000  1
  O  O5  1  0.05543500  0.94510200  0.11984000  1
  O  O6  1  0.44456500  0.44510200  0.11984000  1
  O  O7  1  0.94456500  0.05489800  0.88016000  1
  O  O8  1  0.21528500  0.55191300  0.91507700  1
  O  O9  1  0.71528500  0.94808700  0.08492300  1
  O  O10  1  0.78471500  0.44808700  0.08492300  1
  O  O11  1  0.28471500  0.05191300  0.91507700  1
  O  O12  1  0.08738300  0.24032200  0.67237100  1
  O  O13  1  0.58738300  0.25967800  0.32762900  1
  O  O14  1  0.91261700  0.75967800  0.32762900  1
  O  O15  1  0.41261700  0.74032200  0.67237100  1
  O  O16  1  0.17412900  0.29449300  0.49638100  1
  O  O17  1  0.67412900  0.20550700  0.50361900  1
  O  O18  1  0.82587100  0.70550700  0.50361900  1
  O  O19  1  0.32587100  0.79449300  0.49638100  1
  O  O20  1  0.61119400  0.17121500  0.98670300  1
  O  O21  1  0.11119400  0.32878500  0.01329700  1
  O  O22  1  0.38880600  0.82878500  0.01329700  1
  O  O23  1  0.88880600  0.67121500  0.98670300  1
  O  O24  1  0.32354300  0.20801200  0.14490500  1
  O  O25  1  0.82354300  0.29198800  0.85509500  1
  O  O26  1  0.67645700  0.79198800  0.85509500  1
  O  O27  1  0.17645700  0.70801200  0.14490500  1
loop_
_geom_bond_atom_site_label_1
_geom_bond_atom_site_label_2
_geom_bond_distance
_geom_bond_site_symmetry_2
Fe0 O0 1.975268 1_555
Fe0 O6 1.993536 1_556
Fe0 O20 2.015910 1_555
Fe0 O21 2.024154 1_556
Fe0 O11 2.026334 1_555
Fe0 O24 2.090868 1_556
Fe1 O1 1.975268 1_555
Fe1 O7 1.993536 1_554
Fe1 O21 2.015910 1_655
Fe1 O20 2.024154 1_554
Fe1 O10 2.026334 1_555
Fe1 O25 2.090868 1_554
Fe2 O2 1.975268 1_555
Fe2 O4 1.993536 1_554
Fe2 O22 2.015910 1_555
Fe2 O23 2.024154 1_554
Fe2 O9 2.026334 1_555
Fe2 O26 2.090868 1_554
Fe3 O3 1.975268 1_555
Fe3 O5 1.993536 1_556
Fe3 O23 2.015910 1_455
Fe3 O22 2.024154 1_556
Fe3 O8 2.026334 1_555
Fe3 O27 2.090868 1_556
H8 O20 0.979305 1_555
H9 O21 0.979305 1_555
H10 O22 0.979305 1_555
H11 O23 0.979305 1_555
C0 H20 1.094659 1_655
C0 H12 1.095641 1_555
C0 H16 1.095973 1_555
C1 H21 1.094659 1_545
C1 H13 1.095641 1_555
C1 H17 1.095973 1_545
C2 H22 1.094659 1_455
C2 H14 1.095641 1_555
C2 H18 1.095973 1_555
C3 H23 1.094659 1_565
C3 H15 1.095641 1_555
C3 H19 1.095973 1_565
C4 H4 1.102261 1_555
C4 H0 1.102712 1_555
C4 P0 1.815150 1_555
C5 H5 1.102261 1_545
C5 H1 1.102712 1_555
C5 P1 1.815150 1_555
C6 H6 1.102261 1_555
C6 H2 1.102712 1_555
C6 P2 1.815150 1_555
C7 H7 1.102261 1_565
C7 H3 1.102712 1_555
C7 P3 1.815150 1_555
O0 P0 1.533823 1_555
O1 P1 1.533823 1_555
O2 P2 1.533823 1_555
O3 P3 1.533823 1_555
O4 P0 1.542314 1_555
O5 P1 1.542314 1_465
O6 P2 1.542314 1_555
O7 P3 1.542314 1_645
O8 P0 1.552409 1_555
O9 P1 1.552409 1_565
O10 P2 1.552409 1_555
O11 P3 1.552409 1_545
O12 S0 1.454507 1_555
O13 S1 1.454507 1_555
O14 S2 1.454507 1_555
O15 S3 1.454507 1_555
O16 S0 1.459401 1_555
O17 S1 1.459401 1_555
O18 S2 1.459401 1_555
O19 S3 1.459401 1_555
