# generated using pymatgen
data_ThMnCo4
_symmetry_space_group_name_H-M   'P 1'
_cell_length_a   4.00239500
_cell_length_b   5.02783301
_cell_length_c   5.02768217
_cell_angle_alpha   60.00692931
_cell_angle_beta   90.00000000
_cell_angle_gamma   90.00000000
_symmetry_Int_Tables_number   1
_chemical_formula_structural   ThMnCo4
_chemical_formula_sum   'Th1 Mn1 Co4'
_cell_volume   87.62530840
_cell_formula_units_Z   1
loop_
 _symmetry_equiv_pos_site_id
 _symmetry_equiv_pos_as_xyz
  1  'x, y, z'
loop_
 _atom_site_type_symbol
 _atom_site_label
 _atom_site_symmetry_multiplicity
 _atom_site_fract_x
 _atom_site_fract_y
 _atom_site_fract_z
 _atom_site_occupancy
  Th  Th0  1  0.00000000  0.99997300  0.00001500  1
  Mn  Mn0  1  0.00000000  0.33332300  0.33341200  1
  Co  Co0  1  0.00000000  0.66662700  0.66669400  1
  Co  Co1  1  0.50000000  0.50276000  0.50275700  1
  Co  Co2  1  0.50000000  0.50273800  0.99448500  1
  Co  Co3  1  0.50000000  0.99447900  0.50273700  1
loop_
_geom_bond_atom_site_label_1
_geom_bond_atom_site_label_2
_geom_bond_distance
_geom_bond_site_symmetry_2
Mn0 Th0 2.902659 1_546
Mn0 Th0 2.902951 1_555
Mn0 Th0 2.903026 1_545
Co0 Co1 2.458022 1_555
Co0 Co1 2.458022 1_455
Co0 Co2 2.458063 1_455
Co0 Co2 2.458063 1_555
Co0 Co3 2.458243 1_555
Co0 Co3 2.458243 1_455
Co0 Mn0 2.902325 1_555
Co0 Th0 2.902677 1_556
Co0 Th0 2.902968 1_546
Co0 Th0 2.902990 1_555
Co0 Mn0 2.903151 1_565
Co0 Mn0 2.903160 1_556
Co1 Co2 2.472197 1_555
Co1 Co3 2.472231 1_555
Co1 Mn0 2.486081 1_655
Co1 Mn0 2.486081 1_555
Co1 Co2 2.555485 1_554
Co1 Co3 2.555602 1_545
Co1 Th0 3.213364 1_555
Co1 Th0 3.213364 1_655
Co1 Th0 3.213542 1_546
Co1 Th0 3.213542 1_646
Co2 Co3 2.472631 1_555
Co2 Mn0 2.486534 1_556
Co2 Mn0 2.486534 1_656
Co2 Co3 2.555653 1_546
Co2 Th0 3.213274 1_656
Co2 Th0 3.213274 1_556
Co2 Th0 3.213279 1_546
Co2 Th0 3.213279 1_646
Co3 Mn0 2.486346 1_565
Co3 Mn0 2.486346 1_665
Co3 Th0 3.213120 1_555
Co3 Th0 3.213120 1_655
Co3 Th0 3.213313 1_656
Co3 Th0 3.213313 1_556
