# generated using pymatgen
data_Mg2TiCo3S8
_symmetry_space_group_name_H-M   'P 1'
_cell_length_a   7.08311032
_cell_length_b   7.00041438
_cell_length_c   7.08192307
_cell_angle_alpha   59.59968331
_cell_angle_beta   59.99309939
_cell_angle_gamma   59.60583550
_symmetry_Int_Tables_number   1
_chemical_formula_structural   Mg2TiCo3S8
_chemical_formula_sum   'Mg2 Ti1 Co3 S8'
_cell_volume   246.79007388
_cell_formula_units_Z   1
loop_
 _symmetry_equiv_pos_site_id
 _symmetry_equiv_pos_as_xyz
  1  'x, y, z'
loop_
 _atom_site_type_symbol
 _atom_site_label
 _atom_site_symmetry_multiplicity
 _atom_site_fract_x
 _atom_site_fract_y
 _atom_site_fract_z
 _atom_site_occupancy
  Mg  Mg0  1  0.87530700  0.87412600  0.87527100  1
  Mg  Mg1  1  0.12469700  0.12587100  0.12473100  1
  Ti  Ti0  1  0.49999200  0.99999600  0.50000800  1
  Co  Co0  1  0.50000100  0.50000900  0.49999100  1
  Co  Co1  1  0.50000000  0.49999800  0.99999900  1
  Co  Co2  1  0.00000200  0.49999700  0.50000400  1
  S  S0  1  0.74376600  0.71728900  0.74372300  1
  S  S1  1  0.25622200  0.28269400  0.70479900  1
  S  S2  1  0.26889400  0.69317100  0.26896800  1
  S  S3  1  0.70481900  0.28267600  0.25623700  1
  S  S4  1  0.73110100  0.30683000  0.73102300  1
  S  S5  1  0.29517700  0.71732100  0.74376500  1
  S  S6  1  0.25623400  0.28270600  0.25628300  1
  S  S7  1  0.74379200  0.71731200  0.29519900  1
loop_
_geom_bond_atom_site_label_1
_geom_bond_atom_site_label_2
_geom_bond_distance
_geom_bond_site_symmetry_2
Mg0 S7 2.424200 1_556
Mg0 S5 2.424433 1_655
Mg0 S0 2.424858 1_555
Mg0 S4 2.458346 1_565
Mg1 S1 2.424224 1_554
Mg1 S3 2.424478 1_455
Mg1 S6 2.424847 1_555
Mg1 S2 2.458323 1_545
Co0 S5 2.306310 1_555
Co0 S3 2.306311 1_555
Co0 S1 2.306409 1_555
Co0 S7 2.306423 1_555
Co0 S4 2.320503 1_555
Co0 S2 2.320508 1_555
Co1 S5 2.306061 1_555
Co1 S3 2.306064 1_556
Co1 S0 2.306129 1_555
Co1 S6 2.306138 1_556
Co1 S2 2.320540 1_556
Co1 S4 2.320555 1_555
Co2 S0 2.305923 1_455
Co2 S6 2.305926 1_555
Co2 S7 2.305935 1_455
Co2 S1 2.305945 1_555
Co2 S2 2.320181 1_555
Co2 S4 2.320198 1_455
S0 Ti0 2.437827 1_555
S1 Ti0 2.437957 1_545
S3 Ti0 2.437948 1_545
S5 Ti0 2.437866 1_555
S6 Ti0 2.437802 1_545
S7 Ti0 2.437967 1_555
