# generated using pymatgen
data_CaHf8(N2O)4
_symmetry_space_group_name_H-M   'P 1'
_cell_length_a   5.76353634
_cell_length_b   5.74792732
_cell_length_c   11.16654529
_cell_angle_alpha   103.93781437
_cell_angle_beta   89.41017035
_cell_angle_gamma   60.82606619
_symmetry_Int_Tables_number   1
_chemical_formula_structural   CaHf8(N2O)4
_chemical_formula_sum   'Ca1 Hf8 N8 O4'
_cell_volume   309.91169365
_cell_formula_units_Z   1
loop_
 _symmetry_equiv_pos_site_id
 _symmetry_equiv_pos_as_xyz
  1  'x, y, z'
loop_
 _atom_site_type_symbol
 _atom_site_label
 _atom_site_symmetry_multiplicity
 _atom_site_fract_x
 _atom_site_fract_y
 _atom_site_fract_z
 _atom_site_occupancy
  Ca  Ca0  1  0.84746500  0.55578300  0.93158300  1
  Hf  Hf0  1  0.08586600  0.40711900  0.24052900  1
  Hf  Hf1  1  0.21663000  0.80648800  0.80183000  1
  Hf  Hf2  1  0.50377800  0.23269700  0.94192400  1
  Hf  Hf3  1  0.64634500  0.27599600  0.51390600  1
  Hf  Hf4  1  0.33336100  0.91692600  0.50610200  1
  Hf  Hf5  1  0.72780500  0.09213100  0.23634200  1
  Hf  Hf6  1  0.43952100  0.73234100  0.23628300  1
  Hf  Hf7  1  0.00307300  0.56455100  0.51105300  1
  N  N0  1  0.39158500  0.16932000  0.37319400  1
  N  N1  1  0.44793700  0.34820000  0.14131400  1
  N  N2  1  0.29748300  0.64668200  0.60312700  1
  N  N3  1  0.69608900  0.48479900  0.37224900  1
  N  N4  1  0.48057300  0.53611800  0.88053900  1
  N  N5  1  0.78884000  0.68923000  0.15803000  1
  N  N6  1  0.97608500  0.28472300  0.58219200  1
  N  N7  1  0.85829600  0.90059700  0.87579200  1
  O  O0  1  0.10962300  0.02844800  0.17437700  1
  O  O1  1  0.07767200  0.78830900  0.37134000  1
  O  O2  1  0.23015000  0.15231700  0.86816500  1
  O  O3  1  0.64892300  0.95379600  0.57415100  1
loop_
_geom_bond_atom_site_label_1
_geom_bond_atom_site_label_2
_geom_bond_distance
_geom_bond_site_symmetry_2
Ca0 O2 2.221340 1_655
Ca0 N7 2.243847 1_555
Ca0 N4 2.244098 1_555
Ca0 N5 2.427317 1_556
Hf0 O0 2.057840 1_555
Hf0 N5 2.110570 1_455
Hf0 N1 2.186214 1_555
Hf0 O1 2.300546 1_555
Hf0 N0 2.418418 1_555
Hf0 N3 2.459107 1_455
Hf1 N4 1.970400 1_555
Hf1 N7 1.974986 1_455
Hf1 O2 1.987204 1_565
Hf1 N2 2.136270 1_555
Hf2 N7 1.962507 1_545
Hf2 N4 1.969723 1_555
Hf2 O2 1.983117 1_555
Hf2 N1 2.136932 1_556
Hf3 N6 2.073664 1_555
Hf3 N2 2.081985 1_555
Hf3 O3 2.110969 1_545
Hf3 N3 2.294665 1_555
Hf3 N0 2.337077 1_555
Hf3 O1 2.747198 1_645
Hf4 O3 2.063210 1_555
Hf4 N6 2.070264 1_465
Hf4 N2 2.179160 1_555
Hf4 O1 2.356824 1_555
Hf4 N3 2.420495 1_555
Hf4 N0 2.433409 1_565
Hf5 N1 2.089801 1_555
Hf5 N5 2.115523 1_545
Hf5 O0 2.125278 1_655
Hf5 N0 2.249771 1_555
Hf5 N3 2.317908 1_555
Hf5 O1 2.699249 1_645
Hf6 N5 2.061909 1_555
Hf6 O0 2.104462 1_565
Hf6 N1 2.183759 1_555
Hf6 N3 2.356261 1_555
Hf6 O1 2.403078 1_555
Hf6 N0 2.487426 1_565
Hf7 N6 2.024639 1_455
Hf7 O3 2.104093 1_455
Hf7 N2 2.177680 1_555
Hf7 O1 2.401021 1_555
Hf7 N0 2.414465 1_555
Hf7 N3 2.499580 1_455
