# generated using pymatgen
data_HoGa2Co3
_symmetry_space_group_name_H-M   'P 1'
_cell_length_a   8.73225759
_cell_length_b   8.73225719
_cell_length_c   3.99291114
_cell_angle_alpha   90.00000000
_cell_angle_beta   90.00000000
_cell_angle_gamma   120.00000156
_symmetry_Int_Tables_number   1
_chemical_formula_structural   HoGa2Co3
_chemical_formula_sum   'Ho3 Ga6 Co9'
_cell_volume   263.67765458
_cell_formula_units_Z   3
loop_
 _symmetry_equiv_pos_site_id
 _symmetry_equiv_pos_as_xyz
  1  'x, y, z'
loop_
 _atom_site_type_symbol
 _atom_site_label
 _atom_site_symmetry_multiplicity
 _atom_site_fract_x
 _atom_site_fract_y
 _atom_site_fract_z
 _atom_site_occupancy
  Ho  Ho0  1  -0.00000000  0.00000000  -0.00000000  1
  Ho  Ho1  1  0.66666700  0.33333300  0.50000000  1
  Ho  Ho2  1  0.33333300  0.66666700  0.50000000  1
  Ga  Ga0  1  0.69143622  0.69143622  0.50000000  1
  Ga  Ga1  1  0.30856378  0.00000000  0.50000000  1
  Ga  Ga2  1  0.00000000  0.30856378  0.50000000  1
  Ga  Ga3  1  0.30856378  0.30856378  0.50000000  1
  Ga  Ga4  1  0.69143622  0.00000000  0.50000000  1
  Ga  Ga5  1  1.00000000  0.69143622  0.50000000  1
  Co  Co0  1  0.50000000  0.50000000  -0.00000000  1
  Co  Co1  1  0.50000000  0.00000000  -0.00000000  1
  Co  Co2  1  -0.00000000  0.50000000  -0.00000000  1
  Co  Co3  1  0.81457938  0.18542062  -0.00000000  1
  Co  Co4  1  0.81457938  0.62915977  -0.00000000  1
  Co  Co5  1  0.37084023  0.18542062  0.00000000  1
  Co  Co6  1  0.18542062  0.81457938  0.00000000  1
  Co  Co7  1  0.62915977  0.81457938  -0.00000000  1
  Co  Co8  1  0.18542062  0.37084023  0.00000000  1
loop_
_geom_bond_atom_site_label_1
_geom_bond_atom_site_label_2
_geom_bond_distance
_geom_bond_site_symmetry_2
Ga0 Ga4 2.694458 1_565
Ga0 Ga5 2.694458 1_555
Ga0 Ho1 3.024709 1_555
Ga0 Ho2 3.024709 1_555
Ga0 Ho0 3.353497 1_666
Ga0 Ho0 3.353497 1_665
Ga1 Ga5 2.694458 1_445
Ga1 Ga3 2.694458 1_555
Ga1 Ho2 3.024701 1_545
Ga1 Ho1 3.024705 1_555
Ga1 Ho0 3.353497 1_555
Ga1 Ho0 3.353497 1_556
Ga2 Ga4 2.694458 1_455
Ga2 Ga3 2.694458 1_555
Ga2 Ho1 3.024701 1_455
Ga2 Ho2 3.024705 1_555
Ga2 Ho0 3.353497 1_556
Ga2 Ho0 3.353497 1_555
Ga3 Ho2 3.024709 1_555
Ga3 Ho1 3.024709 1_555
Ga3 Ho0 3.353497 1_556
Ga3 Ho0 3.353497 1_555
Ga4 Ho1 3.024701 1_555
Ga4 Ho2 3.024705 1_545
Ga4 Ho0 3.353497 1_655
Ga4 Ho0 3.353497 1_656
Ga5 Ho2 3.024701 1_655
Ga5 Ho1 3.024705 1_555
Ga5 Ho0 3.353497 1_665
Ga5 Ho0 3.353497 1_666
Co0 Co7 2.391609 1_555
Co0 Co5 2.391609 1_555
Co0 Co4 2.391609 1_555
Co0 Co8 2.391609 1_555
Co0 Ga0 2.603904 1_555
Co0 Ga3 2.603904 1_554
Co0 Ga0 2.603904 1_554
Co0 Ga3 2.603904 1_555
Co0 Ho2 3.215621 1_554
Co0 Ho2 3.215621 1_555
Co0 Ho1 3.215621 1_555
Co0 Ho1 3.215621 1_554
Co1 Co3 2.391610 1_555
Co1 Co6 2.391610 1_545
Co1 Co5 2.391617 1_555
Co1 Co7 2.391617 1_545
Co1 Ga1 2.603904 1_555
Co1 Ga1 2.603904 1_554
Co1 Ga4 2.603904 1_555
Co1 Ga4 2.603904 1_554
Co1 Ho1 3.215615 1_555
Co1 Ho2 3.215615 1_545
Co1 Ho1 3.215615 1_554
Co1 Ho2 3.215615 1_544
Co2 Co3 2.391610 1_455
Co2 Co6 2.391610 1_555
Co2 Co8 2.391618 1_555
Co2 Co4 2.391618 1_455
Co2 Ga2 2.603904 1_555
Co2 Ga2 2.603904 1_554
Co2 Ga5 2.603904 1_455
Co2 Ga5 2.603904 1_454
Co2 Ho2 3.215615 1_555
Co2 Ho1 3.215615 1_455
Co2 Ho1 3.215615 1_454
Co2 Ho2 3.215615 1_554
Co3 Ga4 2.454113 1_555
Co3 Ga4 2.454113 1_554
Co3 Ga2 2.454113 1_654
Co3 Ga2 2.454113 1_655
Co3 Ho0 2.804434 1_655
Co3 Ho1 2.998432 1_555
Co3 Ho1 2.998432 1_554
Co4 Ga0 2.454109 1_555
Co4 Ga0 2.454109 1_554
Co4 Ga5 2.454114 1_554
Co4 Ga5 2.454114 1_555
Co4 Ho0 2.804426 1_665
Co4 Ho1 2.998444 1_554
Co4 Ho1 2.998444 1_555
Co5 Ga3 2.454109 1_555
Co5 Ga3 2.454109 1_554
Co5 Ga1 2.454114 1_555
Co5 Ga1 2.454114 1_554
Co5 Ho0 2.804426 1_555
Co5 Ho1 2.998444 1_555
Co5 Ho1 2.998444 1_554
Co6 Ga1 2.454113 1_565
Co6 Ga1 2.454113 1_564
Co6 Ga5 2.454113 1_454
Co6 Ga5 2.454113 1_455
Co6 Ho0 2.804434 1_565
Co6 Ho2 2.998432 1_554
Co6 Ho2 2.998432 1_555
Co7 Ga0 2.454109 1_555
Co7 Ga0 2.454109 1_554
Co7 Ga4 2.454114 1_565
Co7 Ga4 2.454114 1_564
Co7 Ho0 2.804426 1_665
Co7 Ho2 2.998444 1_555
Co7 Ho2 2.998444 1_554
Co8 Ga3 2.454109 1_555
Co8 Ga3 2.454109 1_554
Co8 Ga2 2.454114 1_555
Co8 Ga2 2.454114 1_554
Co8 Ho0 2.804426 1_555
Co8 Ho2 2.998444 1_554
Co8 Ho2 2.998444 1_555
