# generated using pymatgen
data_SrCaCo(PO4)2
_symmetry_space_group_name_H-M   'P 1'
_cell_length_a   5.72087944
_cell_length_b   6.94597101
_cell_length_c   9.50959886
_cell_angle_alpha   109.49884743
_cell_angle_beta   101.68869569
_cell_angle_gamma   98.64513495
_symmetry_Int_Tables_number   1
_chemical_formula_structural   SrCaCo(PO4)2
_chemical_formula_sum   'Sr2 Ca2 Co2 P4 O16'
_cell_volume   338.96328965
_cell_formula_units_Z   2
loop_
 _symmetry_equiv_pos_site_id
 _symmetry_equiv_pos_as_xyz
  1  'x, y, z'
loop_
 _atom_site_type_symbol
 _atom_site_label
 _atom_site_symmetry_multiplicity
 _atom_site_fract_x
 _atom_site_fract_y
 _atom_site_fract_z
 _atom_site_occupancy
  Sr  Sr0  1  0.26502600  0.80824000  0.05887500  1
  Sr  Sr1  1  0.73497400  0.19176000  0.94112500  1
  Ca  Ca0  1  0.99786700  0.41578800  0.65967000  1
  Ca  Ca1  1  0.00213300  0.58421200  0.34033000  1
  Co  Co0  1  0.64487200  0.85090800  0.56176600  1
  Co  Co1  1  0.35512800  0.14909200  0.43823400  1
  P  P0  1  0.39395200  0.41771800  0.22572600  1
  P  P1  1  0.60604800  0.58228200  0.77427400  1
  P  P2  1  0.83949600  0.03434800  0.29897100  1
  P  P3  1  0.16050400  0.96565200  0.70102900  1
  O  O0  1  0.84033100  0.55906800  0.87886500  1
  O  O1  1  0.62162700  0.45213800  0.16630300  1
  O  O2  1  0.65244600  0.80044600  0.76094400  1
  O  O3  1  0.95811700  0.09675400  0.69075000  1
  O  O4  1  0.37837300  0.54786200  0.83369700  1
  O  O5  1  0.01799900  0.73223600  0.59830900  1
  O  O6  1  0.98200100  0.26776400  0.40169100  1
  O  O7  1  0.27104800  0.00074900  0.87027300  1
  O  O8  1  0.34755400  0.19955400  0.23905600  1
  O  O9  1  0.72895200  0.99925100  0.12972700  1
  O  O10  1  0.15966900  0.44093200  0.12113500  1
  O  O11  1  0.42686400  0.59055500  0.38908800  1
  O  O12  1  0.57313600  0.40944500  0.61091200  1
  O  O13  1  0.63559600  0.96743500  0.37350300  1
  O  O14  1  0.04188300  0.90324600  0.30925000  1
  O  O15  1  0.36440400  0.03256500  0.62649700  1
loop_
_geom_bond_atom_site_label_1
_geom_bond_atom_site_label_2
_geom_bond_distance
_geom_bond_site_symmetry_2
Ca0 O4 2.290285 1_655
Ca0 O6 2.298211 1_555
Ca0 O3 2.315750 1_555
Ca0 O12 2.370381 1_555
Ca0 O0 2.406993 1_555
Ca0 O5 2.447956 1_655
Ca1 O1 2.290285 1_455
Ca1 O5 2.298211 1_555
Ca1 O14 2.315750 1_555
Ca1 O11 2.370381 1_555
Ca1 O10 2.406993 1_555
Ca1 O6 2.447956 1_455
Co0 O11 2.007988 1_555
Co0 O2 2.031470 1_555
Co0 O3 2.103105 1_565
Co0 O13 2.192009 1_555
Co0 O15 2.244069 1_565
Co0 O5 2.403420 1_655
Co1 O12 2.007988 1_555
Co1 O8 2.031470 1_555
Co1 O14 2.103105 1_545
Co1 O15 2.192009 1_555
Co1 O13 2.244069 1_545
Co1 O6 2.403420 1_455
O0 P1 1.563190 1_555
O0 Sr0 2.627105 1_656
O0 Sr1 2.813134 1_555
O1 P0 1.538765 1_555
O1 Sr1 2.570336 1_554
O2 P1 1.550416 1_555
O2 Sr1 2.593067 1_565
O3 P3 1.584270 1_645
O3 Sr1 2.858326 1_555
O4 P1 1.538765 1_555
O4 Sr0 2.570336 1_556
O5 P3 1.571670 1_555
O6 P2 1.571670 1_555
O7 P3 1.526103 1_545
O7 Sr0 2.572573 1_546
O7 Sr1 2.622665 1_555
O8 P0 1.550416 1_555
O8 Sr0 2.593067 1_545
O9 P2 1.526103 1_565
O9 Sr1 2.572573 1_564
O9 Sr0 2.622665 1_555
O10 P0 1.563190 1_555
O10 Sr1 2.627105 1_454
O10 Sr0 2.813134 1_555
O11 P0 1.567984 1_555
O12 P1 1.567984 1_555
O13 P2 1.571937 1_565
O13 Sr0 3.030772 1_555
O14 P2 1.584270 1_465
O14 Sr0 2.858326 1_555
O15 P3 1.571937 1_545
O15 Sr1 3.030772 1_555
