# generated using pymatgen
data_Mg2Si3
_symmetry_space_group_name_H-M   'P 1'
_cell_length_a   4.51556700
_cell_length_b   5.24228365
_cell_length_c   17.06932751
_cell_angle_alpha   92.58962112
_cell_angle_beta   95.63133544
_cell_angle_gamma   111.62199152
_symmetry_Int_Tables_number   1
_chemical_formula_structural   Mg2Si3
_chemical_formula_sum   'Mg8 Si12'
_cell_volume   372.37079825
_cell_formula_units_Z   4
loop_
 _symmetry_equiv_pos_site_id
 _symmetry_equiv_pos_as_xyz
  1  'x, y, z'
loop_
 _atom_site_type_symbol
 _atom_site_label
 _atom_site_symmetry_multiplicity
 _atom_site_fract_x
 _atom_site_fract_y
 _atom_site_fract_z
 _atom_site_occupancy
  Mg  Mg0  1  0.01314600  0.89465500  0.78361100  1
  Mg  Mg1  1  0.98685400  0.10534500  0.21638900  1
  Mg  Mg2  1  0.65343900  0.32207100  0.91224800  1
  Mg  Mg3  1  0.34656100  0.67792900  0.08775200  1
  Mg  Mg4  1  0.35511100  0.70500200  0.29950100  1
  Mg  Mg5  1  0.64488900  0.29499800  0.70049900  1
  Mg  Mg6  1  0.05658100  0.14692700  0.40503000  1
  Mg  Mg7  1  0.94341900  0.85307300  0.59497000  1
  Si  Si0  1  0.92073300  0.90779600  0.93639300  1
  Si  Si1  1  0.67394500  0.27503800  0.08084600  1
  Si  Si2  1  0.32605500  0.72496200  0.91915400  1
  Si  Si3  1  0.07926700  0.09220400  0.06360700  1
  Si  Si4  1  0.57265600  0.26255100  0.30909000  1
  Si  Si5  1  0.42734400  0.73744900  0.69091000  1
  Si  Si6  1  0.36283100  0.75569000  0.47476500  1
  Si  Si7  1  0.63716900  0.24431000  0.52523500  1
  Si  Si8  1  0.76835300  0.57936500  0.42614500  1
  Si  Si9  1  0.23164700  0.42063500  0.57385500  1
  Si  Si10  1  0.21864400  0.44905900  0.79634000  1
  Si  Si11  1  0.78135600  0.55094100  0.20366000  1
loop_
_geom_bond_atom_site_label_1
_geom_bond_atom_site_label_2
_geom_bond_distance
_geom_bond_site_symmetry_2
Mg0 Si0 2.682998 1_455
Mg0 Si10 2.696471 1_565
Mg0 Si5 2.763034 1_455
Mg0 Si10 2.822879 1_555
Mg0 Si5 2.877511 1_555
Mg0 Si2 2.934522 1_555
Mg1 Si3 2.682998 1_655
Mg1 Si11 2.696471 1_545
Mg1 Si4 2.763034 1_655
Mg1 Si11 2.822879 1_555
Mg1 Si4 2.877511 1_555
Mg1 Si1 2.934522 1_555
Mg2 Si0 2.848093 1_555
Mg2 Si0 2.873706 1_545
Mg2 Si1 2.894833 1_556
Mg2 Si10 2.920984 1_555
Mg2 Si2 2.941913 1_545
Mg2 Si2 2.979814 1_655
Mg2 Si2 2.995482 1_555
Mg3 Si3 2.848093 1_555
Mg3 Si3 2.873706 1_565
Mg3 Si2 2.894833 1_554
Mg3 Si11 2.920984 1_555
Mg3 Si1 2.941913 1_565
Mg3 Si1 2.979814 1_455
Mg3 Si1 2.995482 1_555
Mg4 Si4 2.709973 1_565
Mg4 Si11 2.747311 1_455
Mg4 Si4 2.837879 1_555
Mg4 Si11 2.945734 1_555
Mg4 Si8 2.971805 1_555
Mg4 Si6 2.987072 1_555
Mg5 Si5 2.709973 1_545
Mg5 Si10 2.747311 1_655
Mg5 Si5 2.837879 1_555
Mg5 Si10 2.945734 1_555
Mg5 Si9 2.971805 1_555
Mg5 Si7 2.987072 1_555
Mg6 Si8 2.830461 1_445
Mg6 Si4 2.861438 1_455
Mg6 Si4 2.877074 1_555
Mg6 Si8 3.025819 1_455
Mg6 Si7 3.034322 1_555
Mg6 Si9 3.054742 1_555
Mg6 Si7 3.072112 1_455
Mg6 Si6 3.086027 1_545
Mg6 Si6 3.097582 1_555
Mg6 Si8 3.150933 1_555
Mg7 Si9 2.830461 1_665
Mg7 Si5 2.861438 1_655
Mg7 Si5 2.877074 1_555
Mg7 Si9 3.025819 1_655
Mg7 Si6 3.034322 1_555
Mg7 Si8 3.054742 1_555
Mg7 Si6 3.072112 1_655
Mg7 Si7 3.086027 1_565
Mg7 Si7 3.097582 1_555
Mg7 Si9 3.150933 1_555
Si0 Si3 2.271006 1_666
Si0 Si2 2.393349 1_655
Si0 Si2 2.477658 1_555
Si1 Si3 2.393349 1_655
Si1 Si11 2.394028 1_555
Si1 Si3 2.477658 1_555
Si4 Si8 2.409039 1_555
Si5 Si9 2.409039 1_555
Si6 Si9 2.448503 1_555
Si6 Si7 2.467921 1_565
Si6 Si8 2.524411 1_555
Si6 Si8 2.532591 1_455
Si7 Si8 2.448503 1_555
Si7 Si9 2.524411 1_555
Si7 Si9 2.532591 1_655
Si10 Si2 2.394028 1_555
Si10 Si5 2.437430 1_555
Si11 Si4 2.437430 1_555
