# generated using pymatgen
data_Li4MnCo2O7
_symmetry_space_group_name_H-M   'P 1'
_cell_length_a   2.97555400
_cell_length_b   8.10287031
_cell_length_c   10.66246349
_cell_angle_alpha   78.34331135
_cell_angle_beta   85.79860235
_cell_angle_gamma   89.03917641
_symmetry_Int_Tables_number   1
_chemical_formula_structural   Li4MnCo2O7
_chemical_formula_sum   'Li8 Mn2 Co4 O14'
_cell_volume   251.09850385
_cell_formula_units_Z   2
loop_
 _symmetry_equiv_pos_site_id
 _symmetry_equiv_pos_as_xyz
  1  'x, y, z'
loop_
 _atom_site_type_symbol
 _atom_site_label
 _atom_site_symmetry_multiplicity
 _atom_site_fract_x
 _atom_site_fract_y
 _atom_site_fract_z
 _atom_site_occupancy
  Li  Li0  1  0.14733800  0.07260000  0.71218600  1
  Li  Li1  1  0.85957500  0.93196300  0.28593700  1
  Li  Li2  1  0.57990800  0.78337500  0.85033400  1
  Li  Li3  1  0.72058000  0.35459200  0.57104000  1
  Li  Li4  1  0.42511200  0.22625200  0.14888100  1
  Li  Li5  1  0.27671700  0.63599700  0.43082200  1
  Li  Li6  1  0.98911500  0.49408900  0.00733100  1
  Li  Li7  1  0.87009400  0.42397400  0.28020800  1
  Mn  Mn0  1  0.99178300  0.00361000  0.00071100  1
  Mn  Mn1  1  0.42196000  0.70368000  0.14796700  1
  Co  Co0  1  0.71610700  0.85848800  0.57105000  1
  Co  Co1  1  0.14109900  0.57265200  0.71249200  1
  Co  Co2  1  0.57120400  0.28901500  0.85543600  1
  Co  Co3  1  0.29426300  0.15312400  0.42414300  1
  O  O0  1  0.59439600  0.04597700  0.85986800  1
  O  O1  1  0.30953800  0.90880700  0.43779500  1
  O  O2  1  0.96416300  0.75315900  0.01683200  1
  O  O3  1  0.16569700  0.33302100  0.72123700  1
  O  O4  1  0.88014900  0.17324100  0.29877900  1
  O  O5  1  0.73955800  0.61912000  0.57437100  1
  O  O6  1  0.43612600  0.48049700  0.14109500  1
  O  O7  1  0.69402700  0.09481600  0.56470700  1
  O  O8  1  0.39771500  0.95460300  0.13762100  1
  O  O9  1  0.12035800  0.81086900  0.70832800  1
  O  O10  1  0.28023500  0.36560900  0.43395500  1
  O  O11  1  0.97613400  0.24709400  0.99131000  1
  O  O12  1  0.88866800  0.68140000  0.26960100  1
  O  O13  1  0.54838200  0.52837900  0.84596400  1
loop_
_geom_bond_atom_site_label_1
_geom_bond_atom_site_label_2
_geom_bond_distance
_geom_bond_site_symmetry_2
Li0 O0 2.110842 1_555
Li0 O7 2.124332 1_455
Li0 O9 2.132430 1_545
Li0 O3 2.133540 1_555
Li0 O7 2.161462 1_555
Li0 O0 2.174427 1_455
Li1 O4 1.989501 1_565
Li1 O12 2.072358 1_555
Li1 O8 2.148477 1_555
Li1 O8 2.149454 1_655
Li1 O1 2.153145 1_655
Li1 O1 2.198830 1_555
Li2 O13 2.079951 1_555
Li2 O9 2.090193 1_555
Li2 O9 2.108855 1_655
Li2 O0 2.151971 1_565
Li2 O2 2.152033 1_556
Li2 O2 2.435419 1_456
Li3 O10 2.021190 1_555
Li3 O7 2.122577 1_555
Li3 O10 2.124430 1_655
Li3 O3 2.130585 1_655
Li3 O5 2.152646 1_555
Li3 O3 2.197832 1_555
Li4 O6 2.045676 1_555
Li4 O4 2.143001 1_555
Li4 O4 2.175931 1_455
Li4 O11 2.200610 1_454
Li4 O8 2.231659 1_545
Li4 O11 2.242881 1_554
Li5 O12 2.108228 1_455
Li5 O5 2.115671 1_555
Li5 O5 2.116694 1_455
Li5 O10 2.184275 1_555
Li5 O1 2.230760 1_555
Li5 O12 2.390454 1_555
Li6 O6 2.006263 1_655
Li6 O11 2.043981 1_554
Li6 O6 2.086280 1_555
Li6 O2 2.121807 1_555
Li6 O13 2.209664 1_554
Li6 O13 2.282471 1_654
Li7 O4 2.001000 1_555
Li7 O6 2.015848 1_555
Li7 O12 2.067463 1_555
Li7 O10 2.088277 1_655
Li7 O6 2.152192 1_655
Li7 O10 2.298820 1_555
Mn0 O8 1.937958 1_645
Mn0 O0 1.951789 1_554
Mn0 O11 1.955074 1_554
Mn0 O2 2.004299 1_545
Mn0 O8 2.196494 1_545
Mn0 O0 2.237420 1_654
Mn1 O6 1.824301 1_555
Mn1 O12 1.950383 1_555
Mn1 O12 1.961146 1_455
Mn1 O2 2.001397 1_455
Mn1 O8 2.014168 1_555
Mn1 O2 2.045313 1_555
Co0 O7 1.902620 1_565
Co0 O1 1.910431 1_555
Co0 O5 1.932904 1_555
Co0 O9 1.937125 1_655
Co0 O1 2.173805 1_655
Co0 O9 2.201884 1_555
Co1 O13 1.911683 1_555
Co1 O9 1.921819 1_555
Co1 O3 1.925440 1_555
Co1 O5 1.938265 1_455
Co1 O13 2.170638 1_455
Co1 O5 2.212657 1_555
Co2 O3 1.913863 1_555
Co2 O13 1.921989 1_555
Co2 O11 1.925932 1_555
Co2 O0 1.960478 1_555
Co2 O3 2.178960 1_655
Co2 O11 2.189737 1_455
Co3 O10 1.745511 1_555
Co3 O4 1.865001 1_455
Co3 O1 1.955466 1_545
Co3 O7 1.959768 1_555
Co3 O4 2.105365 1_555
Co3 O7 2.238158 1_455
