# generated using pymatgen
data_LaCO4
_symmetry_space_group_name_H-M   'P 1'
_cell_length_a   5.08179100
_cell_length_b   7.49028900
_cell_length_c   8.35707600
_cell_angle_alpha   90.00000000
_cell_angle_beta   90.00000000
_cell_angle_gamma   90.00000000
_symmetry_Int_Tables_number   1
_chemical_formula_structural   LaCO4
_chemical_formula_sum   'La4 C4 O16'
_cell_volume   318.10443640
_cell_formula_units_Z   4
loop_
 _symmetry_equiv_pos_site_id
 _symmetry_equiv_pos_as_xyz
  1  'x, y, z'
loop_
 _atom_site_type_symbol
 _atom_site_label
 _atom_site_symmetry_multiplicity
 _atom_site_fract_x
 _atom_site_fract_y
 _atom_site_fract_z
 _atom_site_occupancy
  La  La0  1  0.75000000  0.84640100  0.16858200  1
  La  La1  1  0.75000000  0.34640100  0.33141800  1
  La  La2  1  0.25000000  0.15359900  0.83141800  1
  La  La3  1  0.25000000  0.65359900  0.66858200  1
  C  C0  1  0.25000000  0.68915400  0.30874500  1
  C  C1  1  0.25000000  0.18915400  0.19125500  1
  C  C2  1  0.75000000  0.31084600  0.69125500  1
  C  C3  1  0.75000000  0.81084600  0.80874500  1
  O  O0  1  0.25000000  0.78425600  0.18107700  1
  O  O1  1  0.25000000  0.28425600  0.31892300  1
  O  O2  1  0.75000000  0.21574400  0.81892300  1
  O  O3  1  0.75000000  0.71574400  0.68107700  1
  O  O4  1  0.47127600  0.64531800  0.37655300  1
  O  O5  1  0.02872400  0.14531800  0.12344700  1
  O  O6  1  0.97127600  0.35468200  0.62344700  1
  O  O7  1  0.52872400  0.85468200  0.87655300  1
  O  O8  1  0.52872400  0.35468200  0.62344700  1
  O  O9  1  0.97127600  0.85468200  0.87655300  1
  O  O10  1  0.02872400  0.64531800  0.37655300  1
  O  O11  1  0.47127600  0.14531800  0.12344700  1
  O  O12  1  0.75000000  0.52973900  0.09184900  1
  O  O13  1  0.75000000  0.02973900  0.40815100  1
  O  O14  1  0.25000000  0.47026100  0.90815100  1
  O  O15  1  0.25000000  0.97026100  0.59184900  1
loop_
_geom_bond_atom_site_label_1
_geom_bond_atom_site_label_2
_geom_bond_distance
_geom_bond_site_symmetry_2
La0 O13 2.427801 1_565
La0 O12 2.457047 1_555
La0 O0 2.585291 1_655
La0 O0 2.585291 1_555
La0 O5 2.676102 1_665
La0 O11 2.676102 1_565
La0 O9 2.687821 1_554
La0 O7 2.687821 1_554
La0 O10 2.701024 1_655
La0 O4 2.701024 1_555
La1 O12 2.427801 1_555
La1 O13 2.457047 1_555
La1 O1 2.585291 1_655
La1 O1 2.585291 1_555
La1 O10 2.676102 1_655
La1 O4 2.676102 1_555
La1 O6 2.687821 1_555
La1 O8 2.687821 1_555
La1 O5 2.701024 1_655
La1 O11 2.701024 1_555
La2 O15 2.427801 1_545
La2 O14 2.457047 1_555
La2 O2 2.585291 1_455
La2 O2 2.585291 1_555
La2 O7 2.676102 1_545
La2 O9 2.676102 1_445
La2 O5 2.687821 1_556
La2 O11 2.687821 1_556
La2 O8 2.701024 1_555
La2 O6 2.701024 1_455
La3 O14 2.427801 1_555
La3 O15 2.457047 1_555
La3 O3 2.585291 1_455
La3 O3 2.585291 1_555
La3 O8 2.676102 1_555
La3 O6 2.676102 1_455
La3 O10 2.687821 1_555
La3 O4 2.687821 1_555
La3 O7 2.701024 1_555
La3 O9 2.701024 1_455
C0 O0 1.282877 1_555
C0 O4 1.301301 1_555
C0 O10 1.301301 1_555
C1 O1 1.282877 1_555
C1 O11 1.301301 1_555
C1 O5 1.301301 1_555
C2 O2 1.282877 1_555
C2 O6 1.301301 1_555
C2 O8 1.301301 1_555
C3 O3 1.282877 1_555
C3 O9 1.301301 1_555
C3 O7 1.301301 1_555
