# generated using pymatgen
data_ZnSi2NiO6
_symmetry_space_group_name_H-M   'P 1'
_cell_length_a   5.28289300
_cell_length_b   9.10574800
_cell_length_c   18.52110600
_cell_angle_alpha   90.00000000
_cell_angle_beta   90.00000000
_cell_angle_gamma   90.00000000
_symmetry_Int_Tables_number   1
_chemical_formula_structural   ZnSi2NiO6
_chemical_formula_sum   'Zn8 Si16 Ni8 O48'
_cell_volume   890.95210646
_cell_formula_units_Z   8
loop_
 _symmetry_equiv_pos_site_id
 _symmetry_equiv_pos_as_xyz
  1  'x, y, z'
loop_
 _atom_site_type_symbol
 _atom_site_label
 _atom_site_symmetry_multiplicity
 _atom_site_fract_x
 _atom_site_fract_y
 _atom_site_fract_z
 _atom_site_occupancy
  Zn  Zn0  1  0.61871500  0.14813300  0.37617100  1
  Zn  Zn1  1  0.38128500  0.85186700  0.62382900  1
  Zn  Zn2  1  0.61871500  0.64813300  0.12382900  1
  Zn  Zn3  1  0.11871500  0.85186700  0.12382900  1
  Zn  Zn4  1  0.88128500  0.14813300  0.87617100  1
  Zn  Zn5  1  0.38128500  0.35186700  0.87617100  1
  Zn  Zn6  1  0.11871500  0.35186700  0.37617100  1
  Zn  Zn7  1  0.88128500  0.64813300  0.62382900  1
  Si  Si0  1  0.56547100  0.65958000  0.77245600  1
  Si  Si1  1  0.71637200  0.83642700  0.47409600  1
  Si  Si2  1  0.78362800  0.83642700  0.97409600  1
  Si  Si3  1  0.93452900  0.15958000  0.22754400  1
  Si  Si4  1  0.06547100  0.34042000  0.72754400  1
  Si  Si5  1  0.43452900  0.84042000  0.27245600  1
  Si  Si6  1  0.21637200  0.66357300  0.47409600  1
  Si  Si7  1  0.71637200  0.33642700  0.02590400  1
  Si  Si8  1  0.78362800  0.33642700  0.52590400  1
  Si  Si9  1  0.93452900  0.65958000  0.27245600  1
  Si  Si10  1  0.43452900  0.34042000  0.22754400  1
  Si  Si11  1  0.56547100  0.15958000  0.72754400  1
  Si  Si12  1  0.28362800  0.16357300  0.52590400  1
  Si  Si13  1  0.06547100  0.84042000  0.77245600  1
  Si  Si14  1  0.28362800  0.66357300  0.97409600  1
  Si  Si15  1  0.21637200  0.16357300  0.02590400  1
  Ni  Ni0  1  0.37625200  0.99850800  0.87576500  1
  Ni  Ni1  1  0.62374800  0.00149200  0.12423500  1
  Ni  Ni2  1  0.87625200  0.00149200  0.62423500  1
  Ni  Ni3  1  0.12374800  0.99850800  0.37576500  1
  Ni  Ni4  1  0.37625200  0.49850800  0.62423500  1
  Ni  Ni5  1  0.62374800  0.50149200  0.37576500  1
  Ni  Ni6  1  0.87625200  0.50149200  0.87576500  1
  Ni  Ni7  1  0.12374800  0.49850800  0.12423500  1
  O  O0  1  0.92783700  0.50125900  0.31184300  1
  O  O1  1  0.30725800  0.01625400  0.06698800  1
  O  O2  1  0.07216300  0.49874100  0.68815700  1
  O  O3  1  0.71436900  0.34225000  0.93674200  1
  O  O4  1  0.21436900  0.15775000  0.93674200  1
  O  O5  1  0.92064500  0.20522300  0.05043400  1
  O  O6  1  0.94728100  0.65729200  0.18374800  1
  O  O7  1  0.05271900  0.84270800  0.68374800  1
  O  O8  1  0.71436900  0.84225000  0.56325800  1
  O  O9  1  0.94728100  0.15729200  0.31625200  1
  O  O10  1  0.42783700  0.49874100  0.18815700  1
  O  O11  1  0.78563100  0.34225000  0.43674200  1
  O  O12  1  0.69274200  0.98374600  0.93301200  1
  O  O13  1  0.44728100  0.84270800  0.18374800  1
  O  O14  1  0.57216300  0.00125900  0.68815700  1
  O  O15  1  0.30725800  0.51625400  0.43301200  1
  O  O16  1  0.42783700  0.99874100  0.31184300  1
  O  O17  1  0.16458100  0.76711000  0.30139100  1
  O  O18  1  0.33541900  0.76711000  0.80139100  1
  O  O19  1  0.57935500  0.70522300  0.94956600  1
  O  O20  1  0.78563100  0.84225000  0.06325800  1
  O  O21  1  0.55271900  0.65729200  0.68374800  1
  O  O22  1  0.80725800  0.48374600  0.06698800  1
  O  O23  1  0.16458100  0.26711000  0.19860900  1
  O  O24  1  0.28563100  0.15775000  0.43674200  1
  O  O25  1  0.55271900  0.15729200  0.81625200  1
  O  O26  1  0.69274200  0.48374600  0.56698800  1
  O  O27  1  0.21436900  0.65775000  0.56325800  1
  O  O28  1  0.19274200  0.51625400  0.93301200  1
  O  O29  1  0.66458100  0.73289000  0.30139100  1
  O  O30  1  0.07216300  0.99874100  0.81184300  1
  O  O31  1  0.83541900  0.73289000  0.80139100  1
  O  O32  1  0.83541900  0.23289000  0.69860900  1
  O  O33  1  0.80725800  0.98374600  0.43301200  1
  O  O34  1  0.28563100  0.65775000  0.06325800  1
  O  O35  1  0.19274200  0.01625400  0.56698800  1
  O  O36  1  0.33541900  0.26711000  0.69860900  1
  O  O37  1  0.07935500  0.79477700  0.94956600  1
  O  O38  1  0.42064500  0.79477700  0.44956600  1
  O  O39  1  0.66458100  0.23289000  0.19860900  1
  O  O40  1  0.42064500  0.29477700  0.05043400  1
  O  O41  1  0.57935500  0.20522300  0.55043400  1
  O  O42  1  0.07935500  0.29477700  0.55043400  1
  O  O43  1  0.44728100  0.34270800  0.31625200  1
  O  O44  1  0.57216300  0.50125900  0.81184300  1
  O  O45  1  0.92064500  0.70522300  0.44956600  1
  O  O46  1  0.05271900  0.34270800  0.81625200  1
  O  O47  1  0.92783700  0.00125900  0.18815700  1
loop_
_geom_bond_atom_site_label_1
_geom_bond_atom_site_label_2
_geom_bond_distance
_geom_bond_site_symmetry_2
Ni0 O12 1.984385 1_555
Ni0 O30 1.995591 1_555
Ni0 O4 2.027164 1_565
Ni0 O25 2.043165 1_565
Ni0 O18 2.526594 1_555
Ni1 O1 1.984385 1_555
Ni1 O47 1.995591 1_555
Ni1 O20 2.027164 1_545
Ni1 O13 2.043165 1_545
Ni1 O39 2.526594 1_555
Ni2 O35 1.984385 1_655
Ni2 O14 1.995591 1_555
Ni2 O8 2.027164 1_545
Ni2 O7 2.043165 1_645
Ni2 O32 2.526594 1_555
Ni3 O33 1.984385 1_455
Ni3 O16 1.995591 1_555
Ni3 O24 2.027164 1_565
Ni3 O9 2.043165 1_465
Ni3 O17 2.526594 1_555
Ni4 O26 1.984385 1_555
Ni4 O2 1.995591 1_555
Ni4 O27 2.027164 1_555
Ni4 O21 2.043165 1_555
Ni4 O36 2.526594 1_555
Ni5 O15 1.984385 1_555
Ni5 O0 1.995591 1_555
Ni5 O11 2.027164 1_555
Ni5 O43 2.043165 1_555
Ni5 O29 2.526594 1_555
Ni6 O28 1.984385 1_655
Ni6 O44 1.995591 1_555
Ni6 O3 2.027164 1_555
Ni6 O46 2.043165 1_655
Ni6 O31 2.526594 1_555
Ni7 O22 1.984385 1_455
Ni7 O10 1.995591 1_555
Ni7 O34 2.027164 1_555
Ni7 O6 2.043165 1_455
Ni7 O23 2.526594 1_555
O0 Si9 1.616078 1_555
O0 Zn6 2.070466 1_655
O1 Si15 1.615247 1_555
O1 Zn3 2.083514 1_545
O2 Si4 1.616078 1_555
O2 Zn7 2.070466 1_455
O3 Si7 1.652264 1_556
O3 Zn5 2.088673 1_555
O3 Zn4 2.271660 1_555
O4 Si15 1.652264 1_556
O4 Zn4 2.088673 1_455
O4 Zn5 2.271660 1_555
O5 Si15 1.670630 1_655
O5 Si7 1.672816 1_555
O6 Si9 1.644483 1_555
O6 Zn2 2.061908 1_555
O6 Zn3 2.278358 1_655
O7 Si13 1.644483 1_555
O7 Zn1 2.061908 1_555
O7 Zn7 2.278358 1_455
O8 Si1 1.652264 1_555
O8 Zn1 2.088673 1_555
O8 Zn7 2.271660 1_555
O9 Si3 1.644483 1_555
O9 Zn0 2.061908 1_555
O9 Zn6 2.278358 1_655
O10 Si10 1.616078 1_555
O10 Zn2 2.070466 1_555
O11 Si8 1.652264 1_555
O11 Zn6 2.088673 1_655
O11 Zn0 2.271660 1_555
O12 Si2 1.615247 1_555
O12 Zn4 2.083514 1_565
O13 Si5 1.644483 1_555
O13 Zn3 2.061908 1_555
O13 Zn2 2.278358 1_555
O14 Si11 1.616078 1_555
O14 Zn1 2.070466 1_545
O15 Si6 1.615247 1_555
O15 Zn6 2.083514 1_555
O16 Si5 1.616078 1_555
O16 Zn0 2.070466 1_565
O17 Si9 1.650141 1_455
O17 Si5 1.663307 1_555
O18 Si0 1.650141 1_555
O18 Si13 1.663307 1_555
O19 Si14 1.670630 1_555
O19 Si2 1.672816 1_555
O20 Si2 1.652264 1_554
O20 Zn3 2.088673 1_655
O20 Zn2 2.271660 1_555
O21 Si0 1.644483 1_555
O21 Zn7 2.061908 1_555
O21 Zn1 2.278358 1_555
O22 Si7 1.615247 1_555
O22 Zn2 2.083514 1_555
O23 Si3 1.650141 1_455
O23 Si10 1.663307 1_555
O24 Si12 1.652264 1_555
O24 Zn0 2.088673 1_555
O24 Zn6 2.271660 1_555
O25 Si11 1.644483 1_555
O25 Zn4 2.061908 1_555
O25 Zn5 2.278358 1_555
O26 Si8 1.615247 1_555
O26 Zn7 2.083514 1_555
O27 Si6 1.652264 1_555
O27 Zn7 2.088673 1_455
O27 Zn1 2.271660 1_555
O28 Si14 1.615247 1_555
O28 Zn5 2.083514 1_555
O29 Si5 1.650141 1_555
O29 Si9 1.663307 1_555
O30 Si13 1.616078 1_555
O30 Zn4 2.070466 1_465
O31 Si13 1.650141 1_655
O31 Si0 1.663307 1_555
O32 Si4 1.650141 1_655
O32 Si11 1.663307 1_555
O33 Si1 1.615247 1_555
O33 Zn0 2.083514 1_565
O34 Si14 1.652264 1_554
O34 Zn2 2.088673 1_555
O34 Zn3 2.271660 1_555
O35 Si12 1.615247 1_555
O35 Zn1 2.083514 1_545
O36 Si11 1.650141 1_555
O36 Si4 1.663307 1_555
O37 Si2 1.670630 1_455
O37 Si14 1.672816 1_555
O38 Si1 1.670630 1_555
O38 Si6 1.672816 1_555
O39 Si10 1.650141 1_555
O39 Si3 1.663307 1_555
O40 Si7 1.670630 1_555
O40 Si15 1.672816 1_555
O41 Si12 1.670630 1_555
O41 Si8 1.672816 1_555
O42 Si8 1.670630 1_455
O42 Si12 1.672816 1_555
O43 Si10 1.644483 1_555
O43 Zn6 2.061908 1_555
O43 Zn0 2.278358 1_555
O44 Si0 1.616078 1_555
O44 Zn5 2.070466 1_555
O45 Si6 1.670630 1_655
O45 Si1 1.672816 1_555
O46 Si4 1.644483 1_555
O46 Zn5 2.061908 1_555
O46 Zn4 2.278358 1_455
O47 Si3 1.616078 1_555
O47 Zn3 2.070466 1_645
