# generated using pymatgen
data_KSb5O13
_symmetry_space_group_name_H-M   'P 1'
_cell_length_a   16.84668075
_cell_length_b   5.56053994
_cell_length_c   5.57156427
_cell_angle_alpha   72.76124062
_cell_angle_beta   90.00000000
_cell_angle_gamma   90.00000000
_symmetry_Int_Tables_number   1
_chemical_formula_structural   KSb5O13
_chemical_formula_sum   'K2 Sb10 O26'
_cell_volume   498.47954637
_cell_formula_units_Z   2
loop_
 _symmetry_equiv_pos_site_id
 _symmetry_equiv_pos_as_xyz
  1  'x, y, z'
loop_
 _atom_site_type_symbol
 _atom_site_label
 _atom_site_symmetry_multiplicity
 _atom_site_fract_x
 _atom_site_fract_y
 _atom_site_fract_z
 _atom_site_occupancy
  K  K0  1  0.75000000  0.12219865  0.13519561  1
  K  K1  1  0.25000000  0.87780135  0.86480439  1
  Sb  Sb0  1  0.57705842  0.38567309  0.38545226  1
  Sb  Sb1  1  0.42294158  0.61432691  0.61454774  1
  Sb  Sb2  1  0.92294158  0.38567309  0.38545226  1
  Sb  Sb3  1  0.07705842  0.61432691  0.61454774  1
  Sb  Sb4  1  0.50000000  -0.00000000  -0.00000000  1
  Sb  Sb5  1  -0.00000000  -0.00000000  -0.00000000  1
  Sb  Sb6  1  0.36177431  0.23247067  0.23125525  1
  Sb  Sb7  1  0.63822569  0.76752933  0.76874475  1
  Sb  Sb8  1  0.13822569  0.23247067  0.23125525  1
  Sb  Sb9  1  0.86177431  0.76752933  0.76874475  1
  O  O0  1  0.75000000  0.81703561  0.81138240  1
  O  O1  1  0.25000000  0.18296439  0.18861760  1
  O  O2  1  0.35039459  0.44752158  0.44526364  1
  O  O3  1  0.64960541  0.55247842  0.55473636  1
  O  O4  1  0.14960541  0.44752158  0.44526364  1
  O  O5  1  0.85039459  0.55247842  0.55473636  1
  O  O6  1  0.61294486  0.98529271  0.98397232  1
  O  O7  1  0.38705514  0.01470729  0.01602768  1
  O  O8  1  0.88705514  0.98529271  0.98397232  1
  O  O9  1  0.11294486  0.01470729  0.01602768  1
  O  O10  1  0.50024707  0.69030251  0.31100152  1
  O  O11  1  -0.00024707  0.69030251  0.31100152  1
  O  O12  1  0.49975293  0.30969749  0.68899848  1
  O  O13  1  0.00024707  0.30969749  0.68899848  1
  O  O14  1  0.63151945  0.06774646  0.47642091  1
  O  O15  1  0.36680904  0.52331211  0.92935567  1
  O  O16  1  0.86848055  0.06774646  0.47642091  1
  O  O17  1  0.13319096  0.52331211  0.92935567  1
  O  O18  1  0.36848055  0.93225354  0.52357909  1
  O  O19  1  0.63319096  0.47668789  0.07064433  1
  O  O20  1  0.13151945  0.93225354  0.52357909  1
  O  O21  1  0.86680904  0.47668789  0.07064433  1
  O  O22  1  0.51005128  0.77218699  0.77655072  1
  O  O23  1  0.48994872  0.22781301  0.22344928  1
  O  O24  1  0.98994872  0.77218699  0.77655072  1
  O  O25  1  0.01005128  0.22781301  0.22344928  1
loop_
_geom_bond_atom_site_label_1
_geom_bond_atom_site_label_2
_geom_bond_distance
_geom_bond_site_symmetry_2
K0 O6 2.645888 1_544
K0 O8 2.645888 1_544
K0 O16 2.710891 1_555
K0 O14 2.710891 1_555
K0 O21 2.732584 1_555
K0 O19 2.732584 1_555
K0 O0 2.819368 1_544
K1 O7 2.645888 1_566
K1 O9 2.645888 1_566
K1 O20 2.710891 1_555
K1 O18 2.710891 1_555
K1 O17 2.732584 1_555
K1 O15 2.732584 1_555
K1 O1 2.819368 1_566
O0 Sb7 1.927891 1_555
O0 Sb9 1.927891 1_555
O1 Sb8 1.927891 1_555
O1 Sb6 1.927891 1_555
O2 Sb6 1.932230 1_555
O2 Sb1 1.939619 1_555
O3 Sb7 1.932230 1_555
O3 Sb0 1.939619 1_555
O4 Sb8 1.932230 1_555
O4 Sb3 1.939619 1_555
O5 Sb9 1.932230 1_555
O5 Sb2 1.939619 1_555
O6 Sb4 1.907730 1_566
O6 Sb7 1.986512 1_555
O7 Sb4 1.907730 1_555
O7 Sb6 1.986512 1_555
O8 Sb5 1.907730 1_666
O8 Sb9 1.986512 1_555
O9 Sb5 1.907730 1_555
O9 Sb8 1.986512 1_555
O10 Sb4 2.049255 1_565
O10 Sb0 2.073497 1_555
O10 Sb1 2.076376 1_555
O11 Sb5 2.049255 1_565
O11 Sb2 2.073497 1_455
O11 Sb3 2.076376 1_555
O12 Sb4 2.049255 1_556
O12 Sb1 2.073497 1_555
O12 Sb0 2.076376 1_555
O13 Sb5 2.049255 1_556
O13 Sb3 2.073497 1_555
O13 Sb2 2.076376 1_455
O14 Sb0 1.921683 1_555
O14 Sb7 1.959772 1_545
O15 Sb1 1.923712 1_555
O15 Sb6 1.959494 1_556
O16 Sb2 1.921683 1_555
O16 Sb9 1.959772 1_545
O17 Sb3 1.923712 1_555
O17 Sb8 1.959494 1_556
O18 Sb1 1.921683 1_555
O18 Sb6 1.959772 1_565
O19 Sb0 1.923712 1_555
O19 Sb7 1.959494 1_554
O20 Sb3 1.921683 1_555
O20 Sb8 1.959772 1_565
O21 Sb2 1.923712 1_555
O21 Sb9 1.959494 1_554
O22 Sb4 2.029295 1_566
O22 Sb1 2.051439 1_555
O22 Sb7 2.160061 1_555
O23 Sb4 2.029295 1_555
O23 Sb0 2.051439 1_555
O23 Sb6 2.160061 1_555
O24 Sb5 2.029295 1_666
O24 Sb3 2.051439 1_655
O24 Sb9 2.160061 1_555
O25 Sb5 2.029295 1_555
O25 Sb2 2.051439 1_455
O25 Sb8 2.160061 1_555
