# generated using pymatgen
data_Sr2LiZrCrO6
_symmetry_space_group_name_H-M   'P 1'
_cell_length_a   6.10727166
_cell_length_b   5.69111282
_cell_length_c   6.10368040
_cell_angle_alpha   90.01140427
_cell_angle_beta   124.38054164
_cell_angle_gamma   117.79631232
_symmetry_Int_Tables_number   1
_chemical_formula_structural   Sr2LiZrCrO6
_chemical_formula_sum   'Sr2 Li1 Zr1 Cr1 O6'
_cell_volume   144.44066576
_cell_formula_units_Z   1
loop_
 _symmetry_equiv_pos_site_id
 _symmetry_equiv_pos_as_xyz
  1  'x, y, z'
loop_
 _atom_site_type_symbol
 _atom_site_label
 _atom_site_symmetry_multiplicity
 _atom_site_fract_x
 _atom_site_fract_y
 _atom_site_fract_z
 _atom_site_occupancy
  Sr  Sr0  1  0.51887900  0.25736000  0.73403000  1
  Sr  Sr1  1  0.59041400  0.79305700  0.19923100  1
  Li  Li0  1  0.26776300  0.63192900  0.35834100  1
  Zr  Zr0  1  0.95914000  0.47910300  0.51923200  1
  Cr  Cr0  1  0.99345700  0.99616500  0.00191000  1
  O  O0  1  0.98484300  0.24073300  0.25134900  1
  O  O1  1  0.99409500  0.75449300  0.76501400  1
  O  O2  1  0.47409500  0.23901500  0.26078700  1
  O  O3  1  0.49167600  0.74395200  0.75043000  1
  O  O4  1  0.98649000  0.74171100  0.24942100  1
  O  O5  1  0.98914700  0.24153000  0.76739700  1
loop_
_geom_bond_atom_site_label_1
_geom_bond_atom_site_label_2
_geom_bond_distance
_geom_bond_site_symmetry_2
Li0 O3 1.869235 1_555
Li0 O4 1.869380 1_455
Li0 O0 1.872399 1_455
Li0 Sr1 2.478569 1_555
Cr0 O5 1.998008 1_564
Cr0 O1 1.998249 1_554
Cr0 O2 2.000120 1_665
Cr0 O3 2.095660 1_554
Cr0 O4 2.096945 1_555
Cr0 O0 2.101417 1_565
O0 Zr0 2.241883 1_555
O0 Sr1 2.409422 1_545
O0 Sr0 2.860172 1_554
O0 Sr0 2.861145 1_655
O1 Zr0 2.019350 1_555
O1 Sr0 2.860976 1_555
O1 Sr1 2.947726 1_656
O1 Sr1 2.990252 1_555
O2 Zr0 2.019213 1_555
O2 Sr0 2.740489 1_555
O2 Sr1 2.966607 1_555
O2 Sr1 3.011622 1_545
O3 Zr0 2.254935 1_455
O3 Sr1 2.433648 1_556
O3 Sr0 2.853255 1_565
O3 Sr0 2.855544 1_555
O4 Zr0 2.247760 1_555
O4 Sr1 2.419280 1_555
O4 Sr0 2.856303 1_554
O4 Sr0 2.858092 1_665
O5 Zr0 2.018519 1_555
O5 Sr0 2.806959 1_555
O5 Sr1 2.932503 1_656
O5 Sr1 3.022072 1_545
