# generated using pymatgen
data_CaV4(NiO6)2
_symmetry_space_group_name_H-M   'P 1'
_cell_length_a   6.88471168
_cell_length_b   6.88332890
_cell_length_c   5.64439129
_cell_angle_alpha   76.84096983
_cell_angle_beta   103.15397560
_cell_angle_gamma   95.59919382
_symmetry_Int_Tables_number   1
_chemical_formula_structural   CaV4(NiO6)2
_chemical_formula_sum   'Ca1 V4 Ni2 O12'
_cell_volume   253.33297382
_cell_formula_units_Z   1
loop_
 _symmetry_equiv_pos_site_id
 _symmetry_equiv_pos_as_xyz
  1  'x, y, z'
loop_
 _atom_site_type_symbol
 _atom_site_label
 _atom_site_symmetry_multiplicity
 _atom_site_fract_x
 _atom_site_fract_y
 _atom_site_fract_z
 _atom_site_occupancy
  Ca  Ca0  1  0.29977297  0.30041298  0.25018148  1
  V  V0  1  0.19765975  0.61249785  0.73078732  1
  V  V1  1  0.39478794  0.81551001  0.23802509  1
  V  V2  1  0.61218748  0.19850130  0.76908790  1
  V  V3  1  0.81476812  0.39524910  0.26195322  1
  Ni  Ni0  1  0.08117098  0.08161865  0.75009422  1
  Ni  Ni1  1  0.91745596  0.91804279  0.24995166  1
  O  O0  1  0.03923031  0.80801556  0.63296823  1
  O  O1  1  0.08932949  0.37559234  0.81270662  1
  O  O2  1  0.19606564  0.98782028  0.13393776  1
  O  O3  1  0.33030193  0.60475417  0.50049295  1
  O  O4  1  0.37527616  0.09032339  0.68731447  1
  O  O5  1  0.35741060  0.63497705  0.01841779  1
  O  O6  1  0.60467797  0.33083166  0.99958841  1
  O  O7  1  0.63354730  0.90736135  0.29991195  1
  O  O8  1  0.63466961  0.35824646  0.48168491  1
  O  O9  1  0.80731510  0.03974672  0.86685206  1
  O  O10  1  0.90730645  0.63375380  0.20014031  1
  O  O11  1  0.98706625  0.19674455  0.36590466  1
loop_
_geom_bond_atom_site_label_1
_geom_bond_atom_site_label_2
_geom_bond_distance
_geom_bond_site_symmetry_2
Ca0 O11 2.387225 1_455
Ca0 O2 2.387424 1_545
Ca0 O5 2.420424 1_555
Ca0 O8 2.422503 1_555
Ca0 O4 2.527378 1_555
Ca0 O1 2.529917 1_554
Ca0 O3 2.748708 1_555
Ca0 O6 2.753514 1_554
Ni0 O2 2.102216 1_546
Ni0 O11 2.104403 1_455
Ni0 O0 2.107402 1_545
Ni0 O9 2.108363 1_455
Ni0 O1 2.125339 1_555
Ni0 O4 2.126573 1_555
Ni1 O7 2.029505 1_555
Ni1 O10 2.031770 1_555
Ni1 O0 2.122202 1_655
Ni1 O9 2.122616 1_564
Ni1 O2 2.141840 1_655
Ni1 O11 2.141909 1_565
O0 V0 1.726211 1_555
O1 V0 1.733652 1_555
O2 V1 1.804797 1_555
O3 V0 1.762885 1_555
O3 V1 1.921337 1_555
O4 V2 1.733413 1_555
O5 V0 1.771388 1_554
O5 V1 1.908057 1_555
O6 V2 1.761941 1_555
O6 V3 1.918508 1_556
O7 V1 1.691215 1_555
O8 V2 1.770176 1_555
O8 V3 1.906562 1_555
O9 V2 1.725647 1_555
O10 V3 1.690887 1_555
O11 V3 1.803564 1_555
