# generated using pymatgen
data_Nd3CoGe2
_symmetry_space_group_name_H-M   'P 1'
_cell_length_a   4.28627430
_cell_length_b   11.54304660
_cell_length_c   11.93884778
_cell_angle_alpha   90.00000000
_cell_angle_beta   90.00000000
_cell_angle_gamma   90.00000000
_symmetry_Int_Tables_number   1
_chemical_formula_structural   Nd3CoGe2
_chemical_formula_sum   'Nd12 Co4 Ge8'
_cell_volume   590.69435998
_cell_formula_units_Z   4
loop_
 _symmetry_equiv_pos_site_id
 _symmetry_equiv_pos_as_xyz
  1  'x, y, z'
loop_
 _atom_site_type_symbol
 _atom_site_label
 _atom_site_symmetry_multiplicity
 _atom_site_fract_x
 _atom_site_fract_y
 _atom_site_fract_z
 _atom_site_occupancy
  Nd  Nd0  1  0.25000000  0.36936789  0.05511081  1
  Nd  Nd1  1  0.75000000  0.63063211  0.94488919  1
  Nd  Nd2  1  0.75000000  0.86936789  0.44488919  1
  Nd  Nd3  1  0.25000000  0.13063211  0.55511081  1
  Nd  Nd4  1  0.25000000  0.69938137  0.22075593  1
  Nd  Nd5  1  0.75000000  0.30061863  0.77924407  1
  Nd  Nd6  1  0.75000000  0.19938137  0.27924407  1
  Nd  Nd7  1  0.25000000  0.80061863  0.72075593  1
  Nd  Nd8  1  0.25000000  0.44079393  0.37965451  1
  Nd  Nd9  1  0.75000000  0.55920607  0.62034549  1
  Nd  Nd10  1  0.75000000  0.94079393  0.12034549  1
  Nd  Nd11  1  0.25000000  0.05920607  0.87965451  1
  Co  Co0  1  0.25000000  0.12681356  0.13194873  1
  Co  Co1  1  0.75000000  0.87318644  0.86805127  1
  Co  Co2  1  0.75000000  0.62681356  0.36805127  1
  Co  Co3  1  0.25000000  0.37318644  0.63194873  1
  Ge  Ge0  1  0.25000000  0.68234890  0.47722381  1
  Ge  Ge1  1  0.75000000  0.31765110  0.52277619  1
  Ge  Ge2  1  0.75000000  0.18234890  0.02277619  1
  Ge  Ge3  1  0.25000000  0.81765110  0.97722381  1
  Ge  Ge4  1  0.25000000  0.00559893  0.30592783  1
  Ge  Ge5  1  0.75000000  0.99440107  0.69407217  1
  Ge  Ge6  1  0.75000000  0.50559893  0.19407217  1
  Ge  Ge7  1  0.25000000  0.49440107  0.80592783  1
loop_
_geom_bond_atom_site_label_1
_geom_bond_atom_site_label_2
_geom_bond_distance
_geom_bond_site_symmetry_2
Co0 Ge4 2.504418 1_555
Co0 Ge2 2.588980 1_455
Co0 Ge2 2.588980 1_555
Co0 Nd6 2.896058 1_455
Co0 Nd6 2.896058 1_555
Co0 Nd0 2.946271 1_555
Co0 Nd10 3.036913 1_545
Co0 Nd10 3.036913 1_445
Co0 Nd11 3.111556 1_554
Co1 Ge5 2.504418 1_555
Co1 Ge3 2.588980 1_555
Co1 Ge3 2.588980 1_655
Co1 Nd7 2.896058 1_555
Co1 Nd7 2.896058 1_655
Co1 Nd1 2.946271 1_555
Co1 Nd11 3.036913 1_565
Co1 Nd11 3.036913 1_665
Co1 Nd10 3.111556 1_556
Co2 Ge6 2.504418 1_555
Co2 Ge0 2.588980 1_555
Co2 Ge0 2.588980 1_655
Co2 Nd4 2.896058 1_655
Co2 Nd4 2.896058 1_555
Co2 Nd2 2.946271 1_555
Co2 Nd8 3.036913 1_655
Co2 Nd8 3.036913 1_555
Co2 Nd9 3.111556 1_555
Co3 Ge7 2.504418 1_555
Co3 Ge1 2.588980 1_555
Co3 Ge1 2.588980 1_455
Co3 Nd5 2.896058 1_455
Co3 Nd5 2.896058 1_555
Co3 Nd3 2.946271 1_555
Co3 Nd9 3.036913 1_555
Co3 Nd9 3.036913 1_455
Co3 Nd8 3.111556 1_555
Ge0 Nd8 3.021824 1_555
Ge0 Nd2 3.066324 1_455
Ge0 Nd2 3.066324 1_555
Ge0 Nd4 3.068237 1_555
Ge0 Nd9 3.087591 1_455
Ge0 Nd9 3.087591 1_555
Ge0 Nd7 3.212050 1_555
Ge1 Nd9 3.021824 1_555
Ge1 Nd3 3.066324 1_555
Ge1 Nd3 3.066324 1_655
Ge1 Nd5 3.068237 1_555
Ge1 Nd8 3.087591 1_555
Ge1 Nd8 3.087591 1_655
Ge1 Nd6 3.212050 1_555
Ge2 Nd10 3.021824 1_545
Ge2 Nd0 3.066324 1_655
Ge2 Nd0 3.066324 1_555
Ge2 Nd6 3.068237 1_555
Ge2 Nd11 3.087591 1_554
Ge2 Nd11 3.087591 1_654
Ge2 Nd5 3.212050 1_554
Ge3 Nd11 3.021824 1_565
Ge3 Nd1 3.066324 1_555
Ge3 Nd1 3.066324 1_455
Ge3 Nd7 3.068237 1_555
Ge3 Nd10 3.087591 1_556
Ge3 Nd10 3.087591 1_456
Ge3 Nd4 3.212050 1_556
Ge4 Nd6 3.114158 1_455
Ge4 Nd6 3.114158 1_555
Ge4 Nd2 3.133412 1_445
Ge4 Nd2 3.133412 1_545
Ge4 Nd10 3.172013 1_545
Ge4 Nd10 3.172013 1_445
Ge4 Nd3 3.306567 1_555
Ge4 Nd4 3.678040 1_545
Ge5 Nd7 3.114158 1_555
Ge5 Nd7 3.114158 1_655
Ge5 Nd3 3.133412 1_665
Ge5 Nd3 3.133412 1_565
Ge5 Nd11 3.172013 1_565
Ge5 Nd11 3.172013 1_665
Ge5 Nd2 3.306567 1_555
Ge5 Nd5 3.678040 1_565
Ge6 Nd4 3.114158 1_655
Ge6 Nd4 3.114158 1_555
Ge6 Nd0 3.133412 1_555
Ge6 Nd0 3.133412 1_655
Ge6 Nd8 3.172013 1_555
Ge6 Nd8 3.172013 1_655
Ge6 Nd1 3.306567 1_554
Ge6 Nd6 3.678040 1_555
Ge7 Nd5 3.114158 1_455
Ge7 Nd5 3.114158 1_555
Ge7 Nd1 3.133412 1_455
Ge7 Nd1 3.133412 1_555
Ge7 Nd9 3.172013 1_455
Ge7 Nd9 3.172013 1_555
Ge7 Nd0 3.306567 1_556
Ge7 Nd7 3.678040 1_555
