# generated using pymatgen
data_Na3TiF6
_symmetry_space_group_name_H-M   'P 1'
_cell_length_a   5.68621882
_cell_length_b   5.50086801
_cell_length_c   9.58613076
_cell_angle_alpha   56.07360244
_cell_angle_beta   90.00000000
_cell_angle_gamma   90.00000000
_symmetry_Int_Tables_number   1
_chemical_formula_structural   Na3TiF6
_chemical_formula_sum   'Na6 Ti2 F12'
_cell_volume   248.79871891
_cell_formula_units_Z   2
loop_
 _symmetry_equiv_pos_site_id
 _symmetry_equiv_pos_as_xyz
  1  'x, y, z'
loop_
 _atom_site_type_symbol
 _atom_site_label
 _atom_site_symmetry_multiplicity
 _atom_site_fract_x
 _atom_site_fract_y
 _atom_site_fract_z
 _atom_site_occupancy
  Na  Na0  1  0.50000000  0.50000000  -0.00000000  1
  Na  Na1  1  0.00000000  0.50000000  0.50000000  1
  Na  Na2  1  0.06052417  0.72723633  0.75813380  1
  Na  Na3  1  0.93947583  0.27276367  0.24186620  1
  Na  Na4  1  0.56052417  0.27276367  0.74186620  1
  Na  Na5  1  0.43947583  0.72723633  0.25813380  1
  Ti  Ti0  1  0.50000000  0.00000000  0.50000000  1
  Ti  Ti1  1  0.00000000  0.00000000  -0.00000000  1
  F  F0  1  0.78086722  0.75124278  0.57801355  1
  F  F1  1  0.21913278  0.24875722  0.42198645  1
  F  F2  1  0.28086722  0.24875722  0.92198645  1
  F  F3  1  0.71913278  0.75124278  0.07801355  1
  F  F4  1  0.43496648  0.89243187  0.73355486  1
  F  F5  1  0.56503352  0.10756813  0.26644514  1
  F  F6  1  0.93496648  0.10756813  0.76644514  1
  F  F7  1  0.06503352  0.89243187  0.23355486  1
  F  F8  1  0.32442742  0.64782306  0.55488233  1
  F  F9  1  0.67557258  0.35217694  0.44511767  1
  F  F10  1  0.82442742  0.35217694  0.94511767  1
  F  F11  1  0.17557258  0.64782306  0.05488233  1
loop_
_geom_bond_atom_site_label_1
_geom_bond_atom_site_label_2
_geom_bond_distance
_geom_bond_site_symmetry_2
F0 Ti0 1.959611 1_565
F0 Na1 2.275012 1_655
F0 Na2 2.296293 1_655
F0 Na4 2.519884 1_555
F1 Ti0 1.959611 1_555
F1 Na1 2.275012 1_555
F1 Na3 2.296293 1_455
F1 Na5 2.519884 1_555
F2 Ti1 1.959611 1_556
F2 Na0 2.275012 1_556
F2 Na4 2.296293 1_555
F2 Na2 2.519884 1_555
F3 Ti1 1.959611 1_665
F3 Na0 2.275012 1_555
F3 Na5 2.296293 1_555
F3 Na3 2.519884 1_555
F4 Ti0 2.005166 1_565
F4 Na4 2.253719 1_565
F4 Na0 2.272858 1_556
F4 Na2 2.274997 1_555
F5 Ti0 2.005166 1_555
F5 Na5 2.253719 1_545
F5 Na0 2.272858 1_555
F5 Na3 2.274997 1_555
F6 Ti1 2.005166 1_656
F6 Na2 2.253719 1_645
F6 Na1 2.272858 1_655
F6 Na4 2.274997 1_555
F7 Ti1 2.005166 1_565
F7 Na3 2.253719 1_465
F7 Na1 2.272858 1_555
F7 Na5 2.274997 1_555
F8 Ti0 1.972010 1_565
F8 Na1 2.195157 1_555
F8 Na4 2.267985 1_555
F8 Na2 2.681231 1_555
F8 Na5 2.706253 1_555
F9 Ti0 1.972010 1_555
F9 Na1 2.195157 1_655
F9 Na5 2.267985 1_555
F9 Na3 2.681231 1_555
F9 Na4 2.706253 1_555
F10 Ti1 1.972010 1_656
F10 Na0 2.195157 1_556
F10 Na2 2.267985 1_655
F10 Na4 2.681231 1_555
F10 Na3 2.706253 1_556
F11 Ti1 1.972010 1_565
F11 Na0 2.195157 1_555
F11 Na3 2.267985 1_455
F11 Na5 2.681231 1_555
F11 Na2 2.706253 1_554
