# generated using pymatgen
data_NaMn3O6
_symmetry_space_group_name_H-M   'P 1'
_cell_length_a   6.17702455
_cell_length_b   6.17702455
_cell_length_c   14.52908224
_cell_angle_alpha   84.26960832
_cell_angle_beta   84.26960832
_cell_angle_gamma   55.78247410
_symmetry_Int_Tables_number   1
_chemical_formula_structural   NaMn3O6
_chemical_formula_sum   'Na4 Mn12 O24'
_cell_volume   455.47569277
_cell_formula_units_Z   4
loop_
 _symmetry_equiv_pos_site_id
 _symmetry_equiv_pos_as_xyz
  1  'x, y, z'
loop_
 _atom_site_type_symbol
 _atom_site_label
 _atom_site_symmetry_multiplicity
 _atom_site_fract_x
 _atom_site_fract_y
 _atom_site_fract_z
 _atom_site_occupancy
  Na  Na0  1  0.79840000  0.73556200  0.94035400  1
  Na  Na1  1  0.73556200  0.79840000  0.44035400  1
  Na  Na2  1  0.26443800  0.20160000  0.55964600  1
  Na  Na3  1  0.20160000  0.26443800  0.05964600  1
  Mn  Mn0  1  0.39330700  0.14223500  0.26478900  1
  Mn  Mn1  1  0.85776500  0.60669300  0.23521100  1
  Mn  Mn2  1  0.63798400  0.38511700  0.90775500  1
  Mn  Mn3  1  0.14587000  0.89632100  0.90698000  1
  Mn  Mn4  1  0.61488300  0.36201600  0.59224500  1
  Mn  Mn5  1  0.10367900  0.85413000  0.59302000  1
  Mn  Mn6  1  0.60669300  0.85776500  0.73521100  1
  Mn  Mn7  1  0.14223500  0.39330700  0.76478900  1
  Mn  Mn8  1  0.38511700  0.63798400  0.40775500  1
  Mn  Mn9  1  0.89632100  0.14587000  0.40698000  1
  Mn  Mn10  1  0.36201600  0.61488300  0.09224500  1
  Mn  Mn11  1  0.85413000  0.10367900  0.09302000  1
  O  O0  1  0.46354100  0.21341900  0.68384500  1
  O  O1  1  0.96874100  0.70347800  0.68374800  1
  O  O2  1  0.78658100  0.53645900  0.81615500  1
  O  O3  1  0.29652200  0.03125900  0.81625200  1
  O  O4  1  0.70347800  0.96874100  0.18374800  1
  O  O5  1  0.21341900  0.46354100  0.18384500  1
  O  O6  1  0.53645900  0.78658100  0.31615500  1
  O  O7  1  0.03125900  0.29652200  0.31625200  1
  O  O8  1  0.94676300  0.18615300  0.64267200  1
  O  O9  1  0.44764700  0.70370200  0.64111800  1
  O  O10  1  0.81384700  0.05323700  0.85732800  1
  O  O11  1  0.29629800  0.55235300  0.85888200  1
  O  O12  1  0.70370200  0.44764700  0.14111800  1
  O  O13  1  0.18615300  0.94676300  0.14267200  1
  O  O14  1  0.55235300  0.29629800  0.35888200  1
  O  O15  1  0.05323700  0.81384700  0.35732800  1
  O  O16  1  0.78022100  0.03460400  0.52755700  1
  O  O17  1  0.28425000  0.53469700  0.52565000  1
  O  O18  1  0.96539600  0.21977900  0.97244300  1
  O  O19  1  0.46530300  0.71575000  0.97435000  1
  O  O20  1  0.53469700  0.28425000  0.02565000  1
  O  O21  1  0.03460400  0.78022100  0.02755700  1
  O  O22  1  0.71575000  0.46530300  0.47435000  1
  O  O23  1  0.21977900  0.96539600  0.47244300  1
loop_
_geom_bond_atom_site_label_1
_geom_bond_atom_site_label_2
_geom_bond_distance
_geom_bond_site_symmetry_2
Na0 O19 2.135562 1_555
Na0 O21 2.168350 1_656
Na0 O10 2.242701 1_565
Na0 O2 2.311834 1_555
Na0 O11 2.786901 1_655
Na1 O22 2.135562 1_555
Na1 O16 2.168350 1_565
Na1 O15 2.242701 1_655
Na1 O6 2.311834 1_555
Na1 O14 2.786901 1_565
Na2 O17 2.135562 1_555
Na2 O23 2.168350 1_545
Na2 O8 2.242701 1_455
Na2 O0 2.311834 1_555
Na2 O9 2.786901 1_545
Na3 O20 2.135562 1_555
Na3 O18 2.168350 1_454
Na3 O13 2.242701 1_545
Na3 O5 2.311834 1_555
Na3 O12 2.786901 1_455
Mn0 O4 1.922999 1_545
Mn0 O6 1.945443 1_545
Mn0 O5 1.967591 1_555
Mn0 O7 1.969784 1_555
Mn0 O14 2.306345 1_555
Mn1 O7 1.922999 1_655
Mn1 O5 1.945443 1_655
Mn1 O6 1.967591 1_555
Mn1 O4 1.969784 1_555
Mn1 O12 2.306345 1_555
Mn2 O10 1.885702 1_555
Mn2 O11 1.930459 1_555
Mn2 O20 1.935205 1_556
Mn2 O18 1.970150 1_555
Mn2 O2 1.990054 1_555
Mn2 O19 1.995871 1_555
Mn3 O10 1.893738 1_465
Mn3 O3 1.925188 1_565
Mn3 O19 1.946265 1_555
Mn3 O18 1.949902 1_465
Mn3 O11 1.952571 1_555
Mn3 O21 2.029471 1_556
Mn4 O8 1.885702 1_555
Mn4 O9 1.930459 1_555
Mn4 O22 1.935205 1_555
Mn4 O16 1.970150 1_555
Mn4 O0 1.990054 1_555
Mn4 O17 1.995871 1_555
Mn5 O8 1.893738 1_465
Mn5 O1 1.925188 1_455
Mn5 O17 1.946265 1_555
Mn5 O16 1.949902 1_465
Mn5 O9 1.952571 1_555
Mn5 O23 2.029471 1_555
Mn6 O3 1.922999 1_565
Mn6 O0 1.945443 1_565
Mn6 O2 1.967591 1_555
Mn6 O1 1.969784 1_555
Mn6 O9 2.306345 1_555
Mn7 O1 1.922999 1_455
Mn7 O2 1.945443 1_455
Mn7 O0 1.967591 1_555
Mn7 O3 1.969784 1_555
Mn7 O11 2.306345 1_555
Mn8 O15 1.885702 1_555
Mn8 O14 1.930459 1_555
Mn8 O17 1.935205 1_555
Mn8 O23 1.970150 1_555
Mn8 O6 1.990054 1_555
Mn8 O22 1.995871 1_555
Mn9 O15 1.893738 1_645
Mn9 O7 1.925188 1_655
Mn9 O22 1.946265 1_555
Mn9 O23 1.949902 1_645
Mn9 O14 1.952571 1_555
Mn9 O16 2.029471 1_555
Mn10 O13 1.885702 1_555
Mn10 O12 1.930459 1_555
Mn10 O19 1.935205 1_554
Mn10 O21 1.970150 1_555
Mn10 O5 1.990054 1_555
Mn10 O20 1.995871 1_555
Mn11 O13 1.893738 1_645
Mn11 O4 1.925188 1_545
Mn11 O20 1.946265 1_555
Mn11 O21 1.949902 1_645
Mn11 O12 1.952571 1_555
Mn11 O18 2.029471 1_554
