# generated using pymatgen
data_Er5P12Ir19
_symmetry_space_group_name_H-M   'P 1'
_cell_length_a   12.62319994
_cell_length_b   12.62316596
_cell_length_c   3.95055005
_cell_angle_alpha   90.00000706
_cell_angle_beta   89.99998962
_cell_angle_gamma   119.99965334
_symmetry_Int_Tables_number   1
_chemical_formula_structural   Er5P12Ir19
_chemical_formula_sum   'Er5 P12 Ir19'
_cell_volume   545.16437734
_cell_formula_units_Z   1
loop_
 _symmetry_equiv_pos_site_id
 _symmetry_equiv_pos_as_xyz
  1  'x, y, z'
loop_
 _atom_site_type_symbol
 _atom_site_label
 _atom_site_symmetry_multiplicity
 _atom_site_fract_x
 _atom_site_fract_y
 _atom_site_fract_z
 _atom_site_occupancy
  Er  Er0  1  0.66666349  0.33332954  -0.00000002  1
  Er  Er1  1  0.33333323  0.66667394  0.00000115  1
  Er  Er2  1  0.81794149  0.81793665  0.50000528  1
  Er  Er3  1  0.18207270  0.99999613  0.50000227  1
  Er  Er4  1  0.00000628  0.18206503  0.49998747  1
  P  P0  1  0.68782497  0.17072113  0.49999973  1
  P  P1  1  0.82928739  0.51711486  0.50000018  1
  P  P2  1  0.48288987  0.31218288  0.50000011  1
  P  P3  1  0.17072092  0.68783129  0.50000079  1
  P  P4  1  0.51710459  0.82927273  0.50000056  1
  P  P5  1  0.31216117  0.48289113  0.50000039  1
  P  P6  1  0.64496680  0.64496370  0.00000118  1
  P  P7  1  0.35502765  0.99999825  0.00000159  1
  P  P8  1  0.00000893  0.35504004  -0.00000307  1
  P  P9  1  0.17785070  0.17785465  -0.00000243  1
  P  P10  1  0.82215038  -0.00000581  -0.00000065  1
  P  P11  1  0.00000026  0.82214749  0.00000093  1
  Ir  Ir0  1  0.80657983  0.18076556  -0.00000115  1
  Ir  Ir1  1  0.81924111  0.62581922  0.00000047  1
  Ir  Ir2  1  0.37417786  0.19342452  0.00000117  1
  Ir  Ir3  1  0.18075327  0.80656492  0.00000057  1
  Ir  Ir4  1  0.62580796  0.81923311  0.00000124  1
  Ir  Ir5  1  0.19343284  0.37419252  -0.00000067  1
  Ir  Ir6  1  0.46586288  0.46583328  0.00000024  1
  Ir  Ir7  1  0.53415014  0.00000767  0.99999928  1
  Ir  Ir8  1  0.99997631  0.53414106  0.00000084  1
  Ir  Ir9  1  0.28456070  0.28456415  0.50000078  1
  Ir  Ir10  1  0.71544893  -0.00000016  0.50000077  1
  Ir  Ir11  1  -0.00000181  0.71544145  0.50000001  1
  Ir  Ir12  1  0.86565405  0.36005869  0.49999987  1
  Ir  Ir13  1  0.63995129  0.50560616  0.50000031  1
  Ir  Ir14  1  0.49439304  0.13434617  0.49999976  1
  Ir  Ir15  1  0.36005664  0.86566104  0.50000016  1
  Ir  Ir16  1  0.50559664  0.63992300  0.50000064  1
  Ir  Ir17  1  0.13433697  0.49440256  0.50000036  1
  Ir  Ir18  1  0.00000857  0.00000247  -0.00000012  1
loop_
_geom_bond_atom_site_label_1
_geom_bond_atom_site_label_2
_geom_bond_distance
_geom_bond_site_symmetry_2
Er0 P0 2.955448 1_555
Er0 P0 2.955449 1_554
Er0 P2 2.955546 1_554
Er0 P2 2.955546 1_555
Er0 P1 2.955603 1_554
Er0 P1 2.955604 1_555
Er0 Ir14 3.078577 1_555
Er0 Ir14 3.078578 1_554
Er0 Ir12 3.078581 1_555
Er0 Ir12 3.078581 1_554
Er0 Ir13 3.078620 1_554
Er0 Ir13 3.078622 1_555
Er0 Ir0 3.198385 1_555
Er0 Ir2 3.198468 1_555
Er0 Ir1 3.198503 1_555
Er1 P4 2.955430 1_555
Er1 P4 2.955433 1_554
Er1 P3 2.955464 1_555
Er1 P3 2.955467 1_554
Er1 P5 2.955528 1_555
Er1 P5 2.955532 1_554
Er1 Ir15 3.078562 1_555
Er1 Ir15 3.078567 1_554
Er1 Ir17 3.078656 1_555
Er1 Ir17 3.078660 1_554
Er1 Ir16 3.078723 1_555
Er1 Ir16 3.078725 1_554
Er1 Ir3 3.198289 1_555
Er1 Ir4 3.198344 1_555
Er1 Ir5 3.198414 1_555
Er2 P6 2.944365 1_556
Er2 P6 2.944386 1_555
Er2 P10 3.010615 1_566
Er2 P11 3.010627 1_656
Er2 P10 3.010646 1_565
Er2 P11 3.010649 1_655
Er2 Ir18 3.030458 1_666
Er2 Ir18 3.030485 1_665
Er2 Ir1 3.134158 1_556
Er2 Ir1 3.134182 1_555
Er2 Ir4 3.134307 1_556
Er2 Ir4 3.134328 1_555
Er2 Ir11 3.150988 1_655
Er2 Ir10 3.151036 1_565
Er2 Ir13 3.425502 1_555
Er2 Ir16 3.425683 1_555
Er3 P7 2.944181 1_556
Er3 P7 2.944184 1_555
Er3 P11 3.010711 1_556
Er3 P11 3.010719 1_555
Er3 P9 3.010776 1_566
Er3 P9 3.010801 1_565
Er3 Ir18 3.030466 1_566
Er3 Ir18 3.030479 1_565
Er3 Ir2 3.134176 1_566
Er3 Ir2 3.134182 1_565
Er3 Ir3 3.134209 1_556
Er3 Ir3 3.134217 1_555
Er3 Ir11 3.151065 1_555
Er3 Ir9 3.151199 1_565
Er3 Ir15 3.425362 1_555
Er3 Ir14 3.425382 1_565
Er4 P8 2.944339 1_555
Er4 P8 2.944388 1_556
Er4 P9 3.010575 1_555
Er4 P9 3.010628 1_556
Er4 P10 3.010710 1_455
Er4 P10 3.010771 1_456
Er4 Ir18 3.030402 1_555
Er4 Ir18 3.030466 1_556
Er4 Ir0 3.134240 1_455
Er4 Ir5 3.134249 1_555
Er4 Ir0 3.134296 1_456
Er4 Ir5 3.134308 1_556
Er4 Ir9 3.151026 1_555
Er4 Ir10 3.151079 1_455
Er4 Ir17 3.425588 1_555
Er4 Ir12 3.425650 1_455
Ir0 P8 2.330235 1_655
Ir0 P10 2.386260 1_555
Ir0 P0 2.444362 1_554
Ir0 P0 2.444367 1_555
Ir0 Ir10 2.794079 1_554
Ir0 Ir10 2.794090 1_555
Ir0 Ir12 2.809335 1_554
Ir0 Ir12 2.809340 1_555
Ir0 Ir7 3.030830 1_554
Ir1 P6 2.330148 1_555
Ir1 P11 2.386112 1_655
Ir1 P1 2.444324 1_555
Ir1 P1 2.444325 1_554
Ir1 Ir11 2.794021 1_655
Ir1 Ir11 2.794023 1_654
Ir1 Ir13 2.809311 1_555
Ir1 Ir13 2.809312 1_554
Ir1 Ir8 3.030601 1_555
Ir2 P7 2.330208 1_545
Ir2 P9 2.386086 1_555
Ir2 P2 2.444384 1_555
Ir2 P2 2.444390 1_554
Ir2 Ir9 2.794009 1_555
Ir2 Ir9 2.794012 1_554
Ir2 Ir6 3.030536 1_555
Ir3 P7 2.330264 1_555
Ir3 P11 2.386120 1_555
Ir3 P3 2.444243 1_554
Ir3 P3 2.444245 1_555
Ir3 Ir8 3.030813 1_455
Ir4 P6 2.330185 1_555
Ir4 P10 2.386223 1_565
Ir4 P4 2.444289 1_555
Ir4 P4 2.444294 1_554
Ir4 Ir7 3.030872 1_564
Ir5 P8 2.330173 1_555
Ir5 P9 2.386146 1_555
Ir5 P5 2.444215 1_554
Ir5 P5 2.444222 1_555
Ir5 Ir9 2.794002 1_554
Ir5 Ir9 2.794010 1_555
Ir5 Ir6 3.030902 1_555
Ir6 P6 2.261041 1_555
Ir6 P2 2.850729 1_555
Ir6 P2 2.850729 1_554
Ir6 P5 2.851359 1_554
Ir6 P5 2.851359 1_555
Ir6 Ir9 3.023002 1_554
Ir6 Ir9 3.023005 1_555
Ir7 P7 2.261040 1_546
Ir7 P0 2.851020 1_555
Ir7 P0 2.851022 1_556
Ir7 P4 2.851177 1_545
Ir7 P4 2.851184 1_546
Ir8 P8 2.261028 1_655
Ir8 P1 2.850840 1_555
Ir8 P1 2.850844 1_554
Ir8 P3 2.851244 1_655
Ir8 P3 2.851244 1_654
Ir9 P2 2.348720 1_555
Ir9 P5 2.348774 1_555
Ir9 P9 2.390844 1_556
Ir9 P9 2.390865 1_555
Ir10 P0 2.348886 1_555
Ir10 P4 2.348925 1_545
Ir10 P10 2.390808 1_556
Ir10 P10 2.390817 1_555
Ir10 Ir4 2.794091 1_545
Ir10 Ir4 2.794093 1_546
Ir10 Ir7 3.023156 1_555
Ir10 Ir7 3.023164 1_554
Ir11 P1 2.348708 1_455
Ir11 P3 2.348804 1_555
Ir11 P11 2.390813 1_555
Ir11 P11 2.390818 1_556
Ir11 Ir3 2.794004 1_555
Ir11 Ir3 2.794008 1_556
Ir11 Ir8 3.023026 1_455
Ir11 Ir8 3.023031 1_456
Ir12 P1 2.247517 1_555
Ir12 P0 2.320830 1_555
Ir12 P8 2.624786 1_656
Ir12 P8 2.624803 1_655
Ir12 Ir8 2.807065 1_555
Ir12 Ir8 2.807070 1_556
Ir12 Ir17 2.937255 1_655
Ir13 P2 2.247558 1_555
Ir13 P1 2.320803 1_555
Ir13 P6 2.624668 1_555
Ir13 P6 2.624673 1_556
Ir13 Ir6 2.807084 1_556
Ir13 Ir6 2.807085 1_555
Ir13 Ir16 2.937111 1_555
Ir14 P0 2.247605 1_555
Ir14 P2 2.320874 1_555
Ir14 P7 2.624730 1_545
Ir14 P7 2.624741 1_546
Ir14 Ir7 2.807181 1_555
Ir14 Ir7 2.807184 1_554
Ir14 Ir2 2.809328 1_555
Ir14 Ir2 2.809335 1_556
Ir14 Ir15 2.937271 1_545
Ir15 P4 2.247596 1_555
Ir15 P3 2.320822 1_555
Ir15 P7 2.624686 1_555
Ir15 P7 2.624694 1_556
Ir15 Ir7 2.807200 1_565
Ir15 Ir7 2.807205 1_564
Ir15 Ir3 2.809390 1_555
Ir15 Ir3 2.809392 1_556
Ir16 P5 2.247533 1_555
Ir16 P4 2.320972 1_555
Ir16 P6 2.624678 1_555
Ir16 P6 2.624682 1_556
Ir16 Ir6 2.807195 1_556
Ir16 Ir6 2.807197 1_555
Ir16 Ir4 2.809441 1_555
Ir16 Ir4 2.809445 1_556
Ir17 P3 2.247520 1_555
Ir17 P5 2.320779 1_555
Ir17 P8 2.624635 1_556
Ir17 P8 2.624655 1_555
Ir17 Ir8 2.807265 1_455
Ir17 Ir8 2.807267 1_456
Ir17 Ir5 2.809402 1_556
Ir17 Ir5 2.809407 1_555
Ir18 P9 2.245009 1_555
Ir18 P11 2.245040 1_545
Ir18 P10 2.245087 1_455
