# generated using pymatgen
data_EuZnGe
_symmetry_space_group_name_H-M   'P 1'
_cell_length_a   4.29564911
_cell_length_b   4.29564911
_cell_length_c   4.46342200
_cell_angle_alpha   90.00000000
_cell_angle_beta   90.00000000
_cell_angle_gamma   119.99998632
_symmetry_Int_Tables_number   1
_chemical_formula_structural   EuZnGe
_chemical_formula_sum   'Eu1 Zn1 Ge1'
_cell_volume   71.32737465
_cell_formula_units_Z   1
loop_
 _symmetry_equiv_pos_site_id
 _symmetry_equiv_pos_as_xyz
  1  'x, y, z'
loop_
 _atom_site_type_symbol
 _atom_site_label
 _atom_site_symmetry_multiplicity
 _atom_site_fract_x
 _atom_site_fract_y
 _atom_site_fract_z
 _atom_site_occupancy
  Eu  Eu0  1  0.33333300  0.66666700  0.00000000  1
  Zn  Zn0  1  0.66666700  0.33333300  0.50000000  1
  Ge  Ge0  1  0.00000000  0.00000000  0.50000000  1
loop_
_geom_bond_atom_site_label_1
_geom_bond_atom_site_label_2
_geom_bond_distance
_geom_bond_site_symmetry_2
Eu0 Ge0 3.336373 1_565
Eu0 Ge0 3.336373 1_564
Eu0 Zn0 3.336374 1_565
Eu0 Zn0 3.336374 1_455
Eu0 Zn0 3.336374 1_454
Eu0 Zn0 3.336374 1_564
Eu0 Ge0 3.336377 1_664
Eu0 Ge0 3.336377 1_665
Eu0 Ge0 3.336377 1_555
Eu0 Ge0 3.336377 1_554
Eu0 Zn0 3.336379 1_554
Eu0 Zn0 3.336379 1_555
Ge0 Zn0 2.480092 1_455
Ge0 Zn0 2.480096 1_555
Ge0 Zn0 2.480096 1_445
