# generated using pymatgen
data_KCrNiOF6
_symmetry_space_group_name_H-M   'P 1'
_cell_length_a   7.46397760
_cell_length_b   7.46397760
_cell_length_c   7.46397760
_cell_angle_alpha   119.67767575
_cell_angle_beta   118.69708693
_cell_angle_gamma   91.41540214
_symmetry_Int_Tables_number   1
_chemical_formula_structural   KCrNiOF6
_chemical_formula_sum   'K2 Cr2 Ni2 O2 F12'
_cell_volume   297.51978058
_cell_formula_units_Z   2
loop_
 _symmetry_equiv_pos_site_id
 _symmetry_equiv_pos_as_xyz
  1  'x, y, z'
loop_
 _atom_site_type_symbol
 _atom_site_label
 _atom_site_symmetry_multiplicity
 _atom_site_fract_x
 _atom_site_fract_y
 _atom_site_fract_z
 _atom_site_occupancy
  K  K0  1  0.50000000  0.50000000  0.00000000  1
  K  K1  1  0.00000000  0.50000000  0.50000000  1
  Cr  Cr0  1  0.00000000  0.00000000  0.00000000  1
  Cr  Cr1  1  0.50000000  0.00000000  0.50000000  1
  Ni  Ni0  1  0.50000000  0.00000000  0.00000000  1
  Ni  Ni1  1  0.50000000  0.50000000  0.50000000  1
  O  O0  1  0.96129500  0.71129500  0.25000000  1
  O  O1  1  0.03870500  0.28870500  0.75000000  1
  F  F0  1  0.56346700  0.93483300  0.25597800  1
  F  F1  1  0.17885400  0.93483300  0.87136500  1
  F  F2  1  0.57382900  0.32382900  0.25000000  1
  F  F3  1  0.17885400  0.30748900  0.24402200  1
  F  F4  1  0.56346700  0.30748900  0.62863500  1
  F  F5  1  0.18793300  0.93793300  0.25000000  1
  F  F6  1  0.43653300  0.06516700  0.74402200  1
  F  F7  1  0.82114600  0.06516700  0.12863500  1
  F  F8  1  0.42617100  0.67617100  0.75000000  1
  F  F9  1  0.82114600  0.69251100  0.75597800  1
  F  F10  1  0.43653300  0.69251100  0.37136500  1
  F  F11  1  0.81206700  0.06206700  0.75000000  1
loop_
_geom_bond_atom_site_label_1
_geom_bond_atom_site_label_2
_geom_bond_distance
_geom_bond_site_symmetry_2
K0 O1 2.910599 1_554
K0 O0 2.910599 1_555
K1 O1 2.910599 1_555
K1 O0 2.910599 1_455
Cr0 F7 1.934195 1_455
Cr0 F1 1.934195 1_544
Cr0 F9 1.934195 1_444
Cr0 F3 1.934195 1_555
Cr0 F11 2.009626 1_454
Cr0 F5 2.009626 1_545
Cr1 F4 1.934195 1_555
Cr1 F10 1.934195 1_545
Cr1 F6 1.934197 1_555
Cr1 F0 1.934197 1_545
Cr1 F11 2.009626 1_555
Cr1 F5 2.009626 1_545
F0 Ni0 2.043007 1_565
F0 K0 2.706098 1_555
F1 Ni0 2.043013 1_566
F1 K1 2.706097 1_555
F2 Ni0 2.026881 1_555
F2 Ni1 2.026881 1_555
F2 K1 2.644364 1_655
F2 K0 2.644364 1_555
F3 Ni1 2.043013 1_555
F3 K1 2.706092 1_555
F4 Ni1 2.043013 1_555
F4 K0 2.706092 1_556
F6 Ni0 2.043007 1_556
F6 K0 2.706098 1_556
F7 Ni0 2.043013 1_555
F7 K1 2.706097 1_655
F8 Ni1 2.026881 1_555
F8 Ni0 2.026881 1_566
F8 K0 2.644364 1_556
F8 K1 2.644364 1_555
F9 Ni1 2.043013 1_555
F9 K1 2.706092 1_655
F10 Ni1 2.043013 1_555
F10 K0 2.706092 1_555
