# generated using pymatgen
data_HoSi3Ir
_symmetry_space_group_name_H-M   'P 1'
_cell_length_a   5.70455545
_cell_length_b   5.70455545
_cell_length_c   5.70455545
_cell_angle_alpha   137.24596556
_cell_angle_beta   137.24596556
_cell_angle_gamma   62.05982257
_symmetry_Int_Tables_number   1
_chemical_formula_structural   HoSi3Ir
_chemical_formula_sum   'Ho1 Si3 Ir1'
_cell_volume   84.53909359
_cell_formula_units_Z   1
loop_
 _symmetry_equiv_pos_site_id
 _symmetry_equiv_pos_as_xyz
  1  'x, y, z'
loop_
 _atom_site_type_symbol
 _atom_site_label
 _atom_site_symmetry_multiplicity
 _atom_site_fract_x
 _atom_site_fract_y
 _atom_site_fract_z
 _atom_site_occupancy
  Ho  Ho0  1  0.99768318  0.99768318  0.00000000  1
  Si  Si0  1  0.41446886  0.41446886  0.00000000  1
  Si  Si1  1  0.26510922  0.76510922  0.50000000  1
  Si  Si2  1  0.76510922  0.26510922  0.50000000  1
  Ir  Ir0  1  0.65163053  0.65163053  0.00000000  1
loop_
_geom_bond_atom_site_label_1
_geom_bond_atom_site_label_2
_geom_bond_distance
_geom_bond_site_symmetry_2
Ho0 Si0 3.051077 1_655
Ho0 Si0 3.051077 1_554
Ho0 Si0 3.051077 1_565
Ho0 Si0 3.051077 1_666
Ho0 Si1 3.081158 1_655
Ho0 Si2 3.081158 1_565
Ho0 Si2 3.081158 1_554
Ho0 Si1 3.081158 1_554
Ho0 Ir0 3.303395 1_655
Ho0 Ir0 3.303395 1_554
Ho0 Ir0 3.303395 1_565
Ho0 Ir0 3.303395 1_666
Ho0 Si1 3.340524 1_654
Ho0 Si2 3.340524 1_665
Ho0 Si1 3.340524 1_665
Ho0 Si2 3.340524 1_564
Si0 Si2 2.540829 1_454
Si0 Si1 2.540829 1_544
Si0 Si1 2.540829 1_555
Si0 Si2 2.540829 1_555
Ir0 Si0 2.318599 1_555
Ir0 Si2 2.356782 1_554
Ir0 Si1 2.356782 1_554
Ir0 Si1 2.356782 1_655
Ir0 Si2 2.356782 1_565
