# generated using pymatgen
data_Li7Mn2(CoO4)3
_symmetry_space_group_name_H-M   'P 1'
_cell_length_a   5.19024200
_cell_length_b   5.73697012
_cell_length_c   7.70647548
_cell_angle_alpha   100.71949931
_cell_angle_beta   107.80949255
_cell_angle_gamma   90.01151514
_symmetry_Int_Tables_number   1
_chemical_formula_structural   Li7Mn2(CoO4)3
_chemical_formula_sum   'Li7 Mn2 Co3 O12'
_cell_volume   214.26096380
_cell_formula_units_Z   1
loop_
 _symmetry_equiv_pos_site_id
 _symmetry_equiv_pos_as_xyz
  1  'x, y, z'
loop_
 _atom_site_type_symbol
 _atom_site_label
 _atom_site_symmetry_multiplicity
 _atom_site_fract_x
 _atom_site_fract_y
 _atom_site_fract_z
 _atom_site_occupancy
  Li  Li0  1  0.49426700  0.24869200  0.00128800  1
  Li  Li1  1  0.15474900  0.41303000  0.65433900  1
  Li  Li2  1  0.84198300  0.58641500  0.34381000  1
  Li  Li3  1  0.50044900  0.75341300  0.00642700  1
  Li  Li4  1  0.17190100  0.91361700  0.65364000  1
  Li  Li5  1  0.84158200  0.08547200  0.34398500  1
  Li  Li6  1  0.33243900  0.83413800  0.33412600  1
  Mn  Mn0  1  0.99816400  0.00082700  0.00336700  1
  Mn  Mn1  1  0.00266800  0.50125600  0.00425200  1
  Co  Co0  1  0.65993600  0.16138000  0.65546100  1
  Co  Co1  1  0.33089800  0.33351100  0.33448300  1
  Co  Co2  1  0.65749700  0.66552900  0.65509200  1
  O  O0  1  0.90365600  0.28673300  0.14350500  1
  O  O1  1  0.62248500  0.45974700  0.82888800  1
  O  O2  1  0.27743200  0.60807000  0.49924800  1
  O  O3  1  0.91321600  0.78601900  0.14868400  1
  O  O4  1  0.61276200  0.95773100  0.83647800  1
  O  O5  1  0.27962800  0.14100000  0.50108200  1
  O  O6  1  0.07040900  0.21287600  0.84932700  1
  O  O7  1  0.75171600  0.37520300  0.50049400  1
  O  O8  1  0.36936200  0.52801900  0.16277600  1
  O  O9  1  0.08279900  0.71448800  0.85664700  1
  O  O10  1  0.76257000  0.87900700  0.51903500  1
  O  O11  1  0.36743200  0.05382600  0.16356500  1
loop_
_geom_bond_atom_site_label_1
_geom_bond_atom_site_label_2
_geom_bond_distance
_geom_bond_site_symmetry_2
Li0 O0 2.061557 1_555
Li0 O11 2.066520 1_555
Li0 O8 2.071013 1_555
Li0 O4 2.113602 1_544
Li0 O6 2.141891 1_554
Li0 O1 2.193870 1_554
Li1 O5 2.008379 1_555
Li1 O2 2.012151 1_555
Li1 O7 2.053182 1_455
Li1 O6 2.193680 1_555
Li1 O9 2.216881 1_555
Li1 O1 2.375473 1_555
Li2 O7 2.008949 1_555
Li2 O10 2.075709 1_555
Li2 O3 2.165570 1_555
Li2 O0 2.180914 1_555
Li2 O2 2.201541 1_655
Li2 O8 2.410040 1_555
Li3 O3 2.076880 1_555
Li3 O9 2.110572 1_554
Li3 O4 2.113518 1_554
Li3 O11 2.156137 1_565
Li3 O8 2.160427 1_555
Li3 O1 2.187373 1_554
Li4 O10 2.050415 1_455
Li4 O5 2.090191 1_565
Li4 O2 2.100370 1_555
Li4 O6 2.241074 1_565
Li4 O9 2.252492 1_555
Li4 O4 2.275978 1_555
Li5 O7 2.008431 1_555
Li5 O10 2.079341 1_545
Li5 O3 2.176133 1_545
Li5 O0 2.189046 1_555
Li5 O5 2.215579 1_655
Li5 O11 2.415637 1_555
Li6 O11 2.027652 1_565
Li6 O8 2.038852 1_555
Li6 O5 2.050147 1_565
Li6 O2 2.053992 1_555
Li6 O3 2.191763 1_455
Li6 O10 2.235658 1_555
Mn0 O11 1.924227 1_655
Mn0 O0 1.939773 1_555
Mn0 O3 1.944844 1_545
Mn0 O9 1.945022 1_644
Mn0 O6 1.959353 1_654
Mn0 O4 2.006080 1_544
Mn1 O8 1.909488 1_555
Mn1 O0 1.938763 1_455
Mn1 O3 1.939931 1_455
Mn1 O9 1.941707 1_554
Mn1 O6 1.951516 1_554
Mn1 O1 2.006396 1_454
Co0 O10 1.929448 1_545
Co0 O5 1.958824 1_555
Co0 O7 2.012628 1_555
Co0 O1 2.015452 1_555
Co0 O4 2.045993 1_545
Co0 O6 2.178702 1_655
Co1 O2 1.908414 1_555
Co1 O5 1.917110 1_555
Co1 O11 1.926697 1_555
Co1 O8 1.935683 1_555
Co1 O7 2.154328 1_555
Co1 O0 2.238711 1_455
Co2 O10 1.929755 1_555
Co2 O2 1.961018 1_555
Co2 O1 1.989380 1_555
Co2 O7 2.012785 1_555
Co2 O4 2.035935 1_555
Co2 O9 2.259280 1_655
