# generated using pymatgen
data_La5Pb3
_symmetry_space_group_name_H-M   'P 1'
_cell_length_a   7.14015110
_cell_length_b   9.58982166
_cell_length_c   9.58999168
_cell_angle_alpha   120.00147757
_cell_angle_beta   89.99977894
_cell_angle_gamma   89.99917093
_symmetry_Int_Tables_number   1
_chemical_formula_structural   La5Pb3
_chemical_formula_sum   'La10 Pb6'
_cell_volume   568.67001405
_cell_formula_units_Z   2
loop_
 _symmetry_equiv_pos_site_id
 _symmetry_equiv_pos_as_xyz
  1  'x, y, z'
loop_
 _atom_site_type_symbol
 _atom_site_label
 _atom_site_symmetry_multiplicity
 _atom_site_fract_x
 _atom_site_fract_y
 _atom_site_fract_z
 _atom_site_occupancy
  La  La0  1  0.49999294  0.33335514  0.66668791  1
  La  La1  1  0.50000605  0.66663479  0.33333129  1
  La  La2  1  -0.00001377  0.66662742  0.33333098  1
  La  La3  1  0.00000129  0.33335241  0.66668853  1
  La  La4  1  0.75005086  0.24370196  0.00001794  1
  La  La5  1  0.75000386  0.75629884  0.75618813  1
  La  La6  1  0.74999770  0.00001583  0.24373356  1
  La  La7  1  0.25000013  0.75627842  -0.00001451  1
  La  La8  1  0.24998935  0.24375286  0.24375095  1
  La  La9  1  0.24999432  0.00001787  0.75630424  1
  Pb  Pb0  1  0.74999934  0.60720920  -0.00003989  1
  Pb  Pb1  1  0.74999100  0.39275682  0.39278529  1
  Pb  Pb2  1  0.74999727  0.00001784  0.60725302  1
  Pb  Pb3  1  0.24999847  0.39273174  -0.00003417  1
  Pb  Pb4  1  0.24999900  0.60720412  0.60721944  1
  Pb  Pb5  1  0.24999320  0.00004374  0.39279630  1
loop_
_geom_bond_atom_site_label_1
_geom_bond_atom_site_label_2
_geom_bond_distance
_geom_bond_site_symmetry_2
La0 Pb0 3.450312 1_556
La0 Pb3 3.450455 1_556
La0 Pb4 3.450482 1_555
La0 Pb5 3.450586 1_555
La0 Pb1 3.450633 1_555
La0 Pb2 3.450740 1_555
La1 Pb1 3.450608 1_555
La1 Pb4 3.450701 1_555
La1 Pb3 3.450944 1_555
La1 Pb2 3.451015 1_565
La1 Pb0 3.451066 1_555
La1 Pb5 3.451266 1_565
La2 Pb1 3.450625 1_455
La2 Pb4 3.450688 1_555
La2 Pb3 3.450887 1_555
La2 Pb2 3.450988 1_465
La2 Pb0 3.451082 1_455
La2 Pb5 3.451353 1_565
La3 Pb0 3.450248 1_456
La3 Pb3 3.450474 1_556
La3 Pb5 3.450486 1_555
La3 Pb4 3.450558 1_555
La3 Pb1 3.450700 1_455
La3 Pb2 3.450766 1_455
La4 Pb2 3.293307 1_554
La4 Pb1 3.293395 1_555
La4 Pb0 3.486247 1_555
La4 Pb3 3.845277 1_655
La4 Pb3 3.845933 1_555
La5 Pb2 3.292564 1_565
La5 Pb0 3.294222 1_556
La5 Pb1 3.485589 1_555
La5 Pb4 3.845455 1_655
La5 Pb4 3.845569 1_555
La6 Pb1 3.293099 1_555
La6 Pb0 3.293693 1_545
La6 Pb2 3.486139 1_555
La6 Pb5 3.845565 1_655
La6 Pb5 3.845614 1_555
La7 Pb4 3.293358 1_554
La7 Pb5 3.293761 1_565
La7 Pb3 3.486254 1_555
La7 Pb0 3.845583 1_555
La7 Pb0 3.845632 1_455
La8 Pb5 3.293310 1_555
La8 Pb3 3.293501 1_555
La8 Pb4 3.485468 1_555
La8 Pb1 3.845432 1_455
La8 Pb1 3.845502 1_555
La9 Pb3 3.292844 1_556
La9 Pb4 3.293702 1_545
La9 Pb5 3.486162 1_555
La9 Pb2 3.845583 1_455
La9 Pb2 3.845612 1_555
