# generated using pymatgen
data_BaLa2(SiS4)2
_symmetry_space_group_name_H-M   'P 1'
_cell_length_a   9.32351740
_cell_length_b   9.24656012
_cell_length_c   10.66776014
_cell_angle_alpha   89.38508764
_cell_angle_beta   115.91446189
_cell_angle_gamma   59.72331120
_symmetry_Int_Tables_number   1
_chemical_formula_structural   BaLa2(SiS4)2
_chemical_formula_sum   'Ba2 La4 Si4 S16'
_cell_volume   682.02726459
_cell_formula_units_Z   2
loop_
 _symmetry_equiv_pos_site_id
 _symmetry_equiv_pos_as_xyz
  1  'x, y, z'
loop_
 _atom_site_type_symbol
 _atom_site_label
 _atom_site_symmetry_multiplicity
 _atom_site_fract_x
 _atom_site_fract_y
 _atom_site_fract_z
 _atom_site_occupancy
  Ba  Ba0  1  0.50478000  0.91582400  0.25178700  1
  Ba  Ba1  1  0.83117200  0.41581300  0.75177700  1
  La  La0  1  0.18955900  0.56039600  0.24896000  1
  La  La1  1  0.80958200  0.24772300  0.24783400  1
  La  La2  1  0.49902100  0.06037700  0.74896800  1
  La  La3  1  0.19050400  0.74770200  0.74786400  1
  Si  Si0  1  0.67816300  0.15515000  0.52047700  1
  Si  Si1  1  0.68715400  0.65509300  0.02046700  1
  Si  Si2  1  0.30704900  0.84709900  0.48035700  1
  Si  Si3  1  0.32628600  0.34706400  0.98038600  1
  S  S0  1  0.83634100  0.95504500  0.44678800  1
  S  S1  1  0.39434000  0.22626400  0.45368300  1
  S  S2  1  0.63873600  0.38739700  0.42612600  1
  S  S3  1  0.83306000  0.72623100  0.95366900  1
  S  S4  1  0.65541700  0.45501400  0.94678700  1
  S  S5  1  0.39997600  0.88737800  0.92615500  1
  S  S6  1  0.15853300  0.06027500  0.55241000  1
  S  S7  1  0.58459900  0.79836200  0.56815800  1
  S  S8  1  0.32697200  0.61867600  0.55270600  1
  S  S9  1  0.18521300  0.29837500  0.06814700  1
  S  S10  1  0.33361700  0.56026600  0.05242200  1
  S  S11  1  0.60715900  0.11862100  0.05275500  1
  S  S12  1  0.14258600  0.92040900  0.24673800  1
  S  S13  1  0.18379300  0.42039500  0.74673600  1
  S  S14  1  0.84024900  0.05751800  0.75402400  1
  S  S15  1  0.85627100  0.55746700  0.25401600  1
loop_
_geom_bond_atom_site_label_1
_geom_bond_atom_site_label_2
_geom_bond_distance
_geom_bond_site_symmetry_2
Ba0 S9 3.057720 1_565
Ba0 S0 3.088850 1_555
Ba0 S7 3.167787 1_555
Ba0 S5 3.225358 1_554
Ba0 S15 3.271146 1_555
Ba0 S12 3.332403 1_555
Ba0 S11 3.525103 1_565
Ba0 S1 3.609641 1_565
Ba1 S7 3.057718 1_555
Ba1 S4 3.088877 1_555
Ba1 S9 3.167821 1_656
Ba1 S2 3.225459 1_555
Ba1 S14 3.270701 1_555
Ba1 S13 3.332924 1_655
Ba1 S8 3.524799 1_555
Ba1 S3 3.609432 1_555
La0 S1 2.867547 1_555
La0 S10 2.942721 1_555
La0 S3 2.987895 1_454
La0 S8 3.088106 1_555
La0 S9 3.118187 1_555
La0 S12 3.129374 1_555
La0 S15 3.144997 1_455
La0 S2 3.151386 1_555
La1 S11 2.865291 1_555
La1 S2 2.906747 1_555
La1 S6 3.016523 1_655
La1 S4 3.018060 1_554
La1 S12 3.058910 1_645
La1 S15 3.103681 1_555
La1 S0 3.259408 1_545
La1 S10 3.353133 1_555
La2 S3 2.867431 1_545
La2 S6 2.942678 1_555
La2 S1 2.987902 1_555
La2 S11 3.088361 1_556
La2 S7 3.118165 1_545
La2 S13 3.129190 1_555
La2 S14 3.144897 1_555
La2 S5 3.151939 1_545
La3 S8 2.866100 1_555
La3 S5 2.906748 1_555
La3 S10 3.016284 1_556
La3 S0 3.018160 1_455
La3 S13 3.058531 1_555
La3 S14 3.103801 1_465
La3 S4 3.259495 1_555
La3 S6 3.353864 1_565
S0 Si0 2.123545 1_565
S1 Si0 2.128357 1_555
S2 Si0 2.143385 1_555
S3 Si1 2.128507 1_556
S4 Si1 2.123190 1_556
S5 Si1 2.143514 1_556
S6 Si2 2.145736 1_545
S7 Si2 2.115017 1_555
S8 Si2 2.129637 1_555
S9 Si3 2.115077 1_554
S10 Si3 2.145704 1_554
S11 Si3 2.129728 1_554
S12 Si2 2.144111 1_555
S13 Si3 2.144400 1_555
S14 Si0 2.142687 1_555
S15 Si1 2.142703 1_555
