# generated using pymatgen
data_KMn2O4
_symmetry_space_group_name_H-M   'P 1'
_cell_length_a   2.98429337
_cell_length_b   5.05846357
_cell_length_c   6.50045893
_cell_angle_alpha   105.00119286
_cell_angle_beta   91.18263749
_cell_angle_gamma   93.57382641
_symmetry_Int_Tables_number   1
_chemical_formula_structural   KMn2O4
_chemical_formula_sum   'K1 Mn2 O4'
_cell_volume   94.53310524
_cell_formula_units_Z   1
loop_
 _symmetry_equiv_pos_site_id
 _symmetry_equiv_pos_as_xyz
  1  'x, y, z'
loop_
 _atom_site_type_symbol
 _atom_site_label
 _atom_site_symmetry_multiplicity
 _atom_site_fract_x
 _atom_site_fract_y
 _atom_site_fract_z
 _atom_site_occupancy
  K  K0  1  0.50000000  -0.00000000  0.50000000  1
  Mn  Mn0  1  0.00000000  -0.00000000  0.00000000  1
  Mn  Mn1  1  0.50000000  0.50000000  0.00000000  1
  O  O0  1  0.47452927  0.79015161  0.84638098  1
  O  O1  1  0.03689606  0.25820653  0.83543878  1
  O  O2  1  -0.03689606  0.74179347  0.16456122  1
  O  O3  1  0.52547073  0.20984839  0.15361902  1
loop_
_geom_bond_atom_site_label_1
_geom_bond_atom_site_label_2
_geom_bond_distance
_geom_bond_site_symmetry_2
K0 O2 2.673635 1_545
K0 O1 2.673635 1_655
K0 O2 2.691781 1_645
K0 O1 2.691781 1_555
K0 O0 2.727044 1_545
K0 O3 2.727044 1_555
Mn0 O2 1.890141 1_545
Mn0 O1 1.890141 1_554
Mn0 O0 1.939639 1_444
Mn0 O3 1.939639 1_555
Mn0 O0 1.956135 1_544
Mn0 O3 1.956135 1_455
Mn1 O1 1.897692 1_554
Mn1 O2 1.897692 1_655
Mn1 O0 1.981587 1_554
Mn1 O3 1.981587 1_555
Mn1 O1 2.201195 1_654
Mn1 O2 2.201195 1_555
