# generated using pymatgen
data_Ho5Mg
_symmetry_space_group_name_H-M   'P 1'
_cell_length_a   18.51924422
_cell_length_b   18.51924422
_cell_length_c   11.23529782
_cell_angle_alpha   90.00000000
_cell_angle_beta   90.00000000
_cell_angle_gamma   157.85169871
_symmetry_Int_Tables_number   1
_chemical_formula_structural   Ho5Mg
_chemical_formula_sum   'Ho40 Mg8'
_cell_volume   1452.70843039
_cell_formula_units_Z   8
loop_
 _symmetry_equiv_pos_site_id
 _symmetry_equiv_pos_as_xyz
  1  'x, y, z'
loop_
 _atom_site_type_symbol
 _atom_site_label
 _atom_site_symmetry_multiplicity
 _atom_site_fract_x
 _atom_site_fract_y
 _atom_site_fract_z
 _atom_site_occupancy
  Ho  Ho0_0  1  0.99990287  0.00009712  0.25000000  1
  Ho  Ho0_1  1  0.99990287  0.00009712  0.75000000  1
  Ho  Ho0_2  1  0.99990288  0.50009712  0.25000000  1
  Ho  Ho0_3  1  0.99990288  0.50009712  0.75000000  1
  Ho  Ho0_4  1  0.49990288  0.00009712  0.25000000  1
  Ho  Ho0_5  1  0.49990288  0.00009712  0.75000000  1
  Ho  Ho0_6  1  0.49990288  0.50009712  0.25000000  1
  Ho  Ho0_7  1  0.49990288  0.50009712  0.75000000  1
  Ho  Ho1_0  1  0.33524405  0.16475595  0.25000000  1
  Ho  Ho1_1  1  0.33524405  0.16475595  0.75000000  1
  Ho  Ho1_2  1  0.33524405  0.66475595  0.25000000  1
  Ho  Ho1_3  1  0.33524405  0.66475595  0.75000000  1
  Ho  Ho1_4  1  0.83524405  0.16475595  0.25000000  1
  Ho  Ho1_5  1  0.83524405  0.16475595  0.75000000  1
  Ho  Ho1_6  1  0.83524404  0.66475595  0.25000000  1
  Ho  Ho1_7  1  0.83524404  0.66475595  0.75000000  1
  Ho  Ho2_0  1  0.16617465  0.33382535  0.25000000  1
  Ho  Ho2_1  1  0.16617465  0.33382535  0.75000000  1
  Ho  Ho2_2  1  0.16617465  0.83382535  0.25000000  1
  Ho  Ho2_3  1  0.16617465  0.83382535  0.75000000  1
  Ho  Ho2_4  1  0.66617465  0.33382535  0.25000000  1
  Ho  Ho2_5  1  0.66617465  0.33382535  0.75000000  1
  Ho  Ho2_6  1  0.66617465  0.83382535  0.25000000  1
  Ho  Ho2_7  1  0.66617465  0.83382535  0.75000000  1
  Ho  Ho3_0  1  0.27709694  0.22290306  0.00000000  1
  Ho  Ho3_1  1  0.27709694  0.22290306  0.50000000  1
  Ho  Ho3_2  1  0.27709694  0.72290307  0.00000000  1
  Ho  Ho3_3  1  0.27709694  0.72290307  0.50000000  1
  Ho  Ho3_4  1  0.77709694  0.22290306  0.00000000  1
  Ho  Ho3_5  1  0.77709694  0.22290306  0.50000000  1
  Ho  Ho3_6  1  0.77709693  0.72290306  0.00000000  1
  Ho  Ho3_7  1  0.77709693  0.72290306  0.50000000  1
  Ho  Ho4_0  1  0.44308702  0.05691298  0.00000000  1
  Ho  Ho4_1  1  0.44308702  0.05691298  0.50000000  1
  Ho  Ho4_2  1  0.44308702  0.55691298  0.00000000  1
  Ho  Ho4_3  1  0.44308702  0.55691298  0.50000000  1
  Ho  Ho4_4  1  0.94308702  0.05691298  0.00000000  1
  Ho  Ho4_5  1  0.94308702  0.05691298  0.50000000  1
  Ho  Ho4_6  1  0.94308702  0.55691298  0.00000000  1
  Ho  Ho4_7  1  0.94308702  0.55691298  0.50000000  1
  Mg  Mg0_0  1  0.11183098  0.38816902  0.00000000  1
  Mg  Mg0_1  1  0.11183098  0.38816902  0.50000000  1
  Mg  Mg0_2  1  0.11183098  0.88816902  0.00000000  1
  Mg  Mg0_3  1  0.11183098  0.88816902  0.50000000  1
  Mg  Mg0_4  1  0.61183098  0.38816902  0.00000000  1
  Mg  Mg0_5  1  0.61183098  0.38816902  0.50000000  1
  Mg  Mg0_6  1  0.61183098  0.88816902  0.00000000  1
  Mg  Mg0_7  1  0.61183098  0.88816902  0.50000000  1
loop_
_geom_bond_atom_site_label_1
_geom_bond_atom_site_label_2
_geom_bond_distance
_geom_bond_site_symmetry_2
Ho0_0 Ho3_6 3.468418 1_545
Ho0_0 Ho3_7 3.468418 1_545
Ho0_0 Ho3_0 3.468418 1_655
Ho0_0 Ho3_1 3.468418 1_655
Ho0_0 Ho4_5 3.486330 1_555
Ho0_0 Ho4_4 3.486330 1_555
Ho0_0 Ho2_0 3.525020 1_655
Ho0_0 Ho2_6 3.525020 1_545
Ho0_0 Ho0_6 3.557162 1_545
Ho0_0 Ho0_6 3.557162 1_655
Ho0_0 Ho1_6 3.575761 1_545
Ho0_0 Ho1_0 3.575761 1_655
Ho0_1 Ho3_7 3.468418 1_545
Ho0_1 Ho3_6 3.468418 1_546
Ho0_1 Ho3_0 3.468418 1_656
Ho0_1 Ho3_1 3.468418 1_655
Ho0_1 Ho4_4 3.486330 1_556
Ho0_1 Ho4_5 3.486330 1_555
Ho0_1 Ho2_1 3.525020 1_655
Ho0_1 Ho2_7 3.525020 1_545
Ho0_1 Ho0_7 3.557162 1_545
Ho0_1 Ho0_7 3.557162 1_655
Ho0_1 Ho1_7 3.575761 1_545
Ho0_1 Ho1_1 3.575761 1_655
Ho0_2 Ho3_4 3.468418 1_555
Ho0_2 Ho3_5 3.468418 1_555
Ho0_2 Ho3_2 3.468418 1_655
Ho0_2 Ho3_3 3.468418 1_655
Ho0_2 Ho4_7 3.486330 1_555
Ho0_2 Ho4_6 3.486330 1_555
Ho0_2 Ho2_2 3.525020 1_655
Ho0_2 Ho2_4 3.525020 1_555
Ho0_2 Ho0_4 3.557162 1_665
Ho0_2 Ho0_4 3.557162 1_555
Ho0_2 Ho1_4 3.575761 1_555
Ho0_2 Ho1_2 3.575761 1_655
Ho0_3 Ho3_5 3.468418 1_555
Ho0_3 Ho3_4 3.468418 1_556
Ho0_3 Ho3_2 3.468418 1_656
Ho0_3 Ho3_3 3.468418 1_655
Ho0_3 Ho4_7 3.486330 1_555
Ho0_3 Ho4_6 3.486330 1_556
Ho0_3 Ho2_3 3.525020 1_655
Ho0_3 Ho2_5 3.525020 1_555
Ho0_3 Ho0_5 3.557162 1_665
Ho0_3 Ho0_5 3.557162 1_555
Ho0_3 Ho1_3 3.575761 1_655
Ho0_3 Ho1_5 3.575761 1_555
Ho0_4 Ho3_2 3.468418 1_545
Ho0_4 Ho3_3 3.468418 1_545
Ho0_4 Ho3_4 3.468418 1_555
Ho0_4 Ho3_5 3.468418 1_555
Ho0_4 Ho4_0 3.486330 1_555
Ho0_4 Ho4_1 3.486330 1_555
Ho0_4 Ho2_4 3.525020 1_555
Ho0_4 Ho2_2 3.525020 1_545
Ho0_4 Ho1_4 3.575761 1_555
Ho0_4 Ho1_2 3.575761 1_545
Ho0_5 Ho3_2 3.468418 1_546
Ho0_5 Ho3_3 3.468418 1_545
Ho0_5 Ho3_4 3.468418 1_556
Ho0_5 Ho3_5 3.468418 1_555
Ho0_5 Ho4_0 3.486330 1_556
Ho0_5 Ho4_1 3.486330 1_555
Ho0_5 Ho2_5 3.525020 1_555
Ho0_5 Ho2_3 3.525020 1_545
Ho0_5 Ho1_5 3.575761 1_555
Ho0_5 Ho1_3 3.575761 1_545
Ho0_6 Ho3_1 3.468418 1_555
Ho0_6 Ho3_0 3.468418 1_555
Ho0_6 Ho3_7 3.468418 1_555
Ho0_6 Ho3_6 3.468418 1_555
Ho0_6 Ho4_2 3.486330 1_555
Ho0_6 Ho4_3 3.486330 1_555
Ho0_6 Ho2_6 3.525020 1_555
Ho0_6 Ho2_0 3.525020 1_555
Ho0_6 Ho1_6 3.575761 1_555
Ho0_6 Ho1_0 3.575761 1_555
Ho0_7 Ho3_0 3.468418 1_556
Ho0_7 Ho3_1 3.468418 1_555
Ho0_7 Ho3_6 3.468418 1_556
Ho0_7 Ho3_7 3.468418 1_555
Ho0_7 Ho4_2 3.486330 1_556
Ho0_7 Ho4_3 3.486330 1_555
Ho0_7 Ho2_7 3.525020 1_555
Ho0_7 Ho2_1 3.525020 1_555
Ho0_7 Ho1_7 3.575761 1_555
Ho0_7 Ho1_1 3.575761 1_555
Ho1_0 Ho2_4 3.437606 1_555
Ho1_0 Ho2_2 3.437606 1_545
Ho1_0 Mg0_4 3.462193 1_555
Ho1_0 Mg0_5 3.462193 1_555
Ho1_0 Mg0_3 3.462193 1_545
Ho1_0 Mg0_2 3.462193 1_545
Ho1_0 Ho3_1 3.515211 1_555
Ho1_0 Ho3_0 3.515211 1_555
Ho1_0 Ho1_6 3.557162 1_555
Ho1_0 Ho1_6 3.557162 1_445
Ho1_1 Ho2_5 3.437606 1_555
Ho1_1 Ho2_3 3.437606 1_545
Ho1_1 Mg0_4 3.462193 1_556
Ho1_1 Mg0_5 3.462193 1_555
Ho1_1 Mg0_3 3.462193 1_545
Ho1_1 Mg0_2 3.462193 1_546
Ho1_1 Ho3_1 3.515211 1_555
Ho1_1 Ho3_0 3.515211 1_556
Ho1_1 Ho1_7 3.557162 1_555
Ho1_1 Ho1_7 3.557162 1_445
Ho1_2 Ho2_6 3.437606 1_555
Ho1_2 Ho2_0 3.437606 1_555
Ho1_2 Mg0_0 3.462193 1_555
Ho1_2 Mg0_1 3.462193 1_555
Ho1_2 Mg0_7 3.462193 1_555
Ho1_2 Mg0_6 3.462193 1_555
Ho1_2 Ho3_3 3.515211 1_555
Ho1_2 Ho3_2 3.515211 1_555
Ho1_2 Ho1_4 3.557162 1_455
Ho1_2 Ho1_4 3.557162 1_565
Ho1_3 Ho2_7 3.437606 1_555
Ho1_3 Ho2_1 3.437606 1_555
Ho1_3 Mg0_1 3.462193 1_555
Ho1_3 Mg0_7 3.462193 1_555
Ho1_3 Mg0_0 3.462193 1_556
Ho1_3 Mg0_6 3.462193 1_556
Ho1_3 Ho3_3 3.515211 1_555
Ho1_3 Ho3_2 3.515211 1_556
Ho1_3 Ho1_5 3.557162 1_565
Ho1_3 Ho1_5 3.557162 1_455
Ho1_4 Ho2_0 3.437606 1_655
Ho1_4 Ho2_6 3.437606 1_545
Ho1_4 Mg0_0 3.462193 1_655
Ho1_4 Mg0_7 3.462193 1_545
Ho1_4 Mg0_1 3.462193 1_655
Ho1_4 Mg0_6 3.462193 1_545
Ho1_4 Ho3_4 3.515211 1_555
Ho1_4 Ho3_5 3.515211 1_555
Ho1_5 Ho2_1 3.437606 1_655
Ho1_5 Ho2_7 3.437606 1_545
Ho1_5 Mg0_7 3.462193 1_545
Ho1_5 Mg0_0 3.462193 1_656
Ho1_5 Mg0_6 3.462193 1_546
Ho1_5 Mg0_1 3.462193 1_655
Ho1_5 Ho3_5 3.515211 1_555
Ho1_5 Ho3_4 3.515211 1_556
Ho1_6 Ho2_2 3.437606 1_655
Ho1_6 Ho2_4 3.437606 1_555
Ho1_6 Mg0_5 3.462193 1_555
Ho1_6 Mg0_4 3.462193 1_555
Ho1_6 Mg0_3 3.462193 1_655
Ho1_6 Mg0_2 3.462193 1_655
Ho1_6 Ho3_7 3.515211 1_555
Ho1_6 Ho3_6 3.515211 1_555
Ho1_7 Ho2_3 3.437606 1_655
Ho1_7 Ho2_5 3.437606 1_555
Ho1_7 Mg0_5 3.462193 1_555
Ho1_7 Mg0_4 3.462193 1_556
Ho1_7 Mg0_2 3.462193 1_656
Ho1_7 Mg0_3 3.462193 1_655
Ho1_7 Ho3_7 3.515211 1_555
Ho1_7 Ho3_6 3.515211 1_556
Ho2_0 Mg0_0 3.433863 1_555
Ho2_0 Mg0_1 3.433863 1_555
Ho2_0 Ho4_5 3.465514 1_455
Ho2_0 Ho4_4 3.465514 1_455
Ho2_0 Ho4_3 3.465514 1_555
Ho2_0 Ho4_2 3.465514 1_555
Ho2_0 Ho2_6 3.557162 1_445
Ho2_0 Ho2_6 3.557162 1_555
Ho2_1 Mg0_0 3.433863 1_556
Ho2_1 Mg0_1 3.433863 1_555
Ho2_1 Ho4_5 3.465514 1_455
Ho2_1 Ho4_4 3.465514 1_456
Ho2_1 Ho4_3 3.465514 1_555
Ho2_1 Ho4_2 3.465514 1_556
Ho2_1 Ho2_7 3.557162 1_445
Ho2_1 Ho2_7 3.557162 1_555
Ho2_2 Mg0_2 3.433863 1_555
Ho2_2 Mg0_3 3.433863 1_555
Ho2_2 Ho4_7 3.465514 1_455
Ho2_2 Ho4_6 3.465514 1_455
Ho2_2 Ho4_1 3.465514 1_565
Ho2_2 Ho4_0 3.465514 1_565
Ho2_2 Ho2_4 3.557162 1_565
Ho2_2 Ho2_4 3.557162 1_455
Ho2_3 Mg0_3 3.433863 1_555
Ho2_3 Mg0_2 3.433863 1_556
Ho2_3 Ho4_7 3.465514 1_455
Ho2_3 Ho4_6 3.465514 1_456
Ho2_3 Ho4_0 3.465514 1_566
Ho2_3 Ho4_1 3.465514 1_565
Ho2_3 Ho2_5 3.557162 1_565
Ho2_3 Ho2_5 3.557162 1_455
Ho2_4 Mg0_5 3.433863 1_555
Ho2_4 Mg0_4 3.433863 1_555
Ho2_4 Ho4_0 3.465514 1_555
Ho2_4 Ho4_1 3.465514 1_555
Ho2_4 Ho4_6 3.465514 1_555
Ho2_4 Ho4_7 3.465514 1_555
Ho2_5 Mg0_5 3.433863 1_555
Ho2_5 Mg0_4 3.433863 1_556
Ho2_5 Ho4_1 3.465514 1_555
Ho2_5 Ho4_0 3.465514 1_556
Ho2_5 Ho4_6 3.465514 1_556
Ho2_5 Ho4_7 3.465514 1_555
Ho2_6 Mg0_6 3.433863 1_555
Ho2_6 Mg0_7 3.433863 1_555
Ho2_6 Ho4_3 3.465514 1_555
Ho2_6 Ho4_2 3.465514 1_555
Ho2_6 Ho4_5 3.465514 1_565
Ho2_6 Ho4_4 3.465514 1_565
Ho2_7 Mg0_7 3.433863 1_555
Ho2_7 Mg0_6 3.433863 1_556
Ho2_7 Ho4_3 3.465514 1_555
Ho2_7 Ho4_2 3.465514 1_556
Ho2_7 Ho4_5 3.465514 1_565
Ho2_7 Ho4_4 3.465514 1_566
Ho3_0 Ho4_2 3.533864 1_555
Ho3_0 Ho4_4 3.533864 1_455
Ho3_0 Mg0_4 3.556633 1_555
Ho3_0 Mg0_2 3.556633 1_545
Ho3_0 Ho3_6 3.557162 1_555
Ho3_0 Ho3_6 3.557162 1_445
Ho3_1 Ho4_3 3.533864 1_555
Ho3_1 Ho4_5 3.533864 1_455
Ho3_1 Mg0_5 3.556633 1_555
Ho3_1 Mg0_3 3.556633 1_545
Ho3_1 Ho3_7 3.557162 1_555
Ho3_1 Ho3_7 3.557162 1_445
Ho3_2 Ho4_0 3.533864 1_565
Ho3_2 Ho4_6 3.533864 1_455
Ho3_2 Mg0_0 3.556633 1_555
Ho3_2 Mg0_6 3.556633 1_555
Ho3_2 Ho3_4 3.557162 1_565
Ho3_2 Ho3_4 3.557162 1_455
Ho3_3 Ho4_1 3.533864 1_565
Ho3_3 Ho4_7 3.533864 1_455
Ho3_3 Mg0_1 3.556633 1_555
Ho3_3 Mg0_7 3.556633 1_555
Ho3_3 Ho3_5 3.557162 1_565
Ho3_3 Ho3_5 3.557162 1_455
Ho3_4 Ho4_6 3.533864 1_555
Ho3_4 Ho4_0 3.533864 1_555
Ho3_4 Mg0_0 3.556633 1_655
Ho3_4 Mg0_6 3.556633 1_545
Ho3_5 Ho4_7 3.533864 1_555
Ho3_5 Ho4_1 3.533864 1_555
Ho3_5 Mg0_1 3.556633 1_655
Ho3_5 Mg0_7 3.556633 1_545
Ho3_6 Ho4_2 3.533864 1_555
Ho3_6 Ho4_4 3.533864 1_565
Ho3_6 Mg0_4 3.556633 1_555
Ho3_6 Mg0_2 3.556633 1_655
Ho3_7 Ho4_3 3.533864 1_555
Ho3_7 Ho4_5 3.533864 1_565
Ho3_7 Mg0_5 3.556633 1_555
Ho3_7 Mg0_3 3.556633 1_655
Ho4_0 Mg0_2 3.447734 1_545
Ho4_0 Mg0_4 3.447734 1_555
Ho4_0 Ho4_6 3.557162 1_555
Ho4_0 Ho4_6 3.557162 1_445
Ho4_1 Mg0_3 3.447734 1_545
Ho4_1 Mg0_5 3.447734 1_555
Ho4_1 Ho4_7 3.557162 1_555
Ho4_1 Ho4_7 3.557162 1_445
Ho4_2 Mg0_6 3.447734 1_555
Ho4_2 Mg0_0 3.447734 1_555
Ho4_2 Ho4_4 3.557162 1_565
Ho4_2 Ho4_4 3.557162 1_455
Ho4_3 Mg0_7 3.447734 1_555
Ho4_3 Mg0_1 3.447734 1_555
Ho4_3 Ho4_5 3.557162 1_565
Ho4_3 Ho4_5 3.557162 1_455
Ho4_4 Mg0_6 3.447734 1_545
Ho4_4 Mg0_0 3.447734 1_655
Ho4_5 Mg0_1 3.447734 1_655
Ho4_5 Mg0_7 3.447734 1_545
Ho4_6 Mg0_2 3.447734 1_655
Ho4_6 Mg0_4 3.447734 1_555
Ho4_7 Mg0_3 3.447734 1_655
Ho4_7 Mg0_5 3.447734 1_555
