# generated using pymatgen
data_CaMgB2O5
_symmetry_space_group_name_H-M   'P 1'
_cell_length_a   5.53248321
_cell_length_b   11.19832759
_cell_length_c   36.53479257
_cell_angle_alpha   90.00000000
_cell_angle_beta   90.00000000
_cell_angle_gamma   90.00000000
_symmetry_Int_Tables_number   1
_chemical_formula_structural   CaMgB2O5
_chemical_formula_sum   'Ca24 Mg24 B48 O120'
_cell_volume   2263.49697541
_cell_formula_units_Z   24
loop_
 _symmetry_equiv_pos_site_id
 _symmetry_equiv_pos_as_xyz
  1  'x, y, z'
loop_
 _atom_site_type_symbol
 _atom_site_label
 _atom_site_symmetry_multiplicity
 _atom_site_fract_x
 _atom_site_fract_y
 _atom_site_fract_z
 _atom_site_occupancy
  Ca  Ca0  1  0.61497482  0.12699601  0.47036798  1
  Ca  Ca1  1  0.38502518  0.37300399  0.97036798  1
  Ca  Ca2  1  0.88502518  0.62699601  0.52963202  1
  Ca  Ca3  1  0.11497482  0.87300399  0.02963202  1
  Ca  Ca4  1  0.38502518  0.87300399  0.52963202  1
  Ca  Ca5  1  0.61497482  0.62699601  0.02963202  1
  Ca  Ca6  1  0.11497482  0.37300399  0.47036798  1
  Ca  Ca7  1  0.88502518  0.12699601  0.97036798  1
  Ca  Ca8  1  0.18533059  0.88186014  0.36407739  1
  Ca  Ca9  1  0.81466941  0.61813986  0.86407739  1
  Ca  Ca10  1  0.31466941  0.38186014  0.63592261  1
  Ca  Ca11  1  0.68533059  0.11813986  0.13592261  1
  Ca  Ca12  1  0.81466941  0.11813986  0.63592261  1
  Ca  Ca13  1  0.18533059  0.38186014  0.13592261  1
  Ca  Ca14  1  0.68533059  0.61813986  0.36407739  1
  Ca  Ca15  1  0.31466941  0.88186014  0.86407739  1
  Ca  Ca16  1  0.37187126  0.11937885  0.30249327  1
  Ca  Ca17  1  0.62812874  0.38062115  0.80249327  1
  Ca  Ca18  1  0.12812874  0.61937885  0.69750673  1
  Ca  Ca19  1  0.87187126  0.88062115  0.19750673  1
  Ca  Ca20  1  0.62812874  0.88062115  0.69750673  1
  Ca  Ca21  1  0.37187126  0.61937885  0.19750673  1
  Ca  Ca22  1  0.87187126  0.38062115  0.30249327  1
  Ca  Ca23  1  0.12812874  0.11937885  0.80249327  1
  Mg  Mg0  1  0.63941743  0.87186485  0.42079879  1
  Mg  Mg1  1  0.36058257  0.62813515  0.92079879  1
  Mg  Mg2  1  0.86058257  0.37186485  0.57920121  1
  Mg  Mg3  1  0.13941743  0.12813515  0.07920121  1
  Mg  Mg4  1  0.36058257  0.12813515  0.57920121  1
  Mg  Mg5  1  0.63941743  0.37186485  0.07920121  1
  Mg  Mg6  1  0.13941743  0.62813515  0.42079879  1
  Mg  Mg7  1  0.86058257  0.87186485  0.92079879  1
  Mg  Mg8  1  0.13525296  0.12821720  0.41209429  1
  Mg  Mg9  1  0.86474704  0.37178280  0.91209429  1
  Mg  Mg10  1  0.36474704  0.62821720  0.58790571  1
  Mg  Mg11  1  0.63525296  0.87178280  0.08790571  1
  Mg  Mg12  1  0.86474704  0.87178280  0.58790571  1
  Mg  Mg13  1  0.13525296  0.62821720  0.08790571  1
  Mg  Mg14  1  0.63525296  0.37178280  0.41209429  1
  Mg  Mg15  1  0.36474704  0.12821720  0.91209429  1
  Mg  Mg16  1  0.40667309  0.86910126  0.25435761  1
  Mg  Mg17  1  0.59332691  0.63089874  0.75435761  1
  Mg  Mg18  1  0.09332691  0.36910126  0.74564239  1
  Mg  Mg19  1  0.90667309  0.13089874  0.24564239  1
  Mg  Mg20  1  0.59332691  0.13089874  0.74564239  1
  Mg  Mg21  1  0.40667309  0.36910126  0.24564239  1
  Mg  Mg22  1  0.90667309  0.63089874  0.25435761  1
  Mg  Mg23  1  0.09332691  0.86910126  0.75435761  1
  B  B0  1  0.12256077  0.87567685  0.44175930  1
  B  B1  1  0.87743923  0.62432315  0.94175930  1
  B  B2  1  0.37743923  0.37567685  0.55824070  1
  B  B3  1  0.62256077  0.12432315  0.05824070  1
  B  B4  1  0.87743923  0.12432315  0.55824070  1
  B  B5  1  0.12256077  0.37567685  0.05824070  1
  B  B6  1  0.62256077  0.62432315  0.44175930  1
  B  B7  1  0.37743923  0.87567685  0.94175930  1
  B  B8  1  0.64198433  0.11576666  0.39154207  1
  B  B9  1  0.35801567  0.38423334  0.89154207  1
  B  B10  1  0.85801567  0.61576666  0.60845793  1
  B  B11  1  0.14198433  0.88423334  0.10845793  1
  B  B12  1  0.35801567  0.88423334  0.60845793  1
  B  B13  1  0.64198433  0.61576666  0.10845793  1
  B  B14  1  0.14198433  0.38423334  0.39154207  1
  B  B15  1  0.85801567  0.11576666  0.89154207  1
  B  B16  1  0.90593795  0.88346082  0.27628536  1
  B  B17  1  0.09406205  0.61653918  0.77628536  1
  B  B18  1  0.59406205  0.38346082  0.72371464  1
  B  B19  1  0.40593795  0.11653918  0.22371464  1
  B  B20  1  0.09406205  0.11653918  0.72371464  1
  B  B21  1  0.90593795  0.38346082  0.22371464  1
  B  B22  1  0.40593795  0.61653918  0.27628536  1
  B  B23  1  0.59406205  0.88346082  0.77628536  1
  B  B24  1  0.84848230  0.88040692  0.49622629  1
  B  B25  1  0.15151770  0.61959308  0.99622629  1
  B  B26  1  0.65151770  0.38040692  0.50377371  1
  B  B27  1  0.34848230  0.11959308  0.00377371  1
  B  B28  1  0.15151770  0.11959308  0.50377371  1
  B  B29  1  0.84848230  0.38040692  0.00377371  1
  B  B30  1  0.34848230  0.61959308  0.49622629  1
  B  B31  1  0.65151770  0.88040692  0.99622629  1
  B  B32  1  0.90413964  0.12315742  0.33658102  1
  B  B33  1  0.09586036  0.37684258  0.83658102  1
  B  B34  1  0.59586036  0.62315742  0.66341898  1
  B  B35  1  0.40413964  0.87684258  0.16341898  1
  B  B36  1  0.09586036  0.87684258  0.66341898  1
  B  B37  1  0.90413964  0.62315742  0.16341898  1
  B  B38  1  0.40413964  0.37684258  0.33658102  1
  B  B39  1  0.59586036  0.12315742  0.83658102  1
  B  B40  1  0.64287176  0.87705643  0.33039958  1
  B  B41  1  0.35712824  0.62294357  0.83039958  1
  B  B42  1  0.85712824  0.37705643  0.66960042  1
  B  B43  1  0.14287176  0.12294357  0.16960042  1
  B  B44  1  0.35712824  0.12294357  0.66960042  1
  B  B45  1  0.64287176  0.37705643  0.16960042  1
  B  B46  1  0.14287176  0.62294357  0.33039958  1
  B  B47  1  0.85712824  0.87705643  0.83039958  1
  O  O0  1  0.29363491  0.80183760  0.42699016  1
  O  O1  1  0.70636509  0.69816240  0.92699016  1
  O  O2  1  0.20636509  0.30183760  0.57300984  1
  O  O3  1  0.79363491  0.19816240  0.07300984  1
  O  O4  1  0.70636509  0.19816240  0.57300984  1
  O  O5  1  0.29363491  0.30183760  0.07300984  1
  O  O6  1  0.79363491  0.69816240  0.42699016  1
  O  O7  1  0.20636509  0.80183760  0.92699016  1
  O  O8  1  0.78162037  0.19540953  0.41072625  1
  O  O9  1  0.21837963  0.30459047  0.91072625  1
  O  O10  1  0.71837963  0.69540953  0.58927375  1
  O  O11  1  0.28162037  0.80459047  0.08927375  1
  O  O12  1  0.21837963  0.80459047  0.58927375  1
  O  O13  1  0.78162037  0.69540953  0.08927375  1
  O  O14  1  0.28162037  0.30459047  0.41072625  1
  O  O15  1  0.71837963  0.19540953  0.91072625  1
  O  O16  1  0.76210486  0.80406300  0.25770571  1
  O  O17  1  0.23789514  0.69593700  0.75770571  1
  O  O18  1  0.73789514  0.30406300  0.74229429  1
  O  O19  1  0.26210486  0.19593700  0.24229429  1
  O  O20  1  0.23789514  0.19593700  0.74229429  1
  O  O21  1  0.76210486  0.30406300  0.24229429  1
  O  O22  1  0.26210486  0.69593700  0.25770571  1
  O  O23  1  0.73789514  0.80406300  0.75770571  1
  O  O24  1  0.98811059  0.95013796  0.41985470  1
  O  O25  1  0.01188941  0.54986204  0.91985470  1
  O  O26  1  0.51188941  0.45013796  0.58014530  1
  O  O27  1  0.48811059  0.04986204  0.08014530  1
  O  O28  1  0.01188941  0.04986204  0.58014530  1
  O  O29  1  0.98811059  0.45013796  0.08014530  1
  O  O30  1  0.48811059  0.54986204  0.41985470  1
  O  O31  1  0.51188941  0.95013796  0.91985470  1
  O  O32  1  0.47698288  0.04416627  0.40918273  1
  O  O33  1  0.52301712  0.45583373  0.90918273  1
  O  O34  1  0.02301712  0.54416627  0.59081727  1
  O  O35  1  0.97698288  0.95583373  0.09081727  1
  O  O36  1  0.52301712  0.95583373  0.59081727  1
  O  O37  1  0.47698288  0.54416627  0.09081727  1
  O  O38  1  0.97698288  0.45583373  0.40918273  1
  O  O39  1  0.02301712  0.04416627  0.90918273  1
  O  O40  1  0.06806816  0.95481764  0.25801323  1
  O  O41  1  0.93193184  0.54518236  0.75801323  1
  O  O42  1  0.43193184  0.45481764  0.74198677  1
  O  O43  1  0.56806816  0.04518236  0.24198677  1
  O  O44  1  0.93193184  0.04518236  0.74198677  1
  O  O45  1  0.06806816  0.45481764  0.24198677  1
  O  O46  1  0.56806816  0.54518236  0.25801323  1
  O  O47  1  0.43193184  0.95481764  0.75801323  1
  O  O48  1  0.08375586  0.87250369  0.48030057  1
  O  O49  1  0.91624414  0.62749631  0.98030057  1
  O  O50  1  0.41624414  0.37250369  0.51969943  1
  O  O51  1  0.58375586  0.12749631  0.01969943  1
  O  O52  1  0.91624414  0.12749631  0.51969943  1
  O  O53  1  0.08375586  0.37250369  0.01969943  1
  O  O54  1  0.58375586  0.62749631  0.48030057  1
  O  O55  1  0.41624414  0.87250369  0.98030057  1
  O  O56  1  0.67172363  0.10754191  0.35323644  1
  O  O57  1  0.32827637  0.39245809  0.85323644  1
  O  O58  1  0.82827637  0.60754191  0.64676356  1
  O  O59  1  0.17172363  0.89245809  0.14676356  1
  O  O60  1  0.32827637  0.89245809  0.64676356  1
  O  O61  1  0.67172363  0.60754191  0.14676356  1
  O  O62  1  0.17172363  0.39245809  0.35323644  1
  O  O63  1  0.82827637  0.10754191  0.85323644  1
  O  O64  1  0.87886330  0.89089736  0.31475331  1
  O  O65  1  0.12113670  0.60910264  0.81475331  1
  O  O66  1  0.62113670  0.39089736  0.68524669  1
  O  O67  1  0.37886330  0.10910264  0.18524669  1
  O  O68  1  0.12113670  0.10910264  0.68524669  1
  O  O69  1  0.87886330  0.39089736  0.18524669  1
  O  O70  1  0.37886330  0.60910264  0.31475331  1
  O  O71  1  0.62113670  0.89089736  0.81475331  1
  O  O72  1  0.65257227  0.91755439  0.47679769  1
  O  O73  1  0.34742773  0.58244561  0.97679769  1
  O  O74  1  0.84742773  0.41755439  0.52320231  1
  O  O75  1  0.15257227  0.08244561  0.02320231  1
  O  O76  1  0.34742773  0.08244561  0.52320231  1
  O  O77  1  0.65257227  0.41755439  0.02320231  1
  O  O78  1  0.15257227  0.58244561  0.47679769  1
  O  O79  1  0.84742773  0.91755439  0.97679769  1
  O  O80  1  0.11018179  0.09578321  0.35529606  1
  O  O81  1  0.88981821  0.40421679  0.85529606  1
  O  O82  1  0.38981821  0.59578321  0.64470394  1
  O  O83  1  0.61018179  0.90421679  0.14470394  1
  O  O84  1  0.88981821  0.90421679  0.64470394  1
  O  O85  1  0.11018179  0.59578321  0.14470394  1
  O  O86  1  0.61018179  0.40421679  0.35529606  1
  O  O87  1  0.38981821  0.09578321  0.85529606  1
  O  O88  1  0.44216613  0.90916219  0.31085304  1
  O  O89  1  0.55783387  0.59083781  0.81085304  1
  O  O90  1  0.05783387  0.40916219  0.68914696  1
  O  O91  1  0.94216613  0.09083781  0.18914696  1
  O  O92  1  0.55783387  0.09083781  0.68914696  1
  O  O93  1  0.44216613  0.40916219  0.18914696  1
  O  O94  1  0.94216613  0.59083781  0.31085304  1
  O  O95  1  0.05783387  0.90916219  0.81085304  1
  O  O96  1  0.16884258  0.15847223  0.46837134  1
  O  O97  1  0.83115742  0.34152777  0.96837134  1
  O  O98  1  0.33115742  0.65847223  0.53162866  1
  O  O99  1  0.66884258  0.84152777  0.03162866  1
  O  O100  1  0.83115742  0.84152777  0.53162866  1
  O  O101  1  0.16884258  0.65847223  0.03162866  1
  O  O102  1  0.66884258  0.34152777  0.46837134  1
  O  O103  1  0.33115742  0.15847223  0.96837134  1
  O  O104  1  0.62984271  0.83078408  0.36489445  1
  O  O105  1  0.37015729  0.66921592  0.86489445  1
  O  O106  1  0.87015729  0.33078408  0.63510555  1
  O  O107  1  0.12984271  0.16921592  0.13510555  1
  O  O108  1  0.37015729  0.16921592  0.63510555  1
  O  O109  1  0.62984271  0.33078408  0.13510555  1
  O  O110  1  0.12984271  0.66921592  0.36489445  1
  O  O111  1  0.87015729  0.83078408  0.86489445  1
  O  O112  1  0.90421429  0.16694563  0.30171038  1
  O  O113  1  0.09578571  0.33305437  0.80171038  1
  O  O114  1  0.59578571  0.66694563  0.69828962  1
  O  O115  1  0.40421429  0.83305437  0.19828962  1
  O  O116  1  0.09578571  0.83305437  0.69828962  1
  O  O117  1  0.90421429  0.66694563  0.19828962  1
  O  O118  1  0.40421429  0.33305437  0.30171038  1
  O  O119  1  0.59578571  0.16694563  0.80171038  1
loop_
_geom_bond_atom_site_label_1
_geom_bond_atom_site_label_2
_geom_bond_distance
_geom_bond_site_symmetry_2
Ca0 O72 2.366290 1_545
Ca0 O102 2.421910 1_555
Ca0 O52 2.454889 1_555
Ca0 O76 2.483124 1_555
Ca0 O8 2.486963 1_555
Ca0 O96 2.494328 1_555
Ca0 O32 2.537748 1_555
Ca1 O73 2.366290 1_555
Ca1 O103 2.421910 1_555
Ca1 O53 2.454889 1_556
Ca1 O77 2.483124 1_556
Ca1 O9 2.486963 1_555
Ca1 O97 2.494328 1_555
Ca1 O33 2.537748 1_555
Ca2 O74 2.366290 1_555
Ca2 O100 2.421910 1_555
Ca2 O54 2.454889 1_555
Ca2 O78 2.483124 1_655
Ca2 O10 2.486963 1_555
Ca2 O98 2.494328 1_655
Ca2 O34 2.537748 1_655
Ca3 O75 2.366290 1_565
Ca3 O101 2.421910 1_555
Ca3 O55 2.454889 1_554
Ca3 O79 2.483124 1_454
Ca3 O11 2.486963 1_555
Ca3 O99 2.494328 1_455
Ca3 O35 2.537748 1_455
Ca4 O76 2.366290 1_565
Ca4 O98 2.421910 1_555
Ca4 O48 2.454889 1_555
Ca4 O72 2.483124 1_555
Ca4 O12 2.486963 1_555
Ca4 O100 2.494328 1_555
Ca4 O36 2.537748 1_555
Ca5 O77 2.366290 1_555
Ca5 O99 2.421910 1_555
Ca5 O49 2.454889 1_554
Ca5 O73 2.483124 1_554
Ca5 O13 2.486963 1_555
Ca5 O101 2.494328 1_555
Ca5 O37 2.537748 1_555
Ca6 O78 2.366290 1_555
Ca6 O96 2.421910 1_555
Ca6 O50 2.454889 1_555
Ca6 O74 2.483124 1_455
Ca6 O14 2.486963 1_555
Ca6 O102 2.494328 1_455
Ca6 O38 2.537748 1_455
Ca7 O79 2.366290 1_545
Ca7 O97 2.421910 1_555
Ca7 O51 2.454889 1_556
Ca7 O75 2.483124 1_656
Ca7 O15 2.486963 1_555
Ca7 O103 2.494328 1_655
Ca7 O39 2.537748 1_655
Ca8 O110 2.401152 1_555
Ca8 O88 2.427711 1_555
Ca8 O24 2.434712 1_455
Ca8 O80 2.452466 1_565
Ca8 O64 2.476371 1_455
Ca8 O104 2.525070 1_555
Ca8 O0 2.538737 1_555
Ca9 O111 2.401152 1_555
Ca9 O89 2.427711 1_555
Ca9 O25 2.434712 1_655
Ca9 O81 2.452466 1_555
Ca9 O65 2.476371 1_655
Ca9 O105 2.525070 1_555
Ca9 O1 2.538737 1_555
Ca10 O108 2.401152 1_555
Ca10 O90 2.427711 1_555
Ca10 O26 2.434712 1_555
Ca10 O82 2.452466 1_555
Ca10 O66 2.476371 1_555
Ca10 O106 2.525070 1_455
Ca10 O2 2.538737 1_555
Ca11 O109 2.401152 1_555
Ca11 O91 2.427711 1_555
Ca11 O27 2.434712 1_555
Ca11 O83 2.452466 1_545
Ca11 O67 2.476371 1_555
Ca11 O107 2.525070 1_655
Ca11 O3 2.538737 1_555
Ca12 O106 2.401152 1_555
Ca12 O92 2.427711 1_555
Ca12 O28 2.434712 1_655
Ca12 O84 2.452466 1_545
Ca12 O68 2.476371 1_655
Ca12 O108 2.525070 1_555
Ca12 O4 2.538737 1_555
Ca13 O107 2.401152 1_555
Ca13 O93 2.427711 1_555
Ca13 O29 2.434712 1_455
Ca13 O85 2.452466 1_555
Ca13 O69 2.476371 1_455
Ca13 O109 2.525070 1_555
Ca13 O5 2.538737 1_555
Ca14 O104 2.401152 1_555
Ca14 O94 2.427711 1_555
Ca14 O30 2.434712 1_555
Ca14 O86 2.452466 1_555
Ca14 O70 2.476371 1_555
Ca14 O110 2.525070 1_655
Ca14 O6 2.538737 1_555
Ca15 O105 2.401152 1_555
Ca15 O95 2.427711 1_555
Ca15 O31 2.434712 1_555
Ca15 O87 2.452466 1_565
Ca15 O71 2.476371 1_555
Ca15 O111 2.525070 1_455
Ca15 O7 2.538737 1_555
Ca16 O118 2.399660 1_555
Ca16 O88 2.405452 1_545
Ca16 O80 2.426417 1_555
Ca16 O19 2.437410 1_555
Ca16 O56 2.491290 1_555
Ca16 O43 2.599094 1_555
Ca16 O112 2.641722 1_455
Ca16 O40 2.976884 1_545
Ca16 O112 2.993097 1_555
Ca17 O119 2.399660 1_555
Ca17 O89 2.405452 1_555
Ca17 O81 2.426417 1_555
Ca17 O18 2.437410 1_555
Ca17 O57 2.491290 1_555
Ca17 O42 2.599094 1_555
Ca17 O113 2.641722 1_655
Ca17 O41 2.976884 1_555
Ca17 O113 2.993097 1_555
Ca18 O116 2.399660 1_555
Ca18 O90 2.405452 1_555
Ca18 O82 2.426417 1_555
Ca18 O17 2.437410 1_555
Ca18 O58 2.491290 1_455
Ca18 O41 2.599094 1_455
Ca18 O114 2.641722 1_555
Ca18 O42 2.976884 1_555
Ca18 O114 2.993097 1_455
Ca19 O117 2.399660 1_555
Ca19 O91 2.405452 1_565
Ca19 O83 2.426417 1_555
Ca19 O16 2.437410 1_555
Ca19 O59 2.491290 1_655
Ca19 O40 2.599094 1_655
Ca19 O115 2.641722 1_555
Ca19 O43 2.976884 1_565
Ca19 O115 2.993097 1_655
Ca20 O114 2.399660 1_555
Ca20 O92 2.405452 1_565
Ca20 O84 2.426417 1_555
Ca20 O23 2.437410 1_555
Ca20 O60 2.491290 1_555
Ca20 O47 2.599094 1_555
Ca20 O116 2.641722 1_655
Ca20 O44 2.976884 1_565
Ca20 O116 2.993097 1_555
Ca21 O115 2.399660 1_555
Ca21 O93 2.405452 1_555
Ca21 O85 2.426417 1_555
Ca21 O22 2.437410 1_555
Ca21 O61 2.491290 1_555
Ca21 O46 2.599094 1_555
Ca21 O117 2.641722 1_455
Ca21 O45 2.976884 1_555
Ca21 O117 2.993097 1_555
Ca22 O112 2.399660 1_555
Ca22 O94 2.405452 1_555
Ca22 O86 2.426417 1_555
Ca22 O21 2.437410 1_555
Ca22 O62 2.491290 1_655
Ca22 O45 2.599094 1_655
Ca22 O118 2.641722 1_555
Ca22 O46 2.976884 1_555
Ca22 O118 2.993097 1_655
Ca23 O113 2.399660 1_555
Ca23 O95 2.405452 1_545
Ca23 O87 2.426417 1_555
Ca23 O20 2.437410 1_555
Ca23 O63 2.491290 1_455
Ca23 O44 2.599094 1_455
Ca23 O119 2.641722 1_555
Ca23 O47 2.976884 1_545
Ca23 O119 2.993097 1_455
Mg0 O0 2.079862 1_555
Mg0 O104 2.094291 1_555
Mg0 O72 2.110170 1_555
Mg0 O24 2.119214 1_555
Mg0 O6 2.136080 1_555
Mg0 O32 2.170399 1_565
Mg1 O1 2.079862 1_555
Mg1 O105 2.094291 1_555
Mg1 O73 2.110170 1_555
Mg1 O25 2.119214 1_555
Mg1 O7 2.136080 1_555
Mg1 O33 2.170399 1_555
Mg2 O2 2.079862 1_655
Mg2 O106 2.094291 1_555
Mg2 O74 2.110170 1_555
Mg2 O26 2.119214 1_555
Mg2 O4 2.136080 1_555
Mg2 O34 2.170399 1_655
Mg3 O3 2.079862 1_455
Mg3 O107 2.094291 1_555
Mg3 O75 2.110170 1_555
Mg3 O27 2.119214 1_555
Mg3 O5 2.136080 1_555
Mg3 O35 2.170399 1_445
Mg4 O4 2.079862 1_555
Mg4 O108 2.094291 1_555
Mg4 O76 2.110170 1_555
Mg4 O28 2.119214 1_555
Mg4 O2 2.136080 1_555
Mg4 O36 2.170399 1_545
Mg5 O5 2.079862 1_555
Mg5 O109 2.094291 1_555
Mg5 O77 2.110170 1_555
Mg5 O29 2.119214 1_555
Mg5 O3 2.136080 1_555
Mg5 O37 2.170399 1_555
Mg6 O6 2.079862 1_455
Mg6 O110 2.094291 1_555
Mg6 O78 2.110170 1_555
Mg6 O30 2.119214 1_555
Mg6 O0 2.136080 1_555
Mg6 O38 2.170399 1_455
Mg7 O7 2.079862 1_655
Mg7 O111 2.094291 1_555
Mg7 O79 2.110170 1_555
Mg7 O31 2.119214 1_555
Mg7 O1 2.136080 1_555
Mg7 O39 2.170399 1_665
Mg8 O96 2.092068 1_555
Mg8 O8 2.096766 1_455
Mg8 O80 2.111219 1_555
Mg8 O32 2.114629 1_555
Mg8 O14 2.135228 1_555
Mg8 O24 2.172528 1_445
Mg9 O97 2.092068 1_555
Mg9 O9 2.096766 1_655
Mg9 O81 2.111219 1_555
Mg9 O33 2.114629 1_555
Mg9 O15 2.135228 1_555
Mg9 O25 2.172528 1_655
Mg10 O98 2.092068 1_555
Mg10 O10 2.096766 1_555
Mg10 O82 2.111219 1_555
Mg10 O34 2.114629 1_555
Mg10 O12 2.135228 1_555
Mg10 O26 2.172528 1_555
Mg11 O99 2.092068 1_555
Mg11 O11 2.096766 1_555
Mg11 O83 2.111219 1_555
Mg11 O35 2.114629 1_555
Mg11 O13 2.135228 1_555
Mg11 O27 2.172528 1_565
Mg12 O100 2.092068 1_555
Mg12 O12 2.096766 1_655
Mg12 O84 2.111219 1_555
Mg12 O36 2.114629 1_555
Mg12 O10 2.135228 1_555
Mg12 O28 2.172528 1_665
Mg13 O101 2.092068 1_555
Mg13 O13 2.096766 1_455
Mg13 O85 2.111219 1_555
Mg13 O37 2.114629 1_555
Mg13 O11 2.135228 1_555
Mg13 O29 2.172528 1_455
Mg14 O102 2.092068 1_555
Mg14 O14 2.096766 1_555
Mg14 O86 2.111219 1_555
Mg14 O38 2.114629 1_555
Mg14 O8 2.135228 1_555
Mg14 O30 2.172528 1_555
Mg15 O103 2.092068 1_555
Mg15 O15 2.096766 1_555
Mg15 O87 2.111219 1_555
Mg15 O39 2.114629 1_555
Mg15 O9 2.135228 1_555
Mg15 O31 2.172528 1_545
Mg16 O115 2.087871 1_555
Mg16 O16 2.100529 1_555
Mg16 O22 2.101185 1_555
Mg16 O40 2.109160 1_555
Mg16 O88 2.121347 1_555
Mg16 O43 2.211249 1_565
Mg17 O114 2.087871 1_555
Mg17 O17 2.100529 1_555
Mg17 O23 2.101185 1_555
Mg17 O41 2.109160 1_555
Mg17 O89 2.121347 1_555
Mg17 O42 2.211249 1_555
Mg18 O113 2.087871 1_555
Mg18 O18 2.100529 1_455
Mg18 O20 2.101185 1_555
Mg18 O42 2.109160 1_555
Mg18 O90 2.121347 1_555
Mg18 O41 2.211249 1_455
Mg19 O112 2.087871 1_555
Mg19 O19 2.100529 1_655
Mg19 O21 2.101185 1_555
Mg19 O43 2.109160 1_555
Mg19 O91 2.121347 1_555
Mg19 O40 2.211249 1_645
Mg20 O119 2.087871 1_555
Mg20 O20 2.100529 1_555
Mg20 O18 2.101185 1_555
Mg20 O44 2.109160 1_555
Mg20 O92 2.121347 1_555
Mg20 O47 2.211249 1_545
Mg21 O118 2.087871 1_555
Mg21 O21 2.100529 1_555
Mg21 O19 2.101185 1_555
Mg21 O45 2.109160 1_555
Mg21 O93 2.121347 1_555
Mg21 O46 2.211249 1_555
Mg22 O117 2.087871 1_555
Mg22 O22 2.100529 1_655
Mg22 O16 2.101185 1_555
Mg22 O46 2.109160 1_555
Mg22 O94 2.121347 1_555
Mg22 O45 2.211249 1_655
Mg23 O116 2.087871 1_555
Mg23 O23 2.100529 1_455
Mg23 O17 2.101185 1_555
Mg23 O47 2.109160 1_555
Mg23 O95 2.121347 1_555
Mg23 O44 2.211249 1_465
B0 O0 1.367726 1_555
B0 O24 1.374424 1_455
B0 O48 1.424813 1_555
B1 O1 1.367726 1_555
B1 O25 1.374424 1_655
B1 O49 1.424813 1_555
B2 O2 1.367726 1_555
B2 O26 1.374424 1_555
B2 O50 1.424813 1_555
B3 O3 1.367726 1_555
B3 O27 1.374424 1_555
B3 O51 1.424813 1_555
B4 O4 1.367726 1_555
B4 O28 1.374424 1_655
B4 O52 1.424813 1_555
B5 O5 1.367726 1_555
B5 O29 1.374424 1_455
B5 O53 1.424813 1_555
B6 O6 1.367726 1_555
B6 O30 1.374424 1_555
B6 O54 1.424813 1_555
B7 O7 1.367726 1_555
B7 O31 1.374424 1_555
B7 O55 1.424813 1_555
B8 O8 1.372400 1_555
B8 O32 1.375353 1_555
B8 O56 1.412134 1_555
B9 O9 1.372400 1_555
B9 O33 1.375353 1_555
B9 O57 1.412134 1_555
B10 O10 1.372400 1_555
B10 O34 1.375353 1_655
B10 O58 1.412134 1_555
B11 O11 1.372400 1_555
B11 O35 1.375353 1_455
B11 O59 1.412134 1_555
B12 O12 1.372400 1_555
B12 O36 1.375353 1_555
B12 O60 1.412134 1_555
B13 O13 1.372400 1_555
B13 O37 1.375353 1_555
B13 O61 1.412134 1_555
B14 O14 1.372400 1_555
B14 O38 1.375353 1_455
B14 O62 1.412134 1_555
B15 O15 1.372400 1_555
B15 O39 1.375353 1_655
B15 O63 1.412134 1_555
B16 O16 1.372785 1_555
B16 O40 1.374318 1_655
B16 O64 1.415830 1_555
B17 O17 1.372785 1_555
B17 O41 1.374318 1_455
B17 O65 1.415830 1_555
B18 O18 1.372785 1_555
B18 O42 1.374318 1_555
B18 O66 1.415830 1_555
B19 O19 1.372785 1_555
B19 O43 1.374318 1_555
B19 O67 1.415830 1_555
B20 O20 1.372785 1_555
B20 O44 1.374318 1_455
B20 O68 1.415830 1_555
B21 O21 1.372785 1_555
B21 O45 1.374318 1_655
B21 O69 1.415830 1_555
B22 O22 1.372785 1_555
B22 O46 1.374318 1_555
B22 O70 1.415830 1_555
B23 O23 1.372785 1_555
B23 O47 1.374318 1_555
B23 O71 1.415830 1_555
B24 O72 1.360758 1_555
B24 O100 1.368092 1_555
B24 O48 1.428516 1_655
B25 O73 1.360758 1_555
B25 O101 1.368092 1_556
B25 O49 1.428516 1_455
B26 O74 1.360758 1_555
B26 O102 1.368092 1_555
B26 O50 1.428516 1_555
B27 O75 1.360758 1_555
B27 O103 1.368092 1_554
B27 O51 1.428516 1_555
B28 O76 1.360758 1_555
B28 O96 1.368092 1_555
B28 O52 1.428516 1_455
B29 O77 1.360758 1_555
B29 O97 1.368092 1_554
B29 O53 1.428516 1_655
B30 O78 1.360758 1_555
B30 O98 1.368092 1_555
B30 O54 1.428516 1_555
B31 O79 1.360758 1_555
B31 O99 1.368092 1_556
B31 O55 1.428516 1_555
B32 O80 1.364153 1_655
B32 O112 1.365102 1_555
B32 O56 1.433259 1_555
B33 O81 1.364153 1_455
B33 O113 1.365102 1_555
B33 O57 1.433259 1_555
B34 O82 1.364153 1_555
B34 O114 1.365102 1_555
B34 O58 1.433259 1_555
B35 O83 1.364153 1_555
B35 O115 1.365102 1_555
B35 O59 1.433259 1_555
B36 O84 1.364153 1_455
B36 O116 1.365102 1_555
B36 O60 1.433259 1_555
B37 O85 1.364153 1_655
B37 O117 1.365102 1_555
B37 O61 1.433259 1_555
B38 O86 1.364153 1_555
B38 O118 1.365102 1_555
B38 O62 1.433259 1_555
B39 O87 1.364153 1_555
B39 O119 1.365102 1_555
B39 O63 1.433259 1_555
B40 O104 1.364537 1_555
B40 O88 1.368295 1_555
B40 O64 1.433677 1_555
B41 O105 1.364537 1_555
B41 O89 1.368295 1_555
B41 O65 1.433677 1_555
B42 O106 1.364537 1_555
B42 O90 1.368295 1_655
B42 O66 1.433677 1_555
B43 O107 1.364537 1_555
B43 O91 1.368295 1_455
B43 O67 1.433677 1_555
B44 O108 1.364537 1_555
B44 O92 1.368295 1_555
B44 O68 1.433677 1_555
B45 O109 1.364537 1_555
B45 O93 1.368295 1_555
B45 O69 1.433677 1_555
B46 O110 1.364537 1_555
B46 O94 1.368295 1_455
B46 O70 1.433677 1_555
B47 O111 1.364537 1_555
B47 O95 1.368295 1_655
B47 O71 1.433677 1_555
