# generated using pymatgen
data_BaMnN2
_symmetry_space_group_name_H-M   'P 1'
_cell_length_a   6.38964394
_cell_length_b   6.38964394
_cell_length_c   7.74842722
_cell_angle_alpha   90.00000000
_cell_angle_beta   90.00000000
_cell_angle_gamma   125.98336414
_symmetry_Int_Tables_number   1
_chemical_formula_structural   BaMnN2
_chemical_formula_sum   'Ba4 Mn4 N8'
_cell_volume   255.98593642
_cell_formula_units_Z   4
loop_
 _symmetry_equiv_pos_site_id
 _symmetry_equiv_pos_as_xyz
  1  'x, y, z'
loop_
 _atom_site_type_symbol
 _atom_site_label
 _atom_site_symmetry_multiplicity
 _atom_site_fract_x
 _atom_site_fract_y
 _atom_site_fract_z
 _atom_site_occupancy
  Ba  Ba0  1  0.84235387  0.15764613  0.55958731  1
  Ba  Ba1  1  0.15764613  0.84235387  0.44041269  1
  Ba  Ba2  1  0.65764613  0.34235387  0.05958731  1
  Ba  Ba3  1  0.34235387  0.65764613  0.94041269  1
  Mn  Mn0  1  0.54958775  0.45041225  0.63452617  1
  Mn  Mn1  1  0.45041225  0.54958775  0.36547383  1
  Mn  Mn2  1  0.95041225  0.04958775  0.13452617  1
  Mn  Mn3  1  0.04958775  0.95041225  0.86547383  1
  N  N0  1  0.89013633  0.10986367  0.91513997  1
  N  N1  1  0.10986367  0.89013633  0.08486003  1
  N  N2  1  0.60986367  0.39013633  0.41513997  1
  N  N3  1  0.39013633  0.60986367  0.58486003  1
  N  N4  1  0.33632952  0.16367048  0.75000000  1
  N  N5  1  0.16367048  0.33632952  0.25000000  1
  N  N6  1  0.66367048  0.83632952  0.25000000  1
  N  N7  1  0.83632952  0.66367048  0.75000000  1
loop_
_geom_bond_atom_site_label_1
_geom_bond_atom_site_label_2
_geom_bond_distance
_geom_bond_site_symmetry_2
Ba0 N0 2.808176 1_555
Ba0 N2 2.873935 1_555
Ba0 N5 2.918654 1_655
Ba0 N6 2.918654 1_545
Ba0 N3 2.958711 1_545
Ba0 N3 2.958711 1_655
Ba1 N1 2.808176 1_555
Ba1 N3 2.873935 1_555
Ba1 N7 2.918654 1_455
Ba1 N4 2.918654 1_565
Ba1 N2 2.958711 1_455
Ba1 N2 2.958711 1_565
Ba2 N2 2.808176 1_555
Ba2 N0 2.873935 1_554
Ba2 N7 2.918654 1_554
Ba2 N4 2.918654 1_554
Ba2 N1 2.958711 1_545
Ba2 N1 2.958711 1_655
Ba3 N3 2.808176 1_555
Ba3 N1 2.873935 1_556
Ba3 N6 2.918654 1_556
Ba3 N5 2.918654 1_556
Ba3 N0 2.958711 1_565
Ba3 N0 2.958711 1_455
Mn0 N7 1.755127 1_555
Mn0 N4 1.755127 1_555
Mn0 N2 1.833202 1_555
Mn0 N3 1.855788 1_555
Mn1 N5 1.755127 1_555
Mn1 N6 1.755127 1_555
Mn1 N3 1.833202 1_555
Mn1 N2 1.855788 1_555
Mn2 N6 1.755127 1_545
Mn2 N5 1.755127 1_655
Mn2 N0 1.833202 1_554
Mn2 N1 1.855788 1_645
Mn3 N7 1.755127 1_455
Mn3 N4 1.755127 1_565
Mn3 N1 1.833202 1_556
Mn3 N0 1.855788 1_465
