# generated using pymatgen
data_Al(VS2)4
_symmetry_space_group_name_H-M   'P 1'
_cell_length_a   6.86779724
_cell_length_b   6.86779724
_cell_length_c   6.86779724
_cell_angle_alpha   60.00000000
_cell_angle_beta   60.00000000
_cell_angle_gamma   60.00000000
_symmetry_Int_Tables_number   1
_chemical_formula_structural   Al(VS2)4
_chemical_formula_sum   'Al1 V4 S8'
_cell_volume   229.05374495
_cell_formula_units_Z   1
loop_
 _symmetry_equiv_pos_site_id
 _symmetry_equiv_pos_as_xyz
  1  'x, y, z'
loop_
 _atom_site_type_symbol
 _atom_site_label
 _atom_site_symmetry_multiplicity
 _atom_site_fract_x
 _atom_site_fract_y
 _atom_site_fract_z
 _atom_site_occupancy
  Al  Al0  1  0.00000000  0.00000000  0.00000000  1
  V  V0  1  0.60562000  0.60562000  0.18313900  1
  V  V1  1  0.60562000  0.18313900  0.60562000  1
  V  V2  1  0.18313900  0.60562000  0.60562000  1
  V  V3  1  0.60562000  0.60562000  0.60562000  1
  S  S0  1  0.37068400  0.37068400  0.88794900  1
  S  S1  1  0.37068400  0.88794900  0.37068400  1
  S  S2  1  0.88794900  0.37068400  0.37068400  1
  S  S3  1  0.37068400  0.37068400  0.37068400  1
  S  S4  1  0.86460400  0.86460400  0.40618700  1
  S  S5  1  0.86460400  0.40618700  0.86460400  1
  S  S6  1  0.40618700  0.86460400  0.86460400  1
  S  S7  1  0.86460400  0.86460400  0.86460400  1
loop_
_geom_bond_atom_site_label_1
_geom_bond_atom_site_label_2
_geom_bond_distance
_geom_bond_site_symmetry_2
Al0 S4 2.277707 1_445
Al0 S5 2.277707 1_454
Al0 S6 2.277707 1_544
Al0 S7 2.277713 1_444
S0 V3 2.304921 1_555
S0 V1 2.304929 1_555
S0 V2 2.304929 1_555
S1 V3 2.304921 1_555
S1 V0 2.304929 1_555
S1 V2 2.304929 1_555
S2 V3 2.304921 1_555
S2 V0 2.304929 1_555
S2 V1 2.304929 1_555
S3 V0 2.304919 1_555
S3 V1 2.304919 1_555
S3 V2 2.304919 1_555
S4 V2 2.548422 1_655
S4 V1 2.548422 1_565
S4 V3 2.548422 1_555
S5 V0 2.548422 1_556
S5 V2 2.548422 1_655
S5 V3 2.548422 1_555
S6 V0 2.548422 1_556
S6 V1 2.548422 1_565
S6 V3 2.548422 1_555
S7 V2 2.548422 1_655
S7 V1 2.548422 1_565
S7 V0 2.548422 1_556
