# generated using pymatgen
data_Ce3Ir
_symmetry_space_group_name_H-M   'P 1'
_cell_length_a   6.16850300
_cell_length_b   7.08027000
_cell_length_c   9.80998900
_cell_angle_alpha   90.00000000
_cell_angle_beta   90.00000000
_cell_angle_gamma   90.00000000
_symmetry_Int_Tables_number   1
_chemical_formula_structural   Ce3Ir
_chemical_formula_sum   'Ce12 Ir4'
_cell_volume   428.44800026
_cell_formula_units_Z   4
loop_
 _symmetry_equiv_pos_site_id
 _symmetry_equiv_pos_as_xyz
  1  'x, y, z'
loop_
 _atom_site_type_symbol
 _atom_site_label
 _atom_site_symmetry_multiplicity
 _atom_site_fract_x
 _atom_site_fract_y
 _atom_site_fract_z
 _atom_site_occupancy
  Ce  Ce0  1  0.34715700  0.67101600  0.05699100  1
  Ce  Ce1  1  0.15284300  0.17101600  0.44300900  1
  Ce  Ce2  1  0.65284300  0.32898400  0.55699100  1
  Ce  Ce3  1  0.84715700  0.82898400  0.94300900  1
  Ce  Ce4  1  0.65284300  0.32898400  0.94300900  1
  Ce  Ce5  1  0.84715700  0.82898400  0.55699100  1
  Ce  Ce6  1  0.34715700  0.67101600  0.44300900  1
  Ce  Ce7  1  0.15284300  0.17101600  0.05699100  1
  Ce  Ce8  1  0.85460200  0.53440700  0.25000000  1
  Ce  Ce9  1  0.64539800  0.03440700  0.25000000  1
  Ce  Ce10  1  0.14539800  0.46559300  0.75000000  1
  Ce  Ce11  1  0.35460200  0.96559300  0.75000000  1
  Ir  Ir0  1  0.08939300  0.87626900  0.25000000  1
  Ir  Ir1  1  0.41060700  0.37626900  0.25000000  1
  Ir  Ir2  1  0.91060700  0.12373100  0.75000000  1
  Ir  Ir3  1  0.58939300  0.62373100  0.75000000  1
loop_
_geom_bond_atom_site_label_1
_geom_bond_atom_site_label_2
_geom_bond_distance
_geom_bond_site_symmetry_2
Ce0 Ir1 2.844875 1_555
Ce0 Ir0 2.867945 1_555
Ce0 Ir3 3.378524 1_554
Ce1 Ir0 2.844875 1_545
Ce1 Ir1 2.867945 1_555
Ce1 Ir2 3.378524 1_455
Ce2 Ir3 2.844875 1_555
Ce2 Ir2 2.867945 1_555
Ce2 Ir1 3.378524 1_555
Ce3 Ir2 2.844875 1_565
Ce3 Ir3 2.867945 1_555
Ce3 Ir0 3.378524 1_656
Ce4 Ir3 2.844875 1_555
Ce4 Ir2 2.867945 1_555
Ce4 Ir1 3.378524 1_556
Ce5 Ir2 2.844875 1_565
Ce5 Ir3 2.867945 1_555
Ce5 Ir0 3.378524 1_655
Ce6 Ir1 2.844875 1_555
Ce6 Ir0 2.867945 1_555
Ce6 Ir3 3.378524 1_555
Ce7 Ir0 2.844875 1_545
Ce7 Ir1 2.867945 1_555
Ce7 Ir2 3.378524 1_454
Ce8 Ir0 2.820691 1_655
Ce8 Ir1 2.958814 1_555
Ce8 Ir1 3.607854 1_655
Ce9 Ir1 2.820691 1_555
Ce9 Ir0 2.958814 1_645
Ce9 Ir0 3.607854 1_545
Ce10 Ir2 2.820691 1_455
Ce10 Ir3 2.958814 1_555
Ce10 Ir3 3.607854 1_455
Ce11 Ir3 2.820691 1_555
Ce11 Ir2 2.958814 1_465
Ce11 Ir2 3.607854 1_565
