# generated using pymatgen
data_Mg2TiBO5
_symmetry_space_group_name_H-M   'P 1'
_cell_length_a   3.05082100
_cell_length_b   9.38839900
_cell_length_c   12.47552800
_cell_angle_alpha   90.00000000
_cell_angle_beta   90.00000000
_cell_angle_gamma   90.00000000
_symmetry_Int_Tables_number   1
_chemical_formula_structural   Mg2TiBO5
_chemical_formula_sum   'Mg8 Ti4 B4 O20'
_cell_volume   357.32812535
_cell_formula_units_Z   4
loop_
 _symmetry_equiv_pos_site_id
 _symmetry_equiv_pos_as_xyz
  1  'x, y, z'
loop_
 _atom_site_type_symbol
 _atom_site_label
 _atom_site_symmetry_multiplicity
 _atom_site_fract_x
 _atom_site_fract_y
 _atom_site_fract_z
 _atom_site_occupancy
  Mg  Mg0  1  0.50000000  0.00000000  0.50000000  1
  Mg  Mg1  1  0.50000000  0.50000000  0.00000000  1
  Mg  Mg2  1  0.50000000  0.00260100  0.21807000  1
  Mg  Mg3  1  0.50000000  0.99739900  0.78193000  1
  Mg  Mg4  1  0.50000000  0.49739900  0.71807000  1
  Mg  Mg5  1  0.50000000  0.50260100  0.28193000  1
  Mg  Mg6  1  0.00000000  0.00000000  0.00000000  1
  Mg  Mg7  1  0.00000000  0.50000000  0.50000000  1
  Ti  Ti0  1  0.00000000  0.24009900  0.38483500  1
  Ti  Ti1  1  0.00000000  0.75990100  0.61516500  1
  Ti  Ti2  1  0.00000000  0.25990100  0.88483500  1
  Ti  Ti3  1  0.00000000  0.74009900  0.11516500  1
  B  B0  1  0.00000000  0.27370800  0.13973400  1
  B  B1  1  0.00000000  0.72629200  0.86026600  1
  B  B2  1  0.00000000  0.22629200  0.63973400  1
  B  B3  1  0.00000000  0.77370800  0.36026600  1
  O  O0  1  0.00000000  0.35056600  0.04331800  1
  O  O1  1  0.00000000  0.64943400  0.95668200  1
  O  O2  1  0.00000000  0.14943400  0.54331800  1
  O  O3  1  0.00000000  0.85056600  0.45668200  1
  O  O4  1  0.50000000  0.38423900  0.42348600  1
  O  O5  1  0.50000000  0.61576100  0.57651400  1
  O  O6  1  0.50000000  0.11576100  0.92348600  1
  O  O7  1  0.50000000  0.88423900  0.07651400  1
  O  O8  1  0.00000000  0.12668300  0.14199300  1
  O  O9  1  0.00000000  0.87331700  0.85800700  1
  O  O10  1  0.00000000  0.37331700  0.64199300  1
  O  O11  1  0.00000000  0.62668300  0.35800700  1
  O  O12  1  0.50000000  0.10633300  0.35693300  1
  O  O13  1  0.50000000  0.89366700  0.64306700  1
  O  O14  1  0.50000000  0.39366700  0.85693300  1
  O  O15  1  0.50000000  0.60633300  0.14306700  1
  O  O16  1  0.00000000  0.35023900  0.23621600  1
  O  O17  1  0.00000000  0.64976100  0.76378400  1
  O  O18  1  0.00000000  0.14976100  0.73621600  1
  O  O19  1  0.00000000  0.85023900  0.26378400  1
loop_
_geom_bond_atom_site_label_1
_geom_bond_atom_site_label_2
_geom_bond_distance
_geom_bond_site_symmetry_2
Mg0 O13 2.045052 1_545
Mg0 O12 2.045052 1_555
Mg0 O2 2.141771 1_655
Mg0 O2 2.141771 1_555
Mg0 O3 2.141771 1_545
Mg0 O3 2.141771 1_645
Mg1 O15 2.045052 1_555
Mg1 O14 2.045052 1_554
Mg1 O0 2.141771 1_655
Mg1 O0 2.141771 1_555
Mg1 O1 2.141771 1_554
Mg1 O1 2.141771 1_654
Mg2 O12 1.987362 1_555
Mg2 O7 2.086513 1_545
Mg2 O8 2.141199 1_655
Mg2 O8 2.141199 1_555
Mg2 O19 2.167550 1_645
Mg2 O19 2.167550 1_545
Mg3 O13 1.987362 1_555
Mg3 O6 2.086513 1_565
Mg3 O9 2.141199 1_555
Mg3 O9 2.141199 1_655
Mg3 O18 2.167550 1_565
Mg3 O18 2.167550 1_665
Mg4 O14 1.987362 1_555
Mg4 O5 2.086513 1_555
Mg4 O10 2.141199 1_655
Mg4 O10 2.141199 1_555
Mg4 O17 2.167550 1_655
Mg4 O17 2.167550 1_555
Mg5 O15 1.987362 1_555
Mg5 O4 2.086513 1_555
Mg5 O11 2.141199 1_555
Mg5 O11 2.141199 1_655
Mg5 O16 2.167550 1_555
Mg5 O16 2.167550 1_655
Mg6 O7 2.102190 1_445
Mg6 O7 2.102190 1_545
Mg6 O6 2.102190 1_554
Mg6 O6 2.102190 1_454
Mg6 O8 2.133670 1_555
Mg6 O9 2.133670 1_544
Mg7 O5 2.102190 1_455
Mg7 O5 2.102190 1_555
Mg7 O4 2.102190 1_455
Mg7 O4 2.102190 1_555
Mg7 O10 2.133670 1_555
Mg7 O11 2.133670 1_555
B0 O8 1.380617 1_555
B0 O16 1.401804 1_555
B0 O0 1.402674 1_555
B1 O9 1.380617 1_555
B1 O17 1.401804 1_555
B1 O1 1.402674 1_555
B2 O10 1.380617 1_555
B2 O18 1.401804 1_555
B2 O2 1.402674 1_555
B3 O11 1.380617 1_555
B3 O19 1.401804 1_555
B3 O3 1.402674 1_555
O0 Ti2 2.152603 1_554
O1 Ti3 2.152603 1_556
O2 Ti0 2.152603 1_555
O3 Ti1 2.152603 1_555
O4 Ti0 2.095389 1_555
O4 Ti0 2.095389 1_655
O5 Ti1 2.095389 1_555
O5 Ti1 2.095389 1_655
O6 Ti2 2.095389 1_555
O6 Ti2 2.095389 1_655
O7 Ti3 2.095389 1_655
O7 Ti3 2.095389 1_555
O12 Ti0 2.006290 1_655
O12 Ti0 2.006290 1_555
O13 Ti1 2.006290 1_555
O13 Ti1 2.006290 1_655
O14 Ti2 2.006290 1_655
O14 Ti2 2.006290 1_555
O15 Ti3 2.006290 1_655
O15 Ti3 2.006290 1_555
O16 Ti0 2.122952 1_555
O17 Ti1 2.122952 1_555
O18 Ti2 2.122952 1_555
O19 Ti3 2.122952 1_555
