# generated using pymatgen
data_YVFe11
_symmetry_space_group_name_H-M   'P 1'
_cell_length_a   4.68596500
_cell_length_b   6.42629988
_cell_length_c   6.42629988
_cell_angle_alpha   97.88474497
_cell_angle_beta   111.38252825
_cell_angle_gamma   68.61747175
_symmetry_Int_Tables_number   1
_chemical_formula_structural   YVFe11
_chemical_formula_sum   'Y1 V1 Fe11'
_cell_volume   167.79189577
_cell_formula_units_Z   1
loop_
 _symmetry_equiv_pos_site_id
 _symmetry_equiv_pos_as_xyz
  1  'x, y, z'
loop_
 _atom_site_type_symbol
 _atom_site_label
 _atom_site_symmetry_multiplicity
 _atom_site_fract_x
 _atom_site_fract_y
 _atom_site_fract_z
 _atom_site_occupancy
  Y  Y0  1  0.00512100  0.99487900  0.00512100  1
  V  V0  1  0.63054600  0.36945400  0.63054600  1
  Fe  Fe0  1  0.50089300  0.99955700  0.50142200  1
  Fe  Fe1  1  0.00097200  0.99955700  0.50142200  1
  Fe  Fe2  1  0.50089300  0.49857800  0.00044300  1
  Fe  Fe3  1  0.00097200  0.49857800  0.00044300  1
  Fe  Fe4  1  0.72888100  0.77111900  0.22888100  1
  Fe  Fe5  1  0.27113900  0.22886100  0.77113900  1
  Fe  Fe6  1  0.49957500  0.77631400  0.77546300  1
  Fe  Fe7  1  0.49957500  0.22453700  0.22368600  1
  Fe  Fe8  1  0.36280100  0.63719900  0.36280100  1
  Fe  Fe9  1  0.99931700  0.35947900  0.35811300  1
  Fe  Fe10  1  0.99931700  0.64188700  0.64052100  1
loop_
_geom_bond_atom_site_label_1
_geom_bond_atom_site_label_2
_geom_bond_distance
_geom_bond_site_symmetry_2
V0 Y0 3.177641 1_646
Fe0 Fe1 2.342612 1_555
Fe0 Fe1 2.343353 1_655
Fe0 Fe5 2.416182 1_565
Fe0 Fe6 2.422213 1_555
Fe0 Fe4 2.424726 1_555
Fe0 Fe7 2.443223 1_565
Fe0 Fe10 2.581460 1_555
Fe0 Fe8 2.596934 1_555
Fe0 Fe9 2.600798 1_465
Fe0 V0 2.617714 1_565
Fe0 Y0 3.192476 1_555
Fe0 Y0 3.234087 1_656
Fe1 Fe5 2.416182 1_565
Fe1 Fe6 2.422215 1_555
Fe1 Fe4 2.424726 1_455
Fe1 Fe7 2.443221 1_465
Fe1 Fe10 2.581461 1_455
Fe1 Fe8 2.596934 1_555
Fe1 Fe9 2.600798 1_465
Fe1 V0 2.617714 1_465
Fe1 Y0 3.192476 1_555
Fe1 Y0 3.234087 1_556
Fe2 Fe3 2.342612 1_555
Fe2 Fe3 2.343353 1_655
Fe2 Fe5 2.416182 1_554
Fe2 Fe7 2.422213 1_555
Fe2 Fe4 2.424726 1_555
Fe2 Fe6 2.443223 1_554
Fe2 Fe9 2.581460 1_555
Fe2 Fe8 2.596934 1_555
Fe2 V0 2.617714 1_554
Fe2 Y0 3.192476 1_555
Fe2 Y0 3.234087 1_645
Fe3 Fe5 2.416182 1_554
Fe3 Fe7 2.422215 1_555
Fe3 Fe4 2.424726 1_455
Fe3 Fe6 2.443221 1_454
Fe3 Fe9 2.581461 1_455
Fe3 Fe8 2.596934 1_555
Fe3 V0 2.617714 1_454
Fe3 Y0 3.192476 1_555
Fe3 Y0 3.234087 1_545
Fe4 Fe9 2.585390 1_555
Fe4 Fe8 2.603893 1_655
Fe4 Fe8 2.603893 1_555
Fe4 Fe6 2.713565 1_554
Fe4 Fe7 2.713565 1_565
Fe4 Y0 3.015433 1_555
Fe4 Y0 3.015434 1_655
Fe5 Fe9 2.595830 1_455
Fe5 V0 2.629085 1_455
Fe5 V0 2.629086 1_555
Fe5 Fe6 2.708273 1_545
Fe5 Fe7 2.708273 1_556
Fe5 Y0 3.070761 1_646
Fe5 Y0 3.070761 1_546
Fe6 V0 2.580451 1_555
Fe6 Fe8 2.602023 1_555
Fe6 Y0 3.011824 1_656
Fe6 Y0 3.011828 1_556
Fe7 V0 2.580451 1_555
Fe7 Fe8 2.602023 1_555
Fe7 Fe9 2.604283 1_555
Fe7 Fe9 2.604287 1_455
Fe7 Y0 3.011824 1_645
Fe7 Y0 3.011828 1_545
Fe8 V0 2.271368 1_555
Fe8 Fe9 2.872576 1_555
Fe8 Fe9 2.872576 1_455
Fe8 Y0 3.034315 1_555
Fe9 V0 2.854789 1_655
Fe9 V0 2.854789 1_555
Fe9 Y0 3.029290 1_645
Fe10 Fe9 2.384036 1_555
Fe10 Fe4 2.585390 1_555
Fe10 Fe5 2.595830 1_655
Fe10 Fe2 2.600798 1_656
Fe10 Fe3 2.600798 1_656
Fe10 Fe6 2.604283 1_555
Fe10 Fe6 2.604287 1_655
Fe10 V0 2.854789 1_655
Fe10 V0 2.854789 1_555
Fe10 Fe8 2.872576 1_555
Fe10 Fe8 2.872576 1_655
Fe10 Y0 3.029290 1_656
