# generated using pymatgen
data_EuMgPb
_symmetry_space_group_name_H-M   'P 1'
_cell_length_a   8.14011300
_cell_length_b   4.93553600
_cell_length_c   9.01583800
_cell_angle_alpha   90.00000000
_cell_angle_beta   90.00000000
_cell_angle_gamma   90.00000000
_symmetry_Int_Tables_number   1
_chemical_formula_structural   EuMgPb
_chemical_formula_sum   'Eu4 Mg4 Pb4'
_cell_volume   362.21869145
_cell_formula_units_Z   4
loop_
 _symmetry_equiv_pos_site_id
 _symmetry_equiv_pos_as_xyz
  1  'x, y, z'
loop_
 _atom_site_type_symbol
 _atom_site_label
 _atom_site_symmetry_multiplicity
 _atom_site_fract_x
 _atom_site_fract_y
 _atom_site_fract_z
 _atom_site_occupancy
  Eu  Eu0  1  0.01911200  0.25000000  0.31538700  1
  Eu  Eu1  1  0.51911200  0.25000000  0.18461300  1
  Eu  Eu2  1  0.98088800  0.75000000  0.68461300  1
  Eu  Eu3  1  0.48088800  0.75000000  0.81538700  1
  Mg  Mg0  1  0.15308300  0.25000000  0.93360900  1
  Mg  Mg1  1  0.65308300  0.25000000  0.56639100  1
  Mg  Mg2  1  0.84691700  0.75000000  0.06639100  1
  Mg  Mg3  1  0.34691700  0.75000000  0.43360900  1
  Pb  Pb0  1  0.27120600  0.25000000  0.61310300  1
  Pb  Pb1  1  0.77120600  0.25000000  0.88689700  1
  Pb  Pb2  1  0.72879400  0.75000000  0.38689700  1
  Pb  Pb3  1  0.22879400  0.75000000  0.11310300  1
loop_
_geom_bond_atom_site_label_1
_geom_bond_atom_site_label_2
_geom_bond_distance
_geom_bond_site_symmetry_2
Eu0 Pb0 3.378715 1_555
Eu0 Pb2 3.477120 1_455
Eu0 Pb2 3.477120 1_445
Eu0 Pb3 3.511305 1_545
Eu0 Pb3 3.511305 1_555
Eu0 Mg0 3.610675 1_554
Eu0 Mg2 3.618593 1_455
Eu0 Mg2 3.618593 1_445
Eu0 Mg1 3.741490 1_455
Eu0 Mg3 3.787632 1_555
Eu0 Mg3 3.787632 1_545
Eu0 Eu2 4.155496 1_455
Eu0 Eu2 4.155496 1_445
Eu0 Eu1 4.237392 1_555
Eu0 Eu1 4.237392 1_455
Eu1 Pb1 3.378715 1_554
Eu1 Pb3 3.477120 1_545
Eu1 Pb3 3.477120 1_555
Eu1 Pb2 3.511305 1_545
Eu1 Pb2 3.511305 1_555
Eu1 Mg1 3.610675 1_555
Eu1 Mg3 3.618593 1_545
Eu1 Mg3 3.618593 1_555
Eu1 Mg0 3.741490 1_554
Eu1 Mg2 3.787632 1_555
Eu1 Mg2 3.787632 1_545
Eu1 Eu3 4.155496 1_554
Eu1 Eu3 4.155496 1_544
Eu2 Pb2 3.378715 1_555
Eu2 Pb0 3.477120 1_655
Eu2 Pb0 3.477120 1_665
Eu2 Pb1 3.511305 1_565
Eu2 Pb1 3.511305 1_555
Eu2 Mg2 3.610675 1_556
Eu2 Mg0 3.618593 1_655
Eu2 Mg0 3.618593 1_665
Eu2 Mg3 3.741490 1_655
Eu2 Mg1 3.787632 1_555
Eu2 Mg1 3.787632 1_565
Eu2 Eu3 4.237392 1_655
Eu2 Eu3 4.237392 1_555
Eu3 Pb3 3.378715 1_556
Eu3 Pb1 3.477120 1_555
Eu3 Pb1 3.477120 1_565
Eu3 Pb0 3.511305 1_565
Eu3 Pb0 3.511305 1_555
Eu3 Mg3 3.610675 1_555
Eu3 Mg1 3.618593 1_555
Eu3 Mg1 3.618593 1_565
Eu3 Mg2 3.741490 1_556
Eu3 Mg0 3.787632 1_555
Eu3 Mg0 3.787632 1_565
Mg0 Pb3 3.014724 1_556
Mg0 Pb3 3.014724 1_546
Mg0 Pb0 3.045408 1_555
Mg0 Pb1 3.136921 1_455
Mg1 Pb2 3.014724 1_555
Mg1 Pb2 3.014724 1_545
Mg1 Pb1 3.045408 1_555
Mg1 Pb0 3.136921 1_555
Mg2 Pb1 3.014724 1_564
Mg2 Pb1 3.014724 1_554
Mg2 Pb2 3.045408 1_555
Mg2 Pb3 3.136921 1_655
Mg3 Pb0 3.014724 1_565
Mg3 Pb0 3.014724 1_555
Mg3 Pb3 3.045408 1_555
Mg3 Pb2 3.136921 1_555
