# generated using pymatgen
data_C9Cl
_symmetry_space_group_name_H-M   'P 1'
_cell_length_a   11.55583869
_cell_length_b   14.87336865
_cell_length_c   20.70620414
_cell_angle_alpha   71.36346869
_cell_angle_beta   73.93210120
_cell_angle_gamma   69.83238998
_symmetry_Int_Tables_number   1
_chemical_formula_structural   C9Cl
_chemical_formula_sum   'C216 Cl24'
_cell_volume   3109.47126799
_cell_formula_units_Z   24
loop_
 _symmetry_equiv_pos_site_id
 _symmetry_equiv_pos_as_xyz
  1  'x, y, z'
loop_
 _atom_site_type_symbol
 _atom_site_label
 _atom_site_symmetry_multiplicity
 _atom_site_fract_x
 _atom_site_fract_y
 _atom_site_fract_z
 _atom_site_occupancy
  C  C0  1  0.58216851  0.82424581  0.21717784  1
  C  C1  1  0.41783149  0.17575419  0.78282216  1
  C  C2  1  0.60727624  0.73389442  0.27056458  1
  C  C3  1  0.39272376  0.26610558  0.72943542  1
  C  C4  1  0.55215665  0.73398625  0.34199011  1
  C  C5  1  0.44784335  0.26601375  0.65800989  1
  C  C6  1  0.49557591  0.82629448  0.35893579  1
  C  C7  1  0.50442409  0.17370552  0.64106421  1
  C  C8  1  0.47232492  0.91625401  0.30612123  1
  C  C9  1  0.52767508  0.08374599  0.69387877  1
  C  C10  1  0.50343107  0.91482942  0.23538617  1
  C  C11  1  0.49656893  0.08517058  0.76461383  1
  C  C12  1  0.42181754  0.98737490  0.19020292  1
  C  C13  1  0.57818246  0.01262510  0.80979708  1
  C  C14  1  0.41804745  0.97086566  0.12630755  1
  C  C15  1  0.58195255  0.02913434  0.87369245  1
  C  C16  1  0.51601674  0.89198370  0.10201731  1
  C  C17  1  0.48398326  0.10801630  0.89798269  1
  C  C18  1  0.59927098  0.82011864  0.14647832  1
  C  C19  1  0.40072902  0.17988136  0.85352168  1
  C  C20  1  0.66465776  0.72856145  0.12935825  1
  C  C21  1  0.33534224  0.27143855  0.87064175  1
  C  C22  1  0.69154221  0.63912152  0.18212477  1
  C  C23  1  0.30845779  0.36087848  0.81787523  1
  C  C24  1  0.65125906  0.64000015  0.25297743  1
  C  C25  1  0.34874094  0.35999985  0.74702257  1
  C  C26  1  0.61361908  0.55595700  0.30026000  1
  C  C27  1  0.38638092  0.44404300  0.69974000  1
  C  C28  1  0.53248985  0.56381809  0.36582059  1
  C  C29  1  0.46751015  0.43618191  0.63417941  1
  C  C30  1  0.51328176  0.65004852  0.38877441  1
  C  C31  1  0.48671824  0.34995148  0.61122559  1
  C  C32  1  0.41829277  0.66603534  0.44770559  1
  C  C33  1  0.58170723  0.33396466  0.55229441  1
  C  C34  1  0.36451452  0.75985685  0.46285935  1
  C  C35  1  0.63548548  0.24014315  0.53714065  1
  C  C36  1  0.40324573  0.83913227  0.41961111  1
  C  C37  1  0.59675427  0.16086773  0.58038889  1
  C  C38  1  0.31883017  0.94426739  0.40940129  1
  C  C39  1  0.68116983  0.05573261  0.59059871  1
  C  C40  1  0.36676552  0.98671665  0.33395133  1
  C  C41  1  0.63323448  0.01328335  0.66604867  1
  C  C42  1  0.28928001  0.05505996  0.29119107  1
  C  C43  1  0.71071999  0.94494004  0.70880893  1
  C  C44  1  0.31633473  0.05480350  0.22014703  1
  C  C45  1  0.68366527  0.94519650  0.77985297  1
  C  C46  1  0.20513101  0.09556661  0.19291135  1
  C  C47  1  0.79486899  0.90443339  0.80708865  1
  C  C48  1  0.19701073  0.07417109  0.13437161  1
  C  C49  1  0.80298927  0.92582891  0.86562839  1
  C  C50  1  0.30354498  0.01222201  0.09902372  1
  C  C51  1  0.69645502  0.98777799  0.90097628  1
  C  C52  1  0.28542932  0.96870336  0.05014282  1
  C  C53  1  0.71457068  0.03129664  0.94985718  1
  C  C54  1  0.38768518  0.90219819  0.02102117  1
  C  C55  1  0.61231482  0.09780181  0.97897883  1
  C  C56  1  0.50239061  0.86519846  0.04514913  1
  C  C57  1  0.49760939  0.13480154  0.95485087  1
  C  C58  1  0.57080970  0.77292614  0.02941375  1
  C  C59  1  0.42919030  0.22707386  0.97058625  1
  C  C60  1  0.65214851  0.70535635  0.07043336  1
  C  C61  1  0.34785149  0.29464365  0.92956664  1
  C  C62  1  0.67983513  0.59459557  0.08204933  1
  C  C63  1  0.32016487  0.40540443  0.91795067  1
  C  C64  1  0.69871680  0.55888924  0.15624167  1
  C  C65  1  0.30128320  0.44111076  0.84375833  1
  C  C66  1  0.66237610  0.47961950  0.20100192  1
  C  C67  1  0.33762390  0.52038050  0.79899808  1
  C  C68  1  0.61985506  0.47844668  0.27230516  1
  C  C69  1  0.38014494  0.52155332  0.72769484  1
  C  C70  1  0.53852283  0.41810407  0.30342372  1
  C  C71  1  0.46147717  0.58189593  0.69657628  1
  C  C72  1  0.45281503  0.43011303  0.36388096  1
  C  C73  1  0.54718497  0.56988697  0.63611904  1
  C  C74  1  0.44831734  0.50260868  0.39708297  1
  C  C75  1  0.55168266  0.49739132  0.60291703  1
  C  C76  1  0.33848066  0.53354247  0.44854202  1
  C  C77  1  0.66151934  0.46645753  0.55145798  1
  C  C78  1  0.33162094  0.60938589  0.47582690  1
  C  C79  1  0.66837906  0.39061411  0.52417310  1
  C  C80  1  0.21168671  0.66469238  0.51517978  1
  C  C81  1  0.78831329  0.33530762  0.48482022  1
  C  C82  1  0.23521656  0.77089432  0.50604173  1
  C  C83  1  0.76478344  0.22910568  0.49395827  1
  C  C84  1  0.14487335  0.86144421  0.46787216  1
  C  C85  1  0.85512665  0.13855579  0.53212784  1
  C  C86  1  0.18164508  0.94500533  0.42021551  1
  C  C87  1  0.81835492  0.05499467  0.57978449  1
  C  C88  1  0.10293536  0.01501147  0.37357730  1
  C  C89  1  0.89706464  0.98498853  0.62642270  1
  C  C90  1  0.15113134  0.09651318  0.31670712  1
  C  C91  1  0.84886866  0.90348682  0.68329288  1
  C  C92  1  0.09436987  0.13482395  0.24630625  1
  C  C93  1  0.90563013  0.86517605  0.75369375  1
  C  C94  1  0.98610145  0.09865509  0.24822258  1
  C  C95  1  0.01389855  0.90134491  0.75177742  1
  C  C96  1  0.97033488  0.09479238  0.18479314  1
  C  C97  1  0.02966512  0.90520762  0.81520686  1
  C  C98  1  0.06904923  0.09987482  0.11828031  1
  C  C99  1  0.93095077  0.90012518  0.88171969  1
  C  C100  1  0.05798836  0.02233224  0.08911861  1
  C  C101  1  0.94201164  0.97766776  0.91088139  1
  C  C102  1  0.15919774  0.96361529  0.05330776  1
  C  C103  1  0.84080226  0.03638471  0.94669224  1
  C  C104  1  0.14595066  0.87359699  0.04629202  1
  C  C105  1  0.85404934  0.12640301  0.95370798  1
  C  C106  1  0.25435074  0.80783538  0.01498951  1
  C  C107  1  0.74564926  0.19216462  0.98501049  1
  C  C108  1  0.37602681  0.83487756  0.98350814  1
  C  C109  1  0.62397319  0.16512244  0.01649186  1
  C  C110  1  0.50537467  0.74282034  0.99001889  1
  C  C111  1  0.49462533  0.25717966  0.00998111  1
  C  C112  1  0.48596254  0.64170275  0.03034814  1
  C  C113  1  0.51403746  0.35829725  0.96965186  1
  C  C114  1  0.56541632  0.56960040  0.07619564  1
  C  C115  1  0.43458368  0.43039960  0.92380436  1
  C  C116  1  0.52646161  0.48797941  0.12478674  1
  C  C117  1  0.47353839  0.51202059  0.87521326  1
  C  C118  1  0.60599576  0.41887864  0.17921725  1
  C  C119  1  0.39400424  0.58112136  0.82078275  1
  C  C120  1  0.53005316  0.36792097  0.25189973  1
  C  C121  1  0.46994684  0.63207903  0.74810027  1
  C  C122  1  0.39366205  0.38079259  0.25438420  1
  C  C123  1  0.60633795  0.61920741  0.74561580  1
  C  C124  1  0.31567436  0.37564518  0.31949093  1
  C  C125  1  0.68432564  0.62435482  0.68050907  1
  C  C126  1  0.34845234  0.38250010  0.38392625  1
  C  C127  1  0.65154766  0.61749990  0.61607375  1
  C  C128  1  0.22645955  0.44762733  0.41540517  1
  C  C129  1  0.77354045  0.55237267  0.58459483  1
  C  C130  1  0.22063270  0.51563646  0.44945322  1
  C  C131  1  0.77936730  0.48436354  0.55054678  1
  C  C132  1  0.10392266  0.59349046  0.45828044  1
  C  C133  1  0.89607734  0.40650954  0.54171956  1
  C  C134  1  0.10136715  0.66968566  0.48738495  1
  C  C135  1  0.89863285  0.33031434  0.51261505  1
  C  C136  1  0.00676960  0.75707806  0.47926684  1
  C  C137  1  0.99323040  0.24292194  0.52073316  1
  C  C138  1  0.02908705  0.85272546  0.46838273  1
  C  C139  1  0.97091295  0.14727454  0.53161727  1
  C  C140  1  0.94785925  0.92499539  0.42491393  1
  C  C141  1  0.05214075  0.07500461  0.57508607  1
  C  C142  1  0.98465933  0.00443927  0.37361214  1
  C  C143  1  0.01534067  0.99556073  0.62638786  1
  C  C144  1  0.92494665  0.04590542  0.31209092  1
  C  C145  1  0.07505335  0.95409458  0.68790908  1
  C  C146  1  0.83760120  0.00129538  0.30763993  1
  C  C147  1  0.16239880  0.99870462  0.69236007  1
  C  C148  1  0.82801702  0.99308149  0.24268775  1
  C  C149  1  0.17198298  0.00691851  0.75731225  1
  C  C150  1  0.89608884  0.03760393  0.18255401  1
  C  C151  1  0.10391116  0.96239607  0.81744599  1
  C  C152  1  0.95191520  0.98910993  0.12713273  1
  C  C153  1  0.04808480  0.01089007  0.87286727  1
  C  C154  1  0.94529730  0.89331195  0.13335827  1
  C  C155  1  0.05470270  0.10668805  0.86664173  1
  C  C156  1  0.04050640  0.83694483  0.08874876  1
  C  C157  1  0.95949360  0.16305517  0.91125124  1
  C  C158  1  0.04743730  0.73423105  0.10214230  1
  C  C159  1  0.95256270  0.26576895  0.89785770  1
  C  C160  1  0.15260390  0.67556518  0.06551579  1
  C  C161  1  0.84739610  0.32443482  0.93448421  1
  C  C162  1  0.25660492  0.71113907  0.02522437  1
  C  C163  1  0.74339508  0.28886093  0.97477563  1
  C  C164  1  0.37117246  0.62862641  0.03378554  1
  C  C165  1  0.62882754  0.37137359  0.96621446  1
  C  C166  1  0.33521899  0.54500204  0.07955058  1
  C  C167  1  0.66478101  0.45499796  0.92044942  1
  C  C168  1  0.40730442  0.47560725  0.12874643  1
  C  C169  1  0.59269558  0.52439275  0.87125357  1
  C  C170  1  0.34034986  0.42181488  0.19256359  1
  C  C171  1  0.65965014  0.57818512  0.80743641  1
  C  C172  1  0.20788649  0.44566232  0.20115711  1
  C  C173  1  0.79211351  0.55433768  0.79884289  1
  C  C174  1  0.12939720  0.44577395  0.26768058  1
  C  C175  1  0.87060280  0.55422605  0.73231942  1
  C  C176  1  0.18339785  0.41268162  0.32558414  1
  C  C177  1  0.81660215  0.58731838  0.67441586  1
  C  C178  1  0.12928605  0.46127513  0.38095270  1
  C  C179  1  0.87071395  0.53872487  0.61904730  1
  C  C180  1  0.02490383  0.54652814  0.37641505  1
  C  C181  1  0.97509617  0.45347186  0.62358495  1
  C  C182  1  0.00753791  0.61047491  0.41970098  1
  C  C183  1  0.99246209  0.38952509  0.58029902  1
  C  C184  1  0.91337048  0.70442700  0.40824353  1
  C  C185  1  0.08662952  0.29557300  0.59175647  1
  C  C186  1  0.91055981  0.77312505  0.44303112  1
  C  C187  1  0.08944019  0.22687495  0.55696888  1
  C  C188  1  0.86686923  0.87734000  0.41524475  1
  C  C189  1  0.13313077  0.12266000  0.58475525  1
  C  C190  1  0.81419199  0.91359150  0.35749048  1
  C  C191  1  0.18580801  0.08640850  0.64250952  1
  C  C192  1  0.80853720  0.84620434  0.32238368  1
  C  C193  1  0.19146280  0.15379566  0.67761632  1
  C  C194  1  0.81753384  0.89602161  0.25029510  1
  C  C195  1  0.18246616  0.10397839  0.74970490  1
  C  C196  1  0.87805437  0.84410760  0.19823804  1
  C  C197  1  0.12194563  0.15589240  0.80176196  1
  C  C198  1  0.91040891  0.73745338  0.21984290  1
  C  C199  1  0.08959109  0.26254662  0.78015710  1
  C  C200  1  0.98243931  0.68438446  0.16762904  1
  C  C201  1  0.01756069  0.31561554  0.83237096  1
  C  C202  1  0.02572783  0.58014595  0.19015414  1
  C  C203  1  0.97427217  0.41985405  0.80984586  1
  C  C204  1  0.13757544  0.52416940  0.15301485  1
  C  C205  1  0.86242456  0.47583060  0.84698515  1
  C  C206  1  0.20040052  0.57182657  0.09330737  1
  C  C207  1  0.79959948  0.42817343  0.90669263  1
  C  C208  1  0.02097299  0.53101483  0.26213629  1
  C  C209  1  0.97902701  0.46898517  0.73786371  1
  C  C210  1  0.97068049  0.58399760  0.31392476  1
  C  C211  1  0.02931951  0.41600240  0.68607524  1
  C  C212  1  0.90318783  0.68704322  0.29308050  1
  C  C213  1  0.09681217  0.31295678  0.70691950  1
  C  C214  1  0.86140997  0.74296969  0.34482607  1
  C  C215  1  0.13859003  0.25703031  0.65517393  1
  Cl  Cl0  1  0.34191408  0.00675422  0.46599732  1
  Cl  Cl1  1  0.65808592  0.99324578  0.53400268  1
  Cl  Cl2  1  0.82138462  0.54659048  0.02252316  1
  Cl  Cl3  1  0.17861538  0.45340952  0.97747684  1
  Cl  Cl4  1  0.18308127  0.59775615  0.60591376  1
  Cl  Cl5  1  0.81691873  0.40224385  0.39408624  1
  Cl  Cl6  1  0.23478895  0.79097590  0.58779337  1
  Cl  Cl7  1  0.76521105  0.20902410  0.41220663  1
  Cl  Cl8  1  0.12459709  0.19487262  0.35737696  1
  Cl  Cl9  1  0.87540291  0.80512738  0.64262304  1
  Cl  Cl10  1  0.04575407  0.26921954  0.21753951  1
  Cl  Cl11  1  0.95424593  0.73078046  0.78246049  1
  Cl  Cl12  1  0.03661266  0.22186722  0.05616757  1
  Cl  Cl13  1  0.96338734  0.77813278  0.94383243  1
  Cl  Cl14  1  0.36425080  0.89958767  0.89337943  1
  Cl  Cl15  1  0.63574920  0.10041233  0.10662057  1
  Cl  Cl16  1  0.60339374  0.73156840  0.90635733  1
  Cl  Cl17  1  0.39660626  0.26843160  0.09364267  1
  Cl  Cl18  1  0.72693803  0.32987758  0.13639208  1
  Cl  Cl19  1  0.27306197  0.67012242  0.86360792  1
  Cl  Cl20  1  0.60374997  0.23554491  0.27875727  1
  Cl  Cl21  1  0.39625003  0.76445509  0.72124273  1
  Cl  Cl22  1  0.38980058  0.26078672  0.44563549  1
  Cl  Cl23  1  0.61019942  0.73921328  0.55436451  1
loop_
_geom_bond_atom_site_label_1
_geom_bond_atom_site_label_2
_geom_bond_distance
_geom_bond_site_symmetry_2
C0 C2 1.439204 1_555
C0 C10 1.440374 1_555
C0 C18 1.440417 1_555
C1 C3 1.439204 1_555
C1 C11 1.440374 1_555
C1 C19 1.440417 1_555
C2 C4 1.439528 1_555
C2 C24 1.440268 1_555
C3 C5 1.439528 1_555
C4 C6 1.413324 1_555
C5 C7 1.413324 1_555
C6 C8 1.427569 1_555
C7 C9 1.427569 1_555
C10 C8 1.413513 1_555
C10 C12 1.438941 1_555
C11 C9 1.413513 1_555
C11 C13 1.438941 1_555
C12 C44 1.418510 1_565
C12 C14 1.435102 1_555
C13 C45 1.418510 1_545
C13 C15 1.435102 1_555
C14 C16 1.434303 1_555
C14 C50 1.441801 1_565
C15 C17 1.434303 1_555
C15 C51 1.441801 1_545
C16 C56 1.419782 1_555
C16 C18 1.438022 1_555
C17 C57 1.419782 1_555
C17 C19 1.438022 1_555
C18 C20 1.414835 1_555
C19 C21 1.414835 1_555
C20 C60 1.424732 1_555
C20 C22 1.426147 1_555
C21 C61 1.424732 1_555
C21 C23 1.426147 1_555
C22 C24 1.413943 1_555
C22 C64 1.426207 1_555
C23 C25 1.413943 1_555
C23 C65 1.426207 1_555
C24 C26 1.437788 1_555
C25 C27 1.437788 1_555
C25 C3 1.440268 1_555
C26 C68 1.419650 1_555
C26 C28 1.434156 1_555
C27 C69 1.419650 1_555
C27 C29 1.434156 1_555
C28 C30 1.433516 1_555
C28 C74 1.442000 1_555
C29 C31 1.433516 1_555
C29 C75 1.442000 1_555
C30 C32 1.419312 1_555
C30 C4 1.439339 1_555
C31 C33 1.419312 1_555
C31 C5 1.439339 1_555
C32 C78 1.413367 1_555
C32 C34 1.416283 1_555
C33 C79 1.413367 1_555
C33 C35 1.416283 1_555
C34 C36 1.363704 1_555
C34 C82 1.498019 1_555
C35 C37 1.363704 1_555
C35 C83 1.498019 1_555
C36 C6 1.422708 1_555
C36 C38 1.514114 1_555
C37 C7 1.422708 1_555
C37 C39 1.514114 1_555
C38 C40 1.509265 1_555
C38 C86 1.535081 1_555
C38 Cl0 1.829847 1_565
C39 C41 1.509265 1_555
C39 C87 1.535081 1_555
C39 Cl1 1.829847 1_545
C40 C42 1.361982 1_565
C40 C8 1.426100 1_555
C41 C43 1.361982 1_545
C41 C9 1.426100 1_555
C42 C44 1.417721 1_555
C42 C90 1.506802 1_555
C43 C45 1.417721 1_555
C43 C91 1.506802 1_555
C44 C46 1.407974 1_555
C45 C47 1.407974 1_555
C46 C48 1.381821 1_555
C46 C92 1.521666 1_555
C47 C49 1.381821 1_555
C47 C93 1.521666 1_555
C48 C50 1.431901 1_555
C48 C98 1.498415 1_555
C49 C51 1.431901 1_555
C49 C99 1.498415 1_555
C50 C52 1.454865 1_545
C51 C53 1.454865 1_565
C52 C54 1.385342 1_555
C53 C55 1.385342 1_555
C54 C56 1.413265 1_555
C55 C57 1.413265 1_555
C56 C58 1.417655 1_555
C57 C59 1.417655 1_555
C58 C60 1.363787 1_555
C59 C61 1.363787 1_555
C60 C62 1.516581 1_555
C61 C63 1.516581 1_555
C62 C64 1.507945 1_555
C62 Cl2 1.829127 1_555
C63 C65 1.507945 1_555
C63 Cl3 1.829127 1_555
C64 C66 1.361237 1_555
C65 C67 1.361237 1_555
C66 C68 1.417543 1_555
C67 C69 1.417543 1_555
C68 C70 1.407419 1_555
C69 C71 1.407419 1_555
C70 C72 1.383672 1_555
C71 C73 1.383672 1_555
C72 C74 1.432944 1_555
C73 C75 1.432944 1_555
C74 C76 1.456038 1_555
C75 C77 1.456038 1_555
C76 C78 1.385220 1_555
C77 C79 1.385220 1_555
C78 C80 1.509507 1_555
C79 C81 1.509507 1_555
C80 C82 1.637518 1_555
C80 Cl4 1.821497 1_555
C81 C83 1.637518 1_555
C81 Cl5 1.821497 1_555
C82 C84 1.528177 1_555
C82 Cl6 1.808918 1_555
C83 C85 1.528177 1_555
C83 Cl7 1.808918 1_555
C84 C86 1.430791 1_555
C85 C87 1.430791 1_555
C86 C88 1.426381 1_565
C87 C89 1.426381 1_545
C88 C90 1.535074 1_555
C89 C91 1.535074 1_555
C90 C92 1.618829 1_555
C90 Cl8 1.810664 1_555
C91 C93 1.618829 1_555
C91 Cl9 1.810664 1_555
C92 C94 1.509724 1_455
C92 Cl10 1.820988 1_555
C93 C95 1.509724 1_655
C93 Cl11 1.820988 1_555
C94 C96 1.396200 1_555
C95 C97 1.396200 1_555
C96 C98 1.525450 1_655
C97 C99 1.525450 1_455
C98 Cl12 1.842071 1_555
C99 Cl13 1.842071 1_555
C100 C102 1.381997 1_545
C100 C152 1.414639 1_445
C100 C98 1.516758 1_555
C101 C103 1.381997 1_565
C101 C153 1.414639 1_665
C101 C99 1.516758 1_555
C102 C104 1.454327 1_555
C102 C52 1.468977 1_555
C103 C105 1.454327 1_555
C103 C53 1.468977 1_555
C104 C106 1.434167 1_555
C104 C156 1.453796 1_555
C105 C107 1.434167 1_555
C105 C157 1.453796 1_555
C106 C162 1.377110 1_555
C106 C108 1.509551 1_554
C107 C163 1.377110 1_555
C107 C109 1.509551 1_556
C108 C54 1.507345 1_556
C108 C110 1.646046 1_555
C108 Cl14 1.824809 1_555
C109 C55 1.507345 1_554
C109 C111 1.646046 1_555
C109 Cl15 1.824809 1_555
C110 C58 1.498674 1_556
C110 C112 1.528333 1_556
C110 Cl16 1.811166 1_555
C111 C59 1.498674 1_554
C111 C113 1.528333 1_554
C111 Cl17 1.811166 1_555
C112 C164 1.385375 1_555
C112 C114 1.430792 1_555
C113 C165 1.385375 1_555
C113 C115 1.430792 1_555
C114 C116 1.426236 1_555
C114 C62 1.535440 1_555
C115 C117 1.426236 1_555
C115 C63 1.535440 1_555
C116 C168 1.428000 1_555
C116 C118 1.533945 1_555
C117 C169 1.428000 1_555
C117 C119 1.533945 1_555
C118 C66 1.507686 1_555
C118 C120 1.614947 1_555
C118 Cl18 1.811189 1_555
C119 C67 1.507686 1_555
C119 C121 1.614947 1_555
C119 Cl19 1.811189 1_555
C120 C122 1.508902 1_555
C120 C70 1.523809 1_555
C120 Cl20 1.821320 1_555
C121 C123 1.508902 1_555
C121 C71 1.523809 1_555
C121 Cl21 1.821320 1_555
C122 C124 1.394466 1_555
C122 C170 1.438251 1_555
C123 C125 1.394466 1_555
C123 C171 1.438251 1_555
C124 C176 1.418780 1_555
C124 C126 1.525550 1_555
C125 C177 1.418780 1_555
C125 C127 1.525550 1_555
C126 C72 1.500717 1_555
C126 C128 1.517824 1_555
C126 Cl22 1.844256 1_555
C127 C73 1.500717 1_555
C127 C129 1.517824 1_555
C127 Cl23 1.844256 1_555
C128 C130 1.381046 1_555
C128 C178 1.415902 1_555
C129 C131 1.381046 1_555
C129 C179 1.415902 1_555
C130 C132 1.454360 1_555
C130 C76 1.469191 1_555
C131 C133 1.454360 1_555
C131 C77 1.469191 1_555
C132 C134 1.432462 1_555
C132 C182 1.453290 1_555
C133 C135 1.432462 1_555
C133 C183 1.453290 1_555
C134 C136 1.376620 1_555
C134 C80 1.508473 1_555
C135 C137 1.376620 1_555
C135 C81 1.508473 1_555
C136 C186 1.421381 1_455
C136 C138 1.468668 1_555
C137 C187 1.421381 1_655
C137 C139 1.468668 1_555
C138 C84 1.384965 1_555
C138 C140 1.414293 1_455
C139 C85 1.384965 1_555
C139 C141 1.414293 1_655
C140 C142 1.414083 1_565
C140 C188 1.438832 1_555
C141 C143 1.414083 1_545
C141 C189 1.438832 1_555
C142 C88 1.428421 1_655
C142 C144 1.473181 1_555
C143 C89 1.428421 1_455
C143 C145 1.473181 1_555
C144 C146 1.421224 1_555
C144 C94 1.437263 1_555
C145 C147 1.421224 1_555
C145 C95 1.437263 1_555
C146 C148 1.425755 1_545
C146 C190 1.438201 1_545
C147 C149 1.425755 1_565
C147 C191 1.438201 1_565
C148 C150 1.377564 1_565
C148 C194 1.445053 1_555
C149 C151 1.377564 1_545
C149 C195 1.445053 1_555
C150 C96 1.418520 1_555
C150 C152 1.432366 1_545
C151 C97 1.418520 1_555
C151 C153 1.432366 1_565
C152 C154 1.415952 1_555
C153 C155 1.415952 1_555
C154 C156 1.436286 1_655
C154 C196 1.459469 1_555
C155 C157 1.436286 1_455
C155 C197 1.459469 1_555
C156 C158 1.440256 1_555
C157 C159 1.440256 1_555
C158 C160 1.412447 1_555
C158 C200 1.459511 1_455
C159 C161 1.412447 1_555
C159 C201 1.459511 1_655
C160 C162 1.421853 1_555
C160 C206 1.427489 1_555
C161 C163 1.421853 1_555
C161 C207 1.427489 1_555
C162 C164 1.469984 1_555
C163 C165 1.469984 1_555
C164 C166 1.415157 1_555
C165 C167 1.415157 1_555
C166 C168 1.414838 1_555
C166 C206 1.437317 1_555
C167 C169 1.414838 1_555
C167 C207 1.437317 1_555
C168 C170 1.473117 1_555
C169 C171 1.473117 1_555
C170 C172 1.419781 1_555
C171 C173 1.419781 1_555
C172 C174 1.424384 1_555
C172 C204 1.437890 1_555
C173 C175 1.424384 1_555
C173 C205 1.437890 1_555
C174 C176 1.376365 1_555
C174 C208 1.442797 1_555
C175 C177 1.376365 1_555
C175 C209 1.442797 1_555
C176 C178 1.431396 1_555
C177 C179 1.431396 1_555
C178 C180 1.415479 1_555
C179 C181 1.415479 1_555
C180 C182 1.435918 1_555
C180 C210 1.457607 1_455
C181 C183 1.435918 1_555
C181 C211 1.457607 1_655
C182 C184 1.440701 1_455
C183 C185 1.440701 1_655
C184 C186 1.413681 1_555
C184 C214 1.459961 1_555
C185 C187 1.413681 1_555
C185 C215 1.459961 1_555
C186 C188 1.428188 1_555
C187 C189 1.428188 1_555
C188 C190 1.362323 1_555
C189 C191 1.362323 1_555
C190 C192 1.440264 1_555
C191 C193 1.440264 1_555
C192 C214 1.414604 1_555
C192 C194 1.431171 1_555
C193 C215 1.414604 1_555
C193 C195 1.431171 1_555
C194 C196 1.410487 1_555
C195 C197 1.410487 1_555
C196 C198 1.444425 1_555
C197 C199 1.444425 1_555
C198 C200 1.441866 1_555
C198 C212 1.454376 1_555
C199 C201 1.441866 1_555
C199 C213 1.454376 1_555
C200 C202 1.415509 1_655
C201 C203 1.415509 1_455
C202 C208 1.429955 1_555
C202 C204 1.439473 1_555
C203 C209 1.429955 1_555
C203 C205 1.439473 1_555
C204 C206 1.362307 1_555
C205 C207 1.362307 1_555
C208 C210 1.409959 1_455
C209 C211 1.409959 1_655
C210 C212 1.443216 1_555
C211 C213 1.443216 1_555
C212 C214 1.442007 1_555
C213 C215 1.442007 1_555
