# generated using pymatgen
data_Nb3I
_symmetry_space_group_name_H-M   'P 1'
_cell_length_a   6.07277215
_cell_length_b   6.07277215
_cell_length_c   5.01175400
_cell_angle_alpha   90.00000000
_cell_angle_beta   90.00000000
_cell_angle_gamma   120.00000167
_symmetry_Int_Tables_number   1
_chemical_formula_structural   Nb3I
_chemical_formula_sum   'Nb6 I2'
_cell_volume   160.06424997
_cell_formula_units_Z   2
loop_
 _symmetry_equiv_pos_site_id
 _symmetry_equiv_pos_as_xyz
  1  'x, y, z'
loop_
 _atom_site_type_symbol
 _atom_site_label
 _atom_site_symmetry_multiplicity
 _atom_site_fract_x
 _atom_site_fract_y
 _atom_site_fract_z
 _atom_site_occupancy
  Nb  Nb0  1  0.84748900  0.15251100  0.75000000  1
  Nb  Nb1  1  0.30502300  0.15251100  0.75000000  1
  Nb  Nb2  1  0.84748900  0.69497700  0.75000000  1
  Nb  Nb3  1  0.15251100  0.84748900  0.25000000  1
  Nb  Nb4  1  0.69497700  0.84748900  0.25000000  1
  Nb  Nb5  1  0.15251100  0.30502300  0.25000000  1
  I  I0  1  0.66666700  0.33333300  0.25000000  1
  I  I1  1  0.33333300  0.66666700  0.75000000  1
loop_
_geom_bond_atom_site_label_1
_geom_bond_atom_site_label_2
_geom_bond_distance
_geom_bond_site_symmetry_2
I0 Nb5 3.040028 1_655
I0 Nb4 3.040028 1_545
I0 Nb3 3.040035 1_655
I0 Nb3 3.040035 1_545
I0 Nb4 3.040040 1_555
I0 Nb5 3.040040 1_555
I0 Nb1 3.145923 1_555
I0 Nb1 3.145923 1_554
I0 Nb2 3.145923 1_555
I0 Nb2 3.145923 1_554
I0 Nb0 3.145923 1_555
I0 Nb0 3.145923 1_554
I1 Nb1 3.040028 1_565
I1 Nb2 3.040028 1_455
I1 Nb0 3.040035 1_565
I1 Nb0 3.040035 1_455
I1 Nb2 3.040040 1_555
I1 Nb1 3.040040 1_555
I1 Nb5 3.145923 1_556
I1 Nb5 3.145923 1_555
I1 Nb4 3.145923 1_555
I1 Nb4 3.145923 1_556
I1 Nb3 3.145923 1_555
I1 Nb3 3.145923 1_556
