# generated using pymatgen
data_LaY9Si8
_symmetry_space_group_name_H-M   'P 1'
_cell_length_a   7.48377000
_cell_length_b   7.74185300
_cell_length_c   14.71236074
_cell_angle_alpha   89.64415494
_cell_angle_beta   90.00000000
_cell_angle_gamma   90.00000000
_symmetry_Int_Tables_number   1
_chemical_formula_structural   LaY9Si8
_chemical_formula_sum   'La2 Y18 Si16'
_cell_volume   852.39195443
_cell_formula_units_Z   2
loop_
 _symmetry_equiv_pos_site_id
 _symmetry_equiv_pos_as_xyz
  1  'x, y, z'
loop_
 _atom_site_type_symbol
 _atom_site_label
 _atom_site_symmetry_multiplicity
 _atom_site_fract_x
 _atom_site_fract_y
 _atom_site_fract_z
 _atom_site_occupancy
  La  La0  1  0.52402500  0.57190900  0.34317300  1
  La  La1  1  0.02402500  0.42809100  0.65682700  1
  Y  Y0  1  0.81842400  0.57255600  0.87457400  1
  Y  Y1  1  0.31842400  0.42744400  0.12542600  1
  Y  Y2  1  0.18024200  0.93031900  0.37238400  1
  Y  Y3  1  0.68024200  0.06968100  0.62761600  1
  Y  Y4  1  0.18135600  0.92958300  0.62936700  1
  Y  Y5  1  0.68135600  0.07041700  0.37063300  1
  Y  Y6  1  0.82172900  0.56847100  0.12620200  1
  Y  Y7  1  0.32172900  0.43152900  0.87379800  1
  Y  Y8  1  0.64966500  0.23770300  0.99987900  1
  Y  Y9  1  0.14966500  0.76229700  0.00012100  1
  Y  Y10  1  0.34883600  0.26234700  0.49997000  1
  Y  Y11  1  0.84883600  0.73765300  0.50003000  1
  Y  Y12  1  0.47260300  0.93432800  0.85083500  1
  Y  Y13  1  0.97260300  0.06567200  0.14916500  1
  Y  Y14  1  0.46970800  0.93459200  0.14819100  1
  Y  Y15  1  0.96970800  0.06540800  0.85180900  1
  Y  Y16  1  0.52805800  0.56612300  0.65099600  1
  Y  Y17  1  0.02805800  0.43387700  0.34900400  1
  Si  Si0  1  0.52315900  0.64730400  0.00011300  1
  Si  Si1  1  0.02315900  0.35269600  0.99988700  1
  Si  Si2  1  0.47455800  0.85963700  0.50108200  1
  Si  Si3  1  0.97455800  0.14036300  0.49891800  1
  Si  Si4  1  0.64912100  0.27813100  0.79161200  1
  Si  Si5  1  0.14912100  0.72186900  0.20838800  1
  Si  Si6  1  0.35236700  0.21592600  0.28659800  1
  Si  Si7  1  0.85236700  0.78407400  0.71340200  1
  Si  Si8  1  0.36103500  0.21951100  0.71199600  1
  Si  Si9  1  0.86103500  0.78048900  0.28800400  1
  Si  Si10  1  0.64517000  0.27205800  0.20598100  1
  Si  Si11  1  0.14517000  0.72794200  0.79401900  1
  Si  Si12  1  0.76739800  0.87595000  0.00010200  1
  Si  Si13  1  0.26739800  0.12405000  0.99989800  1
  Si  Si14  1  0.23254600  0.62761100  0.50154800  1
  Si  Si15  1  0.73254600  0.37238900  0.49845200  1
loop_
_geom_bond_atom_site_label_1
_geom_bond_atom_site_label_2
_geom_bond_distance
_geom_bond_site_symmetry_2
La0 Si9 3.100178 1_555
La0 Si6 3.157053 1_555
La0 Si15 3.161707 1_555
La0 Si10 3.216066 1_555
La0 Si14 3.222734 1_555
La0 Si2 3.249711 1_555
La0 Si5 3.622636 1_555
La1 Si8 3.100178 1_555
La1 Si7 3.157053 1_455
La1 Si14 3.161707 1_555
La1 Si11 3.216066 1_555
La1 Si15 3.222734 1_455
La1 Si3 3.249711 1_455
La1 Si4 3.622636 1_455
Si0 Si12 2.544477 1_555
Si0 Y7 2.924922 1_554
Si0 Y1 2.933410 1_555
Si0 Y9 2.933494 1_555
Si0 Y0 2.939766 1_554
Si0 Y6 2.965192 1_555
Si0 Y12 3.137464 1_554
Si0 Y14 3.148524 1_555
Si0 Y8 3.309404 1_554
Si1 Si13 2.544477 1_555
Si1 Y6 2.924922 1_456
Si1 Y0 2.933410 1_455
Si1 Y8 2.933494 1_455
Si1 Y1 2.939766 1_556
Si1 Y7 2.965192 1_555
Si1 Y13 3.137464 1_456
Si1 Y15 3.148524 1_455
Si1 Y9 3.309404 1_556
Si2 Y3 2.918377 1_565
Si2 Y4 2.946672 1_555
Si2 Y5 2.949999 1_565
Si2 Y2 2.953497 1_555
Si2 Y11 2.956000 1_555
Si2 Y16 3.182171 1_555
Si2 Y10 3.256542 1_565
Si3 Y2 2.918377 1_645
Si3 Y5 2.946672 1_555
Si3 Y4 2.949999 1_645
Si3 Y3 2.953497 1_555
Si3 Y10 2.956000 1_655
Si3 Y17 3.182171 1_655
Si3 Y11 3.256542 1_545
Si4 Si8 2.496558 1_555
Si4 Y0 2.885366 1_555
Si4 Y3 2.920338 1_555
Si4 Y7 2.982173 1_555
Si4 Y15 3.038845 1_555
Si4 Y8 3.078111 1_555
Si4 Y12 3.091920 1_545
Si4 Y16 3.164576 1_555
Si5 Si9 2.496558 1_455
Si5 Y1 2.885366 1_555
Si5 Y2 2.920338 1_555
Si5 Y6 2.982173 1_455
Si5 Y14 3.038845 1_555
Si5 Y9 3.078111 1_555
Si5 Y13 3.091920 1_465
Si5 Y17 3.164576 1_555
Si6 Y2 2.847221 1_545
Si6 Y1 2.884532 1_555
Si6 Y5 2.973570 1_555
Si6 Y17 3.098378 1_555
Si6 Y14 3.117150 1_545
Si6 Y10 3.162038 1_555
Si6 Y13 3.680765 1_455
Si7 Y3 2.847221 1_565
Si7 Y0 2.884532 1_555
Si7 Y4 2.973570 1_655
Si7 Y16 3.098378 1_555
Si7 Y15 3.117150 1_565
Si7 Y11 3.162038 1_555
Si7 Y12 3.680765 1_555
Si8 Y4 2.891027 1_545
Si8 Y7 2.914794 1_555
Si8 Y3 2.934494 1_555
Si8 Y16 3.088471 1_555
Si8 Y12 3.112574 1_545
Si8 Y10 3.136262 1_555
Si9 Y5 2.891027 1_565
Si9 Y6 2.914794 1_555
Si9 Y2 2.934494 1_655
Si9 Y17 3.088471 1_655
Si9 Y13 3.112574 1_565
Si9 Y11 3.136262 1_555
Si10 Si6 2.528016 1_555
Si10 Y5 2.886423 1_555
Si10 Y6 2.890701 1_555
Si10 Y1 2.968751 1_555
Si10 Y13 3.045149 1_555
Si10 Y8 3.045720 1_554
Si10 Y14 3.049672 1_545
Si11 Si7 2.528016 1_455
Si11 Y4 2.886423 1_555
Si11 Y7 2.890701 1_555
Si11 Y0 2.968751 1_455
Si11 Y12 3.045149 1_555
Si11 Y9 3.045720 1_556
Si11 Y15 3.049672 1_465
Si12 Y8 2.935947 1_564
Si12 Y9 2.993052 1_655
Si12 Y0 3.021164 1_554
Si12 Y15 3.027199 1_564
Si12 Y6 3.036267 1_555
Si12 Y13 3.060283 1_565
Si12 Y12 3.143546 1_554
Si12 Y14 3.150966 1_555
Si13 Y9 2.935947 1_546
Si13 Y8 2.993052 1_555
Si13 Y1 3.021164 1_556
Si13 Y14 3.027199 1_546
Si13 Y7 3.036267 1_555
Si13 Y12 3.060283 1_545
Si13 Y13 3.143546 1_456
Si13 Y15 3.150966 1_455
Si14 Si2 2.550870 1_555
Si14 Y10 2.958939 1_555
Si14 Y11 2.995349 1_455
Si14 Y2 3.033341 1_555
Si14 Y4 3.033667 1_555
Si14 Y17 3.109685 1_555
Si14 Y16 3.152611 1_555
Si15 Si3 2.550870 1_555
Si15 Y11 2.958939 1_555
Si15 Y10 2.995349 1_555
Si15 Y3 3.033341 1_555
Si15 Y5 3.033667 1_555
Si15 Y16 3.109685 1_555
Si15 Y17 3.152611 1_655
