# generated using pymatgen
data_SmEuTi4O12
_symmetry_space_group_name_H-M   'P 1'
_cell_length_a   5.48622541
_cell_length_b   5.48622541
_cell_length_c   7.70774933
_cell_angle_alpha   90.00000000
_cell_angle_beta   90.00000000
_cell_angle_gamma   90.00000000
_symmetry_Int_Tables_number   1
_chemical_formula_structural   SmEuTi4O12
_chemical_formula_sum   'Sm1 Eu1 Ti4 O12'
_cell_volume   231.99299774
_cell_formula_units_Z   1
loop_
 _symmetry_equiv_pos_site_id
 _symmetry_equiv_pos_as_xyz
  1  'x, y, z'
loop_
 _atom_site_type_symbol
 _atom_site_label
 _atom_site_symmetry_multiplicity
 _atom_site_fract_x
 _atom_site_fract_y
 _atom_site_fract_z
 _atom_site_occupancy
  Sm  Sm0  1  -0.00000000  -0.00000000  0.50000000  1
  Eu  Eu0  1  0.50000000  0.50000000  0.00000000  1
  Ti  Ti0  1  -0.00000000  0.50000000  0.75055602  1
  Ti  Ti1  1  0.00000000  0.50000000  0.24944398  1
  Ti  Ti2  1  0.50000000  0.00000000  0.75055602  1
  Ti  Ti3  1  0.50000000  -0.00000000  0.24944398  1
  O  O0  1  0.24882107  0.24882107  0.74886811  1
  O  O1  1  0.24882107  0.24882107  0.25113189  1
  O  O2  1  0.75117893  0.75117893  0.74886811  1
  O  O3  1  0.75117893  0.75117893  0.25113189  1
  O  O4  1  0.75117893  0.24882107  0.74886811  1
  O  O5  1  0.75117893  0.24882107  0.25113189  1
  O  O6  1  0.24882107  0.75117893  0.74886811  1
  O  O7  1  0.24882107  0.75117893  0.25113189  1
  O  O8  1  -0.00000000  0.50000000  0.50000000  1
  O  O9  1  0.00000000  0.50000000  0.00000000  1
  O  O10  1  0.50000000  0.00000000  0.50000000  1
  O  O11  1  0.50000000  -0.00000000  0.00000000  1
loop_
_geom_bond_atom_site_label_1
_geom_bond_atom_site_label_2
_geom_bond_distance
_geom_bond_site_symmetry_2
Eu0 O9 2.743113 1_655
Eu0 O11 2.743113 1_555
Eu0 O11 2.743113 1_565
Eu0 O9 2.743113 1_555
Eu0 O3 2.746759 1_555
Eu0 O0 2.746759 1_554
Eu0 O4 2.746759 1_554
Eu0 O6 2.746759 1_554
Eu0 O1 2.746759 1_555
Eu0 O7 2.746759 1_555
Eu0 O5 2.746759 1_555
Eu0 O2 2.746759 1_554
O0 Ti2 1.939739 1_555
O0 Ti0 1.939739 1_555
O0 Sm0 2.721484 1_555
O1 Ti3 1.939739 1_555
O1 Ti1 1.939739 1_555
O1 Sm0 2.721484 1_555
O2 Ti2 1.939739 1_565
O2 Ti0 1.939739 1_655
O2 Sm0 2.721484 1_665
O3 Ti1 1.939739 1_655
O3 Ti3 1.939739 1_565
O3 Sm0 2.721484 1_665
O4 Ti2 1.939739 1_555
O4 Ti0 1.939739 1_655
O4 Sm0 2.721484 1_655
O5 Ti3 1.939739 1_555
O5 Ti1 1.939739 1_655
O5 Sm0 2.721484 1_655
O6 Ti2 1.939739 1_565
O6 Ti0 1.939739 1_555
O6 Sm0 2.721484 1_565
O7 Ti1 1.939739 1_555
O7 Ti3 1.939739 1_565
O7 Sm0 2.721484 1_565
O8 Ti1 1.931223 1_555
O8 Ti0 1.931223 1_555
O8 Sm0 2.743113 1_555
O8 Sm0 2.743113 1_565
O9 Ti0 1.922652 1_554
O9 Ti1 1.922652 1_555
O10 Ti3 1.931223 1_555
O10 Ti2 1.931223 1_555
O10 Sm0 2.743113 1_555
O10 Sm0 2.743113 1_655
O11 Ti2 1.922652 1_554
O11 Ti3 1.922652 1_555
