# generated using pymatgen
data_Dy4CrSe7
_symmetry_space_group_name_H-M   'P 1'
_cell_length_a   6.82561935
_cell_length_b   6.82561935
_cell_length_c   11.95306715
_cell_angle_alpha   75.06703733
_cell_angle_beta   75.06703733
_cell_angle_gamma   33.90968824
_symmetry_Int_Tables_number   1
_chemical_formula_structural   Dy4CrSe7
_chemical_formula_sum   'Dy4 Cr1 Se7'
_cell_volume   299.19052726
_cell_formula_units_Z   1
loop_
 _symmetry_equiv_pos_site_id
 _symmetry_equiv_pos_as_xyz
  1  'x, y, z'
loop_
 _atom_site_type_symbol
 _atom_site_label
 _atom_site_symmetry_multiplicity
 _atom_site_fract_x
 _atom_site_fract_y
 _atom_site_fract_z
 _atom_site_occupancy
  Dy  Dy0  1  0.69369200  0.69369200  0.20777100  1
  Dy  Dy1  1  0.30690500  0.30690500  0.80116600  1
  Dy  Dy2  1  0.99849400  0.99849400  0.00777900  1
  Dy  Dy3  1  0.11314400  0.11314400  0.56244900  1
  Cr  Cr0  1  0.88433700  0.88433700  0.42517200  1
  Se  Se0  1  0.74750400  0.74750400  0.63369300  1
  Se  Se1  1  0.27313100  0.27313100  0.35179300  1
  Se  Se2  1  0.33549700  0.33549700  0.05124500  1
  Se  Se3  1  0.66006000  0.66006000  0.94856100  1
  Se  Se4  1  0.03027800  0.03027800  0.23114900  1
  Se  Se5  1  0.96521000  0.96521000  0.78488300  1
  Se  Se6  1  0.49174800  0.49174800  0.49433900  1
loop_
_geom_bond_atom_site_label_1
_geom_bond_atom_site_label_2
_geom_bond_distance
_geom_bond_site_symmetry_2
Dy0 Se4 2.876122 1_655
Dy0 Se4 2.876122 1_565
Dy0 Se1 2.993945 1_565
Dy0 Se1 2.993945 1_655
Dy0 Se2 3.004093 1_565
Dy0 Se2 3.004093 1_655
Dy0 Se3 3.244348 1_554
Dy1 Se5 2.838329 1_545
Dy1 Se5 2.838329 1_455
Dy1 Se3 2.987064 1_545
Dy1 Se3 2.987064 1_455
Dy1 Se0 3.067162 1_455
Dy1 Se0 3.067162 1_545
Dy1 Se2 3.110640 1_556
Dy2 Se4 2.810333 1_665
Dy2 Se5 2.812692 1_554
Dy2 Se3 2.847682 1_564
Dy2 Se3 2.847682 1_654
Dy2 Se2 2.857653 1_655
Dy2 Se2 2.857653 1_565
Dy3 Se6 2.798730 1_455
Dy3 Se6 2.798730 1_545
Dy3 Se1 2.805410 1_555
Dy3 Se5 2.834308 1_445
Dy3 Se0 2.927507 1_545
Dy3 Se0 2.927507 1_455
Cr0 Se4 2.574666 1_665
Cr0 Se0 2.646767 1_555
Cr0 Se6 2.690253 1_565
Cr0 Se6 2.690253 1_655
Cr0 Se1 2.743387 1_565
Cr0 Se1 2.743387 1_655
