# generated using pymatgen
data_Li4MnCo3O8
_symmetry_space_group_name_H-M   'P 1'
_cell_length_a   5.19324800
_cell_length_b   5.81713261
_cell_length_c   5.88602341
_cell_angle_alpha   117.52715820
_cell_angle_beta   88.57301219
_cell_angle_gamma   108.40510394
_symmetry_Int_Tables_number   1
_chemical_formula_structural   Li4MnCo3O8
_chemical_formula_sum   'Li4 Mn1 Co3 O8'
_cell_volume   148.06395221
_cell_formula_units_Z   1
loop_
 _symmetry_equiv_pos_site_id
 _symmetry_equiv_pos_as_xyz
  1  'x, y, z'
loop_
 _atom_site_type_symbol
 _atom_site_label
 _atom_site_symmetry_multiplicity
 _atom_site_fract_x
 _atom_site_fract_y
 _atom_site_fract_z
 _atom_site_occupancy
  Li  Li0  1  0.49707200  0.25002000  0.74645200  1
  Li  Li1  1  0.49993400  0.24682200  0.25358900  1
  Li  Li2  1  0.50292800  0.74998000  0.25354800  1
  Li  Li3  1  0.50006600  0.75317800  0.74641100  1
  Mn  Mn0  1  0.00000000  0.50000000  0.00000000  1
  Co  Co0  1  0.00000000  0.00000000  0.00000000  1
  Co  Co1  1  0.00000000  0.00000000  0.50000000  1
  Co  Co2  1  0.00000000  0.50000000  0.50000000  1
  O  O0  1  0.77165300  0.13402600  0.12584200  1
  O  O1  1  0.77187200  0.13830500  0.62709800  1
  O  O2  1  0.76347600  0.64394500  0.61057300  1
  O  O3  1  0.77484800  0.63437900  0.12151400  1
  O  O4  1  0.23652400  0.35605500  0.38942700  1
  O  O5  1  0.22515200  0.36562100  0.87848600  1
  O  O6  1  0.22834700  0.86597400  0.87415800  1
  O  O7  1  0.22812800  0.86169500  0.37290200  1
loop_
_geom_bond_atom_site_label_1
_geom_bond_atom_site_label_2
_geom_bond_distance
_geom_bond_site_symmetry_2
Li0 O1 1.751052 1_555
Li0 O5 1.764162 1_555
Li1 O4 1.714391 1_555
Li1 O0 1.750119 1_555
Li2 O7 1.751052 1_555
Li2 O3 1.764162 1_555
Li3 O2 1.714391 1_555
Li3 O6 1.750119 1_555
Mn0 O5 1.583835 1_554
Mn0 O3 1.583835 1_455
Co0 O6 1.602825 1_544
Co0 O0 1.602825 1_455
Co1 O1 1.616143 1_455
Co1 O7 1.616143 1_545
Co2 O4 1.655130 1_555
Co2 O2 1.655130 1_455
