# generated using pymatgen
data_KFe2P2O11
_symmetry_space_group_name_H-M   'P 1'
_cell_length_a   9.93185300
_cell_length_b   9.41924800
_cell_length_c   12.16398027
_cell_angle_alpha   51.74436522
_cell_angle_beta   90.00000000
_cell_angle_gamma   90.00000000
_symmetry_Int_Tables_number   1
_chemical_formula_structural   KFe2P2O11
_chemical_formula_sum   'K4 Fe8 P8 O44'
_cell_volume   893.58014067
_cell_formula_units_Z   4
loop_
 _symmetry_equiv_pos_site_id
 _symmetry_equiv_pos_as_xyz
  1  'x, y, z'
loop_
 _atom_site_type_symbol
 _atom_site_label
 _atom_site_symmetry_multiplicity
 _atom_site_fract_x
 _atom_site_fract_y
 _atom_site_fract_z
 _atom_site_occupancy
  K  K0  1  0.69093300  0.62089700  0.98731400  1
  K  K1  1  0.80906700  0.62089700  0.48731400  1
  K  K2  1  0.30906700  0.37910300  0.01268600  1
  K  K3  1  0.19093300  0.37910300  0.51268600  1
  Fe  Fe0  1  0.05234400  0.02473600  0.10083600  1
  Fe  Fe1  1  0.44765600  0.02473600  0.60083600  1
  Fe  Fe2  1  0.94765600  0.97526400  0.89916400  1
  Fe  Fe3  1  0.55234400  0.97526400  0.39916400  1
  Fe  Fe4  1  0.74887200  0.28719900  0.89689600  1
  Fe  Fe5  1  0.75112800  0.28719900  0.39689600  1
  Fe  Fe6  1  0.25112800  0.71280100  0.10310400  1
  Fe  Fe7  1  0.24887200  0.71280100  0.60310400  1
  P  P0  1  0.03141100  0.36787500  0.78337200  1
  P  P1  1  0.46858900  0.36787500  0.28337200  1
  P  P2  1  0.96858900  0.63212500  0.21662800  1
  P  P3  1  0.53141100  0.63212500  0.71662800  1
  P  P4  1  0.82151300  0.15100700  0.21220800  1
  P  P5  1  0.67848700  0.15100700  0.71220800  1
  P  P6  1  0.17848700  0.84899300  0.78779200  1
  P  P7  1  0.32151300  0.84899300  0.28779200  1
  O  O0  1  0.10098200  0.28010000  0.92612700  1
  O  O1  1  0.39901800  0.28010000  0.42612700  1
  O  O2  1  0.89901800  0.71990000  0.07387300  1
  O  O3  1  0.60098200  0.71990000  0.57387300  1
  O  O4  1  0.61627100  0.47948600  0.84125700  1
  O  O5  1  0.88372900  0.47948600  0.34125700  1
  O  O6  1  0.38372900  0.52051400  0.15874300  1
  O  O7  1  0.11627100  0.52051400  0.65874300  1
  O  O8  1  0.98793600  0.76945500  0.24798700  1
  O  O9  1  0.51206400  0.76945500  0.74798700  1
  O  O10  1  0.01206400  0.23054500  0.75201300  1
  O  O11  1  0.48793600  0.23054500  0.25201300  1
  O  O12  1  0.89220300  0.45054100  0.77586400  1
  O  O13  1  0.60779700  0.45054100  0.27586400  1
  O  O14  1  0.10779700  0.54945900  0.22413600  1
  O  O15  1  0.39220300  0.54945900  0.72413600  1
  O  O16  1  0.75904400  0.27190400  0.06403400  1
  O  O17  1  0.74095600  0.27190400  0.56403400  1
  O  O18  1  0.24095600  0.72809600  0.93596600  1
  O  O19  1  0.25904400  0.72809600  0.43596600  1
  O  O20  1  0.96502800  0.09296700  0.20395100  1
  O  O21  1  0.53497200  0.09296700  0.70395100  1
  O  O22  1  0.03497200  0.90703300  0.79604900  1
  O  O23  1  0.46502800  0.90703300  0.29604900  1
  O  O24  1  0.23210900  0.01598600  0.18288100  1
  O  O25  1  0.26789100  0.01598600  0.68288100  1
  O  O26  1  0.76789100  0.98401400  0.81711900  1
  O  O27  1  0.73210900  0.98401400  0.31711900  1
  O  O28  1  0.66365900  0.26680800  0.76188400  1
  O  O29  1  0.83634100  0.26680800  0.26188400  1
  O  O30  1  0.33634100  0.73319200  0.23811600  1
  O  O31  1  0.16365900  0.73319200  0.73811600  1
  O  O32  1  0.87576500  0.07230100  0.98668800  1
  O  O33  1  0.62423500  0.07230100  0.48668800  1
  O  O34  1  0.12423500  0.92769900  0.01331200  1
  O  O35  1  0.37576500  0.92769900  0.51331200  1
  O  O36  1  0.58236900  0.04559000  0.04796700  1
  O  O37  1  0.91763100  0.04559000  0.54796700  1
  O  O38  1  0.41763100  0.95441000  0.95203300  1
  O  O39  1  0.08236900  0.95441000  0.45203300  1
  O  O40  1  0.59361300  0.89729900  0.07424000  1
  O  O41  1  0.90638700  0.89729900  0.57424000  1
  O  O42  1  0.40638700  0.10270100  0.92576000  1
  O  O43  1  0.09361300  0.10270100  0.42576000  1
loop_
_geom_bond_atom_site_label_1
_geom_bond_atom_site_label_2
_geom_bond_distance
_geom_bond_site_symmetry_2
K0 O2 2.732258 1_556
K0 O26 2.792848 1_555
K0 O16 2.887150 1_556
K0 O4 2.900166 1_555
K0 O9 2.923078 1_555
K0 O13 2.932855 1_556
K1 O3 2.732258 1_555
K1 O27 2.792848 1_555
K1 O17 2.887150 1_555
K1 O5 2.900166 1_555
K1 O8 2.923078 1_555
K1 O12 2.932855 1_555
K2 O0 2.732258 1_554
K2 O24 2.792848 1_555
K2 O18 2.887150 1_554
K2 O6 2.900166 1_555
K2 O11 2.923078 1_555
K2 O15 2.932855 1_554
K3 O1 2.732258 1_555
K3 O25 2.792848 1_555
K3 O19 2.887150 1_555
K3 O7 2.900166 1_555
K3 O10 2.923078 1_555
K3 O14 2.932855 1_555
Fe0 O34 1.919303 1_545
Fe0 O20 1.933023 1_455
Fe0 O8 2.016219 1_445
Fe0 O24 2.022023 1_555
Fe0 O0 2.050666 1_554
Fe0 O32 2.105696 1_454
Fe1 O35 1.919303 1_545
Fe1 O21 1.933023 1_555
Fe1 O9 2.016219 1_545
Fe1 O25 2.022023 1_555
Fe1 O1 2.050666 1_555
Fe1 O33 2.105696 1_555
Fe2 O32 1.919303 1_565
Fe2 O22 1.933023 1_655
Fe2 O10 2.016219 1_665
Fe2 O26 2.022023 1_555
Fe2 O2 2.050666 1_556
Fe2 O34 2.105696 1_656
Fe3 O33 1.919303 1_565
Fe3 O23 1.933023 1_555
Fe3 O11 2.016219 1_565
Fe3 O27 2.022023 1_555
Fe3 O3 2.050666 1_555
Fe3 O35 2.105696 1_555
Fe4 O12 1.938070 1_555
Fe4 O16 1.949769 1_556
Fe4 O28 1.959811 1_555
Fe4 O4 1.988704 1_555
Fe4 O32 2.034887 1_555
Fe4 O36 2.472228 1_556
Fe5 O13 1.938070 1_555
Fe5 O17 1.949769 1_555
Fe5 O29 1.959811 1_555
Fe5 O5 1.988704 1_555
Fe5 O33 2.034887 1_555
Fe5 O37 2.472228 1_555
Fe6 O14 1.938070 1_555
Fe6 O18 1.949769 1_554
Fe6 O30 1.959811 1_555
Fe6 O6 1.988704 1_555
Fe6 O34 2.034887 1_555
Fe6 O38 2.472228 1_554
Fe7 O15 1.938070 1_555
Fe7 O19 1.949769 1_555
Fe7 O31 1.959811 1_555
Fe7 O7 1.988704 1_555
Fe7 O35 2.034887 1_555
Fe7 O39 2.472228 1_555
O0 P0 1.548699 1_555
O1 P1 1.548699 1_555
O2 P2 1.548699 1_555
O3 P3 1.548699 1_555
O4 P3 1.541613 1_555
O5 P2 1.541613 1_555
O6 P1 1.541613 1_555
O7 P0 1.541613 1_555
O8 P2 1.570577 1_555
O9 P3 1.570577 1_555
O10 P0 1.570577 1_555
O11 P1 1.570577 1_555
O12 P0 1.561455 1_655
O13 P1 1.561455 1_555
O14 P2 1.561455 1_455
O15 P3 1.561455 1_555
O16 P4 1.545518 1_555
O17 P5 1.545518 1_555
O18 P6 1.545518 1_555
O19 P7 1.545518 1_555
O20 P4 1.551978 1_555
O21 P5 1.551978 1_555
O22 P6 1.551978 1_555
O23 P7 1.551978 1_555
O24 P7 1.550942 1_545
O25 P6 1.550942 1_545
O26 P5 1.550942 1_565
O27 P4 1.550942 1_565
O28 P5 1.546855 1_555
O29 P4 1.546855 1_555
O30 P7 1.546855 1_555
O31 P6 1.546855 1_555
O36 O40 1.229976 1_545
O37 O41 1.229976 1_545
O38 O42 1.229976 1_565
O39 O43 1.229976 1_565
