# generated using pymatgen
data_Sr8Cr3N8
_symmetry_space_group_name_H-M   'P 1'
_cell_length_a   9.91809874
_cell_length_b   5.34588653
_cell_length_c   7.61048089
_cell_angle_alpha   89.99999686
_cell_angle_beta   74.02022149
_cell_angle_gamma   74.36538800
_symmetry_Int_Tables_number   1
_chemical_formula_structural   Sr8Cr3N8
_chemical_formula_sum   'Sr8 Cr3 N8'
_cell_volume   372.36851636
_cell_formula_units_Z   1
loop_
 _symmetry_equiv_pos_site_id
 _symmetry_equiv_pos_as_xyz
  1  'x, y, z'
loop_
 _atom_site_type_symbol
 _atom_site_label
 _atom_site_symmetry_multiplicity
 _atom_site_fract_x
 _atom_site_fract_y
 _atom_site_fract_z
 _atom_site_occupancy
  Sr  Sr0  1  0.05925900  0.97037100  0.72997000  1
  Sr  Sr1  1  0.94074100  0.02962900  0.27003000  1
  Sr  Sr2  1  0.66692100  0.66653900  0.46912100  1
  Sr  Sr3  1  0.33307900  0.33346100  0.53087900  1
  Sr  Sr4  1  0.80519200  0.59740500  0.95239900  1
  Sr  Sr5  1  0.19480800  0.40259500  0.04760100  1
  Sr  Sr6  1  0.60296600  0.19851700  0.80143700  1
  Sr  Sr7  1  0.39703400  0.80148300  0.19856300  1
  Cr  Cr0  1  0.00000000  0.50000000  0.50000000  1
  Cr  Cr1  1  0.37392400  0.81303800  0.79681200  1
  Cr  Cr2  1  0.62607600  0.18696200  0.20318800  1
  N  N0  1  0.21557200  0.89221500  0.98430800  1
  N  N1  1  0.78442800  0.10778500  0.01569200  1
  N  N2  1  0.35965800  0.82017100  0.57585800  1
  N  N3  1  0.64034200  0.17982900  0.42414200  1
  N  N4  1  0.54589500  0.72705300  0.83243400  1
  N  N5  1  0.45410500  0.27294700  0.16756600  1
  N  N6  1  0.05107700  0.47446100  0.70882800  1
  N  N7  1  0.94892300  0.52553900  0.29117200  1
loop_
_geom_bond_atom_site_label_1
_geom_bond_atom_site_label_2
_geom_bond_distance
_geom_bond_site_symmetry_2
Cr0 N6 1.790837 1_555
Cr0 N7 1.790837 1_455
Cr1 N2 1.725466 1_555
Cr1 N4 1.739526 1_555
Cr1 N0 1.757752 1_555
Cr2 N3 1.725466 1_555
Cr2 N5 1.739526 1_555
Cr2 N1 1.757752 1_555
N0 Sr7 2.697866 1_556
N0 Sr5 2.713173 1_566
N0 Sr5 2.713194 1_556
N0 Sr0 2.761864 1_555
N0 Sr1 2.890539 1_466
N1 Sr6 2.697866 1_554
N1 Sr4 2.713173 1_544
N1 Sr4 2.713194 1_554
N1 Sr1 2.761864 1_555
N1 Sr0 2.890539 1_644
N2 Sr3 2.715864 1_555
N2 Sr3 2.715869 1_565
N2 Sr0 2.771934 1_555
N2 Sr7 2.790392 1_555
N2 Sr2 2.812360 1_555
N3 Sr2 2.715864 1_555
N3 Sr2 2.715869 1_545
N3 Sr1 2.771934 1_555
N3 Sr6 2.790392 1_555
N3 Sr3 2.812360 1_555
N4 Sr2 2.674685 1_555
N4 Sr6 2.724677 1_565
N4 Sr6 2.724683 1_555
N4 Sr7 2.742354 1_556
N4 Sr4 2.873983 1_555
N5 Sr3 2.674685 1_555
N5 Sr7 2.724677 1_545
N5 Sr7 2.724683 1_555
N5 Sr6 2.742354 1_554
N5 Sr5 2.873983 1_555
N6 Sr4 2.542144 1_455
N6 Sr3 2.646341 1_555
N6 Sr0 2.680258 1_545
N6 Sr0 2.680269 1_555
N6 Sr5 3.248915 1_556
N7 Sr5 2.542144 1_655
N7 Sr2 2.646341 1_555
N7 Sr1 2.680258 1_565
N7 Sr1 2.680269 1_555
N7 Sr4 3.248915 1_554
