# generated using pymatgen
data_Hf6Al2Co
_symmetry_space_group_name_H-M   'P 1'
_cell_length_a   6.56838208
_cell_length_b   15.62075063
_cell_length_c   15.62028580
_cell_angle_alpha   120.00155608
_cell_angle_beta   89.99998587
_cell_angle_gamma   90.00000991
_symmetry_Int_Tables_number   1
_chemical_formula_structural   Hf6Al2Co
_chemical_formula_sum   'Hf48 Al16 Co8'
_cell_volume   1387.94770921
_cell_formula_units_Z   8
loop_
 _symmetry_equiv_pos_site_id
 _symmetry_equiv_pos_as_xyz
  1  'x, y, z'
loop_
 _atom_site_type_symbol
 _atom_site_label
 _atom_site_symmetry_multiplicity
 _atom_site_fract_x
 _atom_site_fract_y
 _atom_site_fract_z
 _atom_site_occupancy
  Hf  Hf0_0  1  0.25000000  0.30121940  0.99999969  1
  Hf  Hf0_1  1  0.25000000  0.30121941  0.49999968  1
  Hf  Hf0_2  1  0.25000000  0.80121940  0.99999968  1
  Hf  Hf0_3  1  0.25000000  0.80121941  0.49999968  1
  Hf  Hf0_4  1  0.75000000  0.30121940  0.99999969  1
  Hf  Hf0_5  1  0.75000000  0.30121941  0.49999968  1
  Hf  Hf0_6  1  0.75000000  0.80121940  0.99999969  1
  Hf  Hf0_7  1  0.75000000  0.80121941  0.49999968  1
  Hf  Hf1_0  1  0.25000006  0.19876662  0.19877414  1
  Hf  Hf1_1  1  0.25000006  0.19876662  0.69877414  1
  Hf  Hf1_2  1  0.25000006  0.69876662  0.19877414  1
  Hf  Hf1_3  1  0.25000006  0.69876662  0.69877414  1
  Hf  Hf1_4  1  0.75000006  0.19876662  0.19877414  1
  Hf  Hf1_5  1  0.75000006  0.19876662  0.69877414  1
  Hf  Hf1_6  1  0.75000006  0.69876662  0.19877414  1
  Hf  Hf1_7  1  0.75000006  0.69876662  0.69877414  1
  Hf  Hf2_0  1  0.25000008  0.99999230  0.30122529  1
  Hf  Hf2_1  1  0.25000008  0.99999230  0.80122529  1
  Hf  Hf2_2  1  0.25000008  0.49999230  0.30122529  1
  Hf  Hf2_3  1  0.25000008  0.49999230  0.80122529  1
  Hf  Hf2_4  1  0.75000008  0.99999230  0.30122529  1
  Hf  Hf2_5  1  0.75000008  0.99999230  0.80122529  1
  Hf  Hf2_6  1  0.75000008  0.49999230  0.30122529  1
  Hf  Hf2_7  1  0.75000008  0.49999230  0.80122529  1
  Hf  Hf3_0  1  0.00000007  0.12485041  0.99999678  1
  Hf  Hf3_1  1  0.00000007  0.12485041  0.49999678  1
  Hf  Hf3_2  1  0.00000007  0.62485040  0.99999678  1
  Hf  Hf3_3  1  0.00000007  0.62485041  0.49999678  1
  Hf  Hf3_4  1  0.50000007  0.12485040  0.99999678  1
  Hf  Hf3_5  1  0.50000007  0.12485041  0.49999678  1
  Hf  Hf3_6  1  0.50000007  0.62485040  0.99999678  1
  Hf  Hf3_7  1  0.50000007  0.62485041  0.49999678  1
  Hf  Hf4_0  1  0.99999984  0.37515273  0.37517700  1
  Hf  Hf4_1  1  0.99999984  0.37515273  0.87517700  1
  Hf  Hf4_2  1  0.99999984  0.87515273  0.37517700  1
  Hf  Hf4_3  1  0.99999984  0.87515273  0.87517700  1
  Hf  Hf4_4  1  0.49999984  0.37515273  0.37517700  1
  Hf  Hf4_5  1  0.49999984  0.37515273  0.87517700  1
  Hf  Hf4_6  1  0.49999984  0.87515273  0.37517700  1
  Hf  Hf4_7  1  0.49999984  0.87515273  0.87517700  1
  Hf  Hf5_0  1  0.99999991  0.99997248  0.12482527  1
  Hf  Hf5_1  1  0.99999991  0.99997248  0.62482527  1
  Hf  Hf5_2  1  0.99999991  0.49997248  0.12482527  1
  Hf  Hf5_3  1  0.99999991  0.49997248  0.62482527  1
  Hf  Hf5_4  1  0.49999992  0.99997248  0.12482527  1
  Hf  Hf5_5  1  0.49999992  0.99997248  0.62482527  1
  Hf  Hf5_6  1  0.49999992  0.49997248  0.12482527  1
  Hf  Hf5_7  1  0.49999992  0.49997248  0.62482527  1
  Al  Al0_0  1  0.00000000  0.16666892  0.33333569  1
  Al  Al0_1  1  0.00000000  0.16666892  0.83333569  1
  Al  Al0_2  1  0.00000000  0.66666892  0.33333569  1
  Al  Al0_3  1  0.00000000  0.66666892  0.83333569  1
  Al  Al0_4  1  0.50000000  0.16666892  0.33333569  1
  Al  Al0_5  1  0.50000000  0.16666892  0.83333569  1
  Al  Al0_6  1  0.50000000  0.66666892  0.33333569  1
  Al  Al0_7  1  0.50000000  0.66666892  0.83333569  1
  Al  Al1_0  1  0.99999995  0.33333462  0.16666699  1
  Al  Al1_1  1  0.99999995  0.33333462  0.66666699  1
  Al  Al1_2  1  0.99999995  0.83333462  0.16666699  1
  Al  Al1_3  1  0.99999995  0.83333462  0.66666699  1
  Al  Al1_4  1  0.49999995  0.33333462  0.16666699  1
  Al  Al1_5  1  0.49999995  0.33333462  0.66666699  1
  Al  Al1_6  1  0.49999995  0.83333462  0.16666700  1
  Al  Al1_7  1  0.49999995  0.83333462  0.66666699  1
  Co  Co0_0  1  0.25000009  0.49999354  0.99999914  1
  Co  Co0_1  1  0.25000008  0.49999354  0.49999913  1
  Co  Co0_2  1  0.25000009  0.99999354  0.99999914  1
  Co  Co0_3  1  0.25000009  0.99999354  0.49999913  1
  Co  Co0_4  1  0.75000009  0.49999354  0.99999914  1
  Co  Co0_5  1  0.75000009  0.49999354  0.49999913  1
  Co  Co0_6  1  0.75000009  0.99999354  0.99999914  1
  Co  Co0_7  1  0.75000009  0.99999354  0.49999913  1
loop_
_geom_bond_atom_site_label_1
_geom_bond_atom_site_label_2
_geom_bond_distance
_geom_bond_site_symmetry_2
Hf0_0 Hf5_6 3.175440 1_556
Hf0_0 Hf5_2 3.175441 1_456
Hf0_0 Hf4_5 3.175487 1_555
Hf0_0 Hf4_1 3.175489 1_455
Hf0_0 Hf3_0 3.207252 1_555
Hf0_0 Hf3_4 3.207253 1_555
Hf0_0 Hf0_4 3.284191 1_455
Hf0_0 Hf0_4 3.284191 1_555
Hf0_1 Hf5_7 3.175440 1_555
Hf0_1 Hf5_3 3.175441 1_455
Hf0_1 Hf4_4 3.175487 1_555
Hf0_1 Hf4_0 3.175489 1_455
Hf0_1 Hf3_1 3.207252 1_555
Hf0_1 Hf3_5 3.207253 1_555
Hf0_1 Hf0_5 3.284191 1_455
Hf0_1 Hf0_5 3.284191 1_555
Hf0_2 Hf5_4 3.175440 1_556
Hf0_2 Hf5_0 3.175441 1_456
Hf0_2 Hf4_7 3.175487 1_555
Hf0_2 Hf4_3 3.175489 1_455
Hf0_2 Hf3_2 3.207252 1_555
Hf0_2 Hf3_6 3.207253 1_555
Hf0_2 Hf0_6 3.284191 1_455
Hf0_2 Hf0_6 3.284191 1_555
Hf0_3 Hf5_5 3.175440 1_555
Hf0_3 Hf5_1 3.175441 1_455
Hf0_3 Hf4_6 3.175487 1_555
Hf0_3 Hf4_2 3.175489 1_455
Hf0_3 Hf3_3 3.207252 1_555
Hf0_3 Hf3_7 3.207253 1_555
Hf0_3 Hf0_7 3.284191 1_455
Hf0_3 Hf0_7 3.284191 1_555
Hf0_4 Hf5_2 3.175440 1_556
Hf0_4 Hf5_6 3.175441 1_556
Hf0_4 Hf4_1 3.175487 1_555
Hf0_4 Hf4_5 3.175489 1_555
Hf0_4 Hf3_4 3.207252 1_555
Hf0_4 Hf3_0 3.207253 1_655
Hf0_5 Hf5_3 3.175440 1_555
Hf0_5 Hf5_7 3.175441 1_555
Hf0_5 Hf4_0 3.175487 1_555
Hf0_5 Hf4_4 3.175489 1_555
Hf0_5 Hf3_5 3.207252 1_555
Hf0_5 Hf3_1 3.207253 1_655
Hf0_6 Hf5_0 3.175440 1_556
Hf0_6 Hf5_4 3.175441 1_556
Hf0_6 Hf4_3 3.175487 1_555
Hf0_6 Hf4_7 3.175489 1_555
Hf0_6 Hf3_6 3.207252 1_555
Hf0_6 Hf3_2 3.207253 1_655
Hf0_7 Hf5_1 3.175440 1_555
Hf0_7 Hf5_5 3.175441 1_555
Hf0_7 Hf4_2 3.175487 1_555
Hf0_7 Hf4_6 3.175489 1_555
Hf0_7 Hf3_7 3.207252 1_555
Hf0_7 Hf3_3 3.207253 1_655
Hf1_0 Hf3_4 3.175716 1_554
Hf1_0 Hf3_0 3.175717 1_554
Hf1_0 Hf5_4 3.175939 1_545
Hf1_0 Hf5_0 3.175939 1_445
Hf1_0 Hf4_4 3.207522 1_555
Hf1_0 Hf4_0 3.207523 1_455
Hf1_0 Hf1_4 3.284191 1_455
Hf1_0 Hf1_4 3.284191 1_555
Hf1_1 Hf3_5 3.175716 1_555
Hf1_1 Hf3_1 3.175717 1_555
Hf1_1 Hf5_5 3.175939 1_545
Hf1_1 Hf5_1 3.175939 1_445
Hf1_1 Hf4_5 3.207522 1_555
Hf1_1 Hf4_1 3.207523 1_455
Hf1_1 Hf1_5 3.284191 1_455
Hf1_1 Hf1_5 3.284191 1_555
Hf1_2 Hf3_6 3.175716 1_554
Hf1_2 Hf3_2 3.175717 1_554
Hf1_2 Hf5_6 3.175939 1_555
Hf1_2 Hf5_2 3.175939 1_455
Hf1_2 Hf4_6 3.207522 1_555
Hf1_2 Hf4_2 3.207523 1_455
Hf1_2 Hf1_6 3.284191 1_455
Hf1_2 Hf1_6 3.284191 1_555
Hf1_3 Hf3_7 3.175716 1_555
Hf1_3 Hf3_3 3.175717 1_555
Hf1_3 Hf5_7 3.175939 1_555
Hf1_3 Hf5_3 3.175939 1_455
Hf1_3 Hf4_7 3.207522 1_555
Hf1_3 Hf4_3 3.207523 1_455
Hf1_3 Hf1_7 3.284191 1_555
Hf1_3 Hf1_7 3.284191 1_455
Hf1_4 Hf3_0 3.175716 1_654
Hf1_4 Hf3_4 3.175717 1_554
Hf1_4 Hf5_0 3.175939 1_545
Hf1_4 Hf5_4 3.175939 1_545
Hf1_4 Hf4_0 3.207522 1_555
Hf1_4 Hf4_4 3.207523 1_555
Hf1_5 Hf3_1 3.175716 1_655
Hf1_5 Hf3_5 3.175717 1_555
Hf1_5 Hf5_1 3.175939 1_545
Hf1_5 Hf5_5 3.175939 1_545
Hf1_5 Hf4_1 3.207522 1_555
Hf1_5 Hf4_5 3.207523 1_555
Hf1_6 Hf3_2 3.175716 1_654
Hf1_6 Hf3_6 3.175717 1_554
Hf1_6 Hf5_2 3.175939 1_555
Hf1_6 Hf5_6 3.175939 1_555
Hf1_6 Hf4_2 3.207522 1_555
Hf1_6 Hf4_6 3.207523 1_555
Hf1_7 Hf3_3 3.175716 1_655
Hf1_7 Hf3_7 3.175717 1_555
Hf1_7 Hf5_3 3.175939 1_555
Hf1_7 Hf5_7 3.175939 1_555
Hf1_7 Hf4_3 3.207522 1_555
Hf1_7 Hf4_7 3.207523 1_555
Hf2_0 Hf3_1 3.175642 1_565
Hf2_0 Hf3_5 3.175642 1_565
Hf2_0 Hf4_6 3.175913 1_555
Hf2_0 Hf4_2 3.175914 1_455
Hf2_0 Hf5_4 3.207484 1_555
Hf2_0 Hf5_0 3.207485 1_455
Hf2_0 Hf2_4 3.284191 1_455
Hf2_0 Hf2_4 3.284191 1_555
Hf2_1 Hf3_0 3.175642 1_565
Hf2_1 Hf3_4 3.175642 1_565
Hf2_1 Hf4_7 3.175913 1_555
Hf2_1 Hf4_3 3.175914 1_455
Hf2_1 Hf5_5 3.207484 1_555
Hf2_1 Hf5_1 3.207485 1_455
Hf2_1 Hf2_5 3.284191 1_455
Hf2_1 Hf2_5 3.284191 1_555
Hf2_2 Hf3_3 3.175642 1_555
Hf2_2 Hf3_7 3.175642 1_555
Hf2_2 Hf4_4 3.175913 1_555
Hf2_2 Hf4_0 3.175914 1_455
Hf2_2 Hf5_6 3.207484 1_555
Hf2_2 Hf5_2 3.207485 1_455
Hf2_2 Hf2_6 3.284191 1_455
Hf2_2 Hf2_6 3.284191 1_555
Hf2_3 Hf3_2 3.175642 1_555
Hf2_3 Hf3_6 3.175642 1_555
Hf2_3 Hf4_5 3.175913 1_555
Hf2_3 Hf4_1 3.175914 1_455
Hf2_3 Hf5_7 3.207484 1_555
Hf2_3 Hf5_3 3.207485 1_455
Hf2_3 Hf2_7 3.284191 1_455
Hf2_3 Hf2_7 3.284191 1_555
Hf2_4 Hf3_5 3.175642 1_565
Hf2_4 Hf3_1 3.175642 1_665
Hf2_4 Hf4_2 3.175913 1_555
Hf2_4 Hf4_6 3.175914 1_555
Hf2_4 Hf5_0 3.207484 1_555
Hf2_4 Hf5_4 3.207485 1_555
Hf2_5 Hf3_4 3.175642 1_565
Hf2_5 Hf3_0 3.175642 1_665
Hf2_5 Hf4_3 3.175913 1_555
Hf2_5 Hf4_7 3.175914 1_555
Hf2_5 Hf5_1 3.207484 1_555
Hf2_5 Hf5_5 3.207485 1_555
Hf2_6 Hf3_7 3.175642 1_555
Hf2_6 Hf3_3 3.175642 1_655
Hf2_6 Hf4_0 3.175913 1_555
Hf2_6 Hf4_4 3.175914 1_555
Hf2_6 Hf5_2 3.207484 1_555
Hf2_6 Hf5_6 3.207485 1_555
Hf2_7 Hf3_6 3.175642 1_555
Hf2_7 Hf3_2 3.175642 1_655
Hf2_7 Hf4_1 3.175913 1_555
Hf2_7 Hf4_5 3.175914 1_555
Hf2_7 Hf5_3 3.207484 1_555
Hf2_7 Hf5_7 3.207485 1_555
Al0_0 Hf0_5 2.901625 1_455
Al0_0 Hf0_1 2.901625 1_555
Al0_0 Hf1_0 2.901677 1_555
Al0_0 Hf1_4 2.901677 1_455
Al0_0 Hf2_4 2.901877 1_445
Al0_0 Hf2_0 2.901878 1_545
Al0_0 Hf3_1 2.984041 1_555
Al0_0 Hf4_0 2.984042 1_455
Al0_0 Hf5_0 2.984470 1_445
Al0_1 Hf0_4 2.901625 1_455
Al0_1 Hf0_0 2.901625 1_555
Al0_1 Hf1_1 2.901677 1_555
Al0_1 Hf1_5 2.901677 1_455
Al0_1 Hf2_5 2.901877 1_445
Al0_1 Hf2_1 2.901878 1_545
Al0_1 Hf3_0 2.984041 1_555
Al0_1 Hf4_1 2.984042 1_455
Al0_1 Hf5_1 2.984470 1_445
Al0_2 Hf0_7 2.901625 1_455
Al0_2 Hf0_3 2.901625 1_555
Al0_2 Hf1_2 2.901677 1_555
Al0_2 Hf1_6 2.901677 1_455
Al0_2 Hf2_6 2.901877 1_455
Al0_2 Hf2_2 2.901878 1_555
Al0_2 Hf3_3 2.984041 1_555
Al0_2 Hf4_2 2.984042 1_455
Al0_2 Hf5_2 2.984470 1_455
Al0_3 Hf0_6 2.901625 1_455
Al0_3 Hf0_2 2.901625 1_555
Al0_3 Hf1_3 2.901677 1_555
Al0_3 Hf1_7 2.901677 1_455
Al0_3 Hf2_7 2.901877 1_455
Al0_3 Hf2_3 2.901878 1_555
Al0_3 Hf3_2 2.984041 1_555
Al0_3 Hf4_3 2.984042 1_455
Al0_3 Hf5_3 2.984470 1_455
Al0_4 Hf0_1 2.901625 1_555
Al0_4 Hf0_5 2.901625 1_555
Al0_4 Hf1_4 2.901677 1_555
Al0_4 Hf1_0 2.901677 1_555
Al0_4 Hf2_0 2.901877 1_545
Al0_4 Hf2_4 2.901878 1_545
Al0_4 Hf3_5 2.984041 1_555
Al0_4 Hf4_4 2.984042 1_555
Al0_4 Hf5_4 2.984470 1_545
Al0_5 Hf0_0 2.901625 1_555
Al0_5 Hf0_4 2.901625 1_555
Al0_5 Hf1_5 2.901677 1_555
Al0_5 Hf1_1 2.901677 1_555
Al0_5 Hf2_1 2.901877 1_545
Al0_5 Hf2_5 2.901878 1_545
Al0_5 Hf3_4 2.984041 1_555
Al0_5 Hf4_5 2.984042 1_555
Al0_5 Hf5_5 2.984470 1_545
Al0_6 Hf0_3 2.901625 1_555
Al0_6 Hf0_7 2.901625 1_555
Al0_6 Hf1_6 2.901677 1_555
Al0_6 Hf1_2 2.901677 1_555
Al0_6 Hf2_2 2.901877 1_555
Al0_6 Hf2_6 2.901878 1_555
Al0_6 Hf3_7 2.984041 1_555
Al0_6 Hf4_6 2.984042 1_555
Al0_6 Hf5_6 2.984470 1_555
Al0_7 Hf0_2 2.901625 1_555
Al0_7 Hf0_6 2.901625 1_555
Al0_7 Hf1_7 2.901677 1_555
Al0_7 Hf1_3 2.901677 1_555
Al0_7 Hf2_3 2.901877 1_555
Al0_7 Hf2_7 2.901878 1_555
Al0_7 Hf3_6 2.984041 1_555
Al0_7 Hf4_7 2.984042 1_555
Al0_7 Hf5_7 2.984470 1_555
Al1_0 Hf2_6 2.901630 1_555
Al1_0 Hf2_2 2.901631 1_655
Al1_0 Hf0_0 2.901672 1_654
Al1_0 Hf0_4 2.901672 1_554
Al1_0 Hf1_4 2.901879 1_555
Al1_0 Hf1_0 2.901881 1_655
Al1_0 Hf5_2 2.983986 1_555
Al1_0 Hf3_0 2.984106 1_654
Al1_0 Hf4_0 2.984461 1_555
Al1_1 Hf2_7 2.901630 1_555
Al1_1 Hf2_3 2.901631 1_655
Al1_1 Hf0_1 2.901672 1_655
Al1_1 Hf0_5 2.901672 1_555
Al1_1 Hf1_5 2.901879 1_555
Al1_1 Hf1_1 2.901881 1_655
Al1_1 Hf5_3 2.983986 1_555
Al1_1 Hf3_1 2.984106 1_655
Al1_1 Hf4_1 2.984461 1_555
Al1_2 Hf2_4 2.901630 1_555
Al1_2 Hf2_0 2.901631 1_655
Al1_2 Hf0_2 2.901672 1_654
Al1_2 Hf0_6 2.901672 1_554
Al1_2 Hf1_6 2.901879 1_555
Al1_2 Hf1_2 2.901881 1_655
Al1_2 Hf5_0 2.983986 1_555
Al1_2 Hf3_2 2.984106 1_654
Al1_2 Hf4_2 2.984461 1_555
Al1_3 Hf2_5 2.901630 1_555
Al1_3 Hf2_1 2.901631 1_655
Al1_3 Hf0_3 2.901672 1_655
Al1_3 Hf0_7 2.901672 1_555
Al1_3 Hf1_7 2.901879 1_555
Al1_3 Hf1_3 2.901881 1_655
Al1_3 Hf5_1 2.983986 1_555
Al1_3 Hf3_3 2.984106 1_655
Al1_3 Hf4_3 2.984461 1_555
Al1_4 Hf2_2 2.901630 1_555
Al1_4 Hf2_6 2.901631 1_555
Al1_4 Hf0_4 2.901672 1_554
Al1_4 Hf0_0 2.901672 1_554
Al1_4 Hf1_0 2.901879 1_555
Al1_4 Hf1_4 2.901881 1_555
Al1_4 Hf5_6 2.983986 1_555
Al1_4 Hf3_4 2.984106 1_554
Al1_4 Hf4_4 2.984461 1_555
Al1_5 Hf2_3 2.901630 1_555
Al1_5 Hf2_7 2.901631 1_555
Al1_5 Hf0_5 2.901672 1_555
Al1_5 Hf0_1 2.901672 1_555
Al1_5 Hf1_1 2.901879 1_555
Al1_5 Hf1_5 2.901881 1_555
Al1_5 Hf5_7 2.983986 1_555
Al1_5 Hf3_5 2.984106 1_555
Al1_5 Hf4_5 2.984461 1_555
Al1_6 Hf2_0 2.901630 1_555
Al1_6 Hf2_4 2.901631 1_555
Al1_6 Hf0_6 2.901672 1_554
Al1_6 Hf0_2 2.901672 1_554
Al1_6 Hf1_2 2.901879 1_555
Al1_6 Hf1_6 2.901881 1_555
Al1_6 Hf5_4 2.983986 1_555
Al1_6 Hf3_6 2.984106 1_554
Al1_6 Hf4_6 2.984461 1_555
Al1_7 Hf2_1 2.901630 1_555
Al1_7 Hf2_5 2.901631 1_555
Al1_7 Hf0_7 2.901672 1_555
Al1_7 Hf0_3 2.901672 1_555
Al1_7 Hf1_3 2.901879 1_555
Al1_7 Hf1_7 2.901881 1_555
Al1_7 Hf5_5 2.983986 1_555
Al1_7 Hf3_7 2.984106 1_555
Al1_7 Hf4_7 2.984461 1_555
Co0_0 Hf4_5 2.549221 1_555
Co0_0 Hf4_1 2.549224 1_455
Co0_0 Hf5_6 2.549297 1_556
Co0_0 Hf5_2 2.549298 1_456
Co0_0 Hf3_6 2.549597 1_555
Co0_0 Hf3_2 2.549597 1_555
Co0_0 Hf1_2 3.104880 1_556
Co0_0 Hf2_3 3.104895 1_555
Co0_0 Hf0_0 3.105005 1_555
Co0_1 Hf4_4 2.549221 1_555
Co0_1 Hf4_0 2.549224 1_455
Co0_1 Hf5_7 2.549297 1_555
Co0_1 Hf5_3 2.549298 1_455
Co0_1 Hf3_7 2.549597 1_555
Co0_1 Hf3_3 2.549597 1_555
Co0_1 Hf1_3 3.104880 1_555
Co0_1 Hf2_2 3.104895 1_555
Co0_1 Hf0_1 3.105005 1_555
Co0_2 Hf4_7 2.549221 1_555
Co0_2 Hf4_3 2.549224 1_455
Co0_2 Hf5_4 2.549297 1_556
Co0_2 Hf5_0 2.549298 1_456
Co0_2 Hf3_4 2.549597 1_565
Co0_2 Hf3_0 2.549597 1_565
Co0_2 Hf1_0 3.104880 1_566
Co0_2 Hf2_1 3.104895 1_555
Co0_2 Hf0_2 3.105005 1_555
Co0_3 Hf4_6 2.549221 1_555
Co0_3 Hf4_2 2.549224 1_455
Co0_3 Hf5_5 2.549297 1_555
Co0_3 Hf5_1 2.549298 1_455
Co0_3 Hf3_5 2.549597 1_565
Co0_3 Hf3_1 2.549597 1_565
Co0_3 Hf1_1 3.104880 1_565
Co0_3 Hf2_0 3.104895 1_555
Co0_3 Hf0_3 3.105005 1_555
Co0_4 Hf4_1 2.549221 1_555
Co0_4 Hf4_5 2.549224 1_555
Co0_4 Hf5_2 2.549297 1_556
Co0_4 Hf5_6 2.549298 1_556
Co0_4 Hf3_2 2.549597 1_655
Co0_4 Hf3_6 2.549597 1_555
Co0_4 Hf1_6 3.104880 1_556
Co0_4 Hf2_7 3.104895 1_555
Co0_4 Hf0_4 3.105005 1_555
Co0_5 Hf4_0 2.549221 1_555
Co0_5 Hf4_4 2.549224 1_555
Co0_5 Hf5_3 2.549297 1_555
Co0_5 Hf5_7 2.549298 1_555
Co0_5 Hf3_3 2.549597 1_655
Co0_5 Hf3_7 2.549597 1_555
Co0_5 Hf1_7 3.104880 1_555
Co0_5 Hf2_6 3.104895 1_555
Co0_5 Hf0_5 3.105005 1_555
Co0_6 Hf4_3 2.549221 1_555
Co0_6 Hf4_7 2.549224 1_555
Co0_6 Hf5_0 2.549297 1_556
Co0_6 Hf5_4 2.549298 1_556
Co0_6 Hf3_0 2.549597 1_665
Co0_6 Hf3_4 2.549597 1_565
Co0_6 Hf1_4 3.104880 1_566
Co0_6 Hf2_5 3.104895 1_555
Co0_6 Hf0_6 3.105005 1_555
Co0_7 Hf4_2 2.549221 1_555
Co0_7 Hf4_6 2.549224 1_555
Co0_7 Hf5_1 2.549297 1_555
Co0_7 Hf5_5 2.549298 1_555
Co0_7 Hf3_1 2.549597 1_665
Co0_7 Hf3_5 2.549597 1_565
Co0_7 Hf1_5 3.104880 1_565
Co0_7 Hf2_4 3.104895 1_555
Co0_7 Hf0_7 3.105005 1_555
