# generated using pymatgen
data_Ba3Cd(SnS4)2
_symmetry_space_group_name_H-M   'P 1'
_cell_length_a   12.95531599
_cell_length_b   12.95531599
_cell_length_c   12.95531599
_cell_angle_alpha   109.53865499
_cell_angle_beta   109.53865499
_cell_angle_gamma   109.33643595
_symmetry_Int_Tables_number   1
_chemical_formula_structural   Ba3Cd(SnS4)2
_chemical_formula_sum   'Ba12 Cd4 Sn8 S32'
_cell_volume   1673.86465066
_cell_formula_units_Z   4
loop_
 _symmetry_equiv_pos_site_id
 _symmetry_equiv_pos_as_xyz
  1  'x, y, z'
loop_
 _atom_site_type_symbol
 _atom_site_label
 _atom_site_symmetry_multiplicity
 _atom_site_fract_x
 _atom_site_fract_y
 _atom_site_fract_z
 _atom_site_occupancy
  Ba  Ba0  1  0.89439200  0.39439200  0.50000000  1
  Ba  Ba1  1  0.85560800  0.85560800  0.00000000  1
  Ba  Ba2  1  0.14439200  0.14439200  0.00000000  1
  Ba  Ba3  1  0.60560800  0.10560800  0.50000000  1
  Ba  Ba4  1  0.37500000  0.64347700  0.76847700  1
  Ba  Ba5  1  0.87500000  0.60652300  0.23152300  1
  Ba  Ba6  1  0.87500000  0.89145500  0.51645500  1
  Ba  Ba7  1  0.37500000  0.35854500  0.48354500  1
  Ba  Ba8  1  0.64145500  0.12500000  0.01645500  1
  Ba  Ba9  1  0.10854500  0.62500000  0.98354500  1
  Ba  Ba10  1  0.39347700  0.62500000  0.26847700  1
  Ba  Ba11  1  0.35652300  0.12500000  0.73152300  1
  Cd  Cd0  1  0.87500000  0.24981300  0.87481300  1
  Cd  Cd1  1  0.37500000  0.00018700  0.12518700  1
  Cd  Cd2  1  0.75018700  0.62500000  0.62518700  1
  Cd  Cd3  1  0.99981300  0.12500000  0.37481300  1
  Sn  Sn0  1  0.08538600  0.38004200  0.25739600  1
  Sn  Sn1  1  0.12264600  0.82799000  0.74260400  1
  Sn  Sn2  1  0.62735400  0.86995800  0.20534400  1
  Sn  Sn3  1  0.66461400  0.42201000  0.79465600  1
  Sn  Sn4  1  0.13004200  0.33538600  0.75739600  1
  Sn  Sn5  1  0.57799000  0.37264600  0.24260400  1
  Sn  Sn6  1  0.61995800  0.87735400  0.70534400  1
  Sn  Sn7  1  0.17201000  0.91461400  0.29465600  1
  S  S0  1  0.64369200  0.70174800  0.23124000  1
  S  S1  1  0.47050700  0.41245200  0.76876000  1
  S  S2  1  0.27949300  0.54825200  0.44194400  1
  S  S3  1  0.10630800  0.83754800  0.55805600  1
  S  S4  1  0.45174800  0.89369200  0.73124000  1
  S  S5  1  0.16245200  0.72050700  0.26876000  1
  S  S6  1  0.29825200  0.52949300  0.94194400  1
  S  S7  1  0.58754800  0.35630800  0.05805600  1
  S  S8  1  0.09698300  0.38929100  0.07332700  1
  S  S9  1  0.65301700  0.22634500  0.79230800  1
  S  S10  1  0.31596300  0.02365500  0.92667300  1
  S  S11  1  0.43403700  0.86070900  0.20769200  1
  S  S12  1  0.59795200  0.19812100  0.26957300  1
  S  S13  1  0.15204800  0.92162200  0.10016900  1
  S  S14  1  0.82145200  0.05187900  0.89983100  1
  S  S15  1  0.92854800  0.32837800  0.73042700  1
  S  S16  1  0.94812100  0.84795200  0.76957300  1
  S  S17  1  0.67162200  0.40204800  0.60016900  1
  S  S18  1  0.80187900  0.07145200  0.39983100  1
  S  S19  1  0.07837800  0.17854800  0.23042700  1
  S  S20  1  0.13929100  0.34698300  0.57332700  1
  S  S21  1  0.97634500  0.90301700  0.29230800  1
  S  S22  1  0.77365500  0.56596300  0.42667300  1
  S  S23  1  0.61070900  0.68403700  0.70769200  1
  S  S24  1  0.89556300  0.37231400  0.24858900  1
  S  S25  1  0.12372400  0.64697400  0.75141100  1
  S  S26  1  0.62627600  0.87768600  0.02325000  1
  S  S27  1  0.85443700  0.60302600  0.97675000  1
  S  S28  1  0.12231400  0.14556300  0.74858900  1
  S  S29  1  0.39697400  0.37372400  0.25141100  1
  S  S30  1  0.62768600  0.87627600  0.52325000  1
  S  S31  1  0.35302600  0.10443700  0.47675000  1
loop_
_geom_bond_atom_site_label_1
_geom_bond_atom_site_label_2
_geom_bond_distance
_geom_bond_site_symmetry_2
Ba0 S25 3.178609 1_655
Ba0 S24 3.178612 1_555
Ba0 S12 3.303585 1_555
Ba0 S15 3.303593 1_555
Ba0 S22 3.318236 1_555
Ba0 S20 3.318240 1_655
Ba0 S17 3.554136 1_555
Ba0 S18 3.554148 1_555
Ba1 S26 3.178604 1_555
Ba1 S27 3.178609 1_554
Ba1 S13 3.303582 1_655
Ba1 S14 3.303585 1_564
Ba1 S23 3.318240 1_554
Ba1 S21 3.318240 1_555
Ba1 S19 3.554146 1_665
Ba1 S16 3.554148 1_554
Ba2 S29 3.178609 1_555
Ba2 S28 3.178612 1_554
Ba2 S16 3.303585 1_444
Ba2 S19 3.303593 1_555
Ba2 S10 3.318236 1_554
Ba2 S8 3.318240 1_555
Ba2 S13 3.554136 1_545
Ba2 S14 3.554148 1_454
Ba3 S30 3.178604 1_545
Ba3 S31 3.178609 1_555
Ba3 S17 3.303582 1_555
Ba3 S18 3.303585 1_555
Ba3 S11 3.318240 1_545
Ba3 S9 3.318240 1_555
Ba3 S15 3.554146 1_555
Ba3 S12 3.554148 1_555
Ba4 S26 3.204875 1_556
Ba4 S25 3.204878 1_555
Ba4 S6 3.310856 1_555
Ba4 S4 3.310864 1_555
Ba4 S23 3.323237 1_555
Ba4 S20 3.323238 1_555
Ba4 S1 3.598026 1_555
Ba4 S2 3.598036 1_555
Ba5 S24 3.204865 1_555
Ba5 S27 3.204878 1_554
Ba5 S5 3.310863 1_655
Ba5 S7 3.310864 1_555
Ba5 S21 3.323237 1_555
Ba5 S22 3.323249 1_555
Ba5 S0 3.598034 1_555
Ba5 S3 3.598034 1_655
Ba6 S28 3.177290 1_665
Ba6 S30 3.177299 1_555
Ba6 S0 3.211795 1_555
Ba6 S3 3.211795 1_655
Ba6 S16 3.388253 1_555
Ba6 S18 3.388253 1_565
Ba6 S21 3.590245 1_555
Ba6 S22 3.590247 1_555
Ba7 S31 3.177286 1_555
Ba7 S29 3.177286 1_555
Ba7 S2 3.211787 1_555
Ba7 S1 3.211796 1_555
Ba7 S19 3.388260 1_555
Ba7 S17 3.388265 1_555
Ba7 S20 3.590237 1_555
Ba7 S23 3.590245 1_555
Ba8 S24 3.177290 1_555
Ba8 S26 3.177299 1_545
Ba8 S4 3.211795 1_544
Ba8 S7 3.211795 1_555
Ba8 S14 3.388253 1_554
Ba8 S12 3.388253 1_555
Ba8 S9 3.590245 1_554
Ba8 S10 3.590247 1_554
Ba9 S25 3.177286 1_555
Ba9 S27 3.177286 1_455
Ba9 S6 3.211787 1_555
Ba9 S5 3.211796 1_556
Ba9 S15 3.388260 1_455
Ba9 S13 3.388265 1_556
Ba9 S8 3.590237 1_556
Ba9 S11 3.590245 1_556
Ba10 S30 3.204875 1_555
Ba10 S29 3.204878 1_555
Ba10 S2 3.310856 1_555
Ba10 S0 3.310864 1_555
Ba10 S11 3.323237 1_555
Ba10 S8 3.323238 1_555
Ba10 S5 3.598026 1_555
Ba10 S6 3.598036 1_554
Ba11 S28 3.204865 1_555
Ba11 S31 3.204878 1_555
Ba11 S1 3.310863 1_555
Ba11 S3 3.310864 1_545
Ba11 S9 3.323237 1_555
Ba11 S10 3.323249 1_555
Ba11 S4 3.598034 1_545
Ba11 S7 3.598034 1_556
Cd0 S8 2.579334 1_656
Cd0 S9 2.579339 1_555
Cd0 S15 2.586536 1_555
Cd0 S14 2.586543 1_555
Cd1 S10 2.579327 1_554
Cd1 S11 2.579339 1_545
Cd1 S12 2.586543 1_555
Cd1 S13 2.586543 1_545
Cd2 S22 2.579327 1_555
Cd2 S23 2.579339 1_555
Cd2 S16 2.586543 1_555
Cd2 S17 2.586543 1_555
Cd3 S20 2.579334 1_655
Cd3 S21 2.579339 1_545
Cd3 S19 2.586536 1_655
Cd3 S18 2.586543 1_555
S0 Sn2 2.377670 1_555
S1 Sn3 2.377683 1_555
S2 Sn0 2.377676 1_555
S3 Sn1 2.377670 1_555
S4 Sn6 2.377670 1_555
S5 Sn7 2.377683 1_555
S6 Sn4 2.377676 1_555
S7 Sn5 2.377670 1_555
S8 Sn0 2.478396 1_555
S9 Sn3 2.478383 1_555
S10 Sn1 2.478386 1_545
S11 Sn2 2.478383 1_555
S12 Sn5 2.481208 1_555
S13 Sn7 2.481214 1_555
S14 Sn6 2.481208 1_545
S15 Sn4 2.481204 1_655
S16 Sn1 2.481208 1_655
S17 Sn3 2.481214 1_555
S18 Sn2 2.481208 1_545
S19 Sn0 2.481204 1_555
S20 Sn4 2.478396 1_555
S21 Sn7 2.478383 1_655
S22 Sn5 2.478386 1_555
S23 Sn6 2.478383 1_555
S24 Sn0 2.390066 1_655
S25 Sn1 2.390062 1_555
S26 Sn2 2.390057 1_555
S27 Sn3 2.390062 1_555
S28 Sn4 2.390066 1_555
S29 Sn5 2.390062 1_555
S30 Sn6 2.390057 1_555
S31 Sn7 2.390062 1_545
