# generated using pymatgen
data_Li9Mn2Co5O16
_symmetry_space_group_name_H-M   'P 1'
_cell_length_a   6.64439570
_cell_length_b   6.64439570
_cell_length_c   15.48031495
_cell_angle_alpha   88.29749998
_cell_angle_beta   88.29749998
_cell_angle_gamma   25.16013339
_symmetry_Int_Tables_number   1
_chemical_formula_structural   Li9Mn2Co5O16
_chemical_formula_sum   'Li9 Mn2 Co5 O16'
_cell_volume   290.42315640
_cell_formula_units_Z   1
loop_
 _symmetry_equiv_pos_site_id
 _symmetry_equiv_pos_as_xyz
  1  'x, y, z'
loop_
 _atom_site_type_symbol
 _atom_site_label
 _atom_site_symmetry_multiplicity
 _atom_site_fract_x
 _atom_site_fract_y
 _atom_site_fract_z
 _atom_site_occupancy
  Li  Li0  1  0.68613200  0.68613200  0.93081000  1
  Li  Li1  1  0.06561400  0.06561400  0.80493900  1
  Li  Li2  1  0.43464900  0.43464900  0.68996400  1
  Li  Li3  1  0.31107900  0.31107900  0.06183500  1
  Li  Li4  1  0.93524300  0.93524300  0.18517100  1
  Li  Li5  1  0.56645300  0.56645300  0.31464000  1
  Li  Li6  1  0.81134100  0.81134100  0.57134400  1
  Li  Li7  1  0.18929000  0.18929000  0.44271900  1
  Li  Li8  1  0.74941200  0.74941200  0.74911700  1
  Mn  Mn0  1  0.99652500  0.99652500  0.99986500  1
  Mn  Mn1  1  0.87638400  0.87638400  0.37391300  1
  Co  Co0  1  0.36096200  0.36096200  0.86641900  1
  Co  Co1  1  0.13800200  0.13800200  0.63128800  1
  Co  Co2  1  0.50445200  0.50445200  0.50554000  1
  Co  Co3  1  0.24937000  0.24937000  0.24558200  1
  Co  Co4  1  0.62427500  0.62427500  0.12689200  1
  O  O0  1  0.52802900  0.52802900  0.92118900  1
  O  O1  1  0.90655600  0.90655600  0.79078200  1
  O  O2  1  0.27331100  0.27331100  0.65264900  1
  O  O3  1  0.14035500  0.14035500  0.04020300  1
  O  O4  1  0.78113500  0.78113500  0.15894700  1
  O  O5  1  0.40470300  0.40470300  0.29149100  1
  O  O6  1  0.64965100  0.64965100  0.53379700  1
  O  O7  1  0.02046800  0.02046800  0.40830700  1
  O  O8  1  0.85722600  0.85722600  0.96471400  1
  O  O9  1  0.22508900  0.22508900  0.84960900  1
  O  O10  1  0.59441000  0.59441000  0.70941800  1
  O  O11  1  0.46797000  0.46797000  0.08310000  1
  O  O12  1  0.09857700  0.09857700  0.21316400  1
  O  O13  1  0.73297300  0.73297300  0.34124400  1
  O  O14  1  0.97004700  0.97004700  0.58659800  1
  O  O15  1  0.35031700  0.35031700  0.45475100  1
loop_
_geom_bond_atom_site_label_1
_geom_bond_atom_site_label_2
_geom_bond_distance
_geom_bond_site_symmetry_2
Li0 O9 1.972569 1_655
Li0 O9 1.972569 1_565
Li0 O0 2.060477 1_555
Li0 O3 2.292015 1_566
Li0 O3 2.292015 1_656
Li0 O8 2.295766 1_555
Li1 O1 2.081176 1_445
Li1 O10 2.094449 1_545
Li1 O10 2.094449 1_455
Li1 O9 2.200759 1_555
Li1 O0 2.348839 1_545
Li1 O0 2.348839 1_455
Li2 O10 2.102885 1_555
Li2 O1 2.151329 1_455
Li2 O1 2.151329 1_545
Li2 O2 2.187667 1_555
Li2 O14 2.195633 1_545
Li2 O14 2.195633 1_455
Li3 O11 2.071163 1_555
Li3 O4 2.114138 1_455
Li3 O4 2.114138 1_545
Li3 O8 2.158275 1_454
Li3 O8 2.158275 1_544
Li3 O3 2.249485 1_555
Li4 O4 2.051628 1_555
Li4 O11 2.174934 1_655
Li4 O11 2.174934 1_565
Li4 O12 2.175156 1_665
Li4 O5 2.218196 1_655
Li4 O5 2.218196 1_565
Li5 O7 2.121287 1_655
Li5 O7 2.121287 1_565
Li5 O5 2.138971 1_555
Li5 O12 2.166961 1_565
Li5 O12 2.166961 1_655
Li5 O13 2.210921 1_555
Li6 O2 1.970773 1_565
Li6 O2 1.970773 1_655
Li6 O14 2.079009 1_555
Li6 O6 2.193125 1_555
Li6 O15 2.356259 1_655
Li6 O15 2.356259 1_565
Li7 O6 2.074212 1_455
Li7 O6 2.074212 1_545
Li7 O15 2.102411 1_555
Li7 O13 2.197438 1_455
Li7 O13 2.197438 1_545
Li7 O7 2.269153 1_555
Li8 O2 2.095786 1_655
Li8 O2 2.095786 1_565
Li8 O10 2.119989 1_555
Li8 O9 2.141026 1_655
Li8 O9 2.141026 1_565
Li8 O1 2.156380 1_555
Mn0 O8 1.902636 1_555
Mn0 O0 1.927257 1_655
Mn0 O0 1.927257 1_565
Mn0 O11 1.965366 1_566
Mn0 O11 1.965366 1_656
Mn0 O3 1.985125 1_666
Mn1 O15 1.936195 1_655
Mn1 O15 1.936195 1_565
Mn1 O13 1.942332 1_555
Mn1 O5 1.956694 1_655
Mn1 O5 1.956694 1_565
Mn1 O7 1.958629 1_665
Co0 O9 1.789169 1_555
Co0 O1 1.942374 1_455
Co0 O1 1.942374 1_545
Co0 O8 2.099417 1_545
Co0 O8 2.099417 1_455
Co0 O0 2.350705 1_555
Co1 O2 1.795672 1_555
Co1 O10 1.958358 1_455
Co1 O10 1.958358 1_545
Co1 O6 2.093064 1_455
Co1 O6 2.093064 1_545
Co1 O14 2.305538 1_445
Co2 O6 1.946259 1_555
Co2 O14 1.958027 1_545
Co2 O14 1.958027 1_455
Co2 O7 2.093811 1_565
Co2 O7 2.093811 1_655
Co2 O15 2.170305 1_555
Co3 O4 2.007250 1_545
Co3 O4 2.007250 1_455
Co3 O12 2.033852 1_555
Co3 O13 2.076864 1_455
Co3 O13 2.076864 1_545
Co3 O5 2.156614 1_555
Co4 O3 1.980318 1_655
Co4 O3 1.980318 1_565
Co4 O12 1.990454 1_655
Co4 O12 1.990454 1_565
Co4 O4 2.108704 1_555
Co4 O11 2.157066 1_555
