# generated using pymatgen
data_BaNaN
_symmetry_space_group_name_H-M   'P 1'
_cell_length_a   9.87353900
_cell_length_b   4.33628400
_cell_length_c   6.51354400
_cell_angle_alpha   90.00000000
_cell_angle_beta   90.00000000
_cell_angle_gamma   90.00000000
_symmetry_Int_Tables_number   1
_chemical_formula_structural   BaNaN
_chemical_formula_sum   'Ba4 Na4 N4'
_cell_volume   278.87392890
_cell_formula_units_Z   4
loop_
 _symmetry_equiv_pos_site_id
 _symmetry_equiv_pos_as_xyz
  1  'x, y, z'
loop_
 _atom_site_type_symbol
 _atom_site_label
 _atom_site_symmetry_multiplicity
 _atom_site_fract_x
 _atom_site_fract_y
 _atom_site_fract_z
 _atom_site_occupancy
  Ba  Ba0  1  0.65338900  0.25000000  0.46859800  1
  Ba  Ba1  1  0.15338900  0.25000000  0.03140200  1
  Ba  Ba2  1  0.34661100  0.75000000  0.53140200  1
  Ba  Ba3  1  0.84661100  0.75000000  0.96859800  1
  Na  Na0  1  0.56235100  0.25000000  0.93053700  1
  Na  Na1  1  0.06235100  0.25000000  0.56946300  1
  Na  Na2  1  0.43764900  0.75000000  0.06946300  1
  Na  Na3  1  0.93764900  0.75000000  0.43053700  1
  N  N0  1  0.89833400  0.25000000  0.24107400  1
  N  N1  1  0.39833400  0.25000000  0.25892600  1
  N  N2  1  0.10166600  0.75000000  0.75892600  1
  N  N3  1  0.60166600  0.75000000  0.74107400  1
loop_
_geom_bond_atom_site_label_1
_geom_bond_atom_site_label_2
_geom_bond_distance
_geom_bond_site_symmetry_2
Ba0 N0 2.836424 1_555
Ba0 N3 2.848070 1_545
Ba0 N3 2.848070 1_555
Ba0 N1 2.864781 1_555
Ba1 N1 2.836424 1_555
Ba1 N2 2.848070 1_544
Ba1 N2 2.848070 1_554
Ba1 N0 2.864781 1_455
Ba2 N2 2.836424 1_555
Ba2 N1 2.848070 1_555
Ba2 N1 2.848070 1_565
Ba2 N3 2.864781 1_555
Ba3 N3 2.836424 1_555
Ba3 N0 2.848070 1_556
Ba3 N0 2.848070 1_566
Ba3 N2 2.864781 1_655
N0 Na3 2.524770 1_545
N0 Na3 2.524770 1_555
N0 Na1 2.682865 1_655
N1 Na2 2.524770 1_545
N1 Na2 2.524770 1_555
N1 Na0 2.682865 1_554
N2 Na1 2.524770 1_565
N2 Na1 2.524770 1_555
N2 Na3 2.682865 1_455
N3 Na0 2.524770 1_555
N3 Na0 2.524770 1_565
N3 Na2 2.682865 1_556
