# generated using pymatgen
data_TiH
_symmetry_space_group_name_H-M   'P 1'
_cell_length_a   2.95527815
_cell_length_b   2.95527815
_cell_length_c   2.95527815
_cell_angle_alpha   60.00000000
_cell_angle_beta   60.00000000
_cell_angle_gamma   60.00000000
_symmetry_Int_Tables_number   1
_chemical_formula_structural   TiH
_chemical_formula_sum   'Ti1 H1'
_cell_volume   18.25072371
_cell_formula_units_Z   1
loop_
 _symmetry_equiv_pos_site_id
 _symmetry_equiv_pos_as_xyz
  1  'x, y, z'
loop_
 _atom_site_type_symbol
 _atom_site_label
 _atom_site_symmetry_multiplicity
 _atom_site_fract_x
 _atom_site_fract_y
 _atom_site_fract_z
 _atom_site_occupancy
  Ti  Ti0  1  0.00000000  -0.00000000  0.00000000  1
  H  H0  1  0.50000000  0.50000000  0.50000000  1
loop_
_geom_bond_atom_site_label_1
_geom_bond_atom_site_label_2
_geom_bond_distance
_geom_bond_site_symmetry_2
H0 Ti0 2.089697 1_556
H0 Ti0 2.089697 1_566
H0 Ti0 2.089697 1_565
H0 Ti0 2.089697 1_656
H0 Ti0 2.089697 1_655
H0 Ti0 2.089697 1_665
