# generated using pymatgen
data_MnCoSi2
_symmetry_space_group_name_H-M   'P 1'
_cell_length_a   4.43739400
_cell_length_b   4.49414100
_cell_length_c   4.50506622
_cell_angle_alpha   89.39371795
_cell_angle_beta   90.00000000
_cell_angle_gamma   90.00000000
_symmetry_Int_Tables_number   1
_chemical_formula_structural   MnCoSi2
_chemical_formula_sum   'Mn2 Co2 Si4'
_cell_volume   89.83623650
_cell_formula_units_Z   2
loop_
 _symmetry_equiv_pos_site_id
 _symmetry_equiv_pos_as_xyz
  1  'x, y, z'
loop_
 _atom_site_type_symbol
 _atom_site_label
 _atom_site_symmetry_multiplicity
 _atom_site_fract_x
 _atom_site_fract_y
 _atom_site_fract_z
 _atom_site_occupancy
  Mn  Mn0  1  0.63781100  0.89333900  0.87124800  1
  Mn  Mn1  1  0.13781100  0.10666100  0.12875200  1
  Co  Co0  1  0.36423700  0.38991300  0.63644100  1
  Co  Co1  1  0.86423700  0.61008700  0.36355900  1
  Si  Si0  1  0.65745900  0.08808400  0.35092000  1
  Si  Si1  1  0.15745900  0.91191600  0.64908000  1
  Si  Si2  1  0.34049300  0.58830600  0.15743500  1
  Si  Si3  1  0.84049300  0.41169400  0.84256500  1
loop_
_geom_bond_atom_site_label_1
_geom_bond_atom_site_label_2
_geom_bond_distance
_geom_bond_site_symmetry_2
Mn0 Si2 2.290137 1_556
Mn0 Si0 2.341654 1_566
Mn0 Si3 2.348810 1_555
Mn0 Si1 2.355909 1_555
Mn0 Si0 2.495003 1_565
Mn0 Si3 2.499212 1_565
Mn0 Si1 2.514769 1_655
Mn1 Si3 2.290137 1_454
Mn1 Si1 2.341654 1_544
Mn1 Si2 2.348810 1_555
Mn1 Si0 2.355909 1_455
Mn1 Si1 2.495003 1_545
Mn1 Si2 2.499212 1_545
Mn1 Si0 2.514769 1_555
Co0 Si0 2.285701 1_555
Co0 Si3 2.310843 1_555
Co0 Si2 2.328542 1_555
Co0 Si1 2.336079 1_545
Co0 Si3 2.505006 1_455
Co0 Si1 2.520215 1_555
Co0 Si2 2.521763 1_556
Co0 Co1 2.717954 1_455
Co0 Co1 2.717954 1_555
Co0 Mn1 2.736653 1_556
Co0 Mn0 2.742824 1_545
Co0 Mn0 2.786051 1_555
Co0 Mn1 2.814737 1_555
Co1 Si1 2.285701 1_655
Co1 Si2 2.310843 1_655
Co1 Si3 2.328542 1_555
Co1 Si0 2.336079 1_565
Co1 Si2 2.505006 1_555
Co1 Si0 2.520215 1_555
Co1 Si3 2.521763 1_554
Co1 Mn0 2.736653 1_554
Co1 Mn1 2.742824 1_665
Co1 Mn1 2.786051 1_655
Co1 Mn0 2.814737 1_555
