# generated using pymatgen
data_ZnSb2O5
_symmetry_space_group_name_H-M   'P 1'
_cell_length_a   3.99476300
_cell_length_b   5.40058884
_cell_length_c   13.56339571
_cell_angle_alpha   90.73685827
_cell_angle_beta   92.97160679
_cell_angle_gamma   111.38018025
_symmetry_Int_Tables_number   1
_chemical_formula_structural   ZnSb2O5
_chemical_formula_sum   'Zn2 Sb4 O10'
_cell_volume   271.95518131
_cell_formula_units_Z   2
loop_
 _symmetry_equiv_pos_site_id
 _symmetry_equiv_pos_as_xyz
  1  'x, y, z'
loop_
 _atom_site_type_symbol
 _atom_site_label
 _atom_site_symmetry_multiplicity
 _atom_site_fract_x
 _atom_site_fract_y
 _atom_site_fract_z
 _atom_site_occupancy
  Zn  Zn0  1  0.43295600  0.86074100  0.23635900  1
  Zn  Zn1  1  0.38820500  0.06111200  0.74306500  1
  Sb  Sb0  1  0.70689200  0.45281500  0.11632500  1
  Sb  Sb1  1  0.27749700  0.54652700  0.89369000  1
  Sb  Sb2  1  0.30801700  0.53117900  0.59792400  1
  Sb  Sb3  1  0.73004900  0.43853400  0.39003000  1
  O  O0  1  0.30527900  0.39315500  0.74292500  1
  O  O1  1  0.81429500  0.64001000  0.25444500  1
  O  O2  1  0.24936200  0.54140300  0.13019200  1
  O  O3  1  0.74492200  0.57252000  0.97759900  1
  O  O4  1  0.26997700  0.51332300  0.41778600  1
  O  O5  1  0.77073100  0.47610700  0.55222400  1
  O  O6  1  0.54278200  0.06933900  0.35733700  1
  O  O7  1  0.48152100  0.90616500  0.62716500  1
  O  O8  1  0.47523500  0.91503100  0.86238000  1
  O  O9  1  0.51644500  0.07934700  0.11868600  1
loop_
_geom_bond_atom_site_label_1
_geom_bond_atom_site_label_2
_geom_bond_distance
_geom_bond_site_symmetry_2
O0 Zn1 1.938699 1_555
O0 Sb2 2.111322 1_555
O0 Sb1 2.219672 1_555
O1 Sb0 2.065760 1_555
O1 Sb3 2.127848 1_555
O1 Zn0 2.257135 1_555
O1 Zn0 2.347639 1_655
O2 Sb0 2.039567 1_455
O2 Sb0 2.067783 1_555
O2 Zn0 2.118998 1_555
O3 Sb0 1.992669 1_556
O3 Sb1 2.094285 1_555
O3 Sb1 2.511165 1_655
O4 Sb3 2.057604 1_455
O4 Sb3 2.071649 1_555
O4 Sb2 2.438603 1_555
O5 Sb2 2.098634 1_555
O5 Sb2 2.114542 1_655
O5 Sb3 2.198763 1_555
O6 Sb3 1.893968 1_555
O6 Zn0 1.916120 1_545
O7 Zn1 1.888053 1_565
O7 Sb2 1.914769 1_555
O8 Zn1 1.880612 1_565
O8 Sb1 1.917105 1_555
O9 Sb0 1.879705 1_555
O9 Zn0 1.966973 1_545
