# generated using pymatgen
data_Er2MgS4
_symmetry_space_group_name_H-M   'P 1'
_cell_length_a   12.52137300
_cell_length_b   3.81420600
_cell_length_c   13.27238800
_cell_angle_alpha   90.00000000
_cell_angle_beta   90.00000000
_cell_angle_gamma   90.00000000
_symmetry_Int_Tables_number   1
_chemical_formula_structural   Er2MgS4
_chemical_formula_sum   'Er8 Mg4 S16'
_cell_volume   633.87725297
_cell_formula_units_Z   4
loop_
 _symmetry_equiv_pos_site_id
 _symmetry_equiv_pos_as_xyz
  1  'x, y, z'
loop_
 _atom_site_type_symbol
 _atom_site_label
 _atom_site_symmetry_multiplicity
 _atom_site_fract_x
 _atom_site_fract_y
 _atom_site_fract_z
 _atom_site_occupancy
  Er  Er0  1  0.11490100  0.25000000  0.07736100  1
  Er  Er1  1  0.88509900  0.75000000  0.92263900  1
  Er  Er2  1  0.38509900  0.75000000  0.57736100  1
  Er  Er3  1  0.61490100  0.25000000  0.42263900  1
  Er  Er4  1  0.14167600  0.25000000  0.70434700  1
  Er  Er5  1  0.85832400  0.75000000  0.29565300  1
  Er  Er6  1  0.35832400  0.75000000  0.20434700  1
  Er  Er7  1  0.64167600  0.25000000  0.79565300  1
  Mg  Mg0  1  0.11516100  0.75000000  0.44463000  1
  Mg  Mg1  1  0.88483900  0.25000000  0.55537000  1
  Mg  Mg2  1  0.38483900  0.25000000  0.94463000  1
  Mg  Mg3  1  0.61516100  0.75000000  0.05537000  1
  S  S0  1  0.01388400  0.75000000  0.61402000  1
  S  S1  1  0.98611600  0.25000000  0.38598000  1
  S  S2  1  0.48611600  0.25000000  0.11402000  1
  S  S3  1  0.51388400  0.75000000  0.88598000  1
  S  S4  1  0.03018000  0.25000000  0.88283500  1
  S  S5  1  0.96982000  0.75000000  0.11716500  1
  S  S6  1  0.46982000  0.75000000  0.38283500  1
  S  S7  1  0.53018000  0.25000000  0.61716500  1
  S  S8  1  0.22184000  0.25000000  0.25245300  1
  S  S9  1  0.77816000  0.75000000  0.74754700  1
  S  S10  1  0.27816000  0.75000000  0.75245300  1
  S  S11  1  0.72184000  0.25000000  0.24754700  1
  S  S12  1  0.25822600  0.75000000  0.01699100  1
  S  S13  1  0.74177400  0.25000000  0.98300900  1
  S  S14  1  0.24177400  0.25000000  0.51699100  1
  S  S15  1  0.75822600  0.75000000  0.48300900  1
loop_
_geom_bond_atom_site_label_1
_geom_bond_atom_site_label_2
_geom_bond_distance
_geom_bond_site_symmetry_2
Er0 S8 2.682059 1_555
Er0 S5 2.686302 1_445
Er0 S5 2.686302 1_455
Er0 S12 2.738564 1_555
Er0 S12 2.738564 1_545
Er0 S4 2.791266 1_554
Er1 S9 2.682059 1_555
Er1 S4 2.686302 1_655
Er1 S4 2.686302 1_665
Er1 S13 2.738564 1_555
Er1 S13 2.738564 1_565
Er1 S5 2.791266 1_556
Er2 S10 2.682059 1_555
Er2 S7 2.686302 1_555
Er2 S7 2.686302 1_565
Er2 S14 2.738564 1_565
Er2 S14 2.738564 1_555
Er2 S6 2.791266 1_555
Er3 S11 2.682059 1_555
Er3 S6 2.686302 1_555
Er3 S6 2.686302 1_545
Er3 S15 2.738564 1_555
Er3 S15 2.738564 1_545
Er3 S7 2.791266 1_555
Er4 S10 2.639180 1_555
Er4 S10 2.639180 1_545
Er4 S4 2.749732 1_555
Er4 S0 2.763099 1_545
Er4 S0 2.763099 1_555
Er4 S14 2.784674 1_555
Er5 S11 2.639180 1_565
Er5 S11 2.639180 1_555
Er5 S5 2.749732 1_555
Er5 S1 2.763099 1_555
Er5 S1 2.763099 1_565
Er5 S15 2.784674 1_555
Er6 S8 2.639180 1_555
Er6 S8 2.639180 1_565
Er6 S6 2.749732 1_555
Er6 S2 2.763099 1_565
Er6 S2 2.763099 1_555
Er6 S12 2.784674 1_555
Er7 S9 2.639180 1_555
Er7 S9 2.639180 1_545
Er7 S7 2.749732 1_555
Er7 S3 2.763099 1_545
Er7 S3 2.763099 1_555
Er7 S13 2.784674 1_555
Mg0 S0 2.581200 1_555
Mg0 S1 2.617989 1_455
Mg0 S1 2.617989 1_465
Mg0 S14 2.659475 1_555
Mg0 S14 2.659475 1_565
Mg1 S1 2.581200 1_555
Mg1 S0 2.617989 1_655
Mg1 S0 2.617989 1_645
Mg1 S15 2.659475 1_555
Mg1 S15 2.659475 1_545
Mg2 S2 2.581200 1_556
Mg2 S3 2.617989 1_545
Mg2 S3 2.617989 1_555
Mg2 S12 2.659475 1_546
Mg2 S12 2.659475 1_556
Mg3 S3 2.581200 1_554
Mg3 S2 2.617989 1_555
Mg3 S2 2.617989 1_565
Mg3 S13 2.659475 1_554
Mg3 S13 2.659475 1_564
