# generated using pymatgen
data_Sm5Sn3
_symmetry_space_group_name_H-M   'P 1'
_cell_length_a   6.76376749
_cell_length_b   9.15547138
_cell_length_c   9.15541183
_cell_angle_alpha   120.00028188
_cell_angle_beta   90.00000039
_cell_angle_gamma   90.00000246
_symmetry_Int_Tables_number   1
_chemical_formula_structural   Sm5Sn3
_chemical_formula_sum   'Sm10 Sn6'
_cell_volume   490.99453950
_cell_formula_units_Z   2
loop_
 _symmetry_equiv_pos_site_id
 _symmetry_equiv_pos_as_xyz
  1  'x, y, z'
loop_
 _atom_site_type_symbol
 _atom_site_label
 _atom_site_symmetry_multiplicity
 _atom_site_fract_x
 _atom_site_fract_y
 _atom_site_fract_z
 _atom_site_occupancy
  Sm  Sm0  1  0.50000057  0.33333904  0.66668305  1
  Sm  Sm1  1  0.50000067  0.66665732  0.33331571  1
  Sm  Sm2  1  0.00000063  0.66666007  0.33331599  1
  Sm  Sm3  1  0.00000071  0.33334176  0.66668272  1
  Sm  Sm4  1  0.74999736  0.24036262  0.00000107  1
  Sm  Sm5  1  0.74999858  0.75966018  0.75963939  1
  Sm  Sm6  1  0.74999856  0.00002617  0.24036256  1
  Sm  Sm7  1  0.24999730  0.75963746  -0.00000122  1
  Sm  Sm8  1  0.24999857  0.24033831  0.24036226  1
  Sm  Sm9  1  0.24999862  0.99997936  0.75963984  1
  Sn  Sn0  1  0.74999935  0.60573121  0.99996023  1
  Sn  Sn1  1  0.75000032  0.39425710  0.39429683  1
  Sn  Sn2  1  0.75000057  0.00004471  0.60574447  1
  Sn  Sn3  1  0.24999906  0.39422620  0.99996019  1
  Sn  Sn4  1  0.25000059  0.60569830  0.60574152  1
  Sn  Sn5  1  0.25000056  0.00003919  0.39429439  1
loop_
_geom_bond_atom_site_label_1
_geom_bond_atom_site_label_2
_geom_bond_distance
_geom_bond_site_symmetry_2
Sm0 Sn0 3.283207 1_555
Sm0 Sn3 3.283212 1_555
Sm0 Sn2 3.283219 1_555
Sm0 Sn4 3.283261 1_555
Sm0 Sn5 3.283322 1_555
Sm0 Sn1 3.283339 1_555
Sm0 Sm3 3.381883 1_555
Sm0 Sm3 3.381885 1_655
Sm0 Sm4 3.936268 1_556
Sm0 Sm7 3.936299 1_556
Sm0 Sm6 3.936389 1_555
Sm0 Sm8 3.936423 1_555
Sm0 Sm9 3.936526 1_545
Sm0 Sm5 3.936552 1_555
Sm1 Sn0 3.283703 1_554
Sm1 Sn3 3.283716 1_554
Sm1 Sn1 3.283776 1_555
Sm1 Sn5 3.283788 1_565
Sm1 Sn4 3.283853 1_555
Sm1 Sn2 3.283870 1_565
Sm1 Sm2 3.381883 1_655
Sm1 Sm2 3.381884 1_555
Sm1 Sm4 3.936257 1_555
Sm1 Sm7 3.936299 1_555
Sm1 Sm5 3.936429 1_555
Sm1 Sm9 3.936444 1_555
Sm1 Sm8 3.936554 1_555
Sm1 Sm6 3.936568 1_565
Sm2 Sn0 3.283706 1_454
Sm2 Sn3 3.283714 1_554
Sm2 Sn5 3.283766 1_565
Sm2 Sn1 3.283798 1_455
Sm2 Sn2 3.283856 1_465
Sm2 Sn4 3.283864 1_555
Sm2 Sm7 3.936267 1_555
Sm2 Sm4 3.936292 1_455
Sm2 Sm9 3.936424 1_555
Sm2 Sm5 3.936446 1_455
Sm2 Sm6 3.936559 1_465
Sm2 Sm8 3.936563 1_555
Sm3 Sn0 3.283210 1_455
Sm3 Sn3 3.283211 1_555
Sm3 Sn4 3.283238 1_555
Sm3 Sn2 3.283241 1_455
Sm3 Sn1 3.283325 1_455
Sm3 Sn5 3.283334 1_555
Sm3 Sm7 3.936266 1_556
Sm3 Sm4 3.936305 1_456
Sm3 Sm8 3.936401 1_555
Sm3 Sm6 3.936406 1_455
Sm3 Sm9 3.936538 1_545
Sm3 Sm5 3.936541 1_455
Sm4 Sn2 3.150890 1_554
Sm4 Sn1 3.151272 1_555
Sm4 Sn0 3.345309 1_554
Sm4 Sn3 3.663606 1_554
Sm4 Sn3 3.663627 1_654
Sm4 Sm6 3.811385 1_555
Sm4 Sm5 3.811417 1_544
Sm4 Sm9 4.034871 1_544
Sm4 Sm8 4.034878 1_555
Sm4 Sm9 4.034885 1_644
Sm4 Sm8 4.034891 1_655
Sm5 Sn0 3.150864 1_555
Sm5 Sn2 3.151160 1_565
Sm5 Sn1 3.345135 1_555
Sm5 Sn4 3.663761 1_555
Sm5 Sn4 3.663786 1_655
Sm5 Sm6 3.811556 1_566
Sm5 Sm9 4.034621 1_555
Sm5 Sm9 4.034621 1_655
Sm5 Sm7 4.034864 1_656
Sm5 Sm7 4.034879 1_556
Sm6 Sn1 3.150702 1_555
Sm6 Sn0 3.151284 1_544
Sm6 Sn2 3.345137 1_555
Sm6 Sn5 3.663745 1_555
Sm6 Sn5 3.663770 1_655
Sm6 Sm8 4.034587 1_655
Sm6 Sm8 4.034587 1_555
Sm6 Sm7 4.034891 1_645
Sm6 Sm7 4.034905 1_545
Sm7 Sn4 3.150896 1_554
Sm7 Sn5 3.151271 1_565
Sm7 Sn3 3.345336 1_554
Sm7 Sn0 3.663614 1_454
Sm7 Sn0 3.663639 1_554
Sm7 Sm8 3.811404 1_565
Sm7 Sm9 3.811408 1_554
Sm8 Sn5 3.150710 1_555
Sm8 Sn3 3.151251 1_554
Sm8 Sn4 3.345106 1_555
Sm8 Sn1 3.663751 1_455
Sm8 Sn1 3.663773 1_555
Sm8 Sm9 3.811550 1_544
Sm9 Sn3 3.150839 1_565
Sm9 Sn4 3.151167 1_555
Sm9 Sn5 3.345162 1_565
Sm9 Sn2 3.663755 1_465
Sm9 Sn2 3.663780 1_565
