# generated using pymatgen
data_Mg3B11O24
_symmetry_space_group_name_H-M   'P 1'
_cell_length_a   9.22654069
_cell_length_b   10.74372306
_cell_length_c   16.55632378
_cell_angle_alpha   90.00000000
_cell_angle_beta   90.00000000
_cell_angle_gamma   90.00000000
_symmetry_Int_Tables_number   1
_chemical_formula_structural   Mg3B11O24
_chemical_formula_sum   'Mg12 B44 O96'
_cell_volume   1641.18529635
_cell_formula_units_Z   4
loop_
 _symmetry_equiv_pos_site_id
 _symmetry_equiv_pos_as_xyz
  1  'x, y, z'
loop_
 _atom_site_type_symbol
 _atom_site_label
 _atom_site_symmetry_multiplicity
 _atom_site_fract_x
 _atom_site_fract_y
 _atom_site_fract_z
 _atom_site_occupancy
  Mg  Mg0  1  0.56228540  0.75000000  0.00000000  1
  Mg  Mg1  1  0.93771460  0.25000000  0.50000000  1
  Mg  Mg2  1  0.43771460  0.25000000  0.00000000  1
  Mg  Mg3  1  0.06228540  0.75000000  0.50000000  1
  Mg  Mg4  1  0.94050314  0.91327412  0.16770648  1
  Mg  Mg5  1  0.55949686  0.41327412  0.33229352  1
  Mg  Mg6  1  0.55949686  0.08672588  0.66770648  1
  Mg  Mg7  1  0.94050314  0.58672588  0.83229352  1
  Mg  Mg8  1  0.05949686  0.08672588  0.83229352  1
  Mg  Mg9  1  0.44050314  0.58672588  0.66770648  1
  Mg  Mg10  1  0.44050314  0.91327412  0.33229352  1
  Mg  Mg11  1  0.05949686  0.41327412  0.16770648  1
  B  B0  1  0.86019466  0.75000000  0.00000000  1
  B  B1  1  0.63980534  0.25000000  0.50000000  1
  B  B2  1  0.13980534  0.25000000  0.00000000  1
  B  B3  1  0.36019466  0.75000000  0.50000000  1
  B  B4  1  0.81387631  0.56935576  0.08695138  1
  B  B5  1  0.68612369  0.06935576  0.41304862  1
  B  B6  1  0.68612369  0.43064424  0.58695138  1
  B  B7  1  0.81387631  0.93064424  0.91304862  1
  B  B8  1  0.18612369  0.43064424  0.91304862  1
  B  B9  1  0.31387631  0.93064424  0.58695138  1
  B  B10  1  0.31387631  0.56935576  0.41304862  1
  B  B11  1  0.18612369  0.06935576  0.08695138  1
  B  B12  1  0.04270679  0.69879388  0.10415929  1
  B  B13  1  0.45729321  0.19879388  0.39584071  1
  B  B14  1  0.45729321  0.30120612  0.60415929  1
  B  B15  1  0.04270679  0.80120612  0.89584071  1
  B  B16  1  0.95729321  0.30120612  0.89584071  1
  B  B17  1  0.54270679  0.80120612  0.60415929  1
  B  B18  1  0.54270679  0.69879388  0.39584071  1
  B  B19  1  0.95729321  0.19879388  0.10415929  1
  B  B20  1  0.29898880  0.62189424  0.10220260  1
  B  B21  1  0.20101120  0.12189424  0.39779740  1
  B  B22  1  0.20101120  0.37810576  0.60220260  1
  B  B23  1  0.29898880  0.87810576  0.89779740  1
  B  B24  1  0.70101120  0.37810576  0.89779740  1
  B  B25  1  0.79898880  0.87810576  0.60220260  1
  B  B26  1  0.79898880  0.62189424  0.39779740  1
  B  B27  1  0.70101120  0.12189424  0.10220260  1
  B  B28  1  0.22198471  0.76183011  0.21083979  1
  B  B29  1  0.27801529  0.26183011  0.28916021  1
  B  B30  1  0.27801529  0.23816989  0.71083979  1
  B  B31  1  0.22198471  0.73816989  0.78916021  1
  B  B32  1  0.77801529  0.23816989  0.78916021  1
  B  B33  1  0.72198471  0.73816989  0.71083979  1
  B  B34  1  0.72198471  0.76183011  0.28916021  1
  B  B35  1  0.77801529  0.26183011  0.21083979  1
  B  B36  1  0.64334053  0.90814693  0.17641320  1
  B  B37  1  0.85665947  0.40814693  0.32358680  1
  B  B38  1  0.85665947  0.09185307  0.67641320  1
  B  B39  1  0.64334053  0.59185307  0.82358680  1
  B  B40  1  0.35665947  0.09185307  0.82358680  1
  B  B41  1  0.14334053  0.59185307  0.67641320  1
  B  B42  1  0.14334053  0.90814693  0.32358680  1
  B  B43  1  0.35665947  0.40814693  0.17641320  1
  O  O0  1  0.95035662  0.79216694  0.06720098  1
  O  O1  1  0.54964338  0.29216694  0.43279902  1
  O  O2  1  0.54964338  0.20783306  0.56720098  1
  O  O3  1  0.95035662  0.70783306  0.93279902  1
  O  O4  1  0.04964338  0.20783306  0.93279902  1
  O  O5  1  0.45035662  0.70783306  0.56720098  1
  O  O6  1  0.45035662  0.79216694  0.43279902  1
  O  O7  1  0.04964338  0.29216694  0.06720098  1
  O  O8  1  0.75978964  0.65093389  0.03032895  1
  O  O9  1  0.74021036  0.15093389  0.46967105  1
  O  O10  1  0.74021036  0.34906611  0.53032895  1
  O  O11  1  0.75978964  0.84906611  0.96967105  1
  O  O12  1  0.24021036  0.34906611  0.96967105  1
  O  O13  1  0.25978964  0.84906611  0.53032895  1
  O  O14  1  0.25978964  0.65093389  0.46967105  1
  O  O15  1  0.24021036  0.15093389  0.03032895  1
  O  O16  1  0.73685809  0.47934343  0.12489520  1
  O  O17  1  0.76314191  0.97934343  0.37510480  1
  O  O18  1  0.76314191  0.52065657  0.62489520  1
  O  O19  1  0.73685809  0.02065657  0.87510480  1
  O  O20  1  0.26314191  0.52065657  0.87510480  1
  O  O21  1  0.23685809  0.02065657  0.62489520  1
  O  O22  1  0.23685809  0.47934343  0.37510480  1
  O  O23  1  0.26314191  0.97934343  0.12489520  1
  O  O24  1  0.95865741  0.57564338  0.11441098  1
  O  O25  1  0.54134259  0.07564338  0.38558902  1
  O  O26  1  0.54134259  0.42435662  0.61441098  1
  O  O27  1  0.95865741  0.92435662  0.88558902  1
  O  O28  1  0.04134259  0.42435662  0.88558902  1
  O  O29  1  0.45865741  0.92435662  0.61441098  1
  O  O30  1  0.45865741  0.57564338  0.38558902  1
  O  O31  1  0.04134259  0.07564338  0.11441098  1
  O  O32  1  0.08061146  0.75465679  0.18271691  1
  O  O33  1  0.41938854  0.25465679  0.31728309  1
  O  O34  1  0.41938854  0.24534321  0.68271691  1
  O  O35  1  0.08061146  0.74534321  0.81728309  1
  O  O36  1  0.91938854  0.24534321  0.81728309  1
  O  O37  1  0.58061146  0.74534321  0.68271691  1
  O  O38  1  0.58061146  0.75465679  0.31728309  1
  O  O39  1  0.91938854  0.25465679  0.18271691  1
  O  O40  1  0.16819493  0.65994107  0.05706815  1
  O  O41  1  0.33180507  0.15994107  0.44293185  1
  O  O42  1  0.33180507  0.34005893  0.55706815  1
  O  O43  1  0.16819493  0.84005893  0.94293185  1
  O  O44  1  0.83180507  0.34005893  0.94293185  1
  O  O45  1  0.66819493  0.84005893  0.55706815  1
  O  O46  1  0.66819493  0.65994107  0.44293185  1
  O  O47  1  0.83180507  0.15994107  0.05706815  1
  O  O48  1  0.41819039  0.62701678  0.04613355  1
  O  O49  1  0.08180961  0.12701678  0.45386645  1
  O  O50  1  0.08180961  0.37298322  0.54613355  1
  O  O51  1  0.41819039  0.87298322  0.95386645  1
  O  O52  1  0.58180961  0.37298322  0.95386645  1
  O  O53  1  0.91819039  0.87298322  0.54613355  1
  O  O54  1  0.91819039  0.62701678  0.45386645  1
  O  O55  1  0.58180961  0.12701678  0.04613355  1
  O  O56  1  0.26106224  0.49521993  0.13235882  1
  O  O57  1  0.23893776  0.99521993  0.36764118  1
  O  O58  1  0.23893776  0.50478007  0.63235882  1
  O  O59  1  0.26106224  0.00478007  0.86764118  1
  O  O60  1  0.73893776  0.50478007  0.86764118  1
  O  O61  1  0.76106224  0.00478007  0.63235882  1
  O  O62  1  0.76106224  0.49521993  0.36764118  1
  O  O63  1  0.73893776  0.99521993  0.13235882  1
  O  O64  1  0.33067141  0.69807417  0.17369957  1
  O  O65  1  0.16932859  0.19807417  0.32630043  1
  O  O66  1  0.16932859  0.30192583  0.67369957  1
  O  O67  1  0.33067141  0.80192583  0.82630043  1
  O  O68  1  0.66932859  0.30192583  0.82630043  1
  O  O69  1  0.83067141  0.80192583  0.67369957  1
  O  O70  1  0.83067141  0.69807417  0.32630043  1
  O  O71  1  0.66932859  0.19807417  0.17369957  1
  O  O72  1  0.25175110  0.82966784  0.27976234  1
  O  O73  1  0.24824890  0.32966784  0.22023766  1
  O  O74  1  0.24824890  0.17033216  0.77976234  1
  O  O75  1  0.25175110  0.67033216  0.72023766  1
  O  O76  1  0.74824890  0.17033216  0.72023766  1
  O  O77  1  0.75175110  0.67033216  0.77976234  1
  O  O78  1  0.75175110  0.82966784  0.22023766  1
  O  O79  1  0.74824890  0.32966784  0.27976234  1
  O  O80  1  0.03370969  0.96298204  0.27528807  1
  O  O81  1  0.46629031  0.46298204  0.22471193  1
  O  O82  1  0.46629031  0.03701796  0.77528807  1
  O  O83  1  0.03370969  0.53701796  0.72471193  1
  O  O84  1  0.96629031  0.03701796  0.72471193  1
  O  O85  1  0.53370969  0.53701796  0.77528807  1
  O  O86  1  0.53370969  0.96298204  0.22471193  1
  O  O87  1  0.96629031  0.46298204  0.27528807  1
  O  O88  1  0.06695015  0.84381976  0.38699286  1
  O  O89  1  0.43304985  0.34381976  0.11300714  1
  O  O90  1  0.43304985  0.15618024  0.88699286  1
  O  O91  1  0.06695015  0.65618024  0.61300714  1
  O  O92  1  0.93304985  0.15618024  0.61300714  1
  O  O93  1  0.56695015  0.65618024  0.88699286  1
  O  O94  1  0.56695015  0.84381976  0.11300714  1
  O  O95  1  0.93304985  0.34381976  0.38699286  1
loop_
_geom_bond_atom_site_label_1
_geom_bond_atom_site_label_2
_geom_bond_distance
_geom_bond_site_symmetry_2
Mg0 O51 2.024052 1_554
Mg0 O48 2.024052 1_555
Mg0 O94 2.125662 1_555
Mg0 O93 2.125662 1_554
Mg0 O8 2.169255 1_555
Mg0 O11 2.169255 1_554
Mg1 O50 2.024052 1_655
Mg1 O49 2.024052 1_655
Mg1 O95 2.125662 1_555
Mg1 O92 2.125662 1_555
Mg1 O10 2.169255 1_555
Mg1 O9 2.169255 1_555
Mg2 O55 2.024052 1_555
Mg2 O52 2.024052 1_554
Mg2 O90 2.125662 1_554
Mg2 O89 2.125662 1_555
Mg2 O12 2.169255 1_554
Mg2 O15 2.169255 1_555
Mg3 O53 2.024052 1_455
Mg3 O54 2.024052 1_455
Mg3 O91 2.125662 1_555
Mg3 O88 2.125662 1_555
Mg3 O14 2.169255 1_555
Mg3 O13 2.169255 1_555
Mg4 O80 2.048726 1_655
Mg4 O0 2.114270 1_555
Mg4 O63 2.139223 1_555
Mg4 O78 2.143870 1_555
Mg4 O32 2.153362 1_655
Mg4 O31 2.165027 1_665
Mg5 O81 2.048726 1_555
Mg5 O1 2.114270 1_555
Mg5 O62 2.139223 1_555
Mg5 O79 2.143870 1_555
Mg5 O33 2.153362 1_555
Mg5 O30 2.165027 1_555
Mg6 O82 2.048726 1_555
Mg6 O2 2.114270 1_555
Mg6 O61 2.139223 1_555
Mg6 O76 2.143870 1_555
Mg6 O34 2.153362 1_555
Mg6 O29 2.165027 1_545
Mg7 O83 2.048726 1_655
Mg7 O3 2.114270 1_555
Mg7 O60 2.139223 1_555
Mg7 O77 2.143870 1_555
Mg7 O35 2.153362 1_655
Mg7 O28 2.165027 1_655
Mg8 O84 2.048726 1_455
Mg8 O4 2.114270 1_555
Mg8 O59 2.139223 1_555
Mg8 O74 2.143870 1_555
Mg8 O36 2.153362 1_455
Mg8 O27 2.165027 1_445
Mg9 O85 2.048726 1_555
Mg9 O5 2.114270 1_555
Mg9 O58 2.139223 1_555
Mg9 O75 2.143870 1_555
Mg9 O37 2.153362 1_555
Mg9 O26 2.165027 1_555
Mg10 O86 2.048726 1_555
Mg10 O6 2.114270 1_555
Mg10 O57 2.139223 1_555
Mg10 O72 2.143870 1_555
Mg10 O38 2.153362 1_555
Mg10 O25 2.165027 1_565
Mg11 O87 2.048726 1_455
Mg11 O7 2.114270 1_555
Mg11 O56 2.139223 1_555
Mg11 O73 2.143870 1_555
Mg11 O39 2.153362 1_455
Mg11 O24 2.165027 1_455
B0 O3 1.461214 1_554
B0 O0 1.461214 1_555
B0 O8 1.497718 1_555
B0 O11 1.497718 1_554
B1 O2 1.461214 1_555
B1 O1 1.461214 1_555
B1 O9 1.497718 1_555
B1 O10 1.497718 1_555
B2 O4 1.461214 1_554
B2 O7 1.461214 1_555
B2 O12 1.497718 1_554
B2 O15 1.497718 1_555
B3 O5 1.461214 1_555
B3 O6 1.461214 1_555
B3 O13 1.497718 1_555
B3 O14 1.497718 1_555
B4 O16 1.354561 1_555
B4 O8 1.376965 1_555
B4 O24 1.412689 1_555
B5 O17 1.354561 1_545
B5 O9 1.376965 1_555
B5 O25 1.412689 1_555
B6 O18 1.354561 1_555
B6 O10 1.376965 1_555
B6 O26 1.412689 1_555
B7 O19 1.354561 1_565
B7 O11 1.376965 1_555
B7 O27 1.412689 1_555
B8 O20 1.354561 1_555
B8 O12 1.376965 1_555
B8 O28 1.412689 1_555
B9 O21 1.354561 1_565
B9 O13 1.376965 1_555
B9 O29 1.412689 1_555
B10 O22 1.354561 1_555
B10 O14 1.376965 1_555
B10 O30 1.412689 1_555
B11 O23 1.354561 1_545
B11 O15 1.376965 1_555
B11 O31 1.412689 1_555
B12 O0 1.451482 1_455
B12 O40 1.456934 1_555
B12 O32 1.474499 1_555
B12 O24 1.542973 1_455
B13 O1 1.451482 1_555
B13 O41 1.456934 1_555
B13 O33 1.474499 1_555
B13 O25 1.542973 1_555
B14 O2 1.451482 1_555
B14 O42 1.456934 1_555
B14 O34 1.474499 1_555
B14 O26 1.542973 1_555
B15 O3 1.451482 1_455
B15 O43 1.456934 1_555
B15 O35 1.474499 1_555
B15 O27 1.542973 1_455
B16 O4 1.451482 1_655
B16 O44 1.456934 1_555
B16 O36 1.474499 1_555
B16 O28 1.542973 1_655
B17 O5 1.451482 1_555
B17 O45 1.456934 1_555
B17 O37 1.474499 1_555
B17 O29 1.542973 1_555
B18 O6 1.451482 1_555
B18 O46 1.456934 1_555
B18 O38 1.474499 1_555
B18 O30 1.542973 1_555
B19 O7 1.451482 1_655
B19 O47 1.456934 1_555
B19 O39 1.474499 1_555
B19 O31 1.542973 1_655
B20 O48 1.440266 1_555
B20 O64 1.468513 1_555
B20 O40 1.477089 1_555
B20 O56 1.491282 1_555
B21 O49 1.440266 1_555
B21 O65 1.468513 1_555
B21 O41 1.477089 1_555
B21 O57 1.491282 1_545
B22 O50 1.440266 1_555
B22 O66 1.468513 1_555
B22 O42 1.477089 1_555
B22 O58 1.491282 1_555
B23 O51 1.440266 1_555
B23 O67 1.468513 1_555
B23 O43 1.477089 1_555
B23 O59 1.491282 1_565
B24 O52 1.440266 1_555
B24 O68 1.468513 1_555
B24 O44 1.477089 1_555
B24 O60 1.491282 1_555
B25 O53 1.440266 1_555
B25 O69 1.468513 1_555
B25 O45 1.477089 1_555
B25 O61 1.491282 1_565
B26 O54 1.440266 1_555
B26 O70 1.468513 1_555
B26 O46 1.477089 1_555
B26 O62 1.491282 1_555
B27 O55 1.440266 1_555
B27 O71 1.468513 1_555
B27 O47 1.477089 1_555
B27 O63 1.491282 1_545
B28 O64 1.361218 1_555
B28 O72 1.381571 1_555
B28 O32 1.387140 1_555
B29 O65 1.361218 1_555
B29 O73 1.381571 1_555
B29 O33 1.387140 1_555
B30 O66 1.361218 1_555
B30 O74 1.381571 1_555
B30 O34 1.387140 1_555
B31 O67 1.361218 1_555
B31 O75 1.381571 1_555
B31 O35 1.387140 1_555
B32 O68 1.361218 1_555
B32 O76 1.381571 1_555
B32 O36 1.387140 1_555
B33 O69 1.361218 1_555
B33 O77 1.381571 1_555
B33 O37 1.387140 1_555
B34 O70 1.361218 1_555
B34 O78 1.381571 1_555
B34 O38 1.387140 1_555
B35 O71 1.361218 1_555
B35 O79 1.381571 1_555
B35 O39 1.387140 1_555
B36 O86 1.417631 1_555
B36 O94 1.440981 1_555
B36 O63 1.478212 1_555
B36 O78 1.495954 1_555
B37 O87 1.417631 1_555
B37 O95 1.440981 1_555
B37 O62 1.478212 1_555
B37 O79 1.495954 1_555
B38 O84 1.417631 1_555
B38 O92 1.440981 1_555
B38 O61 1.478212 1_555
B38 O76 1.495954 1_555
B39 O85 1.417631 1_555
B39 O93 1.440981 1_555
B39 O60 1.478212 1_555
B39 O77 1.495954 1_555
B40 O82 1.417631 1_555
B40 O90 1.440981 1_555
B40 O59 1.478212 1_555
B40 O74 1.495954 1_555
B41 O83 1.417631 1_555
B41 O91 1.440981 1_555
B41 O58 1.478212 1_555
B41 O75 1.495954 1_555
B42 O80 1.417631 1_555
B42 O88 1.440981 1_555
B42 O57 1.478212 1_555
B42 O72 1.495954 1_555
B43 O81 1.417631 1_555
B43 O89 1.440981 1_555
B43 O56 1.478212 1_555
B43 O73 1.495954 1_555
