# generated using pymatgen
data_EuCdAu
_symmetry_space_group_name_H-M   'P 1'
_cell_length_a   4.42956669
_cell_length_b   7.57390066
_cell_length_c   8.93646777
_cell_angle_alpha   90.00000000
_cell_angle_beta   90.00000000
_cell_angle_gamma   90.00000000
_symmetry_Int_Tables_number   1
_chemical_formula_structural   EuCdAu
_chemical_formula_sum   'Eu4 Cd4 Au4'
_cell_volume   299.81043368
_cell_formula_units_Z   4
loop_
 _symmetry_equiv_pos_site_id
 _symmetry_equiv_pos_as_xyz
  1  'x, y, z'
loop_
 _atom_site_type_symbol
 _atom_site_label
 _atom_site_symmetry_multiplicity
 _atom_site_fract_x
 _atom_site_fract_y
 _atom_site_fract_z
 _atom_site_occupancy
  Eu  Eu0  1  0.75000000  0.45823349  0.18241314  1
  Eu  Eu1  1  0.25000000  0.04174105  0.68248929  1
  Eu  Eu2  1  0.75000000  0.95823349  0.31758686  1
  Eu  Eu3  1  0.25000000  0.54174105  0.81751071  1
  Cd  Cd0  1  0.25000000  0.64128568  0.43936506  1
  Cd  Cd1  1  0.25000000  0.14128568  0.06063494  1
  Cd  Cd2  1  0.75000000  0.35872546  0.56072641  1
  Cd  Cd3  1  0.75000000  0.85872546  0.93927359  1
  Au  Au0  1  0.25000000  0.75418350  0.12758092  1
  Au  Au1  1  0.25000000  0.25418350  0.37241908  1
  Au  Au2  1  0.75000000  0.74583082  0.62762572  1
  Au  Au3  1  0.75000000  0.24583082  0.87237428  1
loop_
_geom_bond_atom_site_label_1
_geom_bond_atom_site_label_2
_geom_bond_distance
_geom_bond_site_symmetry_2
Eu0 Eu2 3.974946 1_555
Eu0 Eu2 3.974946 1_545
Eu0 Eu3 3.992370 1_654
Eu0 Eu3 3.992370 1_554
Eu1 Eu3 3.974533 1_545
Eu1 Eu3 3.974533 1_555
Eu1 Eu2 3.992370 1_445
Eu1 Eu2 3.992370 1_545
Cd0 Cd2 3.265188 1_555
Cd0 Cd2 3.265188 1_455
Cd0 Eu2 3.442694 1_455
Cd0 Eu2 3.442694 1_555
Cd0 Eu3 3.462370 1_555
Cd0 Eu0 3.478527 1_455
Cd0 Eu0 3.478527 1_555
Cd0 Eu1 3.730904 1_565
Cd1 Cd3 3.265188 1_544
Cd1 Cd3 3.265188 1_444
Cd1 Eu0 3.442694 1_455
Cd1 Eu0 3.442694 1_555
Cd1 Eu1 3.462370 1_554
Cd1 Eu2 3.478527 1_545
Cd1 Eu2 3.478527 1_445
Cd1 Eu3 3.730904 1_554
Cd2 Eu1 3.442844 1_555
Cd2 Eu1 3.442844 1_655
Cd2 Eu0 3.463771 1_555
Cd2 Eu3 3.477428 1_655
Cd2 Eu3 3.477428 1_555
Cd2 Eu2 3.731209 1_545
Cd3 Eu3 3.442844 1_655
Cd3 Eu3 3.442844 1_555
Cd3 Eu2 3.463771 1_556
Cd3 Eu1 3.477428 1_665
Cd3 Eu1 3.477428 1_565
Cd3 Eu0 3.731209 1_556
Au0 Cd3 2.892062 1_454
Au0 Cd3 2.892062 1_554
Au0 Cd0 2.914505 1_555
Au0 Cd1 2.992290 1_565
Au0 Eu0 3.188993 1_455
Au0 Eu0 3.188993 1_555
Au0 Eu2 3.190116 1_555
Au0 Eu2 3.190116 1_455
Au0 Eu3 3.204217 1_554
Au1 Cd2 2.892062 1_455
Au1 Cd2 2.892062 1_555
Au1 Cd1 2.914505 1_555
Au1 Cd0 2.992290 1_555
Au1 Eu2 3.188993 1_545
Au1 Eu2 3.188993 1_445
Au1 Eu0 3.190116 1_555
Au1 Eu0 3.190116 1_455
Au1 Eu1 3.204217 1_555
Au2 Cd0 2.891826 1_555
Au2 Cd0 2.891826 1_655
Au2 Cd3 2.913334 1_555
Au2 Cd2 2.992230 1_555
Au2 Eu1 3.188824 1_665
Au2 Eu1 3.188824 1_565
Au2 Eu3 3.189686 1_555
Au2 Eu3 3.189686 1_655
Au2 Eu2 3.203823 1_555
Au3 Cd1 2.891826 1_556
Au3 Cd1 2.891826 1_656
Au3 Cd2 2.913334 1_555
Au3 Cd3 2.992230 1_545
Au3 Eu3 3.188824 1_555
Au3 Eu3 3.188824 1_655
Au3 Eu1 3.189686 1_555
Au3 Eu1 3.189686 1_655
Au3 Eu0 3.203823 1_556
