# generated using pymatgen
data_ZrAlMo4
_symmetry_space_group_name_H-M   'P 1'
_cell_length_a   5.38573493
_cell_length_b   5.38572100
_cell_length_c   8.43692801
_cell_angle_alpha   90.00000000
_cell_angle_beta   89.99566685
_cell_angle_gamma   60.00007944
_symmetry_Int_Tables_number   1
_chemical_formula_structural   ZrAlMo4
_chemical_formula_sum   'Zr2 Al2 Mo8'
_cell_volume   211.93571426
_cell_formula_units_Z   2
loop_
 _symmetry_equiv_pos_site_id
 _symmetry_equiv_pos_as_xyz
  1  'x, y, z'
loop_
 _atom_site_type_symbol
 _atom_site_label
 _atom_site_symmetry_multiplicity
 _atom_site_fract_x
 _atom_site_fract_y
 _atom_site_fract_z
 _atom_site_occupancy
  Zr  Zr0  1  0.66667100  0.66666500  0.06110100  1
  Zr  Zr1  1  0.33332900  0.33333500  0.93889900  1
  Al  Al0  1  0.33337500  0.33331300  0.56789200  1
  Al  Al1  1  0.66662500  0.66668700  0.43210800  1
  Mo  Mo0  1  0.00000000  0.00000000  0.50000000  1
  Mo  Mo1  1  0.00000000  0.00000000  0.00000000  1
  Mo  Mo2  1  0.82783600  0.34425400  0.74101400  1
  Mo  Mo3  1  0.34429000  0.82785500  0.74096400  1
  Mo  Mo4  1  0.82783600  0.82791100  0.74101400  1
  Mo  Mo5  1  0.17216400  0.65574600  0.25898600  1
  Mo  Mo6  1  0.65571000  0.17214500  0.25903600  1
  Mo  Mo7  1  0.17216400  0.17208900  0.25898600  1
loop_
_geom_bond_atom_site_label_1
_geom_bond_atom_site_label_2
_geom_bond_distance
_geom_bond_site_symmetry_2
Al0 Mo6 3.008287 1_555
Al0 Mo5 3.009050 1_555
Al0 Mo7 3.009054 1_555
Al0 Mo4 3.063681 1_545
Al0 Mo2 3.063682 1_555
Al0 Mo3 3.063700 1_555
Al0 Mo3 3.063705 1_545
Al0 Mo4 3.064136 1_455
Al0 Mo2 3.064136 1_455
Al0 Zr1 3.130159 1_555
Al0 Mo0 3.161536 1_655
Al0 Mo0 3.161886 1_565
Al0 Mo0 3.161891 1_555
Al1 Mo3 3.008287 1_555
Al1 Mo2 3.009050 1_555
Al1 Mo4 3.009054 1_555
Al1 Mo7 3.063681 1_565
Al1 Mo5 3.063682 1_555
Al1 Mo6 3.063700 1_555
Al1 Mo6 3.063705 1_565
Al1 Mo7 3.064136 1_655
Al1 Mo5 3.064136 1_655
Al1 Zr0 3.130159 1_555
Al1 Mo0 3.161536 1_565
Al1 Mo0 3.161886 1_655
Al1 Mo0 3.161891 1_665
Mo0 Mo3 2.590819 1_545
Mo0 Mo6 2.590819 1_455
Mo0 Mo4 2.590875 1_445
Mo0 Mo7 2.590875 1_555
Mo0 Mo2 2.590878 1_455
Mo0 Mo5 2.590878 1_545
Mo1 Mo7 2.711617 1_555
Mo1 Mo4 2.711617 1_444
Mo1 Mo5 2.711620 1_545
Mo1 Mo2 2.711620 1_454
Mo1 Mo6 2.711892 1_455
Mo1 Mo3 2.711892 1_544
Mo1 Zr1 3.151858 1_554
Mo1 Zr0 3.151858 1_445
Mo1 Zr0 3.151862 1_455
Mo1 Zr1 3.151862 1_544
Mo1 Zr0 3.151964 1_545
Mo1 Zr1 3.151964 1_454
Mo2 Mo3 2.604399 1_555
Mo2 Mo4 2.604842 1_555
Mo2 Mo4 2.780879 1_545
Mo2 Mo3 2.781336 1_645
Mo2 Zr0 3.090951 1_556
Mo2 Zr1 3.168573 1_555
Mo2 Zr1 3.169094 1_655
Mo3 Mo4 2.604401 1_555
Mo3 Mo4 2.781334 1_455
Mo3 Zr0 3.091426 1_556
Mo3 Zr1 3.169047 1_565
Mo3 Zr1 3.169052 1_555
Mo4 Zr0 3.090951 1_556
Mo4 Zr1 3.168568 1_565
Mo4 Zr1 3.169098 1_655
Mo5 Mo6 2.604399 1_555
Mo5 Mo7 2.604842 1_555
Mo5 Mo7 2.780879 1_565
Mo5 Mo6 2.781336 1_465
Mo5 Zr1 3.090951 1_554
Mo5 Zr0 3.168573 1_555
Mo5 Zr0 3.169094 1_455
Mo6 Mo7 2.604401 1_555
Mo6 Mo7 2.781334 1_655
Mo6 Zr1 3.091426 1_554
Mo6 Zr0 3.169047 1_545
Mo6 Zr0 3.169052 1_555
Mo7 Zr1 3.090951 1_554
Mo7 Zr0 3.168568 1_545
Mo7 Zr0 3.169098 1_455
