# generated using pymatgen
data_CaMn2O4
_symmetry_space_group_name_H-M   'P 1'
_cell_length_a   7.63466216
_cell_length_b   7.63466216
_cell_length_c   9.39216348
_cell_angle_alpha   59.61822022
_cell_angle_beta   59.61822022
_cell_angle_gamma   22.54052952
_symmetry_Int_Tables_number   1
_chemical_formula_structural   CaMn2O4
_chemical_formula_sum   'Ca2 Mn4 O8'
_cell_volume   179.79949210
_cell_formula_units_Z   2
loop_
 _symmetry_equiv_pos_site_id
 _symmetry_equiv_pos_as_xyz
  1  'x, y, z'
loop_
 _atom_site_type_symbol
 _atom_site_label
 _atom_site_symmetry_multiplicity
 _atom_site_fract_x
 _atom_site_fract_y
 _atom_site_fract_z
 _atom_site_occupancy
  Ca  Ca0  1  0.66280100  0.66280100  0.83805900  1
  Ca  Ca1  1  0.35316300  0.35316300  0.17935600  1
  Mn  Mn0  1  0.40477200  0.40477200  0.81458300  1
  Mn  Mn1  1  0.85291900  0.85291900  0.49758600  1
  Mn  Mn2  1  0.15060300  0.15060300  0.51763200  1
  Mn  Mn3  1  0.59784100  0.59784100  0.21144900  1
  O  O0  1  0.11283500  0.11283500  0.32971500  1
  O  O1  1  0.57167800  0.57167800  0.66958800  1
  O  O2  1  0.43132000  0.43132000  0.34548400  1
  O  O3  1  0.86784600  0.86784600  0.72032400  1
  O  O4  1  0.89825100  0.89825100  0.96737400  1
  O  O5  1  0.25351300  0.25351300  0.62834400  1
  O  O6  1  0.11779800  0.11779800  0.05032200  1
  O  O7  1  0.75000300  0.75000300  0.38036100  1
loop_
_geom_bond_atom_site_label_1
_geom_bond_atom_site_label_2
_geom_bond_distance
_geom_bond_site_symmetry_2
Ca0 O5 2.278506 1_565
Ca0 O5 2.278506 1_655
Ca0 O6 2.295489 1_566
Ca0 O6 2.295489 1_656
Ca0 O1 2.567619 1_555
Ca0 O3 2.673741 1_555
Ca1 O7 2.273510 1_455
Ca1 O7 2.273510 1_545
Ca1 O4 2.293402 1_454
Ca1 O4 2.293402 1_544
Ca1 O2 2.384927 1_555
Mn0 O3 1.954682 1_455
Mn0 O3 1.954682 1_545
Mn0 O4 2.037324 1_545
Mn0 O4 2.037324 1_455
Mn0 O1 2.142639 1_555
Mn1 O2 1.978802 1_565
Mn1 O2 1.978802 1_655
Mn1 O5 2.016168 1_565
Mn1 O5 2.016168 1_655
Mn1 O3 2.215560 1_555
Mn1 O7 2.310292 1_555
Mn2 O1 1.979985 1_455
Mn2 O1 1.979985 1_545
Mn2 O7 2.030974 1_545
Mn2 O7 2.030974 1_455
Mn2 O0 2.112928 1_555
Mn2 O5 2.260284 1_555
Mn3 O0 1.941089 1_565
Mn3 O0 1.941089 1_655
Mn3 O6 2.034544 1_565
Mn3 O6 2.034544 1_655
Mn3 O2 2.136632 1_555
