# generated using pymatgen
data_Ba6LiNb2Ir(ClO6)2
_symmetry_space_group_name_H-M   'P 1'
_cell_length_a   6.26613904
_cell_length_b   6.26481192
_cell_length_c   14.99593146
_cell_angle_alpha   97.25543779
_cell_angle_beta   82.74955769
_cell_angle_gamma   122.99686202
_symmetry_Int_Tables_number   1
_chemical_formula_structural   Ba6LiNb2Ir(ClO6)2
_chemical_formula_sum   'Ba6 Li1 Nb2 Ir1 Cl2 O12'
_cell_volume   488.60721312
_cell_formula_units_Z   1
loop_
 _symmetry_equiv_pos_site_id
 _symmetry_equiv_pos_as_xyz
  1  'x, y, z'
loop_
 _atom_site_type_symbol
 _atom_site_label
 _atom_site_symmetry_multiplicity
 _atom_site_fract_x
 _atom_site_fract_y
 _atom_site_fract_z
 _atom_site_occupancy
  Ba  Ba0  1  0.30835600  0.69184600  0.36082800  1
  Ba  Ba1  1  0.33720300  0.66294200  0.78333800  1
  Ba  Ba2  1  0.69333000  0.30676500  0.63293100  1
  Ba  Ba3  1  0.61454300  0.38571500  0.90239000  1
  Ba  Ba4  1  0.34233500  0.65863000  0.08372300  1
  Ba  Ba5  1  0.65576000  0.34506700  0.21226900  1
  Li  Li0  1  0.80366800  0.19880500  0.00186300  1
  Nb  Nb0  1  0.98489300  0.01534400  0.81266900  1
  Nb  Nb1  1  0.01681900  0.98364700  0.18362200  1
  Ir  Ir0  1  0.01803000  0.98263900  0.00099200  1
  Cl  Cl0  1  0.67795500  0.32291200  0.42427000  1
  Cl  Cl1  1  0.31911600  0.68090200  0.57550900  1
  O  O0  1  0.13700300  0.30495500  0.92747700  1
  O  O1  1  0.30783100  0.19937800  0.74688600  1
  O  O2  1  0.19810300  0.30484400  0.24950000  1
  O  O3  1  0.80061300  0.69261200  0.74671000  1
  O  O4  1  0.82400500  0.17662400  0.77140300  1
  O  O5  1  0.88085200  0.66051200  0.07245000  1
  O  O6  1  0.17223900  0.82571600  0.23366100  1
  O  O7  1  0.33959000  0.11927800  0.07272600  1
  O  O8  1  0.87118400  0.13261500  0.10637000  1
  O  O9  1  0.69589000  0.86420300  0.92750900  1
  O  O10  1  0.69399300  0.80251300  0.24863300  1
  O  O11  1  0.14002300  0.85861900  0.88655700  1
loop_
_geom_bond_atom_site_label_1
_geom_bond_atom_site_label_2
_geom_bond_distance
_geom_bond_site_symmetry_2
Ba0 O2 2.566508 1_555
Ba0 O10 2.567934 1_555
Ba0 O6 2.580912 1_555
Ba0 Cl1 3.238670 1_555
Ba0 Cl0 3.393175 1_455
Ba0 Cl0 3.395932 1_565
Ba1 O11 2.472445 1_555
Ba1 O3 2.793486 1_555
Ba1 O1 2.794451 1_555
Ba1 O0 2.958249 1_555
Ba1 O9 2.960897 1_555
Ba1 O4 2.998637 1_455
Ba1 O4 3.001469 1_565
Ba1 Cl1 3.151231 1_555
Ba2 O3 2.585359 1_555
Ba2 O1 2.585786 1_555
Ba2 O4 2.689066 1_555
Ba2 Cl0 3.158675 1_555
Ba2 Cl1 3.355044 1_545
Ba2 Cl1 3.355353 1_655
Ba3 Li0 2.720211 1_556
Ba3 O0 2.732491 1_555
Ba3 O9 2.736153 1_555
Ba3 O4 2.805157 1_555
Ba3 O1 2.914503 1_555
Ba3 O3 2.917408 1_555
Ba3 O11 3.005138 1_655
Ba3 O11 3.014562 1_545
Ba3 O5 3.014661 1_556
Ba3 O7 3.018776 1_556
Ba4 O6 2.702425 1_555
Ba4 O9 2.898067 1_554
Ba4 O0 2.898149 1_554
Ba4 O7 2.920744 1_565
Ba4 O5 2.924341 1_455
Ba4 O8 3.020582 1_455
Ba4 O8 3.037418 1_565
Ba4 O10 3.229975 1_555
Ba4 O2 3.248413 1_555
Ba4 O5 3.350914 1_555
Ba4 O7 3.352818 1_555
Ba5 O8 2.645275 1_555
Ba5 O2 2.728272 1_555
Ba5 O10 2.730949 1_555
Ba5 O7 2.747948 1_555
Ba5 O5 2.748668 1_555
Ba5 O6 3.007938 1_655
Ba5 O6 3.024900 1_545
Ba5 Cl0 3.223306 1_555
Li0 O8 1.824709 1_555
Li0 O0 2.033636 1_654
Li0 O9 2.037457 1_544
Li0 O5 2.748294 1_555
Li0 O7 2.758530 1_555
Nb0 O1 1.907756 1_655
Nb0 O3 1.907850 1_545
Nb0 O4 1.960881 1_555
Nb0 O11 2.173214 1_645
Nb0 O9 2.213327 1_545
Nb0 O0 2.214970 1_655
Nb1 O2 1.899189 1_565
Nb1 O10 1.900414 1_455
Nb1 O6 1.977863 1_555
Nb1 O8 2.124462 1_465
Nb1 O7 2.283477 1_565
Nb1 O5 2.287096 1_455
Ir0 O11 2.027778 1_554
Ir0 O5 2.093818 1_455
Ir0 O7 2.094226 1_565
Ir0 O8 2.103866 1_465
Ir0 O9 2.136137 1_454
Ir0 O0 2.136282 1_564
