# generated using pymatgen
data_NbCr3(CuS4)2
_symmetry_space_group_name_H-M   'P 1'
_cell_length_a   7.00774900
_cell_length_b   7.14351700
_cell_length_c   9.90916400
_cell_angle_alpha   90.00000000
_cell_angle_beta   90.00000000
_cell_angle_gamma   90.00000000
_symmetry_Int_Tables_number   1
_chemical_formula_structural   NbCr3(CuS4)2
_chemical_formula_sum   'Nb2 Cr6 Cu4 S16'
_cell_volume   496.05249332
_cell_formula_units_Z   2
loop_
 _symmetry_equiv_pos_site_id
 _symmetry_equiv_pos_as_xyz
  1  'x, y, z'
loop_
 _atom_site_type_symbol
 _atom_site_label
 _atom_site_symmetry_multiplicity
 _atom_site_fract_x
 _atom_site_fract_y
 _atom_site_fract_z
 _atom_site_occupancy
  Nb  Nb0  1  0.50000000  0.73340300  0.25000000  1
  Nb  Nb1  1  0.50000000  0.26659700  0.75000000  1
  Cr  Cr0  1  0.00000000  0.75222500  0.25000000  1
  Cr  Cr1  1  0.74017500  0.50000000  0.50000000  1
  Cr  Cr2  1  0.25982500  0.50000000  0.00000000  1
  Cr  Cr3  1  0.74261600  0.00000000  0.50000000  1
  Cr  Cr4  1  0.00000000  0.24777500  0.75000000  1
  Cr  Cr5  1  0.25738400  0.00000000  0.00000000  1
  Cu  Cu0  1  0.76890600  0.75685400  0.87808500  1
  Cu  Cu1  1  0.23109400  0.24314600  0.37808500  1
  Cu  Cu2  1  0.76890600  0.24314600  0.12191500  1
  Cu  Cu3  1  0.23109400  0.75685400  0.62191500  1
  S  S0  1  0.96939800  0.74961300  0.48991200  1
  S  S1  1  0.75883300  0.50515400  0.25539800  1
  S  S2  1  0.50684300  0.75188000  0.49933900  1
  S  S3  1  0.24116700  0.49484600  0.75539800  1
  S  S4  1  0.50684300  0.24812000  0.50066100  1
  S  S5  1  0.75295100  0.01464700  0.74386400  1
  S  S6  1  0.96939800  0.25038700  0.51008800  1
  S  S7  1  0.75883300  0.49484600  0.74460200  1
  S  S8  1  0.49315700  0.24812000  0.99933900  1
  S  S9  1  0.24704900  0.01464700  0.75613600  1
  S  S10  1  0.03060200  0.25038700  0.98991200  1
  S  S11  1  0.75295100  0.98535300  0.25613600  1
  S  S12  1  0.03060200  0.74961300  0.01008800  1
  S  S13  1  0.24116700  0.50515400  0.24460200  1
  S  S14  1  0.49315700  0.75188000  0.00066100  1
  S  S15  1  0.24704900  0.98535300  0.24386400  1
loop_
_geom_bond_atom_site_label_1
_geom_bond_atom_site_label_2
_geom_bond_distance
_geom_bond_site_symmetry_2
Nb0 S1 2.439549 1_555
Nb0 S13 2.439549 1_555
Nb0 S2 2.474729 1_555
Nb0 S14 2.474729 1_555
Nb0 S11 2.526892 1_555
Nb0 S15 2.526892 1_555
Nb1 S3 2.439549 1_555
Nb1 S7 2.439549 1_555
Nb1 S4 2.474729 1_555
Nb1 S8 2.474729 1_555
Nb1 S5 2.526892 1_555
Nb1 S9 2.526892 1_555
Cr0 S12 2.387053 1_555
Cr0 S0 2.387053 1_455
Cr0 S11 2.402988 1_455
Cr0 S15 2.402988 1_555
Cr0 S13 2.444209 1_555
Cr0 S1 2.444209 1_455
Cr1 S6 2.402043 1_555
Cr1 S0 2.402043 1_555
Cr1 S1 2.427605 1_555
Cr1 S7 2.427605 1_555
Cr1 S4 2.431299 1_555
Cr1 S2 2.431299 1_555
Cr2 S12 2.402043 1_555
Cr2 S10 2.402043 1_554
Cr2 S3 2.427605 1_554
Cr2 S13 2.427605 1_555
Cr2 S8 2.431299 1_554
Cr2 S14 2.431299 1_555
Cr3 S6 2.394764 1_555
Cr3 S0 2.394764 1_545
Cr3 S5 2.419837 1_555
Cr3 S11 2.419837 1_545
Cr3 S2 2.423120 1_545
Cr3 S4 2.423120 1_555
Cr4 S10 2.387053 1_555
Cr4 S6 2.387053 1_455
Cr4 S5 2.402988 1_455
Cr4 S9 2.402988 1_555
Cr4 S3 2.444209 1_555
Cr4 S7 2.444209 1_455
Cr5 S12 2.394764 1_545
Cr5 S10 2.394764 1_554
Cr5 S9 2.419837 1_554
Cr5 S15 2.419837 1_545
Cr5 S8 2.423120 1_554
Cr5 S14 2.423120 1_545
Cu0 S12 2.253183 1_656
Cu0 S5 2.274368 1_565
Cu0 S14 2.282689 1_556
Cu0 S7 2.292954 1_555
Cu1 S6 2.253183 1_455
Cu1 S15 2.274368 1_545
Cu1 S4 2.282689 1_555
Cu1 S13 2.292954 1_555
Cu2 S10 2.253183 1_654
Cu2 S11 2.274368 1_545
Cu2 S8 2.282689 1_554
Cu2 S1 2.292954 1_555
Cu3 S0 2.253183 1_455
Cu3 S9 2.274368 1_565
Cu3 S2 2.282689 1_555
Cu3 S3 2.292954 1_555
