# generated using pymatgen
data_SrLa2(CoO3)3
_symmetry_space_group_name_H-M   'P 1'
_cell_length_a   5.44214361
_cell_length_b   5.44493771
_cell_length_c   13.36401122
_cell_angle_alpha   91.00178378
_cell_angle_beta   90.97217151
_cell_angle_gamma   60.67817914
_symmetry_Int_Tables_number   1
_chemical_formula_structural   SrLa2(CoO3)3
_chemical_formula_sum   'Sr2 La4 Co6 O18'
_cell_volume   345.20040608
_cell_formula_units_Z   2
loop_
 _symmetry_equiv_pos_site_id
 _symmetry_equiv_pos_as_xyz
  1  'x, y, z'
loop_
 _atom_site_type_symbol
 _atom_site_label
 _atom_site_symmetry_multiplicity
 _atom_site_fract_x
 _atom_site_fract_y
 _atom_site_fract_z
 _atom_site_occupancy
  Sr  Sr0  1  0.33325900  0.33379700  0.41907100  1
  Sr  Sr1  1  0.33308800  0.33332900  0.91432700  1
  La  La0  1  0.66636300  0.66733500  0.08115800  1
  La  La1  1  0.66639100  0.66627300  0.58560000  1
  La  La2  1  0.99971400  0.00078800  0.25208800  1
  La  La3  1  0.99827600  0.00070300  0.74762900  1
  Co  Co0  1  0.33304100  0.33288000  0.66661700  1
  Co  Co1  1  0.33318900  0.33371600  0.16677300  1
  Co  Co2  1  0.66593900  0.66631800  0.33274000  1
  Co  Co3  1  0.66691900  0.66679000  0.83328600  1
  Co  Co4  1  0.99936200  0.99982900  0.49999700  1
  Co  Co5  1  0.00100200  0.00095300  0.00055300  1
  O  O0  1  0.83454800  0.83586500  0.41389800  1
  O  O1  1  0.83326300  0.83099700  0.91918000  1
  O  O2  1  0.82959100  0.34248400  0.41288000  1
  O  O3  1  0.83768100  0.32489300  0.92077200  1
  O  O4  1  0.34056300  0.83046400  0.41240400  1
  O  O5  1  0.32761500  0.83614300  0.92116500  1
  O  O6  1  0.16039500  0.16319800  0.08484300  1
  O  O7  1  0.16268600  0.16285000  0.58458100  1
  O  O8  1  0.50603100  0.50450900  0.24856700  1
  O  O9  1  0.50590600  0.50024100  0.74863700  1
  O  O10  1  0.50670100  0.98935200  0.24569800  1
  O  O11  1  0.50221000  0.99669100  0.74455100  1
  O  O12  1  0.16081000  0.67829500  0.08773000  1
  O  O13  1  0.16339400  0.66942000  0.58900100  1
  O  O14  1  0.99089300  0.50583400  0.24593100  1
  O  O15  1  0.99798000  0.49965100  0.74496900  1
  O  O16  1  0.67576900  0.16057200  0.08736000  1
  O  O17  1  0.66742200  0.16583100  0.58799600  1
loop_
_geom_bond_atom_site_label_1
_geom_bond_atom_site_label_2
_geom_bond_distance
_geom_bond_site_symmetry_2
La0 O5 2.662784 1_554
La0 O10 2.665024 1_555
La0 O14 2.675082 1_555
La0 O3 2.676840 1_554
La0 O1 2.689211 1_554
La0 O16 2.710885 1_565
La0 O12 2.720484 1_655
La0 O12 2.725452 1_555
La0 O8 2.728726 1_555
La0 O16 2.737280 1_555
La0 O6 2.745511 1_655
La0 O6 2.755470 1_565
La1 O11 2.627505 1_555
La1 O15 2.636143 1_555
La1 O9 2.689636 1_555
La1 O13 2.712801 1_655
La1 O17 2.722442 1_565
La1 O17 2.722880 1_555
La1 O13 2.730178 1_555
La1 O7 2.749094 1_655
La1 O7 2.750620 1_565
La1 O2 2.760184 1_555
La1 O4 2.771512 1_555
La1 O0 2.815760 1_555
La2 O12 2.664435 1_645
La2 O4 2.672226 1_645
La2 O16 2.672872 1_555
La2 O2 2.678946 1_555
La2 O0 2.686051 1_545
La2 O10 2.713961 1_545
La2 O14 2.718619 1_545
La2 O6 2.726718 1_655
La2 O14 2.729423 1_555
La2 O10 2.731908 1_645
La2 O8 2.743362 1_555
La2 O8 2.757529 1_645
La3 O13 2.626519 1_645
La3 O17 2.636789 1_555
La3 O7 2.689815 1_655
La3 O11 2.710038 1_545
La3 O15 2.716806 1_555
La3 O9 2.727623 1_555
La3 O15 2.728596 1_545
La3 O11 2.732854 1_645
La3 O3 2.765612 1_555
La3 O9 2.772094 1_645
La3 O5 2.784300 1_645
La3 O1 2.805892 1_545
Co0 O17 1.911304 1_555
Co0 O15 1.912003 1_455
Co0 O13 1.913924 1_555
Co0 O11 1.914861 1_545
Co0 O9 1.920061 1_555
Co0 O7 1.920737 1_555
Co1 O6 1.931274 1_555
Co1 O8 1.931523 1_555
Co1 O14 1.946746 1_455
Co1 O16 1.949779 1_555
Co1 O10 1.954780 1_545
Co1 O12 1.956488 1_555
Co2 O8 1.866012 1_555
Co2 O2 1.882785 1_555
Co2 O4 1.883723 1_555
Co2 O0 1.905641 1_555
Co2 O10 1.934492 1_555
Co2 O14 1.938424 1_555
Co3 O9 1.891746 1_555
Co3 O1 1.912633 1_555
Co3 O15 1.973827 1_555
Co3 O11 1.974282 1_555
Co3 O5 2.001821 1_555
Co3 O3 2.010214 1_555
Co4 O7 1.886596 1_665
Co4 O0 1.907576 1_555
Co4 O17 1.974593 1_565
Co4 O13 1.978414 1_655
Co4 O4 2.006870 1_655
Co4 O2 2.010263 1_565
Co5 O6 1.866643 1_555
Co5 O3 1.880425 1_454
Co5 O5 1.886465 1_544
Co5 O1 1.905459 1_444
Co5 O12 1.934140 1_545
Co5 O16 1.939512 1_455
O0 Sr0 2.748358 1_565
O0 Sr0 2.752731 1_655
O1 Sr1 2.743480 1_655
O1 Sr1 2.757342 1_565
O2 Sr0 2.718052 1_655
O2 Sr0 2.727257 1_555
O3 Sr1 2.721703 1_655
O3 Sr1 2.723782 1_555
O4 Sr0 2.721284 1_565
O4 Sr0 2.727031 1_555
O5 Sr1 2.723273 1_555
O5 Sr1 2.724995 1_565
O6 Sr1 2.816630 1_554
O7 Sr0 2.758337 1_555
O8 Sr0 2.818320 1_555
O9 Sr1 2.755314 1_555
O10 Sr0 2.822249 1_565
O11 Sr1 2.761857 1_565
O12 Sr1 2.823822 1_554
O13 Sr0 2.760952 1_555
O14 Sr0 2.814774 1_655
O15 Sr1 2.753649 1_655
O16 Sr1 2.814530 1_554
O17 Sr0 2.746612 1_555
