# generated using pymatgen
data_Nb5Cr(B2Ru5)2
_symmetry_space_group_name_H-M   'P 1'
_cell_length_a   5.97017000
_cell_length_b   18.88373200
_cell_length_c   18.88373200
_cell_angle_alpha   90.00000000
_cell_angle_beta   90.00000000
_cell_angle_gamma   90.00000000
_symmetry_Int_Tables_number   1
_chemical_formula_structural   Nb5Cr(B2Ru5)2
_chemical_formula_sum   'Nb40 Cr8 B32 Ru80'
_cell_volume   2128.93476667
_cell_formula_units_Z   8
loop_
 _symmetry_equiv_pos_site_id
 _symmetry_equiv_pos_as_xyz
  1  'x, y, z'
loop_
 _atom_site_type_symbol
 _atom_site_label
 _atom_site_symmetry_multiplicity
 _atom_site_fract_x
 _atom_site_fract_y
 _atom_site_fract_z
 _atom_site_occupancy
  Nb  Nb0_0  1  0.00000000  0.33739200  0.41052100  1
  Nb  Nb0_1  1  0.00000000  0.33739200  0.91052100  1
  Nb  Nb0_2  1  0.00000000  0.83739200  0.41052100  1
  Nb  Nb0_3  1  0.00000000  0.83739200  0.91052100  1
  Nb  Nb0_4  1  0.50000000  0.33739200  0.41052100  1
  Nb  Nb0_5  1  0.50000000  0.33739200  0.91052100  1
  Nb  Nb0_6  1  0.50000000  0.83739200  0.41052100  1
  Nb  Nb0_7  1  0.50000000  0.83739200  0.91052100  1
  Nb  Nb1_0  1  0.00000000  0.16260800  0.08947900  1
  Nb  Nb1_1  1  0.00000000  0.16260800  0.58947900  1
  Nb  Nb1_2  1  0.00000000  0.66260800  0.08947900  1
  Nb  Nb1_3  1  0.00000000  0.66260800  0.58947900  1
  Nb  Nb1_4  1  0.50000000  0.16260800  0.08947900  1
  Nb  Nb1_5  1  0.50000000  0.16260800  0.58947900  1
  Nb  Nb1_6  1  0.50000000  0.66260800  0.08947900  1
  Nb  Nb1_7  1  0.50000000  0.66260800  0.58947900  1
  Nb  Nb2_0  1  0.00000000  0.41052100  0.16260800  1
  Nb  Nb2_1  1  0.00000000  0.41052100  0.66260800  1
  Nb  Nb2_2  1  0.00000000  0.91052100  0.16260800  1
  Nb  Nb2_3  1  0.00000000  0.91052100  0.66260800  1
  Nb  Nb2_4  1  0.50000000  0.41052100  0.16260800  1
  Nb  Nb2_5  1  0.50000000  0.41052100  0.66260800  1
  Nb  Nb2_6  1  0.50000000  0.91052100  0.16260800  1
  Nb  Nb2_7  1  0.50000000  0.91052100  0.66260800  1
  Nb  Nb3_0  1  0.00000000  0.08947900  0.33739200  1
  Nb  Nb3_1  1  0.00000000  0.08947900  0.83739200  1
  Nb  Nb3_2  1  0.00000000  0.58947900  0.33739200  1
  Nb  Nb3_3  1  0.00000000  0.58947900  0.83739200  1
  Nb  Nb3_4  1  0.50000000  0.08947900  0.33739200  1
  Nb  Nb3_5  1  0.50000000  0.08947900  0.83739200  1
  Nb  Nb3_6  1  0.50000000  0.58947900  0.33739200  1
  Nb  Nb3_7  1  0.50000000  0.58947900  0.83739200  1
  Nb  Nb4_0  1  0.00000000  0.00000000  0.00000000  1
  Nb  Nb4_1  1  0.00000000  0.00000000  0.50000000  1
  Nb  Nb4_2  1  0.00000000  0.50000000  0.00000000  1
  Nb  Nb4_3  1  0.00000000  0.50000000  0.50000000  1
  Nb  Nb4_4  1  0.50000000  0.00000000  0.00000000  1
  Nb  Nb4_5  1  0.50000000  0.00000000  0.50000000  1
  Nb  Nb4_6  1  0.50000000  0.50000000  0.00000000  1
  Nb  Nb4_7  1  0.50000000  0.50000000  0.50000000  1
  Cr  Cr0_0  1  0.00000000  0.25000000  0.25000000  1
  Cr  Cr0_1  1  0.00000000  0.25000000  0.75000000  1
  Cr  Cr0_2  1  0.00000000  0.75000000  0.25000000  1
  Cr  Cr0_3  1  0.00000000  0.75000000  0.75000000  1
  Cr  Cr0_4  1  0.50000000  0.25000000  0.25000000  1
  Cr  Cr0_5  1  0.50000000  0.25000000  0.75000000  1
  Cr  Cr0_6  1  0.50000000  0.75000000  0.25000000  1
  Cr  Cr0_7  1  0.50000000  0.75000000  0.75000000  1
  B  B0_0  1  0.00000000  0.43749350  0.30985600  1
  B  B0_1  1  0.00000000  0.43749350  0.80985600  1
  B  B0_2  1  0.00000000  0.93749350  0.30985600  1
  B  B0_3  1  0.00000000  0.93749350  0.80985600  1
  B  B0_4  1  0.50000000  0.43749350  0.30985600  1
  B  B0_5  1  0.50000000  0.43749350  0.80985600  1
  B  B0_6  1  0.50000000  0.93749350  0.30985600  1
  B  B0_7  1  0.50000000  0.93749350  0.80985600  1
  B  B1_0  1  0.00000000  0.06250650  0.19014400  1
  B  B1_1  1  0.00000000  0.06250650  0.69014400  1
  B  B1_2  1  0.00000000  0.56250650  0.19014400  1
  B  B1_3  1  0.00000000  0.56250650  0.69014400  1
  B  B1_4  1  0.50000000  0.06250650  0.19014400  1
  B  B1_5  1  0.50000000  0.06250650  0.69014400  1
  B  B1_6  1  0.50000000  0.56250650  0.19014400  1
  B  B1_7  1  0.50000000  0.56250650  0.69014400  1
  B  B2_0  1  0.00000000  0.30985600  0.06250650  1
  B  B2_1  1  0.00000000  0.30985600  0.56250650  1
  B  B2_2  1  0.00000000  0.80985600  0.06250650  1
  B  B2_3  1  0.00000000  0.80985600  0.56250650  1
  B  B2_4  1  0.50000000  0.30985600  0.06250650  1
  B  B2_5  1  0.50000000  0.30985600  0.56250650  1
  B  B2_6  1  0.50000000  0.80985600  0.06250650  1
  B  B2_7  1  0.50000000  0.80985600  0.56250650  1
  B  B3_0  1  0.00000000  0.19014400  0.43749350  1
  B  B3_1  1  0.00000000  0.19014400  0.93749350  1
  B  B3_2  1  0.00000000  0.69014400  0.43749350  1
  B  B3_3  1  0.00000000  0.69014400  0.93749350  1
  B  B3_4  1  0.50000000  0.19014400  0.43749350  1
  B  B3_5  1  0.50000000  0.19014400  0.93749350  1
  B  B3_6  1  0.50000000  0.69014400  0.43749350  1
  B  B3_7  1  0.50000000  0.69014400  0.93749350  1
  Ru  Ru0_0  1  0.25000000  0.35674750  0.28420800  1
  Ru  Ru0_1  1  0.25000000  0.35674750  0.78420800  1
  Ru  Ru0_2  1  0.25000000  0.85674750  0.28420800  1
  Ru  Ru0_3  1  0.25000000  0.85674750  0.78420800  1
  Ru  Ru0_4  1  0.75000000  0.35674750  0.28420800  1
  Ru  Ru0_5  1  0.75000000  0.35674750  0.78420800  1
  Ru  Ru0_6  1  0.75000000  0.85674750  0.28420800  1
  Ru  Ru0_7  1  0.75000000  0.85674750  0.78420800  1
  Ru  Ru1_0  1  0.25000000  0.14325250  0.21579200  1
  Ru  Ru1_1  1  0.25000000  0.14325250  0.71579200  1
  Ru  Ru1_2  1  0.25000000  0.64325250  0.21579200  1
  Ru  Ru1_3  1  0.25000000  0.64325250  0.71579200  1
  Ru  Ru1_4  1  0.75000000  0.14325250  0.21579200  1
  Ru  Ru1_5  1  0.75000000  0.14325250  0.71579200  1
  Ru  Ru1_6  1  0.75000000  0.64325250  0.21579200  1
  Ru  Ru1_7  1  0.75000000  0.64325250  0.71579200  1
  Ru  Ru2_0  1  0.25000000  0.38994150  0.03602400  1
  Ru  Ru2_1  1  0.25000000  0.38994150  0.53602400  1
  Ru  Ru2_2  1  0.25000000  0.88994150  0.03602400  1
  Ru  Ru2_3  1  0.25000000  0.88994150  0.53602400  1
  Ru  Ru2_4  1  0.75000000  0.38994150  0.03602400  1
  Ru  Ru2_5  1  0.75000000  0.38994150  0.53602400  1
  Ru  Ru2_6  1  0.75000000  0.88994150  0.03602400  1
  Ru  Ru2_7  1  0.75000000  0.88994150  0.53602400  1
  Ru  Ru3_0  1  0.25000000  0.11005850  0.46397600  1
  Ru  Ru3_1  1  0.25000000  0.11005850  0.96397600  1
  Ru  Ru3_2  1  0.25000000  0.61005850  0.46397600  1
  Ru  Ru3_3  1  0.25000000  0.61005850  0.96397600  1
  Ru  Ru3_4  1  0.75000000  0.11005850  0.46397600  1
  Ru  Ru3_5  1  0.75000000  0.11005850  0.96397600  1
  Ru  Ru3_6  1  0.75000000  0.61005850  0.46397600  1
  Ru  Ru3_7  1  0.75000000  0.61005850  0.96397600  1
  Ru  Ru4_0  1  0.25000000  0.28420800  0.14325250  1
  Ru  Ru4_1  1  0.25000000  0.28420800  0.64325250  1
  Ru  Ru4_2  1  0.25000000  0.78420800  0.14325250  1
  Ru  Ru4_3  1  0.25000000  0.78420800  0.64325250  1
  Ru  Ru4_4  1  0.75000000  0.28420800  0.14325250  1
  Ru  Ru4_5  1  0.75000000  0.28420800  0.64325250  1
  Ru  Ru4_6  1  0.75000000  0.78420800  0.14325250  1
  Ru  Ru4_7  1  0.75000000  0.78420800  0.64325250  1
  Ru  Ru5_0  1  0.25000000  0.21579200  0.35674750  1
  Ru  Ru5_1  1  0.25000000  0.21579200  0.85674750  1
  Ru  Ru5_2  1  0.25000000  0.71579200  0.35674750  1
  Ru  Ru5_3  1  0.25000000  0.71579200  0.85674750  1
  Ru  Ru5_4  1  0.75000000  0.21579200  0.35674750  1
  Ru  Ru5_5  1  0.75000000  0.21579200  0.85674750  1
  Ru  Ru5_6  1  0.75000000  0.71579200  0.35674750  1
  Ru  Ru5_7  1  0.75000000  0.71579200  0.85674750  1
  Ru  Ru6_0  1  0.25000000  0.03602400  0.11005850  1
  Ru  Ru6_1  1  0.25000000  0.03602400  0.61005850  1
  Ru  Ru6_2  1  0.25000000  0.53602400  0.11005850  1
  Ru  Ru6_3  1  0.25000000  0.53602400  0.61005850  1
  Ru  Ru6_4  1  0.75000000  0.03602400  0.11005850  1
  Ru  Ru6_5  1  0.75000000  0.03602400  0.61005850  1
  Ru  Ru6_6  1  0.75000000  0.53602400  0.11005850  1
  Ru  Ru6_7  1  0.75000000  0.53602400  0.61005850  1
  Ru  Ru7_0  1  0.25000000  0.46397600  0.38994150  1
  Ru  Ru7_1  1  0.25000000  0.46397600  0.88994150  1
  Ru  Ru7_2  1  0.25000000  0.96397600  0.38994150  1
  Ru  Ru7_3  1  0.25000000  0.96397600  0.88994150  1
  Ru  Ru7_4  1  0.75000000  0.46397600  0.38994150  1
  Ru  Ru7_5  1  0.75000000  0.46397600  0.88994150  1
  Ru  Ru7_6  1  0.75000000  0.96397600  0.38994150  1
  Ru  Ru7_7  1  0.75000000  0.96397600  0.88994150  1
  Ru  Ru8_0  1  0.25000000  0.00000000  0.25000000  1
  Ru  Ru8_1  1  0.25000000  0.00000000  0.75000000  1
  Ru  Ru8_2  1  0.25000000  0.50000000  0.25000000  1
  Ru  Ru8_3  1  0.25000000  0.50000000  0.75000000  1
  Ru  Ru8_4  1  0.75000000  0.00000000  0.25000000  1
  Ru  Ru8_5  1  0.75000000  0.00000000  0.75000000  1
  Ru  Ru8_6  1  0.75000000  0.50000000  0.25000000  1
  Ru  Ru8_7  1  0.75000000  0.50000000  0.75000000  1
  Ru  Ru9_0  1  0.25000000  0.25000000  0.00000000  1
  Ru  Ru9_1  1  0.25000000  0.25000000  0.50000000  1
  Ru  Ru9_2  1  0.25000000  0.75000000  0.00000000  1
  Ru  Ru9_3  1  0.25000000  0.75000000  0.50000000  1
  Ru  Ru9_4  1  0.75000000  0.25000000  0.00000000  1
  Ru  Ru9_5  1  0.75000000  0.25000000  0.50000000  1
  Ru  Ru9_6  1  0.75000000  0.75000000  0.00000000  1
  Ru  Ru9_7  1  0.75000000  0.75000000  0.50000000  1
loop_
_geom_bond_atom_site_label_1
_geom_bond_atom_site_label_2
_geom_bond_distance
_geom_bond_site_symmetry_2
Nb0_0 Ru9_1 2.793959 1_555
Nb0_0 Ru9_5 2.793959 1_455
Nb0_0 Ru0_4 2.837384 1_455
Nb0_0 Ru0_0 2.837384 1_555
Nb0_0 Ru7_4 2.844752 1_455
Nb0_0 Ru7_0 2.844752 1_555
Nb0_0 Ru5_0 2.920895 1_555
Nb0_0 Ru5_4 2.920895 1_455
Nb0_0 Ru2_5 2.971386 1_455
Nb0_0 Ru2_1 2.971386 1_555
Nb0_0 Nb0_4 2.985085 1_555
Nb0_0 Nb0_4 2.985085 1_455
Nb0_1 Ru9_4 2.793959 1_456
Nb0_1 Ru9_0 2.793959 1_556
Nb0_1 Ru0_1 2.837384 1_555
Nb0_1 Ru0_5 2.837384 1_455
Nb0_1 Ru7_1 2.844752 1_555
Nb0_1 Ru7_5 2.844752 1_455
Nb0_1 Ru5_5 2.920895 1_455
Nb0_1 Ru5_1 2.920895 1_555
Nb0_1 Ru2_4 2.971386 1_456
Nb0_1 Ru2_0 2.971386 1_556
Nb0_1 Nb0_5 2.985085 1_555
Nb0_1 Nb0_5 2.985085 1_455
Nb0_2 Ru9_3 2.793959 1_555
Nb0_2 Ru9_7 2.793959 1_455
Nb0_2 Ru0_2 2.837384 1_555
Nb0_2 Ru0_6 2.837384 1_455
Nb0_2 Ru7_2 2.844752 1_555
Nb0_2 Ru7_6 2.844752 1_455
Nb0_2 Ru5_2 2.920895 1_555
Nb0_2 Ru5_6 2.920895 1_455
Nb0_2 Ru2_3 2.971386 1_555
Nb0_2 Ru2_7 2.971386 1_455
Nb0_2 Nb0_6 2.985085 1_555
Nb0_2 Nb0_6 2.985085 1_455
Nb0_3 Ru9_2 2.793959 1_556
Nb0_3 Ru9_6 2.793959 1_456
Nb0_3 Ru0_3 2.837384 1_555
Nb0_3 Ru0_7 2.837384 1_455
Nb0_3 Ru7_3 2.844752 1_555
Nb0_3 Ru7_7 2.844752 1_455
Nb0_3 Ru5_7 2.920895 1_455
Nb0_3 Ru5_3 2.920895 1_555
Nb0_3 Ru2_2 2.971386 1_556
Nb0_3 Ru2_6 2.971386 1_456
Nb0_3 Nb0_7 2.985085 1_555
Nb0_3 Nb0_7 2.985085 1_455
Nb0_4 Ru9_1 2.793959 1_555
Nb0_4 Ru9_5 2.793959 1_555
Nb0_4 Ru0_0 2.837384 1_555
Nb0_4 Ru0_4 2.837384 1_555
Nb0_4 Ru7_0 2.844752 1_555
Nb0_4 Ru7_4 2.844752 1_555
Nb0_4 Ru5_0 2.920895 1_555
Nb0_4 Ru5_4 2.920895 1_555
Nb0_4 Ru2_1 2.971386 1_555
Nb0_4 Ru2_5 2.971386 1_555
Nb0_5 Ru9_0 2.793959 1_556
Nb0_5 Ru9_4 2.793959 1_556
Nb0_5 Ru0_1 2.837384 1_555
Nb0_5 Ru0_5 2.837384 1_555
Nb0_5 Ru7_1 2.844752 1_555
Nb0_5 Ru7_5 2.844752 1_555
Nb0_5 Ru5_1 2.920895 1_555
Nb0_5 Ru5_5 2.920895 1_555
Nb0_5 Ru2_0 2.971386 1_556
Nb0_5 Ru2_4 2.971386 1_556
Nb0_6 Ru9_7 2.793959 1_555
Nb0_6 Ru9_3 2.793959 1_555
Nb0_6 Ru0_6 2.837384 1_555
Nb0_6 Ru0_2 2.837384 1_555
Nb0_6 Ru7_2 2.844752 1_555
Nb0_6 Ru7_6 2.844752 1_555
Nb0_6 Ru5_2 2.920895 1_555
Nb0_6 Ru5_6 2.920895 1_555
Nb0_6 Ru2_3 2.971386 1_555
Nb0_6 Ru2_7 2.971386 1_555
Nb0_7 Ru9_2 2.793959 1_556
Nb0_7 Ru9_6 2.793959 1_556
Nb0_7 Ru0_3 2.837384 1_555
Nb0_7 Ru0_7 2.837384 1_555
Nb0_7 Ru7_3 2.844752 1_555
Nb0_7 Ru7_7 2.844752 1_555
Nb0_7 Ru5_3 2.920895 1_555
Nb0_7 Ru5_7 2.920895 1_555
Nb0_7 Ru2_2 2.971386 1_556
Nb0_7 Ru2_6 2.971386 1_556
Nb1_0 Ru9_0 2.793959 1_555
Nb1_0 Ru9_4 2.793959 1_455
Nb1_0 Ru1_0 2.837384 1_555
Nb1_0 Ru1_4 2.837384 1_455
Nb1_0 Ru6_0 2.844752 1_555
Nb1_0 Ru6_4 2.844752 1_455
Nb1_0 Ru4_0 2.920895 1_555
Nb1_0 Ru4_4 2.920895 1_455
Nb1_0 Ru3_1 2.971386 1_554
Nb1_0 Ru3_5 2.971386 1_454
Nb1_0 Nb1_4 2.985085 1_555
Nb1_0 Nb1_4 2.985085 1_455
Nb1_1 Ru9_1 2.793959 1_555
Nb1_1 Ru9_5 2.793959 1_455
Nb1_1 Ru1_1 2.837384 1_555
Nb1_1 Ru1_5 2.837384 1_455
Nb1_1 Ru6_1 2.844752 1_555
Nb1_1 Ru6_5 2.844752 1_455
Nb1_1 Ru4_5 2.920895 1_455
Nb1_1 Ru4_1 2.920895 1_555
Nb1_1 Ru3_4 2.971386 1_455
Nb1_1 Ru3_0 2.971386 1_555
Nb1_1 Nb1_5 2.985085 1_555
Nb1_1 Nb1_5 2.985085 1_455
Nb1_2 Ru9_6 2.793959 1_455
Nb1_2 Ru9_2 2.793959 1_555
Nb1_2 Ru1_6 2.837384 1_455
Nb1_2 Ru1_2 2.837384 1_555
Nb1_2 Ru6_2 2.844752 1_555
Nb1_2 Ru6_6 2.844752 1_455
Nb1_2 Ru4_2 2.920895 1_555
Nb1_2 Ru4_6 2.920895 1_455
Nb1_2 Ru3_3 2.971386 1_554
Nb1_2 Ru3_7 2.971386 1_454
Nb1_2 Nb1_6 2.985085 1_555
Nb1_2 Nb1_6 2.985085 1_455
Nb1_3 Ru9_3 2.793959 1_555
Nb1_3 Ru9_7 2.793959 1_455
Nb1_3 Ru1_3 2.837384 1_555
Nb1_3 Ru1_7 2.837384 1_455
Nb1_3 Ru6_7 2.844752 1_455
Nb1_3 Ru6_3 2.844752 1_555
Nb1_3 Ru4_7 2.920895 1_455
Nb1_3 Ru4_3 2.920895 1_555
Nb1_3 Ru3_2 2.971386 1_555
Nb1_3 Ru3_6 2.971386 1_455
Nb1_3 Nb1_7 2.985085 1_555
Nb1_3 Nb1_7 2.985085 1_455
Nb1_4 Ru9_0 2.793959 1_555
Nb1_4 Ru9_4 2.793959 1_555
Nb1_4 Ru1_0 2.837384 1_555
Nb1_4 Ru1_4 2.837384 1_555
Nb1_4 Ru6_0 2.844752 1_555
Nb1_4 Ru6_4 2.844752 1_555
Nb1_4 Ru4_0 2.920895 1_555
Nb1_4 Ru4_4 2.920895 1_555
Nb1_4 Ru3_1 2.971386 1_554
Nb1_4 Ru3_5 2.971386 1_554
Nb1_5 Ru9_1 2.793959 1_555
Nb1_5 Ru9_5 2.793959 1_555
Nb1_5 Ru1_1 2.837384 1_555
Nb1_5 Ru1_5 2.837384 1_555
Nb1_5 Ru6_1 2.844752 1_555
Nb1_5 Ru6_5 2.844752 1_555
Nb1_5 Ru4_1 2.920895 1_555
Nb1_5 Ru4_5 2.920895 1_555
Nb1_5 Ru3_0 2.971386 1_555
Nb1_5 Ru3_4 2.971386 1_555
Nb1_6 Ru9_2 2.793959 1_555
Nb1_6 Ru9_6 2.793959 1_555
Nb1_6 Ru1_2 2.837384 1_555
Nb1_6 Ru1_6 2.837384 1_555
Nb1_6 Ru6_2 2.844752 1_555
Nb1_6 Ru6_6 2.844752 1_555
Nb1_6 Ru4_2 2.920895 1_555
Nb1_6 Ru4_6 2.920895 1_555
Nb1_6 Ru3_3 2.971386 1_554
Nb1_6 Ru3_7 2.971386 1_554
Nb1_7 Ru9_3 2.793959 1_555
Nb1_7 Ru9_7 2.793959 1_555
Nb1_7 Ru1_3 2.837384 1_555
Nb1_7 Ru1_7 2.837384 1_555
Nb1_7 Ru6_3 2.844752 1_555
Nb1_7 Ru6_7 2.844752 1_555
Nb1_7 Ru4_3 2.920895 1_555
Nb1_7 Ru4_7 2.920895 1_555
Nb1_7 Ru3_2 2.971386 1_555
Nb1_7 Ru3_6 2.971386 1_555
Nb2_0 Ru8_2 2.793959 1_555
Nb2_0 Ru8_6 2.793959 1_455
Nb2_0 Ru4_0 2.837384 1_555
Nb2_0 Ru4_4 2.837384 1_455
Nb2_0 Ru2_0 2.844752 1_555
Nb2_0 Ru2_4 2.844752 1_455
Nb2_0 Ru0_4 2.920895 1_455
Nb2_0 Ru0_0 2.920895 1_555
Nb2_0 Ru6_6 2.971386 1_455
Nb2_0 Ru6_2 2.971386 1_555
Nb2_0 Nb2_4 2.985085 1_555
Nb2_0 Nb2_4 2.985085 1_455
Nb2_1 Ru8_3 2.793959 1_555
Nb2_1 Ru8_7 2.793959 1_455
Nb2_1 Ru4_1 2.837384 1_555
Nb2_1 Ru4_5 2.837384 1_455
Nb2_1 Ru2_1 2.844752 1_555
Nb2_1 Ru2_5 2.844752 1_455
Nb2_1 Ru0_5 2.920895 1_455
Nb2_1 Ru0_1 2.920895 1_555
Nb2_1 Ru6_3 2.971386 1_555
Nb2_1 Ru6_7 2.971386 1_455
Nb2_1 Nb2_5 2.985085 1_555
Nb2_1 Nb2_5 2.985085 1_455
Nb2_2 Ru8_4 2.793959 1_465
Nb2_2 Ru8_0 2.793959 1_565
Nb2_2 Ru4_2 2.837384 1_555
Nb2_2 Ru4_6 2.837384 1_455
Nb2_2 Ru2_2 2.844752 1_555
Nb2_2 Ru2_6 2.844752 1_455
Nb2_2 Ru0_6 2.920895 1_455
Nb2_2 Ru0_2 2.920895 1_555
Nb2_2 Ru6_0 2.971386 1_565
Nb2_2 Ru6_4 2.971386 1_465
Nb2_2 Nb2_6 2.985085 1_555
Nb2_2 Nb2_6 2.985085 1_455
Nb2_3 Ru8_5 2.793959 1_465
Nb2_3 Ru8_1 2.793959 1_565
Nb2_3 Ru4_7 2.837384 1_455
Nb2_3 Ru4_3 2.837384 1_555
Nb2_3 Ru2_3 2.844752 1_555
Nb2_3 Ru2_7 2.844752 1_455
Nb2_3 Ru0_7 2.920895 1_455
Nb2_3 Ru0_3 2.920895 1_555
Nb2_3 Ru6_1 2.971386 1_565
Nb2_3 Ru6_5 2.971386 1_465
Nb2_3 Nb2_7 2.985085 1_555
Nb2_3 Nb2_7 2.985085 1_455
Nb2_4 Ru8_6 2.793959 1_555
Nb2_4 Ru8_2 2.793959 1_555
Nb2_4 Ru4_0 2.837384 1_555
Nb2_4 Ru4_4 2.837384 1_555
Nb2_4 Ru2_0 2.844752 1_555
Nb2_4 Ru2_4 2.844752 1_555
Nb2_4 Ru0_0 2.920895 1_555
Nb2_4 Ru0_4 2.920895 1_555
Nb2_4 Ru6_6 2.971386 1_555
Nb2_4 Ru6_2 2.971386 1_555
Nb2_5 Ru8_3 2.793959 1_555
Nb2_5 Ru8_7 2.793959 1_555
Nb2_5 Ru4_1 2.837384 1_555
Nb2_5 Ru4_5 2.837384 1_555
Nb2_5 Ru2_1 2.844752 1_555
Nb2_5 Ru2_5 2.844752 1_555
Nb2_5 Ru0_5 2.920895 1_555
Nb2_5 Ru0_1 2.920895 1_555
Nb2_5 Ru6_3 2.971386 1_555
Nb2_5 Ru6_7 2.971386 1_555
Nb2_6 Ru8_0 2.793959 1_565
Nb2_6 Ru8_4 2.793959 1_565
Nb2_6 Ru4_2 2.837384 1_555
Nb2_6 Ru4_6 2.837384 1_555
Nb2_6 Ru2_2 2.844752 1_555
Nb2_6 Ru2_6 2.844752 1_555
Nb2_6 Ru0_6 2.920895 1_555
Nb2_6 Ru0_2 2.920895 1_555
Nb2_6 Ru6_0 2.971386 1_565
Nb2_6 Ru6_4 2.971386 1_565
Nb2_7 Ru8_1 2.793959 1_565
Nb2_7 Ru8_5 2.793959 1_565
Nb2_7 Ru4_3 2.837384 1_555
Nb2_7 Ru4_7 2.837384 1_555
Nb2_7 Ru2_3 2.844752 1_555
Nb2_7 Ru2_7 2.844752 1_555
Nb2_7 Ru0_3 2.920895 1_555
Nb2_7 Ru0_7 2.920895 1_555
Nb2_7 Ru6_1 2.971386 1_565
Nb2_7 Ru6_5 2.971386 1_565
Nb3_0 Ru8_0 2.793959 1_555
Nb3_0 Ru8_4 2.793959 1_455
Nb3_0 Ru5_0 2.837384 1_555
Nb3_0 Ru5_4 2.837384 1_455
Nb3_0 Ru3_0 2.844752 1_555
Nb3_0 Ru3_4 2.844752 1_455
Nb3_0 Ru1_0 2.920895 1_555
Nb3_0 Ru1_4 2.920895 1_455
Nb3_0 Ru7_2 2.971386 1_545
Nb3_0 Ru7_6 2.971386 1_445
Nb3_0 Nb3_4 2.985085 1_555
Nb3_0 Nb3_4 2.985085 1_455
Nb3_1 Ru8_1 2.793959 1_555
Nb3_1 Ru8_5 2.793959 1_455
Nb3_1 Ru5_1 2.837384 1_555
Nb3_1 Ru5_5 2.837384 1_455
Nb3_1 Ru3_1 2.844752 1_555
Nb3_1 Ru3_5 2.844752 1_455
Nb3_1 Ru1_1 2.920895 1_555
Nb3_1 Ru1_5 2.920895 1_455
Nb3_1 Ru7_7 2.971386 1_445
Nb3_1 Ru7_3 2.971386 1_545
Nb3_1 Nb3_5 2.985085 1_555
Nb3_1 Nb3_5 2.985085 1_455
Nb3_2 Ru8_2 2.793959 1_555
Nb3_2 Ru8_6 2.793959 1_455
Nb3_2 Ru5_2 2.837384 1_555
Nb3_2 Ru5_6 2.837384 1_455
Nb3_2 Ru3_2 2.844752 1_555
Nb3_2 Ru3_6 2.844752 1_455
Nb3_2 Ru1_6 2.920895 1_455
Nb3_2 Ru1_2 2.920895 1_555
Nb3_2 Ru7_0 2.971386 1_555
Nb3_2 Ru7_4 2.971386 1_455
Nb3_2 Nb3_6 2.985085 1_555
Nb3_2 Nb3_6 2.985085 1_455
Nb3_3 Ru8_3 2.793959 1_555
Nb3_3 Ru8_7 2.793959 1_455
Nb3_3 Ru5_3 2.837384 1_555
Nb3_3 Ru5_7 2.837384 1_455
Nb3_3 Ru3_3 2.844752 1_555
Nb3_3 Ru3_7 2.844752 1_455
Nb3_3 Ru1_3 2.920895 1_555
Nb3_3 Ru1_7 2.920895 1_455
Nb3_3 Ru7_5 2.971386 1_455
Nb3_3 Ru7_1 2.971386 1_555
Nb3_3 Nb3_7 2.985085 1_555
Nb3_3 Nb3_7 2.985085 1_455
Nb3_4 Ru8_0 2.793959 1_555
Nb3_4 Ru8_4 2.793959 1_555
Nb3_4 Ru5_0 2.837384 1_555
Nb3_4 Ru5_4 2.837384 1_555
Nb3_4 Ru3_0 2.844752 1_555
Nb3_4 Ru3_4 2.844752 1_555
Nb3_4 Ru1_0 2.920895 1_555
Nb3_4 Ru1_4 2.920895 1_555
Nb3_4 Ru7_2 2.971386 1_545
Nb3_4 Ru7_6 2.971386 1_545
Nb3_5 Ru8_1 2.793959 1_555
Nb3_5 Ru8_5 2.793959 1_555
Nb3_5 Ru5_1 2.837384 1_555
Nb3_5 Ru5_5 2.837384 1_555
Nb3_5 Ru3_1 2.844752 1_555
Nb3_5 Ru3_5 2.844752 1_555
Nb3_5 Ru1_1 2.920895 1_555
Nb3_5 Ru1_5 2.920895 1_555
Nb3_5 Ru7_7 2.971386 1_545
Nb3_5 Ru7_3 2.971386 1_545
Nb3_6 Ru8_2 2.793959 1_555
Nb3_6 Ru8_6 2.793959 1_555
Nb3_6 Ru5_2 2.837384 1_555
Nb3_6 Ru5_6 2.837384 1_555
Nb3_6 Ru3_2 2.844752 1_555
Nb3_6 Ru3_6 2.844752 1_555
Nb3_6 Ru1_2 2.920895 1_555
Nb3_6 Ru1_6 2.920895 1_555
Nb3_6 Ru7_0 2.971386 1_555
Nb3_6 Ru7_4 2.971386 1_555
Nb3_7 Ru8_3 2.793959 1_555
Nb3_7 Ru8_7 2.793959 1_555
Nb3_7 Ru5_3 2.837384 1_555
Nb3_7 Ru5_7 2.837384 1_555
Nb3_7 Ru3_3 2.844752 1_555
Nb3_7 Ru3_7 2.844752 1_555
Nb3_7 Ru1_7 2.920895 1_555
Nb3_7 Ru1_3 2.920895 1_555
Nb3_7 Ru7_5 2.971386 1_555
Nb3_7 Ru7_1 2.971386 1_555
Nb4_0 Ru3_1 2.647610 1_554
Nb4_0 Ru3_5 2.647610 1_454
Nb4_0 Ru6_4 2.647610 1_455
Nb4_0 Ru7_3 2.647610 1_544
Nb4_0 Ru7_7 2.647610 1_444
Nb4_0 Ru6_0 2.647610 1_555
Nb4_0 Ru2_2 2.647610 1_545
Nb4_0 Ru2_6 2.647610 1_445
Nb4_1 Ru7_2 2.647610 1_545
Nb4_1 Ru7_6 2.647610 1_445
Nb4_1 Ru3_0 2.647610 1_555
Nb4_1 Ru3_4 2.647610 1_455
Nb4_1 Ru6_5 2.647610 1_455
Nb4_1 Ru6_1 2.647610 1_555
Nb4_1 Ru2_3 2.647610 1_545
Nb4_1 Ru2_7 2.647610 1_445
Nb4_2 Ru2_0 2.647610 1_555
Nb4_2 Ru2_4 2.647610 1_455
Nb4_2 Ru6_2 2.647610 1_555
Nb4_2 Ru3_3 2.647610 1_554
Nb4_2 Ru3_7 2.647610 1_454
Nb4_2 Ru6_6 2.647610 1_455
Nb4_2 Ru7_1 2.647610 1_554
Nb4_2 Ru7_5 2.647610 1_454
Nb4_3 Ru7_4 2.647610 1_455
Nb4_3 Ru2_5 2.647610 1_455
Nb4_3 Ru2_1 2.647610 1_555
Nb4_3 Ru7_0 2.647610 1_555
Nb4_3 Ru6_3 2.647610 1_555
Nb4_3 Ru3_6 2.647610 1_455
Nb4_3 Ru3_2 2.647610 1_555
Nb4_3 Ru6_7 2.647610 1_455
Nb4_4 Ru3_1 2.647610 1_554
Nb4_4 Ru3_5 2.647610 1_554
Nb4_4 Ru6_4 2.647610 1_555
Nb4_4 Ru7_3 2.647610 1_544
Nb4_4 Ru6_0 2.647610 1_555
Nb4_4 Ru7_7 2.647610 1_544
Nb4_4 Ru2_2 2.647610 1_545
Nb4_4 Ru2_6 2.647610 1_545
Nb4_5 Ru7_2 2.647610 1_545
Nb4_5 Ru7_6 2.647610 1_545
Nb4_5 Ru3_0 2.647610 1_555
Nb4_5 Ru3_4 2.647610 1_555
Nb4_5 Ru6_5 2.647610 1_555
Nb4_5 Ru6_1 2.647610 1_555
Nb4_5 Ru2_3 2.647610 1_545
Nb4_5 Ru2_7 2.647610 1_545
Nb4_6 Ru2_0 2.647610 1_555
Nb4_6 Ru2_4 2.647610 1_555
Nb4_6 Ru3_7 2.647610 1_554
Nb4_6 Ru6_2 2.647610 1_555
Nb4_6 Ru3_3 2.647610 1_554
Nb4_6 Ru6_6 2.647610 1_555
Nb4_6 Ru7_1 2.647610 1_554
Nb4_6 Ru7_5 2.647610 1_554
Nb4_7 Ru7_4 2.647610 1_555
Nb4_7 Ru2_1 2.647610 1_555
Nb4_7 Ru7_0 2.647610 1_555
Nb4_7 Ru2_5 2.647610 1_555
Nb4_7 Ru3_6 2.647610 1_555
Nb4_7 Ru6_3 2.647610 1_555
Nb4_7 Ru3_2 2.647610 1_555
Nb4_7 Ru6_7 2.647610 1_555
Cr0_0 Ru5_0 2.590054 1_555
Cr0_0 Ru1_4 2.590054 1_455
Cr0_0 Ru5_4 2.590054 1_455
Cr0_0 Ru4_4 2.590054 1_455
Cr0_0 Ru0_4 2.590054 1_455
Cr0_0 Ru0_0 2.590054 1_555
Cr0_0 Ru1_0 2.590054 1_555
Cr0_0 Ru4_0 2.590054 1_555
Cr0_1 Ru0_5 2.590054 1_455
Cr0_1 Ru0_1 2.590054 1_555
Cr0_1 Ru5_5 2.590054 1_455
Cr0_1 Ru5_1 2.590054 1_555
Cr0_1 Ru1_1 2.590054 1_555
Cr0_1 Ru1_5 2.590054 1_455
Cr0_1 Ru4_5 2.590054 1_455
Cr0_1 Ru4_1 2.590054 1_555
Cr0_2 Ru4_2 2.590054 1_555
Cr0_2 Ru4_6 2.590054 1_455
Cr0_2 Ru0_2 2.590054 1_555
Cr0_2 Ru0_6 2.590054 1_455
Cr0_2 Ru5_2 2.590054 1_555
Cr0_2 Ru5_6 2.590054 1_455
Cr0_2 Ru1_2 2.590054 1_555
Cr0_2 Ru1_6 2.590054 1_455
Cr0_3 Ru0_3 2.590054 1_555
Cr0_3 Ru0_7 2.590054 1_455
Cr0_3 Ru5_3 2.590054 1_555
Cr0_3 Ru5_7 2.590054 1_455
Cr0_3 Ru4_7 2.590054 1_455
Cr0_3 Ru4_3 2.590054 1_555
Cr0_3 Ru1_7 2.590054 1_455
Cr0_3 Ru1_3 2.590054 1_555
Cr0_4 Ru4_4 2.590054 1_555
Cr0_4 Ru5_0 2.590054 1_555
Cr0_4 Ru1_4 2.590054 1_555
Cr0_4 Ru5_4 2.590054 1_555
Cr0_4 Ru0_4 2.590054 1_555
Cr0_4 Ru1_0 2.590054 1_555
Cr0_4 Ru0_0 2.590054 1_555
Cr0_4 Ru4_0 2.590054 1_555
Cr0_5 Ru0_5 2.590054 1_555
Cr0_5 Ru0_1 2.590054 1_555
Cr0_5 Ru5_1 2.590054 1_555
Cr0_5 Ru5_5 2.590054 1_555
Cr0_5 Ru1_1 2.590054 1_555
Cr0_5 Ru1_5 2.590054 1_555
Cr0_5 Ru4_5 2.590054 1_555
Cr0_5 Ru4_1 2.590054 1_555
Cr0_6 Ru4_2 2.590054 1_555
Cr0_6 Ru4_6 2.590054 1_555
Cr0_6 Ru0_2 2.590054 1_555
Cr0_6 Ru0_6 2.590054 1_555
Cr0_6 Ru5_2 2.590054 1_555
Cr0_6 Ru5_6 2.590054 1_555
Cr0_6 Ru1_2 2.590054 1_555
Cr0_6 Ru1_6 2.590054 1_555
Cr0_7 Ru0_7 2.590054 1_555
Cr0_7 Ru0_3 2.590054 1_555
Cr0_7 Ru5_3 2.590054 1_555
Cr0_7 Ru5_7 2.590054 1_555
Cr0_7 Ru4_7 2.590054 1_555
Cr0_7 Ru4_3 2.590054 1_555
Cr0_7 Ru1_3 2.590054 1_555
Cr0_7 Ru1_7 2.590054 1_555
B0_0 Ru7_0 2.182857 1_555
B0_0 Ru7_4 2.182857 1_455
B0_0 Ru0_0 2.187974 1_555
B0_0 Ru0_4 2.187974 1_455
B0_0 Ru8_2 2.213258 1_555
B0_0 Ru8_6 2.213258 1_455
B0_0 Nb0_0 2.680808 1_555
B0_0 Nb2_0 2.826857 1_555
B0_0 Nb3_2 2.916777 1_555
B0_1 Ru7_5 2.182857 1_455
B0_1 Ru7_1 2.182857 1_555
B0_1 Ru0_5 2.187974 1_455
B0_1 Ru0_1 2.187974 1_555
B0_1 Ru8_7 2.213258 1_455
B0_1 Ru8_3 2.213258 1_555
B0_1 Nb0_1 2.680808 1_555
B0_1 Nb2_1 2.826857 1_555
B0_1 Nb3_3 2.916777 1_555
B0_2 Ru7_2 2.182857 1_555
B0_2 Ru7_6 2.182857 1_455
B0_2 Ru0_2 2.187974 1_555
B0_2 Ru0_6 2.187974 1_455
B0_2 Ru8_0 2.213258 1_565
B0_2 Ru8_4 2.213258 1_465
B0_2 Nb0_2 2.680808 1_555
B0_2 Nb2_2 2.826857 1_555
B0_2 Nb3_0 2.916777 1_565
B0_3 Ru7_3 2.182857 1_555
B0_3 Ru7_7 2.182857 1_455
B0_3 Ru0_7 2.187974 1_455
B0_3 Ru0_3 2.187974 1_555
B0_3 Ru8_5 2.213258 1_465
B0_3 Ru8_1 2.213258 1_565
B0_3 Nb0_3 2.680808 1_555
B0_3 Nb2_3 2.826857 1_555
B0_3 Nb3_1 2.916777 1_565
B0_4 Ru7_4 2.182857 1_555
B0_4 Ru7_0 2.182857 1_555
B0_4 Ru0_0 2.187974 1_555
B0_4 Ru0_4 2.187974 1_555
B0_4 Ru8_2 2.213258 1_555
B0_4 Ru8_6 2.213258 1_555
B0_4 Nb0_4 2.680808 1_555
B0_4 Nb2_4 2.826857 1_555
B0_4 Nb3_6 2.916777 1_555
B0_5 Ru7_5 2.182857 1_555
B0_5 Ru7_1 2.182857 1_555
B0_5 Ru0_1 2.187974 1_555
B0_5 Ru0_5 2.187974 1_555
B0_5 Ru8_3 2.213258 1_555
B0_5 Ru8_7 2.213258 1_555
B0_5 Nb0_5 2.680808 1_555
B0_5 Nb2_5 2.826857 1_555
B0_5 Nb3_7 2.916777 1_555
B0_6 Ru7_2 2.182857 1_555
B0_6 Ru7_6 2.182857 1_555
B0_6 Ru0_2 2.187974 1_555
B0_6 Ru0_6 2.187974 1_555
B0_6 Ru8_0 2.213258 1_565
B0_6 Ru8_4 2.213258 1_565
B0_6 Nb0_6 2.680808 1_555
B0_6 Nb2_6 2.826857 1_555
B0_6 Nb3_4 2.916777 1_565
B0_7 Ru7_3 2.182857 1_555
B0_7 Ru7_7 2.182857 1_555
B0_7 Ru0_3 2.187974 1_555
B0_7 Ru0_7 2.187974 1_555
B0_7 Ru8_1 2.213258 1_565
B0_7 Ru8_5 2.213258 1_565
B0_7 Nb0_7 2.680808 1_555
B0_7 Nb2_7 2.826857 1_555
B0_7 Nb3_5 2.916777 1_565
B1_0 Ru6_0 2.182857 1_555
B1_0 Ru6_4 2.182857 1_455
B1_0 Ru1_0 2.187974 1_555
B1_0 Ru1_4 2.187974 1_455
B1_0 Ru8_0 2.213258 1_555
B1_0 Ru8_4 2.213258 1_455
B1_0 Nb1_0 2.680808 1_555
B1_0 Nb3_0 2.826857 1_555
B1_0 Nb2_2 2.916777 1_545
B1_1 Ru6_1 2.182857 1_555
B1_1 Ru6_5 2.182857 1_455
B1_1 Ru1_1 2.187974 1_555
B1_1 Ru1_5 2.187974 1_455
B1_1 Ru8_1 2.213258 1_555
B1_1 Ru8_5 2.213258 1_455
B1_1 Nb1_1 2.680808 1_555
B1_1 Nb3_1 2.826857 1_555
B1_1 Nb2_3 2.916777 1_545
B1_2 Ru6_2 2.182857 1_555
B1_2 Ru6_6 2.182857 1_455
B1_2 Ru1_2 2.187974 1_555
B1_2 Ru1_6 2.187974 1_455
B1_2 Ru8_2 2.213258 1_555
B1_2 Ru8_6 2.213258 1_455
B1_2 Nb1_2 2.680808 1_555
B1_2 Nb3_2 2.826857 1_555
B1_2 Nb2_0 2.916777 1_555
B1_3 Ru6_3 2.182857 1_555
B1_3 Ru6_7 2.182857 1_455
B1_3 Ru1_3 2.187974 1_555
B1_3 Ru1_7 2.187974 1_455
B1_3 Ru8_3 2.213258 1_555
B1_3 Ru8_7 2.213258 1_455
B1_3 Nb1_3 2.680808 1_555
B1_3 Nb3_3 2.826857 1_555
B1_3 Nb2_1 2.916777 1_555
B1_4 Ru6_0 2.182857 1_555
B1_4 Ru6_4 2.182857 1_555
B1_4 Ru1_0 2.187974 1_555
B1_4 Ru1_4 2.187974 1_555
B1_4 Ru8_0 2.213258 1_555
B1_4 Ru8_4 2.213258 1_555
B1_4 Nb1_4 2.680808 1_555
B1_4 Nb3_4 2.826857 1_555
B1_4 Nb2_6 2.916777 1_545
B1_5 Ru6_1 2.182857 1_555
B1_5 Ru6_5 2.182857 1_555
B1_5 Ru1_1 2.187974 1_555
B1_5 Ru1_5 2.187974 1_555
B1_5 Ru8_1 2.213258 1_555
B1_5 Ru8_5 2.213258 1_555
B1_5 Nb1_5 2.680808 1_555
B1_5 Nb3_5 2.826857 1_555
B1_5 Nb2_7 2.916777 1_545
B1_6 Ru6_2 2.182857 1_555
B1_6 Ru6_6 2.182857 1_555
B1_6 Ru1_2 2.187974 1_555
B1_6 Ru1_6 2.187974 1_555
B1_6 Ru8_2 2.213258 1_555
B1_6 Ru8_6 2.213258 1_555
B1_6 Nb1_6 2.680808 1_555
B1_6 Nb3_6 2.826857 1_555
B1_6 Nb2_4 2.916777 1_555
B1_7 Ru6_3 2.182857 1_555
B1_7 Ru6_7 2.182857 1_555
B1_7 Ru1_3 2.187974 1_555
B1_7 Ru1_7 2.187974 1_555
B1_7 Ru8_3 2.213258 1_555
B1_7 Ru8_7 2.213258 1_555
B1_7 Nb1_7 2.680808 1_555
B1_7 Nb3_7 2.826857 1_555
B1_7 Nb2_5 2.916777 1_555
B2_0 Ru2_0 2.182857 1_555
B2_0 Ru2_4 2.182857 1_455
B2_0 Ru4_0 2.187974 1_555
B2_0 Ru4_4 2.187974 1_455
B2_0 Ru9_0 2.213258 1_555
B2_0 Ru9_4 2.213258 1_455
B2_0 Nb2_0 2.680808 1_555
B2_0 Nb1_0 2.826857 1_555
B2_0 Nb0_1 2.916777 1_554
B2_1 Ru2_5 2.182857 1_455
B2_1 Ru2_1 2.182857 1_555
B2_1 Ru4_1 2.187974 1_555
B2_1 Ru4_5 2.187974 1_455
B2_1 Ru9_1 2.213258 1_555
B2_1 Ru9_5 2.213258 1_455
B2_1 Nb2_1 2.680808 1_555
B2_1 Nb1_1 2.826857 1_555
B2_1 Nb0_0 2.916777 1_555
B2_2 Ru2_2 2.182857 1_555
B2_2 Ru2_6 2.182857 1_455
B2_2 Ru4_2 2.187974 1_555
B2_2 Ru4_6 2.187974 1_455
B2_2 Ru9_2 2.213258 1_555
B2_2 Ru9_6 2.213258 1_455
B2_2 Nb2_2 2.680808 1_555
B2_2 Nb1_2 2.826857 1_555
B2_2 Nb0_3 2.916777 1_554
B2_3 Ru2_3 2.182857 1_555
B2_3 Ru2_7 2.182857 1_455
B2_3 Ru4_3 2.187974 1_555
B2_3 Ru4_7 2.187974 1_455
B2_3 Ru9_3 2.213258 1_555
B2_3 Ru9_7 2.213258 1_455
B2_3 Nb2_3 2.680808 1_555
B2_3 Nb1_3 2.826857 1_555
B2_3 Nb0_2 2.916777 1_555
B2_4 Ru2_0 2.182857 1_555
B2_4 Ru2_4 2.182857 1_555
B2_4 Ru4_0 2.187974 1_555
B2_4 Ru4_4 2.187974 1_555
B2_4 Ru9_0 2.213258 1_555
B2_4 Ru9_4 2.213258 1_555
B2_4 Nb2_4 2.680808 1_555
B2_4 Nb1_4 2.826857 1_555
B2_4 Nb0_5 2.916777 1_554
B2_5 Ru2_5 2.182857 1_555
B2_5 Ru2_1 2.182857 1_555
B2_5 Ru4_1 2.187974 1_555
B2_5 Ru4_5 2.187974 1_555
B2_5 Ru9_1 2.213258 1_555
B2_5 Ru9_5 2.213258 1_555
B2_5 Nb2_5 2.680808 1_555
B2_5 Nb1_5 2.826857 1_555
B2_5 Nb0_4 2.916777 1_555
B2_6 Ru2_2 2.182857 1_555
B2_6 Ru2_6 2.182857 1_555
B2_6 Ru4_2 2.187974 1_555
B2_6 Ru4_6 2.187974 1_555
B2_6 Ru9_2 2.213258 1_555
B2_6 Ru9_6 2.213258 1_555
B2_6 Nb2_6 2.680808 1_555
B2_6 Nb1_6 2.826857 1_555
B2_6 Nb0_7 2.916777 1_554
B2_7 Ru2_3 2.182857 1_555
B2_7 Ru2_7 2.182857 1_555
B2_7 Ru4_3 2.187974 1_555
B2_7 Ru4_7 2.187974 1_555
B2_7 Ru9_3 2.213258 1_555
B2_7 Ru9_7 2.213258 1_555
B2_7 Nb2_7 2.680808 1_555
B2_7 Nb1_7 2.826857 1_555
B2_7 Nb0_6 2.916777 1_555
B3_0 Ru3_0 2.182857 1_555
B3_0 Ru3_4 2.182857 1_455
B3_0 Ru5_0 2.187974 1_555
B3_0 Ru5_4 2.187974 1_455
B3_0 Ru9_5 2.213258 1_455
B3_0 Ru9_1 2.213258 1_555
B3_0 Nb3_0 2.680808 1_555
B3_0 Nb0_0 2.826857 1_555
B3_0 Nb1_1 2.916777 1_555
B3_1 Ru3_5 2.182857 1_455
B3_1 Ru3_1 2.182857 1_555
B3_1 Ru5_1 2.187974 1_555
B3_1 Ru5_5 2.187974 1_455
B3_1 Ru9_4 2.213258 1_456
B3_1 Ru9_0 2.213258 1_556
B3_1 Nb3_1 2.680808 1_555
B3_1 Nb0_1 2.826857 1_555
B3_1 Nb1_0 2.916777 1_556
B3_2 Ru3_2 2.182857 1_555
B3_2 Ru3_6 2.182857 1_455
B3_2 Ru5_2 2.187974 1_555
B3_2 Ru5_6 2.187974 1_455
B3_2 Ru9_3 2.213258 1_555
B3_2 Ru9_7 2.213258 1_455
B3_2 Nb3_2 2.680808 1_555
B3_2 Nb0_2 2.826857 1_555
B3_2 Nb1_3 2.916777 1_555
B3_3 Ru3_3 2.182857 1_555
B3_3 Ru3_7 2.182857 1_455
B3_3 Ru5_3 2.187974 1_555
B3_3 Ru5_7 2.187974 1_455
B3_3 Ru9_2 2.213258 1_556
B3_3 Ru9_6 2.213258 1_456
B3_3 Nb3_3 2.680808 1_555
B3_3 Nb0_3 2.826857 1_555
B3_3 Nb1_2 2.916777 1_556
B3_4 Ru3_0 2.182857 1_555
B3_4 Ru3_4 2.182857 1_555
B3_4 Ru5_0 2.187974 1_555
B3_4 Ru5_4 2.187974 1_555
B3_4 Ru9_1 2.213258 1_555
B3_4 Ru9_5 2.213258 1_555
B3_4 Nb3_4 2.680808 1_555
B3_4 Nb0_4 2.826857 1_555
B3_4 Nb1_5 2.916777 1_555
B3_5 Ru3_5 2.182857 1_555
B3_5 Ru3_1 2.182857 1_555
B3_5 Ru5_1 2.187974 1_555
B3_5 Ru5_5 2.187974 1_555
B3_5 Ru9_4 2.213258 1_556
B3_5 Ru9_0 2.213258 1_556
B3_5 Nb3_5 2.680808 1_555
B3_5 Nb0_5 2.826857 1_555
B3_5 Nb1_4 2.916777 1_556
B3_6 Ru3_2 2.182857 1_555
B3_6 Ru3_6 2.182857 1_555
B3_6 Ru5_2 2.187974 1_555
B3_6 Ru5_6 2.187974 1_555
B3_6 Ru9_3 2.213258 1_555
B3_6 Ru9_7 2.213258 1_555
B3_6 Nb3_6 2.680808 1_555
B3_6 Nb0_6 2.826857 1_555
B3_6 Nb1_7 2.916777 1_555
B3_7 Ru3_3 2.182857 1_555
B3_7 Ru3_7 2.182857 1_555
B3_7 Ru5_3 2.187974 1_555
B3_7 Ru5_7 2.187974 1_555
B3_7 Ru9_2 2.213258 1_556
B3_7 Ru9_6 2.213258 1_556
B3_7 Nb3_7 2.680808 1_555
B3_7 Nb0_7 2.826857 1_555
B3_7 Nb1_6 2.916777 1_556
