# generated using pymatgen
data_Rb2ZnBr4
_symmetry_space_group_name_H-M   'P 1'
_cell_length_a   15.82983337
_cell_length_b   15.81483613
_cell_length_c   29.72948722
_cell_angle_alpha   90.01291873
_cell_angle_beta   90.02581299
_cell_angle_gamma   59.96862724
_symmetry_Int_Tables_number   1
_chemical_formula_structural   Rb2ZnBr4
_chemical_formula_sum   'Rb48 Zn24 Br96'
_cell_volume   6443.49750008
_cell_formula_units_Z   24
loop_
 _symmetry_equiv_pos_site_id
 _symmetry_equiv_pos_as_xyz
  1  'x, y, z'
loop_
 _atom_site_type_symbol
 _atom_site_label
 _atom_site_symmetry_multiplicity
 _atom_site_fract_x
 _atom_site_fract_y
 _atom_site_fract_z
 _atom_site_occupancy
  Rb  Rb0  1  0.83609347  0.07805790  0.32816506  1
  Rb  Rb1  1  0.91415137  0.92194210  0.82816506  1
  Rb  Rb2  1  0.84588068  0.06501315  0.66261587  1
  Rb  Rb3  1  0.91089383  0.93498685  0.16261587  1
  Rb  Rb4  1  0.86366690  0.07289833  0.99784045  1
  Rb  Rb5  1  0.93656523  0.92710167  0.49784045  1
  Rb  Rb6  1  0.35621760  0.07173110  0.32926855  1
  Rb  Rb7  1  0.42794870  0.92826890  0.82926855  1
  Rb  Rb8  1  0.33680424  0.08101118  0.66474234  1
  Rb  Rb9  1  0.41781542  0.91898882  0.16474234  1
  Rb  Rb10  1  0.37097855  0.06729206  0.99506200  1
  Rb  Rb11  1  0.43827061  0.93270794  0.49506200  1
  Rb  Rb12  1  0.36200946  0.57233335  0.50178768  1
  Rb  Rb13  1  0.93434281  0.42766665  0.00178768  1
  Rb  Rb14  1  0.35198729  0.57438574  0.83871833  1
  Rb  Rb15  1  0.92637302  0.42561426  0.33871833  1
  Rb  Rb16  1  0.34921554  0.56992849  0.17336808  1
  Rb  Rb17  1  0.91914403  0.43007151  0.67336808  1
  Rb  Rb18  1  0.86754945  0.57136002  0.50442330  1
  Rb  Rb19  1  0.43890947  0.42863998  0.00442330  1
  Rb  Rb20  1  0.82430019  0.57419596  0.83469155  1
  Rb  Rb21  1  0.39849614  0.42580404  0.33469155  1
  Rb  Rb22  1  0.84325773  0.57283670  0.16771833  1
  Rb  Rb23  1  0.41609443  0.42716330  0.66771833  1
  Rb  Rb24  1  0.71602806  0.35021059  0.20648314  1
  Rb  Rb25  1  0.06623865  0.64978941  0.70648314  1
  Rb  Rb26  1  0.73502030  0.34975171  0.54165050  1
  Rb  Rb27  1  0.08477201  0.65024829  0.04165050  1
  Rb  Rb28  1  0.73632485  0.32583818  0.87617690  1
  Rb  Rb29  1  0.06216303  0.67416182  0.37617690  1
  Rb  Rb30  1  0.18946500  0.34956458  0.20706288  1
  Rb  Rb31  1  0.53902958  0.65043542  0.70706288  1
  Rb  Rb32  1  0.22285927  0.33004294  0.53999447  1
  Rb  Rb33  1  0.55290221  0.66995706  0.03999447  1
  Rb  Rb34  1  0.20280852  0.35697460  0.87495401  1
  Rb  Rb35  1  0.55978312  0.64302540  0.37495401  1
  Rb  Rb36  1  0.22091738  0.86283548  0.62390007  1
  Rb  Rb37  1  0.08375285  0.13716452  0.12390007  1
  Rb  Rb38  1  0.20390296  0.86021077  0.95799240  1
  Rb  Rb39  1  0.06411373  0.13978923  0.45799240  1
  Rb  Rb40  1  0.19578002  0.86269288  0.29262943  1
  Rb  Rb41  1  0.05847289  0.13730712  0.79262943  1
  Rb  Rb42  1  0.70733813  0.84337517  0.62472079  1
  Rb  Rb43  1  0.55071331  0.15662483  0.12472079  1
  Rb  Rb44  1  0.74394602  0.83934694  0.95915184  1
  Rb  Rb45  1  0.58329296  0.16065306  0.45915184  1
  Rb  Rb46  1  0.71891110  0.83032641  0.29228469  1
  Rb  Rb47  1  0.54923752  0.16967359  0.79228469  1
  Zn  Zn0  1  0.72483371  0.33606812  0.40517893  1
  Zn  Zn1  1  0.06090183  0.66393188  0.90517893  1
  Zn  Zn2  1  0.72718594  0.32162906  0.74017101  1
  Zn  Zn3  1  0.04881500  0.67837094  0.24017101  1
  Zn  Zn4  1  0.71874906  0.33156020  0.07375696  1
  Zn  Zn5  1  0.05030926  0.66843980  0.57375696  1
  Zn  Zn6  1  0.22509680  0.32865838  0.40796933  1
  Zn  Zn7  1  0.55375519  0.67134162  0.90796933  1
  Zn  Zn8  1  0.21051091  0.33757332  0.74322738  1
  Zn  Zn9  1  0.54808423  0.66242668  0.24322738  1
  Zn  Zn10  1  0.21577255  0.32300418  0.07276173  1
  Zn  Zn11  1  0.53877673  0.67699582  0.57276173  1
  Zn  Zn12  1  0.21919175  0.83574980  0.42652715  1
  Zn  Zn13  1  0.05494155  0.16425020  0.92652715  1
  Zn  Zn14  1  0.22527925  0.82875225  0.75895481  1
  Zn  Zn15  1  0.05403150  0.17124775  0.25895481  1
  Zn  Zn16  1  0.22886645  0.82578764  0.09276723  1
  Zn  Zn17  1  0.05465409  0.17421236  0.59276723  1
  Zn  Zn18  1  0.72288448  0.82382008  0.42547359  1
  Zn  Zn19  1  0.54670456  0.17617992  0.92547359  1
  Zn  Zn20  1  0.71746799  0.83160213  0.75660040  1
  Zn  Zn21  1  0.54907012  0.16839787  0.25660040  1
  Zn  Zn22  1  0.73486584  0.83176288  0.09299595  1
  Zn  Zn23  1  0.56662872  0.16823712  0.59299595  1
  Br  Br0  1  0.75587123  0.32691438  0.32571908  1
  Br  Br1  1  0.08278561  0.67308562  0.82571908  1
  Br  Br2  1  0.81316909  0.17562483  0.44259902  1
  Br  Br3  1  0.98879392  0.82437517  0.94259902  1
  Br  Br4  1  0.55352322  0.40324233  0.42544636  1
  Br  Br5  1  0.95676554  0.59675767  0.92544636  1
  Br  Br6  1  0.77932573  0.44351326  0.43743804  1
  Br  Br7  1  0.22283900  0.55648674  0.93743804  1
  Br  Br8  1  0.74668792  0.32268280  0.66010156  1
  Br  Br9  1  0.06937072  0.67731720  0.16010156  1
  Br  Br10  1  0.69702220  0.31992636  0.99399805  1
  Br  Br11  1  0.01694855  0.68007364  0.49399805  1
  Br  Br12  1  0.22227035  0.33285332  0.32680962  1
  Br  Br13  1  0.55512367  0.66714668  0.82680962  1
  Br  Br14  1  0.21696284  0.33745738  0.66220469  1
  Br  Br15  1  0.55442022  0.66254262  0.16220469  1
  Br  Br16  1  0.19624179  0.31882967  0.99257245  1
  Br  Br17  1  0.51507146  0.68117033  0.49257245  1
  Br  Br18  1  0.19898663  0.82921399  0.50659351  1
  Br  Br19  1  0.02820063  0.17078601  0.00659351  1
  Br  Br20  1  0.23721235  0.83289976  0.83938363  1
  Br  Br21  1  0.07011211  0.16710024  0.33938363  1
  Br  Br22  1  0.23691112  0.83630069  0.17311530  1
  Br  Br23  1  0.07321181  0.16369931  0.67311530  1
  Br  Br24  1  0.69818270  0.82084682  0.50546262  1
  Br  Br25  1  0.51902952  0.17915318  0.00546262  1
  Br  Br26  1  0.73205503  0.82942224  0.83753438  1
  Br  Br27  1  0.56147727  0.17057776  0.33753438  1
  Br  Br28  1  0.75411384  0.82340720  0.17349889  1
  Br  Br29  1  0.57752104  0.17659280  0.67349889  1
  Br  Br30  1  0.77973181  0.16063983  0.77462679  1
  Br  Br31  1  0.94037164  0.83936017  0.27462679  1
  Br  Br32  1  0.83848489  0.17740522  0.10925594  1
  Br  Br33  1  0.01589011  0.82259478  0.60925594  1
  Br  Br34  1  0.34938721  0.16993430  0.43861932  1
  Br  Br35  1  0.51932151  0.83006570  0.93861932  1
  Br  Br36  1  0.26053355  0.17771733  0.77679255  1
  Br  Br37  1  0.43825088  0.82228267  0.27679255  1
  Br  Br38  1  0.31801817  0.16154850  0.10771836  1
  Br  Br39  1  0.47956667  0.83845150  0.60771836  1
  Br  Br40  1  0.31558420  0.67672562  0.39029237  1
  Br  Br41  1  0.99230982  0.32327438  0.89029237  1
  Br  Br42  1  0.28637298  0.66630575  0.72546723  1
  Br  Br43  1  0.95267873  0.33369425  0.22546723  1
  Br  Br44  1  0.32102697  0.65927112  0.06313361  1
  Br  Br45  1  0.98029809  0.34072888  0.56313361  1
  Br  Br46  1  0.84011933  0.66527342  0.39183501  1
  Br  Br47  1  0.50539275  0.33472658  0.89183501  1
  Br  Br48  1  0.75042609  0.67514281  0.72399714  1
  Br  Br49  1  0.42556890  0.32485719  0.22399714  1
  Br  Br50  1  0.84311981  0.67411687  0.05666185  1
  Br  Br51  1  0.51723668  0.32588313  0.55666185  1
  Br  Br52  1  0.55778417  0.43006560  0.76185457  1
  Br  Br53  1  0.98784977  0.56993440  0.26185457  1
  Br  Br54  1  0.56261962  0.38014096  0.11178474  1
  Br  Br55  1  0.94276057  0.61985904  0.61178474  1
  Br  Br56  1  0.06849441  0.36580125  0.44055193  1
  Br  Br57  1  0.43429566  0.63419875  0.94055193  1
  Br  Br58  1  0.04505992  0.45626040  0.76755740  1
  Br  Br59  1  0.50132032  0.54373960  0.26755740  1
  Br  Br60  1  0.05404473  0.38349098  0.10763298  1
  Br  Br61  1  0.43753572  0.61650902  0.60763298  1
  Br  Br62  1  0.05385350  0.90919082  0.39277171  1
  Br  Br63  1  0.96304432  0.09080918  0.89277171  1
  Br  Br64  1  0.05669535  0.93382781  0.73482359  1
  Br  Br65  1  0.99052316  0.06617219  0.23482359  1
  Br  Br66  1  0.06216356  0.89399763  0.06461804  1
  Br  Br67  1  0.95616120  0.10600237  0.56461804  1
  Br  Br68  1  0.56689736  0.87332801  0.38768137  1
  Br  Br69  1  0.44022537  0.12667199  0.88768137  1
  Br  Br70  1  0.55238147  0.95743985  0.73496449  1
  Br  Br71  1  0.50982132  0.04256015  0.23496449  1
  Br  Br72  1  0.56806778  0.88537362  0.06876119  1
  Br  Br73  1  0.45344140  0.11462638  0.56876119  1
  Br  Br74  1  0.83474815  0.37305016  0.77558474  1
  Br  Br75  1  0.20779830  0.62694984  0.27558474  1
  Br  Br76  1  0.76538133  0.45496862  0.08777633  1
  Br  Br77  1  0.22034995  0.54503138  0.58777633  1
  Br  Br78  1  0.26527223  0.45084588  0.43515580  1
  Br  Br79  1  0.71611811  0.54915412  0.93515580  1
  Br  Br80  1  0.32118281  0.39037074  0.77383129  1
  Br  Br81  1  0.71155354  0.60962926  0.27383129  1
  Br  Br82  1  0.28239213  0.42638007  0.09435014  1
  Br  Br83  1  0.70877220  0.57361993  0.59435014  1
  Br  Br84  1  0.28458014  0.94106770  0.40695958  1
  Br  Br85  1  0.22564783  0.05893230  0.90695958  1
  Br  Br86  1  0.32839517  0.88965062  0.72683215  1
  Br  Br87  1  0.21804579  0.11034938  0.22683215  1
  Br  Br88  1  0.30017786  0.91747621  0.05873293  1
  Br  Br89  1  0.21765407  0.08252379  0.55873293  1
  Br  Br90  1  0.78161648  0.93602971  0.40679478  1
  Br  Br91  1  0.71764619  0.06397029  0.90679478  1
  Br  Br92  1  0.83434170  0.87116745  0.72218874  1
  Br  Br93  1  0.70550915  0.12883255  0.22218874  1
  Br  Br94  1  0.77308971  0.95418176  0.06445006  1
  Br  Br95  1  0.72727147  0.04581824  0.56445006  1
loop_
_geom_bond_atom_site_label_1
_geom_bond_atom_site_label_2
_geom_bond_distance
_geom_bond_site_symmetry_2
Br0 Zn0 2.402606 1_555
Br0 Rb0 3.479156 1_555
Br0 Rb24 3.586822 1_555
Br0 Rb15 3.753165 1_555
Br1 Zn1 2.402606 1_555
Br1 Rb1 3.479156 1_455
Br1 Rb25 3.586822 1_555
Br1 Rb14 3.753165 1_555
Br2 Zn0 2.465698 1_555
Br2 Rb0 3.677616 1_555
Br2 Rb39 3.749096 1_655
Br2 Rb5 3.778331 1_545
Br2 Rb26 3.791438 1_555
Br2 Rb45 3.795250 1_555
Br3 Zn1 2.465698 1_655
Br3 Rb1 3.677616 1_555
Br3 Rb38 3.749096 1_655
Br3 Rb4 3.778331 1_565
Br3 Rb27 3.791438 1_656
Br3 Rb44 3.795250 1_555
Br4 Zn0 2.441955 1_555
Br4 Rb21 3.542232 1_555
Br4 Rb12 3.658091 1_555
Br4 Rb45 3.759869 1_555
Br5 Zn1 2.441955 1_655
Br5 Rb20 3.542232 1_555
Br5 Rb13 3.658091 1_556
Br5 Rb44 3.759869 1_555
Br6 Zn0 2.452934 1_555
Br6 Rb18 3.581374 1_555
Br6 Rb26 3.651627 1_555
Br6 Rb15 3.668553 1_555
Br6 Rb35 3.808561 1_555
Br7 Zn1 2.452934 1_555
Br7 Rb19 3.581374 1_556
Br7 Rb27 3.651627 1_556
Br7 Rb14 3.668552 1_555
Br7 Rb34 3.808561 1_555
Br8 Zn2 2.401630 1_555
Br8 Rb26 3.541075 1_555
Br8 Rb2 3.559797 1_555
Br8 Rb17 3.889991 1_555
Br9 Zn3 2.401630 1_555
Br9 Rb27 3.541075 1_555
Br9 Rb3 3.559797 1_455
Br9 Rb16 3.889991 1_555
Br10 Zn4 2.416009 1_556
Br10 Rb4 3.452342 1_555
Br10 Rb19 3.565932 1_556
Br10 Rb28 3.567281 1_555
Br11 Zn5 2.416009 1_555
Br11 Rb5 3.452342 1_455
Br11 Rb18 3.565932 1_455
Br11 Rb29 3.567281 1_555
Br12 Zn6 2.413542 1_555
Br12 Rb6 3.576360 1_555
Br12 Rb30 3.588115 1_555
Br12 Rb21 3.755224 1_555
Br13 Zn7 2.413542 1_555
Br13 Rb7 3.576360 1_555
Br13 Rb31 3.588115 1_555
Br13 Rb20 3.755225 1_555
Br14 Zn8 2.410935 1_555
Br14 Rb8 3.514506 1_555
Br14 Rb32 3.634846 1_555
Br14 Rb23 4.056070 1_555
Br15 Zn9 2.410935 1_555
Br15 Rb9 3.514506 1_555
Br15 Rb33 3.634846 1_555
Br15 Rb22 4.056070 1_555
Br16 Zn10 2.408948 1_556
Br16 Rb10 3.530907 1_555
Br16 Rb34 3.558923 1_555
Br16 Rb13 3.617129 1_456
Br17 Zn11 2.408948 1_555
Br17 Rb11 3.530907 1_555
Br17 Rb35 3.558923 1_555
Br17 Rb12 3.617129 1_555
Br18 Zn12 2.410986 1_555
Br18 Rb12 3.562362 1_555
Br18 Rb36 3.570503 1_555
Br18 Rb5 3.644580 1_455
Br19 Zn13 2.410986 1_554
Br19 Rb13 3.562362 1_455
Br19 Rb37 3.570502 1_555
Br19 Rb4 3.644580 1_454
Br20 Zn14 2.401938 1_555
Br20 Rb14 3.546972 1_555
Br20 Rb38 3.559711 1_555
Br20 Rb7 4.005096 1_555
Br21 Zn15 2.401938 1_555
Br21 Rb15 3.546972 1_455
Br21 Rb39 3.559711 1_555
Br21 Rb6 4.005096 1_555
Br22 Zn16 2.402191 1_555
Br22 Rb40 3.598891 1_555
Br22 Rb16 3.662050 1_555
Br22 Rb9 3.704310 1_555
Br23 Zn17 2.402191 1_555
Br23 Rb41 3.598891 1_555
Br23 Rb17 3.662050 1_455
Br23 Rb8 3.704310 1_555
Br24 Zn18 2.414424 1_555
Br24 Rb18 3.488315 1_555
Br24 Rb42 3.573381 1_555
Br24 Rb11 3.587035 1_555
Br25 Zn19 2.414424 1_554
Br25 Rb19 3.488315 1_555
Br25 Rb43 3.573381 1_555
Br25 Rb10 3.587035 1_554
Br26 Zn20 2.415682 1_555
Br26 Rb20 3.540055 1_555
Br26 Rb44 3.627880 1_555
Br26 Rb1 3.840605 1_555
Br27 Zn21 2.415682 1_555
Br27 Rb21 3.540055 1_555
Br27 Rb45 3.627880 1_555
Br27 Rb0 3.840605 1_555
Br28 Zn22 2.407784 1_555
Br28 Rb22 3.482347 1_555
Br28 Rb46 3.568493 1_555
Br28 Rb3 3.709776 1_555
Br29 Zn23 2.407784 1_555
Br29 Rb23 3.482347 1_555
Br29 Rb47 3.568493 1_555
Br29 Rb2 3.709776 1_555
Br30 Zn2 2.470633 1_555
Br30 Rb2 3.590048 1_555
Br30 Rb47 3.617848 1_555
Br30 Rb1 3.642936 1_545
Br30 Rb28 3.822792 1_555
Br31 Zn3 2.470633 1_655
Br31 Rb3 3.590048 1_555
Br31 Rb46 3.617848 1_555
Br31 Rb0 3.642936 1_565
Br31 Rb29 3.822792 1_655
Br32 Zn4 2.454380 1_555
Br32 Rb37 3.632375 1_655
Br32 Rb4 3.633356 1_554
Br32 Rb3 3.759121 1_545
Br32 Rb24 3.778924 1_555
Br33 Zn5 2.454380 1_555
Br33 Rb36 3.632375 1_555
Br33 Rb5 3.633356 1_455
Br33 Rb2 3.759121 1_465
Br33 Rb25 3.778924 1_555
Br34 Zn6 2.461373 1_555
Br34 Rb6 3.580823 1_555
Br34 Rb45 3.682128 1_555
Br34 Rb11 3.686144 1_545
Br34 Rb32 3.798942 1_555
Br35 Zn7 2.461373 1_555
Br35 Rb7 3.580823 1_555
Br35 Rb44 3.682128 1_555
Br35 Rb10 3.686144 1_565
Br35 Rb33 3.798942 1_556
Br36 Zn8 2.451674 1_555
Br36 Rb41 3.592860 1_555
Br36 Rb8 3.612016 1_555
Br36 Rb7 3.815024 1_545
Br36 Rb34 3.846287 1_555
Br37 Zn9 2.451674 1_555
Br37 Rb40 3.592860 1_555
Br37 Rb9 3.612016 1_555
Br37 Rb6 3.815024 1_565
Br37 Rb35 3.846287 1_555
Br38 Zn10 2.466274 1_555
Br38 Rb10 3.590477 1_554
Br38 Rb43 3.679833 1_555
Br38 Rb9 3.744278 1_545
Br38 Rb37 3.945293 1_555
Br38 Rb30 3.956041 1_555
Br39 Zn11 2.466274 1_555
Br39 Rb11 3.590477 1_555
Br39 Rb42 3.679832 1_555
Br39 Rb8 3.744278 1_565
Br39 Rb36 3.945293 1_555
Br39 Rb31 3.956041 1_555
Br40 Zn12 2.443933 1_555
Br40 Rb12 3.610924 1_555
Br40 Rb35 3.657097 1_555
Br40 Rb21 3.871433 1_555
Br40 Rb40 3.884903 1_555
Br40 Rb29 4.053651 1_555
Br41 Zn13 2.443933 1_655
Br41 Rb13 3.610924 1_556
Br41 Rb34 3.657097 1_655
Br41 Rb20 3.871433 1_555
Br41 Rb41 3.884903 1_655
Br41 Rb28 4.053651 1_555
Br42 Zn14 2.457508 1_555
Br42 Rb14 3.607739 1_555
Br42 Rb25 3.665932 1_555
Br42 Rb23 3.700604 1_555
Br42 Rb31 3.918622 1_555
Br42 Rb36 4.077908 1_555
Br43 Zn15 2.457508 1_655
Br43 Rb15 3.607739 1_555
Br43 Rb24 3.665932 1_555
Br43 Rb22 3.700604 1_555
Br43 Rb30 3.918622 1_655
Br43 Rb37 4.077908 1_655
Br44 Zn16 2.448275 1_555
Br44 Rb16 3.507896 1_555
Br44 Rb19 3.608259 1_555
Br44 Rb33 3.820723 1_555
Br44 Rb27 3.866126 1_555
Br45 Zn17 2.448275 1_655
Br45 Rb17 3.507896 1_555
Br45 Rb18 3.608259 1_555
Br45 Rb32 3.820723 1_655
Br45 Rb26 3.866126 1_555
Br46 Zn18 2.464556 1_555
Br46 Rb18 3.599103 1_555
Br46 Rb29 3.617615 1_655
Br46 Rb15 3.680030 1_555
Br46 Rb46 3.773511 1_555
Br47 Zn19 2.464556 1_555
Br47 Rb19 3.599103 1_556
Br47 Rb28 3.617615 1_555
Br47 Rb14 3.680030 1_555
Br47 Rb47 3.773511 1_555
Br48 Zn20 2.457937 1_555
Br48 Rb20 3.588365 1_555
Br48 Rb31 3.593264 1_555
Br48 Rb17 3.749669 1_555
Br48 Rb42 3.800015 1_555
Br49 Zn21 2.457937 1_555
Br49 Rb21 3.588365 1_555
Br49 Rb30 3.593264 1_555
Br49 Rb16 3.749669 1_555
Br49 Rb43 3.800015 1_555
Br50 Zn22 2.458294 1_555
Br50 Rb22 3.669513 1_555
Br50 Rb27 3.678424 1_655
Br50 Rb44 3.686421 1_554
Br50 Rb13 3.781980 1_555
Br51 Zn23 2.458294 1_555
Br51 Rb23 3.669513 1_555
Br51 Rb26 3.678424 1_555
Br51 Rb45 3.686421 1_555
Br51 Rb12 3.781980 1_555
Br52 Zn2 2.438331 1_555
Br52 Rb23 3.600339 1_555
Br52 Rb14 3.688603 1_555
Br52 Rb31 3.722101 1_555
Br53 Zn3 2.438331 1_655
Br53 Rb22 3.600339 1_555
Br53 Rb15 3.688603 1_555
Br53 Rb30 3.722101 1_655
Br54 Zn4 2.465405 1_555
Br54 Rb24 3.590446 1_555
Br54 Rb19 3.619791 1_555
Br54 Rb43 3.653257 1_555
Br54 Rb16 3.691441 1_555
Br55 Zn5 2.465405 1_655
Br55 Rb25 3.590446 1_655
Br55 Rb18 3.619790 1_555
Br55 Rb42 3.653257 1_555
Br55 Rb17 3.691441 1_555
Br56 Zn6 2.443992 1_555
Br56 Rb15 3.603711 1_455
Br56 Rb39 3.646717 1_555
Br56 Rb32 3.693516 1_555
Br56 Rb18 3.734197 1_455
Br57 Zn7 2.443992 1_555
Br57 Rb14 3.603711 1_555
Br57 Rb38 3.646717 1_555
Br57 Rb33 3.693516 1_556
Br57 Rb19 3.734197 1_556
Br58 Zn8 2.446687 1_555
Br58 Rb17 3.578601 1_455
Br58 Rb20 3.626969 1_455
Br58 Rb25 3.715745 1_555
Br58 Rb34 3.868569 1_555
Br59 Zn9 2.446687 1_555
Br59 Rb16 3.578601 1_555
Br59 Rb21 3.626969 1_555
Br59 Rb24 3.715745 1_555
Br59 Rb35 3.868569 1_555
Br60 Zn10 2.468743 1_555
Br60 Rb30 3.530569 1_555
Br60 Rb13 3.556828 1_455
Br60 Rb22 3.645989 1_455
Br60 Rb37 3.714530 1_555
Br61 Zn11 2.468743 1_555
Br61 Rb31 3.530569 1_555
Br61 Rb12 3.556828 1_555
Br61 Rb23 3.645989 1_555
Br61 Rb36 3.714531 1_555
Br62 Zn12 2.482261 1_555
Br62 Rb5 3.572526 1_455
Br62 Rb40 3.578163 1_555
Br62 Rb0 3.672275 1_465
Br62 Rb29 3.685950 1_555
Br63 Zn13 2.482261 1_655
Br63 Rb4 3.572526 1_555
Br63 Rb41 3.578163 1_655
Br63 Rb1 3.672275 1_545
Br63 Rb28 3.685950 1_555
Br64 Zn14 2.440856 1_555
Br64 Rb2 3.621422 1_465
Br64 Rb1 3.641141 1_455
Br64 Rb41 3.660291 1_565
Br64 Rb36 3.997240 1_555
Br65 Zn15 2.440856 1_655
Br65 Rb3 3.621422 1_545
Br65 Rb0 3.641141 1_555
Br65 Rb40 3.660292 1_645
Br65 Rb37 3.997240 1_655
Br66 Zn16 2.444741 1_555
Br66 Rb4 3.594126 1_464
Br66 Rb3 3.618557 1_455
Br66 Rb27 3.751313 1_555
Br66 Rb38 3.764810 1_554
Br67 Zn17 2.444741 1_655
Br67 Rb5 3.594126 1_545
Br67 Rb2 3.618557 1_555
Br67 Rb26 3.751313 1_555
Br67 Rb39 3.764810 1_655
Br68 Zn18 2.456687 1_555
Br68 Rb46 3.558610 1_555
Br68 Rb11 3.648227 1_555
Br68 Rb6 3.675095 1_565
Br68 Rb35 3.719054 1_555
Br69 Zn19 2.456687 1_555
Br69 Rb47 3.558610 1_555
Br69 Rb10 3.648227 1_555
Br69 Rb7 3.675095 1_545
Br69 Rb34 3.719054 1_555
Br70 Zn20 2.448868 1_555
Br70 Rb7 3.587215 1_555
Br70 Rb8 3.625339 1_565
Br70 Rb47 3.741982 1_565
Br70 Rb42 3.948219 1_555
Br71 Zn21 2.448868 1_555
Br71 Rb6 3.587215 1_555
Br71 Rb9 3.625339 1_545
Br71 Rb46 3.741982 1_545
Br71 Rb43 3.948219 1_555
Br72 Zn22 2.442822 1_555
Br72 Rb9 3.580757 1_555
Br72 Rb33 3.634873 1_555
Br72 Rb10 3.718033 1_564
Br73 Zn23 2.442822 1_555
Br73 Rb8 3.580757 1_555
Br73 Rb32 3.634873 1_555
Br73 Rb11 3.718033 1_545
Br74 Zn2 2.460265 1_555
Br74 Rb20 3.564492 1_555
Br74 Rb17 3.611569 1_555
Br74 Rb28 3.619108 1_555
Br74 Rb41 3.671784 1_655
Br75 Zn3 2.460265 1_555
Br75 Rb21 3.564492 1_555
Br75 Rb16 3.611569 1_555
Br75 Rb29 3.619108 1_555
Br75 Rb40 3.671784 1_555
Br76 Zn4 2.443177 1_555
Br76 Rb13 3.567210 1_555
Br76 Rb22 3.596993 1_555
Br76 Rb33 3.666363 1_555
Br77 Zn5 2.443177 1_555
Br77 Rb12 3.567210 1_555
Br77 Rb23 3.596993 1_555
Br77 Rb32 3.666363 1_555
Br78 Zn6 2.453715 1_555
Br78 Rb21 3.562890 1_555
Br78 Rb12 3.591794 1_555
Br78 Rb29 3.810075 1_555
Br78 Rb32 3.886335 1_555
Br79 Zn7 2.453715 1_555
Br79 Rb20 3.562890 1_555
Br79 Rb13 3.591794 1_556
Br79 Rb28 3.810075 1_555
Br79 Rb33 3.886335 1_556
Br80 Zn8 2.461026 1_555
Br80 Rb47 3.592023 1_555
Br80 Rb23 3.664432 1_555
Br80 Rb34 3.718152 1_555
Br80 Rb14 3.720910 1_555
Br81 Zn9 2.461025 1_555
Br81 Rb46 3.592023 1_555
Br81 Rb22 3.664432 1_555
Br81 Rb35 3.718152 1_555
Br81 Rb15 3.720910 1_555
Br82 Zn10 2.433416 1_555
Br82 Rb19 3.658159 1_555
Br82 Rb27 3.699680 1_555
Br82 Rb16 3.767008 1_555
Br82 Rb30 4.082056 1_555
Br83 Zn11 2.433416 1_555
Br83 Rb18 3.658159 1_555
Br83 Rb26 3.699680 1_555
Br83 Rb17 3.767008 1_555
Br83 Rb31 4.082056 1_555
Br84 Zn12 2.431180 1_555
Br84 Rb11 3.531194 1_555
Br84 Rb6 3.638808 1_565
Br84 Rb39 3.658227 1_565
Br85 Zn13 2.431180 1_555
Br85 Rb10 3.531194 1_555
Br85 Rb7 3.638808 1_545
Br85 Rb38 3.658227 1_545
Br86 Zn14 2.465639 1_555
Br86 Rb8 3.604128 1_565
Br86 Rb7 3.617885 1_555
Br86 Rb31 3.626275 1_555
Br86 Rb36 3.627077 1_555
Br87 Zn15 2.465639 1_555
Br87 Rb9 3.604128 1_545
Br87 Rb6 3.617885 1_555
Br87 Rb30 3.626275 1_555
Br87 Rb37 3.627077 1_555
Br88 Zn16 2.457807 1_555
Br88 Rb10 3.621427 1_564
Br88 Rb9 3.666085 1_555
Br88 Rb38 3.672712 1_554
Br88 Rb37 3.956063 1_565
Br88 Rb33 3.995512 1_555
Br89 Zn17 2.457807 1_555
Br89 Rb11 3.621427 1_545
Br89 Rb8 3.666085 1_555
Br89 Rb39 3.672712 1_555
Br89 Rb36 3.956063 1_545
Br89 Rb32 3.995512 1_555
Br90 Zn18 2.444217 1_555
Br90 Rb5 3.606967 1_555
Br90 Rb0 3.632679 1_565
Br90 Rb45 3.706367 1_565
Br91 Zn19 2.444218 1_555
Br91 Rb4 3.606967 1_555
Br91 Rb1 3.632679 1_545
Br91 Rb44 3.706367 1_545
Br92 Zn20 2.453916 1_555
Br92 Rb25 3.617661 1_655
Br92 Rb2 3.623732 1_565
Br92 Rb1 3.630157 1_555
Br92 Rb42 3.675629 1_555
Br93 Zn21 2.453916 1_555
Br93 Rb24 3.617661 1_555
Br93 Rb3 3.623732 1_545
Br93 Rb0 3.630157 1_555
Br93 Rb43 3.675629 1_555
Br94 Zn22 2.451189 1_555
Br94 Rb4 3.492996 1_564
Br94 Rb3 3.563669 1_555
Br94 Rb44 3.761062 1_554
Br94 Rb43 3.817688 1_565
Br95 Zn23 2.451189 1_555
Br95 Rb5 3.492996 1_545
Br95 Rb2 3.563669 1_555
Br95 Rb45 3.761062 1_555
Br95 Rb42 3.817688 1_545
