# generated using pymatgen
data_SnHg3
_symmetry_space_group_name_H-M   'P 1'
_cell_length_a   6.83513204
_cell_length_b   6.83513204
_cell_length_c   5.21525400
_cell_angle_alpha   90.00000000
_cell_angle_beta   90.00000000
_cell_angle_gamma   120.00000042
_symmetry_Int_Tables_number   1
_chemical_formula_structural   SnHg3
_chemical_formula_sum   'Sn2 Hg6'
_cell_volume   211.00848160
_cell_formula_units_Z   2
loop_
 _symmetry_equiv_pos_site_id
 _symmetry_equiv_pos_as_xyz
  1  'x, y, z'
loop_
 _atom_site_type_symbol
 _atom_site_label
 _atom_site_symmetry_multiplicity
 _atom_site_fract_x
 _atom_site_fract_y
 _atom_site_fract_z
 _atom_site_occupancy
  Sn  Sn0  1  0.33333300  0.66666700  0.75000000  1
  Sn  Sn1  1  0.66666700  0.33333300  0.25000000  1
  Hg  Hg0  1  0.16554700  0.33109500  0.25000000  1
  Hg  Hg1  1  0.66890500  0.83445300  0.25000000  1
  Hg  Hg2  1  0.16554700  0.83445300  0.25000000  1
  Hg  Hg3  1  0.83445300  0.66890500  0.75000000  1
  Hg  Hg4  1  0.33109500  0.16554700  0.75000000  1
  Hg  Hg5  1  0.83445300  0.16554700  0.75000000  1
loop_
_geom_bond_atom_site_label_1
_geom_bond_atom_site_label_2
_geom_bond_distance
_geom_bond_site_symmetry_2
Hg0 Hg5 3.262030 1_455
Hg0 Hg5 3.262030 1_454
Hg0 Hg4 3.262037 1_555
Hg0 Hg4 3.262037 1_554
Hg0 Sn0 3.278024 1_554
Hg0 Sn0 3.278024 1_555
Hg0 Hg1 3.394614 1_445
Hg0 Hg2 3.394614 1_545
Hg0 Sn1 3.417585 1_455
Hg0 Sn1 3.417599 1_555
Hg0 Hg1 3.440518 1_555
Hg0 Hg2 3.440518 1_555
Hg1 Hg5 3.262030 1_565
Hg1 Hg5 3.262030 1_564
Hg1 Hg3 3.262037 1_555
Hg1 Hg3 3.262037 1_554
Hg1 Sn0 3.278024 1_554
Hg1 Sn0 3.278024 1_555
Hg1 Hg2 3.394614 1_655
Hg1 Sn1 3.417585 1_565
Hg1 Sn1 3.417599 1_555
Hg1 Hg2 3.440518 1_555
Hg2 Hg3 3.262030 1_455
Hg2 Hg3 3.262030 1_454
Hg2 Hg4 3.262030 1_564
Hg2 Hg4 3.262030 1_565
Hg2 Sn0 3.278024 1_554
Hg2 Sn0 3.278024 1_555
Hg2 Sn1 3.417592 1_455
Hg2 Sn1 3.417592 1_565
Hg3 Sn1 3.278024 1_555
Hg3 Sn1 3.278024 1_556
Hg3 Hg4 3.394614 1_665
Hg3 Hg5 3.394614 1_565
Hg3 Sn0 3.417585 1_655
Hg3 Sn0 3.417599 1_555
Hg3 Hg4 3.440518 1_555
Hg3 Hg5 3.440518 1_555
Hg4 Sn1 3.278024 1_555
Hg4 Sn1 3.278024 1_556
Hg4 Hg5 3.394614 1_455
Hg4 Sn0 3.417585 1_545
Hg4 Sn0 3.417599 1_555
Hg4 Hg5 3.440518 1_555
Hg5 Sn1 3.278024 1_555
Hg5 Sn1 3.278024 1_556
Hg5 Sn0 3.417592 1_545
Hg5 Sn0 3.417592 1_655
