# generated using pymatgen
data_Y(SnO2)2
_symmetry_space_group_name_H-M   'P 1'
_cell_length_a   6.86205727
_cell_length_b   6.86205727
_cell_length_c   6.86205727
_cell_angle_alpha   126.91866521
_cell_angle_beta   126.91866521
_cell_angle_gamma   78.38341797
_symmetry_Int_Tables_number   1
_chemical_formula_structural   Y(SnO2)2
_chemical_formula_sum   'Y2 Sn4 O8'
_cell_volume   200.00237223
_cell_formula_units_Z   2
loop_
 _symmetry_equiv_pos_site_id
 _symmetry_equiv_pos_as_xyz
  1  'x, y, z'
loop_
 _atom_site_type_symbol
 _atom_site_label
 _atom_site_symmetry_multiplicity
 _atom_site_fract_x
 _atom_site_fract_y
 _atom_site_fract_z
 _atom_site_occupancy
  Y  Y0  1  0.00000000  0.00000000  0.00000000  1
  Y  Y1  1  0.75000000  0.25000000  0.50000000  1
  Sn  Sn0  1  0.37500000  0.12500000  0.75000000  1
  Sn  Sn1  1  0.37500000  0.62500000  0.25000000  1
  Sn  Sn2  1  0.87500000  0.62500000  0.25000000  1
  Sn  Sn3  1  0.37500000  0.62500000  0.75000000  1
  O  O0  1  0.12500400  0.62212600  0.84870700  1
  O  O1  1  0.77341900  0.27629700  0.15129300  1
  O  O2  1  0.62499600  0.62787400  0.65129300  1
  O  O3  1  0.97658100  0.97370300  0.34870700  1
  O  O4  1  0.37212600  0.02341900  0.99712200  1
  O  O5  1  0.02629700  0.37500400  0.00287800  1
  O  O6  1  0.72370300  0.87499600  0.49712200  1
  O  O7  1  0.37787400  0.22658100  0.50287800  1
loop_
_geom_bond_atom_site_label_1
_geom_bond_atom_site_label_2
_geom_bond_distance
_geom_bond_site_symmetry_2
O0 Sn1 2.190744 1_556
O0 Sn3 2.197195 1_555
O0 Y0 2.340358 1_566
O0 Y1 2.603170 1_455
O1 Sn0 2.190744 1_554
O1 Sn2 2.197195 1_555
O1 Y0 2.340358 1_655
O1 Y1 2.603170 1_555
O2 Sn1 2.190744 1_555
O2 Sn3 2.197195 1_555
O2 Y1 2.340358 1_555
O2 Y0 2.603170 1_666
O3 Sn0 2.190744 1_665
O3 Sn2 2.197195 1_555
O3 Y1 2.340358 1_565
O3 Y0 2.603170 1_665
O4 Sn3 2.190744 1_545
O4 Sn0 2.197195 1_555
O4 Y1 2.340358 1_556
O4 Y0 2.603170 1_556
O5 Sn2 2.190744 1_455
O5 Sn1 2.197195 1_555
O5 Y1 2.340358 1_454
O5 Y0 2.603170 1_555
O6 Sn2 2.190744 1_555
O6 Sn1 2.197195 1_555
O6 Y0 2.340358 1_666
O6 Y1 2.603170 1_565
O7 Sn3 2.190744 1_555
O7 Sn0 2.197195 1_555
O7 Y0 2.340358 1_555
O7 Y1 2.603170 1_555
