# generated using pymatgen
data_Ba2Mn2AlF11
_symmetry_space_group_name_H-M   'P 1'
_cell_length_a   7.48577138
_cell_length_b   7.48577138
_cell_length_c   14.49887800
_cell_angle_alpha   90.00000000
_cell_angle_beta   90.00000000
_cell_angle_gamma   119.99999450
_symmetry_Int_Tables_number   1
_chemical_formula_structural   Ba2Mn2AlF11
_chemical_formula_sum   'Ba6 Mn6 Al3 F33'
_cell_volume   703.61999059
_cell_formula_units_Z   3
loop_
 _symmetry_equiv_pos_site_id
 _symmetry_equiv_pos_as_xyz
  1  'x, y, z'
loop_
 _atom_site_type_symbol
 _atom_site_label
 _atom_site_symmetry_multiplicity
 _atom_site_fract_x
 _atom_site_fract_y
 _atom_site_fract_z
 _atom_site_occupancy
  Ba  Ba0  1  0.86614900  0.85665000  0.66623400  1
  Ba  Ba1  1  0.50675100  0.15592500  0.79996400  1
  Ba  Ba2  1  0.99050200  0.13385100  0.99956800  1
  Ba  Ba3  1  0.84407500  0.35082600  0.46663100  1
  Ba  Ba4  1  0.64917400  0.49324900  0.13329700  1
  Ba  Ba5  1  0.14335000  0.00949800  0.33290100  1
  Mn  Mn0  1  0.96230300  0.66012900  0.88863400  1
  Mn  Mn1  1  0.12627400  0.43183000  0.72530400  1
  Mn  Mn2  1  0.56817000  0.69444300  0.39197100  1
  Mn  Mn3  1  0.69782600  0.03769700  0.22196800  1
  Mn  Mn4  1  0.30555700  0.87372600  0.05863800  1
  Mn  Mn5  1  0.33987100  0.30217400  0.55530100  1
  Al  Al0  1  0.50189200  0.67997700  0.87190800  1
  Al  Al1  1  0.17808500  0.49810800  0.20524100  1
  Al  Al2  1  0.32002300  0.82191500  0.53857500  1
  F  F0  1  0.99427700  0.75385200  0.02770300  1
  F  F1  1  0.82788700  0.35464700  0.92598300  1
  F  F2  1  0.75957600  0.00572300  0.36103700  1
  F  F3  1  0.42570700  0.08407500  0.48945000  1
  F  F4  1  0.87152100  0.90503800  0.18239200  1
  F  F5  1  0.23774100  0.29270300  0.18678000  1
  F  F6  1  0.91592500  0.34163200  0.15611700  1
  F  F7  1  0.70729700  0.94503800  0.85344700  1
  F  F8  1  0.03351700  0.12847900  0.51572600  1
  F  F9  1  0.61285200  0.00912200  0.08330200  1
  F  F10  1  0.65836800  0.57429300  0.82278400  1
  F  F11  1  0.24614800  0.24042400  0.69437000  1
  F  F12  1  0.61125500  0.68158500  0.98101900  1
  F  F13  1  0.36754900  0.16873400  0.02080400  1
  F  F14  1  0.07033100  0.38874500  0.31435300  1
  F  F15  1  0.64535300  0.47324000  0.59264900  1
  F  F16  1  0.33174700  0.78517700  0.91269000  1
  F  F17  1  0.39627100  0.38714800  0.41663500  1
  F  F18  1  0.30767100  0.73470300  0.41890800  1
  F  F19  1  0.31841500  0.92966900  0.64768600  1
  F  F20  1  0.42703200  0.69232900  0.75224100  1
  F  F21  1  0.83126600  0.19881400  0.68747100  1
  F  F22  1  0.80118600  0.63245100  0.35413800  1
  F  F23  1  0.45343100  0.66825300  0.24602400  1
  F  F24  1  0.99087800  0.60372900  0.74996800  1
  F  F25  1  0.09496200  0.96648300  0.84905900  1
  F  F26  1  0.52676000  0.17211300  0.25931600  1
  F  F27  1  0.27382400  0.42339000  0.87689300  1
  F  F28  1  0.14956700  0.72617600  0.21022600  1
  F  F29  1  0.26529700  0.57296800  0.08557400  1
  F  F30  1  0.05496200  0.76225900  0.52011300  1
  F  F31  1  0.21482300  0.54656900  0.57935700  1
  F  F32  1  0.57661000  0.85043300  0.54355900  1
loop_
_geom_bond_atom_site_label_1
_geom_bond_atom_site_label_2
_geom_bond_distance
_geom_bond_site_symmetry_2
Ba0 F15 2.713649 1_555
Ba0 F21 2.718898 1_565
Ba0 F24 2.774542 1_555
Ba0 F32 2.786147 1_555
Ba0 F8 2.814762 1_665
Ba0 F30 2.825620 1_655
Ba0 F11 2.887779 1_665
Ba0 F10 2.958248 1_555
Ba0 F25 3.037772 1_655
Ba0 F20 3.135270 1_555
Ba0 F19 3.159518 1_655
Ba0 F7 3.163298 1_555
Ba1 F19 2.709810 1_545
Ba1 F25 2.765589 1_545
Ba1 F10 2.766105 1_555
Ba1 F7 2.777970 1_545
Ba1 F1 2.784641 1_555
Ba1 F11 2.789928 1_555
Ba1 F21 2.807956 1_555
Ba1 F16 2.907603 1_545
Ba2 F1 2.713654 1_555
Ba2 F13 2.718897 1_656
Ba2 F9 2.774542 1_556
Ba2 F27 2.786147 1_655
Ba2 F25 2.814769 1_645
Ba2 F7 2.825623 1_545
Ba2 F0 2.887777 1_546
Ba2 F6 2.958240 1_556
Ba2 F4 3.037759 1_546
Ba2 F29 3.135263 1_656
Ba2 F12 3.159519 1_545
Ba2 F5 3.163283 1_656
Ba3 F14 2.709812 1_655
Ba3 F8 2.765589 1_655
Ba3 F3 2.766103 1_555
Ba3 F30 2.777966 1_655
Ba3 F15 2.784632 1_555
Ba3 F2 2.789934 1_555
Ba3 F22 2.807950 1_555
Ba3 F31 2.907603 1_655
Ba4 F12 2.709807 1_554
Ba4 F4 2.765589 1_555
Ba4 F6 2.766105 1_555
Ba4 F5 2.777970 1_555
Ba4 F26 2.784641 1_555
Ba4 F0 2.789932 1_555
Ba4 F13 2.807954 1_555
Ba4 F23 2.907605 1_555
Ba5 F26 2.713648 1_555
Ba5 F22 2.718899 1_445
Ba5 F17 2.774542 1_555
Ba5 F28 2.786147 1_545
Ba5 F4 2.814774 1_445
Ba5 F5 2.825624 1_555
Ba5 F2 2.887779 1_455
Ba5 F3 2.958236 1_555
Ba5 F8 3.037775 1_555
Ba5 F18 3.135263 1_545
Ba5 F14 3.159518 1_555
Ba5 F30 3.163282 1_545
Al0 F12 1.778535 1_555
Al0 F7 1.822631 1_555
Al0 F27 1.824838 1_555
Al0 F20 1.839769 1_555
Al0 F10 1.852538 1_555
Al0 F16 1.896057 1_555
Al1 F14 1.778547 1_555
Al1 F5 1.822631 1_555
Al1 F28 1.824833 1_555
Al1 F29 1.839769 1_555
Al1 F6 1.852538 1_455
Al1 F23 1.896067 1_555
Al2 F19 1.778532 1_555
Al2 F30 1.822633 1_555
Al2 F32 1.824840 1_555
Al2 F18 1.839769 1_555
Al2 F3 1.852544 1_565
Al2 F31 1.896064 1_555
F0 Mn4 2.084497 1_655
F0 Mn0 2.108847 1_554
F1 Mn0 2.057679 1_555
F2 Mn2 2.084494 1_545
F2 Mn3 2.108849 1_555
F3 Mn5 2.244773 1_555
F4 Mn3 2.072981 1_565
F6 Mn3 2.244773 1_555
F8 Mn5 2.072977 1_555
F9 Mn4 2.028600 1_545
F9 Mn3 2.087205 1_555
F10 Mn0 2.244767 1_555
F11 Mn1 2.084494 1_555
F11 Mn5 2.108847 1_555
F13 Mn4 2.090051 1_545
F15 Mn5 2.057675 1_555
F16 Mn4 2.255122 1_556
F16 Mn0 2.461198 1_455
F17 Mn2 2.028600 1_555
F17 Mn5 2.087205 1_555
F18 Mn2 2.152603 1_555
F20 Mn1 2.152599 1_555
F21 Mn1 2.090048 1_655
F22 Mn2 2.090047 1_555
F23 Mn2 2.255108 1_555
F23 Mn3 2.461196 1_565
F24 Mn1 2.028600 1_655
F24 Mn0 2.087207 1_555
F25 Mn0 2.072977 1_455
F26 Mn3 2.057675 1_555
F27 Mn1 2.474750 1_555
F28 Mn4 2.474737 1_555
F29 Mn4 2.152593 1_555
F31 Mn1 2.255108 1_555
F31 Mn5 2.461191 1_555
F32 Mn2 2.474737 1_555
