# generated using pymatgen
data_Cu3H4SeO8
_symmetry_space_group_name_H-M   'P 1'
_cell_length_a   7.74016366
_cell_length_b   6.72610166
_cell_length_c   15.01568097
_cell_angle_alpha   91.36057997
_cell_angle_beta   90.06968538
_cell_angle_gamma   87.28791829
_symmetry_Int_Tables_number   1
_chemical_formula_structural   Cu3H4SeO8
_chemical_formula_sum   'Cu12 H16 Se4 O32'
_cell_volume   780.63752337
_cell_formula_units_Z   4
loop_
 _symmetry_equiv_pos_site_id
 _symmetry_equiv_pos_as_xyz
  1  'x, y, z'
loop_
 _atom_site_type_symbol
 _atom_site_label
 _atom_site_symmetry_multiplicity
 _atom_site_fract_x
 _atom_site_fract_y
 _atom_site_fract_z
 _atom_site_occupancy
  Cu  Cu0  1  0.40818600  0.24658400  0.45001700  1
  Cu  Cu1  1  0.91009000  0.25494100  0.04957500  1
  Cu  Cu2  1  0.59082400  0.75138300  0.55300700  1
  Cu  Cu3  1  0.09837700  0.74443000  0.94787600  1
  Cu  Cu4  1  0.64612000  0.98121200  0.37652800  1
  Cu  Cu5  1  0.17582400  0.52300700  0.13471100  1
  Cu  Cu6  1  0.35529400  0.47493700  0.62265300  1
  Cu  Cu7  1  0.79856600  0.98713100  0.88147800  1
  Cu  Cu8  1  0.29450900  0.98927500  0.61495900  1
  Cu  Cu9  1  0.86052600  0.46971000  0.87577000  1
  Cu  Cu10  1  0.69367900  0.49144200  0.38696400  1
  Cu  Cu11  1  0.17576900  0.00704900  0.11021800  1
  H  H0  1  0.11741300  0.23811300  0.74767900  1
  H  H1  1  0.61871400  0.23148100  0.75211600  1
  H  H2  1  0.89180000  0.69867600  0.25784600  1
  H  H3  1  0.37950500  0.80351000  0.24655500  1
  H  H4  1  0.64652900  0.71020200  0.10519900  1
  H  H5  1  0.15850900  0.66777600  0.39352300  1
  H  H6  1  0.35879300  0.19216400  0.89639300  1
  H  H7  1  0.85772600  0.20472300  0.60510500  1
  H  H8  1  0.10348000  0.86615100  0.44380600  1
  H  H9  1  0.58444600  0.64757900  0.97475200  1
  H  H10  1  0.89825700  0.38616600  0.54749300  1
  H  H11  1  0.40374200  0.15869200  0.02476200  1
  H  H12  1  0.91250300  0.13649600  0.47607100  1
  H  H13  1  0.39741900  0.39040300  0.94793100  1
  H  H14  1  0.08971700  0.64301000  0.52374800  1
  H  H15  1  0.61700600  0.89253800  0.04560900  1
  Se  Se0  1  0.52681800  0.25098400  0.16864700  1
  Se  Se1  1  0.02848500  0.21637900  0.33393300  1
  Se  Se2  1  0.46662100  0.73281000  0.83071500  1
  Se  Se3  1  0.96883600  0.73661800  0.66895100  1
  O  O0  1  0.74036700  0.24614500  0.14417000  1
  O  O1  1  0.24299100  0.23555400  0.35221600  1
  O  O2  1  0.25217800  0.78004400  0.84932300  1
  O  O3  1  0.75333200  0.77152700  0.65087300  1
  O  O4  1  0.85758300  0.22792500  0.93198900  1
  O  O5  1  0.35340500  0.22742700  0.56697400  1
  O  O6  1  0.14129900  0.75491700  0.06619800  1
  O  O7  1  0.64040800  0.74237900  0.43440000  1
  O  O8  1  0.44164300  0.07475100  0.08169000  1
  O  O9  1  0.94391600  0.43763600  0.37804100  1
  O  O10  1  0.53314700  0.56746000  0.92090900  1
  O  O11  1  0.04768500  0.95469700  0.63104900  1
  O  O12  1  0.54962100  0.95107800  0.86954200  1
  O  O13  1  0.04071900  0.56636000  0.57861100  1
  O  O14  1  0.44520800  0.47080300  0.12941000  1
  O  O15  1  0.95976000  0.04988000  0.42077700  1
  O  O16  1  0.59150400  0.24989500  0.37041900  1
  O  O17  1  0.09390500  0.26755900  0.12807500  1
  O  O18  1  0.40372000  0.73963900  0.62993500  1
  O  O19  1  0.90549600  0.73365700  0.87313100  1
  O  O20  1  0.83031100  0.26389800  0.54723700  1
  O  O21  1  0.32951100  0.26806200  0.95153000  1
  O  O22  1  0.17565000  0.73977000  0.45050700  1
  O  O23  1  0.67738800  0.75954300  0.04660200  1
  O  O24  1  0.83488900  0.36455300  0.75693600  1
  O  O25  1  0.24285200  0.19769600  0.74892900  1
  O  O26  1  0.25619300  0.85057600  0.24301700  1
  O  O27  1  0.76522400  0.67549600  0.25314800  1
  O  O28  1  0.16240900  0.67058500  0.24924400  1
  O  O29  1  0.68268300  0.86968300  0.25828700  1
  O  O30  1  0.74246200  0.18450000  0.75067500  1
  O  O31  1  0.32845700  0.38073800  0.74156600  1
loop_
_geom_bond_atom_site_label_1
_geom_bond_atom_site_label_2
_geom_bond_distance
_geom_bond_site_symmetry_2
Cu0 O5 1.816127 1_555
Cu0 O16 1.857614 1_555
Cu0 O1 1.948406 1_555
Cu1 O4 1.818148 1_554
Cu1 O17 1.850256 1_655
Cu1 O0 1.939771 1_555
Cu2 O7 1.821301 1_555
Cu2 O18 1.859331 1_555
Cu2 O3 1.939638 1_555
Cu3 O6 1.807426 1_556
Cu3 O19 1.869774 1_455
Cu3 O2 1.926804 1_555
Cu4 O16 1.840797 1_565
Cu4 O7 1.846827 1_555
Cu4 O29 1.926914 1_555
Cu5 O17 1.859809 1_555
Cu5 O6 1.897103 1_555
Cu5 O28 1.965548 1_555
Cu5 O14 2.099277 1_555
Cu6 O18 1.837424 1_555
Cu6 O5 1.845770 1_555
Cu6 O31 1.923511 1_555
Cu7 O4 1.848751 1_565
Cu7 O19 1.861169 1_555
Cu7 O12 1.960890 1_555
Cu7 O30 2.423997 1_565
Cu8 O5 1.848664 1_565
Cu8 O18 1.862141 1_555
Cu8 O11 1.951449 1_555
Cu8 O25 2.446796 1_565
Cu9 O19 1.826579 1_555
Cu9 O4 1.851118 1_555
Cu9 O24 1.917321 1_555
Cu10 O7 1.844963 1_555
Cu10 O16 1.851665 1_555
Cu10 O9 1.957653 1_555
Cu10 O27 2.462189 1_555
Cu11 O6 1.836630 1_545
Cu11 O17 1.848430 1_555
Cu11 O8 2.173922 1_555
Cu11 O26 2.346510 1_545
H0 O25 0.996071 1_555
H1 O30 0.994406 1_555
H2 O27 1.001448 1_555
H3 O26 0.993028 1_555
H4 O23 0.981452 1_555
H5 O22 0.985069 1_555
H6 O21 0.983292 1_555
H7 O20 0.983088 1_555
H8 O22 1.001870 1_555
H9 O10 1.049044 1_555
H9 O23 1.503137 1_556
H10 O20 0.996842 1_555
H11 O8 1.068723 1_555
H11 O21 1.441297 1_554
H12 O15 1.058378 1_555
H12 O20 1.479030 1_555
H13 O21 0.999718 1_555
H14 O13 1.061941 1_555
H14 O22 1.467032 1_555
H15 O23 0.989901 1_555
O0 Se0 1.692352 1_555
O1 Se1 1.692959 1_555
O2 Se2 1.697360 1_555
O3 Se3 1.695885 1_555
O8 Se0 1.882279 1_555
O9 Se1 1.715785 1_655
O10 Se2 1.830814 1_555
O11 Se3 1.724281 1_455
O12 Se2 1.719191 1_555
O13 Se3 1.824525 1_455
O14 Se0 1.698308 1_555
O15 Se1 1.834394 1_655
O24 O30 1.436562 1_555
O25 O31 1.432080 1_555
O26 O28 1.445693 1_555
O27 O29 1.427040 1_555
