# generated using pymatgen
data_SrCaTi(PO4)2
_symmetry_space_group_name_H-M   'P 1'
_cell_length_a   5.76841600
_cell_length_b   6.85003468
_cell_length_c   9.68405114
_cell_angle_alpha   107.91253218
_cell_angle_beta   105.26838139
_cell_angle_gamma   97.07601690
_symmetry_Int_Tables_number   1
_chemical_formula_structural   SrCaTi(PO4)2
_chemical_formula_sum   'Sr2 Ca2 Ti2 P4 O16'
_cell_volume   342.45429798
_cell_formula_units_Z   2
loop_
 _symmetry_equiv_pos_site_id
 _symmetry_equiv_pos_as_xyz
  1  'x, y, z'
loop_
 _atom_site_type_symbol
 _atom_site_label
 _atom_site_symmetry_multiplicity
 _atom_site_fract_x
 _atom_site_fract_y
 _atom_site_fract_z
 _atom_site_occupancy
  Sr  Sr0  1  0.78662500  0.25847800  0.06012900  1
  Sr  Sr1  1  0.21337500  0.74152200  0.93987100  1
  Ca  Ca0  1  0.66025000  0.23579700  0.66179200  1
  Ca  Ca1  1  0.33975000  0.76420300  0.33820800  1
  Ti  Ti0  1  0.94150500  0.67560900  0.55159700  1
  Ti  Ti1  1  0.05849500  0.32439100  0.44840300  1
  P  P0  1  0.83507200  0.81390700  0.22438000  1
  P  P1  1  0.16492800  0.18609300  0.77562000  1
  P  P2  1  0.43901900  0.26278700  0.29427700  1
  P  P3  1  0.56098100  0.73721300  0.70572300  1
  O  O0  1  0.02945400  0.31491300  0.87967700  1
  O  O1  1  0.55550600  0.71630600  0.16585600  1
  O  O2  1  0.11269400  0.95265900  0.75998100  1
  O  O3  1  0.75225300  0.59148000  0.69748600  1
  O  O4  1  0.44449400  0.28369400  0.83414400  1
  O  O5  1  0.58467000  0.85133700  0.59057600  1
  O  O6  1  0.41533000  0.14866300  0.40942400  1
  O  O7  1  0.61323500  0.88230500  0.87008500  1
  O  O8  1  0.88730600  0.04734100  0.24001900  1
  O  O9  1  0.38676500  0.11769500  0.12991500  1
  O  O10  1  0.97054600  0.68508700  0.12032300  1
  O  O11  1  0.95844200  0.80124000  0.38573100  1
  O  O12  1  0.04155800  0.19876000  0.61426900  1
  O  O13  1  0.70654900  0.40582400  0.35494300  1
  O  O14  1  0.24774700  0.40852000  0.30251400  1
  O  O15  1  0.29345100  0.59417600  0.64505700  1
loop_
_geom_bond_atom_site_label_1
_geom_bond_atom_site_label_2
_geom_bond_distance
_geom_bond_site_symmetry_2
Ca0 O4 2.302214 1_555
Ca0 O6 2.324121 1_555
Ca0 O3 2.324680 1_555
Ca0 O12 2.390179 1_655
Ca0 O0 2.434548 1_655
Ca0 O5 2.458230 1_545
Ca1 O1 2.302214 1_555
Ca1 O5 2.324121 1_555
Ca1 O14 2.324680 1_555
Ca1 O11 2.390179 1_455
Ca1 O10 2.434548 1_455
Ca1 O6 2.458230 1_565
O0 P1 1.562843 1_555
O0 Sr0 2.595505 1_456
O0 Sr1 2.804946 1_555
O1 P0 1.545561 1_555
O1 Sr1 2.599198 1_554
O2 P1 1.542375 1_565
O2 Ti0 2.186790 1_455
O2 Sr1 2.586073 1_555
O3 P3 1.577657 1_555
O3 Ti0 2.162872 1_555
O3 Sr1 2.862758 1_655
O4 P1 1.545561 1_555
O4 Sr0 2.599198 1_556
O5 P3 1.569520 1_555
O5 Ti0 2.562918 1_555
O6 P2 1.569520 1_555
O6 Ti1 2.562918 1_555
O7 P3 1.520703 1_555
O7 Sr0 2.550631 1_566
O7 Sr1 2.716764 1_555
O8 P0 1.542375 1_545
O8 Ti1 2.186790 1_655
O8 Sr0 2.586073 1_555
O9 P2 1.520703 1_555
O9 Sr1 2.550631 1_544
O9 Sr0 2.716764 1_555
O10 P0 1.562843 1_555
O10 Sr1 2.595505 1_654
O10 Sr0 2.804946 1_555
O11 P0 1.571125 1_555
O11 Ti0 2.059715 1_555
O12 P1 1.571125 1_555
O12 Ti1 2.059715 1_555
O13 P2 1.575623 1_555
O13 Ti0 2.176584 1_555
O13 Ti1 2.207652 1_655
O13 Sr0 2.901715 1_555
O14 P2 1.577657 1_555
O14 Ti1 2.162872 1_555
O14 Sr0 2.862758 1_455
O15 P3 1.575623 1_555
O15 Ti1 2.176584 1_555
O15 Ti0 2.207652 1_455
O15 Sr1 2.901715 1_555
