# generated using pymatgen
data_Y3Au2
_symmetry_space_group_name_H-M   'P 1'
_cell_length_a   16.27669320
_cell_length_b   16.27669320
_cell_length_c   7.61872900
_cell_angle_alpha   90.00000000
_cell_angle_beta   90.00000000
_cell_angle_gamma   90.00000000
_symmetry_Int_Tables_number   1
_chemical_formula_structural   Y3Au2
_chemical_formula_sum   'Y48 Au32'
_cell_volume   2018.43552346
_cell_formula_units_Z   16
loop_
 _symmetry_equiv_pos_site_id
 _symmetry_equiv_pos_as_xyz
  1  'x, y, z'
loop_
 _atom_site_type_symbol
 _atom_site_label
 _atom_site_symmetry_multiplicity
 _atom_site_fract_x
 _atom_site_fract_y
 _atom_site_fract_z
 _atom_site_occupancy
  Y  Y0_0  1  0.25000000  0.25000000  0.00000000  1
  Y  Y0_1  1  0.25000000  0.25000000  0.50000000  1
  Y  Y0_2  1  0.25000000  0.75000000  0.00000000  1
  Y  Y0_3  1  0.25000000  0.75000000  0.50000000  1
  Y  Y0_4  1  0.75000000  0.25000000  0.00000000  1
  Y  Y0_5  1  0.75000000  0.25000000  0.50000000  1
  Y  Y0_6  1  0.75000000  0.75000000  0.00000000  1
  Y  Y0_7  1  0.75000000  0.75000000  0.50000000  1
  Y  Y1_0  1  0.00000000  0.00000000  0.00000000  1
  Y  Y1_1  1  0.00000000  0.00000000  0.50000000  1
  Y  Y1_2  1  0.00000000  0.50000000  0.00000000  1
  Y  Y1_3  1  0.00000000  0.50000000  0.50000000  1
  Y  Y1_4  1  0.50000000  0.00000000  0.00000000  1
  Y  Y1_5  1  0.50000000  0.00000000  0.50000000  1
  Y  Y1_6  1  0.50000000  0.50000000  0.00000000  1
  Y  Y1_7  1  0.50000000  0.50000000  0.50000000  1
  Y  Y2_0  1  0.33058303  0.08058303  0.25000000  1
  Y  Y2_1  1  0.33058303  0.08058303  0.75000000  1
  Y  Y2_2  1  0.33058303  0.58058303  0.25000000  1
  Y  Y2_3  1  0.33058303  0.58058303  0.75000000  1
  Y  Y2_4  1  0.83058303  0.08058303  0.25000000  1
  Y  Y2_5  1  0.83058303  0.08058303  0.75000000  1
  Y  Y2_6  1  0.83058303  0.58058303  0.25000000  1
  Y  Y2_7  1  0.83058303  0.58058303  0.75000000  1
  Y  Y3_0  1  0.16941697  0.41941697  0.25000000  1
  Y  Y3_1  1  0.16941697  0.41941697  0.75000000  1
  Y  Y3_2  1  0.16941697  0.91941697  0.25000000  1
  Y  Y3_3  1  0.16941697  0.91941697  0.75000000  1
  Y  Y3_4  1  0.66941697  0.41941697  0.25000000  1
  Y  Y3_5  1  0.66941697  0.41941697  0.75000000  1
  Y  Y3_6  1  0.66941697  0.91941697  0.25000000  1
  Y  Y3_7  1  0.66941697  0.91941697  0.75000000  1
  Y  Y4_0  1  0.08058303  0.16941697  0.25000000  1
  Y  Y4_1  1  0.08058303  0.16941697  0.75000000  1
  Y  Y4_2  1  0.08058303  0.66941697  0.25000000  1
  Y  Y4_3  1  0.08058303  0.66941697  0.75000000  1
  Y  Y4_4  1  0.58058303  0.16941697  0.25000000  1
  Y  Y4_5  1  0.58058303  0.16941697  0.75000000  1
  Y  Y4_6  1  0.58058303  0.66941697  0.25000000  1
  Y  Y4_7  1  0.58058303  0.66941697  0.75000000  1
  Y  Y5_0  1  0.41941697  0.33058303  0.25000000  1
  Y  Y5_1  1  0.41941697  0.33058303  0.75000000  1
  Y  Y5_2  1  0.41941697  0.83058303  0.25000000  1
  Y  Y5_3  1  0.41941697  0.83058303  0.75000000  1
  Y  Y5_4  1  0.91941697  0.33058303  0.25000000  1
  Y  Y5_5  1  0.91941697  0.33058303  0.75000000  1
  Y  Y5_6  1  0.91941697  0.83058303  0.25000000  1
  Y  Y5_7  1  0.91941697  0.83058303  0.75000000  1
  Au  Au0_0  1  0.06726625  0.31726625  0.00000000  1
  Au  Au0_1  1  0.06726625  0.31726625  0.50000000  1
  Au  Au0_2  1  0.06726625  0.81726625  0.00000000  1
  Au  Au0_3  1  0.06726625  0.81726625  0.50000000  1
  Au  Au0_4  1  0.56726625  0.31726625  0.00000000  1
  Au  Au0_5  1  0.56726625  0.31726625  0.50000000  1
  Au  Au0_6  1  0.56726625  0.81726625  0.00000000  1
  Au  Au0_7  1  0.56726625  0.81726625  0.50000000  1
  Au  Au1_0  1  0.43273375  0.18273375  0.00000000  1
  Au  Au1_1  1  0.43273375  0.18273375  0.50000000  1
  Au  Au1_2  1  0.43273375  0.68273375  0.00000000  1
  Au  Au1_3  1  0.43273375  0.68273375  0.50000000  1
  Au  Au1_4  1  0.93273375  0.18273375  0.00000000  1
  Au  Au1_5  1  0.93273375  0.18273375  0.50000000  1
  Au  Au1_6  1  0.93273375  0.68273375  0.00000000  1
  Au  Au1_7  1  0.93273375  0.68273375  0.50000000  1
  Au  Au2_0  1  0.31726625  0.43273375  0.00000000  1
  Au  Au2_1  1  0.31726625  0.43273375  0.50000000  1
  Au  Au2_2  1  0.31726625  0.93273375  0.00000000  1
  Au  Au2_3  1  0.31726625  0.93273375  0.50000000  1
  Au  Au2_4  1  0.81726625  0.43273375  0.00000000  1
  Au  Au2_5  1  0.81726625  0.43273375  0.50000000  1
  Au  Au2_6  1  0.81726625  0.93273375  0.00000000  1
  Au  Au2_7  1  0.81726625  0.93273375  0.50000000  1
  Au  Au3_0  1  0.18273375  0.06726625  0.00000000  1
  Au  Au3_1  1  0.18273375  0.06726625  0.50000000  1
  Au  Au3_2  1  0.18273375  0.56726625  0.00000000  1
  Au  Au3_3  1  0.18273375  0.56726625  0.50000000  1
  Au  Au3_4  1  0.68273375  0.06726625  0.00000000  1
  Au  Au3_5  1  0.68273375  0.06726625  0.50000000  1
  Au  Au3_6  1  0.68273375  0.56726625  0.00000000  1
  Au  Au3_7  1  0.68273375  0.56726625  0.50000000  1
loop_
_geom_bond_atom_site_label_1
_geom_bond_atom_site_label_2
_geom_bond_distance
_geom_bond_site_symmetry_2
Y0_0 Y3_0 3.598923 1_555
Y0_0 Y5_0 3.598923 1_555
Y0_0 Y4_0 3.598923 1_555
Y0_0 Y2_0 3.598923 1_555
Y0_0 Y4_1 3.598923 1_554
Y0_0 Y3_1 3.598923 1_554
Y0_0 Y5_1 3.598923 1_554
Y0_0 Y2_1 3.598923 1_554
Y0_0 Y0_1 3.809364 1_555
Y0_0 Y0_1 3.809365 1_554
Y0_1 Y2_1 3.598923 1_555
Y0_1 Y3_0 3.598923 1_555
Y0_1 Y5_0 3.598923 1_555
Y0_1 Y4_1 3.598923 1_555
Y0_1 Y3_1 3.598923 1_555
Y0_1 Y4_0 3.598923 1_555
Y0_1 Y5_1 3.598923 1_555
Y0_1 Y2_0 3.598923 1_555
Y0_2 Y3_2 3.598923 1_555
Y0_2 Y3_3 3.598923 1_554
Y0_2 Y4_2 3.598923 1_555
Y0_2 Y5_2 3.598923 1_555
Y0_2 Y5_3 3.598923 1_554
Y0_2 Y4_3 3.598923 1_554
Y0_2 Y2_2 3.598923 1_555
Y0_2 Y2_3 3.598923 1_554
Y0_2 Y0_3 3.809364 1_555
Y0_2 Y0_3 3.809365 1_554
Y0_3 Y3_2 3.598923 1_555
Y0_3 Y3_3 3.598923 1_555
Y0_3 Y4_2 3.598923 1_555
Y0_3 Y5_3 3.598923 1_555
Y0_3 Y5_2 3.598923 1_555
Y0_3 Y4_3 3.598923 1_555
Y0_3 Y2_2 3.598923 1_555
Y0_3 Y2_3 3.598923 1_555
Y0_4 Y5_4 3.598923 1_555
Y0_4 Y5_5 3.598923 1_554
Y0_4 Y3_4 3.598923 1_555
Y0_4 Y2_4 3.598923 1_555
Y0_4 Y2_5 3.598923 1_554
Y0_4 Y3_5 3.598923 1_554
Y0_4 Y4_4 3.598923 1_555
Y0_4 Y4_5 3.598923 1_554
Y0_4 Y0_5 3.809364 1_555
Y0_4 Y0_5 3.809365 1_554
Y0_5 Y5_4 3.598923 1_555
Y0_5 Y5_5 3.598923 1_555
Y0_5 Y2_5 3.598923 1_555
Y0_5 Y3_4 3.598923 1_555
Y0_5 Y3_5 3.598923 1_555
Y0_5 Y2_4 3.598923 1_555
Y0_5 Y4_4 3.598923 1_555
Y0_5 Y4_5 3.598923 1_555
Y0_6 Y3_6 3.598923 1_555
Y0_6 Y5_6 3.598923 1_555
Y0_6 Y5_7 3.598923 1_554
Y0_6 Y3_7 3.598923 1_554
Y0_6 Y4_6 3.598923 1_555
Y0_6 Y2_6 3.598923 1_555
Y0_6 Y2_7 3.598923 1_554
Y0_6 Y4_7 3.598923 1_554
Y0_6 Y0_7 3.809364 1_555
Y0_6 Y0_7 3.809365 1_554
Y0_7 Y3_7 3.598923 1_555
Y0_7 Y3_6 3.598923 1_555
Y0_7 Y5_6 3.598923 1_555
Y0_7 Y5_7 3.598923 1_555
Y0_7 Y4_6 3.598923 1_555
Y0_7 Y4_7 3.598923 1_555
Y0_7 Y2_7 3.598923 1_555
Y0_7 Y2_6 3.598923 1_555
Y1_0 Y2_4 3.598923 1_455
Y1_0 Y4_0 3.598923 1_555
Y1_0 Y4_1 3.598923 1_554
Y1_0 Y2_5 3.598923 1_454
Y1_0 Y3_2 3.598923 1_545
Y1_0 Y5_6 3.598923 1_445
Y1_0 Y3_3 3.598923 1_544
Y1_0 Y5_7 3.598923 1_444
Y1_0 Y1_1 3.809364 1_555
Y1_0 Y1_1 3.809365 1_554
Y1_1 Y4_0 3.598923 1_555
Y1_1 Y4_1 3.598923 1_555
Y1_1 Y2_4 3.598923 1_455
Y1_1 Y2_5 3.598923 1_455
Y1_1 Y3_2 3.598923 1_545
Y1_1 Y5_7 3.598923 1_445
Y1_1 Y3_3 3.598923 1_545
Y1_1 Y5_6 3.598923 1_445
Y1_2 Y2_6 3.598923 1_455
Y1_2 Y2_7 3.598923 1_454
Y1_2 Y4_2 3.598923 1_555
Y1_2 Y3_0 3.598923 1_555
Y1_2 Y3_1 3.598923 1_554
Y1_2 Y4_3 3.598923 1_554
Y1_2 Y5_4 3.598923 1_455
Y1_2 Y5_5 3.598923 1_454
Y1_2 Y1_3 3.809364 1_555
Y1_2 Y1_3 3.809365 1_554
Y1_3 Y2_6 3.598923 1_455
Y1_3 Y2_7 3.598923 1_455
Y1_3 Y4_2 3.598923 1_555
Y1_3 Y3_0 3.598923 1_555
Y1_3 Y3_1 3.598923 1_555
Y1_3 Y4_3 3.598923 1_555
Y1_3 Y5_5 3.598923 1_455
Y1_3 Y5_4 3.598923 1_455
Y1_4 Y4_4 3.598923 1_555
Y1_4 Y4_5 3.598923 1_554
Y1_4 Y2_0 3.598923 1_555
Y1_4 Y5_2 3.598923 1_545
Y1_4 Y2_1 3.598923 1_554
Y1_4 Y5_3 3.598923 1_544
Y1_4 Y3_6 3.598923 1_545
Y1_4 Y3_7 3.598923 1_544
Y1_4 Y1_5 3.809364 1_555
Y1_4 Y1_5 3.809365 1_554
Y1_5 Y4_4 3.598923 1_555
Y1_5 Y4_5 3.598923 1_555
Y1_5 Y5_3 3.598923 1_545
Y1_5 Y2_0 3.598923 1_555
Y1_5 Y2_1 3.598923 1_555
Y1_5 Y5_2 3.598923 1_545
Y1_5 Y3_6 3.598923 1_545
Y1_5 Y3_7 3.598923 1_545
Y1_6 Y2_2 3.598923 1_555
Y1_6 Y4_6 3.598923 1_555
Y1_6 Y4_7 3.598923 1_554
Y1_6 Y2_3 3.598923 1_554
Y1_6 Y5_0 3.598923 1_555
Y1_6 Y3_4 3.598923 1_555
Y1_6 Y3_5 3.598923 1_554
Y1_6 Y5_1 3.598923 1_554
Y1_6 Y1_7 3.809364 1_555
Y1_6 Y1_7 3.809365 1_554
Y1_7 Y4_7 3.598923 1_555
Y1_7 Y2_2 3.598923 1_555
Y1_7 Y2_3 3.598923 1_555
Y1_7 Y4_6 3.598923 1_555
Y1_7 Y3_4 3.598923 1_555
Y1_7 Y5_0 3.598923 1_555
Y1_7 Y5_1 3.598923 1_555
Y1_7 Y3_5 3.598923 1_555
Au0_0 Y3_0 3.026020 1_555
Au0_0 Y3_1 3.026020 1_554
Au0_0 Y4_0 3.076691 1_555
Au0_0 Y4_1 3.076691 1_554
Au0_0 Y5_4 3.076691 1_455
Au0_0 Y5_5 3.076691 1_454
Au0_0 Au1_4 3.096766 1_455
Au0_0 Y1_2 3.169418 1_555
Au0_0 Y0_0 3.169418 1_555
Au0_1 Y3_1 3.026020 1_555
Au0_1 Y3_0 3.026020 1_555
Au0_1 Y4_1 3.076691 1_555
Au0_1 Y4_0 3.076691 1_555
Au0_1 Y5_4 3.076691 1_455
Au0_1 Y5_5 3.076691 1_455
Au0_1 Au1_5 3.096766 1_455
Au0_1 Y1_3 3.169418 1_555
Au0_1 Y0_1 3.169418 1_555
Au0_2 Y3_2 3.026020 1_555
Au0_2 Y3_3 3.026020 1_554
Au0_2 Y4_2 3.076691 1_555
Au0_2 Y4_3 3.076691 1_554
Au0_2 Y5_6 3.076691 1_455
Au0_2 Y5_7 3.076691 1_454
Au0_2 Au1_6 3.096766 1_455
Au0_2 Y1_0 3.169418 1_565
Au0_2 Y0_2 3.169418 1_555
Au0_3 Y3_3 3.026020 1_555
Au0_3 Y3_2 3.026020 1_555
Au0_3 Y4_2 3.076691 1_555
Au0_3 Y4_3 3.076691 1_555
Au0_3 Y5_7 3.076691 1_455
Au0_3 Y5_6 3.076691 1_455
Au0_3 Au1_7 3.096766 1_455
Au0_3 Y1_1 3.169418 1_565
Au0_3 Y0_3 3.169418 1_555
Au0_4 Y3_4 3.026020 1_555
Au0_4 Y3_5 3.026020 1_554
Au0_4 Y5_0 3.076691 1_555
Au0_4 Y4_4 3.076691 1_555
Au0_4 Y4_5 3.076691 1_554
Au0_4 Y5_1 3.076691 1_554
Au0_4 Au1_0 3.096766 1_555
Au0_4 Y1_6 3.169418 1_555
Au0_4 Y0_4 3.169418 1_555
Au0_5 Y3_5 3.026020 1_555
Au0_5 Y3_4 3.026020 1_555
Au0_5 Y5_0 3.076691 1_555
Au0_5 Y4_5 3.076691 1_555
Au0_5 Y5_1 3.076691 1_555
Au0_5 Y4_4 3.076691 1_555
Au0_5 Au1_1 3.096766 1_555
Au0_5 Y1_7 3.169418 1_555
Au0_5 Y0_5 3.169418 1_555
Au0_6 Y3_6 3.026020 1_555
Au0_6 Y3_7 3.026020 1_554
Au0_6 Y5_2 3.076691 1_555
Au0_6 Y4_6 3.076691 1_555
Au0_6 Y4_7 3.076691 1_554
Au0_6 Y5_3 3.076691 1_554
Au0_6 Au1_2 3.096766 1_555
Au0_6 Y1_4 3.169418 1_565
Au0_6 Y0_6 3.169418 1_555
Au0_7 Y3_7 3.026020 1_555
Au0_7 Y3_6 3.026020 1_555
Au0_7 Y5_3 3.076691 1_555
Au0_7 Y5_2 3.076691 1_555
Au0_7 Y4_6 3.076691 1_555
Au0_7 Y4_7 3.076691 1_555
Au0_7 Au1_3 3.096766 1_555
Au0_7 Y1_5 3.169418 1_565
Au0_7 Y0_7 3.169418 1_555
Au1_0 Y2_0 3.026020 1_555
Au1_0 Y2_1 3.026020 1_554
Au1_0 Y4_4 3.076691 1_555
Au1_0 Y5_0 3.076691 1_555
Au1_0 Y4_5 3.076691 1_554
Au1_0 Y5_1 3.076691 1_554
Au1_0 Y0_0 3.169418 1_555
Au1_0 Y1_4 3.169418 1_555
Au1_1 Y2_1 3.026020 1_555
Au1_1 Y2_0 3.026020 1_555
Au1_1 Y4_4 3.076691 1_555
Au1_1 Y4_5 3.076691 1_555
Au1_1 Y5_0 3.076691 1_555
Au1_1 Y5_1 3.076691 1_555
Au1_1 Y0_1 3.169418 1_555
Au1_1 Y1_5 3.169418 1_555
Au1_2 Y2_2 3.026020 1_555
Au1_2 Y2_3 3.026020 1_554
Au1_2 Y4_6 3.076691 1_555
Au1_2 Y5_2 3.076691 1_555
Au1_2 Y4_7 3.076691 1_554
Au1_2 Y5_3 3.076691 1_554
Au1_2 Y0_2 3.169418 1_555
Au1_2 Y1_6 3.169418 1_555
Au1_3 Y2_3 3.026020 1_555
Au1_3 Y2_2 3.026020 1_555
Au1_3 Y4_6 3.076691 1_555
Au1_3 Y4_7 3.076691 1_555
Au1_3 Y5_3 3.076691 1_555
Au1_3 Y5_2 3.076691 1_555
Au1_3 Y0_3 3.169418 1_555
Au1_3 Y1_7 3.169418 1_555
Au1_4 Y2_4 3.026020 1_555
Au1_4 Y2_5 3.026020 1_554
Au1_4 Y4_0 3.076691 1_655
Au1_4 Y4_1 3.076691 1_654
Au1_4 Y5_4 3.076691 1_555
Au1_4 Y5_5 3.076691 1_554
Au1_4 Y1_0 3.169418 1_655
Au1_4 Y0_4 3.169418 1_555
Au1_5 Y2_4 3.026020 1_555
Au1_5 Y2_5 3.026020 1_555
Au1_5 Y4_1 3.076691 1_655
Au1_5 Y4_0 3.076691 1_655
Au1_5 Y5_5 3.076691 1_555
Au1_5 Y5_4 3.076691 1_555
Au1_5 Y1_1 3.169418 1_655
Au1_5 Y0_5 3.169418 1_555
Au1_6 Y2_6 3.026020 1_555
Au1_6 Y2_7 3.026020 1_554
Au1_6 Y4_2 3.076691 1_655
Au1_6 Y4_3 3.076691 1_654
Au1_6 Y5_6 3.076691 1_555
Au1_6 Y5_7 3.076691 1_554
Au1_6 Y1_2 3.169418 1_655
Au1_6 Y0_6 3.169418 1_555
Au1_7 Y2_6 3.026020 1_555
Au1_7 Y2_7 3.026020 1_555
Au1_7 Y4_2 3.076691 1_655
Au1_7 Y4_3 3.076691 1_655
Au1_7 Y5_6 3.076691 1_555
Au1_7 Y5_7 3.076691 1_555
Au1_7 Y1_3 3.169418 1_655
Au1_7 Y0_7 3.169418 1_555
Au2_0 Y5_0 3.026020 1_555
Au2_0 Y5_1 3.026020 1_554
Au2_0 Y2_2 3.076691 1_555
Au2_0 Y2_3 3.076691 1_554
Au2_0 Y3_0 3.076691 1_555
Au2_0 Y3_1 3.076691 1_554
Au2_0 Au3_2 3.096766 1_555
Au2_0 Y0_0 3.169418 1_555
Au2_0 Y1_6 3.169418 1_555
Au2_1 Y5_0 3.026020 1_555
Au2_1 Y5_1 3.026020 1_555
Au2_1 Y2_2 3.076691 1_555
Au2_1 Y2_3 3.076691 1_555
Au2_1 Y3_0 3.076691 1_555
Au2_1 Y3_1 3.076691 1_555
Au2_1 Au3_3 3.096766 1_555
Au2_1 Y0_1 3.169418 1_555
Au2_1 Y1_7 3.169418 1_555
Au2_2 Y5_2 3.026020 1_555
Au2_2 Y5_3 3.026020 1_554
Au2_2 Y2_0 3.076691 1_565
Au2_2 Y2_1 3.076691 1_564
Au2_2 Y3_2 3.076691 1_555
Au2_2 Y3_3 3.076691 1_554
Au2_2 Au3_0 3.096766 1_565
Au2_2 Y0_2 3.169418 1_555
Au2_2 Y1_4 3.169418 1_565
Au2_3 Y5_2 3.026020 1_555
Au2_3 Y5_3 3.026020 1_555
Au2_3 Y2_0 3.076691 1_565
Au2_3 Y2_1 3.076691 1_565
Au2_3 Y3_3 3.076691 1_555
Au2_3 Y3_2 3.076691 1_555
Au2_3 Au3_1 3.096766 1_565
Au2_3 Y0_3 3.169418 1_555
Au2_3 Y1_5 3.169418 1_565
Au2_4 Y5_4 3.026020 1_555
Au2_4 Y5_5 3.026020 1_554
Au2_4 Y2_6 3.076691 1_555
Au2_4 Y2_7 3.076691 1_554
Au2_4 Y3_4 3.076691 1_555
Au2_4 Y3_5 3.076691 1_554
Au2_4 Au3_6 3.096766 1_555
Au2_4 Y0_4 3.169418 1_555
Au2_4 Y1_2 3.169418 1_655
Au2_5 Y5_5 3.026020 1_555
Au2_5 Y5_4 3.026020 1_555
Au2_5 Y2_7 3.076691 1_555
Au2_5 Y2_6 3.076691 1_555
Au2_5 Y3_4 3.076691 1_555
Au2_5 Y3_5 3.076691 1_555
Au2_5 Au3_7 3.096766 1_555
Au2_5 Y0_5 3.169418 1_555
Au2_5 Y1_3 3.169418 1_655
Au2_6 Y5_6 3.026020 1_555
Au2_6 Y5_7 3.026020 1_554
Au2_6 Y2_4 3.076691 1_565
Au2_6 Y2_5 3.076691 1_564
Au2_6 Y3_6 3.076691 1_555
Au2_6 Y3_7 3.076691 1_554
Au2_6 Au3_4 3.096766 1_565
Au2_6 Y0_6 3.169418 1_555
Au2_6 Y1_0 3.169418 1_665
Au2_7 Y5_7 3.026020 1_555
Au2_7 Y5_6 3.026020 1_555
Au2_7 Y2_5 3.076691 1_565
Au2_7 Y2_4 3.076691 1_565
Au2_7 Y3_7 3.076691 1_555
Au2_7 Y3_6 3.076691 1_555
Au2_7 Au3_5 3.096766 1_565
Au2_7 Y0_7 3.169418 1_555
Au2_7 Y1_1 3.169418 1_665
Au3_0 Y4_0 3.026020 1_555
Au3_0 Y4_1 3.026020 1_554
Au3_0 Y2_0 3.076691 1_555
Au3_0 Y2_1 3.076691 1_554
Au3_0 Y3_2 3.076691 1_545
Au3_0 Y3_3 3.076691 1_544
Au3_0 Y0_0 3.169418 1_555
Au3_0 Y1_0 3.169418 1_555
Au3_1 Y4_1 3.026020 1_555
Au3_1 Y4_0 3.026020 1_555
Au3_1 Y2_0 3.076691 1_555
Au3_1 Y2_1 3.076691 1_555
Au3_1 Y3_2 3.076691 1_545
Au3_1 Y3_3 3.076691 1_545
Au3_1 Y0_1 3.169418 1_555
Au3_1 Y1_1 3.169418 1_555
Au3_2 Y4_2 3.026020 1_555
Au3_2 Y4_3 3.026020 1_554
Au3_2 Y2_2 3.076691 1_555
Au3_2 Y3_0 3.076691 1_555
Au3_2 Y3_1 3.076691 1_554
Au3_2 Y2_3 3.076691 1_554
Au3_2 Y0_2 3.169418 1_555
Au3_2 Y1_2 3.169418 1_555
Au3_3 Y4_3 3.026020 1_555
Au3_3 Y4_2 3.026020 1_555
Au3_3 Y2_2 3.076691 1_555
Au3_3 Y3_0 3.076691 1_555
Au3_3 Y3_1 3.076691 1_555
Au3_3 Y2_3 3.076691 1_555
Au3_3 Y0_3 3.169418 1_555
Au3_3 Y1_3 3.169418 1_555
Au3_4 Y4_4 3.026020 1_555
Au3_4 Y4_5 3.026020 1_554
Au3_4 Y2_4 3.076691 1_555
Au3_4 Y2_5 3.076691 1_554
Au3_4 Y3_6 3.076691 1_545
Au3_4 Y3_7 3.076691 1_544
Au3_4 Y0_4 3.169418 1_555
Au3_4 Y1_4 3.169418 1_555
Au3_5 Y4_4 3.026020 1_555
Au3_5 Y4_5 3.026020 1_555
Au3_5 Y2_5 3.076691 1_555
Au3_5 Y2_4 3.076691 1_555
Au3_5 Y3_7 3.076691 1_545
Au3_5 Y3_6 3.076691 1_545
Au3_5 Y0_5 3.169418 1_555
Au3_5 Y1_5 3.169418 1_555
Au3_6 Y4_6 3.026020 1_555
Au3_6 Y4_7 3.026020 1_554
Au3_6 Y3_4 3.076691 1_555
Au3_6 Y2_6 3.076691 1_555
Au3_6 Y3_5 3.076691 1_554
Au3_6 Y2_7 3.076691 1_554
Au3_6 Y0_6 3.169418 1_555
Au3_6 Y1_6 3.169418 1_555
Au3_7 Y4_6 3.026020 1_555
Au3_7 Y4_7 3.026020 1_555
Au3_7 Y3_5 3.076691 1_555
Au3_7 Y3_4 3.076691 1_555
Au3_7 Y2_6 3.076691 1_555
Au3_7 Y2_7 3.076691 1_555
Au3_7 Y0_7 3.169418 1_555
Au3_7 Y1_7 3.169418 1_555
