# generated using pymatgen
data_Ba2Mg2Tl2Sn3O10
_symmetry_space_group_name_H-M   'P 1'
_cell_length_a   3.95123900
_cell_length_b   4.05088292
_cell_length_c   20.44447769
_cell_angle_alpha   84.94997583
_cell_angle_beta   84.99793971
_cell_angle_gamma   88.64968661
_symmetry_Int_Tables_number   1
_chemical_formula_structural   Ba2Mg2Tl2Sn3O10
_chemical_formula_sum   'Ba2 Mg2 Tl2 Sn3 O10'
_cell_volume   324.68114483
_cell_formula_units_Z   1
loop_
 _symmetry_equiv_pos_site_id
 _symmetry_equiv_pos_as_xyz
  1  'x, y, z'
loop_
 _atom_site_type_symbol
 _atom_site_label
 _atom_site_symmetry_multiplicity
 _atom_site_fract_x
 _atom_site_fract_y
 _atom_site_fract_z
 _atom_site_occupancy
  Ba  Ba0  1  0.15852100  0.15731900  0.69373900  1
  Ba  Ba1  1  0.86143700  0.86493100  0.33046800  1
  Mg  Mg0  1  0.95939500  0.96239300  0.10603400  1
  Mg  Mg1  1  0.06894400  0.13562600  0.90736400  1
  Tl  Tl0  1  0.73152700  0.72415300  0.56151900  1
  Tl  Tl1  1  0.28555500  0.27074300  0.45317000  1
  Sn  Sn0  1  0.42540400  0.43041700  0.18407100  1
  Sn  Sn1  1  0.56059200  0.59788300  0.82326000  1
  Sn  Sn2  1  0.50873900  0.58959500  0.01462600  1
  O  O0  1  0.94233000  0.44181700  0.14664100  1
  O  O1  1  0.38135000  0.39586000  0.28252700  1
  O  O2  1  0.44073300  0.94635700  0.14932700  1
  O  O3  1  0.72281100  0.74918900  0.44411500  1
  O  O4  1  0.53270300  0.35081600  0.93216500  1
  O  O5  1  0.46015300  0.09816500  0.82425700  1
  O  O6  1  0.64475400  0.63446800  0.72357900  1
  O  O7  1  0.03581000  0.62070400  0.85753800  1
  O  O8  1  0.23820500  0.12770900  0.56849300  1
  O  O9  1  0.01403900  0.89173000  0.00614300  1
loop_
_geom_bond_atom_site_label_1
_geom_bond_atom_site_label_2
_geom_bond_distance
_geom_bond_site_symmetry_2
Ba0 O8 2.565509 1_555
Ba0 O6 2.834758 1_455
Ba0 O6 2.886929 1_545
Ba0 O6 2.895908 1_555
Ba0 O6 2.956062 1_445
Ba0 O5 3.004432 1_555
Ba1 O3 2.348761 1_555
Ba1 O1 2.929875 1_655
Ba1 O1 2.990902 1_565
Ba1 O1 2.998597 1_555
Ba1 O1 3.048352 1_665
Mg0 O9 2.079020 1_655
Mg0 O2 2.160401 1_555
Mg0 O2 2.163882 1_655
Mg0 O0 2.175635 1_565
Mg0 O0 2.197611 1_555
Mg1 O7 2.138869 1_555
Mg1 O9 2.164245 1_546
Mg1 O4 2.165609 1_555
Mg1 O5 2.208080 1_555
Mg1 O4 2.304294 1_455
Mg1 O7 2.411630 1_545
O0 Sn0 2.115501 1_655
O0 Sn0 2.117825 1_555
O1 Sn0 1.998006 1_555
O2 Sn0 2.141344 1_565
O2 Sn0 2.147902 1_555
O3 Tl0 2.396692 1_555
O3 Tl1 2.610450 1_555
O3 Tl1 2.706290 1_565
O4 Sn2 2.010389 1_556
O4 Sn1 2.353987 1_555
O5 Sn1 2.057404 1_545
O5 Sn1 2.069997 1_555
O6 Sn1 2.028956 1_555
O7 Sn1 2.067480 1_455
O7 Sn1 2.132650 1_555
O8 Tl1 2.370073 1_555
O8 Tl0 2.516875 1_545
O8 Tl0 2.635498 1_445
O9 Sn2 2.292990 1_555
O9 Sn2 2.351960 1_455
