# generated using pymatgen
data_ScIn2
_symmetry_space_group_name_H-M   'P 1'
_cell_length_a   4.46819860
_cell_length_b   4.45889366
_cell_length_c   7.18476390
_cell_angle_alpha   90.00000000
_cell_angle_beta   108.11646149
_cell_angle_gamma   90.00000000
_symmetry_Int_Tables_number   1
_chemical_formula_structural   ScIn2
_chemical_formula_sum   'Sc2 In4'
_cell_volume   136.04750775
_cell_formula_units_Z   2
loop_
 _symmetry_equiv_pos_site_id
 _symmetry_equiv_pos_as_xyz
  1  'x, y, z'
loop_
 _atom_site_type_symbol
 _atom_site_label
 _atom_site_symmetry_multiplicity
 _atom_site_fract_x
 _atom_site_fract_y
 _atom_site_fract_z
 _atom_site_occupancy
  Sc  Sc0  1  0.84357228  0.50000000  0.68714356  1
  Sc  Sc1  1  0.15642772  0.50000000  0.31285644  1
  In  In0  1  0.67607848  0.00000000  0.35215695  1
  In  In1  1  0.32392152  0.00000000  0.64784305  1
  In  In2  1  0.50000000  0.50000000  0.00000000  1
  In  In3  1  0.00000000  0.00000000  0.00000000  1
loop_
_geom_bond_atom_site_label_1
_geom_bond_atom_site_label_2
_geom_bond_distance
_geom_bond_site_symmetry_2
In0 In1 3.011319 1_555
In0 In1 3.011319 1_655
In0 Sc1 3.167593 1_645
In0 Sc1 3.167593 1_655
In0 Sc1 3.167596 1_555
In0 Sc1 3.167596 1_545
In0 Sc0 3.194218 1_545
In0 Sc0 3.194218 1_555
In0 In2 3.279205 1_545
In0 In2 3.279205 1_555
In0 In3 3.282370 1_655
In0 In3 3.282370 1_555
In1 Sc0 3.167593 1_445
In1 Sc0 3.167593 1_455
In1 Sc0 3.167596 1_545
In1 Sc0 3.167596 1_555
In1 Sc1 3.194218 1_555
In1 Sc1 3.194218 1_545
In1 In2 3.279205 1_556
In1 In2 3.279205 1_546
In1 In3 3.282370 1_556
In1 In3 3.282370 1_656
In2 Sc1 3.091158 1_655
In2 Sc0 3.091158 1_454
In2 Sc0 3.091161 1_554
In2 Sc1 3.091161 1_555
In3 Sc0 3.087799 1_454
In3 Sc1 3.087799 1_555
In3 Sc0 3.087799 1_444
In3 Sc1 3.087799 1_545
