# generated using pymatgen
data_MgSn2
_symmetry_space_group_name_H-M   'P 1'
_cell_length_a   3.34199607
_cell_length_b   3.34199607
_cell_length_c   15.62450128
_cell_angle_alpha   90.00000000
_cell_angle_beta   90.00000000
_cell_angle_gamma   120.00000928
_symmetry_Int_Tables_number   1
_chemical_formula_structural   MgSn2
_chemical_formula_sum   'Mg2 Sn4'
_cell_volume   151.12928385
_cell_formula_units_Z   2
loop_
 _symmetry_equiv_pos_site_id
 _symmetry_equiv_pos_as_xyz
  1  'x, y, z'
loop_
 _atom_site_type_symbol
 _atom_site_label
 _atom_site_symmetry_multiplicity
 _atom_site_fract_x
 _atom_site_fract_y
 _atom_site_fract_z
 _atom_site_occupancy
  Mg  Mg0  1  0.33333300  0.66666700  0.75000000  1
  Mg  Mg1  1  0.66666700  0.33333300  0.25000000  1
  Sn  Sn0  1  0.66666700  0.33333300  0.90959578  1
  Sn  Sn1  1  0.66666700  0.33333300  0.59040422  1
  Sn  Sn2  1  0.33333300  0.66666700  0.40959578  1
  Sn  Sn3  1  0.33333300  0.66666700  0.09040422  1
loop_
_geom_bond_atom_site_label_1
_geom_bond_atom_site_label_2
_geom_bond_distance
_geom_bond_site_symmetry_2
Mg0 Sn0 3.152941 1_565
Mg0 Sn0 3.152941 1_455
Mg0 Sn1 3.152941 1_455
Mg0 Sn1 3.152941 1_565
Mg0 Sn1 3.152944 1_555
Mg0 Sn0 3.152944 1_555
Mg1 Sn3 3.152941 1_545
Mg1 Sn2 3.152941 1_655
Mg1 Sn3 3.152941 1_655
Mg1 Sn2 3.152941 1_545
Mg1 Sn3 3.152944 1_555
Mg1 Sn2 3.152944 1_555
