# generated using pymatgen
data_Ag2Bi2SeS3
_symmetry_space_group_name_H-M   'P 1'
_cell_length_a   7.05733016
_cell_length_b   7.05733016
_cell_length_c   7.05733016
_cell_angle_alpha   132.81187699
_cell_angle_beta   131.64051674
_cell_angle_gamma   69.87629244
_symmetry_Int_Tables_number   1
_chemical_formula_structural   Ag2Bi2SeS3
_chemical_formula_sum   'Ag2 Bi2 Se1 S3'
_cell_volume   188.96003028
_cell_formula_units_Z   1
loop_
 _symmetry_equiv_pos_site_id
 _symmetry_equiv_pos_as_xyz
  1  'x, y, z'
loop_
 _atom_site_type_symbol
 _atom_site_label
 _atom_site_symmetry_multiplicity
 _atom_site_fract_x
 _atom_site_fract_y
 _atom_site_fract_z
 _atom_site_occupancy
  Ag  Ag0  1  0.99566800  0.99566800  0.00000000  1
  Ag  Ag1  1  0.25019900  0.75019900  0.50000000  1
  Bi  Bi0  1  0.50589200  0.50589200  0.00000000  1
  Bi  Bi1  1  0.75184100  0.25184100  0.50000000  1
  Se  Se0  1  0.24808700  0.24808700  0.00000000  1
  S  S0  1  0.50544300  0.00544300  0.50000000  1
  S  S1  1  0.74732100  0.74732100  0.00000000  1
  S  S2  1  0.99554900  0.49554900  0.50000000  1
loop_
_geom_bond_atom_site_label_1
_geom_bond_atom_site_label_2
_geom_bond_distance
_geom_bond_site_symmetry_2
Ag0 S2 2.824725 1_554
Ag0 S2 2.824725 1_565
Ag0 S1 2.873570 1_555
Ag0 S0 2.892898 1_665
Ag0 S0 2.892898 1_564
Ag0 Se0 2.920686 1_665
Ag1 Se0 2.824831 1_555
Ag1 Se0 2.824831 1_566
Ag1 S1 2.890878 1_455
Ag1 S1 2.890878 1_556
Ag1 S2 2.946501 1_455
Ag1 S0 2.953374 1_565
Bi0 S1 2.793523 1_555
Bi0 S0 2.824730 1_554
Bi0 S0 2.824730 1_565
Bi0 S2 2.893162 1_454
Bi0 S2 2.893162 1_555
Bi0 Se0 2.983006 1_555
Bi1 S2 2.819893 1_555
Bi1 S1 2.825209 1_556
Bi1 S1 2.825209 1_545
Bi1 S0 2.851019 1_555
Bi1 Se0 2.891012 1_656
Bi1 Se0 2.891012 1_555
