# generated using pymatgen
data_Zn(CoO2)2
_symmetry_space_group_name_H-M   'P 1'
_cell_length_a   2.92740000
_cell_length_b   9.69061300
_cell_length_c   9.74213400
_cell_angle_alpha   90.00000000
_cell_angle_beta   90.00000000
_cell_angle_gamma   90.00000000
_symmetry_Int_Tables_number   1
_chemical_formula_structural   Zn(CoO2)2
_chemical_formula_sum   'Zn4 Co8 O16'
_cell_volume   276.36778479
_cell_formula_units_Z   4
loop_
 _symmetry_equiv_pos_site_id
 _symmetry_equiv_pos_as_xyz
  1  'x, y, z'
loop_
 _atom_site_type_symbol
 _atom_site_label
 _atom_site_symmetry_multiplicity
 _atom_site_fract_x
 _atom_site_fract_y
 _atom_site_fract_z
 _atom_site_occupancy
  Zn  Zn0  1  0.73523500  0.61221800  0.25173200  1
  Zn  Zn1  1  0.73523500  0.38778200  0.74826800  1
  Zn  Zn2  1  0.26476500  0.11221800  0.24826800  1
  Zn  Zn3  1  0.26476500  0.88778200  0.75173200  1
  Co  Co0  1  0.24287700  0.36641700  0.42791900  1
  Co  Co1  1  0.24623500  0.63127100  0.92752700  1
  Co  Co2  1  0.75712300  0.13358300  0.92791900  1
  Co  Co3  1  0.24287700  0.63358300  0.57208100  1
  Co  Co4  1  0.75376500  0.13127100  0.57247300  1
  Co  Co5  1  0.24623500  0.36872900  0.07247300  1
  Co  Co6  1  0.75712300  0.86641700  0.07208100  1
  Co  Co7  1  0.75376500  0.86872900  0.42752700  1
  O  O0  1  0.74699000  0.22477100  0.11275400  1
  O  O1  1  0.24904500  0.27577900  0.88766700  1
  O  O2  1  0.74412700  0.50000000  0.00000000  1
  O  O3  1  0.24904500  0.72422100  0.11233300  1
  O  O4  1  0.25301000  0.72477100  0.38724600  1
  O  O5  1  0.23325400  0.54158700  0.74965100  1
  O  O6  1  0.74699000  0.77522900  0.88724600  1
  O  O7  1  0.76674600  0.04158700  0.75034900  1
  O  O8  1  0.74185200  0.50000000  0.50000000  1
  O  O9  1  0.25814800  0.00000000  0.00000000  1
  O  O10  1  0.75095500  0.22422100  0.38766700  1
  O  O11  1  0.76674600  0.95841300  0.24965100  1
  O  O12  1  0.23325400  0.45841300  0.25034900  1
  O  O13  1  0.25587300  0.00000000  0.50000000  1
  O  O14  1  0.75095500  0.77577900  0.61233300  1
  O  O15  1  0.25301000  0.27522900  0.61275400  1
loop_
_geom_bond_atom_site_label_1
_geom_bond_atom_site_label_2
_geom_bond_distance
_geom_bond_site_symmetry_2
Co0 O12 1.946318 1_555
Co0 O15 2.006047 1_555
Co0 O10 2.031334 1_455
Co0 O10 2.065132 1_555
Co0 O8 2.074245 1_555
Co0 O8 2.078476 1_455
Co1 O5 1.938990 1_555
Co1 O3 2.013172 1_556
Co1 O6 2.058176 1_455
Co1 O2 2.059397 1_556
Co1 O6 2.061317 1_555
Co1 O2 2.068150 1_456
Co2 O7 1.946318 1_555
Co2 O0 2.006047 1_556
Co2 O1 2.031334 1_655
Co2 O1 2.065132 1_555
Co2 O9 2.074245 1_556
Co2 O9 2.078476 1_656
Co3 O5 1.946318 1_555
Co3 O4 2.006047 1_555
Co3 O14 2.031334 1_455
Co3 O14 2.065132 1_555
Co3 O8 2.074245 1_555
Co3 O8 2.078476 1_455
Co4 O7 1.938990 1_555
Co4 O10 2.013172 1_555
Co4 O15 2.058176 1_655
Co4 O13 2.059397 1_555
Co4 O15 2.061317 1_555
Co4 O13 2.068150 1_655
Co5 O12 1.938990 1_555
Co5 O1 2.013172 1_554
Co5 O0 2.058176 1_455
Co5 O2 2.059397 1_555
Co5 O0 2.061317 1_555
Co5 O2 2.068150 1_455
Co6 O11 1.946318 1_555
Co6 O6 2.006047 1_554
Co6 O3 2.031334 1_655
Co6 O3 2.065132 1_555
Co6 O9 2.074245 1_565
Co6 O9 2.078476 1_665
Co7 O11 1.938990 1_555
Co7 O14 2.013172 1_555
Co7 O4 2.058176 1_655
Co7 O13 2.059397 1_565
Co7 O4 2.061317 1_555
Co7 O13 2.068150 1_665
O0 Zn2 2.219315 1_555
O0 Zn2 2.286922 1_655
O1 Zn1 2.246783 1_555
O1 Zn1 2.298853 1_455
O3 Zn0 2.246783 1_555
O3 Zn0 2.298853 1_455
O4 Zn0 2.219315 1_555
O4 Zn0 2.286922 1_455
O5 Zn1 2.084980 1_455
O5 Zn1 2.093106 1_555
O6 Zn3 2.219315 1_555
O6 Zn3 2.286922 1_655
O7 Zn3 2.084980 1_645
O7 Zn3 2.093106 1_545
O10 Zn2 2.246783 1_555
O10 Zn2 2.298853 1_655
O11 Zn2 2.084980 1_665
O11 Zn2 2.093106 1_565
O12 Zn0 2.084980 1_455
O12 Zn0 2.093106 1_555
O14 Zn3 2.246783 1_555
O14 Zn3 2.298853 1_655
O15 Zn1 2.219315 1_555
O15 Zn1 2.286922 1_455
