# generated using pymatgen
data_Mg6GaCu
_symmetry_space_group_name_H-M   'P 1'
_cell_length_a   4.90404500
_cell_length_b   6.10374700
_cell_length_c   10.62789400
_cell_angle_alpha   90.00000000
_cell_angle_beta   90.00000000
_cell_angle_gamma   90.00000000
_symmetry_Int_Tables_number   1
_chemical_formula_structural   Mg6GaCu
_chemical_formula_sum   'Mg12 Ga2 Cu2'
_cell_volume   318.12528204
_cell_formula_units_Z   2
loop_
 _symmetry_equiv_pos_site_id
 _symmetry_equiv_pos_as_xyz
  1  'x, y, z'
loop_
 _atom_site_type_symbol
 _atom_site_label
 _atom_site_symmetry_multiplicity
 _atom_site_fract_x
 _atom_site_fract_y
 _atom_site_fract_z
 _atom_site_occupancy
  Mg  Mg0  1  0.00000000  0.74645300  0.08624900  1
  Mg  Mg1  1  0.00000000  0.25354700  0.08624900  1
  Mg  Mg2  1  0.00000000  0.00000000  0.33300300  1
  Mg  Mg3  1  0.50000000  0.25891800  0.41130100  1
  Mg  Mg4  1  0.50000000  0.74108200  0.41130100  1
  Mg  Mg5  1  0.50000000  0.00000000  0.16752400  1
  Mg  Mg6  1  0.00000000  0.24645300  0.58624900  1
  Mg  Mg7  1  0.00000000  0.75354700  0.58624900  1
  Mg  Mg8  1  0.00000000  0.50000000  0.83300300  1
  Mg  Mg9  1  0.50000000  0.75891800  0.91130100  1
  Mg  Mg10  1  0.50000000  0.24108200  0.91130100  1
  Mg  Mg11  1  0.50000000  0.50000000  0.66752400  1
  Ga  Ga0  1  0.50000000  0.50000000  0.16943200  1
  Ga  Ga1  1  0.50000000  0.00000000  0.66943200  1
  Cu  Cu0  1  0.00000000  0.50000000  0.33494200  1
  Cu  Cu1  1  0.00000000  0.00000000  0.83494200  1
loop_
_geom_bond_atom_site_label_1
_geom_bond_atom_site_label_2
_geom_bond_distance
_geom_bond_site_symmetry_2
Mg0 Mg1 3.008574 1_555
Mg0 Mg5 3.025485 1_465
Mg0 Mg5 3.025485 1_565
Mg0 Mg2 3.045062 1_565
Mg0 Mg9 3.078199 1_554
Mg0 Mg9 3.078199 1_454
Mg0 Mg8 3.083326 1_554
Mg0 Mg1 3.095173 1_565
Mg1 Mg5 3.025485 1_455
Mg1 Mg5 3.025485 1_555
Mg1 Mg2 3.045062 1_555
Mg1 Mg10 3.078199 1_554
Mg1 Mg10 3.078199 1_454
Mg1 Mg8 3.083326 1_554
Mg2 Mg5 3.017518 1_455
Mg2 Mg5 3.017518 1_555
Mg2 Mg3 3.033553 1_555
Mg2 Mg4 3.033553 1_445
Mg2 Mg3 3.033553 1_455
Mg2 Mg4 3.033553 1_545
Mg2 Mg6 3.083326 1_555
Mg2 Mg7 3.083326 1_545
Mg3 Mg4 2.943007 1_555
Mg3 Mg5 3.034798 1_555
Mg3 Mg6 3.078199 1_655
Mg3 Mg6 3.078199 1_555
Mg3 Mg4 3.160740 1_545
Mg4 Mg5 3.034798 1_565
Mg4 Mg7 3.078199 1_555
Mg4 Mg7 3.078199 1_655
Mg5 Mg9 3.095263 1_544
Mg6 Mg7 3.008574 1_545
Mg6 Mg8 3.045062 1_555
Mg6 Mg7 3.095173 1_555
Mg7 Mg8 3.045062 1_555
Mg8 Mg9 3.033553 1_555
Mg8 Mg9 3.033553 1_455
Mg10 Mg9 2.943007 1_545
Mg10 Mg8 3.033553 1_555
Mg10 Mg8 3.033553 1_655
Mg10 Mg11 3.034798 1_555
Mg10 Mg5 3.095263 1_556
Mg10 Mg9 3.160740 1_555
Mg11 Mg8 3.017518 1_655
Mg11 Mg8 3.017518 1_555
Mg11 Mg7 3.025485 1_655
Mg11 Mg6 3.025485 1_555
Mg11 Mg7 3.025485 1_555
Mg11 Mg6 3.025485 1_655
Mg11 Mg9 3.034798 1_555
Mg11 Mg3 3.095263 1_555
Mg11 Mg4 3.095263 1_555
Ga0 Mg3 2.961941 1_555
Ga0 Mg4 2.961941 1_555
Ga0 Mg1 3.009461 1_655
Ga0 Mg1 3.009461 1_555
Ga0 Mg0 3.009461 1_655
Ga0 Mg0 3.009461 1_555
Ga0 Mg5 3.051941 1_565
Ga0 Mg5 3.051941 1_555
Ga0 Mg9 3.166031 1_554
Ga0 Mg10 3.166031 1_554
Ga1 Mg10 2.961941 1_555
Ga1 Mg9 2.961941 1_545
Ga1 Mg6 3.009461 1_655
Ga1 Mg7 3.009461 1_545
Ga1 Mg6 3.009461 1_555
Ga1 Mg7 3.009461 1_645
Ga1 Mg11 3.051941 1_555
Ga1 Mg11 3.051941 1_545
Ga1 Mg3 3.166031 1_555
Ga1 Mg4 3.166031 1_545
Cu0 Mg4 2.972596 1_455
Cu0 Mg3 2.972596 1_555
Cu0 Mg4 2.972596 1_555
Cu0 Mg3 2.972596 1_455
Cu0 Ga0 3.017710 1_455
Cu0 Ga0 3.017710 1_555
Cu0 Mg1 3.041178 1_555
Cu0 Mg0 3.041178 1_555
Cu0 Mg2 3.051943 1_555
Cu0 Mg2 3.051943 1_565
Cu0 Mg6 3.086833 1_555
Cu0 Mg7 3.086833 1_555
Cu1 Mg9 2.972596 1_545
Cu1 Mg10 2.972596 1_455
Cu1 Mg9 2.972596 1_445
Cu1 Mg10 2.972596 1_555
Cu1 Ga1 3.017710 1_455
Cu1 Ga1 3.017710 1_555
Cu1 Mg6 3.041178 1_555
Cu1 Mg7 3.041178 1_545
Cu1 Mg8 3.051943 1_545
Cu1 Mg8 3.051943 1_555
Cu1 Mg0 3.086833 1_546
Cu1 Mg1 3.086833 1_556
