# generated using pymatgen
data_Ho4In5S13
_symmetry_space_group_name_H-M   'P 1'
_cell_length_a   3.85937600
_cell_length_b   11.86510000
_cell_length_c   21.54086000
_cell_angle_alpha   90.00000000
_cell_angle_beta   90.00000000
_cell_angle_gamma   90.00000000
_symmetry_Int_Tables_number   1
_chemical_formula_structural   Ho4In5S13
_chemical_formula_sum   'Ho8 In10 S26'
_cell_volume   986.39652312
_cell_formula_units_Z   2
loop_
 _symmetry_equiv_pos_site_id
 _symmetry_equiv_pos_as_xyz
  1  'x, y, z'
loop_
 _atom_site_type_symbol
 _atom_site_label
 _atom_site_symmetry_multiplicity
 _atom_site_fract_x
 _atom_site_fract_y
 _atom_site_fract_z
 _atom_site_occupancy
  Ho  Ho0  1  0.00000000  0.67210800  0.34037100  1
  Ho  Ho1  1  0.00000000  0.32789200  0.65962900  1
  Ho  Ho2  1  0.00000000  0.82789200  0.84037100  1
  Ho  Ho3  1  0.00000000  0.17210800  0.15962900  1
  Ho  Ho4  1  0.00000000  0.51490100  0.17205000  1
  Ho  Ho5  1  0.00000000  0.48509900  0.82795000  1
  Ho  Ho6  1  0.00000000  0.98509900  0.67205000  1
  Ho  Ho7  1  0.00000000  0.01490100  0.32795000  1
  In  In0  1  0.00000000  0.50000000  0.50000000  1
  In  In1  1  0.00000000  0.00000000  0.00000000  1
  In  In2  1  0.50000000  0.84532100  0.49327300  1
  In  In3  1  0.50000000  0.15467900  0.50672700  1
  In  In4  1  0.50000000  0.65467900  0.99327300  1
  In  In5  1  0.50000000  0.34532100  0.00672700  1
  In  In6  1  0.50000000  0.84388200  0.17094800  1
  In  In7  1  0.50000000  0.15611800  0.82905200  1
  In  In8  1  0.50000000  0.65611800  0.67094800  1
  In  In9  1  0.50000000  0.34388200  0.32905200  1
  S  S0  1  0.50000000  0.84861500  0.36539700  1
  S  S1  1  0.50000000  0.15138500  0.63460300  1
  S  S2  1  0.50000000  0.65138500  0.86539700  1
  S  S3  1  0.50000000  0.34861500  0.13460300  1
  S  S4  1  0.50000000  0.57986700  0.26117000  1
  S  S5  1  0.50000000  0.42013300  0.73883000  1
  S  S6  1  0.50000000  0.92013300  0.76117000  1
  S  S7  1  0.50000000  0.07986700  0.23883000  1
  S  S8  1  0.50000000  0.50540400  0.40503000  1
  S  S9  1  0.50000000  0.49459600  0.59497000  1
  S  S10  1  0.50000000  0.99459600  0.90503000  1
  S  S11  1  0.50000000  0.00540400  0.09497000  1
  S  S12  1  0.00000000  0.70303400  0.47250500  1
  S  S13  1  0.00000000  0.29696600  0.52749500  1
  S  S14  1  0.00000000  0.79696600  0.97250500  1
  S  S15  1  0.00000000  0.20303400  0.02749500  1
  S  S16  1  0.00000000  0.83231000  0.24330500  1
  S  S17  1  0.00000000  0.16769000  0.75669500  1
  S  S18  1  0.00000000  0.66769000  0.74330500  1
  S  S19  1  0.00000000  0.33231000  0.25669500  1
  S  S20  1  0.50000000  0.65525500  0.11573600  1
  S  S21  1  0.50000000  0.34474500  0.88426400  1
  S  S22  1  0.50000000  0.84474500  0.61573600  1
  S  S23  1  0.50000000  0.15525500  0.38426400  1
  S  S24  1  0.00000000  0.00000000  0.50000000  1
  S  S25  1  0.00000000  0.50000000  0.00000000  1
loop_
_geom_bond_atom_site_label_1
_geom_bond_atom_site_label_2
_geom_bond_distance
_geom_bond_site_symmetry_2
Ho0 S4 2.798597 1_455
Ho0 S4 2.798597 1_555
Ho0 S16 2.825755 1_555
Ho0 S12 2.869835 1_555
Ho0 S0 2.898325 1_555
Ho0 S0 2.898325 1_455
Ho0 S8 3.094502 1_455
Ho0 S8 3.094502 1_555
Ho1 S5 2.798597 1_455
Ho1 S5 2.798597 1_555
Ho1 S17 2.825755 1_555
Ho1 S13 2.869835 1_555
Ho1 S1 2.898325 1_555
Ho1 S1 2.898325 1_455
Ho1 S9 3.094502 1_555
Ho1 S9 3.094502 1_455
Ho2 S6 2.798597 1_555
Ho2 S6 2.798597 1_455
Ho2 S18 2.825755 1_555
Ho2 S14 2.869835 1_555
Ho2 S2 2.898325 1_455
Ho2 S2 2.898325 1_555
Ho2 S10 3.094502 1_455
Ho2 S10 3.094502 1_555
Ho3 S7 2.798597 1_455
Ho3 S7 2.798597 1_555
Ho3 S19 2.825755 1_555
Ho3 S15 2.869835 1_555
Ho3 S3 2.898325 1_455
Ho3 S3 2.898325 1_555
Ho3 S11 3.094502 1_455
Ho3 S11 3.094502 1_555
Ho4 S20 2.822847 1_555
Ho4 S20 2.822847 1_455
Ho4 S4 2.828993 1_555
Ho4 S4 2.828993 1_455
Ho4 S19 2.831620 1_555
Ho4 S3 2.875255 1_455
Ho4 S3 2.875255 1_555
Ho5 S21 2.822847 1_455
Ho5 S21 2.822847 1_555
Ho5 S5 2.828993 1_555
Ho5 S5 2.828993 1_455
Ho5 S18 2.831620 1_555
Ho5 S2 2.875255 1_555
Ho5 S2 2.875255 1_455
Ho6 S22 2.822847 1_455
Ho6 S22 2.822847 1_555
Ho6 S6 2.828993 1_455
Ho6 S6 2.828993 1_555
Ho6 S17 2.831620 1_565
Ho6 S1 2.875255 1_465
Ho6 S1 2.875255 1_565
Ho7 S23 2.822847 1_455
Ho7 S23 2.822847 1_555
Ho7 S7 2.828993 1_555
Ho7 S7 2.828993 1_455
Ho7 S16 2.831620 1_545
Ho7 S0 2.875255 1_545
Ho7 S0 2.875255 1_445
In0 S12 2.480756 1_555
In0 S13 2.480756 1_555
In0 S8 2.812977 1_455
In0 S8 2.812977 1_555
In0 S9 2.812977 1_455
In0 S9 2.812977 1_555
In1 S15 2.480756 1_555
In1 S14 2.480756 1_544
In1 S10 2.812977 1_444
In1 S10 2.812977 1_544
In1 S11 2.812977 1_455
In1 S11 2.812977 1_555
In2 S12 2.602694 1_555
In2 S12 2.602694 1_655
In2 S22 2.637967 1_555
In2 S24 2.667012 1_565
In2 S24 2.667012 1_665
In2 S0 2.754836 1_555
In3 S13 2.602694 1_655
In3 S13 2.602694 1_555
In3 S23 2.637967 1_555
In3 S24 2.667012 1_555
In3 S24 2.667012 1_655
In3 S1 2.754836 1_555
In4 S14 2.602694 1_655
In4 S14 2.602694 1_555
In4 S20 2.637967 1_556
In4 S25 2.667012 1_656
In4 S25 2.667012 1_556
In4 S2 2.754836 1_555
In5 S15 2.602694 1_555
In5 S15 2.602694 1_655
In5 S21 2.637967 1_554
In5 S25 2.667012 1_655
In5 S25 2.667012 1_555
In5 S3 2.754836 1_555
In6 S16 2.484327 1_655
In6 S16 2.484327 1_555
In6 S11 2.520206 1_565
In6 S20 2.534455 1_555
In7 S17 2.484327 1_555
In7 S17 2.484327 1_655
In7 S10 2.520206 1_545
In7 S21 2.534455 1_555
In8 S18 2.484327 1_655
In8 S18 2.484327 1_555
In8 S9 2.520206 1_555
In8 S22 2.534455 1_555
In9 S19 2.484327 1_655
In9 S19 2.484327 1_555
In9 S8 2.520206 1_555
In9 S23 2.534455 1_555
