# generated using pymatgen
data_Zn(CoO2)2
_symmetry_space_group_name_H-M   'P 1'
_cell_length_a   7.47129852
_cell_length_b   7.47129852
_cell_length_c   9.12159631
_cell_angle_alpha   53.12172375
_cell_angle_beta   53.12172375
_cell_angle_gamma   23.30298529
_symmetry_Int_Tables_number   1
_chemical_formula_structural   Zn(CoO2)2
_chemical_formula_sum   'Zn2 Co4 O8'
_cell_volume   159.18209025
_cell_formula_units_Z   2
loop_
 _symmetry_equiv_pos_site_id
 _symmetry_equiv_pos_as_xyz
  1  'x, y, z'
loop_
 _atom_site_type_symbol
 _atom_site_label
 _atom_site_symmetry_multiplicity
 _atom_site_fract_x
 _atom_site_fract_y
 _atom_site_fract_z
 _atom_site_occupancy
  Zn  Zn0  1  0.67601400  0.67601400  0.31300300  1
  Zn  Zn1  1  0.32398600  0.32398600  0.68699700  1
  Co  Co0  1  0.36898000  0.36898000  0.95462800  1
  Co  Co1  1  0.86818700  0.86818700  0.30869300  1
  Co  Co2  1  0.13181300  0.13181300  0.69130700  1
  Co  Co3  1  0.63102000  0.63102000  0.04537200  1
  O  O0  1  0.14387400  0.14387400  0.89080600  1
  O  O1  1  0.52948600  0.52948600  0.76759200  1
  O  O2  1  0.47051400  0.47051400  0.23240800  1
  O  O3  1  0.85612600  0.85612600  0.10919400  1
  O  O4  1  0.83152700  0.83152700  0.83811100  1
  O  O5  1  0.19957500  0.19957500  0.43846600  1
  O  O6  1  0.16847300  0.16847300  0.16188900  1
  O  O7  1  0.80042500  0.80042500  0.56153400  1
loop_
_geom_bond_atom_site_label_1
_geom_bond_atom_site_label_2
_geom_bond_distance
_geom_bond_site_symmetry_2
Co0 O1 1.875407 1_555
Co0 O3 1.993715 1_546
Co0 O3 1.993715 1_456
Co0 O4 2.102538 1_545
Co0 O4 2.102538 1_455
Co0 O6 2.320817 1_556
Co1 O7 1.870742 1_555
Co1 O2 1.930419 1_565
Co1 O2 1.930419 1_655
Co1 O3 1.932944 1_555
Co1 O5 2.487438 1_565
Co1 O5 2.487438 1_655
Co2 O5 1.870742 1_555
Co2 O1 1.930419 1_545
Co2 O1 1.930419 1_455
Co2 O0 1.932944 1_555
Co2 O7 2.487438 1_455
Co2 O7 2.487438 1_545
Co3 O2 1.875407 1_555
Co3 O0 1.993715 1_654
Co3 O0 1.993715 1_564
Co3 O6 2.102538 1_655
Co3 O6 2.102538 1_565
Co3 O4 2.320817 1_554
O0 Zn1 2.097327 1_555
O3 Zn0 2.097327 1_555
O4 Zn1 2.091731 1_655
O4 Zn1 2.091731 1_565
O5 Zn0 2.046687 1_545
O5 Zn0 2.046687 1_455
O6 Zn0 2.091731 1_455
O6 Zn0 2.091731 1_545
O7 Zn1 2.046687 1_565
O7 Zn1 2.046687 1_655
