# generated using pymatgen
data_VPNO6
_symmetry_space_group_name_H-M   'P 1'
_cell_length_a   5.13658900
_cell_length_b   7.17448235
_cell_length_c   8.02030681
_cell_angle_alpha   89.63313333
_cell_angle_beta   90.00000000
_cell_angle_gamma   90.00000000
_symmetry_Int_Tables_number   1
_chemical_formula_structural   VPNO6
_chemical_formula_sum   'V2 P2 N2 O12'
_cell_volume   295.56123198
_cell_formula_units_Z   2
loop_
 _symmetry_equiv_pos_site_id
 _symmetry_equiv_pos_as_xyz
  1  'x, y, z'
loop_
 _atom_site_type_symbol
 _atom_site_label
 _atom_site_symmetry_multiplicity
 _atom_site_fract_x
 _atom_site_fract_y
 _atom_site_fract_z
 _atom_site_occupancy
  V  V0  1  0.40415900  0.69657500  0.83200600  1
  V  V1  1  0.90415900  0.30342500  0.16799400  1
  P  P0  1  0.33386700  0.57011100  0.21528300  1
  P  P1  1  0.83386700  0.42988900  0.78471700  1
  N  N0  1  0.54165400  0.14281100  0.56945000  1
  N  N1  1  0.04165400  0.85718900  0.43055000  1
  O  O0  1  0.22729900  0.62377200  0.04398800  1
  O  O1  1  0.72729900  0.37622800  0.95601200  1
  O  O2  1  0.11576300  0.43600100  0.74778000  1
  O  O3  1  0.61576300  0.56399900  0.25222000  1
  O  O4  1  0.63707300  0.82000800  0.91355900  1
  O  O5  1  0.13707300  0.17999200  0.08644100  1
  O  O6  1  0.63482200  0.54205700  0.68602200  1
  O  O7  1  0.13482200  0.45794300  0.31397800  1
  O  O8  1  0.23086000  0.83904200  0.71597600  1
  O  O9  1  0.73086000  0.16095800  0.28402400  1
  O  O10  1  0.22040300  0.84718100  0.34186300  1
  O  O11  1  0.72040300  0.15281900  0.65813700  1
loop_
_geom_bond_atom_site_label_1
_geom_bond_atom_site_label_2
_geom_bond_distance
_geom_bond_site_symmetry_2
N0 O11 1.163946 1_555
N1 O10 1.163946 1_555
O0 P0 1.525948 1_555
O0 V0 1.994315 1_554
O1 P1 1.525948 1_555
O1 V1 1.994315 1_556
O2 P1 1.478572 1_455
O2 V0 2.482323 1_555
O3 P0 1.478572 1_555
O3 V1 2.482323 1_555
O4 V0 1.628128 1_555
O5 V1 1.628128 1_455
O6 P1 1.520316 1_555
O6 V0 2.005055 1_555
O7 P0 1.520316 1_555
O7 V1 2.005055 1_455
O8 V0 1.640417 1_555
O9 V1 1.640417 1_555
O10 P0 2.312500 1_555
O11 P1 2.312500 1_555
