# generated using pymatgen
data_CeH16N7O19
_symmetry_space_group_name_H-M   'P 1'
_cell_length_a   7.13178666
_cell_length_b   7.13178666
_cell_length_c   18.42660928
_cell_angle_alpha   81.03100085
_cell_angle_beta   81.03100085
_cell_angle_gamma   76.93592515
_symmetry_Int_Tables_number   1
_chemical_formula_structural   CeH16N7O19
_chemical_formula_sum   'Ce2 H32 N14 O38'
_cell_volume   894.68247570
_cell_formula_units_Z   2
loop_
 _symmetry_equiv_pos_site_id
 _symmetry_equiv_pos_as_xyz
  1  'x, y, z'
loop_
 _atom_site_type_symbol
 _atom_site_label
 _atom_site_symmetry_multiplicity
 _atom_site_fract_x
 _atom_site_fract_y
 _atom_site_fract_z
 _atom_site_occupancy
  Ce  Ce0  1  0.98731100  0.87173000  0.42413800  1
  Ce  Ce1  1  0.87173000  0.98731100  0.92413800  1
  H  H0  1  0.35025100  0.07681600  0.39563700  1
  H  H1  1  0.07681600  0.35025100  0.89563700  1
  H  H2  1  0.17693100  0.25389700  0.38374300  1
  H  H3  1  0.25389700  0.17693100  0.88374300  1
  H  H4  1  0.77982300  0.50670600  0.45021100  1
  H  H5  1  0.50670600  0.77982300  0.95021100  1
  H  H6  1  0.61151100  0.68397500  0.46884200  1
  H  H7  1  0.68397500  0.61151100  0.96884200  1
  H  H8  1  0.83170500  0.36724500  0.25869600  1
  H  H9  1  0.36724500  0.83170500  0.75869600  1
  H  H10  1  0.85319200  0.58574800  0.25552600  1
  H  H11  1  0.58574800  0.85319200  0.75552600  1
  H  H12  1  0.45942700  0.16791500  0.21622900  1
  H  H13  1  0.16791500  0.45942700  0.71622900  1
  H  H14  1  0.28036500  0.11084600  0.26743400  1
  H  H15  1  0.11084600  0.28036500  0.76743400  1
  H  H16  1  0.86903200  0.45832800  0.68733400  1
  H  H17  1  0.45832800  0.86903200  0.18733400  1
  H  H18  1  0.64873500  0.62076300  0.68686700  1
  H  H19  1  0.62076300  0.64873500  0.18686700  1
  H  H20  1  0.70237400  0.43066600  0.63686900  1
  H  H21  1  0.43066600  0.70237400  0.13686900  1
  H  H22  1  0.81879100  0.61400000  0.61131700  1
  H  H23  1  0.61400000  0.81879100  0.11131700  1
  H  H24  1  0.27185100  0.21680300  0.64501900  1
  H  H25  1  0.21680300  0.27185100  0.14501900  1
  H  H26  1  0.39828500  0.98705000  0.64492000  1
  H  H27  1  0.98705000  0.39828500  0.14492000  1
  H  H28  1  0.21302200  0.07591000  0.59014500  1
  H  H29  1  0.07591000  0.21302200  0.09014500  1
  H  H30  1  0.42727600  0.14686000  0.56887100  1
  H  H31  1  0.14686000  0.42727600  0.06887100  1
  N  N0  1  0.75860900  0.53158900  0.65586000  1
  N  N1  1  0.53158900  0.75860900  0.15586000  1
  N  N2  1  0.32848000  0.10604800  0.61155100  1
  N  N3  1  0.10604800  0.32848000  0.11155100  1
  N  N4  1  0.25148600  0.58284600  0.32601100  1
  N  N5  1  0.58284600  0.25148600  0.82601100  1
  N  N6  1  0.26813500  0.63744400  0.53510900  1
  N  N7  1  0.63744400  0.26813500  0.03510900  1
  N  N8  1  0.85187700  0.04036400  0.57606300  1
  N  N9  1  0.04036400  0.85187700  0.07606300  1
  N  N10  1  0.62956200  0.21354000  0.42949300  1
  N  N11  1  0.21354000  0.62956200  0.92949300  1
  N  N12  1  0.84801000  0.97730400  0.26660100  1
  N  N13  1  0.97730400  0.84801000  0.76660100  1
  O  O0  1  0.21908600  0.11272600  0.38012700  1
  O  O1  1  0.11272600  0.21908600  0.88012700  1
  O  O2  1  0.75397500  0.63953900  0.46359300  1
  O  O3  1  0.63953900  0.75397500  0.96359300  1
  O  O4  1  0.26240000  0.76073300  0.32238600  1
  O  O5  1  0.76073300  0.26240000  0.82238600  1
  O  O6  1  0.12874300  0.52174200  0.37844000  1
  O  O7  1  0.52174200  0.12874300  0.87844000  1
  O  O8  1  0.35167500  0.47600900  0.28162100  1
  O  O9  1  0.47600900  0.35167500  0.78162100  1
  O  O10  1  0.33377100  0.74983700  0.48012300  1
  O  O11  1  0.74983700  0.33377100  0.98012300  1
  O  O12  1  0.09273900  0.61998900  0.53631300  1
  O  O13  1  0.61998900  0.09273900  0.03631300  1
  O  O14  1  0.36880900  0.55146700  0.58409000  1
  O  O15  1  0.55146700  0.36880900  0.08409000  1
  O  O16  1  0.02466400  0.03773600  0.54300600  1
  O  O17  1  0.03773600  0.02466400  0.04300600  1
  O  O18  1  0.75173300  0.94364100  0.55023500  1
  O  O19  1  0.94364100  0.75173300  0.05023500  1
  O  O20  1  0.78369400  0.13332500  0.62913400  1
  O  O21  1  0.13332500  0.78369400  0.12913400  1
  O  O22  1  0.80059100  0.24177000  0.43107900  1
  O  O23  1  0.24177000  0.80059100  0.93107900  1
  O  O24  1  0.61898500  0.04965600  0.41128500  1
  O  O25  1  0.04965600  0.61898500  0.91128500  1
  O  O26  1  0.48202700  0.33547300  0.44659700  1
  O  O27  1  0.33547300  0.48202700  0.94659700  1
  O  O28  1  0.91681400  0.09683600  0.29485700  1
  O  O29  1  0.09683600  0.91681400  0.79485700  1
  O  O30  1  0.85913300  0.80691800  0.30253500  1
  O  O31  1  0.80691800  0.85913300  0.80253500  1
  O  O32  1  0.77258200  0.02560900  0.20829200  1
  O  O33  1  0.02560900  0.77258200  0.70829200  1
  O  O34  1  0.82407500  0.49273100  0.22677300  1
  O  O35  1  0.49273100  0.82407500  0.72677300  1
  O  O36  1  0.34479400  0.11461800  0.21599700  1
  O  O37  1  0.11461800  0.34479400  0.71599700  1
loop_
_geom_bond_atom_site_label_1
_geom_bond_atom_site_label_2
_geom_bond_distance
_geom_bond_site_symmetry_2
Ce0 O2 2.555992 1_555
Ce0 O4 2.569975 1_655
Ce0 O0 2.603041 1_665
Ce0 O12 2.603535 1_655
Ce0 O24 2.675789 1_565
Ce0 O6 2.684960 1_655
Ce0 O22 2.686560 1_565
Ce0 O30 2.687528 1_555
Ce0 O18 2.692470 1_555
Ce0 O28 2.705759 1_565
Ce0 O16 2.720894 1_665
Ce0 O10 2.732997 1_655
Ce1 O3 2.555992 1_555
Ce1 O5 2.569975 1_565
Ce1 O1 2.603041 1_665
Ce1 O13 2.603535 1_566
Ce1 O25 2.675789 1_655
Ce1 O7 2.684960 1_565
Ce1 O23 2.686560 1_655
Ce1 O31 2.687528 1_555
Ce1 O19 2.692470 1_556
Ce1 O29 2.705759 1_655
Ce1 O17 2.720894 1_666
Ce1 O11 2.732997 1_565
H0 O0 0.987193 1_555
H1 O1 0.987193 1_555
H2 O0 0.993129 1_555
H3 O1 0.993129 1_555
H4 O2 0.985874 1_555
H5 O3 0.985874 1_555
H6 O2 0.987644 1_555
H7 O3 0.987644 1_555
H8 O34 0.986772 1_555
H9 O35 0.986772 1_555
H10 O34 0.984921 1_555
H11 O35 0.984921 1_555
H12 O36 0.977213 1_555
H13 O37 0.977213 1_555
H14 O36 0.985924 1_555
H15 O37 0.985924 1_555
H16 N0 1.044715 1_555
H17 N1 1.044715 1_555
H18 N0 1.045627 1_555
H19 N1 1.045627 1_555
H20 N0 1.026720 1_555
H21 N1 1.026720 1_555
H22 N0 1.028161 1_555
H23 N1 1.028161 1_555
H24 N2 1.047545 1_555
H25 N3 1.047545 1_555
H26 N2 1.043018 1_565
H27 N3 1.043018 1_655
H28 N2 1.042842 1_555
H29 N3 1.042842 1_555
H30 N2 1.023832 1_555
H31 N3 1.023832 1_555
N4 O8 1.235362 1_555
N4 O4 1.279295 1_555
N4 O6 1.291130 1_555
N5 O9 1.235362 1_555
N5 O5 1.279295 1_555
N5 O7 1.291130 1_555
N6 O14 1.239578 1_555
N6 O12 1.281245 1_555
N6 O10 1.287138 1_555
N7 O15 1.239578 1_555
N7 O13 1.281245 1_555
N7 O11 1.287138 1_554
N8 O20 1.241152 1_555
N8 O18 1.281989 1_545
N8 O16 1.284126 1_655
N9 O21 1.241152 1_555
N9 O19 1.281989 1_455
N9 O17 1.284126 1_565
N10 O26 1.237355 1_555
N10 O22 1.285740 1_555
N10 O24 1.286210 1_555
N11 O27 1.237355 1_555
N11 O23 1.285740 1_555
N11 O25 1.286210 1_555
N12 O32 1.242375 1_565
N12 O30 1.281894 1_555
N12 O28 1.282868 1_565
N13 O33 1.242375 1_655
N13 O31 1.281894 1_555
N13 O29 1.282868 1_655
