# generated using pymatgen
data_Cr2CuS4
_symmetry_space_group_name_H-M   'P 1'
_cell_length_a   3.42682300
_cell_length_b   10.75790800
_cell_length_c   12.23756700
_cell_angle_alpha   90.00000000
_cell_angle_beta   90.00000000
_cell_angle_gamma   90.00000000
_symmetry_Int_Tables_number   1
_chemical_formula_structural   Cr2CuS4
_chemical_formula_sum   'Cr8 Cu4 S16'
_cell_volume   451.14337234
_cell_formula_units_Z   4
loop_
 _symmetry_equiv_pos_site_id
 _symmetry_equiv_pos_as_xyz
  1  'x, y, z'
loop_
 _atom_site_type_symbol
 _atom_site_label
 _atom_site_symmetry_multiplicity
 _atom_site_fract_x
 _atom_site_fract_y
 _atom_site_fract_z
 _atom_site_occupancy
  Cr  Cr0  1  0.25000000  0.04683500  0.12409100  1
  Cr  Cr1  1  0.75000000  0.95316500  0.87590900  1
  Cr  Cr2  1  0.75000000  0.45316500  0.62409100  1
  Cr  Cr3  1  0.25000000  0.54683500  0.37590900  1
  Cr  Cr4  1  0.25000000  0.10246700  0.58685900  1
  Cr  Cr5  1  0.75000000  0.89753300  0.41314100  1
  Cr  Cr6  1  0.75000000  0.39753300  0.08685900  1
  Cr  Cr7  1  0.25000000  0.60246700  0.91314100  1
  Cu  Cu0  1  0.25000000  0.26476200  0.33895000  1
  Cu  Cu1  1  0.75000000  0.73523800  0.66105000  1
  Cu  Cu2  1  0.75000000  0.23523800  0.83895000  1
  Cu  Cu3  1  0.25000000  0.76476200  0.16105000  1
  S  S0  1  0.75000000  0.07134900  0.71475300  1
  S  S1  1  0.25000000  0.92865100  0.28524700  1
  S  S2  1  0.25000000  0.42865100  0.21475300  1
  S  S3  1  0.75000000  0.57134900  0.78524700  1
  S  S4  1  0.25000000  0.09499600  0.93711500  1
  S  S5  1  0.75000000  0.90500400  0.06288500  1
  S  S6  1  0.75000000  0.40500400  0.43711500  1
  S  S7  1  0.25000000  0.59499600  0.56288500  1
  S  S8  1  0.75000000  0.11666600  0.44950800  1
  S  S9  1  0.25000000  0.88333400  0.55049200  1
  S  S10  1  0.25000000  0.38333400  0.94950800  1
  S  S11  1  0.75000000  0.61666600  0.05049200  1
  S  S12  1  0.75000000  0.18663200  0.16362400  1
  S  S13  1  0.25000000  0.81336800  0.83637600  1
  S  S14  1  0.25000000  0.31336800  0.66362400  1
  S  S15  1  0.75000000  0.68663200  0.33637600  1
loop_
_geom_bond_atom_site_label_1
_geom_bond_atom_site_label_2
_geom_bond_distance
_geom_bond_site_symmetry_2
Cr0 S12 2.330582 1_455
Cr0 S12 2.330582 1_555
Cr0 S4 2.346057 1_554
Cr0 S1 2.346464 1_545
Cr0 S5 2.413479 1_445
Cr0 S5 2.413479 1_545
Cr1 S13 2.330582 1_555
Cr1 S13 2.330582 1_655
Cr1 S5 2.346057 1_556
Cr1 S0 2.346464 1_565
Cr1 S4 2.413479 1_565
Cr1 S4 2.413479 1_665
Cr2 S14 2.330582 1_555
Cr2 S14 2.330582 1_655
Cr2 S6 2.346057 1_555
Cr2 S3 2.346464 1_555
Cr2 S7 2.413479 1_555
Cr2 S7 2.413479 1_655
Cr3 S15 2.330582 1_455
Cr3 S15 2.330582 1_555
Cr3 S7 2.346057 1_555
Cr3 S2 2.346464 1_555
Cr3 S6 2.413479 1_555
Cr3 S6 2.413479 1_455
Cr4 S0 2.344658 1_555
Cr4 S0 2.344658 1_455
Cr4 S9 2.399054 1_545
Cr4 S8 2.405066 1_455
Cr4 S8 2.405066 1_555
Cr4 S14 2.455647 1_555
Cr5 S1 2.344658 1_555
Cr5 S1 2.344658 1_655
Cr5 S8 2.399054 1_565
Cr5 S9 2.405066 1_655
Cr5 S9 2.405066 1_555
Cr5 S15 2.455647 1_555
Cr6 S2 2.344658 1_555
Cr6 S2 2.344658 1_655
Cr6 S11 2.399054 1_555
Cr6 S10 2.405066 1_654
Cr6 S10 2.405066 1_554
Cr6 S12 2.455647 1_555
Cr7 S3 2.344658 1_455
Cr7 S3 2.344658 1_555
Cr7 S10 2.399054 1_555
Cr7 S11 2.405066 1_456
Cr7 S11 2.405066 1_556
Cr7 S13 2.455647 1_555
Cu0 S2 2.327774 1_555
Cu0 S6 2.579750 1_555
Cu0 S6 2.579750 1_455
Cu0 S8 2.702698 1_555
Cu0 S8 2.702698 1_455
Cu0 S12 2.871531 1_455
Cu0 S12 2.871531 1_555
Cu1 S3 2.327774 1_555
Cu1 S7 2.579750 1_655
Cu1 S7 2.579750 1_555
Cu1 S9 2.702698 1_555
Cu1 S9 2.702698 1_655
Cu1 S13 2.871531 1_555
Cu1 S13 2.871531 1_655
Cu2 S0 2.327774 1_555
Cu2 S4 2.579750 1_555
Cu2 S4 2.579750 1_655
Cu2 S10 2.702698 1_555
Cu2 S10 2.702698 1_655
Cu2 S14 2.871531 1_555
Cu2 S14 2.871531 1_655
Cu3 S1 2.327774 1_555
Cu3 S5 2.579750 1_455
Cu3 S5 2.579750 1_555
Cu3 S11 2.702698 1_455
Cu3 S11 2.702698 1_555
Cu3 S15 2.871531 1_455
Cu3 S15 2.871531 1_555
