# generated using pymatgen
data_Li3MnV3O8
_symmetry_space_group_name_H-M   'P 1'
_cell_length_a   5.97699071
_cell_length_b   10.37261172
_cell_length_c   5.96441135
_cell_angle_alpha   106.88081588
_cell_angle_beta   59.90111858
_cell_angle_gamma   89.98979808
_symmetry_Int_Tables_number   1
_chemical_formula_structural   Li3MnV3O8
_chemical_formula_sum   'Li6 Mn2 V6 O16'
_cell_volume   301.34568805
_cell_formula_units_Z   2
loop_
 _symmetry_equiv_pos_site_id
 _symmetry_equiv_pos_as_xyz
  1  'x, y, z'
loop_
 _atom_site_type_symbol
 _atom_site_label
 _atom_site_symmetry_multiplicity
 _atom_site_fract_x
 _atom_site_fract_y
 _atom_site_fract_z
 _atom_site_occupancy
  Li  Li0  1  0.49641500  0.00031800  0.50069400  1
  Li  Li1  1  0.99998900  0.49936600  0.50315700  1
  Li  Li2  1  0.99709300  0.00024000  0.50011800  1
  Li  Li3  1  0.50332300  0.50008500  0.49549800  1
  Li  Li4  1  0.74772900  0.25162600  0.50544300  1
  Li  Li5  1  0.25250400  0.74863800  0.49506800  1
  Mn  Mn0  1  0.75254300  0.74963500  0.49655400  1
  Mn  Mn1  1  0.24695800  0.25039200  0.50367400  1
  V  V0  1  0.00425000  0.50017800  0.99993500  1
  V  V1  1  0.75216100  0.75169200  0.99650500  1
  V  V2  1  0.74826400  0.24889700  0.00265600  1
  V  V3  1  0.49934200  0.99989400  0.99976200  1
  V  V4  1  0.24813600  0.24892700  0.00352300  1
  V  V5  1  0.25191400  0.75021000  0.99736100  1
  O  O0  1  0.88833400  0.37112800  0.22719300  1
  O  O1  1  0.38554900  0.87174500  0.22350300  1
  O  O2  1  0.60832900  0.12817100  0.77577400  1
  O  O3  1  0.11634700  0.62886500  0.77274900  1
  O  O4  1  0.87069300  0.85926700  0.25665000  1
  O  O5  1  0.37374700  0.35903900  0.26377100  1
  O  O6  1  0.09903500  0.63726700  0.25489300  1
  O  O7  1  0.58951700  0.13166400  0.25850000  1
  O  O8  1  0.65172900  0.63506600  0.25199900  1
  O  O9  1  0.14232600  0.13911000  0.26045400  1
  O  O10  1  0.85452800  0.86508000  0.73844200  1
  O  O11  1  0.35303700  0.36078400  0.74722700  1
  O  O12  1  0.40716600  0.86472800  0.74098900  1
  O  O13  1  0.90338500  0.36642000  0.74828800  1
  O  O14  1  0.63286400  0.64139900  0.73781000  1
  O  O15  1  0.12281700  0.14016300  0.74175600  1
loop_
_geom_bond_atom_site_label_1
_geom_bond_atom_site_label_2
_geom_bond_distance
_geom_bond_site_symmetry_2
Li0 O7 2.142312 1_555
Li0 O12 2.172739 1_545
Li0 O15 2.173718 1_555
Li0 O2 2.176109 1_555
Li0 O4 2.181694 1_545
Li0 O1 2.183951 1_545
Li1 O14 2.159940 1_555
Li1 O13 2.167289 1_555
Li1 O5 2.177268 1_655
Li1 O3 2.177405 1_655
Li1 O0 2.180464 1_555
Li1 O6 2.222673 1_655
Li2 O15 2.149444 1_655
Li2 O10 2.157562 1_545
Li2 O4 2.164542 1_545
Li2 O2 2.182519 1_555
Li2 O1 2.183790 1_645
Li2 O9 2.196237 1_655
Li3 O5 2.133107 1_555
Li3 O0 2.169756 1_555
Li3 O14 2.174679 1_555
Li3 O8 2.178449 1_555
Li3 O3 2.179088 1_555
Li3 O11 2.248686 1_555
Li4 O11 2.136691 1_555
Li4 O9 2.147511 1_655
Li4 O13 2.175236 1_555
Li4 O2 2.187649 1_555
Li4 O0 2.189340 1_555
Li4 O7 2.223711 1_555
Li5 O6 2.141313 1_555
Li5 O8 2.172737 1_555
Li5 O10 2.177537 1_455
Li5 O12 2.188733 1_555
Li5 O3 2.189116 1_555
Li5 O1 2.190007 1_555
Mn0 O14 1.936186 1_555
Mn0 O6 1.937655 1_655
Mn0 O10 1.940597 1_555
Mn0 O4 1.941927 1_555
Mn0 O8 1.943713 1_555
Mn0 O12 1.944694 1_555
Mn1 O5 1.934153 1_555
Mn1 O15 1.939258 1_555
Mn1 O9 1.940520 1_555
Mn1 O13 1.941238 1_455
Mn1 O11 1.944571 1_555
Mn1 O7 1.948686 1_555
O0 V4 2.037310 1_655
O0 V0 2.054569 1_654
O0 V2 2.059300 1_555
O1 V3 2.032357 1_554
O1 V5 2.034666 1_554
O1 V1 2.056586 1_554
O2 V4 2.031425 1_556
O2 V3 2.034535 1_545
O2 V2 2.061625 1_556
O3 V5 2.036018 1_555
O3 V0 2.051080 1_555
O3 V1 2.059195 1_455
O4 V1 2.061998 1_554
O4 V5 2.076506 1_654
O5 V2 2.051986 1_555
O5 V4 2.101693 1_555
O6 V5 2.050482 1_554
O6 V0 2.064935 1_554
O7 V3 2.037076 1_544
O7 V2 2.081677 1_555
O8 V0 2.063371 1_654
O8 V1 2.073480 1_554
O9 V4 2.021842 1_555
O9 V3 2.103189 1_544
O10 V1 2.057620 1_555
O10 V3 2.075099 1_555
O11 V4 2.035946 1_556
O11 V0 2.071244 1_555
O12 V5 2.059694 1_555
O12 V3 2.061017 1_555
O13 V0 2.059038 1_655
O13 V2 2.076304 1_556
O14 V1 2.067985 1_555
O14 V5 2.074556 1_555
O15 V2 2.047209 1_456
O15 V4 2.102787 1_556
