# generated using pymatgen
data_Sm2Co7
_symmetry_space_group_name_H-M   'P 1'
_cell_length_a   4.98934877
_cell_length_b   4.98934900
_cell_length_c   12.42382870
_cell_angle_alpha   78.41640027
_cell_angle_beta   78.41639967
_cell_angle_gamma   60.00000507
_symmetry_Int_Tables_number   1
_chemical_formula_structural   Sm2Co7
_chemical_formula_sum   'Sm4 Co14'
_cell_volume   260.54012322
_cell_formula_units_Z   2
loop_
 _symmetry_equiv_pos_site_id
 _symmetry_equiv_pos_as_xyz
  1  'x, y, z'
loop_
 _atom_site_type_symbol
 _atom_site_label
 _atom_site_symmetry_multiplicity
 _atom_site_fract_x
 _atom_site_fract_y
 _atom_site_fract_z
 _atom_site_occupancy
  Sm  Sm0  1  0.94874700  0.94874700  0.15375800  1
  Sm  Sm1  1  0.05125300  0.05125300  0.84624200  1
  Sm  Sm2  1  0.85194400  0.85194400  0.44416700  1
  Sm  Sm3  1  0.14805600  0.14805600  0.55583300  1
  Co  Co0  1  0.50000000  0.50000000  0.50000000  1
  Co  Co1  1  0.72143600  0.72143600  0.83569200  1
  Co  Co2  1  0.27856400  0.27856400  0.16430800  1
  Co  Co3  1  0.61190100  0.61190100  0.16429700  1
  Co  Co4  1  0.38809900  0.38809900  0.83570300  1
  Co  Co5  1  0.00000000  0.50000000  0.00000000  1
  Co  Co6  1  0.50000000  0.00000000  0.00000000  1
  Co  Co7  1  0.50000000  0.50000000  0.00000000  1
  Co  Co8  1  0.39233000  0.39233000  0.32533600  1
  Co  Co9  1  0.89000400  0.39233000  0.32533600  1
  Co  Co10  1  0.39233000  0.89000400  0.32533600  1
  Co  Co11  1  0.60767000  0.60767000  0.67466400  1
  Co  Co12  1  0.10999600  0.60767000  0.67466400  1
  Co  Co13  1  0.60767000  0.10999600  0.67466400  1
loop_
_geom_bond_atom_site_label_1
_geom_bond_atom_site_label_2
_geom_bond_distance
_geom_bond_site_symmetry_2
Co0 Co8 2.551655 1_555
Co0 Co11 2.551655 1_555
Co0 Co9 2.551655 1_555
Co0 Co12 2.551655 1_555
Co0 Co13 2.551655 1_555
Co0 Co10 2.551655 1_555
Co0 Sm3 2.958572 1_555
Co0 Sm2 2.958572 1_555
Co0 Sm3 2.958576 1_655
Co0 Sm2 2.958576 1_455
Co0 Sm3 2.958576 1_565
Co0 Sm2 2.958576 1_545
Co1 Co11 2.425074 1_555
Co1 Co12 2.425075 1_655
Co1 Co13 2.425075 1_565
Co1 Co7 2.453058 1_556
Co1 Co5 2.453058 1_656
Co1 Co6 2.453058 1_566
Co1 Sm1 2.883421 1_565
Co1 Sm1 2.883421 1_655
Co1 Sm1 2.883425 1_665
Co2 Co8 2.425074 1_555
Co2 Co9 2.425075 1_455
Co2 Co7 2.453058 1_555
Co2 Co5 2.453058 1_555
Co2 Co6 2.453058 1_555
Co2 Sm0 2.883421 1_545
Co2 Sm0 2.883421 1_455
Co2 Sm0 2.883425 1_445
Co3 Co8 2.417210 1_555
Co3 Co9 2.417210 1_555
Co3 Co7 2.452951 1_555
Co3 Co5 2.452951 1_655
Co3 Co6 2.452951 1_565
Co3 Sm0 2.883413 1_555
Co3 Sm0 2.883418 1_455
Co3 Sm0 2.883418 1_545
Co4 Co7 2.452951 1_556
Co4 Co5 2.452951 1_556
Co4 Co6 2.452951 1_556
Co4 Sm1 2.883413 1_555
Co4 Sm1 2.883418 1_655
Co4 Sm1 2.883418 1_565
Co5 Co7 2.494674 1_455
Co5 Co7 2.494674 1_555
Co5 Co6 2.494675 1_555
Co5 Co6 2.494675 1_465
Co5 Sm1 3.110678 1_554
Co5 Sm0 3.110678 1_455
Co5 Sm1 3.110682 1_564
Co5 Sm0 3.110682 1_445
Co6 Co7 2.494674 1_545
Co6 Co7 2.494674 1_555
Co6 Sm1 3.110678 1_554
Co6 Sm0 3.110678 1_545
Co6 Sm1 3.110682 1_654
Co6 Sm0 3.110682 1_445
Co7 Sm1 3.110680 1_654
Co7 Sm0 3.110680 1_455
Co7 Sm1 3.110680 1_564
Co7 Sm0 3.110680 1_545
Co8 Co9 2.483069 1_555
Co8 Co9 2.506280 1_455
Co8 Sm2 2.878514 1_455
Co8 Sm2 2.878514 1_545
Co8 Sm3 3.139024 1_555
Co8 Sm0 3.243936 1_545
Co8 Sm0 3.243936 1_455
Co9 Sm2 2.878512 1_555
Co9 Sm2 2.878516 1_545
Co9 Sm3 3.139026 1_655
Co9 Sm0 3.243934 1_555
Co9 Sm0 3.243938 1_545
Co10 Co3 2.417210 1_555
Co10 Co2 2.425075 1_565
Co10 Co8 2.483069 1_555
Co10 Co9 2.483069 1_555
Co10 Co8 2.506280 1_565
Co10 Co9 2.506280 1_465
Co10 Sm2 2.878511 1_555
Co10 Sm2 2.878516 1_455
Co10 Sm3 3.139026 1_565
Co10 Sm0 3.243934 1_555
Co10 Sm0 3.243938 1_455
Co11 Co4 2.417210 1_555
Co11 Co12 2.483069 1_555
Co11 Co13 2.483069 1_555
Co11 Co12 2.506280 1_655
Co11 Co13 2.506280 1_565
Co11 Sm3 2.878514 1_655
Co11 Sm3 2.878514 1_565
Co11 Sm2 3.139024 1_555
Co11 Sm1 3.243936 1_565
Co11 Sm1 3.243936 1_655
Co12 Co4 2.417210 1_555
Co12 Co13 2.483069 1_555
Co12 Co13 2.506280 1_465
Co12 Sm3 2.878512 1_555
Co12 Sm3 2.878516 1_565
Co12 Sm2 3.139026 1_455
Co12 Sm1 3.243934 1_555
Co12 Sm1 3.243938 1_565
Co13 Co4 2.417210 1_555
Co13 Sm3 2.878511 1_555
Co13 Sm3 2.878516 1_655
Co13 Sm2 3.139026 1_545
Co13 Sm1 3.243934 1_555
Co13 Sm1 3.243938 1_655
