# generated using pymatgen
data_SrMg
_symmetry_space_group_name_H-M   'P 1'
_cell_length_a   18.68075970
_cell_length_b   18.68075970
_cell_length_c   11.90984800
_cell_angle_alpha   90.00000000
_cell_angle_beta   90.00000000
_cell_angle_gamma   154.51953256
_symmetry_Int_Tables_number   1
_chemical_formula_structural   SrMg
_chemical_formula_sum   'Sr24 Mg24'
_cell_volume   1788.00652215
_cell_formula_units_Z   24
loop_
 _symmetry_equiv_pos_site_id
 _symmetry_equiv_pos_as_xyz
  1  'x, y, z'
loop_
 _atom_site_type_symbol
 _atom_site_label
 _atom_site_symmetry_multiplicity
 _atom_site_fract_x
 _atom_site_fract_y
 _atom_site_fract_z
 _atom_site_occupancy
  Sr  Sr0_0  1  0.48535650  0.01464350  0.00000000  1
  Sr  Sr0_1  1  0.48535650  0.01464350  0.50000000  1
  Sr  Sr0_2  1  0.48535650  0.51464350  0.00000000  1
  Sr  Sr0_3  1  0.48535650  0.51464350  0.50000000  1
  Sr  Sr0_4  1  0.98535650  0.01464350  0.00000000  1
  Sr  Sr0_5  1  0.98535650  0.01464350  0.50000000  1
  Sr  Sr0_6  1  0.98535650  0.51464350  0.00000000  1
  Sr  Sr0_7  1  0.98535650  0.51464350  0.50000000  1
  Sr  Sr1_0  1  0.32893150  0.17106850  0.00000000  1
  Sr  Sr1_1  1  0.32893150  0.17106850  0.50000000  1
  Sr  Sr1_2  1  0.32893150  0.67106850  0.00000000  1
  Sr  Sr1_3  1  0.32893150  0.67106850  0.50000000  1
  Sr  Sr1_4  1  0.82893150  0.17106850  0.00000000  1
  Sr  Sr1_5  1  0.82893150  0.17106850  0.50000000  1
  Sr  Sr1_6  1  0.82893150  0.67106850  0.00000000  1
  Sr  Sr1_7  1  0.82893150  0.67106850  0.50000000  1
  Sr  Sr2_0  1  0.40208500  0.09791500  0.25000000  1
  Sr  Sr2_1  1  0.40208500  0.09791500  0.75000000  1
  Sr  Sr2_2  1  0.40208500  0.59791500  0.25000000  1
  Sr  Sr2_3  1  0.40208500  0.59791500  0.75000000  1
  Sr  Sr2_4  1  0.90208500  0.09791500  0.25000000  1
  Sr  Sr2_5  1  0.90208500  0.09791500  0.75000000  1
  Sr  Sr2_6  1  0.90208500  0.59791500  0.25000000  1
  Sr  Sr2_7  1  0.90208500  0.59791500  0.75000000  1
  Mg  Mg0_0  1  0.15938950  0.34061050  0.00000000  1
  Mg  Mg0_1  1  0.15938950  0.34061050  0.50000000  1
  Mg  Mg0_2  1  0.15938950  0.84061050  0.00000000  1
  Mg  Mg0_3  1  0.15938950  0.84061050  0.50000000  1
  Mg  Mg0_4  1  0.65938950  0.34061050  0.00000000  1
  Mg  Mg0_5  1  0.65938950  0.34061050  0.50000000  1
  Mg  Mg0_6  1  0.65938950  0.84061050  0.00000000  1
  Mg  Mg0_7  1  0.65938950  0.84061050  0.50000000  1
  Mg  Mg1_0  1  0.05431650  0.44568350  0.25000000  1
  Mg  Mg1_1  1  0.05431650  0.44568350  0.75000000  1
  Mg  Mg1_2  1  0.05431650  0.94568350  0.25000000  1
  Mg  Mg1_3  1  0.05431650  0.94568350  0.75000000  1
  Mg  Mg1_4  1  0.55431650  0.44568350  0.25000000  1
  Mg  Mg1_5  1  0.55431650  0.44568350  0.75000000  1
  Mg  Mg1_6  1  0.55431650  0.94568350  0.25000000  1
  Mg  Mg1_7  1  0.55431650  0.94568350  0.75000000  1
  Mg  Mg2_0  1  0.23658800  0.26341200  0.25000000  1
  Mg  Mg2_1  1  0.23658800  0.26341200  0.75000000  1
  Mg  Mg2_2  1  0.23658800  0.76341200  0.25000000  1
  Mg  Mg2_3  1  0.23658800  0.76341200  0.75000000  1
  Mg  Mg2_4  1  0.73658800  0.26341200  0.25000000  1
  Mg  Mg2_5  1  0.73658800  0.26341200  0.75000000  1
  Mg  Mg2_6  1  0.73658800  0.76341200  0.25000000  1
  Mg  Mg2_7  1  0.73658800  0.76341200  0.75000000  1
loop_
_geom_bond_atom_site_label_1
_geom_bond_atom_site_label_2
_geom_bond_distance
_geom_bond_site_symmetry_2
Sr0_0 Sr1_2 3.983876 1_545
Sr0_0 Sr1_4 3.983876 1_555
Sr0_0 Sr0_6 4.119690 1_445
Sr0_0 Sr0_6 4.119690 1_555
Sr0_0 Sr2_0 4.251328 1_555
Sr0_0 Sr2_1 4.251328 1_554
Sr0_1 Sr1_3 3.983876 1_545
Sr0_1 Sr1_5 3.983876 1_555
Sr0_1 Sr0_7 4.119690 1_445
Sr0_1 Sr0_7 4.119690 1_555
Sr0_1 Sr2_0 4.251328 1_555
Sr0_1 Sr2_1 4.251328 1_555
Sr0_2 Sr1_0 3.983876 1_555
Sr0_2 Sr1_6 3.983876 1_555
Sr0_2 Sr0_4 4.119690 1_565
Sr0_2 Sr0_4 4.119690 1_455
Sr0_2 Sr2_3 4.251328 1_554
Sr0_2 Sr2_2 4.251328 1_555
Sr0_3 Sr1_1 3.983876 1_555
Sr0_3 Sr1_7 3.983876 1_555
Sr0_3 Sr0_5 4.119690 1_455
Sr0_3 Sr0_5 4.119690 1_565
Sr0_3 Sr2_2 4.251328 1_555
Sr0_3 Sr2_3 4.251328 1_555
Sr0_4 Sr1_6 3.983876 1_545
Sr0_4 Sr1_0 3.983876 1_655
Sr0_4 Sr2_5 4.251328 1_554
Sr0_4 Sr2_4 4.251328 1_555
Sr0_5 Sr1_7 3.983876 1_545
Sr0_5 Sr1_1 3.983876 1_655
Sr0_5 Sr2_4 4.251328 1_555
Sr0_5 Sr2_5 4.251328 1_555
Sr0_6 Sr1_2 3.983876 1_655
Sr0_6 Sr1_4 3.983876 1_555
Sr0_6 Sr2_7 4.251328 1_554
Sr0_6 Sr2_6 4.251328 1_555
Sr0_7 Sr1_3 3.983876 1_655
Sr0_7 Sr1_5 3.983876 1_555
Sr0_7 Sr2_6 4.251328 1_555
Sr0_7 Sr2_7 4.251328 1_555
Sr1_0 Sr2_1 3.996494 1_554
Sr1_0 Sr2_0 3.996494 1_555
Sr1_0 Sr1_6 4.119690 1_555
Sr1_0 Sr1_6 4.119690 1_445
Sr1_1 Sr2_0 3.996494 1_555
Sr1_1 Sr2_1 3.996494 1_555
Sr1_1 Sr1_7 4.119690 1_555
Sr1_1 Sr1_7 4.119690 1_445
Sr1_2 Sr2_3 3.996494 1_554
Sr1_2 Sr2_2 3.996494 1_555
Sr1_2 Sr1_4 4.119690 1_455
Sr1_2 Sr1_4 4.119690 1_565
Sr1_3 Sr2_2 3.996494 1_555
Sr1_3 Sr2_3 3.996494 1_555
Sr1_3 Sr1_5 4.119690 1_455
Sr1_3 Sr1_5 4.119690 1_565
Sr1_4 Sr2_5 3.996494 1_554
Sr1_4 Sr2_4 3.996494 1_555
Sr1_5 Sr2_4 3.996494 1_555
Sr1_5 Sr2_5 3.996494 1_555
Sr1_6 Sr2_7 3.996494 1_554
Sr1_6 Sr2_6 3.996494 1_555
Sr1_7 Sr2_6 3.996494 1_555
Sr1_7 Sr2_7 3.996494 1_555
Sr2_0 Sr2_6 4.119690 1_445
Sr2_0 Sr2_6 4.119690 1_555
Sr2_1 Sr2_7 4.119690 1_445
Sr2_1 Sr2_7 4.119690 1_555
Sr2_2 Sr2_4 4.119690 1_565
Sr2_2 Sr2_4 4.119690 1_455
Sr2_3 Sr2_5 4.119690 1_565
Sr2_3 Sr2_5 4.119690 1_455
Mg0_0 Sr0_2 3.450624 1_555
Mg0_0 Sr0_4 3.450624 1_455
Mg0_0 Sr1_2 3.583257 1_555
Mg0_0 Sr1_4 3.583257 1_455
Mg0_0 Sr2_3 3.630303 1_554
Mg0_0 Sr2_5 3.630303 1_454
Mg0_0 Sr2_2 3.630303 1_555
Mg0_0 Sr2_4 3.630303 1_455
Mg0_1 Sr0_3 3.450624 1_555
Mg0_1 Sr0_5 3.450624 1_455
Mg0_1 Sr1_3 3.583257 1_555
Mg0_1 Sr1_5 3.583257 1_455
Mg0_1 Sr2_2 3.630303 1_555
Mg0_1 Sr2_4 3.630303 1_455
Mg0_1 Sr2_3 3.630303 1_555
Mg0_1 Sr2_5 3.630303 1_455
Mg0_2 Sr0_0 3.450624 1_565
Mg0_2 Sr0_6 3.450624 1_455
Mg0_2 Sr1_0 3.583257 1_565
Mg0_2 Sr1_6 3.583257 1_455
Mg0_2 Sr2_7 3.630303 1_454
Mg0_2 Sr2_1 3.630303 1_564
Mg0_2 Sr2_6 3.630303 1_455
Mg0_2 Sr2_0 3.630303 1_565
Mg0_3 Sr0_1 3.450624 1_565
Mg0_3 Sr0_7 3.450624 1_455
Mg0_3 Sr1_1 3.583257 1_565
Mg0_3 Sr1_7 3.583257 1_455
Mg0_3 Sr2_6 3.630303 1_455
Mg0_3 Sr2_0 3.630303 1_565
Mg0_3 Sr2_1 3.630303 1_565
Mg0_3 Sr2_7 3.630303 1_455
Mg0_4 Sr0_6 3.450624 1_555
Mg0_4 Sr0_0 3.450624 1_555
Mg0_4 Sr1_6 3.583257 1_555
Mg0_4 Sr1_0 3.583257 1_555
Mg0_4 Sr2_1 3.630303 1_554
Mg0_4 Sr2_7 3.630303 1_554
Mg0_4 Sr2_0 3.630303 1_555
Mg0_4 Sr2_6 3.630303 1_555
Mg0_5 Sr0_7 3.450624 1_555
Mg0_5 Sr0_1 3.450624 1_555
Mg0_5 Sr1_7 3.583257 1_555
Mg0_5 Sr1_1 3.583257 1_555
Mg0_5 Sr2_0 3.630303 1_555
Mg0_5 Sr2_6 3.630303 1_555
Mg0_5 Sr2_1 3.630303 1_555
Mg0_5 Sr2_7 3.630303 1_555
Mg0_6 Sr0_4 3.450624 1_565
Mg0_6 Sr0_2 3.450624 1_555
Mg0_6 Sr1_4 3.583257 1_565
Mg0_6 Sr1_2 3.583257 1_555
Mg0_6 Sr2_5 3.630303 1_564
Mg0_6 Sr2_3 3.630303 1_554
Mg0_6 Sr2_2 3.630303 1_555
Mg0_6 Sr2_4 3.630303 1_565
Mg0_7 Sr0_5 3.450624 1_565
Mg0_7 Sr0_3 3.450624 1_555
Mg0_7 Sr1_5 3.583257 1_565
Mg0_7 Sr1_3 3.583257 1_555
Mg0_7 Sr2_2 3.630303 1_555
Mg0_7 Sr2_4 3.630303 1_565
Mg0_7 Sr2_5 3.630303 1_565
Mg0_7 Sr2_3 3.630303 1_555
Mg1_0 Mg2_4 3.214759 1_455
Mg1_0 Mg2_2 3.214759 1_555
Mg1_0 Sr1_5 3.729996 1_455
Mg1_0 Sr1_4 3.729996 1_455
Mg1_0 Sr1_2 3.729996 1_555
Mg1_0 Sr1_3 3.729996 1_555
Mg1_0 Sr0_6 3.896221 1_455
Mg1_0 Sr0_7 3.896221 1_455
Mg1_0 Sr2_4 4.115440 1_455
Mg1_0 Sr2_2 4.115440 1_555
Mg1_1 Mg2_5 3.214759 1_455
Mg1_1 Mg2_3 3.214759 1_555
Mg1_1 Sr1_4 3.729996 1_456
Mg1_1 Sr1_2 3.729996 1_556
Mg1_1 Sr1_5 3.729996 1_455
Mg1_1 Sr1_3 3.729996 1_555
Mg1_1 Sr0_6 3.896221 1_456
Mg1_1 Sr0_7 3.896221 1_455
Mg1_1 Sr2_5 4.115440 1_455
Mg1_1 Sr2_3 4.115440 1_555
Mg1_2 Mg2_6 3.214759 1_455
Mg1_2 Mg2_0 3.214759 1_565
Mg1_2 Sr1_0 3.729996 1_565
Mg1_2 Sr1_1 3.729996 1_565
Mg1_2 Sr1_7 3.729996 1_455
Mg1_2 Sr1_6 3.729996 1_455
Mg1_2 Sr0_4 3.896221 1_465
Mg1_2 Sr0_5 3.896221 1_465
Mg1_2 Sr2_6 4.115440 1_455
Mg1_2 Sr2_0 4.115440 1_565
Mg1_3 Mg2_7 3.214759 1_455
Mg1_3 Mg2_1 3.214759 1_565
Mg1_3 Sr1_0 3.729996 1_566
Mg1_3 Sr1_6 3.729996 1_456
Mg1_3 Sr1_1 3.729996 1_565
Mg1_3 Sr1_7 3.729996 1_455
Mg1_3 Sr0_4 3.896221 1_466
Mg1_3 Sr0_5 3.896221 1_465
Mg1_3 Sr2_7 4.115440 1_455
Mg1_3 Sr2_1 4.115440 1_565
Mg1_4 Mg2_0 3.214759 1_555
Mg1_4 Mg2_6 3.214759 1_555
Mg1_4 Sr1_6 3.729996 1_555
Mg1_4 Sr1_7 3.729996 1_555
Mg1_4 Sr1_0 3.729996 1_555
Mg1_4 Sr1_1 3.729996 1_555
Mg1_4 Sr0_3 3.896221 1_555
Mg1_4 Sr0_2 3.896221 1_555
Mg1_4 Sr2_0 4.115440 1_555
Mg1_4 Sr2_6 4.115440 1_555
Mg1_5 Mg2_1 3.214759 1_555
Mg1_5 Mg2_7 3.214759 1_555
Mg1_5 Sr1_6 3.729996 1_556
Mg1_5 Sr1_0 3.729996 1_556
Mg1_5 Sr1_7 3.729996 1_555
Mg1_5 Sr1_1 3.729996 1_555
Mg1_5 Sr0_2 3.896221 1_556
Mg1_5 Sr0_3 3.896221 1_555
Mg1_5 Sr2_1 4.115440 1_555
Mg1_5 Sr2_7 4.115440 1_555
Mg1_6 Mg2_2 3.214759 1_555
Mg1_6 Mg2_4 3.214759 1_565
Mg1_6 Sr1_3 3.729996 1_555
Mg1_6 Sr1_2 3.729996 1_555
Mg1_6 Sr1_4 3.729996 1_565
Mg1_6 Sr1_5 3.729996 1_565
Mg1_6 Sr0_0 3.896221 1_565
Mg1_6 Sr0_1 3.896221 1_565
Mg1_6 Sr2_2 4.115440 1_555
Mg1_6 Sr2_4 4.115440 1_565
Mg1_7 Mg2_3 3.214759 1_555
Mg1_7 Mg2_5 3.214759 1_565
Mg1_7 Sr1_2 3.729996 1_556
Mg1_7 Sr1_4 3.729996 1_566
Mg1_7 Sr1_3 3.729996 1_555
Mg1_7 Sr1_5 3.729996 1_565
Mg1_7 Sr0_0 3.896221 1_566
Mg1_7 Sr0_1 3.896221 1_565
Mg1_7 Sr2_3 4.115440 1_555
Mg1_7 Sr2_5 4.115440 1_565
Mg2_0 Sr0_2 3.620809 1_555
Mg2_0 Sr0_3 3.620809 1_555
Mg2_0 Sr0_5 3.620809 1_455
Mg2_0 Sr0_4 3.620809 1_455
Mg2_0 Sr2_2 3.704842 1_555
Mg2_0 Sr2_4 3.704842 1_455
Mg2_1 Sr0_2 3.620809 1_556
Mg2_1 Sr0_3 3.620809 1_555
Mg2_1 Sr0_4 3.620809 1_456
Mg2_1 Sr0_5 3.620809 1_455
Mg2_1 Sr2_3 3.704842 1_555
Mg2_1 Sr2_5 3.704842 1_455
Mg2_2 Sr0_0 3.620809 1_565
Mg2_2 Sr0_1 3.620809 1_565
Mg2_2 Sr0_6 3.620809 1_455
Mg2_2 Sr0_7 3.620809 1_455
Mg2_2 Sr2_6 3.704842 1_455
Mg2_2 Sr2_0 3.704842 1_565
Mg2_3 Sr0_0 3.620809 1_566
Mg2_3 Sr0_1 3.620809 1_565
Mg2_3 Sr0_6 3.620809 1_456
Mg2_3 Sr0_7 3.620809 1_455
Mg2_3 Sr2_1 3.704842 1_565
Mg2_3 Sr2_7 3.704842 1_455
Mg2_4 Sr0_6 3.620809 1_555
Mg2_4 Sr0_7 3.620809 1_555
Mg2_4 Sr0_0 3.620809 1_555
Mg2_4 Sr0_1 3.620809 1_555
Mg2_4 Sr2_6 3.704842 1_555
Mg2_4 Sr2_0 3.704842 1_555
Mg2_5 Sr0_6 3.620809 1_556
Mg2_5 Sr0_7 3.620809 1_555
Mg2_5 Sr0_0 3.620809 1_556
Mg2_5 Sr0_1 3.620809 1_555
Mg2_5 Sr2_7 3.704842 1_555
Mg2_5 Sr2_1 3.704842 1_555
Mg2_6 Sr0_4 3.620809 1_565
Mg2_6 Sr0_5 3.620809 1_565
Mg2_6 Sr0_2 3.620809 1_555
Mg2_6 Sr0_3 3.620809 1_555
Mg2_6 Sr2_2 3.704842 1_555
Mg2_6 Sr2_4 3.704842 1_565
Mg2_7 Sr0_4 3.620809 1_566
Mg2_7 Sr0_5 3.620809 1_565
Mg2_7 Sr0_2 3.620809 1_556
Mg2_7 Sr0_3 3.620809 1_555
Mg2_7 Sr2_5 3.704842 1_565
Mg2_7 Sr2_3 3.704842 1_555
