# generated using pymatgen
data_Er2MgTl2(WO4)4
_symmetry_space_group_name_H-M   'P 1'
_cell_length_a   7.51673462
_cell_length_b   7.91325403
_cell_length_c   7.51827476
_cell_angle_alpha   62.57916241
_cell_angle_beta   63.53764676
_cell_angle_gamma   88.85091603
_symmetry_Int_Tables_number   1
_chemical_formula_structural   Er2MgTl2(WO4)4
_chemical_formula_sum   'Er2 Mg1 Tl2 W4 O16'
_cell_volume   345.58504062
_cell_formula_units_Z   1
loop_
 _symmetry_equiv_pos_site_id
 _symmetry_equiv_pos_as_xyz
  1  'x, y, z'
loop_
 _atom_site_type_symbol
 _atom_site_label
 _atom_site_symmetry_multiplicity
 _atom_site_fract_x
 _atom_site_fract_y
 _atom_site_fract_z
 _atom_site_occupancy
  Er  Er0  1  0.24885051  0.78666688  0.73731861  1
  Er  Er1  1  0.75836798  0.20012107  0.25865455  1
  Mg  Mg0  1  0.33401204  0.64678364  0.24934648  1
  Tl  Tl0  1  0.79951231  0.19666435  0.74224788  1
  Tl  Tl1  1  0.10951887  0.91000646  0.26444763  1
  W  W0  1  0.29863076  0.30660722  0.70241413  1
  W  W1  1  0.72118531  0.67206789  0.29988960  1
  W  W2  1  0.69651064  0.69318678  0.79956710  1
  W  W3  1  0.32566436  0.29055582  0.19557570  1
  O  O0  1  0.39298165  0.26823282  0.91373834  1
  O  O1  1  0.63014452  0.74623888  0.06508119  1
  O  O2  1  0.75853822  0.60940115  0.55842988  1
  O  O3  1  0.23148625  0.36457236  0.44856093  1
  O  O4  1  0.62769845  0.91732708  0.62664267  1
  O  O5  1  0.39825312  0.06877848  0.36488596  1
  O  O6  1  0.04745739  0.32806014  0.88458172  1
  O  O7  1  0.96592362  0.64852281  0.11236140  1
  O  O8  1  0.39694896  0.62154404  0.51655884  1
  O  O9  1  0.60344761  0.37434348  0.44914360  1
  O  O10  1  0.35800663  0.58697291  0.99269006  1
  O  O11  1  0.64487620  0.41106991  0.02945484  1
  O  O12  1  0.24877570  0.04715601  0.78769406  1
  O  O13  1  0.78137350  0.93773175  0.20689942  1
  O  O14  1  0.98485845  0.76766898  0.68910998  1
  O  O15  1  0.03697697  0.19971907  0.30113441  1
loop_
_geom_bond_atom_site_label_1
_geom_bond_atom_site_label_2
_geom_bond_distance
_geom_bond_site_symmetry_2
Er0 O14 2.189699 1_455
Er0 O12 2.260816 1_565
Er0 O10 2.326820 1_555
Er0 O7 2.361854 1_456
Er0 O5 2.371900 1_565
Er0 O8 2.448224 1_555
Er0 O4 2.661712 1_555
Er1 O15 2.254483 1_655
Er1 O11 2.255500 1_555
Er1 O13 2.272075 1_545
Er1 O9 2.361287 1_555
Er1 O4 2.364485 1_545
Er1 O6 2.382363 1_654
Er1 O5 2.543009 1_555
Mg0 O3 1.945257 1_555
Mg0 O1 1.952235 1_555
Mg0 O10 2.123094 1_554
Mg0 O8 2.184798 1_555
Mg0 Tl1 2.665552 1_555
O0 W0 1.915898 1_555
O0 W3 2.040275 1_556
O0 Tl1 2.806956 1_546
O1 W1 2.008854 1_555
O1 W2 2.070247 1_554
O2 W1 1.922502 1_555
O2 W2 2.070047 1_555
O2 Tl1 2.777825 1_655
O3 W0 2.037282 1_555
O3 W3 2.066713 1_555
O4 W2 1.882114 1_555
O5 W3 1.876436 1_555
O6 W0 1.834648 1_555
O7 W1 1.823023 1_555
O8 W1 2.157385 1_555
O8 W0 2.157715 1_555
O9 W1 2.087245 1_555
O9 W0 2.093746 1_555
O10 W3 2.069958 1_556
O10 W2 2.226664 1_555
O11 W2 2.001203 1_554
O11 W3 2.133209 1_555
O12 W0 1.836041 1_555
O12 Tl1 2.870544 1_546
O13 W1 1.874975 1_555
O13 Tl1 2.676066 1_655
O14 W2 1.931600 1_555
O14 Tl1 2.530628 1_655
O15 W3 1.964102 1_555
O15 Tl1 2.455100 1_545
