# generated using pymatgen
data_Zr7As4
_symmetry_space_group_name_H-M   'P 1'
_cell_length_a   3.70545374
_cell_length_b   8.33149070
_cell_length_c   15.13596810
_cell_angle_alpha   104.52054331
_cell_angle_beta   90.00000000
_cell_angle_gamma   102.84864858
_symmetry_Int_Tables_number   1
_chemical_formula_structural   Zr7As4
_chemical_formula_sum   'Zr14 As8'
_cell_volume   440.25436316
_cell_formula_units_Z   2
loop_
 _symmetry_equiv_pos_site_id
 _symmetry_equiv_pos_as_xyz
  1  'x, y, z'
loop_
 _atom_site_type_symbol
 _atom_site_label
 _atom_site_symmetry_multiplicity
 _atom_site_fract_x
 _atom_site_fract_y
 _atom_site_fract_z
 _atom_site_occupancy
  Zr  Zr0  1  -0.00000000  -0.00000000  -0.00000000  1
  Zr  Zr1  1  0.50000000  -0.00000000  0.50000000  1
  Zr  Zr2  1  0.43000445  0.86000690  0.83432228  1
  Zr  Zr3  1  0.56999555  0.13999310  0.16567772  1
  Zr  Zr4  1  0.19504865  0.39009630  0.30806979  1
  Zr  Zr5  1  0.80495135  0.60990370  0.69193021  1
  Zr  Zr6  1  0.20558656  0.41117211  0.79595875  1
  Zr  Zr7  1  0.79441344  0.58882789  0.20404125  1
  Zr  Zr8  1  0.33846981  0.67693962  0.03262274  1
  Zr  Zr9  1  0.66153019  0.32306138  0.96737726  1
  Zr  Zr10  1  0.00279217  0.00558234  0.66386084  1
  Zr  Zr11  1  0.99720783  0.99441766  0.33613916  1
  Zr  Zr12  1  0.17929857  0.35859713  0.54379585  1
  Zr  Zr13  1  0.82070143  0.64140287  0.45620415  1
  As  As0  1  0.17826920  0.35653941  0.10858959  1
  As  As1  1  0.82173080  0.64346059  0.89141041  1
  As  As2  1  0.37236285  0.74472570  0.59954894  1
  As  As3  1  0.62763715  0.25527430  0.40045106  1
  As  As4  1  0.36995557  0.73991114  0.33992507  1
  As  As5  1  0.63004443  0.26008886  0.66007493  1
  As  As6  1  0.06202518  0.12405136  0.85032233  1
  As  As7  1  0.93797482  0.87594864  0.14967767  1
loop_
_geom_bond_atom_site_label_1
_geom_bond_atom_site_label_2
_geom_bond_distance
_geom_bond_site_symmetry_2
As0 Zr7 2.770925 1_555
As0 Zr7 2.770925 1_455
As0 Zr9 2.788551 1_454
As0 Zr9 2.788551 1_554
As0 Zr3 2.838129 1_555
As0 Zr3 2.838131 1_455
As0 Zr0 2.939510 1_555
As0 Zr4 2.960968 1_555
As0 Zr8 3.103972 1_555
As1 Zr6 2.770925 1_655
As1 Zr6 2.770925 1_555
As1 Zr8 2.788549 1_656
As1 Zr8 2.788551 1_556
As1 Zr2 2.838129 1_555
As1 Zr2 2.838131 1_655
As1 Zr0 2.939510 1_666
As1 Zr5 2.960968 1_555
As1 Zr9 3.103965 1_555
As2 Zr5 2.715644 1_555
As2 Zr5 2.715646 1_455
As2 Zr10 2.794466 1_565
As2 Zr10 2.794471 1_665
As2 Zr13 2.812089 1_555
As2 Zr13 2.812089 1_455
As2 Zr1 2.859543 1_565
As2 Zr12 3.031216 1_555
As2 Zr2 3.434081 1_555
As3 Zr4 2.715644 1_555
As3 Zr4 2.715646 1_655
As3 Zr11 2.794466 1_545
As3 Zr11 2.794471 1_445
As3 Zr12 2.812089 1_555
As3 Zr12 2.812089 1_655
As3 Zr1 2.859543 1_555
As3 Zr13 3.031216 1_555
As3 Zr3 3.434081 1_555
As4 Zr4 2.757164 1_555
As4 Zr1 2.775071 1_565
As4 Zr11 2.787585 1_555
As4 Zr11 2.787590 1_455
As4 Zr7 2.805462 1_555
As4 Zr7 2.805464 1_455
As4 Zr13 2.809767 1_555
As4 Zr13 2.809767 1_455
As5 Zr5 2.757164 1_555
As5 Zr1 2.775071 1_555
As5 Zr10 2.787585 1_555
As5 Zr10 2.787590 1_655
As5 Zr6 2.805462 1_555
As5 Zr6 2.805464 1_655
As5 Zr12 2.809767 1_555
As5 Zr12 2.809767 1_655
As6 Zr6 2.665238 1_555
As6 Zr0 2.705934 1_556
As6 Zr10 2.737590 1_555
As6 Zr9 2.777004 1_455
As6 Zr9 2.777004 1_555
As6 Zr2 2.797185 1_445
As6 Zr2 2.797192 1_545
As7 Zr7 2.665238 1_555
As7 Zr0 2.705934 1_665
As7 Zr11 2.737590 1_555
As7 Zr8 2.777000 1_655
As7 Zr8 2.777002 1_555
As7 Zr3 2.797185 1_665
As7 Zr3 2.797192 1_565
