# generated using pymatgen
data_MoW3(SeS3)2
_symmetry_space_group_name_H-M   'P 1'
_cell_length_a   3.22331776
_cell_length_b   3.22331776
_cell_length_c   36.38208100
_cell_angle_alpha   90.00000000
_cell_angle_beta   90.00000000
_cell_angle_gamma   119.99999516
_symmetry_Int_Tables_number   1
_chemical_formula_structural   MoW3(SeS3)2
_chemical_formula_sum   'Mo1 W3 Se2 S6'
_cell_volume   327.35911097
_cell_formula_units_Z   1
loop_
 _symmetry_equiv_pos_site_id
 _symmetry_equiv_pos_as_xyz
  1  'x, y, z'
loop_
 _atom_site_type_symbol
 _atom_site_label
 _atom_site_symmetry_multiplicity
 _atom_site_fract_x
 _atom_site_fract_y
 _atom_site_fract_z
 _atom_site_occupancy
  Mo  Mo0  1  0.00000000  0.00000000  0.46965900  1
  W  W0  1  0.00000000  0.00000000  0.09391000  1
  W  W1  1  0.33333300  0.66666700  0.28182300  1
  W  W2  1  0.33333300  0.66666700  0.65755600  1
  Se  Se0  1  0.00000000  0.00000000  0.70485700  1
  Se  Se1  1  0.00000000  0.00000000  0.61025400  1
  S  S0  1  0.00000000  0.00000000  0.32468500  1
  S  S1  1  0.33333300  0.66666700  0.05100900  1
  S  S2  1  0.33333300  0.66666700  0.42694400  1
  S  S3  1  0.33333300  0.66666700  0.13681600  1
  S  S4  1  0.33333300  0.66666700  0.51233800  1
  S  S5  1  0.00000000  0.00000000  0.23889700  1
loop_
_geom_bond_atom_site_label_1
_geom_bond_atom_site_label_2
_geom_bond_distance
_geom_bond_site_symmetry_2
Mo0 S4 2.423693 1_545
Mo0 S4 2.423695 1_555
Mo0 S4 2.423695 1_445
Mo0 S2 2.424532 1_545
Mo0 S2 2.424534 1_555
Mo0 S2 2.424534 1_445
Se0 W2 2.534715 1_545
Se0 W2 2.534717 1_555
Se0 W2 2.534717 1_445
Se1 W2 2.534740 1_545
Se1 W2 2.534742 1_445
Se1 W2 2.534742 1_555
S0 W1 2.427964 1_545
S0 W1 2.427966 1_445
S0 W1 2.427966 1_555
S1 W0 2.428875 1_565
S1 W0 2.428878 1_665
S1 W0 2.428878 1_555
S3 W0 2.428992 1_565
S3 W0 2.428994 1_665
S3 W0 2.428994 1_555
S5 W1 2.429460 1_545
S5 W1 2.429462 1_445
S5 W1 2.429462 1_555
