# generated using pymatgen
data_Hg2PO4
_symmetry_space_group_name_H-M   'P 1'
_cell_length_a   7.95793666
_cell_length_b   7.95793666
_cell_length_c   8.18521434
_cell_angle_alpha   77.07723883
_cell_angle_beta   77.07723883
_cell_angle_gamma   105.62242332
_symmetry_Int_Tables_number   1
_chemical_formula_structural   Hg2PO4
_chemical_formula_sum   'Hg8 P4 O16'
_cell_volume   463.78396463
_cell_formula_units_Z   4
loop_
 _symmetry_equiv_pos_site_id
 _symmetry_equiv_pos_as_xyz
  1  'x, y, z'
loop_
 _atom_site_type_symbol
 _atom_site_label
 _atom_site_symmetry_multiplicity
 _atom_site_fract_x
 _atom_site_fract_y
 _atom_site_fract_z
 _atom_site_occupancy
  Hg  Hg0  1  0.76347400  0.55862700  0.05028500  1
  Hg  Hg1  1  0.44137300  0.23652600  0.44971500  1
  Hg  Hg2  1  0.23652600  0.44137300  0.94971500  1
  Hg  Hg3  1  0.55862700  0.76347400  0.55028500  1
  Hg  Hg4  1  0.92539700  0.56625200  0.29802600  1
  Hg  Hg5  1  0.43374800  0.07460300  0.20197400  1
  Hg  Hg6  1  0.07460300  0.43374800  0.70197400  1
  Hg  Hg7  1  0.56625200  0.92539700  0.79802600  1
  P  P0  1  0.05020700  0.94979300  0.75000000  1
  P  P1  1  0.94979300  0.05020700  0.25000000  1
  P  P2  1  0.36296100  0.63703900  0.25000000  1
  P  P3  1  0.63703900  0.36296100  0.75000000  1
  O  O0  1  0.40741200  0.82411300  0.11110500  1
  O  O1  1  0.17588700  0.59258800  0.38889500  1
  O  O2  1  0.59258800  0.17588700  0.88889500  1
  O  O3  1  0.82411300  0.40741200  0.61110500  1
  O  O4  1  0.36491700  0.48890900  0.15453300  1
  O  O5  1  0.51109100  0.63508300  0.34546700  1
  O  O6  1  0.63508300  0.51109100  0.84546700  1
  O  O7  1  0.48890900  0.36491700  0.65453300  1
  O  O8  1  0.84918700  0.89282300  0.87301200  1
  O  O9  1  0.10717700  0.15081300  0.62698800  1
  O  O10  1  0.15081300  0.10717700  0.12698800  1
  O  O11  1  0.89282300  0.84918700  0.37301200  1
  O  O12  1  0.18018300  0.93179800  0.86192300  1
  O  O13  1  0.06820200  0.81981700  0.63807700  1
  O  O14  1  0.81981700  0.06820200  0.13807700  1
  O  O15  1  0.93179800  0.18018300  0.36192300  1
loop_
_geom_bond_atom_site_label_1
_geom_bond_atom_site_label_2
_geom_bond_distance
_geom_bond_site_symmetry_2
Hg0 O6 2.199827 1_554
Hg0 O8 2.549109 1_554
Hg1 O7 2.199827 1_555
Hg1 O9 2.549109 1_555
Hg2 O4 2.199827 1_556
Hg2 O10 2.549109 1_556
Hg3 O5 2.199827 1_555
Hg3 O11 2.549109 1_555
Hg4 O1 2.253569 1_655
Hg4 O3 2.427560 1_555
Hg4 O11 2.524843 1_555
Hg5 O0 2.253569 1_545
Hg5 O2 2.427560 1_554
Hg5 O10 2.524843 1_555
Hg6 O3 2.253569 1_455
Hg6 O1 2.427560 1_555
Hg6 O9 2.524843 1_555
Hg7 O2 2.253569 1_565
Hg7 O0 2.427560 1_556
Hg7 O8 2.524843 1_555
O0 P2 1.553516 1_555
O1 P2 1.553516 1_555
O2 P3 1.553516 1_555
O3 P3 1.553516 1_555
O4 P2 1.554636 1_555
O5 P2 1.554636 1_555
O6 P3 1.554636 1_555
O7 P3 1.554636 1_555
O8 P0 1.569453 1_655
O9 P0 1.569453 1_545
O10 P1 1.569453 1_455
O11 P1 1.569453 1_565
O12 P0 1.540960 1_555
O13 P0 1.540960 1_555
O14 P1 1.540960 1_555
O15 P1 1.540960 1_555
