# generated using pymatgen
data_TbGa3Os
_symmetry_space_group_name_H-M   'P 1'
_cell_length_a   6.39535210
_cell_length_b   6.39535210
_cell_length_c   6.39535210
_cell_angle_alpha   90.00000000
_cell_angle_beta   90.00000000
_cell_angle_gamma   90.00000000
_symmetry_Int_Tables_number   1
_chemical_formula_structural   TbGa3Os
_chemical_formula_sum   'Tb3 Ga9 Os3'
_cell_volume   261.57328072
_cell_formula_units_Z   3
loop_
 _symmetry_equiv_pos_site_id
 _symmetry_equiv_pos_as_xyz
  1  'x, y, z'
loop_
 _atom_site_type_symbol
 _atom_site_label
 _atom_site_symmetry_multiplicity
 _atom_site_fract_x
 _atom_site_fract_y
 _atom_site_fract_z
 _atom_site_occupancy
  Tb  Tb0  1  0.50000000  0.00000000  0.00000000  1
  Tb  Tb1  1  0.00000000  0.00000000  0.50000000  1
  Tb  Tb2  1  0.00000000  0.50000000  0.00000000  1
  Ga  Ga0  1  0.00000000  0.00000000  0.00000000  1
  Ga  Ga1  1  0.70836963  0.70836963  0.70836963  1
  Ga  Ga2  1  0.70836963  0.29163037  0.70836963  1
  Ga  Ga3  1  0.29163037  0.70836963  0.70836963  1
  Ga  Ga4  1  0.70836963  0.70836963  0.29163037  1
  Ga  Ga5  1  0.70836963  0.29163037  0.29163037  1
  Ga  Ga6  1  0.29163037  0.29163037  0.29163037  1
  Ga  Ga7  1  0.29163037  0.70836963  0.29163037  1
  Ga  Ga8  1  0.29163037  0.29163037  0.70836963  1
  Os  Os0  1  0.00000000  0.50000000  0.50000000  1
  Os  Os1  1  0.50000000  0.50000000  0.00000000  1
  Os  Os2  1  0.50000000  0.00000000  0.50000000  1
loop_
_geom_bond_atom_site_label_1
_geom_bond_atom_site_label_2
_geom_bond_distance
_geom_bond_site_symmetry_2
Ga0 Tb2 3.197676 1_555
Ga0 Tb0 3.197676 1_555
Ga0 Tb0 3.197676 1_455
Ga0 Tb1 3.197676 1_554
Ga0 Tb2 3.197676 1_545
Ga0 Tb1 3.197676 1_555
Ga1 Os2 2.651443 1_565
Ga1 Os1 2.651443 1_556
Ga1 Os0 2.651443 1_655
Ga1 Ga4 2.665194 1_555
Ga1 Ga3 2.665194 1_555
Ga1 Ga2 2.665194 1_555
Ga1 Tb0 2.955140 1_566
Ga1 Tb2 2.955140 1_656
Ga1 Tb1 2.955140 1_665
Ga2 Os1 2.651443 1_556
Ga2 Os2 2.651443 1_555
Ga2 Os0 2.651443 1_655
Ga2 Ga8 2.665194 1_555
Ga2 Ga5 2.665194 1_555
Ga2 Tb0 2.955140 1_556
Ga2 Tb2 2.955140 1_656
Ga2 Tb1 2.955140 1_655
Ga3 Os2 2.651443 1_565
Ga3 Os1 2.651443 1_556
Ga3 Os0 2.651443 1_555
Ga3 Ga8 2.665194 1_555
Ga3 Ga7 2.665194 1_555
Ga3 Tb0 2.955140 1_566
Ga3 Tb1 2.955140 1_565
Ga3 Tb2 2.955140 1_556
Ga4 Os2 2.651443 1_565
Ga4 Os1 2.651443 1_555
Ga4 Os0 2.651443 1_655
Ga4 Ga5 2.665194 1_555
Ga4 Ga7 2.665194 1_555
Ga4 Tb0 2.955140 1_565
Ga4 Tb1 2.955140 1_665
Ga4 Tb2 2.955140 1_655
Ga5 Os1 2.651443 1_555
Ga5 Os2 2.651443 1_555
Ga5 Os0 2.651443 1_655
Ga5 Ga6 2.665194 1_555
Ga5 Tb0 2.955140 1_555
Ga5 Tb1 2.955140 1_655
Ga5 Tb2 2.955140 1_655
Ga6 Os1 2.651443 1_555
Ga6 Os2 2.651443 1_555
Ga6 Os0 2.651443 1_555
Ga6 Ga8 2.665194 1_555
Ga6 Ga7 2.665194 1_555
Ga6 Tb0 2.955140 1_555
Ga6 Tb1 2.955140 1_555
Ga6 Tb2 2.955140 1_555
Ga7 Os2 2.651443 1_565
Ga7 Os1 2.651443 1_555
Ga7 Os0 2.651443 1_555
Ga7 Tb0 2.955140 1_565
Ga7 Tb1 2.955140 1_565
Ga7 Tb2 2.955140 1_555
Ga8 Os1 2.651443 1_556
Ga8 Os2 2.651443 1_555
Ga8 Os0 2.651443 1_555
Ga8 Tb0 2.955140 1_556
Ga8 Tb1 2.955140 1_555
Ga8 Tb2 2.955140 1_556
Os0 Tb1 3.197676 1_565
Os0 Tb2 3.197676 1_555
Os0 Tb2 3.197676 1_556
Os0 Tb1 3.197676 1_555
Os1 Tb2 3.197676 1_555
Os1 Tb2 3.197676 1_655
Os1 Tb0 3.197676 1_555
Os1 Tb0 3.197676 1_565
Os2 Tb1 3.197676 1_655
Os2 Tb0 3.197676 1_555
Os2 Tb0 3.197676 1_556
Os2 Tb1 3.197676 1_555
