# generated using pymatgen
data_MgTe3(ClO)6
_symmetry_space_group_name_H-M   'P 1'
_cell_length_a   9.95968972
_cell_length_b   7.23408078
_cell_length_c   11.38099201
_cell_angle_alpha   84.66520782
_cell_angle_beta   75.94666969
_cell_angle_gamma   80.05591096
_symmetry_Int_Tables_number   1
_chemical_formula_structural   MgTe3(ClO)6
_chemical_formula_sum   'Mg1 Te3 Cl6 O6'
_cell_volume   782.38016286
_cell_formula_units_Z   1
loop_
 _symmetry_equiv_pos_site_id
 _symmetry_equiv_pos_as_xyz
  1  'x, y, z'
loop_
 _atom_site_type_symbol
 _atom_site_label
 _atom_site_symmetry_multiplicity
 _atom_site_fract_x
 _atom_site_fract_y
 _atom_site_fract_z
 _atom_site_occupancy
  Mg  Mg0  1  0.00000000  0.00000000  0.00000000  1
  Te  Te0  1  0.00000000  0.00000000  0.50000000  1
  Te  Te1  1  0.50000000  0.50000000  0.00000000  1
  Te  Te2  1  0.00000000  0.50000000  0.00000000  1
  Cl  Cl0  1  0.75274000  0.98900200  0.59691200  1
  Cl  Cl1  1  0.24726000  0.01099800  0.40308800  1
  Cl  Cl2  1  0.50011900  0.73640300  0.82931400  1
  Cl  Cl3  1  0.49988100  0.26359700  0.17068600  1
  Cl  Cl4  1  0.87121900  0.29802400  0.80181700  1
  Cl  Cl5  1  0.12878100  0.70197600  0.19818300  1
  O  O0  1  0.94452500  0.26155200  0.92467300  1
  O  O1  1  0.05547500  0.73844800  0.07532700  1
  O  O2  1  0.84726400  0.71060600  0.94016000  1
  O  O3  1  0.15273600  0.28939400  0.05984000  1
  O  O4  1  0.85528900  0.89522400  0.94713900  1
  O  O5  1  0.14471100  0.10477600  0.05286100  1
loop_
_geom_bond_atom_site_label_1
_geom_bond_atom_site_label_2
_geom_bond_distance
_geom_bond_site_symmetry_2
Mg0 O5 1.974058 1_555
Mg0 O4 1.974058 1_444
Mg0 O1 2.046358 1_545
Mg0 O0 2.046358 1_454
Cl0 Te0 2.453496 1_665
Cl1 Te0 2.453496 1_555
Cl2 Te1 2.465781 1_556
Cl3 Te1 2.465781 1_555
Cl4 O0 1.708315 1_555
Cl5 O1 1.708315 1_555
O0 Te2 2.202242 1_656
O1 Te2 2.202242 1_555
O2 O4 1.362367 1_555
O2 Te2 2.146811 1_656
O3 O5 1.362367 1_555
O3 Te2 2.146811 1_555
