# generated using pymatgen
data_Y4Si2Sb2W13O28
_symmetry_space_group_name_H-M   'P 1'
_cell_length_a   5.92012908
_cell_length_b   9.82200235
_cell_length_c   12.97934229
_cell_angle_alpha   88.52753060
_cell_angle_beta   80.36364991
_cell_angle_gamma   69.61107833
_symmetry_Int_Tables_number   1
_chemical_formula_structural   Y4Si2Sb2W13O28
_chemical_formula_sum   'Y4 Si2 Sb2 W13 O28'
_cell_volume   697.01657146
_cell_formula_units_Z   1
loop_
 _symmetry_equiv_pos_site_id
 _symmetry_equiv_pos_as_xyz
  1  'x, y, z'
loop_
 _atom_site_type_symbol
 _atom_site_label
 _atom_site_symmetry_multiplicity
 _atom_site_fract_x
 _atom_site_fract_y
 _atom_site_fract_z
 _atom_site_occupancy
  Y  Y0  1  0.01999400  0.67195800  0.42918500  1
  Y  Y1  1  0.54768800  0.32174500  0.42527800  1
  Y  Y2  1  0.98000600  0.32804200  0.57081500  1
  Y  Y3  1  0.45231200  0.67825500  0.57472200  1
  Si  Si0  1  0.15947900  0.28936000  0.00432200  1
  Si  Si1  1  0.84052100  0.71064000  0.99567800  1
  Sb  Sb0  1  0.88741700  0.95037800  0.27073600  1
  Sb  Sb1  1  0.11258300  0.04962200  0.72926400  1
  W  W0  1  0.87838700  0.64302200  0.72655900  1
  W  W1  1  0.58426700  0.34292900  0.14671400  1
  W  W2  1  0.42945500  0.37283900  0.73634400  1
  W  W3  1  0.12161300  0.35697800  0.27344100  1
  W  W4  1  0.41573300  0.65707100  0.85328600  1
  W  W5  1  0.27590500  0.99636700  0.42053600  1
  W  W6  1  0.10879800  0.68413100  0.16370700  1
  W  W7  1  0.00000000  0.00000000  0.00000000  1
  W  W8  1  0.47428300  0.99218400  0.15474800  1
  W  W9  1  0.89120200  0.31586900  0.83629300  1
  W  W10  1  0.57054500  0.62716100  0.26365600  1
  W  W11  1  0.52571700  0.00781600  0.84525200  1
  W  W12  1  0.72409500  0.00363300  0.57946400  1
  O  O0  1  0.74609500  0.38322500  0.26888100  1
  O  O1  1  0.14617700  0.40262700  0.42856800  1
  O  O2  1  0.85989600  0.33526600  0.00487500  1
  O  O3  1  0.27355000  0.10789400  0.00812400  1
  O  O4  1  0.85382300  0.59737300  0.57143200  1
  O  O5  1  0.25390500  0.61677500  0.73111900  1
  O  O6  1  0.91085200  0.14151700  0.48347100  1
  O  O7  1  0.08914800  0.85848300  0.51652900  1
  O  O8  1  0.72645000  0.89210600  0.99187600  1
  O  O9  1  0.18107200  0.90628500  0.13319900  1
  O  O10  1  0.22091300  0.36118200  0.10170100  1
  O  O11  1  0.94561100  0.58979500  0.28203900  1
  O  O12  1  0.59394600  0.86144500  0.49005000  1
  O  O13  1  0.65947400  0.12781400  0.09642200  1
  O  O14  1  0.74772300  0.67146500  0.11327800  1
  O  O15  1  0.14010400  0.66473400  0.99512500  1
  O  O16  1  0.34052600  0.87218600  0.90357800  1
  O  O17  1  0.81892800  0.09371500  0.86680100  1
  O  O18  1  0.40605400  0.13855500  0.50995000  1
  O  O19  1  0.27161900  0.12680300  0.28802000  1
  O  O20  1  0.72838100  0.87319700  0.71198000  1
  O  O21  1  0.25227700  0.32853500  0.88672200  1
  O  O22  1  0.54747400  0.14207400  0.71092500  1
  O  O23  1  0.57006200  0.41079300  0.57847700  1
  O  O24  1  0.77908700  0.63881800  0.89829900  1
  O  O25  1  0.45252600  0.85792600  0.28907500  1
  O  O26  1  0.05438900  0.41020500  0.71796100  1
  O  O27  1  0.42993800  0.58920700  0.42152300  1
loop_
_geom_bond_atom_site_label_1
_geom_bond_atom_site_label_2
_geom_bond_distance
_geom_bond_site_symmetry_2
O0 W1 2.096143 1_555
O0 W3 2.157808 1_655
O0 W10 2.259525 1_555
O0 Y1 2.344761 1_555
O1 W3 2.113291 1_555
O1 Y2 2.176633 1_455
O1 Y1 2.221496 1_555
O1 Y0 2.485604 1_555
O2 Si0 1.669612 1_655
O2 W9 2.172420 1_554
O2 W1 2.230096 1_555
O3 Si0 1.674289 1_555
O3 W7 2.239531 1_555
O3 W11 2.385686 1_554
O3 W8 2.455709 1_545
O4 W0 2.113291 1_555
O4 Y0 2.176633 1_655
O4 Y3 2.221496 1_555
O4 Y2 2.485604 1_555
O5 W4 2.096143 1_555
O5 W0 2.157808 1_455
O5 W2 2.259525 1_555
O5 Y3 2.344761 1_555
O6 W5 2.166188 1_645
O6 W12 2.259266 1_555
O6 Y2 2.365154 1_555
O6 Y1 2.479833 1_555
O7 W12 2.166188 1_465
O7 W5 2.259266 1_555
O7 Y0 2.365154 1_555
O7 Y3 2.479833 1_555
O8 Si1 1.674289 1_555
O8 W7 2.239531 1_666
O8 W8 2.385686 1_556
O8 W11 2.455709 1_565
O9 W7 2.199181 1_565
O9 Sb0 2.207423 1_455
O9 W8 2.235699 1_555
O9 W6 2.377053 1_555
O10 Si0 1.614276 1_555
O10 W3 2.211229 1_555
O10 W1 2.268781 1_555
O11 W6 2.050509 1_655
O11 W3 2.154354 1_655
O11 W10 2.174172 1_555
O11 Y0 2.258566 1_655
O12 W5 2.209983 1_555
O12 W12 2.241285 1_565
O12 Y3 2.406116 1_555
O12 Y0 2.566575 1_655
O13 W8 2.058568 1_545
O13 W1 2.099192 1_555
O13 W7 2.163097 1_655
O14 Si1 1.617419 1_554
O14 W10 2.165207 1_555
O14 W6 2.381422 1_655
O15 Si1 1.669612 1_455
O15 W6 2.172420 1_556
O15 W4 2.230096 1_555
O16 W11 2.058568 1_565
O16 W4 2.099192 1_555
O16 W7 2.163097 1_566
O17 W7 2.199181 1_656
O17 Sb1 2.207423 1_655
O17 W11 2.235699 1_555
O17 W9 2.377053 1_555
O18 W12 2.209983 1_555
O18 W5 2.241285 1_545
O18 Y1 2.406116 1_555
O18 Y2 2.566575 1_455
O19 W5 2.116361 1_545
O19 W8 2.120684 1_545
O19 W3 2.137971 1_555
O20 W12 2.116361 1_565
O20 W11 2.120684 1_565
O20 W0 2.137971 1_555
O21 Si0 1.617419 1_556
O21 W2 2.165207 1_555
O21 W9 2.381422 1_455
O22 W12 2.094021 1_555
O22 W2 2.142939 1_555
O22 W11 2.172610 1_555
O23 W2 2.153197 1_555
O23 Y1 2.234866 1_555
O23 Y2 2.260390 1_555
O23 Y3 2.473521 1_555
O24 Si1 1.614276 1_555
O24 W0 2.211229 1_555
O24 W4 2.268781 1_555
O25 W5 2.094021 1_555
O25 W10 2.142939 1_555
O25 W8 2.172610 1_555
O26 W9 2.050509 1_455
O26 W0 2.154354 1_455
O26 W2 2.174172 1_555
O26 Y2 2.258566 1_455
O27 W10 2.153197 1_555
O27 Y3 2.234866 1_555
O27 Y0 2.260390 1_555
O27 Y1 2.473521 1_555
