# generated using pymatgen
data_K(IO3)3
_symmetry_space_group_name_H-M   'P 1'
_cell_length_a   8.17807500
_cell_length_b   8.23626209
_cell_length_c   8.23991421
_cell_angle_alpha   65.91580772
_cell_angle_beta   60.40997675
_cell_angle_gamma   70.84344709
_symmetry_Int_Tables_number   1
_chemical_formula_structural   K(IO3)3
_chemical_formula_sum   'K2 I6 O18'
_cell_volume   434.97245929
_cell_formula_units_Z   2
loop_
 _symmetry_equiv_pos_site_id
 _symmetry_equiv_pos_as_xyz
  1  'x, y, z'
loop_
 _atom_site_type_symbol
 _atom_site_label
 _atom_site_symmetry_multiplicity
 _atom_site_fract_x
 _atom_site_fract_y
 _atom_site_fract_z
 _atom_site_occupancy
  K  K0  1  0.26835000  0.28464800  0.24383700  1
  K  K1  1  0.73165000  0.71535200  0.75616300  1
  I  I0  1  0.19584500  0.80760800  0.24902800  1
  I  I1  1  0.80415500  0.19239200  0.75097200  1
  I  I2  1  0.76602300  0.26357300  0.22543300  1
  I  I3  1  0.23397700  0.73642700  0.77456700  1
  I  I4  1  0.70254800  0.79112900  0.22198700  1
  I  I5  1  0.29745200  0.20887100  0.77801300  1
  O  O0  1  0.21017100  0.56816000  0.40446200  1
  O  O1  1  0.78982900  0.43184000  0.59553800  1
  O  O2  1  0.16626200  0.92030000  0.41784200  1
  O  O3  1  0.83373800  0.07970000  0.58215800  1
  O  O4  1  0.87757000  0.45218400  0.18023900  1
  O  O5  1  0.12243000  0.54781600  0.81976100  1
  O  O6  1  0.52195400  0.33353500  0.39446600  1
  O  O7  1  0.47804600  0.66646500  0.60553400  1
  O  O8  1  0.53387400  0.77321900  0.14368400  1
  O  O9  1  0.46612600  0.22678100  0.85631600  1
  O  O10  1  0.93567200  0.81067600  0.34215900  1
  O  O11  1  0.06432800  0.18932400  0.65784100  1
  O  O12  1  0.60167600  0.01444200  0.25472000  1
  O  O13  1  0.39832400  0.98555800  0.74528000  1
  O  O14  1  0.73511400  0.35447100  0.99614200  1
  O  O15  1  0.26488600  0.64552900  0.00385800  1
  O  O16  1  0.88701700  0.86530700  0.96651100  1
  O  O17  1  0.11298300  0.13469300  0.03348900  1
loop_
_geom_bond_atom_site_label_1
_geom_bond_atom_site_label_2
_geom_bond_distance
_geom_bond_site_symmetry_2
K0 O15 2.819343 1_555
K0 O11 2.844347 1_555
K0 O12 2.913544 1_555
K0 O0 2.932923 1_555
K0 O9 2.945335 1_554
K0 O2 2.951012 1_545
K0 O6 3.082568 1_555
K0 O4 3.249859 1_455
K1 O14 2.819343 1_555
K1 O10 2.844347 1_555
K1 O13 2.913544 1_555
K1 O1 2.932923 1_555
K1 O8 2.945335 1_556
K1 O3 2.951012 1_565
K1 O7 3.082568 1_555
K1 O5 3.249859 1_655
I0 O2 1.851738 1_555
I0 O0 1.865081 1_555
I0 O10 1.866742 1_455
I0 O8 2.406810 1_555
I0 O15 2.600348 1_555
I0 O17 2.637500 1_565
I1 O3 1.851738 1_555
I1 O1 1.865081 1_555
I1 O11 1.866742 1_655
I1 O9 2.406810 1_555
I1 O14 2.600348 1_555
I1 O16 2.637500 1_545
I2 O14 1.840381 1_554
I2 O6 1.846801 1_555
I2 O4 1.872560 1_555
I3 O15 1.840381 1_556
I3 O7 1.846801 1_555
I3 O5 1.872560 1_555
I4 O12 1.823600 1_565
I4 O8 1.852315 1_555
I4 O16 1.870695 1_554
I4 O10 2.614792 1_555
I5 O13 1.823600 1_545
I5 O9 1.852315 1_555
I5 O17 1.870695 1_556
I5 O11 2.614792 1_555
