# generated using pymatgen
data_Rh2W2C
_symmetry_space_group_name_H-M   'P 1'
_cell_length_a   19.40451552
_cell_length_b   19.40451552
_cell_length_c   19.40451585
_cell_angle_alpha   16.90632116
_cell_angle_beta   16.90632116
_cell_angle_gamma   16.90632076
_symmetry_Int_Tables_number   1
_chemical_formula_structural   Rh2W2C
_chemical_formula_sum   'Rh16 W16 C8'
_cell_volume   539.00183577
_cell_formula_units_Z   8
loop_
 _symmetry_equiv_pos_site_id
 _symmetry_equiv_pos_as_xyz
  1  'x, y, z'
loop_
 _atom_site_type_symbol
 _atom_site_label
 _atom_site_symmetry_multiplicity
 _atom_site_fract_x
 _atom_site_fract_y
 _atom_site_fract_z
 _atom_site_occupancy
  Rh  Rh0_0  1  0.18902250  0.18902250  0.18902250  1
  Rh  Rh0_1  1  0.18902250  0.18902250  0.68902250  1
  Rh  Rh0_2  1  0.18902250  0.68902250  0.18902250  1
  Rh  Rh0_3  1  0.18902250  0.68902250  0.68902250  1
  Rh  Rh0_4  1  0.68902250  0.18902250  0.18902250  1
  Rh  Rh0_5  1  0.68902250  0.18902250  0.68902250  1
  Rh  Rh0_6  1  0.68902250  0.68902250  0.18902250  1
  Rh  Rh0_7  1  0.68902250  0.68902250  0.68902250  1
  Rh  Rh1_0  1  0.31097750  0.31097750  0.31097750  1
  Rh  Rh1_1  1  0.31097750  0.31097750  0.81097750  1
  Rh  Rh1_2  1  0.31097750  0.81097750  0.31097750  1
  Rh  Rh1_3  1  0.31097750  0.81097750  0.81097750  1
  Rh  Rh1_4  1  0.81097750  0.31097750  0.31097750  1
  Rh  Rh1_5  1  0.81097750  0.31097750  0.81097750  1
  Rh  Rh1_6  1  0.81097750  0.81097750  0.31097750  1
  Rh  Rh1_7  1  0.81097750  0.81097750  0.81097750  1
  W  W0_0  1  0.43790750  0.43790750  0.43790750  1
  W  W0_1  1  0.43790750  0.43790750  0.93790750  1
  W  W0_2  1  0.43790750  0.93790750  0.43790750  1
  W  W0_3  1  0.43790750  0.93790750  0.93790750  1
  W  W0_4  1  0.93790750  0.43790750  0.43790750  1
  W  W0_5  1  0.93790750  0.43790750  0.93790750  1
  W  W0_6  1  0.93790750  0.93790750  0.43790750  1
  W  W0_7  1  0.93790750  0.93790750  0.93790750  1
  W  W1_0  1  0.06209250  0.06209250  0.06209250  1
  W  W1_1  1  0.06209250  0.06209250  0.56209250  1
  W  W1_2  1  0.06209250  0.56209250  0.06209250  1
  W  W1_3  1  0.06209250  0.56209250  0.56209250  1
  W  W1_4  1  0.56209250  0.06209250  0.06209250  1
  W  W1_5  1  0.56209250  0.06209250  0.56209250  1
  W  W1_6  1  0.56209250  0.56209250  0.06209250  1
  W  W1_7  1  0.56209250  0.56209250  0.56209250  1
  C  C0_0  1  0.00000000  0.00000000  0.00000000  1
  C  C0_1  1  0.00000000  0.00000000  0.50000000  1
  C  C0_2  1  0.00000000  0.50000000  0.00000000  1
  C  C0_3  1  0.00000000  0.50000000  0.50000000  1
  C  C0_4  1  0.50000000  0.00000000  0.00000000  1
  C  C0_5  1  0.50000000  0.00000000  0.50000000  1
  C  C0_6  1  0.50000000  0.50000000  0.00000000  1
  C  C0_7  1  0.50000000  0.50000000  0.50000000  1
loop_
_geom_bond_atom_site_label_1
_geom_bond_atom_site_label_2
_geom_bond_distance
_geom_bond_site_symmetry_2
Rh0_0 W1_4 2.812293 1_555
Rh0_0 W1_2 2.812293 1_555
Rh0_0 W1_1 2.812293 1_555
Rh0_1 W1_5 2.812293 1_555
Rh0_1 W1_3 2.812293 1_555
Rh0_1 W1_0 2.812293 1_556
Rh0_2 W1_6 2.812293 1_555
Rh0_2 W1_0 2.812293 1_565
Rh0_2 W1_3 2.812293 1_555
Rh0_3 W1_1 2.812293 1_565
Rh0_3 W1_7 2.812293 1_555
Rh0_3 W1_2 2.812293 1_556
Rh0_4 W1_6 2.812293 1_555
Rh0_4 W1_0 2.812293 1_655
Rh0_4 W1_5 2.812293 1_555
Rh0_5 W1_1 2.812293 1_655
Rh0_5 W1_7 2.812293 1_555
Rh0_5 W1_4 2.812293 1_556
Rh0_6 W1_2 2.812293 1_655
Rh0_6 W1_4 2.812293 1_565
Rh0_6 W1_7 2.812293 1_555
Rh0_7 W1_5 2.812293 1_565
Rh0_7 W1_3 2.812293 1_655
Rh0_7 W1_6 2.812293 1_556
Rh1_0 W0_2 2.812293 1_545
Rh1_0 W0_4 2.812293 1_455
Rh1_0 W0_1 2.812293 1_554
Rh1_1 W0_5 2.812293 1_455
Rh1_1 W0_3 2.812293 1_545
Rh1_1 W0_0 2.812293 1_555
Rh1_2 W0_6 2.812293 1_455
Rh1_2 W0_0 2.812293 1_555
Rh1_2 W0_3 2.812293 1_554
Rh1_3 W0_1 2.812293 1_555
Rh1_3 W0_7 2.812293 1_455
Rh1_3 W0_2 2.812293 1_555
Rh1_4 W0_6 2.812293 1_545
Rh1_4 W0_0 2.812293 1_555
Rh1_4 W0_5 2.812293 1_554
Rh1_5 W0_1 2.812293 1_555
Rh1_5 W0_7 2.812293 1_545
Rh1_5 W0_4 2.812293 1_555
Rh1_6 W0_2 2.812293 1_555
Rh1_6 W0_4 2.812293 1_555
Rh1_6 W0_7 2.812293 1_554
Rh1_7 W0_5 2.812293 1_555
Rh1_7 W0_3 2.812293 1_555
Rh1_7 W0_6 2.812293 1_555
W0_0 W0_6 2.852480 1_545
W0_0 W0_6 2.852480 1_455
W0_0 W0_5 2.852480 1_455
W0_0 W0_3 2.852480 1_545
W0_0 W0_5 2.852480 1_554
W0_0 W0_3 2.852480 1_554
W0_0 W1_5 2.941390 1_555
W0_0 W1_3 2.941390 1_555
W0_0 W1_6 2.941390 1_555
W0_1 W0_7 2.852480 1_545
W0_1 W0_7 2.852480 1_455
W0_1 W0_4 2.852480 1_555
W0_1 W0_2 2.852480 1_555
W0_1 W0_2 2.852480 1_546
W0_1 W0_4 2.852480 1_456
W0_1 W1_2 2.941390 1_556
W0_1 W1_4 2.941390 1_556
W0_1 W1_7 2.941390 1_555
W0_2 W0_4 2.852480 1_555
W0_2 W0_4 2.852480 1_465
W0_2 W0_7 2.852480 1_554
W0_2 W0_7 2.852480 1_455
W0_2 W1_7 2.941390 1_555
W0_2 W1_1 2.941390 1_565
W0_2 W1_4 2.941390 1_565
W0_3 W0_5 2.852480 1_555
W0_3 W0_5 2.852480 1_465
W0_3 W0_6 2.852480 1_555
W0_3 W0_6 2.852480 1_456
W0_3 W1_0 2.941390 1_566
W0_3 W1_6 2.941390 1_556
W0_3 W1_5 2.941390 1_565
W0_4 W0_7 2.852480 1_554
W0_4 W0_7 2.852480 1_545
W0_4 W1_7 2.941390 1_555
W0_4 W1_1 2.941390 1_655
W0_4 W1_2 2.941390 1_655
W0_5 W0_6 2.852480 1_555
W0_5 W0_6 2.852480 1_546
W0_5 W1_0 2.941390 1_656
W0_5 W1_6 2.941390 1_556
W0_5 W1_3 2.941390 1_655
W0_6 W1_3 2.941390 1_655
W0_6 W1_5 2.941390 1_565
W0_6 W1_0 2.941390 1_665
W0_7 W1_4 2.941390 1_566
W0_7 W1_2 2.941390 1_656
W0_7 W1_1 2.941390 1_665
W1_0 W1_6 2.852480 1_455
W1_0 W1_6 2.852480 1_545
W1_0 W1_3 2.852480 1_545
W1_0 W1_5 2.852480 1_455
W1_0 W1_3 2.852480 1_554
W1_0 W1_5 2.852480 1_554
W1_1 W1_7 2.852480 1_545
W1_1 W1_7 2.852480 1_455
W1_1 W1_2 2.852480 1_546
W1_1 W1_2 2.852480 1_555
W1_1 W1_4 2.852480 1_456
W1_1 W1_4 2.852480 1_555
W1_2 W1_4 2.852480 1_465
W1_2 W1_4 2.852480 1_555
W1_2 W1_7 2.852480 1_554
W1_2 W1_7 2.852480 1_455
W1_3 W1_5 2.852480 1_465
W1_3 W1_5 2.852480 1_555
W1_3 W1_6 2.852480 1_555
W1_3 W1_6 2.852480 1_456
W1_4 W1_7 2.852480 1_545
W1_4 W1_7 2.852480 1_554
W1_5 W1_6 2.852480 1_555
W1_5 W1_6 2.852480 1_546
C0_0 Rh0_1 2.087364 1_554
C0_0 Rh1_6 2.087364 1_445
C0_0 Rh1_3 2.087364 1_544
C0_0 Rh1_5 2.087364 1_454
C0_0 Rh0_4 2.087364 1_455
C0_0 Rh0_2 2.087364 1_545
C0_1 Rh0_0 2.087364 1_555
C0_1 Rh1_7 2.087364 1_445
C0_1 Rh1_2 2.087364 1_545
C0_1 Rh1_4 2.087364 1_455
C0_1 Rh0_5 2.087364 1_455
C0_1 Rh0_3 2.087364 1_545
C0_2 Rh1_4 2.087364 1_455
C0_2 Rh0_3 2.087364 1_554
C0_2 Rh0_6 2.087364 1_455
C0_2 Rh0_0 2.087364 1_555
C0_2 Rh1_1 2.087364 1_554
C0_2 Rh1_7 2.087364 1_454
C0_3 Rh0_2 2.087364 1_555
C0_3 Rh1_5 2.087364 1_455
C0_3 Rh0_7 2.087364 1_455
C0_3 Rh0_1 2.087364 1_555
C0_3 Rh1_0 2.087364 1_555
C0_3 Rh1_6 2.087364 1_455
C0_4 Rh1_2 2.087364 1_545
C0_4 Rh0_5 2.087364 1_554
C0_4 Rh0_6 2.087364 1_545
C0_4 Rh0_0 2.087364 1_555
C0_4 Rh1_1 2.087364 1_554
C0_4 Rh1_7 2.087364 1_544
C0_5 Rh1_3 2.087364 1_545
C0_5 Rh0_4 2.087364 1_555
C0_5 Rh0_7 2.087364 1_545
C0_5 Rh0_1 2.087364 1_555
C0_5 Rh1_0 2.087364 1_555
C0_5 Rh1_6 2.087364 1_545
C0_6 Rh0_7 2.087364 1_554
C0_6 Rh1_0 2.087364 1_555
C0_6 Rh1_3 2.087364 1_554
C0_6 Rh1_5 2.087364 1_554
C0_6 Rh0_4 2.087364 1_555
C0_6 Rh0_2 2.087364 1_555
C0_7 Rh0_6 2.087364 1_555
C0_7 Rh1_1 2.087364 1_555
C0_7 Rh1_2 2.087364 1_555
C0_7 Rh1_4 2.087364 1_555
C0_7 Rh0_5 2.087364 1_555
C0_7 Rh0_3 2.087364 1_555
