# generated using pymatgen
data_Mg6MnMo
_symmetry_space_group_name_H-M   'P 1'
_cell_length_a   4.77287500
_cell_length_b   5.97705000
_cell_length_c   10.88251700
_cell_angle_alpha   90.00000000
_cell_angle_beta   90.00000000
_cell_angle_gamma   90.00000000
_symmetry_Int_Tables_number   1
_chemical_formula_structural   Mg6MnMo
_chemical_formula_sum   'Mg12 Mn2 Mo2'
_cell_volume   310.45331646
_cell_formula_units_Z   2
loop_
 _symmetry_equiv_pos_site_id
 _symmetry_equiv_pos_as_xyz
  1  'x, y, z'
loop_
 _atom_site_type_symbol
 _atom_site_label
 _atom_site_symmetry_multiplicity
 _atom_site_fract_x
 _atom_site_fract_y
 _atom_site_fract_z
 _atom_site_occupancy
  Mg  Mg0  1  0.00000000  0.76031300  0.58093500  1
  Mg  Mg1  1  0.00000000  0.23968700  0.58093500  1
  Mg  Mg2  1  0.00000000  0.50000000  0.83025900  1
  Mg  Mg3  1  0.50000000  0.24323000  0.92131100  1
  Mg  Mg4  1  0.50000000  0.75677000  0.92131100  1
  Mg  Mg5  1  0.50000000  0.50000000  0.66938100  1
  Mg  Mg6  1  0.00000000  0.26031300  0.08093500  1
  Mg  Mg7  1  0.00000000  0.73968700  0.08093500  1
  Mg  Mg8  1  0.00000000  0.00000000  0.33025900  1
  Mg  Mg9  1  0.50000000  0.74323000  0.42131100  1
  Mg  Mg10  1  0.50000000  0.25677000  0.42131100  1
  Mg  Mg11  1  0.50000000  0.00000000  0.16938100  1
  Mn  Mn0  1  0.00000000  0.00000000  0.80718700  1
  Mn  Mn1  1  0.00000000  0.50000000  0.30718700  1
  Mo  Mo0  1  0.50000000  0.00000000  0.68868000  1
  Mo  Mo1  1  0.50000000  0.50000000  0.18868000  1
loop_
_geom_bond_atom_site_label_1
_geom_bond_atom_site_label_2
_geom_bond_distance
_geom_bond_site_symmetry_2
Mg0 Mn0 2.848647 1_565
Mg0 Mg1 2.865242 1_565
Mg0 Mg9 2.953483 1_455
Mg0 Mg9 2.953483 1_555
Mg0 Mg5 3.007051 1_555
Mg0 Mg5 3.007051 1_455
Mg0 Mo0 3.020320 1_565
Mg0 Mo0 3.020320 1_465
Mg0 Mg8 3.081284 1_565
Mg0 Mg1 3.111808 1_555
Mg0 Mg2 3.127728 1_555
Mg0 Mn1 3.360904 1_555
Mg1 Mn0 2.848647 1_555
Mg1 Mg10 2.953483 1_455
Mg1 Mg10 2.953483 1_555
Mg1 Mg5 3.007051 1_555
Mg1 Mg5 3.007051 1_455
Mg1 Mo0 3.020320 1_455
Mg1 Mo0 3.020320 1_555
Mg1 Mg8 3.081284 1_555
Mg1 Mg2 3.127728 1_555
Mg1 Mn1 3.360904 1_555
Mg2 Mg5 2.959770 1_555
Mg2 Mg5 2.959770 1_455
Mg2 Mn0 2.999054 1_555
Mg2 Mn0 2.999054 1_565
Mg2 Mg3 3.005379 1_455
Mg2 Mg4 3.005379 1_455
Mg2 Mg3 3.005379 1_555
Mg2 Mg4 3.005379 1_555
Mg2 Mg6 3.081284 1_556
Mg2 Mg7 3.081284 1_556
Mg3 Mg4 2.907596 1_545
Mg3 Mo0 2.919346 1_555
Mg3 Mg6 2.953483 1_556
Mg3 Mg6 2.953483 1_656
Mg3 Mn0 3.057952 1_555
Mg3 Mn0 3.057952 1_655
Mg3 Mg4 3.069454 1_555
Mg3 Mg5 3.141964 1_555
Mg3 Mo1 3.289595 1_556
Mg4 Mo0 2.919346 1_565
Mg4 Mg7 2.953483 1_556
Mg4 Mg7 2.953483 1_656
Mg4 Mn0 3.057952 1_565
Mg4 Mn0 3.057952 1_665
Mg4 Mg5 3.141964 1_555
Mg4 Mo1 3.289595 1_556
Mg5 Mo0 2.995896 1_565
Mg5 Mo0 2.995896 1_555
Mg5 Mg9 3.066188 1_555
Mg6 Mn1 2.848647 1_555
Mg6 Mg7 2.865242 1_555
Mg6 Mo1 3.020320 1_555
Mg6 Mo1 3.020320 1_455
Mg6 Mg7 3.111808 1_545
Mg6 Mg8 3.127728 1_555
Mg6 Mn0 3.360904 1_554
Mg7 Mn1 2.848647 1_555
Mg7 Mo1 3.020320 1_555
Mg7 Mo1 3.020320 1_455
Mg7 Mg8 3.127728 1_565
Mg7 Mn0 3.360904 1_564
Mg8 Mn1 2.999054 1_555
Mg8 Mn1 2.999054 1_545
Mg8 Mg9 3.005379 1_545
Mg8 Mg9 3.005379 1_445
Mg9 Mo1 2.919346 1_555
Mg9 Mn1 3.057952 1_555
Mg9 Mn1 3.057952 1_655
Mg9 Mo0 3.289595 1_565
Mg10 Mg9 2.907596 1_555
Mg10 Mo1 2.919346 1_555
Mg10 Mg8 3.005379 1_655
Mg10 Mg8 3.005379 1_555
Mg10 Mn1 3.057952 1_555
Mg10 Mn1 3.057952 1_655
Mg10 Mg5 3.066188 1_555
Mg10 Mg9 3.069454 1_545
Mg10 Mg11 3.141964 1_555
Mg10 Mo0 3.289595 1_555
Mg11 Mg8 2.959770 1_655
Mg11 Mg8 2.959770 1_555
Mg11 Mo1 2.995896 1_555
Mg11 Mo1 2.995896 1_545
Mg11 Mg6 3.007051 1_555
Mg11 Mg7 3.007051 1_645
Mg11 Mg6 3.007051 1_655
Mg11 Mg7 3.007051 1_545
Mg11 Mg4 3.066188 1_544
Mg11 Mg3 3.066188 1_554
Mg11 Mg9 3.141964 1_545
Mn0 Mo0 2.712617 1_555
Mn0 Mo0 2.712617 1_455
Mn1 Mo1 2.712617 1_555
Mn1 Mo1 2.712617 1_455
