# generated using pymatgen
data_Li3V4O8
_symmetry_space_group_name_H-M   'P 1'
_cell_length_a   5.92300881
_cell_length_b   10.20372179
_cell_length_c   6.13816127
_cell_angle_alpha   73.40118612
_cell_angle_beta   119.11146210
_cell_angle_gamma   90.36893127
_symmetry_Int_Tables_number   1
_chemical_formula_structural   Li3V4O8
_chemical_formula_sum   'Li6 V8 O16'
_cell_volume   306.68501441
_cell_formula_units_Z   2
loop_
 _symmetry_equiv_pos_site_id
 _symmetry_equiv_pos_as_xyz
  1  'x, y, z'
loop_
 _atom_site_type_symbol
 _atom_site_label
 _atom_site_symmetry_multiplicity
 _atom_site_fract_x
 _atom_site_fract_y
 _atom_site_fract_z
 _atom_site_occupancy
  Li  Li0  1  0.50151100  0.99929500  0.50265600  1
  Li  Li1  1  0.00613800  0.49549500  0.50384800  1
  Li  Li2  1  0.28516600  0.07169900  0.06997600  1
  Li  Li3  1  0.78999700  0.56965700  0.07147000  1
  Li  Li4  1  0.21750400  0.42558300  0.93373500  1
  Li  Li5  1  0.71316600  0.93040900  0.93440100  1
  V  V0  1  0.24757500  0.75129800  0.49744400  1
  V  V1  1  0.74686700  0.74715200  0.49976000  1
  V  V2  1  0.50583900  0.49937800  0.50081400  1
  V  V3  1  0.74636700  0.25129800  0.99573300  1
  V  V4  1  0.24908700  0.75088000  0.99804600  1
  V  V5  1  0.74637100  0.24948400  0.49721900  1
  V  V6  1  0.25100300  0.24992200  0.49880500  1
  V  V7  1  0.99688800  0.00581500  0.49981600  1
  O  O0  1  0.10104700  0.12263800  0.70539100  1
  O  O1  1  0.61460800  0.63917600  0.70347500  1
  O  O2  1  0.39774000  0.36996100  0.29545300  1
  O  O3  1  0.88763900  0.87100600  0.30520300  1
  O  O4  1  0.64662300  0.12385600  0.26108700  1
  O  O5  1  0.15049300  0.62896300  0.26545500  1
  O  O6  1  0.88588900  0.36250900  0.27146800  1
  O  O7  1  0.38731500  0.86344500  0.26537400  1
  O  O8  1  0.10983500  0.12263800  0.26128400  1
  O  O9  1  0.62539600  0.63434900  0.26042100  1
  O  O10  1  0.61460800  0.13500800  0.72940100  1
  O  O11  1  0.10983500  0.63741900  0.73059300  1
  O  O12  1  0.38598900  0.36994100  0.74308600  1
  O  O13  1  0.87926300  0.87370400  0.72982200  1
  O  O14  1  0.85500200  0.37245200  0.73940800  1
  O  O15  1  0.34524100  0.87557000  0.72935600  1
loop_
_geom_bond_atom_site_label_1
_geom_bond_atom_site_label_2
_geom_bond_distance
_geom_bond_site_symmetry_2
Li0 O10 2.117894 1_565
Li0 O13 2.138449 1_555
Li0 O15 2.149728 1_555
Li0 O7 2.164060 1_555
Li0 O4 2.168426 1_565
Li0 O8 2.188345 1_565
Li1 O6 2.118504 1_455
Li1 O12 2.146415 1_555
Li1 O14 2.162417 1_455
Li1 O11 2.172511 1_555
Li1 O5 2.188788 1_555
Li1 O9 2.208751 1_455
Li2 O0 1.853544 1_554
Li2 O4 2.034985 1_555
Li2 O7 2.043134 1_545
Li2 O8 2.066346 1_555
Li3 O1 1.869601 1_554
Li3 O6 2.037597 1_555
Li3 O5 2.065032 1_655
Li3 O9 2.068168 1_555
Li4 O2 1.836564 1_556
Li4 O14 2.046763 1_455
Li4 O12 2.052044 1_555
Li4 O11 2.082733 1_555
Li5 O3 1.883331 1_556
Li5 O10 2.020543 1_565
Li5 O15 2.089041 1_555
Li5 O13 2.122267 1_555
O0 V7 1.867151 1_455
O0 V5 2.049226 1_455
O0 V6 2.055176 1_555
O1 V1 1.883089 1_555
O1 V0 2.040718 1_555
O1 V2 2.054137 1_555
O2 V2 1.974223 1_555
O2 V6 1.995500 1_555
O2 V5 1.995868 1_555
O3 V1 1.952312 1_555
O3 V7 1.978150 1_565
O3 V0 2.047356 1_655
O4 V7 1.991933 1_555
O4 V5 2.076442 1_555
O4 V3 2.099822 1_554
O5 V0 2.031295 1_555
O5 V2 2.061826 1_555
O5 V4 2.083139 1_554
O6 V5 2.030260 1_555
O6 V6 2.030640 1_655
O6 V3 2.135296 1_554
O7 V1 2.022171 1_555
O7 V0 2.056056 1_555
O7 V4 2.107037 1_554
O8 V7 1.989433 1_455
O8 V6 2.096005 1_555
O8 V3 2.101046 1_454
O9 V1 1.981843 1_555
O9 V2 2.102040 1_555
O9 V4 2.103030 1_554
O10 V5 2.030761 1_555
O10 V6 2.033391 1_555
O10 V3 2.131796 1_555
O11 V1 2.010929 1_455
O11 V0 2.058547 1_555
O11 V4 2.114656 1_555
O12 V3 2.041190 1_555
O12 V6 2.063328 1_555
O12 V2 2.086313 1_555
O13 V7 2.037988 1_565
O13 V1 2.056182 1_555
O13 V4 2.104006 1_655
O14 V2 2.025572 1_555
O14 V3 2.069129 1_555
O14 V5 2.079161 1_555
O15 V7 2.036022 1_465
O15 V0 2.046838 1_555
O15 V4 2.090196 1_555
