# generated using pymatgen
data_KInH8(SO6)2
_symmetry_space_group_name_H-M   'P 1'
_cell_length_a   10.84631900
_cell_length_b   9.22729500
_cell_length_c   10.76877283
_cell_angle_alpha   78.23056993
_cell_angle_beta   90.00000000
_cell_angle_gamma   90.00000000
_symmetry_Int_Tables_number   1
_chemical_formula_structural   KInH8(SO6)2
_chemical_formula_sum   'K4 In4 H32 S8 O48'
_cell_volume   1055.10382582
_cell_formula_units_Z   4
loop_
 _symmetry_equiv_pos_site_id
 _symmetry_equiv_pos_as_xyz
  1  'x, y, z'
loop_
 _atom_site_type_symbol
 _atom_site_label
 _atom_site_symmetry_multiplicity
 _atom_site_fract_x
 _atom_site_fract_y
 _atom_site_fract_z
 _atom_site_occupancy
  K  K0  1  0.45494800  0.78146300  0.82073000  1
  K  K1  1  0.95494800  0.21853700  0.17927000  1
  K  K2  1  0.93685500  0.72094200  0.17549800  1
  K  K3  1  0.43685500  0.27905800  0.82450200  1
  In  In0  1  0.32771900  0.65527300  0.20858300  1
  In  In1  1  0.82771900  0.34472700  0.79141700  1
  In  In2  1  0.06019000  0.84286100  0.79086600  1
  In  In3  1  0.56019000  0.15713900  0.20913400  1
  H  H0  1  0.79246400  0.70934600  0.41277000  1
  H  H1  1  0.29246400  0.29065400  0.58723000  1
  H  H2  1  0.17266400  0.43077700  0.32952900  1
  H  H3  1  0.67266400  0.56922300  0.67047100  1
  H  H4  1  0.99814200  0.93176000  0.40421000  1
  H  H5  1  0.49814200  0.06824000  0.59579000  1
  H  H6  1  0.16593800  0.55799600  0.41080700  1
  H  H7  1  0.66593800  0.44200400  0.58919300  1
  H  H8  1  0.09783300  0.21138700  0.42011000  1
  H  H9  1  0.59783300  0.78861300  0.57989000  1
  H  H10  1  0.37151400  0.35707200  0.09546600  1
  H  H11  1  0.87151400  0.64292800  0.90453400  1
  H  H12  1  0.22332900  0.17520400  0.36388200  1
  H  H13  1  0.72332900  0.82479600  0.63611800  1
  H  H14  1  0.51882600  0.85599000  0.09531500  1
  H  H15  1  0.01882600  0.14401000  0.90468500  1
  H  H16  1  0.11082900  0.93343500  0.31860500  1
  H  H17  1  0.61082900  0.06656500  0.68139500  1
  H  H18  1  0.22921400  0.93596800  0.58915800  1
  H  H19  1  0.72921400  0.06403200  0.41084200  1
  H  H20  1  0.56843800  0.68936100  0.10249200  1
  H  H21  1  0.06843800  0.31063900  0.89750800  1
  H  H22  1  0.72415500  0.94113300  0.32584100  1
  H  H23  1  0.22415500  0.05886700  0.67415900  1
  H  H24  1  0.31993200  0.18887600  0.10746900  1
  H  H25  1  0.81993200  0.81112400  0.89253100  1
  H  H26  1  0.28256600  0.57305800  0.67646900  1
  H  H27  1  0.78256600  0.42694200  0.32353100  1
  H  H28  1  0.67368800  0.68235600  0.34095000  1
  H  H29  1  0.17368800  0.31764400  0.65905000  1
  H  H30  1  0.39884500  0.55392000  0.60089500  1
  H  H31  1  0.89884500  0.44608000  0.39910500  1
  S  S0  1  0.38987700  0.89209100  0.39589100  1
  S  S1  1  0.88987700  0.10790900  0.60410900  1
  S  S2  1  0.50124100  0.39287100  0.39583700  1
  S  S3  1  0.00124100  0.60712900  0.60416300  1
  S  S4  1  0.20915500  0.96960200  0.02805400  1
  S  S5  1  0.70915500  0.03039800  0.97194600  1
  S  S6  1  0.67979100  0.46952100  0.02856400  1
  S  S7  1  0.17979100  0.53047900  0.97143600  1
  O  O0  1  0.27255100  0.96132100  0.42433100  1
  O  O1  1  0.77255100  0.03867900  0.57566900  1
  O  O2  1  0.48089300  0.89177900  0.49609700  1
  O  O3  1  0.98089300  0.10822100  0.50390300  1
  O  O4  1  0.73801200  0.75662800  0.34244300  1
  O  O5  1  0.23801200  0.24337200  0.65755700  1
  O  O6  1  0.45416500  0.47311700  0.26822500  1
  O  O7  1  0.95416500  0.52688300  0.73177500  1
  O  O8  1  0.32391000  0.97777600  0.95663200  1
  O  O9  1  0.82391000  0.02222400  0.04336800  1
  O  O10  1  0.06506400  0.52267300  0.04299300  1
  O  O11  1  0.56506400  0.47732700  0.95700700  1
  O  O12  1  0.21895400  0.94887300  0.67838400  1
  O  O13  1  0.71895400  0.05112700  0.32161600  1
  O  O14  1  0.49194300  0.75172400  0.10142800  1
  O  O15  1  0.99194300  0.24827600  0.89857200  1
  O  O16  1  0.15898900  0.25187400  0.35368600  1
  O  O17  1  0.65898900  0.74812600  0.64631400  1
  O  O18  1  0.39648200  0.25171700  0.10358500  1
  O  O19  1  0.89648200  0.74828300  0.89641500  1
  O  O20  1  0.02083900  0.92653200  0.31726400  1
  O  O21  1  0.52083900  0.07346800  0.68273600  1
  O  O22  1  0.09753400  0.97076300  0.94045100  1
  O  O23  1  0.59753400  0.02923700  0.05954900  1
  O  O24  1  0.69642100  0.59323800  0.09435400  1
  O  O25  1  0.19642100  0.40676200  0.90564600  1
  O  O26  1  0.19226700  0.09314600  0.09422400  1
  O  O27  1  0.69226700  0.90685400  0.90577600  1
  O  O28  1  0.43782300  0.97148400  0.26833100  1
  O  O29  1  0.93782300  0.02851600  0.73166900  1
  O  O30  1  0.41080700  0.39597800  0.49664000  1
  O  O31  1  0.91080700  0.60402200  0.50336000  1
  O  O32  1  0.17326200  0.54235700  0.32220200  1
  O  O33  1  0.67326200  0.45764300  0.67779800  1
  O  O34  1  0.37250100  0.57204300  0.68353500  1
  O  O35  1  0.87250100  0.42795700  0.31646500  1
  O  O36  1  0.12066000  0.54255700  0.57733200  1
  O  O37  1  0.62066000  0.45744300  0.42266800  1
  O  O38  1  0.29186400  0.52925400  0.05850700  1
  O  O39  1  0.79186400  0.47074600  0.94149300  1
  O  O40  1  0.36598600  0.73528400  0.38068300  1
  O  O41  1  0.86598600  0.26471600  0.61931700  1
  O  O42  1  0.19049000  0.67613100  0.87547500  1
  O  O43  1  0.69049000  0.32386900  0.12452500  1
  O  O44  1  0.01917500  0.76584500  0.61798800  1
  O  O45  1  0.51917500  0.23415500  0.38201200  1
  O  O46  1  0.19825400  0.82423900  0.12460000  1
  O  O47  1  0.69825400  0.17576100  0.87540000  1
loop_
_geom_bond_atom_site_label_1
_geom_bond_atom_site_label_2
_geom_bond_distance
_geom_bond_site_symmetry_2
K0 O34 2.807349 1_555
K0 O21 2.888858 1_565
K0 O8 2.919701 1_555
K0 O17 2.959040 1_555
K0 O14 3.005841 1_556
K0 O27 3.038982 1_555
K0 O42 3.047318 1_555
K0 O11 3.126605 1_555
K0 O12 3.212769 1_555
K1 O35 2.807349 1_555
K1 O20 2.888858 1_645
K1 O9 2.919701 1_555
K1 O16 2.959040 1_655
K1 O15 3.005841 1_554
K1 O26 3.038982 1_655
K1 O43 3.047318 1_555
K1 O10 3.126605 1_655
K1 O13 3.212769 1_555
K2 O20 2.817914 1_655
K2 O4 2.869391 1_555
K2 O10 2.895138 1_655
K2 O35 2.902783 1_555
K2 O19 2.996400 1_554
K2 O46 3.005703 1_655
K2 O24 3.061520 1_555
K2 O9 3.104853 1_565
K2 O32 3.274766 1_655
K3 O21 2.817914 1_555
K3 O5 2.869391 1_555
K3 O11 2.895138 1_555
K3 O34 2.902783 1_555
K3 O18 2.996400 1_556
K3 O47 3.005703 1_555
K3 O25 3.061520 1_555
K3 O8 3.104853 1_545
K3 O33 3.274766 1_555
In0 O46 2.155302 1_555
In0 O6 2.162908 1_555
In0 O40 2.170313 1_555
In0 O32 2.206617 1_555
In0 O14 2.208491 1_555
In0 O38 2.209504 1_555
In1 O47 2.155302 1_555
In1 O7 2.162908 1_555
In1 O41 2.170313 1_555
In1 O33 2.206617 1_555
In1 O15 2.208491 1_555
In1 O39 2.209504 1_555
In2 O42 2.150013 1_555
In2 O29 2.158033 1_465
In2 O44 2.169910 1_555
In2 O19 2.191287 1_455
In2 O12 2.214959 1_555
In2 O22 2.219749 1_555
In3 O43 2.150013 1_555
In3 O28 2.158033 1_545
In3 O45 2.169910 1_555
In3 O18 2.191287 1_555
In3 O13 2.214959 1_555
In3 O23 2.219749 1_555
H0 O4 0.988900 1_555
H1 O5 0.988900 1_555
H2 O32 1.016448 1_555
H2 O16 1.624683 1_555
H3 O33 1.016448 1_555
H3 O17 1.624683 1_555
H4 O20 0.978784 1_655
H5 O21 0.978784 1_555
H6 O32 0.996865 1_555
H7 O33 0.996865 1_555
H8 O16 0.991061 1_555
H9 O17 0.991061 1_555
H10 O18 0.995675 1_555
H11 O19 0.995675 1_555
H12 O16 0.983799 1_555
H13 O17 0.983799 1_555
H14 O14 0.994555 1_555
H15 O15 0.994555 1_455
H16 O20 0.978435 1_555
H17 O21 0.978435 1_555
H18 O12 0.998239 1_555
H19 O13 0.998239 1_555
H20 O14 1.008444 1_555
H20 O24 1.659224 1_555
H21 O15 1.008444 1_455
H21 O25 1.659224 1_555
H22 O13 1.008232 1_565
H23 O12 1.008232 1_545
H24 O18 1.008692 1_555
H24 O26 1.664149 1_555
H25 O19 1.008692 1_555
H25 O27 1.664149 1_555
H26 O34 0.978323 1_555
H27 O35 0.978323 1_555
H28 O4 0.980401 1_555
H29 O5 0.980401 1_555
H30 O34 0.980968 1_555
H31 O35 0.980968 1_555
O0 S0 1.483603 1_555
O1 S1 1.483603 1_555
O2 S0 1.462098 1_555
O3 S1 1.462098 1_555
O6 S2 1.510752 1_555
O7 S3 1.510752 1_655
O8 S4 1.456977 1_556
O9 S5 1.456977 1_554
O10 S7 1.457665 1_554
O11 S6 1.457665 1_556
O22 S4 1.533522 1_556
O23 S5 1.533522 1_554
O24 S6 1.472279 1_555
O25 S7 1.472279 1_555
O26 S4 1.473851 1_545
O27 S5 1.473851 1_565
O28 S0 1.511140 1_555
O29 S1 1.511140 1_555
O30 S2 1.467651 1_555
O31 S3 1.467651 1_655
O36 S3 1.478652 1_555
O37 S2 1.478652 1_555
O38 S7 1.533826 1_554
O39 S6 1.533826 1_556
O40 S0 1.511347 1_555
O41 S1 1.511347 1_555
O42 S7 1.523495 1_555
O43 S6 1.523495 1_555
O44 S3 1.514518 1_555
O45 S2 1.514518 1_555
O46 S4 1.524837 1_555
O47 S5 1.524837 1_555
