# generated using pymatgen
data_Sr6Ca2Co7CuO24
_symmetry_space_group_name_H-M   'P 1'
_cell_length_a   7.69613610
_cell_length_b   7.69613610
_cell_length_c   7.71022000
_cell_angle_alpha   90.00000000
_cell_angle_beta   90.00000000
_cell_angle_gamma   90.01116017
_symmetry_Int_Tables_number   1
_chemical_formula_structural   Sr6Ca2Co7CuO24
_chemical_formula_sum   'Sr6 Ca2 Co7 Cu1 O24'
_cell_volume   456.68026095
_cell_formula_units_Z   1
loop_
 _symmetry_equiv_pos_site_id
 _symmetry_equiv_pos_as_xyz
  1  'x, y, z'
loop_
 _atom_site_type_symbol
 _atom_site_label
 _atom_site_symmetry_multiplicity
 _atom_site_fract_x
 _atom_site_fract_y
 _atom_site_fract_z
 _atom_site_occupancy
  Sr  Sr0  1  0.24955800  0.75044200  0.75131200  1
  Sr  Sr1  1  0.75058000  0.75058000  0.75119300  1
  Sr  Sr2  1  0.75065700  0.75065700  0.24882400  1
  Sr  Sr3  1  0.24942000  0.24942000  0.75119300  1
  Sr  Sr4  1  0.75044200  0.24955800  0.75131200  1
  Sr  Sr5  1  0.24934300  0.24934300  0.24882400  1
  Ca  Ca0  1  0.24932900  0.75067100  0.24823400  1
  Ca  Ca1  1  0.75067100  0.24932900  0.24823400  1
  Co  Co0  1  0.50000000  0.00000000  0.00112500  1
  Co  Co1  1  0.00000000  0.00000000  0.49875500  1
  Co  Co2  1  0.50000000  0.00000000  0.49900100  1
  Co  Co3  1  0.00000000  0.50000000  0.00112500  1
  Co  Co4  1  0.50000000  0.50000000  0.00074400  1
  Co  Co5  1  0.00000000  0.50000000  0.49900100  1
  Co  Co6  1  0.50000000  0.50000000  0.49854600  1
  Cu  Cu0  1  0.00000000  0.00000000  0.00074700  1
  O  O0  1  0.00249500  0.74610600  0.00320100  1
  O  O1  1  0.49806500  0.74818500  0.00315700  1
  O  O2  1  0.00240400  0.74690800  0.49694200  1
  O  O3  1  0.49892100  0.74992900  0.49721700  1
  O  O4  1  0.99750500  0.25389400  0.00320100  1
  O  O5  1  0.50193500  0.25181500  0.00315700  1
  O  O6  1  0.99759600  0.25309200  0.49694200  1
  O  O7  1  0.50107900  0.25007100  0.49721700  1
  O  O8  1  0.00000000  0.00000000  0.74550800  1
  O  O9  1  0.50000000  0.00000000  0.74720600  1
  O  O10  1  0.00000000  0.00000000  0.25363000  1
  O  O11  1  0.50000000  0.00000000  0.25270000  1
  O  O12  1  0.00000000  0.50000000  0.74720600  1
  O  O13  1  0.50000000  0.50000000  0.75532800  1
  O  O14  1  0.00000000  0.50000000  0.25270000  1
  O  O15  1  0.50000000  0.50000000  0.24548700  1
  O  O16  1  0.25389400  0.99750500  0.00320100  1
  O  O17  1  0.74610600  0.00249500  0.00320100  1
  O  O18  1  0.25309200  0.99759600  0.49694200  1
  O  O19  1  0.74690800  0.00240400  0.49694200  1
  O  O20  1  0.25181500  0.50193500  0.00315700  1
  O  O21  1  0.74818500  0.49806500  0.00315700  1
  O  O22  1  0.25007100  0.50107900  0.49721700  1
  O  O23  1  0.74992900  0.49892100  0.49721700  1
loop_
_geom_bond_atom_site_label_1
_geom_bond_atom_site_label_2
_geom_bond_distance
_geom_bond_site_symmetry_2
Ca0 O16 2.679411 1_555
Ca0 O0 2.679411 1_555
Ca0 O20 2.689894 1_555
Ca0 O1 2.689894 1_555
Ca0 O18 2.699886 1_555
Ca0 O2 2.699886 1_555
Ca0 O10 2.714275 1_565
Ca0 O3 2.715727 1_555
Ca0 O22 2.715727 1_555
Ca0 O14 2.720958 1_555
Ca0 O11 2.720958 1_565
Ca0 O15 2.728646 1_555
Ca1 O4 2.679411 1_555
Ca1 O17 2.679411 1_555
Ca1 O5 2.689894 1_555
Ca1 O21 2.689894 1_555
Ca1 O6 2.699886 1_555
Ca1 O19 2.699886 1_555
Ca1 O10 2.714275 1_655
Ca1 O23 2.715727 1_555
Ca1 O7 2.715727 1_555
Ca1 O14 2.720958 1_655
Ca1 O11 2.720958 1_555
Ca1 O15 2.728646 1_555
Co0 O17 1.894226 1_555
Co0 O16 1.894226 1_545
Co0 O1 1.938120 1_545
Co0 O5 1.938120 1_555
Co0 O11 1.939699 1_555
Co0 O9 1.957771 1_554
Co1 O10 1.889968 1_555
Co1 O8 1.902520 1_555
Co1 O2 1.947972 1_545
Co1 O19 1.947972 1_455
Co1 O6 1.947972 1_455
Co1 O18 1.947972 1_545
Co2 O11 1.899035 1_555
Co2 O19 1.900390 1_555
Co2 O18 1.900390 1_545
Co2 O9 1.913715 1_555
Co2 O7 1.924646 1_555
Co2 O3 1.924646 1_545
Co3 O0 1.894226 1_555
Co3 O4 1.894226 1_455
Co3 O20 1.938120 1_555
Co3 O21 1.938120 1_455
Co3 O14 1.939699 1_555
Co3 O12 1.957771 1_554
Co4 O15 1.887022 1_555
Co4 O13 1.892211 1_554
Co4 O5 1.910217 1_555
Co4 O20 1.910217 1_555
Co4 O1 1.910217 1_555
Co4 O21 1.910217 1_555
Co5 O14 1.899035 1_555
Co5 O6 1.900390 1_455
Co5 O2 1.900390 1_555
Co5 O12 1.913715 1_555
Co5 O22 1.924646 1_555
Co5 O23 1.924646 1_455
Co6 O23 1.923534 1_555
Co6 O3 1.923534 1_555
Co6 O7 1.923534 1_555
Co6 O22 1.923534 1_555
Co6 O15 1.951141 1_555
Co6 O13 1.979846 1_555
Cu0 O10 1.949784 1_555
Cu0 O16 1.954192 1_545
Cu0 O4 1.954192 1_455
Cu0 O17 1.954192 1_455
Cu0 O0 1.954192 1_545
Cu0 O8 1.967949 1_554
O0 Sr2 2.710037 1_455
O0 Sr0 2.718153 1_554
O0 Sr1 2.745076 1_454
O1 Sr2 2.714260 1_555
O1 Sr0 2.725555 1_554
O1 Sr1 2.747938 1_554
O2 Sr2 2.722943 1_455
O2 Sr0 2.732273 1_555
O2 Sr1 2.756781 1_455
O3 Sr2 2.724221 1_555
O3 Sr0 2.742493 1_555
O3 Sr1 2.754235 1_555
O4 Sr5 2.710037 1_655
O4 Sr4 2.718153 1_554
O4 Sr3 2.745076 1_654
O5 Sr5 2.714260 1_555
O5 Sr4 2.725555 1_554
O5 Sr3 2.747938 1_554
O6 Sr5 2.722943 1_655
O6 Sr4 2.732273 1_555
O6 Sr3 2.756781 1_655
O7 Sr5 2.724221 1_555
O7 Sr4 2.742493 1_555
O7 Sr3 2.754235 1_555
O8 Sr1 2.714772 1_445
O8 Sr3 2.714772 1_555
O8 Sr4 2.716817 1_455
O8 Sr0 2.716817 1_545
O9 Sr4 2.720918 1_555
O9 Sr0 2.720918 1_545
O9 Sr1 2.721441 1_545
O9 Sr3 2.721441 1_555
O10 Sr5 2.713833 1_555
O10 Sr2 2.713833 1_445
O11 Sr5 2.721433 1_555
O11 Sr2 2.721433 1_545
O12 Sr0 2.720918 1_555
O12 Sr4 2.720918 1_455
O12 Sr3 2.721441 1_555
O12 Sr1 2.721441 1_455
O13 Sr0 2.726247 1_555
O13 Sr4 2.726247 1_555
O13 Sr3 2.727228 1_555
O13 Sr1 2.727228 1_555
O14 Sr2 2.721433 1_455
O14 Sr5 2.721433 1_555
O15 Sr2 2.728001 1_555
O15 Sr5 2.728001 1_555
O16 Sr5 2.710037 1_565
O16 Sr0 2.718153 1_554
O16 Sr3 2.745076 1_564
O17 Sr2 2.710037 1_545
O17 Sr4 2.718153 1_554
O17 Sr1 2.745076 1_544
O18 Sr5 2.722943 1_565
O18 Sr0 2.732273 1_555
O18 Sr3 2.756781 1_565
O19 Sr2 2.722943 1_545
O19 Sr4 2.732273 1_555
O19 Sr1 2.756781 1_545
O20 Sr5 2.714260 1_555
O20 Sr0 2.725555 1_554
O20 Sr3 2.747938 1_554
O21 Sr2 2.714260 1_555
O21 Sr4 2.725555 1_554
O21 Sr1 2.747938 1_554
O22 Sr5 2.724221 1_555
O22 Sr0 2.742493 1_555
O22 Sr3 2.754235 1_555
O23 Sr2 2.724221 1_555
O23 Sr4 2.742493 1_555
O23 Sr1 2.754235 1_555
