# generated using pymatgen
data_Sr4CeMn4CoO15
_symmetry_space_group_name_H-M   'P 1'
_cell_length_a   8.65869521
_cell_length_b   8.65869521
_cell_length_c   6.70989631
_cell_angle_alpha   75.11475182
_cell_angle_beta   75.11475182
_cell_angle_gamma   37.07165042
_symmetry_Int_Tables_number   1
_chemical_formula_structural   Sr4CeMn4CoO15
_chemical_formula_sum   'Sr4 Ce1 Mn4 Co1 O15'
_cell_volume   291.90922499
_cell_formula_units_Z   1
loop_
 _symmetry_equiv_pos_site_id
 _symmetry_equiv_pos_as_xyz
  1  'x, y, z'
loop_
 _atom_site_type_symbol
 _atom_site_label
 _atom_site_symmetry_multiplicity
 _atom_site_fract_x
 _atom_site_fract_y
 _atom_site_fract_z
 _atom_site_occupancy
  Sr  Sr0  1  0.40134200  0.40134200  0.90083300  1
  Sr  Sr1  1  0.99963300  0.99963300  0.49860100  1
  Sr  Sr2  1  0.60010100  0.60010100  0.10032300  1
  Sr  Sr3  1  0.19880100  0.19880100  0.69942000  1
  Ce  Ce0  1  0.80231900  0.80231900  0.29421200  1
  Mn  Mn0  1  0.59986000  0.59986000  0.60161000  1
  Mn  Mn1  1  0.19940000  0.19940000  0.19988600  1
  Mn  Mn2  1  0.79957900  0.79957900  0.80046500  1
  Mn  Mn3  1  0.39998100  0.39998100  0.39974200  1
  Co  Co0  1  0.00094200  0.00094200  0.99494300  1
  O  O0  1  0.29989800  0.29989800  0.30165400  1
  O  O1  1  0.09948700  0.09948700  0.11121100  1
  O  O2  1  0.70240300  0.70240300  0.69140100  1
  O  O3  1  0.89448600  0.89448600  0.91321100  1
  O  O4  1  0.50293400  0.50293400  0.48649600  1
  O  O5  1  0.09063400  0.60645700  0.58699700  1
  O  O6  1  0.89861300  0.41855100  0.40102000  1
  O  O7  1  0.50931000  0.99458300  0.01499700  1
  O  O8  1  0.69932400  0.18182300  0.20010500  1
  O  O9  1  0.30200600  0.79753200  0.79987700  1
  O  O10  1  0.18182300  0.69932400  0.20010500  1
  O  O11  1  0.99458300  0.50931000  0.01499700  1
  O  O12  1  0.60645700  0.09063400  0.58699700  1
  O  O13  1  0.79753200  0.30200600  0.79987700  1
  O  O14  1  0.41855100  0.89861300  0.40102000  1
loop_
_geom_bond_atom_site_label_1
_geom_bond_atom_site_label_2
_geom_bond_distance
_geom_bond_site_symmetry_2
Ce0 O8 2.557114 1_565
Ce0 O10 2.557114 1_655
Ce0 O3 2.594084 1_554
Ce0 O7 2.611119 1_555
Ce0 O11 2.611119 1_555
Ce0 O14 2.629248 1_555
Ce0 O6 2.629248 1_555
Ce0 O12 2.649477 1_565
Ce0 O5 2.649477 1_655
Ce0 O2 2.724865 1_555
Ce0 O0 2.753123 1_655
Ce0 O0 2.753123 1_565
Mn0 O13 1.927118 1_555
Mn0 O9 1.927118 1_555
Mn0 O2 1.935813 1_555
Mn0 O14 1.945271 1_555
Mn0 O6 1.945271 1_555
Mn0 O4 1.948168 1_555
Mn1 O1 1.890531 1_555
Mn1 O11 1.926349 1_455
Mn1 O7 1.926349 1_545
Mn1 O0 1.949263 1_555
Mn1 O6 1.956700 1_455
Mn1 O14 1.956700 1_545
Mn2 O3 1.907710 1_555
Mn2 O2 1.927173 1_555
Mn2 O5 1.962186 1_655
Mn2 O12 1.962186 1_565
Mn2 O7 1.964170 1_556
Mn2 O11 1.964170 1_556
Mn3 O0 1.928617 1_555
Mn3 O4 1.931186 1_555
Mn3 O12 1.932065 1_555
Mn3 O5 1.932065 1_555
Mn3 O8 1.945223 1_555
Mn3 O10 1.945223 1_555
Co0 O13 1.927558 1_455
Co0 O9 1.927558 1_545
Co0 O3 1.968595 1_445
Co0 O10 1.975358 1_546
Co0 O8 1.975358 1_456
Co0 O1 1.977526 1_556
O0 Sr3 2.734603 1_555
O0 Sr0 2.753198 1_554
O1 Sr1 2.671198 1_445
O1 Sr2 2.753493 1_455
O1 Sr2 2.753493 1_545
O1 Sr3 2.802160 1_554
O2 Sr3 2.753426 1_565
O2 Sr3 2.753426 1_655
O2 Sr2 2.802242 1_556
O3 Sr0 2.755211 1_565
O3 Sr0 2.755211 1_655
O3 Sr1 2.849106 1_555
O4 Sr2 2.649414 1_555
O4 Sr1 2.753876 1_455
O4 Sr1 2.753876 1_545
O4 Sr0 2.828203 1_555
O5 Sr1 2.735802 1_455
O5 Sr3 2.761341 1_555
O5 Sr0 2.861995 1_555
O6 Sr3 2.685093 1_655
O6 Sr2 2.790844 1_555
O6 Sr1 2.891715 1_545
O7 Sr2 2.748524 1_555
O7 Sr0 2.755518 1_564
O7 Sr3 2.872947 1_564
O8 Sr0 2.679054 1_554
O8 Sr1 2.787142 1_545
O8 Sr2 2.896162 1_555
O9 Sr0 2.713643 1_555
O9 Sr3 2.734308 1_565
O9 Sr2 2.740481 1_556
O9 Sr1 2.755754 1_455
O10 Sr0 2.679054 1_554
O10 Sr1 2.787142 1_455
O10 Sr2 2.896162 1_555
O11 Sr2 2.748524 1_555
O11 Sr0 2.755518 1_654
O11 Sr3 2.872947 1_654
O12 Sr1 2.735802 1_545
O12 Sr3 2.761341 1_555
O12 Sr0 2.861995 1_555
O13 Sr0 2.713643 1_555
O13 Sr3 2.734308 1_655
O13 Sr2 2.740481 1_556
O13 Sr1 2.755754 1_545
O14 Sr3 2.685093 1_565
O14 Sr2 2.790844 1_555
O14 Sr1 2.891715 1_455
