# generated using pymatgen
data_Er3In5
_symmetry_space_group_name_H-M   'P 1'
_cell_length_a   6.30128686
_cell_length_b   6.30128789
_cell_length_c   10.28486633
_cell_angle_alpha   89.99986708
_cell_angle_beta   90.00033558
_cell_angle_gamma   101.30108681
_symmetry_Int_Tables_number   1
_chemical_formula_structural   Er3In5
_chemical_formula_sum   'Er6 In10'
_cell_volume   400.45522000
_cell_formula_units_Z   2
loop_
 _symmetry_equiv_pos_site_id
 _symmetry_equiv_pos_as_xyz
  1  'x, y, z'
loop_
 _atom_site_type_symbol
 _atom_site_label
 _atom_site_symmetry_multiplicity
 _atom_site_fract_x
 _atom_site_fract_y
 _atom_site_fract_z
 _atom_site_occupancy
  Er  Er0  1  0.61980216  0.61980159  0.25000581  1
  Er  Er1  1  0.38019671  0.38019678  0.74999420  1
  Er  Er2  1  0.79620439  0.20379671  0.50000038  1
  Er  Er3  1  0.79620213  0.20379732  -0.00000033  1
  Er  Er4  1  0.20379467  0.79620401  0.50000088  1
  Er  Er5  1  0.20379788  0.79620343  -0.00000038  1
  In  In0  1  0.00600750  0.00600792  0.24999980  1
  In  In1  1  0.99399169  0.99399259  0.75000024  1
  In  In2  1  0.30774153  0.30774156  0.04403083  1
  In  In3  1  0.69225860  0.69225822  0.95596843  1
  In  In4  1  0.30774473  0.30774443  0.45597018  1
  In  In5  1  0.69225465  0.69225537  0.54402925  1
  In  In6  1  0.07418131  0.50977562  0.25000008  1
  In  In7  1  0.49022414  0.92581906  0.74999990  1
  In  In8  1  0.92581813  0.49022384  0.74999978  1
  In  In9  1  0.50977579  0.07418154  0.24999996  1
loop_
_geom_bond_atom_site_label_1
_geom_bond_atom_site_label_2
_geom_bond_distance
_geom_bond_site_symmetry_2
Er0 In6 3.075132 1_655
Er0 In9 3.075138 1_565
Er0 In5 3.078912 1_555
Er0 In3 3.079061 1_554
Er0 In0 3.086034 1_665
Er0 In4 3.271854 1_555
Er0 In2 3.271934 1_555
Er0 In9 3.371504 1_555
Er0 In6 3.371508 1_555
Er1 In7 3.075127 1_545
Er1 In8 3.075131 1_455
Er1 In4 3.078916 1_555
Er1 In2 3.079051 1_556
Er1 In1 3.086024 1_445
Er1 In5 3.271864 1_555
Er1 In3 3.271937 1_555
Er1 In8 3.371512 1_555
Er1 In7 3.371518 1_555
Er2 In8 3.155622 1_555
Er2 In9 3.155630 1_555
Er2 In4 3.193226 1_655
Er2 In5 3.193228 1_545
Er2 In1 3.249299 1_545
Er2 In0 3.249323 1_655
Er2 In4 3.301189 1_555
Er2 In5 3.301191 1_555
Er2 In6 3.474642 1_655
Er2 In7 3.474643 1_545
Er3 In8 3.155628 1_554
Er3 In9 3.155637 1_555
Er3 In2 3.193217 1_655
Er3 In3 3.193218 1_544
Er3 In0 3.249311 1_655
Er3 In1 3.249321 1_544
Er3 In3 3.301190 1_554
Er3 In2 3.301194 1_555
Er3 In7 3.474629 1_544
Er3 In6 3.474638 1_655
Er4 In7 3.155621 1_555
Er4 In6 3.155638 1_555
Er4 In5 3.193222 1_455
Er4 In4 3.193225 1_565
Er4 In0 3.249308 1_565
Er4 In1 3.249312 1_455
Er4 In5 3.301191 1_555
Er4 In4 3.301200 1_555
Er4 In8 3.474634 1_455
Er4 In9 3.474655 1_565
Er5 In7 3.155631 1_554
Er5 In6 3.155637 1_555
Er5 In2 3.193212 1_565
Er5 In3 3.193216 1_454
Er5 In1 3.249307 1_454
Er5 In0 3.249328 1_565
Er5 In2 3.301196 1_555
Er5 In3 3.301197 1_554
Er5 In9 3.474633 1_565
Er5 In8 3.474639 1_454
In0 In6 3.118783 1_555
In0 In9 3.118786 1_555
In0 In2 3.209462 1_555
In0 In4 3.209481 1_555
In0 In9 3.238595 1_455
In0 In6 3.238599 1_545
In1 In7 3.118781 1_555
In1 In8 3.118789 1_555
In1 In3 3.209456 1_555
In1 In5 3.209486 1_555
In1 In8 3.238592 1_565
In1 In7 3.238599 1_655
In2 In9 3.001410 1_555
In2 In6 3.001426 1_555
In2 In3 3.203251 1_554
In3 In7 3.001409 1_555
In3 In8 3.001421 1_555
In4 In6 3.001418 1_555
In4 In9 3.001433 1_555
In4 In5 3.203187 1_555
In5 In8 3.001423 1_555
In5 In7 3.001437 1_555
