# generated using pymatgen
data_Cr4OF11
_symmetry_space_group_name_H-M   'P 1'
_cell_length_a   5.10198941
_cell_length_b   5.33597087
_cell_length_c   8.78074139
_cell_angle_alpha   74.69939331
_cell_angle_beta   89.68043615
_cell_angle_gamma   118.21487667
_symmetry_Int_Tables_number   1
_chemical_formula_structural   Cr4OF11
_chemical_formula_sum   'Cr4 O1 F11'
_cell_volume   200.77460935
_cell_formula_units_Z   1
loop_
 _symmetry_equiv_pos_site_id
 _symmetry_equiv_pos_as_xyz
  1  'x, y, z'
loop_
 _atom_site_type_symbol
 _atom_site_label
 _atom_site_symmetry_multiplicity
 _atom_site_fract_x
 _atom_site_fract_y
 _atom_site_fract_z
 _atom_site_occupancy
  Cr  Cr0  1  0.49869700  0.98275600  0.49172100  1
  Cr  Cr1  1  0.99944600  0.00093700  0.00024900  1
  Cr  Cr2  1  0.25054800  0.50489200  0.25362800  1
  Cr  Cr3  1  0.74806600  0.49666000  0.74761100  1
  O  O0  1  0.50101900  0.76051700  0.38068100  1
  F  F0  1  0.99005400  0.74789700  0.87390700  1
  F  F1  1  0.56491400  0.75280100  0.68293900  1
  F  F2  1  0.56704800  0.75266600  0.06910900  1
  F  F3  1  0.00712700  0.25248500  0.12593300  1
  F  F4  1  0.50803100  0.24357600  0.62184900  1
  F  F5  1  0.93354400  0.24907600  0.81498500  1
  F  F6  1  0.43309500  0.25097400  0.93206300  1
  F  F7  1  0.93041500  0.25198200  0.43672500  1
  F  F8  1  0.43360600  0.24833600  0.31973000  1
  F  F9  1  0.06819900  0.75063000  0.56400100  1
  F  F10  1  0.06619400  0.75381500  0.18486800  1
loop_
_geom_bond_atom_site_label_1
_geom_bond_atom_site_label_2
_geom_bond_distance
_geom_bond_site_symmetry_2
Cr0 O0 1.726393 1_555
Cr0 F8 1.928822 1_565
Cr0 F1 1.936462 1_555
Cr0 F9 1.938637 1_555
Cr0 F7 1.943844 1_565
Cr0 F4 2.005482 1_565
Cr1 F3 1.937431 1_655
Cr1 F10 1.945588 1_645
Cr1 F0 1.945776 1_544
Cr1 F2 1.945857 1_545
Cr1 F5 1.950080 1_554
Cr1 F6 1.950910 1_654
Cr2 F10 1.943665 1_555
Cr2 F2 1.949918 1_555
Cr2 F7 1.953241 1_455
Cr2 F3 1.960740 1_555
Cr2 F8 1.969497 1_555
Cr2 O0 1.977117 1_555
Cr3 F5 1.940789 1_555
Cr3 F4 1.944549 1_555
Cr3 F6 1.944883 1_555
Cr3 F0 1.945809 1_555
Cr3 F9 1.956557 1_655
Cr3 F1 1.966624 1_555
