# generated using pymatgen
data_HoInIr
_symmetry_space_group_name_H-M   'P 1'
_cell_length_a   7.42446314
_cell_length_b   7.42446446
_cell_length_c   3.95577084
_cell_angle_alpha   90.00000000
_cell_angle_beta   90.00000000
_cell_angle_gamma   120.00000320
_symmetry_Int_Tables_number   1
_chemical_formula_structural   HoInIr
_chemical_formula_sum   'Ho3 In3 Ir3'
_cell_volume   188.83910377
_cell_formula_units_Z   3
loop_
 _symmetry_equiv_pos_site_id
 _symmetry_equiv_pos_as_xyz
  1  'x, y, z'
loop_
 _atom_site_type_symbol
 _atom_site_label
 _atom_site_symmetry_multiplicity
 _atom_site_fract_x
 _atom_site_fract_y
 _atom_site_fract_z
 _atom_site_occupancy
  Ho  Ho0  1  0.59455206  0.59455206  -0.00000000  1
  Ho  Ho1  1  0.40544794  1.00000000  0.00000000  1
  Ho  Ho2  1  0.00000000  0.40544794  0.00000000  1
  In  In0  1  0.00000000  0.74361264  0.50000000  1
  In  In1  1  0.25638736  0.25638736  0.50000000  1
  In  In2  1  0.74361264  1.00000000  0.50000000  1
  Ir  Ir0  1  -0.00000000  -0.00000000  -0.00000000  1
  Ir  Ir1  1  0.66666700  0.33333300  0.50000000  1
  Ir  Ir2  1  0.33333300  0.66666700  0.50000000  1
loop_
_geom_bond_atom_site_label_1
_geom_bond_atom_site_label_2
_geom_bond_distance
_geom_bond_site_symmetry_2
Ho0 Ir2 2.999734 1_555
Ho0 Ir2 2.999734 1_554
Ho0 Ir1 2.999734 1_554
Ho0 Ir1 2.999734 1_555
Ho0 Ir0 3.010233 1_665
Ho0 In1 3.196186 1_554
Ho0 In1 3.196186 1_555
Ho0 In0 3.296498 1_654
Ho0 In0 3.296498 1_655
Ho0 In2 3.296498 1_554
Ho0 In2 3.296498 1_555
Ho1 Ir2 2.999729 1_554
Ho1 Ir2 2.999729 1_555
Ho1 Ir1 2.999731 1_565
Ho1 Ir1 2.999731 1_564
Ho1 Ir0 3.010233 1_565
Ho1 In2 3.196186 1_555
Ho1 In2 3.196186 1_554
Ho1 In0 3.296498 1_554
Ho1 In0 3.296498 1_555
Ho1 In1 3.296498 1_564
Ho1 In1 3.296498 1_565
Ho2 Ir1 2.999729 1_455
Ho2 Ir1 2.999729 1_454
Ho2 Ir2 2.999730 1_555
Ho2 Ir2 2.999730 1_554
Ho2 Ir0 3.010234 1_555
Ho2 In0 3.196186 1_554
Ho2 In0 3.196186 1_555
Ho2 In1 3.296498 1_555
Ho2 In1 3.296498 1_554
Ho2 In2 3.296498 1_444
Ho2 In2 3.296498 1_445
In0 Ir0 2.745085 1_566
In0 Ir0 2.745085 1_565
In0 Ir2 2.804443 1_555
In0 Ir1 2.804448 1_455
In1 Ir0 2.745085 1_556
In1 Ir0 2.745085 1_555
In1 Ir1 2.804451 1_555
In1 Ir2 2.804451 1_555
In2 Ir0 2.745085 1_666
In2 Ir0 2.745085 1_665
In2 Ir1 2.804444 1_565
In2 Ir2 2.804448 1_555
