# generated using pymatgen
data_Na3Mg5Si8(HO12)2
_symmetry_space_group_name_H-M   'P 1'
_cell_length_a   18.28244100
_cell_length_b   5.34739300
_cell_length_c   10.00307688
_cell_angle_alpha   76.77494962
_cell_angle_beta   90.00000000
_cell_angle_gamma   90.00000000
_symmetry_Int_Tables_number   1
_chemical_formula_structural   Na3Mg5Si8(HO12)2
_chemical_formula_sum   'Na6 Mg10 Si16 H4 O48'
_cell_volume   951.99894111
_cell_formula_units_Z   2
loop_
 _symmetry_equiv_pos_site_id
 _symmetry_equiv_pos_as_xyz
  1  'x, y, z'
loop_
 _atom_site_type_symbol
 _atom_site_label
 _atom_site_symmetry_multiplicity
 _atom_site_fract_x
 _atom_site_fract_y
 _atom_site_fract_z
 _atom_site_occupancy
  Na  Na0  1  0.25000000  0.44677200  0.27214300  1
  Na  Na1  1  0.75000000  0.55322800  0.72785700  1
  Na  Na2  1  0.47673700  0.98242000  0.25941800  1
  Na  Na3  1  0.52326300  0.01758000  0.74058200  1
  Na  Na4  1  0.97673700  0.01758000  0.74058200  1
  Na  Na5  1  0.02326300  0.98242000  0.25941800  1
  Mg  Mg0  1  0.83921200  0.98580000  0.24667500  1
  Mg  Mg1  1  0.16078800  0.01420000  0.75332500  1
  Mg  Mg2  1  0.33921200  0.01420000  0.75332500  1
  Mg  Mg3  1  0.66078800  0.98580000  0.24667500  1
  Mg  Mg4  1  0.92904100  0.48727100  0.24963300  1
  Mg  Mg5  1  0.07095900  0.51272900  0.75036700  1
  Mg  Mg6  1  0.42904100  0.51272900  0.75036700  1
  Mg  Mg7  1  0.57095900  0.48727100  0.24963300  1
  Mg  Mg8  1  0.25000000  0.51506400  0.75397000  1
  Mg  Mg9  1  0.75000000  0.48493600  0.24603000  1
  Si  Si0  1  0.33419000  0.80116900  0.47459100  1
  Si  Si1  1  0.66581000  0.19883100  0.52540900  1
  Si  Si2  1  0.83419000  0.19883100  0.52540900  1
  Si  Si3  1  0.16581000  0.80116900  0.47459100  1
  Si  Si4  1  0.41831800  0.30750600  0.46476200  1
  Si  Si5  1  0.58168200  0.69249400  0.53523800  1
  Si  Si6  1  0.91831800  0.69249400  0.53523800  1
  Si  Si7  1  0.08168200  0.30750600  0.46476200  1
  Si  Si8  1  0.41922800  0.72046300  0.03805200  1
  Si  Si9  1  0.58077200  0.27953700  0.96194800  1
  Si  Si10  1  0.91922800  0.27953700  0.96194800  1
  Si  Si11  1  0.08077200  0.72046300  0.03805200  1
  Si  Si12  1  0.33491200  0.22888200  0.03008200  1
  Si  Si13  1  0.66508800  0.77111800  0.96991800  1
  Si  Si14  1  0.83491200  0.77111800  0.96991800  1
  Si  Si15  1  0.16508800  0.22888200  0.03008200  1
  H  H0  1  0.25000000  0.75530800  0.95909100  1
  H  H1  1  0.75000000  0.24469200  0.04090900  1
  H  H2  1  0.25000000  0.26638800  0.55161800  1
  H  H3  1  0.75000000  0.73361200  0.44838200  1
  O  O0  1  0.37897300  0.59545000  0.40536800  1
  O  O1  1  0.62102700  0.40455000  0.59463200  1
  O  O2  1  0.87897300  0.40455000  0.59463200  1
  O  O3  1  0.12102700  0.59545000  0.40536800  1
  O  O4  1  0.36910700  0.45603900  0.09808900  1
  O  O5  1  0.63089300  0.54396100  0.90191100  1
  O  O6  1  0.86910700  0.54396100  0.90191100  1
  O  O7  1  0.13089300  0.45603900  0.09808900  1
  O  O8  1  0.25000000  0.20632200  0.09063700  1
  O  O9  1  0.75000000  0.79367800  0.90936300  1
  O  O10  1  0.86120900  0.90094400  0.58925300  1
  O  O11  1  0.13879100  0.09905600  0.41074700  1
  O  O12  1  0.36120900  0.09905600  0.41074700  1
  O  O13  1  0.63879100  0.90094400  0.58925300  1
  O  O14  1  0.25000000  0.22239400  0.65064800  1
  O  O15  1  0.75000000  0.77760600  0.34935200  1
  O  O16  1  0.91790700  0.76223500  0.36898300  1
  O  O17  1  0.08209300  0.23776500  0.63101700  1
  O  O18  1  0.41790700  0.23776500  0.63101700  1
  O  O19  1  0.58209300  0.76223500  0.36898300  1
  O  O20  1  0.25000000  0.80418900  0.85994900  1
  O  O21  1  0.75000000  0.19581100  0.14005100  1
  O  O22  1  0.33638800  0.72844400  0.64053400  1
  O  O23  1  0.66361200  0.27155600  0.35946600  1
  O  O24  1  0.83638800  0.27155600  0.35946600  1
  O  O25  1  0.16361200  0.72844400  0.64053400  1
  O  O26  1  0.25000000  0.78124600  0.41563600  1
  O  O27  1  0.75000000  0.21875400  0.58436400  1
  O  O28  1  0.83655700  0.69878400  0.13574800  1
  O  O29  1  0.16344300  0.30121600  0.86425200  1
  O  O30  1  0.33655700  0.30121600  0.86425200  1
  O  O31  1  0.66344300  0.69878400  0.13574800  1
  O  O32  1  0.37461000  0.95277100  0.09421500  1
  O  O33  1  0.62539000  0.04722900  0.90578500  1
  O  O34  1  0.87461000  0.04722900  0.90578500  1
  O  O35  1  0.12539000  0.95277100  0.09421500  1
  O  O36  1  0.50522800  0.70218300  0.61383500  1
  O  O37  1  0.49477200  0.29781700  0.38616500  1
  O  O38  1  0.00522800  0.29781700  0.38616500  1
  O  O39  1  0.99477200  0.70218300  0.61383500  1
  O  O40  1  0.49651500  0.68772000  0.11742400  1
  O  O41  1  0.50348500  0.31228000  0.88257600  1
  O  O42  1  0.99651500  0.31228000  0.88257600  1
  O  O43  1  0.00348500  0.68772000  0.11742400  1
  O  O44  1  0.41913600  0.78801700  0.87152300  1
  O  O45  1  0.58086400  0.21198300  0.12847700  1
  O  O46  1  0.91913600  0.21198300  0.12847700  1
  O  O47  1  0.08086400  0.78801700  0.87152300  1
loop_
_geom_bond_atom_site_label_1
_geom_bond_atom_site_label_2
_geom_bond_distance
_geom_bond_site_symmetry_2
Na0 O8 2.453131 1_555
Na0 O26 2.536515 1_555
Na0 O4 2.781388 1_555
Na0 O7 2.781388 1_555
Na0 O11 2.886832 1_555
Na0 O12 2.886832 1_555
Na0 O0 2.907360 1_555
Na0 O3 2.907360 1_555
Na1 O9 2.453131 1_555
Na1 O27 2.536515 1_555
Na1 O6 2.781388 1_555
Na1 O5 2.781388 1_555
Na1 O13 2.886832 1_555
Na1 O10 2.886832 1_555
Na1 O1 2.907360 1_555
Na1 O2 2.907360 1_555
Na2 O37 2.353515 1_565
Na2 O40 2.378185 1_555
Na2 O19 2.388967 1_555
Na2 O45 2.472021 1_565
Na2 O32 2.522316 1_555
Na2 O12 2.752009 1_565
Na2 O0 2.868058 1_555
Na3 O36 2.353515 1_545
Na3 O41 2.378185 1_555
Na3 O18 2.388967 1_555
Na3 O44 2.472021 1_545
Na3 O33 2.522316 1_555
Na3 O13 2.752009 1_545
Na3 O1 2.868058 1_555
Na4 O39 2.353515 1_545
Na4 O42 2.378185 1_555
Na4 O17 2.388967 1_655
Na4 O47 2.472021 1_645
Na4 O34 2.522316 1_555
Na4 O10 2.752009 1_545
Na4 O2 2.868058 1_555
Na5 O38 2.353515 1_565
Na5 O43 2.378185 1_555
Na5 O16 2.388967 1_455
Na5 O46 2.472021 1_465
Na5 O35 2.522316 1_555
Na5 O11 2.752009 1_565
Na5 O3 2.868058 1_555
Mg0 O16 2.080090 1_555
Mg0 O46 2.083653 1_565
Mg0 O28 2.090068 1_555
Mg0 O24 2.097475 1_565
Mg0 O15 2.105076 1_555
Mg0 O21 2.123884 1_565
Mg1 O17 2.080090 1_555
Mg1 O47 2.083653 1_545
Mg1 O29 2.090068 1_555
Mg1 O25 2.097475 1_545
Mg1 O14 2.105076 1_555
Mg1 O20 2.123884 1_545
Mg2 O18 2.080090 1_555
Mg2 O44 2.083653 1_545
Mg2 O30 2.090068 1_555
Mg2 O22 2.097475 1_545
Mg2 O14 2.105076 1_555
Mg2 O20 2.123884 1_545
Mg3 O19 2.080090 1_555
Mg3 O45 2.083653 1_565
Mg3 O31 2.090068 1_555
Mg3 O23 2.097475 1_565
Mg3 O15 2.105076 1_555
Mg3 O21 2.123884 1_565
Mg4 O43 2.025262 1_655
Mg4 O38 2.049058 1_655
Mg4 O16 2.105194 1_555
Mg4 O46 2.117752 1_555
Mg4 O24 2.197082 1_555
Mg4 O28 2.201455 1_555
Mg5 O42 2.025262 1_455
Mg5 O39 2.049058 1_455
Mg5 O17 2.105194 1_555
Mg5 O47 2.117752 1_555
Mg5 O25 2.197082 1_555
Mg5 O29 2.201455 1_555
Mg6 O41 2.025262 1_555
Mg6 O36 2.049058 1_555
Mg6 O18 2.105194 1_555
Mg6 O44 2.117752 1_555
Mg6 O22 2.197082 1_555
Mg6 O30 2.201455 1_555
Mg7 O40 2.025262 1_555
Mg7 O37 2.049058 1_555
Mg7 O19 2.105194 1_555
Mg7 O45 2.117752 1_555
Mg7 O23 2.197082 1_555
Mg7 O31 2.201455 1_555
Mg8 O14 2.063393 1_555
Mg8 O20 2.064969 1_555
Mg8 O29 2.109891 1_555
Mg8 O30 2.109891 1_555
Mg8 O22 2.119328 1_555
Mg8 O25 2.119328 1_555
Mg9 O15 2.063393 1_555
Mg9 O21 2.064969 1_555
Mg9 O31 2.109891 1_555
Mg9 O28 2.109891 1_555
Mg9 O24 2.119328 1_555
Mg9 O23 2.119328 1_555
H0 O20 0.966040 1_555
H1 O21 0.966040 1_555
H2 O14 0.964371 1_555
H2 Na0 2.740806 1_555
H3 O15 0.964371 1_555
H3 Na1 2.740806 1_555
O0 Si0 1.645746 1_555
O0 Si4 1.680079 1_555
O1 Si1 1.645746 1_555
O1 Si5 1.680079 1_555
O2 Si2 1.645746 1_555
O2 Si6 1.680079 1_555
O3 Si3 1.645746 1_555
O3 Si7 1.680079 1_555
O4 Si12 1.645356 1_555
O4 Si8 1.676642 1_555
O5 Si13 1.645356 1_555
O5 Si9 1.676642 1_555
O6 Si14 1.645356 1_555
O6 Si10 1.676642 1_555
O7 Si15 1.645356 1_555
O7 Si11 1.676642 1_555
O8 Si12 1.660715 1_555
O8 Si15 1.660715 1_555
O9 Si13 1.660715 1_555
O9 Si14 1.660715 1_555
O10 Si2 1.650391 1_565
O10 Si6 1.702973 1_555
O11 Si3 1.650391 1_545
O11 Si7 1.702973 1_555
O12 Si0 1.650391 1_545
O12 Si4 1.702973 1_555
O13 Si1 1.650391 1_565
O13 Si5 1.702973 1_555
O16 Si6 1.618990 1_555
O17 Si7 1.618990 1_555
O18 Si4 1.618990 1_555
O19 Si5 1.618990 1_555
O22 Si0 1.616443 1_555
O23 Si1 1.616443 1_555
O24 Si2 1.616443 1_555
O25 Si3 1.616443 1_555
O26 Si3 1.660425 1_555
O26 Si0 1.660425 1_555
O27 Si1 1.660425 1_555
O27 Si2 1.660425 1_555
O28 Si14 1.615113 1_554
O29 Si15 1.615113 1_556
O30 Si12 1.615113 1_556
O31 Si13 1.615113 1_554
O32 Si12 1.638564 1_565
O32 Si8 1.686274 1_555
O33 Si13 1.638564 1_545
O33 Si9 1.686274 1_555
O34 Si14 1.638564 1_545
O34 Si10 1.686274 1_555
O35 Si15 1.638564 1_565
O35 Si11 1.686274 1_555
O36 Si5 1.610342 1_555
O37 Si4 1.610342 1_555
O38 Si7 1.610342 1_555
O39 Si6 1.610342 1_555
O40 Si8 1.610585 1_555
O41 Si9 1.610585 1_555
O42 Si10 1.610585 1_555
O43 Si11 1.610585 1_555
O44 Si8 1.621746 1_556
O45 Si9 1.621746 1_554
O46 Si10 1.621746 1_554
O47 Si11 1.621746 1_556
