# generated using pymatgen
data_BaGaB4H3O10
_symmetry_space_group_name_H-M   'P 1'
_cell_length_a   7.11815321
_cell_length_b   7.11605916
_cell_length_c   9.80569790
_cell_angle_alpha   108.74589901
_cell_angle_beta   88.79368003
_cell_angle_gamma   119.04908463
_symmetry_Int_Tables_number   1
_chemical_formula_structural   BaGaB4H3O10
_chemical_formula_sum   'Ba2 Ga2 B8 H6 O20'
_cell_volume   405.67138761
_cell_formula_units_Z   2
loop_
 _symmetry_equiv_pos_site_id
 _symmetry_equiv_pos_as_xyz
  1  'x, y, z'
loop_
 _atom_site_type_symbol
 _atom_site_label
 _atom_site_symmetry_multiplicity
 _atom_site_fract_x
 _atom_site_fract_y
 _atom_site_fract_z
 _atom_site_occupancy
  Ba  Ba0  1  0.42575716  0.20161493  0.29427767  1
  Ba  Ba1  1  0.57424284  0.79838507  0.70572233  1
  Ga  Ga0  1  0.88725142  0.41203032  0.61836018  1
  Ga  Ga1  1  0.11274858  0.58796968  0.38163982  1
  B  B0  1  0.94416957  0.86124157  0.34342991  1
  B  B1  1  0.05583043  0.13875843  0.65657009  1
  B  B2  1  0.56675308  0.74684571  0.35318321  1
  B  B3  1  0.43324692  0.25315429  0.64681679  1
  B  B4  1  0.80506450  0.09509932  0.29109130  1
  B  B5  1  0.19493550  0.90490068  0.70890870  1
  B  B6  1  0.87831824  0.25912767  0.08767550  1
  B  B7  1  0.12168176  0.74087233  0.91232450  1
  H  H0  1  0.33242588  0.18184977  0.97983387  1
  H  H1  1  0.66757412  0.81815023  0.02016613  1
  H  H2  1  0.28976699  0.38440664  0.06817029  1
  H  H3  1  0.71023301  0.61559336  0.93182971  1
  H  H4  1  0.86858995  0.33398262  0.90583644  1
  H  H5  1  0.13141005  0.66601738  0.09416356  1
  O  O0  1  0.97257531  0.03476325  0.29862414  1
  O  O1  1  0.02742469  0.96523675  0.70137586  1
  O  O2  1  0.37935484  0.31707630  0.06984293  1
  O  O3  1  0.62064516  0.68292270  0.93015707  1
  O  O4  1  0.12062998  0.85255176  0.37938614  1
  O  O5  1  0.87937002  0.14744824  0.62061386  1
  O  O6  1  0.73661128  0.70077045  0.35585848  1
  O  O7  1  0.26338872  0.29922955  0.64414152  1
  O  O8  1  0.38410485  0.60650009  0.39500611  1
  O  O9  1  0.61589515  0.39349991  0.60499389  1
  O  O10  1  0.59559057  0.92762619  0.31915967  1
  O  O11  1  0.40440943  0.07237381  0.68084033  1
  O  O12  1  0.86992474  0.32295684  0.39783916  1
  O  O13  1  0.13007526  0.67704316  0.60216084  1
  O  O14  1  0.75729656  0.08961660  0.14415327  1
  O  O15  1  0.24270344  0.91038340  0.85584673  1
  O  O16  1  0.05238962  0.46446865  0.16740207  1
  O  O17  1  0.94761038  0.53553135  0.83259793  1
  O  O18  1  0.80688807  0.20448645  0.94328818  1
  O  O19  1  0.19311193  0.79551355  0.05671182  1
loop_
_geom_bond_atom_site_label_1
_geom_bond_atom_site_label_2
_geom_bond_distance
_geom_bond_site_symmetry_2
Ba0 O2 2.661538 1_555
Ba0 O4 2.756941 1_545
Ba0 O19 2.776380 1_545
Ba0 O10 2.815935 1_545
Ba0 O0 2.850390 1_455
Ba0 O8 2.890128 1_555
Ba0 O9 2.946887 1_555
Ba0 O12 2.948440 1_555
Ba0 O6 2.987078 1_555
Ba0 O14 3.049215 1_555
Ba1 O3 2.661542 1_555
Ba1 O5 2.756941 1_565
Ba1 O18 2.776380 1_565
Ba1 O11 2.815935 1_565
Ba1 O1 2.850390 1_655
Ba1 O9 2.890128 1_555
Ba1 O8 2.946887 1_555
Ba1 O13 2.948440 1_555
Ba1 O7 2.987078 1_555
Ba1 O15 3.049215 1_555
Ga0 O5 1.863496 1_555
Ga0 O9 1.875548 1_555
Ga0 O13 1.893340 1_655
Ga0 O17 1.963359 1_555
Ga0 O12 2.036455 1_555
Ga1 O4 1.863496 1_555
Ga1 O8 1.875548 1_555
Ga1 O12 1.893340 1_455
Ga1 O16 1.963359 1_555
Ga1 O13 2.036455 1_555
B0 O4 1.346826 1_655
B0 O0 1.364227 1_565
B0 O6 1.394678 1_555
B1 O5 1.346826 1_455
B1 O1 1.364227 1_545
B1 O7 1.394678 1_555
B2 O10 1.350894 1_555
B2 O8 1.354907 1_555
B2 O6 1.400677 1_555
B3 O11 1.350894 1_555
B3 O9 1.354907 1_555
B3 O7 1.400677 1_555
B4 O0 1.460410 1_555
B4 O12 1.463008 1_555
B4 O14 1.471306 1_555
B4 O10 1.478915 1_545
B5 O1 1.460410 1_555
B5 O13 1.463008 1_555
B5 O15 1.471306 1_555
B5 O11 1.478915 1_565
B6 O16 1.352744 1_655
B6 O18 1.377946 1_554
B6 O14 1.379857 1_555
B7 O17 1.352744 1_455
B7 O19 1.377946 1_556
B7 O15 1.379857 1_555
H0 O2 0.985352 1_556
H1 O3 0.985356 1_554
H2 O2 0.968864 1_555
H3 O3 0.968859 1_555
H4 O18 0.997304 1_555
H4 O17 1.658537 1_555
H5 O19 0.997304 1_555
H5 O16 1.658537 1_555
