# generated using pymatgen
data_NaZn(PO3)3
_symmetry_space_group_name_H-M   'P 1'
_cell_length_a   14.46015427
_cell_length_b   14.46015427
_cell_length_c   14.46015427
_cell_angle_alpha   90.00000000
_cell_angle_beta   90.00000000
_cell_angle_gamma   90.00000000
_symmetry_Int_Tables_number   1
_chemical_formula_structural   NaZn(PO3)3
_chemical_formula_sum   'Na16 Zn16 P48 O144'
_cell_volume   3023.56130672
_cell_formula_units_Z   16
loop_
 _symmetry_equiv_pos_site_id
 _symmetry_equiv_pos_as_xyz
  1  'x, y, z'
loop_
 _atom_site_type_symbol
 _atom_site_label
 _atom_site_symmetry_multiplicity
 _atom_site_fract_x
 _atom_site_fract_y
 _atom_site_fract_z
 _atom_site_occupancy
  Na  Na0  1  0.00000000  0.00000000  0.50000000  1
  Na  Na1  1  0.00000000  0.50000000  0.00000000  1
  Na  Na2  1  0.50000000  0.00000000  0.00000000  1
  Na  Na3  1  0.50000000  0.50000000  0.50000000  1
  Na  Na4  1  0.50000000  0.50000000  0.00000000  1
  Na  Na5  1  0.50000000  0.00000000  0.50000000  1
  Na  Na6  1  0.00000000  0.50000000  0.50000000  1
  Na  Na7  1  0.00000000  0.00000000  0.00000000  1
  Na  Na8  1  0.24854096  0.75145904  0.25145904  1
  Na  Na9  1  0.75145904  0.25145904  0.24854096  1
  Na  Na10  1  0.25145904  0.24854096  0.75145904  1
  Na  Na11  1  0.74854096  0.74854096  0.74854096  1
  Na  Na12  1  0.75145904  0.24854096  0.74854096  1
  Na  Na13  1  0.24854096  0.74854096  0.75145904  1
  Na  Na14  1  0.74854096  0.75145904  0.24854096  1
  Na  Na15  1  0.25145904  0.25145904  0.25145904  1
  Zn  Zn0  1  0.36888215  0.63111785  0.13111785  1
  Zn  Zn1  1  0.63111785  0.13111785  0.36888215  1
  Zn  Zn2  1  0.13111785  0.36888215  0.63111785  1
  Zn  Zn3  1  0.86888215  0.86888215  0.86888215  1
  Zn  Zn4  1  0.63111785  0.36888215  0.86888215  1
  Zn  Zn5  1  0.36888215  0.86888215  0.63111785  1
  Zn  Zn6  1  0.86888215  0.63111785  0.36888215  1
  Zn  Zn7  1  0.13111785  0.13111785  0.13111785  1
  Zn  Zn8  1  0.12180242  0.87819758  0.37819758  1
  Zn  Zn9  1  0.87819758  0.37819758  0.12180242  1
  Zn  Zn10  1  0.37819758  0.12180242  0.87819758  1
  Zn  Zn11  1  0.62180242  0.62180242  0.62180242  1
  Zn  Zn12  1  0.87819758  0.12180242  0.62180242  1
  Zn  Zn13  1  0.12180242  0.62180242  0.87819758  1
  Zn  Zn14  1  0.62180242  0.87819758  0.12180242  1
  Zn  Zn15  1  0.37819758  0.37819758  0.37819758  1
  P  P0  1  0.02159664  0.52583819  0.24222172  1
  P  P1  1  0.97840336  0.02583819  0.25777828  1
  P  P2  1  0.47840336  0.47416181  0.74222172  1
  P  P3  1  0.52159664  0.97416181  0.75777828  1
  P  P4  1  0.24222172  0.02159664  0.52583819  1
  P  P5  1  0.25777828  0.97840336  0.02583819  1
  P  P6  1  0.74222172  0.47840336  0.47416181  1
  P  P7  1  0.75777828  0.52159664  0.97416181  1
  P  P8  1  0.52583819  0.24222172  0.02159664  1
  P  P9  1  0.02583819  0.25777828  0.97840336  1
  P  P10  1  0.47416181  0.74222172  0.47840336  1
  P  P11  1  0.97416181  0.75777828  0.52159664  1
  P  P12  1  0.97840336  0.47416181  0.75777828  1
  P  P13  1  0.02159664  0.97416181  0.74222172  1
  P  P14  1  0.52159664  0.52583819  0.25777828  1
  P  P15  1  0.47840336  0.02583819  0.24222172  1
  P  P16  1  0.75777828  0.97840336  0.47416181  1
  P  P17  1  0.74222172  0.02159664  0.97416181  1
  P  P18  1  0.25777828  0.52159664  0.52583819  1
  P  P19  1  0.24222172  0.47840336  0.02583819  1
  P  P20  1  0.47416181  0.75777828  0.97840336  1
  P  P21  1  0.97416181  0.74222172  0.02159664  1
  P  P22  1  0.52583819  0.25777828  0.52159664  1
  P  P23  1  0.02583819  0.24222172  0.47840336  1
  P  P24  1  0.01193947  0.72973255  0.22459992  1
  P  P25  1  0.98806053  0.22973255  0.27540008  1
  P  P26  1  0.48806053  0.27026745  0.72459992  1
  P  P27  1  0.51193947  0.77026745  0.77540008  1
  P  P28  1  0.22459992  0.01193947  0.72973255  1
  P  P29  1  0.27540008  0.98806053  0.22973255  1
  P  P30  1  0.72459992  0.48806053  0.27026745  1
  P  P31  1  0.77540008  0.51193947  0.77026745  1
  P  P32  1  0.72973255  0.22459992  0.01193947  1
  P  P33  1  0.22973255  0.27540008  0.98806053  1
  P  P34  1  0.27026745  0.72459992  0.48806053  1
  P  P35  1  0.77026745  0.77540008  0.51193947  1
  P  P36  1  0.98806053  0.27026745  0.77540008  1
  P  P37  1  0.01193947  0.77026745  0.72459992  1
  P  P38  1  0.51193947  0.72973255  0.27540008  1
  P  P39  1  0.48806053  0.22973255  0.22459992  1
  P  P40  1  0.77540008  0.98806053  0.27026745  1
  P  P41  1  0.72459992  0.01193947  0.77026745  1
  P  P42  1  0.27540008  0.51193947  0.72973255  1
  P  P43  1  0.22459992  0.48806053  0.22973255  1
  P  P44  1  0.27026745  0.77540008  0.98806053  1
  P  P45  1  0.77026745  0.72459992  0.01193947  1
  P  P46  1  0.72973255  0.27540008  0.51193947  1
  P  P47  1  0.22973255  0.22459992  0.48806053  1
  O  O0  1  0.37840423  0.98650243  0.27262499  1
  O  O1  1  0.62159577  0.48650243  0.22737501  1
  O  O2  1  0.12159577  0.01349757  0.77262499  1
  O  O3  1  0.87840423  0.51349757  0.72737501  1
  O  O4  1  0.27262499  0.37840423  0.98650243  1
  O  O5  1  0.22737501  0.62159577  0.48650243  1
  O  O6  1  0.77262499  0.12159577  0.01349757  1
  O  O7  1  0.72737501  0.87840423  0.51349757  1
  O  O8  1  0.98650243  0.27262499  0.37840423  1
  O  O9  1  0.48650243  0.22737501  0.62159577  1
  O  O10  1  0.01349757  0.77262499  0.12159577  1
  O  O11  1  0.51349757  0.72737501  0.87840423  1
  O  O12  1  0.62159577  0.01349757  0.72737501  1
  O  O13  1  0.37840423  0.51349757  0.77262499  1
  O  O14  1  0.87840423  0.98650243  0.22737501  1
  O  O15  1  0.12159577  0.48650243  0.27262499  1
  O  O16  1  0.72737501  0.62159577  0.01349757  1
  O  O17  1  0.77262499  0.37840423  0.51349757  1
  O  O18  1  0.22737501  0.87840423  0.98650243  1
  O  O19  1  0.27262499  0.12159577  0.48650243  1
  O  O20  1  0.01349757  0.72737501  0.62159577  1
  O  O21  1  0.51349757  0.77262499  0.37840423  1
  O  O22  1  0.98650243  0.22737501  0.87840423  1
  O  O23  1  0.48650243  0.27262499  0.12159577  1
  O  O24  1  0.46716913  0.53225099  0.16947856  1
  O  O25  1  0.53283087  0.03225099  0.33052144  1
  O  O26  1  0.03283087  0.46774901  0.66947856  1
  O  O27  1  0.96716913  0.96774901  0.83052144  1
  O  O28  1  0.16947856  0.46716913  0.53225099  1
  O  O29  1  0.33052144  0.53283087  0.03225099  1
  O  O30  1  0.66947856  0.03283087  0.46774901  1
  O  O31  1  0.83052144  0.96716913  0.96774901  1
  O  O32  1  0.53225099  0.16947856  0.46716913  1
  O  O33  1  0.03225099  0.33052144  0.53283087  1
  O  O34  1  0.46774901  0.66947856  0.03283087  1
  O  O35  1  0.96774901  0.83052144  0.96716913  1
  O  O36  1  0.53283087  0.46774901  0.83052144  1
  O  O37  1  0.46716913  0.96774901  0.66947856  1
  O  O38  1  0.96716913  0.53225099  0.33052144  1
  O  O39  1  0.03283087  0.03225099  0.16947856  1
  O  O40  1  0.83052144  0.53283087  0.46774901  1
  O  O41  1  0.66947856  0.46716913  0.96774901  1
  O  O42  1  0.33052144  0.96716913  0.53225099  1
  O  O43  1  0.16947856  0.03283087  0.03225099  1
  O  O44  1  0.46774901  0.83052144  0.53283087  1
  O  O45  1  0.96774901  0.66947856  0.46716913  1
  O  O46  1  0.53225099  0.33052144  0.96716913  1
  O  O47  1  0.03225099  0.16947856  0.03283087  1
  O  O48  1  0.01657881  0.97257898  0.33797428  1
  O  O49  1  0.98342119  0.47257898  0.16202572  1
  O  O50  1  0.48342119  0.02742102  0.83797428  1
  O  O51  1  0.51657881  0.52742102  0.66202572  1
  O  O52  1  0.33797428  0.01657881  0.97257898  1
  O  O53  1  0.16202572  0.98342119  0.47257898  1
  O  O54  1  0.83797428  0.48342119  0.02742102  1
  O  O55  1  0.66202572  0.51657881  0.52742102  1
  O  O56  1  0.97257898  0.33797428  0.01657881  1
  O  O57  1  0.47257898  0.16202572  0.98342119  1
  O  O58  1  0.02742102  0.83797428  0.48342119  1
  O  O59  1  0.52742102  0.66202572  0.51657881  1
  O  O60  1  0.98342119  0.02742102  0.66202572  1
  O  O61  1  0.01657881  0.52742102  0.83797428  1
  O  O62  1  0.51657881  0.97257898  0.16202572  1
  O  O63  1  0.48342119  0.47257898  0.33797428  1
  O  O64  1  0.66202572  0.98342119  0.02742102  1
  O  O65  1  0.83797428  0.01657881  0.52742102  1
  O  O66  1  0.16202572  0.51657881  0.97257898  1
  O  O67  1  0.33797428  0.48342119  0.47257898  1
  O  O68  1  0.02742102  0.66202572  0.98342119  1
  O  O69  1  0.52742102  0.83797428  0.01657881  1
  O  O70  1  0.97257898  0.16202572  0.51657881  1
  O  O71  1  0.47257898  0.33797428  0.48342119  1
  O  O72  1  0.41461766  0.72469912  0.23804153  1
  O  O73  1  0.58538234  0.22469912  0.26195847  1
  O  O74  1  0.08538234  0.27530088  0.73804153  1
  O  O75  1  0.91461766  0.77530088  0.76195847  1
  O  O76  1  0.23804153  0.41461766  0.72469912  1
  O  O77  1  0.26195847  0.58538234  0.22469912  1
  O  O78  1  0.73804153  0.08538234  0.27530088  1
  O  O79  1  0.76195847  0.91461766  0.77530088  1
  O  O80  1  0.72469912  0.23804153  0.41461766  1
  O  O81  1  0.22469912  0.26195847  0.58538234  1
  O  O82  1  0.27530088  0.73804153  0.08538234  1
  O  O83  1  0.77530088  0.76195847  0.91461766  1
  O  O84  1  0.58538234  0.27530088  0.76195847  1
  O  O85  1  0.41461766  0.77530088  0.73804153  1
  O  O86  1  0.91461766  0.72469912  0.26195847  1
  O  O87  1  0.08538234  0.22469912  0.23804153  1
  O  O88  1  0.76195847  0.58538234  0.27530088  1
  O  O89  1  0.73804153  0.41461766  0.77530088  1
  O  O90  1  0.26195847  0.91461766  0.72469912  1
  O  O91  1  0.23804153  0.08538234  0.22469912  1
  O  O92  1  0.27530088  0.76195847  0.58538234  1
  O  O93  1  0.77530088  0.73804153  0.41461766  1
  O  O94  1  0.72469912  0.26195847  0.91461766  1
  O  O95  1  0.22469912  0.23804153  0.08538234  1
  O  O96  1  0.08513793  0.78056283  0.27667119  1
  O  O97  1  0.91486207  0.28056283  0.22332881  1
  O  O98  1  0.41486207  0.21943717  0.77667119  1
  O  O99  1  0.58513793  0.71943717  0.72332881  1
  O  O100  1  0.27667119  0.08513793  0.78056283  1
  O  O101  1  0.22332881  0.91486207  0.28056283  1
  O  O102  1  0.77667119  0.41486207  0.21943717  1
  O  O103  1  0.72332881  0.58513793  0.71943717  1
  O  O104  1  0.78056283  0.27667119  0.08513793  1
  O  O105  1  0.28056283  0.22332881  0.91486207  1
  O  O106  1  0.21943717  0.77667119  0.41486207  1
  O  O107  1  0.71943717  0.72332881  0.58513793  1
  O  O108  1  0.91486207  0.21943717  0.72332881  1
  O  O109  1  0.08513793  0.71943717  0.77667119  1
  O  O110  1  0.58513793  0.78056283  0.22332881  1
  O  O111  1  0.41486207  0.28056283  0.27667119  1
  O  O112  1  0.72332881  0.91486207  0.21943717  1
  O  O113  1  0.77667119  0.08513793  0.71943717  1
  O  O114  1  0.22332881  0.58513793  0.78056283  1
  O  O115  1  0.27667119  0.41486207  0.28056283  1
  O  O116  1  0.21943717  0.72332881  0.91486207  1
  O  O117  1  0.71943717  0.77667119  0.08513793  1
  O  O118  1  0.78056283  0.22332881  0.58513793  1
  O  O119  1  0.28056283  0.27667119  0.41486207  1
  O  O120  1  0.04993096  0.62664677  0.20315659  1
  O  O121  1  0.95006904  0.12664677  0.29684341  1
  O  O122  1  0.45006904  0.37335323  0.70315659  1
  O  O123  1  0.54993096  0.87335323  0.79684341  1
  O  O124  1  0.20315659  0.04993096  0.62664677  1
  O  O125  1  0.29684341  0.95006904  0.12664677  1
  O  O126  1  0.70315659  0.45006904  0.37335323  1
  O  O127  1  0.79684341  0.54993096  0.87335323  1
  O  O128  1  0.62664677  0.20315659  0.04993096  1
  O  O129  1  0.12664677  0.29684341  0.95006904  1
  O  O130  1  0.37335323  0.70315659  0.45006904  1
  O  O131  1  0.87335323  0.79684341  0.54993096  1
  O  O132  1  0.95006904  0.37335323  0.79684341  1
  O  O133  1  0.04993096  0.87335323  0.70315659  1
  O  O134  1  0.54993096  0.62664677  0.29684341  1
  O  O135  1  0.45006904  0.12664677  0.20315659  1
  O  O136  1  0.79684341  0.95006904  0.37335323  1
  O  O137  1  0.70315659  0.04993096  0.87335323  1
  O  O138  1  0.29684341  0.54993096  0.62664677  1
  O  O139  1  0.20315659  0.45006904  0.12664677  1
  O  O140  1  0.37335323  0.79684341  0.95006904  1
  O  O141  1  0.87335323  0.70315659  0.04993096  1
  O  O142  1  0.62664677  0.29684341  0.54993096  1
  O  O143  1  0.12664677  0.20315659  0.45006904  1
loop_
_geom_bond_atom_site_label_1
_geom_bond_atom_site_label_2
_geom_bond_distance
_geom_bond_site_symmetry_2
Na0 O48 2.388295 1_545
Na0 O53 2.388295 1_545
Na0 O70 2.388295 1_455
Na0 O65 2.388295 1_455
Na0 O58 2.388295 1_545
Na0 O60 2.388295 1_455
Na1 O56 2.388295 1_455
Na1 O49 2.388295 1_455
Na1 O66 2.388295 1_554
Na1 O68 2.388295 1_554
Na1 O61 2.388295 1_554
Na1 O54 2.388295 1_455
Na2 O52 2.388295 1_554
Na2 O57 2.388295 1_554
Na2 O62 2.388295 1_545
Na2 O64 2.388295 1_545
Na2 O50 2.388295 1_554
Na2 O69 2.388295 1_545
Na3 O67 2.388295 1_555
Na3 O71 2.388295 1_555
Na3 O63 2.388295 1_555
Na3 O51 2.388295 1_555
Na3 O55 2.388295 1_555
Na3 O59 2.388295 1_555
Na4 O41 2.539434 1_554
Na4 O34 2.539434 1_555
Na4 O36 2.539434 1_554
Na4 O24 2.539434 1_555
Na4 O46 2.539434 1_554
Na4 O29 2.539434 1_555
Na5 O44 2.539434 1_545
Na5 O30 2.539434 1_555
Na5 O37 2.539434 1_545
Na5 O32 2.539434 1_555
Na5 O25 2.539434 1_555
Na5 O42 2.539434 1_545
Na6 O45 2.539434 1_455
Na6 O40 2.539434 1_455
Na6 O26 2.539434 1_555
Na6 O33 2.539434 1_555
Na6 O38 2.539434 1_455
Na6 O28 2.539434 1_555
Na7 O35 2.539434 1_444
Na7 O27 2.539434 1_444
Na7 O31 2.539434 1_444
Na7 O43 2.539434 1_555
Na7 O47 2.539434 1_555
Na7 O39 2.539434 1_555
Na8 O101 2.427551 1_555
Na8 O106 2.427551 1_555
Na8 O96 2.427551 1_555
Na8 O77 2.440195 1_555
Na8 O72 2.440195 1_555
Na8 O82 2.440195 1_555
Na9 O102 2.427551 1_555
Na9 O97 2.427551 1_555
Na9 O104 2.427551 1_555
Na9 O73 2.440195 1_555
Na9 O80 2.440195 1_555
Na9 O78 2.440195 1_555
Na10 O98 2.427551 1_555
Na10 O105 2.427551 1_555
Na10 O100 2.427551 1_555
Na10 O76 2.440195 1_555
Na10 O81 2.440195 1_555
Na10 O74 2.440195 1_555
Na11 O103 2.427551 1_555
Na11 O99 2.427551 1_555
Na11 O107 2.427551 1_555
Na11 O75 2.440195 1_555
Na11 O79 2.440195 1_555
Na11 O83 2.440195 1_555
Na12 O108 2.427551 1_555
Na12 O118 2.427551 1_555
Na12 O113 2.427551 1_555
Na12 O84 2.440195 1_555
Na12 O94 2.440195 1_555
Na12 O89 2.440195 1_555
Na13 O116 2.427551 1_555
Na13 O109 2.427551 1_555
Na13 O114 2.427551 1_555
Na13 O90 2.440195 1_555
Na13 O92 2.440195 1_555
Na13 O85 2.440195 1_555
Na14 O112 2.427551 1_555
Na14 O117 2.427551 1_555
Na14 O110 2.427551 1_555
Na14 O86 2.440195 1_555
Na14 O88 2.440195 1_555
Na14 O93 2.440195 1_555
Na15 O111 2.427551 1_555
Na15 O115 2.427551 1_555
Na15 O119 2.427551 1_555
Na15 O91 2.440195 1_555
Na15 O87 2.440195 1_555
Na15 O95 2.440195 1_555
O0 P29 1.613590 1_555
O0 P15 1.614849 1_565
O1 P30 1.613590 1_555
O1 P14 1.614849 1_555
O2 P28 1.613590 1_555
O2 P13 1.614849 1_545
O3 P31 1.613590 1_555
O3 P12 1.614849 1_555
O4 P33 1.613590 1_555
O4 P19 1.614849 1_556
O5 P34 1.613590 1_555
O5 P18 1.614849 1_555
O6 P32 1.613590 1_555
O6 P17 1.614849 1_554
O7 P35 1.613590 1_555
O7 P16 1.614849 1_555
O8 P25 1.613590 1_555
O8 P23 1.614849 1_655
O9 P26 1.613590 1_555
O9 P22 1.614849 1_555
O10 P24 1.613590 1_555
O10 P21 1.614849 1_455
O11 P27 1.613590 1_555
O11 P20 1.614849 1_555
O12 P41 1.613590 1_555
O12 P3 1.614849 1_545
O13 P42 1.613590 1_555
O13 P2 1.614849 1_555
O14 P40 1.613590 1_555
O14 P1 1.614849 1_565
O15 P43 1.613590 1_555
O15 P0 1.614849 1_555
O16 P45 1.613590 1_555
O16 P7 1.614849 1_554
O17 P46 1.613590 1_555
O17 P6 1.614849 1_555
O18 P44 1.613590 1_555
O18 P5 1.614849 1_556
O19 P47 1.613590 1_555
O19 P4 1.614849 1_555
O20 P37 1.613590 1_555
O20 P11 1.614849 1_455
O21 P38 1.613590 1_555
O21 P10 1.614849 1_555
O22 P36 1.613590 1_555
O22 P9 1.614849 1_655
O23 P39 1.613590 1_555
O23 P8 1.614849 1_555
O24 P14 1.502765 1_555
O24 Zn0 2.090807 1_555
O25 P15 1.502765 1_555
O25 Zn1 2.090807 1_555
O26 P12 1.502765 1_455
O26 Zn2 2.090807 1_555
O27 P13 1.502765 1_655
O27 Zn3 2.090807 1_555
O28 P18 1.502765 1_555
O28 Zn2 2.090807 1_555
O29 P19 1.502765 1_555
O29 Zn0 2.090807 1_555
O30 P16 1.502765 1_545
O30 Zn1 2.090807 1_555
O31 P17 1.502765 1_565
O31 Zn3 2.090807 1_555
O32 P22 1.502765 1_555
O32 Zn1 2.090807 1_555
O33 P23 1.502765 1_555
O33 Zn2 2.090807 1_555
O34 P20 1.502765 1_554
O34 Zn0 2.090807 1_555
O35 P21 1.502765 1_556
O35 Zn3 2.090807 1_555
O36 P2 1.502765 1_555
O36 Zn4 2.090807 1_555
O37 P3 1.502765 1_555
O37 Zn5 2.090807 1_555
O38 P0 1.502765 1_655
O38 Zn6 2.090807 1_555
O39 P1 1.502765 1_455
O39 Zn7 2.090807 1_555
O40 P6 1.502765 1_555
O40 Zn6 2.090807 1_555
O41 P7 1.502765 1_555
O41 Zn4 2.090807 1_555
O42 P4 1.502765 1_565
O42 Zn5 2.090807 1_555
O43 P5 1.502765 1_545
O43 Zn7 2.090807 1_555
O44 P10 1.502765 1_555
O44 Zn5 2.090807 1_555
O45 P11 1.502765 1_555
O45 Zn6 2.090807 1_555
O46 P8 1.502765 1_556
O46 Zn4 2.090807 1_555
O47 P9 1.502765 1_554
O47 Zn7 2.090807 1_555
O48 P1 1.497538 1_465
O48 Zn8 2.125090 1_555
O49 P0 1.497538 1_655
O49 Zn9 2.125090 1_555
O50 P3 1.497538 1_545
O50 Zn10 2.125090 1_555
O51 P2 1.497538 1_555
O51 Zn11 2.125090 1_555
O52 P5 1.497538 1_546
O52 Zn10 2.125090 1_555
O53 P4 1.497538 1_565
O53 Zn8 2.125090 1_555
O54 P7 1.497538 1_554
O54 Zn9 2.125090 1_555
O55 P6 1.497538 1_555
O55 Zn11 2.125090 1_555
O56 P9 1.497538 1_654
O56 Zn9 2.125090 1_555
O57 P8 1.497538 1_556
O57 Zn10 2.125090 1_555
O58 P11 1.497538 1_455
O58 Zn8 2.125090 1_555
O59 P10 1.497538 1_555
O59 Zn11 2.125090 1_555
O60 P13 1.497538 1_645
O60 Zn12 2.125090 1_555
O61 P12 1.497538 1_455
O61 Zn13 2.125090 1_555
O62 P15 1.497538 1_565
O62 Zn14 2.125090 1_555
O63 P14 1.497538 1_555
O63 Zn15 2.125090 1_555
O64 P17 1.497538 1_564
O64 Zn14 2.125090 1_555
O65 P16 1.497538 1_545
O65 Zn12 2.125090 1_555
O66 P19 1.497538 1_556
O66 Zn13 2.125090 1_555
O67 P18 1.497538 1_555
O67 Zn15 2.125090 1_555
O68 P21 1.497538 1_456
O68 Zn13 2.125090 1_555
O69 P20 1.497538 1_554
O69 Zn14 2.125090 1_555
O70 P23 1.497538 1_655
O70 Zn12 2.125090 1_555
O71 P22 1.497538 1_555
O71 Zn15 2.125090 1_555
O72 P38 1.509167 1_555
O72 Zn0 2.158483 1_555
O73 P39 1.509167 1_555
O73 Zn1 2.158483 1_555
O74 P36 1.509167 1_455
O74 Zn2 2.158483 1_555
O75 P37 1.509167 1_655
O75 Zn3 2.158483 1_555
O76 P42 1.509167 1_555
O76 Zn2 2.158483 1_555
O77 P43 1.509167 1_555
O77 Zn0 2.158483 1_555
O78 P40 1.509167 1_545
O78 Zn1 2.158483 1_555
O79 P41 1.509167 1_565
O79 Zn3 2.158483 1_555
O80 P46 1.509167 1_555
O80 Zn1 2.158483 1_555
O81 P47 1.509167 1_555
O81 Zn2 2.158483 1_555
O82 P44 1.509167 1_554
O82 Zn0 2.158483 1_555
O83 P45 1.509167 1_556
O83 Zn3 2.158483 1_555
O84 P26 1.509167 1_555
O84 Zn4 2.158483 1_555
O85 P27 1.509167 1_555
O85 Zn5 2.158483 1_555
O86 P24 1.509167 1_655
O86 Zn6 2.158483 1_555
O87 P25 1.509167 1_455
O87 Zn7 2.158483 1_555
O88 P30 1.509167 1_555
O88 Zn6 2.158483 1_555
O89 P31 1.509167 1_555
O89 Zn4 2.158483 1_555
O90 P28 1.509167 1_565
O90 Zn5 2.158483 1_555
O91 P29 1.509167 1_545
O91 Zn7 2.158483 1_555
O92 P34 1.509167 1_555
O92 Zn5 2.158483 1_555
O93 P35 1.509167 1_555
O93 Zn6 2.158483 1_555
O94 P32 1.509167 1_556
O94 Zn4 2.158483 1_555
O95 P33 1.509167 1_554
O95 Zn7 2.158483 1_555
O96 P24 1.492492 1_555
O96 Zn8 2.104657 1_555
O97 P25 1.492492 1_555
O97 Zn9 2.104657 1_555
O98 P26 1.492492 1_555
O98 Zn10 2.104657 1_555
O99 P27 1.492492 1_555
O99 Zn11 2.104657 1_555
O100 P28 1.492492 1_555
O100 Zn10 2.104657 1_555
O101 P29 1.492492 1_555
O101 Zn8 2.104657 1_555
O102 P30 1.492492 1_555
O102 Zn9 2.104657 1_555
O103 P31 1.492492 1_555
O103 Zn11 2.104657 1_555
O104 P32 1.492492 1_555
O104 Zn9 2.104657 1_555
O105 P33 1.492492 1_555
O105 Zn10 2.104657 1_555
O106 P34 1.492492 1_555
O106 Zn8 2.104657 1_555
O107 P35 1.492492 1_555
O107 Zn11 2.104657 1_555
O108 P36 1.492492 1_555
O108 Zn12 2.104657 1_555
O109 P37 1.492492 1_555
O109 Zn13 2.104657 1_555
O110 P38 1.492492 1_555
O110 Zn14 2.104657 1_555
O111 P39 1.492492 1_555
O111 Zn15 2.104657 1_555
O112 P40 1.492492 1_555
O112 Zn14 2.104657 1_555
O113 P41 1.492492 1_555
O113 Zn12 2.104657 1_555
O114 P42 1.492492 1_555
O114 Zn13 2.104657 1_555
O115 P43 1.492492 1_555
O115 Zn15 2.104657 1_555
O116 P44 1.492492 1_555
O116 Zn13 2.104657 1_555
O117 P45 1.492492 1_555
O117 Zn14 2.104657 1_555
O118 P46 1.492492 1_555
O118 Zn12 2.104657 1_555
O119 P47 1.492492 1_555
O119 Zn15 2.104657 1_555
O120 P0 1.616131 1_555
O120 P24 1.618623 1_555
O121 P1 1.616131 1_555
O121 P25 1.618623 1_555
O122 P2 1.616131 1_555
O122 P26 1.618623 1_555
O123 P3 1.616131 1_555
O123 P27 1.618623 1_555
O124 P4 1.616131 1_555
O124 P28 1.618623 1_555
O125 P5 1.616131 1_555
O125 P29 1.618623 1_555
O126 P6 1.616131 1_555
O126 P30 1.618623 1_555
O127 P7 1.616131 1_555
O127 P31 1.618623 1_555
O128 P8 1.616131 1_555
O128 P32 1.618623 1_555
O129 P9 1.616131 1_555
O129 P33 1.618623 1_555
O130 P10 1.616131 1_555
O130 P34 1.618623 1_555
O131 P11 1.616131 1_555
O131 P35 1.618623 1_555
O132 P12 1.616131 1_555
O132 P36 1.618623 1_555
O133 P13 1.616131 1_555
O133 P37 1.618623 1_555
O134 P14 1.616131 1_555
O134 P38 1.618623 1_555
O135 P15 1.616131 1_555
O135 P39 1.618623 1_555
O136 P16 1.616131 1_555
O136 P40 1.618623 1_555
O137 P17 1.616131 1_555
O137 P41 1.618623 1_555
O138 P18 1.616131 1_555
O138 P42 1.618623 1_555
O139 P19 1.616131 1_555
O139 P43 1.618623 1_555
O140 P20 1.616131 1_555
O140 P44 1.618623 1_555
O141 P21 1.616131 1_555
O141 P45 1.618623 1_555
O142 P22 1.616131 1_555
O142 P46 1.618623 1_555
O143 P23 1.616131 1_555
O143 P47 1.618623 1_555
