# generated using pymatgen
data_Li6NiO4
_symmetry_space_group_name_H-M   'P 1'
_cell_length_a   6.60101083
_cell_length_b   6.59994755
_cell_length_c   4.65763900
_cell_angle_alpha   90.00089999
_cell_angle_beta   89.99691634
_cell_angle_gamma   90.05204816
_symmetry_Int_Tables_number   1
_chemical_formula_structural   Li6NiO4
_chemical_formula_sum   'Li12 Ni2 O8'
_cell_volume   202.91613158
_cell_formula_units_Z   2
loop_
 _symmetry_equiv_pos_site_id
 _symmetry_equiv_pos_as_xyz
  1  'x, y, z'
loop_
 _atom_site_type_symbol
 _atom_site_label
 _atom_site_symmetry_multiplicity
 _atom_site_fract_x
 _atom_site_fract_y
 _atom_site_fract_z
 _atom_site_occupancy
  Li  Li0  1  0.03588400  0.53579000  0.74963800  1
  Li  Li1  1  0.02841500  0.97169300  0.74988800  1
  Li  Li2  1  0.25001500  0.24999800  0.69657600  1
  Li  Li3  1  0.25000700  0.25000300  0.19673000  1
  Li  Li4  1  0.47158900  0.52827700  0.74990600  1
  Li  Li5  1  0.46414100  0.96425300  0.74962900  1
  Li  Li6  1  0.52793700  0.02830300  0.24999500  1
  Li  Li7  1  0.53579100  0.46389400  0.25023300  1
  Li  Li8  1  0.74998900  0.75001200  0.30330500  1
  Li  Li9  1  0.74999600  0.75001700  0.80315500  1
  Li  Li10  1  0.96420900  0.03607600  0.25024600  1
  Li  Li11  1  0.97204300  0.47171400  0.25000800  1
  Ni  Ni0  1  0.24999900  0.75000100  0.24955600  1
  Ni  Ni1  1  0.75008100  0.25004200  0.75189500  1
  O  O0  1  0.01415800  0.25963900  0.95879700  1
  O  O1  1  0.24048000  0.01384800  0.45821000  1
  O  O2  1  0.25951500  0.48613500  0.45823200  1
  O  O3  1  0.48590900  0.24041200  0.95873400  1
  O  O4  1  0.51371700  0.74049100  0.04105600  1
  O  O5  1  0.74029300  0.98651800  0.54158200  1
  O  O6  1  0.75970400  0.51356600  0.54157200  1
  O  O7  1  0.98630800  0.75950000  0.04105600  1
loop_
_geom_bond_atom_site_label_1
_geom_bond_atom_site_label_2
_geom_bond_distance
_geom_bond_site_symmetry_2
Li0 O2 2.032081 1_555
Li0 O7 2.032278 1_456
Li0 O6 2.069767 1_455
Li0 O0 2.071468 1_555
Li1 O7 1.969015 1_456
Li1 O1 1.970196 1_565
Li1 O0 2.137175 1_565
Li1 O5 2.137437 1_455
Li2 O2 1.914436 1_555
Li2 O1 1.914548 1_555
Li2 O0 1.979796 1_555
Li2 O3 1.979900 1_555
Li3 O0 1.912143 1_554
Li3 O3 1.912489 1_554
Li3 O2 1.978884 1_555
Li3 O1 1.978971 1_555
Li4 O4 1.969066 1_556
Li4 O2 1.970312 1_555
Li4 O3 2.136578 1_555
Li4 O6 2.137326 1_555
Li5 O1 2.032315 1_565
Li5 O4 2.032610 1_556
Li5 O5 2.069492 1_555
Li5 O3 2.071395 1_565
Li6 O3 1.969225 1_554
Li6 O5 1.971388 1_545
Li6 O1 2.132980 1_555
Li6 O4 2.136294 1_545
Li7 O3 2.031354 1_554
Li7 O6 2.032917 1_555
Li7 O2 2.070330 1_555
Li7 O4 2.074496 1_555
Li8 O6 1.916034 1_555
Li8 O5 1.916347 1_555
Li8 O4 1.982019 1_555
Li8 O7 1.982154 1_555
Li9 O4 1.914153 1_556
Li9 O7 1.914418 1_556
Li9 O6 1.980904 1_555
Li9 O5 1.981168 1_555
Li10 O0 2.031665 1_654
Li10 O5 2.032702 1_545
Li10 O1 2.070313 1_655
Li10 O7 2.074380 1_545
Li11 O0 1.968936 1_654
Li11 O6 1.971187 1_555
Li11 O2 2.133169 1_655
Li11 O7 2.136204 1_555
Ni0 O7 1.994283 1_455
Ni0 O4 1.994349 1_555
Ni0 O1 1.995230 1_565
Ni0 O2 1.995419 1_555
Ni1 O0 1.992817 1_655
Ni1 O3 1.993141 1_555
Ni1 O5 1.997107 1_545
Ni1 O6 1.997119 1_555
