# generated using pymatgen
data_Na3CoF6
_symmetry_space_group_name_H-M   'P 1'
_cell_length_a   5.36902689
_cell_length_b   5.60802066
_cell_length_c   7.69799792
_cell_angle_alpha   90.00000000
_cell_angle_beta   89.60060570
_cell_angle_gamma   90.00000000
_symmetry_Int_Tables_number   1
_chemical_formula_structural   Na3CoF6
_chemical_formula_sum   'Na6 Co2 F12'
_cell_volume   231.77811242
_cell_formula_units_Z   2
loop_
 _symmetry_equiv_pos_site_id
 _symmetry_equiv_pos_as_xyz
  1  'x, y, z'
loop_
 _atom_site_type_symbol
 _atom_site_label
 _atom_site_symmetry_multiplicity
 _atom_site_fract_x
 _atom_site_fract_y
 _atom_site_fract_z
 _atom_site_occupancy
  Na  Na0  1  0.01902098  0.43871615  0.25374630  1
  Na  Na1  1  0.98097902  0.56128385  0.74625370  1
  Na  Na2  1  0.48097902  0.93871615  0.24625370  1
  Na  Na3  1  0.51902098  0.06128385  0.75374630  1
  Na  Na4  1  0.00000000  -0.00000000  0.50000000  1
  Na  Na5  1  0.50000000  0.50000000  0.00000000  1
  Co  Co0  1  0.00000000  -0.00000000  0.00000000  1
  Co  Co1  1  0.50000000  0.50000000  0.50000000  1
  F  F0  1  0.16661519  0.72547152  0.07015548  1
  F  F1  1  0.83338481  0.27452848  0.92984452  1
  F  F2  1  0.33338481  0.22547152  0.42984452  1
  F  F3  1  0.66661519  0.77452848  0.57015548  1
  F  F4  1  0.88313535  0.05243568  0.22448119  1
  F  F5  1  0.11686465  0.94756432  0.77551881  1
  F  F6  1  0.61686465  0.55243568  0.27551881  1
  F  F7  1  0.38313535  0.44756432  0.72448119  1
  F  F8  1  0.28092636  0.17750592  0.05161378  1
  F  F9  1  0.71907364  0.82249408  0.94838622  1
  F  F10  1  0.21907364  0.67750592  0.44838622  1
  F  F11  1  0.78092636  0.32249408  0.55161378  1
loop_
_geom_bond_atom_site_label_1
_geom_bond_atom_site_label_2
_geom_bond_distance
_geom_bond_site_symmetry_2
Co0 F9 1.852600 1_444
Co0 F8 1.852600 1_555
Co0 F5 1.857747 1_544
Co0 F4 1.857747 1_455
Co0 F0 1.862495 1_545
Co0 F1 1.862495 1_454
Co1 F10 1.852600 1_555
Co1 F11 1.852600 1_555
Co1 F7 1.857747 1_555
Co1 F6 1.857747 1_555
Co1 F2 1.862495 1_555
Co1 F3 1.862495 1_555
F0 Na5 2.254095 1_555
F0 Na0 2.279428 1_555
F0 Na2 2.479607 1_555
F0 Na1 2.844796 1_454
F1 Na5 2.254095 1_556
F1 Na1 2.279428 1_555
F1 Na3 2.479607 1_555
F1 Na0 2.844796 1_656
F2 Na4 2.254095 1_555
F2 Na2 2.279428 1_545
F2 Na0 2.479607 1_555
F2 Na3 2.844796 1_555
F3 Na4 2.254095 1_665
F3 Na3 2.279428 1_565
F3 Na1 2.479607 1_555
F3 Na2 2.844796 1_555
F4 Na4 2.235423 1_655
F4 Na2 2.256514 1_545
F4 Na0 2.297399 1_655
F5 Na4 2.235423 1_565
F5 Na3 2.256514 1_565
F5 Na1 2.297399 1_455
F6 Na5 2.235423 1_555
F6 Na0 2.256514 1_655
F6 Na2 2.297399 1_555
F7 Na5 2.235423 1_556
F7 Na1 2.256514 1_455
F7 Na3 2.297399 1_555
F8 Na5 2.192189 1_555
F8 Na2 2.283508 1_545
F8 Na0 2.552228 1_555
F8 Na3 2.697381 1_554
F9 Na5 2.192189 1_556
F9 Na3 2.283508 1_565
F9 Na1 2.552228 1_555
F9 Na2 2.697381 1_556
F10 Na4 2.192189 1_565
F10 Na0 2.283508 1_555
F10 Na2 2.552228 1_555
F10 Na1 2.697381 1_455
F11 Na4 2.192189 1_655
F11 Na1 2.283508 1_555
F11 Na3 2.552228 1_555
F11 Na0 2.697381 1_655
