# generated using pymatgen
data_PrCu5Sn
_symmetry_space_group_name_H-M   'P 1'
_cell_length_a   5.08860500
_cell_length_b   8.36099700
_cell_length_c   10.65924900
_cell_angle_alpha   90.00000000
_cell_angle_beta   90.00000000
_cell_angle_gamma   90.00000000
_symmetry_Int_Tables_number   1
_chemical_formula_structural   PrCu5Sn
_chemical_formula_sum   'Pr4 Cu20 Sn4'
_cell_volume   453.50639484
_cell_formula_units_Z   4
loop_
 _symmetry_equiv_pos_site_id
 _symmetry_equiv_pos_as_xyz
  1  'x, y, z'
loop_
 _atom_site_type_symbol
 _atom_site_label
 _atom_site_symmetry_multiplicity
 _atom_site_fract_x
 _atom_site_fract_y
 _atom_site_fract_z
 _atom_site_occupancy
  Pr  Pr0  1  0.75000000  0.74498000  0.43911800  1
  Pr  Pr1  1  0.25000000  0.25502000  0.56088200  1
  Pr  Pr2  1  0.25000000  0.75502000  0.93911800  1
  Pr  Pr3  1  0.75000000  0.24498000  0.06088200  1
  Cu  Cu0  1  0.75000000  0.68488000  0.75535300  1
  Cu  Cu1  1  0.25000000  0.31512000  0.24464700  1
  Cu  Cu2  1  0.25000000  0.81512000  0.25535300  1
  Cu  Cu3  1  0.75000000  0.18488000  0.74464700  1
  Cu  Cu4  1  0.50103800  0.93401000  0.68695200  1
  Cu  Cu5  1  0.49896200  0.06599000  0.31304800  1
  Cu  Cu6  1  0.49896200  0.56599000  0.18695200  1
  Cu  Cu7  1  0.00103800  0.06599000  0.31304800  1
  Cu  Cu8  1  0.50103800  0.43401000  0.81304800  1
  Cu  Cu9  1  0.99896200  0.93401000  0.68695200  1
  Cu  Cu10  1  0.99896200  0.43401000  0.81304800  1
  Cu  Cu11  1  0.00103800  0.56599000  0.18695200  1
  Cu  Cu12  1  0.75000000  0.58377200  0.98308500  1
  Cu  Cu13  1  0.25000000  0.41622800  0.01691500  1
  Cu  Cu14  1  0.25000000  0.91622800  0.48308500  1
  Cu  Cu15  1  0.75000000  0.08377200  0.51691500  1
  Cu  Cu16  1  0.75000000  0.93908100  0.89436600  1
  Cu  Cu17  1  0.25000000  0.06091900  0.10563400  1
  Cu  Cu18  1  0.25000000  0.56091900  0.39436600  1
  Cu  Cu19  1  0.75000000  0.43908100  0.60563400  1
  Sn  Sn0  1  0.75000000  0.85835500  0.13912000  1
  Sn  Sn1  1  0.25000000  0.14164500  0.86088000  1
  Sn  Sn2  1  0.25000000  0.64164500  0.63912000  1
  Sn  Sn3  1  0.75000000  0.35835500  0.36088000  1
loop_
_geom_bond_atom_site_label_1
_geom_bond_atom_site_label_2
_geom_bond_distance
_geom_bond_site_symmetry_2
Pr0 Sn0 3.335295 1_555
Pr0 Sn3 3.338413 1_555
Pr0 Sn2 3.429988 1_655
Pr0 Sn2 3.429988 1_555
Pr1 Sn1 3.335295 1_555
Pr1 Sn2 3.338413 1_555
Pr1 Sn3 3.429988 1_455
Pr1 Sn3 3.429988 1_555
Pr2 Sn2 3.335295 1_555
Pr2 Sn1 3.338413 1_565
Pr2 Sn0 3.429988 1_456
Pr2 Sn0 3.429988 1_556
Pr3 Sn3 3.335295 1_555
Pr3 Sn0 3.338413 1_545
Pr3 Sn1 3.429988 1_654
Pr3 Sn1 3.429988 1_554
Cu0 Cu8 2.526414 1_555
Cu0 Cu10 2.526414 1_555
Cu0 Cu4 2.544668 1_555
Cu0 Cu9 2.544668 1_555
Cu0 Cu12 2.570440 1_555
Cu0 Cu16 2.590920 1_555
Cu0 Cu19 2.602001 1_555
Cu0 Sn2 2.852922 1_555
Cu0 Sn2 2.852922 1_655
Cu0 Pr2 3.264088 1_655
Cu0 Pr2 3.264088 1_555
Cu0 Pr0 3.408076 1_555
Cu1 Cu11 2.526414 1_555
Cu1 Cu6 2.526414 1_555
Cu1 Cu5 2.544668 1_555
Cu1 Cu7 2.544668 1_555
Cu1 Cu13 2.570440 1_555
Cu1 Cu17 2.590920 1_555
Cu1 Cu18 2.602001 1_555
Cu1 Sn3 2.852922 1_555
Cu1 Sn3 2.852922 1_455
Cu1 Pr3 3.264088 1_455
Cu1 Pr3 3.264088 1_555
Cu1 Pr1 3.408076 1_555
Cu2 Cu5 2.526414 1_565
Cu2 Cu7 2.526414 1_565
Cu2 Cu6 2.544668 1_555
Cu2 Sn0 2.852922 1_455
Cu2 Sn0 2.852922 1_555
Cu2 Pr0 3.264088 1_455
Cu2 Pr0 3.264088 1_555
Cu2 Pr2 3.408076 1_554
Cu3 Cu9 2.526414 1_545
Cu3 Cu4 2.526414 1_545
Cu3 Cu8 2.544668 1_555
Cu3 Sn1 2.852922 1_655
Cu3 Sn1 2.852922 1_555
Cu3 Pr1 3.264088 1_555
Cu3 Pr1 3.264088 1_655
Cu3 Pr3 3.408076 1_556
Cu4 Cu9 2.533739 1_555
Cu4 Cu9 2.554866 1_455
Cu4 Sn2 2.804850 1_555
Cu4 Sn1 2.843019 1_565
Cu4 Pr1 3.262105 1_565
Cu4 Pr0 3.328901 1_555
Cu4 Pr2 3.331105 1_555
Cu5 Cu7 2.533739 1_555
Cu5 Cu7 2.554866 1_655
Cu5 Sn3 2.804850 1_555
Cu5 Sn0 2.843019 1_545
Cu5 Pr0 3.262105 1_545
Cu5 Pr1 3.328901 1_555
Cu5 Pr3 3.331105 1_555
Cu6 Sn0 2.804850 1_555
Cu6 Sn3 2.843019 1_555
Cu6 Pr3 3.262105 1_555
Cu6 Pr2 3.328901 1_554
Cu6 Pr0 3.331105 1_555
Cu7 Sn3 2.804850 1_455
Cu7 Sn0 2.843019 1_445
Cu7 Pr0 3.262105 1_445
Cu7 Pr1 3.328901 1_555
Cu7 Pr3 3.331105 1_455
Cu8 Sn1 2.804850 1_555
Cu8 Sn2 2.843019 1_555
Cu8 Pr2 3.262105 1_555
Cu8 Pr3 3.328901 1_556
Cu8 Pr1 3.331105 1_555
Cu9 Sn2 2.804850 1_655
Cu9 Sn1 2.843019 1_665
Cu9 Pr1 3.262105 1_665
Cu9 Pr0 3.328901 1_555
Cu9 Pr2 3.331105 1_655
Cu10 Cu13 2.525108 1_656
Cu10 Cu8 2.533739 1_555
Cu10 Cu12 2.541239 1_555
Cu10 Cu3 2.544668 1_555
Cu10 Cu19 2.548477 1_555
Cu10 Cu8 2.554866 1_655
Cu10 Sn1 2.804850 1_655
Cu10 Sn2 2.843019 1_655
Cu10 Pr2 3.262105 1_655
Cu10 Pr3 3.328901 1_556
Cu10 Pr1 3.331105 1_655
Cu11 Cu12 2.525108 1_454
Cu11 Cu6 2.533739 1_555
Cu11 Cu13 2.541239 1_555
Cu11 Cu2 2.544668 1_555
Cu11 Cu18 2.548477 1_555
Cu11 Cu6 2.554866 1_455
Cu11 Sn0 2.804850 1_455
Cu11 Sn3 2.843019 1_455
Cu11 Pr3 3.262105 1_455
Cu11 Pr2 3.328901 1_554
Cu11 Pr0 3.331105 1_455
Cu12 Cu6 2.525108 1_556
Cu12 Cu8 2.541239 1_555
Cu12 Sn0 2.834948 1_556
Cu12 Pr3 2.951527 1_556
Cu12 Pr2 2.956886 1_655
Cu12 Pr2 2.956886 1_555
Cu12 Cu16 3.117625 1_555
Cu13 Cu8 2.525108 1_554
Cu13 Cu6 2.541239 1_555
Cu13 Sn1 2.834948 1_554
Cu13 Pr2 2.951527 1_554
Cu13 Pr3 2.956886 1_455
Cu13 Pr3 2.956886 1_555
Cu13 Cu17 3.117625 1_555
Cu14 Cu9 2.525108 1_455
Cu14 Cu4 2.525108 1_555
Cu14 Cu7 2.541239 1_565
Cu14 Cu5 2.541239 1_565
Cu14 Cu2 2.570440 1_555
Cu14 Sn2 2.834948 1_555
Cu14 Pr1 2.951527 1_565
Cu14 Pr0 2.956886 1_455
Cu14 Pr0 2.956886 1_555
Cu14 Cu18 3.117625 1_555
Cu15 Cu5 2.525108 1_555
Cu15 Cu7 2.525108 1_655
Cu15 Cu4 2.541239 1_545
Cu15 Cu9 2.541239 1_545
Cu15 Cu3 2.570440 1_555
Cu15 Sn3 2.834948 1_555
Cu15 Pr0 2.951527 1_545
Cu15 Pr1 2.956886 1_655
Cu15 Pr1 2.956886 1_555
Cu15 Cu19 3.117625 1_555
Cu16 Cu4 2.548477 1_555
Cu16 Cu9 2.548477 1_555
Cu16 Cu3 2.602001 1_565
Cu16 Sn0 2.694788 1_556
Cu16 Pr2 3.011535 1_555
Cu16 Pr2 3.011535 1_655
Cu16 Sn1 3.077220 1_565
Cu16 Sn1 3.077220 1_665
Cu16 Pr3 3.113169 1_566
Cu17 Cu7 2.548477 1_555
Cu17 Cu5 2.548477 1_555
Cu17 Cu2 2.602001 1_545
Cu17 Sn1 2.694788 1_554
Cu17 Pr3 3.011535 1_455
Cu17 Pr3 3.011535 1_555
Cu17 Sn0 3.077220 1_545
Cu17 Sn0 3.077220 1_445
Cu17 Pr2 3.113169 1_544
Cu18 Cu6 2.548477 1_555
Cu18 Cu2 2.590920 1_555
Cu18 Sn2 2.694788 1_555
Cu18 Pr0 3.011535 1_555
Cu18 Pr0 3.011535 1_455
Cu18 Sn3 3.077220 1_455
Cu18 Sn3 3.077220 1_555
Cu18 Pr1 3.113169 1_555
Cu19 Cu8 2.548477 1_555
Cu19 Cu3 2.590920 1_555
Cu19 Sn3 2.694788 1_555
Cu19 Pr1 3.011535 1_655
Cu19 Pr1 3.011535 1_555
Cu19 Sn2 3.077220 1_555
Cu19 Sn2 3.077220 1_655
Cu19 Pr0 3.113169 1_555
