# generated using pymatgen
data_Te2MoW3(SeS2)2
_symmetry_space_group_name_H-M   'P 1'
_cell_length_a   3.30731988
_cell_length_b   3.30731988
_cell_length_c   39.12351600
_cell_angle_alpha   90.00000000
_cell_angle_beta   90.00000000
_cell_angle_gamma   119.99999760
_symmetry_Int_Tables_number   1
_chemical_formula_structural   Te2MoW3(SeS2)2
_chemical_formula_sum   'Te2 Mo1 W3 Se2 S4'
_cell_volume   370.61323345
_cell_formula_units_Z   1
loop_
 _symmetry_equiv_pos_site_id
 _symmetry_equiv_pos_as_xyz
  1  'x, y, z'
loop_
 _atom_site_type_symbol
 _atom_site_label
 _atom_site_symmetry_multiplicity
 _atom_site_fract_x
 _atom_site_fract_y
 _atom_site_fract_z
 _atom_site_occupancy
  Te  Te0  1  0.00000000  0.00000000  0.70840900  1
  Te  Te1  1  0.00000000  0.00000000  0.60997200  1
  Mo  Mo0  1  0.33333300  0.66666700  0.28175300  1
  W  W0  1  0.00000000  0.00000000  0.09395200  1
  W  W1  1  0.00000000  0.00000000  0.46801100  1
  W  W2  1  0.33333300  0.66666700  0.65921400  1
  Se  Se0  1  0.33333300  0.66666700  0.42493000  1
  Se  Se1  1  0.33333300  0.66666700  0.51114600  1
  S  S0  1  0.00000000  0.00000000  0.32082800  1
  S  S1  1  0.33333300  0.66666700  0.05474800  1
  S  S2  1  0.33333300  0.66666700  0.13309800  1
  S  S3  1  0.00000000  0.00000000  0.24268800  1
loop_
_geom_bond_atom_site_label_1
_geom_bond_atom_site_label_2
_geom_bond_distance
_geom_bond_site_symmetry_2
Te0 W2 2.711183 1_545
Te0 W2 2.711185 1_445
Te0 W2 2.711185 1_555
Te1 W2 2.712489 1_545
Te1 W2 2.712491 1_445
Te1 W2 2.712491 1_555
Mo0 S3 2.445813 1_565
Mo0 S3 2.445815 1_665
Mo0 S3 2.445815 1_555
Mo0 S0 2.446057 1_565
Mo0 S0 2.446059 1_555
Mo0 S0 2.446059 1_665
Se0 W1 2.546951 1_565
Se0 W1 2.546953 1_665
Se0 W1 2.546953 1_555
Se1 W1 2.548349 1_565
Se1 W1 2.548351 1_665
Se1 W1 2.548351 1_555
S1 W0 2.449214 1_565
S1 W0 2.449217 1_665
S1 W0 2.449217 1_555
S2 W0 2.447794 1_565
S2 W0 2.447796 1_665
S2 W0 2.447796 1_555
