# generated using pymatgen
data_LiMg14WO16
_symmetry_space_group_name_H-M   'P 1'
_cell_length_a   8.58165305
_cell_length_b   8.58165305
_cell_length_c   4.28005762
_cell_angle_alpha   90.00000000
_cell_angle_beta   90.00000000
_cell_angle_gamma   90.00000000
_symmetry_Int_Tables_number   1
_chemical_formula_structural   LiMg14WO16
_chemical_formula_sum   'Li1 Mg14 W1 O16'
_cell_volume   315.20385503
_cell_formula_units_Z   1
loop_
 _symmetry_equiv_pos_site_id
 _symmetry_equiv_pos_as_xyz
  1  'x, y, z'
loop_
 _atom_site_type_symbol
 _atom_site_label
 _atom_site_symmetry_multiplicity
 _atom_site_fract_x
 _atom_site_fract_y
 _atom_site_fract_z
 _atom_site_occupancy
  Li  Li0  1  0.00000000  0.00000000  0.00000000  1
  Mg  Mg0  1  0.00000000  0.50000000  0.00000000  1
  Mg  Mg1  1  0.50000000  0.00000000  0.00000000  1
  Mg  Mg2  1  0.00000000  0.24207968  0.50000000  1
  Mg  Mg3  1  0.00000000  0.75792032  0.50000000  1
  Mg  Mg4  1  0.50000000  0.23975410  0.50000000  1
  Mg  Mg5  1  0.50000000  0.76024590  0.50000000  1
  Mg  Mg6  1  0.24207968  0.00000000  0.50000000  1
  Mg  Mg7  1  0.23975410  0.50000000  0.50000000  1
  Mg  Mg8  1  0.75792032  0.00000000  0.50000000  1
  Mg  Mg9  1  0.76024590  0.50000000  0.50000000  1
  Mg  Mg10  1  0.24065262  0.24065262  0.00000000  1
  Mg  Mg11  1  0.24065262  0.75934738  0.00000000  1
  Mg  Mg12  1  0.75934738  0.24065262  0.00000000  1
  Mg  Mg13  1  0.75934738  0.75934738  0.00000000  1
  W  W0  1  0.50000000  0.50000000  0.00000000  1
  O  O0  1  0.25870078  0.00000000  0.00000000  1
  O  O1  1  0.24779627  0.50000000  0.00000000  1
  O  O2  1  0.74129922  0.00000000  0.00000000  1
  O  O3  1  0.75220373  0.50000000  0.00000000  1
  O  O4  1  0.25231121  0.25231121  0.50000000  1
  O  O5  1  0.25231121  0.74768879  0.50000000  1
  O  O6  1  0.74768879  0.25231121  0.50000000  1
  O  O7  1  0.74768879  0.74768879  0.50000000  1
  O  O8  1  0.00000000  0.00000000  0.50000000  1
  O  O9  1  0.00000000  0.50000000  0.50000000  1
  O  O10  1  0.50000000  0.00000000  0.50000000  1
  O  O11  1  0.50000000  0.50000000  0.50000000  1
  O  O12  1  0.00000000  0.25870078  0.00000000  1
  O  O13  1  0.00000000  0.74129922  0.00000000  1
  O  O14  1  0.50000000  0.24779627  0.00000000  1
  O  O15  1  0.50000000  0.75220373  0.00000000  1
loop_
_geom_bond_atom_site_label_1
_geom_bond_atom_site_label_2
_geom_bond_distance
_geom_bond_site_symmetry_2
Li0 O8 2.140029 1_554
Li0 O8 2.140029 1_555
Li0 O13 2.220080 1_545
Li0 O2 2.220080 1_455
Li0 O12 2.220080 1_555
Li0 O0 2.220080 1_555
Mg0 O12 2.070746 1_555
Mg0 O13 2.070746 1_555
Mg0 O1 2.126502 1_555
Mg0 O3 2.126502 1_455
Mg0 O9 2.140029 1_555
Mg0 O9 2.140029 1_554
Mg1 O0 2.070746 1_555
Mg1 O2 2.070746 1_555
Mg1 O14 2.126502 1_555
Mg1 O15 2.126502 1_545
Mg1 O10 2.140029 1_555
Mg1 O10 2.140029 1_554
Mg2 O8 2.077444 1_555
Mg2 O12 2.144777 1_555
Mg2 O12 2.144777 1_556
Mg2 O6 2.167027 1_455
Mg2 O4 2.167027 1_555
Mg2 O9 2.213383 1_555
Mg3 O8 2.077444 1_565
Mg3 O13 2.144777 1_555
Mg3 O13 2.144777 1_556
Mg3 O5 2.167027 1_555
Mg3 O7 2.167027 1_455
Mg3 O9 2.213383 1_555
Mg4 O10 2.057487 1_555
Mg4 O4 2.128309 1_555
Mg4 O6 2.128309 1_555
Mg4 O14 2.141141 1_556
Mg4 O14 2.141141 1_555
Mg4 O11 2.233340 1_555
Mg5 O10 2.057487 1_565
Mg5 O5 2.128309 1_555
Mg5 O7 2.128309 1_555
Mg5 O15 2.141141 1_556
Mg5 O15 2.141141 1_555
Mg5 O11 2.233340 1_555
Mg6 O8 2.077444 1_555
Mg6 O0 2.144777 1_555
Mg6 O0 2.144777 1_556
Mg6 O5 2.167027 1_545
Mg6 O4 2.167027 1_555
Mg6 O10 2.213383 1_555
Mg7 O9 2.057487 1_555
Mg7 O4 2.128309 1_555
Mg7 O5 2.128309 1_555
Mg7 O1 2.141141 1_556
Mg7 O1 2.141141 1_555
Mg7 O11 2.233340 1_555
Mg8 O8 2.077444 1_655
Mg8 O2 2.144777 1_555
Mg8 O2 2.144777 1_556
Mg8 O6 2.167027 1_555
Mg8 O7 2.167027 1_545
Mg8 O10 2.213383 1_555
Mg9 O9 2.057487 1_655
Mg9 O6 2.128309 1_555
Mg9 O7 2.128309 1_555
Mg9 O3 2.141141 1_556
Mg9 O3 2.141141 1_555
Mg9 O11 2.233340 1_555
Mg10 O12 2.070997 1_555
Mg10 O0 2.070997 1_555
Mg10 O4 2.144701 1_554
Mg10 O4 2.144701 1_555
Mg10 O1 2.226473 1_555
Mg10 O14 2.226473 1_555
Mg11 O13 2.070997 1_555
Mg11 O0 2.070997 1_565
Mg11 O5 2.144701 1_554
Mg11 O5 2.144701 1_555
Mg11 O1 2.226473 1_555
Mg11 O15 2.226473 1_555
Mg12 O12 2.070997 1_655
Mg12 O2 2.070997 1_555
Mg12 O6 2.144701 1_554
Mg12 O6 2.144701 1_555
Mg12 O3 2.226473 1_555
Mg12 O14 2.226473 1_555
Mg13 O13 2.070997 1_655
Mg13 O2 2.070997 1_565
Mg13 O7 2.144701 1_555
Mg13 O7 2.144701 1_554
Mg13 O3 2.226473 1_555
Mg13 O15 2.226473 1_555
O1 W0 2.164325 1_555
O3 W0 2.164325 1_555
O11 W0 2.140029 1_556
O11 W0 2.140029 1_555
O14 W0 2.164325 1_555
O15 W0 2.164325 1_555
