# generated using pymatgen
data_KRbMg14O15
_symmetry_space_group_name_H-M   'P 1'
_cell_length_a   4.26476400
_cell_length_b   8.58858800
_cell_length_c   9.61444200
_cell_angle_alpha   90.00000000
_cell_angle_beta   90.00000000
_cell_angle_gamma   90.00000000
_symmetry_Int_Tables_number   1
_chemical_formula_structural   KRbMg14O15
_chemical_formula_sum   'K1 Rb1 Mg14 O15'
_cell_volume   352.16067469
_cell_formula_units_Z   1
loop_
 _symmetry_equiv_pos_site_id
 _symmetry_equiv_pos_as_xyz
  1  'x, y, z'
loop_
 _atom_site_type_symbol
 _atom_site_label
 _atom_site_symmetry_multiplicity
 _atom_site_fract_x
 _atom_site_fract_y
 _atom_site_fract_z
 _atom_site_occupancy
  K  K0  1  0.00000000  0.00000000  0.03416300  1
  Rb  Rb0  1  0.00000000  0.50000000  0.59612800  1
  Mg  Mg0  1  0.00000000  0.50000000  0.03103200  1
  Mg  Mg1  1  0.00000000  0.00000000  0.50130000  1
  Mg  Mg2  1  0.50000000  0.75857200  0.99576600  1
  Mg  Mg3  1  0.50000000  0.24142800  0.99576600  1
  Mg  Mg4  1  0.50000000  0.73619700  0.50465200  1
  Mg  Mg5  1  0.50000000  0.26380300  0.50465200  1
  Mg  Mg6  1  0.50000000  0.00000000  0.72967700  1
  Mg  Mg7  1  0.50000000  0.50000000  0.80989400  1
  Mg  Mg8  1  0.50000000  0.00000000  0.28886600  1
  Mg  Mg9  1  0.50000000  0.50000000  0.24844500  1
  Mg  Mg10  1  0.00000000  0.77938100  0.74789800  1
  Mg  Mg11  1  0.00000000  0.22061900  0.74789800  1
  Mg  Mg12  1  0.00000000  0.74364100  0.28549000  1
  Mg  Mg13  1  0.00000000  0.25635900  0.28549000  1
  O  O0  1  0.00000000  0.00000000  0.71683100  1
  O  O1  1  0.00000000  0.00000000  0.28842500  1
  O  O2  1  0.00000000  0.50000000  0.23433800  1
  O  O3  1  0.50000000  0.71601000  0.72710500  1
  O  O4  1  0.50000000  0.28399000  0.72710500  1
  O  O5  1  0.50000000  0.76387500  0.22827300  1
  O  O6  1  0.50000000  0.23612500  0.22827300  1
  O  O7  1  0.50000000  0.00000000  0.93502500  1
  O  O8  1  0.50000000  0.50000000  0.01213700  1
  O  O9  1  0.50000000  0.00000000  0.50727800  1
  O  O10  1  0.50000000  0.50000000  0.45571200  1
  O  O11  1  0.00000000  0.70902600  0.94308300  1
  O  O12  1  0.00000000  0.29097400  0.94308300  1
  O  O13  1  0.00000000  0.76590700  0.49810700  1
  O  O14  1  0.00000000  0.23409300  0.49810700  1
loop_
_geom_bond_atom_site_label_1
_geom_bond_atom_site_label_2
_geom_bond_distance
_geom_bond_site_symmetry_2
K0 O7 2.335714 1_554
K0 O7 2.335714 1_454
K0 O1 2.444587 1_555
K0 O12 2.648037 1_554
K0 O11 2.648037 1_544
Mg0 O2 1.954674 1_555
Mg0 O11 1.984411 1_554
Mg0 O12 1.984411 1_554
Mg0 O8 2.140106 1_555
Mg0 O8 2.140106 1_455
Mg1 O14 2.010763 1_555
Mg1 O13 2.010763 1_545
Mg1 O1 2.046674 1_555
Mg1 O0 2.072210 1_555
Mg1 O9 2.133156 1_455
Mg1 O9 2.133156 1_555
Mg2 O7 2.154194 1_565
Mg2 O8 2.226339 1_556
Mg2 O11 2.232642 1_555
Mg2 O11 2.232642 1_655
Mg2 O5 2.235889 1_556
Mg2 O3 2.608763 1_555
Mg3 O7 2.154194 1_555
Mg3 O8 2.226339 1_556
Mg3 O12 2.232642 1_655
Mg3 O12 2.232642 1_555
Mg3 O6 2.235889 1_556
Mg3 O4 2.608763 1_555
Mg4 O10 2.082453 1_555
Mg4 O3 2.145777 1_555
Mg4 O13 2.148516 1_655
Mg4 O13 2.148516 1_555
Mg4 O9 2.265836 1_565
Mg4 O5 2.667842 1_555
Mg5 O10 2.082453 1_555
Mg5 O4 2.145777 1_555
Mg5 O14 2.148516 1_555
Mg5 O14 2.148516 1_655
Mg5 O9 2.265836 1_555
Mg5 O6 2.667842 1_555
Mg6 O7 1.974306 1_555
Mg6 O0 2.135956 1_555
Mg6 O0 2.135956 1_655
Mg6 O9 2.138242 1_555
Mg6 O3 2.439198 1_545
Mg6 O4 2.439198 1_555
Mg7 O8 1.944454 1_556
Mg7 O4 2.018765 1_555
Mg7 O3 2.018765 1_555
Mg8 O9 2.099910 1_555
Mg8 O6 2.109998 1_555
Mg8 O5 2.109998 1_545
Mg8 O1 2.132386 1_655
Mg8 O1 2.132386 1_555
Mg9 O10 1.992757 1_555
Mg9 O2 2.136691 1_555
Mg9 O2 2.136691 1_655
Mg9 O8 2.271970 1_555
Mg9 O6 2.274597 1_555
Mg9 O5 2.274597 1_555
Mg10 O0 1.918204 1_565
Mg10 O11 1.971478 1_555
Mg10 O3 2.209807 1_455
Mg10 O3 2.209807 1_555
Mg10 O13 2.404388 1_555
Mg11 O0 1.918204 1_555
Mg11 O12 1.971478 1_555
Mg11 O4 2.209807 1_455
Mg11 O4 2.209807 1_555
Mg11 O14 2.404388 1_555
Mg12 O13 2.053119 1_555
Mg12 O2 2.149548 1_555
Mg12 O1 2.201943 1_565
Mg12 O5 2.209044 1_455
Mg12 O5 2.209044 1_555
Mg13 O14 2.053119 1_555
Mg13 O2 2.149548 1_555
Mg13 O1 2.201943 1_555
Mg13 O6 2.209044 1_455
Mg13 O6 2.209044 1_555
O10 Rb0 2.523809 1_555
O10 Rb0 2.523809 1_655
O13 Rb0 2.470574 1_555
O14 Rb0 2.470574 1_555
