# generated using pymatgen
data_KNd
_symmetry_space_group_name_H-M   'P 1'
_cell_length_a   7.44611202
_cell_length_b   7.44590996
_cell_length_c   14.49208000
_cell_angle_alpha   89.99972319
_cell_angle_beta   90.00014812
_cell_angle_gamma   120.00937465
_symmetry_Int_Tables_number   1
_chemical_formula_structural   KNd
_chemical_formula_sum   'K8 Nd8'
_cell_volume   695.77315217
_cell_formula_units_Z   8
loop_
 _symmetry_equiv_pos_site_id
 _symmetry_equiv_pos_as_xyz
  1  'x, y, z'
loop_
 _atom_site_type_symbol
 _atom_site_label
 _atom_site_symmetry_multiplicity
 _atom_site_fract_x
 _atom_site_fract_y
 _atom_site_fract_z
 _atom_site_occupancy
  K  K0_0  1  0.33333400  0.16666550  0.37499900  1
  K  K0_1  1  0.33333400  0.16666550  0.87499900  1
  K  K0_2  1  0.33333400  0.66666550  0.37499900  1
  K  K0_3  1  0.33333400  0.66666550  0.87499900  1
  K  K0_4  1  0.83333400  0.16666550  0.37499900  1
  K  K0_5  1  0.83333400  0.16666550  0.87499900  1
  K  K0_6  1  0.83333400  0.66666550  0.37499900  1
  K  K0_7  1  0.83333400  0.66666550  0.87499900  1
  Nd  Nd0_0  1  0.16666450  0.33333300  0.12500000  1
  Nd  Nd0_1  1  0.16666450  0.33333300  0.62500000  1
  Nd  Nd0_2  1  0.16666450  0.83333300  0.12500000  1
  Nd  Nd0_3  1  0.16666450  0.83333300  0.62500000  1
  Nd  Nd0_4  1  0.66666450  0.33333300  0.12500000  1
  Nd  Nd0_5  1  0.66666450  0.33333300  0.62500000  1
  Nd  Nd0_6  1  0.66666450  0.83333300  0.12500000  1
  Nd  Nd0_7  1  0.66666450  0.83333300  0.62500000  1
loop_
_geom_bond_atom_site_label_1
_geom_bond_atom_site_label_2
_geom_bond_distance
_geom_bond_site_symmetry_2
K0_0 K0_6 3.722478 1_445
K0_0 K0_6 3.722478 1_555
K0_0 K0_2 3.722955 1_555
K0_0 K0_2 3.722955 1_545
K0_0 K0_4 3.723056 1_555
K0_0 K0_4 3.723056 1_455
K0_0 Nd0_2 4.212537 1_545
K0_0 Nd0_3 4.212547 1_545
K0_0 Nd0_4 4.212553 1_555
K0_0 Nd0_5 4.212577 1_555
K0_0 Nd0_0 4.212707 1_555
K0_0 Nd0_1 4.212747 1_555
K0_1 K0_7 3.722478 1_555
K0_1 K0_7 3.722478 1_445
K0_1 K0_3 3.722955 1_555
K0_1 K0_3 3.722955 1_545
K0_1 K0_5 3.723056 1_555
K0_1 K0_5 3.723056 1_455
K0_1 Nd0_3 4.212537 1_545
K0_1 Nd0_2 4.212547 1_546
K0_1 Nd0_5 4.212553 1_555
K0_1 Nd0_4 4.212577 1_556
K0_1 Nd0_1 4.212707 1_555
K0_1 Nd0_0 4.212747 1_556
K0_2 K0_4 3.722478 1_455
K0_2 K0_4 3.722478 1_565
K0_2 K0_6 3.723056 1_555
K0_2 K0_6 3.723056 1_455
K0_2 Nd0_0 4.212537 1_555
K0_2 Nd0_1 4.212547 1_555
K0_2 Nd0_6 4.212553 1_555
K0_2 Nd0_7 4.212577 1_555
K0_2 Nd0_2 4.212707 1_555
K0_2 Nd0_3 4.212747 1_555
K0_3 K0_5 3.722478 1_565
K0_3 K0_5 3.722478 1_455
K0_3 K0_7 3.723056 1_455
K0_3 K0_7 3.723056 1_555
K0_3 Nd0_1 4.212537 1_555
K0_3 Nd0_0 4.212547 1_556
K0_3 Nd0_7 4.212553 1_555
K0_3 Nd0_6 4.212577 1_556
K0_3 Nd0_3 4.212707 1_555
K0_3 Nd0_2 4.212747 1_556
K0_4 K0_6 3.722955 1_545
K0_4 K0_6 3.722955 1_555
K0_4 Nd0_6 4.212537 1_545
K0_4 Nd0_7 4.212547 1_545
K0_4 Nd0_0 4.212553 1_655
K0_4 Nd0_1 4.212577 1_655
K0_4 Nd0_4 4.212707 1_555
K0_4 Nd0_5 4.212747 1_555
K0_5 K0_7 3.722955 1_555
K0_5 K0_7 3.722955 1_545
K0_5 Nd0_7 4.212537 1_545
K0_5 Nd0_6 4.212547 1_546
K0_5 Nd0_1 4.212553 1_655
K0_5 Nd0_0 4.212577 1_656
K0_5 Nd0_5 4.212707 1_555
K0_5 Nd0_4 4.212747 1_556
K0_6 Nd0_4 4.212537 1_555
K0_6 Nd0_5 4.212547 1_555
K0_6 Nd0_2 4.212553 1_655
K0_6 Nd0_3 4.212577 1_655
K0_6 Nd0_6 4.212707 1_555
K0_6 Nd0_7 4.212747 1_555
K0_7 Nd0_5 4.212537 1_555
K0_7 Nd0_4 4.212547 1_556
K0_7 Nd0_3 4.212553 1_655
K0_7 Nd0_2 4.212577 1_656
K0_7 Nd0_7 4.212707 1_555
K0_7 Nd0_6 4.212747 1_556
Nd0_0 Nd0_6 3.722478 1_445
Nd0_0 Nd0_6 3.722478 1_555
Nd0_0 Nd0_2 3.722955 1_555
Nd0_0 Nd0_2 3.722955 1_545
Nd0_0 Nd0_4 3.723056 1_455
Nd0_0 Nd0_4 3.723056 1_555
Nd0_1 Nd0_7 3.722478 1_555
Nd0_1 Nd0_7 3.722478 1_445
Nd0_1 Nd0_3 3.722955 1_555
Nd0_1 Nd0_3 3.722955 1_545
Nd0_1 Nd0_5 3.723056 1_455
Nd0_1 Nd0_5 3.723056 1_555
Nd0_2 Nd0_4 3.722478 1_455
Nd0_2 Nd0_4 3.722478 1_565
Nd0_2 Nd0_6 3.723056 1_555
Nd0_2 Nd0_6 3.723056 1_455
Nd0_3 Nd0_5 3.722478 1_455
Nd0_3 Nd0_5 3.722478 1_565
Nd0_3 Nd0_7 3.723056 1_455
Nd0_3 Nd0_7 3.723056 1_555
Nd0_4 Nd0_6 3.722955 1_555
Nd0_4 Nd0_6 3.722955 1_545
Nd0_5 Nd0_7 3.722955 1_555
Nd0_5 Nd0_7 3.722955 1_545
