# generated using pymatgen
data_CeAl3Cu
_symmetry_space_group_name_H-M   'P 1'
_cell_length_a   6.09487078
_cell_length_b   6.09487078
_cell_length_c   6.09487078
_cell_angle_alpha   139.42411823
_cell_angle_beta   139.42411823
_cell_angle_gamma   58.72874578
_symmetry_Int_Tables_number   1
_chemical_formula_structural   CeAl3Cu
_chemical_formula_sum   'Ce1 Al3 Cu1'
_cell_volume   94.89291736
_cell_formula_units_Z   1
loop_
 _symmetry_equiv_pos_site_id
 _symmetry_equiv_pos_as_xyz
  1  'x, y, z'
loop_
 _atom_site_type_symbol
 _atom_site_label
 _atom_site_symmetry_multiplicity
 _atom_site_fract_x
 _atom_site_fract_y
 _atom_site_fract_z
 _atom_site_occupancy
  Ce  Ce0  1  0.98403421  0.98403421  -0.00000000  1
  Al  Al0  1  0.39268783  0.39268783  -0.00000000  1
  Al  Al1  1  0.23473363  0.73473363  0.50000000  1
  Al  Al2  1  0.73473363  0.23473363  0.50000000  1
  Cu  Cu0  1  0.61810068  0.61810068  0.00000000  1
loop_
_geom_bond_atom_site_label_1
_geom_bond_atom_site_label_2
_geom_bond_distance
_geom_bond_site_symmetry_2
Ce0 Cu0 3.310713 1_655
Ce0 Cu0 3.310713 1_554
Ce0 Cu0 3.310713 1_666
Ce0 Cu0 3.310713 1_565
Al0 Cu0 2.394694 1_555
Al0 Al1 2.698511 1_544
Al0 Al1 2.698511 1_555
Al0 Al2 2.698511 1_454
Al0 Al2 2.698511 1_555
Al0 Ce0 3.142294 1_444
Al0 Ce0 3.142294 1_455
Al0 Ce0 3.142294 1_556
Al0 Ce0 3.142294 1_545
Al1 Cu0 2.449778 1_455
Al1 Cu0 2.449778 1_556
Al1 Ce0 3.388292 1_556
Al1 Ce0 3.388292 1_455
Al1 Ce0 3.399920 1_456
Al1 Ce0 3.399920 1_445
Al2 Cu0 2.449778 1_556
Al2 Cu0 2.449778 1_545
Al2 Ce0 3.388292 1_556
Al2 Ce0 3.388292 1_545
Al2 Ce0 3.399920 1_546
Al2 Ce0 3.399920 1_445
