# generated using pymatgen
data_K9NaTl13
_symmetry_space_group_name_H-M   'P 1'
_cell_length_a   10.75301848
_cell_length_b   10.75301848
_cell_length_c   10.48076655
_cell_angle_alpha   71.04086005
_cell_angle_beta   71.04086005
_cell_angle_gamma   109.97841110
_symmetry_Int_Tables_number   1
_chemical_formula_structural   K9NaTl13
_chemical_formula_sum   'K9 Na1 Tl13'
_cell_volume   938.72337705
_cell_formula_units_Z   1
loop_
 _symmetry_equiv_pos_site_id
 _symmetry_equiv_pos_as_xyz
  1  'x, y, z'
loop_
 _atom_site_type_symbol
 _atom_site_label
 _atom_site_symmetry_multiplicity
 _atom_site_fract_x
 _atom_site_fract_y
 _atom_site_fract_z
 _atom_site_occupancy
  K  K0  1  -0.00000000  0.50000000  0.00000000  1
  K  K1  1  0.50000000  0.50000000  0.50000000  1
  K  K2  1  0.50000000  -0.00000000  0.00000000  1
  K  K3  1  0.32473631  0.49407362  0.17486775  1
  K  K4  1  0.67526369  0.50592638  0.82513225  1
  K  K5  1  0.16933731  0.67526369  0.49960405  1
  K  K6  1  0.83066269  0.32473631  0.50039595  1
  K  K7  1  0.50592638  0.83066269  0.66894136  1
  K  K8  1  0.49407362  0.16933731  0.33105864  1
  Na  Na0  1  -0.00000000  -0.00000000  0.50000000  1
  Tl  Tl0  1  0.77052533  0.64136794  0.12599111  1
  Tl  Tl1  1  0.22947467  0.35863206  0.87400889  1
  Tl  Tl2  1  0.76946994  0.90103393  0.85282371  1
  Tl  Tl3  1  0.23053006  0.09896607  0.14717629  1
  Tl  Tl4  1  0.87084262  0.22947467  0.89651644  1
  Tl  Tl5  1  0.12915738  0.77052533  0.10348356  1
  Tl  Tl6  1  0.13156400  0.23053006  0.62229364  1
  Tl  Tl7  1  0.86843600  0.76946994  0.37770636  1
  Tl  Tl8  1  0.35863206  0.12915738  0.76735905  1
  Tl  Tl9  1  0.64136794  0.87084262  0.23264095  1
  Tl  Tl10  1  0.09896607  0.86843600  0.75385764  1
  Tl  Tl11  1  0.90103393  0.13156400  0.24614236  1
  Tl  Tl12  1  -0.00000000  -0.00000000  0.00000000  1
loop_
_geom_bond_atom_site_label_1
_geom_bond_atom_site_label_2
_geom_bond_distance
_geom_bond_site_symmetry_2
K0 Tl5 3.440265 1_555
K0 Tl4 3.440265 1_454
K0 Tl1 3.448698 1_554
K0 Tl0 3.448698 1_455
K0 Tl11 3.489625 1_455
K0 Tl10 3.489625 1_554
K1 Tl1 3.440265 1_555
K1 Tl0 3.440265 1_555
K1 Tl9 3.448698 1_555
K1 Tl8 3.448698 1_555
K1 Tl6 3.489625 1_555
K1 Tl7 3.489625 1_555
K2 Tl8 3.440265 1_554
K2 Tl9 3.440265 1_545
K2 Tl4 3.448698 1_554
K2 Tl5 3.448698 1_545
K2 Tl3 3.489625 1_555
K2 Tl2 3.489625 1_544
K3 Tl6 3.917760 1_555
K4 Tl7 3.917760 1_555
K5 Tl10 3.917760 1_555
K6 Tl11 3.917760 1_555
K7 Tl2 3.917760 1_555
K8 Tl3 3.917760 1_555
Na0 Tl6 3.261222 1_555
Na0 Tl7 3.261222 1_445
Na0 Tl3 3.261222 1_555
Na0 Tl2 3.261222 1_445
Na0 Tl10 3.261222 1_545
Na0 Tl11 3.261222 1_455
Tl0 Tl12 3.282609 1_665
Tl1 Tl12 3.282609 1_556
Tl10 Tl12 3.377189 1_566
Tl11 Tl12 3.377189 1_655
Tl12 Tl4 3.282609 1_454
Tl12 Tl5 3.282609 1_545
Tl12 Tl8 3.282609 1_554
Tl12 Tl9 3.282609 1_445
Tl12 Tl2 3.377189 1_444
Tl12 Tl3 3.377189 1_555
Tl12 Tl6 3.377189 1_554
Tl12 Tl7 3.377189 1_445
