# generated using pymatgen
data_KLa(SO4)2
_symmetry_space_group_name_H-M   'P 1'
_cell_length_a   5.52562700
_cell_length_b   7.12421520
_cell_length_c   8.65530151
_cell_angle_alpha   85.95175574
_cell_angle_beta   88.65029048
_cell_angle_gamma   88.39695688
_symmetry_Int_Tables_number   1
_chemical_formula_structural   KLa(SO4)2
_chemical_formula_sum   'K2 La2 S4 O16'
_cell_volume   339.65978053
_cell_formula_units_Z   2
loop_
 _symmetry_equiv_pos_site_id
 _symmetry_equiv_pos_as_xyz
  1  'x, y, z'
loop_
 _atom_site_type_symbol
 _atom_site_label
 _atom_site_symmetry_multiplicity
 _atom_site_fract_x
 _atom_site_fract_y
 _atom_site_fract_z
 _atom_site_occupancy
  K  K0  1  0.25259800  0.84546900  0.18663800  1
  K  K1  1  0.74740200  0.15453100  0.81336200  1
  La  La0  1  0.68686700  0.31844300  0.29566300  1
  La  La1  1  0.31313300  0.68155700  0.70433700  1
  S  S0  1  0.22149500  0.19923600  0.54679700  1
  S  S1  1  0.77850500  0.80076400  0.45320300  1
  S  S2  1  0.24226100  0.32569900  0.06991000  1
  S  S3  1  0.75773900  0.67430100  0.93009000  1
  O  O0  1  0.01919400  0.21494100  0.10289200  1
  O  O1  1  0.98080600  0.78505900  0.89710800  1
  O  O2  1  0.21314900  0.05194900  0.67584100  1
  O  O3  1  0.78685100  0.94805100  0.32415900  1
  O  O4  1  0.46151200  0.19505000  0.07791500  1
  O  O5  1  0.53848800  0.80495000  0.92208500  1
  O  O6  1  0.76828900  0.57765300  0.08585900  1
  O  O7  1  0.23171100  0.42234700  0.91414100  1
  O  O8  1  0.27318100  0.45852400  0.19405800  1
  O  O9  1  0.72681900  0.54147600  0.80594200  1
  O  O10  1  0.37339500  0.35937000  0.58813400  1
  O  O11  1  0.62660500  0.64063000  0.41186600  1
  O  O12  1  0.33546100  0.12552000  0.40492900  1
  O  O13  1  0.66453900  0.87448000  0.59507100  1
  O  O14  1  0.03044100  0.72819400  0.48533300  1
  O  O15  1  0.96955900  0.27180600  0.51466700  1
loop_
_geom_bond_atom_site_label_1
_geom_bond_atom_site_label_2
_geom_bond_distance
_geom_bond_site_symmetry_2
K0 O8 2.752117 1_555
K0 O5 2.778376 1_554
K0 O4 2.863468 1_565
K0 O12 2.895528 1_565
K0 O3 2.906422 1_455
K0 O14 2.914034 1_555
K0 O0 2.949902 1_565
K0 O1 3.014350 1_454
K0 O11 3.133712 1_555
K1 O9 2.752117 1_555
K1 O4 2.778376 1_556
K1 O5 2.863468 1_545
K1 O13 2.895528 1_545
K1 O2 2.906422 1_655
K1 O15 2.914034 1_555
K1 O1 2.949902 1_545
K1 O0 3.014350 1_656
K1 O10 3.133712 1_555
La0 O15 2.482945 1_555
La0 O4 2.506212 1_555
La0 O12 2.536351 1_555
La0 O6 2.538636 1_555
La0 O0 2.579388 1_655
La0 O11 2.580389 1_555
La0 O8 2.614899 1_555
La0 O3 2.676198 1_545
La1 O14 2.482945 1_555
La1 O5 2.506212 1_555
La1 O13 2.536351 1_555
La1 O7 2.538636 1_555
La1 O1 2.579388 1_455
La1 O10 2.580389 1_555
La1 O9 2.614899 1_555
La1 O2 2.676198 1_565
O0 S2 1.493123 1_555
O1 S3 1.493123 1_555
O2 S0 1.478334 1_555
O3 S1 1.478334 1_555
O4 S2 1.506859 1_555
O5 S3 1.506859 1_555
O6 S3 1.471595 1_554
O7 S2 1.471595 1_556
O8 S2 1.496836 1_555
O9 S3 1.496836 1_555
O10 S0 1.503113 1_555
O11 S1 1.503113 1_555
O12 S0 1.488707 1_555
O13 S1 1.488707 1_555
O14 S1 1.496748 1_455
O15 S0 1.496748 1_655
