# generated using pymatgen
data_Cr2NiN2
_symmetry_space_group_name_H-M   'P 1'
_cell_length_a   5.45384500
_cell_length_b   2.70347600
_cell_length_c   12.77685900
_cell_angle_alpha   90.00000000
_cell_angle_beta   90.00000000
_cell_angle_gamma   90.00000000
_symmetry_Int_Tables_number   1
_chemical_formula_structural   Cr2NiN2
_chemical_formula_sum   'Cr8 Ni4 N8'
_cell_volume   188.38634128
_cell_formula_units_Z   4
loop_
 _symmetry_equiv_pos_site_id
 _symmetry_equiv_pos_as_xyz
  1  'x, y, z'
loop_
 _atom_site_type_symbol
 _atom_site_label
 _atom_site_symmetry_multiplicity
 _atom_site_fract_x
 _atom_site_fract_y
 _atom_site_fract_z
 _atom_site_occupancy
  Cr  Cr0  1  0.61048400  0.25000000  0.92371800  1
  Cr  Cr1  1  0.11048400  0.25000000  0.57628200  1
  Cr  Cr2  1  0.38951600  0.75000000  0.07628200  1
  Cr  Cr3  1  0.88951600  0.75000000  0.42371800  1
  Cr  Cr4  1  0.15995400  0.25000000  0.93078200  1
  Cr  Cr5  1  0.65995400  0.25000000  0.56921800  1
  Cr  Cr6  1  0.84004600  0.75000000  0.06921800  1
  Cr  Cr7  1  0.34004600  0.75000000  0.43078300  1
  Ni  Ni0  1  0.61387900  0.25000000  0.26807700  1
  Ni  Ni1  1  0.11387900  0.25000000  0.23192300  1
  Ni  Ni2  1  0.38612100  0.75000000  0.73192300  1
  Ni  Ni3  1  0.88612100  0.75000000  0.76807700  1
  N  N0  1  0.62244600  0.25000000  0.41688700  1
  N  N1  1  0.12244600  0.25000000  0.08311300  1
  N  N2  1  0.37755400  0.75000000  0.58311300  1
  N  N3  1  0.87755400  0.75000000  0.91688700  1
  N  N4  1  0.62706400  0.25000000  0.12621100  1
  N  N5  1  0.12706400  0.25000000  0.37378900  1
  N  N6  1  0.37293600  0.75000000  0.87378900  1
  N  N7  1  0.87293600  0.75000000  0.62621100  1
loop_
_geom_bond_atom_site_label_1
_geom_bond_atom_site_label_2
_geom_bond_distance
_geom_bond_site_symmetry_2
Cr0 N6 1.978031 1_545
Cr0 N6 1.978031 1_555
Cr0 N3 1.989064 1_545
Cr0 N3 1.989064 1_555
Cr1 N7 1.978031 1_445
Cr1 N7 1.978031 1_455
Cr1 N2 1.989064 1_555
Cr1 N2 1.989064 1_545
Cr2 N4 1.978031 1_565
Cr2 N4 1.978031 1_555
Cr2 N1 1.989064 1_565
Cr2 N1 1.989064 1_555
Cr3 N5 1.978031 1_665
Cr3 N5 1.978031 1_655
Cr3 N0 1.989064 1_565
Cr3 N0 1.989064 1_555
Cr4 N6 1.925281 1_545
Cr4 N6 1.925281 1_555
Cr4 N1 1.957032 1_556
Cr4 N3 2.056897 1_455
Cr4 N3 2.056897 1_445
Cr5 N7 1.925281 1_545
Cr5 N7 1.925281 1_555
Cr5 N0 1.957032 1_555
Cr5 N2 2.056897 1_545
Cr5 N2 2.056897 1_555
Cr6 N4 1.925281 1_565
Cr6 N4 1.925281 1_555
Cr6 N3 1.957032 1_554
Cr6 N1 2.056897 1_665
Cr6 N1 2.056897 1_655
Cr7 N5 1.925285 1_565
Cr7 N5 1.925285 1_555
Cr7 N2 1.957020 1_555
Cr7 N0 2.056898 1_565
Cr7 N0 2.056898 1_555
N0 Ni0 1.901898 1_555
N1 Ni1 1.901898 1_555
N2 Ni2 1.901898 1_555
N3 Ni3 1.901898 1_555
N4 Ni0 1.814028 1_555
N5 Ni1 1.814028 1_555
N6 Ni2 1.814028 1_555
N7 Ni3 1.814028 1_555
