# generated using pymatgen
data_PtS2NO9
_symmetry_space_group_name_H-M   'P 1'
_cell_length_a   7.66260900
_cell_length_b   7.73074764
_cell_length_c   7.82131586
_cell_angle_alpha   102.54818267
_cell_angle_beta   110.26241689
_cell_angle_gamma   100.53956110
_symmetry_Int_Tables_number   1
_chemical_formula_structural   PtS2NO9
_chemical_formula_sum   'Pt2 S4 N2 O18'
_cell_volume   407.05395217
_cell_formula_units_Z   2
loop_
 _symmetry_equiv_pos_site_id
 _symmetry_equiv_pos_as_xyz
  1  'x, y, z'
loop_
 _atom_site_type_symbol
 _atom_site_label
 _atom_site_symmetry_multiplicity
 _atom_site_fract_x
 _atom_site_fract_y
 _atom_site_fract_z
 _atom_site_occupancy
  Pt  Pt0  1  0.63274500  0.95619700  0.12548300  1
  Pt  Pt1  1  0.36725500  0.04380300  0.87451700  1
  S  S0  1  0.71835000  0.38131800  0.17516900  1
  S  S1  1  0.28165000  0.61868200  0.82483100  1
  S  S2  1  0.69954200  0.95776900  0.75037300  1
  S  S3  1  0.30045800  0.04223100  0.24962700  1
  N  N0  1  0.72444300  0.47319300  0.72453300  1
  N  N1  1  0.27555700  0.52680700  0.27546700  1
  O  O0  1  0.54852900  0.30009800  0.96899900  1
  O  O1  1  0.45147100  0.69990200  0.03100100  1
  O  O2  1  0.80551300  0.21714000  0.21090100  1
  O  O3  1  0.19448700  0.78286000  0.78909900  1
  O  O4  1  0.63775700  0.43589900  0.31336000  1
  O  O5  1  0.36224300  0.56410100  0.68664000  1
  O  O6  1  0.86465600  0.51794300  0.16236600  1
  O  O7  1  0.13534400  0.48205700  0.83763400  1
  O  O8  1  0.70911300  0.81763400  0.60219600  1
  O  O9  1  0.29088700  0.18236600  0.39780400  1
  O  O10  1  0.82257900  0.14383100  0.80662300  1
  O  O11  1  0.17742100  0.85616900  0.19337700  1
  O  O12  1  0.74221600  0.88462800  0.92937400  1
  O  O13  1  0.25778400  0.11537200  0.07062600  1
  O  O14  1  0.48182300  0.96189400  0.68542300  1
  O  O15  1  0.51817700  0.03810600  0.31457700  1
  O  O16  1  0.83782800  0.89227500  0.31713500  1
  O  O17  1  0.16217200  0.10772500  0.68286500  1
loop_
_geom_bond_atom_site_label_1
_geom_bond_atom_site_label_2
_geom_bond_distance
_geom_bond_site_symmetry_2
O0 S0 1.579728 1_556
O0 Pt1 2.011778 1_555
O1 S1 1.579728 1_554
O1 Pt0 2.011778 1_555
O2 S0 1.571643 1_555
O2 Pt0 2.023159 1_545
O3 S1 1.571643 1_555
O3 Pt1 2.023159 1_565
O4 S0 1.444679 1_555
O5 S1 1.444679 1_555
O6 S0 1.439785 1_555
O7 S1 1.439785 1_555
O8 S2 1.436852 1_555
O9 S3 1.436852 1_555
O10 S2 1.446728 1_545
O11 S3 1.446728 1_565
O12 S2 1.575193 1_555
O12 Pt0 2.013604 1_556
O13 S3 1.575193 1_555
O13 Pt1 2.013604 1_554
O14 S2 1.575368 1_555
O14 Pt1 2.013634 1_565
O15 S3 1.575368 1_555
O15 Pt0 2.013634 1_545
O16 Pt0 1.983687 1_555
O17 Pt1 1.983687 1_555
