# generated using pymatgen
data_K3(Cu4S3)2
_symmetry_space_group_name_H-M   'P 1'
_cell_length_a   3.82835039
_cell_length_b   8.85183283
_cell_length_c   9.79747215
_cell_angle_alpha   106.35503878
_cell_angle_beta   90.00000000
_cell_angle_gamma   102.48864930
_symmetry_Int_Tables_number   1
_chemical_formula_structural   K3(Cu4S3)2
_chemical_formula_sum   'K3 Cu8 S6'
_cell_volume   310.38525731
_cell_formula_units_Z   1
loop_
 _symmetry_equiv_pos_site_id
 _symmetry_equiv_pos_as_xyz
  1  'x, y, z'
loop_
 _atom_site_type_symbol
 _atom_site_label
 _atom_site_symmetry_multiplicity
 _atom_site_fract_x
 _atom_site_fract_y
 _atom_site_fract_z
 _atom_site_occupancy
  K  K0  1  0.30730078  0.61460056  0.70337264  1
  K  K1  1  0.69269922  0.38539944  0.29662736  1
  K  K2  1  0.50000000  -0.00000000  -0.00000000  1
  Cu  Cu0  1  0.48623513  0.97247227  0.36090961  1
  Cu  Cu1  1  0.51376487  0.02752773  0.63909039  1
  Cu  Cu2  1  0.30348125  0.60696050  0.08810172  1
  Cu  Cu3  1  0.08926916  0.17853832  0.53648990  1
  Cu  Cu4  1  0.91073084  0.82146168  0.46351010  1
  Cu  Cu5  1  0.09291521  0.18583241  0.79731307  1
  Cu  Cu6  1  0.90708479  0.81416759  0.20268693  1
  Cu  Cu7  1  0.69651875  0.39303950  0.91189828  1
  S  S0  1  0.65246018  0.30492135  0.65314116  1
  S  S1  1  0.16136601  0.32273202  0.02402543  1
  S  S2  1  0.83863399  0.67726798  0.97597457  1
  S  S3  1  0.34753982  0.69507865  0.34685884  1
  S  S4  1  0.95641952  0.91284005  0.70325959  1
  S  S5  1  0.04358048  0.08715995  0.29674041  1
loop_
_geom_bond_atom_site_label_1
_geom_bond_atom_site_label_2
_geom_bond_distance
_geom_bond_site_symmetry_2
K0 S2 3.202535 1_555
K0 S2 3.202538 1_455
K0 S4 3.210796 1_555
K0 S4 3.210801 1_455
K0 S0 3.210831 1_555
K0 S0 3.210835 1_455
K0 S3 3.753091 1_555
K1 S1 3.202535 1_555
K1 S1 3.202538 1_655
K1 S5 3.210796 1_555
K1 S5 3.210801 1_655
K1 S3 3.210831 1_555
K1 S3 3.210835 1_655
K1 S0 3.753091 1_555
K2 S1 3.334706 1_655
K2 S2 3.334706 1_444
K2 S2 3.334706 1_544
K2 S1 3.334706 1_555
K2 S4 3.379447 1_544
K2 S5 3.379447 1_555
K2 S4 3.379449 1_444
K2 S5 3.379449 1_655
Cu0 S5 2.324044 1_565
Cu0 S5 2.324053 1_665
Cu0 S3 2.361322 1_555
Cu1 S4 2.324044 1_545
Cu1 S4 2.324053 1_445
Cu1 S0 2.361322 1_555
Cu2 S1 2.353414 1_555
Cu2 S2 2.371737 1_554
Cu2 S2 2.371744 1_454
Cu2 S3 2.427627 1_555
Cu3 S5 2.251924 1_555
Cu3 S0 2.333067 1_555
Cu3 S0 2.333070 1_455
Cu4 S4 2.251924 1_555
Cu4 S3 2.333067 1_555
Cu4 S3 2.333070 1_655
Cu5 S1 2.194923 1_556
Cu5 S4 2.271872 1_445
Cu5 S0 2.749024 1_455
Cu5 S0 2.749026 1_555
Cu6 S2 2.194923 1_554
Cu6 S5 2.271872 1_665
Cu6 S3 2.749024 1_655
Cu6 S3 2.749026 1_555
Cu7 S2 2.353414 1_555
Cu7 S1 2.371737 1_556
Cu7 S1 2.371744 1_656
Cu7 S0 2.427627 1_555
