# generated using pymatgen
data_Li3Fe2P2(O4F)2
_symmetry_space_group_name_H-M   'P 1'
_cell_length_a   7.01962895
_cell_length_b   7.95392808
_cell_length_c   7.41540297
_cell_angle_alpha   90.25690643
_cell_angle_beta   63.43778043
_cell_angle_gamma   88.00081212
_symmetry_Int_Tables_number   1
_chemical_formula_structural   Li3Fe2P2(O4F)2
_chemical_formula_sum   'Li6 Fe4 P4 O16 F4'
_cell_volume   370.00895376
_cell_formula_units_Z   2
loop_
 _symmetry_equiv_pos_site_id
 _symmetry_equiv_pos_as_xyz
  1  'x, y, z'
loop_
 _atom_site_type_symbol
 _atom_site_label
 _atom_site_symmetry_multiplicity
 _atom_site_fract_x
 _atom_site_fract_y
 _atom_site_fract_z
 _atom_site_occupancy
  Li  Li0  1  0.74988200  0.24980200  0.50009600  1
  Li  Li1  1  0.25011100  0.75016800  0.49990300  1
  Li  Li2  1  0.41661900  0.16959500  0.84610400  1
  Li  Li3  1  0.91658700  0.66963900  0.84604300  1
  Li  Li4  1  0.58338600  0.83039900  0.15387800  1
  Li  Li5  1  0.08337400  0.33036500  0.15397600  1
  Fe  Fe0  1  0.50000000  0.50000100  0.00003400  1
  Fe  Fe1  1  0.00006500  0.00004600  0.50008000  1
  Fe  Fe2  1  0.99998600  0.00000700  0.99998600  1
  Fe  Fe3  1  0.50009500  0.49993100  0.49989200  1
  P  P0  1  0.48858300  0.15093600  0.23992800  1
  P  P1  1  0.98849100  0.65101500  0.23996900  1
  P  P2  1  0.51141400  0.84903800  0.76004500  1
  P  P3  1  0.01151100  0.34903500  0.76003900  1
  O  O0  1  0.39647400  0.26850500  0.12348100  1
  O  O1  1  0.89642900  0.76848200  0.12339700  1
  O  O2  1  0.60350500  0.73147700  0.87652700  1
  O  O3  1  0.10356200  0.23153400  0.87658900  1
  O  O4  1  0.53057300  0.25414600  0.39230900  1
  O  O5  1  0.03045200  0.75435700  0.39229300  1
  O  O6  1  0.46942300  0.74581100  0.60767800  1
  O  O7  1  0.96951300  0.24570800  0.60772600  1
  O  O8  1  0.33821200  0.00472600  0.33782700  1
  O  O9  1  0.83803100  0.50485300  0.33796000  1
  O  O10  1  0.66180500  0.99526100  0.66216900  1
  O  O11  1  0.16197900  0.49517100  0.66202600  1
  O  O12  1  0.69843900  0.06052400  0.07831500  1
  O  O13  1  0.19834800  0.56049100  0.07851100  1
  O  O14  1  0.30153900  0.93946400  0.92164100  1
  O  O15  1  0.80164700  0.43952300  0.92153900  1
  F  F0  1  0.53256800  0.38408500  0.74443700  1
  F  F1  1  0.03256800  0.88408300  0.74442500  1
  F  F2  1  0.46740700  0.61592700  0.25558200  1
  F  F3  1  0.96742000  0.11589300  0.25559900  1
loop_
_geom_bond_atom_site_label_1
_geom_bond_atom_site_label_2
_geom_bond_distance
_geom_bond_site_symmetry_2
Li0 O4 2.026575 1_555
Li0 O7 2.027851 1_555
Li0 O10 2.317388 1_545
Li0 O9 2.321201 1_555
Li1 O6 2.026528 1_555
Li1 O5 2.027920 1_555
Li1 O8 2.317527 1_565
Li1 O11 2.320774 1_555
Li2 O14 2.006125 1_545
Li2 O10 2.112445 1_545
Li2 O0 2.141777 1_556
Li2 O3 2.145273 1_555
Li3 O15 2.005679 1_555
Li3 O11 2.114008 1_655
Li3 O1 2.141392 1_556
Li3 O2 2.145290 1_555
Li4 O12 2.006042 1_565
Li4 O8 2.112396 1_565
Li4 O2 2.141701 1_554
Li4 O1 2.145154 1_555
Li5 O13 2.005803 1_555
Li5 O9 2.113866 1_455
Li5 O3 2.141506 1_554
Li5 O0 2.145418 1_555
Fe0 O15 1.969249 1_554
Fe0 O13 1.969326 1_555
Fe0 O2 2.066357 1_554
Fe0 O0 2.066400 1_555
Fe1 O7 2.074820 1_455
Fe1 O5 2.075489 1_545
Fe1 O8 2.129718 1_555
Fe1 O10 2.130371 1_445
Fe2 O12 1.968886 1_556
Fe2 O14 1.968946 1_645
Fe2 O1 2.066571 1_546
Fe2 O3 2.066580 1_655
Fe3 O4 2.075633 1_555
Fe3 O6 2.076706 1_555
Fe3 O9 2.128397 1_555
Fe3 O11 2.129509 1_555
O0 P0 1.581944 1_555
O1 P1 1.581943 1_555
O2 P2 1.582017 1_555
O3 P3 1.581932 1_555
O4 P0 1.531031 1_555
O5 P1 1.531141 1_455
O6 P2 1.531023 1_555
O7 P3 1.531150 1_655
O8 P0 1.549690 1_555
O9 P1 1.549818 1_555
O10 P2 1.549811 1_555
O11 P3 1.549713 1_555
O12 P0 1.569366 1_555
O13 P1 1.569354 1_455
O14 P2 1.569448 1_555
O15 P3 1.569368 1_655
F0 Li2 1.923807 1_555
F0 Fe0 2.019107 1_556
F0 Li0 2.036616 1_555
F0 Fe3 2.135282 1_555
F1 Li3 1.923464 1_455
F1 Fe2 2.018868 1_465
F1 Li1 2.036449 1_555
F1 Fe1 2.134450 1_565
F2 Li4 1.923793 1_555
F2 Fe0 2.018765 1_555
F2 Li1 2.036327 1_555
F2 Fe3 2.134943 1_555
F3 Li5 1.923620 1_655
F3 Fe2 2.019110 1_554
F3 Li0 2.036311 1_555
F3 Fe1 2.135428 1_655
