# generated using pymatgen
data_Lu4IO13
_symmetry_space_group_name_H-M   'P 1'
_cell_length_a   8.31426600
_cell_length_b   12.92535300
_cell_length_c   13.37027600
_cell_angle_alpha   90.00000000
_cell_angle_beta   90.00000000
_cell_angle_gamma   90.00000000
_symmetry_Int_Tables_number   1
_chemical_formula_structural   Lu4IO13
_chemical_formula_sum   'Lu16 I4 O52'
_cell_volume   1436.83434361
_cell_formula_units_Z   4
loop_
 _symmetry_equiv_pos_site_id
 _symmetry_equiv_pos_as_xyz
  1  'x, y, z'
loop_
 _atom_site_type_symbol
 _atom_site_label
 _atom_site_symmetry_multiplicity
 _atom_site_fract_x
 _atom_site_fract_y
 _atom_site_fract_z
 _atom_site_occupancy
  Lu  Lu0  1  0.31323900  0.22345500  0.75000000  1
  Lu  Lu1  1  0.68676100  0.77654500  0.25000000  1
  Lu  Lu2  1  0.31323900  0.27654500  0.25000000  1
  Lu  Lu3  1  0.68676100  0.72345500  0.75000000  1
  Lu  Lu4  1  0.45403200  0.25000000  0.50000000  1
  Lu  Lu5  1  0.54596800  0.75000000  0.00000000  1
  Lu  Lu6  1  0.54596800  0.75000000  0.50000000  1
  Lu  Lu7  1  0.45403200  0.25000000  0.00000000  1
  Lu  Lu8  1  0.61689300  0.52219700  0.60180200  1
  Lu  Lu9  1  0.38310700  0.47780300  0.10180200  1
  Lu  Lu10  1  0.61689300  0.97780300  0.39819800  1
  Lu  Lu11  1  0.38310700  0.02219700  0.89819800  1
  Lu  Lu12  1  0.38310700  0.47780300  0.39819800  1
  Lu  Lu13  1  0.61689300  0.52219700  0.89819800  1
  Lu  Lu14  1  0.38310700  0.02219700  0.60180200  1
  Lu  Lu15  1  0.61689300  0.97780300  0.10180200  1
  I  I0  1  0.96646100  0.44223600  0.75000000  1
  I  I1  1  0.03353900  0.55776400  0.25000000  1
  I  I2  1  0.96646100  0.05776400  0.25000000  1
  I  I3  1  0.03353900  0.94223600  0.75000000  1
  O  O0  1  0.53825300  0.28950000  0.66672400  1
  O  O1  1  0.46174700  0.71050000  0.16672400  1
  O  O2  1  0.53825300  0.21050000  0.33327600  1
  O  O3  1  0.46174700  0.78950000  0.83327600  1
  O  O4  1  0.46174700  0.71050000  0.33327600  1
  O  O5  1  0.53825300  0.28950000  0.83327600  1
  O  O6  1  0.46174700  0.78950000  0.66672400  1
  O  O7  1  0.53825300  0.21050000  0.16672400  1
  O  O8  1  0.44166900  0.59632100  0.51211900  1
  O  O9  1  0.55833100  0.40367900  0.01211900  1
  O  O10  1  0.44166900  0.90367900  0.48788100  1
  O  O11  1  0.55833100  0.09632100  0.98788100  1
  O  O12  1  0.55833100  0.40367900  0.48788100  1
  O  O13  1  0.44166900  0.59632100  0.98788100  1
  O  O14  1  0.55833100  0.09632100  0.51211900  1
  O  O15  1  0.44166900  0.90367900  0.01211900  1
  O  O16  1  0.76108500  0.40049000  0.75000000  1
  O  O17  1  0.23891500  0.59951000  0.25000000  1
  O  O18  1  0.76108500  0.09951000  0.25000000  1
  O  O19  1  0.23891500  0.90049000  0.75000000  1
  O  O20  1  0.09147800  0.32764100  0.75000000  1
  O  O21  1  0.90852200  0.67235900  0.25000000  1
  O  O22  1  0.09147800  0.17235900  0.25000000  1
  O  O23  1  0.90852200  0.82764100  0.75000000  1
  O  O24  1  0.57516700  0.57631400  0.75000000  1
  O  O25  1  0.42483300  0.42368600  0.25000000  1
  O  O26  1  0.57516700  0.92368600  0.25000000  1
  O  O27  1  0.42483300  0.07631400  0.75000000  1
  O  O28  1  0.45208300  0.37624200  0.67374100  1
  O  O29  1  0.54791700  0.62375800  0.17374100  1
  O  O30  1  0.45208300  0.12375800  0.32625900  1
  O  O31  1  0.54791700  0.87624200  0.82625900  1
  O  O32  1  0.54791700  0.62375800  0.32625900  1
  O  O33  1  0.45208300  0.37624200  0.82625900  1
  O  O34  1  0.54791700  0.87624200  0.67374100  1
  O  O35  1  0.45208300  0.12375800  0.17374100  1
  O  O36  1  0.71787000  0.67709800  0.59643100  1
  O  O37  1  0.28213000  0.32290200  0.09643100  1
  O  O38  1  0.71787000  0.82290200  0.40356900  1
  O  O39  1  0.28213000  0.17709800  0.90356900  1
  O  O40  1  0.28213000  0.32290200  0.40356900  1
  O  O41  1  0.71787000  0.67709800  0.90356900  1
  O  O42  1  0.28213000  0.17709800  0.59643100  1
  O  O43  1  0.71787000  0.82290200  0.09643100  1
  O  O44  1  0.98102900  0.51602700  0.63660000  1
  O  O45  1  0.01897100  0.48397300  0.13660000  1
  O  O46  1  0.98102900  0.98397300  0.36340000  1
  O  O47  1  0.01897100  0.01602700  0.86340000  1
  O  O48  1  0.01897100  0.48397300  0.36340000  1
  O  O49  1  0.98102900  0.51602700  0.86340000  1
  O  O50  1  0.01897100  0.01602700  0.63660000  1
  O  O51  1  0.98102900  0.98397300  0.13660000  1
loop_
_geom_bond_atom_site_label_1
_geom_bond_atom_site_label_2
_geom_bond_distance
_geom_bond_site_symmetry_2
Lu0 O27 2.116101 1_555
Lu0 O39 2.154482 1_555
Lu0 O42 2.154482 1_555
Lu0 O20 2.283192 1_555
Lu0 O5 2.338467 1_555
Lu0 O0 2.338467 1_555
Lu0 O33 2.504423 1_555
Lu0 O28 2.504423 1_555
Lu1 O26 2.116101 1_555
Lu1 O38 2.154482 1_555
Lu1 O43 2.154482 1_555
Lu1 O21 2.283192 1_555
Lu1 O4 2.338467 1_555
Lu1 O1 2.338467 1_555
Lu1 O32 2.504423 1_555
Lu1 O29 2.504423 1_555
Lu2 O25 2.116101 1_555
Lu2 O40 2.154482 1_555
Lu2 O37 2.154482 1_555
Lu2 O22 2.283192 1_555
Lu2 O2 2.338467 1_555
Lu2 O7 2.338467 1_555
Lu2 O30 2.504423 1_555
Lu2 O35 2.504423 1_555
Lu3 O24 2.116101 1_555
Lu3 O41 2.154482 1_555
Lu3 O36 2.154482 1_555
Lu3 O23 2.283192 1_555
Lu3 O3 2.338467 1_555
Lu3 O6 2.338467 1_555
Lu3 O31 2.504423 1_555
Lu3 O34 2.504423 1_555
Lu4 O42 2.143115 1_555
Lu4 O40 2.143115 1_555
Lu4 O12 2.173441 1_555
Lu4 O14 2.173441 1_555
Lu4 O0 2.391670 1_555
Lu4 O2 2.391670 1_555
Lu5 O43 2.143115 1_555
Lu5 O41 2.143115 1_554
Lu5 O15 2.173441 1_555
Lu5 O13 2.173441 1_554
Lu5 O1 2.391670 1_555
Lu5 O3 2.391670 1_554
Lu6 O36 2.143115 1_555
Lu6 O38 2.143115 1_555
Lu6 O8 2.173441 1_555
Lu6 O10 2.173441 1_555
Lu6 O6 2.391670 1_555
Lu6 O4 2.391670 1_555
Lu7 O37 2.143115 1_555
Lu7 O39 2.143115 1_554
Lu7 O9 2.173441 1_555
Lu7 O11 2.173441 1_554
Lu7 O7 2.391670 1_555
Lu7 O5 2.391670 1_554
Lu8 O8 2.116167 1_555
Lu8 O24 2.129734 1_555
Lu8 O36 2.172235 1_555
Lu8 O12 2.214442 1_555
Lu8 O28 2.522252 1_555
Lu8 O16 2.799650 1_555
Lu8 O44 3.064103 1_555
Lu9 O9 2.116167 1_555
Lu9 O25 2.129734 1_555
Lu9 O37 2.172235 1_555
Lu9 O13 2.214442 1_554
Lu9 O29 2.522252 1_555
Lu9 O17 2.799650 1_555
Lu9 O45 3.064103 1_555
Lu10 O10 2.116167 1_555
Lu10 O26 2.129734 1_555
Lu10 O38 2.172235 1_555
Lu10 O14 2.214442 1_565
Lu10 O30 2.522252 1_565
Lu10 O18 2.799650 1_565
Lu10 O46 3.064103 1_555
Lu11 O11 2.116167 1_555
Lu11 O27 2.129734 1_555
Lu11 O39 2.172235 1_555
Lu11 O15 2.214442 1_546
Lu11 O31 2.522252 1_545
Lu11 O19 2.799650 1_545
Lu11 O47 3.064103 1_555
Lu12 O12 2.116167 1_555
Lu12 O25 2.129734 1_555
Lu12 O40 2.172235 1_555
Lu12 O8 2.214442 1_555
Lu12 O32 2.522252 1_555
Lu12 O17 2.799650 1_555
Lu12 O48 3.064103 1_555
Lu13 O13 2.116167 1_555
Lu13 O24 2.129734 1_555
Lu13 O41 2.172235 1_555
Lu13 O9 2.214442 1_556
Lu13 O33 2.522252 1_555
Lu13 O16 2.799650 1_555
Lu13 O49 3.064103 1_555
Lu14 O14 2.116167 1_555
Lu14 O27 2.129734 1_555
Lu14 O42 2.172235 1_555
Lu14 O10 2.214442 1_545
Lu14 O34 2.522252 1_545
Lu14 O19 2.799650 1_545
Lu14 O50 3.064103 1_555
Lu15 O15 2.116167 1_555
Lu15 O26 2.129734 1_555
Lu15 O43 2.172235 1_555
Lu15 O11 2.214442 1_564
Lu15 O35 2.522252 1_565
Lu15 O18 2.799650 1_565
Lu15 O51 3.064103 1_555
I0 O16 1.790776 1_555
I0 O44 1.795324 1_555
I0 O49 1.795324 1_555
I0 O20 1.809503 1_655
I1 O17 1.790776 1_555
I1 O45 1.795324 1_555
I1 O48 1.795324 1_555
I1 O21 1.809503 1_455
I2 O18 1.790776 1_555
I2 O51 1.795324 1_545
I2 O46 1.795324 1_545
I2 O22 1.809503 1_655
I3 O19 1.790776 1_555
I3 O50 1.795324 1_565
I3 O47 1.795324 1_565
I3 O23 1.809503 1_455
O0 O28 1.333834 1_555
O1 O29 1.333834 1_555
O2 O30 1.333834 1_555
O3 O31 1.333834 1_555
O32 O4 1.333834 1_555
O33 O5 1.333834 1_555
O34 O6 1.333834 1_555
O35 O7 1.333834 1_555
