# generated using pymatgen
data_Na3As4H5O14
_symmetry_space_group_name_H-M   'P 1'
_cell_length_a   9.64639100
_cell_length_b   10.22805700
_cell_length_c   12.04823200
_cell_angle_alpha   90.00000000
_cell_angle_beta   90.00000000
_cell_angle_gamma   90.00000000
_symmetry_Int_Tables_number   1
_chemical_formula_structural   Na3As4H5O14
_chemical_formula_sum   'Na12 As16 H20 O56'
_cell_volume   1188.72479809
_cell_formula_units_Z   4
loop_
 _symmetry_equiv_pos_site_id
 _symmetry_equiv_pos_as_xyz
  1  'x, y, z'
loop_
 _atom_site_type_symbol
 _atom_site_label
 _atom_site_symmetry_multiplicity
 _atom_site_fract_x
 _atom_site_fract_y
 _atom_site_fract_z
 _atom_site_occupancy
  Na  Na0  1  0.87473600  0.92551600  0.64225400  1
  Na  Na1  1  0.88291600  0.08687200  0.35802600  1
  Na  Na2  1  0.11708400  0.91312800  0.85802600  1
  Na  Na3  1  0.12526400  0.07448400  0.14225400  1
  Na  Na4  1  0.61708400  0.58687200  0.35802600  1
  Na  Na5  1  0.62526400  0.42551600  0.64225400  1
  Na  Na6  1  0.37473600  0.57448400  0.14225400  1
  Na  Na7  1  0.38291600  0.41312800  0.85802600  1
  Na  Na8  1  0.99338400  0.54030900  0.74244700  1
  Na  Na9  1  0.00661600  0.45969100  0.24244700  1
  Na  Na10  1  0.49338400  0.95969100  0.24244700  1
  Na  Na11  1  0.50661600  0.04030900  0.74244700  1
  As  As0  1  0.79415900  0.78299100  0.89387800  1
  As  As1  1  0.79549800  0.21539700  0.10887500  1
  As  As2  1  0.20450200  0.78460300  0.60887500  1
  As  As3  1  0.20584100  0.21700900  0.39387800  1
  As  As4  1  0.70450200  0.71539700  0.10887500  1
  As  As5  1  0.70584100  0.28299100  0.89387800  1
  As  As6  1  0.29415900  0.71700900  0.39387800  1
  As  As7  1  0.29549800  0.28460300  0.60887500  1
  As  As8  1  0.47141900  0.78089500  0.93180500  1
  As  As9  1  0.46969400  0.20550300  0.06949000  1
  As  As10  1  0.53030600  0.79449700  0.56949000  1
  As  As11  1  0.52858100  0.21910500  0.43180500  1
  As  As12  1  0.03030600  0.70550300  0.06949000  1
  As  As13  1  0.02858100  0.28089500  0.93180500  1
  As  As14  1  0.97141900  0.71910500  0.43180500  1
  As  As15  1  0.96969400  0.29449700  0.56949000  1
  H  H0  1  0.83403200  0.00784200  0.88704600  1
  H  H1  1  0.83571900  0.99110900  0.11501200  1
  H  H2  1  0.16428100  0.00889100  0.61501200  1
  H  H3  1  0.16596800  0.99215800  0.38704600  1
  H  H4  1  0.66428100  0.49110900  0.11501200  1
  H  H5  1  0.66596800  0.50784200  0.88704600  1
  H  H6  1  0.33403200  0.49215800  0.38704600  1
  H  H7  1  0.33571900  0.50889100  0.61501200  1
  H  H8  1  0.72776100  0.69107500  0.71829300  1
  H  H9  1  0.73116100  0.31575200  0.28013200  1
  H  H10  1  0.26883900  0.68424800  0.78013200  1
  H  H11  1  0.27223900  0.30892500  0.21829300  1
  H  H12  1  0.76883900  0.81575200  0.28013200  1
  H  H13  1  0.77223900  0.19107500  0.71829300  1
  H  H14  1  0.22776100  0.80892500  0.21829300  1
  H  H15  1  0.23116100  0.18424800  0.78013200  1
  H  H16  1  0.36625900  0.97955900  0.99038200  1
  H  H17  1  0.63374100  0.02044100  0.49038200  1
  H  H18  1  0.13374100  0.47955900  0.99038200  1
  H  H19  1  0.86625900  0.52044100  0.49038200  1
  O  O0  1  0.86533300  0.93375300  0.83864800  1
  O  O1  1  0.86841800  0.06472200  0.16331500  1
  O  O2  1  0.13158200  0.93527800  0.66331500  1
  O  O3  1  0.13466700  0.06624700  0.33864800  1
  O  O4  1  0.63158200  0.56472200  0.16331500  1
  O  O5  1  0.63466700  0.43375300  0.83864800  1
  O  O6  1  0.36533300  0.56624700  0.33864800  1
  O  O7  1  0.36841800  0.43527800  0.66331500  1
  O  O8  1  0.39502100  0.64579900  0.88395400  1
  O  O9  1  0.39083300  0.34282900  0.11397700  1
  O  O10  1  0.60916700  0.65717100  0.61397700  1
  O  O11  1  0.60497900  0.35420100  0.38395400  1
  O  O12  1  0.10916700  0.84282900  0.11397700  1
  O  O13  1  0.10497900  0.14579900  0.88395400  1
  O  O14  1  0.89502100  0.85420100  0.38395400  1
  O  O15  1  0.89083300  0.15717100  0.61397700  1
  O  O16  1  0.61051200  0.84291700  0.85308300  1
  O  O17  1  0.61508600  0.15780800  0.15021400  1
  O  O18  1  0.38491400  0.84219200  0.65021400  1
  O  O19  1  0.38948800  0.15708300  0.35308300  1
  O  O20  1  0.88491400  0.65780800  0.15021400  1
  O  O21  1  0.88948800  0.34291700  0.85308300  1
  O  O22  1  0.11051200  0.65708300  0.35308300  1
  O  O23  1  0.11508600  0.34219200  0.65021400  1
  O  O24  1  0.35228100  0.90960300  0.92458000  1
  O  O25  1  0.36534600  0.07117600  0.07860600  1
  O  O26  1  0.63465400  0.92882400  0.57860600  1
  O  O27  1  0.64771900  0.09039700  0.42458000  1
  O  O28  1  0.13465400  0.57117600  0.07860600  1
  O  O29  1  0.14771900  0.40960300  0.92458000  1
  O  O30  1  0.85228100  0.59039700  0.42458000  1
  O  O31  1  0.86534600  0.42882400  0.57860600  1
  O  O32  1  0.97723200  0.72111600  0.92924500  1
  O  O33  1  0.98270400  0.27333600  0.07311400  1
  O  O34  1  0.01729600  0.72666400  0.57311400  1
  O  O35  1  0.02276800  0.27888400  0.42924500  1
  O  O36  1  0.51729600  0.77333600  0.07311400  1
  O  O37  1  0.52276800  0.22111600  0.92924500  1
  O  O38  1  0.47723200  0.77888400  0.42924500  1
  O  O39  1  0.48270400  0.22666400  0.57311400  1
  O  O40  1  0.81583200  0.69976200  0.76271400  1
  O  O41  1  0.82085800  0.30025700  0.23930000  1
  O  O42  1  0.17914200  0.69974300  0.73930000  1
  O  O43  1  0.18416800  0.30023800  0.26271400  1
  O  O44  1  0.67914200  0.80025700  0.23930000  1
  O  O45  1  0.68416800  0.19976200  0.76271400  1
  O  O46  1  0.31583200  0.80023800  0.26271400  1
  O  O47  1  0.32085800  0.19974300  0.73930000  1
  O  O48  1  0.71512200  0.64181700  0.96568200  1
  O  O49  1  0.72127300  0.35774700  0.03592700  1
  O  O50  1  0.27872700  0.64225300  0.53592700  1
  O  O51  1  0.28487800  0.35818300  0.46568200  1
  O  O52  1  0.77872700  0.85774700  0.03592700  1
  O  O53  1  0.78487800  0.14181700  0.96568200  1
  O  O54  1  0.21512200  0.85818300  0.46568200  1
  O  O55  1  0.22127300  0.14225300  0.53592700  1
loop_
_geom_bond_atom_site_label_1
_geom_bond_atom_site_label_2
_geom_bond_distance
_geom_bond_site_symmetry_2
Na0 O0 2.369437 1_555
Na0 O15 2.398780 1_565
Na0 O26 2.439817 1_555
Na0 O2 2.492597 1_655
Na0 O34 2.592621 1_655
Na0 O40 2.785824 1_555
Na1 O1 2.360983 1_555
Na1 O14 2.403027 1_545
Na1 O27 2.406603 1_555
Na1 O3 2.448789 1_655
Na1 O35 2.532429 1_655
Na1 O41 2.677291 1_555
Na2 O2 2.360983 1_555
Na2 O13 2.403027 1_565
Na2 O24 2.406603 1_555
Na2 O0 2.448789 1_455
Na2 O32 2.532429 1_455
Na2 O42 2.677291 1_555
Na3 O3 2.369437 1_555
Na3 O12 2.398780 1_545
Na3 O25 2.439817 1_555
Na3 O1 2.492597 1_455
Na3 O33 2.592621 1_455
Na3 O43 2.785824 1_555
Na4 O4 2.360983 1_555
Na4 O11 2.403027 1_555
Na4 O30 2.406603 1_555
Na4 O6 2.448789 1_555
Na4 O38 2.532429 1_555
Na4 O44 2.677291 1_555
Na5 O5 2.369437 1_555
Na5 O10 2.398780 1_555
Na5 O31 2.439817 1_555
Na5 O7 2.492597 1_555
Na5 O39 2.592621 1_555
Na5 O45 2.785824 1_555
Na6 O6 2.369437 1_555
Na6 O9 2.398780 1_555
Na6 O28 2.439817 1_555
Na6 O4 2.492597 1_555
Na6 O36 2.592621 1_555
Na6 O46 2.785824 1_555
Na7 O7 2.360983 1_555
Na7 O8 2.403027 1_555
Na7 O29 2.406603 1_555
Na7 O5 2.448789 1_555
Na7 O37 2.532429 1_555
Na7 O47 2.677291 1_555
Na8 O40 2.377584 1_555
Na8 O42 2.423119 1_655
Na8 O23 2.592143 1_655
Na8 O31 2.592752 1_555
Na8 O21 2.618656 1_555
Na8 O34 2.801517 1_655
Na8 O32 2.917077 1_555
Na8 O29 2.969676 1_655
Na9 O43 2.377584 1_555
Na9 O41 2.423119 1_455
Na9 O20 2.592143 1_455
Na9 O28 2.592752 1_555
Na9 O22 2.618656 1_555
Na9 O33 2.801517 1_455
Na9 O35 2.917077 1_555
Na9 O30 2.969676 1_455
Na10 O46 2.377584 1_555
Na10 O44 2.423119 1_555
Na10 O17 2.592143 1_565
Na10 O25 2.592752 1_565
Na10 O19 2.618656 1_565
Na10 O36 2.801517 1_555
Na10 O38 2.917077 1_555
Na10 O27 2.969676 1_565
Na11 O45 2.377584 1_555
Na11 O47 2.423119 1_555
Na11 O18 2.592143 1_545
Na11 O26 2.592752 1_545
Na11 O16 2.618656 1_545
Na11 O39 2.801517 1_555
Na11 O37 2.917077 1_555
Na11 O24 2.969676 1_545
As0 O40 1.807125 1_555
As0 O0 1.814371 1_555
As0 O48 1.847878 1_555
As0 O52 1.880375 1_556
As0 O32 1.923751 1_555
As0 O16 1.937932 1_555
As1 O41 1.811755 1_555
As1 O1 1.816599 1_555
As1 O49 1.845250 1_555
As1 O53 1.885011 1_554
As1 O17 1.903614 1_555
As1 O33 1.948834 1_555
As2 O42 1.811755 1_555
As2 O2 1.816599 1_555
As2 O50 1.845250 1_555
As2 O54 1.885011 1_555
As2 O18 1.903614 1_555
As2 O34 1.948834 1_555
As3 O43 1.807125 1_555
As3 O3 1.814371 1_555
As3 O51 1.847878 1_555
As3 O55 1.880375 1_555
As3 O35 1.923751 1_555
As3 O19 1.937932 1_555
As4 O44 1.811755 1_555
As4 O4 1.816599 1_555
As4 O52 1.845250 1_555
As4 O48 1.885011 1_554
As4 O20 1.903614 1_555
As4 O36 1.948834 1_555
As5 O45 1.807125 1_555
As5 O5 1.814371 1_555
As5 O53 1.847878 1_555
As5 O49 1.880375 1_556
As5 O37 1.923751 1_555
As5 O21 1.937932 1_555
As6 O46 1.807125 1_555
As6 O6 1.814371 1_555
As6 O54 1.847878 1_555
As6 O50 1.880375 1_555
As6 O38 1.923751 1_555
As6 O22 1.937932 1_555
As7 O47 1.811755 1_555
As7 O7 1.816599 1_555
As7 O55 1.845250 1_555
As7 O51 1.885011 1_555
As7 O23 1.903614 1_555
As7 O39 1.948834 1_555
As8 O8 1.668766 1_555
As8 O24 1.749672 1_555
As8 O36 1.760799 1_556
As8 O16 1.761328 1_555
As9 O9 1.684882 1_555
As9 O25 1.706717 1_555
As9 O37 1.772771 1_554
As9 O17 1.775083 1_555
As10 O10 1.684882 1_555
As10 O26 1.706717 1_555
As10 O38 1.772771 1_555
As10 O18 1.775083 1_555
As11 O11 1.668766 1_555
As11 O27 1.749672 1_555
As11 O39 1.760799 1_555
As11 O19 1.761328 1_555
As12 O12 1.684882 1_555
As12 O28 1.706717 1_555
As12 O32 1.772771 1_454
As12 O20 1.775083 1_455
As13 O13 1.668766 1_555
As13 O29 1.749672 1_555
As13 O33 1.760799 1_456
As13 O21 1.761328 1_455
As14 O14 1.668766 1_555
As14 O30 1.749672 1_555
As14 O34 1.760799 1_655
As14 O22 1.761328 1_655
As15 O15 1.684882 1_555
As15 O31 1.706717 1_555
As15 O35 1.772771 1_655
As15 O23 1.775083 1_655
H0 O0 1.002710 1_545
H0 O53 1.732101 1_555
H1 O1 1.002529 1_565
H1 O52 1.752349 1_555
H2 O2 1.002529 1_545
H2 O55 1.752349 1_555
H3 O3 1.002710 1_565
H3 O54 1.732101 1_555
H4 O4 1.002529 1_555
H4 O49 1.752349 1_555
H5 O5 1.002710 1_555
H5 O48 1.732101 1_555
H6 O6 1.002710 1_555
H6 O51 1.732101 1_555
H7 O7 1.002529 1_555
H7 O50 1.752349 1_555
H8 O40 1.008014 1_555
H8 O10 1.734532 1_555
H9 O41 1.007867 1_555
H10 O42 1.007867 1_555
H11 O43 1.008014 1_555
H11 O9 1.734532 1_555
H12 O44 1.007867 1_555
H13 O45 1.008014 1_555
H13 O15 1.734532 1_555
H14 O46 1.008014 1_555
H14 O12 1.734532 1_555
H15 O47 1.007867 1_555
H16 O24 1.076415 1_555
H16 O25 1.417044 1_566
H17 O27 1.076415 1_555
H17 O26 1.417044 1_545
H18 O29 1.076415 1_555
H18 O28 1.417044 1_556
H19 O30 1.076415 1_555
H19 O31 1.417044 1_555
