# generated using pymatgen
data_NaCdFe(PO4)2
_symmetry_space_group_name_H-M   'P 1'
_cell_length_a   8.40501058
_cell_length_b   9.03625376
_cell_length_c   17.96448094
_cell_angle_alpha   96.42209105
_cell_angle_beta   112.40918657
_cell_angle_gamma   105.81076024
_symmetry_Int_Tables_number   1
_chemical_formula_structural   NaCdFe(PO4)2
_chemical_formula_sum   'Na6 Cd6 Fe6 P12 O48'
_cell_volume   1177.41457347
_cell_formula_units_Z   6
loop_
 _symmetry_equiv_pos_site_id
 _symmetry_equiv_pos_as_xyz
  1  'x, y, z'
loop_
 _atom_site_type_symbol
 _atom_site_label
 _atom_site_symmetry_multiplicity
 _atom_site_fract_x
 _atom_site_fract_y
 _atom_site_fract_z
 _atom_site_occupancy
  Na  Na0  1  0.93364100  0.48875000  0.67637900  1
  Na  Na1  1  0.83679200  0.48909700  0.29982100  1
  Na  Na2  1  0.55508500  0.38275900  0.71993200  1
  Na  Na3  1  0.93450300  0.99309400  0.03853600  1
  Na  Na4  1  0.84332100  0.98383500  0.58116600  1
  Na  Na5  1  0.68513800  0.74403400  0.12230200  1
  Cd  Cd0  1  0.37088300  0.19750200  0.91716000  1
  Cd  Cd1  1  0.20780000  0.35265500  0.37312800  1
  Cd  Cd2  1  0.22064900  0.55472900  0.91247600  1
  Cd  Cd3  1  0.80712600  0.82847700  0.74892800  1
  Cd  Cd4  1  0.37393500  0.59126500  0.26880300  1
  Cd  Cd5  1  0.96772600  0.59361700  0.51443200  1
  Fe  Fe0  1  0.51932200  0.03249000  0.78573300  1
  Fe  Fe1  1  0.13788200  0.33704900  0.53051300  1
  Fe  Fe2  1  0.37694800  0.98876700  0.23220500  1
  Fe  Fe3  1  0.01498400  0.60234300  0.04978200  1
  Fe  Fe4  1  0.38719300  0.90394000  0.61930600  1
  Fe  Fe5  1  0.51578800  0.17337600  0.13621100  1
  P  P0  1  0.32671600  0.36021000  0.09167100  1
  P  P1  1  0.11387000  0.03821600  0.47538600  1
  P  P2  1  0.12907100  0.82180700  0.77461200  1
  P  P3  1  0.52919700  0.60749700  0.56750600  1
  P  P4  1  0.23219100  0.91222100  0.01743400  1
  P  P5  1  0.11916000  0.79215600  0.26580800  1
  P  P6  1  0.94197100  0.22577800  0.78115500  1
  P  P7  1  0.85917600  0.24721700  0.92946900  1
  P  P8  1  0.60859700  0.62104300  0.41563300  1
  P  P9  1  0.90493800  0.16148200  0.20497000  1
  P  P10  1  0.78327600  0.04984000  0.34604900  1
  P  P11  1  0.62645600  0.61960400  0.93535100  1
  O  O0  1  0.30544300  0.97858000  0.81663500  1
  O  O1  1  0.21175500  0.73170000  0.01289000  1
  O  O2  1  0.14152000  0.80482300  0.62192600  1
  O  O3  1  0.14338900  0.68329600  0.81551300  1
  O  O4  1  0.42260800  0.02429000  0.02484000  1
  O  O5  1  0.22442000  0.97427200  0.29443500  1
  O  O6  1  0.54948000  0.44334000  0.90004200  1
  O  O7  1  0.15046700  0.30406700  0.83785700  1
  O  O8  1  0.93711900  0.94808700  0.38957900  1
  O  O9  1  0.06990400  0.43557500  0.44799800  1
  O  O10  1  0.40417400  0.47974700  0.59059500  1
  O  O11  1  0.41543800  0.51813100  0.15620500  1
  O  O12  1  0.51928700  0.69266800  0.97148300  1
  O  O13  1  0.15520200  0.73265800  0.69338400  1
  O  O14  1  0.21436200  0.73077300  0.34881000  1
  O  O15  1  0.44670900  0.10904100  0.69031600  1
  O  O16  1  0.21815900  0.92620600  0.50514600  1
  O  O17  1  0.54116900  0.86518700  0.72562300  1
  O  O18  1  0.14014900  0.55470500  0.31109600  1
  O  O19  1  0.10888800  0.26182600  0.23944700  1
  O  O20  1  0.65006300  0.18168900  0.90433600  1
  O  O21  1  0.23097800  0.19483900  0.46466000  1
  O  O22  1  0.07905500  0.94032600  0.94868200  1
  O  O23  1  0.13975300  0.25216000  0.07400300  1
  O  O24  1  0.62335100  0.71011400  0.85866600  1
  O  O25  1  0.24436300  0.96967400  0.10698300  1
  O  O26  1  0.49312900  0.53228600  0.47163600  1
  O  O27  1  0.19996600  0.74281200  0.20229300  1
  O  O28  1  0.69865000  0.64213400  0.81141200  1
  O  O29  1  0.72986600  0.63360300  0.62415500  1
  O  O30  1  0.50533400  0.19806100  0.23850300  1
  O  O31  1  0.48691800  0.76322800  0.56601700  1
  O  O32  1  0.59776700  0.91515500  0.28078100  1
  O  O33  1  0.84867800  0.34425100  0.75437000  1
  O  O34  1  0.88877500  0.12236800  0.28999000  1
  O  O35  1  0.38178500  0.37292800  0.02006900  1
  O  O36  1  0.85903100  0.14874300  0.84669100  1
  O  O37  1  0.74342700  0.77710200  0.47544800  1
  O  O38  1  0.02722500  0.40534400  0.58469100  1
  O  O39  1  0.05648700  0.11111700  0.54011700  1
  O  O40  1  0.91532200  0.72827200  0.23408900  1
  O  O41  1  0.89874500  0.46750100  0.08544400  1
  O  O42  1  0.89407200  0.08016300  0.71520100  1
  O  O43  1  0.83274400  0.69680600  0.99818900  1
  O  O44  1  0.78021500  0.26400000  0.17750000  1
  O  O45  1  0.70768500  0.50585000  0.40157900  1
  O  O46  1  0.96254400  0.42453500  0.94381700  1
  O  O47  1  0.84109600  0.00911800  0.14100300  1
loop_
_geom_bond_atom_site_label_1
_geom_bond_atom_site_label_2
_geom_bond_distance
_geom_bond_site_symmetry_2
Na0 O33 2.200422 1_555
Na0 O38 2.221013 1_655
Na0 O13 2.366001 1_655
Na0 O29 2.407932 1_555
Na0 O3 2.532660 1_655
Na1 O18 2.376813 1_655
Na1 O45 2.466210 1_555
Na1 O44 2.620778 1_555
Na1 O40 2.624662 1_555
Na1 O9 2.826036 1_655
Na1 O30 2.985077 1_555
Na2 O15 2.310594 1_555
Na2 O28 2.394862 1_555
Na2 O33 2.438283 1_555
Na2 O10 2.567056 1_555
Na3 O47 2.264931 1_565
Na3 O23 2.343046 1_665
Na3 O22 2.438820 1_654
Na3 O25 2.501291 1_655
Na3 O43 2.504079 1_554
Na4 O37 2.222037 1_555
Na4 O39 2.269552 1_665
Na4 O42 2.298513 1_565
Na5 O40 2.246792 1_555
Na5 O47 2.311304 1_565
Na5 O12 2.446608 1_554
Na5 O11 2.913017 1_555
Na5 O43 2.979460 1_554
Cd0 O35 2.252791 1_556
Cd0 O0 2.308190 1_545
Cd0 O7 2.378172 1_555
Cd0 O6 2.443442 1_555
Cd0 O20 2.483366 1_555
Cd0 O4 2.605321 1_556
Cd1 O19 2.190222 1_555
Cd1 O9 2.269385 1_555
Cd1 O21 2.281916 1_555
Cd1 O18 2.331596 1_555
Cd1 O26 2.349077 1_555
Cd1 O34 2.638494 1_455
Cd2 O3 2.192474 1_555
Cd2 O12 2.224543 1_555
Cd2 O7 2.294586 1_555
Cd2 O1 2.310741 1_556
Cd2 O46 2.468995 1_455
Cd3 O17 2.236918 1_555
Cd3 O28 2.300680 1_555
Cd3 O42 2.411172 1_565
Cd3 O29 2.435351 1_555
Cd3 P2 2.584931 1_655
Cd4 O11 2.239321 1_555
Cd4 O18 2.321248 1_555
Cd4 O27 2.359255 1_555
Cd4 P8 2.550601 1_555
Cd5 O45 2.198524 1_555
Cd5 O2 2.238511 1_655
Cd5 O38 2.280405 1_655
Cd5 O9 2.295622 1_655
Fe0 O17 1.850014 1_545
Fe0 O15 1.867312 1_555
Fe0 O0 2.030080 1_545
Fe0 O20 2.080817 1_555
Fe0 O36 2.485859 1_555
Fe1 O38 1.749783 1_555
Fe1 O9 1.800862 1_555
Fe1 O39 2.018301 1_555
Fe1 O10 2.027627 1_555
Fe1 O21 2.139333 1_555
Fe2 O30 1.871086 1_565
Fe2 O5 1.986055 1_555
Fe2 O32 2.053384 1_555
Fe2 O25 2.056494 1_555
Fe2 O27 2.182411 1_555
Fe3 O41 1.689009 1_455
Fe3 O43 1.934138 1_454
Fe3 O1 2.120467 1_555
Fe3 O46 2.165573 1_454
Fe3 O27 2.536480 1_555
Fe4 O15 1.947255 1_565
Fe4 O17 1.989306 1_555
Fe4 O2 2.035655 1_555
Fe4 O31 2.038623 1_555
Fe4 O16 2.071576 1_555
Fe5 O30 1.864517 1_555
Fe5 O44 1.943140 1_555
Fe5 O4 2.014590 1_555
Fe5 O25 2.334650 1_545
Fe5 P0 2.609717 1_555
O0 P2 1.592943 1_555
O1 P4 1.582381 1_555
O3 P2 1.530133 1_555
O4 P4 1.590289 1_545
O5 P5 1.557485 1_555
O6 P11 1.502463 1_555
O7 P6 1.552825 1_455
O8 P1 1.600093 1_665
O8 P10 1.779518 1_565
O10 P3 1.545081 1_555
O11 P0 1.525574 1_555
O12 P11 1.530541 1_555
O13 O2 1.483892 1_555
O13 P2 1.704202 1_555
O14 O18 1.508390 1_555
O14 P5 1.639655 1_555
O16 P1 1.525064 1_565
O19 P9 1.536931 1_455
O20 P7 1.552952 1_555
O21 P1 1.567003 1_555
O22 P4 1.510911 1_556
O23 P0 1.495909 1_555
O24 O28 1.415392 1_555
O24 P11 1.674414 1_555
O25 P4 1.589546 1_555
O26 P3 1.657639 1_555
O26 P8 1.760142 1_555
O27 P5 1.613711 1_555
O29 P3 1.535194 1_555
O31 P3 1.543031 1_555
O32 P10 1.593720 1_565
O33 P6 1.509129 1_555
O34 P9 1.651951 1_555
O34 P10 1.655841 1_555
O35 P0 1.529708 1_555
O36 P7 1.644743 1_555
O36 P6 1.703311 1_555
O37 P8 1.513034 1_555
O39 P1 1.564671 1_555
O40 P5 1.495443 1_655
O42 P6 1.515309 1_555
O43 P11 1.561936 1_555
O44 P9 1.561301 1_555
O45 P8 1.553957 1_555
O46 P7 1.538472 1_555
O47 P9 1.509099 1_555
