# generated using pymatgen
data_La2U2Se9
_symmetry_space_group_name_H-M   'P 1'
_cell_length_a   5.64307095
_cell_length_b   10.69546969
_cell_length_c   10.74958634
_cell_angle_alpha   90.00000000
_cell_angle_beta   90.00000000
_cell_angle_gamma   90.00000000
_symmetry_Int_Tables_number   1
_chemical_formula_structural   La2U2Se9
_chemical_formula_sum   'La4 U4 Se18'
_cell_volume   648.79444720
_cell_formula_units_Z   2
loop_
 _symmetry_equiv_pos_site_id
 _symmetry_equiv_pos_as_xyz
  1  'x, y, z'
loop_
 _atom_site_type_symbol
 _atom_site_label
 _atom_site_symmetry_multiplicity
 _atom_site_fract_x
 _atom_site_fract_y
 _atom_site_fract_z
 _atom_site_occupancy
  La  La0  1  0.50000000  0.57522279  0.25000000  1
  La  La1  1  0.50000000  0.42477721  0.75000000  1
  La  La2  1  0.50000000  0.02556664  0.25000000  1
  La  La3  1  0.50000000  0.97443336  0.75000000  1
  U  U0  1  0.00000000  0.25588614  0.49043721  1
  U  U1  1  0.00000000  0.74411386  0.50956279  1
  U  U2  1  0.00000000  0.25588614  0.00956279  1
  U  U3  1  0.00000000  0.74411386  0.99043721  1
  Se  Se0  1  0.00000000  0.68448760  0.25000000  1
  Se  Se1  1  0.00000000  0.31551240  0.75000000  1
  Se  Se2  1  0.50000000  0.18823982  0.94501203  1
  Se  Se3  1  0.50000000  0.81176018  0.05498797  1
  Se  Se4  1  0.50000000  0.18823982  0.55498797  1
  Se  Se5  1  0.50000000  0.81176018  0.44501203  1
  Se  Se6  1  0.00000000  0.00025022  0.37754375  1
  Se  Se7  1  0.00000000  -0.00025022  0.62245625  1
  Se  Se8  1  0.00000000  0.00025022  0.12245625  1
  Se  Se9  1  0.00000000  -0.00025022  0.87754375  1
  Se  Se10  1  0.74987776  0.50000000  0.50000000  1
  Se  Se11  1  0.74987776  0.50000000  0.00000000  1
  Se  Se12  1  0.25012224  0.50000000  0.50000000  1
  Se  Se13  1  0.25012224  0.50000000  0.00000000  1
  Se  Se14  1  0.74914921  0.28612452  0.25000000  1
  Se  Se15  1  0.74914921  0.71387548  0.75000000  1
  Se  Se16  1  0.25085079  0.71387548  0.75000000  1
  Se  Se17  1  0.25085079  0.28612452  0.25000000  1
loop_
_geom_bond_atom_site_label_1
_geom_bond_atom_site_label_2
_geom_bond_distance
_geom_bond_site_symmetry_2
La0 Se0 3.053977 1_555
La0 Se0 3.053977 1_655
La0 Se11 3.139699 1_555
La0 Se12 3.139699 1_555
La0 Se10 3.139699 1_555
La0 Se13 3.139699 1_555
La0 Se3 3.285537 1_555
La0 Se5 3.285537 1_555
La0 Se14 3.396684 1_555
La0 Se17 3.396684 1_555
La1 Se1 3.053977 1_555
La1 Se1 3.053977 1_655
La1 Se12 3.139699 1_555
La1 Se10 3.139699 1_555
La1 Se11 3.139699 1_556
La1 Se13 3.139699 1_556
La1 Se2 3.285537 1_555
La1 Se4 3.285537 1_555
La1 Se15 3.396684 1_555
La1 Se16 3.396684 1_555
La2 Se3 3.102216 1_545
La2 Se5 3.102216 1_545
La2 Se14 3.121367 1_555
La2 Se17 3.121367 1_555
La2 Se8 3.148672 1_655
La2 Se6 3.148672 1_655
La2 Se8 3.148672 1_555
La2 Se6 3.148672 1_555
La2 Se2 3.711558 1_554
La2 Se4 3.711558 1_555
La3 Se2 3.102216 1_565
La3 Se4 3.102216 1_565
La3 Se15 3.121367 1_555
La3 Se16 3.121367 1_555
La3 Se7 3.148672 1_565
La3 Se7 3.148672 1_665
La3 Se9 3.148672 1_665
La3 Se9 3.148672 1_565
La3 Se5 3.711558 1_555
La3 Se3 3.711558 1_556
Se0 U1 2.862145 1_555
Se0 U3 2.862145 1_554
Se1 U2 2.862145 1_556
Se1 U0 2.862145 1_555
Se2 U2 2.994331 1_556
Se2 U2 2.994331 1_656
Se3 U3 2.994331 1_654
Se3 U3 2.994331 1_554
Se4 U0 2.994331 1_555
Se4 U0 2.994331 1_655
Se5 U1 2.994331 1_555
Se5 U1 2.994331 1_655
Se6 Se7 2.632714 1_555
Se6 Se8 2.742085 1_555
Se6 U0 2.991367 1_555
Se6 U1 3.085262 1_545
Se7 Se9 2.742085 1_555
Se7 U1 2.991367 1_545
Se7 U0 3.085262 1_555
Se8 Se9 2.632714 1_554
Se8 U2 2.991367 1_555
Se8 U3 3.085262 1_544
Se9 U3 2.991367 1_545
Se9 U2 3.085262 1_556
Se10 Se12 2.820156 1_555
Se10 Se12 2.822915 1_655
Se10 U0 2.969788 1_655
Se10 U1 2.969788 1_655
Se11 Se13 2.820156 1_555
Se11 Se13 2.822915 1_655
Se11 U2 2.969788 1_655
Se11 U3 2.969788 1_654
Se12 U0 2.969788 1_555
Se12 U1 2.969788 1_555
Se13 U3 2.969788 1_554
Se13 U2 2.969788 1_555
Se14 Se17 2.811933 1_555
Se14 Se17 2.831138 1_655
Se14 U2 2.964556 1_655
Se14 U0 2.964556 1_655
Se15 Se16 2.811933 1_555
Se15 Se16 2.831138 1_655
Se15 U1 2.964556 1_655
Se15 U3 2.964556 1_655
Se16 U3 2.964556 1_555
Se16 U1 2.964556 1_555
Se17 U2 2.964556 1_555
Se17 U0 2.964556 1_555
