# generated using pymatgen
data_Y2C3
_symmetry_space_group_name_H-M   'P 1'
_cell_length_a   7.13604798
_cell_length_b   7.13604877
_cell_length_c   7.13604880
_cell_angle_alpha   109.47121486
_cell_angle_beta   109.47121707
_cell_angle_gamma   109.47122194
_symmetry_Int_Tables_number   1
_chemical_formula_structural   Y2C3
_chemical_formula_sum   'Y8 C12'
_cell_volume   279.73804453
_cell_formula_units_Z   4
loop_
 _symmetry_equiv_pos_site_id
 _symmetry_equiv_pos_as_xyz
  1  'x, y, z'
loop_
 _atom_site_type_symbol
 _atom_site_label
 _atom_site_symmetry_multiplicity
 _atom_site_fract_x
 _atom_site_fract_y
 _atom_site_fract_z
 _atom_site_occupancy
  Y  Y0  1  0.60050510  0.60050510  0.60050510  1
  Y  Y1  1  0.39949490  0.50000000  -0.00000000  1
  Y  Y2  1  0.50000000  0.00000000  0.39949490  1
  Y  Y3  1  0.00000000  0.39949490  0.50000000  1
  Y  Y4  1  0.50000000  0.00000000  0.89949490  1
  Y  Y5  1  0.00000000  0.89949490  0.50000000  1
  Y  Y6  1  0.89949490  0.50000000  -0.00000000  1
  Y  Y7  1  0.10050510  0.10050510  0.10050510  1
  C  C0  1  0.75000000  0.79416625  0.04416625  1
  C  C1  1  0.75000000  0.95583375  0.20583375  1
  C  C2  1  0.29416625  0.25000000  0.54416625  1
  C  C3  1  0.54416625  0.29416625  0.25000000  1
  C  C4  1  0.20583375  0.75000000  0.95583375  1
  C  C5  1  0.95583375  0.20583375  0.75000000  1
  C  C6  1  0.25000000  0.70583375  0.45583375  1
  C  C7  1  0.70583375  0.45583375  0.25000000  1
  C  C8  1  0.25000000  0.54416625  0.29416625  1
  C  C9  1  0.45583375  0.25000000  0.70583375  1
  C  C10  1  0.04416625  0.75000000  0.79416625  1
  C  C11  1  0.79416625  0.04416625  0.75000000  1
loop_
_geom_bond_atom_site_label_1
_geom_bond_atom_site_label_2
_geom_bond_distance
_geom_bond_site_symmetry_2
C0 C1 1.332140 1_555
C0 Y1 2.508994 1_555
C0 Y7 2.508994 1_665
C0 Y6 2.630590 1_555
C0 Y0 2.630590 1_554
C1 Y5 2.508995 1_655
C1 Y4 2.508995 1_564
C1 Y2 2.630590 1_565
C1 Y3 2.630590 1_665
C2 C9 1.332140 1_555
C2 Y5 2.508995 1_545
C2 Y0 2.508995 1_555
C2 Y3 2.630590 1_555
C2 Y7 2.630590 1_555
C3 C7 1.332140 1_555
C3 Y4 2.508995 1_554
C3 Y0 2.508995 1_555
C3 Y7 2.630590 1_555
C3 Y2 2.630590 1_555
C4 Y6 2.508994 1_456
C4 Y4 2.508994 1_565
C4 Y1 2.630590 1_556
C4 Y2 2.630590 1_566
C5 Y6 2.508995 1_556
C5 Y5 2.508995 1_645
C5 Y3 2.630590 1_655
C5 Y1 2.630590 1_656
C6 C8 1.332140 1_555
C6 Y2 2.508994 1_565
C6 Y3 2.508994 1_555
C6 Y5 2.630590 1_555
C6 Y4 2.630590 1_565
C7 Y1 2.508995 1_555
C7 Y3 2.508995 1_655
C7 Y6 2.630590 1_555
C7 Y5 2.630590 1_655
C8 Y6 2.508995 1_455
C8 Y0 2.508995 1_555
C8 Y1 2.630590 1_555
C8 Y7 2.630590 1_555
C9 Y1 2.508995 1_556
C9 Y2 2.508995 1_555
C9 Y4 2.630590 1_555
C9 Y6 2.630590 1_556
C10 C4 1.332140 1_555
C10 Y3 2.508995 1_555
C10 Y7 2.508995 1_566
C10 Y0 2.630590 1_455
C10 Y5 2.630590 1_555
C11 C5 1.332140 1_555
C11 Y2 2.508995 1_555
C11 Y7 2.508995 1_656
C11 Y4 2.630590 1_555
C11 Y0 2.630590 1_545
