# generated using pymatgen
data_Mg6NiSb
_symmetry_space_group_name_H-M   'P 1'
_cell_length_a   4.84856000
_cell_length_b   6.40133600
_cell_length_c   10.65805200
_cell_angle_alpha   90.00000000
_cell_angle_beta   90.00000000
_cell_angle_gamma   90.00000000
_symmetry_Int_Tables_number   1
_chemical_formula_structural   Mg6NiSb
_chemical_formula_sum   'Mg12 Ni2 Sb2'
_cell_volume   330.79674888
_cell_formula_units_Z   2
loop_
 _symmetry_equiv_pos_site_id
 _symmetry_equiv_pos_as_xyz
  1  'x, y, z'
loop_
 _atom_site_type_symbol
 _atom_site_label
 _atom_site_symmetry_multiplicity
 _atom_site_fract_x
 _atom_site_fract_y
 _atom_site_fract_z
 _atom_site_occupancy
  Mg  Mg0  1  0.50000000  0.24714900  0.58516300  1
  Mg  Mg1  1  0.50000000  0.75285100  0.58516300  1
  Mg  Mg2  1  0.00000000  0.27117400  0.41256100  1
  Mg  Mg3  1  0.00000000  0.72882600  0.41256100  1
  Mg  Mg4  1  0.00000000  0.00000000  0.67457900  1
  Mg  Mg5  1  0.00000000  0.00000000  0.16211300  1
  Mg  Mg6  1  0.50000000  0.74714900  0.08516300  1
  Mg  Mg7  1  0.50000000  0.25285100  0.08516300  1
  Mg  Mg8  1  0.00000000  0.77117400  0.91256100  1
  Mg  Mg9  1  0.00000000  0.22882600  0.91256100  1
  Mg  Mg10  1  0.00000000  0.50000000  0.17457900  1
  Mg  Mg11  1  0.00000000  0.50000000  0.66211300  1
  Ni  Ni0  1  0.50000000  0.00000000  0.83402800  1
  Ni  Ni1  1  0.50000000  0.50000000  0.33402800  1
  Sb  Sb0  1  0.50000000  0.00000000  0.33383700  1
  Sb  Sb1  1  0.50000000  0.50000000  0.83383700  1
loop_
_geom_bond_atom_site_label_1
_geom_bond_atom_site_label_2
_geom_bond_distance
_geom_bond_site_symmetry_2
Mg0 Mg11 3.028130 1_555
Mg0 Mg11 3.028130 1_655
Mg0 Mg2 3.047116 1_655
Mg0 Mg2 3.047116 1_555
Mg0 Mg4 3.047677 1_655
Mg0 Mg4 3.047677 1_555
Mg0 Ni0 3.088414 1_555
Mg0 Sb1 3.105532 1_555
Mg0 Sb0 3.110970 1_555
Mg0 Ni1 3.127947 1_555
Mg0 Mg1 3.164168 1_545
Mg0 Mg1 3.237168 1_555
Mg1 Mg11 3.028130 1_655
Mg1 Mg11 3.028130 1_555
Mg1 Mg3 3.047116 1_555
Mg1 Mg3 3.047116 1_655
Mg1 Mg4 3.047677 1_565
Mg1 Mg4 3.047677 1_665
Mg1 Ni0 3.088414 1_565
Mg1 Sb1 3.105532 1_555
Mg1 Sb0 3.110970 1_565
Mg1 Ni1 3.127947 1_555
Mg2 Ni1 2.953529 1_455
Mg2 Ni1 2.953529 1_555
Mg2 Sb0 3.097482 1_455
Mg2 Sb0 3.097482 1_555
Mg3 Ni1 2.953529 1_455
Mg3 Ni1 2.953529 1_555
Mg3 Sb0 3.097482 1_565
Mg3 Sb0 3.097482 1_465
Mg4 Ni0 2.960599 1_555
Mg4 Ni0 2.960599 1_455
Mg5 Mg6 3.028130 1_445
Mg5 Mg7 3.028130 1_455
Mg5 Mg6 3.028130 1_545
Mg5 Mg7 3.028130 1_555
Mg5 Sb0 3.037585 1_455
Mg5 Sb0 3.037585 1_555
Mg6 Mg8 3.047116 1_654
Mg6 Mg8 3.047116 1_554
Mg6 Ni1 3.088414 1_555
Mg6 Sb0 3.105532 1_565
Mg6 Sb1 3.110970 1_554
Mg6 Ni0 3.127947 1_564
Mg6 Mg7 3.164168 1_555
Mg6 Mg7 3.237168 1_565
Mg7 Mg9 3.047116 1_654
Mg7 Mg9 3.047116 1_554
Mg7 Ni1 3.088414 1_555
Mg7 Sb0 3.105532 1_555
Mg7 Sb1 3.110970 1_554
Mg7 Ni0 3.127947 1_554
Mg8 Ni0 2.953529 1_565
Mg8 Ni0 2.953529 1_465
Mg8 Sb1 3.097482 1_455
Mg8 Sb1 3.097482 1_555
Mg9 Ni0 2.953529 1_555
Mg9 Ni0 2.953529 1_455
Mg9 Sb1 3.097482 1_455
Mg9 Sb1 3.097482 1_555
Mg10 Ni1 2.960599 1_455
Mg10 Ni1 2.960599 1_555
Mg10 Mg6 3.047677 1_555
Mg10 Mg6 3.047677 1_455
Mg10 Mg7 3.047677 1_555
Mg10 Mg7 3.047677 1_455
Mg11 Sb1 3.037585 1_455
Mg11 Sb1 3.037585 1_555
Ni0 Sb1 3.200669 1_555
Ni0 Sb1 3.200669 1_545
Ni1 Sb0 3.200669 1_565
Ni1 Sb0 3.200669 1_555
