# generated using pymatgen
data_Ce2H5
_symmetry_space_group_name_H-M   'P 1'
_cell_length_a   5.51956511
_cell_length_b   5.51956511
_cell_length_c   6.80471607
_cell_angle_alpha   113.92678952
_cell_angle_beta   113.92678952
_cell_angle_gamma   90.00000000
_symmetry_Int_Tables_number   1
_chemical_formula_structural   Ce2H5
_chemical_formula_sum   'Ce4 H10'
_cell_volume   169.82041764
_cell_formula_units_Z   2
loop_
 _symmetry_equiv_pos_site_id
 _symmetry_equiv_pos_as_xyz
  1  'x, y, z'
loop_
 _atom_site_type_symbol
 _atom_site_label
 _atom_site_symmetry_multiplicity
 _atom_site_fract_x
 _atom_site_fract_y
 _atom_site_fract_z
 _atom_site_occupancy
  Ce  Ce0  1  0.24998906  0.74998906  0.49997813  1
  Ce  Ce1  1  -0.00001094  -0.00001094  -0.00002187  1
  Ce  Ce2  1  0.73756985  0.23756985  0.47514170  1
  Ce  Ce3  1  0.48756985  0.48756985  0.97514170  1
  H  H0  1  0.64013560  0.61873868  0.73752655  1
  H  H1  1  0.09739195  0.11878787  0.73752655  1
  H  H2  1  0.36878787  0.84739195  0.23752655  1
  H  H3  1  0.86873868  0.39013560  0.23752655  1
  H  H4  1  0.09739195  0.61873868  0.73752655  1
  H  H5  1  0.64013560  0.11878787  0.73752655  1
  H  H6  1  0.86873868  0.84739195  0.23752655  1
  H  H7  1  0.36878787  0.39013560  0.23752655  1
  H  H8  1  0.49338699  0.99338699  0.98677398  1
  H  H9  1  0.24338699  0.24338699  0.48677398  1
loop_
_geom_bond_atom_site_label_1
_geom_bond_atom_site_label_2
_geom_bond_distance
_geom_bond_site_symmetry_2
Ce0 H7 2.374269 1_555
Ce0 H3 2.374269 1_455
Ce0 H2 2.374271 1_555
Ce0 H6 2.374272 1_455
Ce0 H4 2.429273 1_555
Ce0 H1 2.429273 1_565
Ce0 H0 2.429277 1_555
Ce0 H5 2.429277 1_565
Ce0 H8 2.713483 1_555
Ce0 H9 2.760764 1_555
Ce0 H9 2.760764 1_565
Ce1 H5 2.374269 1_454
Ce1 H0 2.374269 1_444
Ce1 H1 2.374271 1_554
Ce1 H4 2.374272 1_544
Ce1 H6 2.429273 1_445
Ce1 H2 2.429273 1_545
Ce1 H3 2.429277 1_455
Ce1 H7 2.429277 1_555
Ce1 H9 2.713483 1_555
Ce1 H8 2.760764 1_444
Ce1 H8 2.760764 1_544
Ce2 H5 2.373875 1_555
Ce2 H0 2.373882 1_555
Ce2 H1 2.373884 1_655
Ce2 H4 2.373891 1_655
Ce2 H2 2.429315 1_545
Ce2 H6 2.429322 1_545
Ce2 H7 2.429325 1_555
Ce2 H3 2.429332 1_555
Ce2 H8 2.722245 1_544
Ce2 H9 2.760539 1_555
Ce2 H9 2.760550 1_655
Ce3 H7 2.373875 1_556
Ce3 H3 2.373882 1_556
Ce3 H2 2.373884 1_556
Ce3 H6 2.373891 1_556
Ce3 H1 2.429315 1_555
Ce3 H4 2.429322 1_555
Ce3 H5 2.429325 1_555
Ce3 H0 2.429332 1_555
Ce3 H9 2.722245 1_555
Ce3 H8 2.760539 1_545
Ce3 H8 2.760550 1_555
