# generated using pymatgen
data_ZrTi2Ni9
_symmetry_space_group_name_H-M   'P 1'
_cell_length_a   6.99672082
_cell_length_b   6.99672082
_cell_length_c   6.99672165
_cell_angle_alpha   43.28518262
_cell_angle_beta   43.28518262
_cell_angle_gamma   43.28518532
_symmetry_Int_Tables_number   1
_chemical_formula_structural   ZrTi2Ni9
_chemical_formula_sum   'Zr1 Ti2 Ni9'
_cell_volume   146.02850498
_cell_formula_units_Z   1
loop_
 _symmetry_equiv_pos_site_id
 _symmetry_equiv_pos_as_xyz
  1  'x, y, z'
loop_
 _atom_site_type_symbol
 _atom_site_label
 _atom_site_symmetry_multiplicity
 _atom_site_fract_x
 _atom_site_fract_y
 _atom_site_fract_z
 _atom_site_occupancy
  Zr  Zr0  1  0.00000000  0.00000000  0.00000000  1
  Ti  Ti0  1  0.78087600  0.78087600  0.78087600  1
  Ti  Ti1  1  0.21912400  0.21912400  0.21912400  1
  Ni  Ni0  1  0.50000000  0.50000000  0.00000000  1
  Ni  Ni1  1  0.00000000  0.50000000  0.50000000  1
  Ni  Ni2  1  0.50000000  0.00000000  0.50000000  1
  Ni  Ni3  1  0.71349200  0.23591900  0.71349200  1
  Ni  Ni4  1  0.71349200  0.71349200  0.23591900  1
  Ni  Ni5  1  0.23591900  0.71349200  0.71349200  1
  Ni  Ni6  1  0.28650800  0.76408100  0.28650800  1
  Ni  Ni7  1  0.28650800  0.28650800  0.76408100  1
  Ni  Ni8  1  0.76408100  0.28650800  0.28650800  1
loop_
_geom_bond_atom_site_label_1
_geom_bond_atom_site_label_2
_geom_bond_distance
_geom_bond_site_symmetry_2
Ni0 Ni1 2.580500 1_654
Ni0 Ni2 2.580500 1_564
Ni0 Ni2 2.580500 1_555
Ni0 Ni1 2.580500 1_555
Ni0 Zr0 2.580500 1_655
Ni0 Zr0 2.580500 1_565
Ni0 Ni6 2.584283 1_555
Ni0 Ni5 2.584283 1_554
Ni0 Ni8 2.584283 1_555
Ni0 Ni3 2.584283 1_554
Ni0 Ti0 2.631402 1_554
Ni0 Ti1 2.631402 1_555
Ni1 Zr0 2.580500 1_556
Ni1 Zr0 2.580500 1_565
Ni1 Ni2 2.580500 1_555
Ni1 Ni2 2.580500 1_465
Ni1 Ni3 2.584282 1_455
Ni1 Ni6 2.584282 1_555
Ni1 Ni4 2.584283 1_455
Ni1 Ni7 2.584283 1_555
Ni1 Ti0 2.631402 1_455
Ni1 Ti1 2.631402 1_555
Ni2 Zr0 2.580500 1_556
Ni2 Zr0 2.580500 1_655
Ni2 Ni8 2.584282 1_555
Ni2 Ni5 2.584282 1_545
Ni2 Ni4 2.584283 1_545
Ni2 Ni7 2.584283 1_555
Ni2 Ti0 2.631402 1_545
Ni2 Ti1 2.631402 1_555
Ni3 Ni4 2.464754 1_555
Ni3 Ni5 2.464754 1_555
Ni3 Ni7 2.505793 1_555
Ni3 Ni8 2.505793 1_555
Ni3 Ti0 2.556175 1_545
Ni3 Ti1 2.581603 1_556
Ni3 Ti1 2.581603 1_655
Ni3 Zr0 2.641439 1_656
Ni3 Ni4 2.696246 1_546
Ni3 Ni5 2.696246 1_645
Ni4 Ni5 2.464754 1_555
Ni4 Ni6 2.505793 1_555
Ni4 Ni8 2.505793 1_555
Ni4 Ti0 2.556175 1_554
Ni4 Ti1 2.581603 1_565
Ni4 Ti1 2.581603 1_655
Ni4 Zr0 2.641438 1_665
Ni4 Ni5 2.696246 1_654
Ni5 Ni7 2.505793 1_555
Ni5 Ni6 2.505793 1_555
Ni5 Ti0 2.556175 1_455
Ni5 Ti1 2.581603 1_556
Ni5 Ti1 2.581603 1_565
Ni5 Zr0 2.641439 1_566
Ni6 Ni7 2.464754 1_555
Ni6 Ni8 2.464754 1_555
Ni6 Ti1 2.556175 1_565
Ni6 Ti0 2.581603 1_554
Ni6 Ti0 2.581603 1_455
Ni6 Zr0 2.641439 1_565
Ni6 Ni7 2.696246 1_564
Ni6 Ni8 2.696246 1_465
Ni7 Ni8 2.464754 1_555
Ni7 Ti1 2.556175 1_556
Ni7 Ti0 2.581603 1_455
Ni7 Ti0 2.581603 1_545
Ni7 Zr0 2.641438 1_556
Ni7 Ni8 2.696246 1_456
Ni8 Ti1 2.556175 1_655
Ni8 Ti0 2.581603 1_554
Ni8 Ti0 2.581603 1_545
Ni8 Zr0 2.641439 1_655
