# generated using pymatgen
data_Ni(BMo)3
_symmetry_space_group_name_H-M   'P 1'
_cell_length_a   3.18763800
_cell_length_b   4.52332415
_cell_length_c   10.80965400
_cell_angle_alpha   90.00000000
_cell_angle_beta   90.00000000
_cell_angle_gamma   110.63146747
_symmetry_Int_Tables_number   1
_chemical_formula_structural   Ni(BMo)3
_chemical_formula_sum   'Ni2 B6 Mo6'
_cell_volume   145.86538525
_cell_formula_units_Z   2
loop_
 _symmetry_equiv_pos_site_id
 _symmetry_equiv_pos_as_xyz
  1  'x, y, z'
loop_
 _atom_site_type_symbol
 _atom_site_label
 _atom_site_symmetry_multiplicity
 _atom_site_fract_x
 _atom_site_fract_y
 _atom_site_fract_z
 _atom_site_occupancy
  Ni  Ni0  1  0.50000000  0.00000000  0.50000000  1
  Ni  Ni1  1  0.50000000  0.00000000  0.00000000  1
  B  B0  1  0.91054900  0.82109800  0.39460600  1
  B  B1  1  0.08945100  0.17890200  0.60539400  1
  B  B2  1  0.91054900  0.82109800  0.10539400  1
  B  B3  1  0.08945100  0.17890200  0.89460600  1
  B  B4  1  0.79117800  0.58235600  0.25000000  1
  B  B5  1  0.20882200  0.41764400  0.75000000  1
  Mo  Mo0  1  0.21270400  0.42540700  0.39092300  1
  Mo  Mo1  1  0.78729600  0.57459300  0.60907700  1
  Mo  Mo2  1  0.21270400  0.42540700  0.10907700  1
  Mo  Mo3  1  0.78729600  0.57459300  0.89092300  1
  Mo  Mo4  1  0.49788600  0.99577100  0.25000000  1
  Mo  Mo5  1  0.50211400  0.00422900  0.75000000  1
loop_
_geom_bond_atom_site_label_1
_geom_bond_atom_site_label_2
_geom_bond_distance
_geom_bond_site_symmetry_2
B0 B4 1.861403 1_555
B0 Ni0 2.100418 1_565
B0 Ni0 2.100418 1_665
B0 Mo0 2.312494 1_555
B0 Mo0 2.312496 1_655
B0 Mo4 2.351685 1_555
B0 Mo4 2.351687 1_655
B0 Mo1 2.542380 1_555
B0 Mo0 2.558486 1_665
B1 B5 1.861403 1_555
B1 Ni0 2.100418 1_455
B1 Ni0 2.100418 1_555
B1 Mo1 2.312494 1_555
B1 Mo1 2.312496 1_455
B1 Mo5 2.351685 1_555
B1 Mo5 2.351687 1_455
B1 Mo0 2.542380 1_555
B1 Mo1 2.558486 1_445
B2 B4 1.861403 1_555
B2 Ni1 2.100418 1_665
B2 Ni1 2.100418 1_565
B2 Mo2 2.312494 1_555
B2 Mo2 2.312496 1_655
B2 Mo4 2.351685 1_555
B2 Mo4 2.351687 1_655
B2 Mo3 2.542380 1_554
B2 Mo2 2.558486 1_665
B3 B5 1.861403 1_555
B3 Ni1 2.100418 1_456
B3 Ni1 2.100418 1_556
B3 Mo3 2.312494 1_555
B3 Mo3 2.312496 1_455
B3 Mo5 2.351685 1_555
B3 Mo5 2.351687 1_455
B3 Mo2 2.542380 1_556
B3 Mo3 2.558486 1_445
B4 Mo2 2.302653 1_555
B4 Mo0 2.302653 1_555
B4 Mo2 2.302656 1_655
B4 Mo0 2.302656 1_655
B4 Mo4 2.367072 1_555
B4 Mo4 2.367074 1_655
B4 Mo4 2.483147 1_545
B5 Mo3 2.302653 1_555
B5 Mo1 2.302653 1_555
B5 Mo1 2.302656 1_455
B5 Mo3 2.302656 1_455
B5 Mo5 2.367072 1_555
B5 Mo5 2.367074 1_455
B5 Mo5 2.483147 1_565
Mo0 Ni0 2.678345 1_555
Mo0 Ni0 2.678347 1_455
Mo0 Ni0 2.703095 1_565
Mo1 Ni0 2.678345 1_565
Mo1 Ni0 2.678347 1_665
Mo1 Ni0 2.703095 1_555
Mo2 Ni1 2.678345 1_555
Mo2 Ni1 2.678347 1_455
Mo2 Ni1 2.703095 1_565
Mo3 Ni1 2.678345 1_566
Mo3 Ni1 2.678347 1_666
Mo3 Ni1 2.703095 1_556
