# generated using pymatgen
data_HoMgTi2O6
_symmetry_space_group_name_H-M   'P 1'
_cell_length_a   5.24370500
_cell_length_b   5.48621600
_cell_length_c   7.61290800
_cell_angle_alpha   90.00000000
_cell_angle_beta   90.00000000
_cell_angle_gamma   90.00000000
_symmetry_Int_Tables_number   1
_chemical_formula_structural   HoMgTi2O6
_chemical_formula_sum   'Ho2 Mg2 Ti4 O12'
_cell_volume   219.00888547
_cell_formula_units_Z   2
loop_
 _symmetry_equiv_pos_site_id
 _symmetry_equiv_pos_as_xyz
  1  'x, y, z'
loop_
 _atom_site_type_symbol
 _atom_site_label
 _atom_site_symmetry_multiplicity
 _atom_site_fract_x
 _atom_site_fract_y
 _atom_site_fract_z
 _atom_site_occupancy
  Ho  Ho0  1  0.01590800  0.68137700  0.00000000  1
  Ho  Ho1  1  0.51590800  0.31862300  0.50000000  1
  Mg  Mg0  1  0.48822200  0.20020900  0.00000000  1
  Mg  Mg1  1  0.98822200  0.79979100  0.50000000  1
  Ti  Ti0  1  0.00120400  0.24159200  0.75029200  1
  Ti  Ti1  1  0.00120400  0.24159200  0.24970800  1
  Ti  Ti2  1  0.50120400  0.75840800  0.25029200  1
  Ti  Ti3  1  0.50120400  0.75840800  0.74970800  1
  O  O0  1  0.10758800  0.19517600  0.50000000  1
  O  O1  1  0.19256000  0.94782900  0.81068300  1
  O  O2  1  0.19256000  0.94782900  0.18931700  1
  O  O3  1  0.31435900  0.44102700  0.81175200  1
  O  O4  1  0.31435900  0.44102700  0.18824800  1
  O  O5  1  0.37174300  0.71168000  0.50000000  1
  O  O6  1  0.60758800  0.80482400  0.00000000  1
  O  O7  1  0.69256000  0.05217100  0.31068300  1
  O  O8  1  0.69256000  0.05217100  0.68931700  1
  O  O9  1  0.81435900  0.55897300  0.68824800  1
  O  O10  1  0.81435900  0.55897300  0.31175200  1
  O  O11  1  0.87174300  0.28832000  0.00000000  1
loop_
_geom_bond_atom_site_label_1
_geom_bond_atom_site_label_2
_geom_bond_distance
_geom_bond_site_symmetry_2
Ho0 O6 2.245669 1_455
Ho0 O1 2.252146 1_554
Ho0 O2 2.252146 1_555
Ho0 O11 2.285064 1_455
Ho0 O4 2.498349 1_555
Ho0 O3 2.498349 1_554
Ho0 O10 2.683404 1_455
Ho0 O9 2.683404 1_454
Ho1 O0 2.245669 1_555
Ho1 O8 2.252146 1_555
Ho1 O7 2.252146 1_555
Ho1 O5 2.285064 1_555
Ho1 O9 2.498349 1_555
Ho1 O10 2.498349 1_555
Ho1 O4 2.683404 1_555
Ho1 O3 2.683404 1_555
Mg0 O11 2.068352 1_555
Mg0 O3 2.151861 1_554
Mg0 O4 2.151861 1_555
Mg0 O6 2.257668 1_545
Mg0 O1 2.529424 1_544
Mg0 O2 2.529424 1_545
Mg0 O7 2.720640 1_555
Mg0 O8 2.720640 1_554
Mg1 O5 2.068352 1_655
Mg1 O9 2.151861 1_555
Mg1 O10 2.151861 1_555
Mg1 O0 2.257668 1_665
Mg1 O8 2.529424 1_565
Mg1 O7 2.529424 1_565
Mg1 O2 2.720640 1_655
Mg1 O1 2.720640 1_655
O0 Ti0 2.001694 1_555
O0 Ti1 2.001694 1_555
O1 Ti0 1.953361 1_565
O1 Ti3 1.978577 1_555
O2 Ti1 1.953361 1_565
O2 Ti2 1.978577 1_555
O3 Ti0 2.027939 1_555
O3 Ti3 2.053017 1_555
O4 Ti1 2.027939 1_555
O4 Ti2 2.053017 1_555
O5 Ti2 2.034793 1_555
O5 Ti3 2.034793 1_555
O6 Ti3 2.001694 1_554
O6 Ti2 2.001694 1_555
O7 Ti2 1.953361 1_545
O7 Ti1 1.978577 1_655
O8 Ti3 1.953361 1_545
O8 Ti0 1.978577 1_655
O9 Ti3 2.027939 1_555
O9 Ti0 2.053017 1_655
O10 Ti2 2.027939 1_555
O10 Ti1 2.053017 1_655
O11 Ti1 2.034793 1_655
O11 Ti0 2.034793 1_654
