# generated using pymatgen
data_Sb(PO3)5
_symmetry_space_group_name_H-M   'P 1'
_cell_length_a   14.01926100
_cell_length_b   5.22217400
_cell_length_c   8.65398382
_cell_angle_alpha   79.08426221
_cell_angle_beta   90.00000000
_cell_angle_gamma   90.00000000
_symmetry_Int_Tables_number   1
_chemical_formula_structural   Sb(PO3)5
_chemical_formula_sum   'Sb2 P10 O30'
_cell_volume   622.10368990
_cell_formula_units_Z   2
loop_
 _symmetry_equiv_pos_site_id
 _symmetry_equiv_pos_as_xyz
  1  'x, y, z'
loop_
 _atom_site_type_symbol
 _atom_site_label
 _atom_site_symmetry_multiplicity
 _atom_site_fract_x
 _atom_site_fract_y
 _atom_site_fract_z
 _atom_site_occupancy
  Sb  Sb0  1  0.50000000  0.50000000  0.50000000  1
  Sb  Sb1  1  0.00000000  0.50000000  0.50000000  1
  P  P0  1  0.25000000  0.46045900  0.01931500  1
  P  P1  1  0.58360100  0.36848500  0.16468500  1
  P  P2  1  0.91639900  0.36848500  0.16468500  1
  P  P3  1  0.64364100  0.01840500  0.47048700  1
  P  P4  1  0.85635900  0.01840500  0.47048700  1
  P  P5  1  0.14364100  0.98159500  0.52951300  1
  P  P6  1  0.35635900  0.98159500  0.52951300  1
  P  P7  1  0.08360100  0.63151500  0.83531500  1
  P  P8  1  0.41639900  0.63151500  0.83531500  1
  P  P9  1  0.75000000  0.53954100  0.98068500  1
  O  O0  1  0.25000000  0.74042200  0.02789900  1
  O  O1  1  0.66121300  0.58050400  0.11463600  1
  O  O2  1  0.83878700  0.58050400  0.11463600  1
  O  O3  1  0.98588800  0.48944000  0.27840600  1
  O  O4  1  0.51411200  0.48944000  0.27840600  1
  O  O5  1  0.12008800  0.27320400  0.50274300  1
  O  O6  1  0.37991200  0.27320400  0.50274300  1
  O  O7  1  0.58039000  0.17077000  0.56712000  1
  O  O8  1  0.91961000  0.17077000  0.56712000  1
  O  O9  1  0.64443000  0.14273200  0.29490500  1
  O  O10  1  0.85557000  0.14273200  0.29490500  1
  O  O11  1  0.53326100  0.23485200  0.05555000  1
  O  O12  1  0.25000000  0.23116200  0.14674800  1
  O  O13  1  0.96673900  0.23485200  0.05555000  1
  O  O14  1  0.75000000  0.04053500  0.52921800  1
  O  O15  1  0.25000000  0.95946500  0.47078200  1
  O  O16  1  0.03326100  0.76514800  0.94445000  1
  O  O17  1  0.75000000  0.76883800  0.85325200  1
  O  O18  1  0.46673900  0.76514800  0.94445000  1
  O  O19  1  0.14443000  0.85726800  0.70509500  1
  O  O20  1  0.35557000  0.85726800  0.70509500  1
  O  O21  1  0.08039000  0.82923000  0.43288000  1
  O  O22  1  0.41961000  0.82923000  0.43288000  1
  O  O23  1  0.62008800  0.72679600  0.49725700  1
  O  O24  1  0.87991200  0.72679600  0.49725700  1
  O  O25  1  0.48588800  0.51056000  0.72159400  1
  O  O26  1  0.01411200  0.51056000  0.72159400  1
  O  O27  1  0.16121300  0.41949600  0.88536400  1
  O  O28  1  0.33878700  0.41949600  0.88536400  1
  O  O29  1  0.75000000  0.25957800  0.97210100  1
loop_
_geom_bond_atom_site_label_1
_geom_bond_atom_site_label_2
_geom_bond_distance
_geom_bond_site_symmetry_2
O0 P0 1.477884 1_555
O1 P1 1.554267 1_555
O1 P9 1.741491 1_554
O2 P2 1.554267 1_555
O2 P9 1.741491 1_554
O3 P2 1.597490 1_555
O3 Sb1 1.938993 1_655
O4 P1 1.597490 1_555
O4 Sb0 1.938993 1_555
O5 P5 1.532353 1_545
O5 Sb1 2.055959 1_555
O6 P6 1.532353 1_545
O6 Sb0 2.055959 1_555
O7 P3 1.539718 1_555
O7 Sb0 2.045800 1_555
O8 P4 1.539718 1_555
O8 Sb1 2.045800 1_655
O9 P3 1.535206 1_555
O9 P1 1.698198 1_555
O10 P4 1.535206 1_555
O10 P2 1.698198 1_555
O11 P1 1.458309 1_555
O12 P0 1.466249 1_555
O13 P2 1.458309 1_555
O14 P3 1.586578 1_555
O14 P4 1.586578 1_555
O15 P6 1.586578 1_555
O15 P5 1.586578 1_555
O16 P7 1.458309 1_555
O17 P9 1.466249 1_555
O18 P8 1.458309 1_555
O19 P5 1.535206 1_555
O19 P7 1.698198 1_555
O20 P6 1.535206 1_555
O20 P8 1.698198 1_555
O21 P5 1.539718 1_555
O21 Sb1 2.045800 1_555
O22 P6 1.539718 1_555
O22 Sb0 2.045800 1_555
O23 P3 1.532353 1_565
O23 Sb0 2.055959 1_555
O24 P4 1.532353 1_565
O24 Sb1 2.055959 1_655
O25 P8 1.597490 1_555
O25 Sb0 1.938993 1_555
O26 P7 1.597490 1_555
O26 Sb1 1.938993 1_555
O27 P7 1.554267 1_555
O27 P0 1.741491 1_556
O28 P8 1.554267 1_555
O28 P0 1.741491 1_556
O29 P9 1.477884 1_555
