# generated using pymatgen
data_Li3Hg
_symmetry_space_group_name_H-M   'P 1'
_cell_length_a   5.85997038
_cell_length_b   5.85997038
_cell_length_c   4.69602977
_cell_angle_alpha   90.00000000
_cell_angle_beta   90.00000000
_cell_angle_gamma   119.99999724
_symmetry_Int_Tables_number   1
_chemical_formula_structural   Li3Hg
_chemical_formula_sum   'Li6 Hg2'
_cell_volume   139.65366133
_cell_formula_units_Z   2
loop_
 _symmetry_equiv_pos_site_id
 _symmetry_equiv_pos_as_xyz
  1  'x, y, z'
loop_
 _atom_site_type_symbol
 _atom_site_label
 _atom_site_symmetry_multiplicity
 _atom_site_fract_x
 _atom_site_fract_y
 _atom_site_fract_z
 _atom_site_occupancy
  Li  Li0  1  0.17373001  0.34746102  0.25000000  1
  Li  Li1  1  0.65253898  0.82626999  0.25000000  1
  Li  Li2  1  0.17373001  0.82626999  0.25000000  1
  Li  Li3  1  0.82626999  0.65253898  0.75000000  1
  Li  Li4  1  0.34746102  0.17373001  0.75000000  1
  Li  Li5  1  0.82626999  0.17373001  0.75000000  1
  Hg  Hg0  1  0.33333300  0.66666700  0.75000000  1
  Hg  Hg1  1  0.66666700  0.33333300  0.25000000  1
loop_
_geom_bond_atom_site_label_1
_geom_bond_atom_site_label_2
_geom_bond_distance
_geom_bond_site_symmetry_2
Hg0 Li2 2.852605 1_556
Hg0 Li2 2.852605 1_555
Hg0 Li1 2.852605 1_555
Hg0 Li1 2.852605 1_556
Hg0 Li0 2.852605 1_556
Hg0 Li0 2.852605 1_555
Hg0 Li4 2.930856 1_565
Hg0 Li3 2.930856 1_455
Hg0 Li5 2.930862 1_565
Hg0 Li5 2.930862 1_455
Hg0 Li3 2.930868 1_555
Hg0 Li4 2.930868 1_555
Hg1 Li5 2.852605 1_554
Hg1 Li5 2.852605 1_555
Hg1 Li4 2.852605 1_554
Hg1 Li3 2.852605 1_555
Hg1 Li4 2.852605 1_555
Hg1 Li3 2.852605 1_554
Hg1 Li0 2.930856 1_655
Hg1 Li1 2.930856 1_545
Hg1 Li2 2.930862 1_655
Hg1 Li2 2.930862 1_545
Hg1 Li0 2.930868 1_555
Hg1 Li1 2.930868 1_555
