# generated using pymatgen
data_Li4MnCo2O7
_symmetry_space_group_name_H-M   'P 1'
_cell_length_a   3.01693000
_cell_length_b   7.78299463
_cell_length_c   11.13144051
_cell_angle_alpha   79.73668353
_cell_angle_beta   83.08501102
_cell_angle_gamma   82.67460304
_symmetry_Int_Tables_number   1
_chemical_formula_structural   Li4MnCo2O7
_chemical_formula_sum   'Li8 Mn2 Co4 O14'
_cell_volume   253.81237390
_cell_formula_units_Z   2
loop_
 _symmetry_equiv_pos_site_id
 _symmetry_equiv_pos_as_xyz
  1  'x, y, z'
loop_
 _atom_site_type_symbol
 _atom_site_label
 _atom_site_symmetry_multiplicity
 _atom_site_fract_x
 _atom_site_fract_y
 _atom_site_fract_z
 _atom_site_occupancy
  Li  Li0  1  0.78506400  0.35883400  0.06892600  1
  Li  Li1  1  0.92328300  0.78940100  0.36067500  1
  Li  Li2  1  0.07580700  0.21464600  0.63999200  1
  Li  Li3  1  0.21345500  0.64257600  0.92793000  1
  Li  Li4  1  0.36062300  0.07094400  0.21727600  1
  Li  Li5  1  0.49369700  0.49873900  0.50466700  1
  Li  Li6  1  0.64783500  0.92531600  0.77877100  1
  Li  Li7  1  0.28541800  0.85609600  0.57150700  1
  Mn  Mn0  1  0.99903200  0.99889700  0.99861700  1
  Mn  Mn1  1  0.14392700  0.42762800  0.28795900  1
  Co  Co0  1  0.42474700  0.28919900  0.85297700  1
  Co  Co1  1  0.56993200  0.71425300  0.14392100  1
  Co  Co2  1  0.72432200  0.12901400  0.43481200  1
  Co  Co3  1  0.85027600  0.58519700  0.70982000  1
  O  O0  1  0.36315200  0.18237500  0.02592400  1
  O  O1  1  0.51384600  0.60705900  0.31430700  1
  O  O2  1  0.67522500  0.04895500  0.59131900  1
  O  O3  1  0.83689600  0.46651800  0.87763100  1
  O  O4  1  0.94225300  0.88638800  0.17053300  1
  O  O5  1  0.09286800  0.31400600  0.45699000  1
  O  O6  1  0.23767500  0.73677100  0.74686400  1
  O  O7  1  0.20531600  0.53934300  0.11557800  1
  O  O8  1  0.33783700  0.97740300  0.39707600  1
  O  O9  1  0.48196400  0.39981000  0.68769300  1
  O  O10  1  0.62738600  0.82178100  0.97417400  1
  O  O11  1  0.77071200  0.24648000  0.26502600  1
  O  O12  1  0.89509900  0.66351500  0.55252100  1
  O  O13  1  0.02235500  0.10885500  0.82651300  1
loop_
_geom_bond_atom_site_label_1
_geom_bond_atom_site_label_2
_geom_bond_distance
_geom_bond_site_symmetry_2
Li0 O0 2.135951 1_555
Li0 O3 2.139734 1_554
Li0 O0 2.139964 1_655
Li0 O7 2.171929 1_555
Li0 O7 2.173400 1_655
Li0 O11 2.199587 1_555
Li1 O4 2.113149 1_555
Li1 O1 2.160518 1_555
Li1 O8 2.160871 1_655
Li1 O12 2.181644 1_555
Li1 O8 2.191969 1_555
Li1 O1 2.202190 1_655
Li2 O5 2.043012 1_555
Li2 O2 2.054544 1_455
Li2 O13 2.087776 1_555
Li2 O2 2.155276 1_555
Li2 O9 2.177140 1_555
Li2 O9 2.225707 1_455
Li3 O6 2.014150 1_555
Li3 O3 2.074905 1_455
Li3 O7 2.098535 1_556
Li3 O10 2.150492 1_555
Li3 O10 2.178164 1_455
Li3 O3 2.256408 1_555
Li4 O8 2.000222 1_545
Li4 O11 2.127874 1_555
Li4 O0 2.151443 1_555
Li4 O11 2.174249 1_455
Li4 O4 2.194060 1_445
Li4 O4 2.194721 1_545
Li5 O9 2.043394 1_555
Li5 O12 2.046891 1_555
Li5 O1 2.133070 1_555
Li5 O12 2.147324 1_455
Li5 O5 2.163565 1_555
Li5 O5 2.234864 1_655
Li6 O13 2.103893 1_665
Li6 O2 2.133075 1_565
Li6 O6 2.136672 1_555
Li6 O10 2.177168 1_555
Li6 O6 2.194039 1_655
Li6 O13 2.285938 1_565
Li7 O8 1.999340 1_555
Li7 O6 2.003466 1_555
Li7 O12 2.073835 1_455
Li7 O2 2.077326 1_565
Li7 O12 2.233994 1_555
Li7 O2 2.237453 1_465
Mn0 O13 1.950941 1_665
Mn0 O4 1.954596 1_556
Mn0 O10 1.957725 1_555
Mn0 O0 1.993357 1_666
Mn0 O10 2.216081 1_655
Mn0 O0 2.264410 1_566
Mn1 O5 1.928221 1_555
Mn1 O7 1.957866 1_555
Mn1 O1 1.975847 1_555
Mn1 O11 1.980653 1_455
Mn1 O11 2.227290 1_555
Mn1 O1 2.232593 1_455
Co0 O9 1.884933 1_555
Co0 O0 1.953169 1_556
Co0 O3 2.044688 1_555
Co0 O13 2.049065 1_555
Co0 O3 2.125759 1_455
Co0 O13 2.163708 1_655
Co1 O10 1.922337 1_554
Co1 O1 1.927896 1_555
Co1 O4 1.936400 1_555
Co1 O7 1.944550 1_555
Co1 O4 2.197264 1_455
Co1 O7 2.229181 1_655
Co2 O2 1.737771 1_555
Co2 O8 1.890447 1_545
Co2 O11 1.944375 1_555
Co2 O5 1.992790 1_655
Co2 O8 2.104096 1_645
Co2 O5 2.253249 1_555
Co3 O12 1.743385 1_555
Co3 O6 1.889103 1_655
Co3 O3 1.928902 1_555
Co3 O9 1.994648 1_555
Co3 O6 2.100314 1_555
Co3 O9 2.255404 1_655
