# generated using pymatgen
data_MgZn
_symmetry_space_group_name_H-M   'P 1'
_cell_length_a   15.56521943
_cell_length_b   15.56521943
_cell_length_c   9.55326400
_cell_angle_alpha   90.00000000
_cell_angle_beta   90.00000000
_cell_angle_gamma   157.43036528
_symmetry_Int_Tables_number   1
_chemical_formula_structural   MgZn
_chemical_formula_sum   'Mg24 Zn24'
_cell_volume   888.32937697
_cell_formula_units_Z   24
loop_
 _symmetry_equiv_pos_site_id
 _symmetry_equiv_pos_as_xyz
  1  'x, y, z'
loop_
 _atom_site_type_symbol
 _atom_site_label
 _atom_site_symmetry_multiplicity
 _atom_site_fract_x
 _atom_site_fract_y
 _atom_site_fract_z
 _atom_site_occupancy
  Mg  Mg0_0  1  0.16681100  0.33318900  0.00000000  1
  Mg  Mg0_1  1  0.16681100  0.33318900  0.50000000  1
  Mg  Mg0_2  1  0.16681100  0.83318900  0.00000000  1
  Mg  Mg0_3  1  0.16681100  0.83318900  0.50000000  1
  Mg  Mg0_4  1  0.66681100  0.33318900  0.00000000  1
  Mg  Mg0_5  1  0.66681100  0.33318900  0.50000000  1
  Mg  Mg0_6  1  0.66681100  0.83318900  0.00000000  1
  Mg  Mg0_7  1  0.66681100  0.83318900  0.50000000  1
  Mg  Mg1_0  1  0.22774600  0.27225400  0.25000000  1
  Mg  Mg1_1  1  0.22774600  0.27225400  0.75000000  1
  Mg  Mg1_2  1  0.22774600  0.77225400  0.25000000  1
  Mg  Mg1_3  1  0.22774600  0.77225400  0.75000000  1
  Mg  Mg1_4  1  0.72774600  0.27225400  0.25000000  1
  Mg  Mg1_5  1  0.72774600  0.27225400  0.75000000  1
  Mg  Mg1_6  1  0.72774600  0.77225400  0.25000000  1
  Mg  Mg1_7  1  0.72774600  0.77225400  0.75000000  1
  Mg  Mg2_0  1  0.38332400  0.11667600  0.25000000  1
  Mg  Mg2_1  1  0.38332400  0.11667600  0.75000000  1
  Mg  Mg2_2  1  0.38332400  0.61667600  0.25000000  1
  Mg  Mg2_3  1  0.38332400  0.61667600  0.75000000  1
  Mg  Mg2_4  1  0.88332400  0.11667600  0.25000000  1
  Mg  Mg2_5  1  0.88332400  0.11667600  0.75000000  1
  Mg  Mg2_6  1  0.88332400  0.61667600  0.25000000  1
  Mg  Mg2_7  1  0.88332400  0.61667600  0.75000000  1
  Zn  Zn0_0  1  0.00307250  0.49692750  0.00000000  1
  Zn  Zn0_1  1  0.00307250  0.49692750  0.50000000  1
  Zn  Zn0_2  1  0.00307250  0.99692750  0.00000000  1
  Zn  Zn0_3  1  0.00307250  0.99692750  0.50000000  1
  Zn  Zn0_4  1  0.50307250  0.49692750  0.00000000  1
  Zn  Zn0_5  1  0.50307250  0.49692750  0.50000000  1
  Zn  Zn0_6  1  0.50307250  0.99692750  0.00000000  1
  Zn  Zn0_7  1  0.50307250  0.99692750  0.50000000  1
  Zn  Zn1_0  1  0.33059300  0.16940700  0.00000000  1
  Zn  Zn1_1  1  0.33059300  0.16940700  0.50000000  1
  Zn  Zn1_2  1  0.33059300  0.66940700  0.00000000  1
  Zn  Zn1_3  1  0.33059300  0.66940700  0.50000000  1
  Zn  Zn1_4  1  0.83059300  0.16940700  0.00000000  1
  Zn  Zn1_5  1  0.83059300  0.16940700  0.50000000  1
  Zn  Zn1_6  1  0.83059300  0.66940700  0.00000000  1
  Zn  Zn1_7  1  0.83059300  0.66940700  0.50000000  1
  Zn  Zn2_0  1  0.05512050  0.44487950  0.25000000  1
  Zn  Zn2_1  1  0.05512050  0.44487950  0.75000000  1
  Zn  Zn2_2  1  0.05512050  0.94487950  0.25000000  1
  Zn  Zn2_3  1  0.05512050  0.94487950  0.75000000  1
  Zn  Zn2_4  1  0.55512050  0.44487950  0.25000000  1
  Zn  Zn2_5  1  0.55512050  0.44487950  0.75000000  1
  Zn  Zn2_6  1  0.55512050  0.94487950  0.25000000  1
  Zn  Zn2_7  1  0.55512050  0.94487950  0.75000000  1
loop_
_geom_bond_atom_site_label_1
_geom_bond_atom_site_label_2
_geom_bond_distance
_geom_bond_site_symmetry_2
Mg0_0 Mg2_5 3.011403 1_454
Mg0_0 Mg2_3 3.011403 1_554
Mg0_0 Mg2_2 3.011403 1_555
Mg0_0 Mg2_4 3.011403 1_455
Mg0_0 Mg1_1 3.027312 1_554
Mg0_0 Mg1_0 3.027312 1_555
Mg0_0 Zn1_2 3.040953 1_555
Mg0_0 Zn1_4 3.040953 1_455
Mg0_0 Zn0_4 3.042103 1_555
Mg0_0 Zn0_2 3.042103 1_545
Mg0_0 Mg0_6 3.045900 1_555
Mg0_0 Mg0_6 3.045900 1_445
Mg0_1 Mg2_5 3.011403 1_455
Mg0_1 Mg2_2 3.011403 1_555
Mg0_1 Mg2_3 3.011403 1_555
Mg0_1 Mg2_4 3.011403 1_455
Mg0_1 Mg1_1 3.027312 1_555
Mg0_1 Mg1_0 3.027312 1_555
Mg0_1 Zn1_3 3.040953 1_555
Mg0_1 Zn1_5 3.040953 1_455
Mg0_1 Zn0_5 3.042103 1_555
Mg0_1 Zn0_3 3.042103 1_545
Mg0_1 Mg0_7 3.045900 1_555
Mg0_1 Mg0_7 3.045900 1_445
Mg0_2 Mg2_7 3.011403 1_454
Mg0_2 Mg2_6 3.011403 1_455
Mg0_2 Mg2_1 3.011403 1_564
Mg0_2 Mg2_0 3.011403 1_565
Mg0_2 Mg1_2 3.027312 1_555
Mg0_2 Mg1_3 3.027312 1_554
Mg0_2 Zn1_6 3.040953 1_455
Mg0_2 Zn1_0 3.040953 1_565
Mg0_2 Zn0_6 3.042103 1_555
Mg0_2 Zn0_0 3.042103 1_555
Mg0_2 Mg0_4 3.045900 1_565
Mg0_2 Mg0_4 3.045900 1_455
Mg0_3 Mg2_7 3.011403 1_455
Mg0_3 Mg2_6 3.011403 1_455
Mg0_3 Mg2_1 3.011403 1_565
Mg0_3 Mg2_0 3.011403 1_565
Mg0_3 Mg1_2 3.027312 1_555
Mg0_3 Mg1_3 3.027312 1_555
Mg0_3 Zn1_7 3.040953 1_455
Mg0_3 Zn1_1 3.040953 1_565
Mg0_3 Zn0_7 3.042103 1_555
Mg0_3 Zn0_1 3.042103 1_555
Mg0_3 Mg0_5 3.045900 1_565
Mg0_3 Mg0_5 3.045900 1_455
Mg0_4 Mg2_7 3.011403 1_554
Mg0_4 Mg2_6 3.011403 1_555
Mg0_4 Mg2_0 3.011403 1_555
Mg0_4 Mg2_1 3.011403 1_554
Mg0_4 Mg1_4 3.027312 1_555
Mg0_4 Mg1_5 3.027312 1_554
Mg0_4 Zn1_6 3.040953 1_555
Mg0_4 Zn1_0 3.040953 1_555
Mg0_4 Zn0_0 3.042103 1_655
Mg0_4 Zn0_6 3.042103 1_545
Mg0_5 Mg2_6 3.011403 1_555
Mg0_5 Mg2_7 3.011403 1_555
Mg0_5 Mg2_0 3.011403 1_555
Mg0_5 Mg2_1 3.011403 1_555
Mg0_5 Mg1_5 3.027312 1_555
Mg0_5 Mg1_4 3.027312 1_555
Mg0_5 Zn1_7 3.040953 1_555
Mg0_5 Zn1_1 3.040953 1_555
Mg0_5 Zn0_1 3.042103 1_655
Mg0_5 Zn0_7 3.042103 1_545
Mg0_6 Mg2_2 3.011403 1_555
Mg0_6 Mg2_3 3.011403 1_554
Mg0_6 Mg2_5 3.011403 1_564
Mg0_6 Mg2_4 3.011403 1_565
Mg0_6 Mg1_6 3.027312 1_555
Mg0_6 Mg1_7 3.027312 1_554
Mg0_6 Zn1_2 3.040953 1_555
Mg0_6 Zn1_4 3.040953 1_565
Mg0_6 Zn0_2 3.042103 1_655
Mg0_6 Zn0_4 3.042103 1_555
Mg0_7 Mg2_2 3.011403 1_555
Mg0_7 Mg2_3 3.011403 1_555
Mg0_7 Mg2_4 3.011403 1_565
Mg0_7 Mg2_5 3.011403 1_565
Mg0_7 Mg1_6 3.027312 1_555
Mg0_7 Mg1_7 3.027312 1_555
Mg0_7 Zn1_3 3.040953 1_555
Mg0_7 Zn1_5 3.040953 1_565
Mg0_7 Zn0_5 3.042103 1_555
Mg0_7 Zn0_3 3.042103 1_655
Mg1_0 Zn2_4 2.810525 1_555
Mg1_0 Zn2_2 2.810525 1_545
Mg1_0 Zn0_5 2.936195 1_555
Mg1_0 Zn0_4 2.936195 1_555
Mg1_0 Zn0_3 2.936195 1_545
Mg1_0 Zn0_2 2.936195 1_545
Mg1_0 Mg1_6 3.045900 1_555
Mg1_0 Mg1_6 3.045900 1_445
Mg1_0 Mg2_4 3.260151 1_455
Mg1_0 Mg2_2 3.260151 1_555
Mg1_1 Zn2_5 2.810525 1_555
Mg1_1 Zn2_3 2.810525 1_545
Mg1_1 Zn0_5 2.936195 1_555
Mg1_1 Zn0_4 2.936195 1_556
Mg1_1 Zn0_3 2.936195 1_545
Mg1_1 Zn0_2 2.936195 1_546
Mg1_1 Mg1_7 3.045900 1_555
Mg1_1 Mg1_7 3.045900 1_445
Mg1_1 Mg2_5 3.260151 1_455
Mg1_1 Mg2_3 3.260151 1_555
Mg1_2 Zn2_0 2.810525 1_555
Mg1_2 Zn2_6 2.810525 1_555
Mg1_2 Zn0_6 2.936195 1_555
Mg1_2 Zn0_7 2.936195 1_555
Mg1_2 Zn0_1 2.936195 1_555
Mg1_2 Zn0_0 2.936195 1_555
Mg1_2 Mg1_4 3.045900 1_455
Mg1_2 Mg1_4 3.045900 1_565
Mg1_2 Mg2_6 3.260151 1_455
Mg1_2 Mg2_0 3.260151 1_565
Mg1_3 Zn2_1 2.810525 1_555
Mg1_3 Zn2_7 2.810525 1_555
Mg1_3 Zn0_7 2.936195 1_555
Mg1_3 Zn0_6 2.936195 1_556
Mg1_3 Zn0_1 2.936195 1_555
Mg1_3 Zn0_0 2.936195 1_556
Mg1_3 Mg1_5 3.045900 1_455
Mg1_3 Mg1_5 3.045900 1_565
Mg1_3 Mg2_7 3.260151 1_455
Mg1_3 Mg2_1 3.260151 1_565
Mg1_4 Zn2_0 2.810525 1_655
Mg1_4 Zn2_6 2.810525 1_545
Mg1_4 Zn0_1 2.936195 1_655
Mg1_4 Zn0_0 2.936195 1_655
Mg1_4 Zn0_6 2.936195 1_545
Mg1_4 Zn0_7 2.936195 1_545
Mg1_4 Mg2_6 3.260151 1_555
Mg1_4 Mg2_0 3.260151 1_555
Mg1_5 Zn2_1 2.810525 1_655
Mg1_5 Zn2_7 2.810525 1_545
Mg1_5 Zn0_1 2.936195 1_655
Mg1_5 Zn0_0 2.936195 1_656
Mg1_5 Zn0_6 2.936195 1_546
Mg1_5 Zn0_7 2.936195 1_545
Mg1_5 Mg2_7 3.260151 1_555
Mg1_5 Mg2_1 3.260151 1_555
Mg1_6 Zn2_2 2.810525 1_655
Mg1_6 Zn2_4 2.810525 1_555
Mg1_6 Zn0_3 2.936195 1_655
Mg1_6 Zn0_2 2.936195 1_655
Mg1_6 Zn0_4 2.936195 1_555
Mg1_6 Zn0_5 2.936195 1_555
Mg1_6 Mg2_4 3.260151 1_565
Mg1_6 Mg2_2 3.260151 1_555
Mg1_7 Zn2_3 2.810525 1_655
Mg1_7 Zn2_5 2.810525 1_555
Mg1_7 Zn0_2 2.936195 1_656
Mg1_7 Zn0_3 2.936195 1_655
Mg1_7 Zn0_4 2.936195 1_556
Mg1_7 Zn0_5 2.936195 1_555
Mg1_7 Mg2_5 3.260151 1_565
Mg1_7 Mg2_3 3.260151 1_555
Mg2_0 Zn2_4 2.831829 1_555
Mg2_0 Zn2_2 2.831829 1_545
Mg2_0 Zn1_0 2.880194 1_555
Mg2_0 Zn1_1 2.880194 1_555
Mg2_0 Mg2_6 3.045900 1_555
Mg2_0 Mg2_6 3.045900 1_445
Mg2_1 Zn2_5 2.831829 1_555
Mg2_1 Zn2_3 2.831829 1_545
Mg2_1 Zn1_0 2.880194 1_556
Mg2_1 Zn1_1 2.880194 1_555
Mg2_1 Mg2_7 3.045900 1_555
Mg2_1 Mg2_7 3.045900 1_445
Mg2_2 Zn2_6 2.831829 1_555
Mg2_2 Zn2_0 2.831829 1_555
Mg2_2 Zn1_3 2.880194 1_555
Mg2_2 Zn1_2 2.880194 1_555
Mg2_2 Mg2_4 3.045900 1_565
Mg2_2 Mg2_4 3.045900 1_455
Mg2_3 Zn2_7 2.831829 1_555
Mg2_3 Zn2_1 2.831829 1_555
Mg2_3 Zn1_3 2.880194 1_555
Mg2_3 Zn1_2 2.880194 1_556
Mg2_3 Mg2_5 3.045900 1_565
Mg2_3 Mg2_5 3.045900 1_455
Mg2_4 Zn2_6 2.831829 1_545
Mg2_4 Zn2_0 2.831829 1_655
Mg2_4 Zn1_4 2.880194 1_555
Mg2_4 Zn1_5 2.880194 1_555
Mg2_5 Zn2_7 2.831829 1_545
Mg2_5 Zn2_1 2.831829 1_655
Mg2_5 Zn1_4 2.880194 1_556
Mg2_5 Zn1_5 2.880194 1_555
Mg2_6 Zn2_4 2.831829 1_555
Mg2_6 Zn2_2 2.831829 1_655
Mg2_6 Zn1_7 2.880194 1_555
Mg2_6 Zn1_6 2.880194 1_555
Mg2_7 Zn2_5 2.831829 1_555
Mg2_7 Zn2_3 2.831829 1_655
Mg2_7 Zn1_7 2.880194 1_555
Mg2_7 Zn1_6 2.880194 1_556
Zn0_0 Zn1_4 2.814272 1_455
Zn0_0 Zn1_2 2.814272 1_555
Zn0_0 Zn2_1 2.868592 1_554
Zn0_0 Zn2_0 2.868592 1_555
Zn0_0 Zn0_6 3.045900 1_445
Zn0_0 Zn0_6 3.045900 1_555
Zn0_1 Zn1_5 2.814272 1_455
Zn0_1 Zn1_3 2.814272 1_555
Zn0_1 Zn2_0 2.868592 1_555
Zn0_1 Zn2_1 2.868592 1_555
Zn0_1 Zn0_7 3.045900 1_445
Zn0_1 Zn0_7 3.045900 1_555
Zn0_2 Zn1_0 2.814272 1_565
Zn0_2 Zn1_6 2.814272 1_455
Zn0_2 Zn2_2 2.868592 1_555
Zn0_2 Zn2_3 2.868592 1_554
Zn0_2 Zn0_4 3.045900 1_565
Zn0_2 Zn0_4 3.045900 1_455
Zn0_3 Zn1_1 2.814272 1_565
Zn0_3 Zn1_7 2.814272 1_455
Zn0_3 Zn2_2 2.868592 1_555
Zn0_3 Zn2_3 2.868592 1_555
Zn0_3 Zn0_5 3.045900 1_455
Zn0_3 Zn0_5 3.045900 1_565
Zn0_4 Zn1_0 2.814272 1_555
Zn0_4 Zn1_6 2.814272 1_555
Zn0_4 Zn2_5 2.868592 1_554
Zn0_4 Zn2_4 2.868592 1_555
Zn0_5 Zn1_1 2.814272 1_555
Zn0_5 Zn1_7 2.814272 1_555
Zn0_5 Zn2_5 2.868592 1_555
Zn0_5 Zn2_4 2.868592 1_555
Zn0_6 Zn1_2 2.814272 1_555
Zn0_6 Zn1_4 2.814272 1_565
Zn0_6 Zn2_6 2.868592 1_555
Zn0_6 Zn2_7 2.868592 1_554
Zn0_7 Zn1_3 2.814272 1_555
Zn0_7 Zn1_5 2.814272 1_565
Zn0_7 Zn2_6 2.868592 1_555
Zn0_7 Zn2_7 2.868592 1_555
Zn1_0 Zn2_3 2.937372 1_544
Zn1_0 Zn2_2 2.937372 1_545
Zn1_0 Zn2_4 2.937372 1_555
Zn1_0 Zn2_5 2.937372 1_554
Zn1_0 Zn1_6 3.045900 1_555
Zn1_0 Zn1_6 3.045900 1_445
Zn1_1 Zn2_3 2.937372 1_545
Zn1_1 Zn2_2 2.937372 1_545
Zn1_1 Zn2_4 2.937372 1_555
Zn1_1 Zn2_5 2.937372 1_555
Zn1_1 Zn1_7 3.045900 1_555
Zn1_1 Zn1_7 3.045900 1_445
Zn1_2 Zn2_6 2.937372 1_555
Zn1_2 Zn2_7 2.937372 1_554
Zn1_2 Zn2_1 2.937372 1_554
Zn1_2 Zn2_0 2.937372 1_555
Zn1_2 Zn1_4 3.045900 1_565
Zn1_2 Zn1_4 3.045900 1_455
Zn1_3 Zn2_7 2.937372 1_555
Zn1_3 Zn2_6 2.937372 1_555
Zn1_3 Zn2_1 2.937372 1_555
Zn1_3 Zn2_0 2.937372 1_555
Zn1_3 Zn1_5 3.045900 1_565
Zn1_3 Zn1_5 3.045900 1_455
Zn1_4 Zn2_7 2.937372 1_544
Zn1_4 Zn2_6 2.937372 1_545
Zn1_4 Zn2_0 2.937372 1_655
Zn1_4 Zn2_1 2.937372 1_654
Zn1_5 Zn2_7 2.937372 1_545
Zn1_5 Zn2_6 2.937372 1_545
Zn1_5 Zn2_0 2.937372 1_655
Zn1_5 Zn2_1 2.937372 1_655
Zn1_6 Zn2_4 2.937372 1_555
Zn1_6 Zn2_5 2.937372 1_554
Zn1_6 Zn2_3 2.937372 1_654
Zn1_6 Zn2_2 2.937372 1_655
Zn1_7 Zn2_4 2.937372 1_555
Zn1_7 Zn2_5 2.937372 1_555
Zn1_7 Zn2_3 2.937372 1_655
Zn1_7 Zn2_2 2.937372 1_655
Zn2_0 Zn2_6 3.045900 1_555
Zn2_0 Zn2_6 3.045900 1_445
Zn2_1 Zn2_7 3.045900 1_555
Zn2_1 Zn2_7 3.045900 1_445
Zn2_2 Zn2_4 3.045900 1_455
Zn2_2 Zn2_4 3.045900 1_565
Zn2_3 Zn2_5 3.045900 1_455
Zn2_3 Zn2_5 3.045900 1_565
