# generated using pymatgen
data_MnNb2Ru
_symmetry_space_group_name_H-M   'P 1'
_cell_length_a   9.38282458
_cell_length_b   9.38282458
_cell_length_c   9.38282458
_cell_angle_alpha   123.94166710
_cell_angle_beta   116.93972183
_cell_angle_gamma   89.34673187
_symmetry_Int_Tables_number   1
_chemical_formula_structural   MnNb2Ru
_chemical_formula_sum   'Mn1 Nb2 Ru1'
_cell_volume   577.41766790
_cell_formula_units_Z   1
loop_
 _symmetry_equiv_pos_site_id
 _symmetry_equiv_pos_as_xyz
  1  'x, y, z'
loop_
 _atom_site_type_symbol
 _atom_site_label
 _atom_site_symmetry_multiplicity
 _atom_site_fract_x
 _atom_site_fract_y
 _atom_site_fract_z
 _atom_site_occupancy
  Mn  Mn0  1  0.00000000  0.00000000  0.00000000  1
  Nb  Nb0  1  0.00000000  0.24718600  0.24718600  1
  Nb  Nb1  1  0.00000000  0.75281400  0.75281400  1
  Ru  Ru0  1  0.00000000  0.50000000  0.50000000  1
loop_
_geom_bond_atom_site_label_1
_geom_bond_atom_site_label_2
_geom_bond_distance
_geom_bond_site_symmetry_2
Mn0 Nb0 2.179778 1_555
Mn0 Nb1 2.179778 1_544
Nb0 Ru0 2.229408 1_555
Nb1 Ru0 2.229408 1_555
