# generated using pymatgen
data_BaGaSn
_symmetry_space_group_name_H-M   'P 1'
_cell_length_a   4.67382819
_cell_length_b   4.67382819
_cell_length_c   10.55485200
_cell_angle_alpha   90.00000000
_cell_angle_beta   90.00000000
_cell_angle_gamma   120.00000269
_symmetry_Int_Tables_number   1
_chemical_formula_structural   BaGaSn
_chemical_formula_sum   'Ba2 Ga2 Sn2'
_cell_volume   199.67709755
_cell_formula_units_Z   2
loop_
 _symmetry_equiv_pos_site_id
 _symmetry_equiv_pos_as_xyz
  1  'x, y, z'
loop_
 _atom_site_type_symbol
 _atom_site_label
 _atom_site_symmetry_multiplicity
 _atom_site_fract_x
 _atom_site_fract_y
 _atom_site_fract_z
 _atom_site_occupancy
  Ba  Ba0  1  0.00000000  0.00000000  0.23286300  1
  Ba  Ba1  1  0.00000000  0.00000000  0.76713700  1
  Ga  Ga0  1  0.33333300  0.66666700  0.00705800  1
  Ga  Ga1  1  0.66666700  0.33333300  0.99294200  1
  Sn  Sn0  1  0.66666700  0.33333300  0.55451100  1
  Sn  Sn1  1  0.33333300  0.66666700  0.44548900  1
loop_
_geom_bond_atom_site_label_1
_geom_bond_atom_site_label_2
_geom_bond_distance
_geom_bond_site_symmetry_2
Ba0 Sn1 3.509720 1_545
Ba0 Sn1 3.509723 1_445
Ba0 Sn1 3.509723 1_555
Ba0 Ga0 3.600256 1_545
Ba0 Ga0 3.600259 1_445
Ba0 Ga0 3.600259 1_555
Ba0 Ga1 3.700573 1_454
Ba0 Ga1 3.700576 1_554
Ba0 Ga1 3.700576 1_444
Ba1 Sn0 3.509720 1_455
Ba1 Sn0 3.509723 1_445
Ba1 Sn0 3.509723 1_555
Ba1 Ga1 3.600256 1_455
Ba1 Ga1 3.600259 1_445
Ba1 Ga1 3.600259 1_555
Ba1 Ga0 3.700573 1_546
Ba1 Ga0 3.700576 1_556
Ba1 Ga0 3.700576 1_446
Ga0 Ga1 2.702543 1_454
Ga0 Ga1 2.702543 1_564
Ga0 Ga1 2.702552 1_554
Sn0 Sn1 2.933544 1_655
Sn0 Sn1 2.933544 1_545
Sn0 Sn1 2.933551 1_555
