# generated using pymatgen
data_Ba4Bi3PbO12
_symmetry_space_group_name_H-M   'P 1'
_cell_length_a   6.22439074
_cell_length_b   6.22439074
_cell_length_c   10.77368907
_cell_angle_alpha   73.57787784
_cell_angle_beta   73.57787784
_cell_angle_gamma   60.02843757
_symmetry_Int_Tables_number   1
_chemical_formula_structural   Ba4Bi3PbO12
_chemical_formula_sum   'Ba4 Bi3 Pb1 O12'
_cell_volume   341.77199721
_cell_formula_units_Z   1
loop_
 _symmetry_equiv_pos_site_id
 _symmetry_equiv_pos_as_xyz
  1  'x, y, z'
loop_
 _atom_site_type_symbol
 _atom_site_label
 _atom_site_symmetry_multiplicity
 _atom_site_fract_x
 _atom_site_fract_y
 _atom_site_fract_z
 _atom_site_occupancy
  Ba  Ba0  1  0.12918400  0.12918400  0.61973400  1
  Ba  Ba1  1  0.62742500  0.62742500  0.12432300  1
  Ba  Ba2  1  0.37257500  0.37257500  0.87567700  1
  Ba  Ba3  1  0.87081600  0.87081600  0.38026600  1
  Bi  Bi0  1  0.75076700  0.75076700  0.74890700  1
  Bi  Bi1  1  0.24923300  0.24923300  0.25109300  1
  Bi  Bi2  1  0.00000000  0.00000000  0.00000000  1
  Pb  Pb0  1  0.50000000  0.50000000  0.50000000  1
  O  O0  1  0.90636700  0.90636700  0.84205500  1
  O  O1  1  0.40591700  0.40591700  0.34363100  1
  O  O2  1  0.59408300  0.59408300  0.65636900  1
  O  O3  1  0.09363300  0.09363300  0.15794500  1
  O  O4  1  0.10815100  0.60721000  0.60798000  1
  O  O5  1  0.60689600  0.10803900  0.11027300  1
  O  O6  1  0.89196100  0.39310400  0.88972700  1
  O  O7  1  0.39279000  0.89184900  0.39202000  1
  O  O8  1  0.60721000  0.10815100  0.60798000  1
  O  O9  1  0.10803900  0.60689600  0.11027300  1
  O  O10  1  0.39310400  0.89196100  0.88972700  1
  O  O11  1  0.89184900  0.39279000  0.39202000  1
loop_
_geom_bond_atom_site_label_1
_geom_bond_atom_site_label_2
_geom_bond_distance
_geom_bond_site_symmetry_2
Ba0 O0 2.783756 1_445
Ba0 O11 2.871350 1_455
Ba0 O7 2.871350 1_545
Ba0 O8 2.879832 1_555
Ba0 O4 2.879832 1_555
Ba0 O2 3.145714 1_545
Ba0 O2 3.145714 1_455
Ba0 O6 3.345125 1_455
Ba0 O10 3.345125 1_545
Ba0 O8 3.354992 1_455
Ba0 O4 3.354992 1_545
Ba0 O1 3.457266 1_555
Ba1 O1 2.756800 1_555
Ba1 O5 2.891618 1_565
Ba1 O9 2.891618 1_655
Ba1 O10 2.925454 1_554
Ba1 O6 2.925454 1_554
Ba1 O3 3.141946 1_655
Ba1 O3 3.141946 1_565
Ba1 O11 3.325732 1_555
Ba1 O7 3.325732 1_555
Ba1 O5 3.345296 1_555
Ba1 O9 3.345296 1_555
Ba2 O2 2.756800 1_555
Ba2 O10 2.891618 1_545
Ba2 O6 2.891618 1_455
Ba2 O5 2.925454 1_556
Ba2 O9 2.925454 1_556
Ba2 O0 3.141946 1_455
Ba2 O0 3.141946 1_545
Ba2 O4 3.325732 1_555
Ba2 O8 3.325732 1_555
Ba2 O6 3.345296 1_555
Ba2 O10 3.345296 1_555
Ba3 O3 2.783756 1_665
Ba3 O4 2.871350 1_655
Ba3 O8 2.871350 1_565
Ba3 O11 2.879832 1_555
Ba3 O7 2.879832 1_555
Ba3 O1 3.145714 1_655
Ba3 O1 3.145714 1_565
Ba3 O5 3.345125 1_565
Ba3 O9 3.345125 1_655
Ba3 O7 3.354992 1_655
Ba3 O11 3.354992 1_565
Ba3 O2 3.457266 1_555
Bi0 O0 2.217993 1_555
Bi0 O10 2.218010 1_555
Bi0 O6 2.218010 1_555
Bi0 O4 2.218892 1_655
Bi0 O8 2.218892 1_565
Bi0 O2 2.223981 1_555
Bi1 O3 2.217993 1_555
Bi1 O9 2.218010 1_555
Bi1 O5 2.218010 1_555
Bi1 O7 2.218892 1_545
Bi1 O11 2.218892 1_455
Bi1 O1 2.223981 1_555
Bi2 O9 2.239358 1_545
Bi2 O5 2.239358 1_455
Bi2 O6 2.239358 1_454
Bi2 O10 2.239358 1_544
Bi2 O3 2.244063 1_555
Bi2 O0 2.244063 1_444
O1 Pb0 2.232103 1_555
O2 Pb0 2.232103 1_555
O4 Pb0 2.226187 1_555
O7 Pb0 2.226187 1_555
O8 Pb0 2.226187 1_555
O11 Pb0 2.226187 1_555
