# generated using pymatgen
data_La(AgGe)2
_symmetry_space_group_name_H-M   'P 1'
_cell_length_a   6.29344347
_cell_length_b   6.29344347
_cell_length_c   6.29344347
_cell_angle_alpha   139.40322739
_cell_angle_beta   139.40322739
_cell_angle_gamma   58.76054370
_symmetry_Int_Tables_number   1
_chemical_formula_structural   La(AgGe)2
_chemical_formula_sum   'La1 Ag2 Ge2'
_cell_volume   104.56003071
_cell_formula_units_Z   1
loop_
 _symmetry_equiv_pos_site_id
 _symmetry_equiv_pos_as_xyz
  1  'x, y, z'
loop_
 _atom_site_type_symbol
 _atom_site_label
 _atom_site_symmetry_multiplicity
 _atom_site_fract_x
 _atom_site_fract_y
 _atom_site_fract_z
 _atom_site_occupancy
  La  La0  1  0.00000000  -0.00000000  0.00000000  1
  Ag  Ag0  1  0.75000000  0.25000000  0.50000000  1
  Ag  Ag1  1  0.25000000  0.75000000  0.50000000  1
  Ge  Ge0  1  0.38813581  0.38813581  -0.00000000  1
  Ge  Ge1  1  0.61186419  0.61186419  0.00000000  1
loop_
_geom_bond_atom_site_label_1
_geom_bond_atom_site_label_2
_geom_bond_distance
_geom_bond_site_symmetry_2
Ag0 Ge1 2.657450 1_545
Ag0 Ge0 2.657450 1_555
Ag0 Ge0 2.657450 1_656
Ag0 Ge1 2.657450 1_556
Ag0 Ag1 3.087587 1_555
Ag0 Ag1 3.087587 1_645
Ag0 Ag1 3.087587 1_544
Ag0 Ag1 3.087587 1_656
Ag0 La0 3.505019 1_555
Ag0 La0 3.505019 1_655
Ag0 La0 3.505019 1_656
Ag0 La0 3.505019 1_666
Ag1 Ge1 2.657450 1_455
Ag1 Ge0 2.657450 1_555
Ag1 Ge1 2.657450 1_556
Ag1 Ge0 2.657450 1_566
Ag1 La0 3.505019 1_555
Ag1 La0 3.505019 1_566
Ag1 La0 3.505019 1_565
Ag1 La0 3.505019 1_666
Ge0 Ge1 2.453852 1_555
Ge0 La0 3.322430 1_666
Ge0 La0 3.322430 1_554
Ge0 La0 3.322430 1_565
Ge0 La0 3.322430 1_655
Ge1 La0 3.322430 1_655
Ge1 La0 3.322430 1_565
Ge1 La0 3.322430 1_666
Ge1 La0 3.322430 1_554
