# generated using pymatgen
data_Sr4Nb2O9
_symmetry_space_group_name_H-M   'P 1'
_cell_length_a   5.93270800
_cell_length_b   5.96043175
_cell_length_c   15.81185849
_cell_angle_alpha   89.99844169
_cell_angle_beta   90.02231048
_cell_angle_gamma   119.79587510
_symmetry_Int_Tables_number   1
_chemical_formula_structural   Sr4Nb2O9
_chemical_formula_sum   'Sr8 Nb4 O18'
_cell_volume   485.21456839
_cell_formula_units_Z   2
loop_
 _symmetry_equiv_pos_site_id
 _symmetry_equiv_pos_as_xyz
  1  'x, y, z'
loop_
 _atom_site_type_symbol
 _atom_site_label
 _atom_site_symmetry_multiplicity
 _atom_site_fract_x
 _atom_site_fract_y
 _atom_site_fract_z
 _atom_site_occupancy
  Sr  Sr0  1  0.33673500  0.64085300  0.13305900  1
  Sr  Sr1  1  0.66326500  0.35914700  0.86694100  1
  Sr  Sr2  1  0.00371000  0.99116300  0.25243000  1
  Sr  Sr3  1  0.99629000  0.00883700  0.74757000  1
  Sr  Sr4  1  0.00000000  0.00000000  0.00000000  1
  Sr  Sr5  1  0.00000000  0.00000000  0.50000000  1
  Sr  Sr6  1  0.66583900  0.33965500  0.64346700  1
  Sr  Sr7  1  0.33416100  0.66034500  0.35653300  1
  Nb  Nb0  1  0.66874200  0.32444700  0.34363900  1
  Nb  Nb1  1  0.33125800  0.67555300  0.65636100  1
  Nb  Nb2  1  0.33693100  0.69433500  0.84910500  1
  Nb  Nb3  1  0.66306900  0.30566500  0.15089500  1
  O  O0  1  0.65239000  0.92756400  0.60534900  1
  O  O1  1  0.34761000  0.07243600  0.39465100  1
  O  O2  1  0.07621200  0.73803000  0.60508900  1
  O  O3  1  0.92378800  0.26197000  0.39491100  1
  O  O4  1  0.27254100  0.36237300  0.60328300  1
  O  O5  1  0.72745900  0.63762700  0.39671700  1
  O  O6  1  0.96021600  0.54409600  0.24764300  1
  O  O7  1  0.03978400  0.45590400  0.75235700  1
  O  O8  1  0.44936600  0.39376500  0.24379800  1
  O  O9  1  0.55063400  0.60623500  0.75620200  1
  O  O10  1  0.58832200  0.01583800  0.25044400  1
  O  O11  1  0.41167800  0.98416200  0.74955600  1
  O  O12  1  0.35374300  0.04677900  0.09793300  1
  O  O13  1  0.64625700  0.95322100  0.90206700  1
  O  O14  1  0.92633600  0.23212900  0.11221100  1
  O  O15  1  0.07366400  0.76787100  0.88778900  1
  O  O16  1  0.72236700  0.59902400  0.08614900  1
  O  O17  1  0.27763300  0.40097600  0.91385100  1
loop_
_geom_bond_atom_site_label_1
_geom_bond_atom_site_label_2
_geom_bond_distance
_geom_bond_site_symmetry_2
Nb0 O3 1.909043 1_555
Nb0 O5 1.914117 1_555
Nb0 O1 1.921886 1_555
Nb0 O6 2.181789 1_555
Nb0 O8 2.211237 1_555
Nb0 O10 2.215862 1_555
Nb1 O2 1.909043 1_555
Nb1 O4 1.914117 1_555
Nb1 O0 1.921886 1_555
Nb1 O7 2.181789 1_555
Nb1 O9 2.211237 1_555
Nb1 O11 2.215862 1_555
Nb2 O17 1.902130 1_555
Nb2 O13 1.906491 1_555
Nb2 O15 1.920117 1_555
Nb2 O9 2.168909 1_555
Nb2 O11 2.213052 1_555
Nb2 O7 2.230647 1_555
Nb3 O16 1.902130 1_555
Nb3 O12 1.906491 1_555
Nb3 O14 1.920117 1_555
Nb3 O8 2.168909 1_555
Nb3 O10 2.213052 1_555
Nb3 O6 2.230647 1_555
O0 Sr6 2.491590 1_565
O0 Sr5 2.516323 1_665
O0 Sr3 2.910080 1_565
O1 Sr7 2.491590 1_545
O1 Sr5 2.516323 1_555
O1 Sr2 2.910080 1_545
O2 Sr5 2.470744 1_565
O2 Sr6 2.487894 1_455
O2 Sr3 2.944042 1_465
O3 Sr5 2.470744 1_655
O3 Sr7 2.487894 1_655
O3 Sr2 2.944042 1_645
O4 Sr6 2.485816 1_555
O4 Sr5 2.544387 1_555
O4 Sr3 2.983599 1_455
O5 Sr7 2.485816 1_555
O5 Sr5 2.544387 1_665
O5 Sr2 2.983599 1_655
O6 Sr2 2.547480 1_655
O6 Sr7 2.614518 1_655
O6 Sr0 2.706978 1_655
O7 Sr3 2.547480 1_455
O7 Sr6 2.614518 1_455
O7 Sr1 2.706978 1_455
O8 Sr2 2.542121 1_545
O8 Sr0 2.580394 1_555
O8 Sr7 2.692531 1_555
O9 Sr3 2.542121 1_565
O9 Sr1 2.580394 1_555
O9 Sr6 2.692531 1_555
O10 Sr7 2.530564 1_545
O10 Sr2 2.540848 1_645
O10 Sr0 2.711276 1_545
O11 Sr6 2.530564 1_565
O11 Sr3 2.540848 1_465
O11 Sr1 2.711276 1_565
O12 Sr0 2.435150 1_545
O12 Sr4 2.509164 1_555
O12 Sr2 3.116053 1_545
O13 Sr1 2.435150 1_565
O13 Sr4 2.509164 1_666
O13 Sr3 3.116053 1_565
O14 Sr4 2.419709 1_655
O14 Sr0 2.465007 1_655
O14 Sr2 2.800617 1_645
O15 Sr4 2.419709 1_566
O15 Sr1 2.465007 1_455
O15 Sr3 2.800617 1_465
O16 Sr4 2.523859 1_665
O16 Sr0 2.532738 1_555
O17 Sr4 2.523859 1_556
O17 Sr1 2.532738 1_555
