# generated using pymatgen
data_K2NpO4
_symmetry_space_group_name_H-M   'P 1'
_cell_length_a   4.29170906
_cell_length_b   4.29170721
_cell_length_c   7.25235402
_cell_angle_alpha   107.20561754
_cell_angle_beta   107.21053701
_cell_angle_gamma   90.00000000
_symmetry_Int_Tables_number   1
_chemical_formula_structural   K2NpO4
_chemical_formula_sum   'K2 Np1 O4'
_cell_volume   121.32610783
_cell_formula_units_Z   1
loop_
 _symmetry_equiv_pos_site_id
 _symmetry_equiv_pos_as_xyz
  1  'x, y, z'
loop_
 _atom_site_type_symbol
 _atom_site_label
 _atom_site_symmetry_multiplicity
 _atom_site_fract_x
 _atom_site_fract_y
 _atom_site_fract_z
 _atom_site_occupancy
  K  K0  1  0.34898422  0.34905596  0.69796745  1
  K  K1  1  0.65101578  0.65094404  0.30203255  1
  Np  Np0  1  -0.00000000  0.00000000  -0.00000000  1
  O  O0  1  0.14528308  0.14519272  0.29056616  1
  O  O1  1  0.85471692  0.85480728  0.70943384  1
  O  O2  1  -0.00000000  0.50000000  -0.00000000  1
  O  O3  1  0.50000000  0.00000000  -0.00000000  1
loop_
_geom_bond_atom_site_label_1
_geom_bond_atom_site_label_2
_geom_bond_distance
_geom_bond_site_symmetry_2
K0 O0 2.683591 1_555
K0 O3 2.926142 1_566
K0 O2 2.926237 1_656
K0 O2 2.926239 1_556
K0 O3 2.926333 1_556
K0 O1 3.035574 1_545
K0 O1 3.035577 1_445
K0 O1 3.035694 1_555
K0 O1 3.035697 1_455
K1 O1 2.683591 1_555
K1 O3 2.926142 1_555
K1 O2 2.926237 1_555
K1 O2 2.926239 1_655
K1 O3 2.926333 1_565
K1 O0 3.035574 1_565
K1 O0 3.035577 1_665
K1 O0 3.035694 1_555
K1 O0 3.035697 1_655
Np0 O1 1.913987 1_444
Np0 O0 1.913987 1_555
Np0 O2 2.145854 1_545
Np0 O2 2.145854 1_555
Np0 O3 2.145855 1_455
Np0 O3 2.145855 1_555
