# generated using pymatgen
data_Mn3NiO10
_symmetry_space_group_name_H-M   'P 1'
_cell_length_a   8.16427351
_cell_length_b   8.16427351
_cell_length_c   8.16427366
_cell_angle_alpha   55.65135251
_cell_angle_beta   55.65135251
_cell_angle_gamma   55.65135049
_symmetry_Int_Tables_number   1
_chemical_formula_structural   Mn3NiO10
_chemical_formula_sum   'Mn6 Ni2 O20'
_cell_volume   345.97513724
_cell_formula_units_Z   2
loop_
 _symmetry_equiv_pos_site_id
 _symmetry_equiv_pos_as_xyz
  1  'x, y, z'
loop_
 _atom_site_type_symbol
 _atom_site_label
 _atom_site_symmetry_multiplicity
 _atom_site_fract_x
 _atom_site_fract_y
 _atom_site_fract_z
 _atom_site_occupancy
  Mn  Mn0  1  0.57670800  0.14204200  0.28296800  1
  Mn  Mn1  1  0.28296800  0.57670800  0.14204200  1
  Mn  Mn2  1  0.14204200  0.28296800  0.57670800  1
  Mn  Mn3  1  0.42329200  0.85795800  0.71703200  1
  Mn  Mn4  1  0.71703200  0.42329200  0.85795800  1
  Mn  Mn5  1  0.85795800  0.71703200  0.42329200  1
  Ni  Ni0  1  0.90453900  0.90453900  0.90453900  1
  Ni  Ni1  1  0.09546100  0.09546100  0.09546100  1
  O  O0  1  0.57326800  0.85909100  0.42685400  1
  O  O1  1  0.42685400  0.57326800  0.85909100  1
  O  O2  1  0.85909100  0.42685400  0.57326800  1
  O  O3  1  0.42673200  0.14090900  0.57314600  1
  O  O4  1  0.57314600  0.42673200  0.14090900  1
  O  O5  1  0.14090900  0.57314600  0.42673200  1
  O  O6  1  0.14458800  0.99929700  0.70511600  1
  O  O7  1  0.70511600  0.14458800  0.99929700  1
  O  O8  1  0.99929700  0.70511600  0.14458800  1
  O  O9  1  0.85541200  0.00070300  0.29488400  1
  O  O10  1  0.29488400  0.85541200  0.00070300  1
  O  O11  1  0.00070300  0.29488400  0.85541200  1
  O  O12  1  0.28844700  0.28844700  0.28844700  1
  O  O13  1  0.71155300  0.71155300  0.71155300  1
  O  O14  1  0.80449400  0.02093600  0.69644600  1
  O  O15  1  0.69644600  0.80449400  0.02093600  1
  O  O16  1  0.02093600  0.69644600  0.80449400  1
  O  O17  1  0.19550600  0.97906400  0.30355400  1
  O  O18  1  0.30355400  0.19550600  0.97906400  1
  O  O19  1  0.97906400  0.30355400  0.19550600  1
loop_
_geom_bond_atom_site_label_1
_geom_bond_atom_site_label_2
_geom_bond_distance
_geom_bond_site_symmetry_2
Mn0 O4 1.915226 1_555
Mn0 O9 1.917995 1_555
Mn0 O0 1.921186 1_545
Mn0 O7 1.921878 1_554
Mn0 O12 1.933016 1_555
Mn0 O3 1.956158 1_555
Mn1 O5 1.915226 1_555
Mn1 O10 1.917995 1_555
Mn1 O1 1.921186 1_554
Mn1 O8 1.921877 1_455
Mn1 O12 1.933016 1_555
Mn1 O4 1.956158 1_555
Mn2 O3 1.915226 1_555
Mn2 O11 1.917995 1_555
Mn2 O2 1.921186 1_455
Mn2 O6 1.921878 1_545
Mn2 O12 1.933016 1_555
Mn2 O5 1.956158 1_555
Mn3 O1 1.915226 1_555
Mn3 O6 1.917995 1_555
Mn3 O3 1.921186 1_565
Mn3 O10 1.921878 1_556
Mn3 O13 1.933016 1_555
Mn3 O0 1.956158 1_555
Mn4 O2 1.915226 1_555
Mn4 O7 1.917995 1_555
Mn4 O4 1.921186 1_556
Mn4 O11 1.921877 1_655
Mn4 O13 1.933016 1_555
Mn4 O1 1.956158 1_555
Mn5 O0 1.915226 1_555
Mn5 O8 1.917995 1_555
Mn5 O5 1.921186 1_655
Mn5 O9 1.921878 1_565
Mn5 O13 1.933016 1_555
Mn5 O2 1.956158 1_555
Ni0 O16 1.823383 1_655
Ni0 O14 1.823383 1_565
Ni0 O15 1.823383 1_556
Ni0 O7 1.943984 1_565
Ni0 O8 1.943984 1_556
Ni0 O6 1.943984 1_655
Ni1 O19 1.823383 1_455
Ni1 O17 1.823383 1_545
Ni1 O18 1.823383 1_554
Ni1 O10 1.943984 1_545
Ni1 O11 1.943984 1_554
Ni1 O9 1.943984 1_455
