# generated using pymatgen
data_MnH7C3NO7
_symmetry_space_group_name_H-M   'P 1'
_cell_length_a   7.75457669
_cell_length_b   7.97130690
_cell_length_c   12.97769383
_cell_angle_alpha   89.99979379
_cell_angle_beta   89.99923479
_cell_angle_gamma   89.99960228
_symmetry_Int_Tables_number   1
_chemical_formula_structural   MnH7C3NO7
_chemical_formula_sum   'Mn4 H28 C12 N4 O28'
_cell_volume   802.20460233
_cell_formula_units_Z   4
loop_
 _symmetry_equiv_pos_site_id
 _symmetry_equiv_pos_as_xyz
  1  'x, y, z'
loop_
 _atom_site_type_symbol
 _atom_site_label
 _atom_site_symmetry_multiplicity
 _atom_site_fract_x
 _atom_site_fract_y
 _atom_site_fract_z
 _atom_site_occupancy
  Mn  Mn0  1  0.56070477  0.49308746  0.08699158  1
  Mn  Mn1  1  0.93928818  0.50691526  0.58698430  1
  Mn  Mn2  1  0.43929085  0.99308051  0.41300232  1
  Mn  Mn3  1  0.06072037  0.00692063  0.91299521  1
  H  H0  1  0.53399367  0.15778478  0.21444811  1
  H  H1  1  0.96601746  0.84221733  0.71444314  1
  H  H2  1  0.46602296  0.65777712  0.28555713  1
  H  H3  1  0.03397496  0.34222563  0.78555323  1
  H  H4  1  0.40704028  0.81401628  0.96782641  1
  H  H5  1  0.09296749  0.18599343  0.46781586  1
  H  H6  1  0.59298620  0.31401932  0.53216624  1
  H  H7  1  0.90703783  0.68597783  0.03217460  1
  H  H8  1  0.21576704  0.31905819  0.01865821  1
  H  H9  1  0.28423402  0.68095462  0.51865908  1
  H  H10  1  0.78423444  0.81905856  0.48134035  1
  H  H11  1  0.71575086  0.18091322  0.98131829  1
  H  H12  1  0.20160743  0.45358134  0.21702882  1
  H  H13  1  0.29840527  0.54643760  0.71708055  1
  H  H14  1  0.79840709  0.95357029  0.28291911  1
  H  H15  1  0.70159471  0.04643826  0.78291752  1
  H  H16  1  0.08124395  0.25199764  0.27892087  1
  H  H17  1  0.41875745  0.74801324  0.77900403  1
  H  H18  1  0.91875765  0.75198936  0.22099715  1
  H  H19  1  0.58124539  0.24801326  0.72099162  1
  H  H20  1  0.90475164  0.32123618  0.21129762  1
  H  H21  1  0.59522351  0.67876296  0.71137646  1
  H  H22  1  0.09522368  0.82123755  0.28862255  1
  H  H23  1  0.40477650  0.17877277  0.78862010  1
  H  H24  1  0.93207932  0.37313792  0.33893460  1
  H  H25  1  0.56793830  0.62687193  0.83901345  1
  H  H26  1  0.06793973  0.87312428  0.16098541  1
  H  H27  1  0.43206381  0.12687073  0.66098537  1
  C  C0  1  0.41128832  0.21944711  0.23326483  1
  C  C1  1  0.08871712  0.78054536  0.73326271  1
  C  C2  1  0.58872266  0.71944451  0.26673307  1
  C  C3  1  0.91127857  0.28055516  0.76672838  1
  C  C4  1  0.31812350  0.78825770  0.03240670  1
  C  C5  1  0.18187396  0.21174168  0.53239851  1
  C  C6  1  0.68188939  0.28824955  0.46758059  1
  C  C7  1  0.81812683  0.71174285  0.96759675  1
  C  C8  1  0.30983283  0.28790154  0.95800522  1
  C  C9  1  0.19017844  0.71210687  0.45800391  1
  C  C10  1  0.69016577  0.78789694  0.54199057  1
  C  C11  1  0.80980674  0.21208588  0.04196780  1
  N  N0  1  0.99460014  0.34973781  0.26926104  1
  N  N1  1  0.50539564  0.65027102  0.76934355  1
  N  N2  1  0.00539523  0.84972978  0.23065659  1
  N  N3  1  0.49460494  0.15027380  0.73065466  1
  O  O0  1  0.38360208  0.36137195  0.19219207  1
  O  O1  1  0.11640626  0.63862532  0.69218847  1
  O  O2  1  0.61641706  0.86136371  0.30780572  1
  O  O3  1  0.88358898  0.13863182  0.80780011  1
  O  O4  1  0.30816152  0.14689070  0.29383170  1
  O  O5  1  0.19183331  0.85309439  0.79383856  1
  O  O6  1  0.69183446  0.64689297  0.20615406  1
  O  O7  1  0.80816598  0.35310573  0.70615142  1
  O  O8  1  0.35594261  0.67434746  0.09510609  1
  O  O9  1  0.14404387  0.32565505  0.59510205  1
  O  O10  1  0.64404733  0.17433603  0.40488767  1
  O  O11  1  0.85595700  0.82566131  0.90489671  1
  O  O12  1  0.18353715  0.87811995  0.03844723  1
  O  O13  1  0.31645379  0.12188330  0.53844472  1
  O  O14  1  0.81647890  0.37810149  0.46152883  1
  O  O15  1  0.68354192  0.62189355  0.96155277  1
  O  O16  1  0.45782616  0.35042486  0.96139820  1
  O  O17  1  0.04217304  0.64957694  0.46139304  1
  O  O18  1  0.54216802  0.85041667  0.53859871  1
  O  O19  1  0.95782146  0.14957514  0.03857883  1
  O  O20  1  0.25985095  0.18758936  0.88769958  1
  O  O21  1  0.24016079  0.81241065  0.38769818  1
  O  O22  1  0.74014927  0.68757939  0.61229351  1
  O  O23  1  0.75981843  0.31239498  0.11227058  1
  O  O24  1  0.08494821  0.49607110  0.23832065  1
  O  O25  1  0.41502626  0.50393512  0.73842953  1
  O  O26  1  0.91502724  0.99607063  0.26156630  1
  O  O27  1  0.58497110  0.00393737  0.76157470  1
loop_
_geom_bond_atom_site_label_1
_geom_bond_atom_site_label_2
_geom_bond_distance
_geom_bond_site_symmetry_2
Mn0 O23 2.136889 1_555
Mn0 O16 2.141581 1_554
Mn0 O15 2.147467 1_554
Mn0 O8 2.149413 1_555
Mn0 O0 2.202813 1_555
Mn0 O6 2.220077 1_555
Mn1 O22 2.136933 1_555
Mn1 O17 2.141552 1_655
Mn1 O14 2.147589 1_555
Mn1 O9 2.149381 1_655
Mn1 O1 2.202924 1_655
Mn1 O7 2.220085 1_555
Mn2 O21 2.136925 1_555
Mn2 O18 2.141600 1_555
Mn2 O13 2.147488 1_565
Mn2 O10 2.149371 1_565
Mn2 O2 2.202896 1_555
Mn2 O4 2.220156 1_565
Mn3 O20 2.136897 1_555
Mn3 O19 2.141487 1_456
Mn3 O12 2.147519 1_546
Mn3 O11 2.149423 1_445
Mn3 O3 2.202906 1_455
Mn3 O5 2.220029 1_545
H12 O24 1.004708 1_555
H12 O0 1.623539 1_555
H13 O25 1.004685 1_555
H13 O1 1.623640 1_555
H14 O26 1.004685 1_555
H14 O2 1.623634 1_555
H15 O27 1.004682 1_555
H15 O3 1.623614 1_555
H16 N0 1.036419 1_455
H17 N1 1.036402 1_555
H18 N2 1.036396 1_655
H19 N3 1.036408 1_555
H20 N0 1.050205 1_555
H20 O23 1.708725 1_555
H21 N1 1.050101 1_555
H21 O22 1.709202 1_555
H22 N2 1.050106 1_555
H22 O21 1.709213 1_555
H23 N3 1.050100 1_555
H23 O20 1.709166 1_555
H24 N0 1.042792 1_555
H25 N1 1.042838 1_555
H26 N2 1.042843 1_555
H27 N3 1.042834 1_555
C0 H0 1.098466 1_555
C0 O4 1.261685 1_555
C0 O0 1.268901 1_555
C1 H1 1.098475 1_455
C1 O5 1.261695 1_555
C1 O1 1.268880 1_555
C2 H2 1.098472 1_555
C2 O6 1.261689 1_555
C2 O2 1.268877 1_555
C3 H3 1.098470 1_655
C3 O7 1.261684 1_555
C3 O3 1.268889 1_555
C4 H4 1.104531 1_554
C4 O8 1.254030 1_555
C4 O12 1.268256 1_555
C5 H5 1.104504 1_555
C5 O9 1.254102 1_555
C5 O13 1.268203 1_555
C6 H6 1.104534 1_555
C6 O10 1.254043 1_555
C6 O14 1.268247 1_555
C7 H7 1.104501 1_556
C7 O11 1.254101 1_555
C7 O15 1.268201 1_555
C8 H8 1.101514 1_556
C8 O16 1.251954 1_555
C8 O20 1.273624 1_555
C9 H9 1.101486 1_555
C9 O17 1.252058 1_555
C9 O21 1.273572 1_555
C10 H10 1.101513 1_555
C10 O18 1.251967 1_555
C10 O22 1.273622 1_555
C11 H11 1.101475 1_554
C11 O19 1.252057 1_555
C11 O23 1.273586 1_555
N0 O24 1.418708 1_655
N1 O25 1.418718 1_555
N2 O26 1.418716 1_455
N3 O27 1.418721 1_555
