# generated using pymatgen
data_Lu5Si3
_symmetry_space_group_name_H-M   'P 1'
_cell_length_a   8.18945427
_cell_length_b   8.18945446
_cell_length_c   6.15490231
_cell_angle_alpha   90.00000000
_cell_angle_beta   90.00000000
_cell_angle_gamma   119.99999516
_symmetry_Int_Tables_number   1
_chemical_formula_structural   Lu5Si3
_chemical_formula_sum   'Lu10 Si6'
_cell_volume   357.48823314
_cell_formula_units_Z   2
loop_
 _symmetry_equiv_pos_site_id
 _symmetry_equiv_pos_as_xyz
  1  'x, y, z'
loop_
 _atom_site_type_symbol
 _atom_site_label
 _atom_site_symmetry_multiplicity
 _atom_site_fract_x
 _atom_site_fract_y
 _atom_site_fract_z
 _atom_site_occupancy
  Lu  Lu0  1  0.66666700  0.33333300  -0.00000000  1
  Lu  Lu1  1  0.33333300  0.66666700  0.50000000  1
  Lu  Lu2  1  0.33333300  0.66666700  -0.00000000  1
  Lu  Lu3  1  0.66666700  0.33333300  0.50000000  1
  Lu  Lu4  1  0.75820271  0.00000000  0.75000000  1
  Lu  Lu5  1  0.75820271  0.75820271  0.25000000  1
  Lu  Lu6  1  -0.00000000  0.24179729  0.25000000  1
  Lu  Lu7  1  0.00000000  0.75820271  0.75000000  1
  Lu  Lu8  1  0.24179729  0.24179729  0.75000000  1
  Lu  Lu9  1  0.24179729  -0.00000000  0.25000000  1
  Si  Si0  1  0.39457536  -0.00000000  0.75000000  1
  Si  Si1  1  0.39457536  0.39457536  0.25000000  1
  Si  Si2  1  0.00000000  0.60542464  0.25000000  1
  Si  Si3  1  -0.00000000  0.39457536  0.75000000  1
  Si  Si4  1  0.60542464  0.60542464  0.75000000  1
  Si  Si5  1  0.60542464  0.00000000  0.25000000  1
loop_
_geom_bond_atom_site_label_1
_geom_bond_atom_site_label_2
_geom_bond_distance
_geom_bond_site_symmetry_2
Lu0 Si3 2.949915 1_654
Lu0 Si5 2.949915 1_555
Lu0 Si2 2.949917 1_655
Lu0 Si0 2.949917 1_554
Lu0 Si1 2.949922 1_555
Lu0 Si4 2.949922 1_554
Lu1 Si2 2.949915 1_555
Lu1 Si0 2.949915 1_565
Lu1 Si3 2.949917 1_555
Lu1 Si5 2.949917 1_565
Lu1 Si4 2.949922 1_555
Lu1 Si1 2.949922 1_555
Lu2 Si2 2.949915 1_555
Lu2 Si0 2.949915 1_564
Lu2 Si3 2.949917 1_554
Lu2 Si5 2.949917 1_565
Lu2 Si4 2.949922 1_554
Lu2 Si1 2.949922 1_555
Lu3 Si3 2.949915 1_655
Lu3 Si5 2.949915 1_555
Lu3 Si2 2.949917 1_655
Lu3 Si0 2.949917 1_555
Lu3 Si1 2.949922 1_555
Lu3 Si4 2.949922 1_555
Lu4 Si4 2.822077 1_545
Lu4 Si3 2.822077 1_655
Lu4 Si0 2.977910 1_555
Lu4 Si5 3.322067 1_555
Lu4 Si5 3.322067 1_556
Lu5 Si2 2.822077 1_655
Lu5 Si5 2.822077 1_565
Lu5 Si1 2.977910 1_555
Lu5 Si4 3.322067 1_554
Lu5 Si4 3.322067 1_555
Lu6 Si1 2.822077 1_555
Lu6 Si5 2.822077 1_455
Lu6 Si2 2.977910 1_555
Lu6 Si3 3.322067 1_554
Lu6 Si3 3.322067 1_555
Lu7 Si4 2.822077 1_455
Lu7 Si0 2.822077 1_565
Lu7 Si3 2.977910 1_555
Lu7 Si2 3.322067 1_556
Lu7 Si2 3.322067 1_555
Lu8 Si3 2.822077 1_555
Lu8 Si0 2.822077 1_555
Lu8 Si4 2.977910 1_555
Lu8 Si1 3.322067 1_555
Lu8 Si1 3.322067 1_556
Lu9 Si1 2.822077 1_555
Lu9 Si2 2.822077 1_545
Lu9 Si5 2.977910 1_555
Lu9 Si0 3.322067 1_555
Lu9 Si0 3.322067 1_554
