# generated using pymatgen
data_Si2AuN3
_symmetry_space_group_name_H-M   'P 1'
_cell_length_a   5.56558837
_cell_length_b   5.62012498
_cell_length_c   5.04820100
_cell_angle_alpha   90.00000000
_cell_angle_beta   90.00000000
_cell_angle_gamma   120.32468261
_symmetry_Int_Tables_number   1
_chemical_formula_structural   Si2AuN3
_chemical_formula_sum   'Si4 Au2 N6'
_cell_volume   136.29945519
_cell_formula_units_Z   2
loop_
 _symmetry_equiv_pos_site_id
 _symmetry_equiv_pos_as_xyz
  1  'x, y, z'
loop_
 _atom_site_type_symbol
 _atom_site_label
 _atom_site_symmetry_multiplicity
 _atom_site_fract_x
 _atom_site_fract_y
 _atom_site_fract_z
 _atom_site_occupancy
  Si  Si0  1  0.35475300  0.32149200  0.47604600  1
  Si  Si1  1  0.64524700  0.96674000  0.47604600  1
  Si  Si2  1  0.64524700  0.67850800  0.97604600  1
  Si  Si3  1  0.35475300  0.03326000  0.97604600  1
  Au  Au0  1  0.00000000  0.56949900  0.58260300  1
  Au  Au1  1  0.00000000  0.43050100  0.08260300  1
  N  N0  1  0.44078600  0.34922500  0.81863500  1
  N  N1  1  0.55921400  0.90843900  0.81863500  1
  N  N2  1  0.55921400  0.65077500  0.31863500  1
  N  N3  1  0.44078600  0.09156100  0.31863500  1
  N  N4  1  0.00000000  0.80255000  0.91603500  1
  N  N5  1  0.00000000  0.19745000  0.41603500  1
loop_
_geom_bond_atom_site_label_1
_geom_bond_atom_site_label_2
_geom_bond_distance
_geom_bond_site_symmetry_2
Au0 N4 2.132787 1_555
Au0 N5 2.253704 1_555
Au1 N5 2.132787 1_555
Au1 N4 2.253704 1_554
N0 Si3 1.776359 1_555
N0 Si0 1.780233 1_555
N0 Si2 1.795720 1_555
N1 Si2 1.776355 1_555
N1 Si1 1.780233 1_555
N1 Si3 1.795716 1_565
N2 Si1 1.776359 1_555
N2 Si2 1.780233 1_554
N2 Si0 1.795720 1_555
N3 Si0 1.776355 1_555
N3 Si3 1.780233 1_554
N3 Si1 1.795716 1_545
N4 Si3 1.756743 1_565
N4 Si2 1.756744 1_455
N5 Si1 1.756743 1_445
N5 Si0 1.756744 1_555
