# generated using pymatgen
data_ZnCu(GeO3)2
_symmetry_space_group_name_H-M   'P 1'
_cell_length_a   7.03828579
_cell_length_b   7.03828579
_cell_length_c   5.40642753
_cell_angle_alpha   74.81138959
_cell_angle_beta   74.81138959
_cell_angle_gamma   86.09152152
_symmetry_Int_Tables_number   1
_chemical_formula_structural   ZnCu(GeO3)2
_chemical_formula_sum   'Zn2 Cu2 Ge4 O12'
_cell_volume   249.43677853
_cell_formula_units_Z   2
loop_
 _symmetry_equiv_pos_site_id
 _symmetry_equiv_pos_as_xyz
  1  'x, y, z'
loop_
 _atom_site_type_symbol
 _atom_site_label
 _atom_site_symmetry_multiplicity
 _atom_site_fract_x
 _atom_site_fract_y
 _atom_site_fract_z
 _atom_site_occupancy
  Zn  Zn0  1  0.76258800  0.23741200  0.75000000  1
  Zn  Zn1  1  0.23741200  0.76258800  0.25000000  1
  Cu  Cu0  1  0.10702700  0.89297300  0.75000000  1
  Cu  Cu1  1  0.89297300  0.10702700  0.25000000  1
  Ge  Ge0  1  0.20874200  0.38650400  0.75685800  1
  Ge  Ge1  1  0.61349600  0.79125800  0.74314200  1
  Ge  Ge2  1  0.79125800  0.61349600  0.24314200  1
  Ge  Ge3  1  0.38650400  0.20874200  0.25685800  1
  O  O0  1  0.40444700  0.30375600  0.52405800  1
  O  O1  1  0.69624400  0.59555300  0.97594200  1
  O  O2  1  0.59555300  0.69624400  0.47594200  1
  O  O3  1  0.30375600  0.40444700  0.02405800  1
  O  O4  1  0.62291100  0.13365700  0.11502200  1
  O  O5  1  0.86634300  0.37708900  0.38497800  1
  O  O6  1  0.37708900  0.86634300  0.88497800  1
  O  O7  1  0.13365700  0.62291100  0.61502200  1
  O  O8  1  0.02143100  0.20164100  0.87966900  1
  O  O9  1  0.79835900  0.97856900  0.62033100  1
  O  O10  1  0.97856900  0.79835900  0.12033100  1
  O  O11  1  0.20164100  0.02143100  0.37966900  1
loop_
_geom_bond_atom_site_label_1
_geom_bond_atom_site_label_2
_geom_bond_distance
_geom_bond_site_symmetry_2
Cu0 O10 1.924700 1_456
Cu0 O11 1.924700 1_565
Cu0 O7 2.187965 1_555
Cu0 O6 2.187965 1_555
Cu0 O8 2.443862 1_565
Cu0 O9 2.443862 1_455
Cu1 O9 1.924700 1_545
Cu1 O8 1.924700 1_654
Cu1 O4 2.187965 1_555
Cu1 O5 2.187965 1_555
Cu1 O11 2.443862 1_655
Cu1 O10 2.443862 1_545
Ge0 O7 1.749217 1_555
Ge0 O3 1.778576 1_556
Ge0 O0 1.785197 1_555
Ge0 O8 1.787259 1_555
Ge1 O6 1.749217 1_555
Ge1 O2 1.778576 1_555
Ge1 O1 1.785197 1_555
Ge1 O9 1.787259 1_555
Ge2 O5 1.749217 1_555
Ge2 O1 1.778576 1_554
Ge2 O2 1.785197 1_555
Ge2 O10 1.787259 1_555
Ge3 O4 1.749217 1_555
Ge3 O0 1.778576 1_555
Ge3 O3 1.785197 1_555
Ge3 O11 1.787259 1_555
O4 Zn0 1.928840 1_554
O5 Zn0 1.928840 1_555
O6 Zn1 1.928840 1_556
O7 Zn1 1.928840 1_555
O8 Zn0 2.094771 1_455
O9 Zn0 2.094771 1_565
O10 Zn1 2.094771 1_655
O11 Zn1 2.094771 1_545
