# generated using pymatgen
data_La3Nd(CuO4)2
_symmetry_space_group_name_H-M   'P 1'
_cell_length_a   3.97604614
_cell_length_b   3.97604526
_cell_length_c   12.51984596
_cell_angle_alpha   90.00000000
_cell_angle_beta   90.00000000
_cell_angle_gamma   90.00000000
_symmetry_Int_Tables_number   1
_chemical_formula_structural   La3Nd(CuO4)2
_chemical_formula_sum   'La3 Nd1 Cu2 O8'
_cell_volume   197.92548619
_cell_formula_units_Z   1
loop_
 _symmetry_equiv_pos_site_id
 _symmetry_equiv_pos_as_xyz
  1  'x, y, z'
loop_
 _atom_site_type_symbol
 _atom_site_label
 _atom_site_symmetry_multiplicity
 _atom_site_fract_x
 _atom_site_fract_y
 _atom_site_fract_z
 _atom_site_occupancy
  La  La0  1  -0.00000000  -0.00000000  0.64808918  1
  La  La1  1  -0.00000000  0.00000000  0.34885373  1
  La  La2  1  0.50000000  0.50000000  0.85305272  1
  Nd  Nd0  1  0.50000000  0.50000000  0.14809614  1
  Cu  Cu0  1  -0.00000000  -0.00000000  0.00340759  1
  Cu  Cu1  1  0.50000000  0.50000000  0.49854087  1
  O  O0  1  0.50000000  0.00000000  0.24672972  1
  O  O1  1  -0.00000000  0.50000000  0.75079735  1
  O  O2  1  0.00000000  0.50000000  0.24672971  1
  O  O3  1  0.50000000  0.00000000  0.75079751  1
  O  O4  1  0.50000000  -0.00000000  0.00345429  1
  O  O5  1  -0.00000000  0.50000000  0.49899755  1
  O  O6  1  0.50000000  0.00000000  0.49899742  1
  O  O7  1  -0.00000000  0.50000000  0.00345423  1
loop_
_geom_bond_atom_site_label_1
_geom_bond_atom_site_label_2
_geom_bond_distance
_geom_bond_site_symmetry_2
La0 O1 2.367646 1_545
La0 O1 2.367646 1_555
La0 O3 2.367648 1_455
La0 O3 2.367648 1_555
La0 O5 2.726985 1_545
La0 O5 2.726985 1_555
La0 O6 2.726986 1_455
La0 O6 2.726986 1_555
La1 O2 2.363682 1_555
La1 O2 2.363682 1_545
La1 O0 2.363682 1_455
La1 O0 2.363682 1_555
La1 O6 2.736018 1_455
La1 O6 2.736018 1_555
La1 O5 2.736019 1_555
La1 O5 2.736019 1_545
La2 O3 2.364571 1_555
La2 O3 2.364571 1_565
La2 O1 2.364572 1_655
La2 O1 2.364572 1_555
La2 O7 2.738236 1_556
La2 O7 2.738236 1_656
La2 O4 2.738237 1_556
La2 O4 2.738237 1_566
Nd0 O0 2.340332 1_555
Nd0 O0 2.340332 1_565
Nd0 O2 2.340333 1_555
Nd0 O2 2.340333 1_655
Nd0 O4 2.689158 1_565
Nd0 O4 2.689158 1_555
Nd0 O7 2.689159 1_655
Nd0 O7 2.689159 1_555
Cu0 O7 1.988023 1_545
Cu0 O7 1.988023 1_555
Cu0 O4 1.988023 1_455
Cu0 O4 1.988023 1_555
Cu1 O6 1.988031 1_565
Cu1 O6 1.988031 1_555
Cu1 O5 1.988031 1_555
Cu1 O5 1.988031 1_655
