# generated using pymatgen
data_Zn2Bi3O8
_symmetry_space_group_name_H-M   'P 1'
_cell_length_a   6.22447525
_cell_length_b   6.22447525
_cell_length_c   5.83669806
_cell_angle_alpha   71.00279625
_cell_angle_beta   71.00279625
_cell_angle_gamma   68.51865731
_symmetry_Int_Tables_number   1
_chemical_formula_structural   Zn2Bi3O8
_chemical_formula_sum   'Zn2 Bi3 O8'
_cell_volume   193.42070840
_cell_formula_units_Z   1
loop_
 _symmetry_equiv_pos_site_id
 _symmetry_equiv_pos_as_xyz
  1  'x, y, z'
loop_
 _atom_site_type_symbol
 _atom_site_label
 _atom_site_symmetry_multiplicity
 _atom_site_fract_x
 _atom_site_fract_y
 _atom_site_fract_z
 _atom_site_occupancy
  Zn  Zn0  1  0.33565200  0.33565200  0.13517700  1
  Zn  Zn1  1  0.66434800  0.66434800  0.86482300  1
  Bi  Bi0  1  0.00000000  0.00000000  0.00000000  1
  Bi  Bi1  1  0.26682800  0.73317200  0.50000000  1
  Bi  Bi2  1  0.73317200  0.26682800  0.50000000  1
  O  O0  1  0.62298300  0.62298300  0.24505800  1
  O  O1  1  0.37701700  0.37701700  0.75494200  1
  O  O2  1  0.12035200  0.12035200  0.27908400  1
  O  O3  1  0.87964800  0.87964800  0.72091600  1
  O  O4  1  0.62670200  0.14353700  0.25780800  1
  O  O5  1  0.14353700  0.62670200  0.25780800  1
  O  O6  1  0.85646300  0.37329800  0.74219200  1
  O  O7  1  0.37329800  0.85646300  0.74219200  1
loop_
_geom_bond_atom_site_label_1
_geom_bond_atom_site_label_2
_geom_bond_distance
_geom_bond_site_symmetry_2
Bi0 O4 2.353732 1_455
Bi0 O5 2.353732 1_545
Bi0 O7 2.353732 1_544
Bi0 O6 2.353732 1_454
Bi0 O2 2.403272 1_555
Bi0 O3 2.403272 1_444
Bi1 O7 2.171422 1_555
Bi1 O5 2.171422 1_555
Bi1 O1 2.236599 1_555
Bi1 O0 2.236599 1_555
Bi1 O3 2.331290 1_455
Bi1 O2 2.331290 1_565
Bi2 O6 2.171422 1_555
Bi2 O4 2.171422 1_555
Bi2 O0 2.236599 1_555
Bi2 O1 2.236599 1_555
Bi2 O2 2.331290 1_655
Bi2 O3 2.331290 1_545
O0 Zn1 2.088652 1_554
O1 Zn0 2.088652 1_556
O2 Zn0 2.036436 1_555
O3 Zn1 2.036436 1_555
O4 Zn0 1.981065 1_555
O5 Zn0 1.981065 1_555
O6 Zn1 1.981065 1_555
O7 Zn1 1.981065 1_555
