# generated using pymatgen
data_CdNCl3
_symmetry_space_group_name_H-M   'P 1'
_cell_length_a   7.51150245
_cell_length_b   7.51150245
_cell_length_c   7.40240700
_cell_angle_alpha   90.00000000
_cell_angle_beta   90.00000000
_cell_angle_gamma   94.29612324
_symmetry_Int_Tables_number   1
_chemical_formula_structural   CdNCl3
_chemical_formula_sum   'Cd2 N2 Cl6'
_cell_volume   416.49001167
_cell_formula_units_Z   2
loop_
 _symmetry_equiv_pos_site_id
 _symmetry_equiv_pos_as_xyz
  1  'x, y, z'
loop_
 _atom_site_type_symbol
 _atom_site_label
 _atom_site_symmetry_multiplicity
 _atom_site_fract_x
 _atom_site_fract_y
 _atom_site_fract_z
 _atom_site_occupancy
  Cd  Cd0  1  0.00000000  0.00000000  0.00000000  1
  Cd  Cd1  1  0.00000000  0.00000000  0.50000000  1
  N  N0  1  0.48170600  0.48170600  0.25000000  1
  N  N1  1  0.51829400  0.51829400  0.75000000  1
  Cl  Cl0  1  0.86332000  0.17901500  0.75000000  1
  Cl  Cl1  1  0.17901500  0.86332000  0.75000000  1
  Cl  Cl2  1  0.67616300  0.67616300  0.75000000  1
  Cl  Cl3  1  0.13668000  0.82098500  0.25000000  1
  Cl  Cl4  1  0.82098500  0.13668000  0.25000000  1
  Cl  Cl5  1  0.32383700  0.32383700  0.25000000  1
loop_
_geom_bond_atom_site_label_1
_geom_bond_atom_site_label_2
_geom_bond_distance
_geom_bond_site_symmetry_2
Cd0 Cl0 2.548286 1_454
Cd0 Cl1 2.548286 1_544
Cd0 Cl3 2.548286 1_545
Cd0 Cl4 2.548286 1_455
Cd1 Cl1 2.548286 1_545
Cd1 Cl3 2.548286 1_545
Cd1 Cl4 2.548286 1_455
Cd1 Cl0 2.548286 1_455
Cl2 N1 1.612985 1_555
Cl5 N0 1.612985 1_555
