# generated using pymatgen
data_U4B3C5
_symmetry_space_group_name_H-M   'P 1'
_cell_length_a   3.26545768
_cell_length_b   3.66842359
_cell_length_c   11.88134413
_cell_angle_alpha   90.00000000
_cell_angle_beta   90.00000000
_cell_angle_gamma   90.00000000
_symmetry_Int_Tables_number   1
_chemical_formula_structural   U4B3C5
_chemical_formula_sum   'U4 B3 C5'
_cell_volume   142.32759543
_cell_formula_units_Z   1
loop_
 _symmetry_equiv_pos_site_id
 _symmetry_equiv_pos_as_xyz
  1  'x, y, z'
loop_
 _atom_site_type_symbol
 _atom_site_label
 _atom_site_symmetry_multiplicity
 _atom_site_fract_x
 _atom_site_fract_y
 _atom_site_fract_z
 _atom_site_occupancy
  U  U0  1  0.00000000  0.00000000  0.13950532  1
  U  U1  1  -0.00000000  0.50000000  0.63476483  1
  U  U2  1  0.50000000  0.50000000  0.36431326  1
  U  U3  1  0.50000000  0.00000000  0.86118112  1
  B  B0  1  -0.00000000  0.50000000  0.96493768  1
  B  B1  1  0.50000000  0.50000000  0.03531138  1
  B  B2  1  0.50000000  0.00000000  0.53207621  1
  C  C0  1  -0.00000000  -0.00000000  0.34003365  1
  C  C1  1  0.00000000  0.50000000  0.83235198  1
  C  C2  1  0.50000000  0.50000000  0.16818607  1
  C  C3  1  0.50000000  -0.00000000  0.66299616  1
  C  C4  1  -0.00000000  0.00000000  0.46434234  1
loop_
_geom_bond_atom_site_label_1
_geom_bond_atom_site_label_2
_geom_bond_distance
_geom_bond_site_symmetry_2
B0 C1 1.575296 1_555
B1 C2 1.578730 1_555
B2 C3 1.555505 1_555
B2 C4 1.820290 1_555
B2 C4 1.820290 1_655
C0 C4 1.476954 1_555
C0 U0 2.382546 1_555
C0 U2 2.472520 1_455
C0 U2 2.472520 1_545
C0 U2 2.472520 1_555
C0 U2 2.472520 1_445
C1 U1 2.347601 1_555
C1 U3 2.479408 1_465
C1 U3 2.479408 1_565
C1 U3 2.479408 1_455
C1 U3 2.479408 1_555
C2 U2 2.330255 1_555
C2 U0 2.479165 1_655
C2 U0 2.479165 1_555
C2 U0 2.479165 1_665
C2 U0 2.479165 1_565
C3 U3 2.354704 1_555
C3 U1 2.478436 1_645
C3 U1 2.478436 1_545
C3 U1 2.478436 1_555
C3 U1 2.478436 1_655
