# generated using pymatgen
data_CsGaAs3H5O12
_symmetry_space_group_name_H-M   'P 1'
_cell_length_a   4.82761851
_cell_length_b   7.87057661
_cell_length_c   15.34542430
_cell_angle_alpha   90.99482017
_cell_angle_beta   86.75469566
_cell_angle_gamma   107.85973092
_symmetry_Int_Tables_number   1
_chemical_formula_structural   CsGaAs3H5O12
_chemical_formula_sum   'Cs2 Ga2 As6 H10 O24'
_cell_volume   554.07902905
_cell_formula_units_Z   2
loop_
 _symmetry_equiv_pos_site_id
 _symmetry_equiv_pos_as_xyz
  1  'x, y, z'
loop_
 _atom_site_type_symbol
 _atom_site_label
 _atom_site_symmetry_multiplicity
 _atom_site_fract_x
 _atom_site_fract_y
 _atom_site_fract_z
 _atom_site_occupancy
  Cs  Cs0  1  0.00073500  0.99404500  0.50111800  1
  Cs  Cs1  1  0.00669000  0.00595500  0.00111800  1
  Ga  Ga0  1  0.14304500  0.29019500  0.24785600  1
  Ga  Ga1  1  0.85285000  0.70980500  0.74785600  1
  As  As0  1  0.49623600  0.99393100  0.24937500  1
  As  As1  1  0.50230500  0.00606900  0.74937500  1
  As  As2  1  0.68801700  0.43693100  0.37336500  1
  As  As3  1  0.73549600  0.43065300  0.11993700  1
  As  As4  1  0.30484300  0.56934700  0.61993700  1
  As  As5  1  0.25108600  0.56306900  0.87336500  1
  H  H0  1  0.17587000  0.73306200  0.30956600  1
  H  H1  1  0.56090200  0.73230700  0.19061600  1
  H  H2  1  0.82859500  0.26769300  0.69061600  1
  H  H3  1  0.44280800  0.26693800  0.80956600  1
  H  H4  1  0.47506700  0.63708900  0.43500200  1
  H  H5  1  0.15476600  0.64039500  0.06964400  1
  H  H6  1  0.51437100  0.35960500  0.56964400  1
  H  H7  1  0.83797700  0.36291100  0.93500200  1
  H  H8  1  0.96348000  0.47601000  0.49433400  1
  H  H9  1  0.48747000  0.52399000  0.99433400  1
  O  O0  1  0.99284000  0.48612700  0.30384500  1
  O  O1  1  0.49103000  0.47930800  0.19542900  1
  O  O2  1  0.01172200  0.52069200  0.69542900  1
  O  O3  1  0.50671300  0.51387300  0.80384500  1
  O  O4  1  0.27535600  0.85533300  0.33139500  1
  O  O5  1  0.57979400  0.85356400  0.16830300  1
  O  O6  1  0.72623000  0.14643600  0.66830300  1
  O  O7  1  0.42002300  0.14466700  0.83139500  1
  O  O8  1  0.30446800  0.10327600  0.19443400  1
  O  O9  1  0.79640100  0.10806300  0.30379900  1
  O  O10  1  0.68833800  0.89193700  0.80379900  1
  O  O11  1  0.20119300  0.89672400  0.69443400  1
  O  O12  1  0.77355300  0.37361700  0.47558600  1
  O  O13  1  0.59467600  0.37752600  0.01943300  1
  O  O14  1  0.21715000  0.62247400  0.51943300  1
  O  O15  1  0.39993600  0.62638300  0.97558600  1
  O  O16  1  0.63954500  0.64765800  0.38936600  1
  O  O17  1  0.99342200  0.64571200  0.11204000  1
  O  O18  1  0.34771000  0.35428800  0.61204000  1
  O  O19  1  0.99188700  0.35234200  0.88936600  1
  O  O20  1  0.36313000  0.28163200  0.35412800  1
  O  O21  1  0.91358600  0.28039600  0.14342900  1
  O  O22  1  0.63319000  0.71960400  0.64342900  1
  O  O23  1  0.08149800  0.71836800  0.85412800  1
loop_
_geom_bond_atom_site_label_1
_geom_bond_atom_site_label_2
_geom_bond_distance
_geom_bond_site_symmetry_2
Cs0 O22 3.155522 1_455
Cs0 O4 3.182915 1_555
Cs0 O6 3.203093 1_465
Cs0 O20 3.251687 1_565
Cs0 O16 3.267135 1_455
Cs0 O18 3.314254 1_565
Cs0 H4 3.343925 1_455
Cs0 O11 3.343957 1_555
Cs0 H6 3.368475 1_565
Cs0 O14 3.414528 1_555
Cs0 O9 3.452874 1_465
Cs0 O12 3.518555 1_465
Cs1 O21 3.155521 1_455
Cs1 O7 3.182915 1_554
Cs1 O5 3.203094 1_445
Cs1 O23 3.251687 1_544
Cs1 O19 3.267135 1_454
Cs1 O17 3.314255 1_445
Cs1 H7 3.343927 1_454
Cs1 O8 3.343955 1_555
Cs1 H5 3.368475 1_545
Cs1 O13 3.414528 1_555
Cs1 O10 3.452873 1_444
Cs1 O15 3.518555 1_444
Ga0 O21 1.986267 1_455
Ga0 O9 2.000247 1_455
Ga0 O8 2.008145 1_555
Ga0 O20 2.009181 1_555
Ga0 O1 2.009898 1_555
Ga0 O0 2.052172 1_455
Ga1 O22 1.986267 1_555
Ga1 O10 2.000247 1_555
Ga1 O11 2.008148 1_655
Ga1 O23 2.009181 1_655
Ga1 O2 2.009897 1_655
Ga1 O3 2.052172 1_555
As0 O8 1.706104 1_565
As0 O9 1.707862 1_565
As0 O4 1.758804 1_555
As0 O5 1.760621 1_555
As1 O11 1.706100 1_545
As1 O10 1.707863 1_545
As1 O7 1.758803 1_555
As1 O6 1.760621 1_555
As2 O20 1.704441 1_555
As2 O0 1.714827 1_555
As2 O16 1.755911 1_555
As2 O12 1.762418 1_555
As3 O13 1.713937 1_555
As3 O21 1.715003 1_555
As3 O1 1.728735 1_555
As3 O17 1.768454 1_555
As4 O14 1.713937 1_555
As4 O22 1.715003 1_555
As4 O2 1.728735 1_555
As4 O18 1.768454 1_555
As5 O23 1.704441 1_555
As5 O3 1.714827 1_555
As5 O19 1.755911 1_455
As5 O15 1.762418 1_555
H0 O4 0.996246 1_555
H1 O5 0.995383 1_555
H2 O6 0.995383 1_555
H3 O7 0.996246 1_555
H4 O16 1.013109 1_555
H5 O17 0.996685 1_455
H6 O18 0.996685 1_555
H7 O19 1.013112 1_555
H8 O12 1.068414 1_555
H8 O14 1.465940 1_655
H9 O15 1.068414 1_555
H9 O13 1.465940 1_556
