# generated using pymatgen
data_Ho5(CoSn3)6
_symmetry_space_group_name_H-M   'P 1'
_cell_length_a   13.70209193
_cell_length_b   13.70209193
_cell_length_c   16.68521689
_cell_angle_alpha   114.24289443
_cell_angle_beta   114.24289443
_cell_angle_gamma   90.00000000
_symmetry_Int_Tables_number   1
_chemical_formula_structural   Ho5(CoSn3)6
_chemical_formula_sum   'Ho20 Co24 Sn72'
_cell_volume   2550.34396599
_cell_formula_units_Z   4
loop_
 _symmetry_equiv_pos_site_id
 _symmetry_equiv_pos_as_xyz
  1  'x, y, z'
loop_
 _atom_site_type_symbol
 _atom_site_label
 _atom_site_symmetry_multiplicity
 _atom_site_fract_x
 _atom_site_fract_y
 _atom_site_fract_z
 _atom_site_occupancy
  Ho  Ho0  1  0.62500000  0.87500000  0.25000000  1
  Ho  Ho1  1  0.12500000  0.37500000  0.25000000  1
  Ho  Ho2  1  0.37500000  0.12500000  0.75000000  1
  Ho  Ho3  1  0.87500000  0.62500000  0.75000000  1
  Ho  Ho4  1  0.06075073  0.80629700  0.38578190  1
  Ho  Ho5  1  0.82503117  0.30629700  0.38578190  1
  Ho  Ho6  1  0.30629700  0.56075073  0.88578190  1
  Ho  Ho7  1  0.07948491  0.06075073  0.88578190  1
  Ho  Ho8  1  0.93924927  0.19370300  0.61421810  1
  Ho  Ho9  1  0.17496883  0.69370300  0.61421810  1
  Ho  Ho10  1  0.69370300  0.43924927  0.11421810  1
  Ho  Ho11  1  0.92051509  0.93924927  0.11421810  1
  Ho  Ho12  1  0.56075073  0.57948491  0.38578190  1
  Ho  Ho13  1  0.32503117  0.07948491  0.38578190  1
  Ho  Ho14  1  0.80629700  0.32503117  0.88578190  1
  Ho  Ho15  1  0.57948491  0.82503117  0.88578190  1
  Ho  Ho16  1  0.43924927  0.42051509  0.61421810  1
  Ho  Ho17  1  0.67496883  0.92051509  0.61421810  1
  Ho  Ho18  1  0.19370300  0.67496883  0.11421810  1
  Ho  Ho19  1  0.42051509  0.17496883  0.11421810  1
  Co  Co0  1  0.37114531  0.87581334  0.25017468  1
  Co  Co1  1  0.37902938  0.37581334  0.25017468  1
  Co  Co2  1  0.37581334  0.87114531  0.75017468  1
  Co  Co3  1  0.87436134  0.37114531  0.75017468  1
  Co  Co4  1  0.62885469  0.12418666  0.74982532  1
  Co  Co5  1  0.62097062  0.62418666  0.74982532  1
  Co  Co6  1  0.62418666  0.12885469  0.24982532  1
  Co  Co7  1  0.12563866  0.62885469  0.24982532  1
  Co  Co8  1  0.87114531  0.37436134  0.25017468  1
  Co  Co9  1  0.87902938  0.87436134  0.25017468  1
  Co  Co10  1  0.87581334  0.87902938  0.75017468  1
  Co  Co11  1  0.37436134  0.37902938  0.75017468  1
  Co  Co12  1  0.12885469  0.62563866  0.74982532  1
  Co  Co13  1  0.12097062  0.12563866  0.74982532  1
  Co  Co14  1  0.12418666  0.12097062  0.24982532  1
  Co  Co15  1  0.62563866  0.62097062  0.24982532  1
  Co  Co16  1  0.24836144  0.99836144  0.49672288  1
  Co  Co17  1  0.74836144  0.49836144  0.49672288  1
  Co  Co18  1  0.49836144  0.74836144  0.99672288  1
  Co  Co19  1  0.99836144  0.24836144  0.99672288  1
  Co  Co20  1  0.75163856  0.00163856  0.50327712  1
  Co  Co21  1  0.25163856  0.50163856  0.50327712  1
  Co  Co22  1  0.50163856  0.25163856  0.00327712  1
  Co  Co23  1  0.00163856  0.75163856  0.00327712  1
  Sn  Sn0  1  0.29903968  0.54903968  0.25000000  1
  Sn  Sn1  1  0.45096032  0.04903968  0.25000000  1
  Sn  Sn2  1  0.04903968  0.79903968  0.75000000  1
  Sn  Sn3  1  0.20096032  0.29903968  0.75000000  1
  Sn  Sn4  1  0.70096032  0.45096032  0.75000000  1
  Sn  Sn5  1  0.54903968  0.95096032  0.75000000  1
  Sn  Sn6  1  0.95096032  0.20096032  0.25000000  1
  Sn  Sn7  1  0.79903968  0.70096032  0.25000000  1
  Sn  Sn8  1  0.36728909  0.79744765  0.07829661  1
  Sn  Sn9  1  0.21100752  0.29744765  0.07829661  1
  Sn  Sn10  1  0.29744765  0.86728909  0.57829661  1
  Sn  Sn11  1  0.78084896  0.36728909  0.57829661  1
  Sn  Sn12  1  0.63271091  0.20255235  0.92170339  1
  Sn  Sn13  1  0.78899248  0.70255235  0.92170339  1
  Sn  Sn14  1  0.70255235  0.13271091  0.42170339  1
  Sn  Sn15  1  0.21915104  0.63271091  0.42170339  1
  Sn  Sn16  1  0.86728909  0.28084896  0.07829661  1
  Sn  Sn17  1  0.71100752  0.78084896  0.07829661  1
  Sn  Sn18  1  0.79744765  0.71100752  0.57829661  1
  Sn  Sn19  1  0.28084896  0.21100752  0.57829661  1
  Sn  Sn20  1  0.13271091  0.71915104  0.92170339  1
  Sn  Sn21  1  0.28899248  0.21915104  0.92170339  1
  Sn  Sn22  1  0.20255235  0.28899248  0.42170339  1
  Sn  Sn23  1  0.71915104  0.78899248  0.42170339  1
  Sn  Sn24  1  0.53734060  0.95595661  0.42120833  1
  Sn  Sn25  1  0.38386773  0.45595661  0.42120833  1
  Sn  Sn26  1  0.45595661  0.03734060  0.92120833  1
  Sn  Sn27  1  0.96525171  0.53734060  0.92120833  1
  Sn  Sn28  1  0.46265940  0.04404339  0.57879167  1
  Sn  Sn29  1  0.61613227  0.54404339  0.57879167  1
  Sn  Sn30  1  0.54404339  0.96265940  0.07879167  1
  Sn  Sn31  1  0.03474829  0.46265940  0.07879167  1
  Sn  Sn32  1  0.03734060  0.46525171  0.42120833  1
  Sn  Sn33  1  0.88386773  0.96525171  0.42120833  1
  Sn  Sn34  1  0.95595661  0.88386773  0.92120833  1
  Sn  Sn35  1  0.46525171  0.38386773  0.92120833  1
  Sn  Sn36  1  0.96265940  0.53474829  0.57879167  1
  Sn  Sn37  1  0.11613227  0.03474829  0.57879167  1
  Sn  Sn38  1  0.04404339  0.11613227  0.07879167  1
  Sn  Sn39  1  0.53474829  0.61613227  0.07879167  1
  Sn  Sn40  1  0.45263064  0.70263064  0.25000000  1
  Sn  Sn41  1  0.29736936  0.20263064  0.25000000  1
  Sn  Sn42  1  0.20263064  0.95263064  0.75000000  1
  Sn  Sn43  1  0.04736936  0.45263064  0.75000000  1
  Sn  Sn44  1  0.54736936  0.29736936  0.75000000  1
  Sn  Sn45  1  0.70263064  0.79736936  0.75000000  1
  Sn  Sn46  1  0.79736936  0.04736936  0.25000000  1
  Sn  Sn47  1  0.95263064  0.54736936  0.25000000  1
  Sn  Sn48  1  0.25905169  0.83108989  0.33896087  1
  Sn  Sn49  1  0.57990918  0.33108989  0.33896087  1
  Sn  Sn50  1  0.33108989  0.75905169  0.83896087  1
  Sn  Sn51  1  0.00787098  0.25905169  0.83896087  1
  Sn  Sn52  1  0.74094831  0.16891011  0.66103913  1
  Sn  Sn53  1  0.42009082  0.66891011  0.66103913  1
  Sn  Sn54  1  0.66891011  0.24094831  0.16103913  1
  Sn  Sn55  1  0.99212902  0.74094831  0.16103913  1
  Sn  Sn56  1  0.75905169  0.50787098  0.33896087  1
  Sn  Sn57  1  0.07990918  0.00787098  0.33896087  1
  Sn  Sn58  1  0.83108989  0.07990918  0.83896087  1
  Sn  Sn59  1  0.50787098  0.57990918  0.83896087  1
  Sn  Sn60  1  0.24094831  0.49212902  0.66103913  1
  Sn  Sn61  1  0.92009082  0.99212902  0.66103913  1
  Sn  Sn62  1  0.16891011  0.92009082  0.16103913  1
  Sn  Sn63  1  0.49212902  0.42009082  0.16103913  1
  Sn  Sn64  1  0.25000000  0.95972488  1.00000000  1
  Sn  Sn65  1  0.25000000  0.45972488  1.00000000  1
  Sn  Sn66  1  0.45972488  0.75000000  0.50000000  1
  Sn  Sn67  1  0.54027512  0.25000000  0.50000000  1
  Sn  Sn68  1  0.75000000  0.04027512  0.00000000  1
  Sn  Sn69  1  0.75000000  0.54027512  0.00000000  1
  Sn  Sn70  1  0.95972488  0.75000000  0.50000000  1
  Sn  Sn71  1  0.04027512  0.25000000  0.50000000  1
loop_
_geom_bond_atom_site_label_1
_geom_bond_atom_site_label_2
_geom_bond_distance
_geom_bond_site_symmetry_2
Ho0 Sn8 3.316364 1_555
Ho0 Sn14 3.316364 1_565
Ho0 Sn23 3.316364 1_555
Ho0 Sn17 3.316364 1_555
Ho0 Sn39 3.324013 1_555
Ho0 Sn33 3.324013 1_555
Ho0 Sn30 3.324013 1_555
Ho0 Sn24 3.324013 1_555
Ho0 Sn40 3.340119 1_555
Ho0 Sn46 3.340119 1_565
Ho0 Sn1 3.372486 1_565
Ho0 Sn7 3.372486 1_555
Ho1 Sn15 3.316364 1_555
Ho1 Sn16 3.316364 1_455
Ho1 Sn22 3.316364 1_555
Ho1 Sn9 3.316364 1_555
Ho1 Sn25 3.324013 1_555
Ho1 Sn38 3.324013 1_555
Ho1 Sn31 3.324013 1_555
Ho1 Sn32 3.324013 1_555
Ho1 Sn47 3.340119 1_455
Ho1 Sn41 3.340119 1_555
Ho1 Sn0 3.372486 1_555
Ho1 Sn6 3.372486 1_455
Ho2 Sn12 3.316364 1_555
Ho2 Sn10 3.316364 1_545
Ho2 Sn19 3.316364 1_555
Ho2 Sn21 3.316364 1_555
Ho2 Sn35 3.324013 1_555
Ho2 Sn37 3.324013 1_555
Ho2 Sn28 3.324013 1_555
Ho2 Sn26 3.324013 1_555
Ho2 Sn42 3.340119 1_545
Ho2 Sn44 3.340119 1_555
Ho2 Sn5 3.372486 1_545
Ho2 Sn3 3.372486 1_555
Ho3 Sn11 3.316364 1_555
Ho3 Sn20 3.316364 1_655
Ho3 Sn18 3.316364 1_555
Ho3 Sn13 3.316364 1_555
Ho3 Sn29 3.324013 1_555
Ho3 Sn34 3.324013 1_555
Ho3 Sn36 3.324013 1_555
Ho3 Sn27 3.324013 1_555
Ho3 Sn45 3.340119 1_555
Ho3 Sn43 3.340119 1_655
Ho3 Sn2 3.372486 1_655
Ho3 Sn4 3.372486 1_555
Ho4 Sn70 3.084928 1_455
Ho4 Sn48 3.173273 1_555
Ho4 Sn55 3.177201 1_455
Ho4 Sn57 3.201270 1_565
Ho4 Sn37 3.234215 1_565
Ho4 Sn47 3.249259 1_455
Ho4 Sn7 3.273868 1_455
Ho4 Sn10 3.282567 1_555
Ho4 Sn15 3.290832 1_555
Ho4 Sn33 3.329646 1_455
Ho5 Sn71 3.084928 1_655
Ho5 Sn49 3.173273 1_555
Ho5 Sn54 3.177201 1_555
Ho5 Sn56 3.201270 1_555
Ho5 Sn36 3.234214 1_555
Ho5 Sn46 3.249259 1_555
Ho5 Sn6 3.273868 1_555
Ho5 Sn11 3.282567 1_555
Ho5 Sn14 3.290832 1_555
Ho5 Sn32 3.329646 1_655
Ho6 Sn65 3.084928 1_555
Ho6 Sn50 3.173273 1_555
Ho6 Sn60 3.177201 1_555
Ho6 Sn59 3.201270 1_555
Ho6 Sn39 3.234215 1_556
Ho6 Sn43 3.249259 1_555
Ho6 Sn3 3.273868 1_555
Ho6 Sn8 3.282567 1_556
Ho6 Sn20 3.290832 1_555
Ho6 Sn35 3.329646 1_555
Ho7 Sn64 3.084928 1_545
Ho7 Sn51 3.173273 1_555
Ho7 Sn61 3.177201 1_445
Ho7 Sn58 3.201270 1_455
Ho7 Sn38 3.234215 1_556
Ho7 Sn42 3.249259 1_545
Ho7 Sn2 3.273868 1_545
Ho7 Sn9 3.282567 1_556
Ho7 Sn21 3.290832 1_555
Ho7 Sn34 3.329646 1_445
Ho8 Sn71 3.084928 1_655
Ho8 Sn52 3.173273 1_555
Ho8 Sn51 3.177201 1_655
Ho8 Sn61 3.201270 1_545
Ho8 Sn33 3.234215 1_545
Ho8 Sn43 3.249259 1_655
Ho8 Sn3 3.273868 1_655
Ho8 Sn14 3.282567 1_555
Ho8 Sn11 3.290832 1_555
Ho8 Sn37 3.329646 1_655
Ho9 Sn70 3.084928 1_455
Ho9 Sn53 3.173273 1_555
Ho9 Sn50 3.177201 1_555
Ho9 Sn60 3.201270 1_555
Ho9 Sn32 3.234214 1_555
Ho9 Sn42 3.249259 1_555
Ho9 Sn2 3.273868 1_555
Ho9 Sn15 3.282567 1_555
Ho9 Sn10 3.290832 1_555
Ho9 Sn36 3.329646 1_455
Ho10 Sn69 3.084928 1_555
Ho10 Sn54 3.173273 1_555
Ho10 Sn56 3.177201 1_555
Ho10 Sn63 3.201270 1_555
Ho10 Sn35 3.234215 1_554
Ho10 Sn47 3.249259 1_555
Ho10 Sn7 3.273868 1_555
Ho10 Sn12 3.282567 1_554
Ho10 Sn16 3.290832 1_555
Ho10 Sn39 3.329646 1_555
Ho11 Sn68 3.084928 1_565
Ho11 Sn55 3.173273 1_555
Ho11 Sn57 3.177201 1_665
Ho11 Sn62 3.201270 1_655
Ho11 Sn34 3.234215 1_554
Ho11 Sn46 3.249259 1_565
Ho11 Sn6 3.273868 1_565
Ho11 Sn13 3.282567 1_554
Ho11 Sn17 3.290832 1_555
Ho11 Sn38 3.329646 1_665
Ho12 Sn66 3.084928 1_555
Ho12 Sn56 3.173273 1_555
Ho12 Sn63 3.177201 1_555
Ho12 Sn49 3.201270 1_555
Ho12 Sn29 3.234215 1_555
Ho12 Sn40 3.249259 1_555
Ho12 Sn0 3.273868 1_555
Ho12 Sn18 3.282567 1_555
Ho12 Sn23 3.290832 1_555
Ho12 Sn25 3.329646 1_555
Ho13 Sn67 3.084928 1_555
Ho13 Sn57 3.173273 1_555
Ho13 Sn62 3.177201 1_545
Ho13 Sn48 3.201270 1_545
Ho13 Sn28 3.234215 1_555
Ho13 Sn41 3.249259 1_555
Ho13 Sn1 3.273868 1_555
Ho13 Sn19 3.282567 1_555
Ho13 Sn22 3.290832 1_555
Ho13 Sn24 3.329646 1_545
Ho14 Sn69 3.084928 1_556
Ho14 Sn58 3.173273 1_555
Ho14 Sn52 3.177201 1_555
Ho14 Sn51 3.201270 1_655
Ho14 Sn31 3.234214 1_656
Ho14 Sn44 3.249259 1_555
Ho14 Sn4 3.273868 1_555
Ho14 Sn16 3.282567 1_556
Ho14 Sn12 3.290832 1_555
Ho14 Sn27 3.329646 1_555
Ho15 Sn68 3.084928 1_566
Ho15 Sn59 3.173273 1_555
Ho15 Sn53 3.177201 1_555
Ho15 Sn50 3.201270 1_555
Ho15 Sn30 3.234215 1_556
Ho15 Sn45 3.249259 1_555
Ho15 Sn5 3.273868 1_555
Ho15 Sn17 3.282567 1_556
Ho15 Sn13 3.290832 1_555
Ho15 Sn26 3.329646 1_565
Ho16 Sn67 3.084928 1_555
Ho16 Sn60 3.173273 1_555
Ho16 Sn59 3.177201 1_555
Ho16 Sn53 3.201270 1_555
Ho16 Sn25 3.234215 1_555
Ho16 Sn44 3.249259 1_555
Ho16 Sn4 3.273868 1_555
Ho16 Sn22 3.282567 1_555
Ho16 Sn19 3.290832 1_555
Ho16 Sn29 3.329646 1_555
Ho17 Sn66 3.084928 1_555
Ho17 Sn61 3.173273 1_555
Ho17 Sn58 3.177201 1_565
Ho17 Sn52 3.201270 1_565
Ho17 Sn24 3.234215 1_555
Ho17 Sn45 3.249259 1_555
Ho17 Sn5 3.273868 1_555
Ho17 Sn23 3.282567 1_555
Ho17 Sn18 3.290832 1_555
Ho17 Sn28 3.329646 1_565
Ho18 Sn65 3.084928 1_554
Ho18 Sn62 3.173273 1_555
Ho18 Sn48 3.177201 1_555
Ho18 Sn55 3.201270 1_455
Ho18 Sn27 3.234214 1_454
Ho18 Sn40 3.249259 1_555
Ho18 Sn0 3.273868 1_555
Ho18 Sn20 3.282567 1_554
Ho18 Sn8 3.290832 1_555
Ho18 Sn31 3.329646 1_555
Ho19 Sn64 3.084928 1_544
Ho19 Sn63 3.173273 1_555
Ho19 Sn49 3.177201 1_555
Ho19 Sn54 3.201270 1_555
Ho19 Sn26 3.234215 1_554
Ho19 Sn41 3.249259 1_555
Ho19 Sn1 3.273868 1_555
Ho19 Sn21 3.282567 1_554
Ho19 Sn9 3.290832 1_555
Ho19 Sn30 3.329646 1_545
Co0 Sn24 2.573951 1_555
Co0 Sn8 2.593630 1_555
Co0 Sn1 2.614984 1_565
Co0 Sn40 2.621942 1_555
Co0 Sn48 2.746490 1_555
Co0 Sn62 2.759575 1_555
Co0 Ho18 2.995797 1_555
Co0 Ho13 3.048857 1_565
Co0 Ho0 3.479552 1_555
Co1 Sn25 2.573952 1_555
Co1 Sn9 2.593630 1_555
Co1 Sn0 2.614984 1_555
Co1 Sn41 2.621942 1_555
Co1 Sn49 2.746490 1_555
Co1 Sn63 2.759575 1_555
Co1 Ho19 2.995796 1_555
Co1 Ho12 3.048857 1_555
Co1 Ho1 3.479552 1_555
Co2 Sn26 2.573951 1_565
Co2 Sn10 2.593630 1_555
Co2 Sn5 2.614984 1_555
Co2 Sn42 2.621942 1_555
Co2 Sn50 2.746490 1_555
Co2 Sn53 2.759575 1_555
Co2 Ho9 2.995797 1_555
Co2 Ho15 3.048857 1_555
Co2 Ho2 3.479552 1_565
Co3 Sn27 2.573951 1_555
Co3 Sn11 2.593630 1_555
Co3 Sn4 2.614984 1_555
Co3 Sn43 2.621942 1_655
Co3 Sn51 2.746490 1_655
Co3 Sn52 2.759575 1_555
Co3 Ho8 2.995797 1_555
Co3 Ho14 3.048857 1_555
Co3 Ho3 3.479552 1_555
Co4 Sn28 2.573951 1_555
Co4 Sn12 2.593630 1_555
Co4 Sn5 2.614984 1_545
Co4 Sn44 2.621942 1_555
Co4 Sn52 2.746490 1_555
Co4 Sn58 2.759575 1_555
Co4 Ho14 2.995797 1_555
Co4 Ho17 3.048857 1_545
Co4 Ho2 3.479552 1_555
Co5 Sn29 2.573952 1_555
Co5 Sn13 2.593630 1_555
Co5 Sn4 2.614984 1_555
Co5 Sn45 2.621942 1_555
Co5 Sn53 2.746490 1_555
Co5 Sn59 2.759575 1_555
Co5 Ho15 2.995796 1_555
Co5 Ho16 3.048857 1_555
Co5 Ho3 3.479552 1_555
Co6 Sn30 2.573951 1_545
Co6 Sn14 2.593630 1_555
Co6 Sn1 2.614984 1_555
Co6 Sn46 2.621942 1_555
Co6 Sn54 2.746490 1_555
Co6 Sn49 2.759575 1_555
Co6 Ho5 2.995797 1_555
Co6 Ho19 3.048857 1_555
Co6 Ho0 3.479552 1_545
Co7 Sn31 2.573951 1_555
Co7 Sn15 2.593630 1_555
Co7 Sn0 2.614984 1_555
Co7 Sn47 2.621942 1_455
Co7 Sn55 2.746490 1_455
Co7 Sn48 2.759575 1_555
Co7 Ho4 2.995797 1_555
Co7 Ho18 3.048857 1_555
Co7 Ho1 3.479552 1_555
Co8 Sn32 2.573951 1_655
Co8 Sn16 2.593630 1_555
Co8 Sn6 2.614984 1_555
Co8 Sn47 2.621942 1_555
Co8 Sn56 2.746490 1_555
Co8 Sn54 2.759575 1_555
Co8 Ho10 2.995797 1_555
Co8 Ho5 3.048857 1_555
Co8 Ho1 3.479552 1_655
Co9 Sn33 2.573952 1_555
Co9 Sn17 2.593630 1_555
Co9 Sn7 2.614984 1_555
Co9 Sn46 2.621942 1_565
Co9 Sn57 2.746490 1_665
Co9 Sn55 2.759575 1_555
Co9 Ho11 2.995797 1_555
Co9 Ho4 3.048857 1_655
Co9 Ho0 3.479552 1_555
Co10 Sn34 2.573952 1_555
Co10 Sn18 2.593630 1_555
Co10 Sn2 2.614984 1_655
Co10 Sn45 2.621942 1_555
Co10 Sn58 2.746490 1_565
Co10 Sn61 2.759575 1_555
Co10 Ho17 2.995796 1_555
Co10 Ho7 3.048857 1_665
Co10 Ho3 3.479552 1_555
Co11 Sn35 2.573952 1_555
Co11 Sn19 2.593630 1_555
Co11 Sn3 2.614984 1_555
Co11 Sn44 2.621942 1_555
Co11 Sn59 2.746490 1_555
Co11 Sn60 2.759575 1_555
Co11 Ho16 2.995797 1_555
Co11 Ho6 3.048857 1_555
Co11 Ho2 3.479552 1_555
Co12 Sn36 2.573951 1_455
Co12 Sn20 2.593630 1_555
Co12 Sn2 2.614984 1_555
Co12 Sn43 2.621942 1_555
Co12 Sn60 2.746490 1_555
Co12 Sn50 2.759575 1_555
Co12 Ho6 2.995797 1_555
Co12 Ho9 3.048857 1_555
Co12 Ho3 3.479552 1_455
Co13 Sn37 2.573952 1_555
Co13 Sn21 2.593630 1_555
Co13 Sn3 2.614984 1_555
Co13 Sn42 2.621942 1_545
Co13 Sn61 2.746490 1_445
Co13 Sn51 2.759575 1_555
Co13 Ho7 2.995797 1_555
Co13 Ho8 3.048857 1_455
Co13 Ho2 3.479552 1_555
Co14 Sn38 2.573952 1_555
Co14 Sn22 2.593630 1_555
Co14 Sn6 2.614984 1_455
Co14 Sn41 2.621942 1_555
Co14 Sn62 2.746490 1_545
Co14 Sn57 2.759575 1_555
Co14 Ho13 2.995796 1_555
Co14 Ho11 3.048857 1_445
Co14 Ho1 3.479552 1_555
Co15 Sn39 2.573952 1_555
Co15 Sn23 2.593630 1_555
Co15 Sn7 2.614984 1_555
Co15 Sn40 2.621942 1_555
Co15 Sn63 2.746490 1_555
Co15 Sn56 2.759575 1_555
Co15 Ho12 2.995797 1_555
Co15 Ho10 3.048857 1_555
Co15 Ho0 3.479552 1_555
Co16 Sn19 2.605000 1_565
Co16 Sn10 2.605000 1_555
Co16 Sn28 2.623565 1_565
Co16 Sn37 2.623565 1_565
Co16 Sn57 2.750583 1_565
Co16 Sn48 2.750583 1_555
Co16 Ho4 3.008708 1_555
Co16 Ho13 3.008708 1_565
Co16 Ho2 3.440495 1_565
Co17 Sn18 2.605000 1_555
Co17 Sn11 2.605000 1_555
Co17 Sn36 2.623565 1_555
Co17 Sn29 2.623565 1_555
Co17 Sn49 2.750583 1_555
Co17 Sn56 2.750583 1_555
Co17 Ho5 3.008708 1_555
Co17 Ho12 3.008708 1_555
Co17 Ho3 3.440495 1_555
Co18 Sn17 2.605000 1_556
Co18 Sn8 2.605000 1_556
Co18 Sn30 2.623565 1_556
Co18 Sn39 2.623565 1_556
Co18 Sn59 2.750583 1_555
Co18 Sn50 2.750583 1_555
Co18 Ho6 3.008708 1_555
Co18 Ho15 3.008708 1_555
Co18 Ho0 3.440495 1_556
Co19 Sn9 2.605000 1_656
Co19 Sn16 2.605000 1_556
Co19 Sn31 2.623565 1_656
Co19 Sn38 2.623565 1_656
Co19 Sn58 2.750583 1_555
Co19 Sn51 2.750583 1_655
Co19 Ho14 3.008708 1_555
Co19 Ho7 3.008708 1_655
Co19 Ho1 3.440495 1_656
Co20 Sn23 2.605000 1_545
Co20 Sn14 2.605000 1_555
Co20 Sn24 2.623565 1_545
Co20 Sn33 2.623565 1_545
Co20 Sn61 2.750583 1_545
Co20 Sn52 2.750583 1_555
Co20 Ho8 3.008708 1_555
Co20 Ho17 3.008708 1_545
Co20 Ho0 3.440495 1_545
Co21 Sn22 2.605000 1_555
Co21 Sn15 2.605000 1_555
Co21 Sn32 2.623565 1_555
Co21 Sn25 2.623565 1_555
Co21 Sn53 2.750583 1_555
Co21 Sn60 2.750583 1_555
Co21 Ho9 3.008708 1_555
Co21 Ho16 3.008708 1_555
Co21 Ho1 3.440495 1_555
Co22 Sn21 2.605000 1_554
Co22 Sn12 2.605000 1_554
Co22 Sn26 2.623565 1_554
Co22 Sn35 2.623565 1_554
Co22 Sn63 2.750583 1_555
Co22 Sn54 2.750583 1_555
Co22 Ho10 3.008708 1_555
Co22 Ho19 3.008708 1_555
Co22 Ho2 3.440495 1_554
Co23 Sn13 2.605000 1_454
Co23 Sn20 2.605000 1_554
Co23 Sn27 2.623565 1_454
Co23 Sn34 2.623565 1_454
Co23 Sn62 2.750583 1_555
Co23 Sn55 2.750583 1_455
Co23 Ho18 3.008708 1_555
Co23 Ho11 3.008708 1_455
Co23 Ho3 3.440495 1_454
Sn0 Sn40 2.976237 1_555
Sn0 Sn9 3.255518 1_555
Sn0 Sn15 3.255518 1_555
Sn1 Sn41 2.976237 1_555
Sn1 Sn8 3.255518 1_545
Sn1 Sn14 3.255518 1_555
Sn2 Sn42 2.976237 1_555
Sn2 Sn20 3.255518 1_555
Sn3 Sn43 2.976237 1_555
Sn4 Sn44 2.976237 1_555
Sn10 Sn15 3.018326 1_555
Sn10 Sn66 3.145617 1_555
Sn10 Sn5 3.255518 1_555
Sn10 Sn28 3.310355 1_565
Sn10 Sn37 3.382088 1_565
Sn10 Sn42 3.401243 1_555
Sn11 Sn14 3.018326 1_555
Sn11 Sn67 3.145616 1_555
Sn11 Sn4 3.255518 1_555
Sn11 Sn29 3.310355 1_555
Sn11 Sn36 3.382088 1_555
Sn11 Sn43 3.401243 1_655
Sn12 Sn16 3.018326 1_556
Sn12 Sn68 3.145617 1_556
Sn12 Sn5 3.255518 1_545
Sn12 Sn26 3.310355 1_555
Sn12 Sn35 3.382088 1_555
Sn12 Sn44 3.401243 1_555
Sn13 Sn17 3.018326 1_556
Sn13 Sn69 3.145617 1_556
Sn13 Sn4 3.255518 1_555
Sn13 Sn27 3.310355 1_555
Sn13 Sn34 3.382088 1_555
Sn13 Sn45 3.401243 1_555
Sn14 Sn67 3.145617 1_555
Sn14 Sn24 3.310355 1_545
Sn14 Sn33 3.382088 1_545
Sn14 Sn46 3.401243 1_555
Sn15 Sn66 3.145616 1_555
Sn15 Sn25 3.310355 1_555
Sn15 Sn32 3.382088 1_555
Sn15 Sn47 3.401243 1_455
Sn16 Sn68 3.145616 1_555
Sn16 Sn6 3.255518 1_555
Sn16 Sn38 3.310355 1_655
Sn16 Sn31 3.382088 1_655
Sn16 Sn47 3.401243 1_555
Sn17 Sn69 3.145617 1_555
Sn17 Sn7 3.255518 1_555
Sn17 Sn39 3.310355 1_555
Sn17 Sn30 3.382088 1_555
Sn17 Sn46 3.401243 1_565
Sn18 Sn23 3.018326 1_555
Sn18 Sn70 3.145617 1_555
Sn18 Sn2 3.255518 1_655
Sn18 Sn36 3.310355 1_555
Sn18 Sn29 3.382088 1_555
Sn18 Sn45 3.401243 1_555
Sn19 Sn22 3.018326 1_555
Sn19 Sn71 3.145617 1_555
Sn19 Sn3 3.255518 1_555
Sn19 Sn37 3.310355 1_555
Sn19 Sn28 3.382088 1_555
Sn19 Sn44 3.401243 1_555
Sn20 Sn8 3.018326 1_556
Sn20 Sn64 3.145616 1_555
Sn20 Sn34 3.310355 1_455
Sn20 Sn27 3.382088 1_455
Sn20 Sn43 3.401243 1_555
Sn21 Sn9 3.018326 1_556
Sn21 Sn65 3.145617 1_555
Sn21 Sn3 3.255518 1_555
Sn21 Sn35 3.310355 1_555
Sn21 Sn26 3.382088 1_555
Sn21 Sn42 3.401243 1_545
Sn22 Sn71 3.145617 1_555
Sn22 Sn6 3.255518 1_455
Sn22 Sn32 3.310355 1_555
Sn22 Sn25 3.382088 1_555
Sn22 Sn41 3.401243 1_555
Sn23 Sn70 3.145617 1_555
Sn23 Sn7 3.255518 1_555
Sn23 Sn33 3.310355 1_555
Sn23 Sn24 3.382088 1_555
Sn23 Sn40 3.401243 1_555
Sn24 Sn28 3.003427 1_565
Sn25 Sn29 3.003426 1_555
Sn26 Sn30 3.003427 1_546
Sn27 Sn31 3.003427 1_656
Sn30 Sn8 3.310355 1_555
Sn31 Sn9 3.310355 1_555
Sn32 Sn36 3.003427 1_455
Sn33 Sn37 3.003426 1_665
Sn34 Sn38 3.003426 1_666
Sn35 Sn39 3.003426 1_556
Sn38 Sn9 3.382088 1_555
Sn39 Sn8 3.382088 1_555
Sn40 Sn8 3.401243 1_555
Sn41 Sn9 3.401243 1_555
Sn45 Sn5 2.976237 1_555
Sn46 Sn6 2.976237 1_555
Sn47 Sn7 2.976237 1_555
Sn64 Sn8 3.145617 1_556
Sn65 Sn9 3.145617 1_556
