# generated using pymatgen
data_NdC3S3(O2F)9
_symmetry_space_group_name_H-M   'P 1'
_cell_length_a   15.37345065
_cell_length_b   15.37345065
_cell_length_c   6.92107600
_cell_angle_alpha   90.00000000
_cell_angle_beta   90.00000000
_cell_angle_gamma   120.00000282
_symmetry_Int_Tables_number   1
_chemical_formula_structural   NdC3S3(O2F)9
_chemical_formula_sum   'Nd2 C6 S6 O36 F18'
_cell_volume   1416.59907543
_cell_formula_units_Z   2
loop_
 _symmetry_equiv_pos_site_id
 _symmetry_equiv_pos_as_xyz
  1  'x, y, z'
loop_
 _atom_site_type_symbol
 _atom_site_label
 _atom_site_symmetry_multiplicity
 _atom_site_fract_x
 _atom_site_fract_y
 _atom_site_fract_z
 _atom_site_occupancy
  Nd  Nd0  1  0.33333300  0.66666700  0.75000000  1
  Nd  Nd1  1  0.66666700  0.33333300  0.25000000  1
  C  C0  1  0.98868800  0.22321600  0.75000000  1
  C  C1  1  0.01131200  0.77678400  0.25000000  1
  C  C2  1  0.23452800  0.01131200  0.75000000  1
  C  C3  1  0.76547200  0.98868800  0.25000000  1
  C  C4  1  0.77678400  0.76547200  0.75000000  1
  C  C5  1  0.22321600  0.23452800  0.25000000  1
  S  S0  1  0.93833800  0.31213500  0.75000000  1
  S  S1  1  0.06166200  0.68786500  0.25000000  1
  S  S2  1  0.37379800  0.06166200  0.75000000  1
  S  S3  1  0.62620200  0.93833800  0.25000000  1
  S  S4  1  0.68786500  0.62620200  0.75000000  1
  S  S5  1  0.31213500  0.37379800  0.25000000  1
  O  O0  1  0.43725400  0.88356500  0.75000000  1
  O  O1  1  0.56274600  0.11643500  0.25000000  1
  O  O2  1  0.44631000  0.56274600  0.75000000  1
  O  O3  1  0.55369000  0.43725400  0.25000000  1
  O  O4  1  0.11643500  0.55369000  0.75000000  1
  O  O5  1  0.88356500  0.44631000  0.25000000  1
  O  O6  1  0.97882000  0.37016700  0.92712800  1
  O  O7  1  0.02118000  0.62983300  0.07287200  1
  O  O8  1  0.39134700  0.02118000  0.92712800  1
  O  O9  1  0.02118000  0.62983300  0.42712800  1
  O  O10  1  0.60865300  0.97882000  0.07287200  1
  O  O11  1  0.97882000  0.37016700  0.57287200  1
  O  O12  1  0.62983300  0.60865300  0.92712800  1
  O  O13  1  0.60865300  0.97882000  0.42712800  1
  O  O14  1  0.37016700  0.39134700  0.07287200  1
  O  O15  1  0.39134700  0.02118000  0.57287200  1
  O  O16  1  0.37016700  0.39134700  0.42712800  1
  O  O17  1  0.62983300  0.60865300  0.57287200  1
  O  O18  1  0.42400100  0.59594200  0.91105800  1
  O  O19  1  0.57599900  0.40405800  0.08894200  1
  O  O20  1  0.17194100  0.57599900  0.91105800  1
  O  O21  1  0.57599900  0.40405800  0.41105800  1
  O  O22  1  0.82805900  0.42400100  0.08894200  1
  O  O23  1  0.42400100  0.59594200  0.58894200  1
  O  O24  1  0.40405800  0.82805900  0.91105800  1
  O  O25  1  0.82805900  0.42400100  0.41105800  1
  O  O26  1  0.59594200  0.17194100  0.08894200  1
  O  O27  1  0.17194100  0.57599900  0.58894200  1
  O  O28  1  0.59594200  0.17194100  0.41105800  1
  O  O29  1  0.40405800  0.82805900  0.58894200  1
  O  O30  1  0.82821100  0.25107500  0.75000000  1
  O  O31  1  0.17178900  0.74892500  0.25000000  1
  O  O32  1  0.42286400  0.17178900  0.75000000  1
  O  O33  1  0.57713600  0.82821100  0.25000000  1
  O  O34  1  0.74892500  0.57713600  0.75000000  1
  O  O35  1  0.25107500  0.42286400  0.25000000  1
  F  F0  1  0.95823900  0.16460400  0.90876800  1
  F  F1  1  0.04176100  0.83539600  0.09123200  1
  F  F2  1  0.20636500  0.04176100  0.90876800  1
  F  F3  1  0.04176100  0.83539600  0.40876800  1
  F  F4  1  0.79363500  0.95823900  0.09123200  1
  F  F5  1  0.95823900  0.16460400  0.59123200  1
  F  F6  1  0.83539600  0.79363500  0.90876800  1
  F  F7  1  0.79363500  0.95823900  0.40876800  1
  F  F8  1  0.16460400  0.20636500  0.09123200  1
  F  F9  1  0.20636500  0.04176100  0.59123200  1
  F  F10  1  0.16460400  0.20636500  0.40876800  1
  F  F11  1  0.83539600  0.79363500  0.59123200  1
  F  F12  1  0.72167900  0.81215600  0.75000000  1
  F  F13  1  0.27832100  0.18784400  0.25000000  1
  F  F14  1  0.09047700  0.27832100  0.75000000  1
  F  F15  1  0.90952300  0.72167900  0.25000000  1
  F  F16  1  0.18784400  0.90952300  0.75000000  1
  F  F17  1  0.81215600  0.09047700  0.25000000  1
loop_
_geom_bond_atom_site_label_1
_geom_bond_atom_site_label_2
_geom_bond_distance
_geom_bond_site_symmetry_2
Nd0 O24 2.425516 1_555
Nd0 O29 2.425516 1_555
Nd0 O20 2.425517 1_555
Nd0 O27 2.425517 1_555
Nd0 O18 2.425528 1_555
Nd0 O23 2.425528 1_555
Nd1 O26 2.425516 1_555
Nd1 O28 2.425516 1_555
Nd1 O25 2.425517 1_555
Nd1 O22 2.425517 1_555
Nd1 O21 2.425528 1_555
Nd1 O19 2.425528 1_555
C0 F0 1.347855 1_555
C0 F5 1.347855 1_555
C0 F14 1.356743 1_655
C1 F3 1.347855 1_555
C1 F1 1.347855 1_555
C1 F15 1.356743 1_455
C2 F2 1.347855 1_555
C2 F9 1.347855 1_555
C2 F16 1.356743 1_545
C3 F7 1.347855 1_555
C3 F4 1.347855 1_555
C3 F17 1.356743 1_565
C4 F6 1.347855 1_555
C4 F11 1.347855 1_555
C4 F12 1.356743 1_555
C5 F10 1.347855 1_555
C5 F8 1.347855 1_555
C5 F13 1.356743 1_555
O0 O24 1.340023 1_555
O0 O29 1.340023 1_555
O1 O28 1.340023 1_555
O1 O26 1.340023 1_555
O2 O23 1.340016 1_555
O6 S0 1.459758 1_555
O7 S1 1.459758 1_555
O8 S2 1.459752 1_555
O9 S1 1.459758 1_555
O10 S3 1.459752 1_555
O11 S0 1.459758 1_555
O12 S4 1.459760 1_555
O13 S3 1.459752 1_555
O14 S5 1.459760 1_555
O15 S2 1.459752 1_555
O16 S5 1.459760 1_555
O17 S4 1.459760 1_555
O18 O2 1.340016 1_555
O19 O3 1.340016 1_555
O20 O4 1.340024 1_555
O21 O3 1.340016 1_555
O22 O5 1.340024 1_555
O25 O5 1.340024 1_555
O27 O4 1.340024 1_555
O30 S0 1.469104 1_555
O31 S1 1.469104 1_555
O32 S2 1.469105 1_555
O33 S3 1.469105 1_555
O34 S4 1.469091 1_555
O35 S5 1.469091 1_555
