# generated using pymatgen
data_Ba2MgNb6(NO7)2
_symmetry_space_group_name_H-M   'P 1'
_cell_length_a   9.20328677
_cell_length_b   10.73803207
_cell_length_c   4.00771858
_cell_angle_alpha   79.11132396
_cell_angle_beta   90.00174348
_cell_angle_gamma   89.81185893
_symmetry_Int_Tables_number   1
_chemical_formula_structural   Ba2MgNb6(NO7)2
_chemical_formula_sum   'Ba2 Mg1 Nb6 N2 O14'
_cell_volume   388.93065991
_cell_formula_units_Z   1
loop_
 _symmetry_equiv_pos_site_id
 _symmetry_equiv_pos_as_xyz
  1  'x, y, z'
loop_
 _atom_site_type_symbol
 _atom_site_label
 _atom_site_symmetry_multiplicity
 _atom_site_fract_x
 _atom_site_fract_y
 _atom_site_fract_z
 _atom_site_occupancy
  Ba  Ba0  1  0.23172900  0.95148600  0.02090300  1
  Ba  Ba1  1  0.74757000  0.23403700  0.88239500  1
  Mg  Mg0  1  0.75493800  0.84067100  0.07498100  1
  Nb  Nb0  1  0.05864600  0.27079300  0.36356300  1
  Nb  Nb1  1  0.26032300  0.45638800  0.76962800  1
  Nb  Nb2  1  0.43020500  0.25259000  0.37262400  1
  Nb  Nb3  1  0.54685400  0.72208800  0.63529700  1
  Nb  Nb4  1  0.74681100  0.51870400  0.23825500  1
  Nb  Nb5  1  0.94843400  0.69882700  0.64715000  1
  N  N0  1  0.74881300  0.57621000  0.70916700  1
  N  N1  1  0.90022700  0.39643700  0.30000700  1
  O  O0  1  0.06242700  0.84502100  0.57393000  1
  O  O1  1  0.10218700  0.29127000  0.85314300  1
  O  O2  1  0.09997300  0.57225100  0.71113600  1
  O  O3  1  0.25436100  0.41362100  0.29125400  1
  O  O4  1  0.25783100  0.14626400  0.42587700  1
  O  O5  1  0.41130700  0.57635300  0.70894800  1
  O  O6  1  0.41686200  0.28703800  0.85516200  1
  O  O7  1  0.41056900  0.85064500  0.57090800  1
  O  O8  1  0.57619000  0.13414100  0.43318600  1
  O  O9  1  0.58899200  0.71336100  0.13973600  1
  O  O10  1  0.59135300  0.39694800  0.29960400  1
  O  O11  1  0.74447800  0.83936700  0.57566500  1
  O  O12  1  0.90401100  0.69661400  0.14829200  1
  O  O13  1  0.93674900  0.13314600  0.43422000  1
loop_
_geom_bond_atom_site_label_1
_geom_bond_atom_site_label_2
_geom_bond_distance
_geom_bond_site_symmetry_2
Ba0 O0 2.775193 1_555
Ba0 O0 2.780087 1_554
Ba0 O7 2.797618 1_555
Ba0 O7 2.803618 1_554
Ba0 O4 2.870187 1_564
Ba0 O4 2.890014 1_565
Ba1 O8 2.760440 1_555
Ba1 O8 2.761851 1_556
Ba1 O13 2.855551 1_555
Ba1 O13 2.859754 1_556
Ba1 N1 2.989097 1_556
Ba1 N1 2.990188 1_555
Ba1 O10 3.001947 1_556
Ba1 O10 3.003690 1_555
Ba1 O6 3.092646 1_555
Ba1 O1 3.320960 1_655
Mg0 O11 2.006121 1_554
Mg0 O11 2.006319 1_555
Mg0 O9 2.036759 1_555
Mg0 O12 2.043477 1_555
Nb0 O13 1.837438 1_455
Nb0 O1 2.054820 1_555
Nb0 O1 2.055281 1_554
Nb0 O4 2.251363 1_555
Nb0 O3 2.351775 1_555
Nb1 O5 1.882242 1_555
Nb1 O2 1.912695 1_555
Nb1 O3 2.054675 1_556
Nb1 O3 2.054826 1_555
Nb1 O1 2.273012 1_555
Nb1 O6 2.290675 1_555
Nb2 O8 1.831364 1_555
Nb2 O4 1.945674 1_555
Nb2 O6 2.040040 1_555
Nb2 O6 2.040244 1_554
Nb2 O10 2.128806 1_555
Nb2 O3 2.341775 1_555
Nb3 O7 1.843760 1_555
Nb3 O5 1.982572 1_555
Nb3 O9 2.042981 1_555
Nb3 O9 2.043131 1_556
Nb3 O11 2.202823 1_555
Nb4 O10 1.925521 1_555
Nb4 O12 2.372909 1_555
Nb4 O9 2.510541 1_555
Nb5 O0 1.867598 1_655
Nb5 O2 1.927184 1_655
Nb5 O12 2.045191 1_555
Nb5 O12 2.045388 1_556
Nb5 O11 2.387661 1_555
N0 Nb4 2.093630 1_556
N0 Nb4 2.093764 1_555
N0 Nb5 2.250078 1_555
N0 Nb3 2.408681 1_555
N1 Nb4 1.908814 1_555
N1 Nb0 1.966737 1_655
