# generated using pymatgen
data_Tb2AlFeO6
_symmetry_space_group_name_H-M   'P 1'
_cell_length_a   5.45067100
_cell_length_b   5.25974400
_cell_length_c   9.15532330
_cell_angle_alpha   54.82513332
_cell_angle_beta   90.00000000
_cell_angle_gamma   90.00000000
_symmetry_Int_Tables_number   1
_chemical_formula_structural   Tb2AlFeO6
_chemical_formula_sum   'Tb4 Al2 Fe2 O12'
_cell_volume   214.54661171
_cell_formula_units_Z   2
loop_
 _symmetry_equiv_pos_site_id
 _symmetry_equiv_pos_as_xyz
  1  'x, y, z'
loop_
 _atom_site_type_symbol
 _atom_site_label
 _atom_site_symmetry_multiplicity
 _atom_site_fract_x
 _atom_site_fract_y
 _atom_site_fract_z
 _atom_site_occupancy
  Tb  Tb0  1  0.56113800  0.73548900  0.74994400  1
  Tb  Tb1  1  0.06113800  0.26451100  0.75005600  1
  Tb  Tb2  1  0.43886200  0.26451100  0.25005600  1
  Tb  Tb3  1  0.93886200  0.73548900  0.24994400  1
  Al  Al0  1  0.50000000  0.50000000  0.50000000  1
  Al  Al1  1  0.00000000  0.50000000  0.00000000  1
  Fe  Fe0  1  0.50000000  0.00000000  0.00000000  1
  Fe  Fe1  1  0.00000000  0.00000000  0.50000000  1
  O  O0  1  0.97550300  0.83741000  0.75374400  1
  O  O1  1  0.47550300  0.16259000  0.74625600  1
  O  O2  1  0.02449700  0.16259000  0.24625600  1
  O  O3  1  0.52449700  0.83741000  0.25374400  1
  O  O4  1  0.80062100  0.25049900  0.95411400  1
  O  O5  1  0.30062100  0.74950100  0.54588600  1
  O  O6  1  0.20647000  0.35141100  0.45161800  1
  O  O7  1  0.70647000  0.64858900  0.04838200  1
  O  O8  1  0.19937900  0.74950100  0.04588600  1
  O  O9  1  0.69937900  0.25049900  0.45411400  1
  O  O10  1  0.79353000  0.64858900  0.54838200  1
  O  O11  1  0.29353000  0.35141100  0.95161800  1
loop_
_geom_bond_atom_site_label_1
_geom_bond_atom_site_label_2
_geom_bond_distance
_geom_bond_site_symmetry_2
Al0 O3 1.908001 1_555
Al0 O1 1.908001 1_555
Al0 O9 1.927395 1_555
Al0 O5 1.927395 1_555
Al0 O10 1.940531 1_555
Al0 O6 1.940531 1_555
Al1 O2 1.908001 1_555
Al1 O0 1.908001 1_454
Al1 O8 1.927395 1_555
Al1 O4 1.927395 1_454
Al1 O7 1.940531 1_455
Al1 O11 1.940531 1_554
Fe0 O1 1.963937 1_554
Fe0 O3 1.963937 1_545
Fe0 O11 1.983878 1_554
Fe0 O7 1.983878 1_545
Fe0 O4 1.989897 1_554
Fe0 O8 1.989897 1_545
Fe1 O0 1.963937 1_445
Fe1 O2 1.963937 1_555
Fe1 O6 1.983878 1_555
Fe1 O10 1.983878 1_445
Fe1 O5 1.989897 1_545
Fe1 O9 1.989897 1_455
O0 Tb1 2.275549 1_665
O0 Tb0 2.326200 1_555
O1 Tb0 2.275549 1_545
O1 Tb1 2.326200 1_555
O2 Tb3 2.275549 1_445
O2 Tb2 2.326200 1_555
O3 Tb2 2.275549 1_565
O3 Tb3 2.326200 1_555
O4 Tb1 2.313744 1_655
O4 Tb0 2.492272 1_555
O4 Tb3 2.605407 1_546
O5 Tb0 2.313744 1_555
O5 Tb1 2.492272 1_555
O5 Tb2 2.605407 1_565
O6 Tb3 2.306580 1_455
O6 Tb2 2.488090 1_555
O6 Tb1 2.619734 1_555
O7 Tb2 2.306580 1_555
O7 Tb3 2.488090 1_555
O7 Tb0 2.619734 1_554
O8 Tb3 2.313744 1_455
O8 Tb2 2.492272 1_555
O8 Tb1 2.605407 1_564
O9 Tb2 2.313744 1_555
O9 Tb3 2.492272 1_555
O9 Tb0 2.605407 1_545
O10 Tb1 2.306580 1_655
O10 Tb0 2.488090 1_555
O10 Tb3 2.619734 1_555
O11 Tb0 2.306580 1_555
O11 Tb1 2.488090 1_555
O11 Tb2 2.619734 1_556
