# generated using pymatgen
data_SrMg14Ni
_symmetry_space_group_name_H-M   'P 1'
_cell_length_a   6.55469775
_cell_length_b   6.22396199
_cell_length_c   10.37971513
_cell_angle_alpha   90.00000000
_cell_angle_beta   90.00000000
_cell_angle_gamma   118.34445227
_symmetry_Int_Tables_number   1
_chemical_formula_structural   SrMg14Ni
_chemical_formula_sum   'Sr1 Mg14 Ni1'
_cell_volume   372.68475981
_cell_formula_units_Z   1
loop_
 _symmetry_equiv_pos_site_id
 _symmetry_equiv_pos_as_xyz
  1  'x, y, z'
loop_
 _atom_site_type_symbol
 _atom_site_label
 _atom_site_symmetry_multiplicity
 _atom_site_fract_x
 _atom_site_fract_y
 _atom_site_fract_z
 _atom_site_occupancy
  Sr  Sr0  1  0.12338754  0.81169327  0.12500000  1
  Mg  Mg0  1  0.15730075  0.32864988  0.62500000  1
  Mg  Mg1  1  0.16917630  0.83458765  0.62500000  1
  Mg  Mg2  1  0.61334632  0.32104679  0.12500000  1
  Mg  Mg3  1  0.66266349  0.32675454  0.62500000  1
  Mg  Mg4  1  0.61334632  0.79229853  0.12500000  1
  Mg  Mg5  1  0.66266349  0.83590795  0.62500000  1
  Mg  Mg6  1  0.34535199  0.17871672  0.37958145  1
  Mg  Mg7  1  0.34535199  0.17871672  0.87041855  1
  Mg  Mg8  1  0.34535199  0.66663627  0.37958145  1
  Mg  Mg9  1  0.34535199  0.66663627  0.87041855  1
  Mg  Mg10  1  0.87409508  0.18704804  0.33487742  1
  Mg  Mg11  1  0.87409508  0.18704804  0.91512258  1
  Mg  Mg12  1  0.83036032  0.66518066  0.39451860  1
  Mg  Mg13  1  0.83036032  0.66518066  0.85548140  1
  Ni  Ni0  1  0.20779704  0.35389802  0.12500000  1
loop_
_geom_bond_atom_site_label_1
_geom_bond_atom_site_label_2
_geom_bond_distance
_geom_bond_site_symmetry_2
Mg0 Mg1 3.112735 1_555
Mg0 Mg1 3.112735 1_545
Mg0 Mg6 3.157769 1_555
Mg0 Mg7 3.157769 1_555
Mg0 Mg8 3.157775 1_555
Mg0 Mg9 3.157775 1_555
Mg0 Mg5 3.236614 1_445
Mg0 Mg3 3.236614 1_455
Mg0 Mg5 3.318117 1_555
Mg0 Mg3 3.318117 1_555
Mg0 Mg10 3.426029 1_455
Mg0 Mg11 3.426029 1_455
Mg1 Mg13 3.089276 1_455
Mg1 Mg12 3.089276 1_455
Mg1 Mg8 3.171993 1_555
Mg1 Mg9 3.171993 1_555
Mg1 Mg6 3.171999 1_565
Mg1 Mg7 3.171999 1_565
Mg1 Mg3 3.230766 1_565
Mg1 Mg5 3.230766 1_555
Mg1 Mg3 3.323947 1_455
Mg1 Mg5 3.323948 1_455
Mg2 Ni0 2.761197 1_555
Mg2 Mg4 2.933053 1_555
Mg2 Mg7 3.061957 1_554
Mg2 Mg6 3.061957 1_555
Mg2 Sr0 3.270568 1_545
Mg2 Sr0 3.287572 1_655
Mg2 Mg4 3.290909 1_545
Mg3 Mg5 3.055011 1_545
Mg3 Mg6 3.137562 1_555
Mg3 Mg7 3.137562 1_555
Mg3 Mg5 3.168951 1_555
Mg4 Ni0 2.761197 1_555
Mg4 Mg9 3.061957 1_554
Mg4 Mg8 3.061957 1_555
Mg4 Sr0 3.270568 1_555
Mg4 Sr0 3.287572 1_655
Mg5 Mg8 3.137562 1_555
Mg5 Mg9 3.137562 1_555
Mg6 Mg8 3.036793 1_555
Mg6 Ni0 3.149273 1_555
Mg6 Mg8 3.187169 1_545
Mg6 Sr0 3.340939 1_545
Mg7 Mg9 3.036793 1_555
Mg7 Ni0 3.149273 1_556
Mg7 Mg9 3.187169 1_545
Mg7 Sr0 3.340939 1_546
Mg8 Ni0 3.149279 1_555
Mg8 Sr0 3.340934 1_555
Mg9 Ni0 3.149279 1_556
Mg9 Sr0 3.340934 1_556
Mg10 Ni0 2.907171 1_655
Mg10 Mg2 3.117034 1_555
Mg10 Mg4 3.117041 1_545
Mg10 Mg8 3.148282 1_655
Mg10 Mg6 3.148282 1_655
Mg10 Mg12 3.182972 1_545
Mg10 Mg12 3.182973 1_555
Mg10 Mg8 3.472576 1_545
Mg10 Mg6 3.472576 1_555
Mg11 Ni0 2.907171 1_656
Mg11 Mg2 3.117034 1_556
Mg11 Mg4 3.117041 1_546
Mg11 Mg9 3.148282 1_655
Mg11 Mg7 3.148282 1_655
Mg11 Mg13 3.182972 1_545
Mg11 Mg13 3.182973 1_555
Mg11 Mg9 3.472576 1_545
Mg11 Mg7 3.472576 1_555
Mg12 Mg5 3.028150 1_555
Mg12 Mg3 3.028156 1_555
Mg12 Mg6 3.187167 1_555
Mg12 Mg8 3.187168 1_555
Mg12 Sr0 3.268594 1_655
Mg12 Mg6 3.374886 1_665
Mg12 Mg8 3.374886 1_655
Mg12 Mg4 3.397667 1_555
Mg12 Mg2 3.397672 1_555
Mg13 Mg5 3.028150 1_555
Mg13 Mg3 3.028156 1_555
Mg13 Mg7 3.187167 1_555
Mg13 Mg9 3.187168 1_555
Mg13 Sr0 3.268594 1_656
Mg13 Mg7 3.374886 1_665
Mg13 Mg9 3.374886 1_655
Mg13 Mg4 3.397667 1_556
Mg13 Mg2 3.397672 1_556
Ni0 Sr0 3.149848 1_545
Ni0 Sr0 3.149848 1_555
