# generated using pymatgen
data_Cs3(SeO4)2
_symmetry_space_group_name_H-M   'P 1'
_cell_length_a   6.46035720
_cell_length_b   6.46035720
_cell_length_c   8.91432902
_cell_angle_alpha   67.20420936
_cell_angle_beta   67.20420936
_cell_angle_gamma   60.22182599
_symmetry_Int_Tables_number   1
_chemical_formula_structural   Cs3(SeO4)2
_chemical_formula_sum   'Cs3 Se2 O8'
_cell_volume   288.72204335
_cell_formula_units_Z   1
loop_
 _symmetry_equiv_pos_site_id
 _symmetry_equiv_pos_as_xyz
  1  'x, y, z'
loop_
 _atom_site_type_symbol
 _atom_site_label
 _atom_site_symmetry_multiplicity
 _atom_site_fract_x
 _atom_site_fract_y
 _atom_site_fract_z
 _atom_site_occupancy
  Cs  Cs0  1  0.00173300  0.99826700  0.00000000  1
  Cs  Cs1  1  0.20415700  0.20854200  0.38136900  1
  Cs  Cs2  1  0.79145800  0.79584300  0.61863100  1
  Se  Se0  1  0.39648500  0.41632200  0.76674200  1
  Se  Se1  1  0.58367800  0.60351500  0.23325800  1
  O  O0  1  0.27553800  0.70841900  0.30841600  1
  O  O1  1  0.71110300  0.29557600  0.28129000  1
  O  O2  1  0.70279000  0.70993900  0.30807400  1
  O  O3  1  0.70442400  0.28889700  0.71871000  1
  O  O4  1  0.29158100  0.72446200  0.69158400  1
  O  O5  1  0.29006100  0.29721000  0.69192600  1
  O  O6  1  0.28055000  0.37155900  0.97653200  1
  O  O7  1  0.62844100  0.71945000  0.02346800  1
loop_
_geom_bond_atom_site_label_1
_geom_bond_atom_site_label_2
_geom_bond_distance
_geom_bond_site_symmetry_2
Cs0 O3 3.162882 1_464
Cs0 O1 3.162882 1_465
Cs0 O5 3.200138 1_564
Cs0 O2 3.200138 1_455
Cs0 O4 3.268517 1_554
Cs0 O0 3.268517 1_555
Cs0 O7 3.568741 1_455
Cs0 O6 3.568741 1_564
Cs0 O7 3.577873 1_555
Cs0 O6 3.577873 1_554
Cs1 O4 3.240491 1_545
Cs1 O6 3.250770 1_554
Cs1 O0 3.268629 1_555
Cs1 O2 3.297410 1_545
Cs1 O2 3.314973 1_455
Cs1 O0 3.315212 1_545
Cs1 O1 3.318785 1_555
Cs1 O5 3.321950 1_555
Cs1 O1 3.360444 1_455
Cs1 O3 3.428900 1_455
Cs2 O0 3.240491 1_655
Cs2 O7 3.250770 1_556
Cs2 O4 3.268629 1_555
Cs2 O5 3.297410 1_655
Cs2 O5 3.314973 1_565
Cs2 O4 3.315212 1_655
Cs2 O3 3.318785 1_555
Cs2 O2 3.321950 1_555
Cs2 O3 3.360444 1_565
Cs2 O1 3.428900 1_565
O0 Se1 1.687992 1_555
O1 Se1 1.674837 1_555
O2 Se1 1.669781 1_555
O3 Se0 1.674837 1_555
O4 Se0 1.687992 1_555
O5 Se0 1.669781 1_555
O6 Se0 1.688989 1_555
O7 Se1 1.688989 1_555
