# generated using pymatgen
data_CaCoO2
_symmetry_space_group_name_H-M   'P 1'
_cell_length_a   3.10132800
_cell_length_b   8.33153112
_cell_length_c   9.07374656
_cell_angle_alpha   111.05467079
_cell_angle_beta   99.37324488
_cell_angle_gamma   91.67479707
_symmetry_Int_Tables_number   1
_chemical_formula_structural   CaCoO2
_chemical_formula_sum   'Ca4 Co4 O8'
_cell_volume   214.89851096
_cell_formula_units_Z   4
loop_
 _symmetry_equiv_pos_site_id
 _symmetry_equiv_pos_as_xyz
  1  'x, y, z'
loop_
 _atom_site_type_symbol
 _atom_site_label
 _atom_site_symmetry_multiplicity
 _atom_site_fract_x
 _atom_site_fract_y
 _atom_site_fract_z
 _atom_site_occupancy
  Ca  Ca0  1  0.93792600  0.82698100  0.18284300  1
  Ca  Ca1  1  0.74211900  0.35122700  0.79824700  1
  Ca  Ca2  1  0.87662900  0.07929200  0.00368900  1
  Ca  Ca3  1  0.54669700  0.30008300  0.41816300  1
  Co  Co0  1  0.88449500  0.46165200  0.12340700  1
  Co  Co1  1  0.54971700  0.68869300  0.44604400  1
  Co  Co2  1  0.12276500  0.03472100  0.61827600  1
  Co  Co3  1  0.20786000  0.66855300  0.72139100  1
  O  O0  1  0.13574800  0.27045300  0.59626000  1
  O  O1  1  0.46065800  0.03893400  0.18167000  1
  O  O2  1  0.06417900  0.54817100  0.48878000  1
  O  O3  1  0.42114300  0.61225500  0.19318400  1
  O  O4  1  0.34679000  0.31405700  0.01847300  1
  O  O5  1  0.05315200  0.83236000  0.43520200  1
  O  O6  1  0.76856100  0.68878000  0.85886000  1
  O  O7  1  0.68917400  0.05817100  0.75484900  1
loop_
_geom_bond_atom_site_label_1
_geom_bond_atom_site_label_2
_geom_bond_distance
_geom_bond_site_symmetry_2
Ca0 O5 2.243184 1_655
Ca0 O1 2.338918 1_565
Ca0 O1 2.366104 1_665
Ca0 O3 2.384676 1_655
Ca0 O3 2.404163 1_555
Ca0 O6 2.696910 1_554
Ca1 O0 2.278781 1_655
Ca1 O0 2.294685 1_555
Ca1 O7 2.325541 1_555
Ca1 O4 2.610109 1_556
Ca1 O4 2.619859 1_656
Ca1 O6 2.660619 1_555
Ca2 O7 2.179006 1_554
Ca2 O1 2.329986 1_555
Ca2 O1 2.339827 1_655
Ca2 O4 2.356038 1_655
Ca2 O4 2.571966 1_555
Ca2 O6 3.024176 1_544
Ca3 O0 2.288199 1_555
Ca3 O0 2.315416 1_655
Ca3 O2 2.403753 1_655
Ca3 O1 2.415535 1_555
Ca3 O2 2.542387 1_555
Co0 O3 1.925907 1_655
Co0 O4 1.929062 1_555
Co0 O3 1.967536 1_555
Co0 O4 2.044687 1_655
Co1 O5 1.976238 1_655
Co1 O5 1.989233 1_555
Co1 O2 2.049849 1_555
Co1 O2 2.073786 1_655
Co1 O3 2.113306 1_555
Co2 O5 1.870339 1_545
Co2 O7 1.938165 1_555
Co2 O7 1.940693 1_455
Co2 O0 2.044202 1_555
Co3 O6 1.932212 1_555
Co3 O2 1.950857 1_555
Co3 O6 1.963772 1_455
