# generated using pymatgen
data_CoBi6(SO8)2
_symmetry_space_group_name_H-M   'P 1'
_cell_length_a   8.28893476
_cell_length_b   9.00394522
_cell_length_c   11.37111902
_cell_angle_alpha   108.41092368
_cell_angle_beta   69.94052027
_cell_angle_gamma   94.57445995
_symmetry_Int_Tables_number   1
_chemical_formula_structural   CoBi6(SO8)2
_chemical_formula_sum   'Co2 Bi12 S4 O32'
_cell_volume   755.98788260
_cell_formula_units_Z   2
loop_
 _symmetry_equiv_pos_site_id
 _symmetry_equiv_pos_as_xyz
  1  'x, y, z'
loop_
 _atom_site_type_symbol
 _atom_site_label
 _atom_site_symmetry_multiplicity
 _atom_site_fract_x
 _atom_site_fract_y
 _atom_site_fract_z
 _atom_site_occupancy
  Co  Co0  1  0.99998900  0.00006800  0.55100100  1
  Co  Co1  1  0.99999600  0.99999900  0.05076800  1
  Bi  Bi0  1  0.66031100  0.64769800  0.55916600  1
  Bi  Bi1  1  0.66020400  0.64768800  0.05914400  1
  Bi  Bi2  1  0.33981900  0.35224100  0.56536000  1
  Bi  Bi3  1  0.33973600  0.35222800  0.06542100  1
  Bi  Bi4  1  0.35052900  0.69233200  0.39925000  1
  Bi  Bi5  1  0.35047800  0.69232800  0.89927200  1
  Bi  Bi6  1  0.64956400  0.30754300  0.22832300  1
  Bi  Bi7  1  0.64954700  0.30755900  0.72834100  1
  Bi  Bi8  1  0.67102400  0.00813100  0.35699400  1
  Bi  Bi9  1  0.67089300  0.00816400  0.85705400  1
  Bi  Bi10  1  0.32918800  0.99180900  0.68839200  1
  Bi  Bi11  1  0.32905200  0.99184600  0.18848100  1
  S  S0  1  0.98240800  0.71352800  0.77156400  1
  S  S1  1  0.98243700  0.71359800  0.27174500  1
  S  S2  1  0.01757700  0.28657300  0.40643000  1
  S  S3  1  0.01749500  0.28642900  0.90610500  1
  O  O0  1  0.50005700  0.49993800  0.43989900  1
  O  O1  1  0.49989800  0.49998300  0.93994000  1
  O  O2  1  0.49999400  0.50009200  0.68020300  1
  O  O3  1  0.50000800  0.49998000  0.18013100  1
  O  O4  1  0.94773100  0.80509600  0.41534500  1
  O  O5  1  0.94775200  0.80493100  0.91516300  1
  O  O6  1  0.05206500  0.19532000  0.48719000  1
  O  O7  1  0.05189100  0.19517300  0.98686900  1
  O  O8  1  0.91748900  0.81085000  0.71022300  1
  O  O9  1  0.91758400  0.81080800  0.21031000  1
  O  O10  1  0.08237400  0.18903000  0.26400900  1
  O  O11  1  0.08233200  0.18886500  0.76369800  1
  O  O12  1  0.88993800  0.56635700  0.76526700  1
  O  O13  1  0.88995000  0.56640200  0.26549800  1
  O  O14  1  0.11027400  0.43366700  0.42739300  1
  O  O15  1  0.11022900  0.43348600  0.92706800  1
  O  O16  1  0.17255700  0.68651100  0.70392900  1
  O  O17  1  0.17260300  0.68655400  0.20414200  1
  O  O18  1  0.82744300  0.31377900  0.44734800  1
  O  O19  1  0.82737400  0.31367400  0.94699000  1
  O  O20  1  0.23054500  0.94007500  0.52708300  1
  O  O21  1  0.23041300  0.94011800  0.02712400  1
  O  O22  1  0.76964300  0.05990500  0.17229500  1
  O  O23  1  0.76948800  0.05991500  0.67234600  1
  O  O24  1  0.51747700  0.81431400  0.51870700  1
  O  O25  1  0.51739400  0.81433000  0.01871400  1
  O  O26  1  0.48266700  0.18561000  0.37020500  1
  O  O27  1  0.48257300  0.18564400  0.87026400  1
  O  O28  1  0.52399300  0.81893000  0.76589300  1
  O  O29  1  0.52413100  0.81889600  0.26583900  1
  O  O30  1  0.47591600  0.18098700  0.11842200  1
  O  O31  1  0.47596800  0.18101700  0.61840200  1
loop_
_geom_bond_atom_site_label_1
_geom_bond_atom_site_label_2
_geom_bond_distance
_geom_bond_site_symmetry_2
Co0 O23 1.931527 1_555
Co0 O20 1.932158 1_645
Co0 O6 2.067217 1_655
Co0 O4 2.067729 1_545
Co1 O22 1.931252 1_565
Co1 O21 1.931627 1_655
Co1 O7 2.067072 1_664
Co1 O5 2.067881 1_554
Bi0 O24 2.226412 1_555
Bi0 O2 2.246230 1_555
Bi0 O0 2.277712 1_555
Bi0 O28 2.312173 1_555
Bi1 O25 2.226266 1_555
Bi1 O3 2.246234 1_555
Bi1 O1 2.277420 1_554
Bi1 O29 2.311466 1_555
Bi2 O26 2.226059 1_555
Bi2 O2 2.247139 1_555
Bi2 O0 2.276996 1_555
Bi2 O31 2.312140 1_555
Bi3 O27 2.225880 1_554
Bi3 O3 2.246512 1_555
Bi3 O1 2.277317 1_554
Bi3 O30 2.312125 1_555
Bi4 O29 2.236873 1_555
Bi4 O24 2.251903 1_555
Bi4 O20 2.322054 1_555
Bi4 O0 2.447850 1_555
Bi4 O3 2.498330 1_555
Bi5 O28 2.236611 1_555
Bi5 O25 2.251628 1_556
Bi5 O21 2.322624 1_556
Bi5 O1 2.447059 1_555
Bi5 O2 2.497613 1_555
Bi6 O30 2.237134 1_555
Bi6 O26 2.251122 1_555
Bi6 O22 2.321617 1_555
Bi6 O0 2.447327 1_555
Bi6 O3 2.499536 1_555
Bi7 O31 2.236911 1_555
Bi7 O27 2.251533 1_555
Bi7 O23 2.321262 1_555
Bi7 O1 2.447860 1_555
Bi7 O2 2.499840 1_555
Bi8 O22 2.162508 1_555
Bi8 O29 2.208922 1_545
Bi8 O26 2.258149 1_555
Bi8 O9 2.546440 1_545
Bi9 O23 2.162494 1_555
Bi9 O28 2.208982 1_545
Bi9 O27 2.257938 1_555
Bi9 O8 2.546851 1_545
Bi10 O20 2.162967 1_555
Bi10 O31 2.208514 1_565
Bi10 O24 2.257691 1_555
Bi10 O11 2.546683 1_565
Bi11 O21 2.163446 1_555
Bi11 O30 2.208587 1_565
Bi11 O25 2.258352 1_555
Bi11 O10 2.545939 1_565
O4 S1 1.514476 1_555
O5 S0 1.514337 1_555
O6 S2 1.514696 1_555
O7 S3 1.514419 1_555
O8 S0 1.504240 1_555
O9 S1 1.503992 1_555
O10 S2 1.504222 1_555
O11 S3 1.504162 1_555
O12 S0 1.471143 1_555
O13 S1 1.471432 1_555
O14 S2 1.471463 1_555
O15 S3 1.471350 1_555
O16 S0 1.498766 1_455
O17 S1 1.498875 1_455
O18 S2 1.498950 1_655
O19 S3 1.498938 1_655
