# generated using pymatgen
data_Mn2NbGa
_symmetry_space_group_name_H-M   'P 1'
_cell_length_a   4.25089262
_cell_length_b   4.25089262
_cell_length_c   4.25089262
_cell_angle_alpha   60.00000000
_cell_angle_beta   60.00000000
_cell_angle_gamma   60.00000000
_symmetry_Int_Tables_number   1
_chemical_formula_structural   Mn2NbGa
_chemical_formula_sum   'Mn2 Nb1 Ga1'
_cell_volume   54.31570325
_cell_formula_units_Z   1
loop_
 _symmetry_equiv_pos_site_id
 _symmetry_equiv_pos_as_xyz
  1  'x, y, z'
loop_
 _atom_site_type_symbol
 _atom_site_label
 _atom_site_symmetry_multiplicity
 _atom_site_fract_x
 _atom_site_fract_y
 _atom_site_fract_z
 _atom_site_occupancy
  Mn  Mn0  1  0.00000000  0.00000000  0.00000000  1
  Mn  Mn1  1  0.50000000  0.50000000  0.50000000  1
  Nb  Nb0  1  0.74999900  0.74999900  0.74999900  1
  Ga  Ga0  1  0.24999900  0.24999900  0.24999900  1
loop_
_geom_bond_atom_site_label_1
_geom_bond_atom_site_label_2
_geom_bond_distance
_geom_bond_site_symmetry_2
Mn0 Nb0 2.603126 1_454
Mn0 Nb0 2.603126 1_445
Mn0 Nb0 2.603126 1_544
Mn0 Nb0 2.603140 1_444
Mn1 Nb0 2.603119 1_555
Mn1 Nb0 2.603133 1_554
Mn1 Nb0 2.603133 1_455
Mn1 Nb0 2.603133 1_545
Ga0 Mn0 2.603119 1_555
Ga0 Mn1 2.603126 1_545
Ga0 Mn1 2.603126 1_554
Ga0 Mn1 2.603126 1_455
Ga0 Mn0 2.603133 1_556
Ga0 Mn0 2.603133 1_655
Ga0 Mn0 2.603133 1_565
Ga0 Mn1 2.603140 1_555
Ga0 Nb0 3.005835 1_544
Ga0 Nb0 3.005835 1_545
Ga0 Nb0 3.005835 1_445
Ga0 Nb0 3.005835 1_554
Ga0 Nb0 3.005835 1_454
Ga0 Nb0 3.005835 1_455
