# generated using pymatgen
data_KVP2S7
_symmetry_space_group_name_H-M   'P 1'
_cell_length_a   6.53624858
_cell_length_b   6.53624858
_cell_length_c   6.62362285
_cell_angle_alpha   84.66665163
_cell_angle_beta   84.66665163
_cell_angle_gamma   96.99982094
_symmetry_Int_Tables_number   1
_chemical_formula_structural   KVP2S7
_chemical_formula_sum   'K1 V1 P2 S7'
_cell_volume   278.09173729
_cell_formula_units_Z   1
loop_
 _symmetry_equiv_pos_site_id
 _symmetry_equiv_pos_as_xyz
  1  'x, y, z'
loop_
 _atom_site_type_symbol
 _atom_site_label
 _atom_site_symmetry_multiplicity
 _atom_site_fract_x
 _atom_site_fract_y
 _atom_site_fract_z
 _atom_site_occupancy
  K  K0  1  0.11230400  0.88769600  0.50000000  1
  V  V0  1  0.49776200  0.50223800  0.00000000  1
  P  P0  1  0.05202400  0.34875200  0.91902400  1
  P  P1  1  0.65124800  0.94797600  0.08097600  1
  S  S0  1  0.98179600  0.01820400  0.00000000  1
  S  S1  1  0.53724500  0.18111900  0.21728200  1
  S  S2  1  0.31216700  0.36819200  0.72215700  1
  S  S3  1  0.63180800  0.68783300  0.27784300  1
  S  S4  1  0.15205500  0.47368900  0.17025500  1
  S  S5  1  0.52631100  0.84794500  0.82974500  1
  S  S6  1  0.81888100  0.46275500  0.78271800  1
loop_
_geom_bond_atom_site_label_1
_geom_bond_atom_site_label_2
_geom_bond_distance
_geom_bond_site_symmetry_2
K0 S1 3.459289 1_565
K0 S6 3.459289 1_455
K0 S0 3.549758 1_466
K0 S0 3.549758 1_465
K0 S5 3.650363 1_555
K0 S4 3.650363 1_555
K0 S3 3.735230 1_455
K0 S2 3.735230 1_565
P0 S6 2.024857 1_455
P0 S2 2.027824 1_555
P0 S4 2.046508 1_556
P0 S0 2.159495 1_456
P1 S1 2.024857 1_565
P1 S3 2.027824 1_555
P1 S5 2.046508 1_554
P1 S0 2.159495 1_565
S1 V0 2.486530 1_555
S2 V0 2.466125 1_556
S3 V0 2.466125 1_555
S4 V0 2.407665 1_555
S5 V0 2.407665 1_556
S6 V0 2.486530 1_556
