# generated using pymatgen
data_Ba2AlTlW2O7
_symmetry_space_group_name_H-M   'P 1'
_cell_length_a   4.07457800
_cell_length_b   4.07457800
_cell_length_c   13.58638400
_cell_angle_alpha   90.00000000
_cell_angle_beta   90.00000000
_cell_angle_gamma   90.00000000
_symmetry_Int_Tables_number   1
_chemical_formula_structural   Ba2AlTlW2O7
_chemical_formula_sum   'Ba2 Al1 Tl1 W2 O7'
_cell_volume   225.56367258
_cell_formula_units_Z   1
loop_
 _symmetry_equiv_pos_site_id
 _symmetry_equiv_pos_as_xyz
  1  'x, y, z'
loop_
 _atom_site_type_symbol
 _atom_site_label
 _atom_site_symmetry_multiplicity
 _atom_site_fract_x
 _atom_site_fract_y
 _atom_site_fract_z
 _atom_site_occupancy
  Ba  Ba0  1  0.00000000  0.00000000  0.18784700  1
  Ba  Ba1  1  0.00000000  0.00000000  0.81215300  1
  Al  Al0  1  0.00000000  0.00000000  0.50000000  1
  Tl  Tl0  1  0.50000000  0.50000000  0.00000000  1
  W  W0  1  0.50000000  0.50000000  0.35289500  1
  W  W1  1  0.50000000  0.50000000  0.64710500  1
  O  O0  1  0.50000000  0.50000000  0.20212500  1
  O  O1  1  0.50000000  0.00000000  0.35685900  1
  O  O2  1  0.00000000  0.50000000  0.35685900  1
  O  O3  1  0.00000000  0.50000000  0.64314100  1
  O  O4  1  0.00000000  0.00000000  0.00000000  1
  O  O5  1  0.50000000  0.00000000  0.64314100  1
  O  O6  1  0.50000000  0.50000000  0.79787500  1
loop_
_geom_bond_atom_site_label_1
_geom_bond_atom_site_label_2
_geom_bond_distance
_geom_bond_site_symmetry_2
Ba0 O4 2.552161 1_555
Ba0 O0 2.887685 1_455
Ba0 O0 2.887685 1_545
Ba0 O0 2.887685 1_555
Ba0 O0 2.887685 1_445
Ba0 O2 3.069750 1_555
Ba0 O2 3.069750 1_545
Ba0 O1 3.069750 1_555
Ba0 O1 3.069750 1_455
Ba1 O4 2.552161 1_556
Ba1 O6 2.887685 1_555
Ba1 O6 2.887685 1_455
Ba1 O6 2.887685 1_445
Ba1 O6 2.887685 1_545
Ba1 O5 3.069750 1_455
Ba1 O3 3.069750 1_545
Ba1 O3 3.069750 1_555
Ba1 O5 3.069750 1_555
O0 W0 2.048419 1_555
O0 Tl0 2.746148 1_555
O1 W0 2.038001 1_555
O1 W0 2.038001 1_545
O2 W0 2.038001 1_555
O2 W0 2.038001 1_455
O3 W1 2.038001 1_455
O3 W1 2.038001 1_555
O4 Tl0 2.881162 1_455
O4 Tl0 2.881162 1_555
O4 Tl0 2.881162 1_545
O4 Tl0 2.881162 1_445
O5 W1 2.038001 1_555
O5 W1 2.038001 1_545
O6 W1 2.048419 1_555
O6 Tl0 2.746148 1_556
