# generated using pymatgen
data_Sm4Ni3Ge8
_symmetry_space_group_name_H-M   'P 1'
_cell_length_a   4.14132700
_cell_length_b   4.17853800
_cell_length_c   16.65369200
_cell_angle_alpha   90.00000000
_cell_angle_beta   90.00000000
_cell_angle_gamma   90.00000000
_symmetry_Int_Tables_number   1
_chemical_formula_structural   Sm4Ni3Ge8
_chemical_formula_sum   'Sm4 Ni3 Ge8'
_cell_volume   288.18701472
_cell_formula_units_Z   1
loop_
 _symmetry_equiv_pos_site_id
 _symmetry_equiv_pos_as_xyz
  1  'x, y, z'
loop_
 _atom_site_type_symbol
 _atom_site_label
 _atom_site_symmetry_multiplicity
 _atom_site_fract_x
 _atom_site_fract_y
 _atom_site_fract_z
 _atom_site_occupancy
  Sm  Sm0  1  0.25000000  0.00000000  0.10326000  1
  Sm  Sm1  1  0.25000000  0.50000000  0.60507000  1
  Sm  Sm2  1  0.75000000  0.50000000  0.39200200  1
  Sm  Sm3  1  0.75000000  0.00000000  0.89381500  1
  Ni  Ni0  1  0.25000000  0.50000000  0.81874200  1
  Ni  Ni1  1  0.75000000  0.50000000  0.18524600  1
  Ni  Ni2  1  0.75000000  0.00000000  0.68164900  1
  Ge  Ge0  1  0.25000000  0.00000000  0.44904900  1
  Ge  Ge1  1  0.25000000  0.50000000  0.95742700  1
  Ge  Ge2  1  0.75000000  0.50000000  0.04524200  1
  Ge  Ge3  1  0.75000000  0.00000000  0.54224400  1
  Ge  Ge4  1  0.25000000  0.50000000  0.25566800  1
  Ge  Ge5  1  0.25000000  0.00000000  0.74882100  1
  Ge  Ge6  1  0.75000000  0.00000000  0.25428300  1
  Ge  Ge7  1  0.75000000  0.50000000  0.75048300  1
loop_
_geom_bond_atom_site_label_1
_geom_bond_atom_site_label_2
_geom_bond_distance
_geom_bond_site_symmetry_2
Ni0 Sm3 3.196216 1_455
Ni0 Sm3 3.196216 1_555
Ni0 Sm3 3.196216 1_565
Ni0 Sm3 3.196216 1_465
Ni1 Sm0 3.242981 1_655
Ni1 Sm0 3.242981 1_555
Ni1 Sm0 3.242981 1_565
Ni1 Sm0 3.242981 1_665
Ni2 Sm1 3.206110 1_655
Ni2 Sm1 3.206110 1_555
Ni2 Sm1 3.206110 1_545
Ni2 Sm1 3.206110 1_645
Ge0 Ge3 2.587755 1_455
Ge0 Ge3 2.587755 1_555
Ge0 Sm2 3.091161 1_445
Ge0 Sm2 3.091161 1_545
Ge0 Sm2 3.091161 1_455
Ge0 Sm2 3.091161 1_555
Ge0 Sm1 3.334118 1_545
Ge0 Sm1 3.334118 1_555
Ge1 Ni0 2.309617 1_555
Ge1 Ge2 2.535032 1_456
Ge1 Ge2 2.535032 1_556
Ge1 Sm3 3.126494 1_455
Ge1 Sm3 3.126494 1_565
Ge1 Sm3 3.126494 1_555
Ge1 Sm3 3.126494 1_465
Ge1 Sm0 3.203658 1_566
Ge1 Sm0 3.203658 1_556
Ge2 Ni1 2.331583 1_555
Ge2 Sm0 3.096169 1_655
Ge2 Sm0 3.096169 1_555
Ge2 Sm0 3.096169 1_565
Ge2 Sm0 3.096169 1_665
Ge2 Sm3 3.274846 1_554
Ge2 Sm3 3.274846 1_564
Ge3 Ni2 2.321608 1_555
Ge3 Sm1 3.122083 1_655
Ge3 Sm1 3.122083 1_555
Ge3 Sm1 3.122083 1_545
Ge3 Sm1 3.122083 1_645
Ge3 Sm2 3.259673 1_555
Ge3 Sm2 3.259673 1_545
Ge4 Ni1 2.379722 1_455
Ge4 Ni1 2.379722 1_555
Ge4 Ge6 2.941636 1_565
Ge4 Ge6 2.941636 1_465
Ge4 Ge6 2.941636 1_555
Ge4 Ge6 2.941636 1_455
Ge4 Sm2 3.072891 1_455
Ge4 Sm2 3.072891 1_555
Ge4 Sm0 3.287443 1_565
Ge4 Sm0 3.287443 1_555
Ge5 Ni2 2.353519 1_455
Ge5 Ni2 2.353519 1_555
Ge5 Ni0 2.391855 1_555
Ge5 Ni0 2.391855 1_545
Ge5 Sm1 3.177453 1_555
Ge5 Sm1 3.177453 1_545
Ge5 Sm3 3.180936 1_455
Ge5 Sm3 3.180936 1_555
Ge6 Ni1 2.384723 1_545
Ge6 Ni1 2.384723 1_555
Ge6 Sm2 3.102471 1_545
Ge6 Sm2 3.102471 1_555
Ge6 Sm0 3.257810 1_655
Ge6 Sm0 3.257810 1_555
Ge7 Ni0 2.362177 1_655
Ge7 Ni0 2.362177 1_555
Ge7 Ni2 2.383095 1_555
Ge7 Ni2 2.383095 1_565
Ge7 Sm3 3.172199 1_555
Ge7 Sm3 3.172199 1_565
Ge7 Sm1 3.186236 1_655
Ge7 Sm1 3.186236 1_555
