# generated using pymatgen
data_Ti7Al2O15
_symmetry_space_group_name_H-M   'P 1'
_cell_length_a   9.15666377
_cell_length_b   9.15666377
_cell_length_c   9.45360718
_cell_angle_alpha   81.56659670
_cell_angle_beta   81.56659670
_cell_angle_gamma   18.67784808
_symmetry_Int_Tables_number   1
_chemical_formula_structural   Ti7Al2O15
_chemical_formula_sum   'Ti7 Al2 O15'
_cell_volume   251.01870696
_cell_formula_units_Z   1
loop_
 _symmetry_equiv_pos_site_id
 _symmetry_equiv_pos_as_xyz
  1  'x, y, z'
loop_
 _atom_site_type_symbol
 _atom_site_label
 _atom_site_symmetry_multiplicity
 _atom_site_fract_x
 _atom_site_fract_y
 _atom_site_fract_z
 _atom_site_occupancy
  Ti  Ti0  1  0.50933275  0.50933275  0.64901420  1
  Ti  Ti1  1  0.49066725  0.49066725  0.35098580  1
  Ti  Ti2  1  0.18878081  0.18878081  0.61541018  1
  Ti  Ti3  1  0.81121919  0.81121919  0.38458982  1
  Ti  Ti4  1  0.67796332  0.67796332  0.95349114  1
  Ti  Ti5  1  0.32203668  0.32203668  0.04650886  1
  Ti  Ti6  1  -0.00000000  -0.00000000  -0.00000000  1
  Al  Al0  1  0.15795606  0.15795606  0.27718055  1
  Al  Al1  1  0.84204394  0.84204394  0.72281945  1
  O  O0  1  0.77380517  0.77380517  0.60281483  1
  O  O1  1  0.22619483  0.22619483  0.39718517  1
  O  O2  1  0.39266220  0.39266220  0.69513030  1
  O  O3  1  0.60733780  0.60733780  0.30486970  1
  O  O4  1  0.79991086  0.79991086  0.90704111  1
  O  O5  1  0.20008914  0.20008914  0.09295889  1
  O  O6  1  0.57438548  0.57438548  0.99236541  1
  O  O7  1  0.99171156  0.99171156  0.21289742  1
  O  O8  1  0.00828844  0.00828844  0.78710258  1
  O  O9  1  0.81258630  0.81258630  0.18551367  1
  O  O10  1  0.18741370  0.18741370  0.81448633  1
  O  O11  1  0.38155100  0.38155100  0.39418978  1
  O  O12  1  0.61844900  0.61844900  0.60581022  1
  O  O13  1  -0.00000000  -0.00000000  0.50000000  1
  O  O14  1  0.42561452  0.42561452  0.00763459  1
loop_
_geom_bond_atom_site_label_1
_geom_bond_atom_site_label_2
_geom_bond_distance
_geom_bond_site_symmetry_2
Al0 O3 1.744103 1_545
Al0 O3 1.744103 1_455
Al0 O5 1.794033 1_555
Al0 O1 1.795399 1_555
Al1 O2 1.744103 1_655
Al1 O2 1.744103 1_565
Al1 O4 1.794033 1_555
Al1 O0 1.795399 1_555
O0 Ti3 2.073286 1_555
O0 Ti2 2.127984 1_655
O0 Ti2 2.127984 1_565
O1 Ti2 2.073286 1_555
O1 Ti3 2.127984 1_455
O1 Ti3 2.127984 1_545
O2 Ti0 2.088491 1_555
O3 Ti1 2.088491 1_555
O4 Ti5 2.064657 1_656
O4 Ti5 2.064657 1_566
O4 Ti4 2.182044 1_555
O5 Ti4 2.064657 1_454
O5 Ti4 2.064657 1_544
O5 Ti5 2.182044 1_555
O6 Ti4 1.853078 1_555
O6 Ti6 1.997771 1_656
O6 Ti6 1.997771 1_566
O7 Ti1 1.976122 1_565
O7 Ti1 1.976122 1_655
O7 Ti6 1.995891 1_665
O8 Ti0 1.976122 1_545
O8 Ti0 1.976122 1_455
O8 Ti6 1.995891 1_556
O9 Ti3 1.878475 1_555
O9 Ti5 1.974126 1_655
O9 Ti5 1.974126 1_565
O10 Ti2 1.878475 1_555
O10 Ti4 1.974126 1_545
O10 Ti4 1.974126 1_455
O11 Ti1 1.953305 1_555
O11 Ti3 1.966132 1_545
O11 Ti3 1.966132 1_455
O12 Ti0 1.953305 1_555
O12 Ti2 1.966132 1_655
O12 Ti2 1.966132 1_565
O13 Ti0 2.071577 1_545
O13 Ti0 2.071577 1_455
O13 Ti1 2.071577 1_455
O13 Ti1 2.071577 1_545
O14 Ti5 1.853078 1_555
O14 Ti6 1.997771 1_565
O14 Ti6 1.997771 1_655
