# generated using pymatgen
data_Nd5Rh4
_symmetry_space_group_name_H-M   'P 1'
_cell_length_a   7.51805003
_cell_length_b   7.66438614
_cell_length_c   14.93455645
_cell_angle_alpha   90.00000000
_cell_angle_beta   90.00000000
_cell_angle_gamma   90.00000000
_symmetry_Int_Tables_number   1
_chemical_formula_structural   Nd5Rh4
_chemical_formula_sum   'Nd20 Rh16'
_cell_volume   860.54763835
_cell_formula_units_Z   4
loop_
 _symmetry_equiv_pos_site_id
 _symmetry_equiv_pos_as_xyz
  1  'x, y, z'
loop_
 _atom_site_type_symbol
 _atom_site_label
 _atom_site_symmetry_multiplicity
 _atom_site_fract_x
 _atom_site_fract_y
 _atom_site_fract_z
 _atom_site_occupancy
  Nd  Nd0  1  0.33878722  0.83073017  0.87790346  1
  Nd  Nd1  1  0.83878722  0.66926983  0.62209654  1
  Nd  Nd2  1  0.66121278  0.16926983  0.37790346  1
  Nd  Nd3  1  0.16121278  0.33073017  0.12209654  1
  Nd  Nd4  1  0.66121278  0.16926983  0.12209654  1
  Nd  Nd5  1  0.16121278  0.33073017  0.37790346  1
  Nd  Nd6  1  0.33878722  0.83073017  0.62209654  1
  Nd  Nd7  1  0.83878722  0.66926983  0.87790346  1
  Nd  Nd8  1  0.48818763  0.31972718  0.90767484  1
  Nd  Nd9  1  0.98818763  0.18027282  0.59232516  1
  Nd  Nd10  1  0.51181237  0.68027282  0.40767484  1
  Nd  Nd11  1  0.01181237  0.81972718  0.09232516  1
  Nd  Nd12  1  0.51181237  0.68027282  0.09232516  1
  Nd  Nd13  1  0.01181237  0.81972718  0.40767484  1
  Nd  Nd14  1  0.48818763  0.31972718  0.59232516  1
  Nd  Nd15  1  0.98818763  0.18027282  0.90767484  1
  Nd  Nd16  1  0.17657532  0.48487637  0.75000000  1
  Nd  Nd17  1  0.67657532  0.01512363  0.75000000  1
  Nd  Nd18  1  0.82342468  0.51512363  0.25000000  1
  Nd  Nd19  1  0.32342468  0.98487637  0.25000000  1
  Rh  Rh0  1  0.32143632  0.03340218  0.03850221  1
  Rh  Rh1  1  0.82143632  0.46659782  0.46149779  1
  Rh  Rh2  1  0.67856368  0.96659782  0.53850221  1
  Rh  Rh3  1  0.17856368  0.53340218  0.96149779  1
  Rh  Rh4  1  0.67856368  0.96659782  0.96149779  1
  Rh  Rh5  1  0.17856368  0.53340218  0.53850221  1
  Rh  Rh6  1  0.32143632  0.03340218  0.46149779  1
  Rh  Rh7  1  0.82143632  0.46659782  0.03850221  1
  Rh  Rh8  1  0.54343864  0.59992614  0.75000000  1
  Rh  Rh9  1  0.04343864  0.90007386  0.75000000  1
  Rh  Rh10  1  0.45656136  0.40007386  0.25000000  1
  Rh  Rh11  1  0.95656136  0.09992614  0.25000000  1
  Rh  Rh12  1  0.30072645  0.14392581  0.75000000  1
  Rh  Rh13  1  0.80072645  0.35607419  0.75000000  1
  Rh  Rh14  1  0.69927355  0.85607419  0.25000000  1
  Rh  Rh15  1  0.19927355  0.64392581  0.25000000  1
loop_
_geom_bond_atom_site_label_1
_geom_bond_atom_site_label_2
_geom_bond_distance
_geom_bond_site_symmetry_2
Nd0 Rh0 2.860524 1_566
Nd0 Rh3 2.864035 1_555
Nd0 Rh9 2.976850 1_555
Nd0 Rh8 3.024116 1_555
Nd0 Rh4 3.027912 1_555
Nd0 Rh12 3.081046 1_565
Nd1 Rh1 2.860524 1_555
Nd1 Rh2 2.864035 1_555
Nd1 Rh8 2.976850 1_555
Nd1 Rh9 3.024116 1_655
Nd1 Rh5 3.027912 1_655
Nd1 Rh13 3.081046 1_555
Nd2 Rh2 2.860524 1_545
Nd2 Rh1 2.864035 1_555
Nd2 Rh11 2.976850 1_555
Nd2 Rh10 3.024116 1_555
Nd2 Rh6 3.027912 1_555
Nd2 Rh14 3.081046 1_545
Nd3 Rh3 2.860524 1_554
Nd3 Rh0 2.864035 1_555
Nd3 Rh10 2.976850 1_555
Nd3 Rh11 3.024116 1_455
Nd3 Rh7 3.027912 1_455
Nd3 Rh15 3.081046 1_555
Nd4 Rh4 2.860524 1_544
Nd4 Rh7 2.864035 1_555
Nd4 Rh11 2.976850 1_555
Nd4 Rh10 3.024116 1_555
Nd4 Rh0 3.027912 1_555
Nd4 Rh14 3.081046 1_545
Nd5 Rh5 2.860524 1_555
Nd5 Rh6 2.864035 1_555
Nd5 Rh10 2.976850 1_555
Nd5 Rh11 3.024116 1_455
Nd5 Rh1 3.027912 1_455
Nd5 Rh15 3.081046 1_555
Nd6 Rh6 2.860524 1_565
Nd6 Rh5 2.864035 1_555
Nd6 Rh9 2.976850 1_555
Nd6 Rh8 3.024116 1_555
Nd6 Rh2 3.027912 1_555
Nd6 Rh12 3.081046 1_565
Nd7 Rh7 2.860524 1_556
Nd7 Rh4 2.864035 1_555
Nd7 Rh8 2.976850 1_555
Nd7 Rh9 3.024116 1_655
Nd7 Rh3 3.027912 1_655
Nd7 Rh13 3.081046 1_555
Nd8 Rh3 2.957475 1_555
Nd8 Rh12 3.057263 1_555
Nd8 Rh4 3.165419 1_545
Nd8 Rh0 3.194527 1_556
Nd8 Rh8 3.213973 1_555
Nd8 Rh13 3.338220 1_555
Nd8 Rh7 3.370697 1_556
Nd9 Rh2 2.957475 1_545
Nd9 Rh13 3.057263 1_555
Nd9 Rh5 3.165419 1_655
Nd9 Rh1 3.194527 1_555
Nd9 Rh9 3.213973 1_645
Nd9 Rh12 3.338220 1_655
Nd9 Rh6 3.370697 1_655
Nd10 Rh1 2.957475 1_555
Nd10 Rh14 3.057263 1_555
Nd10 Rh6 3.165419 1_565
Nd10 Rh2 3.194527 1_555
Nd10 Rh10 3.213973 1_555
Nd10 Rh15 3.338220 1_555
Nd10 Rh5 3.370697 1_555
Nd11 Rh0 2.957475 1_565
Nd11 Rh15 3.057263 1_555
Nd11 Rh7 3.165419 1_455
Nd11 Rh3 3.194527 1_554
Nd11 Rh11 3.213973 1_465
Nd11 Rh14 3.338220 1_455
Nd11 Rh4 3.370697 1_454
Nd12 Rh7 2.957475 1_555
Nd12 Rh14 3.057263 1_555
Nd12 Rh0 3.165419 1_565
Nd12 Rh4 3.194527 1_554
Nd12 Rh10 3.213973 1_555
Nd12 Rh15 3.338220 1_555
Nd12 Rh3 3.370697 1_554
Nd13 Rh6 2.957475 1_565
Nd13 Rh15 3.057263 1_555
Nd13 Rh1 3.165419 1_455
Nd13 Rh5 3.194527 1_555
Nd13 Rh11 3.213973 1_465
Nd13 Rh14 3.338220 1_455
Nd13 Rh2 3.370697 1_455
Nd14 Rh5 2.957475 1_555
Nd14 Rh12 3.057263 1_555
Nd14 Rh2 3.165419 1_545
Nd14 Rh6 3.194527 1_555
Nd14 Rh8 3.213973 1_555
Nd14 Rh13 3.338220 1_555
Nd14 Rh1 3.370697 1_555
Nd15 Rh4 2.957475 1_545
Nd15 Rh13 3.057263 1_555
Nd15 Rh3 3.165419 1_655
Nd15 Rh7 3.194527 1_556
Nd15 Rh9 3.213973 1_645
Nd15 Rh12 3.338220 1_655
Nd15 Rh0 3.370697 1_656
Nd16 Rh12 2.774866 1_555
Nd16 Rh8 2.895625 1_555
Nd16 Rh13 2.993133 1_455
Nd16 Rh3 3.180482 1_555
Nd16 Rh5 3.180482 1_555
Nd16 Rh9 3.335936 1_555
Nd17 Rh13 2.774866 1_555
Nd17 Rh9 2.895625 1_645
Nd17 Rh12 2.993133 1_555
Nd17 Rh4 3.180482 1_545
Nd17 Rh2 3.180482 1_545
Nd17 Rh8 3.335936 1_545
Nd18 Rh14 2.774866 1_555
Nd18 Rh10 2.895625 1_555
Nd18 Rh15 2.993133 1_655
Nd18 Rh7 3.180482 1_555
Nd18 Rh1 3.180482 1_555
Nd18 Rh11 3.335936 1_555
Nd19 Rh15 2.774866 1_555
Nd19 Rh11 2.895625 1_465
Nd19 Rh14 2.993133 1_555
Nd19 Rh0 3.180482 1_565
Nd19 Rh6 3.180482 1_565
Nd19 Rh10 3.335936 1_565
Rh10 Rh15 2.689720 1_555
Rh11 Rh14 2.689720 1_545
Rh12 Rh9 2.689720 1_545
Rh13 Rh8 2.689720 1_555
