# generated using pymatgen
data_Nd12Co6Pb
_symmetry_space_group_name_H-M   'P 1'
_cell_length_a   8.69743123
_cell_length_b   8.69740573
_cell_length_c   8.69740791
_cell_angle_alpha   109.26743540
_cell_angle_beta   109.49243553
_cell_angle_gamma   109.65405530
_symmetry_Int_Tables_number   1
_chemical_formula_structural   Nd12Co6Pb
_chemical_formula_sum   'Nd12 Co6 Pb1'
_cell_volume   506.45810482
_cell_formula_units_Z   1
loop_
 _symmetry_equiv_pos_site_id
 _symmetry_equiv_pos_as_xyz
  1  'x, y, z'
loop_
 _atom_site_type_symbol
 _atom_site_label
 _atom_site_symmetry_multiplicity
 _atom_site_fract_x
 _atom_site_fract_y
 _atom_site_fract_z
 _atom_site_occupancy
  Nd  Nd0  1  0.80796562  0.69320265  0.50117227  1
  Nd  Nd1  1  0.19202844  0.30679301  0.49882766  1
  Nd  Nd2  1  0.19202906  0.69320652  0.88523951  1
  Nd  Nd3  1  0.80796544  0.30679671  0.11476773  1
  Nd  Nd4  1  0.69257443  0.49937175  0.80679861  1
  Nd  Nd5  1  0.30741933  0.50062549  0.19320686  1
  Nd  Nd6  1  0.69257745  0.88578395  0.19320756  1
  Nd  Nd7  1  0.30742210  0.11421995  0.80680004  1
  Nd  Nd8  1  0.50200162  0.80775812  0.69425096  1
  Nd  Nd9  1  0.49800590  0.19224948  0.30576582  1
  Nd  Nd10  1  0.11350830  0.80775864  0.30575696  1
  Nd  Nd11  1  0.88648292  0.19224864  0.69424415  1
  Co  Co0  1  0.89080885  0.39081048  0.50000508  1
  Co  Co1  1  0.10922874  0.60923223  0.50000693  1
  Co  Co2  1  0.39081715  0.49999616  0.89082437  1
  Co  Co3  1  0.60917412  0.50000222  0.10917498  1
  Co  Co4  1  0.49999675  0.89107446  0.39107598  1
  Co  Co5  1  0.49999638  0.10890320  0.60890501  1
  Pb  Pb0  1  -0.00000261  -0.00003367  -0.00003048  1
loop_
_geom_bond_atom_site_label_1
_geom_bond_atom_site_label_2
_geom_bond_distance
_geom_bond_site_symmetry_2
Nd0 Pb0 3.640954 1_666
Nd1 Pb0 3.641478 1_555
Nd2 Pb0 3.640916 1_566
Nd3 Pb0 3.641517 1_655
Nd4 Pb0 3.643038 1_666
Nd5 Pb0 3.643380 1_555
Nd6 Pb0 3.643375 1_665
Nd7 Pb0 3.643044 1_556
Nd8 Pb0 3.624182 1_666
Nd9 Pb0 3.624275 1_555
Nd10 Pb0 3.624171 1_565
Nd11 Pb0 3.624263 1_656
Co0 Co1 2.188620 1_655
Co0 Nd11 2.786033 1_555
Co0 Nd9 2.786054 1_555
Co0 Nd2 2.949280 1_655
Co0 Nd0 2.949286 1_555
Co0 Nd3 2.949295 1_555
Co0 Nd1 2.949300 1_655
Co1 Nd8 2.785838 1_555
Co1 Nd10 2.785856 1_555
Co1 Nd2 2.949408 1_555
Co1 Nd0 2.949422 1_455
Co1 Nd3 2.949456 1_455
Co1 Nd1 2.949456 1_555
Co2 Co3 2.192304 1_556
Co2 Nd1 2.787036 1_555
Co2 Nd2 2.787053 1_555
Co2 Nd7 2.951077 1_555
Co2 Nd5 2.951104 1_556
Co2 Nd4 2.951128 1_555
Co2 Nd6 2.951152 1_556
Co3 Nd0 2.787040 1_555
Co3 Nd3 2.787042 1_555
Co3 Nd4 2.951062 1_554
Co3 Nd6 2.951092 1_555
Co3 Nd7 2.951095 1_554
Co3 Nd5 2.951134 1_555
Co4 Co5 2.193134 1_565
Co4 Nd5 2.773531 1_555
Co4 Nd6 2.773537 1_555
Co4 Nd9 2.952441 1_565
Co4 Nd11 2.952452 1_565
Co4 Nd10 2.952468 1_555
Co4 Nd8 2.952479 1_555
Co5 Nd4 2.773673 1_555
Co5 Nd7 2.773684 1_555
Co5 Nd9 2.952344 1_555
Co5 Nd11 2.952358 1_555
Co5 Nd10 2.952369 1_545
Co5 Nd8 2.952384 1_545
