# generated using pymatgen
data_SrAlF5
_symmetry_space_group_name_H-M   'P 1'
_cell_length_a   14.54130617
_cell_length_b   16.03041451
_cell_length_c   16.03041451
_cell_angle_alpha   78.12888300
_cell_angle_beta   63.02808962
_cell_angle_gamma   63.02808962
_symmetry_Int_Tables_number   1
_chemical_formula_structural   SrAlF5
_chemical_formula_sum   'Sr32 Al32 F160'
_cell_volume   2968.05218160
_cell_formula_units_Z   32
loop_
 _symmetry_equiv_pos_site_id
 _symmetry_equiv_pos_as_xyz
  1  'x, y, z'
loop_
 _atom_site_type_symbol
 _atom_site_label
 _atom_site_symmetry_multiplicity
 _atom_site_fract_x
 _atom_site_fract_y
 _atom_site_fract_z
 _atom_site_occupancy
  Sr  Sr0  1  0.04819017  0.19413086  0.46783289  1
  Sr  Sr1  1  0.21015392  0.30586914  0.03216711  1
  Sr  Sr2  1  0.01602307  0.53216711  0.69413086  1
  Sr  Sr3  1  0.74232103  0.96783289  0.80586914  1
  Sr  Sr4  1  0.95180983  0.80586914  0.53216711  1
  Sr  Sr5  1  0.78984608  0.69413086  0.96783289  1
  Sr  Sr6  1  0.98397693  0.46783289  0.30586914  1
  Sr  Sr7  1  0.25767897  0.03216711  0.19413086  1
  Sr  Sr8  1  0.53910687  0.19709862  0.46696576  1
  Sr  Sr9  1  0.70317124  0.30290138  0.03303424  1
  Sr  Sr10  1  0.50607263  0.53303424  0.69709862  1
  Sr  Sr11  1  0.23620548  0.96696576  0.80290138  1
  Sr  Sr12  1  0.46089313  0.80290138  0.53303424  1
  Sr  Sr13  1  0.29682876  0.69709862  0.96696576  1
  Sr  Sr14  1  0.49392737  0.46696576  0.30290138  1
  Sr  Sr15  1  0.76379452  0.03303424  0.19709862  1
  Sr  Sr16  1  0.71455065  0.31835411  0.50484900  1
  Sr  Sr17  1  0.03775376  0.18164589  0.99515100  1
  Sr  Sr18  1  0.71939965  0.49515100  0.81835411  1
  Sr  Sr19  1  0.53290476  0.00484900  0.68164589  1
  Sr  Sr20  1  0.28544935  0.68164589  0.49515100  1
  Sr  Sr21  1  0.96224624  0.81835411  0.00484900  1
  Sr  Sr22  1  0.28060035  0.50484900  0.18164589  1
  Sr  Sr23  1  0.46709524  0.99515100  0.31835411  1
  Sr  Sr24  1  0.21515952  0.49995596  0.81885286  1
  Sr  Sr25  1  0.03396834  0.00004404  0.68114714  1
  Sr  Sr26  1  0.53401238  0.18114714  0.99995596  1
  Sr  Sr27  1  0.21511548  0.31885286  0.50004404  1
  Sr  Sr28  1  0.78484048  0.50004404  0.18114714  1
  Sr  Sr29  1  0.96603166  0.99995596  0.31885286  1
  Sr  Sr30  1  0.46598762  0.81885286  0.00004404  1
  Sr  Sr31  1  0.78488452  0.68114714  0.49995596  1
  Al  Al0  1  0.79776991  0.08512827  0.56857557  1
  Al  Al1  1  0.95147375  0.41487173  0.93142443  1
  Al  Al2  1  0.86634548  0.43142443  0.58512827  1
  Al  Al3  1  0.38289818  0.06857557  0.91487173  1
  Al  Al4  1  0.20223009  0.91487173  0.43142443  1
  Al  Al5  1  0.04852625  0.58512827  0.06857557  1
  Al  Al6  1  0.13365452  0.56857557  0.41487173  1
  Al  Al7  1  0.61710182  0.93142443  0.08512827  1
  Al  Al8  1  0.37351105  0.25289276  0.74994401  1
  Al  Al9  1  0.87634782  0.24710724  0.75005599  1
  Al  Al10  1  0.62345506  0.25005599  0.75289276  1
  Al  Al11  1  0.12640381  0.24994401  0.74710724  1
  Al  Al12  1  0.62648895  0.74710724  0.25005599  1
  Al  Al13  1  0.12365218  0.75289276  0.24994401  1
  Al  Al14  1  0.37654494  0.74994401  0.24710724  1
  Al  Al15  1  0.87359619  0.75005599  0.25289276  1
  Al  Al16  1  0.36951442  0.43280356  0.58029070  1
  Al  Al17  1  0.88260868  0.06719644  0.91970930  1
  Al  Al18  1  0.44980512  0.41970930  0.93280356  1
  Al  Al19  1  0.30231798  0.08029070  0.56719644  1
  Al  Al20  1  0.63048558  0.56719644  0.41970930  1
  Al  Al21  1  0.11739132  0.93280356  0.08029070  1
  Al  Al22  1  0.55019488  0.58029070  0.06719644  1
  Al  Al23  1  0.69768202  0.91970930  0.43280356  1
  Al  Al24  1  0.77069503  0.25000000  0.25000000  1
  Al  Al25  1  0.52069503  0.75000000  0.75000000  1
  Al  Al26  1  0.22930497  0.75000000  0.75000000  1
  Al  Al27  1  0.47930497  0.25000000  0.25000000  1
  Al  Al28  1  0.98097965  0.25000000  0.25000000  1
  Al  Al29  1  0.73097965  0.75000000  0.75000000  1
  Al  Al30  1  0.01902035  0.75000000  0.75000000  1
  Al  Al31  1  0.26902035  0.25000000  0.25000000  1
  F  F0  1  0.11139835  0.01561520  0.50670462  1
  F  F1  1  0.13371817  0.48438480  0.99329538  1
  F  F2  1  0.11810297  0.49329538  0.51561520  1
  F  F3  1  0.62701355  0.00670462  0.98438480  1
  F  F4  1  0.88860165  0.98438480  0.49329538  1
  F  F5  1  0.86628183  0.51561520  0.00670462  1
  F  F6  1  0.88189703  0.50670462  0.48438480  1
  F  F7  1  0.37298645  0.99329538  0.01561520  1
  F  F8  1  0.61201526  0.02199332  0.50611433  1
  F  F9  1  0.64012290  0.47800668  0.99388567  1
  F  F10  1  0.61812959  0.49388567  0.52199332  1
  F  F11  1  0.13400857  0.00611433  0.97800668  1
  F  F12  1  0.38798474  0.97800668  0.49388567  1
  F  F13  1  0.35987710  0.52199332  0.00611433  1
  F  F14  1  0.38187041  0.50611433  0.47800668  1
  F  F15  1  0.86599143  0.99388567  0.02199332  1
  F  F16  1  0.73506946  0.36538481  0.20232475  1
  F  F17  1  0.80277902  0.13461519  0.29767525  1
  F  F18  1  0.43739421  0.79767525  0.86538481  1
  F  F19  1  0.60045427  0.70232475  0.63461519  1
  F  F20  1  0.26493054  0.63461519  0.79767525  1
  F  F21  1  0.19722098  0.86538481  0.70232475  1
  F  F22  1  0.56260579  0.20232475  0.13461519  1
  F  F23  1  0.39954573  0.29767525  0.36538481  1
  F  F24  1  0.82157579  0.28135202  0.32698323  1
  F  F25  1  0.92991105  0.21864798  0.17301677  1
  F  F26  1  0.64855903  0.67301677  0.78135202  1
  F  F27  1  0.60292781  0.82698323  0.71864798  1
  F  F28  1  0.17842421  0.71864798  0.67301677  1
  F  F29  1  0.07008895  0.78135202  0.82698323  1
  F  F30  1  0.35144097  0.32698323  0.21864798  1
  F  F31  1  0.39707219  0.17301677  0.28135202  1
  F  F32  1  0.98835248  0.29256872  0.34196557  1
  F  F33  1  0.12288676  0.20743128  0.15803443  1
  F  F34  1  0.83031805  0.65803443  0.79256872  1
  F  F35  1  0.78092120  0.84196557  0.70743128  1
  F  F36  1  0.01164752  0.70743128  0.65803443  1
  F  F37  1  0.87711324  0.79256872  0.84196557  1
  F  F38  1  0.16968195  0.34196557  0.20743128  1
  F  F39  1  0.21907880  0.15803443  0.29256872  1
  F  F40  1  0.62887107  0.29170103  0.34108577  1
  F  F41  1  0.76165786  0.20829897  0.15891423  1
  F  F42  1  0.46995683  0.65891423  0.79170103  1
  F  F43  1  0.42057210  0.84108577  0.70829897  1
  F  F44  1  0.37112893  0.70829897  0.65891423  1
  F  F45  1  0.23834214  0.79170103  0.84108577  1
  F  F46  1  0.53004317  0.34108577  0.20829897  1
  F  F47  1  0.57942790  0.15891423  0.29170103  1
  F  F48  1  0.71515199  0.14894574  0.49822045  1
  F  F49  1  0.86231818  0.35105426  0.00177955  1
  F  F50  1  0.71337244  0.50177955  0.64894574  1
  F  F51  1  0.36409773  0.99822045  0.85105426  1
  F  F52  1  0.28484801  0.85105426  0.50177955  1
  F  F53  1  0.13768182  0.64894574  0.99822045  1
  F  F54  1  0.28662756  0.49822045  0.35105426  1
  F  F55  1  0.63590227  0.00177955  0.14894574  1
  F  F56  1  0.88658060  0.15016061  0.50047059  1
  F  F57  1  0.03721180  0.34983939  0.99952941  1
  F  F58  1  0.88705119  0.49952941  0.65016061  1
  F  F59  1  0.53674122  0.00047059  0.84983939  1
  F  F60  1  0.11341940  0.84983939  0.49952941  1
  F  F61  1  0.96278820  0.65016061  0.00047059  1
  F  F62  1  0.11294881  0.50047059  0.34983939  1
  F  F63  1  0.46325878  0.99952941  0.15016061  1
  F  F64  1  0.96285517  0.18117533  0.64111229  1
  F  F65  1  0.28514278  0.31882467  0.85888771  1
  F  F66  1  0.10396745  0.35888771  0.68117533  1
  F  F67  1  0.64403050  0.14111229  0.81882467  1
  F  F68  1  0.03714483  0.81882467  0.35888771  1
  F  F69  1  0.71485722  0.68117533  0.14111229  1
  F  F70  1  0.89603255  0.64111229  0.31882467  1
  F  F71  1  0.35596950  0.85888771  0.18117533  1
  F  F72  1  0.46315950  0.18605013  0.64145002  1
  F  F73  1  0.79065965  0.31394987  0.85854998  1
  F  F74  1  0.60460953  0.35854998  0.68605013  1
  F  F75  1  0.14920963  0.14145002  0.81394987  1
  F  F76  1  0.53684050  0.81394987  0.35854998  1
  F  F77  1  0.20934035  0.68605013  0.14145002  1
  F  F78  1  0.39539047  0.64145002  0.31394987  1
  F  F79  1  0.85079037  0.85854998  0.18605013  1
  F  F80  1  0.70451284  0.19384770  0.64053976  1
  F  F81  1  0.03890030  0.30615230  0.85946024  1
  F  F82  1  0.84505260  0.35946024  0.69384770  1
  F  F83  1  0.39836054  0.14053976  0.80615230  1
  F  F84  1  0.29548716  0.80615230  0.35946024  1
  F  F85  1  0.96109970  0.69384770  0.14053976  1
  F  F86  1  0.15494740  0.64053976  0.30615230  1
  F  F87  1  0.60163946  0.85946024  0.19384770  1
  F  F88  1  0.52000915  0.35277867  0.53136462  1
  F  F89  1  0.90415245  0.14722133  0.96863538  1
  F  F90  1  0.55137378  0.46863538  0.85277867  1
  F  F91  1  0.37278782  0.03136462  0.64722133  1
  F  F92  1  0.47999085  0.64722133  0.46863538  1
  F  F93  1  0.09584755  0.85277867  0.03136462  1
  F  F94  1  0.44862622  0.53136462  0.14722133  1
  F  F95  1  0.62721218  0.96863538  0.35277867  1
  F  F96  1  0.34731826  0.35041218  0.53630026  1
  F  F97  1  0.73403070  0.14958782  0.96369974  1
  F  F98  1  0.38361852  0.46369974  0.85041218  1
  F  F99  1  0.19773044  0.03630026  0.64958782  1
  F  F100  1  0.65268174  0.64958782  0.46369974  1
  F  F101  1  0.26596930  0.85041218  0.03630026  1
  F  F102  1  0.61638148  0.53630026  0.14958782  1
  F  F103  1  0.80226956  0.96369974  0.35041218  1
  F  F104  1  0.84438815  0.35353787  0.53375560  1
  F  F105  1  0.23168162  0.14646213  0.96624440  1
  F  F106  1  0.87814375  0.46624440  0.85353787  1
  F  F107  1  0.69792602  0.03375560  0.64646213  1
  F  F108  1  0.15561185  0.64646213  0.46624440  1
  F  F109  1  0.76831838  0.85353787  0.03375560  1
  F  F110  1  0.12185625  0.53375560  0.14646213  1
  F  F111  1  0.30207398  0.96624440  0.35353787  1
  F  F112  1  0.24920205  0.25424903  0.74793804  1
  F  F113  1  0.75138912  0.24575097  0.75206196  1
  F  F114  1  0.49714009  0.25206196  0.75424903  1
  F  F115  1  0.00345108  0.24793804  0.74575097  1
  F  F116  1  0.75079795  0.74575097  0.25206196  1
  F  F117  1  0.24861088  0.75424903  0.24793804  1
  F  F118  1  0.50285991  0.74793804  0.24575097  1
  F  F119  1  0.99654892  0.75206196  0.25424903  1
  F  F120  1  0.34968578  0.36501421  0.69267762  1
  F  F121  1  0.90737762  0.13498579  0.80732238  1
  F  F122  1  0.54236340  0.30732238  0.86501421  1
  F  F123  1  0.21469999  0.19267762  0.63498579  1
  F  F124  1  0.65031422  0.63498579  0.30732238  1
  F  F125  1  0.09262238  0.86501421  0.19267762  1
  F  F126  1  0.45763660  0.69267762  0.13498579  1
  F  F127  1  0.78530001  0.80732238  0.36501421  1
  F  F128  1  0.21666526  0.50389250  0.64116966  1
  F  F129  1  0.86172742  0.99610750  0.85883034  1
  F  F130  1  0.35783492  0.35883034  0.00389250  1
  F  F131  1  0.22055775  0.14116966  0.49610750  1
  F  F132  1  0.78333474  0.49610750  0.35883034  1
  F  F133  1  0.13827258  0.00389250  0.14116966  1
  F  F134  1  0.64216508  0.64116966  0.99610750  1
  F  F135  1  0.77944225  0.85883034  0.50389250  1
  F  F136  1  0.38896703  0.50599071  0.63915923  1
  F  F137  1  0.03411698  0.99400929  0.86084077  1
  F  F138  1  0.52812626  0.36084077  0.00599071  1
  F  F139  1  0.39495774  0.13915923  0.49400929  1
  F  F140  1  0.61103297  0.49400929  0.36084077  1
  F  F141  1  0.96588302  0.00599071  0.13915923  1
  F  F142  1  0.47187374  0.63915923  0.99400929  1
  F  F143  1  0.60504226  0.86084077  0.50599071  1
  F  F144  1  0.13488721  0.96239452  0.34973473  1
  F  F145  1  0.94701646  0.53760548  0.15026527  1
  F  F146  1  0.98462194  0.65026527  0.46239452  1
  F  F147  1  0.59728173  0.84973473  0.03760548  1
  F  F148  1  0.86511279  0.03760548  0.65026527  1
  F  F149  1  0.05298354  0.46239452  0.84973473  1
  F  F150  1  0.01537806  0.34973473  0.53760548  1
  F  F151  1  0.40271827  0.15026527  0.96239452  1
  F  F152  1  0.05076705  0.63492354  0.79828072  1
  F  F153  1  0.98397131  0.86507646  0.70171928  1
  F  F154  1  0.34904776  0.20171928  0.13492354  1
  F  F155  1  0.18569059  0.29828072  0.36507646  1
  F  F156  1  0.94923295  0.36507646  0.20171928  1
  F  F157  1  0.01602869  0.13492354  0.29828072  1
  F  F158  1  0.65095224  0.79828072  0.86507646  1
  F  F159  1  0.81430941  0.70171928  0.63492354  1
loop_
_geom_bond_atom_site_label_1
_geom_bond_atom_site_label_2
_geom_bond_distance
_geom_bond_site_symmetry_2
Al0 F4 1.797216 1_545
Al0 F148 1.824889 1_555
Al0 F107 1.833627 1_555
Al0 F48 1.844279 1_555
Al0 F56 1.849468 1_555
Al0 F80 1.863181 1_555
Al1 F5 1.797216 1_556
Al1 F149 1.824889 1_655
Al1 F106 1.833627 1_555
Al1 F49 1.844279 1_556
Al1 F57 1.849468 1_655
Al1 F81 1.863181 1_655
Al2 F6 1.797216 1_555
Al2 F150 1.824889 1_655
Al2 F104 1.833627 1_555
Al2 F50 1.844279 1_555
Al2 F58 1.849468 1_555
Al2 F82 1.863181 1_555
Al3 F7 1.797216 1_546
Al3 F151 1.824889 1_555
Al3 F105 1.833627 1_555
Al3 F51 1.844279 1_545
Al3 F59 1.849468 1_555
Al3 F83 1.863181 1_555
Al4 F0 1.797216 1_565
Al4 F144 1.824889 1_555
Al4 F111 1.833627 1_555
Al4 F52 1.844279 1_555
Al4 F60 1.849468 1_555
Al4 F84 1.863181 1_555
Al5 F1 1.797216 1_554
Al5 F145 1.824889 1_455
Al5 F110 1.833627 1_555
Al5 F53 1.844279 1_554
Al5 F61 1.849468 1_455
Al5 F85 1.863181 1_455
Al6 F2 1.797216 1_555
Al6 F146 1.824889 1_455
Al6 F108 1.833627 1_555
Al6 F54 1.844279 1_555
Al6 F62 1.849468 1_555
Al6 F86 1.863181 1_555
Al7 F3 1.797216 1_564
Al7 F147 1.824889 1_555
Al7 F109 1.833627 1_555
Al7 F55 1.844279 1_565
Al7 F63 1.849468 1_555
Al7 F87 1.863181 1_555
Al8 F83 1.795440 1_555
Al8 F120 1.799458 1_555
Al8 F112 1.812669 1_555
Al8 F65 1.819343 1_555
Al8 F72 1.820818 1_555
Al8 F114 1.824063 1_555
Al9 F82 1.795440 1_555
Al9 F121 1.799458 1_555
Al9 F113 1.812669 1_555
Al9 F64 1.819343 1_555
Al9 F73 1.820818 1_555
Al9 F115 1.824063 1_655
Al10 F80 1.795440 1_555
Al10 F122 1.799458 1_555
Al10 F114 1.812669 1_555
Al10 F67 1.819343 1_555
Al10 F74 1.820818 1_555
Al10 F113 1.824063 1_555
Al11 F81 1.795440 1_555
Al11 F123 1.799458 1_555
Al11 F115 1.812669 1_555
Al11 F66 1.819343 1_555
Al11 F75 1.820818 1_555
Al11 F112 1.824063 1_555
Al12 F87 1.795440 1_555
Al12 F124 1.799458 1_555
Al12 F116 1.812669 1_555
Al12 F69 1.819343 1_555
Al12 F76 1.820818 1_555
Al12 F118 1.824063 1_555
Al13 F86 1.795440 1_555
Al13 F125 1.799458 1_555
Al13 F117 1.812669 1_555
Al13 F68 1.819343 1_555
Al13 F77 1.820818 1_555
Al13 F119 1.824063 1_455
Al14 F84 1.795440 1_555
Al14 F126 1.799458 1_555
Al14 F118 1.812669 1_555
Al14 F71 1.819343 1_555
Al14 F78 1.820818 1_555
Al14 F117 1.824063 1_555
Al15 F85 1.795440 1_555
Al15 F127 1.799458 1_555
Al15 F119 1.812669 1_555
Al15 F70 1.819343 1_555
Al15 F79 1.820818 1_555
Al15 F116 1.824063 1_555
Al16 F14 1.798159 1_555
Al16 F96 1.822701 1_555
Al16 F136 1.829122 1_555
Al16 F88 1.833113 1_555
Al16 F128 1.839430 1_555
Al16 F120 1.875464 1_555
Al17 F15 1.798159 1_546
Al17 F97 1.822701 1_555
Al17 F137 1.829123 1_645
Al17 F89 1.833113 1_555
Al17 F129 1.839430 1_545
Al17 F121 1.875464 1_555
Al18 F13 1.798159 1_556
Al18 F98 1.822701 1_555
Al18 F138 1.829122 1_556
Al18 F90 1.833113 1_555
Al18 F130 1.839430 1_556
Al18 F122 1.875464 1_555
Al19 F12 1.798159 1_545
Al19 F99 1.822701 1_555
Al19 F139 1.829122 1_555
Al19 F91 1.833113 1_555
Al19 F131 1.839430 1_555
Al19 F123 1.875464 1_555
Al20 F10 1.798159 1_555
Al20 F100 1.822701 1_555
Al20 F140 1.829122 1_555
Al20 F92 1.833113 1_555
Al20 F132 1.839430 1_555
Al20 F124 1.875464 1_555
Al21 F11 1.798159 1_564
Al21 F101 1.822701 1_555
Al21 F141 1.829123 1_465
Al21 F93 1.833113 1_555
Al21 F133 1.839430 1_565
Al21 F125 1.875464 1_555
Al22 F9 1.798159 1_554
Al22 F102 1.822701 1_555
Al22 F142 1.829122 1_554
Al22 F94 1.833113 1_555
Al22 F134 1.839430 1_554
Al22 F126 1.875464 1_555
Al23 F8 1.798159 1_565
Al23 F103 1.822701 1_555
Al23 F143 1.829122 1_555
Al23 F95 1.833113 1_555
Al23 F135 1.839430 1_555
Al23 F127 1.875464 1_555
Al24 F17 1.783835 1_555
Al24 F16 1.783835 1_555
Al24 F40 1.803187 1_555
Al24 F41 1.803187 1_555
Al24 F24 1.934855 1_555
Al24 F25 1.934855 1_555
Al25 F19 1.783835 1_555
Al25 F18 1.783835 1_555
Al25 F43 1.803187 1_555
Al25 F42 1.803187 1_555
Al25 F27 1.934855 1_555
Al25 F26 1.934855 1_555
Al26 F21 1.783835 1_555
Al26 F20 1.783835 1_555
Al26 F44 1.803187 1_555
Al26 F45 1.803187 1_555
Al26 F28 1.934855 1_555
Al26 F29 1.934855 1_555
Al27 F23 1.783835 1_555
Al27 F22 1.783835 1_555
Al27 F47 1.803187 1_555
Al27 F46 1.803187 1_555
Al27 F31 1.934855 1_555
Al27 F30 1.934855 1_555
Al28 F156 1.783069 1_555
Al28 F157 1.783069 1_655
Al28 F33 1.809473 1_655
Al28 F32 1.809473 1_555
Al28 F25 1.937012 1_555
Al28 F24 1.937012 1_555
Al29 F158 1.783069 1_555
Al29 F159 1.783069 1_555
Al29 F35 1.809473 1_555
Al29 F34 1.809473 1_555
Al29 F26 1.937012 1_555
Al29 F27 1.937012 1_555
Al30 F152 1.783069 1_555
Al30 F153 1.783069 1_455
Al30 F37 1.809473 1_455
Al30 F36 1.809473 1_555
Al30 F29 1.937012 1_555
Al30 F28 1.937012 1_555
Al31 F154 1.783069 1_555
Al31 F155 1.783069 1_555
Al31 F39 1.809473 1_555
Al31 F38 1.809473 1_555
Al31 F30 1.937012 1_555
Al31 F31 1.937012 1_555
F0 Sr25 2.502299 1_555
F0 Sr0 2.611947 1_555
F1 Sr24 2.502299 1_555
F1 Sr1 2.611947 1_556
F2 Sr27 2.502299 1_555
F2 Sr2 2.611947 1_555
F3 Sr26 2.502299 1_555
F3 Sr3 2.611947 1_545
F4 Sr29 2.502299 1_555
F4 Sr4 2.611947 1_555
F5 Sr28 2.502299 1_555
F5 Sr5 2.611947 1_554
F6 Sr31 2.502299 1_555
F6 Sr6 2.611947 1_555
F7 Sr30 2.502299 1_555
F7 Sr7 2.611947 1_565
F8 Sr19 2.519713 1_555
F8 Sr8 2.564452 1_555
F9 Sr18 2.519713 1_555
F9 Sr9 2.564452 1_556
F10 Sr16 2.519713 1_555
F10 Sr10 2.564452 1_555
F11 Sr17 2.519713 1_555
F11 Sr11 2.564452 1_545
F12 Sr23 2.519713 1_555
F12 Sr12 2.564452 1_555
F13 Sr22 2.519713 1_555
F13 Sr13 2.564452 1_554
F14 Sr20 2.519713 1_555
F14 Sr14 2.564452 1_555
F15 Sr21 2.519713 1_555
F15 Sr15 2.564452 1_565
F16 Sr28 2.488287 1_555
F16 Sr14 2.884277 1_555
F17 Sr29 2.488287 1_545
F17 Sr15 2.884277 1_555
F18 Sr30 2.488287 1_556
F18 Sr13 2.884277 1_555
F19 Sr31 2.488287 1_555
F19 Sr12 2.884277 1_555
F20 Sr24 2.488287 1_555
F20 Sr10 2.884277 1_555
F21 Sr25 2.488287 1_565
F21 Sr11 2.884277 1_555
F22 Sr26 2.488287 1_554
F22 Sr9 2.884277 1_555
F23 Sr27 2.488287 1_555
F23 Sr8 2.884277 1_555
F24 Sr16 2.595539 1_555
F25 Sr17 2.595539 1_654
F26 Sr18 2.595539 1_555
F27 Sr19 2.595539 1_565
F28 Sr20 2.595539 1_555
F29 Sr21 2.595539 1_456
F30 Sr22 2.595539 1_555
F31 Sr23 2.595539 1_545
F32 Sr0 2.520999 1_655
F32 Sr6 2.726695 1_555
F33 Sr1 2.520999 1_555
F33 Sr7 2.726696 1_555
F34 Sr2 2.520999 1_655
F34 Sr5 2.726695 1_555
F35 Sr3 2.520999 1_555
F35 Sr4 2.726696 1_555
F36 Sr4 2.520999 1_455
F36 Sr2 2.726695 1_555
F37 Sr5 2.520999 1_555
F37 Sr3 2.726696 1_555
F38 Sr6 2.520999 1_455
F38 Sr1 2.726695 1_555
F39 Sr7 2.520999 1_555
F39 Sr0 2.726696 1_555
F40 Sr8 2.494566 1_555
F40 Sr14 2.738581 1_555
F41 Sr9 2.494566 1_555
F41 Sr15 2.738581 1_555
F42 Sr10 2.494565 1_555
F42 Sr13 2.738581 1_555
F43 Sr11 2.494566 1_555
F43 Sr12 2.738581 1_555
F44 Sr12 2.494566 1_555
F44 Sr10 2.738581 1_555
F45 Sr13 2.494566 1_555
F45 Sr11 2.738581 1_555
F46 Sr14 2.494565 1_555
F46 Sr9 2.738581 1_555
F47 Sr15 2.494566 1_555
F47 Sr8 2.738581 1_555
F48 Sr8 2.571371 1_555
F48 Sr16 2.735445 1_555
F49 Sr9 2.571371 1_555
F49 Sr17 2.735445 1_654
F50 Sr10 2.571371 1_555
F50 Sr18 2.735445 1_555
F51 Sr11 2.571371 1_555
F51 Sr19 2.735445 1_565
F52 Sr12 2.571371 1_555
F52 Sr20 2.735445 1_555
F53 Sr13 2.571371 1_555
F53 Sr21 2.735445 1_456
F54 Sr14 2.571371 1_555
F54 Sr22 2.735445 1_555
F55 Sr15 2.571371 1_555
F55 Sr23 2.735445 1_545
F56 Sr0 2.555125 1_655
F56 Sr16 2.707882 1_555
F57 Sr1 2.555125 1_556
F57 Sr17 2.707882 1_555
F58 Sr2 2.555125 1_655
F58 Sr18 2.707882 1_555
F59 Sr3 2.555125 1_545
F59 Sr19 2.707882 1_555
F60 Sr4 2.555125 1_455
F60 Sr20 2.707882 1_555
F61 Sr5 2.555125 1_554
F61 Sr21 2.707882 1_555
F62 Sr6 2.555125 1_455
F62 Sr22 2.707882 1_555
F63 Sr7 2.555125 1_565
F63 Sr23 2.707882 1_555
F64 Sr0 2.483652 1_655
F64 Sr25 2.650250 1_655
F65 Sr1 2.483652 1_556
F65 Sr24 2.650250 1_555
F66 Sr2 2.483652 1_555
F66 Sr27 2.650250 1_555
F67 Sr3 2.483652 1_545
F67 Sr26 2.650250 1_555
F68 Sr4 2.483652 1_455
F68 Sr29 2.650250 1_455
F69 Sr5 2.483652 1_554
F69 Sr28 2.650250 1_555
F70 Sr6 2.483652 1_555
F70 Sr31 2.650250 1_555
F71 Sr7 2.483652 1_565
F71 Sr30 2.650250 1_555
F72 Sr8 2.499218 1_555
F72 Sr19 2.651732 1_555
F73 Sr9 2.499218 1_556
F73 Sr18 2.651732 1_555
F74 Sr10 2.499218 1_555
F74 Sr16 2.651732 1_555
F75 Sr11 2.499218 1_545
F75 Sr17 2.651732 1_555
F76 Sr12 2.499218 1_555
F76 Sr23 2.651732 1_555
F77 Sr13 2.499218 1_554
F77 Sr22 2.651732 1_555
F78 Sr14 2.499218 1_555
F78 Sr20 2.651732 1_555
F79 Sr15 2.499218 1_565
F79 Sr21 2.651732 1_555
F80 Sr16 2.631804 1_555
F81 Sr17 2.631804 1_555
F82 Sr18 2.631804 1_555
F83 Sr19 2.631804 1_555
F84 Sr20 2.631804 1_555
F85 Sr21 2.631804 1_555
F86 Sr22 2.631804 1_555
F87 Sr23 2.631804 1_555
F88 Sr16 2.465257 1_555
F88 Sr8 2.746303 1_555
F89 Sr17 2.465257 1_655
F89 Sr9 2.746303 1_556
F90 Sr18 2.465257 1_555
F90 Sr10 2.746303 1_555
F91 Sr19 2.465257 1_555
F91 Sr11 2.746303 1_545
F92 Sr20 2.465257 1_555
F92 Sr12 2.746303 1_555
F93 Sr21 2.465257 1_455
F93 Sr13 2.746303 1_554
F94 Sr22 2.465257 1_555
F94 Sr14 2.746303 1_555
F95 Sr23 2.465257 1_555
F95 Sr15 2.746303 1_565
F96 Sr27 2.511189 1_555
F96 Sr8 2.673559 1_555
F97 Sr26 2.511189 1_555
F97 Sr9 2.673559 1_556
F98 Sr24 2.511189 1_555
F98 Sr10 2.673559 1_555
F99 Sr25 2.511189 1_555
F99 Sr11 2.673559 1_545
F100 Sr31 2.511189 1_555
F100 Sr12 2.673559 1_555
F101 Sr30 2.511189 1_555
F101 Sr13 2.673559 1_554
F102 Sr28 2.511189 1_555
F102 Sr14 2.673559 1_555
F103 Sr29 2.511189 1_555
F103 Sr15 2.673559 1_565
F104 Sr16 2.442227 1_555
F104 Sr0 2.798201 1_655
F105 Sr17 2.442227 1_555
F105 Sr1 2.798201 1_556
F106 Sr18 2.442227 1_555
F106 Sr2 2.798201 1_655
F107 Sr19 2.442227 1_555
F107 Sr3 2.798201 1_545
F108 Sr20 2.442227 1_555
F108 Sr4 2.798201 1_455
F109 Sr21 2.442227 1_555
F109 Sr5 2.798201 1_554
F110 Sr22 2.442227 1_555
F110 Sr6 2.798201 1_455
F111 Sr23 2.442227 1_555
F111 Sr7 2.798201 1_565
F120 Sr24 2.639992 1_555
F121 Sr25 2.639992 1_655
F122 Sr26 2.639992 1_555
F123 Sr27 2.639992 1_555
F124 Sr28 2.639992 1_555
F125 Sr29 2.639992 1_455
F126 Sr30 2.639992 1_555
F127 Sr31 2.639992 1_555
F128 Sr2 2.480008 1_555
F128 Sr24 2.826342 1_555
F129 Sr3 2.480008 1_555
F129 Sr25 2.826342 1_665
F130 Sr1 2.480008 1_555
F130 Sr26 2.826342 1_554
F131 Sr0 2.480008 1_555
F131 Sr27 2.826342 1_555
F132 Sr6 2.480008 1_555
F132 Sr28 2.826342 1_555
F133 Sr7 2.480008 1_555
F133 Sr29 2.826342 1_445
F134 Sr5 2.480008 1_555
F134 Sr30 2.826342 1_556
F135 Sr4 2.480008 1_555
F135 Sr31 2.826342 1_555
F136 Sr10 2.494064 1_555
F136 Sr24 2.863183 1_555
F137 Sr11 2.494064 1_555
F137 Sr25 2.863183 1_565
F138 Sr9 2.494064 1_555
F138 Sr26 2.863183 1_554
F139 Sr8 2.494064 1_555
F139 Sr27 2.863183 1_555
F140 Sr14 2.494064 1_555
F140 Sr28 2.863183 1_555
F141 Sr15 2.494064 1_555
F141 Sr29 2.863183 1_545
F142 Sr13 2.494064 1_555
F142 Sr30 2.863183 1_556
F143 Sr12 2.494064 1_555
F143 Sr31 2.863183 1_555
F144 Sr29 2.505074 1_455
F144 Sr7 2.699041 1_565
F145 Sr28 2.505074 1_555
F145 Sr6 2.699040 1_555
F146 Sr31 2.505074 1_555
F146 Sr4 2.699040 1_555
F147 Sr30 2.505073 1_555
F147 Sr5 2.699041 1_554
F148 Sr25 2.505074 1_655
F148 Sr3 2.699041 1_545
F149 Sr24 2.505074 1_555
F149 Sr2 2.699040 1_555
F150 Sr27 2.505074 1_555
F150 Sr0 2.699040 1_555
F151 Sr26 2.505073 1_555
F151 Sr1 2.699041 1_556
F152 Sr24 2.496846 1_555
F152 Sr2 2.899585 1_555
F153 Sr25 2.496846 1_665
F153 Sr3 2.899585 1_555
F154 Sr26 2.496846 1_554
F154 Sr1 2.899585 1_555
F155 Sr27 2.496846 1_555
F155 Sr0 2.899585 1_555
F156 Sr28 2.496846 1_555
F156 Sr6 2.899585 1_555
F157 Sr29 2.496846 1_445
F157 Sr7 2.899585 1_555
F158 Sr30 2.496846 1_556
F158 Sr5 2.899585 1_555
F159 Sr31 2.496846 1_555
F159 Sr4 2.899585 1_555
