# generated using pymatgen
data_Ba10Re6CO30
_symmetry_space_group_name_H-M   'P 1'
_cell_length_a   11.10802179
_cell_length_b   11.10802179
_cell_length_c   7.92338300
_cell_angle_alpha   90.00000000
_cell_angle_beta   90.00000000
_cell_angle_gamma   119.99999877
_symmetry_Int_Tables_number   1
_chemical_formula_structural   Ba10Re6CO30
_chemical_formula_sum   'Ba10 Re6 C1 O30'
_cell_volume   846.67109372
_cell_formula_units_Z   1
loop_
 _symmetry_equiv_pos_site_id
 _symmetry_equiv_pos_as_xyz
  1  'x, y, z'
loop_
 _atom_site_type_symbol
 _atom_site_label
 _atom_site_symmetry_multiplicity
 _atom_site_fract_x
 _atom_site_fract_y
 _atom_site_fract_z
 _atom_site_occupancy
  Ba  Ba0  1  0.00000000  0.26898000  0.24880500  1
  Ba  Ba1  1  0.73102000  0.73102000  0.24880500  1
  Ba  Ba2  1  0.26898000  0.00000000  0.24880500  1
  Ba  Ba3  1  0.00000000  0.73141000  0.73231100  1
  Ba  Ba4  1  0.26859000  0.26859000  0.73231100  1
  Ba  Ba5  1  0.73141000  0.00000000  0.73231100  1
  Ba  Ba6  1  0.33333300  0.66666700  0.49809800  1
  Ba  Ba7  1  0.66666700  0.33333300  0.49809800  1
  Ba  Ba8  1  0.66666700  0.33333300  0.99821200  1
  Ba  Ba9  1  0.33333300  0.66666700  0.99821200  1
  Re  Re0  1  0.00000000  0.38841200  0.79304500  1
  Re  Re1  1  0.61158800  0.61158800  0.79304500  1
  Re  Re2  1  0.38841200  0.00000000  0.79304500  1
  Re  Re3  1  0.00000000  0.61183000  0.29115200  1
  Re  Re4  1  0.38817000  0.38817000  0.29115200  1
  Re  Re5  1  0.61183000  0.00000000  0.29115200  1
  C  C0  1  0.00000000  0.00000000  0.49035300  1
  O  O0  1  0.13086100  0.57530500  0.75404700  1
  O  O1  1  0.42469500  0.55555700  0.75404700  1
  O  O2  1  0.44444300  0.86913900  0.75404700  1
  O  O3  1  0.86913900  0.44444300  0.75404700  1
  O  O4  1  0.57530500  0.13086100  0.75404700  1
  O  O5  1  0.55555700  0.42469500  0.75404700  1
  O  O6  1  0.86941800  0.42466200  0.25286000  1
  O  O7  1  0.57533800  0.44475700  0.25286000  1
  O  O8  1  0.55524300  0.13058200  0.25286000  1
  O  O9  1  0.13058200  0.55524300  0.25286000  1
  O  O10  1  0.42466200  0.86941800  0.25286000  1
  O  O11  1  0.44475700  0.57533800  0.25286000  1
  O  O12  1  0.13160100  0.38528200  0.93467200  1
  O  O13  1  0.61471800  0.74631900  0.93467200  1
  O  O14  1  0.25368100  0.86839900  0.93467200  1
  O  O15  1  0.86839900  0.25368100  0.93467200  1
  O  O16  1  0.38528200  0.13160100  0.93467200  1
  O  O17  1  0.74631900  0.61471800  0.93467200  1
  O  O18  1  0.86792800  0.61216300  0.43497900  1
  O  O19  1  0.38783700  0.25576500  0.43497900  1
  O  O20  1  0.74423500  0.13207200  0.43497900  1
  O  O21  1  0.13207200  0.74423500  0.43497900  1
  O  O22  1  0.61216300  0.86792800  0.43497900  1
  O  O23  1  0.25576500  0.38783700  0.43497900  1
  O  O24  1  0.00000000  0.29332900  0.61482500  1
  O  O25  1  0.70667100  0.70667100  0.61482500  1
  O  O26  1  0.29332900  0.00000000  0.61482500  1
  O  O27  1  0.00000000  0.70998000  0.11570400  1
  O  O28  1  0.29002000  0.29002000  0.11570400  1
  O  O29  1  0.70998000  0.00000000  0.11570400  1
loop_
_geom_bond_atom_site_label_1
_geom_bond_atom_site_label_2
_geom_bond_distance
_geom_bond_site_symmetry_2
Ba0 O9 2.757514 1_555
Ba0 O6 2.757524 1_455
Ba0 O15 2.848244 1_454
Ba0 O12 2.848244 1_554
Ba0 O23 2.870487 1_555
Ba0 O20 2.870487 1_455
Ba0 O24 2.912702 1_555
Ba0 O28 3.285161 1_555
Ba0 O29 3.285161 1_455
Ba0 C0 3.548251 1_555
Ba1 O11 2.757515 1_555
Ba1 O7 2.757515 1_555
Ba1 O13 2.848244 1_554
Ba1 O17 2.848244 1_554
Ba1 O18 2.870487 1_555
Ba1 O22 2.870487 1_555
Ba1 O25 2.912702 1_555
Ba1 O29 3.285161 1_565
Ba1 O27 3.285161 1_655
Ba1 C0 3.548252 1_665
Ba2 O8 2.757514 1_555
Ba2 O10 2.757524 1_545
Ba2 O14 2.848244 1_544
Ba2 O16 2.848244 1_554
Ba2 O19 2.870487 1_555
Ba2 O21 2.870487 1_545
Ba2 O26 2.912702 1_555
Ba2 O28 3.285161 1_555
Ba2 O27 3.285161 1_545
Ba2 C0 3.548251 1_555
Ba3 O21 2.741114 1_555
Ba3 O18 2.741114 1_455
Ba3 O0 2.769482 1_555
Ba3 O3 2.769492 1_455
Ba3 O17 2.922147 1_455
Ba3 O14 2.922147 1_555
Ba3 O27 3.047082 1_556
Ba3 O25 3.265460 1_455
Ba3 O26 3.265460 1_565
Ba3 C0 3.546359 1_565
Ba4 O19 2.741114 1_555
Ba4 O23 2.741114 1_555
Ba4 O1 2.769491 1_555
Ba4 O5 2.769491 1_555
Ba4 O12 2.922147 1_555
Ba4 O16 2.922147 1_555
Ba4 O28 3.047082 1_556
Ba4 O24 3.265460 1_555
Ba4 O26 3.265460 1_555
Ba4 C0 3.546359 1_555
Ba5 O20 2.741114 1_555
Ba5 O22 2.741114 1_545
Ba5 O4 2.769482 1_555
Ba5 O2 2.769492 1_545
Ba5 O13 2.922147 1_545
Ba5 O15 2.922147 1_555
Ba5 O29 3.047082 1_556
Ba5 O25 3.265460 1_545
Ba5 O24 3.265460 1_655
Ba5 C0 3.546359 1_655
Ba6 O10 2.755417 1_555
Ba6 O9 2.755418 1_555
Ba6 O11 2.755431 1_555
Ba6 O21 2.813670 1_555
Ba6 O22 2.813678 1_555
Ba6 O23 2.813681 1_555
Ba6 O1 2.813975 1_555
Ba6 O0 2.813975 1_555
Ba6 O2 2.813975 1_555
Ba7 O6 2.755417 1_555
Ba7 O8 2.755418 1_555
Ba7 O7 2.755431 1_555
Ba7 O20 2.813670 1_555
Ba7 O18 2.813678 1_555
Ba7 O19 2.813681 1_555
Ba7 O5 2.813975 1_555
Ba7 O4 2.813975 1_555
Ba7 O3 2.813975 1_555
Ba8 O5 2.747448 1_555
Ba8 O4 2.747448 1_555
Ba8 O3 2.747448 1_555
Ba8 O6 2.808494 1_556
Ba8 O8 2.808495 1_556
Ba8 O7 2.808508 1_556
Ba8 O15 2.835545 1_555
Ba8 O16 2.835553 1_555
Ba8 O17 2.835556 1_555
Ba9 O1 2.747448 1_555
Ba9 O0 2.747448 1_555
Ba9 O2 2.747448 1_555
Ba9 O10 2.808494 1_556
Ba9 O9 2.808495 1_556
Ba9 O11 2.808508 1_556
Ba9 O14 2.835545 1_555
Ba9 O12 2.835553 1_555
Ba9 O13 2.835556 1_555
O0 Re0 1.870981 1_555
O1 Re1 1.870984 1_555
O2 Re2 1.870973 1_565
O3 Re0 1.870973 1_655
O4 Re2 1.870981 1_555
O5 Re1 1.870984 1_555
O6 Re3 1.871588 1_655
O7 Re4 1.871585 1_555
O8 Re5 1.871596 1_555
O9 Re3 1.871596 1_555
O10 Re5 1.871588 1_565
O11 Re4 1.871585 1_555
O12 Re0 1.856940 1_555
O13 Re1 1.856940 1_555
O14 Re2 1.856940 1_565
O15 Re0 1.856940 1_655
O16 Re2 1.856940 1_555
O17 Re1 1.856940 1_555
O18 Re3 1.859135 1_655
O19 Re4 1.859135 1_555
O20 Re5 1.859135 1_555
O21 Re3 1.859135 1_555
O22 Re5 1.859135 1_565
O23 Re4 1.859135 1_555
O24 Re0 1.763396 1_555
O25 Re1 1.763396 1_555
O26 Re2 1.763396 1_555
O27 Re3 1.766676 1_555
O28 Re4 1.766676 1_555
O29 Re5 1.766676 1_555
