# generated using pymatgen
data_Ca(NiO2)2
_symmetry_space_group_name_H-M   'P 1'
_cell_length_a   6.20034060
_cell_length_b   6.16973253
_cell_length_c   18.08471067
_cell_angle_alpha   59.21638355
_cell_angle_beta   61.62300812
_cell_angle_gamma   60.15393894
_symmetry_Int_Tables_number   1
_chemical_formula_structural   Ca(NiO2)2
_chemical_formula_sum   'Ca6 Ni12 O24'
_cell_volume   492.41578742
_cell_formula_units_Z   6
loop_
 _symmetry_equiv_pos_site_id
 _symmetry_equiv_pos_as_xyz
  1  'x, y, z'
loop_
 _atom_site_type_symbol
 _atom_site_label
 _atom_site_symmetry_multiplicity
 _atom_site_fract_x
 _atom_site_fract_y
 _atom_site_fract_z
 _atom_site_occupancy
  Ca  Ca0  1  0.14719100  0.11592400  0.04035100  1
  Ca  Ca1  1  0.49511200  0.50900400  0.32897200  1
  Ca  Ca2  1  0.00389300  0.49767500  0.16689600  1
  Ca  Ca3  1  0.50344000  0.49120600  0.67134700  1
  Ca  Ca4  1  0.99966400  0.49749600  0.50179200  1
  Ca  Ca5  1  0.98984700  0.50398900  0.83410600  1
  Ni  Ni0  1  0.50430900  0.01075100  0.16298100  1
  Ni  Ni1  1  0.13347900  0.11044300  0.38188100  1
  Ni  Ni2  1  0.49700000  0.49786100  0.00243400  1
  Ni  Ni3  1  0.50424100  0.49598900  0.16300900  1
  Ni  Ni4  1  0.50065400  0.99737900  0.50002100  1
  Ni  Ni5  1  0.15015000  0.10942200  0.71038200  1
  Ni  Ni6  1  0.50065100  0.50185100  0.50002000  1
  Ni  Ni7  1  0.49875800  0.98915200  0.83501600  1
  Ni  Ni8  1  0.85598200  0.88958800  0.28825300  1
  Ni  Ni9  1  0.49893000  0.50693500  0.83498300  1
  Ni  Ni10  1  0.86355500  0.88687200  0.62086800  1
  Ni  Ni11  1  0.84134600  0.89280300  0.95763600  1
  O  O0  1  0.31535400  0.25870500  0.08056800  1
  O  O1  1  0.27889000  0.22920100  0.25429900  1
  O  O2  1  0.31526400  0.68424100  0.08059400  1
  O  O3  1  0.69743100  0.27049300  0.08718200  1
  O  O4  1  0.27175900  0.22091400  0.42381300  1
  O  O5  1  0.25440200  0.78299200  0.22653300  1
  O  O6  1  0.29456600  0.23031700  0.58172300  1
  O  O7  1  0.72929600  0.27264700  0.23584100  1
  O  O8  1  0.27165100  0.73594900  0.42382700  1
  O  O9  1  0.70455500  0.76410900  0.08897200  1
  O  O10  1  0.75287200  0.23579400  0.42506300  1
  O  O11  1  0.72928100  0.79053500  0.23583200  1
  O  O12  1  0.26810500  0.21284900  0.76133900  1
  O  O13  1  0.25566700  0.76362800  0.57243500  1
  O  O14  1  0.72222100  0.26910500  0.57631400  1
  O  O15  1  0.26815900  0.73511300  0.76133000  1
  O  O16  1  0.32819100  0.24657600  0.89289800  1
  O  O17  1  0.70689300  0.76698100  0.41958200  1
  O  O18  1  0.79052100  0.22028300  0.75641400  1
  O  O19  1  0.72202200  0.77971600  0.57634500  1
  O  O20  1  0.26450800  0.72385000  0.92929900  1
  O  O21  1  0.69189200  0.29169700  0.92425300  1
  O  O22  1  0.68654000  0.76624200  0.76033300  1
  O  O23  1  0.69175800  0.74372300  0.92426300  1
loop_
_geom_bond_atom_site_label_1
_geom_bond_atom_site_label_2
_geom_bond_distance
_geom_bond_site_symmetry_2
Ca0 O0 2.164036 1_555
Ca0 O2 2.164123 1_545
Ca0 O16 2.208109 1_554
Ca0 O3 2.310434 1_455
Ca1 O4 2.256248 1_555
Ca1 O8 2.256393 1_555
Ca1 O11 2.270049 1_555
Ca1 O7 2.270115 1_555
Ca1 O10 2.318540 1_555
Ca1 O5 2.329930 1_555
Ca2 O11 2.223501 1_455
Ca2 O7 2.223514 1_455
Ca2 O0 2.235368 1_555
Ca2 O2 2.235386 1_555
Ca2 O9 2.282780 1_455
Ca2 O1 2.284766 1_555
Ca3 O19 2.239329 1_555
Ca3 O14 2.239641 1_555
Ca3 O12 2.259040 1_555
Ca3 O15 2.259618 1_555
Ca3 O18 2.310502 1_555
Ca3 O13 2.312898 1_555
Ca4 O14 2.241933 1_555
Ca4 O19 2.241976 1_555
Ca4 O8 2.254421 1_655
Ca4 O4 2.254588 1_655
Ca4 O6 2.285497 1_655
Ca4 O17 2.302401 1_555
Ca5 O22 2.254170 1_555
Ca5 O12 2.260921 1_655
Ca5 O15 2.261142 1_655
Ca5 O16 2.264784 1_655
Ca5 O23 2.268304 1_555
Ca5 O21 2.268529 1_555
Ni0 O0 1.864471 1_555
Ni0 O11 1.885667 1_545
Ni0 O3 1.995541 1_555
Ni0 O9 2.067168 1_545
Ni0 O5 2.125520 1_545
Ni0 O1 2.169472 1_555
Ni1 O8 1.871194 1_545
Ni1 O4 1.871748 1_555
Ni1 O1 1.903423 1_555
Ni1 O10 1.956249 1_455
Ni2 O0 1.857288 1_555
Ni2 O2 1.857436 1_555
Ni2 O20 1.922372 1_554
Ni2 O3 1.932823 1_555
Ni2 O23 1.939907 1_554
Ni2 O21 1.940139 1_554
Ni3 O2 1.864637 1_555
Ni3 O7 1.885797 1_555
Ni3 O3 1.995904 1_555
Ni3 O9 2.066140 1_555
Ni3 O5 2.124931 1_555
Ni3 O1 2.168452 1_555
Ni4 O19 1.913476 1_555
Ni4 O4 1.944513 1_565
Ni4 O17 2.076348 1_555
Ni4 O6 2.105346 1_565
Ni4 O13 2.111550 1_555
Ni4 O10 2.163426 1_565
Ni5 O18 1.852908 1_455
Ni5 O12 1.870406 1_555
Ni5 O15 1.870424 1_545
Ni5 O6 1.918301 1_555
Ni6 O14 1.913965 1_555
Ni6 O8 1.944786 1_555
Ni6 O17 2.074920 1_555
Ni6 O6 2.103539 1_555
Ni6 O13 2.112625 1_555
Ni6 O10 2.164542 1_555
Ni7 O12 1.920885 1_565
Ni7 O16 1.927257 1_565
Ni7 O23 1.964838 1_555
Ni7 O22 1.970781 1_555
Ni7 O20 2.202636 1_555
Ni7 O18 2.318449 1_565
Ni8 O7 1.915179 1_565
Ni8 O11 1.915250 1_555
Ni8 O17 1.959001 1_555
Ni8 O5 2.072268 1_655
Ni9 O15 1.921117 1_555
Ni9 O16 1.927325 1_555
Ni9 O21 1.965047 1_555
Ni9 O22 1.970801 1_555
Ni9 O20 2.203835 1_555
Ni9 O18 2.315872 1_555
Ni10 O14 1.909924 1_565
Ni10 O19 1.910369 1_555
Ni10 O13 2.018351 1_655
Ni10 O22 2.092904 1_555
Ni11 O9 1.953531 1_556
Ni11 O23 2.004983 1_555
Ni11 O21 2.005244 1_565
Ni11 O20 2.186260 1_655
