# generated using pymatgen
data_Pr5Si3O13
_symmetry_space_group_name_H-M   'P 1'
_cell_length_a   9.75675056
_cell_length_b   9.75675056
_cell_length_c   7.15994800
_cell_angle_alpha   90.00000000
_cell_angle_beta   90.00000000
_cell_angle_gamma   120.00000377
_symmetry_Int_Tables_number   1
_chemical_formula_structural   Pr5Si3O13
_chemical_formula_sum   'Pr10 Si6 O26'
_cell_volume   590.27023911
_cell_formula_units_Z   2
loop_
 _symmetry_equiv_pos_site_id
 _symmetry_equiv_pos_as_xyz
  1  'x, y, z'
loop_
 _atom_site_type_symbol
 _atom_site_label
 _atom_site_symmetry_multiplicity
 _atom_site_fract_x
 _atom_site_fract_y
 _atom_site_fract_z
 _atom_site_occupancy
  Pr  Pr0  1  0.33333300  0.66666700  0.49863200  1
  Pr  Pr1  1  0.66666700  0.33333300  0.50136800  1
  Pr  Pr2  1  0.66666700  0.33333300  0.99863200  1
  Pr  Pr3  1  0.33333300  0.66666700  0.00136800  1
  Pr  Pr4  1  0.24178700  0.23155400  0.75000000  1
  Pr  Pr5  1  0.75821300  0.76844600  0.25000000  1
  Pr  Pr6  1  0.76844600  0.01023300  0.75000000  1
  Pr  Pr7  1  0.23155400  0.98976700  0.25000000  1
  Pr  Pr8  1  0.98976700  0.75821300  0.75000000  1
  Pr  Pr9  1  0.01023300  0.24178700  0.25000000  1
  Si  Si0  1  0.02844700  0.39860300  0.75000000  1
  Si  Si1  1  0.97155300  0.60139700  0.25000000  1
  Si  Si2  1  0.60139700  0.62984400  0.75000000  1
  Si  Si3  1  0.39860300  0.37015600  0.25000000  1
  Si  Si4  1  0.37015600  0.97155300  0.75000000  1
  Si  Si5  1  0.62984400  0.02844700  0.25000000  1
  O  O0  1  0.12158400  0.59364900  0.75000000  1
  O  O1  1  0.87841600  0.40635100  0.25000000  1
  O  O2  1  0.40635100  0.52793500  0.75000000  1
  O  O3  1  0.59364900  0.47206500  0.25000000  1
  O  O4  1  0.47206500  0.87841600  0.75000000  1
  O  O5  1  0.52793500  0.12158400  0.25000000  1
  O  O6  1  0.00000000  0.00000000  0.75000000  1
  O  O7  1  0.00000000  0.00000000  0.25000000  1
  O  O8  1  0.48206500  0.16462600  0.75000000  1
  O  O9  1  0.51793500  0.83537400  0.25000000  1
  O  O10  1  0.83537400  0.31743900  0.75000000  1
  O  O11  1  0.16462600  0.68256100  0.25000000  1
  O  O12  1  0.68256100  0.51793500  0.75000000  1
  O  O13  1  0.31743900  0.48206500  0.25000000  1
  O  O14  1  0.09125400  0.34271500  0.56672500  1
  O  O15  1  0.90874600  0.65728500  0.43327500  1
  O  O16  1  0.65728500  0.74853900  0.56672500  1
  O  O17  1  0.90874600  0.65728500  0.06672500  1
  O  O18  1  0.34271500  0.25146100  0.43327500  1
  O  O19  1  0.09125400  0.34271500  0.93327500  1
  O  O20  1  0.25146100  0.90874600  0.56672500  1
  O  O21  1  0.34271500  0.25146100  0.06672500  1
  O  O22  1  0.74853900  0.09125400  0.43327500  1
  O  O23  1  0.65728500  0.74853900  0.93327500  1
  O  O24  1  0.74853900  0.09125400  0.06672500  1
  O  O25  1  0.25146100  0.90874600  0.93327500  1
loop_
_geom_bond_atom_site_label_1
_geom_bond_atom_site_label_2
_geom_bond_distance
_geom_bond_site_symmetry_2
O0 Si0 1.648615 1_555
O0 Pr8 2.509389 1_455
O0 Pr3 2.557967 1_556
O0 Pr0 2.557967 1_555
O1 Si1 1.648615 1_555
O1 Pr9 2.509389 1_655
O1 Pr1 2.557967 1_555
O1 Pr2 2.557967 1_554
O2 Si2 1.648615 1_555
O2 Pr4 2.509389 1_555
O2 Pr3 2.557973 1_556
O2 Pr0 2.557973 1_555
O3 Si3 1.648615 1_555
O3 Pr5 2.509389 1_555
O3 Pr1 2.557973 1_555
O3 Pr2 2.557973 1_554
O4 Si4 1.648615 1_555
O4 Pr6 2.509389 1_565
O4 Pr3 2.557968 1_556
O4 Pr0 2.557968 1_555
O5 Si5 1.648615 1_555
O5 Pr7 2.509389 1_545
O5 Pr1 2.557968 1_555
O5 Pr2 2.557968 1_554
O6 Pr4 2.310753 1_555
O6 Pr8 2.310753 1_445
O6 Pr6 2.310753 1_455
O7 Pr5 2.310753 1_445
O7 Pr9 2.310753 1_555
O7 Pr7 2.310753 1_545
O8 Si4 1.638268 1_545
O8 Pr2 2.481497 1_555
O8 Pr1 2.481497 1_555
O8 Pr4 2.730046 1_555
O9 Si5 1.638268 1_565
O9 Pr0 2.481497 1_555
O9 Pr3 2.481497 1_555
O9 Pr5 2.730046 1_555
O10 Si0 1.638269 1_655
O10 Pr2 2.481494 1_555
O10 Pr1 2.481494 1_555
O10 Pr6 2.730046 1_555
O11 Si1 1.638269 1_455
O11 Pr0 2.481494 1_555
O11 Pr3 2.481494 1_555
O11 Pr7 2.730046 1_555
O12 Si2 1.638269 1_555
O12 Pr2 2.481500 1_555
O12 Pr1 2.481500 1_555
O12 Pr8 2.730046 1_555
O13 Si3 1.638269 1_555
O13 Pr0 2.481500 1_555
O13 Pr3 2.481500 1_555
O13 Pr9 2.730046 1_555
O14 Si0 1.651959 1_555
O14 Pr9 2.441060 1_555
O14 Pr4 2.578431 1_555
O14 Pr0 2.888099 1_555
O15 Si1 1.651959 1_555
O15 Pr8 2.441060 1_555
O15 Pr5 2.578431 1_555
O15 Pr1 2.888099 1_555
O16 Si2 1.651959 1_555
O16 Pr5 2.441060 1_555
O16 Pr6 2.578431 1_565
O16 Pr0 2.888102 1_555
O17 Si1 1.651959 1_555
O17 Pr8 2.441060 1_554
O17 Pr5 2.578431 1_555
O17 Pr2 2.888099 1_554
O18 Si3 1.651959 1_555
O18 Pr4 2.441060 1_555
O18 Pr7 2.578431 1_545
O18 Pr1 2.888102 1_555
O19 Si0 1.651959 1_555
O19 Pr9 2.441060 1_556
O19 Pr4 2.578431 1_555
O19 Pr3 2.888099 1_556
O20 Si4 1.651959 1_555
O20 Pr7 2.441060 1_555
O20 Pr8 2.578431 1_455
O20 Pr0 2.888093 1_555
O21 Si3 1.651959 1_555
O21 Pr4 2.441060 1_554
O21 Pr7 2.578431 1_545
O21 Pr2 2.888102 1_554
O22 Si5 1.651959 1_555
O22 Pr6 2.441060 1_555
O22 Pr9 2.578431 1_655
O22 Pr1 2.888093 1_555
O23 Si2 1.651959 1_555
O23 Pr5 2.441060 1_556
O23 Pr6 2.578431 1_565
O23 Pr3 2.888102 1_556
O24 Si5 1.651959 1_555
O24 Pr6 2.441060 1_554
O24 Pr9 2.578431 1_655
O24 Pr2 2.888093 1_554
O25 Si4 1.651959 1_555
O25 Pr7 2.441060 1_556
O25 Pr8 2.578431 1_455
O25 Pr3 2.888093 1_556
