# generated using pymatgen
data_Li10Zn(PS4)4
_symmetry_space_group_name_H-M   'P 1'
_cell_length_a   7.91196500
_cell_length_b   12.37896800
_cell_length_c   17.91031043
_cell_angle_alpha   46.61102216
_cell_angle_beta   90.00000000
_cell_angle_gamma   90.00000000
_symmetry_Int_Tables_number   1
_chemical_formula_structural   Li10Zn(PS4)4
_chemical_formula_sum   'Li20 Zn2 P8 S32'
_cell_volume   1274.76800797
_cell_formula_units_Z   2
loop_
 _symmetry_equiv_pos_site_id
 _symmetry_equiv_pos_as_xyz
  1  'x, y, z'
loop_
 _atom_site_type_symbol
 _atom_site_label
 _atom_site_symmetry_multiplicity
 _atom_site_fract_x
 _atom_site_fract_y
 _atom_site_fract_z
 _atom_site_occupancy
  Li  Li0  1  0.74811600  0.65082900  0.84841500  1
  Li  Li1  1  0.75398900  0.16297700  0.83786900  1
  Li  Li2  1  0.76000000  0.15771600  0.33962500  1
  Li  Li3  1  0.74726300  0.64710800  0.34982400  1
  Li  Li4  1  0.75429400  0.59197100  0.65428200  1
  Li  Li5  1  0.73952000  0.09812800  0.65552000  1
  Li  Li6  1  0.72448000  0.58402800  0.15766900  1
  Li  Li7  1  0.27552000  0.58402800  0.65766900  1
  Li  Li8  1  0.26048000  0.09812800  0.15552000  1
  Li  Li9  1  0.24570600  0.59197100  0.15428200  1
  Li  Li10  1  0.25273700  0.64710800  0.84982400  1
  Li  Li11  1  0.24000000  0.15771600  0.83962500  1
  Li  Li12  1  0.24601100  0.16297700  0.33786900  1
  Li  Li13  1  0.25188400  0.65082900  0.34841500  1
  Li  Li14  1  0.00434600  0.32466100  0.92314700  1
  Li  Li15  1  0.98542800  0.81351500  0.92841100  1
  Li  Li16  1  0.01457200  0.81351500  0.42841100  1
  Li  Li17  1  0.99565400  0.32466100  0.42314700  1
  Li  Li18  1  0.50391800  0.91400800  0.57302900  1
  Li  Li19  1  0.49608200  0.91400800  0.07302900  1
  Zn  Zn0  1  0.74333500  0.09883500  0.15536700  1
  Zn  Zn1  1  0.25666500  0.09883500  0.65536700  1
  P  P0  1  0.00816400  0.90408900  0.59268800  1
  P  P1  1  0.00171200  0.40328200  0.59159400  1
  P  P2  1  0.99828800  0.40328200  0.09159400  1
  P  P3  1  0.99183600  0.90408900  0.09268800  1
  P  P4  1  0.50778200  0.34362600  0.90992600  1
  P  P5  1  0.49769900  0.84603600  0.90722900  1
  P  P6  1  0.50230100  0.84603600  0.40722900  1
  P  P7  1  0.49221800  0.34362600  0.40992600  1
  S  S0  1  0.99852800  0.50639000  0.93988900  1
  S  S1  1  0.99375100  0.00301000  0.94257700  1
  S  S2  1  0.00624900  0.00301000  0.44257700  1
  S  S3  1  0.00147200  0.50639000  0.43988900  1
  S  S4  1  0.01481400  0.56132600  0.60053200  1
  S  S5  1  0.00366700  0.07020900  0.59789200  1
  S  S6  1  0.99633300  0.07020900  0.09789200  1
  S  S7  1  0.98518600  0.56132600  0.10053200  1
  S  S8  1  0.79174800  0.78213300  0.66404900  1
  S  S9  1  0.78839500  0.28543400  0.66023300  1
  S  S10  1  0.77217000  0.28597400  0.15767500  1
  S  S11  1  0.77865800  0.77785300  0.16520400  1
  S  S12  1  0.72148900  0.35969500  0.83732300  1
  S  S13  1  0.70950500  0.86240000  0.83342300  1
  S  S14  1  0.72220600  0.86610800  0.33083800  1
  S  S15  1  0.70878000  0.35151400  0.34202100  1
  S  S16  1  0.50283500  0.49611700  0.91884700  1
  S  S17  1  0.49742300  0.02087000  0.89826600  1
  S  S18  1  0.50257700  0.02087000  0.39826600  1
  S  S19  1  0.49716500  0.49611700  0.41884700  1
  S  S20  1  0.51509100  0.64308600  0.54988700  1
  S  S21  1  0.49221100  0.12798100  0.56107900  1
  S  S22  1  0.50778900  0.12798100  0.06107900  1
  S  S23  1  0.48490900  0.64308600  0.04988600  1
  S  S24  1  0.29122000  0.35151400  0.84202100  1
  S  S25  1  0.27779400  0.86610800  0.83083800  1
  S  S26  1  0.29049500  0.86240000  0.33342300  1
  S  S27  1  0.27851100  0.35969500  0.33732300  1
  S  S28  1  0.22134200  0.77785300  0.66520400  1
  S  S29  1  0.22783000  0.28597400  0.65767500  1
  S  S30  1  0.21160500  0.28543400  0.16023300  1
  S  S31  1  0.20825200  0.78213300  0.16404900  1
loop_
_geom_bond_atom_site_label_1
_geom_bond_atom_site_label_2
_geom_bond_distance
_geom_bond_site_symmetry_2
Li0 S16 2.388744 1_555
Li0 S0 2.404544 1_555
Li0 S13 2.461415 1_555
Li0 S8 2.508132 1_555
Li1 S17 2.402283 1_555
Li1 S9 2.422397 1_555
Li1 S1 2.436120 1_555
Li1 S12 2.442034 1_555
Li2 S18 2.382558 1_555
Li2 S2 2.451924 1_655
Li2 S10 2.457890 1_555
Li2 S15 2.462276 1_555
Li3 S19 2.400577 1_555
Li3 S3 2.412717 1_655
Li3 S14 2.497575 1_555
Li3 S11 2.502428 1_555
Li4 S4 2.412685 1_655
Li4 S20 2.419235 1_555
Li4 S12 2.476207 1_555
Li4 S8 2.495101 1_555
Li5 S9 2.408676 1_555
Li5 S13 2.439213 1_545
Li5 S21 2.442849 1_555
Li5 S5 2.458172 1_655
Li6 S7 2.403339 1_555
Li6 S23 2.432055 1_555
Li6 S15 2.478910 1_555
Li6 S11 2.530558 1_555
Li7 S4 2.403339 1_555
Li7 S20 2.432044 1_555
Li7 S24 2.478910 1_555
Li7 S28 2.530558 1_555
Li8 S30 2.408676 1_555
Li8 S26 2.439213 1_545
Li8 S22 2.442849 1_555
Li8 S6 2.458172 1_455
Li9 S7 2.412685 1_455
Li9 S23 2.419246 1_555
Li9 S27 2.476207 1_555
Li9 S31 2.495101 1_555
Li10 S16 2.400577 1_555
Li10 S0 2.412717 1_455
Li10 S25 2.497575 1_555
Li10 S28 2.502428 1_555
Li11 S17 2.382558 1_555
Li11 S1 2.451924 1_455
Li11 S29 2.457890 1_555
Li11 S24 2.462276 1_555
Li12 S18 2.402283 1_555
Li12 S30 2.422397 1_555
Li12 S2 2.436120 1_555
Li12 S27 2.442034 1_555
Li13 S19 2.388744 1_555
Li13 S3 2.404544 1_555
Li13 S26 2.461415 1_555
Li13 S31 2.508132 1_555
Li14 S0 2.465681 1_455
Li14 S6 2.485296 1_456
Li14 S12 2.577484 1_455
Li14 S24 2.590330 1_555
Li15 S7 2.455005 1_556
Li15 S1 2.527637 1_565
Li15 S13 2.571372 1_555
Li15 S25 2.695467 1_655
Li16 S4 2.455005 1_555
Li16 S2 2.527637 1_565
Li16 S26 2.571372 1_555
Li16 S14 2.695467 1_455
Li17 S3 2.465681 1_655
Li17 S5 2.485296 1_655
Li17 S27 2.577484 1_655
Li17 S15 2.590330 1_555
Li18 S18 2.420451 1_565
Li18 S21 2.508280 1_565
Li18 S28 2.596502 1_555
Li18 S8 2.617696 1_555
Li19 S17 2.420451 1_564
Li19 S22 2.508280 1_565
Li19 S11 2.596502 1_555
Li19 S31 2.617696 1_555
P0 S28 2.045769 1_555
P0 S8 2.047831 1_455
P0 S2 2.050557 1_565
P0 S5 2.121801 1_565
P1 S9 2.006004 1_455
P1 S3 2.060823 1_555
P1 S4 2.072256 1_555
P1 S29 2.085396 1_555
P2 S30 2.006004 1_655
P2 S0 2.060823 1_554
P2 S7 2.072256 1_555
P2 S10 2.085396 1_555
P3 S11 2.045769 1_555
P3 S31 2.047831 1_655
P3 S1 2.050557 1_564
P3 S6 2.121801 1_565
P4 S16 2.001195 1_555
P4 S12 2.057677 1_555
P4 S24 2.064307 1_555
P4 S22 2.127471 1_556
P5 S23 2.007748 1_556
P5 S13 2.056415 1_555
P5 S17 2.057300 1_565
P5 S25 2.119857 1_555
P6 S20 2.007755 1_555
P6 S26 2.056415 1_555
P6 S18 2.057300 1_565
P6 S14 2.119857 1_555
P7 S19 2.001195 1_555
P7 S27 2.057677 1_555
P7 S15 2.064307 1_555
P7 S21 2.127471 1_555
S5 Zn1 2.386051 1_555
S6 Zn0 2.386051 1_555
S10 Zn0 2.356247 1_555
S14 Zn0 2.401091 1_565
S21 Zn1 2.370232 1_555
S22 Zn0 2.370232 1_555
S25 Zn1 2.401091 1_565
S29 Zn1 2.356247 1_555
