# generated using pymatgen
data_BaCo2(PO4)2
_symmetry_space_group_name_H-M   'P 1'
_cell_length_a   4.90011523
_cell_length_b   16.19299974
_cell_length_c   4.90203421
_cell_angle_alpha   90.09413600
_cell_angle_beta   59.92178019
_cell_angle_gamma   81.25218700
_symmetry_Int_Tables_number   1
_chemical_formula_structural   BaCo2(PO4)2
_chemical_formula_sum   'Ba2 Co4 P4 O16'
_cell_volume   331.29033235
_cell_formula_units_Z   2
loop_
 _symmetry_equiv_pos_site_id
 _symmetry_equiv_pos_as_xyz
  1  'x, y, z'
loop_
 _atom_site_type_symbol
 _atom_site_label
 _atom_site_symmetry_multiplicity
 _atom_site_fract_x
 _atom_site_fract_y
 _atom_site_fract_z
 _atom_site_occupancy
  Ba  Ba0  1  0.99990800  0.50011400  0.50006900  1
  Ba  Ba1  1  0.99977600  0.99976900  0.00025700  1
  Co  Co0  1  0.83051100  0.75475700  0.58489600  1
  Co  Co1  1  0.16884400  0.24555400  0.41491500  1
  Co  Co2  1  0.83218300  0.25409600  0.08599800  1
  Co  Co3  1  0.16956100  0.74523100  0.91502200  1
  P  P0  1  0.42658500  0.85939500  0.28696000  1
  P  P1  1  0.42688000  0.35967400  0.78654100  1
  P  P2  1  0.57342100  0.64064600  0.21300100  1
  P  P3  1  0.57320000  0.14039200  0.71367000  1
  O  O0  1  0.36240100  0.95542900  0.31880500  1
  O  O1  1  0.36288000  0.45571600  0.81753100  1
  O  O2  1  0.63696200  0.54462700  0.18146800  1
  O  O3  1  0.63590000  0.04434100  0.68238700  1
  O  O4  1  0.56236300  0.67261000  0.52224200  1
  O  O5  1  0.56358800  0.17260000  0.02145400  1
  O  O6  1  0.24335600  0.67247900  0.23366100  1
  O  O7  1  0.24260300  0.17241500  0.73482400  1
  O  O8  1  0.43785200  0.82746000  0.97757500  1
  O  O9  1  0.43877000  0.32754200  0.47637000  1
  O  O10  1  0.14857900  0.82791600  0.58575400  1
  O  O11  1  0.14892400  0.32814400  0.08441100  1
  O  O12  1  0.85162900  0.67204400  0.91415600  1
  O  O13  1  0.85089400  0.17166700  0.41475600  1
  O  O14  1  0.75674200  0.82769600  0.26619700  1
  O  O15  1  0.75568800  0.32768500  0.76708400  1
loop_
_geom_bond_atom_site_label_1
_geom_bond_atom_site_label_2
_geom_bond_distance
_geom_bond_site_symmetry_2
Ba0 O2 2.913301 1_556
Ba0 O1 2.913975 1_655
Ba0 O1 2.915402 1_555
Ba0 O2 2.916265 1_655
Ba0 O1 2.917710 1_654
Ba0 O2 2.918850 1_555
Ba0 O12 3.207347 1_555
Ba0 O11 3.211075 1_655
Ba0 O4 3.217852 1_555
Ba0 O9 3.219885 1_655
Ba0 O6 3.222110 1_655
Ba0 O15 3.224856 1_555
Ba1 O3 2.912834 1_664
Ba1 O0 2.913096 1_654
Ba1 O0 2.916437 1_555
Ba1 O3 2.916451 1_565
Ba1 O0 2.916876 1_655
Ba1 O3 2.919815 1_564
Ba1 O10 3.206794 1_654
Ba1 O13 3.207305 1_565
Ba1 O8 3.216126 1_654
Ba1 O14 3.216631 1_555
Ba1 O5 3.220024 1_565
Ba1 O7 3.224349 1_664
Co0 O8 2.093917 1_555
Co0 O10 2.097798 1_655
Co0 O14 2.099672 1_555
Co0 O6 2.124464 1_655
Co0 O4 2.127221 1_555
Co0 O12 2.131226 1_555
Co1 O5 2.101197 1_555
Co1 O13 2.104054 1_455
Co1 O7 2.106322 1_555
Co1 O15 2.125531 1_455
Co1 O9 2.129561 1_555
Co1 O11 2.132815 1_555
Co2 O9 2.095256 1_555
Co2 O11 2.097788 1_655
Co2 O15 2.112368 1_554
Co2 O7 2.114381 1_654
Co2 O13 2.122540 1_555
Co2 O5 2.125607 1_555
Co3 O4 2.093846 1_555
Co3 O12 2.097567 1_455
Co3 O6 2.097860 1_556
Co3 O14 2.125767 1_456
Co3 O8 2.128502 1_555
Co3 O10 2.130753 1_555
O0 P0 1.530614 1_555
O1 P1 1.530757 1_555
O2 P2 1.530381 1_555
O3 P3 1.530906 1_555
O4 P2 1.573333 1_555
O5 P3 1.571406 1_554
O6 P2 1.572852 1_555
O7 P3 1.574755 1_555
O8 P0 1.573340 1_556
O9 P1 1.576493 1_555
O10 P0 1.573081 1_555
O11 P1 1.571100 1_554
O12 P2 1.573050 1_556
O13 P3 1.571181 1_555
O14 P0 1.572681 1_555
O15 P1 1.570132 1_555
