# generated using pymatgen
data_Nd4Fe28BC
_symmetry_space_group_name_H-M   'P 1'
_cell_length_a   8.79813818
_cell_length_b   8.79813818
_cell_length_c   12.08435200
_cell_angle_alpha   90.00000000
_cell_angle_beta   90.00000000
_cell_angle_gamma   90.07015972
_symmetry_Int_Tables_number   1
_chemical_formula_structural   Nd4Fe28BC
_chemical_formula_sum   'Nd8 Fe56 B2 C2'
_cell_volume   935.41557818
_cell_formula_units_Z   2
loop_
 _symmetry_equiv_pos_site_id
 _symmetry_equiv_pos_as_xyz
  1  'x, y, z'
loop_
 _atom_site_type_symbol
 _atom_site_label
 _atom_site_symmetry_multiplicity
 _atom_site_fract_x
 _atom_site_fract_y
 _atom_site_fract_z
 _atom_site_occupancy
  Nd  Nd0  1  0.23252600  0.23252600  0.50000000  1
  Nd  Nd1  1  0.76747400  0.76747400  0.50000000  1
  Nd  Nd2  1  0.73566700  0.26433300  0.00000000  1
  Nd  Nd3  1  0.26433300  0.73566700  0.00000000  1
  Nd  Nd4  1  0.35807100  0.64192900  0.50000000  1
  Nd  Nd5  1  0.64192900  0.35807100  0.50000000  1
  Nd  Nd6  1  0.85700700  0.85700700  0.00000000  1
  Nd  Nd7  1  0.14299300  0.14299300  0.00000000  1
  Fe  Fe0  1  0.18284600  0.18284600  0.25379400  1
  Fe  Fe1  1  0.81715400  0.81715400  0.25379400  1
  Fe  Fe2  1  0.68206700  0.31793300  0.75475000  1
  Fe  Fe3  1  0.31793300  0.68206700  0.75475000  1
  Fe  Fe4  1  0.81715400  0.81715400  0.74620600  1
  Fe  Fe5  1  0.18284600  0.18284600  0.74620600  1
  Fe  Fe6  1  0.31793300  0.68206700  0.24525000  1
  Fe  Fe7  1  0.68206700  0.31793300  0.24525000  1
  Fe  Fe8  1  0.40214200  0.40214200  0.29269000  1
  Fe  Fe9  1  0.59785800  0.59785800  0.29269000  1
  Fe  Fe10  1  0.90210100  0.09789900  0.79574100  1
  Fe  Fe11  1  0.09789900  0.90210100  0.79574100  1
  Fe  Fe12  1  0.59785800  0.59785800  0.70731000  1
  Fe  Fe13  1  0.40214200  0.40214200  0.70731000  1
  Fe  Fe14  1  0.09789900  0.90210100  0.20425900  1
  Fe  Fe15  1  0.90210100  0.09789900  0.20425900  1
  Fe  Fe16  1  0.46293100  0.14059900  0.32296700  1
  Fe  Fe17  1  0.53706900  0.85940100  0.32296700  1
  Fe  Fe18  1  0.96334300  0.36098500  0.82416200  1
  Fe  Fe19  1  0.03665700  0.63901500  0.82416200  1
  Fe  Fe20  1  0.53706900  0.85940100  0.67703300  1
  Fe  Fe21  1  0.46293100  0.14059900  0.67703300  1
  Fe  Fe22  1  0.03665700  0.63901500  0.17583800  1
  Fe  Fe23  1  0.96334300  0.36098500  0.17583800  1
  Fe  Fe24  1  0.85940100  0.53706900  0.32296700  1
  Fe  Fe25  1  0.14059900  0.46293100  0.32296700  1
  Fe  Fe26  1  0.63901500  0.03665700  0.82416200  1
  Fe  Fe27  1  0.36098500  0.96334300  0.82416200  1
  Fe  Fe28  1  0.14059900  0.46293100  0.67703300  1
  Fe  Fe29  1  0.85940100  0.53706900  0.67703300  1
  Fe  Fe30  1  0.36098500  0.96334300  0.17583800  1
  Fe  Fe31  1  0.63901500  0.03665700  0.17583800  1
  Fe  Fe32  1  0.50000000  0.50000000  0.10731500  1
  Fe  Fe33  1  0.00000000  0.00000000  0.61427100  1
  Fe  Fe34  1  0.50000000  0.50000000  0.89268500  1
  Fe  Fe35  1  0.00000000  0.00000000  0.38572900  1
  Fe  Fe36  1  0.27570600  0.93295900  0.37275400  1
  Fe  Fe37  1  0.72429400  0.06704100  0.37275400  1
  Fe  Fe38  1  0.77388000  0.56703600  0.87786700  1
  Fe  Fe39  1  0.22612000  0.43296400  0.87786700  1
  Fe  Fe40  1  0.72429400  0.06704100  0.62724600  1
  Fe  Fe41  1  0.27570600  0.93295900  0.62724600  1
  Fe  Fe42  1  0.22612000  0.43296400  0.12213300  1
  Fe  Fe43  1  0.77388000  0.56703600  0.12213300  1
  Fe  Fe44  1  0.06704100  0.72429400  0.37275400  1
  Fe  Fe45  1  0.93295900  0.27570600  0.37275400  1
  Fe  Fe46  1  0.43296400  0.22612000  0.87786700  1
  Fe  Fe47  1  0.56703600  0.77388000  0.87786700  1
  Fe  Fe48  1  0.93295900  0.27570600  0.62724600  1
  Fe  Fe49  1  0.06704100  0.72429400  0.62724600  1
  Fe  Fe50  1  0.56703600  0.77388000  0.12213300  1
  Fe  Fe51  1  0.43296400  0.22612000  0.12213300  1
  Fe  Fe52  1  0.50000000  0.00000000  0.50000000  1
  Fe  Fe53  1  0.00000000  0.50000000  0.00000000  1
  Fe  Fe54  1  0.00000000  0.50000000  0.50000000  1
  Fe  Fe55  1  0.50000000  0.00000000  0.00000000  1
  B  B0  1  0.12477100  0.87522900  0.50000000  1
  B  B1  1  0.87522900  0.12477100  0.50000000  1
  C  C0  1  0.62511300  0.62511300  0.00000000  1
  C  C1  1  0.37488700  0.37488700  0.00000000  1
loop_
_geom_bond_atom_site_label_1
_geom_bond_atom_site_label_2
_geom_bond_distance
_geom_bond_site_symmetry_2
Fe0 Fe16 2.628985 1_555
Fe0 Fe25 2.628985 1_555
Fe0 Fe15 2.648289 1_455
Fe0 Fe14 2.648289 1_545
Fe0 Fe30 2.660991 1_545
Fe0 Fe23 2.660991 1_455
Fe0 Fe51 2.741683 1_555
Fe0 Fe42 2.741683 1_555
Fe0 Fe36 2.751731 1_545
Fe0 Fe45 2.751731 1_455
Fe0 Fe8 2.767121 1_555
Fe0 Fe35 2.776953 1_555
Fe0 Nd0 3.038698 1_555
Fe0 Nd7 3.106716 1_555
Fe1 Fe17 2.628985 1_555
Fe1 Fe24 2.628985 1_555
Fe1 Fe15 2.648289 1_565
Fe1 Fe14 2.648289 1_655
Fe1 Fe31 2.660991 1_565
Fe1 Fe22 2.660991 1_655
Fe1 Fe43 2.741683 1_555
Fe1 Fe50 2.741683 1_555
Fe1 Fe37 2.751731 1_565
Fe1 Fe44 2.751731 1_655
Fe1 Fe9 2.767121 1_555
Fe1 Fe35 2.776953 1_665
Fe1 Nd1 3.038698 1_555
Fe1 Nd6 3.106716 1_555
Fe2 Fe26 2.639872 1_555
Fe2 Fe21 2.650669 1_555
Fe2 Fe29 2.650669 1_555
Fe2 Fe48 2.717839 1_555
Fe2 Fe40 2.717839 1_555
Fe2 Fe46 2.768572 1_555
Fe2 Fe38 2.768572 1_555
Fe2 Fe34 2.813635 1_555
Fe2 Nd2 3.037888 1_556
Fe2 Nd5 3.118784 1_555
Fe3 Fe49 2.717839 1_555
Fe3 Fe41 2.717839 1_555
Fe3 Fe39 2.768572 1_555
Fe3 Fe47 2.768572 1_555
Fe3 Fe34 2.813635 1_555
Fe3 Nd3 3.037888 1_556
Fe3 Nd4 3.118784 1_555
Fe4 Fe47 2.741683 1_555
Fe4 Fe49 2.751731 1_655
Fe4 Fe40 2.751731 1_565
Fe4 Nd1 3.038698 1_555
Fe4 Nd6 3.106716 1_556
Fe5 Nd0 3.038698 1_555
Fe5 Nd7 3.106716 1_556
Fe6 Fe8 2.635812 1_555
Fe6 Fe9 2.635812 1_555
Fe6 Nd3 3.037888 1_555
Fe6 Nd4 3.118784 1_555
Fe7 Fe8 2.635812 1_555
Fe7 Fe9 2.635812 1_555
Fe7 Nd2 3.037888 1_555
Fe7 Nd5 3.118784 1_555
Fe8 Fe9 2.433694 1_555
Fe8 Nd0 3.274837 1_555
Fe8 Nd4 3.298357 1_555
Fe8 Nd5 3.298357 1_555
Fe9 Nd1 3.274837 1_555
Fe9 Nd4 3.298357 1_555
Fe9 Nd5 3.298357 1_555
Fe10 Fe18 2.400606 1_555
Fe10 Fe26 2.400606 1_555
Fe10 Fe11 2.437697 1_645
Fe10 Fe33 2.508906 1_655
Fe10 Fe48 2.581829 1_555
Fe10 Fe40 2.581829 1_555
Fe10 Fe4 2.648289 1_545
Fe10 Fe5 2.648289 1_655
Fe10 Fe2 2.783862 1_555
Fe10 Nd2 3.222785 1_556
Fe10 Nd7 3.277178 1_656
Fe10 Nd6 3.277178 1_546
Fe11 Fe27 2.400606 1_555
Fe11 Fe19 2.400606 1_555
Fe11 Fe33 2.508906 1_565
Fe11 Fe41 2.581829 1_555
Fe11 Fe49 2.581829 1_555
Fe11 Fe4 2.648289 1_455
Fe11 Fe5 2.648289 1_565
Fe11 Fe3 2.783862 1_555
Fe11 Nd3 3.222785 1_556
Fe11 Nd7 3.277178 1_566
Fe11 Nd6 3.277178 1_456
Fe12 Fe20 2.391223 1_555
Fe12 Fe29 2.391223 1_555
Fe12 Fe13 2.433694 1_555
Fe12 Fe34 2.549300 1_555
Fe12 Fe47 2.592478 1_555
Fe12 Fe38 2.592478 1_555
Fe12 Fe3 2.635812 1_555
Fe12 Fe2 2.635812 1_555
Fe12 Fe4 2.767121 1_555
Fe12 Nd1 3.274837 1_555
Fe12 Nd4 3.298357 1_555
Fe12 Nd5 3.298357 1_555
Fe13 Fe21 2.391223 1_555
Fe13 Fe28 2.391223 1_555
Fe13 Fe34 2.549300 1_555
Fe13 Fe39 2.592478 1_555
Fe13 Fe46 2.592478 1_555
Fe13 Fe3 2.635812 1_555
Fe13 Fe2 2.635812 1_555
Fe13 Fe5 2.767121 1_555
Fe13 Nd0 3.274837 1_555
Fe13 Nd4 3.298357 1_555
Fe13 Nd5 3.298357 1_555
Fe14 Fe30 2.400606 1_555
Fe14 Fe22 2.400606 1_555
Fe14 Fe15 2.437697 1_465
Fe14 Fe35 2.508906 1_565
Fe14 Fe36 2.581829 1_555
Fe14 Fe44 2.581829 1_555
Fe14 Fe6 2.783862 1_555
Fe14 Nd3 3.222785 1_555
Fe14 Nd7 3.277178 1_565
Fe14 Nd6 3.277178 1_455
Fe15 Fe23 2.400606 1_555
Fe15 Fe31 2.400606 1_555
Fe15 Fe35 2.508906 1_655
Fe15 Fe45 2.581829 1_555
Fe15 Fe37 2.581829 1_555
Fe15 Fe7 2.783862 1_555
Fe15 Nd2 3.222785 1_555
Fe15 Nd7 3.277178 1_655
Fe15 Nd6 3.277178 1_545
Fe16 Fe8 2.391223 1_555
Fe16 Fe37 2.464181 1_555
Fe16 Fe52 2.492845 1_555
Fe16 Fe30 2.528698 1_545
Fe16 Fe31 2.530013 1_555
Fe16 Fe36 2.530877 1_545
Fe16 Fe51 2.554647 1_555
Fe16 Fe17 2.559333 1_545
Fe16 Fe7 2.650669 1_555
Fe16 Nd0 3.056821 1_555
Fe16 Nd5 3.272675 1_555
Fe17 Fe9 2.391223 1_555
Fe17 Fe36 2.464181 1_555
Fe17 Fe52 2.492845 1_565
Fe17 Fe31 2.528698 1_565
Fe17 Fe30 2.530013 1_555
Fe17 Fe37 2.530877 1_565
Fe17 Fe50 2.554647 1_555
Fe17 Fe6 2.650669 1_555
Fe17 Nd1 3.056821 1_555
Fe17 Nd4 3.272675 1_555
Fe18 Fe53 2.472672 1_656
Fe18 Fe39 2.482691 1_655
Fe18 Fe48 2.509267 1_555
Fe18 Fe28 2.528698 1_655
Fe18 Fe19 2.528997 1_655
Fe18 Fe29 2.530013 1_555
Fe18 Fe38 2.548273 1_555
Fe18 Fe2 2.639872 1_555
Fe18 Fe5 2.660991 1_655
Fe18 Nd2 3.040822 1_556
Fe18 Nd7 3.270972 1_656
Fe19 Fe53 2.472672 1_556
Fe19 Fe38 2.482691 1_455
Fe19 Fe49 2.509267 1_555
Fe19 Fe29 2.528698 1_455
Fe19 Fe28 2.530013 1_555
Fe19 Fe39 2.548273 1_555
Fe19 Fe3 2.639872 1_555
Fe19 Fe4 2.660991 1_455
Fe19 Nd3 3.040822 1_556
Fe19 Nd6 3.270972 1_456
Fe20 Fe41 2.464181 1_555
Fe20 Fe52 2.492845 1_565
Fe20 Fe26 2.528698 1_565
Fe20 Fe27 2.530013 1_555
Fe20 Fe40 2.530877 1_565
Fe20 Fe47 2.554647 1_555
Fe20 Fe21 2.559333 1_565
Fe20 Fe4 2.628985 1_555
Fe20 Fe3 2.650669 1_555
Fe20 Nd1 3.056821 1_555
Fe20 Nd4 3.272675 1_555
Fe21 Fe40 2.464181 1_555
Fe21 Fe52 2.492845 1_555
Fe21 Fe27 2.528698 1_545
Fe21 Fe26 2.530013 1_555
Fe21 Fe41 2.530877 1_545
Fe21 Fe46 2.554647 1_555
Fe21 Fe5 2.628985 1_555
Fe21 Nd0 3.056821 1_555
Fe21 Nd5 3.272675 1_555
Fe22 Fe53 2.472672 1_555
Fe22 Fe43 2.482691 1_455
Fe22 Fe44 2.509267 1_555
Fe22 Fe24 2.528698 1_455
Fe22 Fe23 2.528997 1_455
Fe22 Fe25 2.530013 1_555
Fe22 Fe42 2.548273 1_555
Fe22 Fe6 2.639872 1_555
Fe22 Nd3 3.040822 1_555
Fe22 Nd6 3.270972 1_455
Fe23 Fe53 2.472672 1_655
Fe23 Fe42 2.482691 1_655
Fe23 Fe45 2.509267 1_555
Fe23 Fe25 2.528698 1_655
Fe23 Fe24 2.530013 1_555
Fe23 Fe43 2.548273 1_555
Fe23 Fe7 2.639872 1_555
Fe23 Nd2 3.040822 1_555
Fe23 Nd7 3.270972 1_655
Fe24 Fe9 2.391223 1_555
Fe24 Fe45 2.464181 1_555
Fe24 Fe54 2.492845 1_655
Fe24 Fe44 2.530877 1_655
Fe24 Fe43 2.554647 1_555
Fe24 Fe25 2.559333 1_655
Fe24 Fe7 2.650669 1_555
Fe24 Nd1 3.056821 1_555
Fe24 Nd5 3.272675 1_555
Fe25 Fe8 2.391223 1_555
Fe25 Fe44 2.464181 1_555
Fe25 Fe54 2.492845 1_555
Fe25 Fe45 2.530877 1_455
Fe25 Fe42 2.554647 1_555
Fe25 Fe6 2.650669 1_555
Fe25 Nd0 3.056821 1_555
Fe25 Nd4 3.272675 1_555
Fe26 Fe55 2.472672 1_556
Fe26 Fe47 2.482691 1_545
Fe26 Fe40 2.509267 1_555
Fe26 Fe27 2.528997 1_545
Fe26 Fe46 2.548273 1_555
Fe26 Fe4 2.660991 1_545
Fe26 Nd2 3.040822 1_556
Fe26 Nd6 3.270972 1_546
Fe27 Fe55 2.472672 1_566
Fe27 Fe46 2.482691 1_565
Fe27 Fe41 2.509267 1_555
Fe27 Fe47 2.548273 1_555
Fe27 Fe3 2.639872 1_555
Fe27 Fe5 2.660991 1_565
Fe27 Nd3 3.040822 1_556
Fe27 Nd7 3.270972 1_566
Fe28 Fe49 2.464181 1_555
Fe28 Fe54 2.492845 1_555
Fe28 Fe48 2.530877 1_455
Fe28 Fe39 2.554647 1_555
Fe28 Fe29 2.559333 1_455
Fe28 Fe5 2.628985 1_555
Fe28 Fe3 2.650669 1_555
Fe28 Nd0 3.056821 1_555
Fe28 Nd4 3.272675 1_555
Fe29 Fe48 2.464181 1_555
Fe29 Fe54 2.492845 1_655
Fe29 Fe49 2.530877 1_655
Fe29 Fe38 2.554647 1_555
Fe29 Fe4 2.628985 1_555
Fe29 Nd1 3.056821 1_555
Fe29 Nd5 3.272675 1_555
Fe30 Fe55 2.472672 1_565
Fe30 Fe51 2.482691 1_565
Fe30 Fe36 2.509267 1_555
Fe30 Fe31 2.528997 1_565
Fe30 Fe50 2.548273 1_555
Fe30 Fe6 2.639872 1_555
Fe30 Nd3 3.040822 1_555
Fe30 Nd7 3.270972 1_565
Fe31 Fe55 2.472672 1_555
Fe31 Fe50 2.482691 1_545
Fe31 Fe37 2.509267 1_555
Fe31 Fe51 2.548273 1_555
Fe31 Fe7 2.639872 1_555
Fe31 Nd2 3.040822 1_555
Fe31 Nd6 3.270972 1_545
Fe32 Fe8 2.549300 1_555
Fe32 Fe9 2.549300 1_555
Fe32 Fe6 2.813635 1_555
Fe32 Fe7 2.813635 1_555
Fe32 Nd2 3.207886 1_555
Fe32 Nd3 3.207886 1_555
Fe33 Fe4 2.776953 1_445
Fe33 Fe5 2.776953 1_555
Fe33 Nd1 3.204243 1_445
Fe33 Nd0 3.204243 1_555
Fe34 Nd3 3.207886 1_556
Fe34 Nd2 3.207886 1_556
Fe35 Nd1 3.204243 1_445
Fe35 Nd0 3.204243 1_555
Fe36 Fe52 2.569770 1_565
Fe36 Fe6 2.717839 1_555
Fe36 Nd4 3.074154 1_555
Fe36 Nd0 3.075355 1_565
Fe37 Fe52 2.569770 1_555
Fe37 Fe7 2.717839 1_555
Fe37 Nd5 3.074154 1_555
Fe37 Nd1 3.075355 1_545
Fe38 Fe53 2.546931 1_656
Fe38 Fe4 2.741683 1_555
Fe38 Nd6 3.035991 1_556
Fe38 Nd2 3.062984 1_556
Fe39 Fe53 2.546931 1_556
Fe39 Fe5 2.741683 1_555
Fe39 Nd7 3.035991 1_556
Fe39 Nd3 3.062984 1_556
Fe40 Fe52 2.569770 1_555
Fe40 Nd5 3.074154 1_555
Fe40 Nd1 3.075355 1_545
Fe41 Fe52 2.569770 1_565
Fe41 Fe5 2.751731 1_565
Fe41 Nd4 3.074154 1_555
Fe41 Nd0 3.075355 1_565
Fe42 Fe53 2.546931 1_555
Fe42 Fe8 2.592478 1_555
Fe42 Fe6 2.768572 1_555
Fe42 Nd7 3.035991 1_555
Fe42 Nd3 3.062984 1_555
Fe43 Fe53 2.546931 1_655
Fe43 Fe9 2.592478 1_555
Fe43 Fe7 2.768572 1_555
Fe43 Nd6 3.035991 1_555
Fe43 Nd2 3.062984 1_555
Fe44 Fe54 2.569770 1_555
Fe44 Fe6 2.717839 1_555
Fe44 Nd4 3.074154 1_555
Fe44 Nd1 3.075355 1_455
Fe45 Fe54 2.569770 1_655
Fe45 Fe7 2.717839 1_555
Fe45 Nd5 3.074154 1_555
Fe45 Nd0 3.075355 1_655
Fe46 Fe55 2.546931 1_556
Fe46 Fe5 2.741683 1_555
Fe46 Nd7 3.035991 1_556
Fe46 Nd2 3.062984 1_556
Fe47 Fe55 2.546931 1_566
Fe47 Nd6 3.035991 1_556
Fe47 Nd3 3.062984 1_556
Fe48 Fe54 2.569770 1_655
Fe48 Fe5 2.751731 1_655
Fe48 Nd5 3.074154 1_555
Fe48 Nd0 3.075355 1_655
Fe49 Fe54 2.569770 1_555
Fe49 Nd4 3.074154 1_555
Fe49 Nd1 3.075355 1_455
Fe50 Fe55 2.546931 1_565
Fe50 Fe9 2.592478 1_555
Fe50 Fe6 2.768572 1_555
Fe50 Nd6 3.035991 1_555
Fe50 Nd3 3.062984 1_555
Fe51 Fe55 2.546931 1_555
Fe51 Fe8 2.592478 1_555
Fe51 Fe7 2.768572 1_555
Fe51 Nd7 3.035991 1_555
Fe51 Nd2 3.062984 1_555
Fe52 Nd1 3.120091 1_545
Fe52 Nd0 3.120091 1_555
Fe52 Nd5 3.387389 1_555
Fe52 Nd4 3.387389 1_545
Fe53 Nd3 3.113824 1_555
Fe53 Nd2 3.113824 1_455
Fe53 Nd7 3.385009 1_555
Fe53 Nd6 3.385009 1_455
Fe54 Nd1 3.120091 1_455
Fe54 Nd0 3.120091 1_555
Fe54 Nd4 3.387389 1_555
Fe54 Nd5 3.387389 1_455
Fe55 Nd2 3.113824 1_555
Fe55 Nd3 3.113824 1_545
Fe55 Nd6 3.385009 1_545
Fe55 Nd7 3.385009 1_555
B0 Fe35 2.078445 1_565
B0 Fe33 2.078445 1_565
B0 Fe41 2.093859 1_555
B0 Fe49 2.093859 1_555
B0 Fe36 2.093859 1_555
B0 Fe44 2.093859 1_555
B0 Nd4 2.904599 1_555
B1 Fe35 2.078445 1_655
B1 Fe33 2.078445 1_655
B1 Fe48 2.093859 1_555
B1 Fe45 2.093859 1_555
B1 Fe40 2.093859 1_555
B1 Fe37 2.093859 1_555
B1 Nd5 2.904599 1_555
C0 Fe32 2.025378 1_555
C0 Fe34 2.025378 1_554
C0 Fe43 2.038173 1_555
C0 Fe50 2.038173 1_555
C0 Fe47 2.038173 1_554
C0 Fe38 2.038173 1_554
C0 Nd6 2.883562 1_555
C1 Fe32 2.025378 1_555
C1 Fe34 2.025378 1_554
C1 Fe39 2.038173 1_554
C1 Fe42 2.038173 1_555
C1 Fe51 2.038173 1_555
C1 Fe46 2.038173 1_554
C1 Nd7 2.883562 1_555
