# generated using pymatgen
data_Lu3Ru2
_symmetry_space_group_name_H-M   'P 1'
_cell_length_a   4.63051600
_cell_length_b   7.48905982
_cell_length_c   7.48905982
_cell_angle_alpha   119.99999839
_cell_angle_beta   90.00000000
_cell_angle_gamma   90.00000000
_symmetry_Int_Tables_number   1
_chemical_formula_structural   Lu3Ru2
_chemical_formula_sum   'Lu6 Ru4'
_cell_volume   224.91303542
_cell_formula_units_Z   2
loop_
 _symmetry_equiv_pos_site_id
 _symmetry_equiv_pos_as_xyz
  1  'x, y, z'
loop_
 _atom_site_type_symbol
 _atom_site_label
 _atom_site_symmetry_multiplicity
 _atom_site_fract_x
 _atom_site_fract_y
 _atom_site_fract_z
 _atom_site_occupancy
  Lu  Lu0  1  0.75000000  0.61235900  0.69754100  1
  Lu  Lu1  1  0.25000000  0.38764100  0.30245900  1
  Lu  Lu2  1  0.75000000  0.08518100  0.38764100  1
  Lu  Lu3  1  0.25000000  0.91481900  0.61235900  1
  Lu  Lu4  1  0.75000000  0.30245900  0.91481900  1
  Lu  Lu5  1  0.25000000  0.69754100  0.08518100  1
  Ru  Ru0  1  0.75000000  0.66666700  0.33333300  1
  Ru  Ru1  1  0.25000000  0.33333300  0.66666700  1
  Ru  Ru2  1  0.00000000  0.00000000  0.00000000  1
  Ru  Ru3  1  0.50000000  0.00000000  0.00000000  1
loop_
_geom_bond_atom_site_label_1
_geom_bond_atom_site_label_2
_geom_bond_distance
_geom_bond_site_symmetry_2
Lu0 Ru2 2.884943 1_666
Lu0 Ru3 2.884943 1_566
Lu0 Ru0 2.952022 1_555
Lu0 Ru1 3.049152 1_555
Lu0 Ru1 3.049152 1_655
Lu0 Lu4 3.436672 1_555
Lu0 Lu2 3.436672 1_555
Lu0 Lu1 3.459434 1_655
Lu0 Lu1 3.459434 1_555
Lu0 Lu5 3.513285 1_656
Lu0 Lu5 3.513285 1_556
Lu0 Lu3 3.513296 1_555
Lu0 Lu3 3.513296 1_655
Lu1 Ru2 2.884943 1_555
Lu1 Ru3 2.884943 1_555
Lu1 Ru1 2.952022 1_555
Lu1 Ru0 3.049152 1_555
Lu1 Ru0 3.049152 1_455
Lu1 Lu5 3.436672 1_555
Lu1 Lu3 3.436672 1_555
Lu1 Lu4 3.513285 1_554
Lu1 Lu4 3.513285 1_454
Lu1 Lu2 3.513296 1_455
Lu1 Lu2 3.513296 1_555
Lu2 Ru3 2.884945 1_555
Lu2 Ru2 2.884945 1_655
Lu2 Ru0 2.952007 1_545
Lu2 Ru1 3.049152 1_555
Lu2 Ru1 3.049152 1_655
Lu2 Lu4 3.436672 1_555
Lu2 Lu3 3.459425 1_645
Lu2 Lu3 3.459425 1_545
Lu2 Lu5 3.513289 1_545
Lu2 Lu5 3.513289 1_645
Lu3 Ru3 2.884945 1_566
Lu3 Ru2 2.884945 1_566
Lu3 Ru1 2.952007 1_565
Lu3 Ru0 3.049152 1_455
Lu3 Ru0 3.049152 1_555
Lu3 Lu5 3.436672 1_555
Lu3 Lu4 3.513289 1_465
Lu3 Lu4 3.513289 1_565
Lu4 Ru3 2.884939 1_556
Lu4 Ru2 2.884939 1_656
Lu4 Ru0 2.952013 1_556
Lu4 Ru1 3.049152 1_555
Lu4 Ru1 3.049152 1_655
Lu4 Lu5 3.459435 1_656
Lu4 Lu5 3.459435 1_556
Lu5 Ru2 2.884939 1_565
Lu5 Ru3 2.884939 1_565
Lu5 Ru1 2.952013 1_554
Lu5 Ru0 3.049152 1_455
Lu5 Ru0 3.049152 1_555
Ru2 Ru3 2.315258 1_455
Ru2 Ru3 2.315258 1_555
