# generated using pymatgen
data_K3UC5O17
_symmetry_space_group_name_H-M   'P 1'
_cell_length_a   10.18437000
_cell_length_b   10.33306903
_cell_length_c   10.72222715
_cell_angle_alpha   96.30887025
_cell_angle_beta   105.92055921
_cell_angle_gamma   116.38844294
_symmetry_Int_Tables_number   1
_chemical_formula_structural   K3UC5O17
_chemical_formula_sum   'K6 U2 C10 O34'
_cell_volume   936.16509640
_cell_formula_units_Z   2
loop_
 _symmetry_equiv_pos_site_id
 _symmetry_equiv_pos_as_xyz
  1  'x, y, z'
loop_
 _atom_site_type_symbol
 _atom_site_label
 _atom_site_symmetry_multiplicity
 _atom_site_fract_x
 _atom_site_fract_y
 _atom_site_fract_z
 _atom_site_occupancy
  K  K0  1  0.66219400  0.27678900  0.45023200  1
  K  K1  1  0.33780600  0.72321100  0.54976800  1
  K  K2  1  0.06816800  0.04346300  0.84831000  1
  K  K3  1  0.93183200  0.95653700  0.15169000  1
  K  K4  1  0.18718300  0.45491100  0.09651900  1
  K  K5  1  0.81281700  0.54508900  0.90348100  1
  U  U0  1  0.46936100  0.14403400  0.75765300  1
  U  U1  1  0.53063900  0.85596600  0.24234700  1
  C  C0  1  0.18039800  0.10660000  0.50116200  1
  C  C1  1  0.81960200  0.89340000  0.49883800  1
  C  C2  1  0.19235100  0.96353200  0.45636700  1
  C  C3  1  0.80764900  0.03646800  0.54363300  1
  C  C4  1  0.69078000  0.98605000  0.83858300  1
  C  C5  1  0.30922000  0.01395000  0.16141700  1
  C  C6  1  0.79107700  0.14584800  0.93857300  1
  C  C7  1  0.20892300  0.85415200  0.06142700  1
  C  C8  1  0.44803600  0.41551400  0.95757400  1
  C  C9  1  0.55196400  0.58448600  0.04242600  1
  O  O0  1  0.34545300  0.03613400  0.84428300  1
  O  O1  1  0.65454700  0.96386600  0.15571700  1
  O  O2  1  0.59724300  0.26161100  0.67477000  1
  O  O3  1  0.40275700  0.73838900  0.32523000  1
  O  O4  1  0.27102300  0.18086900  0.62538400  1
  O  O5  1  0.72897700  0.81913100  0.37461600  1
  O  O6  1  0.30122400  0.95687700  0.54889700  1
  O  O7  1  0.69877600  0.04312300  0.45110300  1
  O  O8  1  0.09360500  0.13839500  0.42131300  1
  O  O9  1  0.90639500  0.86160500  0.57868700  1
  O  O10  1  0.10715600  0.87260500  0.34481500  1
  O  O11  1  0.89284400  0.12739500  0.65518500  1
  O  O12  1  0.55952100  0.96431100  0.75344100  1
  O  O13  1  0.44047900  0.03568900  0.24655900  1
  O  O14  1  0.72182700  0.22465600  0.93077700  1
  O  O15  1  0.27817300  0.77534400  0.06922300  1
  O  O16  1  0.73968800  0.89556200  0.84395500  1
  O  O17  1  0.26031200  0.10443800  0.15604500  1
  O  O18  1  0.92813700  0.18775000  0.01490600  1
  O  O19  1  0.07186300  0.81225000  0.98509400  1
  O  O20  1  0.51929400  0.36691100  0.89950100  1
  O  O21  1  0.48070600  0.63308900  0.10049900  1
  O  O22  1  0.30983800  0.34292500  0.95128400  1
  O  O23  1  0.69016200  0.65707500  0.04871600  1
  O  O24  1  0.82722200  0.45104500  0.22379000  1
  O  O25  1  0.17277800  0.54895500  0.77621000  1
  O  O26  1  0.04855600  0.47584400  0.79393800  1
  O  O27  1  0.95144400  0.52415600  0.20606200  1
  O  O28  1  0.41738700  0.43092800  0.33784900  1
  O  O29  1  0.58261300  0.56907200  0.66215100  1
  O  O30  1  0.44535100  0.52314200  0.65464100  1
  O  O31  1  0.55464900  0.47685800  0.34535900  1
  O  O32  1  0.01570900  0.45064700  0.48238100  1
  O  O33  1  0.98429100  0.54935300  0.51761900  1
loop_
_geom_bond_atom_site_label_1
_geom_bond_atom_site_label_2
_geom_bond_distance
_geom_bond_site_symmetry_2
K0 O7 2.602173 1_555
K0 O2 2.668876 1_555
K0 O13 2.678229 1_555
K0 O31 2.930170 1_555
K0 O33 3.042199 1_555
K0 O32 3.121246 1_655
K1 O6 2.602173 1_555
K1 O3 2.668876 1_555
K1 O12 2.678229 1_555
K1 O30 2.930170 1_555
K1 O32 3.042199 1_555
K1 O33 3.121246 1_455
K2 O22 2.800046 1_555
K2 O11 2.823319 1_455
K2 O9 2.836238 1_445
K2 O0 2.870314 1_555
K2 O19 2.946208 1_545
K2 O16 2.980470 1_445
K2 O17 3.165203 1_556
K2 O18 3.185874 1_456
K3 O23 2.800046 1_555
K3 O10 2.823319 1_655
K3 O8 2.836238 1_665
K3 O1 2.870314 1_555
K3 O18 2.946208 1_565
K3 O17 2.980470 1_665
K3 O16 3.165203 1_554
K3 O19 3.185874 1_654
K4 O18 2.659964 1_455
K4 O22 2.698237 1_554
K4 O21 2.710749 1_555
K4 O3 3.027392 1_555
K4 O15 3.088985 1_555
K4 O28 3.095623 1_555
K4 O26 3.237068 1_554
K4 O27 3.247298 1_455
K5 O19 2.659964 1_655
K5 O23 2.698237 1_556
K5 O20 2.710749 1_555
K5 O2 3.027392 1_555
K5 O14 3.088985 1_555
K5 O29 3.095623 1_555
K5 O27 3.237068 1_556
K5 O26 3.247298 1_655
C0 O8 1.235746 1_555
C0 O4 1.298526 1_555
C1 O9 1.235746 1_555
C1 O5 1.298526 1_555
C2 O10 1.235006 1_555
C2 O6 1.302978 1_555
C3 O11 1.235006 1_555
C3 O7 1.302978 1_555
C4 O16 1.239261 1_555
C4 O12 1.299759 1_555
C5 O17 1.239261 1_555
C5 O13 1.299759 1_555
C6 O18 1.250565 1_556
C6 O14 1.288665 1_555
C7 O19 1.250565 1_554
C7 O15 1.288665 1_555
C8 O22 1.243578 1_555
C8 O20 1.292195 1_555
C9 O23 1.243578 1_555
C9 O21 1.292195 1_555
O0 U0 1.821629 1_555
O1 U1 1.821629 1_555
O2 U0 1.851430 1_555
O3 U1 1.851430 1_555
O4 U0 2.338128 1_555
O5 U1 2.338128 1_555
O6 U0 2.384232 1_565
O7 U1 2.384232 1_545
O12 U0 2.411237 1_565
O13 U1 2.411237 1_545
O14 U0 2.426629 1_555
O15 U1 2.426629 1_555
O20 U0 2.374967 1_555
O21 U1 2.374967 1_555
O24 O27 1.233411 1_555
O25 O26 1.233411 1_555
O28 O31 1.235323 1_555
O29 O30 1.235323 1_555
O32 O33 1.247852 1_455
