# generated using pymatgen
data_CrH
_symmetry_space_group_name_H-M   'P 1'
_cell_length_a   2.68519828
_cell_length_b   2.68519828
_cell_length_c   4.65010000
_cell_angle_alpha   90.00000000
_cell_angle_beta   90.00000000
_cell_angle_gamma   120.00000678
_symmetry_Int_Tables_number   1
_chemical_formula_structural   CrH
_chemical_formula_sum   'Cr2 H2'
_cell_volume   29.03659008
_cell_formula_units_Z   2
loop_
 _symmetry_equiv_pos_site_id
 _symmetry_equiv_pos_as_xyz
  1  'x, y, z'
loop_
 _atom_site_type_symbol
 _atom_site_label
 _atom_site_symmetry_multiplicity
 _atom_site_fract_x
 _atom_site_fract_y
 _atom_site_fract_z
 _atom_site_occupancy
  Cr  Cr0  1  0.00000000  0.00000000  0.50000000  1
  Cr  Cr1  1  0.00000000  0.00000000  0.00000000  1
  H  H0  1  0.33333300  0.66666700  0.25000000  1
  H  H1  1  0.66666700  0.33333300  0.75000000  1
loop_
_geom_bond_atom_site_label_1
_geom_bond_atom_site_label_2
_geom_bond_distance
_geom_bond_site_symmetry_2
Cr0 H0 1.937754 1_545
Cr0 H1 1.937754 1_455
Cr0 H0 1.937755 1_555
Cr0 H0 1.937755 1_445
Cr0 H1 1.937755 1_445
Cr0 H1 1.937755 1_555
Cr1 H1 1.937754 1_454
Cr1 H0 1.937754 1_545
Cr1 H0 1.937755 1_555
Cr1 H0 1.937755 1_445
Cr1 H1 1.937755 1_444
Cr1 H1 1.937755 1_554
