# generated using pymatgen
data_Ti2CoSe4
_symmetry_space_group_name_H-M   'P 1'
_cell_length_a   3.58842200
_cell_length_b   6.14362452
_cell_length_c   6.84211396
_cell_angle_alpha   116.35456077
_cell_angle_beta   105.20245368
_cell_angle_gamma   90.00000000
_symmetry_Int_Tables_number   1
_chemical_formula_structural   Ti2CoSe4
_chemical_formula_sum   'Ti2 Co1 Se4'
_cell_volume   129.24555767
_cell_formula_units_Z   1
loop_
 _symmetry_equiv_pos_site_id
 _symmetry_equiv_pos_as_xyz
  1  'x, y, z'
loop_
 _atom_site_type_symbol
 _atom_site_label
 _atom_site_symmetry_multiplicity
 _atom_site_fract_x
 _atom_site_fract_y
 _atom_site_fract_z
 _atom_site_occupancy
  Ti  Ti0  1  0.25218500  0.26472700  0.50437000  1
  Ti  Ti1  1  0.74781500  0.73527300  0.49563000  1
  Co  Co0  1  0.00000000  0.00000000  0.00000000  1
  Se  Se0  1  0.11393000  0.44950300  0.22786000  1
  Se  Se1  1  0.88607000  0.55049700  0.77214000  1
  Se  Se2  1  0.38061700  0.04532200  0.76123400  1
  Se  Se3  1  0.61938300  0.95467800  0.23876600  1
loop_
_geom_bond_atom_site_label_1
_geom_bond_atom_site_label_2
_geom_bond_distance
_geom_bond_site_symmetry_2
Co0 Se0 2.463173 1_555
Co0 Se1 2.463173 1_444
Co0 Se3 2.487151 1_445
Co0 Se3 2.487151 1_545
Co0 Se2 2.487151 1_554
Co0 Se2 2.487151 1_454
Se0 Ti0 2.555131 1_555
Se0 Ti1 2.563500 1_555
Se0 Ti1 2.563500 1_455
Se1 Ti1 2.555131 1_555
Se1 Ti0 2.563500 1_655
Se1 Ti0 2.563500 1_555
Se2 Ti0 2.607037 1_555
Se2 Ti1 2.617175 1_545
Se2 Ti1 2.617175 1_445
Se3 Ti1 2.607037 1_555
Se3 Ti0 2.617175 1_665
Se3 Ti0 2.617175 1_565
