# generated using pymatgen
data_BaNp(PO4)2
_symmetry_space_group_name_H-M   'P 1'
_cell_length_a   6.96080238
_cell_length_b   6.96080238
_cell_length_c   9.53736893
_cell_angle_alpha   78.28849753
_cell_angle_beta   78.28849753
_cell_angle_gamma   45.97047195
_symmetry_Int_Tables_number   1
_chemical_formula_structural   BaNp(PO4)2
_chemical_formula_sum   'Ba2 Np2 P4 O16'
_cell_volume   324.07313869
_cell_formula_units_Z   2
loop_
 _symmetry_equiv_pos_site_id
 _symmetry_equiv_pos_as_xyz
  1  'x, y, z'
loop_
 _atom_site_type_symbol
 _atom_site_label
 _atom_site_symmetry_multiplicity
 _atom_site_fract_x
 _atom_site_fract_y
 _atom_site_fract_z
 _atom_site_occupancy
  Ba  Ba0  1  0.00000000  0.50000000  0.00000000  1
  Ba  Ba1  1  0.50000000  0.00000000  0.50000000  1
  Np  Np0  1  0.18177400  0.81822600  0.25000000  1
  Np  Np1  1  0.81822600  0.18177400  0.75000000  1
  P  P0  1  0.64829700  0.17631000  0.11103600  1
  P  P1  1  0.82369000  0.35170300  0.38896400  1
  P  P2  1  0.35170300  0.82369000  0.88896400  1
  P  P3  1  0.17631000  0.64829700  0.61103600  1
  O  O0  1  0.79187600  0.90450200  0.20552100  1
  O  O1  1  0.09549800  0.20812400  0.29447900  1
  O  O2  1  0.20812400  0.09549800  0.79447900  1
  O  O3  1  0.90450200  0.79187600  0.70552100  1
  O  O4  1  0.37194500  0.41236400  0.18401000  1
  O  O5  1  0.58763600  0.62805500  0.31599000  1
  O  O6  1  0.62805500  0.58763600  0.81599000  1
  O  O7  1  0.41236400  0.37194500  0.68401000  1
  O  O8  1  0.84570700  0.21574700  0.09006900  1
  O  O9  1  0.78425300  0.15429300  0.40993100  1
  O  O10  1  0.15429300  0.78425300  0.90993100  1
  O  O11  1  0.21574700  0.84570700  0.59006900  1
  O  O12  1  0.59640000  0.15963500  0.96423400  1
  O  O13  1  0.84036500  0.40360000  0.53576600  1
  O  O14  1  0.40360000  0.84036500  0.03576600  1
  O  O15  1  0.15963500  0.59640000  0.46423400  1
loop_
_geom_bond_atom_site_label_1
_geom_bond_atom_site_label_2
_geom_bond_distance
_geom_bond_site_symmetry_2
Ba0 O10 2.774123 1_554
Ba0 O8 2.774123 1_455
Ba0 O1 3.003617 1_555
Ba0 O3 3.003617 1_454
Ba0 O12 3.007486 1_554
Ba0 O14 3.007486 1_455
Ba0 O0 3.047360 1_455
Ba0 O2 3.047360 1_554
Ba0 O6 3.061001 1_454
Ba0 O4 3.061001 1_555
Ba1 O11 2.774123 1_545
Ba1 O9 2.774123 1_555
Ba1 O0 3.003617 1_545
Ba1 O2 3.003617 1_555
Ba1 O13 3.007486 1_545
Ba1 O15 3.007486 1_555
Ba1 O3 3.047360 1_545
Ba1 O1 3.047360 1_555
Ba1 O5 3.061001 1_545
Ba1 O7 3.061001 1_555
Np0 O4 2.305405 1_555
Np0 O5 2.305405 1_555
Np0 O15 2.346248 1_555
Np0 O14 2.346248 1_555
Np0 O1 2.450460 1_565
Np0 O0 2.450460 1_455
Np0 O8 2.488543 1_465
Np0 O9 2.488543 1_465
Np1 O7 2.305405 1_555
Np1 O6 2.305405 1_555
Np1 O12 2.346248 1_555
Np1 O13 2.346248 1_555
Np1 O3 2.450460 1_545
Np1 O2 2.450460 1_655
Np1 O10 2.488543 1_645
Np1 O11 2.488543 1_645
O0 P0 1.560627 1_565
O1 P1 1.560627 1_455
O2 P2 1.560627 1_545
O3 P3 1.560627 1_655
O4 P0 1.552965 1_555
O5 P1 1.552965 1_555
O6 P2 1.552965 1_555
O7 P3 1.552965 1_555
O8 P0 1.547288 1_555
O9 P1 1.547288 1_555
O10 P2 1.547288 1_555
O11 P3 1.547288 1_555
O12 P0 1.560082 1_556
O13 P1 1.560082 1_555
O14 P2 1.560082 1_554
O15 P3 1.560082 1_555
