# generated using pymatgen
data_Li4MnCo3O8
_symmetry_space_group_name_H-M   'P 1'
_cell_length_a   3.04683582
_cell_length_b   12.03987896
_cell_length_c   8.05016604
_cell_angle_alpha   89.16633374
_cell_angle_beta   89.32615605
_cell_angle_gamma   93.56523391
_symmetry_Int_Tables_number   1
_chemical_formula_structural   Li4MnCo3O8
_chemical_formula_sum   'Li8 Mn2 Co6 O16'
_cell_volume   294.68208377
_cell_formula_units_Z   2
loop_
 _symmetry_equiv_pos_site_id
 _symmetry_equiv_pos_as_xyz
  1  'x, y, z'
loop_
 _atom_site_type_symbol
 _atom_site_label
 _atom_site_symmetry_multiplicity
 _atom_site_fract_x
 _atom_site_fract_y
 _atom_site_fract_z
 _atom_site_occupancy
  Li  Li0  1  0.50848700  0.12702100  0.24932600  1
  Li  Li1  1  0.49148400  0.62301300  0.25064200  1
  Li  Li2  1  0.49998500  0.37498400  0.75001500  1
  Li  Li3  1  0.50002100  0.87500200  0.75001000  1
  Li  Li4  1  0.99997000  0.25358100  0.00257700  1
  Li  Li5  1  0.99153300  0.75064100  0.00535800  1
  Li  Li6  1  0.99990500  0.49646800  0.49743300  1
  Li  Li7  1  0.00859700  0.99934900  0.49461800  1
  Mn  Mn0  1  0.52815500  0.12683200  0.74852900  1
  Mn  Mn1  1  0.47191200  0.62316200  0.75153000  1
  Co  Co0  1  0.49986600  0.37500100  0.24997700  1
  Co  Co1  1  0.02882500  0.00050200  0.00006300  1
  Co  Co2  1  0.97126500  0.74952300  0.49994000  1
  Co  Co3  1  0.50000700  0.87498700  0.24999100  1
  Co  Co4  1  0.98808200  0.49782700  0.00302900  1
  Co  Co5  1  0.01179900  0.25218300  0.49695300  1
  O  O0  1  0.54373700  0.11994800  0.98907600  1
  O  O1  1  0.44928100  0.61632100  0.99343800  1
  O  O2  1  0.55123300  0.13360700  0.50652800  1
  O  O3  1  0.45639500  0.63006300  0.51094000  1
  O  O4  1  0.96207300  0.49227000  0.23861200  1
  O  O5  1  0.02404300  0.99416500  0.23794300  1
  O  O6  1  0.03769300  0.25772800  0.26134100  1
  O  O7  1  0.97602300  0.75579600  0.26206100  1
  O  O8  1  0.99224400  0.24845800  0.73518500  1
  O  O9  1  0.94284800  0.74458400  0.73945300  1
  O  O10  1  0.05726000  0.00542500  0.76058200  1
  O  O11  1  0.00771300  0.50155300  0.76484300  1
  O  O12  1  0.47430400  0.36930900  0.48586300  1
  O  O13  1  0.49463700  0.87002200  0.48803200  1
  O  O14  1  0.52522000  0.38071500  0.01413300  1
  O  O15  1  0.50540300  0.87996000  0.01197900  1
loop_
_geom_bond_atom_site_label_1
_geom_bond_atom_site_label_2
_geom_bond_distance
_geom_bond_site_symmetry_2
Li0 O2 2.078493 1_555
Li0 O0 2.099781 1_554
Li0 O5 2.111746 1_545
Li0 O6 2.185918 1_655
Li0 O6 2.196676 1_555
Li0 O5 2.312543 1_645
Li1 O1 2.078454 1_554
Li1 O3 2.100130 1_555
Li1 O7 2.111325 1_555
Li1 O4 2.186652 1_455
Li1 O4 2.196575 1_555
Li1 O7 2.311701 1_455
Li2 O8 2.108230 1_455
Li2 O11 2.108552 1_655
Li2 O14 2.130452 1_556
Li2 O12 2.130758 1_555
Li2 O8 2.206719 1_555
Li2 O11 2.207126 1_555
Li3 O15 2.110834 1_556
Li3 O13 2.110918 1_555
Li3 O10 2.134833 1_565
Li3 O9 2.134918 1_555
Li3 O9 2.242867 1_455
Li3 O10 2.243057 1_665
Li4 O0 2.064758 1_554
Li4 O6 2.088762 1_655
Li4 O14 2.148427 1_655
Li4 O8 2.154694 1_554
Li4 O14 2.172624 1_555
Li4 O0 2.382795 1_654
Li5 O7 2.068409 1_555
Li5 O15 2.139997 1_655
Li5 O9 2.149434 1_554
Li5 O1 2.202624 1_654
Li5 O15 2.215456 1_555
Li5 O1 2.242786 1_554
Li6 O3 2.064914 1_655
Li6 O4 2.089263 1_555
Li6 O12 2.149384 1_555
Li6 O11 2.154824 1_655
Li6 O12 2.172096 1_655
Li6 O3 2.381891 1_555
Li7 O5 2.068197 1_555
Li7 O13 2.140238 1_455
Li7 O10 2.149913 1_565
Li7 O2 2.201249 1_465
Li7 O13 2.215325 1_555
Li7 O2 2.243087 1_565
Mn0 O0 1.938277 1_555
Mn0 O2 1.948928 1_555
Mn0 O8 1.972214 1_555
Mn0 O10 1.984012 1_555
Mn0 O10 2.244445 1_655
Mn0 O8 2.262513 1_455
Mn1 O3 1.938621 1_555
Mn1 O1 1.948171 1_555
Mn1 O11 1.972287 1_555
Mn1 O9 1.984227 1_555
Mn1 O9 2.244484 1_455
Mn1 O11 2.262104 1_655
Co0 O14 1.899318 1_555
Co0 O12 1.899667 1_555
Co0 O6 1.931538 1_555
Co0 O4 1.931576 1_555
Co0 O4 2.230301 1_455
Co0 O6 2.230414 1_655
Co1 O5 1.915231 1_545
Co1 O10 1.928673 1_554
Co1 O0 2.061487 1_554
Co1 O15 2.088857 1_445
Co1 O15 2.117850 1_545
Co1 O0 2.127007 1_454
Co2 O7 1.915205 1_555
Co2 O9 1.928931 1_555
Co2 O3 2.061507 1_555
Co2 O13 2.088411 1_655
Co2 O13 2.117582 1_555
Co2 O3 2.127226 1_655
Co3 O15 1.915946 1_555
Co3 O13 1.916178 1_555
Co3 O7 2.079650 1_455
Co3 O5 2.079659 1_655
Co3 O5 2.104614 1_555
Co3 O7 2.104851 1_555
Co4 O4 1.897239 1_555
Co4 O11 1.917451 1_654
Co4 O14 1.931589 1_555
Co4 O1 1.939277 1_654
Co4 O14 2.227390 1_655
Co4 O1 2.242172 1_554
Co5 O6 1.897459 1_555
Co5 O8 1.917817 1_455
Co5 O12 1.930957 1_555
Co5 O2 1.938649 1_455
Co5 O12 2.228342 1_455
Co5 O2 2.244329 1_555
