# generated using pymatgen
data_Mg6CdBiO8
_symmetry_space_group_name_H-M   'P 1'
_cell_length_a   9.18930478
_cell_length_b   4.57487140
_cell_length_c   4.57487140
_cell_angle_alpha   90.00000000
_cell_angle_beta   90.00000000
_cell_angle_gamma   90.00000000
_symmetry_Int_Tables_number   1
_chemical_formula_structural   Mg6CdBiO8
_chemical_formula_sum   'Mg6 Cd1 Bi1 O8'
_cell_volume   192.32707955
_cell_formula_units_Z   1
loop_
 _symmetry_equiv_pos_site_id
 _symmetry_equiv_pos_as_xyz
  1  'x, y, z'
loop_
 _atom_site_type_symbol
 _atom_site_label
 _atom_site_symmetry_multiplicity
 _atom_site_fract_x
 _atom_site_fract_y
 _atom_site_fract_z
 _atom_site_occupancy
  Mg  Mg0  1  -0.00000000  0.50000000  0.50000000  1
  Mg  Mg1  1  0.50000000  0.50000000  0.50000000  1
  Mg  Mg2  1  0.23513313  0.00000000  0.50000000  1
  Mg  Mg3  1  0.76486687  -0.00000000  0.50000000  1
  Mg  Mg4  1  0.23513313  0.50000000  -0.00000000  1
  Mg  Mg5  1  0.76486687  0.50000000  0.00000000  1
  Cd  Cd0  1  -0.00000000  -0.00000000  0.00000000  1
  Bi  Bi0  1  0.50000000  -0.00000000  0.00000000  1
  O  O0  1  0.24783640  -0.00000000  -0.00000000  1
  O  O1  1  0.75216360  0.00000000  0.00000000  1
  O  O2  1  0.25292185  0.50000000  0.50000000  1
  O  O3  1  0.74707815  0.50000000  0.50000000  1
  O  O4  1  -0.00000000  -0.00000000  0.50000000  1
  O  O5  1  0.50000000  -0.00000000  0.50000000  1
  O  O6  1  -0.00000000  0.50000000  0.00000000  1
  O  O7  1  0.50000000  0.50000000  0.00000000  1
loop_
_geom_bond_atom_site_label_1
_geom_bond_atom_site_label_2
_geom_bond_distance
_geom_bond_site_symmetry_2
Mg0 O6 2.287436 1_556
Mg0 O6 2.287436 1_555
Mg0 O4 2.287436 1_555
Mg0 O4 2.287436 1_565
Mg0 O2 2.324176 1_555
Mg0 O3 2.324176 1_455
Mg1 O2 2.270476 1_555
Mg1 O3 2.270476 1_555
Mg1 O5 2.287436 1_565
Mg1 O7 2.287436 1_555
Mg1 O7 2.287436 1_556
Mg1 O5 2.287436 1_555
Mg2 O4 2.160710 1_555
Mg2 O0 2.290412 1_556
Mg2 O0 2.290412 1_555
Mg2 O2 2.293269 1_545
Mg2 O2 2.293269 1_555
Mg2 O5 2.433942 1_555
Mg3 O4 2.160710 1_655
Mg3 O1 2.290412 1_555
Mg3 O1 2.290412 1_556
Mg3 O3 2.293269 1_545
Mg3 O3 2.293269 1_555
Mg3 O5 2.433942 1_555
Mg4 O6 2.160710 1_555
Mg4 O0 2.290412 1_565
Mg4 O0 2.290412 1_555
Mg4 O2 2.293269 1_554
Mg4 O2 2.293269 1_555
Mg4 O7 2.433942 1_555
Mg5 O6 2.160710 1_655
Mg5 O1 2.290412 1_555
Mg5 O1 2.290412 1_565
Mg5 O3 2.293269 1_554
Mg5 O3 2.293269 1_555
Mg5 O7 2.433942 1_555
Cd0 O0 2.277444 1_555
Cd0 O1 2.277444 1_455
Cd0 O6 2.287436 1_555
Cd0 O4 2.287436 1_555
Cd0 O4 2.287436 1_554
Cd0 O6 2.287436 1_545
Bi0 O7 2.287436 1_555
Bi0 O5 2.287436 1_554
Bi0 O5 2.287436 1_555
Bi0 O7 2.287436 1_545
Bi0 O1 2.317208 1_555
Bi0 O0 2.317208 1_555
