# generated using pymatgen
data_La2(SiIr)3
_symmetry_space_group_name_H-M   'P 1'
_cell_length_a   6.19465500
_cell_length_b   6.19465500
_cell_length_c   19.49597400
_cell_angle_alpha   90.00000000
_cell_angle_beta   90.00000000
_cell_angle_gamma   90.00000000
_symmetry_Int_Tables_number   1
_chemical_formula_structural   La2(SiIr)3
_chemical_formula_sum   'La2 Si3 Ir3'
_cell_volume   748.13364338
_cell_formula_units_Z   1
loop_
 _symmetry_equiv_pos_site_id
 _symmetry_equiv_pos_as_xyz
  1  'x, y, z'
loop_
 _atom_site_type_symbol
 _atom_site_label
 _atom_site_symmetry_multiplicity
 _atom_site_fract_x
 _atom_site_fract_y
 _atom_site_fract_z
 _atom_site_occupancy
  La  La0  1  0.50000000  0.50000000  0.76806800  1
  La  La1  1  0.50000000  0.50000000  0.23193200  1
  Si  Si0  1  0.50000000  0.50000000  0.38371500  1
  Si  Si1  1  0.50000000  0.50000000  0.61628500  1
  Si  Si2  1  0.50000000  0.50000000  0.00000000  1
  Ir  Ir0  1  0.50000000  0.50000000  0.11790800  1
  Ir  Ir1  1  0.50000000  0.50000000  0.88209200  1
  Ir  Ir2  1  0.50000000  0.50000000  0.50000000  1
loop_
_geom_bond_atom_site_label_1
_geom_bond_atom_site_label_2
_geom_bond_distance
_geom_bond_site_symmetry_2
La0 Si1 2.959157 1_555
La1 Si0 2.959157 1_555
Ir0 La1 2.223009 1_555
Ir0 Si2 2.298731 1_555
Ir1 La0 2.223009 1_555
Ir1 Si2 2.298731 1_556
Ir2 Si1 2.267089 1_555
Ir2 Si0 2.267089 1_555
