# generated using pymatgen
data_La3ZrGa5O14
_symmetry_space_group_name_H-M   'P 1'
_cell_length_a   8.35569823
_cell_length_b   8.35569823
_cell_length_c   5.21733900
_cell_angle_alpha   90.00000000
_cell_angle_beta   90.00000000
_cell_angle_gamma   120.00000182
_symmetry_Int_Tables_number   1
_chemical_formula_structural   La3ZrGa5O14
_chemical_formula_sum   'La3 Zr1 Ga5 O14'
_cell_volume   315.46063531
_cell_formula_units_Z   1
loop_
 _symmetry_equiv_pos_site_id
 _symmetry_equiv_pos_as_xyz
  1  'x, y, z'
loop_
 _atom_site_type_symbol
 _atom_site_label
 _atom_site_symmetry_multiplicity
 _atom_site_fract_x
 _atom_site_fract_y
 _atom_site_fract_z
 _atom_site_occupancy
  La  La0  1  0.57354800  0.00000000  0.00000000  1
  La  La1  1  0.00000000  0.57354800  0.00000000  1
  La  La2  1  0.42645200  0.42645200  0.00000000  1
  Zr  Zr0  1  0.00000000  0.00000000  0.00000000  1
  Ga  Ga0  1  0.33333300  0.66666700  0.53016800  1
  Ga  Ga1  1  0.66666700  0.33333300  0.46983200  1
  Ga  Ga2  1  0.24569800  0.00000000  0.50000000  1
  Ga  Ga3  1  0.00000000  0.24569800  0.50000000  1
  Ga  Ga4  1  0.75430200  0.75430200  0.50000000  1
  O  O0  1  0.14972700  0.22965500  0.24538000  1
  O  O1  1  0.77034500  0.92007200  0.24538000  1
  O  O2  1  0.22965500  0.14972700  0.75462000  1
  O  O3  1  0.07992800  0.85027300  0.24538000  1
  O  O4  1  0.92007200  0.77034500  0.75462000  1
  O  O5  1  0.85027300  0.07992800  0.75462000  1
  O  O6  1  0.33333300  0.66666700  0.18099800  1
  O  O7  1  0.66666700  0.33333300  0.81900200  1
  O  O8  1  0.45846700  0.14645900  0.30082900  1
  O  O9  1  0.85354100  0.31200800  0.30082900  1
  O  O10  1  0.14645900  0.45846700  0.69917100  1
  O  O11  1  0.68799200  0.54153300  0.30082900  1
  O  O12  1  0.31200800  0.85354100  0.69917100  1
  O  O13  1  0.54153300  0.68799200  0.69917100  1
loop_
_geom_bond_atom_site_label_1
_geom_bond_atom_site_label_2
_geom_bond_distance
_geom_bond_site_symmetry_2
La0 O5 2.426355 1_554
La0 O1 2.426355 1_545
La0 O12 2.462197 1_544
La0 O8 2.462197 1_555
La0 O7 2.662244 1_554
La0 O6 2.662246 1_545
La0 O9 2.938410 1_555
La0 O13 2.938410 1_544
La1 O3 2.426355 1_555
La1 O4 2.426355 1_454
La1 O9 2.462197 1_455
La1 O10 2.462197 1_554
La1 O6 2.662244 1_555
La1 O7 2.662246 1_454
La1 O12 2.938410 1_554
La1 O11 2.938410 1_455
La2 O2 2.426355 1_554
La2 O0 2.426355 1_555
La2 O13 2.462197 1_554
La2 O11 2.462197 1_555
La2 O6 2.662252 1_555
La2 O7 2.662252 1_554
La2 O8 2.938410 1_555
La2 O10 2.938410 1_554
Ga0 O6 1.821738 1_555
Ga0 O12 1.877664 1_555
Ga0 O10 1.877668 1_555
Ga0 O13 1.877671 1_555
Ga1 O7 1.821738 1_555
Ga1 O9 1.877664 1_555
Ga1 O8 1.877668 1_555
Ga1 O11 1.877671 1_555
Ga2 O3 1.874996 1_545
Ga2 O2 1.874996 1_555
Ga2 O8 1.887448 1_555
Ga2 O12 1.887448 1_545
Ga3 O5 1.874996 1_455
Ga3 O0 1.874996 1_555
Ga3 O10 1.887448 1_555
Ga3 O9 1.887448 1_455
Ga4 O1 1.874996 1_555
Ga4 O4 1.874996 1_555
Ga4 O11 1.887448 1_555
Ga4 O13 1.887448 1_555
O0 Zr0 2.117956 1_555
O1 Zr0 2.117957 1_665
O2 Zr0 2.117956 1_556
O3 Zr0 2.117957 1_565
O4 Zr0 2.117957 1_666
O5 Zr0 2.117957 1_656
