# generated using pymatgen
data_Sm2NiPtO6
_symmetry_space_group_name_H-M   'P 1'
_cell_length_a   5.78709800
_cell_length_b   5.42864900
_cell_length_c   9.49846111
_cell_angle_alpha   55.06518442
_cell_angle_beta   90.00000000
_cell_angle_gamma   90.00000000
_symmetry_Int_Tables_number   1
_chemical_formula_structural   Sm2NiPtO6
_chemical_formula_sum   'Sm4 Ni2 Pt2 O12'
_cell_volume   244.63349162
_cell_formula_units_Z   2
loop_
 _symmetry_equiv_pos_site_id
 _symmetry_equiv_pos_as_xyz
  1  'x, y, z'
loop_
 _atom_site_type_symbol
 _atom_site_label
 _atom_site_symmetry_multiplicity
 _atom_site_fract_x
 _atom_site_fract_y
 _atom_site_fract_z
 _atom_site_occupancy
  Sm  Sm0  1  0.42838700  0.22946200  0.74898100  1
  Sm  Sm1  1  0.57161300  0.77053800  0.25101900  1
  Sm  Sm2  1  0.92838700  0.77053800  0.75101900  1
  Sm  Sm3  1  0.07161300  0.22946200  0.24898100  1
  Ni  Ni0  1  0.00000000  0.50000000  0.50000000  1
  Ni  Ni1  1  0.50000000  0.50000000  0.00000000  1
  Pt  Pt0  1  0.00000000  0.00000000  0.00000000  1
  Pt  Pt1  1  0.50000000  0.00000000  0.50000000  1
  O  O0  1  0.03934100  0.36236700  0.75054000  1
  O  O1  1  0.96065900  0.63763300  0.24946000  1
  O  O2  1  0.53934100  0.63763300  0.74946000  1
  O  O3  1  0.46065900  0.36236700  0.25054000  1
  O  O4  1  0.70084200  0.86997200  0.94157800  1
  O  O5  1  0.29915800  0.13002800  0.05842200  1
  O  O6  1  0.20084200  0.13002800  0.55842200  1
  O  O7  1  0.79915800  0.86997200  0.44157800  1
  O  O8  1  0.19533600  0.74764800  0.94506100  1
  O  O9  1  0.80466400  0.25235200  0.05493900  1
  O  O10  1  0.69533600  0.25235200  0.55493900  1
  O  O11  1  0.30466400  0.74764800  0.44506100  1
loop_
_geom_bond_atom_site_label_1
_geom_bond_atom_site_label_2
_geom_bond_distance
_geom_bond_site_symmetry_2
Ni0 O0 2.058369 1_555
Ni0 O1 2.058369 1_455
Ni0 O11 2.093996 1_555
Ni0 O10 2.093996 1_455
Ni0 O7 2.101492 1_455
Ni0 O6 2.101492 1_555
Ni1 O3 2.058369 1_555
Ni1 O2 2.058369 1_554
Ni1 O9 2.093996 1_555
Ni1 O8 2.093996 1_554
Ni1 O4 2.101492 1_554
Ni1 O5 2.101492 1_555
O0 Pt0 2.048817 1_556
O0 Sm2 2.309482 1_455
O0 Sm0 2.366860 1_555
O1 Pt0 2.048817 1_665
O1 Sm3 2.309482 1_655
O1 Sm1 2.366860 1_555
O2 Pt1 2.048817 1_565
O2 Sm0 2.309482 1_555
O2 Sm2 2.366860 1_555
O3 Pt1 2.048817 1_555
O3 Sm1 2.309482 1_555
O3 Sm3 2.366860 1_555
O4 Pt0 2.062053 1_666
O4 Sm0 2.356352 1_565
O4 Sm2 2.533881 1_555
O4 Sm1 2.769941 1_556
O5 Pt0 2.062053 1_555
O5 Sm1 2.356352 1_545
O5 Sm3 2.533881 1_555
O5 Sm0 2.769941 1_554
O6 Pt1 2.062053 1_555
O6 Sm2 2.356352 1_445
O6 Sm0 2.533881 1_555
O6 Sm3 2.769941 1_555
O7 Pt1 2.062053 1_565
O7 Sm3 2.356352 1_665
O7 Sm1 2.533881 1_555
O7 Sm2 2.769941 1_555
O8 Pt0 2.060493 1_566
O8 Sm2 2.353030 1_455
O8 Sm0 2.559270 1_565
O8 Sm3 2.731097 1_556
O9 Pt0 2.060493 1_655
O9 Sm3 2.353030 1_655
O9 Sm1 2.559270 1_545
O9 Sm2 2.731097 1_554
O10 Pt1 2.060493 1_555
O10 Sm0 2.353030 1_555
O10 Sm2 2.559270 1_545
O10 Sm1 2.731097 1_555
O11 Pt1 2.060493 1_565
O11 Sm1 2.353030 1_555
O11 Sm3 2.559270 1_565
O11 Sm0 2.731097 1_555
