# generated using pymatgen
data_Nd5CoSi2
_symmetry_space_group_name_H-M   'P 1'
_cell_length_a   8.82698000
_cell_length_b   8.78875006
_cell_length_c   7.86403847
_cell_angle_alpha   63.73519780
_cell_angle_beta   63.23671519
_cell_angle_gamma   53.02808702
_symmetry_Int_Tables_number   1
_chemical_formula_structural   Nd5CoSi2
_chemical_formula_sum   'Nd10 Co2 Si4'
_cell_volume   422.40136647
_cell_formula_units_Z   2
loop_
 _symmetry_equiv_pos_site_id
 _symmetry_equiv_pos_as_xyz
  1  'x, y, z'
loop_
 _atom_site_type_symbol
 _atom_site_label
 _atom_site_symmetry_multiplicity
 _atom_site_fract_x
 _atom_site_fract_y
 _atom_site_fract_z
 _atom_site_occupancy
  Nd  Nd0  1  0.00000000  0.00000000  0.50000000  1
  Nd  Nd1  1  0.50000000  0.50000000  0.00000000  1
  Nd  Nd2  1  0.19429600  0.52265400  0.80570400  1
  Nd  Nd3  1  0.52265400  0.19429600  0.47734600  1
  Nd  Nd4  1  0.03543200  0.67605100  0.32394900  1
  Nd  Nd5  1  0.67605100  0.03543200  0.96456800  1
  Nd  Nd6  1  0.80570400  0.47734600  0.19429600  1
  Nd  Nd7  1  0.47734600  0.80570400  0.52265400  1
  Nd  Nd8  1  0.96456800  0.32394900  0.67605100  1
  Nd  Nd9  1  0.32394900  0.96456800  0.03543200  1
  Co  Co0  1  0.38384000  0.61616000  0.38384000  1
  Co  Co1  1  0.61616000  0.38384000  0.61616000  1
  Si  Si0  1  0.75000000  0.75000000  0.75000000  1
  Si  Si1  1  0.25000000  0.25000000  0.25000000  1
  Si  Si2  1  0.11549000  0.88451000  0.88451000  1
  Si  Si3  1  0.88451000  0.11549000  0.11549000  1
loop_
_geom_bond_atom_site_label_1
_geom_bond_atom_site_label_2
_geom_bond_distance
_geom_bond_site_symmetry_2
Nd0 Si3 3.166709 1_455
Nd0 Si2 3.166709 1_545
Nd0 Si0 3.415307 1_445
Nd0 Si1 3.415307 1_555
Nd1 Si3 3.166709 1_555
Nd1 Si2 3.166709 1_554
Nd1 Si1 3.415307 1_555
Nd1 Si0 3.415307 1_554
Nd2 Si2 3.110805 1_555
Nd2 Si1 3.303280 1_556
Nd2 Si0 3.303280 1_455
Nd3 Si3 3.110805 1_555
Nd3 Si1 3.303280 1_555
Nd3 Si0 3.303280 1_545
Nd4 Si2 3.090754 1_554
Nd4 Si3 3.090754 1_465
Nd4 Si1 3.217305 1_555
Nd4 Si0 3.217305 1_455
Nd5 Si3 3.090754 1_556
Nd5 Si2 3.090754 1_645
Nd5 Si1 3.217305 1_556
Nd5 Si0 3.217305 1_545
Nd6 Si3 3.110805 1_555
Nd6 Si0 3.303280 1_554
Nd6 Si1 3.303280 1_655
Nd7 Si2 3.110805 1_555
Nd7 Si1 3.303280 1_565
Nd7 Si0 3.303280 1_555
Nd8 Si2 3.090754 1_645
Nd8 Si3 3.090754 1_556
Nd8 Si1 3.217305 1_655
Nd8 Si0 3.217305 1_555
Nd9 Si3 3.090754 1_465
Nd9 Si2 3.090754 1_554
Nd9 Si1 3.217305 1_565
Nd9 Si0 3.217305 1_554
Co0 Co1 2.597760 1_555
Co0 Nd7 2.953434 1_555
Co0 Nd6 2.953434 1_555
Co0 Nd2 2.953434 1_555
Co0 Nd3 2.953434 1_555
Co0 Nd9 3.015768 1_555
Co0 Nd4 3.015768 1_555
Co0 Nd0 3.144192 1_565
Co0 Nd1 3.144192 1_555
Co1 Nd7 2.953434 1_555
Co1 Nd2 2.953434 1_555
Co1 Nd6 2.953434 1_555
Co1 Nd3 2.953434 1_555
Co1 Nd8 3.015768 1_555
Co1 Nd5 3.015768 1_555
Co1 Nd1 3.144192 1_556
Co1 Nd0 3.144192 1_655
Si2 Si3 2.554803 1_466
