# generated using pymatgen
data_K2VCuSe4
_symmetry_space_group_name_H-M   'P 1'
_cell_length_a   13.73114308
_cell_length_b   12.26960011
_cell_length_c   7.34485206
_cell_angle_alpha   84.92437491
_cell_angle_beta   62.88030466
_cell_angle_gamma   32.19532042
_symmetry_Int_Tables_number   1
_chemical_formula_structural   K2VCuSe4
_chemical_formula_sum   'K4 V2 Cu2 Se8'
_cell_volume   457.20065297
_cell_formula_units_Z   2
loop_
 _symmetry_equiv_pos_site_id
 _symmetry_equiv_pos_as_xyz
  1  'x, y, z'
loop_
 _atom_site_type_symbol
 _atom_site_label
 _atom_site_symmetry_multiplicity
 _atom_site_fract_x
 _atom_site_fract_y
 _atom_site_fract_z
 _atom_site_occupancy
  K  K0  1  0.68003400  0.68003400  0.31996600  1
  K  K1  1  0.31996600  0.31996600  0.68003400  1
  K  K2  1  0.56996600  0.56996600  0.93003400  1
  K  K3  1  0.93003400  0.93003400  0.56996600  1
  V  V0  1  0.50000000  0.50000000  0.50000000  1
  V  V1  1  0.75000000  0.75000000  0.75000000  1
  Cu  Cu0  1  0.00000000  0.00000000  0.00000000  1
  Cu  Cu1  1  0.25000000  0.25000000  0.25000000  1
  Se  Se0  1  0.36077000  0.02672900  0.93984400  1
  Se  Se1  1  0.67265700  0.93984400  0.02672900  1
  Se  Se2  1  0.93984400  0.67265700  0.36077000  1
  Se  Se3  1  0.02672900  0.36077000  0.67265700  1
  Se  Se4  1  0.88923000  0.22327100  0.31015600  1
  Se  Se5  1  0.57734300  0.31015600  0.22327100  1
  Se  Se6  1  0.31015600  0.57734300  0.88923000  1
  Se  Se7  1  0.22327100  0.88923000  0.57734300  1
loop_
_geom_bond_atom_site_label_1
_geom_bond_atom_site_label_2
_geom_bond_distance
_geom_bond_site_symmetry_2
K0 Se3 3.422077 1_654
K0 Se0 3.422077 1_565
K0 Se7 3.507327 1_555
K0 Se4 3.507327 1_555
K0 Se3 3.574443 1_565
K0 Se0 3.574443 1_654
K0 Se1 3.639842 1_555
K0 Se2 3.639842 1_555
K1 Se1 3.422077 1_456
K1 Se2 3.422077 1_545
K1 Se5 3.507327 1_555
K1 Se6 3.507327 1_555
K1 Se1 3.574443 1_545
K1 Se2 3.574443 1_456
K1 Se3 3.639842 1_555
K1 Se0 3.639842 1_555
K2 Se4 3.422077 1_555
K2 Se7 3.422077 1_556
K2 Se0 3.507327 1_565
K2 Se3 3.507327 1_655
K2 Se4 3.574443 1_466
K2 Se7 3.574443 1_645
K2 Se6 3.639842 1_555
K2 Se5 3.639842 1_556
K3 Se6 3.422077 1_565
K3 Se5 3.422077 1_655
K3 Se2 3.507327 1_555
K3 Se1 3.507327 1_556
K3 Se6 3.574443 1_654
K3 Se5 3.574443 1_566
K3 Se4 3.639842 1_565
K3 Se7 3.639842 1_655
Cu0 Se4 2.429145 1_455
Cu0 Se7 2.429145 1_544
Cu0 Se6 2.429145 1_544
Cu0 Se5 2.429145 1_455
Cu1 Se3 2.429145 1_555
Cu1 Se1 2.429145 1_545
Cu1 Se0 2.429145 1_554
Cu1 Se2 2.429145 1_455
Se0 V1 2.316836 1_545
Se1 V1 2.316836 1_554
Se2 V1 2.316836 1_555
Se3 V1 2.316836 1_455
Se4 V0 2.316836 1_555
Se5 V0 2.316836 1_555
Se6 V0 2.316836 1_555
Se7 V0 2.316836 1_555
