# generated using pymatgen
data_LiV2NiO6
_symmetry_space_group_name_H-M   'P 1'
_cell_length_a   5.61628737
_cell_length_b   6.92111570
_cell_length_c   6.92134417
_cell_angle_alpha   102.48290220
_cell_angle_beta   72.01964428
_cell_angle_gamma   107.97556286
_symmetry_Int_Tables_number   1
_chemical_formula_structural   LiV2NiO6
_chemical_formula_sum   'Li2 V4 Ni2 O12'
_cell_volume   241.22676566
_cell_formula_units_Z   2
loop_
 _symmetry_equiv_pos_site_id
 _symmetry_equiv_pos_as_xyz
  1  'x, y, z'
loop_
 _atom_site_type_symbol
 _atom_site_label
 _atom_site_symmetry_multiplicity
 _atom_site_fract_x
 _atom_site_fract_y
 _atom_site_fract_z
 _atom_site_occupancy
  Li  Li0  1  0.24934500  0.27139700  0.27196600  1
  Li  Li1  1  0.74980000  0.72251600  0.72265600  1
  V  V0  1  0.26361000  0.81660100  0.37798800  1
  V  V1  1  0.70119700  0.16046600  0.61114600  1
  V  V2  1  0.23635700  0.37788800  0.81644800  1
  V  V3  1  0.79867400  0.61127200  0.16055300  1
  Ni  Ni0  1  0.75015300  0.07036000  0.07032000  1
  Ni  Ni1  1  0.25012100  0.91287500  0.91286300  1
  O  O0  1  0.64763900  0.99096700  0.79814500  1
  O  O1  1  0.15169700  0.19657500  0.98263000  1
  O  O2  1  0.85244100  0.79806700  0.99075800  1
  O  O3  1  0.34846900  0.98270800  0.19653400  1
  O  O4  1  0.81397900  0.10710400  0.35264300  1
  O  O5  1  0.68640500  0.35276100  0.10758200  1
  O  O6  1  0.19005400  0.60862600  0.96543300  1
  O  O7  1  0.31019000  0.96568100  0.60859700  1
  O  O8  1  0.56859100  0.40811500  0.69486300  1
  O  O9  1  0.05731600  0.31403200  0.63669500  1
  O  O10  1  0.93137200  0.69516500  0.40820200  1
  O  O11  1  0.44259000  0.63682500  0.31397800  1
loop_
_geom_bond_atom_site_label_1
_geom_bond_atom_site_label_2
_geom_bond_distance
_geom_bond_site_symmetry_2
Li0 O3 2.151944 1_545
Li0 O1 2.152617 1_554
Li0 O4 2.301943 1_455
Li0 O5 2.310088 1_555
Li0 O9 2.411728 1_555
Li0 O11 2.416989 1_555
Li1 O2 2.025829 1_555
Li1 O0 2.026706 1_555
Li1 O8 2.093035 1_555
Li1 O10 2.093669 1_555
Ni0 O5 2.042519 1_555
Ni0 O4 2.042758 1_555
Ni0 O0 2.051597 1_544
Ni0 O2 2.051626 1_544
Ni0 O1 2.094168 1_654
Ni0 O3 2.094810 1_545
Ni1 O0 2.062347 1_555
Ni1 O2 2.063222 1_455
Ni1 O3 2.118515 1_556
Ni1 O1 2.118821 1_565
Ni1 O6 2.120690 1_555
Ni1 O7 2.121396 1_555
O0 V1 1.827591 1_565
O1 V2 1.744086 1_555
O2 V3 1.827693 1_556
O3 V0 1.744297 1_555
O4 V1 1.702312 1_555
O5 V3 1.701766 1_555
O6 V2 1.749324 1_555
O6 V3 2.199378 1_456
O7 V0 1.749259 1_555
O7 V1 2.196944 1_565
O8 V2 1.760495 1_555
O8 V1 1.979989 1_555
O9 V2 1.736283 1_555
O9 V1 1.996551 1_455
O10 V0 1.760390 1_655
O10 V3 1.980383 1_555
O11 V0 1.735973 1_555
O11 V3 1.996097 1_555
