# generated using pymatgen
data_Yb4Ni2C5
_symmetry_space_group_name_H-M   'P 1'
_cell_length_a   3.61530800
_cell_length_b   3.74060100
_cell_length_c   11.90168600
_cell_angle_alpha   90.00000000
_cell_angle_beta   90.00000000
_cell_angle_gamma   90.00000000
_symmetry_Int_Tables_number   1
_chemical_formula_structural   Yb4Ni2C5
_chemical_formula_sum   'Yb4 Ni2 C5'
_cell_volume   160.95155466
_cell_formula_units_Z   1
loop_
 _symmetry_equiv_pos_site_id
 _symmetry_equiv_pos_as_xyz
  1  'x, y, z'
loop_
 _atom_site_type_symbol
 _atom_site_label
 _atom_site_symmetry_multiplicity
 _atom_site_fract_x
 _atom_site_fract_y
 _atom_site_fract_z
 _atom_site_occupancy
  Yb  Yb0  1  0.50000000  0.52092500  0.20861300  1
  Yb  Yb1  1  0.50000000  0.52092500  0.79138700  1
  Yb  Yb2  1  0.50000000  0.20304100  0.50000000  1
  Yb  Yb3  1  0.00000000  0.99198500  0.00000000  1
  Ni  Ni0  1  0.00000000  0.68996500  0.38706600  1
  Ni  Ni1  1  0.00000000  0.68996500  0.61293400  1
  C  C0  1  0.00000000  0.99622700  0.24699300  1
  C  C1  1  0.00000000  0.99622700  0.75300700  1
  C  C2  1  0.00000000  0.20409400  0.33745400  1
  C  C3  1  0.00000000  0.20409400  0.66254600  1
  C  C4  1  0.50000000  0.48405300  0.00000000  1
loop_
_geom_bond_atom_site_label_1
_geom_bond_atom_site_label_2
_geom_bond_distance
_geom_bond_site_symmetry_2
Ni0 Yb2 2.896841 1_455
Ni0 Yb2 2.896841 1_555
Ni0 Yb2 2.959326 1_465
Ni0 Yb2 2.959326 1_565
Ni1 Yb2 2.896841 1_455
Ni1 Yb2 2.896841 1_555
Ni1 Yb2 2.959326 1_465
Ni1 Yb2 2.959326 1_565
C0 C2 1.328055 1_565
C0 Ni0 2.022782 1_555
C0 Yb0 2.576286 1_555
C0 Yb0 2.576286 1_455
C0 Yb0 2.707102 1_565
C0 Yb0 2.707102 1_465
C0 Yb3 2.939676 1_555
C1 C3 1.328055 1_565
C1 Ni1 2.022782 1_555
C1 Yb1 2.576286 1_455
C1 Yb1 2.576286 1_555
C1 Yb1 2.707102 1_565
C1 Yb1 2.707102 1_465
C1 Yb3 2.939676 1_556
C2 Ni0 1.910961 1_555
C2 Ni0 2.011756 1_545
C2 Yb2 2.647677 1_555
C2 Yb2 2.647677 1_455
C2 Yb0 2.650200 1_455
C2 Yb0 2.650200 1_555
C3 Ni1 1.910961 1_555
C3 Ni1 2.011756 1_545
C3 Yb2 2.647677 1_455
C3 Yb2 2.647677 1_555
C3 Yb1 2.650200 1_555
C3 Yb1 2.650200 1_455
C4 Yb0 2.486674 1_555
C4 Yb1 2.486674 1_554
C4 Yb3 2.579832 1_545
C4 Yb3 2.579832 1_645
C4 Yb3 2.622499 1_555
C4 Yb3 2.622499 1_655
