# generated using pymatgen
data_MgSi2
_symmetry_space_group_name_H-M   'P 1'
_cell_length_a   6.08364000
_cell_length_b   7.23338719
_cell_length_c   9.76631467
_cell_angle_alpha   101.59980717
_cell_angle_beta   98.01515887
_cell_angle_gamma   89.94623213
_symmetry_Int_Tables_number   1
_chemical_formula_structural   MgSi2
_chemical_formula_sum   'Mg8 Si16'
_cell_volume   416.71689752
_cell_formula_units_Z   8
loop_
 _symmetry_equiv_pos_site_id
 _symmetry_equiv_pos_as_xyz
  1  'x, y, z'
loop_
 _atom_site_type_symbol
 _atom_site_label
 _atom_site_symmetry_multiplicity
 _atom_site_fract_x
 _atom_site_fract_y
 _atom_site_fract_z
 _atom_site_occupancy
  Mg  Mg0  1  0.42049400  0.20653600  0.63718900  1
  Mg  Mg1  1  0.52888200  0.32919500  0.12593500  1
  Mg  Mg2  1  0.08603500  0.88626900  0.36382900  1
  Mg  Mg3  1  0.96865900  0.76553600  0.87588100  1
  Mg  Mg4  1  0.57950600  0.79346400  0.36281100  1
  Mg  Mg5  1  0.47111800  0.67080500  0.87406500  1
  Mg  Mg6  1  0.91396500  0.11373100  0.63617100  1
  Mg  Mg7  1  0.03134100  0.23446400  0.12411900  1
  Si  Si0  1  0.62509400  0.82875400  0.65538500  1
  Si  Si1  1  0.73316000  0.93582100  0.11362000  1
  Si  Si2  1  0.28147700  0.51122900  0.41215500  1
  Si  Si3  1  0.15874500  0.38786200  0.87659300  1
  Si  Si4  1  0.37490600  0.17124600  0.34461500  1
  Si  Si5  1  0.26684000  0.06417900  0.88638000  1
  Si  Si6  1  0.71852300  0.48877100  0.58784500  1
  Si  Si7  1  0.84125500  0.61213800  0.12340700  1
  Si  Si8  1  0.88090800  0.49602300  0.36019200  1
  Si  Si9  1  0.76554600  0.39289000  0.87315400  1
  Si  Si10  1  0.22870000  0.83089900  0.64330500  1
  Si  Si11  1  0.33155800  0.93038600  0.11209300  1
  Si  Si12  1  0.11909200  0.50397700  0.63980800  1
  Si  Si13  1  0.23445400  0.60711000  0.12684600  1
  Si  Si14  1  0.77130000  0.16910100  0.35669500  1
  Si  Si15  1  0.66844200  0.06961400  0.88790700  1
loop_
_geom_bond_atom_site_label_1
_geom_bond_atom_site_label_2
_geom_bond_distance
_geom_bond_site_symmetry_2
Mg0 Si4 2.791497 1_555
Mg0 Si12 2.824065 1_555
Mg0 Si6 2.886799 1_555
Mg0 Si10 2.972951 1_545
Mg0 Si9 2.990205 1_555
Mg0 Si0 3.029101 1_545
Mg0 Si15 3.032210 1_555
Mg0 Si5 3.082359 1_555
Mg0 Si3 3.086063 1_555
Mg1 Si13 2.690747 1_555
Mg1 Si7 2.800254 1_555
Mg1 Si4 2.878397 1_555
Mg1 Si15 2.905604 1_554
Mg1 Si14 2.952033 1_555
Mg1 Si8 2.967330 1_555
Mg1 Si5 2.975192 1_554
Mg1 Si1 3.090756 1_545
Mg1 Si11 3.096044 1_545
Mg1 Mg7 3.100930 1_555
Mg1 Mg7 3.133696 1_655
Mg1 Si9 3.135250 1_554
Mg1 Si3 3.172567 1_554
Mg2 Si4 2.761721 1_565
Mg2 Si14 2.805221 1_465
Mg2 Si10 2.853408 1_555
Mg2 Si7 2.969984 1_455
Mg2 Si2 3.057475 1_555
Mg2 Si8 3.079073 1_455
Mg2 Si1 3.097775 1_455
Mg2 Si11 3.117333 1_555
Mg3 Si5 2.798942 1_665
Mg3 Si15 2.852338 1_565
Mg3 Si0 2.890335 1_555
Mg3 Si12 2.926373 1_655
Mg3 Si1 2.955492 1_556
Mg3 Si9 2.959977 1_555
Mg3 Si3 2.966460 1_655
Mg3 Si11 3.016005 1_656
Mg3 Si7 3.046090 1_556
Mg3 Si10 3.053017 1_655
Mg3 Mg5 3.100930 1_555
Mg3 Mg5 3.133696 1_655
Mg4 Si0 2.791497 1_555
Mg4 Si8 2.824065 1_555
Mg4 Si2 2.886799 1_555
Mg4 Si14 2.972951 1_565
Mg4 Si13 2.990205 1_555
Mg4 Si4 3.029101 1_565
Mg4 Si11 3.032210 1_555
Mg4 Si1 3.082359 1_555
Mg4 Si7 3.086063 1_555
Mg5 Si9 2.690747 1_555
Mg5 Si3 2.800254 1_555
Mg5 Si0 2.878397 1_555
Mg5 Si11 2.905604 1_556
Mg5 Si10 2.952033 1_555
Mg5 Si12 2.967330 1_555
Mg5 Si1 2.975192 1_556
Mg5 Si5 3.090756 1_565
Mg5 Si15 3.096044 1_565
Mg5 Si13 3.135250 1_556
Mg5 Si7 3.172567 1_556
Mg6 Si0 2.761721 1_545
Mg6 Si10 2.805221 1_645
Mg6 Si14 2.853408 1_555
Mg6 Si3 2.969984 1_655
Mg6 Si6 3.057475 1_555
Mg6 Si12 3.079073 1_655
Mg6 Si5 3.097775 1_655
Mg6 Si15 3.117333 1_555
Mg7 Si1 2.798942 1_445
Mg7 Si11 2.852338 1_545
Mg7 Si4 2.890335 1_555
Mg7 Si8 2.926373 1_455
Mg7 Si5 2.955492 1_554
Mg7 Si13 2.959977 1_555
Mg7 Si7 2.966460 1_455
Mg7 Si15 3.016005 1_454
Mg7 Si3 3.046090 1_554
Mg7 Si14 3.053017 1_455
Si0 Si10 2.398105 1_555
Si0 Si6 2.501110 1_555
Si0 Si15 2.550416 1_565
Si1 Si11 2.441472 1_555
Si1 Si7 2.448054 1_555
Si1 Si15 2.562439 1_564
Si1 Si14 2.602497 1_565
Si2 Si8 2.416896 1_455
Si2 Si4 2.501110 1_555
Si3 Si9 2.387975 1_455
Si3 Si5 2.448054 1_555
Si6 Si8 2.565423 1_555
Si7 Si8 2.595479 1_555
Si7 Si9 2.613297 1_554
Si10 Si12 2.449898 1_555
Si10 Si5 2.602497 1_565
Si11 Si13 2.449405 1_555
Si11 Si4 2.550416 1_565
Si11 Si5 2.562439 1_564
Si12 Si6 2.416896 1_455
Si12 Si2 2.565423 1_555
Si12 Si3 2.595479 1_555
Si13 Si7 2.387975 1_455
Si13 Si3 2.613297 1_554
Si14 Si4 2.398105 1_555
Si14 Si8 2.449898 1_555
Si15 Si5 2.441472 1_555
Si15 Si9 2.449405 1_555
