# generated using pymatgen
data_LuMgCrS4
_symmetry_space_group_name_H-M   'P 1'
_cell_length_a   7.57649140
_cell_length_b   7.49395313
_cell_length_c   7.50535165
_cell_angle_alpha   59.40320375
_cell_angle_beta   59.68733972
_cell_angle_gamma   59.64636560
_symmetry_Int_Tables_number   1
_chemical_formula_structural   LuMgCrS4
_chemical_formula_sum   'Lu2 Mg2 Cr2 S8'
_cell_volume   298.43674668
_cell_formula_units_Z   2
loop_
 _symmetry_equiv_pos_site_id
 _symmetry_equiv_pos_as_xyz
  1  'x, y, z'
loop_
 _atom_site_type_symbol
 _atom_site_label
 _atom_site_symmetry_multiplicity
 _atom_site_fract_x
 _atom_site_fract_y
 _atom_site_fract_z
 _atom_site_occupancy
  Lu  Lu0  1  0.49999100  0.50000800  0.49999000  1
  Lu  Lu1  1  0.00000800  0.49999000  0.50000800  1
  Mg  Mg0  1  0.87531900  0.87414300  0.87520500  1
  Mg  Mg1  1  0.12468200  0.12587400  0.12478400  1
  Cr  Cr0  1  0.50003000  0.49998900  0.00000100  1
  Cr  Cr1  1  0.49998100  0.99998400  0.50000100  1
  S  S0  1  0.71520700  0.75274700  0.75074900  1
  S  S1  1  0.26950300  0.23393300  0.72694400  1
  S  S2  1  0.26907500  0.72699000  0.23496600  1
  S  S3  1  0.71866900  0.24721200  0.24925100  1
  S  S4  1  0.73090600  0.27301500  0.76503200  1
  S  S5  1  0.28131700  0.75279500  0.75076000  1
  S  S6  1  0.28479800  0.24724800  0.24925700  1
  S  S7  1  0.73051900  0.76606900  0.27305200  1
loop_
_geom_bond_atom_site_label_1
_geom_bond_atom_site_label_2
_geom_bond_distance
_geom_bond_site_symmetry_2
Lu0 S2 2.640377 1_555
Lu0 S4 2.640468 1_555
Lu0 S1 2.643076 1_555
Lu0 S7 2.643222 1_555
Lu0 S3 2.680501 1_555
Lu0 S5 2.680628 1_555
Lu1 S2 2.640703 1_555
Lu1 S4 2.640767 1_455
Lu1 S1 2.642803 1_555
Lu1 S7 2.642874 1_455
Lu1 S6 2.680315 1_555
Lu1 S0 2.680347 1_455
Mg0 S7 2.430020 1_556
Mg0 S4 2.430532 1_565
Mg0 S0 2.509175 1_555
Mg0 S5 2.509724 1_655
Mg1 S1 2.429983 1_554
Mg1 S2 2.430603 1_545
Mg1 S6 2.509172 1_555
Mg1 S3 2.509816 1_455
Cr0 S4 2.448590 1_554
Cr0 S2 2.448710 1_555
Cr0 S0 2.486055 1_554
Cr0 S3 2.486207 1_555
Cr0 S6 2.486241 1_555
Cr0 S5 2.486540 1_554
Cr1 S7 2.442714 1_555
Cr1 S1 2.442863 1_565
Cr1 S5 2.474558 1_555
Cr1 S3 2.474880 1_565
Cr1 S6 2.475311 1_565
Cr1 S0 2.475543 1_555
