# generated using pymatgen
data_Al4V13Si2(SbO14)2
_symmetry_space_group_name_H-M   'P 1'
_cell_length_a   5.62100300
_cell_length_b   8.93652244
_cell_length_c   12.10575599
_cell_angle_alpha   87.29681087
_cell_angle_beta   76.81338745
_cell_angle_gamma   79.76868879
_symmetry_Int_Tables_number   1
_chemical_formula_structural   Al4V13Si2(SbO14)2
_chemical_formula_sum   'Al4 V13 Si2 Sb2 O28'
_cell_volume   582.63617021
_cell_formula_units_Z   1
loop_
 _symmetry_equiv_pos_site_id
 _symmetry_equiv_pos_as_xyz
  1  'x, y, z'
loop_
 _atom_site_type_symbol
 _atom_site_label
 _atom_site_symmetry_multiplicity
 _atom_site_fract_x
 _atom_site_fract_y
 _atom_site_fract_z
 _atom_site_occupancy
  Al  Al0  1  0.50326900  0.32864200  0.43487700  1
  Al  Al1  1  0.06257300  0.67238600  0.43450900  1
  Al  Al2  1  0.49448900  0.67337100  0.56444500  1
  Al  Al3  1  0.94117900  0.32669000  0.56604500  1
  V  V0  1  0.37165700  0.35801500  0.71094700  1
  V  V1  1  0.20804900  0.64828300  0.13809200  1
  V  V2  1  0.92135200  0.64109200  0.71030000  1
  V  V3  1  0.62939300  0.64075400  0.28949300  1
  V  V4  1  0.79042500  0.35113300  0.86117000  1
  V  V5  1  0.28540100  0.00127200  0.42505900  1
  V  V6  1  0.65247800  0.35196900  0.13777700  1
  V  V7  1  0.00133500  0.99993700  0.99865600  1
  V  V8  1  0.42844600  0.99821900  0.14746300  1
  V  V9  1  0.34486900  0.64870400  0.86232400  1
  V  V10  1  0.07825600  0.35921800  0.29167100  1
  V  V11  1  0.57118300  0.00131400  0.85346800  1
  V  V12  1  0.71180800  0.00018000  0.57364500  1
  Si  Si0  1  0.76268900  0.68541700  0.99935000  1
  Si  Si1  1  0.23478600  0.31481500  0.00112300  1
  Sb  Sb0  1  0.85964000  0.00012200  0.27973200  1
  Sb  Sb1  1  0.13711600  0.99844500  0.71668900  1
  O  O0  1  0.01739100  0.60967800  0.30325300  1
  O  O1  1  0.37840400  0.62628700  0.44836500  1
  O  O2  1  0.05671400  0.64954700  0.99969700  1
  O  O3  1  0.68147600  0.87270900  0.99953500  1
  O  O4  1  0.62651100  0.36705900  0.55122500  1
  O  O5  1  0.98259900  0.39203700  0.69697700  1
  O  O6  1  0.41803700  0.87892200  0.56099700  1
  O  O7  1  0.55961700  0.12275100  0.43251800  1
  O  O8  1  0.31794000  0.12745900  0.00193700  1
  O  O9  1  0.71178500  0.11360000  0.13470600  1
  O  O10  1  0.60513500  0.60940600  0.11533200  1
  O  O11  1  0.67811700  0.39216300  0.30342500  1
  O  O12  1  0.01410900  0.12100300  0.56625100  1
  O  O13  1  0.14776500  0.88634600  0.13700000  1
  O  O14  1  0.27562000  0.39014800  0.11735500  1
  O  O15  1  0.94144000  0.34931100  0.00011700  1
  O  O16  1  0.84971400  0.11388300  0.86409600  1
  O  O17  1  0.28730400  0.88508200  0.86789000  1
  O  O18  1  0.00952400  0.87891200  0.43508500  1
  O  O19  1  0.53158600  0.87876300  0.28011900  1
  O  O20  1  0.46235600  0.12143700  0.72239200  1
  O  O21  1  0.72003900  0.60956900  0.88371400  1
  O  O22  1  0.82317400  0.87829800  0.71949100  1
  O  O23  1  0.82375400  0.63329000  0.55064300  1
  O  O24  1  0.39292800  0.39094600  0.88535700  1
  O  O25  1  0.18274700  0.12025400  0.28836200  1
  O  O26  1  0.32385100  0.60828000  0.69624300  1
  O  O27  1  0.17304900  0.37264900  0.44988400  1
loop_
_geom_bond_atom_site_label_1
_geom_bond_atom_site_label_2
_geom_bond_distance
_geom_bond_site_symmetry_2
Al0 O4 1.776750 1_555
Al0 O11 1.794411 1_555
Al0 O27 1.796271 1_555
Al0 O7 1.811174 1_555
Al1 O23 1.777600 1_455
Al1 O1 1.794165 1_555
Al1 O0 1.794986 1_555
Al1 O18 1.816605 1_555
Al2 O1 1.774588 1_555
Al2 O23 1.791850 1_555
Al2 O26 1.793447 1_555
Al2 O6 1.811404 1_555
Al3 O27 1.773222 1_655
Al3 O4 1.789638 1_555
Al3 O5 1.792075 1_555
Al3 O12 1.810833 1_655
O0 V1 2.086576 1_555
O0 V3 2.192621 1_455
O0 V10 2.209551 1_555
O1 V3 2.123542 1_555
O2 Si0 1.627599 1_455
O2 V9 2.038880 1_555
O2 V1 2.043442 1_556
O3 Si0 1.654768 1_555
O3 V11 2.210715 1_565
O3 V8 2.224524 1_556
O3 V7 2.289475 1_655
O4 V0 2.135407 1_555
O5 V4 2.084100 1_555
O5 V0 2.198009 1_655
O5 V2 2.198758 1_555
O6 V5 2.135392 1_565
O6 V12 2.165897 1_565
O6 Sb1 2.327986 1_555
O7 V5 2.056619 1_555
O7 V12 2.237823 1_555
O7 Sb0 2.361673 1_555
O8 Si1 1.656629 1_555
O8 V8 2.208131 1_545
O8 V11 2.231872 1_554
O8 V7 2.285688 1_544
O9 V8 2.019827 1_545
O9 V6 2.097562 1_555
O9 V7 2.177334 1_644
O9 Sb0 2.236021 1_555
O10 Si0 1.665385 1_554
O10 V1 2.152094 1_555
O10 V3 2.177765 1_555
O10 V6 2.279014 1_555
O11 V6 2.095037 1_555
O11 V10 2.188251 1_655
O11 V3 2.192779 1_555
O12 V12 2.152792 1_455
O12 V5 2.189849 1_555
O12 Sb1 2.260887 1_545
O13 V8 2.041611 1_555
O13 V1 2.093886 1_555
O13 V7 2.164366 1_554
O13 Sb0 2.224026 1_465
O14 Si1 1.666541 1_555
O14 V6 2.153842 1_555
O14 V10 2.178534 1_555
O14 V1 2.286615 1_555
O15 Si1 1.625509 1_655
O15 V6 2.042300 1_555
O15 V4 2.047948 1_554
O16 V11 2.035518 1_555
O16 V4 2.086820 1_555
O16 V7 2.141349 1_645
O16 Sb1 2.263782 1_645
O17 V11 2.024895 1_565
O17 V9 2.081376 1_555
O17 V7 2.132952 1_555
O17 Sb1 2.305570 1_555
O18 V5 2.029553 1_565
O18 V12 2.243882 1_465
O18 Sb0 2.372041 1_465
O19 V8 2.024313 1_555
O19 V3 2.104622 1_555
O19 V5 2.174254 1_565
O19 Sb0 2.298380 1_565
O20 V11 2.023197 1_555
O20 V0 2.090594 1_555
O20 V12 2.207969 1_555
O20 Sb1 2.309464 1_545
O21 Si0 1.666392 1_555
O21 V9 2.148286 1_555
O21 V2 2.177282 1_555
O21 V4 2.291392 1_555
O22 V2 2.095023 1_555
O22 V11 2.100536 1_565
O22 V12 2.185436 1_565
O22 Sb1 2.215937 1_655
O23 V2 2.133420 1_555
O24 Si1 1.665412 1_556
O24 V4 2.152556 1_555
O24 V0 2.178313 1_555
O24 V9 2.282407 1_555
O25 V5 2.062447 1_555
O25 V10 2.111570 1_555
O25 V8 2.138156 1_545
O25 Sb0 2.291676 1_455
O26 V9 2.092548 1_555
O26 V2 2.197041 1_455
O26 V0 2.208302 1_555
O27 V10 2.115812 1_555
