# generated using pymatgen
data_BaSrCe2O6
_symmetry_space_group_name_H-M   'P 1'
_cell_length_a   6.16864042
_cell_length_b   6.24925735
_cell_length_c   8.77300215
_cell_angle_alpha   90.00000000
_cell_angle_beta   90.00000000
_cell_angle_gamma   90.13445370
_symmetry_Int_Tables_number   1
_chemical_formula_structural   BaSrCe2O6
_chemical_formula_sum   'Ba2 Sr2 Ce4 O12'
_cell_volume   338.19322637
_cell_formula_units_Z   2
loop_
 _symmetry_equiv_pos_site_id
 _symmetry_equiv_pos_as_xyz
  1  'x, y, z'
loop_
 _atom_site_type_symbol
 _atom_site_label
 _atom_site_symmetry_multiplicity
 _atom_site_fract_x
 _atom_site_fract_y
 _atom_site_fract_z
 _atom_site_occupancy
  Ba  Ba0  1  0.00793169  0.03462771  0.75000000  1
  Ba  Ba1  1  0.99206831  0.96537229  0.25000000  1
  Sr  Sr0  1  0.50959183  0.46191830  0.25000000  1
  Sr  Sr1  1  0.49040817  0.53808170  0.75000000  1
  Ce  Ce0  1  0.00000000  0.50000000  0.00000000  1
  Ce  Ce1  1  0.50000000  0.00000000  0.00000000  1
  Ce  Ce2  1  0.00000000  0.50000000  0.50000000  1
  Ce  Ce3  1  0.50000000  0.00000000  0.50000000  1
  O  O0  1  0.41877985  0.04678985  0.25000000  1
  O  O1  1  0.89679463  0.48195607  0.75000000  1
  O  O2  1  0.58122015  0.95321015  0.75000000  1
  O  O3  1  0.10320537  0.51804393  0.25000000  1
  O  O4  1  0.20895545  0.79005072  0.95650744  1
  O  O5  1  0.70490029  0.70493890  0.05434535  1
  O  O6  1  0.79104455  0.20994928  0.45650744  1
  O  O7  1  0.29509971  0.29506110  0.55434535  1
  O  O8  1  0.79104455  0.20994928  0.04349256  1
  O  O9  1  0.29509971  0.29506110  0.94565465  1
  O  O10  1  0.20895545  0.79005072  0.54349256  1
  O  O11  1  0.70490029  0.70493890  0.44565465  1
loop_
_geom_bond_atom_site_label_1
_geom_bond_atom_site_label_2
_geom_bond_distance
_geom_bond_site_symmetry_2
Ba0 O4 2.676734 1_545
Ba0 O10 2.676734 1_545
Ba0 O2 2.679781 1_445
Ba0 O1 2.879869 1_455
Ba0 O9 2.952890 1_555
Ba0 O7 2.952890 1_555
Ba0 O8 3.102726 1_456
Ba0 O6 3.102726 1_455
Ba1 O8 2.676734 1_565
Ba1 O6 2.676734 1_565
Ba1 O0 2.679781 1_665
Ba1 O3 2.879869 1_655
Ba1 O11 2.952890 1_555
Ba1 O5 2.952890 1_555
Ba1 O4 3.102726 1_654
Ba1 O10 3.102726 1_655
Ce0 O8 2.254239 1_455
Ce0 O4 2.254239 1_554
Ce0 O5 2.278643 1_455
Ce0 O9 2.278643 1_554
Ce0 O1 2.286489 1_454
Ce0 O3 2.286489 1_555
Ce1 O4 2.253714 1_544
Ce1 O8 2.253714 1_555
Ce1 O0 2.268822 1_555
Ce1 O2 2.268822 1_544
Ce1 O9 2.288198 1_554
Ce1 O5 2.288198 1_545
Ce2 O6 2.254239 1_455
Ce2 O10 2.254239 1_555
Ce2 O11 2.278643 1_455
Ce2 O7 2.278643 1_555
Ce2 O3 2.286489 1_555
Ce2 O1 2.286489 1_455
Ce3 O10 2.253714 1_545
Ce3 O6 2.253714 1_555
Ce3 O0 2.268822 1_555
Ce3 O2 2.268822 1_545
Ce3 O7 2.288198 1_555
Ce3 O11 2.288198 1_545
O0 Sr0 2.652752 1_555
O1 Sr1 2.532085 1_555
O2 Sr1 2.652752 1_555
O3 Sr0 2.532085 1_555
O4 Sr1 2.964591 1_555
O5 Sr0 2.587599 1_555
O5 Sr1 3.156025 1_554
O6 Sr0 2.964591 1_555
O7 Sr1 2.587599 1_555
O7 Sr0 3.156025 1_555
O8 Sr0 2.964591 1_555
O9 Sr1 2.587599 1_555
O9 Sr0 3.156025 1_556
O10 Sr1 2.964591 1_555
O11 Sr0 2.587599 1_555
O11 Sr1 3.156025 1_555
