# generated using pymatgen
data_La2InNi2
_symmetry_space_group_name_H-M   'P 1'
_cell_length_a   3.81913400
_cell_length_b   7.58969600
_cell_length_c   7.82429700
_cell_angle_alpha   90.00000000
_cell_angle_beta   90.00000000
_cell_angle_gamma   90.00000000
_symmetry_Int_Tables_number   1
_chemical_formula_structural   La2InNi2
_chemical_formula_sum   'La4 In2 Ni4'
_cell_volume   226.79558958
_cell_formula_units_Z   2
loop_
 _symmetry_equiv_pos_site_id
 _symmetry_equiv_pos_as_xyz
  1  'x, y, z'
loop_
 _atom_site_type_symbol
 _atom_site_label
 _atom_site_symmetry_multiplicity
 _atom_site_fract_x
 _atom_site_fract_y
 _atom_site_fract_z
 _atom_site_occupancy
  La  La0  1  0.50000000  0.66859200  0.81996500  1
  La  La1  1  0.50000000  0.33140800  0.18003500  1
  La  La2  1  0.50000000  0.83140800  0.31996500  1
  La  La3  1  0.50000000  0.16859200  0.68003500  1
  In  In0  1  0.00000000  0.50000000  0.50000000  1
  In  In1  1  0.00000000  0.00000000  0.00000000  1
  Ni  Ni0  1  0.00000000  0.13773400  0.39627200  1
  Ni  Ni1  1  0.00000000  0.86226600  0.60372800  1
  Ni  Ni2  1  0.00000000  0.36226600  0.89627200  1
  Ni  Ni3  1  0.00000000  0.63773400  0.10372800  1
loop_
_geom_bond_atom_site_label_1
_geom_bond_atom_site_label_2
_geom_bond_distance
_geom_bond_site_symmetry_2
La0 Ni3 2.937821 1_656
La0 Ni3 2.937821 1_556
La0 Ni1 2.944429 1_555
La0 Ni1 2.944429 1_655
La0 Ni2 3.067274 1_555
La0 Ni2 3.067274 1_655
La1 Ni2 2.937821 1_654
La1 Ni2 2.937821 1_554
La1 Ni0 2.944429 1_655
La1 Ni0 2.944429 1_555
La1 Ni3 3.067274 1_555
La1 Ni3 3.067274 1_655
La2 Ni1 2.937821 1_655
La2 Ni1 2.937821 1_555
La2 Ni3 2.944429 1_555
La2 Ni3 2.944429 1_655
La2 Ni0 3.067274 1_565
La2 Ni0 3.067274 1_665
La3 Ni0 2.937821 1_555
La3 Ni0 2.937821 1_655
La3 Ni2 2.944429 1_655
La3 Ni2 2.944429 1_555
La3 Ni1 3.067274 1_645
La3 Ni1 3.067274 1_545
In0 Ni1 2.866772 1_555
In0 Ni0 2.866772 1_555
In0 Ni2 3.272031 1_555
In0 Ni3 3.272031 1_555
In0 La1 3.398712 1_455
In0 La1 3.398712 1_555
In0 La0 3.398712 1_555
In0 La0 3.398712 1_455
In0 La3 3.457947 1_555
In0 La2 3.457947 1_455
In0 La2 3.457947 1_555
In0 La3 3.457947 1_455
In1 Ni2 2.866772 1_554
In1 Ni3 2.866772 1_545
In1 Ni1 3.272031 1_544
In1 Ni0 3.272031 1_555
In1 La2 3.398712 1_545
In1 La2 3.398712 1_445
In1 La3 3.398712 1_454
In1 La3 3.398712 1_554
In1 La1 3.457947 1_455
In1 La0 3.457947 1_544
In1 La0 3.457947 1_444
In1 La1 3.457947 1_555
Ni0 Ni1 2.646861 1_545
Ni2 Ni3 2.646861 1_556
