# generated using pymatgen
data_YZrF7
_symmetry_space_group_name_H-M   'P 1'
_cell_length_a   5.70044832
_cell_length_b   6.02989202
_cell_length_c   8.19847575
_cell_angle_alpha   102.60446009
_cell_angle_beta   90.00000000
_cell_angle_gamma   90.00000000
_symmetry_Int_Tables_number   1
_chemical_formula_structural   YZrF7
_chemical_formula_sum   'Y2 Zr2 F14'
_cell_volume   275.01531731
_cell_formula_units_Z   2
loop_
 _symmetry_equiv_pos_site_id
 _symmetry_equiv_pos_as_xyz
  1  'x, y, z'
loop_
 _atom_site_type_symbol
 _atom_site_label
 _atom_site_symmetry_multiplicity
 _atom_site_fract_x
 _atom_site_fract_y
 _atom_site_fract_z
 _atom_site_occupancy
  Y  Y0  1  0.69827557  0.65482189  0.68616362  1
  Y  Y1  1  0.19827557  0.34517811  0.31383638  1
  Zr  Zr0  1  0.70776282  0.81214687  0.22544267  1
  Zr  Zr1  1  0.20776282  0.18785313  0.77455733  1
  F  F0  1  0.89327725  0.45801697  0.47685853  1
  F  F1  1  0.39327725  0.54198303  0.52314147  1
  F  F2  1  0.43089060  0.92729290  0.76976730  1
  F  F3  1  0.93089060  0.07270710  0.23023270  1
  F  F4  1  0.95167118  0.95119254  0.75910642  1
  F  F5  1  0.45167118  0.04880746  0.24089358  1
  F  F6  1  0.99181384  0.45594164  0.78872836  1
  F  F7  1  0.49181384  0.54405836  0.21127164  1
  F  F8  1  0.69797181  0.75615402  0.97532126  1
  F  F9  1  0.19797181  0.24384598  0.02467874  1
  F  F10  1  0.70354641  0.86588219  0.47673245  1
  F  F11  1  0.20354641  0.13411781  0.52326755  1
  F  F12  1  0.50115252  0.37985091  0.78336696  1
  F  F13  1  0.00115252  0.62014909  0.21663304  1
loop_
_geom_bond_atom_site_label_1
_geom_bond_atom_site_label_2
_geom_bond_distance
_geom_bond_site_symmetry_2
F0 Y0 2.167897 1_555
F0 Y1 2.207987 1_655
F1 Y1 2.167897 1_555
F1 Y0 2.207987 1_555
F2 Zr1 2.015174 1_565
F2 Y0 2.236269 1_555
F3 Zr0 2.015174 1_545
F3 Y1 2.236269 1_655
F4 Zr1 2.026009 1_665
F4 Y0 2.274062 1_555
F5 Zr0 2.026009 1_545
F5 Y1 2.274062 1_555
F6 Zr1 2.014975 1_655
F6 Y0 2.320614 1_555
F7 Zr0 2.014975 1_555
F7 Y1 2.320614 1_555
F8 Zr0 2.004984 1_556
F8 Y0 2.315416 1_555
F9 Zr1 2.004984 1_554
F9 Y1 2.315416 1_555
F10 Zr0 2.014602 1_555
F10 Y0 2.349988 1_555
F11 Zr1 2.014602 1_555
F11 Y1 2.349988 1_555
F12 Zr1 2.026364 1_555
F12 Y0 2.285509 1_555
F13 Zr0 2.026364 1_455
F13 Y1 2.285509 1_555
