# generated using pymatgen
data_K6CdTe4
_symmetry_space_group_name_H-M   'P 1'
_cell_length_a   11.08842632
_cell_length_b   11.08899271
_cell_length_c   8.41077158
_cell_angle_alpha   90.00047453
_cell_angle_beta   90.00009316
_cell_angle_gamma   119.99212346
_symmetry_Int_Tables_number   1
_chemical_formula_structural   K6CdTe4
_chemical_formula_sum   'K12 Cd2 Te8'
_cell_volume   895.70076988
_cell_formula_units_Z   2
loop_
 _symmetry_equiv_pos_site_id
 _symmetry_equiv_pos_as_xyz
  1  'x, y, z'
loop_
 _atom_site_type_symbol
 _atom_site_label
 _atom_site_symmetry_multiplicity
 _atom_site_fract_x
 _atom_site_fract_y
 _atom_site_fract_z
 _atom_site_occupancy
  K  K0  1  0.47545121  0.95090095  0.97502383  1
  K  K1  1  0.52456284  0.47546723  0.47502734  1
  K  K2  1  0.95091127  0.47546905  0.47502881  1
  K  K3  1  0.04907416  0.52454384  0.97502238  1
  K  K4  1  0.47544564  0.52454213  0.97502814  1
  K  K5  1  0.52454293  0.04907818  0.47502305  1
  K  K6  1  0.70150074  0.85076527  0.29726101  1
  K  K7  1  0.85076422  0.70149533  0.79727439  1
  K  K8  1  0.85075955  0.14925271  0.79726697  1
  K  K9  1  0.14924929  0.85075771  0.29726779  1
  K  K10  1  0.14923894  0.29850761  0.29725990  1
  K  K11  1  0.29850368  0.14923335  0.79727314  1
  Cd  Cd0  1  0.33338475  0.66667380  0.59483081  1
  Cd  Cd1  1  0.66662626  0.33332860  0.09481600  1
  Te  Te0  1  0.61843052  0.80922068  0.70090248  1
  Te  Te1  1  0.80921126  0.61841207  0.20089605  1
  Te  Te2  1  0.80920743  0.19080441  0.20088732  1
  Te  Te3  1  0.19080374  0.80920344  0.70088605  1
  Te  Te4  1  0.19079449  0.38159599  0.70089854  1
  Te  Te5  1  0.38158075  0.19078958  0.20090406  1
  Te  Te6  1  0.33343643  0.66664091  0.25114051  1
  Te  Te7  1  0.66652090  0.33331817  0.75111844  1
loop_
_geom_bond_atom_site_label_1
_geom_bond_atom_site_label_2
_geom_bond_distance
_geom_bond_site_symmetry_2
K0 Te0 3.575993 1_555
K0 Te3 3.576182 1_555
K0 Te6 3.584232 1_556
K0 Te5 3.812760 1_566
K0 Te2 3.813011 1_566
K1 Te1 3.576179 1_555
K1 Te5 3.576427 1_555
K1 Te7 3.582662 1_555
K1 Te4 3.812906 1_555
K1 Te0 3.812939 1_555
K2 Te1 3.575947 1_555
K2 Te2 3.576429 1_555
K2 Te7 3.584925 1_555
K2 Te4 3.812616 1_655
K2 Te3 3.812894 1_655
K3 Te4 3.576069 1_555
K3 Te3 3.576400 1_555
K3 Te6 3.584851 1_556
K3 Te1 3.812407 1_456
K3 Te2 3.812935 1_456
K4 Te4 3.576167 1_555
K4 Te0 3.576484 1_555
K4 Te6 3.582771 1_556
K4 Te1 3.812855 1_556
K4 Te5 3.812972 1_556
K5 Te5 3.576096 1_555
K5 Te2 3.576319 1_555
K5 Te7 3.583932 1_555
K5 Te0 3.812607 1_545
K5 Te3 3.812852 1_545
K6 Te1 3.434905 1_555
K6 Te2 3.435010 1_565
K6 Te0 3.487416 1_555
K6 Te6 3.555969 1_555
K7 Te0 3.434766 1_555
K7 Te3 3.434846 1_655
K7 Te1 3.487295 1_556
K7 Te7 3.557257 1_555
K8 Te4 3.435018 1_655
K8 Te0 3.435053 1_545
K8 Te2 3.487292 1_556
K8 Te7 3.557959 1_555
K9 Te1 3.435042 1_455
K9 Te5 3.435072 1_565
K9 Te3 3.487292 1_555
K9 Te6 3.557935 1_555
K10 Te2 3.434736 1_455
K10 Te5 3.434756 1_555
K10 Te4 3.487429 1_555
K10 Te6 3.556813 1_555
K11 Te3 3.434942 1_545
K11 Te4 3.435019 1_555
K11 Te5 3.487335 1_556
K11 Te7 3.555556 1_555
Cd0 Te0 2.879174 1_555
Cd0 Te3 2.879482 1_555
Cd0 Te4 2.879603 1_555
Cd0 Te6 2.890701 1_555
Cd0 K1 3.807678 1_555
Cd0 K5 3.808396 1_565
Cd0 K2 3.808825 1_455
Cd1 Te5 2.879225 1_555
Cd1 Te2 2.879482 1_555
Cd1 Te1 2.879669 1_555
Cd1 Te7 2.890762 1_554
Cd1 K4 3.807738 1_554
Cd1 K0 3.808556 1_544
Cd1 K3 3.808583 1_654
