# generated using pymatgen
data_In6Se7
_symmetry_space_group_name_H-M   'P 1'
_cell_length_a   4.09108657
_cell_length_b   9.52209893
_cell_length_c   17.93906061
_cell_angle_alpha   79.20764304
_cell_angle_beta   90.00000000
_cell_angle_gamma   90.00000000
_symmetry_Int_Tables_number   1
_chemical_formula_structural   In6Se7
_chemical_formula_sum   'In12 Se14'
_cell_volume   686.46849544
_cell_formula_units_Z   2
loop_
 _symmetry_equiv_pos_site_id
 _symmetry_equiv_pos_as_xyz
  1  'x, y, z'
loop_
 _atom_site_type_symbol
 _atom_site_label
 _atom_site_symmetry_multiplicity
 _atom_site_fract_x
 _atom_site_fract_y
 _atom_site_fract_z
 _atom_site_occupancy
  In  In0  1  0.74857752  0.47108273  0.72644959  1
  In  In1  1  0.75011775  0.32837199  0.53306497  1
  In  In2  1  0.25071076  0.98246357  0.60393471  1
  In  In3  1  0.75224649  0.64733592  0.04684485  1
  In  In4  1  0.25231298  0.93087822  0.12566433  1
  In  In5  1  0.75231298  0.06912178  0.87433567  1
  In  In6  1  0.25011775  0.67162801  0.46693503  1
  In  In7  1  0.75071076  0.01753643  0.39606529  1
  In  In8  1  0.75173422  0.81841783  0.81352133  1
  In  In9  1  0.25173422  0.18158217  0.18647867  1
  In  In10  1  0.25224649  0.35266408  0.95315515  1
  In  In11  1  0.24857752  0.52891727  0.27355041  1
  Se  Se0  1  0.75127244  0.23875271  0.27275107  1
  Se  Se1  1  0.25207493  0.24670394  0.82065129  1
  Se  Se2  1  0.25010755  0.47034922  0.59185875  1
  Se  Se3  1  0.75217396  0.55691950  0.90854482  1
  Se  Se4  1  0.25127244  0.76124729  0.72724893  1
  Se  Se5  1  0.75093906  0.12195317  0.65634026  1
  Se  Se6  1  0.75207493  0.75329606  0.17934871  1
  Se  Se7  1  0.75010755  0.52965078  0.40814125  1
  Se  Se8  1  0.75219025  0.16461037  0.00443825  1
  Se  Se9  1  0.25093906  0.87804683  0.34365974  1
  Se  Se10  1  0.25217396  0.44308050  0.09145518  1
  Se  Se11  1  0.75044408  0.83131997  0.53199788  1
  Se  Se12  1  0.25044408  0.16868003  0.46800212  1
  Se  Se13  1  0.25219025  0.83538963  0.99556175  1
loop_
_geom_bond_atom_site_label_1
_geom_bond_atom_site_label_2
_geom_bond_distance
_geom_bond_site_symmetry_2
In0 Se2 3.161413 1_555
In0 Se2 3.169503 1_655
In0 Se1 3.192862 1_555
In0 Se1 3.211143 1_655
In1 Se7 2.662135 1_555
In1 Se5 2.669458 1_555
In1 Se2 2.767339 1_655
In1 Se2 2.767400 1_555
In1 Se12 2.918554 1_555
In1 Se12 2.920425 1_655
In2 Se5 2.701123 1_465
In2 Se5 2.702537 1_565
In2 Se12 2.733338 1_565
In2 Se4 2.754197 1_555
In2 Se11 2.934617 1_555
In2 Se11 2.936138 1_455
In3 Se6 2.750686 1_555
In3 Se13 2.760290 1_654
In3 Se13 2.760631 1_554
In3 Se3 2.774239 1_554
In3 Se10 2.832553 1_655
In3 Se10 2.832981 1_555
In4 Se13 2.658693 1_554
In4 Se6 2.712414 1_555
In4 Se6 2.713883 1_455
In5 Se8 2.658693 1_556
In5 Se1 2.712414 1_655
In5 Se1 2.713883 1_555
In6 Se2 2.662135 1_555
In6 Se9 2.669458 1_555
In6 Se7 2.767339 1_555
In6 Se7 2.767400 1_455
In6 Se11 2.918554 1_455
In6 Se11 2.920425 1_555
In7 Se9 2.701123 1_545
In7 Se9 2.702537 1_645
In7 Se11 2.733338 1_545
In7 Se0 2.754197 1_555
In7 Se12 2.934617 1_655
In7 Se12 2.936138 1_555
In8 Se4 2.680225 1_655
In8 Se4 2.683107 1_555
In8 Se3 2.741596 1_555
In9 Se0 2.680225 1_555
In9 Se0 2.683107 1_455
In9 Se10 2.741596 1_555
In10 Se1 2.750686 1_555
In10 Se8 2.760290 1_556
In10 Se8 2.760631 1_456
In10 Se10 2.774239 1_556
In10 Se3 2.832553 1_555
In10 Se3 2.832981 1_455
In11 Se7 3.161413 1_455
In11 Se7 3.169503 1_555
In11 Se6 3.192862 1_455
In11 Se6 3.211143 1_555
