# generated using pymatgen
data_Lu5(TeAu)2
_symmetry_space_group_name_H-M   'P 1'
_cell_length_a   8.56946921
_cell_length_b   8.56946921
_cell_length_c   7.82693200
_cell_angle_alpha   90.00000000
_cell_angle_beta   90.00000000
_cell_angle_gamma   125.58762026
_symmetry_Int_Tables_number   1
_chemical_formula_structural   Lu5(TeAu)2
_chemical_formula_sum   'Lu10 Te4 Au4'
_cell_volume   467.42392551
_cell_formula_units_Z   2
loop_
 _symmetry_equiv_pos_site_id
 _symmetry_equiv_pos_as_xyz
  1  'x, y, z'
loop_
 _atom_site_type_symbol
 _atom_site_label
 _atom_site_symmetry_multiplicity
 _atom_site_fract_x
 _atom_site_fract_y
 _atom_site_fract_z
 _atom_site_occupancy
  Lu  Lu0  1  0.00000000  0.00000000  0.00000000  1
  Lu  Lu1  1  0.50000000  0.50000000  0.50000000  1
  Lu  Lu2  1  0.78410000  0.54021700  0.16075000  1
  Lu  Lu3  1  0.45978300  0.21590000  0.83925000  1
  Lu  Lu4  1  0.95978300  0.71590000  0.66075000  1
  Lu  Lu5  1  0.28410000  0.04021700  0.33925000  1
  Lu  Lu6  1  0.21590000  0.45978300  0.83925000  1
  Lu  Lu7  1  0.54021700  0.78410000  0.16075000  1
  Lu  Lu8  1  0.04021700  0.28410000  0.33925000  1
  Lu  Lu9  1  0.71590000  0.95978300  0.66075000  1
  Te  Te0  1  0.20840400  0.79159600  0.00000000  1
  Te  Te1  1  0.70840400  0.29159600  0.50000000  1
  Te  Te2  1  0.79159600  0.20840400  0.00000000  1
  Te  Te3  1  0.29159600  0.70840400  0.50000000  1
  Au  Au0  1  0.86342100  0.86342100  0.36511700  1
  Au  Au1  1  0.13657900  0.13657900  0.63488300  1
  Au  Au2  1  0.63657900  0.63657900  0.86511700  1
  Au  Au3  1  0.36342100  0.36342100  0.13488300  1
loop_
_geom_bond_atom_site_label_1
_geom_bond_atom_site_label_2
_geom_bond_distance
_geom_bond_site_symmetry_2
Lu0 Te2 3.176662 1_455
Lu0 Te0 3.176662 1_545
Lu1 Te3 3.176662 1_555
Lu1 Te1 3.176662 1_555
Lu2 Te2 3.144043 1_555
Lu2 Te0 3.213716 1_655
Lu2 Te1 3.225218 1_555
Lu3 Te2 3.144043 1_556
Lu3 Te0 3.213716 1_546
Lu3 Te1 3.225218 1_555
Lu4 Te3 3.144043 1_655
Lu4 Te1 3.213716 1_555
Lu4 Te0 3.225218 1_656
Lu5 Te3 3.144043 1_545
Lu5 Te1 3.213716 1_555
Lu5 Te0 3.225218 1_545
Lu6 Te0 3.144043 1_556
Lu6 Te2 3.213716 1_456
Lu6 Te3 3.225218 1_555
Lu7 Te0 3.144043 1_555
Lu7 Te2 3.213716 1_565
Lu7 Te3 3.225218 1_555
Lu8 Te1 3.144043 1_455
Lu8 Te3 3.213716 1_555
Lu8 Te2 3.225218 1_455
Lu9 Te1 3.144043 1_565
Lu9 Te3 3.213716 1_555
Lu9 Te2 3.225218 1_566
Au0 Lu7 2.915579 1_555
Au0 Lu2 2.915579 1_555
Au0 Lu9 2.974758 1_555
Au0 Lu4 2.974758 1_555
Au0 Lu5 2.995908 1_665
Au0 Lu8 2.995908 1_665
Au0 Lu1 3.037095 1_555
Au0 Lu0 3.051566 1_665
Au1 Lu6 2.915579 1_555
Au1 Lu3 2.915579 1_555
Au1 Lu8 2.974758 1_555
Au1 Lu5 2.974758 1_555
Au1 Lu9 2.995908 1_445
Au1 Lu4 2.995908 1_445
Au1 Lu1 3.037095 1_555
Au1 Lu0 3.051566 1_556
Au2 Lu9 2.915579 1_555
Au2 Lu4 2.915579 1_555
Au2 Lu2 2.974758 1_556
Au2 Lu7 2.974758 1_556
Au2 Lu6 2.995908 1_555
Au2 Lu3 2.995908 1_555
Au2 Lu0 3.037095 1_666
Au2 Lu1 3.051566 1_555
Au3 Lu5 2.915579 1_555
Au3 Lu8 2.915579 1_555
Au3 Lu3 2.974758 1_554
Au3 Lu6 2.974758 1_554
Au3 Lu2 2.995908 1_555
Au3 Lu7 2.995908 1_555
Au3 Lu0 3.037095 1_555
Au3 Lu1 3.051566 1_555
