# generated using pymatgen
data_HfSiRu
_symmetry_space_group_name_H-M   'P 1'
_cell_length_a   3.66453528
_cell_length_b   6.62395549
_cell_length_c   6.62438517
_cell_angle_alpha   119.99785282
_cell_angle_beta   90.00000000
_cell_angle_gamma   90.00000000
_symmetry_Int_Tables_number   1
_chemical_formula_structural   HfSiRu
_chemical_formula_sum   'Hf3 Si3 Ru3'
_cell_volume   139.25856539
_cell_formula_units_Z   3
loop_
 _symmetry_equiv_pos_site_id
 _symmetry_equiv_pos_as_xyz
  1  'x, y, z'
loop_
 _atom_site_type_symbol
 _atom_site_label
 _atom_site_symmetry_multiplicity
 _atom_site_fract_x
 _atom_site_fract_y
 _atom_site_fract_z
 _atom_site_occupancy
  Hf  Hf0  1  0.50000000  0.58464204  0.00000000  1
  Hf  Hf1  1  0.50000000  0.41532290  0.41532567  1
  Hf  Hf2  1  0.50000000  0.99999623  0.58467433  1
  Si  Si0  1  0.00000000  0.33333211  0.66666209  1
  Si  Si1  1  0.00000000  0.66667002  0.33333791  1
  Si  Si2  1  0.50000000  0.99994988  1.00000000  1
  Ru  Ru0  1  0.00000000  0.24610915  0.00000000  1
  Ru  Ru1  1  0.00000000  0.75387621  0.75387175  1
  Ru  Ru2  1  0.00000000  0.00000446  0.24612825  1
loop_
_geom_bond_atom_site_label_1
_geom_bond_atom_site_label_2
_geom_bond_distance
_geom_bond_site_symmetry_2
Hf0 Si1 2.707152 1_655
Hf0 Si1 2.707152 1_555
Hf0 Si0 2.707152 1_554
Hf0 Si0 2.707152 1_654
Hf0 Si2 2.750981 1_554
Hf0 Ru0 2.895804 1_655
Hf0 Ru0 2.895804 1_555
Hf0 Ru1 3.016591 1_654
Hf0 Ru1 3.016591 1_554
Hf0 Ru2 3.016591 1_665
Hf0 Ru2 3.016591 1_565
Hf1 Si1 2.707083 1_555
Hf1 Si1 2.707083 1_655
Hf1 Si0 2.707102 1_555
Hf1 Si0 2.707102 1_655
Hf1 Si2 2.751434 1_544
Hf1 Ru1 2.896003 1_655
Hf1 Ru1 2.896003 1_555
Hf1 Ru2 3.016370 1_655
Hf1 Ru2 3.016370 1_555
Hf1 Ru0 3.016531 1_555
Hf1 Ru0 3.016531 1_655
Hf2 Si0 2.707088 1_565
Hf2 Si0 2.707088 1_665
Hf2 Si1 2.707099 1_555
Hf2 Si1 2.707099 1_655
Hf2 Si2 2.751431 1_555
Hf2 Ru2 2.896006 1_565
Hf2 Ru2 2.896006 1_665
Hf2 Ru1 3.016365 1_555
Hf2 Ru1 3.016365 1_655
Hf2 Ru0 3.016532 1_566
Hf2 Ru0 3.016532 1_666
Ru0 Si2 2.452731 1_444
Ru0 Si2 2.452731 1_544
Ru0 Si0 2.546660 1_554
Ru0 Si1 2.546660 1_555
Ru1 Si2 2.452545 1_555
Ru1 Si2 2.452545 1_455
Ru1 Si0 2.546464 1_555
Ru1 Si1 2.546594 1_555
Ru2 Si2 2.452545 1_444
Ru2 Si2 2.452545 1_544
Ru2 Si1 2.546464 1_545
Ru2 Si0 2.546594 1_555
