# generated using pymatgen
data_Sm2HfCo16
_symmetry_space_group_name_H-M   'P 1'
_cell_length_a   8.21201900
_cell_length_b   8.40860758
_cell_length_c   8.40860758
_cell_angle_alpha   120.01952427
_cell_angle_beta   89.99687977
_cell_angle_gamma   90.00312023
_symmetry_Int_Tables_number   1
_chemical_formula_structural   Sm2HfCo16
_chemical_formula_sum   'Sm4 Hf2 Co32'
_cell_volume   502.73980215
_cell_formula_units_Z   2
loop_
 _symmetry_equiv_pos_site_id
 _symmetry_equiv_pos_as_xyz
  1  'x, y, z'
loop_
 _atom_site_type_symbol
 _atom_site_label
 _atom_site_symmetry_multiplicity
 _atom_site_fract_x
 _atom_site_fract_y
 _atom_site_fract_z
 _atom_site_occupancy
  Sm  Sm0  1  0.26449700  0.66683300  0.33316700  1
  Sm  Sm1  1  0.73550300  0.33316700  0.66683300  1
  Sm  Sm2  1  0.74962100  0.00000900  0.99999100  1
  Sm  Sm3  1  0.25037900  0.99999100  0.00000900  1
  Hf  Hf0  1  0.11358100  0.33320500  0.66679500  1
  Hf  Hf1  1  0.88641900  0.66679500  0.33320500  1
  Co  Co0  1  0.74847000  0.67091400  0.04047300  1
  Co  Co1  1  0.74849000  0.36968300  0.32922500  1
  Co  Co2  1  0.74850100  0.95958000  0.63040400  1
  Co  Co3  1  0.74850100  0.36959600  0.04042000  1
  Co  Co4  1  0.74847000  0.95952700  0.32908600  1
  Co  Co5  1  0.74849000  0.67077500  0.63031700  1
  Co  Co6  1  0.25153000  0.32908600  0.95952700  1
  Co  Co7  1  0.25151000  0.63031700  0.67077500  1
  Co  Co8  1  0.25149900  0.04042000  0.36959600  1
  Co  Co9  1  0.25149900  0.63040400  0.95958000  1
  Co  Co10  1  0.25153000  0.04047300  0.67091400  1
  Co  Co11  1  0.25151000  0.32922500  0.36968300  1
  Co  Co12  1  0.50000000  0.50000000  0.00000000  1
  Co  Co13  1  0.50000000  0.50000000  0.50000000  1
  Co  Co14  1  0.50000000  0.00000000  0.50000000  1
  Co  Co15  1  0.00000000  0.50000000  0.00000000  1
  Co  Co16  1  0.00000000  0.50000000  0.50000000  1
  Co  Co17  1  0.00000000  0.00000000  0.50000000  1
  Co  Co18  1  0.48506900  0.83356500  0.66686500  1
  Co  Co19  1  0.48506700  0.83343800  0.16656200  1
  Co  Co20  1  0.48506900  0.33313500  0.16643500  1
  Co  Co21  1  0.51493100  0.16643500  0.33313500  1
  Co  Co22  1  0.51493300  0.16656200  0.83343800  1
  Co  Co23  1  0.51493100  0.66686500  0.83356500  1
  Co  Co24  1  0.98008400  0.16298800  0.32610800  1
  Co  Co25  1  0.97997800  0.16309600  0.83690400  1
  Co  Co26  1  0.98008400  0.67389200  0.83701200  1
  Co  Co27  1  0.01991600  0.83701200  0.67389200  1
  Co  Co28  1  0.02002200  0.83690400  0.16309600  1
  Co  Co29  1  0.01991600  0.32610800  0.16298800  1
  Co  Co30  1  0.59436600  0.66672800  0.33327200  1
  Co  Co31  1  0.40563400  0.33327200  0.66672800  1
loop_
_geom_bond_atom_site_label_1
_geom_bond_atom_site_label_2
_geom_bond_distance
_geom_bond_site_symmetry_2
Hf0 Sm1 3.104784 1_455
Hf1 Sm0 3.104784 1_655
Co0 Co12 2.419708 1_555
Co0 Co4 2.426117 1_555
Co0 Co15 2.441036 1_655
Co0 Co19 2.494167 1_555
Co0 Co3 2.533442 1_555
Co0 Co28 2.558130 1_655
Co0 Co26 2.566656 1_554
Co0 Co23 2.578224 1_554
Co0 Hf1 2.725613 1_555
Co0 Co30 2.784010 1_555
Co0 Sm2 2.952293 1_564
Co0 Sm1 3.003298 1_554
Co1 Co13 2.419157 1_555
Co1 Co3 2.428082 1_555
Co1 Co16 2.440144 1_655
Co1 Co20 2.495397 1_555
Co1 Co5 2.531017 1_555
Co1 Co29 2.558062 1_655
Co1 Co24 2.567726 1_555
Co1 Co21 2.580004 1_555
Co1 Hf1 2.727931 1_555
Co1 Co30 2.785148 1_555
Co1 Sm2 2.952296 1_554
Co1 Sm1 3.006101 1_555
Co2 Co5 2.428082 1_555
Co2 Co4 2.533442 1_555
Co2 Co27 2.557573 1_655
Co2 Co25 2.565875 1_565
Co2 Co22 2.578691 1_565
Co2 Hf1 2.726332 1_555
Co2 Co30 2.784283 1_555
Co2 Sm2 2.952361 1_565
Co2 Sm1 3.001749 1_565
Co3 Hf1 2.726332 1_555
Co3 Co30 2.784283 1_555
Co3 Sm2 2.952361 1_554
Co3 Sm1 3.001749 1_554
Co4 Hf1 2.725613 1_555
Co4 Sm2 2.952293 1_564
Co4 Sm1 3.003298 1_565
Co5 Hf1 2.727931 1_555
Co5 Sm2 2.952296 1_565
Co5 Sm1 3.006101 1_555
Co6 Co9 2.533442 1_555
Co6 Hf0 2.725613 1_555
Co6 Sm3 2.952293 1_546
Co6 Sm0 3.003298 1_556
Co7 Co9 2.428082 1_555
Co7 Hf0 2.727931 1_555
Co7 Sm3 2.952296 1_556
Co7 Sm0 3.006101 1_555
Co8 Hf0 2.726332 1_555
Co8 Sm3 2.952361 1_545
Co8 Sm0 3.001749 1_545
Co9 Hf0 2.726332 1_555
Co9 Sm3 2.952361 1_556
Co9 Sm0 3.001749 1_556
Co10 Co14 2.419708 1_555
Co10 Co6 2.426117 1_555
Co10 Co17 2.441036 1_555
Co10 Co22 2.494167 1_555
Co10 Co8 2.533442 1_555
Co10 Co25 2.558130 1_455
Co10 Co27 2.566656 1_545
Co10 Co18 2.578224 1_545
Co10 Hf0 2.725613 1_555
Co10 Co31 2.784010 1_555
Co10 Sm3 2.952293 1_546
Co10 Sm0 3.003298 1_545
Co11 Co13 2.419157 1_555
Co11 Co8 2.428082 1_555
Co11 Co16 2.440144 1_555
Co11 Co21 2.495397 1_555
Co11 Co7 2.531017 1_555
Co11 Co24 2.558062 1_455
Co11 Co29 2.567726 1_555
Co11 Co20 2.580004 1_555
Co11 Hf0 2.727931 1_555
Co11 Co31 2.785148 1_555
Co11 Sm3 2.952296 1_545
Co11 Sm0 3.006101 1_555
Co12 Co6 2.419708 1_554
Co12 Co3 2.419818 1_555
Co12 Co9 2.419818 1_554
Co12 Co20 2.430440 1_555
Co12 Co23 2.430440 1_554
Co12 Co22 2.430740 1_554
Co12 Co19 2.430740 1_555
Co12 Co31 2.547197 1_554
Co12 Co30 2.547197 1_555
Co12 Sm0 3.102217 1_555
Co12 Sm1 3.102217 1_554
Co13 Co5 2.419157 1_555
Co13 Co7 2.419157 1_555
Co13 Co20 2.431662 1_555
Co13 Co21 2.431662 1_555
Co13 Co18 2.431662 1_555
Co13 Co23 2.431662 1_555
Co13 Co30 2.549087 1_555
Co13 Co31 2.549087 1_555
Co13 Sm1 3.105762 1_555
Co13 Sm0 3.105762 1_555
Co14 Co4 2.419708 1_545
Co14 Co2 2.419818 1_545
Co14 Co8 2.419818 1_555
Co14 Co21 2.430440 1_555
Co14 Co18 2.430440 1_545
Co14 Co19 2.430740 1_545
Co14 Co22 2.430740 1_555
Co14 Co30 2.547197 1_545
Co14 Co31 2.547197 1_555
Co14 Sm1 3.102217 1_555
Co14 Sm0 3.102217 1_545
Co15 Co9 2.440484 1_554
Co15 Co3 2.440484 1_455
Co15 Co6 2.441036 1_554
Co15 Co28 2.458802 1_555
Co15 Co25 2.458802 1_454
Co15 Co29 2.459307 1_555
Co15 Co26 2.459307 1_454
Co15 Hf0 2.599047 1_554
Co15 Hf1 2.599047 1_455
Co15 Sm1 3.256073 1_454
Co15 Sm0 3.256073 1_555
Co16 Co7 2.440144 1_555
Co16 Co5 2.440144 1_455
Co16 Co24 2.459503 1_455
Co16 Co27 2.459503 1_555
Co16 Co26 2.459503 1_455
Co16 Co29 2.459503 1_555
Co16 Hf0 2.602415 1_555
Co16 Hf1 2.602415 1_455
Co16 Sm1 3.259163 1_455
Co16 Sm0 3.259163 1_555
Co17 Co2 2.440484 1_445
Co17 Co8 2.440484 1_555
Co17 Co4 2.441036 1_445
Co17 Co28 2.458802 1_545
Co17 Co25 2.458802 1_455
Co17 Co24 2.459307 1_455
Co17 Co27 2.459307 1_545
Co17 Hf1 2.599047 1_445
Co17 Hf0 2.599047 1_555
Co17 Sm1 3.256073 1_455
Co17 Sm0 3.256073 1_545
Co18 Co22 2.436794 1_565
Co18 Co23 2.440448 1_555
Co18 Co2 2.494275 1_555
Co18 Co5 2.495397 1_555
Co18 Co7 2.580004 1_555
Co18 Co30 2.589281 1_555
Co18 Sm0 3.030490 1_555
Co18 Sm3 3.097929 1_556
Co18 Sm2 3.256153 1_565
Co19 Co21 2.436794 1_565
Co19 Co23 2.436794 1_554
Co19 Co4 2.494167 1_555
Co19 Co8 2.578691 1_565
Co19 Co9 2.578691 1_554
Co19 Co30 2.588857 1_555
Co19 Sm0 3.028069 1_555
Co19 Sm3 3.098404 1_555
Co19 Sm2 3.256631 1_564
Co20 Co22 2.436794 1_554
Co20 Co21 2.440448 1_555
Co20 Co3 2.494275 1_555
Co20 Co6 2.578224 1_554
Co20 Co30 2.589281 1_555
Co20 Sm0 3.030490 1_555
Co20 Sm3 3.097929 1_545
Co20 Sm2 3.256153 1_554
Co21 Co8 2.494275 1_555
Co21 Co4 2.578224 1_545
Co21 Co31 2.589281 1_555
Co21 Sm1 3.030490 1_555
Co21 Sm2 3.097929 1_554
Co21 Sm3 3.256153 1_545
Co22 Co6 2.494167 1_555
Co22 Co3 2.578691 1_556
Co22 Co31 2.588857 1_555
Co22 Sm1 3.028069 1_555
Co22 Sm2 3.098404 1_555
Co22 Sm3 3.256631 1_546
Co23 Co9 2.494275 1_555
Co23 Co7 2.495397 1_555
Co23 Co5 2.580004 1_555
Co23 Co31 2.589281 1_555
Co23 Sm1 3.030490 1_555
Co23 Sm2 3.097929 1_565
Co23 Sm3 3.256153 1_556
Co24 Co28 2.396656 1_645
Co24 Co29 2.398326 1_655
Co24 Co8 2.557573 1_655
Co24 Co4 2.566656 1_545
Co24 Hf0 2.711914 1_655
Co24 Sm2 3.036376 1_554
Co24 Sm1 3.191806 1_555
Co24 Sm3 3.250147 1_645
Co25 Co29 2.396656 1_656
Co25 Co27 2.396656 1_645
Co25 Co6 2.558130 1_655
Co25 Co3 2.565875 1_556
Co25 Hf0 2.709717 1_655
Co25 Sm2 3.036566 1_555
Co25 Sm1 3.188674 1_555
Co25 Sm3 3.251997 1_646
Co26 Co28 2.396656 1_656
Co26 Co27 2.398326 1_655
Co26 Co9 2.557573 1_655
Co26 Co7 2.558062 1_655
Co26 Co5 2.567726 1_555
Co26 Hf0 2.711914 1_655
Co26 Sm2 3.036376 1_565
Co26 Sm1 3.191806 1_555
Co26 Sm3 3.250147 1_656
Co27 Co5 2.558062 1_455
Co27 Co7 2.567726 1_555
Co27 Hf1 2.711914 1_455
Co27 Sm3 3.036376 1_556
Co27 Sm0 3.191806 1_555
Co27 Sm2 3.250147 1_465
Co28 Co4 2.558130 1_455
Co28 Co8 2.565875 1_565
Co28 Co9 2.565875 1_554
Co28 Hf1 2.709717 1_455
Co28 Sm3 3.036566 1_555
Co28 Sm0 3.188674 1_555
Co28 Sm2 3.251997 1_464
Co29 Co3 2.557573 1_455
Co29 Co6 2.566656 1_554
Co29 Hf1 2.711914 1_455
Co29 Sm3 3.036376 1_545
Co29 Sm0 3.191806 1_555
Co29 Sm2 3.250147 1_454
Co30 Hf1 2.398345 1_555
Co30 Sm0 2.708891 1_555
Co30 Co4 2.784010 1_555
Co30 Co5 2.785148 1_555
Co31 Hf0 2.398345 1_555
Co31 Sm1 2.708891 1_555
Co31 Co6 2.784010 1_555
Co31 Co9 2.784283 1_555
Co31 Co8 2.784283 1_555
Co31 Co7 2.785148 1_555
