# generated using pymatgen
data_Cr(ClO2)3
_symmetry_space_group_name_H-M   'P 1'
_cell_length_a   9.35645390
_cell_length_b   9.35645390
_cell_length_c   8.23067364
_cell_angle_alpha   76.47161941
_cell_angle_beta   76.47161941
_cell_angle_gamma   122.14648796
_symmetry_Int_Tables_number   1
_chemical_formula_structural   Cr(ClO2)3
_chemical_formula_sum   'Cr2 Cl6 O12'
_cell_volume   533.98155027
_cell_formula_units_Z   2
loop_
 _symmetry_equiv_pos_site_id
 _symmetry_equiv_pos_as_xyz
  1  'x, y, z'
loop_
 _atom_site_type_symbol
 _atom_site_label
 _atom_site_symmetry_multiplicity
 _atom_site_fract_x
 _atom_site_fract_y
 _atom_site_fract_z
 _atom_site_occupancy
  Cr  Cr0  1  0.00000000  0.00000000  0.00000000  1
  Cr  Cr1  1  0.00000000  0.00000000  0.50000000  1
  Cl  Cl0  1  0.68656500  0.48741700  0.29141400  1
  Cl  Cl1  1  0.19141700  0.80858300  0.75000000  1
  Cl  Cl2  1  0.51258300  0.31343500  0.20858600  1
  Cl  Cl3  1  0.31343500  0.51258300  0.70858600  1
  Cl  Cl4  1  0.80858300  0.19141700  0.25000000  1
  Cl  Cl5  1  0.48741700  0.68656500  0.79141400  1
  O  O0  1  0.10076500  0.23970800  0.28183800  1
  O  O1  1  0.08419600  0.21891800  0.56136000  1
  O  O2  1  0.34089200  0.14710300  0.88079700  1
  O  O3  1  0.89923500  0.76029200  0.71816200  1
  O  O4  1  0.91580400  0.78108200  0.43864000  1
  O  O5  1  0.65910800  0.85289700  0.11920300  1
  O  O6  1  0.21891800  0.08419600  0.06136000  1
  O  O7  1  0.14710300  0.34089200  0.38079700  1
  O  O8  1  0.23970800  0.10076500  0.78183800  1
  O  O9  1  0.78108200  0.91580400  0.93864000  1
  O  O10  1  0.85289700  0.65910800  0.61920300  1
  O  O11  1  0.76029200  0.89923500  0.21816200  1
loop_
_geom_bond_atom_site_label_1
_geom_bond_atom_site_label_2
_geom_bond_distance
_geom_bond_site_symmetry_2
Cr0 O6 2.006025 1_555
Cr0 O9 2.006025 1_444
Cr0 O8 2.053516 1_554
Cr0 O11 2.053516 1_445
Cr1 O1 2.006025 1_555
Cr1 O4 2.006025 1_445
Cr1 O0 2.053516 1_555
Cr1 O3 2.053516 1_445
Cl0 Cl2 1.995752 1_555
Cl3 Cl5 1.995752 1_555
O0 O7 1.355303 1_555
O1 O7 1.392819 1_555
O2 O8 1.355303 1_555
O2 O6 1.392819 1_556
O5 O9 1.392819 1_554
O10 O3 1.355303 1_555
O10 O4 1.392819 1_555
O11 O5 1.355303 1_555
