# generated using pymatgen
data_ScNi2SbO6
_symmetry_space_group_name_H-M   'P 1'
_cell_length_a   5.22884820
_cell_length_b   5.22883500
_cell_length_c   5.60926477
_cell_angle_alpha   62.21918850
_cell_angle_beta   62.22311683
_cell_angle_gamma   60.00006868
_symmetry_Int_Tables_number   1
_chemical_formula_structural   ScNi2SbO6
_chemical_formula_sum   'Sc1 Ni2 Sb1 O6'
_cell_volume   111.94234093
_cell_formula_units_Z   1
loop_
 _symmetry_equiv_pos_site_id
 _symmetry_equiv_pos_as_xyz
  1  'x, y, z'
loop_
 _atom_site_type_symbol
 _atom_site_label
 _atom_site_symmetry_multiplicity
 _atom_site_fract_x
 _atom_site_fract_y
 _atom_site_fract_z
 _atom_site_occupancy
  Sc  Sc0  1  0.18827900  0.18828400  0.43515100  1
  Ni  Ni0  1  0.47870000  0.47869700  0.56391000  1
  Ni  Ni1  1  0.98387200  0.98385600  0.04841900  1
  Sb  Sb0  1  0.68116100  0.68118500  0.95645300  1
  O  O0  1  0.40012500  0.06681800  0.75343500  1
  O  O1  1  0.77964000  0.40011600  0.75343800  1
  O  O2  1  0.06680900  0.77963400  0.75343300  1
  O  O3  1  0.58559200  0.88356100  0.24018700  1
  O  O4  1  0.29066100  0.58558500  0.24019500  1
  O  O5  1  0.88356400  0.29066300  0.24017800  1
loop_
_geom_bond_atom_site_label_1
_geom_bond_atom_site_label_2
_geom_bond_distance
_geom_bond_site_symmetry_2
Ni0 O1 2.068969 1_555
Ni0 O0 2.068973 1_555
Ni0 O2 2.069074 1_555
Ni0 O4 2.178244 1_555
Ni0 O3 2.178328 1_555
Ni0 O5 2.178443 1_555
Ni1 O4 2.060767 1_655
Ni1 O5 2.060815 1_565
Ni1 O3 2.060930 1_555
Ni1 O1 2.140335 1_564
Ni1 O2 2.140425 1_654
Ni1 O0 2.140480 1_664
O0 Sb0 1.994560 1_545
O0 Sc0 2.213724 1_555
O1 Sb0 1.994650 1_555
O1 Sc0 2.213818 1_655
O2 Sb0 1.994821 1_455
O2 Sc0 2.213756 1_565
O3 Sb0 2.049960 1_554
O3 Sc0 2.060887 1_565
O4 Sb0 2.049942 1_554
O4 Sc0 2.060801 1_555
O5 Sb0 2.049876 1_554
O5 Sc0 2.060762 1_655
