# generated using pymatgen
data_LiAlH4
_symmetry_space_group_name_H-M   'P 1'
_cell_length_a   6.11718224
_cell_length_b   6.11718224
_cell_length_c   4.51862271
_cell_angle_alpha   68.66782405
_cell_angle_beta   68.66782405
_cell_angle_gamma   116.91095395
_symmetry_Int_Tables_number   1
_chemical_formula_structural   LiAlH4
_chemical_formula_sum   'Li2 Al2 H8'
_cell_volume   108.36014477
_cell_formula_units_Z   2
loop_
 _symmetry_equiv_pos_site_id
 _symmetry_equiv_pos_as_xyz
  1  'x, y, z'
loop_
 _atom_site_type_symbol
 _atom_site_label
 _atom_site_symmetry_multiplicity
 _atom_site_fract_x
 _atom_site_fract_y
 _atom_site_fract_z
 _atom_site_occupancy
  Li  Li0  1  0.63865300  0.36134700  0.25000000  1
  Li  Li1  1  0.36134700  0.63865300  0.75000000  1
  Al  Al0  1  0.12349500  0.87650500  0.25000000  1
  Al  Al1  1  0.87650500  0.12349500  0.75000000  1
  H  H0  1  0.37870200  0.96393500  0.82519800  1
  H  H1  1  0.62129800  0.03606500  0.17480200  1
  H  H2  1  0.96393500  0.37870200  0.32519800  1
  H  H3  1  0.03606500  0.62129800  0.67480200  1
  H  H4  1  0.20869600  0.29868300  0.68202000  1
  H  H5  1  0.79130400  0.70131700  0.31798000  1
  H  H6  1  0.29868300  0.20869600  0.18202000  1
  H  H7  1  0.70131700  0.79130400  0.81798000  1
loop_
_geom_bond_atom_site_label_1
_geom_bond_atom_site_label_2
_geom_bond_distance
_geom_bond_site_symmetry_2
Al0 H6 1.645364 1_565
Al0 H5 1.645364 1_455
Al0 H0 1.650715 1_554
Al0 H3 1.650715 1_555
Al1 H7 1.645364 1_545
Al1 H4 1.645364 1_655
Al1 H1 1.650715 1_556
Al1 H2 1.650715 1_555
H0 Li0 2.022523 1_565
H0 Li1 2.100715 1_555
H1 Li1 2.022523 1_545
H1 Li0 2.100715 1_555
H2 Li1 2.022523 1_654
H2 Li0 2.100715 1_555
H3 Li0 2.022523 1_456
H3 Li1 2.100715 1_555
H4 Li1 2.051067 1_555
H5 Li0 2.051067 1_555
H6 Li0 2.051067 1_555
H7 Li1 2.051067 1_555
