# generated using pymatgen
data_TmMgSe3
_symmetry_space_group_name_H-M   'P 1'
_cell_length_a   6.86992400
_cell_length_b   6.86992425
_cell_length_c   19.13125000
_cell_angle_alpha   90.00000000
_cell_angle_beta   90.00000000
_cell_angle_gamma   119.99999877
_symmetry_Int_Tables_number   1
_chemical_formula_structural   TmMgSe3
_chemical_formula_sum   'Tm6 Mg6 Se18'
_cell_volume   781.94798583
_cell_formula_units_Z   6
loop_
 _symmetry_equiv_pos_site_id
 _symmetry_equiv_pos_as_xyz
  1  'x, y, z'
loop_
 _atom_site_type_symbol
 _atom_site_label
 _atom_site_symmetry_multiplicity
 _atom_site_fract_x
 _atom_site_fract_y
 _atom_site_fract_z
 _atom_site_occupancy
  Tm  Tm0  1  0.00000000  0.00000000  0.34624000  1
  Tm  Tm1  1  0.00000000  0.00000000  0.65376000  1
  Tm  Tm2  1  0.66666700  0.33333300  0.67957300  1
  Tm  Tm3  1  0.66666700  0.33333300  0.98709300  1
  Tm  Tm4  1  0.33333300  0.66666700  0.01290700  1
  Tm  Tm5  1  0.33333300  0.66666700  0.32042700  1
  Mg  Mg0  1  0.00000000  0.00000000  0.15930700  1
  Mg  Mg1  1  0.00000000  0.00000000  0.84069300  1
  Mg  Mg2  1  0.66666700  0.33333300  0.49264000  1
  Mg  Mg3  1  0.66666700  0.33333300  0.17402600  1
  Mg  Mg4  1  0.33333300  0.66666700  0.82597400  1
  Mg  Mg5  1  0.33333300  0.66666700  0.50736000  1
  Se  Se0  1  0.98855300  0.35149000  0.58372900  1
  Se  Se1  1  0.01144700  0.64851000  0.41627100  1
  Se  Se2  1  0.64851000  0.63706300  0.58372900  1
  Se  Se3  1  0.35149000  0.36293700  0.41627100  1
  Se  Se4  1  0.36293700  0.01144700  0.58372900  1
  Se  Se5  1  0.63706300  0.98855300  0.41627100  1
  Se  Se6  1  0.65522000  0.68482300  0.91706200  1
  Se  Se7  1  0.67811400  0.98184300  0.74960400  1
  Se  Se8  1  0.31517700  0.97039600  0.91706200  1
  Se  Se9  1  0.01815700  0.69627000  0.74960400  1
  Se  Se10  1  0.02960400  0.34478000  0.91706200  1
  Se  Se11  1  0.30373000  0.32188600  0.74960400  1
  Se  Se12  1  0.32188600  0.01815700  0.25039600  1
  Se  Se13  1  0.34478000  0.31517700  0.08293800  1
  Se  Se14  1  0.98184300  0.30373000  0.25039600  1
  Se  Se15  1  0.68482300  0.02960400  0.08293800  1
  Se  Se16  1  0.69627000  0.67811400  0.25039600  1
  Se  Se17  1  0.97039600  0.65522000  0.08293800  1
loop_
_geom_bond_atom_site_label_1
_geom_bond_atom_site_label_2
_geom_bond_distance
_geom_bond_site_symmetry_2
Mg0 Se17 2.702700 1_445
Mg0 Se13 2.702702 1_555
Mg0 Se15 2.702706 1_455
Mg0 Se12 2.768850 1_555
Mg0 Se16 2.768853 1_445
Mg0 Se14 2.768856 1_455
Mg1 Se10 2.702700 1_555
Mg1 Se6 2.702702 1_445
Mg1 Se8 2.702706 1_545
Mg1 Se7 2.768850 1_445
Mg1 Se11 2.768853 1_555
Mg1 Se9 2.768856 1_545
Mg2 Se5 2.702700 1_545
Mg2 Se1 2.702702 1_655
Mg2 Se3 2.702706 1_555
Mg2 Se0 2.768850 1_555
Mg2 Se4 2.768853 1_555
Mg2 Se2 2.768856 1_555
Mg3 Se14 2.702707 1_555
Mg3 Se12 2.702714 1_555
Mg3 Se16 2.702719 1_555
Mg3 Se15 2.768835 1_555
Mg3 Se17 2.768841 1_555
Mg3 Se13 2.768846 1_555
Mg4 Se9 2.702707 1_555
Mg4 Se7 2.702714 1_555
Mg4 Se11 2.702719 1_555
Mg4 Se8 2.768835 1_555
Mg4 Se10 2.768841 1_555
Mg4 Se6 2.768846 1_555
Mg5 Se4 2.702700 1_565
Mg5 Se0 2.702702 1_455
Mg5 Se2 2.702706 1_555
Mg5 Se1 2.768850 1_555
Mg5 Se5 2.768853 1_555
Mg5 Se3 2.768856 1_555
Se0 Tm1 2.796768 1_655
Se0 Tm2 2.826988 1_555
Se1 Tm0 2.796768 1_565
Se1 Tm5 2.826988 1_555
Se2 Tm1 2.796768 1_665
Se2 Tm2 2.826993 1_555
Se3 Tm0 2.796768 1_555
Se3 Tm5 2.826993 1_555
Se4 Tm1 2.796768 1_555
Se4 Tm2 2.826990 1_555
Se5 Tm0 2.796768 1_665
Se5 Tm5 2.826990 1_555
Se6 Tm3 2.796768 1_555
Se6 Tm4 2.827008 1_556
Se7 Tm2 2.796768 1_565
Se7 Tm1 2.826988 1_665
Se8 Tm3 2.796768 1_565
Se8 Tm4 2.826998 1_556
Se9 Tm2 2.796768 1_455
Se9 Tm1 2.826993 1_565
Se10 Tm3 2.796768 1_455
Se10 Tm4 2.827003 1_556
Se11 Tm2 2.796768 1_555
Se11 Tm1 2.826990 1_555
Se12 Tm5 2.796768 1_545
Se12 Tm0 2.826988 1_555
Se13 Tm4 2.796768 1_555
Se13 Tm3 2.827008 1_554
Se14 Tm5 2.796768 1_655
Se14 Tm0 2.826993 1_655
Se15 Tm4 2.796768 1_545
Se15 Tm3 2.826998 1_554
Se16 Tm5 2.796768 1_555
Se16 Tm0 2.826990 1_665
Se17 Tm4 2.796768 1_655
Se17 Tm3 2.827003 1_554
