# generated using pymatgen
data_Sr4Y2(Fe2O5)3
_symmetry_space_group_name_H-M   'P 1'
_cell_length_a   12.33769235
_cell_length_b   12.30982403
_cell_length_c   5.52112132
_cell_angle_alpha   77.33774990
_cell_angle_beta   76.77403526
_cell_angle_gamma   25.88821484
_symmetry_Int_Tables_number   1
_chemical_formula_structural   Sr4Y2(Fe2O5)3
_chemical_formula_sum   'Sr4 Y2 Fe6 O15'
_cell_volume   356.22418327
_cell_formula_units_Z   1
loop_
 _symmetry_equiv_pos_site_id
 _symmetry_equiv_pos_as_xyz
  1  'x, y, z'
loop_
 _atom_site_type_symbol
 _atom_site_label
 _atom_site_symmetry_multiplicity
 _atom_site_fract_x
 _atom_site_fract_y
 _atom_site_fract_z
 _atom_site_occupancy
  Sr  Sr0  1  0.68351000  0.15496100  0.84503900  1
  Sr  Sr1  1  0.15496100  0.68351000  0.31649000  1
  Sr  Sr2  1  0.31649000  0.84503900  0.15496100  1
  Sr  Sr3  1  0.84503900  0.31649000  0.68351000  1
  Y  Y0  1  0.50000000  0.00000000  0.00000000  1
  Y  Y1  1  0.00000000  0.50000000  0.50000000  1
  Fe  Fe0  1  0.25278800  0.74721200  0.74721200  1
  Fe  Fe1  1  0.74721200  0.25278800  0.25278800  1
  Fe  Fe2  1  0.57509000  0.08608900  0.42491000  1
  Fe  Fe3  1  0.08608900  0.57509000  0.91391100  1
  Fe  Fe4  1  0.42491000  0.91391100  0.57509000  1
  Fe  Fe5  1  0.91391100  0.42491000  0.08608900  1
  O  O0  1  0.81184700  0.81184700  0.68815300  1
  O  O1  1  0.31184700  0.31184700  0.18815300  1
  O  O2  1  0.30335100  0.30335100  0.69664900  1
  O  O3  1  0.81694700  0.81694700  0.18305300  1
  O  O4  1  0.68815300  0.68815300  0.81184700  1
  O  O5  1  0.18815300  0.18815300  0.31184700  1
  O  O6  1  0.18305300  0.18305300  0.81694700  1
  O  O7  1  0.69664900  0.69664900  0.30335100  1
  O  O8  1  0.63462700  0.19008200  0.36537300  1
  O  O9  1  0.19008200  0.63462700  0.80991800  1
  O  O10  1  0.36537300  0.80991800  0.63462700  1
  O  O11  1  0.80991800  0.36537300  0.19008200  1
  O  O12  1  0.00000000  0.00000000  0.00000000  1
  O  O13  1  0.00000000  0.00000000  0.50000000  1
  O  O14  1  0.50000000  0.50000000  0.00000000  1
loop_
_geom_bond_atom_site_label_1
_geom_bond_atom_site_label_2
_geom_bond_distance
_geom_bond_site_symmetry_2
Fe0 O12 1.951415 1_566
Fe0 O13 1.973999 1_565
Fe0 O14 1.973999 1_556
Fe0 O9 2.058010 1_555
Fe0 O10 2.058010 1_555
Fe1 O12 1.951415 1_655
Fe1 O13 1.973999 1_655
Fe1 O14 1.973999 1_555
Fe1 O8 2.058010 1_555
Fe1 O11 2.058010 1_555
Fe2 O8 1.919196 1_555
Fe2 O2 1.991964 1_555
Fe2 O3 1.997967 1_545
Fe2 O0 2.022374 1_545
Fe2 O1 2.022374 1_555
Fe3 O9 1.919196 1_555
Fe3 O2 1.991964 1_555
Fe3 O3 1.997967 1_456
Fe3 O1 2.022374 1_556
Fe3 O0 2.022374 1_455
Fe4 O10 1.919196 1_555
Fe4 O7 1.991964 1_555
Fe4 O6 1.997967 1_565
Fe4 O5 2.022374 1_565
Fe4 O4 2.022374 1_555
Fe5 O11 1.919196 1_555
Fe5 O7 1.991964 1_555
Fe5 O6 1.997967 1_654
Fe5 O5 2.022374 1_655
Fe5 O4 2.022374 1_554
O0 Y0 2.411434 1_566
O0 Y1 2.411434 1_655
O0 Sr0 3.168595 1_565
O0 Sr1 3.168595 1_655
O1 Y1 2.411434 1_555
O1 Y0 2.411434 1_555
O1 Sr1 3.168595 1_555
O1 Sr0 3.168595 1_554
O2 Y1 2.334915 1_555
O2 Y0 2.334915 1_556
O3 Y1 2.519072 1_655
O3 Y0 2.519072 1_565
O3 Sr0 3.030238 1_564
O3 Sr1 3.030238 1_655
O4 Y0 2.411434 1_566
O4 Y1 2.411434 1_655
O4 Sr2 3.168595 1_556
O4 Sr3 3.168595 1_555
O5 Y0 2.411434 1_555
O5 Y1 2.411434 1_555
O5 Sr3 3.168595 1_455
O5 Sr2 3.168595 1_545
O6 Y0 2.519072 1_556
O6 Y1 2.519072 1_555
O6 Sr2 3.030238 1_546
O6 Sr3 3.030238 1_455
O7 Y0 2.334915 1_565
O7 Y1 2.334915 1_655
O8 Sr0 2.706262 1_555
O8 Sr1 2.706262 1_555
O8 Sr1 2.843646 1_645
O8 Sr0 2.843646 1_554
O9 Sr0 2.706262 1_555
O9 Sr1 2.706262 1_555
O9 Sr1 2.843646 1_556
O9 Sr0 2.843646 1_465
O10 Sr3 2.706262 1_555
O10 Sr2 2.706262 1_555
O10 Sr2 2.843646 1_556
O10 Sr3 2.843646 1_465
O11 Sr3 2.706262 1_555
O11 Sr2 2.706262 1_555
O11 Sr3 2.843646 1_554
O11 Sr2 2.843646 1_645
O12 Sr2 2.651222 1_545
O12 Sr3 2.651222 1_454
O12 Sr1 2.651222 1_545
O12 Sr0 2.651222 1_454
O13 Sr2 2.702256 1_545
O13 Sr3 2.702256 1_455
O13 Sr0 2.702256 1_455
O13 Sr1 2.702256 1_545
O14 Sr1 2.702256 1_555
O14 Sr2 2.702256 1_555
O14 Sr3 2.702256 1_554
O14 Sr0 2.702256 1_554
