# generated using pymatgen
data_LiHfMg6
_symmetry_space_group_name_H-M   'P 1'
_cell_length_a   5.07039400
_cell_length_b   6.33036300
_cell_length_c   11.03255400
_cell_angle_alpha   90.00000000
_cell_angle_beta   90.00000000
_cell_angle_gamma   90.00000000
_symmetry_Int_Tables_number   1
_chemical_formula_structural   LiHfMg6
_chemical_formula_sum   'Li2 Hf2 Mg12'
_cell_volume   354.11668019
_cell_formula_units_Z   2
loop_
 _symmetry_equiv_pos_site_id
 _symmetry_equiv_pos_as_xyz
  1  'x, y, z'
loop_
 _atom_site_type_symbol
 _atom_site_label
 _atom_site_symmetry_multiplicity
 _atom_site_fract_x
 _atom_site_fract_y
 _atom_site_fract_z
 _atom_site_occupancy
  Li  Li0  1  0.00000000  0.50000000  0.33222600  1
  Li  Li1  1  0.00000000  0.00000000  0.83222600  1
  Hf  Hf0  1  0.50000000  0.50000000  0.16554900  1
  Hf  Hf1  1  0.50000000  0.00000000  0.66554900  1
  Mg  Mg0  1  0.00000000  0.25457100  0.08479000  1
  Mg  Mg1  1  0.00000000  0.74542900  0.08479000  1
  Mg  Mg2  1  0.00000000  0.00000000  0.33322200  1
  Mg  Mg3  1  0.50000000  0.74562300  0.41738200  1
  Mg  Mg4  1  0.50000000  0.25437700  0.41738200  1
  Mg  Mg5  1  0.50000000  0.00000000  0.16465800  1
  Mg  Mg6  1  0.00000000  0.75457100  0.58479000  1
  Mg  Mg7  1  0.00000000  0.24542900  0.58479000  1
  Mg  Mg8  1  0.00000000  0.50000000  0.83322200  1
  Mg  Mg9  1  0.50000000  0.24562300  0.91738200  1
  Mg  Mg10  1  0.50000000  0.75437700  0.91738200  1
  Mg  Mg11  1  0.50000000  0.50000000  0.66465800  1
loop_
_geom_bond_atom_site_label_1
_geom_bond_atom_site_label_2
_geom_bond_distance
_geom_bond_site_symmetry_2
Li0 Mg4 3.118898 1_555
Li0 Mg4 3.118898 1_455
Li0 Mg3 3.118898 1_455
Li0 Mg3 3.118898 1_555
Li0 Mg0 3.141008 1_555
Li0 Mg1 3.141008 1_555
Li0 Mg2 3.165201 1_555
Li0 Mg2 3.165201 1_565
Li0 Mg6 3.218880 1_555
Li0 Mg7 3.218880 1_555
Li1 Mg10 3.118898 1_545
Li1 Mg10 3.118898 1_445
Li1 Mg9 3.118898 1_455
Li1 Mg9 3.118898 1_555
Li1 Mg6 3.141008 1_545
Li1 Mg7 3.141008 1_555
Li1 Mg8 3.165201 1_555
Li1 Mg8 3.165201 1_545
Li1 Mg0 3.218880 1_556
Li1 Mg1 3.218880 1_546
Hf0 Mg1 3.104015 1_655
Hf0 Mg1 3.104015 1_555
Hf0 Mg0 3.104015 1_655
Hf0 Mg0 3.104015 1_555
Hf0 Li0 3.131881 1_655
Hf0 Li0 3.131881 1_555
Hf0 Mg5 3.165197 1_565
Hf0 Mg5 3.165197 1_555
Hf0 Mg9 3.176357 1_554
Hf0 Mg10 3.176357 1_554
Hf0 Mg3 3.183858 1_555
Hf0 Mg4 3.183858 1_555
Hf1 Mg7 3.104015 1_655
Hf1 Mg6 3.104015 1_545
Hf1 Mg6 3.104015 1_645
Hf1 Mg7 3.104015 1_555
Hf1 Li1 3.131881 1_555
Hf1 Li1 3.131881 1_655
Hf1 Mg11 3.165197 1_555
Hf1 Mg11 3.165197 1_545
Hf1 Mg3 3.176357 1_545
Hf1 Mg4 3.176357 1_555
Hf1 Mg10 3.183858 1_545
Hf1 Mg9 3.183858 1_555
Mg0 Mg1 3.107309 1_555
Mg0 Mg5 3.130601 1_455
Mg0 Mg5 3.130601 1_555
Mg0 Mg9 3.137134 1_454
Mg0 Mg9 3.137134 1_554
Mg0 Mg2 3.179500 1_555
Mg0 Mg8 3.180707 1_554
Mg0 Mg1 3.223054 1_545
Mg1 Mg5 3.130601 1_565
Mg1 Mg5 3.130601 1_465
Mg1 Mg10 3.137134 1_554
Mg1 Mg10 3.137134 1_454
Mg1 Mg2 3.179500 1_565
Mg1 Mg8 3.180707 1_554
Mg2 Mg4 3.143628 1_555
Mg2 Mg3 3.143628 1_545
Mg2 Mg4 3.143628 1_455
Mg2 Mg3 3.143628 1_445
Mg2 Mg5 3.144149 1_555
Mg2 Mg5 3.144149 1_455
Mg2 Mg6 3.180707 1_545
Mg2 Mg7 3.180707 1_555
Mg3 Mg4 3.109766 1_555
Mg3 Mg6 3.137134 1_555
Mg3 Mg6 3.137134 1_655
Mg3 Mg5 3.219794 1_565
Mg3 Mg4 3.220597 1_565
Mg4 Mg7 3.137134 1_555
Mg4 Mg7 3.137134 1_655
Mg4 Mg5 3.219794 1_555
Mg5 Mg9 3.140082 1_554
Mg6 Mg7 3.107309 1_565
Mg6 Mg8 3.179500 1_555
Mg6 Mg7 3.223054 1_555
Mg7 Mg8 3.179500 1_555
Mg8 Mg9 3.143628 1_555
Mg8 Mg9 3.143628 1_455
Mg10 Mg9 3.109766 1_565
Mg10 Mg5 3.140082 1_566
Mg10 Mg8 3.143628 1_655
Mg10 Mg8 3.143628 1_555
Mg10 Mg11 3.219794 1_555
Mg10 Mg9 3.220597 1_555
Mg11 Mg7 3.130601 1_555
Mg11 Mg7 3.130601 1_655
Mg11 Mg6 3.130601 1_555
Mg11 Mg6 3.130601 1_655
Mg11 Mg3 3.140082 1_555
Mg11 Mg4 3.140082 1_555
Mg11 Mg8 3.144149 1_555
Mg11 Mg8 3.144149 1_655
Mg11 Mg9 3.219794 1_555
