# generated using pymatgen
data_Cs2FeO4
_symmetry_space_group_name_H-M   'P 1'
_cell_length_a   6.27588320
_cell_length_b   8.41802411
_cell_length_c   11.10393908
_cell_angle_alpha   89.99996952
_cell_angle_beta   90.00001104
_cell_angle_gamma   89.99998783
_symmetry_Int_Tables_number   1
_chemical_formula_structural   Cs2FeO4
_chemical_formula_sum   'Cs8 Fe4 O16'
_cell_volume   586.62705430
_cell_formula_units_Z   4
loop_
 _symmetry_equiv_pos_site_id
 _symmetry_equiv_pos_as_xyz
  1  'x, y, z'
loop_
 _atom_site_type_symbol
 _atom_site_label
 _atom_site_symmetry_multiplicity
 _atom_site_fract_x
 _atom_site_fract_y
 _atom_site_fract_z
 _atom_site_occupancy
  Cs  Cs0  1  0.25000140  0.66569271  0.40903402  1
  Cs  Cs1  1  0.75000051  0.33430752  0.59096557  1
  Cs  Cs2  1  0.25000159  0.16569732  0.09095938  1
  Cs  Cs3  1  0.75000180  0.83430278  0.90904207  1
  Cs  Cs4  1  0.75000289  0.51449540  0.19429903  1
  Cs  Cs5  1  0.25000301  0.48550458  0.80570106  1
  Cs  Cs6  1  0.75000204  0.01449338  0.30569662  1
  Cs  Cs7  1  0.25000210  0.98550719  0.69430291  1
  Fe  Fe0  1  0.75000203  0.26325076  0.91887506  1
  Fe  Fe1  1  0.25000263  0.73674911  0.08112501  1
  Fe  Fe2  1  0.74999987  0.76325721  0.58113453  1
  Fe  Fe3  1  0.24999943  0.23674271  0.41886535  1
  O  O0  1  0.24998423  0.04199008  0.41164458  1
  O  O1  1  0.74998393  0.95801012  0.58835511  1
  O  O2  1  0.24999218  0.54197183  0.08835293  1
  O  O3  1  0.74999272  0.45802803  0.91164724  1
  O  O4  1  0.25000370  0.79710068  0.93966865  1
  O  O5  1  0.75000340  0.20289901  0.06033142  1
  O  O6  1  0.25000243  0.29707356  0.56030087  1
  O  O7  1  0.75000193  0.70292619  0.43969881  1
  O  O8  1  0.53552884  0.19270533  0.85215926  1
  O  O9  1  0.03552969  0.80729388  0.14784085  1
  O  O10  1  0.96446249  0.69272801  0.64783237  1
  O  O11  1  0.46446109  0.30727202  0.35216762  1
  O  O12  1  0.53554093  0.69271445  0.64782773  1
  O  O13  1  0.03554143  0.30728591  0.35217168  1
  O  O14  1  0.96447569  0.19271174  0.85215567  1
  O  O15  1  0.46447605  0.80728850  0.14784457  1
loop_
_geom_bond_atom_site_label_1
_geom_bond_atom_site_label_2
_geom_bond_distance
_geom_bond_site_symmetry_2
Cs0 O0 3.167813 1_565
Cs0 O7 3.171882 1_455
Cs0 O7 3.171889 1_555
Cs0 O12 3.208391 1_555
Cs0 O10 3.208440 1_455
Cs0 O13 3.363471 1_555
Cs0 O11 3.363583 1_555
Cs0 O15 3.412311 1_555
Cs0 O9 3.412354 1_555
Cs0 O6 3.528475 1_555
Cs0 O2 3.710008 1_555
Cs1 O1 3.167813 1_545
Cs1 O6 3.171874 1_555
Cs1 O6 3.171898 1_655
Cs1 O13 3.208398 1_655
Cs1 O11 3.208438 1_555
Cs1 O12 3.363470 1_555
Cs1 O10 3.363588 1_555
Cs1 O14 3.412318 1_555
Cs1 O8 3.412363 1_555
Cs1 O7 3.528471 1_555
Cs1 O3 3.710013 1_555
Cs2 O2 3.167620 1_555
Cs2 O5 3.171804 1_455
Cs2 O5 3.171827 1_555
Cs2 O8 3.208399 1_554
Cs2 O14 3.208430 1_454
Cs2 O9 3.363515 1_545
Cs2 O15 3.363569 1_545
Cs2 O11 3.412390 1_555
Cs2 O13 3.412471 1_555
Cs2 O4 3.528436 1_544
Cs2 O0 3.710018 1_555
Cs3 O3 3.167622 1_555
Cs3 O4 3.171802 1_555
Cs3 O4 3.171826 1_655
Cs3 O9 3.208389 1_656
Cs3 O15 3.208419 1_556
Cs3 O8 3.363513 1_565
Cs3 O14 3.363572 1_565
Cs3 O10 3.412407 1_555
Cs3 O12 3.412491 1_555
Cs3 O5 3.528425 1_566
Cs3 O1 3.710037 1_555
Cs4 O5 3.015481 1_555
Cs4 O13 3.053995 1_655
Cs4 O11 3.054048 1_555
Cs4 O15 3.090637 1_555
Cs4 O9 3.090681 1_655
Cs4 O7 3.152965 1_555
Cs4 O3 3.174341 1_554
Cs4 O2 3.359124 1_655
Cs4 O2 3.359250 1_555
Cs5 O4 3.015479 1_555
Cs5 O12 3.053999 1_555
Cs5 O10 3.054044 1_455
Cs5 O14 3.090638 1_455
Cs5 O8 3.090682 1_555
Cs5 O6 3.152969 1_555
Cs5 O2 3.174341 1_556
Cs5 O3 3.359127 1_555
Cs5 O3 3.359248 1_455
Cs6 O7 3.015456 1_545
Cs6 O15 3.053796 1_545
Cs6 O9 3.053800 1_645
Cs6 O11 3.090623 1_555
Cs6 O13 3.090718 1_655
Cs6 O5 3.152525 1_555
Cs6 O1 3.174434 1_545
Cs6 O0 3.359102 1_655
Cs6 O0 3.359311 1_555
Cs7 O6 3.015449 1_565
Cs7 O8 3.053794 1_565
Cs7 O14 3.053801 1_465
Cs7 O10 3.090621 1_455
Cs7 O12 3.090717 1_555
Cs7 O4 3.152534 1_555
Cs7 O0 3.174431 1_565
Cs7 O1 3.359099 1_555
Cs7 O1 3.359312 1_455
Fe0 O3 1.641603 1_555
Fe0 O8 1.647179 1_555
Fe0 O14 1.647180 1_555
Fe0 O5 1.650841 1_556
Fe1 O2 1.641603 1_555
Fe1 O9 1.647176 1_555
Fe1 O15 1.647180 1_555
Fe1 O4 1.650841 1_554
Fe2 O1 1.641394 1_555
Fe2 O12 1.646985 1_555
Fe2 O10 1.646985 1_555
Fe2 O7 1.650570 1_555
Fe3 O0 1.641392 1_555
Fe3 O11 1.646980 1_555
Fe3 O13 1.646983 1_555
Fe3 O6 1.650567 1_555
