# generated using pymatgen
data_Ca2B2O5
_symmetry_space_group_name_H-M   'P 1'
_cell_length_a   6.35817880
_cell_length_b   3.54450209
_cell_length_c   19.28689936
_cell_angle_alpha   87.76668225
_cell_angle_beta   90.00000000
_cell_angle_gamma   90.00000000
_symmetry_Int_Tables_number   1
_chemical_formula_structural   Ca2B2O5
_chemical_formula_sum   'Ca8 B8 O20'
_cell_volume   434.33055518
_cell_formula_units_Z   4
loop_
 _symmetry_equiv_pos_site_id
 _symmetry_equiv_pos_as_xyz
  1  'x, y, z'
loop_
 _atom_site_type_symbol
 _atom_site_label
 _atom_site_symmetry_multiplicity
 _atom_site_fract_x
 _atom_site_fract_y
 _atom_site_fract_z
 _atom_site_occupancy
  Ca  Ca0  1  0.44947902  0.71301967  0.71069486  1
  Ca  Ca1  1  0.94947902  0.28698033  0.78930514  1
  Ca  Ca2  1  0.55052098  0.28698033  0.28930514  1
  Ca  Ca3  1  0.05052098  0.71301967  0.21069486  1
  Ca  Ca4  1  0.69325496  0.24727532  0.56200755  1
  Ca  Ca5  1  0.19325496  0.75272468  0.93799245  1
  Ca  Ca6  1  0.30674504  0.75272468  0.43799245  1
  Ca  Ca7  1  0.80674504  0.24727532  0.06200755  1
  B  B0  1  0.96640038  0.83615030  0.65656087  1
  B  B1  1  0.46640038  0.16384970  0.84343913  1
  B  B2  1  0.03359962  0.16384970  0.34343913  1
  B  B3  1  0.53359962  0.83615030  0.15656087  1
  B  B4  1  0.75186934  0.82249427  0.91758348  1
  B  B5  1  0.25186934  0.17750573  0.58241652  1
  B  B6  1  0.24813066  0.17750573  0.08241652  1
  B  B7  1  0.74813066  0.82249427  0.41758348  1
  O  O0  1  0.30754313  0.24321542  0.51517329  1
  O  O1  1  0.80754313  0.75678458  0.98482671  1
  O  O2  1  0.69245687  0.75678458  0.48482671  1
  O  O3  1  0.19245687  0.24321542  0.01517329  1
  O  O4  1  0.39076194  0.23279540  0.63468235  1
  O  O5  1  0.89076194  0.76720460  0.86531765  1
  O  O6  1  0.60923806  0.76720460  0.36531765  1
  O  O7  1  0.10923806  0.23279540  0.13468235  1
  O  O8  1  0.76606021  0.71113980  0.64797911  1
  O  O9  1  0.26606021  0.28886020  0.85202089  1
  O  O10  1  0.23393979  0.28886020  0.35202089  1
  O  O11  1  0.73393979  0.71113980  0.14797911  1
  O  O12  1  0.04842373  0.03188170  0.59653946  1
  O  O13  1  0.54842373  0.96811830  0.90346054  1
  O  O14  1  0.95157627  0.96811830  0.40346054  1
  O  O15  1  0.45157627  0.03188170  0.09653946  1
  O  O16  1  0.07642234  0.79784958  0.71690948  1
  O  O17  1  0.57642234  0.20215042  0.78309052  1
  O  O18  1  0.92357766  0.20215042  0.28309052  1
  O  O19  1  0.42357766  0.79784958  0.21690948  1
loop_
_geom_bond_atom_site_label_1
_geom_bond_atom_site_label_2
_geom_bond_distance
_geom_bond_site_symmetry_2
Ca0 O4 2.319589 1_555
Ca0 O4 2.339316 1_565
Ca0 O8 2.348504 1_555
Ca0 O17 2.383891 1_555
Ca0 O16 2.394532 1_555
Ca0 O17 2.407394 1_565
Ca1 O5 2.319589 1_555
Ca1 O5 2.339316 1_545
Ca1 O9 2.348504 1_655
Ca1 O16 2.383891 1_655
Ca1 O17 2.394532 1_555
Ca1 O16 2.407394 1_645
Ca2 O6 2.319589 1_555
Ca2 O6 2.339316 1_545
Ca2 O10 2.348504 1_555
Ca2 O19 2.383891 1_555
Ca2 O18 2.394532 1_555
Ca2 O19 2.407394 1_545
Ca3 O7 2.319589 1_555
Ca3 O7 2.339316 1_565
Ca3 O11 2.348504 1_455
Ca3 O18 2.383891 1_455
Ca3 O19 2.394532 1_555
Ca3 O18 2.407394 1_465
Ca4 O2 2.295180 1_555
Ca4 O2 2.332409 1_545
Ca4 O4 2.379246 1_555
Ca4 O8 2.424754 1_555
Ca4 O12 2.467065 1_655
Ca4 O8 2.515820 1_545
Ca4 O0 2.613721 1_555
Ca5 O3 2.295180 1_556
Ca5 O3 2.332409 1_566
Ca5 O5 2.379246 1_455
Ca5 O9 2.424754 1_555
Ca5 O13 2.467065 1_555
Ca5 O9 2.515820 1_565
Ca5 O1 2.613721 1_455
Ca6 O0 2.295180 1_555
Ca6 O0 2.332409 1_565
Ca6 O6 2.379246 1_555
Ca6 O10 2.424754 1_555
Ca6 O14 2.467065 1_455
Ca6 O10 2.515820 1_565
Ca6 O2 2.613721 1_555
Ca7 O1 2.295180 1_554
Ca7 O1 2.332409 1_544
Ca7 O7 2.379246 1_655
Ca7 O11 2.424754 1_555
Ca7 O15 2.467065 1_555
Ca7 O11 2.515820 1_545
Ca7 O3 2.613721 1_655
B0 O16 1.360228 1_655
B0 O8 1.360886 1_555
B0 O12 1.425063 1_665
B1 O17 1.360228 1_555
B1 O9 1.360886 1_555
B1 O13 1.425063 1_545
B2 O18 1.360228 1_455
B2 O10 1.360886 1_555
B2 O14 1.425063 1_445
B3 O19 1.360228 1_555
B3 O11 1.360886 1_555
B3 O15 1.425063 1_565
B4 O1 1.355726 1_555
B4 O5 1.360085 1_555
B4 O13 1.415245 1_555
B5 O0 1.355726 1_555
B5 O4 1.360085 1_555
B5 O12 1.415245 1_555
B6 O3 1.355726 1_555
B6 O7 1.360085 1_555
B6 O15 1.415245 1_555
B7 O2 1.355726 1_555
B7 O6 1.360085 1_555
B7 O14 1.415245 1_555
