# generated using pymatgen
data_Li2Al2Si4HO14
_symmetry_space_group_name_H-M   'P 1'
_cell_length_a   5.00696958
_cell_length_b   7.59235103
_cell_length_c   8.71600345
_cell_angle_alpha   66.04024234
_cell_angle_beta   89.29256916
_cell_angle_gamma   89.57716772
_symmetry_Int_Tables_number   1
_chemical_formula_structural   Li2Al2Si4HO14
_chemical_formula_sum   'Li2 Al2 Si4 H1 O14'
_cell_volume   302.76098396
_cell_formula_units_Z   1
loop_
 _symmetry_equiv_pos_site_id
 _symmetry_equiv_pos_as_xyz
  1  'x, y, z'
loop_
 _atom_site_type_symbol
 _atom_site_label
 _atom_site_symmetry_multiplicity
 _atom_site_fract_x
 _atom_site_fract_y
 _atom_site_fract_z
 _atom_site_occupancy
  Li  Li0  1  0.87874300  0.18739700  0.59349900  1
  Li  Li1  1  0.37384300  0.90393600  0.20134200  1
  Al  Al0  1  0.39614300  0.13537600  0.79406300  1
  Al  Al1  1  0.85908500  0.10927700  0.28341100  1
  Si  Si0  1  0.36127700  0.97719200  0.51751700  1
  Si  Si1  1  0.89386500  0.95435600  0.00227000  1
  Si  Si2  1  0.41192300  0.55802700  0.79115300  1
  Si  Si3  1  0.90420800  0.53594200  0.01144900  1
  H  H0  1  0.69428800  0.53692400  0.45567000  1
  O  O0  1  0.05209400  0.07940100  0.82678900  1
  O  O1  1  0.50644700  0.08308500  0.62455700  1
  O  O2  1  0.46615800  0.38122100  0.73423600  1
  O  O3  1  0.57208400  0.99405900  0.98034100  1
  O  O4  1  0.54830300  0.99192400  0.35732200  1
  O  O5  1  0.95719900  0.72117000  0.06225100  1
  O  O6  1  0.31095800  0.74847600  0.63397200  1
  O  O7  1  0.06888000  0.07570800  0.45428100  1
  O  O8  1  0.18293500  0.48599600  0.93852200  1
  O  O9  1  0.00560500  0.00100400  0.15671300  1
  O  O10  1  0.80122800  0.35403100  0.17198200  1
  O  O11  1  0.68227000  0.61432000  0.86321900  1
  O  O12  1  0.82829400  0.46525400  0.53979400  1
  O  O13  1  0.29417100  0.61272500  0.25874600  1
loop_
_geom_bond_atom_site_label_1
_geom_bond_atom_site_label_2
_geom_bond_distance
_geom_bond_site_symmetry_2
Li0 O7 1.973086 1_655
Li0 O12 1.981491 1_555
Li0 O1 2.002618 1_555
Li0 O0 2.058924 1_655
Li1 O4 1.957851 1_555
Li1 O9 1.964358 1_565
Li1 O3 2.013993 1_554
Li1 O13 2.099406 1_555
Al0 O2 1.758810 1_555
Al0 O1 1.760228 1_555
Al0 O0 1.769092 1_555
Al0 O3 1.780399 1_545
Al1 O10 1.735941 1_555
Al1 O7 1.764311 1_655
Al1 O9 1.772520 1_655
Al1 O4 1.777572 1_545
H0 O12 0.983167 1_555
O0 Si1 1.634061 1_446
O1 Si0 1.636979 1_545
O2 Si2 1.629101 1_555
O3 Si1 1.636104 1_556
O4 Si0 1.637491 1_555
O5 Si1 1.659025 1_555
O5 Si3 1.660827 1_555
O6 Si2 1.618836 1_555
O6 Si0 1.636382 1_555
O7 Si0 1.635707 1_545
O8 Si3 1.631415 1_456
O8 Si2 1.632743 1_555
O9 Si1 1.630719 1_445
O10 Si3 1.598222 1_555
O11 Si2 1.630052 1_555
O11 Si3 1.630773 1_556
