# generated using pymatgen
data_GaFe4Co8Si3
_symmetry_space_group_name_H-M   'P 1'
_cell_length_a   13.25832473
_cell_length_b   13.25832473
_cell_length_c   13.25832445
_cell_angle_alpha   17.34970015
_cell_angle_beta   17.34970015
_cell_angle_gamma   17.34969914
_symmetry_Int_Tables_number   1
_chemical_formula_structural   GaFe4Co8Si3
_chemical_formula_sum   'Ga1 Fe4 Co8 Si3'
_cell_volume   180.85303831
_cell_formula_units_Z   1
loop_
 _symmetry_equiv_pos_site_id
 _symmetry_equiv_pos_as_xyz
  1  'x, y, z'
loop_
 _atom_site_type_symbol
 _atom_site_label
 _atom_site_symmetry_multiplicity
 _atom_site_fract_x
 _atom_site_fract_y
 _atom_site_fract_z
 _atom_site_occupancy
  Ga  Ga0  1  0.00000000  0.00000000  0.00000000  1
  Fe  Fe0  1  0.87466300  0.87466300  0.87466300  1
  Fe  Fe1  1  0.12533700  0.12533700  0.12533700  1
  Fe  Fe2  1  0.37498600  0.37498600  0.37498600  1
  Fe  Fe3  1  0.62501400  0.62501400  0.62501400  1
  Co  Co0  1  0.18750300  0.18750300  0.18750300  1
  Co  Co1  1  0.43773500  0.43773500  0.43773500  1
  Co  Co2  1  0.68913200  0.68913200  0.68913200  1
  Co  Co3  1  0.93583000  0.93583000  0.93583000  1
  Co  Co4  1  0.81249700  0.81249700  0.81249700  1
  Co  Co5  1  0.06417000  0.06417000  0.06417000  1
  Co  Co6  1  0.31086800  0.31086800  0.31086800  1
  Co  Co7  1  0.56226500  0.56226500  0.56226500  1
  Si  Si0  1  0.24977900  0.24977900  0.24977900  1
  Si  Si1  1  0.50000000  0.50000000  0.50000000  1
  Si  Si2  1  0.75022100  0.75022100  0.75022100  1
loop_
_geom_bond_atom_site_label_1
_geom_bond_atom_site_label_2
_geom_bond_distance
_geom_bond_site_symmetry_2
Co0 Fe1 2.434862 1_555
Co0 Si0 2.439171 1_555
Co0 Fe0 2.444600 1_445
Co0 Fe0 2.444600 1_544
Co0 Fe0 2.444600 1_454
Co0 Si1 2.449044 1_554
Co0 Si1 2.449044 1_545
Co0 Si1 2.449044 1_455
Co1 Si1 2.438740 1_555
Co1 Si2 2.449187 1_554
Co1 Si2 2.449187 1_455
Co1 Si2 2.449187 1_545
Co1 Fe1 2.450339 1_556
Co1 Fe1 2.450339 1_655
Co1 Fe1 2.450339 1_565
Co1 Fe2 2.457697 1_555
Co2 Si2 2.392679 1_555
Co2 Fe2 2.428285 1_565
Co2 Fe2 2.428285 1_655
Co2 Fe2 2.428285 1_556
Co2 Ga0 2.471037 1_665
Co2 Ga0 2.471037 1_656
Co2 Ga0 2.471037 1_566
Co2 Fe3 2.511317 1_555
Co3 Fe0 2.395735 1_555
Co3 Si0 2.430684 1_566
Co3 Si0 2.430684 1_656
Co3 Si0 2.430684 1_665
Co3 Fe3 2.471763 1_556
Co3 Fe3 2.471763 1_565
Co3 Fe3 2.471763 1_655
Co3 Ga0 2.513353 1_666
Co4 Fe0 2.434862 1_555
Co4 Si2 2.439171 1_555
Co4 Fe1 2.444600 1_665
Co4 Fe1 2.444600 1_656
Co4 Fe1 2.444600 1_566
Co4 Si1 2.449044 1_556
Co4 Si1 2.449044 1_655
Co4 Si1 2.449044 1_565
Co5 Fe1 2.395735 1_555
Co5 Si2 2.430684 1_454
Co5 Si2 2.430684 1_544
Co5 Si2 2.430684 1_445
Co5 Fe2 2.471763 1_554
Co5 Fe2 2.471763 1_455
Co5 Fe2 2.471763 1_545
Co5 Ga0 2.513353 1_555
Co6 Si0 2.392679 1_555
Co6 Fe3 2.428285 1_455
Co6 Fe3 2.428285 1_545
Co6 Fe3 2.428285 1_554
Co6 Ga0 2.471037 1_556
Co6 Ga0 2.471037 1_565
Co6 Ga0 2.471037 1_655
Co6 Fe2 2.511317 1_555
Co7 Si1 2.438740 1_555
Co7 Si0 2.449187 1_556
Co7 Si0 2.449187 1_565
Co7 Si0 2.449187 1_655
Co7 Fe0 2.450339 1_554
Co7 Fe0 2.450339 1_455
Co7 Fe0 2.450339 1_545
Co7 Fe3 2.457697 1_555
