# generated using pymatgen
data_Ti(Mo3Se4)2
_symmetry_space_group_name_H-M   'P 1'
_cell_length_a   6.66988613
_cell_length_b   6.66988613
_cell_length_c   6.66988569
_cell_angle_alpha   90.94010123
_cell_angle_beta   90.94010123
_cell_angle_gamma   90.94010261
_symmetry_Int_Tables_number   1
_chemical_formula_structural   Ti(Mo3Se4)2
_chemical_formula_sum   'Ti1 Mo6 Se8'
_cell_volume   296.60459570
_cell_formula_units_Z   1
loop_
 _symmetry_equiv_pos_site_id
 _symmetry_equiv_pos_as_xyz
  1  'x, y, z'
loop_
 _atom_site_type_symbol
 _atom_site_label
 _atom_site_symmetry_multiplicity
 _atom_site_fract_x
 _atom_site_fract_y
 _atom_site_fract_z
 _atom_site_occupancy
  Ti  Ti0  1  0.00000000  0.00000000  0.00000000  1
  Mo  Mo0  1  0.44784300  0.77325200  0.57829200  1
  Mo  Mo1  1  0.55215700  0.22674800  0.42170800  1
  Mo  Mo2  1  0.77325200  0.57829200  0.44784300  1
  Mo  Mo3  1  0.22674800  0.42170800  0.55215700  1
  Mo  Mo4  1  0.57829200  0.44784300  0.77325200  1
  Mo  Mo5  1  0.42170800  0.55215700  0.22674800  1
  Se  Se0  1  0.63948000  0.87466200  0.24185600  1
  Se  Se1  1  0.36052000  0.12533800  0.75814400  1
  Se  Se2  1  0.77760100  0.77760100  0.77760100  1
  Se  Se3  1  0.22239900  0.22239900  0.22239900  1
  Se  Se4  1  0.24185600  0.63948000  0.87466200  1
  Se  Se5  1  0.75814400  0.36052000  0.12533800  1
  Se  Se6  1  0.87466200  0.24185600  0.63948000  1
  Se  Se7  1  0.12533800  0.75814400  0.36052000  1
loop_
_geom_bond_atom_site_label_1
_geom_bond_atom_site_label_2
_geom_bond_distance
_geom_bond_site_symmetry_2
Mo0 Se2 2.550751 1_555
Mo0 Se7 2.575387 1_555
Mo0 Se4 2.588060 1_555
Mo0 Se0 2.691160 1_555
Mo0 Se1 2.696012 1_565
Mo1 Se3 2.550751 1_555
Mo1 Se6 2.575387 1_555
Mo1 Se5 2.588060 1_555
Mo1 Se1 2.691160 1_555
Mo1 Se0 2.696012 1_545
Mo2 Se2 2.550751 1_555
Mo2 Se5 2.575387 1_555
Mo2 Se0 2.588060 1_555
Mo2 Se6 2.691160 1_555
Mo2 Se7 2.696012 1_655
Mo3 Se3 2.550751 1_555
Mo3 Se4 2.575387 1_555
Mo3 Se1 2.588060 1_555
Mo3 Se7 2.691160 1_555
Mo3 Se6 2.696012 1_455
Mo4 Se2 2.550751 1_555
Mo4 Se1 2.575387 1_555
Mo4 Se6 2.588060 1_555
Mo4 Se4 2.691160 1_555
Mo4 Se5 2.696011 1_556
Mo5 Se3 2.550751 1_555
Mo5 Se0 2.575387 1_555
Mo5 Se7 2.588060 1_555
Mo5 Se5 2.691160 1_555
Mo5 Se4 2.696011 1_554
Se0 Ti0 3.031328 1_665
Se1 Ti0 3.031328 1_556
Se2 Ti0 2.526776 1_666
Se3 Ti0 2.526776 1_555
Se4 Ti0 3.031328 1_566
Se5 Ti0 3.031328 1_655
Se6 Ti0 3.031327 1_656
Se7 Ti0 3.031327 1_565
