# generated using pymatgen
data_K3TmSi2O7
_symmetry_space_group_name_H-M   'P 1'
_cell_length_a   9.87924959
_cell_length_b   9.87924959
_cell_length_c   14.39991700
_cell_angle_alpha   90.00000000
_cell_angle_beta   90.00000000
_cell_angle_gamma   119.99999727
_symmetry_Int_Tables_number   1
_chemical_formula_structural   K3TmSi2O7
_chemical_formula_sum   'K18 Tm6 Si12 O42'
_cell_volume   1217.13443041
_cell_formula_units_Z   6
loop_
 _symmetry_equiv_pos_site_id
 _symmetry_equiv_pos_as_xyz
  1  'x, y, z'
loop_
 _atom_site_type_symbol
 _atom_site_label
 _atom_site_symmetry_multiplicity
 _atom_site_fract_x
 _atom_site_fract_y
 _atom_site_fract_z
 _atom_site_occupancy
  K  K0  1  0.00000000  0.00000000  0.50000000  1
  K  K1  1  0.33230000  0.00000000  0.09219100  1
  K  K2  1  0.33230000  0.33230000  0.59219100  1
  K  K3  1  0.00000000  0.66770000  0.59219100  1
  K  K4  1  0.00000000  0.33230000  0.09219100  1
  K  K5  1  0.66770000  0.66770000  0.09219100  1
  K  K6  1  0.33230000  0.00000000  0.40780900  1
  K  K7  1  0.00000000  0.00000000  0.00000000  1
  K  K8  1  0.33333300  0.66666700  0.75000000  1
  K  K9  1  0.66666700  0.33333300  0.25000000  1
  K  K10  1  0.66666700  0.33333300  0.75000000  1
  K  K11  1  0.33333300  0.66666700  0.25000000  1
  K  K12  1  0.66770000  0.66770000  0.40780900  1
  K  K13  1  0.66770000  0.00000000  0.90780900  1
  K  K14  1  0.00000000  0.66770000  0.90780900  1
  K  K15  1  0.00000000  0.33230000  0.40780900  1
  K  K16  1  0.66770000  0.00000000  0.59219100  1
  K  K17  1  0.33230000  0.33230000  0.90780900  1
  Tm  Tm0  1  0.00000000  0.00000000  0.75000000  1
  Tm  Tm1  1  0.33333300  0.66666700  0.00000000  1
  Tm  Tm2  1  0.66666700  0.33333300  0.50000000  1
  Tm  Tm3  1  0.66666700  0.33333300  0.00000000  1
  Tm  Tm4  1  0.33333300  0.66666700  0.50000000  1
  Tm  Tm5  1  0.00000000  0.00000000  0.25000000  1
  Si  Si0  1  0.65788300  0.65788300  0.85760900  1
  Si  Si1  1  0.34211700  0.00000000  0.85760900  1
  Si  Si2  1  0.00000000  0.34211700  0.85760900  1
  Si  Si3  1  0.00000000  0.65788300  0.35760900  1
  Si  Si4  1  0.34211700  0.00000000  0.64239100  1
  Si  Si5  1  0.34211700  0.34211700  0.35760900  1
  Si  Si6  1  0.65788300  0.00000000  0.35760900  1
  Si  Si7  1  0.34211700  0.34211700  0.14239100  1
  Si  Si8  1  0.00000000  0.65788300  0.14239100  1
  Si  Si9  1  0.00000000  0.34211700  0.64239100  1
  Si  Si10  1  0.65788300  0.65788300  0.64239100  1
  Si  Si11  1  0.65788300  0.00000000  0.14239100  1
  O  O0  1  0.41030900  0.00000000  0.75000000  1
  O  O1  1  0.41030900  0.41030900  0.25000000  1
  O  O2  1  0.00000000  0.58969100  0.25000000  1
  O  O3  1  0.00000000  0.41030900  0.75000000  1
  O  O4  1  0.58969100  0.58969100  0.75000000  1
  O  O5  1  0.58969100  0.00000000  0.25000000  1
  O  O6  1  0.82347900  0.82347900  0.85100500  1
  O  O7  1  0.17652100  0.00000000  0.85100500  1
  O  O8  1  0.00000000  0.17652100  0.85100500  1
  O  O9  1  0.00000000  0.82347900  0.35100500  1
  O  O10  1  0.17652100  0.00000000  0.64899500  1
  O  O11  1  0.17652100  0.17652100  0.35100500  1
  O  O12  1  0.82347900  0.00000000  0.35100500  1
  O  O13  1  0.17652100  0.17652100  0.14899500  1
  O  O14  1  0.00000000  0.82347900  0.14899500  1
  O  O15  1  0.00000000  0.17652100  0.64899500  1
  O  O16  1  0.82347900  0.82347900  0.64899500  1
  O  O17  1  0.82347900  0.00000000  0.14899500  1
  O  O18  1  0.32204600  0.84346700  0.90936000  1
  O  O19  1  0.15653300  0.47857900  0.90936000  1
  O  O20  1  0.52142100  0.67795400  0.90936000  1
  O  O21  1  0.47857900  0.32204600  0.40936000  1
  O  O22  1  0.67795400  0.52142100  0.59064000  1
  O  O23  1  0.67795400  0.15653300  0.40936000  1
  O  O24  1  0.84346700  0.52142100  0.40936000  1
  O  O25  1  0.15653300  0.67795400  0.09064000  1
  O  O26  1  0.52142100  0.84346700  0.09064000  1
  O  O27  1  0.47857900  0.15653300  0.59064000  1
  O  O28  1  0.84346700  0.32204600  0.59064000  1
  O  O29  1  0.32204600  0.47857900  0.09064000  1
  O  O30  1  0.67795400  0.15653300  0.09064000  1
  O  O31  1  0.84346700  0.52142100  0.09064000  1
  O  O32  1  0.47857900  0.32204600  0.09064000  1
  O  O33  1  0.52142100  0.67795400  0.59064000  1
  O  O34  1  0.32204600  0.47857900  0.40936000  1
  O  O35  1  0.32204600  0.84346700  0.59064000  1
  O  O36  1  0.67795400  0.52142100  0.90936000  1
  O  O37  1  0.15653300  0.67795400  0.40936000  1
  O  O38  1  0.52142100  0.84346700  0.40936000  1
  O  O39  1  0.47857900  0.15653300  0.90936000  1
  O  O40  1  0.84346700  0.32204600  0.90936000  1
  O  O41  1  0.15653300  0.47857900  0.59064000  1
loop_
_geom_bond_atom_site_label_1
_geom_bond_atom_site_label_2
_geom_bond_distance
_geom_bond_site_symmetry_2
K0 O15 2.764852 1_555
K0 O9 2.764852 1_545
K0 O12 2.764852 1_455
K0 O10 2.764852 1_555
K0 O11 2.764852 1_555
K0 O16 2.764852 1_445
K1 O32 2.759261 1_555
K1 O25 2.759261 1_545
K1 O13 2.960156 1_555
K1 O14 2.960157 1_545
K1 O26 2.961767 1_545
K1 O30 2.961767 1_555
K1 O18 3.029262 1_544
K1 O39 3.029262 1_554
K2 O27 2.759261 1_555
K2 O41 2.759261 1_555
K2 O15 2.960157 1_555
K2 O10 2.960157 1_555
K2 O33 2.961768 1_555
K2 O22 2.961768 1_555
K2 O34 3.029262 1_555
K2 O21 3.029262 1_555
K3 O22 2.759261 1_455
K3 O35 2.759261 1_555
K3 O16 2.960156 1_455
K3 O10 2.960157 1_565
K3 O41 2.961767 1_555
K3 O28 2.961767 1_455
K3 O37 3.029262 1_555
K3 O24 3.029262 1_455
K4 O29 2.759261 1_555
K4 O30 2.759261 1_455
K4 O13 2.960156 1_555
K4 O17 2.960157 1_455
K4 O31 2.961767 1_455
K4 O25 2.961767 1_555
K4 O40 3.029262 1_454
K4 O19 3.029262 1_554
K5 O31 2.759261 1_555
K5 O26 2.759261 1_555
K5 O17 2.960157 1_565
K5 O14 2.960157 1_655
K5 O29 2.961768 1_555
K5 O32 2.961768 1_555
K5 O20 3.029262 1_554
K5 O36 3.029262 1_554
K6 O21 2.759261 1_555
K6 O37 2.759261 1_545
K6 O11 2.960156 1_555
K6 O9 2.960157 1_545
K6 O38 2.961767 1_545
K6 O23 2.961767 1_555
K6 O35 3.029262 1_545
K6 O27 3.029262 1_555
K7 O8 2.764852 1_554
K7 O14 2.764852 1_545
K7 O7 2.764852 1_554
K7 O17 2.764852 1_455
K7 O6 2.764852 1_444
K7 O13 2.764852 1_555
K8 O18 2.919582 1_555
K8 O35 2.919582 1_555
K8 O41 2.919586 1_555
K8 O19 2.919586 1_555
K8 O20 2.919589 1_555
K8 O33 2.919589 1_555
K8 O0 2.986371 1_565
K8 O3 2.986374 1_555
K8 O4 2.986380 1_555
K9 O23 2.919582 1_555
K9 O30 2.919582 1_555
K9 O31 2.919586 1_555
K9 O24 2.919586 1_555
K9 O21 2.919589 1_555
K9 O32 2.919589 1_555
K9 O5 2.986371 1_555
K9 O2 2.986374 1_655
K9 O1 2.986380 1_555
K10 O40 2.919582 1_555
K10 O28 2.919582 1_555
K10 O39 2.919586 1_555
K10 O27 2.919586 1_555
K10 O36 2.919589 1_555
K10 O22 2.919589 1_555
K10 O3 2.986371 1_655
K10 O0 2.986374 1_555
K10 O4 2.986380 1_555
K11 O37 2.919582 1_555
K11 O25 2.919582 1_555
K11 O38 2.919586 1_555
K11 O26 2.919586 1_555
K11 O34 2.919589 1_555
K11 O29 2.919589 1_555
K11 O2 2.986371 1_555
K11 O5 2.986374 1_565
K11 O1 2.986380 1_555
K12 O38 2.759261 1_555
K12 O24 2.759261 1_555
K12 O12 2.960157 1_565
K12 O9 2.960157 1_655
K12 O21 2.961768 1_555
K12 O34 2.961768 1_555
K12 O33 3.029262 1_555
K12 O22 3.029262 1_555
K13 O20 2.759261 1_545
K13 O40 2.759261 1_555
K13 O6 2.960156 1_545
K13 O8 2.960157 1_655
K13 O39 2.961767 1_555
K13 O18 2.961767 1_545
K13 O30 3.029262 1_556
K13 O26 3.029262 1_546
K14 O36 2.759261 1_455
K14 O18 2.759261 1_555
K14 O6 2.960156 1_455
K14 O7 2.960157 1_565
K14 O19 2.961767 1_555
K14 O40 2.961767 1_455
K14 O25 3.029262 1_556
K14 O31 3.029262 1_456
K15 O34 2.759261 1_555
K15 O23 2.759261 1_455
K15 O11 2.960156 1_555
K15 O12 2.960157 1_455
K15 O24 2.961767 1_455
K15 O37 2.961767 1_555
K15 O28 3.029262 1_455
K15 O41 3.029262 1_555
K16 O33 2.759261 1_545
K16 O28 2.759261 1_555
K16 O16 2.960156 1_545
K16 O15 2.960157 1_655
K16 O27 2.961767 1_555
K16 O35 2.961767 1_545
K16 O23 3.029262 1_555
K16 O38 3.029262 1_545
K17 O39 2.759261 1_555
K17 O19 2.759261 1_555
K17 O7 2.960157 1_555
K17 O8 2.960157 1_555
K17 O20 2.961768 1_555
K17 O36 2.961768 1_555
K17 O32 3.029262 1_556
K17 O29 3.029262 1_556
O0 Si1 1.689672 1_555
O0 Si4 1.689672 1_555
O1 Si7 1.689672 1_555
O1 Si5 1.689672 1_555
O2 Si8 1.689672 1_555
O2 Si3 1.689672 1_555
O3 Si2 1.689672 1_555
O3 Si9 1.689672 1_555
O4 Si0 1.689672 1_555
O4 Si10 1.689672 1_555
O5 Si11 1.689672 1_555
O5 Si6 1.689672 1_555
O6 Si0 1.638726 1_555
O6 Tm0 2.270822 1_665
O7 Si1 1.638726 1_555
O7 Tm0 2.270822 1_555
O8 Si2 1.638726 1_555
O8 Tm0 2.270822 1_555
O9 Si3 1.638726 1_555
O9 Tm5 2.270822 1_565
O10 Si4 1.638726 1_555
O10 Tm0 2.270822 1_555
O11 Si5 1.638726 1_555
O11 Tm5 2.270822 1_555
O12 Si6 1.638726 1_555
O12 Tm5 2.270822 1_655
O13 Si7 1.638726 1_555
O13 Tm5 2.270822 1_555
O14 Si8 1.638726 1_555
O14 Tm5 2.270822 1_565
O15 Si9 1.638726 1_555
O15 Tm0 2.270822 1_555
O16 Si10 1.638726 1_555
O16 Tm0 2.270822 1_665
O17 Si11 1.638726 1_555
O17 Tm5 2.270822 1_655
O18 Si1 1.636906 1_565
O18 Tm1 2.227455 1_556
O19 Si2 1.636906 1_555
O19 Tm1 2.227460 1_556
O20 Si0 1.636906 1_555
O20 Tm1 2.227463 1_556
O21 Si5 1.636906 1_555
O21 Tm2 2.227463 1_555
O22 Si10 1.636906 1_555
O22 Tm2 2.227463 1_555
O23 Si6 1.636906 1_555
O23 Tm2 2.227455 1_555
O24 Si3 1.636906 1_655
O24 Tm2 2.227460 1_555
O25 Si8 1.636906 1_555
O25 Tm1 2.227455 1_555
O26 Si11 1.636906 1_565
O26 Tm1 2.227460 1_555
O27 Si4 1.636906 1_555
O27 Tm2 2.227460 1_555
O28 Si9 1.636906 1_655
O28 Tm2 2.227455 1_555
O29 Si7 1.636906 1_555
O29 Tm1 2.227463 1_555
O30 Si11 1.636906 1_555
O30 Tm3 2.227455 1_555
O31 Si8 1.636906 1_655
O31 Tm3 2.227460 1_555
O32 Si7 1.636906 1_555
O32 Tm3 2.227463 1_555
O33 Si10 1.636906 1_555
O33 Tm4 2.227463 1_555
O34 Si5 1.636906 1_555
O34 Tm4 2.227463 1_555
O35 Si4 1.636906 1_565
O35 Tm4 2.227455 1_555
O36 Si0 1.636906 1_555
O36 Tm3 2.227463 1_556
O37 Si3 1.636906 1_555
O37 Tm4 2.227455 1_555
O38 Si6 1.636906 1_565
O38 Tm4 2.227460 1_555
O39 Si1 1.636906 1_555
O39 Tm3 2.227460 1_556
O40 Si2 1.636906 1_655
O40 Tm3 2.227455 1_556
O41 Si9 1.636906 1_555
O41 Tm4 2.227460 1_555
