# generated using pymatgen
data_Na2Th(AsO4)2
_symmetry_space_group_name_H-M   'P 1'
_cell_length_a   11.14929746
_cell_length_b   9.92167903
_cell_length_c   7.17783916
_cell_angle_alpha   79.62352605
_cell_angle_beta   61.08512310
_cell_angle_gamma   39.29135086
_symmetry_Int_Tables_number   1
_chemical_formula_structural   Na2Th(AsO4)2
_chemical_formula_sum   'Na4 Th2 As4 O16'
_cell_volume   412.27473233
_cell_formula_units_Z   2
loop_
 _symmetry_equiv_pos_site_id
 _symmetry_equiv_pos_as_xyz
  1  'x, y, z'
loop_
 _atom_site_type_symbol
 _atom_site_label
 _atom_site_symmetry_multiplicity
 _atom_site_fract_x
 _atom_site_fract_y
 _atom_site_fract_z
 _atom_site_occupancy
  Na  Na0  1  0.89314700  0.89314700  0.60685300  1
  Na  Na1  1  0.60685300  0.60685300  0.89314700  1
  Na  Na2  1  0.35685300  0.35685300  0.64314700  1
  Na  Na3  1  0.64314700  0.64314700  0.35685300  1
  Th  Th0  1  0.25000000  0.25000000  0.25000000  1
  Th  Th1  1  0.00000000  0.00000000  0.00000000  1
  As  As0  1  0.07114100  0.07114100  0.42885900  1
  As  As1  1  0.42885900  0.42885900  0.07114100  1
  As  As2  1  0.17885900  0.17885900  0.82114100  1
  As  As3  1  0.82114100  0.82114100  0.17885900  1
  O  O0  1  0.34094100  0.92026900  0.22885000  1
  O  O1  1  0.50994000  0.22885000  0.92026900  1
  O  O2  1  0.22885000  0.50994000  0.34094100  1
  O  O3  1  0.92026900  0.34094100  0.50994000  1
  O  O4  1  0.90905900  0.32973100  0.02115000  1
  O  O5  1  0.74006000  0.02115000  0.32973100  1
  O  O6  1  0.02115000  0.74006000  0.90905900  1
  O  O7  1  0.32973100  0.90905900  0.74006000  1
  O  O8  1  0.07026900  0.95694000  0.63849900  1
  O  O9  1  0.33429200  0.63849900  0.95694000  1
  O  O10  1  0.63849900  0.33429200  0.07026900  1
  O  O11  1  0.95694000  0.07026900  0.33429200  1
  O  O12  1  0.17973100  0.29306000  0.61150100  1
  O  O13  1  0.91570800  0.61150100  0.29306000  1
  O  O14  1  0.61150100  0.91570800  0.17973100  1
  O  O15  1  0.29306000  0.17973100  0.91570800  1
loop_
_geom_bond_atom_site_label_1
_geom_bond_atom_site_label_2
_geom_bond_distance
_geom_bond_site_symmetry_2
Na0 O2 2.405504 1_655
Na0 O1 2.405504 1_565
Na0 O8 2.602354 1_655
Na0 O11 2.602354 1_565
Na0 O6 2.738726 1_655
Na0 O5 2.738726 1_565
Na1 O0 2.405504 1_556
Na1 O3 2.405504 1_555
Na1 O10 2.602354 1_556
Na1 O9 2.602354 1_555
Na1 O4 2.738726 1_556
Na1 O7 2.738726 1_555
Na2 O5 2.405504 1_555
Na2 O6 2.405504 1_555
Na2 O15 2.602354 1_555
Na2 O12 2.602354 1_555
Na2 O1 2.738726 1_555
Na2 O2 2.738726 1_555
Na3 O7 2.405504 1_555
Na3 O4 2.405504 1_555
Na3 O13 2.602354 1_555
Na3 O14 2.602354 1_555
Na3 O3 2.738726 1_555
Na3 O0 2.738726 1_555
As0 O11 1.713755 1_455
As0 O8 1.713755 1_545
As0 O3 1.725864 1_455
As0 O0 1.725864 1_545
As1 O10 1.713755 1_555
As1 O9 1.713755 1_554
As1 O2 1.725864 1_555
As1 O1 1.725864 1_554
As2 O15 1.713755 1_555
As2 O12 1.713755 1_555
As2 O7 1.725864 1_545
As2 O4 1.725864 1_456
As3 O14 1.713755 1_555
As3 O13 1.713755 1_555
As3 O5 1.725864 1_565
As3 O6 1.725864 1_654
O0 Th0 2.578643 1_565
O1 Th0 2.578643 1_556
O2 Th0 2.578643 1_555
O3 Th0 2.578643 1_655
O4 Th1 2.578643 1_655
O5 Th1 2.578643 1_655
O6 Th1 2.578643 1_566
O7 Th1 2.578643 1_566
O8 Th1 2.333385 1_566
O9 Th1 2.333385 1_566
O10 Th1 2.333385 1_655
O11 Th1 2.333385 1_655
O12 Th0 2.333385 1_555
O13 Th0 2.333385 1_655
O14 Th0 2.333385 1_565
O15 Th0 2.333385 1_556
