# generated using pymatgen
data_PH18PtC6S3ClF6
_symmetry_space_group_name_H-M   'P 1'
_cell_length_a   25.11282400
_cell_length_b   8.74713500
_cell_length_c   8.82098467
_cell_angle_alpha   76.13920044
_cell_angle_beta   90.00000000
_cell_angle_gamma   90.00000000
_symmetry_Int_Tables_number   1
_chemical_formula_structural   PH18PtC6S3ClF6
_chemical_formula_sum   'P4 H72 Pt4 C24 S12 Cl4 F24'
_cell_volume   1881.24032053
_cell_formula_units_Z   4
loop_
 _symmetry_equiv_pos_site_id
 _symmetry_equiv_pos_as_xyz
  1  'x, y, z'
loop_
 _atom_site_type_symbol
 _atom_site_label
 _atom_site_symmetry_multiplicity
 _atom_site_fract_x
 _atom_site_fract_y
 _atom_site_fract_z
 _atom_site_occupancy
  P  P0  1  0.33789000  0.98571900  0.02429500  1
  P  P1  1  0.83789000  0.51428100  0.97570500  1
  P  P2  1  0.66211000  0.01428100  0.97570500  1
  P  P3  1  0.16211000  0.48571900  0.02429500  1
  H  H0  1  0.48942000  0.04618600  0.65924100  1
  H  H1  1  0.98942000  0.45381400  0.34075900  1
  H  H2  1  0.51058000  0.95381400  0.34075900  1
  H  H3  1  0.01058000  0.54618600  0.65924100  1
  H  H4  1  0.52770700  0.06468900  0.82598500  1
  H  H5  1  0.02770700  0.43531100  0.17401500  1
  H  H6  1  0.47229300  0.93531100  0.17401500  1
  H  H7  1  0.97229300  0.56468900  0.82598500  1
  H  H8  1  0.45558200  0.05808100  0.83632000  1
  H  H9  1  0.95558200  0.44191900  0.16368000  1
  H  H10  1  0.54441800  0.94191900  0.16368000  1
  H  H11  1  0.04441800  0.55808100  0.83632000  1
  H  H12  1  0.50281300  0.49096800  0.84589600  1
  H  H13  1  0.00281300  0.00903200  0.15410400  1
  H  H14  1  0.49718700  0.50903200  0.15410400  1
  H  H15  1  0.99718700  0.99096800  0.84589600  1
  H  H16  1  0.46375800  0.32460600  0.94900100  1
  H  H17  1  0.96375800  0.17539400  0.05099900  1
  H  H18  1  0.53624200  0.67539400  0.05099900  1
  H  H19  1  0.03624200  0.82460600  0.94900100  1
  H  H20  1  0.53469300  0.30589700  0.92727800  1
  H  H21  1  0.03469300  0.19410300  0.07272200  1
  H  H22  1  0.46530700  0.69410300  0.07272200  1
  H  H23  1  0.96530700  0.80589700  0.92727800  1
  H  H24  1  0.36274200  0.58861600  0.17794800  1
  H  H25  1  0.86274200  0.91138400  0.82205200  1
  H  H26  1  0.63725800  0.41138400  0.82205200  1
  H  H27  1  0.13725800  0.08861600  0.17794800  1
  H  H28  1  0.36987900  0.38039200  0.18826200  1
  H  H29  1  0.86987900  0.11960800  0.81173800  1
  H  H30  1  0.63012100  0.61960800  0.81173800  1
  H  H31  1  0.13012100  0.88039200  0.18826200  1
  H  H32  1  0.30497500  0.47268500  0.16220000  1
  H  H33  1  0.80497500  0.02731500  0.83780000  1
  H  H34  1  0.69502500  0.52731500  0.83780000  1
  H  H35  1  0.19502500  0.97268500  0.16220000  1
  H  H36  1  0.42189600  0.78161100  0.55889500  1
  H  H37  1  0.92189600  0.71838900  0.44110500  1
  H  H38  1  0.57810400  0.21838900  0.44110500  1
  H  H39  1  0.07810400  0.28161100  0.55889500  1
  H  H40  1  0.35481300  0.75002600  0.50267200  1
  H  H41  1  0.85481300  0.74997400  0.49732800  1
  H  H42  1  0.64518700  0.24997400  0.49732800  1
  H  H43  1  0.14518700  0.25002600  0.50267200  1
  H  H44  1  0.36721400  0.81382800  0.67948900  1
  H  H45  1  0.86721400  0.68617200  0.32051100  1
  H  H46  1  0.63278600  0.18617200  0.32051100  1
  H  H47  1  0.13278600  0.31382800  0.67948900  1
  H  H48  1  0.31606000  0.39256600  0.85646200  1
  H  H49  1  0.81606000  0.10743400  0.14353800  1
  H  H50  1  0.68394000  0.60743400  0.14353800  1
  H  H51  1  0.18394000  0.89256600  0.85646200  1
  H  H52  1  0.30896100  0.60010200  0.84380800  1
  H  H53  1  0.80896100  0.89989800  0.15619200  1
  H  H54  1  0.69103900  0.39989800  0.15619200  1
  H  H55  1  0.19103900  0.10010200  0.84380800  1
  H  H56  1  0.29295400  0.52273200  0.67839700  1
  H  H57  1  0.79295400  0.97726800  0.32160300  1
  H  H58  1  0.70704600  0.47726800  0.32160300  1
  H  H59  1  0.20704600  0.02273200  0.67839700  1
  H  H60  1  0.29112400  0.20195200  0.57394500  1
  H  H61  1  0.79112400  0.29804800  0.42605500  1
  H  H62  1  0.70887600  0.79804800  0.42605500  1
  H  H63  1  0.20887600  0.70195200  0.57394500  1
  H  H64  1  0.26539200  0.26262000  0.37616000  1
  H  H65  1  0.76539200  0.23738000  0.62384000  1
  H  H66  1  0.73460800  0.73738000  0.62384000  1
  H  H67  1  0.23460800  0.76262000  0.37616000  1
  H  H68  1  0.32801500  0.16032600  0.41351700  1
  H  H69  1  0.82801500  0.33967400  0.58648300  1
  H  H70  1  0.67198500  0.83967400  0.58648300  1
  H  H71  1  0.17198500  0.66032600  0.41351700  1
  Pt  Pt0  1  0.41228700  0.38205800  0.56053200  1
  Pt  Pt1  1  0.91228700  0.11794200  0.43946800  1
  Pt  Pt2  1  0.58771300  0.61794200  0.43946800  1
  Pt  Pt3  1  0.08771300  0.88205800  0.56053200  1
  C  C0  1  0.49020000  0.09617400  0.76167500  1
  C  C1  1  0.99020000  0.40382600  0.23832500  1
  C  C2  1  0.50980000  0.90382600  0.23832500  1
  C  C3  1  0.00980000  0.59617400  0.76167500  1
  C  C4  1  0.49817400  0.36309800  0.87276900  1
  C  C5  1  0.99817400  0.13690200  0.12723100  1
  C  C6  1  0.50182600  0.63690200  0.12723100  1
  C  C7  1  0.00182600  0.86309800  0.87276900  1
  C  C8  1  0.34453700  0.47217800  0.21551500  1
  C  C9  1  0.84453700  0.02782200  0.78448500  1
  C  C10  1  0.65546300  0.52782200  0.78448500  1
  C  C11  1  0.15546300  0.97217800  0.21551500  1
  C  C12  1  0.38195200  0.74239400  0.60141100  1
  C  C13  1  0.88195200  0.75760600  0.39858900  1
  C  C14  1  0.61804800  0.25760600  0.39858900  1
  C  C15  1  0.11804800  0.24239400  0.60141100  1
  C  C16  1  0.31922300  0.51068700  0.77989000  1
  C  C17  1  0.81922300  0.98931300  0.22011000  1
  C  C18  1  0.68077700  0.48931300  0.22011000  1
  C  C19  1  0.18077700  0.01068700  0.77989000  1
  C  C20  1  0.30122800  0.24344500  0.45014500  1
  C  C21  1  0.80122800  0.25655500  0.54985500  1
  C  C22  1  0.69877200  0.75655500  0.54985500  1
  C  C23  1  0.19877200  0.74344500  0.45014500  1
  S  S0  1  0.49253800  0.30761500  0.68966300  1
  S  S1  1  0.99253800  0.19238500  0.31033700  1
  S  S2  1  0.50746200  0.69238500  0.31033700  1
  S  S3  1  0.00746200  0.80761500  0.68966300  1
  S  S4  1  0.38785500  0.54336600  0.71998500  1
  S  S5  1  0.88785500  0.95663400  0.28001500  1
  S  S6  1  0.61214500  0.45663400  0.28001500  1
  S  S7  1  0.11214500  0.04336600  0.71998500  1
  S  S8  1  0.33309300  0.43329900  0.42281500  1
  S  S9  1  0.83309300  0.06670100  0.57718500  1
  S  S10  1  0.66690700  0.56670100  0.57718500  1
  S  S11  1  0.16690700  0.93329900  0.42281500  1
  Cl  Cl0  1  0.44316100  0.22881800  0.39451700  1
  Cl  Cl1  1  0.94316100  0.27118200  0.60548300  1
  Cl  Cl2  1  0.55683900  0.77118200  0.60548300  1
  Cl  Cl3  1  0.05683900  0.72881800  0.39451700  1
  F  F0  1  0.38357900  0.86923100  0.97568500  1
  F  F1  1  0.88357900  0.63076900  0.02431500  1
  F  F2  1  0.61642100  0.13076900  0.02431500  1
  F  F3  1  0.11642100  0.36923100  0.97568500  1
  F  F4  1  0.38433100  0.11901100  0.02261400  1
  F  F5  1  0.88433100  0.38098900  0.97738600  1
  F  F6  1  0.61566900  0.88098900  0.97738600  1
  F  F7  1  0.11566900  0.61901100  0.02261400  1
  F  F8  1  0.29251300  0.85212500  0.02425200  1
  F  F9  1  0.79251300  0.64787500  0.97574800  1
  F  F10  1  0.70748700  0.14787500  0.97574800  1
  F  F11  1  0.20748700  0.35212500  0.02425200  1
  F  F12  1  0.29336700  0.10157700  0.07239800  1
  F  F13  1  0.79336700  0.39842300  0.92760200  1
  F  F14  1  0.70663300  0.89842300  0.92760200  1
  F  F15  1  0.20663300  0.60157700  0.07239800  1
  F  F16  1  0.32641300  0.06317100  0.83787000  1
  F  F17  1  0.82641300  0.43682900  0.16213000  1
  F  F18  1  0.67358700  0.93682900  0.16213000  1
  F  F19  1  0.17358700  0.56317100  0.83787000  1
  F  F20  1  0.35027400  0.90729600  0.20972000  1
  F  F21  1  0.85027400  0.59270400  0.79028000  1
  F  F22  1  0.64972600  0.09270400  0.79028000  1
  F  F23  1  0.14972600  0.40729600  0.20972000  1
loop_
_geom_bond_atom_site_label_1
_geom_bond_atom_site_label_2
_geom_bond_distance
_geom_bond_site_symmetry_2
Pt0 S4 2.301419 1_555
Pt0 S8 2.317546 1_555
Pt0 S0 2.329732 1_555
Pt1 S5 2.301419 1_545
Pt1 S9 2.317546 1_555
Pt1 S1 2.329732 1_555
Pt2 S6 2.301419 1_555
Pt2 S10 2.317546 1_555
Pt2 S2 2.329732 1_555
Pt3 S7 2.301419 1_565
Pt3 S11 2.317546 1_555
Pt3 S3 2.329732 1_555
C0 H8 1.093267 1_555
C0 H0 1.094215 1_555
C0 H4 1.099993 1_555
C0 S0 1.806852 1_555
C1 H9 1.093267 1_555
C1 H1 1.094215 1_555
C1 H5 1.099993 1_655
C1 S1 1.806852 1_555
C2 H10 1.093267 1_555
C2 H2 1.094215 1_555
C2 H6 1.099993 1_555
C2 S2 1.806852 1_555
C3 H11 1.093267 1_555
C3 H3 1.094215 1_555
C3 H7 1.099993 1_455
C3 S3 1.806852 1_555
C4 H12 1.092595 1_555
C4 H16 1.097291 1_555
C4 H20 1.098787 1_555
C4 S0 1.799981 1_555
C5 H13 1.092595 1_655
C5 H17 1.097291 1_555
C5 H21 1.098787 1_655
C5 S1 1.799981 1_555
C6 H14 1.092595 1_555
C6 H18 1.097291 1_555
C6 H22 1.098787 1_555
C6 S2 1.799981 1_555
C7 H15 1.092595 1_455
C7 H19 1.097291 1_555
C7 H23 1.098787 1_455
C7 S3 1.799981 1_555
C8 H24 1.092911 1_555
C8 H28 1.095388 1_555
C8 H32 1.098755 1_555
C8 S8 1.801121 1_555
C9 H25 1.092911 1_545
C9 H29 1.095388 1_555
C9 H33 1.098755 1_555
C9 S9 1.801121 1_555
C10 H26 1.092911 1_555
C10 H30 1.095388 1_555
C10 H34 1.098755 1_555
C10 S10 1.801121 1_555
C11 H27 1.092911 1_565
C11 H31 1.095388 1_555
C11 H35 1.098755 1_555
C11 S11 1.801121 1_555
C12 H40 1.095303 1_555
C12 H36 1.096771 1_555
C12 H44 1.099065 1_555
C12 S4 1.809514 1_555
C13 H41 1.095303 1_555
C13 H37 1.096771 1_555
C13 H45 1.099065 1_555
C13 S5 1.809514 1_555
C14 H42 1.095303 1_555
C14 H38 1.096771 1_555
C14 H46 1.099065 1_555
C14 S6 1.809514 1_555
C15 H43 1.095303 1_555
C15 H39 1.096771 1_555
C15 H47 1.099065 1_555
C15 S7 1.809514 1_555
C16 H48 1.093481 1_555
C16 H56 1.096632 1_555
C16 H52 1.098777 1_555
C16 S4 1.805317 1_555
C17 H49 1.093481 1_565
C17 H57 1.096632 1_555
C17 H53 1.098777 1_555
C17 S5 1.805317 1_555
C18 H50 1.093481 1_555
C18 H58 1.096632 1_555
C18 H54 1.098777 1_555
C18 S6 1.805317 1_555
C19 H51 1.093481 1_545
C19 H59 1.096632 1_555
C19 H55 1.098777 1_555
C19 S7 1.805317 1_555
C20 H68 1.094563 1_555
C20 H60 1.094878 1_555
C20 H64 1.100680 1_555
C20 S8 1.806794 1_555
C21 H69 1.094563 1_555
C21 H61 1.094878 1_555
C21 H65 1.100680 1_555
C21 S9 1.806794 1_555
C22 H70 1.094563 1_555
C22 H62 1.094878 1_555
C22 H66 1.100680 1_555
C22 S10 1.806794 1_555
C23 H71 1.094563 1_555
C23 H63 1.094878 1_555
C23 H67 1.100680 1_555
C23 S11 1.806794 1_555
Cl0 Pt0 2.341548 1_555
Cl1 Pt1 2.341548 1_555
Cl2 Pt2 2.341548 1_555
Cl3 Pt3 2.341548 1_555
F0 P0 1.657681 1_556
F1 P1 1.657681 1_554
F2 P2 1.657681 1_554
F3 P3 1.657681 1_556
F4 P0 1.646659 1_545
F5 P1 1.646659 1_555
F6 P2 1.646659 1_565
F7 P3 1.646659 1_555
F8 P0 1.632274 1_555
F9 P1 1.632274 1_555
F10 P2 1.632274 1_555
F11 P3 1.632274 1_555
F12 P0 1.631947 1_545
F13 P1 1.631947 1_555
F14 P2 1.631947 1_565
F15 P3 1.631947 1_555
F16 P0 1.646963 1_546
F17 P1 1.646963 1_554
F18 P2 1.646963 1_564
F19 P3 1.646963 1_556
F20 P0 1.644685 1_555
F21 P1 1.644685 1_555
F22 P2 1.644685 1_555
F23 P3 1.644685 1_555
