# generated using pymatgen
data_KBa2(FeAs)6
_symmetry_space_group_name_H-M   'P 1'
_cell_length_a   5.48060788
_cell_length_b   7.10279964
_cell_length_c   8.78494229
_cell_angle_alpha   111.86043409
_cell_angle_beta   108.17569578
_cell_angle_gamma   90.00000000
_symmetry_Int_Tables_number   1
_chemical_formula_structural   KBa2(FeAs)6
_chemical_formula_sum   'K1 Ba2 Fe6 As6'
_cell_volume   298.92336487
_cell_formula_units_Z   1
loop_
 _symmetry_equiv_pos_site_id
 _symmetry_equiv_pos_as_xyz
  1  'x, y, z'
loop_
 _atom_site_type_symbol
 _atom_site_label
 _atom_site_symmetry_multiplicity
 _atom_site_fract_x
 _atom_site_fract_y
 _atom_site_fract_z
 _atom_site_occupancy
  K  K0  1  0.00000000  0.00000000  0.00000000  1
  Ba  Ba0  1  0.66223100  0.99980500  0.32446000  1
  Ba  Ba1  1  0.33776900  0.00019500  0.67554000  1
  Fe  Fe0  1  0.41709000  0.50080300  0.33410700  1
  Fe  Fe1  1  0.08298100  0.49919700  0.66589300  1
  Fe  Fe2  1  0.74959400  0.50000000  0.00000000  1
  Fe  Fe3  1  0.58291000  0.49919700  0.66589300  1
  Fe  Fe4  1  0.25040600  0.50000000  0.00000000  1
  Fe  Fe5  1  0.91701900  0.50080300  0.33410700  1
  As  As0  1  0.21780900  0.30674800  0.43561700  1
  As  As1  1  0.88306600  0.30429300  0.76613100  1
  As  As2  1  0.55182100  0.30539300  0.10364400  1
  As  As3  1  0.78219100  0.69325200  0.56438300  1
  As  As4  1  0.44817900  0.69460700  0.89635600  1
  As  As5  1  0.11693400  0.69570700  0.23386900  1
loop_
_geom_bond_atom_site_label_1
_geom_bond_atom_site_label_2
_geom_bond_distance
_geom_bond_site_symmetry_2
As0 Fe3 2.319519 1_555
As0 Fe1 2.319529 1_555
As0 Fe5 2.326121 1_455
As0 Fe0 2.326124 1_555
As0 Ba0 3.396719 1_445
As0 Ba0 3.396724 1_545
As0 K0 3.428970 1_555
As0 Ba1 3.488382 1_555
As1 Fe1 2.324240 1_655
As1 Fe3 2.324249 1_555
As1 Fe4 2.345051 1_656
As1 Fe2 2.345054 1_556
As1 Ba1 3.386181 1_655
As1 Ba1 3.386194 1_555
As1 K0 3.433444 1_656
As1 Ba0 3.466733 1_545
As2 Fe0 2.326096 1_555
As2 Fe5 2.326109 1_555
As2 Fe4 2.338253 1_555
As2 Fe2 2.338260 1_555
As2 Ba0 3.353154 1_545
As2 Ba1 3.375772 1_554
As2 K0 3.389985 1_555
As2 K0 3.389994 1_655
As3 Fe0 2.319519 1_555
As3 Fe5 2.319529 1_555
As3 Fe1 2.326121 1_655
As3 Fe3 2.326124 1_555
As3 Ba1 3.396719 1_665
As3 Ba1 3.396724 1_565
As3 K0 3.428970 1_666
As3 Ba0 3.488382 1_555
As4 Fe3 2.326096 1_555
As4 Fe1 2.326109 1_555
As4 Fe2 2.338253 1_556
As4 Fe4 2.338260 1_556
As4 Ba1 3.353154 1_565
As4 Ba0 3.375772 1_556
As4 K0 3.389985 1_666
As4 K0 3.389994 1_566
As5 Fe5 2.324240 1_455
As5 Fe0 2.324249 1_555
As5 Fe2 2.345051 1_455
As5 Fe4 2.345054 1_555
As5 Ba0 3.386181 1_455
As5 Ba0 3.386194 1_555
As5 K0 3.433444 1_565
As5 Ba1 3.466733 1_565
