# generated using pymatgen
data_Sr2YFeCu2O7
_symmetry_space_group_name_H-M   'P 1'
_cell_length_a   3.75853101
_cell_length_b   11.60401100
_cell_length_c   3.88632101
_cell_angle_alpha   89.99999506
_cell_angle_beta   90.00984802
_cell_angle_gamma   89.99999506
_symmetry_Int_Tables_number   1
_chemical_formula_structural   Sr2YFeCu2O7
_chemical_formula_sum   'Sr2 Y1 Fe1 Cu2 O7'
_cell_volume   169.49813913
_cell_formula_units_Z   1
loop_
 _symmetry_equiv_pos_site_id
 _symmetry_equiv_pos_as_xyz
  1  'x, y, z'
loop_
 _atom_site_type_symbol
 _atom_site_label
 _atom_site_symmetry_multiplicity
 _atom_site_fract_x
 _atom_site_fract_y
 _atom_site_fract_z
 _atom_site_occupancy
  Sr  Sr0  1  0.50000100  0.81211300  0.50000000  1
  Sr  Sr1  1  0.49999900  0.18789400  0.50000000  1
  Y  Y0  1  0.50000100  0.49999800  0.50000000  1
  Fe  Fe0  1  0.99999600  0.00000000  0.99999900  1
  Cu  Cu0  1  0.00000000  0.64794100  0.99999900  1
  Cu  Cu1  1  0.00000100  0.35205300  0.00000000  1
  O  O0  1  0.00000000  0.00000000  0.50000100  1
  O  O1  1  0.00000100  0.83766600  0.00000000  1
  O  O2  1  0.00000000  0.16232700  0.00000100  1
  O  O3  1  0.99999900  0.62765500  0.50000000  1
  O  O4  1  0.00000100  0.37235000  0.50000000  1
  O  O5  1  0.50000100  0.62364100  0.00000000  1
  O  O6  1  0.50000100  0.37636300  0.00000000  1
loop_
_geom_bond_atom_site_label_1
_geom_bond_atom_site_label_2
_geom_bond_distance
_geom_bond_site_symmetry_2
Fe0 O2 1.883644 1_656
Fe0 O1 1.883726 1_646
Fe0 O0 1.943153 1_655
Fe0 O0 1.943168 1_656
Cu0 O5 1.900299 1_456
Cu0 O5 1.900306 1_556
Cu0 O3 1.957363 1_455
Cu0 O3 1.957371 1_456
Cu0 O1 2.201571 1_556
Cu1 O6 1.900320 1_455
Cu1 O6 1.900320 1_555
Cu1 O4 1.957382 1_554
Cu1 O4 1.957382 1_555
Cu1 O2 2.201583 1_555
O0 Sr0 2.878382 1_445
O0 Sr0 2.878387 1_545
O0 Sr1 2.878444 1_555
O0 Sr1 2.878448 1_455
O1 Sr0 2.719224 1_555
O1 Sr0 2.719224 1_454
O1 Sr0 2.719686 1_455
O1 Sr0 2.719686 1_554
O2 Sr1 2.719236 1_555
O2 Sr1 2.719247 1_454
O2 Sr1 2.719703 1_455
O2 Sr1 2.719703 1_554
O3 Y0 2.392898 1_555
O3 Y0 2.392909 1_655
O3 Sr0 2.848359 1_555
O3 Sr0 2.848369 1_655
O4 Y0 2.392839 1_455
O4 Y0 2.392839 1_555
O4 Sr1 2.848341 1_555
O4 Sr1 2.848351 1_455
O5 Y0 2.415449 1_555
O5 Y0 2.415449 1_554
O5 Sr0 2.925573 1_554
O5 Sr0 2.925573 1_555
O6 Y0 2.415394 1_554
O6 Y0 2.415394 1_555
O6 Sr1 2.925547 1_555
O6 Sr1 2.925547 1_554
