# generated using pymatgen
data_Li3Fe3(PO4)4
_symmetry_space_group_name_H-M   'P 1'
_cell_length_a   8.58172500
_cell_length_b   8.97931388
_cell_length_c   9.44667029
_cell_angle_alpha   103.10211443
_cell_angle_beta   105.00266750
_cell_angle_gamma   114.10860259
_symmetry_Int_Tables_number   1
_chemical_formula_structural   Li3Fe3(PO4)4
_chemical_formula_sum   'Li6 Fe6 P8 O32'
_cell_volume   594.42919125
_cell_formula_units_Z   2
loop_
 _symmetry_equiv_pos_site_id
 _symmetry_equiv_pos_as_xyz
  1  'x, y, z'
loop_
 _atom_site_type_symbol
 _atom_site_label
 _atom_site_symmetry_multiplicity
 _atom_site_fract_x
 _atom_site_fract_y
 _atom_site_fract_z
 _atom_site_occupancy
  Li  Li0  1  0.21785200  0.02061500  0.46062400  1
  Li  Li1  1  0.18921100  0.93796800  0.84609100  1
  Li  Li2  1  0.42082700  0.90298100  0.69806700  1
  Li  Li3  1  0.57917300  0.09701900  0.30193300  1
  Li  Li4  1  0.81078900  0.06203200  0.15390900  1
  Li  Li5  1  0.78214800  0.97938500  0.53937600  1
  Fe  Fe0  1  0.99353900  0.51769800  0.23568400  1
  Fe  Fe1  1  0.65683200  0.64413500  0.17543800  1
  Fe  Fe2  1  0.70830100  0.77672500  0.73764900  1
  Fe  Fe3  1  0.29169900  0.22327500  0.26235100  1
  Fe  Fe4  1  0.34316800  0.35586500  0.82456200  1
  Fe  Fe5  1  0.00646100  0.48230200  0.76431600  1
  P  P0  1  0.43384300  0.66318400  0.37282400  1
  P  P1  1  0.97763100  0.80680400  0.08171700  1
  P  P2  1  0.43766900  0.76679000  0.95345800  1
  P  P3  1  0.95164000  0.70782300  0.53189900  1
  P  P4  1  0.04836000  0.29217700  0.46810100  1
  P  P5  1  0.56233100  0.23321000  0.04654200  1
  P  P6  1  0.02236900  0.19319600  0.91828300  1
  P  P7  1  0.56615700  0.33681600  0.62717600  1
  O  O0  1  0.17263100  0.95497800  0.20206500  1
  O  O1  1  0.54372900  0.92108200  0.10873300  1
  O  O2  1  0.15502400  0.84346100  0.57687500  1
  O  O3  1  0.59220200  0.76797300  0.32080300  1
  O  O4  1  0.25620400  0.66252100  0.28370700  1
  O  O5  1  0.83200900  0.83543700  0.14134000  1
  O  O6  1  0.51015800  0.77444600  0.55139600  1
  O  O7  1  0.23001000  0.71737800  0.87694600  1
  O  O8  1  0.85343000  0.80295900  0.59357200  1
  O  O9  1  0.53040100  0.79374600  0.83454000  1
  O  O10  1  0.41345900  0.47866800  0.33189800  1
  O  O11  1  0.94675300  0.62363400  0.07725600  1
  O  O12  1  0.85694800  0.62398800  0.34173900  1
  O  O13  1  0.07485900  0.44017700  0.40538700  1
  O  O14  1  0.93744200  0.81218800  0.91359200  1
  O  O15  1  0.56301600  0.40318800  0.01932700  1
  O  O16  1  0.43698400  0.59681200  0.98067300  1
  O  O17  1  0.06255800  0.18781200  0.08640800  1
  O  O18  1  0.92514100  0.55982300  0.59461300  1
  O  O19  1  0.14305200  0.37601200  0.65826100  1
  O  O20  1  0.05324700  0.37636600  0.92274400  1
  O  O21  1  0.58654100  0.52133200  0.66810200  1
  O  O22  1  0.46959900  0.20625400  0.16546000  1
  O  O23  1  0.14657000  0.19704100  0.40642800  1
  O  O24  1  0.76999000  0.28262200  0.12305400  1
  O  O25  1  0.48984200  0.22555400  0.44860400  1
  O  O26  1  0.16799100  0.16456300  0.85866000  1
  O  O27  1  0.74379600  0.33747900  0.71629300  1
  O  O28  1  0.40779800  0.23202700  0.67919700  1
  O  O29  1  0.84497600  0.15653900  0.42312500  1
  O  O30  1  0.45627100  0.07891800  0.89126700  1
  O  O31  1  0.82736900  0.04502200  0.79793500  1
loop_
_geom_bond_atom_site_label_1
_geom_bond_atom_site_label_2
_geom_bond_distance
_geom_bond_site_symmetry_2
Li0 O23 2.035486 1_555
Li0 O2 2.103569 1_545
Li0 O28 2.115796 1_555
Li0 O0 2.265750 1_545
Li0 O25 2.360181 1_555
Li1 O30 1.978785 1_565
Li1 O26 2.095588 1_565
Li1 O7 2.215034 1_555
Li1 O14 2.323087 1_455
Li1 O2 2.388703 1_555
Li2 O30 1.982945 1_565
Li2 O2 2.043074 1_555
Li2 O9 2.051228 1_555
Li2 O6 2.094578 1_555
Li3 O1 1.982945 1_545
Li3 O29 2.043074 1_555
Li3 O22 2.051228 1_555
Li3 O25 2.094578 1_555
Li4 O1 1.978785 1_545
Li4 O5 2.095588 1_545
Li4 O24 2.215034 1_555
Li4 O17 2.323087 1_655
Li4 O29 2.388703 1_555
Li5 O8 2.035486 1_555
Li5 O29 2.103569 1_565
Li5 O3 2.115796 1_555
Li5 O31 2.265750 1_565
Li5 O6 2.360181 1_555
Fe0 O4 1.945859 1_655
Fe0 O13 1.965993 1_655
Fe0 O24 1.971005 1_555
Fe0 O11 1.988028 1_555
Fe0 O12 2.092151 1_555
Fe1 O3 1.906753 1_555
Fe1 O5 1.925197 1_555
Fe1 O15 2.004910 1_555
Fe1 O16 2.078150 1_554
Fe1 O12 2.106148 1_555
Fe2 O21 1.945872 1_555
Fe2 O9 2.010613 1_555
Fe2 O31 2.058634 1_565
Fe2 O8 2.059709 1_555
Fe2 O14 2.070534 1_555
Fe2 O6 2.096150 1_555
Fe3 O10 1.945872 1_555
Fe3 O22 2.010613 1_555
Fe3 O0 2.058634 1_545
Fe3 O23 2.059709 1_555
Fe3 O17 2.070534 1_555
Fe3 O25 2.096150 1_555
Fe4 O28 1.906753 1_555
Fe4 O26 1.925197 1_555
Fe4 O16 2.004910 1_555
Fe4 O15 2.078150 1_556
Fe4 O19 2.106148 1_555
Fe5 O27 1.945859 1_455
Fe5 O18 1.965993 1_455
Fe5 O7 1.971005 1_555
Fe5 O20 1.988028 1_555
Fe5 O19 2.092151 1_555
O0 P1 1.540601 1_455
O1 P2 1.502247 1_554
O2 P3 1.534635 1_455
O3 P0 1.576225 1_555
O4 P0 1.535768 1_555
O5 P1 1.583131 1_555
O6 P0 1.549877 1_555
O7 P2 1.561047 1_555
O8 P3 1.547987 1_555
O9 P2 1.543576 1_555
O10 P0 1.537189 1_555
O11 P1 1.543992 1_555
O12 P3 1.607922 1_555
O13 P4 1.532510 1_555
O14 P1 1.551958 1_556
O15 P5 1.602196 1_555
O16 P2 1.602196 1_555
O17 P6 1.551958 1_554
O18 P3 1.532510 1_555
O19 P4 1.607922 1_555
O20 P6 1.543992 1_555
O21 P7 1.537189 1_555
O22 P5 1.543576 1_555
O23 P4 1.547987 1_555
O24 P5 1.561047 1_555
O25 P7 1.549877 1_555
O26 P6 1.583131 1_555
O27 P7 1.535768 1_555
O28 P7 1.576225 1_555
O29 P4 1.534635 1_655
O30 P5 1.502247 1_556
O31 P6 1.540601 1_655
