# generated using pymatgen
data_Li9Co7O16
_symmetry_space_group_name_H-M   'P 1'
_cell_length_a   6.50785182
_cell_length_b   6.50785182
_cell_length_c   10.10219293
_cell_angle_alpha   59.18315822
_cell_angle_beta   59.18315822
_cell_angle_gamma   52.54906267
_symmetry_Int_Tables_number   1
_chemical_formula_structural   Li9Co7O16
_chemical_formula_sum   'Li9 Co7 O16'
_cell_volume   278.76660518
_cell_formula_units_Z   1
loop_
 _symmetry_equiv_pos_site_id
 _symmetry_equiv_pos_as_xyz
  1  'x, y, z'
loop_
 _atom_site_type_symbol
 _atom_site_label
 _atom_site_symmetry_multiplicity
 _atom_site_fract_x
 _atom_site_fract_y
 _atom_site_fract_z
 _atom_site_occupancy
  Li  Li0  1  0.00761300  0.50142800  0.24396400  1
  Li  Li1  1  0.74940900  0.74940900  0.49932600  1
  Li  Li2  1  0.50142800  0.00761300  0.24396400  1
  Li  Li3  1  0.25059100  0.25059100  0.50067400  1
  Li  Li4  1  0.49857200  0.99238700  0.75603600  1
  Li  Li5  1  0.99238700  0.49857200  0.75603600  1
  Li  Li6  1  0.25066700  0.25066700  0.00025100  1
  Li  Li7  1  0.74933300  0.74933300  0.99974900  1
  Li  Li8  1  0.50000000  0.50000000  0.00000000  1
  Co  Co0  1  0.00000000  0.00000000  0.00000000  1
  Co  Co1  1  0.74506200  0.25504900  0.24374000  1
  Co  Co2  1  0.50000000  0.50000000  0.50000000  1
  Co  Co3  1  0.25493800  0.74495100  0.75626000  1
  Co  Co4  1  0.25504900  0.74506200  0.24374000  1
  Co  Co5  1  0.00000000  0.00000000  0.50000000  1
  Co  Co6  1  0.74495100  0.25493800  0.75626000  1
  O  O0  1  0.88592400  0.88592400  0.23413500  1
  O  O1  1  0.64457200  0.13757100  0.49657200  1
  O  O2  1  0.38204100  0.38204100  0.25553800  1
  O  O3  1  0.13757100  0.64457200  0.49657200  1
  O  O4  1  0.38743200  0.38743200  0.73413500  1
  O  O5  1  0.89249800  0.89249800  0.73194400  1
  O  O6  1  0.11711700  0.65806100  0.99241200  1
  O  O7  1  0.65806100  0.11711700  0.99241200  1
  O  O8  1  0.10750200  0.10750200  0.26805600  1
  O  O9  1  0.86242900  0.35542800  0.50342800  1
  O  O10  1  0.61256800  0.61256800  0.26586500  1
  O  O11  1  0.35542800  0.86242900  0.50342800  1
  O  O12  1  0.61795900  0.61795900  0.74446200  1
  O  O13  1  0.11407600  0.11407600  0.76586500  1
  O  O14  1  0.34193900  0.88288300  0.00758800  1
  O  O15  1  0.88288300  0.34193900  0.00758800  1
loop_
_geom_bond_atom_site_label_1
_geom_bond_atom_site_label_2
_geom_bond_distance
_geom_bond_site_symmetry_2
Li0 O0 2.077083 1_455
Li0 O6 2.092512 1_554
Li0 O2 2.109814 1_555
Li0 O10 2.121631 1_455
Li0 O8 2.133073 1_555
Li0 O9 2.160683 1_455
Li1 O12 2.035954 1_555
Li1 O3 2.167687 1_655
Li1 O1 2.167687 1_565
Li1 O9 2.178421 1_555
Li1 O11 2.178421 1_555
Li1 O0 2.199626 1_555
Li2 O0 2.077083 1_545
Li2 O7 2.092512 1_554
Li2 O2 2.109814 1_555
Li2 O10 2.121631 1_545
Li2 O8 2.133073 1_555
Li2 O11 2.160683 1_545
Li3 O2 2.035954 1_555
Li3 O9 2.167687 1_455
Li3 O11 2.167687 1_545
Li3 O1 2.178421 1_555
Li3 O3 2.178421 1_555
Li3 O13 2.199626 1_555
Li4 O13 2.077083 1_565
Li4 O14 2.092512 1_556
Li4 O12 2.109814 1_555
Li4 O4 2.121631 1_565
Li4 O5 2.133073 1_555
Li4 O1 2.160683 1_565
Li5 O13 2.077083 1_655
Li5 O15 2.092512 1_556
Li5 O12 2.109814 1_555
Li5 O4 2.121631 1_655
Li5 O5 2.133073 1_555
Li5 O3 2.160683 1_655
Li6 O15 2.054606 1_455
Li6 O14 2.054606 1_545
Li6 O6 2.200876 1_554
Li6 O7 2.200876 1_554
Li6 O4 2.207225 1_554
Li6 O8 2.223933 1_555
Li7 O6 2.054606 1_655
Li7 O7 2.054606 1_565
Li7 O15 2.200876 1_556
Li7 O14 2.200876 1_556
Li7 O10 2.207225 1_556
Li7 O5 2.223933 1_555
Li8 O14 2.066526 1_555
Li8 O15 2.066526 1_555
Li8 O6 2.066526 1_554
Li8 O7 2.066526 1_554
Li8 O2 2.120972 1_555
Li8 O12 2.120972 1_554
Co0 O15 1.894971 1_455
Co0 O14 1.894971 1_545
Co0 O7 1.894971 1_454
Co0 O6 1.894971 1_544
Co0 O13 1.941346 1_554
Co0 O0 1.941346 1_445
Co1 O2 1.927814 1_555
Co1 O15 1.964137 1_555
Co1 O0 2.022356 1_545
Co1 O10 2.025437 1_555
Co1 O8 2.035530 1_655
Co1 O1 2.105183 1_555
Co2 O4 1.941607 1_555
Co2 O10 1.941607 1_555
Co2 O1 1.949626 1_555
Co2 O11 1.949626 1_555
Co2 O3 1.949626 1_555
Co2 O9 1.949626 1_555
Co3 O12 1.927814 1_555
Co3 O6 1.964137 1_555
Co3 O13 2.022356 1_565
Co3 O4 2.025437 1_555
Co3 O5 2.035530 1_455
Co3 O11 2.105183 1_555
Co4 O2 1.927814 1_555
Co4 O14 1.964137 1_555
Co4 O0 2.022356 1_455
Co4 O10 2.025437 1_555
Co4 O8 2.035530 1_565
Co4 O3 2.105183 1_555
Co5 O1 1.919592 1_455
Co5 O3 1.919592 1_545
Co5 O11 1.919592 1_545
Co5 O9 1.919592 1_455
Co5 O8 1.924913 1_555
Co5 O5 1.924913 1_445
Co6 O12 1.927814 1_555
Co6 O7 1.964137 1_555
Co6 O13 2.022356 1_655
Co6 O4 2.025437 1_555
Co6 O5 2.035530 1_545
Co6 O9 2.105183 1_555
