# generated using pymatgen
data_Ti5Ge4
_symmetry_space_group_name_H-M   'P 1'
_cell_length_a   6.65395888
_cell_length_b   6.75821358
_cell_length_c   12.79339107
_cell_angle_alpha   90.00000000
_cell_angle_beta   90.00000000
_cell_angle_gamma   90.00000000
_symmetry_Int_Tables_number   1
_chemical_formula_structural   Ti5Ge4
_chemical_formula_sum   'Ti20 Ge16'
_cell_volume   575.30440722
_cell_formula_units_Z   4
loop_
 _symmetry_equiv_pos_site_id
 _symmetry_equiv_pos_as_xyz
  1  'x, y, z'
loop_
 _atom_site_type_symbol
 _atom_site_label
 _atom_site_symmetry_multiplicity
 _atom_site_fract_x
 _atom_site_fract_y
 _atom_site_fract_z
 _atom_site_occupancy
  Ti  Ti0  1  0.17358263  0.50339716  0.75000000  1
  Ti  Ti1  1  0.67358263  0.99660284  0.75000000  1
  Ti  Ti2  1  0.82641737  0.49660284  0.25000000  1
  Ti  Ti3  1  0.32641737  0.00339716  0.25000000  1
  Ti  Ti4  1  0.35084308  0.83398175  0.87432728  1
  Ti  Ti5  1  0.85084308  0.66601825  0.62567272  1
  Ti  Ti6  1  0.64915692  0.16601825  0.37432728  1
  Ti  Ti7  1  0.14915692  0.33398175  0.12567272  1
  Ti  Ti8  1  0.64915692  0.16601825  0.12567272  1
  Ti  Ti9  1  0.14915692  0.33398175  0.37432728  1
  Ti  Ti10  1  0.35084308  0.83398175  0.62567272  1
  Ti  Ti11  1  0.85084308  0.66601825  0.87432728  1
  Ti  Ti12  1  0.51422043  0.32189245  0.90624600  1
  Ti  Ti13  1  0.01422043  0.17810755  0.59375400  1
  Ti  Ti14  1  0.48577957  0.67810755  0.40624600  1
  Ti  Ti15  1  0.98577957  0.82189245  0.09375400  1
  Ti  Ti16  1  0.48577957  0.67810755  0.09375400  1
  Ti  Ti17  1  0.98577957  0.82189245  0.40624600  1
  Ti  Ti18  1  0.51422043  0.32189245  0.59375400  1
  Ti  Ti19  1  0.01422043  0.17810755  0.90624600  1
  Ge  Ge0  1  0.31765996  0.15164376  0.75000000  1
  Ge  Ge1  1  0.81765996  0.34835624  0.75000000  1
  Ge  Ge2  1  0.68234004  0.84835624  0.25000000  1
  Ge  Ge3  1  0.18234004  0.65164376  0.25000000  1
  Ge  Ge4  1  0.54672510  0.61092262  0.75000000  1
  Ge  Ge5  1  0.04672510  0.88907738  0.75000000  1
  Ge  Ge6  1  0.45327490  0.38907738  0.25000000  1
  Ge  Ge7  1  0.95327490  0.11092262  0.25000000  1
  Ge  Ge8  1  0.30696661  0.03706563  0.03966908  1
  Ge  Ge9  1  0.80696661  0.46293437  0.46033092  1
  Ge  Ge10  1  0.69303339  0.96293437  0.53966908  1
  Ge  Ge11  1  0.19303339  0.53706563  0.96033092  1
  Ge  Ge12  1  0.69303339  0.96293437  0.96033092  1
  Ge  Ge13  1  0.19303339  0.53706563  0.53966908  1
  Ge  Ge14  1  0.30696661  0.03706563  0.46033092  1
  Ge  Ge15  1  0.80696661  0.46293437  0.03966908  1
loop_
_geom_bond_atom_site_label_1
_geom_bond_atom_site_label_2
_geom_bond_distance
_geom_bond_site_symmetry_2
Ge0 Ge5 2.529590 1_545
Ge0 Ti0 2.563254 1_555
Ge0 Ti1 2.589731 1_545
Ge0 Ti18 2.651435 1_555
Ge0 Ti12 2.651435 1_555
Ge0 Ti10 2.680956 1_545
Ge0 Ti4 2.680956 1_545
Ge0 Ti19 2.846807 1_555
Ge0 Ti13 2.846807 1_555
Ge1 Ge4 2.529590 1_555
Ge1 Ti1 2.563254 1_545
Ge1 Ti0 2.589731 1_655
Ge1 Ti13 2.651435 1_655
Ge1 Ti19 2.651435 1_655
Ge1 Ti11 2.680956 1_555
Ge1 Ti5 2.680956 1_555
Ge1 Ti18 2.846807 1_555
Ge1 Ti12 2.846807 1_555
Ge2 Ge7 2.529590 1_565
Ge2 Ti2 2.563254 1_555
Ge2 Ti3 2.589731 1_565
Ge2 Ti14 2.651435 1_555
Ge2 Ti16 2.651435 1_555
Ge2 Ti6 2.680956 1_565
Ge2 Ti8 2.680956 1_565
Ge2 Ti17 2.846807 1_555
Ge2 Ti15 2.846807 1_555
Ge3 Ge6 2.529590 1_555
Ge3 Ti3 2.563254 1_565
Ge3 Ti2 2.589731 1_455
Ge3 Ti17 2.651435 1_455
Ge3 Ti15 2.651435 1_455
Ge3 Ti7 2.680956 1_555
Ge3 Ti9 2.680956 1_555
Ge3 Ti14 2.846807 1_555
Ge3 Ti16 2.846807 1_555
Ge4 Ti4 2.549751 1_555
Ge4 Ti10 2.549751 1_555
Ge4 Ti0 2.587031 1_555
Ge4 Ti11 2.600665 1_555
Ge4 Ti5 2.600665 1_555
Ge4 Ti1 2.739782 1_555
Ge4 Ti18 2.803201 1_555
Ge4 Ti12 2.803201 1_555
Ge5 Ti11 2.549751 1_455
Ge5 Ti5 2.549751 1_455
Ge5 Ti1 2.587031 1_455
Ge5 Ti4 2.600665 1_555
Ge5 Ti10 2.600665 1_555
Ge5 Ti0 2.739782 1_555
Ge5 Ti13 2.803201 1_565
Ge5 Ti19 2.803201 1_565
Ge6 Ti6 2.549751 1_555
Ge6 Ti8 2.549751 1_555
Ge6 Ti2 2.587031 1_555
Ge6 Ti9 2.600665 1_555
Ge6 Ti7 2.600665 1_555
Ge6 Ti3 2.739782 1_555
Ge6 Ti14 2.803201 1_555
Ge6 Ti16 2.803201 1_555
Ge7 Ti9 2.549751 1_655
Ge7 Ti7 2.549751 1_655
Ge7 Ti3 2.587031 1_655
Ge7 Ti8 2.600665 1_555
Ge7 Ti6 2.600665 1_555
Ge7 Ti2 2.739782 1_555
Ge7 Ti17 2.803201 1_545
Ge7 Ti15 2.803201 1_545
Ge8 Ti7 2.517890 1_555
Ge8 Ti4 2.538379 1_544
Ge8 Ti8 2.674784 1_555
Ge8 Ti15 2.675986 1_445
Ge8 Ti3 2.703549 1_555
Ge8 Ti19 2.759818 1_554
Ge8 Ti16 2.789174 1_545
Ge8 Ti12 2.919031 1_554
Ge9 Ti6 2.517890 1_555
Ge9 Ti5 2.538379 1_555
Ge9 Ti9 2.674784 1_655
Ge9 Ti14 2.675986 1_555
Ge9 Ti2 2.703549 1_555
Ge9 Ti18 2.759818 1_555
Ge9 Ti17 2.789174 1_555
Ge9 Ti13 2.919031 1_655
Ge10 Ti5 2.517890 1_555
Ge10 Ti6 2.538379 1_565
Ge10 Ti10 2.674784 1_555
Ge10 Ti13 2.675986 1_665
Ge10 Ti1 2.703549 1_555
Ge10 Ti17 2.759818 1_555
Ge10 Ti18 2.789174 1_565
Ge10 Ti14 2.919031 1_555
Ge11 Ti4 2.517890 1_555
Ge11 Ti7 2.538379 1_556
Ge11 Ti11 2.674784 1_455
Ge11 Ti12 2.675986 1_555
Ge11 Ti0 2.703549 1_555
Ge11 Ti16 2.759818 1_556
Ge11 Ti19 2.789174 1_555
Ge11 Ti15 2.919031 1_456
Ge12 Ti11 2.517890 1_555
Ge12 Ti8 2.538379 1_566
Ge12 Ti4 2.674784 1_555
Ge12 Ti19 2.675986 1_665
Ge12 Ti1 2.703549 1_555
Ge12 Ti15 2.759818 1_556
Ge12 Ti12 2.789174 1_565
Ge12 Ti16 2.919031 1_556
Ge13 Ti10 2.517890 1_555
Ge13 Ti9 2.538379 1_555
Ge13 Ti5 2.674784 1_455
Ge13 Ti18 2.675986 1_555
Ge13 Ti0 2.703549 1_555
Ge13 Ti14 2.759818 1_555
Ge13 Ti13 2.789174 1_555
Ge13 Ti17 2.919031 1_455
Ge14 Ti9 2.517890 1_555
Ge14 Ti10 2.538379 1_545
Ge14 Ti6 2.674784 1_555
Ge14 Ti17 2.675986 1_445
Ge14 Ti3 2.703549 1_555
Ge14 Ti13 2.759818 1_555
Ge14 Ti14 2.789174 1_545
Ge14 Ti18 2.919031 1_555
Ge15 Ti8 2.517890 1_555
Ge15 Ti11 2.538379 1_554
Ge15 Ti7 2.674784 1_655
Ge15 Ti16 2.675986 1_555
Ge15 Ti2 2.703549 1_555
Ge15 Ti12 2.759818 1_554
Ge15 Ti15 2.789174 1_555
Ge15 Ti19 2.919031 1_654
