# generated using pymatgen
data_Pr2GeRh3
_symmetry_space_group_name_H-M   'P 1'
_cell_length_a   5.18759994
_cell_length_b   5.18759994
_cell_length_c   5.18759907
_cell_angle_alpha   66.50740200
_cell_angle_beta   66.50740200
_cell_angle_gamma   66.50740774
_symmetry_Int_Tables_number   1
_chemical_formula_structural   Pr2GeRh3
_chemical_formula_sum   'Pr2 Ge1 Rh3'
_cell_volume   112.55020794
_cell_formula_units_Z   1
loop_
 _symmetry_equiv_pos_site_id
 _symmetry_equiv_pos_as_xyz
  1  'x, y, z'
loop_
 _atom_site_type_symbol
 _atom_site_label
 _atom_site_symmetry_multiplicity
 _atom_site_fract_x
 _atom_site_fract_y
 _atom_site_fract_z
 _atom_site_occupancy
  Pr  Pr0  1  0.62896869  0.62896869  0.62896869  1
  Pr  Pr1  1  0.37103131  0.37103131  0.37103131  1
  Ge  Ge0  1  0.00000000  0.00000000  -0.00000000  1
  Rh  Rh0  1  0.00000000  0.00000000  0.50000000  1
  Rh  Rh1  1  0.50000000  0.00000000  -0.00000000  1
  Rh  Rh2  1  0.00000000  0.50000000  -0.00000000  1
loop_
_geom_bond_atom_site_label_1
_geom_bond_atom_site_label_2
_geom_bond_distance
_geom_bond_site_symmetry_2
Pr0 Rh2 2.959277 1_656
Pr0 Rh1 2.959277 1_566
Pr0 Rh0 2.959277 1_665
Pr0 Rh2 3.241174 1_655
Pr0 Rh1 3.241174 1_565
Pr0 Rh1 3.241174 1_556
Pr0 Rh2 3.241174 1_556
Pr0 Rh0 3.241174 1_655
Pr0 Rh0 3.241174 1_565
Pr1 Rh1 2.959277 1_555
Pr1 Rh2 2.959277 1_555
Pr1 Rh0 2.959277 1_555
Pr1 Rh2 3.241174 1_556
Pr1 Rh1 3.241174 1_556
Pr1 Rh2 3.241174 1_655
Pr1 Rh1 3.241174 1_565
Pr1 Rh0 3.241174 1_655
Pr1 Rh0 3.241174 1_565
Ge0 Rh0 2.593800 1_554
Ge0 Rh0 2.593800 1_555
Ge0 Rh2 2.593800 1_545
Ge0 Rh1 2.593800 1_455
Ge0 Rh1 2.593800 1_555
Ge0 Rh2 2.593800 1_555
Ge0 Pr1 3.315908 1_554
Ge0 Pr0 3.315908 1_445
Ge0 Pr1 3.315909 1_455
Ge0 Pr0 3.315909 1_544
Ge0 Pr1 3.315909 1_545
Ge0 Pr0 3.315909 1_454
Rh0 Rh1 2.844606 1_555
Rh0 Rh2 2.844606 1_546
Rh0 Rh1 2.844606 1_456
Rh0 Rh2 2.844606 1_555
Rh1 Rh2 2.844606 1_645
Rh1 Rh2 2.844606 1_555
