# generated using pymatgen
data_CrCdTe2
_symmetry_space_group_name_H-M   'P 1'
_cell_length_a   4.52331000
_cell_length_b   4.52331000
_cell_length_c   6.50669600
_cell_angle_alpha   90.00000000
_cell_angle_beta   90.00000000
_cell_angle_gamma   90.00000000
_symmetry_Int_Tables_number   1
_chemical_formula_structural   CrCdTe2
_chemical_formula_sum   'Cr1 Cd1 Te2'
_cell_volume   133.12916921
_cell_formula_units_Z   1
loop_
 _symmetry_equiv_pos_site_id
 _symmetry_equiv_pos_as_xyz
  1  'x, y, z'
loop_
 _atom_site_type_symbol
 _atom_site_label
 _atom_site_symmetry_multiplicity
 _atom_site_fract_x
 _atom_site_fract_y
 _atom_site_fract_z
 _atom_site_occupancy
  Cr  Cr0  1  0.00000000  0.00000000  0.00000000  1
  Cd  Cd0  1  0.50000000  0.50000000  0.50000000  1
  Te  Te0  1  0.00000000  0.50000000  0.77048400  1
  Te  Te1  1  0.50000000  0.00000000  0.22951600  1
loop_
_geom_bond_atom_site_label_1
_geom_bond_atom_site_label_2
_geom_bond_distance
_geom_bond_site_symmetry_2
Cr0 Te1 2.710221 1_555
Cr0 Te0 2.710221 1_544
Cr0 Te1 2.710221 1_455
Cr0 Te0 2.710221 1_554
Cd0 Te0 2.865752 1_555
Cd0 Te0 2.865752 1_655
Cd0 Te1 2.865752 1_565
Cd0 Te1 2.865752 1_555
