# generated using pymatgen
data_Ca3(InN2)2
_symmetry_space_group_name_H-M   'P 1'
_cell_length_a   5.99638400
_cell_length_b   11.11897200
_cell_length_c   9.06788500
_cell_angle_alpha   90.00000000
_cell_angle_beta   90.00000000
_cell_angle_gamma   90.00000000
_symmetry_Int_Tables_number   1
_chemical_formula_structural   Ca3(InN2)2
_chemical_formula_sum   'Ca12 In8 N16'
_cell_volume   604.58877126
_cell_formula_units_Z   4
loop_
 _symmetry_equiv_pos_site_id
 _symmetry_equiv_pos_as_xyz
  1  'x, y, z'
loop_
 _atom_site_type_symbol
 _atom_site_label
 _atom_site_symmetry_multiplicity
 _atom_site_fract_x
 _atom_site_fract_y
 _atom_site_fract_z
 _atom_site_occupancy
  Ca  Ca0  1  0.61199900  0.16139700  0.40495500  1
  Ca  Ca1  1  0.88800100  0.83860300  0.40495500  1
  Ca  Ca2  1  0.61199900  0.33860300  0.09504500  1
  Ca  Ca3  1  0.88800100  0.66139700  0.09504500  1
  Ca  Ca4  1  0.38800100  0.83860300  0.59504500  1
  Ca  Ca5  1  0.11199900  0.16139700  0.59504500  1
  Ca  Ca6  1  0.38800100  0.66139700  0.90495500  1
  Ca  Ca7  1  0.11199900  0.33860300  0.90495500  1
  Ca  Ca8  1  0.75000000  0.50000000  0.40167900  1
  Ca  Ca9  1  0.75000000  0.00000000  0.09832100  1
  Ca  Ca10  1  0.25000000  0.50000000  0.59832100  1
  Ca  Ca11  1  0.25000000  0.00000000  0.90167900  1
  In  In0  1  0.75000000  0.50000000  0.74988900  1
  In  In1  1  0.75000000  0.00000000  0.75011100  1
  In  In2  1  0.25000000  0.50000000  0.25011100  1
  In  In3  1  0.25000000  0.00000000  0.24988900  1
  In  In4  1  0.64975200  0.25000000  0.75000000  1
  In  In5  1  0.85024800  0.75000000  0.75000000  1
  In  In6  1  0.35024800  0.75000000  0.25000000  1
  In  In7  1  0.14975200  0.25000000  0.25000000  1
  N  N0  1  0.92606200  0.35897900  0.62594300  1
  N  N1  1  0.57393800  0.64102100  0.62594300  1
  N  N2  1  0.92606200  0.14102100  0.87405700  1
  N  N3  1  0.57393800  0.85897900  0.87405700  1
  N  N4  1  0.07393800  0.64102100  0.37405700  1
  N  N5  1  0.42606200  0.35897900  0.37405700  1
  N  N6  1  0.07393800  0.85897900  0.12594300  1
  N  N7  1  0.42606200  0.14102100  0.12594300  1
  N  N8  1  0.47574800  0.39936500  0.85324200  1
  N  N9  1  0.02425200  0.60063500  0.85324200  1
  N  N10  1  0.47574800  0.10063500  0.64675800  1
  N  N11  1  0.02425200  0.89936500  0.64675800  1
  N  N12  1  0.52425200  0.60063500  0.14675800  1
  N  N13  1  0.97574800  0.39936500  0.14675800  1
  N  N14  1  0.52425200  0.89936500  0.35324200  1
  N  N15  1  0.97574800  0.10063500  0.35324200  1
loop_
_geom_bond_atom_site_label_1
_geom_bond_atom_site_label_2
_geom_bond_distance
_geom_bond_site_symmetry_2
Ca0 N15 2.331069 1_555
Ca0 N10 2.435496 1_555
Ca0 N5 2.479520 1_555
Ca0 N7 2.774092 1_555
Ca0 N14 2.997562 1_545
Ca1 N14 2.331069 1_555
Ca1 N11 2.435496 1_655
Ca1 N4 2.479520 1_655
Ca1 N6 2.774092 1_655
Ca1 N15 2.997562 1_565
Ca2 N13 2.331069 1_555
Ca2 N8 2.435496 1_554
Ca2 N7 2.479520 1_555
Ca2 N5 2.774092 1_555
Ca2 N12 2.997562 1_555
Ca3 N12 2.331069 1_555
Ca3 N9 2.435496 1_654
Ca3 N6 2.479520 1_655
Ca3 N4 2.774092 1_655
Ca3 N13 2.997562 1_555
Ca4 N11 2.331069 1_555
Ca4 N14 2.435496 1_555
Ca4 N1 2.479520 1_555
Ca4 N3 2.774092 1_555
Ca4 N10 2.997562 1_565
Ca5 N10 2.331069 1_555
Ca5 N15 2.435496 1_455
Ca5 N0 2.479520 1_455
Ca5 N2 2.774092 1_455
Ca5 N11 2.997562 1_545
Ca6 N9 2.331069 1_555
Ca6 N12 2.435496 1_556
Ca6 N3 2.479520 1_555
Ca6 N1 2.774092 1_555
Ca6 N8 2.997562 1_555
Ca7 N8 2.331069 1_555
Ca7 N13 2.435496 1_456
Ca7 N2 2.479520 1_455
Ca7 N0 2.774092 1_455
Ca7 N9 2.997562 1_555
Ca8 N4 2.508889 1_655
Ca8 N5 2.508889 1_555
Ca8 N0 2.776465 1_555
Ca8 N1 2.776465 1_555
Ca8 N12 2.903095 1_555
Ca8 N13 2.903095 1_555
Ca9 N7 2.508889 1_555
Ca9 N6 2.508889 1_645
Ca9 N2 2.776465 1_554
Ca9 N3 2.776465 1_544
Ca9 N15 2.903095 1_555
Ca9 N14 2.903095 1_545
Ca10 N1 2.508889 1_555
Ca10 N0 2.508889 1_455
Ca10 N5 2.776465 1_555
Ca10 N4 2.776465 1_555
Ca10 N9 2.903095 1_555
Ca10 N8 2.903095 1_555
Ca11 N2 2.508889 1_455
Ca11 N3 2.508889 1_545
Ca11 N7 2.776465 1_556
Ca11 N6 2.776465 1_546
Ca11 N11 2.903095 1_545
Ca11 N10 2.903095 1_555
In0 N9 2.198828 1_655
In0 N8 2.198828 1_555
In0 N0 2.199191 1_555
In0 N1 2.199191 1_555
In1 N11 2.198828 1_645
In1 N10 2.198828 1_555
In1 N2 2.199191 1_555
In1 N3 2.199191 1_545
In2 N12 2.198828 1_555
In2 N13 2.198828 1_455
In2 N5 2.199191 1_555
In2 N4 2.199191 1_555
In3 N14 2.198828 1_545
In3 N15 2.198828 1_455
In3 N7 2.199191 1_555
In3 N6 2.199191 1_545
In4 N8 2.173321 1_555
In4 N10 2.173321 1_555
In4 N0 2.340719 1_555
In4 N2 2.340719 1_555
In5 N11 2.173321 1_655
In5 N9 2.173321 1_655
In5 N3 2.340719 1_555
In5 N1 2.340719 1_555
In6 N14 2.173321 1_555
In6 N12 2.173321 1_555
In6 N6 2.340719 1_555
In6 N4 2.340719 1_555
In7 N13 2.173321 1_455
In7 N15 2.173321 1_455
In7 N7 2.340719 1_555
In7 N5 2.340719 1_555
