# generated using pymatgen
data_Yb2Cu4As3
_symmetry_space_group_name_H-M   'P 1'
_cell_length_a   13.21826364
_cell_length_b   13.21826364
_cell_length_c   4.07713900
_cell_angle_alpha   90.00000000
_cell_angle_beta   90.00000000
_cell_angle_gamma   119.99999819
_symmetry_Int_Tables_number   1
_chemical_formula_structural   Yb2Cu4As3
_chemical_formula_sum   'Yb8 Cu16 As12'
_cell_volume   616.92870331
_cell_formula_units_Z   4
loop_
 _symmetry_equiv_pos_site_id
 _symmetry_equiv_pos_as_xyz
  1  'x, y, z'
loop_
 _atom_site_type_symbol
 _atom_site_label
 _atom_site_symmetry_multiplicity
 _atom_site_fract_x
 _atom_site_fract_y
 _atom_site_fract_z
 _atom_site_occupancy
  Yb  Yb0  1  0.00000000  0.57084600  0.00000000  1
  Yb  Yb1  1  0.42915400  0.42915400  0.00000000  1
  Yb  Yb2  1  0.57084600  0.00000000  0.00000000  1
  Yb  Yb3  1  0.00000000  0.18940000  0.50000000  1
  Yb  Yb4  1  0.81060000  0.81060000  0.50000000  1
  Yb  Yb5  1  0.18940000  0.00000000  0.50000000  1
  Yb  Yb6  1  0.66666700  0.33333300  0.00000000  1
  Yb  Yb7  1  0.33333300  0.66666700  0.00000000  1
  Cu  Cu0  1  0.11819100  0.48156500  0.50000000  1
  Cu  Cu1  1  0.48156500  0.11819100  0.50000000  1
  Cu  Cu2  1  0.88180900  0.36337400  0.50000000  1
  Cu  Cu3  1  0.63662600  0.51843500  0.50000000  1
  Cu  Cu4  1  0.51843500  0.63662600  0.50000000  1
  Cu  Cu5  1  0.36337400  0.88180900  0.50000000  1
  Cu  Cu6  1  0.37520800  0.18988200  0.00000000  1
  Cu  Cu7  1  0.81011800  0.18532600  0.00000000  1
  Cu  Cu8  1  0.00000000  0.00000000  0.00000000  1
  Cu  Cu9  1  0.72479700  0.00000000  0.50000000  1
  Cu  Cu10  1  0.27520300  0.27520300  0.50000000  1
  Cu  Cu11  1  0.00000000  0.72479700  0.50000000  1
  Cu  Cu12  1  0.18988200  0.37520800  0.00000000  1
  Cu  Cu13  1  0.18532600  0.81011800  0.00000000  1
  Cu  Cu14  1  0.62479200  0.81467400  0.00000000  1
  Cu  Cu15  1  0.81467400  0.62479200  0.00000000  1
  As  As0  1  0.64197700  0.64197700  0.00000000  1
  As  As1  1  0.00000000  0.35802300  0.00000000  1
  As  As2  1  0.48160000  0.30604200  0.50000000  1
  As  As3  1  0.30604200  0.48160000  0.50000000  1
  As  As4  1  0.17555800  0.69395800  0.50000000  1
  As  As5  1  0.51840000  0.82444200  0.50000000  1
  As  As6  1  0.82444200  0.51840000  0.50000000  1
  As  As7  1  0.69395800  0.17555800  0.50000000  1
  As  As8  1  0.82282100  0.00000000  0.00000000  1
  As  As9  1  0.17717900  0.17717900  0.00000000  1
  As  As10  1  0.00000000  0.82282100  0.00000000  1
  As  As11  1  0.35802300  0.00000000  0.00000000  1
loop_
_geom_bond_atom_site_label_1
_geom_bond_atom_site_label_2
_geom_bond_distance
_geom_bond_site_symmetry_2
Cu0 Yb0 3.135749 1_555
Cu0 Yb0 3.135749 1_556
Cu0 Yb7 3.357298 1_555
Cu0 Yb7 3.357298 1_556
Cu0 Yb3 3.364775 1_555
Cu1 Yb2 3.135749 1_556
Cu1 Yb2 3.135749 1_555
Cu1 Yb6 3.357298 1_555
Cu1 Yb6 3.357298 1_556
Cu1 Yb5 3.364775 1_555
Cu2 Yb0 3.135749 1_655
Cu2 Yb0 3.135749 1_656
Cu2 Yb6 3.357294 1_556
Cu2 Yb6 3.357294 1_555
Cu2 Yb3 3.364775 1_655
Cu3 Yb1 3.135749 1_556
Cu3 Yb1 3.135749 1_555
Cu3 Yb6 3.357304 1_555
Cu3 Yb6 3.357304 1_556
Cu3 Yb4 3.364775 1_555
Cu4 Yb1 3.135749 1_556
Cu4 Yb1 3.135749 1_555
Cu4 Yb7 3.357304 1_555
Cu4 Yb7 3.357304 1_556
Cu4 Yb4 3.364775 1_555
Cu5 Yb2 3.135749 1_566
Cu5 Yb2 3.135749 1_565
Cu5 Yb7 3.357294 1_555
Cu5 Yb7 3.357294 1_556
Cu5 Yb5 3.364775 1_565
Cu6 Yb1 2.873369 1_555
Cu6 Yb5 3.212967 1_555
Cu6 Yb5 3.212967 1_554
Cu6 Yb6 3.336570 1_555
Cu7 Yb2 2.873369 1_555
Cu7 Yb3 3.212967 1_655
Cu7 Yb3 3.212967 1_654
Cu7 Yb6 3.336558 1_555
Cu8 Yb5 3.228541 1_554
Cu8 Yb5 3.228541 1_555
Cu8 Yb3 3.228541 1_555
Cu8 Yb3 3.228541 1_554
Cu8 Yb4 3.228541 1_444
Cu8 Yb4 3.228541 1_445
Cu9 Yb2 2.880425 1_556
Cu9 Yb2 2.880425 1_555
Cu9 Yb4 3.223891 1_545
Cu9 Yb3 3.223891 1_655
Cu10 Yb1 2.880425 1_556
Cu10 Yb1 2.880425 1_555
Cu10 Yb5 3.223891 1_555
Cu10 Yb3 3.223891 1_555
Cu11 Yb0 2.880425 1_555
Cu11 Yb0 2.880425 1_556
Cu11 Yb4 3.223891 1_455
Cu11 Yb5 3.223891 1_565
Cu12 Yb1 2.873369 1_555
Cu12 Yb3 3.212967 1_554
Cu12 Yb3 3.212967 1_555
Cu12 Yb7 3.336570 1_555
Cu13 Yb0 2.873369 1_555
Cu13 Yb5 3.212967 1_565
Cu13 Yb5 3.212967 1_564
Cu13 Yb7 3.336558 1_555
Cu14 Yb2 2.873369 1_565
Cu14 Yb4 3.212967 1_555
Cu14 Yb4 3.212967 1_554
Cu14 Yb7 3.336570 1_555
Cu15 Yb0 2.873369 1_655
Cu15 Yb4 3.212967 1_555
Cu15 Yb4 3.212967 1_554
Cu15 Yb6 3.336570 1_555
As0 Cu15 2.404394 1_555
As0 Cu14 2.404394 1_555
As0 Cu4 2.590750 1_554
As0 Cu4 2.590750 1_555
As0 Cu3 2.590750 1_554
As0 Cu3 2.590750 1_555
As0 Yb1 2.813151 1_555
As0 Yb4 3.020559 1_555
As0 Yb4 3.020559 1_554
As1 Cu12 2.404394 1_555
As1 Cu7 2.404394 1_455
As1 Cu2 2.590750 1_455
As1 Cu2 2.590750 1_454
As1 Cu0 2.590751 1_555
As1 Cu0 2.590751 1_554
As1 Yb0 2.813151 1_555
As1 Yb3 3.020559 1_554
As1 Yb3 3.020559 1_555
As2 Cu1 2.482833 1_555
As2 Cu3 2.515551 1_555
As2 Cu6 2.516296 1_555
As2 Cu6 2.516296 1_556
As2 Cu10 2.548956 1_555
As2 Yb1 2.900463 1_556
As2 Yb1 2.900463 1_555
As2 Yb6 3.063926 1_556
As2 Yb6 3.063926 1_555
As3 Cu0 2.482833 1_555
As3 Cu4 2.515551 1_555
As3 Cu12 2.516296 1_555
As3 Cu12 2.516296 1_556
As3 Cu10 2.548956 1_555
As3 Yb1 2.900463 1_556
As3 Yb1 2.900463 1_555
As3 Yb7 3.063926 1_555
As3 Yb7 3.063926 1_556
As4 Cu5 2.482833 1_555
As4 Cu0 2.515551 1_555
As4 Cu13 2.516296 1_555
As4 Cu13 2.516296 1_556
As4 Cu11 2.548956 1_555
As4 Yb0 2.900463 1_556
As4 Yb0 2.900463 1_555
As4 Yb7 3.063916 1_556
As4 Yb7 3.063916 1_555
As5 Cu4 2.482833 1_555
As5 Cu5 2.515551 1_555
As5 Cu14 2.516296 1_556
As5 Cu14 2.516296 1_555
As5 Cu9 2.548956 1_565
As5 Yb2 2.900463 1_566
As5 Yb2 2.900463 1_565
As5 Yb7 3.063923 1_555
As5 Yb7 3.063923 1_556
As6 Cu3 2.482833 1_555
As6 Cu2 2.515551 1_555
As6 Cu15 2.516296 1_555
As6 Cu15 2.516296 1_556
As6 Cu11 2.548956 1_655
As6 Yb0 2.900463 1_655
As6 Yb0 2.900463 1_656
As6 Yb6 3.063923 1_556
As6 Yb6 3.063923 1_555
As7 Cu2 2.482833 1_555
As7 Cu1 2.515551 1_555
As7 Cu7 2.516296 1_555
As7 Cu7 2.516296 1_556
As7 Cu9 2.548956 1_555
As7 Yb2 2.900463 1_556
As7 Yb2 2.900463 1_555
As7 Yb6 3.063916 1_555
As7 Yb6 3.063916 1_556
As8 Cu8 2.341999 1_655
As8 Cu9 2.415496 1_555
As8 Cu9 2.415496 1_554
As8 Cu7 2.537813 1_555
As8 Cu14 2.537813 1_545
As8 Yb4 3.169408 1_544
As8 Yb4 3.169408 1_545
As8 Yb3 3.169408 1_655
As8 Yb3 3.169408 1_654
As9 Cu8 2.341999 1_555
As9 Cu10 2.415496 1_554
As9 Cu10 2.415496 1_555
As9 Cu12 2.537813 1_555
As9 Cu6 2.537813 1_555
As9 Yb5 3.169408 1_554
As9 Yb5 3.169408 1_555
As9 Yb3 3.169408 1_555
As9 Yb3 3.169408 1_554
As10 Cu8 2.341999 1_565
As10 Cu11 2.415496 1_554
As10 Cu11 2.415496 1_555
As10 Cu13 2.537813 1_555
As10 Cu15 2.537813 1_455
As10 Yb4 3.169408 1_455
As10 Yb4 3.169408 1_454
As10 Yb5 3.169408 1_564
As10 Yb5 3.169408 1_565
As11 Cu6 2.404394 1_555
As11 Cu13 2.404394 1_545
As11 Cu5 2.590750 1_545
As11 Cu5 2.590750 1_544
As11 Cu1 2.590751 1_554
As11 Cu1 2.590751 1_555
As11 Yb2 2.813151 1_555
As11 Yb5 3.020559 1_555
As11 Yb5 3.020559 1_554
