# generated using pymatgen
data_Cs(Nb2Cl5)3
_symmetry_space_group_name_H-M   'P 1'
_cell_length_a   9.66978178
_cell_length_b   13.76144444
_cell_length_c   18.26169260
_cell_angle_alpha   90.00000000
_cell_angle_beta   90.00000000
_cell_angle_gamma   90.00000000
_symmetry_Int_Tables_number   1
_chemical_formula_structural   Cs(Nb2Cl5)3
_chemical_formula_sum   'Cs4 Nb24 Cl60'
_cell_volume   2430.08644221
_cell_formula_units_Z   4
loop_
 _symmetry_equiv_pos_site_id
 _symmetry_equiv_pos_as_xyz
  1  'x, y, z'
loop_
 _atom_site_type_symbol
 _atom_site_label
 _atom_site_symmetry_multiplicity
 _atom_site_fract_x
 _atom_site_fract_y
 _atom_site_fract_z
 _atom_site_occupancy
  Cs  Cs0  1  0.80144807  0.25345933  0.75000000  1
  Cs  Cs1  1  0.19855193  0.74654067  0.25000000  1
  Cs  Cs2  1  0.80144807  0.74654067  0.75000000  1
  Cs  Cs3  1  0.19855193  0.25345933  0.25000000  1
  Nb  Nb0  1  0.08088627  0.50000000  0.10389425  1
  Nb  Nb1  1  0.91911373  0.50000000  0.89610575  1
  Nb  Nb2  1  0.08088627  0.50000000  0.39610575  1
  Nb  Nb3  1  0.91911373  0.50000000  0.60389425  1
  Nb  Nb4  1  0.14095171  0.39276555  0.53059047  1
  Nb  Nb5  1  0.85904829  0.60723445  0.46940953  1
  Nb  Nb6  1  0.14095171  0.60723445  0.96940953  1
  Nb  Nb7  1  0.85904829  0.39276555  0.46940953  1
  Nb  Nb8  1  0.85904829  0.39276555  0.03059047  1
  Nb  Nb9  1  0.14095171  0.60723445  0.53059047  1
  Nb  Nb10  1  0.85904829  0.60723445  0.03059047  1
  Nb  Nb11  1  0.14095171  0.39276555  0.96940953  1
  Nb  Nb12  1  0.31354518  0.10736550  0.66918734  1
  Nb  Nb13  1  0.68645482  0.89263450  0.33081266  1
  Nb  Nb14  1  0.31354518  0.89263450  0.83081266  1
  Nb  Nb15  1  0.68645482  0.10736550  0.33081266  1
  Nb  Nb16  1  0.68645482  0.10736550  0.16918734  1
  Nb  Nb17  1  0.31354518  0.89263450  0.66918734  1
  Nb  Nb18  1  0.68645482  0.89263450  0.16918734  1
  Nb  Nb19  1  0.31354518  0.10736550  0.83081266  1
  Nb  Nb20  1  0.52587253  -0.00000000  0.75000000  1
  Nb  Nb21  1  0.47412747  -0.00000000  0.25000000  1
  Nb  Nb22  1  0.10246733  -0.00000000  0.75000000  1
  Nb  Nb23  1  0.89753267  -0.00000000  0.25000000  1
  Cl  Cl0  1  0.31756180  0.24996109  0.56810259  1
  Cl  Cl1  1  0.68243820  0.75003891  0.43189741  1
  Cl  Cl2  1  0.31756180  0.75003891  0.93189741  1
  Cl  Cl3  1  0.68243820  0.24996109  0.43189741  1
  Cl  Cl4  1  0.68243820  0.24996109  0.06810259  1
  Cl  Cl5  1  0.31756180  0.75003891  0.56810259  1
  Cl  Cl6  1  0.68243820  0.75003891  0.06810259  1
  Cl  Cl7  1  0.31756180  0.24996109  0.93189741  1
  Cl  Cl8  1  0.07106746  0.37698662  0.65939714  1
  Cl  Cl9  1  0.92893254  0.62301338  0.34060286  1
  Cl  Cl10  1  0.07106746  0.62301338  0.84060286  1
  Cl  Cl11  1  0.92893254  0.37698662  0.34060286  1
  Cl  Cl12  1  0.92893254  0.37698662  0.15939714  1
  Cl  Cl13  1  0.07106746  0.62301338  0.65939714  1
  Cl  Cl14  1  0.92893254  0.62301338  0.15939714  1
  Cl  Cl15  1  0.07106746  0.37698662  0.84060286  1
  Cl  Cl16  1  0.56653307  0.12216044  0.65210894  1
  Cl  Cl17  1  0.43346693  0.87783956  0.34789106  1
  Cl  Cl18  1  0.56653307  0.87783956  0.84789106  1
  Cl  Cl19  1  0.43346693  0.12216044  0.34789106  1
  Cl  Cl20  1  0.43346693  0.12216044  0.15210894  1
  Cl  Cl21  1  0.56653307  0.87783956  0.65210894  1
  Cl  Cl22  1  0.43346693  0.87783956  0.15210894  1
  Cl  Cl23  1  0.56653307  0.12216044  0.84789106  1
  Cl  Cl24  1  0.33089084  0.50000000  0.57170661  1
  Cl  Cl25  1  0.66910916  0.50000000  0.42829339  1
  Cl  Cl26  1  0.33089084  0.50000000  0.92829339  1
  Cl  Cl27  1  0.66910916  0.50000000  0.07170661  1
  Cl  Cl28  1  0.32274517  0.25061067  0.75000000  1
  Cl  Cl29  1  0.67725483  0.74938933  0.25000000  1
  Cl  Cl30  1  0.32274517  0.74938933  0.75000000  1
  Cl  Cl31  1  0.67725483  0.25061067  0.25000000  1
  Cl  Cl32  1  0.31206668  -0.00000000  0.56073210  1
  Cl  Cl33  1  0.68793332  -0.00000000  0.43926790  1
  Cl  Cl34  1  0.31206668  -0.00000000  0.93926790  1
  Cl  Cl35  1  0.68793332  -0.00000000  0.06073210  1
  Cl  Cl36  1  0.81671170  0.50000000  0.75000000  1
  Cl  Cl37  1  0.18328830  0.50000000  0.25000000  1
  Cl  Cl38  1  0.81315893  -0.00000000  0.75000000  1
  Cl  Cl39  1  0.18684107  -0.00000000  0.25000000  1
  Cl  Cl40  1  0.26545666  0.37608646  0.08788498  1
  Cl  Cl41  1  0.73454334  0.62391354  0.91211502  1
  Cl  Cl42  1  0.26545666  0.62391354  0.41211502  1
  Cl  Cl43  1  0.73454334  0.37608646  0.91211502  1
  Cl  Cl44  1  0.73454334  0.37608646  0.58788498  1
  Cl  Cl45  1  0.26545666  0.62391354  0.08788498  1
  Cl  Cl46  1  0.73454334  0.62391354  0.58788498  1
  Cl  Cl47  1  0.26545666  0.37608646  0.41211502  1
  Cl  Cl48  1  0.06044909  0.12330549  0.65475750  1
  Cl  Cl49  1  0.93955091  0.87669451  0.34524250  1
  Cl  Cl50  1  0.06044909  0.87669451  0.84524250  1
  Cl  Cl51  1  0.93955091  0.12330549  0.34524250  1
  Cl  Cl52  1  0.93955091  0.12330549  0.15475750  1
  Cl  Cl53  1  0.06044909  0.87669451  0.65475750  1
  Cl  Cl54  1  0.93955091  0.87669451  0.15475750  1
  Cl  Cl55  1  0.06044909  0.12330549  0.84524250  1
  Cl  Cl56  1  0.00000000  0.24968961  0.50000000  1
  Cl  Cl57  1  0.00000000  0.75031039  0.50000000  1
  Cl  Cl58  1  0.00000000  0.75031039  -0.00000000  1
  Cl  Cl59  1  0.00000000  0.24968961  -0.00000000  1
loop_
_geom_bond_atom_site_label_1
_geom_bond_atom_site_label_2
_geom_bond_distance
_geom_bond_site_symmetry_2
Cl0 Nb4 2.692171 1_555
Cl0 Nb12 2.694411 1_555
Cl1 Nb5 2.692171 1_555
Cl1 Nb13 2.694411 1_555
Cl2 Nb6 2.692171 1_555
Cl2 Nb14 2.694411 1_555
Cl3 Nb7 2.692171 1_555
Cl3 Nb15 2.694411 1_555
Cl4 Nb8 2.692171 1_555
Cl4 Nb16 2.694411 1_555
Cl5 Nb9 2.692171 1_555
Cl5 Nb17 2.694411 1_555
Cl6 Nb10 2.692171 1_555
Cl6 Nb18 2.694411 1_555
Cl7 Nb11 2.692171 1_555
Cl7 Nb19 2.694411 1_555
Cl8 Nb4 2.456987 1_555
Cl8 Nb3 2.460095 1_455
Cl8 Cs0 3.524850 1_455
Cl9 Nb5 2.456987 1_555
Cl9 Nb2 2.460095 1_655
Cl9 Cs1 3.524850 1_655
Cl10 Nb6 2.456987 1_555
Cl10 Nb1 2.460095 1_455
Cl10 Cs2 3.524850 1_455
Cl11 Nb7 2.456987 1_555
Cl11 Nb2 2.460095 1_655
Cl11 Cs3 3.524850 1_655
Cl12 Nb8 2.456987 1_555
Cl12 Nb0 2.460095 1_655
Cl12 Cs3 3.524850 1_655
Cl13 Nb9 2.456987 1_555
Cl13 Nb3 2.460095 1_455
Cl13 Cs2 3.524850 1_455
Cl14 Nb10 2.456987 1_555
Cl14 Nb0 2.460095 1_655
Cl14 Cs1 3.524850 1_655
Cl15 Nb11 2.456987 1_555
Cl15 Nb1 2.460095 1_455
Cl15 Cs0 3.524850 1_455
Cl16 Nb12 2.474528 1_555
Cl16 Nb20 2.485240 1_555
Cl16 Cs0 3.408890 1_555
Cl17 Nb13 2.474528 1_555
Cl17 Nb21 2.485240 1_565
Cl17 Cs1 3.408890 1_555
Cl18 Nb14 2.474528 1_555
Cl18 Nb20 2.485240 1_565
Cl18 Cs2 3.408890 1_555
Cl19 Nb15 2.474528 1_555
Cl19 Nb21 2.485240 1_555
Cl19 Cs3 3.408890 1_555
Cl20 Nb16 2.474528 1_555
Cl20 Nb21 2.485240 1_555
Cl20 Cs3 3.408890 1_555
Cl21 Nb17 2.474528 1_555
Cl21 Nb20 2.485240 1_565
Cl21 Cs2 3.408890 1_555
Cl22 Nb18 2.474528 1_555
Cl22 Nb21 2.485240 1_565
Cl22 Cs1 3.408890 1_555
Cl23 Nb19 2.474528 1_555
Cl23 Nb20 2.485240 1_555
Cl23 Cs0 3.408890 1_555
Cl24 Nb9 2.472817 1_555
Cl24 Nb4 2.472817 1_555
Cl25 Nb5 2.472817 1_555
Cl25 Nb7 2.472817 1_555
Cl26 Nb11 2.472817 1_555
Cl26 Nb6 2.472817 1_555
Cl27 Nb10 2.472817 1_555
Cl27 Nb8 2.472817 1_555
Cl28 Nb12 2.464081 1_555
Cl28 Nb19 2.464081 1_555
Cl29 Nb13 2.464081 1_555
Cl29 Nb18 2.464081 1_555
Cl30 Nb17 2.464081 1_555
Cl30 Nb14 2.464081 1_555
Cl31 Nb15 2.464081 1_555
Cl31 Nb16 2.464081 1_555
Cl32 Nb12 2.471013 1_555
Cl32 Nb17 2.471013 1_545
Cl33 Nb15 2.471013 1_555
Cl33 Nb13 2.471013 1_545
Cl34 Nb19 2.471013 1_555
Cl34 Nb14 2.471013 1_545
Cl35 Nb16 2.471013 1_555
Cl35 Nb18 2.471013 1_545
Cl36 Nb1 2.845957 1_555
Cl36 Nb3 2.845957 1_555
Cl36 Cs2 3.395965 1_555
Cl36 Cs0 3.395965 1_555
Cl37 Nb0 2.845957 1_555
Cl37 Nb2 2.845957 1_555
Cl37 Cs1 3.395965 1_555
Cl37 Cs3 3.395965 1_555
Cl38 Nb20 2.777997 1_555
Cl38 Nb22 2.797549 1_655
Cl38 Cs0 3.489804 1_555
Cl38 Cs2 3.489804 1_545
Cl39 Nb21 2.777997 1_555
Cl39 Nb23 2.797549 1_455
Cl39 Cs3 3.489804 1_555
Cl39 Cs1 3.489804 1_545
Cl40 Nb0 2.485685 1_555
Cl40 Nb11 2.486593 1_554
Cl40 Cs3 3.468548 1_555
Cl41 Nb1 2.485685 1_555
Cl41 Nb10 2.486593 1_556
Cl41 Cs2 3.468548 1_555
Cl42 Nb2 2.485685 1_555
Cl42 Nb9 2.486593 1_555
Cl42 Cs1 3.468548 1_555
Cl43 Nb1 2.485685 1_555
Cl43 Nb8 2.486593 1_556
Cl43 Cs0 3.468548 1_555
Cl44 Nb3 2.485685 1_555
Cl44 Nb7 2.486593 1_555
Cl44 Cs0 3.468548 1_555
Cl45 Nb0 2.485685 1_555
Cl45 Nb6 2.486593 1_554
Cl45 Cs1 3.468548 1_555
Cl46 Nb3 2.485685 1_555
Cl46 Nb5 2.486593 1_555
Cl46 Cs2 3.468548 1_555
Cl47 Nb2 2.485685 1_555
Cl47 Nb4 2.486593 1_555
Cl47 Cs3 3.468548 1_555
Cl48 Nb22 2.463646 1_555
Cl48 Nb12 2.471284 1_555
Cl48 Cs0 3.536329 1_455
Cl49 Nb23 2.463646 1_565
Cl49 Nb13 2.471284 1_555
Cl49 Cs1 3.536329 1_655
Cl50 Nb22 2.463646 1_565
Cl50 Nb14 2.471284 1_555
Cl50 Cs2 3.536329 1_455
Cl51 Nb23 2.463646 1_555
Cl51 Nb15 2.471284 1_555
Cl51 Cs3 3.536329 1_655
Cl52 Nb23 2.463646 1_555
Cl52 Nb16 2.471284 1_555
Cl52 Cs3 3.536329 1_655
Cl53 Nb22 2.463646 1_565
Cl53 Nb17 2.471284 1_555
Cl53 Cs2 3.536329 1_455
Cl54 Nb23 2.463646 1_565
Cl54 Nb18 2.471284 1_555
Cl54 Cs1 3.536329 1_655
Cl55 Nb22 2.463646 1_555
Cl55 Nb19 2.471284 1_555
Cl55 Cs0 3.536329 1_455
Cl56 Nb7 2.458954 1_455
Cl56 Nb4 2.458954 1_555
Cl57 Nb5 2.458954 1_455
Cl57 Nb9 2.458954 1_555
Cl58 Nb6 2.458954 1_554
Cl58 Nb10 2.458954 1_455
Cl59 Nb8 2.458954 1_455
Cl59 Nb11 2.458954 1_554
