# generated using pymatgen
data_LiTiV2CrO10
_symmetry_space_group_name_H-M   'P 1'
_cell_length_a   6.60254808
_cell_length_b   6.60126951
_cell_length_c   4.87749507
_cell_angle_alpha   92.09043491
_cell_angle_beta   87.68689051
_cell_angle_gamma   89.23948827
_symmetry_Int_Tables_number   1
_chemical_formula_structural   LiTiV2CrO10
_chemical_formula_sum   'Li1 Ti1 V2 Cr1 O10'
_cell_volume   212.24886867
_cell_formula_units_Z   1
loop_
 _symmetry_equiv_pos_site_id
 _symmetry_equiv_pos_as_xyz
  1  'x, y, z'
loop_
 _atom_site_type_symbol
 _atom_site_label
 _atom_site_symmetry_multiplicity
 _atom_site_fract_x
 _atom_site_fract_y
 _atom_site_fract_z
 _atom_site_occupancy
  Li  Li0  1  0.50451900  0.99070100  0.98900100  1
  Ti  Ti0  1  0.75184900  0.24647300  0.49427300  1
  V  V0  1  0.25911800  0.24163000  0.60069100  1
  V  V1  1  0.74637400  0.75504300  0.39135200  1
  Cr  Cr0  1  0.25219600  0.74702100  0.49646300  1
  O  O0  1  0.03172500  0.75564200  0.32054300  1
  O  O1  1  0.28831300  0.21256500  0.26785000  1
  O  O2  1  0.26100400  0.52670100  0.67420300  1
  O  O3  1  0.26590200  0.95474600  0.72074800  1
  O  O4  1  0.45995800  0.76122300  0.27118900  1
  O  O5  1  0.52683200  0.23211300  0.72669500  1
  O  O6  1  0.73846400  0.02069300  0.26183700  1
  O  O7  1  0.74258000  0.48316100  0.31160900  1
  O  O8  1  0.71418400  0.78499300  0.72429000  1
  O  O9  1  0.98698300  0.23729300  0.67981300  1
loop_
_geom_bond_atom_site_label_1
_geom_bond_atom_site_label_2
_geom_bond_distance
_geom_bond_site_symmetry_2
Li0 O5 2.082778 1_565
Li0 O6 2.085863 1_566
Li0 O3 2.098584 1_555
Li0 O4 2.099278 1_556
Li0 O8 2.259482 1_555
Li0 O1 2.382243 1_566
Cr0 O0 1.720654 1_555
Cr0 O2 1.721629 1_555
Cr0 O4 1.728316 1_555
Cr0 O3 1.728319 1_555
O0 V1 1.901760 1_455
O1 V0 1.631113 1_555
O2 V0 1.903092 1_555
O3 V0 2.003035 1_565
O4 V1 2.002623 1_555
O5 Ti0 1.837663 1_555
O5 V0 1.895682 1_555
O6 Ti0 1.844670 1_555
O6 V1 1.886277 1_545
O7 V1 1.823224 1_555
O7 Ti0 1.828159 1_555
O8 V1 1.633684 1_555
O9 V0 1.823290 1_655
O9 Ti0 1.829689 1_555
