# generated using pymatgen
data_SrEuZr2O6
_symmetry_space_group_name_H-M   'P 1'
_cell_length_a   4.23169553
_cell_length_b   5.83086625
_cell_length_c   5.83086625
_cell_angle_alpha   90.18668125
_cell_angle_beta   90.00000000
_cell_angle_gamma   90.00000000
_symmetry_Int_Tables_number   1
_chemical_formula_structural   SrEuZr2O6
_chemical_formula_sum   'Sr1 Eu1 Zr2 O6'
_cell_volume   143.87265788
_cell_formula_units_Z   1
loop_
 _symmetry_equiv_pos_site_id
 _symmetry_equiv_pos_as_xyz
  1  'x, y, z'
loop_
 _atom_site_type_symbol
 _atom_site_label
 _atom_site_symmetry_multiplicity
 _atom_site_fract_x
 _atom_site_fract_y
 _atom_site_fract_z
 _atom_site_occupancy
  Sr  Sr0  1  0.50000000  0.50000000  0.50000000  1
  Eu  Eu0  1  0.50000000  -0.00000000  0.00000000  1
  Zr  Zr0  1  0.00000000  -0.00000000  0.50000000  1
  Zr  Zr1  1  -0.00000000  0.50000000  0.00000000  1
  O  O0  1  0.50000000  -0.00000000  0.50000000  1
  O  O1  1  0.50000000  0.50000000  0.00000000  1
  O  O2  1  0.00000000  0.30989052  0.69010948  1
  O  O3  1  -0.00000000  0.69010948  0.30989052  1
  O  O4  1  -0.00000000  0.81058633  0.81058633  1
  O  O5  1  -0.00000000  0.18941367  0.18941367  1
loop_
_geom_bond_atom_site_label_1
_geom_bond_atom_site_label_2
_geom_bond_distance
_geom_bond_site_symmetry_2
Eu0 O5 2.628396 1_555
Eu0 O4 2.628396 1_644
Eu0 O4 2.628396 1_544
Eu0 O5 2.628396 1_655
Eu0 O1 2.915433 1_555
Eu0 O0 2.915433 1_555
Eu0 O1 2.915433 1_545
Eu0 O0 2.915433 1_554
O0 Zr0 2.115848 1_555
O0 Zr0 2.115848 1_655
O0 Sr0 2.915433 1_555
O0 Sr0 2.915433 1_545
O1 Zr1 2.115848 1_655
O1 Zr1 2.115848 1_555
O1 Sr0 2.915433 1_555
O1 Sr0 2.915433 1_554
O2 Zr1 2.116772 1_556
O2 Zr0 2.116772 1_555
O2 Sr0 2.634839 1_555
O2 Sr0 2.634839 1_455
O3 Zr0 2.116772 1_565
O3 Zr1 2.116772 1_555
O3 Sr0 2.634839 1_555
O3 Sr0 2.634839 1_455
O4 Zr1 2.124267 1_556
O4 Zr0 2.124267 1_565
O5 Zr1 2.124267 1_555
O5 Zr0 2.124267 1_555
