# generated using pymatgen
data_LaMg14Nb
_symmetry_space_group_name_H-M   'P 1'
_cell_length_a   6.54059530
_cell_length_b   6.54059474
_cell_length_c   10.15031860
_cell_angle_alpha   90.00000000
_cell_angle_beta   90.00000000
_cell_angle_gamma   120.00000283
_symmetry_Int_Tables_number   1
_chemical_formula_structural   LaMg14Nb
_chemical_formula_sum   'La1 Mg14 Nb1'
_cell_volume   376.04932396
_cell_formula_units_Z   1
loop_
 _symmetry_equiv_pos_site_id
 _symmetry_equiv_pos_as_xyz
  1  'x, y, z'
loop_
 _atom_site_type_symbol
 _atom_site_label
 _atom_site_symmetry_multiplicity
 _atom_site_fract_x
 _atom_site_fract_y
 _atom_site_fract_z
 _atom_site_occupancy
  La  La0  1  0.16666700  0.33333300  0.12500000  1
  Mg  Mg0  1  0.17596431  0.83798166  0.12500000  1
  Mg  Mg1  1  0.16574312  0.83287106  0.62500000  1
  Mg  Mg2  1  0.66201834  0.32403569  0.12500000  1
  Mg  Mg3  1  0.66712894  0.33425688  0.62500000  1
  Mg  Mg4  1  0.66201834  0.83798166  0.12500000  1
  Mg  Mg5  1  0.66712894  0.83287106  0.62500000  1
  Mg  Mg6  1  0.33268397  0.16731603  0.38799881  1
  Mg  Mg7  1  0.33268397  0.16731603  0.86200119  1
  Mg  Mg8  1  0.33268397  0.66536894  0.38799881  1
  Mg  Mg9  1  0.33268397  0.66536894  0.86200119  1
  Mg  Mg10  1  0.83463106  0.16731603  0.38799881  1
  Mg  Mg11  1  0.83463106  0.16731603  0.86200119  1
  Mg  Mg12  1  0.83333300  0.66666700  0.37011664  1
  Mg  Mg13  1  0.83333300  0.66666700  0.87988336  1
  Nb  Nb0  1  0.16666700  0.33333300  0.62500000  1
loop_
_geom_bond_atom_site_label_1
_geom_bond_atom_site_label_2
_geom_bond_distance
_geom_bond_site_symmetry_2
La0 Mg6 3.265510 1_555
La0 Mg7 3.265510 1_554
La0 Mg9 3.265516 1_554
La0 Mg8 3.265516 1_555
La0 Mg10 3.265517 1_455
La0 Mg11 3.265517 1_454
La0 Mg0 3.270721 1_545
La0 Mg4 3.270721 1_555
La0 Mg4 3.270721 1_445
La0 Mg0 3.270721 1_555
La0 Mg2 3.270722 1_555
La0 Mg2 3.270722 1_455
Mg0 Mg12 3.155441 1_455
Mg0 Mg13 3.155441 1_454
Mg0 Mg2 3.179082 1_565
Mg0 Mg4 3.179083 1_555
Mg0 Mg8 3.257135 1_555
Mg0 Mg9 3.257135 1_554
Mg0 Mg6 3.257142 1_565
Mg0 Mg7 3.257142 1_564
Mg0 Mg2 3.361512 1_455
Mg0 Mg4 3.361513 1_455
Mg1 Mg8 3.061996 1_555
Mg1 Mg9 3.061996 1_555
Mg1 Mg6 3.062003 1_565
Mg1 Mg7 3.062003 1_565
Mg1 Mg13 3.199775 1_455
Mg1 Mg12 3.199775 1_455
Mg1 Mg3 3.261233 1_455
Mg1 Mg5 3.261234 1_455
Mg1 Nb0 3.270302 1_565
Mg1 Nb0 3.270302 1_555
Mg1 Mg3 3.279361 1_565
Mg1 Mg5 3.279362 1_555
Mg2 Mg4 3.179082 1_545
Mg2 Mg7 3.257142 1_554
Mg2 Mg6 3.257142 1_555
Mg2 Mg4 3.361512 1_555
Mg3 Mg6 3.062003 1_555
Mg3 Mg7 3.062003 1_555
Mg3 Mg5 3.261233 1_555
Mg3 Nb0 3.270302 1_655
Mg3 Nb0 3.270302 1_555
Mg3 Mg5 3.279361 1_545
Mg4 Mg8 3.257142 1_555
Mg4 Mg9 3.257142 1_554
Mg5 Mg8 3.062003 1_555
Mg5 Mg9 3.062003 1_555
Mg5 Nb0 3.270302 1_665
Mg5 Nb0 3.270302 1_555
Mg6 Nb0 3.053572 1_555
Mg6 Mg8 3.257562 1_555
Mg6 Mg8 3.283032 1_545
Mg7 Nb0 3.053572 1_555
Mg7 Mg9 3.257562 1_555
Mg7 Mg9 3.283032 1_545
Mg8 Nb0 3.053579 1_555
Mg9 Nb0 3.053579 1_555
Mg10 Nb0 3.053579 1_655
Mg10 Mg3 3.061996 1_555
Mg10 Mg5 3.062003 1_545
Mg10 Mg2 3.257135 1_555
Mg10 Mg4 3.257142 1_545
Mg10 Mg8 3.257562 1_655
Mg10 Mg6 3.257563 1_655
Mg10 Mg12 3.275339 1_545
Mg10 Mg12 3.275339 1_555
Mg10 Mg8 3.283032 1_545
Mg10 Mg6 3.283033 1_555
Mg11 Nb0 3.053579 1_655
Mg11 Mg3 3.061996 1_555
Mg11 Mg5 3.062003 1_545
Mg11 Mg2 3.257135 1_556
Mg11 Mg4 3.257142 1_546
Mg11 Mg9 3.257562 1_655
Mg11 Mg7 3.257563 1_655
Mg11 Mg13 3.275339 1_545
Mg11 Mg13 3.275339 1_555
Mg11 Mg9 3.283032 1_545
Mg11 Mg7 3.283033 1_555
Mg12 Mg4 3.155434 1_555
Mg12 Mg2 3.155441 1_555
Mg12 Mg5 3.199768 1_555
Mg12 Mg3 3.199775 1_555
Mg12 Mg6 3.275339 1_665
Mg12 Mg6 3.275339 1_555
Mg12 Mg8 3.275339 1_555
Mg12 Mg8 3.275339 1_655
Mg13 Mg4 3.155434 1_556
Mg13 Mg2 3.155441 1_556
Mg13 Mg5 3.199768 1_555
Mg13 Mg3 3.199775 1_555
Mg13 Mg7 3.275339 1_665
Mg13 Mg7 3.275339 1_555
Mg13 Mg9 3.275339 1_555
Mg13 Mg9 3.275339 1_655
