# generated using pymatgen
data_Cs(TeMo)3
_symmetry_space_group_name_H-M   'P 1'
_cell_length_a   4.63090000
_cell_length_b   10.75200957
_cell_length_c   10.75437470
_cell_angle_alpha   120.05208824
_cell_angle_beta   90.00000000
_cell_angle_gamma   90.00000000
_symmetry_Int_Tables_number   1
_chemical_formula_structural   Cs(TeMo)3
_chemical_formula_sum   'Cs2 Te6 Mo6'
_cell_volume   463.49243557
_cell_formula_units_Z   2
loop_
 _symmetry_equiv_pos_site_id
 _symmetry_equiv_pos_as_xyz
  1  'x, y, z'
loop_
 _atom_site_type_symbol
 _atom_site_label
 _atom_site_symmetry_multiplicity
 _atom_site_fract_x
 _atom_site_fract_y
 _atom_site_fract_z
 _atom_site_occupancy
  Cs  Cs0  1  0.75000000  0.66692500  0.33362600  1
  Cs  Cs1  1  0.25000000  0.33307500  0.66637400  1
  Te  Te0  1  0.75000000  0.69299300  0.69770000  1
  Te  Te1  1  0.75000000  0.30199900  0.99559600  1
  Te  Te2  1  0.75000000  0.00485300  0.30663300  1
  Te  Te3  1  0.25000000  0.30700700  0.30230000  1
  Te  Te4  1  0.25000000  0.69800100  0.00440400  1
  Te  Te5  1  0.25000000  0.99514700  0.69336700  1
  Mo  Mo0  1  0.75000000  0.99838000  0.85581000  1
  Mo  Mo1  1  0.75000000  0.14437000  0.14279300  1
  Mo  Mo2  1  0.75000000  0.85733900  0.00142200  1
  Mo  Mo3  1  0.25000000  0.00162000  0.14419000  1
  Mo  Mo4  1  0.25000000  0.85563000  0.85720700  1
  Mo  Mo5  1  0.25000000  0.14266100  0.99857800  1
loop_
_geom_bond_atom_site_label_1
_geom_bond_atom_site_label_2
_geom_bond_distance
_geom_bond_site_symmetry_2
Cs0 Te0 3.782813 1_555
Cs0 Te1 3.784772 1_554
Cs0 Te2 3.787125 1_565
Cs0 Te5 4.371313 1_555
Cs0 Te5 4.371313 1_655
Cs0 Te3 4.375467 1_555
Cs0 Te3 4.375467 1_655
Cs0 Te4 4.381040 1_555
Cs0 Te4 4.381040 1_655
Cs1 Te3 3.782813 1_555
Cs1 Te4 3.784772 1_556
Cs1 Te5 3.787125 1_545
Cs1 Te2 4.371313 1_455
Cs1 Te2 4.371313 1_555
Cs1 Te0 4.375467 1_555
Cs1 Te0 4.375467 1_455
Cs1 Te1 4.381040 1_555
Cs1 Te1 4.381040 1_455
Mo0 Mo2 2.670286 1_556
Mo0 Mo1 2.671539 1_566
Mo0 Mo5 2.782025 1_565
Mo0 Mo5 2.782025 1_665
Mo0 Mo4 2.782156 1_655
Mo0 Mo4 2.782156 1_555
Mo0 Te1 2.828726 1_565
Mo0 Te0 2.842674 1_555
Mo0 Te5 2.890261 1_655
Mo0 Te5 2.890261 1_555
Mo1 Mo2 2.671407 1_545
Mo1 Mo5 2.781820 1_654
Mo1 Mo5 2.781820 1_554
Mo1 Mo3 2.782156 1_555
Mo1 Mo3 2.782156 1_655
Mo1 Te2 2.828817 1_555
Mo1 Te1 2.839987 1_554
Mo1 Te3 2.890911 1_655
Mo1 Te3 2.890911 1_555
Mo2 Mo4 2.781820 1_554
Mo2 Mo4 2.781820 1_654
Mo2 Mo3 2.782025 1_665
Mo2 Mo3 2.782025 1_565
Mo2 Te0 2.830295 1_554
Mo2 Te2 2.841694 1_565
Mo2 Te4 2.890057 1_655
Mo2 Te4 2.890057 1_555
Mo3 Mo5 2.670286 1_554
Mo3 Mo4 2.671539 1_544
Mo3 Te4 2.828726 1_545
Mo3 Te3 2.842674 1_555
Mo3 Te2 2.890261 1_455
Mo3 Te2 2.890261 1_555
Mo4 Mo5 2.671407 1_565
Mo4 Te5 2.828817 1_555
Mo4 Te4 2.839987 1_556
Mo4 Te0 2.890911 1_455
Mo4 Te0 2.890911 1_555
Mo5 Te3 2.830295 1_556
Mo5 Te5 2.841694 1_545
Mo5 Te1 2.890057 1_555
Mo5 Te1 2.890057 1_455
