# generated using pymatgen
data_Li9Mn2Co5O16
_symmetry_space_group_name_H-M   'P 1'
_cell_length_a   2.87336406
_cell_length_b   39.43417238
_cell_length_c   2.98804738
_cell_angle_alpha   87.58546467
_cell_angle_beta   118.73829545
_cell_angle_gamma   87.91211466
_symmetry_Int_Tables_number   1
_chemical_formula_structural   Li9Mn2Co5O16
_chemical_formula_sum   'Li9 Mn2 Co5 O16'
_cell_volume   295.98306623
_cell_formula_units_Z   1
loop_
 _symmetry_equiv_pos_site_id
 _symmetry_equiv_pos_as_xyz
  1  'x, y, z'
loop_
 _atom_site_type_symbol
 _atom_site_label
 _atom_site_symmetry_multiplicity
 _atom_site_fract_x
 _atom_site_fract_y
 _atom_site_fract_z
 _atom_site_occupancy
  Li  Li0  1  0.25029911  0.06251571  0.56311393  1
  Li  Li1  1  0.74395169  0.18931361  0.67721699  1
  Li  Li2  1  0.25122524  0.31228545  0.81473594  1
  Li  Li3  1  0.73984083  0.43883766  0.91851932  1
  Li  Li4  1  0.25869078  0.56189913  0.07928069  1
  Li  Li5  1  0.75053857  0.68748447  0.18856162  1
  Li  Li6  1  0.25190192  0.81138073  0.31518456  1
  Li  Li7  1  0.75492302  0.93620673  0.44605277  1
  Li  Li8  1  0.00082502  0.49977151  0.50142154  1
  Mn  Mn0  1  0.00182593  0.99937513  0.00302700  1
  Mn  Mn1  1  0.49821921  0.12539664  0.12183505  1
  Co  Co0  1  0.99930745  0.25068247  0.24929738  1
  Co  Co1  1  0.49875048  0.37406198  0.37156294  1
  Co  Co2  1  0.49898510  0.62614088  0.62411108  1
  Co  Co3  1  0.00048764  0.75023442  0.75120970  1
  Co  Co4  1  0.50025339  0.87425949  0.87476626  1
  O  O0  1  0.60201260  0.02878633  0.23281153  1
  O  O1  1  0.10075394  0.15433614  0.35584402  1
  O  O2  1  0.63295126  0.27933416  0.54523668  1
  O  O3  1  0.11960602  0.39987673  0.63908876  1
  O  O4  1  0.62379194  0.53228017  0.77986405  1
  O  O5  1  0.12651766  0.65496284  0.90799816  1
  O  O6  1  0.60758336  0.77814952  0.99331623  1
  O  O7  1  0.13257397  0.90251744  0.16766539  1
  O  O8  1  0.89787463  0.09580205  0.89155130  1
  O  O9  1  0.36572684  0.22187109  0.95332477  1
  O  O10  1  0.88493288  0.34671352  0.11657929  1
  O  O11  1  0.37699772  0.46697019  0.22096564  1
  O  O12  1  0.86980291  0.59906954  0.33867537  1
  O  O13  1  0.38969752  0.72303876  0.50243380  1
  O  O14  1  0.86723815  0.84635818  0.58083447  1
  O  O15  1  0.40191322  0.97008732  0.77391376  1
loop_
_geom_bond_atom_site_label_1
_geom_bond_atom_site_label_2
_geom_bond_distance
_geom_bond_site_symmetry_2
Li0 O8 2.121857 1_454
Li0 O0 2.127890 1_556
Li0 O8 2.163071 1_455
Li0 O8 2.163071 1_555
Li0 O0 2.176315 1_455
Li0 O0 2.176315 1_555
Li1 O9 2.088031 1_655
Li1 O9 2.088031 1_555
Li1 O1 2.174303 1_656
Li1 O1 2.197949 1_555
Li1 O1 2.197949 1_655
Li1 O9 2.216289 1_554
Li2 O2 2.091329 1_455
Li2 O2 2.091329 1_555
Li2 O10 2.162471 1_556
Li2 O10 2.162471 1_456
Li2 O10 2.201985 1_455
Li2 O2 2.238506 1_556
Li3 O11 2.010140 1_656
Li3 O11 2.010140 1_556
Li3 O11 2.072035 1_555
Li3 O3 2.260627 1_555
Li3 O3 2.260627 1_655
Li3 O3 2.350930 1_656
Li4 O4 2.041205 1_454
Li4 O4 2.041205 1_554
Li4 O4 2.107103 1_555
Li4 O12 2.192517 1_555
Li4 O12 2.192517 1_455
Li4 O12 2.350277 1_454
Li5 O5 2.091692 1_554
Li5 O5 2.091692 1_654
Li5 O13 2.202679 1_554
Li5 O13 2.204612 1_555
Li5 O13 2.204612 1_655
Li5 O5 2.206031 1_655
Li6 O6 2.134220 1_555
Li6 O14 2.139870 1_555
Li6 O14 2.139870 1_455
Li6 O6 2.154190 1_454
Li6 O6 2.154190 1_554
Li6 O14 2.289250 1_454
Li7 O7 2.119072 1_655
Li7 O7 2.119072 1_555
Li7 O15 2.136280 1_554
Li7 O15 2.177323 1_655
Li7 O15 2.177323 1_555
Li7 O7 2.235022 1_656
Li8 O4 2.089188 1_555
Li8 O4 2.089188 1_455
Li8 O11 2.098616 1_555
Li8 O11 2.098616 1_455
Li8 O4 2.210295 1_454
Li8 O11 2.212042 1_556
Mn0 O15 1.962352 1_454
Mn0 O15 1.962352 1_554
Mn0 O0 1.965925 1_465
Mn0 O0 1.965925 1_565
Mn0 O15 2.256994 1_555
Mn0 O0 2.257678 1_464
Mn1 O1 1.958510 1_655
Mn1 O1 1.958510 1_555
Mn1 O8 1.970798 1_454
Mn1 O8 1.970798 1_554
Mn1 O1 2.239787 1_554
Mn1 O8 2.259837 1_555
Co0 O2 2.014771 1_555
Co0 O2 2.014771 1_655
Co0 O9 2.018506 1_554
Co0 O9 2.018506 1_654
Co0 O2 2.096189 1_554
Co0 O9 2.099135 1_655
Co1 O3 1.920242 1_555
Co1 O3 1.920242 1_655
Co1 O10 1.941627 1_555
Co1 O10 1.941627 1_455
Co1 O3 2.109974 1_554
Co1 O10 2.164534 1_556
Co2 O12 1.967246 1_555
Co2 O12 1.967246 1_455
Co2 O5 2.005581 1_655
Co2 O5 2.005581 1_555
Co2 O12 2.090735 1_556
Co2 O5 2.126059 1_554
Co3 O13 1.931990 1_455
Co3 O13 1.931990 1_555
Co3 O6 1.942057 1_455
Co3 O6 1.942057 1_555
Co3 O13 2.176063 1_556
Co3 O6 2.203565 1_454
Co4 O14 1.995335 1_455
Co4 O14 1.995335 1_555
Co4 O7 2.002341 1_656
Co4 O7 2.002341 1_556
Co4 O14 2.086666 1_556
Co4 O7 2.095554 1_555
