# generated using pymatgen
data_Mo2RuSe4
_symmetry_space_group_name_H-M   'P 1'
_cell_length_a   6.70603149
_cell_length_b   6.71275328
_cell_length_c   6.81136962
_cell_angle_alpha   91.98305333
_cell_angle_beta   94.46445730
_cell_angle_gamma   93.88165437
_symmetry_Int_Tables_number   1
_chemical_formula_structural   Mo2RuSe4
_chemical_formula_sum   'Mo4 Ru2 Se8'
_cell_volume   304.74342940
_cell_formula_units_Z   2
loop_
 _symmetry_equiv_pos_site_id
 _symmetry_equiv_pos_as_xyz
  1  'x, y, z'
loop_
 _atom_site_type_symbol
 _atom_site_label
 _atom_site_symmetry_multiplicity
 _atom_site_fract_x
 _atom_site_fract_y
 _atom_site_fract_z
 _atom_site_occupancy
  Mo  Mo0  1  0.23629426  0.54177143  0.40900832  1
  Mo  Mo1  1  0.41565400  0.23728813  0.55236109  1
  Mo  Mo2  1  0.76370574  0.45822857  0.59099168  1
  Mo  Mo3  1  0.58434600  0.76271187  0.44763891  1
  Ru  Ru0  1  0.55037257  0.41084561  0.23748572  1
  Ru  Ru1  1  0.44962743  0.58915439  0.76251428  1
  Se  Se0  1  0.22286862  0.21382376  0.21663942  1
  Se  Se1  1  0.77713138  0.78617624  0.78336058  1
  Se  Se2  1  0.37724725  0.71581181  0.11698676  1
  Se  Se3  1  0.13034707  0.37319610  0.72886247  1
  Se  Se4  1  0.73099855  0.13093020  0.38140307  1
  Se  Se5  1  0.62275275  0.28418819  0.88301324  1
  Se  Se6  1  0.86965293  0.62680390  0.27113753  1
  Se  Se7  1  0.26900145  0.86906980  0.61859693  1
loop_
_geom_bond_atom_site_label_1
_geom_bond_atom_site_label_2
_geom_bond_distance
_geom_bond_site_symmetry_2
Mo0 Se0 2.515244 1_555
Mo0 Se2 2.553188 1_555
Mo0 Se7 2.565575 1_555
Mo0 Se3 2.614299 1_555
Mo0 Se6 2.668445 1_455
Mo0 Ru0 2.671359 1_555
Mo0 Ru1 2.700877 1_555
Mo1 Se0 2.532305 1_555
Mo1 Se3 2.541021 1_555
Mo1 Se5 2.550504 1_555
Mo1 Se4 2.620675 1_555
Mo1 Se7 2.664105 1_545
Mo1 Ru0 2.665609 1_555
Mo1 Ru1 2.705971 1_555
Mo2 Se1 2.515244 1_555
Mo2 Se5 2.553188 1_555
Mo2 Se4 2.565575 1_555
Mo2 Se6 2.614299 1_555
Mo2 Se3 2.668445 1_655
Mo2 Ru1 2.671359 1_555
Mo2 Ru0 2.700877 1_555
Mo3 Se1 2.532305 1_555
Mo3 Se6 2.541021 1_555
Mo3 Se2 2.550504 1_555
Mo3 Se7 2.620675 1_555
Mo3 Se4 2.664105 1_565
Mo3 Ru1 2.665609 1_555
Mo3 Ru0 2.705971 1_555
Ru0 Se0 2.477505 1_555
Ru0 Se4 2.491901 1_555
Ru0 Se6 2.493748 1_555
Ru0 Se2 2.549929 1_555
Ru0 Se5 2.623787 1_554
Ru1 Se1 2.477505 1_555
Ru1 Se7 2.491901 1_555
Ru1 Se3 2.493748 1_555
Ru1 Se5 2.549929 1_555
Ru1 Se2 2.623787 1_556
