# generated using pymatgen
data_Ca2GaClO8
_symmetry_space_group_name_H-M   'P 1'
_cell_length_a   6.20858487
_cell_length_b   6.20858487
_cell_length_c   7.22005745
_cell_angle_alpha   64.53536145
_cell_angle_beta   64.53536145
_cell_angle_gamma   59.99999070
_symmetry_Int_Tables_number   1
_chemical_formula_structural   Ca2GaClO8
_chemical_formula_sum   'Ca2 Ga1 Cl1 O8'
_cell_volume   209.22025635
_cell_formula_units_Z   1
loop_
 _symmetry_equiv_pos_site_id
 _symmetry_equiv_pos_as_xyz
  1  'x, y, z'
loop_
 _atom_site_type_symbol
 _atom_site_label
 _atom_site_symmetry_multiplicity
 _atom_site_fract_x
 _atom_site_fract_y
 _atom_site_fract_z
 _atom_site_occupancy
  Ca  Ca0  1  0.30795400  0.30795400  0.07613800  1
  Ca  Ca1  1  0.69204600  0.69204600  0.92386200  1
  Ga  Ga0  1  0.00000000  0.00000000  0.00000000  1
  Cl  Cl0  1  0.50000000  0.50000000  0.50000000  1
  O  O0  1  0.26944800  0.91961500  0.12134300  1
  O  O1  1  0.91961500  0.68959400  0.12134300  1
  O  O2  1  0.68959400  0.26944800  0.12134300  1
  O  O3  1  0.73055200  0.08038500  0.87865700  1
  O  O4  1  0.08038500  0.31040600  0.87865700  1
  O  O5  1  0.31040600  0.73055200  0.87865700  1
  O  O6  1  0.17664800  0.17664800  0.47005600  1
  O  O7  1  0.82335200  0.82335200  0.52994400  1
loop_
_geom_bond_atom_site_label_1
_geom_bond_atom_site_label_2
_geom_bond_distance
_geom_bond_site_symmetry_2
Ca0 O3 2.391980 1_554
Ca0 O4 2.391980 1_554
Ca0 O5 2.391980 1_554
Ca0 O1 2.410269 1_455
Ca0 O2 2.410269 1_555
Ca0 O0 2.410269 1_545
Ca0 O6 2.468844 1_555
Ca1 O0 2.391980 1_556
Ca1 O1 2.391980 1_556
Ca1 O2 2.391980 1_556
Ca1 O4 2.410269 1_655
Ca1 O5 2.410269 1_555
Ca1 O3 2.410269 1_565
Ca1 O7 2.468844 1_555
Ga0 O2 1.965861 1_455
Ga0 O5 1.965861 1_544
Ga0 O0 1.965861 1_545
Ga0 O3 1.965861 1_454
Ga0 O4 1.965862 1_554
Ga0 O1 1.965862 1_445
