# generated using pymatgen
data_Rb4InSbCl12
_symmetry_space_group_name_H-M   'P 1'
_cell_length_a   7.42677800
_cell_length_b   7.42677800
_cell_length_c   10.30570800
_cell_angle_alpha   90.00000000
_cell_angle_beta   90.00000000
_cell_angle_gamma   90.00000000
_symmetry_Int_Tables_number   1
_chemical_formula_structural   Rb4InSbCl12
_chemical_formula_sum   'Rb4 In1 Sb1 Cl12'
_cell_volume   568.43226039
_cell_formula_units_Z   1
loop_
 _symmetry_equiv_pos_site_id
 _symmetry_equiv_pos_as_xyz
  1  'x, y, z'
loop_
 _atom_site_type_symbol
 _atom_site_label
 _atom_site_symmetry_multiplicity
 _atom_site_fract_x
 _atom_site_fract_y
 _atom_site_fract_z
 _atom_site_occupancy
  Rb  Rb0  1  0.50000000  0.00000000  0.78070200  1
  Rb  Rb1  1  0.00000000  0.50000000  0.21929800  1
  Rb  Rb2  1  0.50000000  0.00000000  0.21929800  1
  Rb  Rb3  1  0.00000000  0.50000000  0.78070200  1
  In  In0  1  0.00000000  0.00000000  0.00000000  1
  Sb  Sb0  1  0.50000000  0.50000000  0.50000000  1
  Cl  Cl0  1  0.00000000  0.00000000  0.75137300  1
  Cl  Cl1  1  0.50000000  0.50000000  0.26602400  1
  Cl  Cl2  1  0.72966500  0.72966500  0.50000000  1
  Cl  Cl3  1  0.24309600  0.24309600  0.00000000  1
  Cl  Cl4  1  0.72966500  0.27033500  0.50000000  1
  Cl  Cl5  1  0.24309600  0.75690400  0.00000000  1
  Cl  Cl6  1  0.00000000  0.00000000  0.24862700  1
  Cl  Cl7  1  0.50000000  0.50000000  0.73397600  1
  Cl  Cl8  1  0.27033500  0.27033500  0.50000000  1
  Cl  Cl9  1  0.75690400  0.75690400  0.00000000  1
  Cl  Cl10  1  0.27033500  0.72966500  0.50000000  1
  Cl  Cl11  1  0.75690400  0.24309600  0.00000000  1
loop_
_geom_bond_atom_site_label_1
_geom_bond_atom_site_label_2
_geom_bond_distance
_geom_bond_site_symmetry_2
Cl0 In0 2.562277 1_556
Cl0 Rb0 3.725670 1_455
Cl0 Rb0 3.725670 1_555
Cl0 Rb3 3.725670 1_545
Cl0 Rb3 3.725670 1_555
Cl1 Sb0 2.411288 1_555
Cl1 Rb2 3.744482 1_555
Cl1 Rb2 3.744482 1_565
Cl1 Rb1 3.744482 1_555
Cl1 Rb1 3.744482 1_655
Cl2 Sb0 2.412183 1_555
Cl2 Rb2 3.912637 1_565
Cl2 Rb0 3.912637 1_565
Cl2 Rb3 3.912637 1_655
Cl2 Rb1 3.912637 1_655
Cl3 In0 2.553249 1_555
Cl3 Rb0 3.465196 1_554
Cl3 Rb3 3.465196 1_554
Cl3 Rb2 3.465196 1_555
Cl3 Rb1 3.465196 1_555
Cl4 Sb0 2.412183 1_555
Cl4 Rb3 3.912637 1_655
Cl4 Rb0 3.912637 1_555
Cl4 Rb1 3.912637 1_655
Cl4 Rb2 3.912637 1_555
Cl5 In0 2.553249 1_565
Cl5 Rb3 3.465196 1_554
Cl5 Rb1 3.465196 1_555
Cl5 Rb2 3.465196 1_565
Cl5 Rb0 3.465196 1_564
Cl6 In0 2.562277 1_555
Cl6 Rb1 3.725670 1_545
Cl6 Rb1 3.725670 1_555
Cl6 Rb2 3.725670 1_555
Cl6 Rb2 3.725670 1_455
Cl7 Sb0 2.411288 1_555
Cl7 Rb0 3.744482 1_555
Cl7 Rb0 3.744482 1_565
Cl7 Rb3 3.744482 1_655
Cl7 Rb3 3.744482 1_555
Cl8 Sb0 2.412183 1_555
Cl8 Rb1 3.912637 1_555
Cl8 Rb3 3.912637 1_555
Cl8 Rb0 3.912637 1_555
Cl8 Rb2 3.912637 1_555
Cl9 In0 2.553249 1_665
Cl9 Rb1 3.465196 1_655
Cl9 Rb3 3.465196 1_654
Cl9 Rb0 3.465196 1_564
Cl9 Rb2 3.465196 1_565
Cl10 Sb0 2.412183 1_555
Cl10 Rb2 3.912637 1_565
Cl10 Rb1 3.912637 1_555
Cl10 Rb0 3.912637 1_565
Cl10 Rb3 3.912637 1_555
Cl11 In0 2.553249 1_655
Cl11 Rb0 3.465196 1_554
Cl11 Rb2 3.465196 1_555
Cl11 Rb1 3.465196 1_655
Cl11 Rb3 3.465196 1_654
