# generated using pymatgen
data_Na6UH2(S2O9)2
_symmetry_space_group_name_H-M   'P 1'
_cell_length_a   5.61195656
_cell_length_b   11.30654984
_cell_length_c   14.40655948
_cell_angle_alpha   90.33710451
_cell_angle_beta   92.40487454
_cell_angle_gamma   98.66963692
_symmetry_Int_Tables_number   1
_chemical_formula_structural   Na6UH2(S2O9)2
_chemical_formula_sum   'Na12 U2 H4 S8 O36'
_cell_volume   902.81335577
_cell_formula_units_Z   2
loop_
 _symmetry_equiv_pos_site_id
 _symmetry_equiv_pos_as_xyz
  1  'x, y, z'
loop_
 _atom_site_type_symbol
 _atom_site_label
 _atom_site_symmetry_multiplicity
 _atom_site_fract_x
 _atom_site_fract_y
 _atom_site_fract_z
 _atom_site_occupancy
  Na  Na0  1  0.15621400  0.23825500  0.08420100  1
  Na  Na1  1  0.84378600  0.76174500  0.91579900  1
  Na  Na2  1  0.28539600  0.04025500  0.60624200  1
  Na  Na3  1  0.71460400  0.95974500  0.39375800  1
  Na  Na4  1  0.33745600  0.21793300  0.39942900  1
  Na  Na5  1  0.66254400  0.78206700  0.60057100  1
  Na  Na6  1  0.74877300  0.53523900  0.08598400  1
  Na  Na7  1  0.25122700  0.46476100  0.91401600  1
  Na  Na8  1  0.00000000  0.50000000  0.50000000  1
  Na  Na9  1  0.76765300  0.23169300  0.25541500  1
  Na  Na10  1  0.23234700  0.76830700  0.74458500  1
  Na  Na11  1  0.50000000  0.00000000  0.00000000  1
  U  U0  1  0.25571400  0.70949100  0.25635100  1
  U  U1  1  0.74428600  0.29050900  0.74364900  1
  H  H0  1  0.35288900  0.39930100  0.54328000  1
  H  H1  1  0.64711100  0.60069900  0.45672000  1
  H  H2  1  0.16538900  0.10048200  0.93119900  1
  H  H3  1  0.83461100  0.89951800  0.06880100  1
  S  S0  1  0.29815300  0.43632500  0.24897100  1
  S  S1  1  0.70184700  0.56367500  0.75102900  1
  S  S2  1  0.30958900  0.71613200  0.00871000  1
  S  S3  1  0.69041100  0.28386800  0.99129000  1
  S  S4  1  0.22827900  0.03311000  0.24329800  1
  S  S5  1  0.77172100  0.96689000  0.75670200  1
  S  S6  1  0.15227400  0.78829000  0.49398300  1
  S  S7  1  0.84772600  0.21171000  0.50601700  1
  O  O0  1  0.15455200  0.90009600  0.25690700  1
  O  O1  1  0.84544800  0.09990400  0.74309300  1
  O  O2  1  0.46705700  0.07169500  0.29233200  1
  O  O3  1  0.53294300  0.92830500  0.70766800  1
  O  O4  1  0.23041300  0.50652300  0.33083900  1
  O  O5  1  0.76958700  0.49347700  0.66916100  1
  O  O6  1  0.11243200  0.71227300  0.40560900  1
  O  O7  1  0.88756800  0.28772700  0.59439100  1
  O  O8  1  0.49137500  0.34838900  0.01875600  1
  O  O9  1  0.50862500  0.65161100  0.98124400  1
  O  O10  1  0.37159600  0.76723200  0.10577800  1
  O  O11  1  0.62840400  0.23276800  0.89422200  1
  O  O12  1  0.04368400  0.09462100  0.28621700  1
  O  O13  1  0.95631600  0.90537900  0.71378300  1
  O  O14  1  0.40457400  0.53235500  0.18367300  1
  O  O15  1  0.59542600  0.46764500  0.81632700  1
  O  O16  1  0.71099800  0.18114500  0.05403200  1
  O  O17  1  0.28900200  0.81885500  0.94596800  1
  O  O18  1  0.07901700  0.63346500  0.00499900  1
  O  O19  1  0.92098300  0.36653500  0.99500100  1
  O  O20  1  0.24135800  0.05651600  0.14238400  1
  O  O21  1  0.75864200  0.94348400  0.85761600  1
  O  O22  1  0.04552400  0.13936500  0.50163900  1
  O  O23  1  0.95447600  0.86063500  0.49836100  1
  O  O24  1  0.04193000  0.34814500  0.79352100  1
  O  O25  1  0.95807000  0.65185500  0.20647900  1
  O  O26  1  0.47522800  0.35876400  0.27815000  1
  O  O27  1  0.52477200  0.64123600  0.72185000  1
  O  O28  1  0.44730800  0.22934300  0.69568100  1
  O  O29  1  0.55269200  0.77065700  0.30431900  1
  O  O30  1  0.14397900  0.70187800  0.57218500  1
  O  O31  1  0.85602100  0.29812200  0.42781500  1
  O  O32  1  0.08156900  0.36504100  0.20357900  1
  O  O33  1  0.91843100  0.63495900  0.79642100  1
  O  O34  1  0.61082700  0.13346500  0.50471900  1
  O  O35  1  0.38917300  0.86653500  0.49528100  1
loop_
_geom_bond_atom_site_label_1
_geom_bond_atom_site_label_2
_geom_bond_distance
_geom_bond_site_symmetry_2
Na0 O32 2.323946 1_555
Na0 O8 2.331074 1_555
Na0 O20 2.331513 1_555
Na0 O19 2.440193 1_454
Na0 O16 2.503538 1_455
Na1 O33 2.323946 1_555
Na1 O9 2.331074 1_555
Na1 O21 2.331513 1_555
Na1 O18 2.440193 1_656
Na1 O17 2.503538 1_655
Na2 O22 2.375543 1_555
Na2 O3 2.459420 1_545
Na2 O34 2.499461 1_555
Na2 O28 2.518000 1_555
Na2 O35 2.671819 1_545
Na2 O13 2.748703 1_445
Na2 O23 2.927877 1_445
Na3 O23 2.375543 1_555
Na3 O2 2.459420 1_565
Na3 O35 2.499461 1_555
Na3 O29 2.518000 1_555
Na3 O34 2.671819 1_565
Na3 O12 2.748703 1_665
Na3 O22 2.927877 1_665
Na4 O22 2.328202 1_555
Na4 O34 2.414551 1_555
Na4 O26 2.441508 1_555
Na4 O2 2.463760 1_555
Na4 O12 2.525204 1_555
Na5 O23 2.328202 1_555
Na5 O35 2.414551 1_555
Na5 O27 2.441508 1_555
Na5 O3 2.463760 1_555
Na5 O13 2.525204 1_555
Na6 O25 2.338074 1_555
Na6 O18 2.367618 1_655
Na6 O14 2.433643 1_555
Na6 O9 2.492335 1_554
Na6 O8 2.535023 1_555
Na6 O19 2.631180 1_554
Na7 O24 2.338074 1_555
Na7 O19 2.367618 1_455
Na7 O15 2.433643 1_555
Na7 O8 2.492335 1_556
Na7 O9 2.535023 1_555
Na7 O18 2.631180 1_556
Na8 O31 2.507965 1_455
Na8 O30 2.507965 1_555
Na8 O7 2.767948 1_455
Na8 O6 2.767948 1_555
Na8 O5 2.802568 1_455
Na8 O4 2.802568 1_555
Na9 O32 2.292878 1_655
Na9 O2 2.359614 1_555
Na9 O26 2.369599 1_555
Na9 O12 2.381730 1_655
Na9 O31 2.596376 1_555
Na9 O16 2.948422 1_555
Na10 O33 2.292878 1_455
Na10 O3 2.359614 1_555
Na10 O27 2.369599 1_555
Na10 O13 2.381730 1_455
Na10 O30 2.596376 1_555
Na10 O17 2.948422 1_555
Na11 O17 2.318538 1_544
Na11 O16 2.318538 1_555
Na11 O21 2.690145 1_544
Na11 O20 2.690145 1_555
H0 Na8 2.488283 1_555
H1 Na8 2.488283 1_655
H2 Na11 2.509904 1_556
H2 Na0 2.698359 1_556
H3 Na11 2.509904 1_565
H3 Na1 2.698359 1_554
O0 S4 1.514635 1_565
O0 U0 2.309931 1_555
O1 S5 1.514635 1_545
O1 U1 2.309931 1_555
O2 S4 1.491867 1_555
O3 S5 1.491867 1_555
O4 S0 1.510999 1_555
O4 U0 2.526200 1_555
O5 S1 1.510999 1_555
O5 U1 2.526200 1_555
O6 S6 1.521501 1_555
O6 U0 2.328788 1_555
O7 S7 1.521501 1_555
O7 U1 2.328788 1_555
O8 S3 1.488541 1_554
O9 S2 1.488541 1_556
O10 S2 1.516414 1_555
O10 U0 2.358345 1_555
O11 S3 1.516414 1_555
O11 U1 2.358345 1_555
O12 S4 1.484948 1_555
O13 S5 1.484948 1_555
O14 S0 1.511359 1_555
O14 U0 2.521608 1_555
O15 S1 1.511359 1_555
O15 U1 2.521608 1_555
O16 S3 1.491096 1_554
O17 S2 1.491096 1_556
O18 S2 1.476417 1_555
O19 S3 1.476417 1_555
O20 S4 1.482111 1_555
O21 S5 1.482111 1_555
O22 S7 1.477915 1_455
O23 S6 1.477915 1_655
O24 U1 1.815660 1_455
O25 U0 1.815660 1_655
O26 S0 1.471483 1_555
O27 S1 1.471483 1_555
O28 U1 1.812105 1_555
O29 U0 1.812105 1_555
O30 S6 1.493204 1_555
O31 S7 1.493204 1_555
O32 S0 1.478628 1_555
O33 S1 1.478628 1_555
O34 S7 1.481091 1_555
O35 S6 1.481091 1_555
