# generated using pymatgen
data_Li5Mn2CoO8
_symmetry_space_group_name_H-M   'P 1'
_cell_length_a   5.76072777
_cell_length_b   5.84704703
_cell_length_c   9.74518507
_cell_angle_alpha   80.99259096
_cell_angle_beta   89.62683273
_cell_angle_gamma   60.57412534
_symmetry_Int_Tables_number   1
_chemical_formula_structural   Li5Mn2CoO8
_chemical_formula_sum   'Li10 Mn4 Co2 O16'
_cell_volume   281.42963825
_cell_formula_units_Z   2
loop_
 _symmetry_equiv_pos_site_id
 _symmetry_equiv_pos_as_xyz
  1  'x, y, z'
loop_
 _atom_site_type_symbol
 _atom_site_label
 _atom_site_symmetry_multiplicity
 _atom_site_fract_x
 _atom_site_fract_y
 _atom_site_fract_z
 _atom_site_occupancy
  Li  Li0  1  0.37428900  0.25109800  0.24949800  1
  Li  Li1  1  0.87570700  0.24890800  0.25049800  1
  Li  Li2  1  0.12500000  0.75000100  0.75000000  1
  Li  Li3  1  0.62500000  0.75000100  0.75000100  1
  Li  Li4  1  0.87581300  0.75001400  0.24954400  1
  Li  Li5  1  0.37418600  0.74998700  0.25045500  1
  Li  Li6  1  0.74844800  0.99820600  0.48838600  1
  Li  Li7  1  0.24722400  0.00173500  0.49093100  1
  Li  Li8  1  0.00277600  0.49826600  0.00906900  1
  Li  Li9  1  0.50154800  0.50179700  0.01161400  1
  Mn  Mn0  1  0.51222300  0.97913000  0.00769900  1
  Mn  Mn1  1  0.73778000  0.52086800  0.49230000  1
  Mn  Mn2  1  0.01357300  0.98130700  0.00705300  1
  Mn  Mn3  1  0.23642500  0.51869600  0.49294400  1
  Co  Co0  1  0.62500000  0.25000200  0.75000100  1
  Co  Co1  1  0.12499900  0.25000100  0.75000100  1
  O  O0  1  0.19818400  0.11032000  0.11066900  1
  O  O1  1  0.69432800  0.11464200  0.10814200  1
  O  O2  1  0.05181800  0.38968000  0.38933000  1
  O  O3  1  0.55567100  0.38535800  0.39185600  1
  O  O4  1  0.07434800  0.84997800  0.38610700  1
  O  O5  1  0.57226900  0.85001300  0.38585100  1
  O  O6  1  0.67773400  0.64998200  0.11415000  1
  O  O7  1  0.17565600  0.65001300  0.11389600  1
  O  O8  1  0.93537000  0.62046800  0.61325400  1
  O  O9  1  0.43952100  0.61213400  0.61619500  1
  O  O10  1  0.81047600  0.88786800  0.88380700  1
  O  O11  1  0.31463200  0.87953300  0.88674700  1
  O  O12  1  0.84342500  0.34094500  0.87132700  1
  O  O13  1  0.32869300  0.34189800  0.86677700  1
  O  O14  1  0.40657800  0.15905300  0.62867300  1
  O  O15  1  0.92130900  0.15809900  0.63322500  1
loop_
_geom_bond_atom_site_label_1
_geom_bond_atom_site_label_2
_geom_bond_distance
_geom_bond_site_symmetry_2
Li0 O0 2.173532 1_555
Li0 O2 2.190466 1_555
Li0 O3 2.190562 1_555
Li0 O1 2.190654 1_555
Li0 O7 2.219932 1_555
Li0 O5 2.232056 1_545
Li1 O2 2.173549 1_655
Li1 O0 2.190471 1_655
Li1 O1 2.190562 1_555
Li1 O3 2.190654 1_555
Li1 O4 2.220024 1_645
Li1 O6 2.231989 1_555
Li2 O9 2.120424 1_555
Li2 O10 2.120449 1_455
Li2 O8 2.165830 1_455
Li2 O11 2.165841 1_555
Li2 O15 2.186692 1_465
Li2 O13 2.186721 1_555
Li3 O11 2.121474 1_555
Li3 O8 2.121488 1_555
Li3 O10 2.164578 1_555
Li3 O9 2.164590 1_555
Li3 O14 2.208730 1_565
Li3 O12 2.208740 1_555
Li4 O7 2.071917 1_655
Li4 O6 2.074158 1_555
Li4 O4 2.083521 1_655
Li4 O2 2.083981 1_655
Li4 O5 2.091025 1_555
Li4 O1 2.108549 1_565
Li5 O4 2.071926 1_555
Li5 O5 2.074164 1_555
Li5 O7 2.083512 1_555
Li5 O0 2.083978 1_565
Li5 O6 2.091027 1_555
Li5 O3 2.108548 1_555
Li6 O4 1.979047 1_655
Li6 O5 1.981854 1_555
Li6 O3 2.029579 1_565
Li6 O8 2.087348 1_555
Li6 O14 2.275898 1_565
Li6 O15 2.281279 1_565
Li7 O5 1.992262 1_545
Li7 O4 1.997013 1_545
Li7 O2 2.048199 1_555
Li7 O9 2.138679 1_545
Li7 O14 2.173258 1_555
Li7 O15 2.227152 1_455
Li8 O6 1.992253 1_455
Li8 O7 1.997001 1_555
Li8 O0 2.048201 1_555
Li8 O10 2.138675 1_454
Li8 O12 2.173259 1_454
Li8 O13 2.227148 1_554
Li9 O7 1.979026 1_555
Li9 O6 1.981853 1_555
Li9 O1 2.029587 1_555
Li9 O11 2.087335 1_554
Li9 O12 2.275927 1_554
Li9 O13 2.281269 1_554
Mn0 O6 1.809370 1_555
Mn0 O0 1.929242 1_565
Mn0 O1 1.938924 1_565
Mn0 O11 1.976830 1_554
Mn0 O10 1.992067 1_554
Mn0 O13 2.099093 1_564
Mn1 O5 1.809349 1_555
Mn1 O2 1.929238 1_655
Mn1 O3 1.938938 1_555
Mn1 O8 1.976850 1_555
Mn1 O9 1.992110 1_555
Mn1 O15 2.099111 1_555
Mn2 O7 1.819936 1_555
Mn2 O0 1.939185 1_565
Mn2 O1 1.941282 1_465
Mn2 O11 1.978482 1_554
Mn2 O10 1.990415 1_454
Mn2 O12 2.062229 1_464
Mn3 O4 1.819861 1_555
Mn3 O2 1.939170 1_555
Mn3 O3 1.941281 1_555
Mn3 O8 1.978491 1_455
Mn3 O9 1.990438 1_555
Mn3 O14 2.062263 1_555
Co0 O13 1.939684 1_555
Co0 O15 1.939690 1_555
Co0 O12 2.034126 1_555
Co0 O14 2.034148 1_555
Co0 O9 2.062996 1_555
Co0 O10 2.063003 1_545
Co1 O12 1.906875 1_455
Co1 O14 1.906907 1_555
Co1 O13 1.946561 1_555
Co1 O15 1.946564 1_455
Co1 O11 2.109825 1_545
Co1 O8 2.109825 1_455
