# generated using pymatgen
data_La2Co2I
_symmetry_space_group_name_H-M   'P 1'
_cell_length_a   4.03631804
_cell_length_b   4.03631804
_cell_length_c   17.93186934
_cell_angle_alpha   90.00000000
_cell_angle_beta   90.00000000
_cell_angle_gamma   119.99999605
_symmetry_Int_Tables_number   1
_chemical_formula_structural   La2Co2I
_chemical_formula_sum   'La4 Co4 I2'
_cell_volume   253.00375824
_cell_formula_units_Z   2
loop_
 _symmetry_equiv_pos_site_id
 _symmetry_equiv_pos_as_xyz
  1  'x, y, z'
loop_
 _atom_site_type_symbol
 _atom_site_label
 _atom_site_symmetry_multiplicity
 _atom_site_fract_x
 _atom_site_fract_y
 _atom_site_fract_z
 _atom_site_occupancy
  La  La0  1  -0.00000000  0.00000000  0.10345929  1
  La  La1  1  0.00000000  -0.00000000  0.89654071  1
  La  La2  1  0.00000000  -0.00000000  0.60345929  1
  La  La3  1  -0.00000000  0.00000000  0.39654071  1
  Co  Co0  1  0.33333300  0.66666700  0.50022191  1
  Co  Co1  1  0.66666700  0.33333300  0.49977809  1
  Co  Co2  1  0.66666700  0.33333300  0.00022191  1
  Co  Co3  1  0.33333300  0.66666700  -0.00022191  1
  I  I0  1  0.33333300  0.66666700  0.25000000  1
  I  I1  1  0.66666700  0.33333300  0.75000000  1
loop_
_geom_bond_atom_site_label_1
_geom_bond_atom_site_label_2
_geom_bond_distance
_geom_bond_site_symmetry_2
Co0 Co1 2.330381 1_455
Co0 Co1 2.330381 1_565
Co0 Co1 2.330388 1_555
Co0 La2 2.976188 1_565
Co0 La2 2.976191 1_665
Co0 La2 2.976191 1_555
Co0 La3 2.981145 1_565
Co0 La3 2.981148 1_555
Co0 La3 2.981148 1_665
Co1 La3 2.976188 1_655
Co1 La3 2.976191 1_555
Co1 La3 2.976191 1_665
Co1 La2 2.981145 1_655
Co1 La2 2.981148 1_555
Co1 La2 2.981148 1_665
Co2 Co3 2.330381 1_545
Co2 Co3 2.330381 1_655
Co2 Co3 2.330388 1_555
Co2 La0 2.976188 1_655
Co2 La0 2.976191 1_555
Co2 La0 2.976191 1_665
Co2 La1 2.981145 1_654
Co2 La1 2.981148 1_664
Co2 La1 2.981148 1_554
Co3 La1 2.976188 1_564
Co3 La1 2.976191 1_664
Co3 La1 2.976191 1_554
Co3 La0 2.981145 1_565
Co3 La0 2.981148 1_665
Co3 La0 2.981148 1_555
I0 La3 3.512218 1_565
I0 La0 3.512218 1_565
I0 La0 3.512220 1_665
I0 La3 3.512220 1_555
I0 La0 3.512220 1_555
I0 La3 3.512220 1_665
I1 La2 3.512218 1_655
I1 La1 3.512218 1_655
I1 La2 3.512220 1_665
I1 La2 3.512220 1_555
I1 La1 3.512220 1_555
I1 La1 3.512220 1_665
