# generated using pymatgen
data_Ce2B12Br2O27
_symmetry_space_group_name_H-M   'P 1'
_cell_length_a   14.09783900
_cell_length_b   8.27270600
_cell_length_c   9.89393319
_cell_angle_alpha   89.97189048
_cell_angle_beta   90.00000000
_cell_angle_gamma   90.00000000
_symmetry_Int_Tables_number   1
_chemical_formula_structural   Ce2B12Br2O27
_chemical_formula_sum   'Ce4 B24 Br4 O54'
_cell_volume   1153.90235078
_cell_formula_units_Z   2
loop_
 _symmetry_equiv_pos_site_id
 _symmetry_equiv_pos_as_xyz
  1  'x, y, z'
loop_
 _atom_site_type_symbol
 _atom_site_label
 _atom_site_symmetry_multiplicity
 _atom_site_fract_x
 _atom_site_fract_y
 _atom_site_fract_z
 _atom_site_occupancy
  Ce  Ce0  1  0.83279500  0.59493900  0.04000500  1
  Ce  Ce1  1  0.66302200  0.09407400  0.54281500  1
  Ce  Ce2  1  0.16302200  0.90592600  0.45718500  1
  Ce  Ce3  1  0.33279500  0.40506100  0.95999500  1
  B  B0  1  0.80369100  0.70700000  0.67568700  1
  B  B1  1  0.69470500  0.20725500  0.17592500  1
  B  B2  1  0.19470500  0.79274500  0.82407500  1
  B  B3  1  0.30369100  0.29300000  0.32431300  1
  B  B4  1  0.80329800  0.70524800  0.41402200  1
  B  B5  1  0.69649600  0.20438400  0.91547500  1
  B  B6  1  0.19649600  0.79561600  0.08452500  1
  B  B7  1  0.30329800  0.29475200  0.58597800  1
  B  B8  1  0.05010300  0.75050000  0.95906200  1
  B  B9  1  0.44890400  0.25638500  0.45807900  1
  B  B10  1  0.94890400  0.74361500  0.54192100  1
  B  B11  1  0.55010300  0.24950000  0.04093800  1
  B  B12  1  0.80688000  0.99615300  0.04465000  1
  B  B13  1  0.69473100  0.49275400  0.54686800  1
  B  B14  1  0.19473100  0.50724600  0.45313200  1
  B  B15  1  0.30688000  0.00384700  0.95535000  1
  B  B16  1  0.74414300  0.44687500  0.31051300  1
  B  B17  1  0.75461600  0.94497900  0.81218800  1
  B  B18  1  0.25461600  0.05502100  0.18781200  1
  B  B19  1  0.24414300  0.55312500  0.68948700  1
  B  B20  1  0.74266700  0.44589700  0.78187800  1
  B  B21  1  0.75960500  0.94995200  0.28207400  1
  B  B22  1  0.25960500  0.05004800  0.71792600  1
  B  B23  1  0.24266700  0.55410300  0.21812200  1
  Br  Br0  1  0.58233700  0.68868200  0.03844400  1
  Br  Br1  1  0.94253400  0.20847600  0.56290100  1
  Br  Br2  1  0.44253400  0.79152400  0.43709900  1
  Br  Br3  1  0.08233700  0.31131800  0.96155600  1
  O  O0  1  0.74683700  0.36165500  0.19245000  1
  O  O1  1  0.75117800  0.86023100  0.69364900  1
  O  O2  1  0.25117800  0.13976900  0.30635100  1
  O  O3  1  0.24683700  0.63834500  0.80755000  1
  O  O4  1  0.77651100  0.60332500  0.29849500  1
  O  O5  1  0.72397000  0.10186400  0.80070800  1
  O  O6  1  0.22397000  0.89813600  0.19929200  1
  O  O7  1  0.27651100  0.39667500  0.70150500  1
  O  O8  1  0.89760000  0.07116900  0.02603500  1
  O  O9  1  0.60424500  0.56983600  0.54922200  1
  O  O10  1  0.10424500  0.43016400  0.45077800  1
  O  O11  1  0.39760000  0.92883100  0.97396500  1
  O  O12  1  0.79980900  0.89344500  0.16581900  1
  O  O13  1  0.70944200  0.38320800  0.66305900  1
  O  O14  1  0.20944200  0.61679200  0.33694100  1
  O  O15  1  0.29980900  0.10655500  0.83418100  1
  O  O16  1  0.09486400  0.76432400  0.83698400  1
  O  O17  1  0.40340600  0.26420100  0.33644100  1
  O  O18  1  0.90340600  0.73579900  0.66355900  1
  O  O19  1  0.59486400  0.23567600  0.16301600  1
  O  O20  1  0.95891900  0.53212700  0.17216100  1
  O  O21  1  0.54724400  0.03888600  0.65329800  1
  O  O22  1  0.04724400  0.96111400  0.34670200  1
  O  O23  1  0.45891900  0.46787300  0.82783900  1
  O  O24  1  0.78386400  0.59693300  0.78999400  1
  O  O25  1  0.71514900  0.09831500  0.29074900  1
  O  O26  1  0.21514900  0.90168500  0.70925100  1
  O  O27  1  0.28386400  0.40306700  0.21000600  1
  O  O28  1  0.92371600  0.37269800  0.00710800  1
  O  O29  1  0.55589100  0.86431500  0.47311600  1
  O  O30  1  0.05589100  0.13568500  0.52688400  1
  O  O31  1  0.42371600  0.62730200  0.99289200  1
  O  O32  1  0.09626900  0.77900500  0.07803200  1
  O  O33  1  0.40355800  0.28191800  0.57786200  1
  O  O34  1  0.90355800  0.71808200  0.42213800  1
  O  O35  1  0.59626900  0.22099500  0.92196800  1
  O  O36  1  0.95553300  0.70522000  0.96668800  1
  O  O37  1  0.54447600  0.21854900  0.46378600  1
  O  O38  1  0.04447600  0.78145100  0.53621400  1
  O  O39  1  0.45553300  0.29478000  0.03331200  1
  O  O40  1  0.74260100  0.36565500  0.90240900  1
  O  O41  1  0.75733600  0.86631000  0.40178500  1
  O  O42  1  0.25733600  0.13369000  0.59821500  1
  O  O43  1  0.24260100  0.63434500  0.09759100  1
  O  O44  1  0.73316900  0.12899400  0.04715600  1
  O  O45  1  0.76619100  0.62945600  0.54608800  1
  O  O46  1  0.26619100  0.37054400  0.45391200  1
  O  O47  1  0.23316900  0.87100600  0.95284400  1
  O  O48  1  0.78505400  0.88236200  0.93315400  1
  O  O49  1  0.71419400  0.38500800  0.43123900  1
  O  O50  1  0.21419400  0.61499200  0.56876100  1
  O  O51  1  0.28505400  0.11763800  0.06684600  1
  O  O52  1  0.02644700  0.29948100  0.18841800  1
  O  O53  1  0.52644700  0.70051900  0.81158200  1
loop_
_geom_bond_atom_site_label_1
_geom_bond_atom_site_label_2
_geom_bond_distance
_geom_bond_site_symmetry_2
Ce0 O36 2.086134 1_554
Ce0 O28 2.264888 1_555
Ce0 O20 2.267281 1_555
Ce0 O24 2.568023 1_554
Ce0 O40 2.659043 1_554
Ce0 O4 2.678679 1_555
Ce0 O48 2.687362 1_554
Ce0 O0 2.732223 1_555
Ce0 O12 2.804814 1_555
Ce1 O21 2.016677 1_555
Ce1 O37 2.112822 1_555
Ce1 O29 2.524015 1_545
Ce1 O25 2.600163 1_555
Ce1 O5 2.693165 1_555
Ce1 O41 2.695878 1_545
Ce1 O1 2.740652 1_545
Ce1 O49 2.743943 1_555
Ce1 O13 2.750945 1_555
Ce2 O22 2.016677 1_555
Ce2 O38 2.112822 1_555
Ce2 O30 2.524015 1_565
Ce2 O26 2.600163 1_555
Ce2 O6 2.693165 1_555
Ce2 O42 2.695878 1_565
Ce2 O2 2.740652 1_565
Ce2 O50 2.743943 1_555
Ce2 O14 2.750945 1_555
Ce3 O39 2.086134 1_556
Ce3 O31 2.264888 1_555
Ce3 O23 2.267281 1_555
Ce3 O27 2.568023 1_556
Ce3 O43 2.659043 1_556
Ce3 O7 2.678679 1_555
Ce3 O51 2.687362 1_556
Ce3 O3 2.732223 1_555
Ce3 O15 2.804814 1_555
B0 O18 1.430842 1_555
B0 O24 1.478264 1_555
B0 O1 1.478775 1_555
B0 O45 1.528387 1_555
B1 O19 1.432738 1_555
B1 O25 1.478145 1_555
B1 O0 1.482766 1_555
B1 O44 1.528783 1_555
B2 O16 1.432738 1_555
B2 O26 1.478145 1_555
B2 O3 1.482766 1_555
B2 O47 1.528783 1_555
B3 O17 1.430842 1_555
B3 O27 1.478264 1_555
B3 O2 1.478775 1_555
B3 O46 1.528387 1_555
B4 O34 1.419707 1_555
B4 O4 1.470032 1_555
B4 O41 1.486505 1_555
B4 O45 1.540563 1_555
B5 O35 1.421106 1_555
B5 O5 1.469565 1_555
B5 O40 1.489620 1_555
B5 O44 1.533909 1_556
B6 O32 1.421106 1_555
B6 O6 1.469565 1_555
B6 O43 1.489620 1_555
B6 O47 1.533909 1_554
B7 O33 1.419707 1_555
B7 O7 1.470032 1_555
B7 O42 1.486505 1_555
B7 O46 1.540563 1_555
B8 O32 1.365648 1_556
B8 O16 1.367481 1_555
B8 O36 1.386900 1_455
B9 O33 1.363108 1_555
B9 O17 1.365243 1_555
B9 O37 1.384384 1_555
B10 O34 1.363108 1_555
B10 O18 1.365243 1_555
B10 O38 1.384384 1_655
B11 O35 1.365648 1_554
B11 O19 1.367481 1_555
B11 O39 1.386900 1_555
B12 O8 1.433410 1_565
B12 O12 1.472445 1_555
B12 O48 1.482822 1_554
B12 O44 1.512682 1_565
B13 O9 1.426355 1_555
B13 O49 1.476343 1_555
B13 O13 1.478111 1_555
B13 O45 1.514561 1_555
B14 O10 1.426355 1_555
B14 O50 1.476343 1_555
B14 O14 1.478111 1_555
B14 O46 1.514561 1_555
B15 O11 1.433410 1_545
B15 O15 1.472445 1_555
B15 O51 1.482822 1_556
B15 O47 1.512682 1_545
B16 O0 1.365192 1_555
B16 O49 1.366139 1_555
B16 O4 1.377438 1_555
B17 O1 1.367549 1_555
B17 O5 1.372540 1_565
B17 O48 1.372685 1_555
B18 O2 1.367549 1_555
B18 O6 1.372540 1_545
B18 O51 1.372685 1_555
B19 O3 1.365192 1_555
B19 O50 1.366139 1_555
B19 O7 1.377438 1_555
B20 O40 1.364550 1_555
B20 O13 1.367829 1_555
B20 O24 1.380237 1_555
B21 O12 1.365030 1_555
B21 O41 1.371802 1_555
B21 O25 1.380828 1_565
B22 O15 1.365030 1_555
B22 O42 1.371802 1_555
B22 O26 1.380828 1_545
B23 O43 1.364550 1_555
B23 O14 1.367829 1_555
B23 O27 1.380237 1_555
Br0 O31 2.337057 1_554
Br0 O53 2.380807 1_554
Br1 O30 1.744621 1_655
Br2 O29 1.744621 1_555
Br3 O28 2.337057 1_456
Br3 O52 2.380807 1_556
