# generated using pymatgen
data_Y4MgS7
_symmetry_space_group_name_H-M   'P 1'
_cell_length_a   6.59003545
_cell_length_b   6.59003545
_cell_length_c   11.49926971
_cell_angle_alpha   75.75579041
_cell_angle_beta   75.75579041
_cell_angle_gamma   33.61253710
_symmetry_Int_Tables_number   1
_chemical_formula_structural   Y4MgS7
_chemical_formula_sum   'Y4 Mg1 S7'
_cell_volume   267.16483100
_cell_formula_units_Z   1
loop_
 _symmetry_equiv_pos_site_id
 _symmetry_equiv_pos_as_xyz
  1  'x, y, z'
loop_
 _atom_site_type_symbol
 _atom_site_label
 _atom_site_symmetry_multiplicity
 _atom_site_fract_x
 _atom_site_fract_y
 _atom_site_fract_z
 _atom_site_occupancy
  Y  Y0  1  0.69243200  0.69243200  0.20433100  1
  Y  Y1  1  0.30674700  0.30674700  0.80168900  1
  Y  Y2  1  0.99979300  0.99979300  0.00527200  1
  Y  Y3  1  0.11359700  0.11359700  0.56793800  1
  Mg  Mg0  1  0.88563900  0.88563900  0.42161000  1
  S  S0  1  0.74370200  0.74370200  0.64048300  1
  S  S1  1  0.26713600  0.26713600  0.35285700  1
  S  S2  1  0.33888000  0.33888000  0.05070300  1
  S  S3  1  0.65983900  0.65983900  0.94846400  1
  S  S4  1  0.03526400  0.03526400  0.22397300  1
  S  S5  1  0.96231900  0.96231900  0.78487400  1
  S  S6  1  0.49465000  0.49465000  0.49780600  1
loop_
_geom_bond_atom_site_label_1
_geom_bond_atom_site_label_2
_geom_bond_distance
_geom_bond_site_symmetry_2
Mg0 S4 2.554100 1_665
Mg0 S6 2.628613 1_565
Mg0 S6 2.628613 1_655
Mg0 S1 2.664374 1_565
Mg0 S1 2.664374 1_655
Mg0 S0 2.687882 1_555
S0 Y3 2.779423 1_565
S0 Y3 2.779423 1_655
S0 Y1 2.908226 1_655
S0 Y1 2.908226 1_565
S1 Y3 2.721556 1_555
S1 Y0 2.874655 1_545
S1 Y0 2.874655 1_455
S2 Y2 2.735005 1_455
S2 Y2 2.735005 1_545
S2 Y0 2.913361 1_455
S2 Y0 2.913361 1_545
S2 Y1 2.993439 1_554
S3 Y2 2.730732 1_456
S3 Y2 2.730732 1_546
S3 Y1 2.882144 1_565
S3 Y1 2.882144 1_655
S3 Y0 3.073783 1_556
S4 Y2 2.665262 1_445
S4 Y0 2.717299 1_545
S4 Y0 2.717299 1_455
S5 Y2 2.694964 1_556
S5 Y1 2.706615 1_565
S5 Y1 2.706615 1_655
S5 Y3 2.723686 1_665
S6 Y3 2.674978 1_655
S6 Y3 2.674978 1_565
