# generated using pymatgen
data_La6NbGa11O28
_symmetry_space_group_name_H-M   'P 1'
_cell_length_a   9.78931052
_cell_length_b   9.78931052
_cell_length_c   10.35134958
_cell_angle_alpha   58.07199968
_cell_angle_beta   58.07199968
_cell_angle_gamma   50.22607568
_symmetry_Int_Tables_number   1
_chemical_formula_structural   La6NbGa11O28
_chemical_formula_sum   'La6 Nb1 Ga11 O28'
_cell_volume   618.85252697
_cell_formula_units_Z   1
loop_
 _symmetry_equiv_pos_site_id
 _symmetry_equiv_pos_as_xyz
  1  'x, y, z'
loop_
 _atom_site_type_symbol
 _atom_site_label
 _atom_site_symmetry_multiplicity
 _atom_site_fract_x
 _atom_site_fract_y
 _atom_site_fract_z
 _atom_site_occupancy
  La  La0  1  0.58039000  0.00101200  0.20923100  1
  La  La1  1  0.57074600  0.99899200  0.71522900  1
  La  La2  1  0.42957500  0.57042500  0.50000000  1
  La  La3  1  0.41937300  0.58062700  0.00000000  1
  La  La4  1  0.99898800  0.41961000  0.79076900  1
  La  La5  1  0.00100800  0.42925400  0.28477100  1
  Nb  Nb0  1  0.99988500  0.00011500  0.50000000  1
  Ga  Ga0  1  0.24043000  0.99985800  0.63462800  1
  Ga  Ga1  1  0.24047100  0.00014700  0.12492400  1
  Ga  Ga2  1  0.75898800  0.23998700  0.24502500  1
  Ga  Ga3  1  0.76001300  0.24101200  0.75497500  1
  Ga  Ga4  1  0.00014200  0.75957000  0.36537200  1
  Ga  Ga5  1  0.99985300  0.75952900  0.87507600  1
  Ga  Ga6  1  0.33324200  0.33114900  0.40265200  1
  Ga  Ga7  1  0.33339900  0.33548000  0.89984300  1
  Ga  Ga8  1  0.66885100  0.66675800  0.59734800  1
  Ga  Ga9  1  0.66452000  0.66660100  0.10015700  1
  Ga  Ga10  1  0.00013800  0.99986200  0.00000000  1
  O  O0  1  0.85524500  0.69086300  0.57567100  1
  O  O1  1  0.85272500  0.68779900  0.07892300  1
  O  O2  1  0.45887400  0.85344100  0.69298800  1
  O  O3  1  0.45442400  0.85453100  0.19433900  1
  O  O4  1  0.68849100  0.45919700  0.77526700  1
  O  O5  1  0.69006100  0.45423900  0.27674300  1
  O  O6  1  0.14655900  0.54112600  0.30701200  1
  O  O7  1  0.14546900  0.54557600  0.80566100  1
  O  O8  1  0.30913700  0.14475500  0.42432900  1
  O  O9  1  0.31220100  0.14727500  0.92107700  1
  O  O10  1  0.54080300  0.31150900  0.22473300  1
  O  O11  1  0.54576100  0.30993900  0.72325700  1
  O  O12  1  0.33545000  0.33283200  0.57621200  1
  O  O13  1  0.33124200  0.33383200  0.07751200  1
  O  O14  1  0.66716800  0.66455000  0.42378800  1
  O  O15  1  0.66616800  0.66875800  0.92248800  1
  O  O16  1  0.85450800  0.92584600  0.23007800  1
  O  O17  1  0.85730500  0.92183000  0.72815600  1
  O  O18  1  0.22080200  0.85742300  0.57867900  1
  O  O19  1  0.21972400  0.85433700  0.08319500  1
  O  O20  1  0.92145900  0.22108600  0.54629900  1
  O  O21  1  0.92634600  0.21944900  0.04763200  1
  O  O22  1  0.14257700  0.77919800  0.42132100  1
  O  O23  1  0.14566300  0.78027600  0.91680500  1
  O  O24  1  0.07415400  0.14549200  0.76992200  1
  O  O25  1  0.07817000  0.14269500  0.27184400  1
  O  O26  1  0.77891400  0.07854100  0.45370100  1
  O  O27  1  0.78055100  0.07365400  0.95236800  1
loop_
_geom_bond_atom_site_label_1
_geom_bond_atom_site_label_2
_geom_bond_distance
_geom_bond_site_symmetry_2
La0 O27 2.384775 1_554
La0 O16 2.388905 1_545
La0 O8 2.503611 1_555
La0 O3 2.509562 1_545
La0 O13 2.659687 1_555
La0 O14 2.679746 1_545
La0 O10 2.890978 1_555
La0 O1 2.905144 1_545
La1 O2 2.427502 1_555
La1 O9 2.433047 1_565
La1 O17 2.456947 1_555
La1 O26 2.460386 1_565
La1 O15 2.616511 1_555
La1 O12 2.637530 1_565
La1 O0 2.923429 1_555
La1 O11 2.936978 1_565
La2 O5 2.443951 1_555
La2 O11 2.443951 1_555
La2 O22 2.458923 1_555
La2 O18 2.458923 1_555
La2 O12 2.629369 1_555
La2 O14 2.629369 1_555
La2 O3 2.923904 1_555
La2 O7 2.923904 1_555
La3 O23 2.387600 1_554
La3 O19 2.387600 1_555
La3 O4 2.490141 1_554
La3 O10 2.490141 1_555
La3 O15 2.666346 1_554
La3 O13 2.666346 1_555
La3 O2 2.902764 1_554
La3 O6 2.902764 1_555
La4 O21 2.384775 1_556
La4 O24 2.388905 1_655
La4 O0 2.503611 1_555
La4 O7 2.509562 1_655
La4 O15 2.659687 1_555
La4 O12 2.679746 1_655
La4 O4 2.890978 1_555
La4 O9 2.905144 1_655
La5 O6 2.427502 1_555
La5 O1 2.433047 1_455
La5 O25 2.456947 1_555
La5 O20 2.460386 1_455
La5 O13 2.616511 1_555
La5 O14 2.637530 1_455
La5 O8 2.923429 1_555
La5 O5 2.936978 1_455
Nb0 O26 2.020088 1_555
Nb0 O20 2.020088 1_555
Nb0 O17 2.020107 1_545
Nb0 O25 2.020107 1_655
Nb0 O18 2.021347 1_645
Nb0 O22 2.021347 1_645
Ga0 O24 1.837055 1_565
Ga0 O2 1.876414 1_555
Ga0 O8 1.899806 1_565
Ga0 O18 1.905558 1_555
Ga1 O19 1.838778 1_545
Ga1 O9 1.879447 1_554
Ga1 O3 1.903499 1_545
Ga1 O25 1.906992 1_555
Ga2 O21 1.836260 1_555
Ga2 O10 1.871324 1_555
Ga2 O26 1.908432 1_555
Ga2 O5 1.909277 1_555
Ga3 O27 1.836260 1_555
Ga3 O4 1.871324 1_555
Ga3 O20 1.908432 1_555
Ga3 O11 1.909277 1_555
Ga4 O16 1.837055 1_455
Ga4 O6 1.876414 1_555
Ga4 O0 1.899806 1_455
Ga4 O22 1.905558 1_555
Ga5 O23 1.838778 1_655
Ga5 O1 1.879447 1_556
Ga5 O7 1.903499 1_655
Ga5 O17 1.906992 1_555
Ga6 O12 1.816941 1_555
Ga6 O10 1.863861 1_555
Ga6 O8 1.870109 1_555
Ga6 O6 1.870773 1_555
Ga7 O13 1.819622 1_556
Ga7 O9 1.870406 1_555
Ga7 O7 1.870794 1_555
Ga7 O11 1.877376 1_555
Ga8 O14 1.816941 1_555
Ga8 O4 1.863861 1_555
Ga8 O0 1.870109 1_555
Ga8 O2 1.870773 1_555
Ga9 O15 1.819622 1_554
Ga9 O1 1.870406 1_555
Ga9 O3 1.870794 1_555
Ga9 O5 1.877376 1_555
Ga10 O19 2.033218 1_555
Ga10 O23 2.033218 1_554
Ga10 O24 2.033407 1_564
Ga10 O16 2.033407 1_455
Ga10 O21 2.035481 1_465
Ga10 O27 2.035481 1_464
