# generated using pymatgen
data_NaNdNb4O12
_symmetry_space_group_name_H-M   'P 1'
_cell_length_a   5.63323317
_cell_length_b   5.63323317
_cell_length_c   7.99119136
_cell_angle_alpha   90.00000000
_cell_angle_beta   90.00000000
_cell_angle_gamma   90.04114229
_symmetry_Int_Tables_number   1
_chemical_formula_structural   NaNdNb4O12
_chemical_formula_sum   'Na1 Nd1 Nb4 O12'
_cell_volume   253.58693513
_cell_formula_units_Z   1
loop_
 _symmetry_equiv_pos_site_id
 _symmetry_equiv_pos_as_xyz
  1  'x, y, z'
loop_
 _atom_site_type_symbol
 _atom_site_label
 _atom_site_symmetry_multiplicity
 _atom_site_fract_x
 _atom_site_fract_y
 _atom_site_fract_z
 _atom_site_occupancy
  Na  Na0  1  0.50000000  0.50000000  -0.00000000  1
  Nd  Nd0  1  -0.00000000  -0.00000000  0.50000000  1
  Nb  Nb0  1  -0.00000000  0.50000000  0.24731320  1
  Nb  Nb1  1  -0.00000000  0.50000000  0.75268680  1
  Nb  Nb2  1  0.50000000  -0.00000000  0.75268680  1
  Nb  Nb3  1  0.50000000  -0.00000000  0.24731320  1
  O  O0  1  0.22520799  0.22520799  0.26664695  1
  O  O1  1  0.22520799  0.22520799  0.73335305  1
  O  O2  1  0.77479201  0.77479201  0.26664695  1
  O  O3  1  0.77479201  0.77479201  0.73335305  1
  O  O4  1  0.74047806  0.25952194  0.25973829  1
  O  O5  1  0.74047806  0.25952194  0.74026171  1
  O  O6  1  0.25952194  0.74047806  0.25973829  1
  O  O7  1  0.25952194  0.74047806  0.74026171  1
  O  O8  1  -0.00000000  0.50000000  0.00000000  1
  O  O9  1  -0.00000000  0.50000000  0.50000000  1
  O  O10  1  0.50000000  -0.00000000  -0.00000000  1
  O  O11  1  0.50000000  -0.00000000  0.50000000  1
loop_
_geom_bond_atom_site_label_1
_geom_bond_atom_site_label_2
_geom_bond_distance
_geom_bond_site_symmetry_2
Na0 O8 2.816617 1_655
Na0 O10 2.816617 1_555
Na0 O10 2.816617 1_565
Na0 O8 2.816617 1_555
Na0 O4 2.825081 1_555
Na0 O6 2.825081 1_555
Na0 O7 2.825081 1_554
Na0 O5 2.825081 1_554
Nd0 O0 2.587275 1_555
Nd0 O1 2.587275 1_555
Nd0 O3 2.587275 1_445
Nd0 O2 2.587275 1_445
Nd0 O11 2.816617 1_555
Nd0 O9 2.816617 1_555
Nd0 O11 2.816617 1_455
Nd0 O9 2.816617 1_545
Nd0 O4 2.822050 1_455
Nd0 O5 2.822050 1_455
Nd0 O6 2.822050 1_545
Nd0 O7 2.822050 1_545
Nb0 O8 1.976327 1_555
Nb0 O4 1.994852 1_455
Nb0 O6 1.994852 1_555
Nb0 O0 2.008075 1_555
Nb0 O2 2.008075 1_455
Nb0 O9 2.019269 1_555
Nb1 O8 1.976327 1_556
Nb1 O5 1.994852 1_455
Nb1 O7 1.994852 1_555
Nb1 O3 2.008075 1_455
Nb1 O1 2.008075 1_555
Nb1 O9 2.019269 1_555
Nb2 O10 1.976327 1_556
Nb2 O7 1.994852 1_545
Nb2 O5 1.994852 1_555
Nb2 O3 2.008075 1_545
Nb2 O1 2.008075 1_555
Nb2 O11 2.019269 1_555
Nb3 O10 1.976327 1_555
Nb3 O6 1.994852 1_545
Nb3 O4 1.994852 1_555
Nb3 O0 2.008075 1_555
Nb3 O2 2.008075 1_545
Nb3 O11 2.019269 1_555
