# generated using pymatgen
data_Pm2MgS4
_symmetry_space_group_name_H-M   'P 1'
_cell_length_a   3.94482100
_cell_length_b   12.89227000
_cell_length_c   13.92799700
_cell_angle_alpha   90.00000000
_cell_angle_beta   90.00000000
_cell_angle_gamma   90.00000000
_symmetry_Int_Tables_number   1
_chemical_formula_structural   Pm2MgS4
_chemical_formula_sum   'Pm8 Mg4 S16'
_cell_volume   708.34585728
_cell_formula_units_Z   4
loop_
 _symmetry_equiv_pos_site_id
 _symmetry_equiv_pos_as_xyz
  1  'x, y, z'
loop_
 _atom_site_type_symbol
 _atom_site_label
 _atom_site_symmetry_multiplicity
 _atom_site_fract_x
 _atom_site_fract_y
 _atom_site_fract_z
 _atom_site_occupancy
  Pm  Pm0  1  0.25000000  0.12100300  0.07362400  1
  Pm  Pm1  1  0.75000000  0.87899700  0.92637600  1
  Pm  Pm2  1  0.75000000  0.37899700  0.57362400  1
  Pm  Pm3  1  0.25000000  0.62100300  0.42637600  1
  Pm  Pm4  1  0.25000000  0.13310400  0.70720500  1
  Pm  Pm5  1  0.75000000  0.86689600  0.29279500  1
  Pm  Pm6  1  0.75000000  0.36689600  0.20720500  1
  Pm  Pm7  1  0.25000000  0.63310400  0.79279500  1
  Mg  Mg0  1  0.75000000  0.10653000  0.46186800  1
  Mg  Mg1  1  0.25000000  0.89347000  0.53813200  1
  Mg  Mg2  1  0.25000000  0.39347000  0.96186800  1
  Mg  Mg3  1  0.75000000  0.60653000  0.03813200  1
  S  S0  1  0.75000000  0.00214900  0.61425300  1
  S  S1  1  0.25000000  0.99785100  0.38574700  1
  S  S2  1  0.25000000  0.49785100  0.11425300  1
  S  S3  1  0.75000000  0.50214900  0.88574700  1
  S  S4  1  0.25000000  0.02462300  0.88497600  1
  S  S5  1  0.75000000  0.97537700  0.11502400  1
  S  S6  1  0.75000000  0.47537700  0.38497600  1
  S  S7  1  0.25000000  0.52462300  0.61502400  1
  S  S8  1  0.25000000  0.22927700  0.24452800  1
  S  S9  1  0.75000000  0.77072300  0.75547200  1
  S  S10  1  0.75000000  0.27072300  0.74452800  1
  S  S11  1  0.25000000  0.72927700  0.25547200  1
  S  S12  1  0.75000000  0.26866800  0.01601600  1
  S  S13  1  0.25000000  0.73133200  0.98398400  1
  S  S14  1  0.25000000  0.23133200  0.51601600  1
  S  S15  1  0.75000000  0.76866800  0.48398400  1
loop_
_geom_bond_atom_site_label_1
_geom_bond_atom_site_label_2
_geom_bond_distance
_geom_bond_site_symmetry_2
Pm0 S8 2.759456 1_555
Pm0 S5 2.783471 1_545
Pm0 S5 2.783471 1_445
Pm0 S12 2.856292 1_455
Pm0 S12 2.856292 1_555
Pm0 S4 2.906483 1_554
Pm1 S9 2.759456 1_555
Pm1 S4 2.783471 1_565
Pm1 S4 2.783471 1_665
Pm1 S13 2.856292 1_555
Pm1 S13 2.856292 1_655
Pm1 S5 2.906483 1_556
Pm2 S10 2.759456 1_555
Pm2 S7 2.783471 1_555
Pm2 S7 2.783471 1_655
Pm2 S14 2.856292 1_655
Pm2 S14 2.856292 1_555
Pm2 S6 2.906483 1_555
Pm3 S11 2.759456 1_555
Pm3 S6 2.783471 1_555
Pm3 S6 2.783471 1_455
Pm3 S15 2.856292 1_455
Pm3 S15 2.856292 1_555
Pm3 S7 2.906483 1_555
Pm4 S10 2.703422 1_555
Pm4 S10 2.703422 1_455
Pm4 S4 2.843683 1_555
Pm4 S0 2.901183 1_455
Pm4 S0 2.901183 1_555
Pm4 S14 2.948670 1_555
Pm5 S11 2.703422 1_555
Pm5 S11 2.703422 1_655
Pm5 S5 2.843683 1_555
Pm5 S1 2.901183 1_555
Pm5 S1 2.901183 1_655
Pm5 S15 2.948670 1_555
Pm6 S8 2.703422 1_655
Pm6 S8 2.703422 1_555
Pm6 S6 2.843683 1_555
Pm6 S2 2.901183 1_555
Pm6 S2 2.901183 1_655
Pm6 S12 2.948670 1_555
Pm7 S9 2.703422 1_455
Pm7 S9 2.703422 1_555
Pm7 S7 2.843683 1_555
Pm7 S3 2.901183 1_455
Pm7 S3 2.901183 1_555
Pm7 S13 2.948670 1_555
Mg0 S0 2.513083 1_555
Mg0 S1 2.641513 1_645
Mg0 S1 2.641513 1_545
Mg0 S14 2.654807 1_555
Mg0 S14 2.654807 1_655
Mg1 S1 2.513083 1_555
Mg1 S0 2.641513 1_565
Mg1 S0 2.641513 1_465
Mg1 S15 2.654807 1_455
Mg1 S15 2.654807 1_555
Mg2 S2 2.513083 1_556
Mg2 S3 2.641513 1_455
Mg2 S3 2.641513 1_555
Mg2 S12 2.654807 1_556
Mg2 S12 2.654807 1_456
Mg3 S3 2.513083 1_554
Mg3 S2 2.641513 1_555
Mg3 S2 2.641513 1_655
Mg3 S13 2.654807 1_554
Mg3 S13 2.654807 1_654
