# generated using pymatgen
data_RbMg30SbO32
_symmetry_space_group_name_H-M   'P 1'
_cell_length_a   8.68207300
_cell_length_b   8.68207300
_cell_length_c   8.67733000
_cell_angle_alpha   90.00000000
_cell_angle_beta   90.00000000
_cell_angle_gamma   90.00000000
_symmetry_Int_Tables_number   1
_chemical_formula_structural   RbMg30SbO32
_chemical_formula_sum   'Rb1 Mg30 Sb1 O32'
_cell_volume   654.08317859
_cell_formula_units_Z   1
loop_
 _symmetry_equiv_pos_site_id
 _symmetry_equiv_pos_as_xyz
  1  'x, y, z'
loop_
 _atom_site_type_symbol
 _atom_site_label
 _atom_site_symmetry_multiplicity
 _atom_site_fract_x
 _atom_site_fract_y
 _atom_site_fract_z
 _atom_site_occupancy
  Rb  Rb0  1  0.00000000  0.00000000  0.00000000  1
  Mg  Mg0  1  0.50000000  0.00000000  0.00000000  1
  Mg  Mg1  1  0.00000000  0.50000000  0.00000000  1
  Mg  Mg2  1  0.00000000  0.00000000  0.50000000  1
  Mg  Mg3  1  0.50000000  0.00000000  0.50000000  1
  Mg  Mg4  1  0.00000000  0.50000000  0.50000000  1
  Mg  Mg5  1  0.50000000  0.50000000  0.50000000  1
  Mg  Mg6  1  0.24575900  0.24575900  0.00000000  1
  Mg  Mg7  1  0.75424100  0.24575900  0.00000000  1
  Mg  Mg8  1  0.24575900  0.75424100  0.00000000  1
  Mg  Mg9  1  0.75424100  0.75424100  0.00000000  1
  Mg  Mg10  1  0.24876800  0.24876800  0.50000000  1
  Mg  Mg11  1  0.75123200  0.24876800  0.50000000  1
  Mg  Mg12  1  0.24876800  0.75123200  0.50000000  1
  Mg  Mg13  1  0.75123200  0.75123200  0.50000000  1
  Mg  Mg14  1  0.25174800  0.00000000  0.25375800  1
  Mg  Mg15  1  0.74825200  0.00000000  0.25375800  1
  Mg  Mg16  1  0.24305900  0.50000000  0.25629600  1
  Mg  Mg17  1  0.75694100  0.50000000  0.25629600  1
  Mg  Mg18  1  0.25174800  0.00000000  0.74624200  1
  Mg  Mg19  1  0.74825200  0.00000000  0.74624200  1
  Mg  Mg20  1  0.24305900  0.50000000  0.74370400  1
  Mg  Mg21  1  0.75694100  0.50000000  0.74370400  1
  Mg  Mg22  1  0.00000000  0.25174800  0.25375800  1
  Mg  Mg23  1  0.50000000  0.24305900  0.25629600  1
  Mg  Mg24  1  0.00000000  0.74825200  0.25375800  1
  Mg  Mg25  1  0.50000000  0.75694100  0.25629600  1
  Mg  Mg26  1  0.00000000  0.25174800  0.74624200  1
  Mg  Mg27  1  0.50000000  0.24305900  0.74370400  1
  Mg  Mg28  1  0.00000000  0.74825200  0.74624200  1
  Mg  Mg29  1  0.50000000  0.75694100  0.74370400  1
  Sb  Sb0  1  0.50000000  0.50000000  0.00000000  1
  O  O0  1  0.00000000  0.00000000  0.27898200  1
  O  O1  1  0.50000000  0.00000000  0.25725900  1
  O  O2  1  0.00000000  0.50000000  0.25725900  1
  O  O3  1  0.50000000  0.50000000  0.26265900  1
  O  O4  1  0.00000000  0.00000000  0.72101800  1
  O  O5  1  0.50000000  0.00000000  0.74274100  1
  O  O6  1  0.00000000  0.50000000  0.74274100  1
  O  O7  1  0.50000000  0.50000000  0.73734100  1
  O  O8  1  0.25069600  0.25069600  0.24897100  1
  O  O9  1  0.74930400  0.25069600  0.24897100  1
  O  O10  1  0.25069600  0.74930400  0.24897100  1
  O  O11  1  0.74930400  0.74930400  0.24897100  1
  O  O12  1  0.25069600  0.25069600  0.75102900  1
  O  O13  1  0.74930400  0.25069600  0.75102900  1
  O  O14  1  0.25069600  0.74930400  0.75102900  1
  O  O15  1  0.74930400  0.74930400  0.75102900  1
  O  O16  1  0.27814100  0.00000000  0.00000000  1
  O  O17  1  0.72185900  0.00000000  0.00000000  1
  O  O18  1  0.24207700  0.50000000  0.00000000  1
  O  O19  1  0.75792300  0.50000000  0.00000000  1
  O  O20  1  0.25570600  0.00000000  0.50000000  1
  O  O21  1  0.74429400  0.00000000  0.50000000  1
  O  O22  1  0.25044700  0.50000000  0.50000000  1
  O  O23  1  0.74955300  0.50000000  0.50000000  1
  O  O24  1  0.00000000  0.27814100  0.00000000  1
  O  O25  1  0.50000000  0.24207700  0.00000000  1
  O  O26  1  0.00000000  0.72185900  0.00000000  1
  O  O27  1  0.50000000  0.75792300  0.00000000  1
  O  O28  1  0.00000000  0.25570600  0.50000000  1
  O  O29  1  0.50000000  0.25044700  0.50000000  1
  O  O30  1  0.00000000  0.74429400  0.50000000  1
  O  O31  1  0.50000000  0.74955300  0.50000000  1
loop_
_geom_bond_atom_site_label_1
_geom_bond_atom_site_label_2
_geom_bond_distance
_geom_bond_site_symmetry_2
Mg0 O17 1.926196 1_555
Mg0 O16 1.926196 1_555
Mg0 O27 2.101730 1_545
Mg0 O25 2.101730 1_555
Mg0 O1 2.232321 1_555
Mg0 O5 2.232321 1_554
Mg1 O26 1.926196 1_555
Mg1 O24 1.926196 1_555
Mg1 O18 2.101730 1_555
Mg1 O19 2.101730 1_455
Mg1 O2 2.232321 1_555
Mg1 O6 2.232321 1_554
Mg2 O4 1.917846 1_555
Mg2 O0 1.917846 1_555
Mg2 O21 2.220058 1_455
Mg2 O20 2.220058 1_555
Mg2 O28 2.220058 1_555
Mg2 O30 2.220058 1_545
Mg3 O1 2.106344 1_555
Mg3 O5 2.106344 1_555
Mg3 O20 2.120978 1_555
Mg3 O21 2.120978 1_555
Mg3 O29 2.174399 1_555
Mg3 O31 2.174399 1_545
Mg4 O6 2.106344 1_555
Mg4 O2 2.106344 1_555
Mg4 O28 2.120978 1_555
Mg4 O30 2.120978 1_555
Mg4 O22 2.174399 1_555
Mg4 O23 2.174399 1_455
Mg5 O7 2.059486 1_555
Mg5 O3 2.059486 1_555
Mg5 O31 2.166637 1_555
Mg5 O23 2.166637 1_555
Mg5 O29 2.166637 1_555
Mg5 O22 2.166637 1_555
Mg6 O24 2.152140 1_555
Mg6 O16 2.152140 1_555
Mg6 O8 2.161254 1_555
Mg6 O12 2.161254 1_554
Mg6 O25 2.207570 1_555
Mg6 O18 2.207570 1_555
Mg7 O17 2.152140 1_555
Mg7 O24 2.152140 1_655
Mg7 O9 2.161254 1_555
Mg7 O13 2.161254 1_554
Mg7 O25 2.207570 1_555
Mg7 O19 2.207570 1_555
Mg8 O26 2.152140 1_555
Mg8 O16 2.152140 1_565
Mg8 O10 2.161254 1_555
Mg8 O14 2.161254 1_554
Mg8 O18 2.207570 1_555
Mg8 O27 2.207570 1_555
Mg9 O26 2.152140 1_655
Mg9 O17 2.152140 1_565
Mg9 O11 2.161254 1_555
Mg9 O15 2.161254 1_554
Mg9 O27 2.207570 1_555
Mg9 O19 2.207570 1_555
Mg10 O28 2.160662 1_555
Mg10 O20 2.160662 1_555
Mg10 O12 2.178390 1_555
Mg10 O8 2.178390 1_555
Mg10 O29 2.181263 1_555
Mg10 O22 2.181263 1_555
Mg11 O28 2.160662 1_655
Mg11 O21 2.160662 1_555
Mg11 O13 2.178390 1_555
Mg11 O9 2.178390 1_555
Mg11 O29 2.181263 1_555
Mg11 O23 2.181263 1_555
Mg12 O30 2.160662 1_555
Mg12 O20 2.160662 1_565
Mg12 O14 2.178390 1_555
Mg12 O10 2.178390 1_555
Mg12 O22 2.181263 1_555
Mg12 O31 2.181263 1_555
Mg13 O21 2.160662 1_565
Mg13 O30 2.160662 1_655
Mg13 O15 2.178390 1_555
Mg13 O11 2.178390 1_555
Mg13 O31 2.181263 1_555
Mg13 O23 2.181263 1_555
Mg14 O20 2.136999 1_555
Mg14 O1 2.155556 1_555
Mg14 O8 2.176976 1_555
Mg14 O10 2.176976 1_545
Mg14 O0 2.196626 1_555
Mg14 O16 2.213833 1_555
Mg15 O21 2.136999 1_555
Mg15 O1 2.155556 1_555
Mg15 O9 2.176976 1_555
Mg15 O11 2.176976 1_545
Mg15 O0 2.196626 1_655
Mg15 O17 2.213833 1_555
Mg16 O2 2.110273 1_555
Mg16 O22 2.115673 1_555
Mg16 O10 2.166423 1_555
Mg16 O8 2.166423 1_555
Mg16 O18 2.223981 1_555
Mg16 O3 2.231464 1_555
Mg17 O2 2.110273 1_655
Mg17 O23 2.115673 1_555
Mg17 O11 2.166423 1_555
Mg17 O9 2.166423 1_555
Mg17 O19 2.223981 1_555
Mg17 O3 2.231464 1_555
Mg18 O20 2.136999 1_555
Mg18 O5 2.155556 1_555
Mg18 O12 2.176976 1_555
Mg18 O14 2.176976 1_545
Mg18 O4 2.196626 1_555
Mg18 O16 2.213833 1_556
Mg19 O21 2.136999 1_555
Mg19 O5 2.155556 1_555
Mg19 O13 2.176976 1_555
Mg19 O15 2.176976 1_545
Mg19 O4 2.196626 1_655
Mg19 O17 2.213833 1_556
Mg20 O6 2.110273 1_555
Mg20 O22 2.115673 1_555
Mg20 O14 2.166423 1_555
Mg20 O12 2.166423 1_555
Mg20 O18 2.223981 1_556
Mg20 O7 2.231464 1_555
Mg21 O6 2.110273 1_655
Mg21 O23 2.115673 1_555
Mg21 O15 2.166423 1_555
Mg21 O13 2.166423 1_555
Mg21 O19 2.223981 1_556
Mg21 O7 2.231464 1_555
Mg22 O28 2.136999 1_555
Mg22 O2 2.155556 1_555
Mg22 O8 2.176976 1_555
Mg22 O9 2.176976 1_455
Mg22 O0 2.196626 1_555
Mg22 O24 2.213833 1_555
Mg23 O1 2.110273 1_555
Mg23 O29 2.115673 1_555
Mg23 O9 2.166423 1_555
Mg23 O8 2.166423 1_555
Mg23 O25 2.223981 1_555
Mg23 O3 2.231464 1_555
Mg24 O30 2.136999 1_555
Mg24 O2 2.155556 1_555
Mg24 O10 2.176976 1_555
Mg24 O11 2.176976 1_455
Mg24 O0 2.196626 1_565
Mg24 O26 2.213833 1_555
Mg25 O1 2.110273 1_565
Mg25 O31 2.115673 1_555
Mg25 O11 2.166423 1_555
Mg25 O10 2.166423 1_555
Mg25 O27 2.223981 1_555
Mg25 O3 2.231464 1_555
Mg26 O28 2.136999 1_555
Mg26 O6 2.155556 1_555
Mg26 O12 2.176976 1_555
Mg26 O13 2.176976 1_455
Mg26 O4 2.196626 1_555
Mg26 O24 2.213833 1_556
Mg27 O5 2.110273 1_555
Mg27 O29 2.115673 1_555
Mg27 O13 2.166423 1_555
Mg27 O12 2.166423 1_555
Mg27 O25 2.223981 1_556
Mg27 O7 2.231464 1_555
Mg28 O30 2.136999 1_555
Mg28 O6 2.155556 1_555
Mg28 O14 2.176976 1_555
Mg28 O15 2.176976 1_455
Mg28 O4 2.196626 1_565
Mg28 O26 2.213833 1_556
Mg29 O5 2.110273 1_565
Mg29 O31 2.115673 1_555
Mg29 O15 2.166423 1_555
Mg29 O14 2.166423 1_555
Mg29 O27 2.223981 1_556
Mg29 O7 2.231464 1_555
O0 Rb0 2.420819 1_555
O3 Sb0 2.279179 1_555
O4 Rb0 2.420819 1_556
O7 Sb0 2.279179 1_556
O16 Rb0 2.414840 1_555
O17 Rb0 2.414840 1_655
O18 Sb0 2.239306 1_555
O19 Sb0 2.239306 1_555
O24 Rb0 2.414840 1_555
O25 Sb0 2.239306 1_555
O26 Rb0 2.414840 1_565
O27 Sb0 2.239306 1_555
