# generated using pymatgen
data_LaCrFeO6
_symmetry_space_group_name_H-M   'P 1'
_cell_length_a   5.47912000
_cell_length_b   5.33323300
_cell_length_c   9.31631792
_cell_angle_alpha   55.61384176
_cell_angle_beta   90.00000000
_cell_angle_gamma   90.00000000
_symmetry_Int_Tables_number   1
_chemical_formula_structural   LaCrFeO6
_chemical_formula_sum   'La2 Cr2 Fe2 O12'
_cell_volume   224.66280803
_cell_formula_units_Z   2
loop_
 _symmetry_equiv_pos_site_id
 _symmetry_equiv_pos_as_xyz
  1  'x, y, z'
loop_
 _atom_site_type_symbol
 _atom_site_label
 _atom_site_symmetry_multiplicity
 _atom_site_fract_x
 _atom_site_fract_y
 _atom_site_fract_z
 _atom_site_occupancy
  La  La0  1  0.21209900  0.74606200  0.24598200  1
  La  La1  1  0.78790100  0.74606200  0.74598200  1
  Cr  Cr0  1  0.73056000  0.50183900  0.48881000  1
  Cr  Cr1  1  0.26944000  0.50183900  0.98881000  1
  Fe  Fe0  1  0.74989900  0.99526900  0.99261100  1
  Fe  Fe1  1  0.25010100  0.99526900  0.49261100  1
  O  O0  1  0.25002500  0.77863000  0.76362800  1
  O  O1  1  0.02587100  0.26999700  0.98295900  1
  O  O2  1  0.01328600  0.70492300  0.52620600  1
  O  O3  1  0.98671400  0.70492300  0.02620600  1
  O  O4  1  0.97412900  0.26999700  0.48295900  1
  O  O5  1  0.74997500  0.77863000  0.26362800  1
  O  O6  1  0.74342100  0.20372800  0.74335900  1
  O  O7  1  0.54224400  0.73402000  0.52930400  1
  O  O8  1  0.51352100  0.30494400  0.97732900  1
  O  O9  1  0.48647900  0.30494400  0.47732900  1
  O  O10  1  0.45775600  0.73402000  0.02930400  1
  O  O11  1  0.25657900  0.20372800  0.24335900  1
loop_
_geom_bond_atom_site_label_1
_geom_bond_atom_site_label_2
_geom_bond_distance
_geom_bond_site_symmetry_2
La0 O11 2.439327 1_565
La0 O10 2.457060 1_555
La0 O3 2.504563 1_455
La0 O5 2.549635 1_455
La0 O4 2.586325 1_455
La0 O9 2.590894 1_555
La0 O1 2.668246 1_564
La0 O2 2.720900 1_555
La0 O11 2.916465 1_555
La0 O5 2.962224 1_555
La0 O8 3.074022 1_564
La0 O7 3.170463 1_555
La1 O6 2.439327 1_565
La1 O7 2.457060 1_555
La1 O2 2.504563 1_655
La1 O0 2.549635 1_655
La1 O1 2.586325 1_655
La1 O8 2.590894 1_555
La1 O4 2.668246 1_565
La1 O3 2.720900 1_556
La1 O6 2.916465 1_555
La1 O0 2.962224 1_555
La1 O9 3.074022 1_565
La1 O10 3.170463 1_556
Cr0 O9 1.740544 1_555
Cr0 O5 1.758834 1_555
Cr0 O7 1.807741 1_555
Cr0 O4 1.840913 1_555
Cr0 O6 1.974281 1_555
Cr0 O2 2.029870 1_655
Cr1 O8 1.740544 1_555
Cr1 O0 1.758834 1_555
Cr1 O10 1.807741 1_556
Cr1 O1 1.840913 1_555
Cr1 O11 1.974281 1_556
Cr1 O3 2.029870 1_456
Fe0 O3 1.905764 1_556
Fe0 O6 1.927025 1_565
Fe0 O10 2.020484 1_556
Fe0 O8 2.039547 1_565
Fe0 O1 2.071821 1_665
Fe0 O5 2.101153 1_556
Fe1 O2 1.905764 1_555
Fe1 O11 1.927025 1_565
Fe1 O7 2.020484 1_555
Fe1 O9 2.039547 1_565
Fe1 O4 2.071821 1_465
Fe1 O0 2.101153 1_555
