# generated using pymatgen
data_Pd3Se2S
_symmetry_space_group_name_H-M   'P 1'
_cell_length_a   11.47873273
_cell_length_b   11.47873273
_cell_length_c   6.97782851
_cell_angle_alpha   90.00000000
_cell_angle_beta   90.00000000
_cell_angle_gamma   90.00000000
_symmetry_Int_Tables_number   1
_chemical_formula_structural   Pd3Se2S
_chemical_formula_sum   'Pd24 Se16 S8'
_cell_volume   919.40779115
_cell_formula_units_Z   8
loop_
 _symmetry_equiv_pos_site_id
 _symmetry_equiv_pos_as_xyz
  1  'x, y, z'
loop_
 _atom_site_type_symbol
 _atom_site_label
 _atom_site_symmetry_multiplicity
 _atom_site_fract_x
 _atom_site_fract_y
 _atom_site_fract_z
 _atom_site_occupancy
  Pd  Pd0  1  0.36030399  0.22283331  -0.00000000  1
  Pd  Pd1  1  0.63969601  0.77716669  -0.00000000  1
  Pd  Pd2  1  0.22283331  0.63969601  0.50000000  1
  Pd  Pd3  1  0.86030399  0.27716669  -0.00000000  1
  Pd  Pd4  1  0.77716669  0.36030399  0.50000000  1
  Pd  Pd5  1  0.13969601  0.72283331  -0.00000000  1
  Pd  Pd6  1  0.72283331  0.86030399  0.50000000  1
  Pd  Pd7  1  0.27716669  0.13969601  0.50000000  1
  Pd  Pd8  1  0.60843680  0.10843680  0.25000000  1
  Pd  Pd9  1  0.39156320  0.89156320  0.75000000  1
  Pd  Pd10  1  0.39156320  0.89156320  0.25000000  1
  Pd  Pd11  1  0.10843680  0.39156320  0.75000000  1
  Pd  Pd12  1  0.60843680  0.10843680  0.75000000  1
  Pd  Pd13  1  0.89156320  0.60843680  0.25000000  1
  Pd  Pd14  1  0.89156320  0.60843680  0.75000000  1
  Pd  Pd15  1  0.10843680  0.39156320  0.25000000  1
  Pd  Pd16  1  0.13109632  0.04480618  -0.00000000  1
  Pd  Pd17  1  0.86890368  0.95519382  -0.00000000  1
  Pd  Pd18  1  0.04480618  0.86890368  0.50000000  1
  Pd  Pd19  1  0.63109632  0.45519382  -0.00000000  1
  Pd  Pd20  1  0.95519382  0.13109632  0.50000000  1
  Pd  Pd21  1  0.36890368  0.54480618  -0.00000000  1
  Pd  Pd22  1  0.54480618  0.63109632  0.50000000  1
  Pd  Pd23  1  0.45519382  0.36890368  0.50000000  1
  Se  Se0  1  0.11330370  0.17819405  0.27697800  1
  Se  Se1  1  0.88669630  0.82180595  0.72302200  1
  Se  Se2  1  0.88669630  0.82180595  0.27697800  1
  Se  Se3  1  0.17819405  0.88669630  0.77697800  1
  Se  Se4  1  0.61330370  0.32180595  0.72302200  1
  Se  Se5  1  0.11330370  0.17819405  0.72302200  1
  Se  Se6  1  0.82180595  0.11330370  0.22302200  1
  Se  Se7  1  0.38669630  0.67819405  0.27697800  1
  Se  Se8  1  0.82180595  0.11330370  0.77697800  1
  Se  Se9  1  0.38669630  0.67819405  0.72302200  1
  Se  Se10  1  0.17819405  0.88669630  0.22302200  1
  Se  Se11  1  0.61330370  0.32180595  0.27697800  1
  Se  Se12  1  0.67819405  0.61330370  0.22302200  1
  Se  Se13  1  0.32180595  0.38669630  0.77697800  1
  Se  Se14  1  0.32180595  0.38669630  0.22302200  1
  Se  Se15  1  0.67819405  0.61330370  0.77697800  1
  S  S0  1  0.09516601  0.59516601  0.25000000  1
  S  S1  1  0.90483399  0.40483399  0.75000000  1
  S  S2  1  0.90483399  0.40483399  0.25000000  1
  S  S3  1  0.59516601  0.90483399  0.75000000  1
  S  S4  1  0.09516601  0.59516601  0.75000000  1
  S  S5  1  0.40483399  0.09516601  0.25000000  1
  S  S6  1  0.40483399  0.09516601  0.75000000  1
  S  S7  1  0.59516601  0.90483399  0.25000000  1
loop_
_geom_bond_atom_site_label_1
_geom_bond_atom_site_label_2
_geom_bond_distance
_geom_bond_site_symmetry_2
Pd0 S5 2.334946 1_555
Pd0 S6 2.334946 1_554
Pd0 Se13 2.480928 1_554
Pd0 Se14 2.480928 1_555
Pd1 S3 2.334946 1_554
Pd1 S7 2.334946 1_555
Pd1 Se15 2.480928 1_554
Pd1 Se12 2.480928 1_555
Pd2 S4 2.334946 1_555
Pd2 S0 2.334946 1_555
Pd2 Se9 2.480928 1_555
Pd2 Se7 2.480928 1_555
Pd3 S1 2.334946 1_554
Pd3 S2 2.334946 1_555
Pd3 Se6 2.480928 1_555
Pd3 Se8 2.480928 1_554
Pd4 S2 2.334946 1_555
Pd4 S1 2.334946 1_555
Pd4 Se4 2.480928 1_555
Pd4 Se11 2.480928 1_555
Pd5 S4 2.334946 1_554
Pd5 S0 2.334946 1_555
Pd5 Se3 2.480928 1_554
Pd5 Se10 2.480928 1_555
Pd6 S7 2.334946 1_555
Pd6 S3 2.334946 1_555
Pd6 Se1 2.480928 1_555
Pd6 Se2 2.480928 1_555
Pd7 S6 2.334946 1_555
Pd7 S5 2.334946 1_555
Pd7 Se5 2.480928 1_555
Pd7 Se0 2.480928 1_555
Pd8 S5 2.342061 1_555
Pd8 S7 2.342061 1_545
Pd8 Se6 2.457066 1_555
Pd8 Se11 2.457066 1_555
Pd9 S6 2.342061 1_565
Pd9 S3 2.342061 1_555
Pd9 Se3 2.457066 1_555
Pd9 Se9 2.457066 1_555
Pd10 S5 2.342061 1_565
Pd10 S7 2.342061 1_555
Pd10 Se10 2.457066 1_555
Pd10 Se7 2.457066 1_555
Pd11 S4 2.342061 1_555
Pd11 S1 2.342061 1_455
Pd11 Se13 2.457066 1_555
Pd11 Se5 2.457066 1_555
Pd12 S6 2.342061 1_555
Pd12 S3 2.342061 1_545
Pd12 Se8 2.457066 1_555
Pd12 Se4 2.457066 1_555
Pd13 S2 2.342061 1_555
Pd13 S0 2.342061 1_655
Pd13 Se12 2.457066 1_555
Pd13 Se2 2.457066 1_555
Pd14 S1 2.342061 1_555
Pd14 S4 2.342061 1_655
Pd14 Se15 2.457066 1_555
Pd14 Se1 2.457066 1_555
Pd15 S0 2.342061 1_555
Pd15 S2 2.342061 1_455
Pd15 Se14 2.457066 1_555
Pd15 Se0 2.457066 1_555
Pd16 Se3 2.451107 1_544
Pd16 Se10 2.451107 1_545
Pd16 Se0 2.474147 1_555
Pd16 Se5 2.474147 1_554
Pd17 Se6 2.451107 1_565
Pd17 Se8 2.451107 1_564
Pd17 Se2 2.474147 1_555
Pd17 Se1 2.474147 1_554
Pd18 Se1 2.451107 1_455
Pd18 Se2 2.451107 1_455
Pd18 Se3 2.474147 1_555
Pd18 Se10 2.474147 1_555
Pd19 Se15 2.451107 1_554
Pd19 Se12 2.451107 1_555
Pd19 Se11 2.474147 1_555
Pd19 Se4 2.474147 1_554
Pd20 Se5 2.451107 1_655
Pd20 Se0 2.451107 1_655
Pd20 Se8 2.474147 1_555
Pd20 Se6 2.474147 1_555
Pd21 Se14 2.451107 1_555
Pd21 Se13 2.451107 1_554
Pd21 Se7 2.474147 1_555
Pd21 Se9 2.474147 1_554
Pd22 Se9 2.451107 1_555
Pd22 Se7 2.451107 1_555
Pd22 Se15 2.474147 1_555
Pd22 Se12 2.474147 1_555
Pd23 Se4 2.451107 1_555
Pd23 Se11 2.451107 1_555
Pd23 Se13 2.474147 1_555
Pd23 Se14 2.474147 1_555
