# generated using pymatgen
data_Ba3LaV3O12
_symmetry_space_group_name_H-M   'P 1'
_cell_length_a   11.46887953
_cell_length_b   11.46887953
_cell_length_c   9.69917793
_cell_angle_alpha   85.75306078
_cell_angle_beta   85.75306078
_cell_angle_gamma   29.12025647
_symmetry_Int_Tables_number   1
_chemical_formula_structural   Ba3LaV3O12
_chemical_formula_sum   'Ba6 La2 V6 O24'
_cell_volume   619.03266759
_cell_formula_units_Z   2
loop_
 _symmetry_equiv_pos_site_id
 _symmetry_equiv_pos_as_xyz
  1  'x, y, z'
loop_
 _atom_site_type_symbol
 _atom_site_label
 _atom_site_symmetry_multiplicity
 _atom_site_fract_x
 _atom_site_fract_y
 _atom_site_fract_z
 _atom_site_occupancy
  Ba  Ba0  1  0.66181300  0.66181300  0.32488900  1
  Ba  Ba1  1  0.00387900  0.00387900  0.01373800  1
  Ba  Ba2  1  0.33254200  0.33254200  0.65991600  1
  Ba  Ba3  1  0.80136400  0.80136400  0.99417100  1
  Ba  Ba4  1  0.13725100  0.13725100  0.66216400  1
  Ba  Ba5  1  0.19568600  0.19568600  0.01035700  1
  La  La0  1  0.51495100  0.51495100  0.63430000  1
  La  La1  1  0.87762300  0.87762300  0.33216800  1
  V  V0  1  0.60321400  0.60321400  0.98082200  1
  V  V1  1  0.93772600  0.93772600  0.66163600  1
  V  V2  1  0.27399100  0.27399100  0.32146900  1
  V  V3  1  0.73399200  0.73399200  0.66505000  1
  V  V4  1  0.05477400  0.05477400  0.36226200  1
  V  V5  1  0.39715200  0.39715200  0.01481800  1
  O  O0  1  0.98097500  0.49748800  0.77115700  1
  O  O1  1  0.30916700  0.82571900  0.46726400  1
  O  O2  1  0.65478300  0.14464800  0.11385900  1
  O  O3  1  0.49748800  0.98097500  0.77115700  1
  O  O4  1  0.82571900  0.30916700  0.46726400  1
  O  O5  1  0.14464800  0.65478300  0.11385900  1
  O  O6  1  0.66198900  0.66198900  0.60588400  1
  O  O7  1  0.98302500  0.98302500  0.30046900  1
  O  O8  1  0.32634000  0.32634000  0.94962100  1
  O  O9  1  0.34500600  0.84567600  0.88246500  1
  O  O10  1  0.68223000  0.18374500  0.56029300  1
  O  O11  1  0.01618500  0.50982100  0.22153600  1
  O  O12  1  0.84567600  0.34500600  0.88246500  1
  O  O13  1  0.18374500  0.68223000  0.56029300  1
  O  O14  1  0.50982100  0.01618500  0.22153600  1
  O  O15  1  0.67571600  0.67571600  0.04560400  1
  O  O16  1  0.00846100  0.00846100  0.72397300  1
  O  O17  1  0.34612600  0.34612600  0.38013500  1
  O  O18  1  0.22075100  0.22075100  0.46036900  1
  O  O19  1  0.55045800  0.55045800  0.11706300  1
  O  O20  1  0.88167600  0.88167600  0.79102200  1
  O  O21  1  0.10889300  0.10889300  0.22531000  1
  O  O22  1  0.45179300  0.45179300  0.87191600  1
  O  O23  1  0.79377500  0.79377500  0.53176100  1
loop_
_geom_bond_atom_site_label_1
_geom_bond_atom_site_label_2
_geom_bond_distance
_geom_bond_site_symmetry_2
Ba0 O15 2.702797 1_555
Ba0 O6 2.725722 1_555
Ba0 O14 2.799760 1_565
Ba0 O11 2.799760 1_655
Ba0 O1 2.841101 1_555
Ba0 O4 2.841101 1_555
Ba1 O12 2.724217 1_454
Ba1 O9 2.724217 1_544
Ba1 O7 2.784167 1_445
Ba1 O16 2.804534 1_554
Ba1 O2 2.818171 1_455
Ba1 O5 2.818171 1_545
Ba2 O17 2.707322 1_555
Ba2 O0 2.707654 1_455
Ba2 O3 2.707654 1_545
Ba2 O13 2.764509 1_555
Ba2 O10 2.764509 1_555
Ba2 O8 2.802730 1_555
Ba3 O20 2.554197 1_555
Ba3 O14 2.726271 1_566
Ba3 O11 2.726271 1_656
Ba3 O15 2.795953 1_556
Ba3 O2 2.915149 1_566
Ba3 O5 2.915149 1_656
Ba3 O8 2.961506 1_655
Ba3 O8 2.961506 1_565
Ba3 O3 2.996898 1_555
Ba3 O0 2.996898 1_555
Ba4 O18 2.590778 1_555
Ba4 O9 2.683252 1_545
Ba4 O12 2.683252 1_455
Ba4 O16 2.876208 1_555
Ba4 O1 2.892521 1_545
Ba4 O4 2.892521 1_455
Ba4 O0 2.971137 1_455
Ba4 O3 2.971137 1_545
Ba4 O6 2.977707 1_455
Ba4 O6 2.977707 1_545
Ba5 O21 2.728528 1_555
Ba5 O0 2.862131 1_454
Ba5 O3 2.862131 1_544
Ba5 O8 2.915371 1_554
Ba5 O15 2.933130 1_455
Ba5 O15 2.933130 1_545
Ba5 O11 2.987149 1_555
Ba5 O14 2.987149 1_555
Ba5 O12 2.999537 1_454
Ba5 O9 2.999537 1_544
La0 O1 2.431477 1_555
La0 O4 2.431477 1_555
La0 O13 2.468205 1_555
La0 O10 2.468205 1_555
La0 O22 2.604446 1_555
La1 O7 2.336712 1_555
La1 O5 2.561241 1_655
La1 O2 2.561241 1_565
La1 O23 2.580980 1_555
La1 O13 2.985560 1_655
La1 O10 2.985560 1_565
La1 O17 2.994771 1_655
La1 O17 2.994771 1_565
La1 O11 3.190015 1_655
La1 O14 3.190015 1_565
O0 V3 1.741909 1_555
O1 V4 1.761557 1_565
O2 V5 1.760042 1_555
O3 V3 1.741909 1_555
O4 V4 1.761557 1_655
O5 V5 1.760042 1_555
O6 V3 1.739265 1_555
O7 V4 1.744320 1_665
O8 V5 1.738826 1_556
O9 V0 1.746418 1_555
O10 V1 1.756114 1_545
O11 V2 1.749531 1_555
O12 V0 1.746418 1_555
O13 V1 1.756114 1_455
O14 V2 1.749531 1_555
O15 V0 1.772133 1_554
O16 V1 1.725398 1_445
O17 V2 1.740099 1_555
O18 V2 1.722907 1_555
O19 V0 1.697390 1_554
O20 V1 1.698342 1_555
O21 V4 1.721575 1_555
O22 V5 1.770700 1_556
O23 V3 1.780543 1_555
