# generated using pymatgen
data_Na3Sr3GaP4
_symmetry_space_group_name_H-M   'P 1'
_cell_length_a   9.43028716
_cell_length_b   9.43028716
_cell_length_c   7.40744600
_cell_angle_alpha   90.00000000
_cell_angle_beta   90.00000000
_cell_angle_gamma   119.99999409
_symmetry_Int_Tables_number   1
_chemical_formula_structural   Na3Sr3GaP4
_chemical_formula_sum   'Na6 Sr6 Ga2 P8'
_cell_volume   570.49124853
_cell_formula_units_Z   2
loop_
 _symmetry_equiv_pos_site_id
 _symmetry_equiv_pos_as_xyz
  1  'x, y, z'
loop_
 _atom_site_type_symbol
 _atom_site_label
 _atom_site_symmetry_multiplicity
 _atom_site_fract_x
 _atom_site_fract_y
 _atom_site_fract_z
 _atom_site_occupancy
  Na  Na0  1  0.13478700  0.86521300  0.16982900  1
  Na  Na1  1  0.26957300  0.13478700  0.66982900  1
  Na  Na2  1  0.86521300  0.73042700  0.66982900  1
  Na  Na3  1  0.13478700  0.26957300  0.16982900  1
  Na  Na4  1  0.73042700  0.86521300  0.16982900  1
  Na  Na5  1  0.86521300  0.13478700  0.66982900  1
  Sr  Sr0  1  0.95401800  0.47700900  0.99943700  1
  Sr  Sr1  1  0.52299100  0.04598200  0.99943700  1
  Sr  Sr2  1  0.47700900  0.95401800  0.49943700  1
  Sr  Sr3  1  0.04598200  0.52299100  0.49943700  1
  Sr  Sr4  1  0.52299100  0.47700900  0.99943700  1
  Sr  Sr5  1  0.47700900  0.52299100  0.49943700  1
  Ga  Ga0  1  0.66666700  0.33333300  0.37527600  1
  Ga  Ga1  1  0.33333300  0.66666700  0.87527600  1
  P  P0  1  0.33333300  0.66666700  0.21486900  1
  P  P1  1  0.80936500  0.19063500  0.28001900  1
  P  P2  1  0.61873000  0.80936500  0.78001900  1
  P  P3  1  0.19063500  0.38127000  0.78001900  1
  P  P4  1  0.80936500  0.61873000  0.28001900  1
  P  P5  1  0.66666700  0.33333300  0.71486900  1
  P  P6  1  0.38127000  0.19063500  0.28001900  1
  P  P7  1  0.19063500  0.80936500  0.78001900  1
loop_
_geom_bond_atom_site_label_1
_geom_bond_atom_site_label_2
_geom_bond_distance
_geom_bond_site_symmetry_2
Na0 P6 2.890255 1_565
Na0 P4 2.890255 1_455
Na0 P7 3.028161 1_554
Na0 P0 3.260114 1_555
Na1 P3 2.890248 1_555
Na1 P7 2.890257 1_545
Na1 P6 3.028163 1_555
Na1 P5 3.260131 1_555
Na2 P2 2.890248 1_555
Na2 P7 2.890257 1_655
Na2 P4 3.028163 1_555
Na2 P5 3.260131 1_555
Na3 P6 2.890248 1_555
Na3 P1 2.890257 1_455
Na3 P3 3.028163 1_554
Na3 P0 3.260131 1_555
Na4 P4 2.890248 1_555
Na4 P1 2.890257 1_565
Na4 P2 3.028163 1_554
Na4 P0 3.260131 1_555
Na5 P3 2.890255 1_655
Na5 P2 2.890255 1_545
Na5 P1 3.028161 1_555
Na5 P5 3.260114 1_555
Ga0 P1 2.435257 1_555
Ga0 P6 2.435265 1_555
Ga0 P4 2.435265 1_555
Ga0 P5 2.515517 1_555
Ga0 Sr3 3.231461 1_655
Ga0 Sr2 3.231461 1_545
Ga0 Sr5 3.231469 1_555
Ga1 P7 2.435257 1_555
Ga1 P3 2.435265 1_555
Ga1 P2 2.435265 1_555
Ga1 P0 2.515517 1_556
Ga1 Sr1 3.231461 1_565
Ga1 Sr0 3.231461 1_455
Ga1 Sr4 3.231469 1_555
P0 Sr2 3.154458 1_555
P0 Sr3 3.154458 1_555
P0 Sr5 3.154464 1_555
P0 Sr1 3.484687 1_564
P0 Sr0 3.484687 1_454
P0 Sr4 3.484694 1_554
P1 Sr0 3.128867 1_554
P1 Sr1 3.128867 1_554
P1 Sr3 3.232707 1_655
P1 Sr2 3.232707 1_545
P2 Sr2 3.128867 1_555
P2 Sr5 3.128867 1_555
P2 Sr1 3.232707 1_565
P2 Sr4 3.232707 1_555
P3 Sr3 3.128867 1_555
P3 Sr5 3.128867 1_555
P3 Sr0 3.232707 1_455
P3 Sr4 3.232707 1_555
P4 Sr0 3.128867 1_554
P4 Sr4 3.128867 1_554
P4 Sr3 3.232707 1_655
P4 Sr5 3.232707 1_555
P5 Sr0 3.154458 1_555
P5 Sr1 3.154458 1_555
P5 Sr4 3.154464 1_555
P5 Sr3 3.484687 1_655
P5 Sr2 3.484687 1_545
P5 Sr5 3.484694 1_555
P6 Sr1 3.128867 1_554
P6 Sr4 3.128867 1_554
P6 Sr2 3.232707 1_545
P6 Sr5 3.232707 1_555
P7 Sr2 3.128867 1_555
P7 Sr3 3.128867 1_555
P7 Sr1 3.232707 1_565
P7 Sr0 3.232707 1_455
