# generated using pymatgen
data_NaCoBO3
_symmetry_space_group_name_H-M   'P 1'
_cell_length_a   5.03931857
_cell_length_b   7.34041389
_cell_length_c   7.33964573
_cell_angle_alpha   74.39655970
_cell_angle_beta   102.91116803
_cell_angle_gamma   102.90854131
_symmetry_Int_Tables_number   1
_chemical_formula_structural   NaCoBO3
_chemical_formula_sum   'Na4 Co4 B4 O12'
_cell_volume   250.99627826
_cell_formula_units_Z   4
loop_
 _symmetry_equiv_pos_site_id
 _symmetry_equiv_pos_as_xyz
  1  'x, y, z'
loop_
 _atom_site_type_symbol
 _atom_site_label
 _atom_site_symmetry_multiplicity
 _atom_site_fract_x
 _atom_site_fract_y
 _atom_site_fract_z
 _atom_site_occupancy
  Na  Na0  1  0.37500700  0.71108700  0.03891300  1
  Na  Na1  1  0.87497800  0.21107500  0.53891600  1
  Na  Na2  1  0.62500700  0.28893700  0.96106700  1
  Na  Na3  1  0.12499000  0.78887000  0.46112800  1
  Co  Co0  1  0.74969700  0.75010800  0.75003900  1
  Co  Co1  1  0.50029800  0.49994600  0.49991300  1
  Co  Co2  1  0.24971100  0.25013300  0.25001600  1
  Co  Co3  1  0.00028500  0.99999100  0.99986100  1
  B  B0  1  0.87497200  0.54258100  0.20736200  1
  B  B1  1  0.37501900  0.04264000  0.70741800  1
  B  B2  1  0.12500100  0.45737500  0.79261400  1
  B  B3  1  0.62501000  0.95739900  0.29261300  1
  O  O0  1  0.87495600  0.69878700  0.05110000  1
  O  O1  1  0.37499400  0.19885300  0.55117300  1
  O  O2  1  0.12502700  0.30117700  0.94885100  1
  O  O3  1  0.62503200  0.80117200  0.44888600  1
  O  O4  1  0.62678600  0.43917700  0.25958200  1
  O  O5  1  0.12684800  0.93919300  0.75964300  1
  O  O6  1  0.12318300  0.49039300  0.31080600  1
  O  O7  1  0.62324800  0.99046500  0.81083500  1
  O  O8  1  0.87676600  0.50947000  0.68913100  1
  O  O9  1  0.37676800  0.00948600  0.18917700  1
  O  O10  1  0.37320000  0.56086200  0.74047400  1
  O  O11  1  0.87321800  0.06082300  0.24048500  1
loop_
_geom_bond_atom_site_label_1
_geom_bond_atom_site_label_2
_geom_bond_distance
_geom_bond_site_symmetry_2
Na0 O0 2.521928 1_555
Na0 O0 2.522075 1_455
Na0 O5 2.551992 1_554
Na0 O7 2.552575 1_554
Na0 O4 2.586676 1_555
Na0 O6 2.586745 1_555
Na0 O10 2.701863 1_554
Na0 O9 2.701973 1_565
Na1 O1 2.521978 1_555
Na1 O1 2.522021 1_655
Na1 O4 2.552295 1_555
Na1 O6 2.552393 1_655
Na1 O7 2.586443 1_545
Na1 O5 2.586901 1_645
Na1 O8 2.701684 1_555
Na1 O11 2.701997 1_555
Na2 O2 2.521932 1_555
Na2 O2 2.522059 1_655
Na2 O11 2.552706 1_556
Na2 O9 2.552976 1_556
Na2 O8 2.586434 1_555
Na2 O10 2.586656 1_555
Na2 O7 2.702322 1_545
Na2 O4 2.702483 1_556
Na3 O3 2.521897 1_455
Na3 O3 2.522127 1_555
Na3 O10 2.552003 1_555
Na3 O8 2.552317 1_455
Na3 O9 2.586750 1_565
Na3 O11 2.586824 1_465
Na3 O6 2.702704 1_555
Na3 O5 2.702757 1_555
Co0 O10 2.085600 1_555
Co0 O5 2.087530 1_655
Co0 O0 2.111439 1_556
Co0 O3 2.111826 1_555
Co0 O7 2.184233 1_555
Co0 O8 2.188166 1_555
Co1 O8 2.085268 1_555
Co1 O6 2.087344 1_555
Co1 O1 2.111949 1_555
Co1 O3 2.112624 1_555
Co1 O4 2.183930 1_555
Co1 O10 2.187615 1_555
Co2 O11 2.085804 1_455
Co2 O4 2.087097 1_555
Co2 O2 2.111924 1_554
Co2 O1 2.112119 1_555
Co2 O6 2.183757 1_555
Co2 O9 2.187950 1_555
Co3 O9 2.085662 1_566
Co3 O7 2.086766 1_455
Co3 O2 2.112359 1_565
Co3 O0 2.112727 1_456
Co3 O5 2.183460 1_555
Co3 O11 2.187663 1_466
B0 O4 1.385936 1_555
B0 O6 1.385990 1_655
B0 O0 1.386608 1_555
B1 O5 1.385971 1_545
B1 O7 1.385981 1_545
B1 O1 1.386564 1_555
B2 O8 1.385944 1_455
B2 O10 1.385963 1_555
B2 O2 1.386462 1_555
B3 O11 1.385846 1_565
B3 O9 1.385861 1_565
B3 O3 1.386750 1_555
