# generated using pymatgen
data_MgV6O5F19
_symmetry_space_group_name_H-M   'P 1'
_cell_length_a   5.46342474
_cell_length_b   5.18913932
_cell_length_c   15.93251752
_cell_angle_alpha   90.29408405
_cell_angle_beta   101.04877417
_cell_angle_gamma   91.39564634
_symmetry_Int_Tables_number   1
_chemical_formula_structural   MgV6O5F19
_chemical_formula_sum   'Mg1 V6 O5 F19'
_cell_volume   443.16834300
_cell_formula_units_Z   1
loop_
 _symmetry_equiv_pos_site_id
 _symmetry_equiv_pos_as_xyz
  1  'x, y, z'
loop_
 _atom_site_type_symbol
 _atom_site_label
 _atom_site_symmetry_multiplicity
 _atom_site_fract_x
 _atom_site_fract_y
 _atom_site_fract_z
 _atom_site_occupancy
  Mg  Mg0  1  0.31843500  0.99650900  0.44876300  1
  V  V0  1  0.05003800  0.96136000  0.00539700  1
  V  V1  1  0.13084000  0.49424500  0.31515300  1
  V  V2  1  0.30935900  0.04803000  0.67463800  1
  V  V3  1  0.53643300  0.45175500  0.99337100  1
  V  V4  1  0.66609100  0.02546000  0.31922900  1
  V  V5  1  0.81310500  0.49458800  0.67117900  1
  O  O0  1  0.04889100  0.22418300  0.65426600  1
  O  O1  1  0.53303500  0.27230600  0.65295000  1
  O  O2  1  0.70105900  0.22206000  0.96675300  1
  O  O3  1  0.29692700  0.79268300  0.03259900  1
  O  O4  1  0.85226400  0.31477200  0.29898700  1
  F  F0  1  0.21187800  0.27170800  0.97019100  1
  F  F1  1  0.11754900  0.72812000  0.68939500  1
  F  F2  1  0.02918500  0.12139900  0.10288800  1
  F  F3  1  0.21440300  0.35193900  0.43070000  1
  F  F4  1  0.38581000  0.07203600  0.78682800  1
  F  F5  1  0.14226500  0.65644400  0.21832700  1
  F  F6  1  0.27112700  0.90457700  0.55754400  1
  F  F7  1  0.44491600  0.61879200  0.89657400  1
  F  F8  1  0.34840900  0.21484100  0.28926300  1
  F  F9  1  0.43534100  0.73753600  0.36537400  1
  F  F10  1  0.61709900  0.77767100  0.68951600  1
  F  F11  1  0.53985500  0.39422400  0.10362300  1
  F  F12  1  0.66310500  0.10909300  0.43493200  1
  F  F13  1  0.88879700  0.43099500  0.78228400  1
  F  F14  1  0.63091200  0.84796900  0.22345000  1
  F  F15  1  0.77699800  0.56831100  0.55910900  1
  F  F16  1  0.94846300  0.88673600  0.89590800  1
  F  F17  1  0.80485200  0.70631100  0.03013700  1
  F  F18  1  0.98684300  0.82834500  0.36478100  1
loop_
_geom_bond_atom_site_label_1
_geom_bond_atom_site_label_2
_geom_bond_distance
_geom_bond_site_symmetry_2
O0 V2 1.689773 1_555
O0 V5 1.979437 1_455
O1 V2 1.750401 1_555
O1 V5 1.869863 1_555
O2 V3 1.613294 1_555
O2 V0 2.351303 1_646
O3 V0 1.615773 1_555
O4 V1 1.740212 1_655
O4 V4 1.857081 1_555
F0 V3 1.954026 1_555
F0 V0 1.954473 1_546
F1 V2 1.980644 1_565
F1 V5 2.008116 1_455
F2 V0 1.781717 1_545
F3 Mg0 1.949720 1_545
F3 V1 1.962417 1_555
F4 V2 1.758989 1_555
F5 V1 1.771964 1_555
F6 Mg0 1.863433 1_555
F6 V2 1.976623 1_565
F7 V3 1.766075 1_555
F8 V1 1.987700 1_555
F8 V4 1.994091 1_555
F9 Mg0 2.080331 1_555
F9 V1 2.092559 1_555
F9 V4 2.153347 1_565
F10 V5 1.892637 1_555
F10 V2 2.194716 1_565
F11 V3 1.779932 1_554
F12 V4 1.894872 1_555
F12 Mg0 2.010630 1_545
F13 V5 1.773560 1_555
F14 V4 1.754548 1_565
F15 V5 1.802543 1_555
F16 V0 1.764233 1_656
F17 V3 1.951154 1_554
F17 V0 1.955190 1_655
F18 V4 2.061879 1_565
F18 V1 2.130871 1_655
F18 Mg0 2.194478 1_655
