# generated using pymatgen
data_BaSrCeZrO6
_symmetry_space_group_name_H-M   'P 1'
_cell_length_a   6.06818675
_cell_length_b   6.09273046
_cell_length_c   8.58299243
_cell_angle_alpha   90.16724773
_cell_angle_beta   90.14824359
_cell_angle_gamma   90.22804271
_symmetry_Int_Tables_number   1
_chemical_formula_structural   BaSrCeZrO6
_chemical_formula_sum   'Ba2 Sr2 Ce2 Zr2 O12'
_cell_volume   317.32396789
_cell_formula_units_Z   2
loop_
 _symmetry_equiv_pos_site_id
 _symmetry_equiv_pos_as_xyz
  1  'x, y, z'
loop_
 _atom_site_type_symbol
 _atom_site_label
 _atom_site_symmetry_multiplicity
 _atom_site_fract_x
 _atom_site_fract_y
 _atom_site_fract_z
 _atom_site_occupancy
  Ba  Ba0  1  0.50571115  0.52401023  0.24988586  1
  Ba  Ba1  1  0.49428885  0.47598977  0.75011414  1
  Sr  Sr0  1  0.99437232  0.03103397  0.25129878  1
  Sr  Sr1  1  0.00562768  0.96896603  0.74870122  1
  Ce  Ce0  1  0.00000000  0.50000000  -0.00000000  1
  Ce  Ce1  1  0.50000000  0.00000000  0.50000000  1
  Zr  Zr0  1  0.50000000  0.00000000  -0.00000000  1
  Zr  Zr1  1  0.00000000  0.50000000  0.50000000  1
  O  O0  1  0.22120487  0.20587533  0.95349982  1
  O  O1  1  0.27498423  0.71141947  0.53425334  1
  O  O2  1  0.77879513  0.79412467  0.04650018  1
  O  O3  1  0.72501577  0.28858053  0.46574666  1
  O  O4  1  0.29024176  0.72422747  0.96387275  1
  O  O5  1  0.20339653  0.21848104  0.54470043  1
  O  O6  1  0.70975824  0.27577253  0.03612725  1
  O  O7  1  0.79660347  0.78151896  0.45529957  1
  O  O8  1  0.41330831  0.99327072  0.24218683  1
  O  O9  1  0.06663515  0.46477168  0.25753117  1
  O  O10  1  0.58669169  0.00672928  0.75781317  1
  O  O11  1  0.93336485  0.53522832  0.74246883  1
loop_
_geom_bond_atom_site_label_1
_geom_bond_atom_site_label_2
_geom_bond_distance
_geom_bond_site_symmetry_2
Ba0 O6 2.682753 1_555
Ba0 O9 2.688301 1_555
Ba0 O3 2.697976 1_555
Ba0 O8 2.916637 1_555
Ba0 O2 2.917509 1_555
Ba0 O7 2.937947 1_555
Ba0 O1 3.038967 1_555
Ba0 O4 3.039327 1_554
Ba0 O8 3.280154 1_545
Ba1 O4 2.682753 1_555
Ba1 O11 2.688301 1_555
Ba1 O1 2.697976 1_555
Ba1 O10 2.916637 1_555
Ba1 O0 2.917509 1_555
Ba1 O5 2.937947 1_555
Ba1 O3 3.038967 1_555
Ba1 O6 3.039327 1_556
Ba1 O10 3.280154 1_565
Ce0 O4 2.247366 1_554
Ce0 O6 2.247366 1_455
Ce0 O9 2.257038 1_555
Ce0 O11 2.257038 1_454
Ce0 O0 2.278197 1_554
Ce0 O2 2.278197 1_455
Ce1 O3 2.242378 1_555
Ce1 O1 2.242378 1_545
Ce1 O8 2.273371 1_545
Ce1 O10 2.273371 1_555
Ce1 O5 2.275578 1_555
Ce1 O7 2.275578 1_545
O0 Zr0 2.147349 1_556
O0 Sr1 2.615880 1_545
O0 Sr0 3.095970 1_456
O1 Zr1 2.123263 1_555
O1 Sr1 2.922469 1_555
O2 Zr0 2.147349 1_565
O2 Sr0 2.615880 1_565
O2 Sr1 3.095970 1_654
O3 Zr1 2.123263 1_655
O3 Sr0 2.922469 1_555
O4 Zr0 2.125392 1_566
O4 Sr1 2.938895 1_555
O5 Zr1 2.151926 1_555
O5 Sr1 2.613236 1_545
O5 Sr0 3.034790 1_455
O6 Zr0 2.125392 1_555
O6 Sr0 2.938895 1_555
O7 Zr1 2.151926 1_655
O7 Sr0 2.613236 1_565
O7 Sr1 3.034790 1_655
O8 Zr0 2.146008 1_565
O8 Sr0 2.554862 1_465
O9 Zr1 2.131436 1_555
O9 Sr0 2.677417 1_455
O10 Zr0 2.146008 1_556
O10 Sr1 2.554862 1_645
O11 Zr1 2.131436 1_655
O11 Sr1 2.677417 1_655
