# generated using pymatgen
data_CoO2
_symmetry_space_group_name_H-M   'P 1'
_cell_length_a   4.87616328
_cell_length_b   4.87616328
_cell_length_c   9.32042300
_cell_angle_alpha   90.00000000
_cell_angle_beta   90.00000000
_cell_angle_gamma   145.33339970
_symmetry_Int_Tables_number   1
_chemical_formula_structural   CoO2
_chemical_formula_sum   'Co4 O8'
_cell_volume   126.05260344
_cell_formula_units_Z   4
loop_
 _symmetry_equiv_pos_site_id
 _symmetry_equiv_pos_as_xyz
  1  'x, y, z'
loop_
 _atom_site_type_symbol
 _atom_site_label
 _atom_site_symmetry_multiplicity
 _atom_site_fract_x
 _atom_site_fract_y
 _atom_site_fract_z
 _atom_site_occupancy
  Co  Co0  1  0.13476200  0.86523800  0.07264200  1
  Co  Co1  1  0.86523800  0.13476200  0.92735800  1
  Co  Co2  1  0.13476200  0.86523800  0.42735800  1
  Co  Co3  1  0.86523800  0.13476200  0.57264200  1
  O  O0  1  0.76432000  0.23568000  0.39689200  1
  O  O1  1  0.23568000  0.76432000  0.60310800  1
  O  O2  1  0.23568000  0.76432000  0.89689200  1
  O  O3  1  0.76432000  0.23568000  0.10310800  1
  O  O4  1  0.06664200  0.93335800  0.25000000  1
  O  O5  1  0.93335800  0.06664200  0.75000000  1
  O  O6  1  0.50000000  0.50000000  0.00000000  1
  O  O7  1  0.50000000  0.50000000  0.50000000  1
loop_
_geom_bond_atom_site_label_1
_geom_bond_atom_site_label_2
_geom_bond_distance
_geom_bond_site_symmetry_2
Co0 O4 1.770519 1_555
Co0 O2 1.888359 1_554
Co0 O3 1.909407 1_565
Co0 O3 1.909407 1_455
Co0 O6 2.035391 1_565
Co0 O6 2.035391 1_455
Co1 O5 1.770519 1_555
Co1 O3 1.888359 1_556
Co1 O2 1.909407 1_655
Co1 O2 1.909407 1_545
Co1 O6 2.035391 1_656
Co1 O6 2.035391 1_546
Co2 O4 1.770519 1_555
Co2 O1 1.888359 1_555
Co2 O0 1.909407 1_565
Co2 O0 1.909407 1_455
Co2 O7 2.035391 1_565
Co2 O7 2.035391 1_455
Co3 O5 1.770519 1_555
Co3 O0 1.888359 1_555
Co3 O1 1.909407 1_545
Co3 O1 1.909407 1_655
Co3 O7 2.035391 1_655
Co3 O7 2.035391 1_545
