# generated using pymatgen
data_BaSm2Ti3O10
_symmetry_space_group_name_H-M   'P 1'
_cell_length_a   14.41278764
_cell_length_b   14.41278764
_cell_length_c   7.65882600
_cell_angle_alpha   90.00000000
_cell_angle_beta   90.00000000
_cell_angle_gamma   164.42889508
_symmetry_Int_Tables_number   1
_chemical_formula_structural   BaSm2Ti3O10
_chemical_formula_sum   'Ba2 Sm4 Ti6 O20'
_cell_volume   427.06677130
_cell_formula_units_Z   2
loop_
 _symmetry_equiv_pos_site_id
 _symmetry_equiv_pos_as_xyz
  1  'x, y, z'
loop_
 _atom_site_type_symbol
 _atom_site_label
 _atom_site_symmetry_multiplicity
 _atom_site_fract_x
 _atom_site_fract_y
 _atom_site_fract_z
 _atom_site_occupancy
  Ba  Ba0  1  0.74124100  0.25875900  0.75000000  1
  Ba  Ba1  1  0.25875900  0.74124100  0.25000000  1
  Sm  Sm0  1  0.42047300  0.57952700  0.75000000  1
  Sm  Sm1  1  0.57952700  0.42047300  0.25000000  1
  Sm  Sm2  1  0.57239400  0.42760600  0.75000000  1
  Sm  Sm3  1  0.42760600  0.57239400  0.25000000  1
  Ti  Ti0  1  0.00000000  0.00000000  0.00000000  1
  Ti  Ti1  1  0.00000000  0.00000000  0.50000000  1
  Ti  Ti2  1  0.85564700  0.14435300  0.00389000  1
  Ti  Ti3  1  0.14435300  0.85564700  0.99611000  1
  Ti  Ti4  1  0.85564700  0.14435300  0.49611000  1
  Ti  Ti5  1  0.14435300  0.85564700  0.50389000  1
  O  O0  1  0.50000000  0.50000000  0.00000000  1
  O  O1  1  0.50000000  0.50000000  0.50000000  1
  O  O2  1  0.01895200  0.98104800  0.75000000  1
  O  O3  1  0.98104800  0.01895200  0.25000000  1
  O  O4  1  0.12089800  0.87910200  0.75000000  1
  O  O5  1  0.87910200  0.12089800  0.25000000  1
  O  O6  1  0.85487400  0.14512600  0.75000000  1
  O  O7  1  0.14512600  0.85487400  0.25000000  1
  O  O8  1  0.93428100  0.06571900  0.93998000  1
  O  O9  1  0.06571900  0.93428100  0.06002000  1
  O  O10  1  0.93428100  0.06571900  0.56002000  1
  O  O11  1  0.06571900  0.93428100  0.43998000  1
  O  O12  1  0.79447300  0.20552700  0.04406700  1
  O  O13  1  0.20552700  0.79447300  0.95593300  1
  O  O14  1  0.79447300  0.20552700  0.45593300  1
  O  O15  1  0.20552700  0.79447300  0.54406700  1
  O  O16  1  0.37186500  0.62813500  0.00734100  1
  O  O17  1  0.62813500  0.37186500  0.99265900  1
  O  O18  1  0.37186500  0.62813500  0.49265900  1
  O  O19  1  0.62813500  0.37186500  0.50734100  1
loop_
_geom_bond_atom_site_label_1
_geom_bond_atom_site_label_2
_geom_bond_distance
_geom_bond_site_symmetry_2
Ba0 O15 2.709237 1_655
Ba0 O15 2.709237 1_545
Ba0 O13 2.709237 1_545
Ba0 O13 2.709237 1_655
Ba0 O14 2.717305 1_555
Ba0 O12 2.717305 1_556
Ba0 O6 3.245343 1_555
Ba1 O12 2.709237 1_565
Ba1 O14 2.709237 1_455
Ba1 O12 2.709237 1_455
Ba1 O14 2.709237 1_565
Ba1 O15 2.717305 1_555
Ba1 O13 2.717305 1_554
Ba1 O7 3.245343 1_555
O0 Ti0 1.952439 1_555
O0 Ti0 1.952439 1_665
O0 Sm2 2.817963 1_554
O0 Sm3 2.817963 1_555
O0 Sm1 2.970659 1_555
O0 Sm0 2.970659 1_554
O1 Ti1 1.952439 1_665
O1 Ti1 1.952439 1_555
O1 Sm2 2.817963 1_555
O1 Sm3 2.817963 1_555
O1 Sm1 2.970659 1_555
O1 Sm0 2.970659 1_555
O2 Ti1 1.989741 1_565
O2 Ti0 1.989741 1_566
O2 Sm2 2.478225 1_455
O2 Sm2 2.478225 1_565
O3 Ti1 1.989741 1_655
O3 Ti0 1.989741 1_655
O3 Sm3 2.478225 1_545
O3 Sm3 2.478225 1_655
O4 Ti5 2.000407 1_555
O4 Ti3 2.000407 1_555
O4 Sm2 2.393947 1_565
O4 Sm2 2.393947 1_455
O5 Ti4 2.000407 1_555
O5 Ti2 2.000407 1_555
O5 Sm3 2.393947 1_655
O5 Sm3 2.393947 1_545
O6 Ti2 1.944625 1_556
O6 Ti4 1.944625 1_555
O6 Sm0 2.705922 1_655
O6 Sm0 2.705922 1_545
O7 Ti5 1.944625 1_555
O7 Ti3 1.944625 1_554
O7 Sm1 2.705922 1_565
O7 Sm1 2.705922 1_455
O8 Ti0 1.932397 1_656
O8 Ti2 2.298499 1_556
O8 Sm0 2.466704 1_655
O8 Sm0 2.466704 1_545
O9 Ti0 1.932397 1_565
O9 Ti3 2.298499 1_554
O9 Sm1 2.466704 1_565
O9 Sm1 2.466704 1_455
O10 Ti1 1.932397 1_655
O10 Ti4 2.298499 1_555
O10 Sm0 2.466704 1_655
O10 Sm0 2.466704 1_545
O11 Ti1 1.932397 1_565
O11 Ti5 2.298499 1_555
O11 Sm1 2.466704 1_565
O11 Sm1 2.466704 1_455
O12 Ti2 1.774011 1_555
O13 Ti3 1.774011 1_555
O14 Ti4 1.774011 1_555
O15 Ti5 1.774011 1_555
O16 Ti2 2.006802 1_565
O16 Ti2 2.006802 1_455
O16 Sm0 2.410761 1_554
O16 Sm3 2.447096 1_555
O17 Ti3 2.006802 1_655
O17 Ti3 2.006802 1_545
O17 Sm1 2.410761 1_556
O17 Sm2 2.447096 1_555
O18 Ti4 2.006802 1_565
O18 Ti4 2.006802 1_455
O18 Sm0 2.410761 1_555
O18 Sm3 2.447096 1_555
O19 Ti5 2.006802 1_655
O19 Ti5 2.006802 1_545
O19 Sm1 2.410761 1_555
O19 Sm2 2.447096 1_555
