# generated using pymatgen
data_V6GaSi
_symmetry_space_group_name_H-M   'P 1'
_cell_length_a   4.72166827
_cell_length_b   4.72139640
_cell_length_c   4.72152143
_cell_angle_alpha   90.00000000
_cell_angle_beta   90.00000000
_cell_angle_gamma   90.00000000
_symmetry_Int_Tables_number   1
_chemical_formula_structural   V6GaSi
_chemical_formula_sum   'V6 Ga1 Si1'
_cell_volume   105.25625198
_cell_formula_units_Z   1
loop_
 _symmetry_equiv_pos_site_id
 _symmetry_equiv_pos_as_xyz
  1  'x, y, z'
loop_
 _atom_site_type_symbol
 _atom_site_label
 _atom_site_symmetry_multiplicity
 _atom_site_fract_x
 _atom_site_fract_y
 _atom_site_fract_z
 _atom_site_occupancy
  V  V0  1  0.00000000  0.50000000  0.75627305  1
  V  V1  1  0.50000000  0.24373329  0.00000000  1
  V  V2  1  0.75626406  -0.00000000  0.50000000  1
  V  V3  1  -0.00000000  0.50000000  0.24372695  1
  V  V4  1  0.50000000  0.75626671  0.00000000  1
  V  V5  1  0.24373594  -0.00000000  0.50000000  1
  Ga  Ga0  1  0.50000000  0.50000000  0.50000000  1
  Si  Si0  1  0.00000000  -0.00000000  0.00000000  1
loop_
_geom_bond_atom_site_label_1
_geom_bond_atom_site_label_2
_geom_bond_distance
_geom_bond_site_symmetry_2
V0 V3 2.301524 1_556
V0 V3 2.419997 1_555
V1 V4 2.301523 1_545
V1 V4 2.419873 1_555
V2 V5 2.301681 1_655
V2 V5 2.419988 1_555
Ga0 V2 2.652731 1_555
Ga0 V5 2.652731 1_555
Ga0 V5 2.652731 1_565
Ga0 V2 2.652731 1_565
Ga0 V4 2.652760 1_555
Ga0 V1 2.652760 1_555
Ga0 V1 2.652760 1_556
Ga0 V4 2.652760 1_556
Ga0 V0 2.652854 1_655
Ga0 V3 2.652854 1_655
Ga0 V0 2.652854 1_555
Ga0 V3 2.652854 1_555
Si0 V0 2.626242 1_544
Si0 V0 2.626242 1_554
Si0 V3 2.626242 1_545
Si0 V3 2.626242 1_555
Si0 V5 2.626333 1_554
Si0 V2 2.626333 1_455
Si0 V5 2.626333 1_555
Si0 V2 2.626333 1_454
Si0 V4 2.626364 1_545
Si0 V4 2.626364 1_445
Si0 V1 2.626364 1_555
Si0 V1 2.626364 1_455
