# generated using pymatgen
data_UH6C2SeN3O7
_symmetry_space_group_name_H-M   'P 1'
_cell_length_a   7.17078700
_cell_length_b   8.00119289
_cell_length_c   9.31744183
_cell_angle_alpha   92.80066308
_cell_angle_beta   105.79338335
_cell_angle_gamma   96.63300740
_symmetry_Int_Tables_number   1
_chemical_formula_structural   UH6C2SeN3O7
_chemical_formula_sum   'U2 H12 C4 Se2 N6 O14'
_cell_volume   509.15625000
_cell_formula_units_Z   2
loop_
 _symmetry_equiv_pos_site_id
 _symmetry_equiv_pos_as_xyz
  1  'x, y, z'
loop_
 _atom_site_type_symbol
 _atom_site_label
 _atom_site_symmetry_multiplicity
 _atom_site_fract_x
 _atom_site_fract_y
 _atom_site_fract_z
 _atom_site_occupancy
  U  U0  1  0.84706000  0.73916700  0.19354600  1
  U  U1  1  0.15294000  0.26083300  0.80645400  1
  H  H0  1  0.55733200  0.10452100  0.28832700  1
  H  H1  1  0.44266800  0.89547900  0.71167300  1
  H  H2  1  0.34348700  0.14876200  0.15983700  1
  H  H3  1  0.65651300  0.85123800  0.84016300  1
  H  H4  1  0.19532400  0.39722300  0.42451700  1
  H  H5  1  0.80467600  0.60277700  0.57548300  1
  H  H6  1  0.14338700  0.32183600  0.23914300  1
  H  H7  1  0.85661300  0.67816400  0.76085700  1
  H  H8  1  0.48153500  0.33195400  0.59789800  1
  H  H9  1  0.51846500  0.66804600  0.40210200  1
  H  H10  1  0.64509400  0.22410300  0.53648000  1
  H  H11  1  0.35490600  0.77589700  0.46352000  1
  C  C0  1  0.10230800  0.97351100  0.51584900  1
  C  C1  1  0.89769200  0.02648900  0.48415100  1
  C  C2  1  0.39627100  0.25801300  0.37349500  1
  C  C3  1  0.60372900  0.74198700  0.62650500  1
  Se  Se0  1  0.71829600  0.33220200  0.95761400  1
  Se  Se1  1  0.28170400  0.66779800  0.04238600  1
  N  N0  1  0.44086100  0.17148500  0.26335300  1
  N  N1  1  0.55913900  0.82851500  0.73664700  1
  N  N2  1  0.22233500  0.31696700  0.34662500  1
  N  N3  1  0.77766500  0.68303300  0.65337500  1
  N  N4  1  0.52323000  0.28575900  0.50933400  1
  N  N5  1  0.47677000  0.71424100  0.49066600  1
  O  O0  1  0.85067200  0.57351800  0.32187900  1
  O  O1  1  0.14932800  0.42648200  0.67812100  1
  O  O2  1  0.83328400  0.90445300  0.06394000  1
  O  O3  1  0.16671600  0.09554700  0.93606000  1
  O  O4  1  0.13186500  0.87462700  0.41668900  1
  O  O5  1  0.86813500  0.12537300  0.58331100  1
  O  O6  1  0.22533600  0.03272900  0.63829300  1
  O  O7  1  0.77466400  0.96727100  0.36170700  1
  O  O8  1  0.74836700  0.55101200  0.98767400  1
  O  O9  1  0.25163300  0.44898800  0.01232600  1
  O  O10  1  0.48752200  0.29245900  0.83605600  1
  O  O11  1  0.51247800  0.70754100  0.16394400  1
  O  O12  1  0.85497500  0.31224400  0.83406200  1
  O  O13  1  0.14502500  0.68775600  0.16593800  1
loop_
_geom_bond_atom_site_label_1
_geom_bond_atom_site_label_2
_geom_bond_distance
_geom_bond_site_symmetry_2
H0 N0 1.023979 1_555
H1 N1 1.023979 1_555
H2 N0 1.018734 1_555
H3 N1 1.018734 1_555
H4 N2 1.017985 1_555
H5 N3 1.017985 1_555
H6 N2 1.012533 1_555
H7 N3 1.012533 1_555
H8 N4 1.018317 1_555
H9 N5 1.018317 1_555
H10 N4 1.030749 1_555
H11 N5 1.030749 1_555
C0 O4 1.264288 1_555
C0 O6 1.267717 1_565
C1 O5 1.264288 1_555
C1 O7 1.267717 1_545
C2 N4 1.333665 1_555
C2 N0 1.339795 1_555
C2 N2 1.348449 1_555
C3 N5 1.333665 1_555
C3 N1 1.339795 1_555
C3 N3 1.348449 1_555
O0 U0 1.825666 1_555
O1 U1 1.825666 1_555
O2 U0 1.827109 1_555
O3 U1 1.827109 1_555
O4 U0 2.573993 1_455
O5 U1 2.573993 1_655
O6 U1 2.537255 1_555
O7 U0 2.537255 1_555
O8 Se0 1.738399 1_555
O8 U0 2.275847 1_556
O9 Se1 1.738399 1_555
O9 U1 2.275847 1_554
O10 Se0 1.716212 1_555
O10 U1 2.321435 1_555
O11 Se1 1.716212 1_555
O11 U0 2.321435 1_555
O12 Se0 1.715715 1_555
O12 U1 2.300545 1_655
O13 Se1 1.715715 1_555
O13 U0 2.300545 1_455
