# generated using pymatgen
data_Li22Ge5
_symmetry_space_group_name_H-M   'P 1'
_cell_length_a   13.33977341
_cell_length_b   13.33977341
_cell_length_c   13.33977341
_cell_angle_alpha   60.00000000
_cell_angle_beta   60.00000000
_cell_angle_gamma   60.00000000
_symmetry_Int_Tables_number   1
_chemical_formula_structural   Li22Ge5
_chemical_formula_sum   'Li88 Ge20'
_cell_volume   1678.53484231
_cell_formula_units_Z   4
loop_
 _symmetry_equiv_pos_site_id
 _symmetry_equiv_pos_as_xyz
  1  'x, y, z'
loop_
 _atom_site_type_symbol
 _atom_site_label
 _atom_site_symmetry_multiplicity
 _atom_site_fract_x
 _atom_site_fract_y
 _atom_site_fract_z
 _atom_site_occupancy
  Li  Li0  1  0.00000000  0.00000000  0.00000000  1
  Li  Li1  1  0.50000000  0.50000000  0.50000000  1
  Li  Li2  1  0.75000000  0.75000000  0.75000000  1
  Li  Li3  1  0.25000000  0.25000000  0.25000000  1
  Li  Li4  1  0.22707751  0.92430750  0.92430750  1
  Li  Li5  1  0.92430750  0.22707751  0.92430750  1
  Li  Li6  1  0.92430750  0.92430750  0.22707751  1
  Li  Li7  1  0.92430750  0.92430750  0.92430750  1
  Li  Li8  1  0.50606269  0.83131244  0.83131244  1
  Li  Li9  1  0.83131244  0.50606269  0.83131244  1
  Li  Li10  1  0.83131244  0.83131244  0.50606269  1
  Li  Li11  1  0.83131244  0.83131244  0.83131244  1
  Li  Li12  1  0.98353806  0.67215398  0.67215398  1
  Li  Li13  1  0.67215398  0.98353806  0.67215398  1
  Li  Li14  1  0.67215398  0.67215398  0.98353806  1
  Li  Li15  1  0.67215398  0.67215398  0.67215398  1
  Li  Li16  1  0.26706911  0.57764363  0.57764363  1
  Li  Li17  1  0.57764363  0.26706911  0.57764363  1
  Li  Li18  1  0.57764363  0.57764363  0.26706911  1
  Li  Li19  1  0.57764363  0.57764363  0.57764363  1
  Li  Li20  1  0.74938562  0.41687146  0.41687146  1
  Li  Li21  1  0.41687146  0.74938562  0.41687146  1
  Li  Li22  1  0.41687146  0.41687146  0.74938562  1
  Li  Li23  1  0.41687146  0.41687146  0.41687146  1
  Li  Li24  1  0.48676442  0.17107853  0.17107853  1
  Li  Li25  1  0.17107853  0.48676442  0.17107853  1
  Li  Li26  1  0.17107853  0.17107853  0.48676442  1
  Li  Li27  1  0.17107853  0.17107853  0.17107853  1
  Li  Li28  1  0.16771375  0.83228625  0.16771375  1
  Li  Li29  1  0.16771375  0.83228625  0.83228625  1
  Li  Li30  1  0.16771375  0.16771375  0.83228625  1
  Li  Li31  1  0.83228625  0.16771375  0.83228625  1
  Li  Li32  1  0.83228625  0.16771375  0.16771375  1
  Li  Li33  1  0.83228625  0.83228625  0.16771375  1
  Li  Li34  1  0.08585838  0.41414162  0.08585838  1
  Li  Li35  1  0.08585838  0.41414162  0.41414162  1
  Li  Li36  1  0.08585838  0.08585838  0.41414162  1
  Li  Li37  1  0.41414162  0.08585838  0.41414162  1
  Li  Li38  1  0.41414162  0.08585838  0.08585838  1
  Li  Li39  1  0.41414162  0.41414162  0.08585838  1
  Li  Li40  1  0.99824560  0.99824560  0.67311673  1
  Li  Li41  1  0.99824560  0.33039206  0.99824560  1
  Li  Li42  1  0.99824560  0.67311673  0.33039206  1
  Li  Li43  1  0.99824560  0.99824560  0.33039206  1
  Li  Li44  1  0.33039206  0.99824560  0.67311673  1
  Li  Li45  1  0.67311673  0.99824560  0.99824560  1
  Li  Li46  1  0.67311673  0.33039206  0.99824560  1
  Li  Li47  1  0.99824560  0.67311673  0.99824560  1
  Li  Li48  1  0.33039206  0.99824560  0.99824560  1
  Li  Li49  1  0.33039206  0.67311673  0.99824560  1
  Li  Li50  1  0.67311673  0.99824560  0.33039206  1
  Li  Li51  1  0.99824560  0.33039206  0.67311673  1
  Li  Li52  1  0.83011594  0.17867366  0.49560520  1
  Li  Li53  1  0.83011594  0.49560520  0.17867366  1
  Li  Li54  1  0.83011594  0.49560520  0.49560520  1
  Li  Li55  1  0.17867366  0.83011594  0.49560520  1
  Li  Li56  1  0.49560520  0.83011594  0.49560520  1
  Li  Li57  1  0.49560520  0.83011594  0.17867366  1
  Li  Li58  1  0.49560520  0.49560520  0.83011594  1
  Li  Li59  1  0.17867366  0.49560520  0.83011594  1
  Li  Li60  1  0.49560520  0.17867366  0.83011594  1
  Li  Li61  1  0.49560520  0.49560520  0.17867366  1
  Li  Li62  1  0.49560520  0.17867366  0.49560520  1
  Li  Li63  1  0.17867366  0.49560520  0.49560520  1
  Li  Li64  1  0.42986682  0.74622744  0.07767830  1
  Li  Li65  1  0.42986682  0.74622744  0.74622744  1
  Li  Li66  1  0.42986682  0.07767830  0.74622744  1
  Li  Li67  1  0.74622744  0.42986682  0.74622744  1
  Li  Li68  1  0.74622744  0.42986682  0.07767830  1
  Li  Li69  1  0.07767830  0.42986682  0.74622744  1
  Li  Li70  1  0.07767830  0.74622744  0.42986682  1
  Li  Li71  1  0.74622744  0.07767830  0.42986682  1
  Li  Li72  1  0.74622744  0.74622744  0.42986682  1
  Li  Li73  1  0.74622744  0.07767830  0.74622744  1
  Li  Li74  1  0.07767830  0.74622744  0.74622744  1
  Li  Li75  1  0.74622744  0.74622744  0.07767830  1
  Li  Li76  1  0.91791950  0.25167611  0.57872828  1
  Li  Li77  1  0.91791950  0.25167611  0.25167611  1
  Li  Li78  1  0.91791950  0.57872828  0.25167611  1
  Li  Li79  1  0.25167611  0.91791950  0.25167611  1
  Li  Li80  1  0.25167611  0.91791950  0.57872828  1
  Li  Li81  1  0.57872828  0.91791950  0.25167611  1
  Li  Li82  1  0.57872828  0.25167611  0.91791950  1
  Li  Li83  1  0.25167611  0.57872828  0.91791950  1
  Li  Li84  1  0.25167611  0.25167611  0.91791950  1
  Li  Li85  1  0.25167611  0.57872828  0.25167611  1
  Li  Li86  1  0.57872828  0.25167611  0.25167611  1
  Li  Li87  1  0.25167611  0.25167611  0.57872828  1
  Ge  Ge0  1  0.73493932  0.08835356  0.08835356  1
  Ge  Ge1  1  0.08835356  0.73493932  0.08835356  1
  Ge  Ge2  1  0.08835356  0.08835356  0.73493932  1
  Ge  Ge3  1  0.08835356  0.08835356  0.08835356  1
  Ge  Ge4  1  0.99926562  0.33357813  0.33357813  1
  Ge  Ge5  1  0.33357813  0.99926562  0.33357813  1
  Ge  Ge6  1  0.33357813  0.33357813  0.99926562  1
  Ge  Ge7  1  0.33357813  0.33357813  0.33357813  1
  Ge  Ge8  1  0.32482248  0.67517752  0.32482248  1
  Ge  Ge9  1  0.32482248  0.67517752  0.67517752  1
  Ge  Ge10  1  0.32482248  0.32482248  0.67517752  1
  Ge  Ge11  1  0.67517752  0.32482248  0.67517752  1
  Ge  Ge12  1  0.67517752  0.32482248  0.32482248  1
  Ge  Ge13  1  0.67517752  0.67517752  0.32482248  1
  Ge  Ge14  1  0.57412189  0.92587811  0.57412189  1
  Ge  Ge15  1  0.57412189  0.92587811  0.92587811  1
  Ge  Ge16  1  0.57412189  0.57412189  0.92587811  1
  Ge  Ge17  1  0.92587811  0.57412189  0.92587811  1
  Ge  Ge18  1  0.92587811  0.57412189  0.57412189  1
  Ge  Ge19  1  0.92587811  0.92587811  0.57412189  1
loop_
_geom_bond_atom_site_label_1
_geom_bond_atom_site_label_2
_geom_bond_distance
_geom_bond_site_symmetry_2
Li0 Li7 2.473301 1_444
Li0 Li5 2.473301 1_454
Li0 Li4 2.473301 1_544
Li0 Li6 2.473301 1_445
Li1 Li19 2.537055 1_555
Li1 Li16 2.537055 1_555
Li1 Li17 2.537055 1_555
Li1 Li18 2.537055 1_555
Li1 Li23 2.716278 1_555
Li1 Li22 2.716278 1_555
Li1 Li20 2.716278 1_555
Li1 Li21 2.716278 1_555
Li2 Li8 2.656936 1_555
Li2 Li9 2.656936 1_555
Li4 Li48 2.745278 1_555
Li4 Li49 2.745278 1_555
Li4 Li44 2.745278 1_555
Li4 Li8 3.038673 1_555
Li5 Li51 2.745278 1_555
Li5 Li9 3.038673 1_555
Li10 Li2 2.656936 1_555
Li10 Li6 3.038673 1_555
Li11 Li2 2.656936 1_555
Li11 Li7 3.038673 1_555
Li12 Li2 2.543668 1_555
Li13 Li2 2.543668 1_555
Li14 Li2 2.543668 1_555
Li15 Li2 2.543668 1_555
Li24 Li3 2.578810 1_555
Li25 Li3 2.578810 1_555
Li26 Li3 2.578810 1_555
Li27 Li3 2.578809 1_555
Li28 Li4 2.663056 1_554
Li28 Li6 2.663056 1_455
Li29 Li7 2.663056 1_455
Li29 Li4 2.663056 1_555
Li30 Li4 2.663056 1_545
Li30 Li5 2.663056 1_455
Li31 Li7 2.663056 1_545
Li31 Li5 2.663056 1_555
Li32 Li6 2.663056 1_545
Li32 Li5 2.663056 1_554
Li33 Li7 2.663056 1_554
Li33 Li6 2.663056 1_555
Li40 Li7 2.745279 1_555
Li41 Li5 2.745278 1_555
Li42 Li6 2.745278 1_555
Li43 Li6 2.745278 1_555
Li45 Li7 2.745279 1_555
Li46 Li5 2.745278 1_555
Li47 Li7 2.745279 1_555
Li50 Li6 2.745278 1_555
Ge0 Li46 2.645240 1_554
Ge0 Li50 2.645240 1_545
Ge0 Li45 2.645240 1_544
Ge0 Li24 2.703091 1_555
Ge0 Li32 2.792492 1_555
Ge0 Li33 2.792492 1_545
Ge0 Li31 2.792492 1_554
Ge0 Li0 2.887009 1_655
Ge0 Li7 3.113156 1_544
Ge0 Li5 3.113157 1_554
Ge0 Li6 3.113157 1_545
Ge1 Li49 2.645240 1_554
Ge1 Li42 2.645240 1_455
Ge1 Li47 2.645240 1_454
Ge1 Li25 2.703091 1_555
Ge1 Li28 2.792492 1_555
Ge1 Li33 2.792492 1_455
Ge1 Li29 2.792492 1_554
Ge1 Li0 2.887009 1_565
Ge1 Li7 3.113156 1_454
Ge1 Li6 3.113157 1_455
Ge1 Li4 3.113157 1_554
Ge2 Li44 2.645240 1_545
Ge2 Li51 2.645240 1_455
Ge2 Li40 2.645240 1_445
Ge2 Li26 2.703091 1_555
Ge2 Li30 2.792492 1_555
Ge2 Li29 2.792492 1_545
Ge2 Li31 2.792492 1_455
Ge2 Li0 2.887009 1_556
Ge2 Li7 3.113156 1_445
Ge2 Li5 3.113157 1_455
Ge2 Li4 3.113157 1_545
Ge3 Li48 2.645240 1_544
Ge3 Li43 2.645240 1_445
Ge3 Li41 2.645240 1_454
Ge3 Li27 2.703091 1_555
Ge3 Li28 2.792492 1_545
Ge3 Li30 2.792492 1_554
Ge3 Li32 2.792492 1_455
Ge3 Li0 2.887009 1_555
Ge3 Li5 3.113156 1_454
Ge3 Li4 3.113156 1_544
Ge3 Li6 3.113156 1_445
Ge4 Li78 2.670149 1_555
Ge4 Li76 2.670149 1_555
Ge4 Li77 2.670149 1_555
Ge4 Li35 2.698533 1_655
Ge4 Li36 2.698533 1_655
Ge4 Li34 2.698533 1_655
Ge4 Li20 2.721663 1_555
Ge4 Li3 2.730969 1_655
Ge5 Li80 2.670149 1_555
Ge5 Li81 2.670149 1_555
Ge5 Li79 2.670149 1_555
Ge5 Li37 2.698533 1_565
Ge5 Li38 2.698533 1_565
Ge5 Li36 2.698533 1_565
Ge5 Li21 2.721663 1_555
Ge5 Li3 2.730969 1_565
Ge6 Li83 2.670149 1_555
Ge6 Li82 2.670149 1_555
Ge6 Li84 2.670149 1_555
Ge6 Li39 2.698533 1_556
Ge6 Li34 2.698533 1_556
Ge6 Li38 2.698533 1_556
Ge6 Li22 2.721663 1_555
Ge6 Li3 2.730969 1_556
Ge7 Li85 2.670149 1_555
Ge7 Li86 2.670149 1_555
Ge7 Li87 2.670149 1_555
Ge7 Li39 2.698533 1_555
Ge7 Li35 2.698533 1_555
Ge7 Li37 2.698533 1_555
Ge7 Li23 2.721663 1_555
Ge7 Li3 2.730969 1_555
Ge8 Li85 2.650001 1_555
Ge8 Li79 2.650001 1_555
Ge8 Li70 2.704567 1_555
Ge8 Li64 2.704567 1_555
Ge8 Li18 2.770689 1_555
Ge8 Li16 2.770689 1_555
Ge8 Li23 2.816792 1_555
Ge8 Li21 2.816792 1_555
Ge8 Li28 2.963902 1_555
Ge8 Li57 3.082301 1_555
Ge8 Li55 3.082301 1_555
Ge8 Li63 3.082301 1_555
Ge8 Li61 3.082301 1_555
Ge9 Li83 2.650001 1_555
Ge9 Li80 2.650001 1_555
Ge9 Li65 2.704567 1_555
Ge9 Li74 2.704567 1_555
Ge9 Li19 2.770689 1_555
Ge9 Li16 2.770689 1_555
Ge9 Li21 2.816792 1_555
Ge9 Li22 2.816792 1_555
Ge9 Li29 2.963902 1_555
Ge9 Li56 3.082301 1_555
Ge9 Li58 3.082301 1_555
Ge9 Li55 3.082301 1_555
Ge9 Li59 3.082301 1_555
Ge10 Li84 2.650001 1_555
Ge10 Li87 2.650001 1_555
Ge10 Li69 2.704567 1_555
Ge10 Li66 2.704567 1_555
Ge10 Li17 2.770689 1_555
Ge10 Li16 2.770689 1_555
Ge10 Li23 2.816792 1_555
Ge10 Li22 2.816792 1_555
Ge10 Li30 2.963902 1_555
Ge10 Li59 3.082301 1_555
Ge10 Li60 3.082301 1_555
Ge10 Li63 3.082301 1_555
Ge10 Li62 3.082301 1_555
Ge11 Li76 2.650001 1_555
Ge11 Li82 2.650001 1_555
Ge11 Li67 2.704567 1_555
Ge11 Li73 2.704567 1_555
Ge11 Li19 2.770689 1_555
Ge11 Li17 2.770689 1_555
Ge11 Li22 2.816792 1_555
Ge11 Li20 2.816792 1_555
Ge11 Li31 2.963902 1_555
Ge11 Li54 3.082301 1_555
Ge11 Li58 3.082301 1_555
Ge11 Li52 3.082301 1_555
Ge11 Li60 3.082301 1_555
Ge12 Li77 2.650001 1_555
Ge12 Li86 2.650001 1_555
Ge12 Li71 2.704567 1_555
Ge12 Li68 2.704567 1_555
Ge12 Li17 2.770689 1_555
Ge12 Li18 2.770689 1_555
Ge12 Li23 2.816792 1_555
Ge12 Li20 2.816792 1_555
Ge12 Li32 2.963902 1_555
Ge12 Li52 3.082301 1_555
Ge12 Li53 3.082301 1_555
Ge12 Li61 3.082301 1_555
Ge12 Li62 3.082301 1_555
Ge13 Li81 2.650001 1_555
Ge13 Li78 2.650001 1_555
Ge13 Li72 2.704567 1_555
Ge13 Li75 2.704567 1_555
Ge13 Li19 2.770689 1_555
Ge13 Li18 2.770689 1_555
Ge13 Li21 2.816792 1_555
Ge13 Li20 2.816792 1_555
Ge13 Li33 2.963902 1_555
Ge13 Li56 3.082301 1_555
Ge13 Li54 3.082301 1_555
Ge13 Li57 3.082301 1_555
Ge13 Li53 3.082301 1_555
Ge14 Li50 2.662585 1_555
Ge14 Li44 2.662585 1_555
Ge14 Li62 2.756620 1_565
Ge14 Li56 2.756620 1_555
Ge14 Li15 2.780970 1_555
Ge14 Li13 2.780970 1_555
Ge14 Li10 2.808717 1_555
Ge14 Li8 2.808717 1_555
Ge14 Li37 3.018074 1_565
Ge14 Li71 3.067387 1_565
Ge14 Li66 3.067387 1_565
Ge14 Li65 3.067387 1_555
Ge14 Li72 3.067387 1_555
Ge15 Li45 2.662585 1_555
Ge15 Li48 2.662585 1_555
Ge15 Li57 2.756620 1_556
Ge15 Li60 2.756620 1_565
Ge15 Li14 2.780970 1_555
Ge15 Li13 2.780970 1_555
Ge15 Li8 2.808717 1_555
Ge15 Li11 2.808717 1_555
Ge15 Li38 3.018074 1_566
Ge15 Li73 3.067387 1_565
Ge15 Li75 3.067387 1_556
Ge15 Li64 3.067387 1_556
Ge15 Li66 3.067387 1_565
Ge16 Li46 2.662585 1_555
Ge16 Li49 2.662585 1_555
Ge16 Li61 2.756620 1_556
Ge16 Li58 2.756620 1_555
Ge16 Li15 2.780970 1_555
Ge16 Li14 2.780970 1_555
Ge16 Li8 2.808717 1_555
Ge16 Li9 2.808717 1_555
Ge16 Li39 3.018074 1_556
Ge16 Li68 3.067387 1_556
Ge16 Li64 3.067387 1_556
Ge16 Li67 3.067387 1_555
Ge16 Li65 3.067387 1_555
Ge17 Li47 2.662585 1_555
Ge17 Li41 2.662585 1_555
Ge17 Li53 2.756620 1_556
Ge17 Li59 2.756620 1_655
Ge17 Li14 2.780970 1_555
Ge17 Li12 2.780970 1_555
Ge17 Li9 2.808717 1_555
Ge17 Li11 2.808717 1_555
Ge17 Li34 3.018074 1_656
Ge17 Li75 3.067387 1_556
Ge17 Li74 3.067387 1_655
Ge17 Li68 3.067387 1_556
Ge17 Li69 3.067387 1_655
Ge18 Li51 2.662585 1_555
Ge18 Li42 2.662585 1_555
Ge18 Li63 2.756620 1_655
Ge18 Li54 2.756620 1_555
Ge18 Li15 2.780970 1_555
Ge18 Li12 2.780970 1_555
Ge18 Li10 2.808717 1_555
Ge18 Li9 2.808717 1_555
Ge18 Li35 3.018074 1_655
Ge18 Li69 3.067387 1_655
Ge18 Li70 3.067387 1_655
Ge18 Li72 3.067387 1_555
Ge18 Li67 3.067387 1_555
Ge19 Li40 2.662585 1_555
Ge19 Li43 2.662585 1_555
Ge19 Li52 2.756620 1_565
Ge19 Li55 2.756620 1_655
Ge19 Li12 2.780970 1_555
Ge19 Li13 2.780970 1_555
Ge19 Li10 2.808717 1_555
Ge19 Li11 2.808717 1_555
Ge19 Li36 3.018074 1_665
Ge19 Li73 3.067387 1_565
Ge19 Li74 3.067387 1_655
Ge19 Li71 3.067387 1_565
Ge19 Li70 3.067387 1_655
