# generated using pymatgen
data_Dy11(Ni10C)6
_symmetry_space_group_name_H-M   'P 1'
_cell_length_a   10.78104286
_cell_length_b   10.78104286
_cell_length_c   10.78104286
_cell_angle_alpha   109.47122063
_cell_angle_beta   109.47122063
_cell_angle_gamma   109.47122063
_symmetry_Int_Tables_number   1
_chemical_formula_structural   Dy11(Ni10C)6
_chemical_formula_sum   'Dy11 Ni60 C6'
_cell_volume   964.62925188
_cell_formula_units_Z   1
loop_
 _symmetry_equiv_pos_site_id
 _symmetry_equiv_pos_as_xyz
  1  'x, y, z'
loop_
 _atom_site_type_symbol
 _atom_site_label
 _atom_site_symmetry_multiplicity
 _atom_site_fract_x
 _atom_site_fract_y
 _atom_site_fract_z
 _atom_site_occupancy
  Dy  Dy0  1  0.00000000  0.00000000  0.33690400  1
  Dy  Dy1  1  0.00000000  0.33690400  0.00000000  1
  Dy  Dy2  1  0.33690400  0.00000000  0.00000000  1
  Dy  Dy3  1  0.66309600  0.66309600  0.66309600  1
  Dy  Dy4  1  0.00000000  0.00000000  0.66309600  1
  Dy  Dy5  1  0.00000000  0.66309600  0.00000000  1
  Dy  Dy6  1  0.66309600  0.00000000  0.00000000  1
  Dy  Dy7  1  0.33690400  0.33690400  0.33690400  1
  Dy  Dy8  1  0.50000000  0.50000000  0.00000000  1
  Dy  Dy9  1  0.50000000  0.00000000  0.50000000  1
  Dy  Dy10  1  0.00000000  0.50000000  0.50000000  1
  Ni  Ni0  1  0.00000000  0.76661100  0.41858700  1
  Ni  Ni1  1  0.23338900  0.23338900  0.65197600  1
  Ni  Ni2  1  0.76661100  0.00000000  0.41858700  1
  Ni  Ni3  1  0.00000000  0.41858700  0.76661100  1
  Ni  Ni4  1  0.76661100  0.41858700  0.00000000  1
  Ni  Ni5  1  0.23338900  0.65197600  0.23338900  1
  Ni  Ni6  1  0.65197600  0.23338900  0.23338900  1
  Ni  Ni7  1  0.41858700  0.76661100  0.00000000  1
  Ni  Ni8  1  0.41858700  0.00000000  0.76661100  1
  Ni  Ni9  1  0.34802400  0.58141300  0.58141300  1
  Ni  Ni10  1  0.58141300  0.58141300  0.34802400  1
  Ni  Ni11  1  0.58141300  0.34802400  0.58141300  1
  Ni  Ni12  1  0.00000000  0.23338900  0.58141300  1
  Ni  Ni13  1  0.76661100  0.76661100  0.34802400  1
  Ni  Ni14  1  0.23338900  0.00000000  0.58141300  1
  Ni  Ni15  1  0.00000000  0.58141300  0.23338900  1
  Ni  Ni16  1  0.23338900  0.58141300  0.00000000  1
  Ni  Ni17  1  0.76661100  0.34802400  0.76661100  1
  Ni  Ni18  1  0.34802400  0.76661100  0.76661100  1
  Ni  Ni19  1  0.58141300  0.23338900  0.00000000  1
  Ni  Ni20  1  0.58141300  0.00000000  0.23338900  1
  Ni  Ni21  1  0.65197600  0.41858700  0.41858700  1
  Ni  Ni22  1  0.41858700  0.41858700  0.65197600  1
  Ni  Ni23  1  0.41858700  0.65197600  0.41858700  1
  Ni  Ni24  1  0.14775300  0.32023900  0.46799300  1
  Ni  Ni25  1  0.67976100  0.82751400  0.14775300  1
  Ni  Ni26  1  0.17248600  0.85224700  0.32023900  1
  Ni  Ni27  1  0.85224700  0.17248600  0.32023900  1
  Ni  Ni28  1  0.32023900  0.14775300  0.46799300  1
  Ni  Ni29  1  0.82751400  0.67976100  0.14775300  1
  Ni  Ni30  1  0.85224700  0.32023900  0.17248600  1
  Ni  Ni31  1  0.32023900  0.46799300  0.14775300  1
  Ni  Ni32  1  0.82751400  0.14775300  0.67976100  1
  Ni  Ni33  1  0.14775300  0.46799300  0.32023900  1
  Ni  Ni34  1  0.67976100  0.14775300  0.82751400  1
  Ni  Ni35  1  0.17248600  0.32023900  0.85224700  1
  Ni  Ni36  1  0.14775300  0.67976100  0.82751400  1
  Ni  Ni37  1  0.32023900  0.17248600  0.85224700  1
  Ni  Ni38  1  0.46799300  0.14775300  0.32023900  1
  Ni  Ni39  1  0.14775300  0.82751400  0.67976100  1
  Ni  Ni40  1  0.32023900  0.85224700  0.17248600  1
  Ni  Ni41  1  0.46799300  0.32023900  0.14775300  1
  Ni  Ni42  1  0.85224700  0.67976100  0.53200700  1
  Ni  Ni43  1  0.67976100  0.53200700  0.85224700  1
  Ni  Ni44  1  0.53200700  0.85224700  0.67976100  1
  Ni  Ni45  1  0.85224700  0.53200700  0.67976100  1
  Ni  Ni46  1  0.67976100  0.85224700  0.53200700  1
  Ni  Ni47  1  0.53200700  0.67976100  0.85224700  1
  Ni  Ni48  1  0.85776000  0.85776000  0.00000000  1
  Ni  Ni49  1  0.14224000  0.00000000  0.14224000  1
  Ni  Ni50  1  0.00000000  0.14224000  0.14224000  1
  Ni  Ni51  1  0.14224000  0.14224000  0.00000000  1
  Ni  Ni52  1  0.85776000  0.00000000  0.85776000  1
  Ni  Ni53  1  0.00000000  0.85776000  0.85776000  1
  Ni  Ni54  1  0.75000000  0.25000000  0.50000000  1
  Ni  Ni55  1  0.75000000  0.50000000  0.25000000  1
  Ni  Ni56  1  0.50000000  0.25000000  0.75000000  1
  Ni  Ni57  1  0.25000000  0.50000000  0.75000000  1
  Ni  Ni58  1  0.25000000  0.75000000  0.50000000  1
  Ni  Ni59  1  0.50000000  0.75000000  0.25000000  1
  C  C0  1  0.71008200  0.71008200  0.00000000  1
  C  C1  1  0.28991800  0.00000000  0.28991800  1
  C  C2  1  0.00000000  0.28991800  0.28991800  1
  C  C3  1  0.28991800  0.28991800  0.00000000  1
  C  C4  1  0.71008200  0.00000000  0.71008200  1
  C  C5  1  0.00000000  0.71008200  0.71008200  1
loop_
_geom_bond_atom_site_label_1
_geom_bond_atom_site_label_2
_geom_bond_distance
_geom_bond_site_symmetry_2
Dy0 Ni28 2.834513 1_555
Dy0 Ni24 2.834513 1_555
Dy0 Ni26 2.834514 1_545
Dy0 Ni27 2.834514 1_455
Dy0 Ni25 2.834514 1_445
Dy0 Ni29 2.834514 1_445
Dy0 Ni0 2.929823 1_545
Dy0 Ni2 2.929823 1_455
Dy0 Ni1 2.929823 1_555
Dy0 Ni14 2.976257 1_555
Dy0 Ni12 2.976257 1_555
Dy0 Ni13 2.976257 1_445
Dy0 Ni48 2.983558 1_445
Dy0 Ni49 2.983558 1_555
Dy0 Ni50 2.983558 1_555
Dy1 Ni33 2.834513 1_555
Dy1 Ni31 2.834513 1_555
Dy1 Ni30 2.834514 1_455
Dy1 Ni35 2.834514 1_554
Dy1 Ni34 2.834514 1_454
Dy1 Ni32 2.834514 1_454
Dy1 Ni3 2.929823 1_554
Dy1 Ni4 2.929823 1_455
Dy1 Ni5 2.929823 1_555
Dy1 Ni17 2.976257 1_454
Dy1 Ni16 2.976257 1_555
Dy1 Ni15 2.976257 1_555
Dy1 Ni51 2.983558 1_555
Dy1 Ni50 2.983558 1_555
Dy1 Ni52 2.983558 1_454
Dy2 Ni41 2.834513 1_555
Dy2 Ni38 2.834513 1_555
Dy2 Ni40 2.834514 1_545
Dy2 Ni36 2.834514 1_544
Dy2 Ni39 2.834514 1_544
Dy2 Ni37 2.834514 1_554
Dy2 Ni7 2.929823 1_545
Dy2 Ni8 2.929823 1_554
Dy2 Ni6 2.929823 1_555
Dy2 Ni18 2.976257 1_544
Dy2 Ni20 2.976257 1_555
Dy2 Ni19 2.976257 1_555
Dy2 Ni53 2.983558 1_544
Dy2 Ni49 2.983558 1_555
Dy2 Ni51 2.983558 1_555
Dy3 Ni43 2.834522 1_555
Dy3 Ni47 2.834522 1_555
Dy3 Ni46 2.834522 1_555
Dy3 Ni42 2.834522 1_555
Dy3 Ni45 2.834522 1_555
Dy3 Ni44 2.834522 1_555
Dy3 Ni9 2.929823 1_555
Dy3 Ni10 2.929823 1_555
Dy3 Ni11 2.929823 1_555
Dy3 Ni23 2.976257 1_555
Dy3 Ni22 2.976257 1_555
Dy3 Ni21 2.976257 1_555
Dy3 Ni52 2.983558 1_565
Dy3 Ni48 2.983558 1_556
Dy3 Ni53 2.983558 1_655
Dy4 Ni42 2.834513 1_445
Dy4 Ni46 2.834513 1_445
Dy4 Ni37 2.834514 1_555
Dy4 Ni32 2.834514 1_455
Dy4 Ni35 2.834514 1_555
Dy4 Ni39 2.834514 1_545
Dy4 Ni13 2.929823 1_445
Dy4 Ni14 2.929823 1_555
Dy4 Ni12 2.929823 1_555
Dy4 Ni0 2.976257 1_545
Dy4 Ni2 2.976257 1_455
Dy4 Ni1 2.976257 1_555
Dy4 Ni53 2.983558 1_545
Dy4 Ni51 2.983558 1_556
Dy4 Ni52 2.983558 1_455
Dy5 Ni45 2.834513 1_454
Dy5 Ni43 2.834513 1_454
Dy5 Ni26 2.834514 1_555
Dy5 Ni40 2.834514 1_555
Dy5 Ni29 2.834514 1_455
Dy5 Ni36 2.834514 1_554
Dy5 Ni17 2.929823 1_454
Dy5 Ni15 2.929823 1_555
Dy5 Ni16 2.929823 1_555
Dy5 Ni4 2.976257 1_455
Dy5 Ni3 2.976257 1_554
Dy5 Ni5 2.976257 1_555
Dy5 Ni49 2.983558 1_565
Dy5 Ni48 2.983558 1_455
Dy5 Ni53 2.983558 1_554
Dy6 Ni44 2.834513 1_544
Dy6 Ni47 2.834513 1_544
Dy6 Ni30 2.834514 1_555
Dy6 Ni27 2.834514 1_555
Dy6 Ni34 2.834514 1_554
Dy6 Ni25 2.834514 1_545
Dy6 Ni18 2.929823 1_544
Dy6 Ni19 2.929823 1_555
Dy6 Ni20 2.929823 1_555
Dy6 Ni7 2.976257 1_545
Dy6 Ni8 2.976257 1_554
Dy6 Ni6 2.976257 1_555
Dy6 Ni50 2.983558 1_655
Dy6 Ni52 2.983558 1_554
Dy6 Ni48 2.983558 1_545
Dy7 Ni33 2.834522 1_555
Dy7 Ni24 2.834522 1_555
Dy7 Ni31 2.834522 1_555
Dy7 Ni28 2.834522 1_555
Dy7 Ni38 2.834522 1_555
Dy7 Ni41 2.834522 1_555
Dy7 Ni23 2.929823 1_555
Dy7 Ni21 2.929823 1_555
Dy7 Ni22 2.929823 1_555
Dy7 Ni9 2.976257 1_555
Dy7 Ni11 2.976257 1_555
Dy7 Ni10 2.976257 1_555
Dy7 Ni49 2.983558 1_555
Dy7 Ni50 2.983558 1_555
Dy7 Ni51 2.983558 1_555
Dy8 Ni56 3.112219 1_554
Dy8 Ni57 3.112219 1_554
Dy8 Ni59 3.112219 1_555
Dy8 Ni55 3.112219 1_555
Dy8 Ni19 3.273248 1_555
Dy8 Ni16 3.273248 1_555
Dy8 Ni13 3.273248 1_555
Dy8 Ni10 3.273248 1_555
Dy8 Ni22 3.273248 1_554
Dy8 Ni1 3.273248 1_554
Dy8 Ni4 3.273248 1_555
Dy8 Ni7 3.273248 1_555
Dy9 Ni59 3.112219 1_545
Dy9 Ni56 3.112219 1_555
Dy9 Ni58 3.112219 1_545
Dy9 Ni54 3.112219 1_555
Dy9 Ni20 3.273248 1_555
Dy9 Ni14 3.273248 1_555
Dy9 Ni23 3.273248 1_545
Dy9 Ni11 3.273248 1_555
Dy9 Ni17 3.273248 1_555
Dy9 Ni5 3.273248 1_545
Dy9 Ni2 3.273248 1_555
Dy9 Ni8 3.273248 1_555
Dy10 Ni54 3.112219 1_455
Dy10 Ni55 3.112219 1_455
Dy10 Ni58 3.112219 1_555
Dy10 Ni57 3.112219 1_555
Dy10 Ni15 3.273248 1_555
Dy10 Ni12 3.273248 1_555
Dy10 Ni21 3.273248 1_455
Dy10 Ni6 3.273248 1_455
Dy10 Ni18 3.273248 1_555
Dy10 Ni9 3.273248 1_555
Dy10 Ni0 3.273248 1_555
Dy10 Ni3 3.273248 1_555
Ni0 Ni15 2.305507 1_555
Ni0 Ni13 2.373556 1_455
Ni0 Ni14 2.373556 1_565
Ni0 Ni42 2.444759 1_455
Ni0 Ni39 2.444768 1_555
Ni0 Ni26 2.501429 1_555
Ni0 Ni29 2.501429 1_455
Ni0 Ni55 2.629895 1_455
Ni0 Ni58 2.629895 1_555
Ni1 Ni22 2.305507 1_555
Ni1 Ni14 2.373556 1_555
Ni1 Ni12 2.373556 1_555
Ni1 Ni35 2.444768 1_555
Ni1 Ni37 2.444768 1_555
Ni1 Ni28 2.501421 1_555
Ni1 Ni24 2.501421 1_555
Ni1 Ni56 2.629895 1_555
Ni1 Ni57 2.629895 1_555
Ni2 Ni20 2.305507 1_555
Ni2 Ni46 2.444759 1_545
Ni2 Ni32 2.444768 1_555
Ni2 Ni27 2.501429 1_555
Ni2 Ni25 2.501429 1_545
Ni2 Ni59 2.629895 1_545
Ni2 Ni54 2.629895 1_555
Ni3 Ni45 2.444759 1_455
Ni3 Ni36 2.444768 1_555
Ni3 Ni35 2.501429 1_555
Ni3 Ni32 2.501429 1_455
Ni3 Ni57 2.629895 1_555
Ni3 Ni54 2.629895 1_455
Ni4 Ni43 2.444759 1_554
Ni4 Ni55 2.629895 1_555
Ni4 Ni56 2.629895 1_554
Ni5 Ni58 2.629895 1_555
Ni5 Ni59 2.629895 1_555
Ni10 Ni13 2.305507 1_555
Ni10 Ni23 2.373556 1_555
Ni10 Ni21 2.373556 1_555
Ni10 Ni31 2.444770 1_555
Ni10 Ni41 2.444770 1_555
Ni10 Ni42 2.501427 1_555
Ni10 Ni46 2.501427 1_555
Ni10 Ni59 2.629895 1_555
Ni10 Ni55 2.629895 1_555
Ni11 Ni17 2.305507 1_555
Ni11 Ni21 2.373556 1_555
Ni11 Ni22 2.373556 1_555
Ni11 Ni28 2.444770 1_555
Ni11 Ni38 2.444770 1_555
Ni11 Ni45 2.501427 1_555
Ni11 Ni43 2.501427 1_555
Ni11 Ni56 2.629895 1_555
Ni11 Ni54 2.629895 1_555
Ni12 Ni3 2.305507 1_555
Ni12 Ni2 2.373556 1_455
Ni12 Ni24 2.444759 1_555
Ni12 Ni27 2.444768 1_455
Ni12 Ni35 2.501429 1_555
Ni12 Ni32 2.501429 1_455
Ni12 Ni54 2.629895 1_455
Ni12 Ni57 2.629895 1_555
Ni13 Ni2 2.373556 1_565
Ni13 Ni29 2.444768 1_555
Ni13 Ni25 2.444768 1_555
Ni13 Ni42 2.501421 1_555
Ni13 Ni46 2.501421 1_555
Ni13 Ni59 2.629895 1_555
Ni13 Ni55 2.629895 1_555
Ni14 Ni8 2.305507 1_555
Ni14 Ni28 2.444759 1_555
Ni14 Ni26 2.444768 1_545
Ni14 Ni37 2.501429 1_555
Ni14 Ni39 2.501429 1_545
Ni14 Ni58 2.629895 1_545
Ni14 Ni56 2.629895 1_555
Ni15 Ni4 2.373556 1_455
Ni15 Ni5 2.373556 1_555
Ni15 Ni33 2.444759 1_555
Ni15 Ni30 2.444768 1_455
Ni15 Ni26 2.501429 1_555
Ni15 Ni29 2.501429 1_455
Ni15 Ni58 2.629895 1_555
Ni15 Ni55 2.629895 1_455
Ni16 Ni7 2.305507 1_555
Ni16 Ni3 2.373556 1_554
Ni16 Ni5 2.373556 1_555
Ni16 Ni31 2.444759 1_555
Ni16 Ni35 2.444768 1_554
Ni16 Ni36 2.501429 1_554
Ni16 Ni40 2.501429 1_555
Ni16 Ni59 2.629895 1_555
Ni16 Ni57 2.629895 1_554
Ni17 Ni4 2.373556 1_556
Ni17 Ni3 2.373556 1_655
Ni17 Ni32 2.444768 1_555
Ni17 Ni34 2.444768 1_555
Ni17 Ni45 2.501421 1_555
Ni17 Ni43 2.501421 1_555
Ni17 Ni56 2.629895 1_555
Ni17 Ni54 2.629895 1_555
Ni18 Ni9 2.305507 1_555
Ni18 Ni7 2.373556 1_556
Ni18 Ni8 2.373556 1_565
Ni18 Ni39 2.444768 1_555
Ni18 Ni36 2.444768 1_555
Ni18 Ni44 2.501421 1_555
Ni18 Ni47 2.501421 1_555
Ni18 Ni58 2.629895 1_555
Ni18 Ni57 2.629895 1_555
Ni19 Ni4 2.305507 1_555
Ni19 Ni8 2.373556 1_554
Ni19 Ni6 2.373556 1_555
Ni19 Ni41 2.444759 1_555
Ni19 Ni37 2.444768 1_554
Ni19 Ni34 2.501429 1_554
Ni19 Ni30 2.501429 1_555
Ni19 Ni56 2.629895 1_554
Ni19 Ni55 2.629895 1_555
Ni20 Ni6 2.373556 1_555
Ni20 Ni7 2.373556 1_545
Ni20 Ni38 2.444759 1_555
Ni20 Ni40 2.444768 1_545
Ni20 Ni25 2.501429 1_545
Ni20 Ni27 2.501429 1_555
Ni20 Ni54 2.629895 1_555
Ni20 Ni59 2.629895 1_545
Ni21 Ni6 2.305507 1_555
Ni21 Ni42 2.444770 1_555
Ni21 Ni45 2.444770 1_555
Ni21 Ni41 2.501427 1_555
Ni21 Ni38 2.501427 1_555
Ni21 Ni55 2.629895 1_555
Ni21 Ni54 2.629895 1_555
Ni22 Ni9 2.373556 1_555
Ni22 Ni43 2.444770 1_555
Ni22 Ni47 2.444770 1_555
Ni22 Ni24 2.501427 1_555
Ni22 Ni28 2.501427 1_555
Ni22 Ni57 2.629895 1_555
Ni22 Ni56 2.629895 1_555
Ni23 Ni5 2.305507 1_555
Ni23 Ni9 2.373556 1_555
Ni23 Ni44 2.444770 1_555
Ni23 Ni46 2.444770 1_555
Ni23 Ni33 2.501427 1_555
Ni23 Ni31 2.501427 1_555
Ni23 Ni58 2.629895 1_555
Ni23 Ni59 2.629895 1_555
Ni24 Ni9 2.444770 1_555
Ni24 Ni57 2.574486 1_555
Ni25 Ni7 2.444768 1_555
Ni25 Ni59 2.574495 1_555
Ni26 Ni5 2.444768 1_555
Ni26 Ni58 2.574495 1_555
Ni27 Ni6 2.444768 1_555
Ni27 Ni54 2.574495 1_555
Ni28 Ni56 2.574486 1_555
Ni29 Ni4 2.444768 1_555
Ni29 Ni55 2.574495 1_555
Ni30 Ni6 2.444768 1_555
Ni30 Ni4 2.501429 1_555
Ni30 Ni55 2.574495 1_555
Ni31 Ni5 2.501421 1_555
Ni31 Ni59 2.574486 1_555
Ni32 Ni54 2.574495 1_555
Ni33 Ni9 2.444770 1_555
Ni33 Ni5 2.501421 1_555
Ni33 Ni58 2.574486 1_555
Ni34 Ni8 2.444768 1_555
Ni34 Ni4 2.501429 1_556
Ni34 Ni56 2.574495 1_555
Ni35 Ni57 2.574495 1_555
Ni36 Ni7 2.501429 1_556
Ni36 Ni57 2.574495 1_555
Ni37 Ni8 2.501429 1_555
Ni37 Ni56 2.574495 1_555
Ni38 Ni6 2.501421 1_555
Ni38 Ni54 2.574486 1_555
Ni39 Ni8 2.501429 1_565
Ni39 Ni58 2.574495 1_555
Ni40 Ni5 2.444768 1_555
Ni40 Ni7 2.501429 1_555
Ni40 Ni59 2.574495 1_555
Ni41 Ni6 2.501421 1_555
Ni41 Ni55 2.574486 1_555
Ni42 Ni55 2.574486 1_555
Ni43 Ni56 2.574486 1_555
Ni44 Ni8 2.444759 1_565
Ni44 Ni9 2.501427 1_555
Ni44 Ni58 2.574486 1_555
Ni45 Ni54 2.574486 1_555
Ni46 Ni59 2.574486 1_555
Ni47 Ni7 2.444759 1_556
Ni47 Ni9 2.501427 1_555
Ni47 Ni57 2.574486 1_555
Ni54 Ni6 2.629895 1_555
Ni55 Ni6 2.629895 1_555
Ni56 Ni8 2.629895 1_555
Ni57 Ni7 2.629895 1_556
Ni57 Ni9 2.629895 1_555
Ni58 Ni8 2.629895 1_565
Ni58 Ni9 2.629895 1_555
Ni59 Ni7 2.629895 1_555
C0 Ni48 1.838425 1_555
C0 Ni29 1.877690 1_555
C0 Ni25 1.877690 1_555
C0 Ni43 1.877697 1_554
C0 Ni47 1.877697 1_554
C0 Dy8 2.615285 1_555
C1 Ni49 1.838425 1_555
C1 Ni40 1.877690 1_545
C1 Ni26 1.877690 1_545
C1 Ni38 1.877697 1_555
C1 Ni28 1.877697 1_555
C1 Dy9 2.615285 1_555
C2 Ni50 1.838425 1_555
C2 Ni27 1.877690 1_455
C2 Ni30 1.877690 1_455
C2 Ni33 1.877697 1_555
C2 Ni24 1.877697 1_555
C2 Dy10 2.615285 1_555
C3 Ni51 1.838425 1_555
C3 Ni35 1.877690 1_554
C3 Ni37 1.877690 1_554
C3 Ni31 1.877697 1_555
C3 Ni41 1.877697 1_555
C3 Dy8 2.615285 1_555
C4 Ni52 1.838425 1_555
C4 Ni34 1.877690 1_555
C4 Ni32 1.877690 1_555
C4 Ni46 1.877697 1_545
C4 Ni44 1.877697 1_545
C4 Dy9 2.615285 1_555
C5 Ni53 1.838425 1_555
C5 Ni39 1.877690 1_555
C5 Ni36 1.877690 1_555
C5 Ni42 1.877697 1_455
C5 Ni45 1.877697 1_455
C5 Dy10 2.615285 1_555
