# generated using pymatgen
data_KSi2H14C4N
_symmetry_space_group_name_H-M   'P 1'
_cell_length_a   6.14026000
_cell_length_b   15.65598500
_cell_length_c   11.76366800
_cell_angle_alpha   90.00000000
_cell_angle_beta   90.00000000
_cell_angle_gamma   90.00000000
_symmetry_Int_Tables_number   1
_chemical_formula_structural   KSi2H14C4N
_chemical_formula_sum   'K4 Si8 H56 C16 N4'
_cell_volume   1130.86279655
_cell_formula_units_Z   4
loop_
 _symmetry_equiv_pos_site_id
 _symmetry_equiv_pos_as_xyz
  1  'x, y, z'
loop_
 _atom_site_type_symbol
 _atom_site_label
 _atom_site_symmetry_multiplicity
 _atom_site_fract_x
 _atom_site_fract_y
 _atom_site_fract_z
 _atom_site_occupancy
  K  K0  1  0.65703300  0.25000000  0.34852100  1
  K  K1  1  0.15703300  0.25000000  0.15147900  1
  K  K2  1  0.34296700  0.75000000  0.65147900  1
  K  K3  1  0.84296700  0.75000000  0.84852100  1
  Si  Si0  1  0.14258600  0.34860000  0.45406800  1
  Si  Si1  1  0.64258600  0.15140000  0.04593200  1
  Si  Si2  1  0.85741400  0.84860000  0.54593200  1
  Si  Si3  1  0.35741400  0.65140000  0.95406800  1
  Si  Si4  1  0.85741400  0.65140000  0.54593200  1
  Si  Si5  1  0.35741400  0.84860000  0.95406800  1
  Si  Si6  1  0.14258600  0.15140000  0.45406800  1
  Si  Si7  1  0.64258600  0.34860000  0.04593200  1
  H  H0  1  0.29300500  0.42576300  0.28233700  1
  H  H1  1  0.79300500  0.07423700  0.21766300  1
  H  H2  1  0.70699500  0.92576300  0.71766300  1
  H  H3  1  0.20699500  0.57423700  0.78233700  1
  H  H4  1  0.70699500  0.57423700  0.71766300  1
  H  H5  1  0.20699500  0.92576300  0.78233700  1
  H  H6  1  0.29300500  0.07423700  0.28233700  1
  H  H7  1  0.79300500  0.42576300  0.21766300  1
  H  H8  1  0.25005400  0.49665600  0.39773000  1
  H  H9  1  0.75005400  0.00334400  0.10227000  1
  H  H10  1  0.74994600  0.99665600  0.60227000  1
  H  H11  1  0.24994600  0.50334400  0.89773000  1
  H  H12  1  0.74994600  0.50334400  0.60227000  1
  H  H13  1  0.24994600  0.99665600  0.89773000  1
  H  H14  1  0.25005400  0.00334400  0.39773000  1
  H  H15  1  0.75005400  0.49665600  0.10227000  1
  H  H16  1  0.47919500  0.42854200  0.39874000  1
  H  H17  1  0.97919500  0.07145800  0.10126000  1
  H  H18  1  0.52080500  0.92854200  0.60126000  1
  H  H19  1  0.02080500  0.57145800  0.89874000  1
  H  H20  1  0.52080500  0.57145800  0.60126000  1
  H  H21  1  0.02080500  0.92854200  0.89874000  1
  H  H22  1  0.47919500  0.07145800  0.39874000  1
  H  H23  1  0.97919500  0.42854200  0.10126000  1
  H  H24  1  0.37113100  0.34838800  0.63032200  1
  H  H25  1  0.87113100  0.15161200  0.86967800  1
  H  H26  1  0.62886900  0.84838800  0.36967800  1
  H  H27  1  0.12886900  0.65161200  0.13032200  1
  H  H28  1  0.62886900  0.65161200  0.36967800  1
  H  H29  1  0.12886900  0.84838800  0.13032200  1
  H  H30  1  0.37113100  0.15161200  0.63032200  1
  H  H31  1  0.87113100  0.34838800  0.86967800  1
  H  H32  1  0.17952700  0.43320500  0.63131700  1
  H  H33  1  0.67952700  0.06679500  0.86868300  1
  H  H34  1  0.82047300  0.93320500  0.36868300  1
  H  H35  1  0.32047300  0.56679500  0.13131700  1
  H  H36  1  0.82047300  0.56679500  0.36868300  1
  H  H37  1  0.32047300  0.93320500  0.13131700  1
  H  H38  1  0.17952700  0.06679500  0.63131700  1
  H  H39  1  0.67952700  0.43320500  0.86868300  1
  H  H40  1  0.09437700  0.32784700  0.66564800  1
  H  H41  1  0.59437700  0.17215300  0.83435200  1
  H  H42  1  0.90562300  0.82784700  0.33435200  1
  H  H43  1  0.40562300  0.67215300  0.16564800  1
  H  H44  1  0.90562300  0.67215300  0.33435200  1
  H  H45  1  0.40562300  0.82784700  0.16564800  1
  H  H46  1  0.09437700  0.17215300  0.66564800  1
  H  H47  1  0.59437700  0.32784700  0.83435200  1
  H  H48  1  0.90608300  0.37776800  0.44027100  1
  H  H49  1  0.40608300  0.12223200  0.05972900  1
  H  H50  1  0.09391700  0.87776800  0.55972900  1
  H  H51  1  0.59391700  0.62223200  0.94027100  1
  H  H52  1  0.09391700  0.62223200  0.55972900  1
  H  H53  1  0.59391700  0.87776800  0.94027100  1
  H  H54  1  0.90608300  0.12223200  0.44027100  1
  H  H55  1  0.40608300  0.37776800  0.05972900  1
  C  C0  1  0.30604600  0.43193000  0.37533500  1
  C  C1  1  0.80604600  0.06807000  0.12466500  1
  C  C2  1  0.69395400  0.93193000  0.62466500  1
  C  C3  1  0.19395400  0.56807000  0.87533500  1
  C  C4  1  0.69395400  0.56807000  0.62466500  1
  C  C5  1  0.19395400  0.93193000  0.87533500  1
  C  C6  1  0.30604600  0.06807000  0.37533500  1
  C  C7  1  0.80604600  0.43193000  0.12466500  1
  C  C8  1  0.20184400  0.36529600  0.61011900  1
  C  C9  1  0.70184400  0.13470400  0.88988100  1
  C  C10  1  0.79815600  0.86529600  0.38988100  1
  C  C11  1  0.29815600  0.63470400  0.11011900  1
  C  C12  1  0.79815600  0.63470400  0.38988100  1
  C  C13  1  0.29815600  0.86529600  0.11011900  1
  C  C14  1  0.20184400  0.13470400  0.61011900  1
  C  C15  1  0.70184400  0.36529600  0.88988100  1
  N  N0  1  0.18226700  0.25000000  0.39766900  1
  N  N1  1  0.68226700  0.25000000  0.10233100  1
  N  N2  1  0.81773300  0.75000000  0.60233100  1
  N  N3  1  0.31773300  0.75000000  0.89766900  1
loop_
_geom_bond_atom_site_label_1
_geom_bond_atom_site_label_2
_geom_bond_distance
_geom_bond_site_symmetry_2
K0 N1 2.900239 1_555
K0 N0 2.971966 1_555
K1 N0 2.900239 1_555
K1 N1 2.971966 1_455
K2 N3 2.900239 1_555
K2 N2 2.971966 1_555
K3 N2 2.900239 1_555
K3 N3 2.971966 1_655
H48 Si0 1.530925 1_655
H48 K0 2.739491 1_555
H49 Si1 1.530925 1_555
H49 K1 2.739491 1_555
H50 Si2 1.530925 1_455
H50 K2 2.739491 1_555
H51 Si3 1.530925 1_555
H51 K3 2.739491 1_555
H52 Si4 1.530925 1_455
H52 K2 2.739491 1_555
H53 Si5 1.530925 1_555
H53 K3 2.739491 1_555
H54 Si6 1.530925 1_655
H54 K0 2.739491 1_555
H55 Si7 1.530925 1_555
H55 K1 2.739491 1_555
C0 H16 1.099532 1_555
C0 H0 1.101165 1_555
C0 H8 1.102036 1_555
C0 Si0 1.888711 1_555
C1 H17 1.099532 1_555
C1 H1 1.101165 1_555
C1 H9 1.102036 1_555
C1 Si1 1.888711 1_555
C2 H18 1.099532 1_555
C2 H2 1.101165 1_555
C2 H10 1.102036 1_555
C2 Si2 1.888711 1_555
C3 H19 1.099532 1_555
C3 H3 1.101165 1_555
C3 H11 1.102036 1_555
C3 Si3 1.888711 1_555
C4 H20 1.099532 1_555
C4 H4 1.101165 1_555
C4 H12 1.102036 1_555
C4 Si4 1.888711 1_555
C5 H21 1.099532 1_555
C5 H5 1.101165 1_555
C5 H13 1.102036 1_555
C5 Si5 1.888711 1_555
C6 H22 1.099532 1_555
C6 H6 1.101165 1_555
C6 H14 1.102036 1_555
C6 Si6 1.888711 1_555
C7 H23 1.099532 1_555
C7 H7 1.101165 1_555
C7 H15 1.102036 1_555
C7 Si7 1.888711 1_555
C8 H40 1.098129 1_555
C8 H24 1.098656 1_555
C8 H32 1.100599 1_555
C8 Si0 1.889612 1_555
C9 H41 1.098129 1_555
C9 H25 1.098656 1_555
C9 H33 1.100599 1_555
C9 Si1 1.889612 1_556
C10 H42 1.098129 1_555
C10 H26 1.098656 1_555
C10 H34 1.100599 1_555
C10 Si2 1.889612 1_555
C11 H43 1.098129 1_555
C11 H27 1.098656 1_555
C11 H35 1.100599 1_555
C11 Si3 1.889612 1_554
C12 H44 1.098129 1_555
C12 H28 1.098656 1_555
C12 H36 1.100599 1_555
C12 Si4 1.889612 1_555
C13 H45 1.098129 1_555
C13 H29 1.098656 1_555
C13 H37 1.100599 1_555
C13 Si5 1.889612 1_554
C14 H46 1.098129 1_555
C14 H30 1.098656 1_555
C14 H38 1.100599 1_555
C14 Si6 1.889612 1_555
C15 H47 1.098129 1_555
C15 H31 1.098656 1_555
C15 H39 1.100599 1_555
C15 Si7 1.889612 1_556
N0 Si6 1.697790 1_555
N0 Si0 1.697790 1_555
N1 Si1 1.697790 1_555
N1 Si7 1.697790 1_555
N2 Si4 1.697790 1_555
N2 Si2 1.697790 1_555
N3 Si3 1.697790 1_555
N3 Si5 1.697790 1_555
