# generated using pymatgen
data_NpFe2
_symmetry_space_group_name_H-M   'P 1'
_cell_length_a   4.83852381
_cell_length_b   4.83852381
_cell_length_c   4.83852381
_cell_angle_alpha   60.00000000
_cell_angle_beta   60.00000000
_cell_angle_gamma   60.00000000
_symmetry_Int_Tables_number   1
_chemical_formula_structural   NpFe2
_chemical_formula_sum   'Np2 Fe4'
_cell_volume   80.09836494
_cell_formula_units_Z   2
loop_
 _symmetry_equiv_pos_site_id
 _symmetry_equiv_pos_as_xyz
  1  'x, y, z'
loop_
 _atom_site_type_symbol
 _atom_site_label
 _atom_site_symmetry_multiplicity
 _atom_site_fract_x
 _atom_site_fract_y
 _atom_site_fract_z
 _atom_site_occupancy
  Np  Np0  1  0.75000000  0.75000000  0.75000000  1
  Np  Np1  1  0.50000000  0.50000000  0.50000000  1
  Fe  Fe0  1  0.12500000  0.62500000  0.12500000  1
  Fe  Fe1  1  0.12500000  0.12500000  0.62500000  1
  Fe  Fe2  1  0.62500000  0.12500000  0.12500000  1
  Fe  Fe3  1  0.12500000  0.12500000  0.12500000  1
loop_
_geom_bond_atom_site_label_1
_geom_bond_atom_site_label_2
_geom_bond_distance
_geom_bond_site_symmetry_2
Np0 Np1 2.962979 1_565
Np0 Np1 2.962979 1_655
Np0 Np1 2.962979 1_555
Np0 Np1 2.962979 1_556
Fe0 Fe1 2.419262 1_564
Fe0 Fe3 2.419262 1_555
Fe0 Fe2 2.419262 1_555
Fe0 Fe2 2.419262 1_465
Fe0 Fe3 2.419262 1_565
Fe0 Fe1 2.419262 1_555
Fe0 Np0 2.836836 1_454
Fe0 Np1 2.836836 1_555
Fe0 Np0 2.836836 1_554
Fe0 Np1 2.836836 1_455
Fe0 Np0 2.836836 1_455
Fe0 Np1 2.836836 1_554
Fe1 Fe3 2.419262 1_555
Fe1 Fe2 2.419262 1_555
Fe1 Fe3 2.419262 1_556
Fe1 Fe2 2.419262 1_456
Fe1 Np0 2.836836 1_445
Fe1 Np0 2.836836 1_545
Fe1 Np1 2.836836 1_555
Fe1 Np1 2.836836 1_455
Fe1 Np0 2.836836 1_455
Fe1 Np1 2.836836 1_545
Fe2 Fe3 2.419262 1_555
Fe2 Fe3 2.419262 1_655
Fe2 Np1 2.836836 1_554
Fe2 Np0 2.836836 1_545
Fe2 Np1 2.836836 1_545
Fe2 Np0 2.836836 1_554
Fe2 Np0 2.836836 1_544
Fe2 Np1 2.836836 1_555
Fe3 Np0 2.836836 1_445
Fe3 Np0 2.836836 1_454
Fe3 Np1 2.836836 1_554
Fe3 Np1 2.836836 1_545
Fe3 Np1 2.836836 1_455
Fe3 Np0 2.836836 1_544
