# generated using pymatgen
data_Tb3Ir2
_symmetry_space_group_name_H-M   'P 1'
_cell_length_a   14.97949299
_cell_length_b   14.97949299
_cell_length_c   14.97949299
_cell_angle_alpha   135.55218497
_cell_angle_beta   135.55218497
_cell_angle_gamma   64.67342930
_symmetry_Int_Tables_number   1
_chemical_formula_structural   Tb3Ir2
_chemical_formula_sum   'Tb42 Ir28'
_cell_volume   1625.06896028
_cell_formula_units_Z   14
loop_
 _symmetry_equiv_pos_site_id
 _symmetry_equiv_pos_as_xyz
  1  'x, y, z'
loop_
 _atom_site_type_symbol
 _atom_site_label
 _atom_site_symmetry_multiplicity
 _atom_site_fract_x
 _atom_site_fract_y
 _atom_site_fract_z
 _atom_site_occupancy
  Tb  Tb0  1  0.63236600  0.50310100  0.27927600  1
  Tb  Tb1  1  0.22382500  0.35308900  0.72072400  1
  Tb  Tb2  1  0.13236600  0.85308900  0.12926400  1
  Tb  Tb3  1  0.72382500  0.00310100  0.87073600  1
  Tb  Tb4  1  0.35308900  0.63236600  0.12926400  1
  Tb  Tb5  1  0.50310100  0.22382500  0.87073600  1
  Tb  Tb6  1  0.00310100  0.13236600  0.27927600  1
  Tb  Tb7  1  0.85308900  0.72382500  0.72072400  1
  Tb  Tb8  1  0.36763400  0.49689900  0.72072400  1
  Tb  Tb9  1  0.77617500  0.64691100  0.27927600  1
  Tb  Tb10  1  0.86763400  0.14691100  0.87073600  1
  Tb  Tb11  1  0.27617500  0.99689900  0.12926400  1
  Tb  Tb12  1  0.64691100  0.36763400  0.87073600  1
  Tb  Tb13  1  0.49689900  0.77617500  0.12926400  1
  Tb  Tb14  1  0.99689900  0.86763400  0.72072400  1
  Tb  Tb15  1  0.14691100  0.27617500  0.27927600  1
  Tb  Tb16  1  0.38586400  0.51702900  0.29051900  1
  Tb  Tb17  1  0.22651000  0.09534500  0.70948100  1
  Tb  Tb18  1  0.88586400  0.59534500  0.86883500  1
  Tb  Tb19  1  0.72651000  0.01702900  0.13116500  1
  Tb  Tb20  1  0.09534500  0.38586400  0.86883500  1
  Tb  Tb21  1  0.51702900  0.22651000  0.13116500  1
  Tb  Tb22  1  0.01702900  0.88586400  0.29051900  1
  Tb  Tb23  1  0.59534500  0.72651000  0.70948100  1
  Tb  Tb24  1  0.61413600  0.48297100  0.70948100  1
  Tb  Tb25  1  0.77349000  0.90465500  0.29051900  1
  Tb  Tb26  1  0.11413600  0.40465500  0.13116500  1
  Tb  Tb27  1  0.27349000  0.98297100  0.86883500  1
  Tb  Tb28  1  0.90465500  0.61413600  0.13116500  1
  Tb  Tb29  1  0.48297100  0.77349000  0.86883500  1
  Tb  Tb30  1  0.98297100  0.11413600  0.70948100  1
  Tb  Tb31  1  0.40465500  0.27349000  0.29051900  1
  Tb  Tb32  1  0.85085500  0.35085500  0.20171000  1
  Tb  Tb33  1  0.14914500  0.64914500  0.79829000  1
  Tb  Tb34  1  0.35085500  0.14914500  0.50000000  1
  Tb  Tb35  1  0.64914500  0.85085500  0.50000000  1
  Tb  Tb36  1  0.38738700  0.88738700  0.50000000  1
  Tb  Tb37  1  0.88738700  0.38738700  0.50000000  1
  Tb  Tb38  1  0.61261300  0.11261300  0.50000000  1
  Tb  Tb39  1  0.11261300  0.61261300  0.50000000  1
  Tb  Tb40  1  0.25000000  0.75000000  0.50000000  1
  Tb  Tb41  1  0.75000000  0.25000000  0.50000000  1
  Ir  Ir0  1  0.71499900  0.21499900  0.14189500  1
  Ir  Ir1  1  0.07310400  0.57310400  0.85810500  1
  Ir  Ir2  1  0.21499900  0.07310400  0.50000000  1
  Ir  Ir3  1  0.57310400  0.71499900  0.50000000  1
  Ir  Ir4  1  0.28500100  0.78500100  0.85810500  1
  Ir  Ir5  1  0.92689600  0.42689600  0.14189500  1
  Ir  Ir6  1  0.78500100  0.92689600  0.50000000  1
  Ir  Ir7  1  0.42689600  0.28500100  0.50000000  1
  Ir  Ir8  1  0.46487200  0.96487200  0.80679100  1
  Ir  Ir9  1  0.15808100  0.65808100  0.19320900  1
  Ir  Ir10  1  0.96487200  0.15808100  0.50000000  1
  Ir  Ir11  1  0.65808100  0.46487200  0.50000000  1
  Ir  Ir12  1  0.53512800  0.03512800  0.19320900  1
  Ir  Ir13  1  0.84191900  0.34191900  0.80679100  1
  Ir  Ir14  1  0.03512800  0.84191900  0.50000000  1
  Ir  Ir15  1  0.34191900  0.53512800  0.50000000  1
  Ir  Ir16  1  0.59788000  0.09788000  0.69576000  1
  Ir  Ir17  1  0.40212000  0.90212000  0.30424000  1
  Ir  Ir18  1  0.09788000  0.40212000  0.50000000  1
  Ir  Ir19  1  0.90212000  0.59788000  0.50000000  1
  Ir  Ir20  1  0.36600900  0.36600900  0.00000000  1
  Ir  Ir21  1  0.86600900  0.86600900  0.00000000  1
  Ir  Ir22  1  0.63399100  0.63399100  0.00000000  1
  Ir  Ir23  1  0.13399100  0.13399100  0.00000000  1
  Ir  Ir24  1  0.50000000  0.50000000  0.00000000  1
  Ir  Ir25  1  0.00000000  0.00000000  0.00000000  1
  Ir  Ir26  1  0.25000000  0.25000000  0.00000000  1
  Ir  Ir27  1  0.75000000  0.75000000  0.00000000  1
loop_
_geom_bond_atom_site_label_1
_geom_bond_atom_site_label_2
_geom_bond_distance
_geom_bond_site_symmetry_2
Ir0 Tb32 2.724353 1_555
Ir0 Tb19 2.787697 1_555
Ir0 Tb21 2.787697 1_555
Ir0 Tb37 2.874249 1_555
Ir0 Tb3 2.930991 1_554
Ir0 Tb5 2.930991 1_554
Ir0 Tb6 3.283002 1_655
Ir0 Tb0 3.283002 1_555
Ir1 Tb33 2.724353 1_555
Ir1 Tb20 2.787697 1_555
Ir1 Tb18 2.787697 1_455
Ir1 Tb37 2.874249 1_455
Ir1 Tb4 2.930990 1_556
Ir1 Tb2 2.930990 1_556
Ir1 Tb1 3.283006 1_555
Ir1 Tb7 3.283006 1_455
Ir2 Tb34 2.724353 1_555
Ir2 Tb22 2.787697 1_545
Ir2 Tb17 2.787697 1_555
Ir2 Tb36 2.874249 1_545
Ir2 Tb1 2.930991 1_555
Ir2 Tb6 2.931001 1_555
Ir2 Tb5 3.283006 1_555
Ir2 Tb2 3.283012 1_545
Ir3 Tb35 2.724353 1_555
Ir3 Tb23 2.787697 1_555
Ir3 Tb16 2.787697 1_555
Ir3 Tb36 2.874249 1_555
Ir3 Tb7 2.930991 1_555
Ir3 Tb0 2.931001 1_555
Ir3 Tb3 3.283006 1_565
Ir3 Tb4 3.283012 1_555
Ir4 Tb33 2.724353 1_555
Ir4 Tb29 2.787697 1_555
Ir4 Tb27 2.787697 1_555
Ir4 Tb39 2.874249 1_555
Ir4 Tb13 2.930991 1_556
Ir4 Tb11 2.930991 1_556
Ir4 Tb8 3.283002 1_555
Ir4 Tb14 3.283002 1_455
Ir5 Tb32 2.724353 1_555
Ir5 Tb26 2.787697 1_655
Ir5 Tb28 2.787697 1_555
Ir5 Tb39 2.874249 1_655
Ir5 Tb10 2.930990 1_554
Ir5 Tb12 2.930990 1_554
Ir5 Tb15 3.283006 1_655
Ir5 Tb9 3.283006 1_555
Ir6 Tb35 2.724353 1_555
Ir6 Tb25 2.787697 1_555
Ir6 Tb30 2.787697 1_565
Ir6 Tb38 2.874249 1_565
Ir6 Tb9 2.930991 1_555
Ir6 Tb14 2.931001 1_555
Ir6 Tb13 3.283006 1_555
Ir6 Tb10 3.283012 1_565
Ir7 Tb34 2.724353 1_555
Ir7 Tb31 2.787697 1_555
Ir7 Tb24 2.787697 1_555
Ir7 Tb38 2.874249 1_555
Ir7 Tb15 2.930991 1_555
Ir7 Tb8 2.931001 1_555
Ir7 Tb11 3.283006 1_545
Ir7 Tb12 3.283012 1_555
Ir8 Tb40 2.909308 1_555
Ir8 Tb23 3.059322 1_555
Ir8 Tb17 3.059322 1_565
Ir8 Tb19 3.096785 1_566
Ir8 Tb21 3.096785 1_566
Ir8 Tb36 3.120048 1_555
Ir8 Tb29 3.454743 1_555
Ir8 Tb27 3.454743 1_555
Ir8 Tb5 3.479120 1_565
Ir8 Tb3 3.479120 1_565
Ir9 Tb40 2.909308 1_555
Ir9 Tb22 3.059322 1_555
Ir9 Tb16 3.059322 1_555
Ir9 Tb20 3.096785 1_554
Ir9 Tb18 3.096785 1_454
Ir9 Tb36 3.120048 1_555
Ir9 Tb26 3.454743 1_555
Ir9 Tb28 3.454743 1_455
Ir9 Tb4 3.479126 1_555
Ir9 Tb2 3.479126 1_555
Ir10 Tb41 2.909308 1_555
Ir10 Tb20 3.059322 1_655
Ir10 Tb19 3.059322 1_555
Ir10 Tb22 3.096785 1_645
Ir10 Tb17 3.096785 1_655
Ir10 Tb37 3.120048 1_555
Ir10 Tb30 3.454743 1_555
Ir10 Tb25 3.454743 1_545
Ir10 Tb1 3.479120 1_655
Ir10 Tb6 3.479129 1_655
Ir11 Tb41 2.909308 1_555
Ir11 Tb21 3.059322 1_555
Ir11 Tb18 3.059322 1_555
Ir11 Tb16 3.096785 1_555
Ir11 Tb23 3.096785 1_555
Ir11 Tb37 3.120048 1_555
Ir11 Tb24 3.454743 1_555
Ir11 Tb31 3.454743 1_555
Ir11 Tb7 3.479120 1_555
Ir11 Tb0 3.479129 1_555
Ir12 Tb41 2.909308 1_555
Ir12 Tb25 3.059322 1_545
Ir12 Tb31 3.059322 1_555
Ir12 Tb29 3.096785 1_544
Ir12 Tb27 3.096785 1_544
Ir12 Tb38 3.120048 1_555
Ir12 Tb19 3.454743 1_555
Ir12 Tb21 3.454743 1_555
Ir12 Tb13 3.479120 1_545
Ir12 Tb11 3.479120 1_545
Ir13 Tb41 2.909308 1_555
Ir13 Tb24 3.059322 1_555
Ir13 Tb30 3.059322 1_555
Ir13 Tb26 3.096785 1_656
Ir13 Tb28 3.096785 1_556
Ir13 Tb38 3.120048 1_555
Ir13 Tb18 3.454743 1_555
Ir13 Tb20 3.454743 1_655
Ir13 Tb12 3.479126 1_555
Ir13 Tb10 3.479126 1_555
Ir14 Tb40 2.909308 1_555
Ir14 Tb27 3.059322 1_555
Ir14 Tb28 3.059322 1_455
Ir14 Tb25 3.096785 1_455
Ir14 Tb30 3.096785 1_465
Ir14 Tb39 3.120048 1_555
Ir14 Tb22 3.454743 1_555
Ir14 Tb17 3.454743 1_565
Ir14 Tb9 3.479120 1_455
Ir14 Tb14 3.479129 1_455
Ir15 Tb40 2.909308 1_555
Ir15 Tb29 3.059322 1_555
Ir15 Tb26 3.059322 1_555
Ir15 Tb31 3.096785 1_555
Ir15 Tb24 3.096785 1_555
Ir15 Tb39 3.120048 1_555
Ir15 Tb16 3.454743 1_555
Ir15 Tb23 3.454743 1_555
Ir15 Tb15 3.479120 1_555
Ir15 Tb8 3.479129 1_555
Ir16 Tb35 2.858756 1_545
Ir16 Tb34 2.858756 1_555
Ir16 Tb10 2.899322 1_555
Ir16 Tb12 2.899322 1_555
Ir16 Tb3 2.899335 1_555
Ir16 Tb5 2.899335 1_555
Ir16 Tb36 3.253607 1_545
Ir16 Tb38 3.253607 1_555
Ir17 Tb35 2.858756 1_555
Ir17 Tb34 2.858756 1_565
Ir17 Tb2 2.899322 1_555
Ir17 Tb4 2.899322 1_555
Ir17 Tb11 2.899335 1_555
Ir17 Tb13 2.899335 1_555
Ir17 Tb36 3.253607 1_555
Ir17 Tb38 3.253607 1_565
Ir18 Tb32 2.858756 1_455
Ir18 Tb33 2.858756 1_555
Ir18 Tb6 2.899323 1_555
Ir18 Tb8 2.899323 1_555
Ir18 Tb15 2.899335 1_555
Ir18 Tb1 2.899335 1_555
Ir18 Tb37 3.253607 1_455
Ir18 Tb39 3.253607 1_555
Ir19 Tb32 2.858756 1_555
Ir19 Tb33 2.858756 1_655
Ir19 Tb0 2.899323 1_555
Ir19 Tb14 2.899323 1_555
Ir19 Tb9 2.899335 1_555
Ir19 Tb7 2.899335 1_555
Ir19 Tb37 3.253607 1_555
Ir19 Tb39 3.253607 1_655
Ir20 Tb1 2.924003 1_554
Ir20 Tb5 2.924003 1_554
Ir20 Tb0 2.924013 1_555
Ir20 Tb4 2.924016 1_555
Ir20 Tb17 2.969176 1_554
Ir20 Tb21 2.969176 1_555
Ir20 Tb20 2.969176 1_554
Ir20 Tb16 2.969176 1_555
Ir21 Tb7 2.924003 1_554
Ir21 Tb3 2.924003 1_564
Ir21 Tb6 2.924013 1_665
Ir21 Tb2 2.924016 1_655
Ir21 Tb18 2.969176 1_554
Ir21 Tb23 2.969176 1_554
Ir21 Tb19 2.969176 1_565
Ir21 Tb22 2.969176 1_655
Ir22 Tb13 2.924003 1_555
Ir22 Tb9 2.924003 1_555
Ir22 Tb8 2.924013 1_554
Ir22 Tb12 2.924016 1_554
Ir22 Tb28 2.969176 1_555
Ir22 Tb24 2.969176 1_554
Ir22 Tb25 2.969176 1_555
Ir22 Tb29 2.969176 1_554
Ir23 Tb11 2.924003 1_545
Ir23 Tb15 2.924003 1_555
Ir23 Tb14 2.924013 1_444
Ir23 Tb10 2.924016 1_454
Ir23 Tb30 2.969176 1_454
Ir23 Tb27 2.969176 1_544
Ir23 Tb31 2.969176 1_555
Ir23 Tb26 2.969176 1_555
Ir24 Tb8 3.064762 1_554
Ir24 Tb0 3.064762 1_555
Ir24 Tb4 3.064765 1_555
Ir24 Tb12 3.064765 1_554
Ir24 Tb5 3.064767 1_554
Ir24 Tb9 3.064767 1_555
Ir24 Tb13 3.064767 1_555
Ir24 Tb1 3.064767 1_554
Ir25 Tb14 3.064762 1_444
Ir25 Tb6 3.064762 1_555
Ir25 Tb2 3.064765 1_545
Ir25 Tb10 3.064765 1_454
Ir25 Tb3 3.064767 1_454
Ir25 Tb7 3.064767 1_444
Ir25 Tb11 3.064767 1_545
Ir25 Tb15 3.064767 1_555
Ir26 Tb20 2.923321 1_554
Ir26 Tb30 2.923321 1_454
Ir26 Tb31 2.923321 1_555
Ir26 Tb17 2.923321 1_554
Ir26 Tb21 2.923321 1_555
Ir26 Tb27 2.923321 1_544
Ir26 Tb26 2.923321 1_555
Ir26 Tb16 2.923321 1_555
Ir27 Tb18 2.923321 1_554
Ir27 Tb28 2.923321 1_555
Ir27 Tb23 2.923321 1_554
Ir27 Tb19 2.923321 1_565
Ir27 Tb22 2.923321 1_655
Ir27 Tb24 2.923321 1_554
Ir27 Tb29 2.923321 1_554
Ir27 Tb25 2.923321 1_555
