# generated using pymatgen
data_VH10S2(NO4)2
_symmetry_space_group_name_H-M   'P 1'
_cell_length_a   5.14139612
_cell_length_b   6.72181171
_cell_length_c   13.48434000
_cell_angle_alpha   90.00000000
_cell_angle_beta   90.00000000
_cell_angle_gamma   93.95434576
_symmetry_Int_Tables_number   1
_chemical_formula_structural   VH10S2(NO4)2
_chemical_formula_sum   'V2 H20 S4 N4 O16'
_cell_volume   464.90257638
_cell_formula_units_Z   2
loop_
 _symmetry_equiv_pos_site_id
 _symmetry_equiv_pos_as_xyz
  1  'x, y, z'
loop_
 _atom_site_type_symbol
 _atom_site_label
 _atom_site_symmetry_multiplicity
 _atom_site_fract_x
 _atom_site_fract_y
 _atom_site_fract_z
 _atom_site_occupancy
  V  V0  1  0.50000000  0.50000000  0.00000000  1
  V  V1  1  0.00000000  0.00000000  0.50000000  1
  H  H0  1  0.97881700  0.14743300  0.18083700  1
  H  H1  1  0.92920300  0.65513400  0.43416300  1
  H  H2  1  0.92037300  0.60705800  0.82537900  1
  H  H3  1  0.02118300  0.85256700  0.81916300  1
  H  H4  1  0.12192000  0.25515800  0.28017900  1
  H  H5  1  0.17658600  0.68173600  0.75067000  1
  H  H6  1  0.37808000  0.24484200  0.78017900  1
  H  H7  1  0.32341400  0.81826400  0.25067000  1
  H  H8  1  0.47881700  0.64743300  0.31916300  1
  H  H9  1  0.42037300  0.10705800  0.67462100  1
  H  H10  1  0.42920300  0.15513400  0.06583700  1
  H  H11  1  0.52118300  0.35256700  0.68083700  1
  H  H12  1  0.57079700  0.84486600  0.93416300  1
  H  H13  1  0.57962700  0.89294200  0.32537900  1
  H  H14  1  0.67658600  0.18173600  0.74933000  1
  H  H15  1  0.62192000  0.75515800  0.21982100  1
  H  H16  1  0.82341400  0.31826400  0.24933000  1
  H  H17  1  0.87808000  0.74484200  0.71982100  1
  H  H18  1  0.07079700  0.34486600  0.56583700  1
  H  H19  1  0.07962700  0.39294200  0.17462100  1
  S  S0  1  0.01905400  0.75952900  0.06675900  1
  S  S1  1  0.51905400  0.25952900  0.43324100  1
  S  S2  1  0.48094600  0.74047100  0.56675900  1
  S  S3  1  0.98094600  0.24047100  0.93324100  1
  N  N0  1  0.99980100  0.72037100  0.77914900  1
  N  N1  1  0.49980100  0.22037100  0.72085100  1
  N  N2  1  0.50019900  0.77962900  0.27914900  1
  N  N3  1  0.00019900  0.27962900  0.22085100  1
  O  O0  1  0.97025800  0.22090000  0.58200900  1
  O  O1  1  0.08198900  0.89753200  0.15331600  1
  O  O2  1  0.18857700  0.57637100  0.08436300  1
  O  O3  1  0.26537100  0.33367000  0.90711300  1
  O  O4  1  0.23462900  0.16633000  0.40711300  1
  O  O5  1  0.31142300  0.92362900  0.58436300  1
  O  O6  1  0.41801100  0.60246800  0.65331600  1
  O  O7  1  0.52974200  0.27910000  0.08200900  1
  O  O8  1  0.47025800  0.72090000  0.91799100  1
  O  O9  1  0.58198900  0.39753200  0.34668400  1
  O  O10  1  0.68857700  0.07637100  0.41563700  1
  O  O11  1  0.76537100  0.83367000  0.59288700  1
  O  O12  1  0.73462900  0.66633000  0.09288700  1
  O  O13  1  0.81142300  0.42362900  0.91563700  1
  O  O14  1  0.91801100  0.10246800  0.84668400  1
  O  O15  1  0.02974200  0.77910000  0.41799100  1
loop_
_geom_bond_atom_site_label_1
_geom_bond_atom_site_label_2
_geom_bond_distance
_geom_bond_site_symmetry_2
H0 N3 1.038915 1_655
H1 O15 0.974522 1_655
H2 N0 1.045280 1_555
H3 N0 1.038915 1_455
H4 N3 1.035808 1_555
H5 N0 1.036151 1_455
H6 N1 1.035808 1_555
H7 N2 1.036151 1_555
H8 N2 1.038915 1_555
H9 N1 1.045280 1_555
H10 O7 0.974522 1_555
H11 N1 1.038915 1_555
H12 O8 0.974522 1_555
H13 N2 1.045280 1_555
H14 N1 1.036151 1_555
H15 N2 1.035808 1_555
H16 N3 1.036151 1_655
H17 N0 1.035808 1_555
H18 O0 0.974522 1_455
H19 N3 1.045280 1_555
O0 V1 1.866105 1_655
O1 S0 1.511976 1_555
O2 S0 1.574721 1_555
O2 V0 2.057829 1_555
O3 S3 1.590182 1_455
O3 V0 2.021882 1_556
O4 S1 1.590182 1_555
O4 V1 2.021882 1_555
O5 S2 1.574721 1_555
O5 V1 2.057829 1_565
O6 S2 1.511976 1_555
O7 V0 1.866105 1_555
O8 V0 1.866105 1_556
O9 S1 1.511976 1_555
O10 S1 1.574721 1_555
O10 V1 2.057829 1_655
O11 S2 1.590182 1_555
O11 V1 2.021882 1_665
O12 S0 1.590182 1_655
O12 V0 2.021882 1_555
O13 S3 1.574721 1_555
O13 V0 2.057829 1_556
O14 S3 1.511976 1_555
O15 V1 1.866105 1_565
