# generated using pymatgen
data_Ce3Ga10Ni
_symmetry_space_group_name_H-M   'P 1'
_cell_length_a   4.22378500
_cell_length_b   4.31006400
_cell_length_c   15.26939800
_cell_angle_alpha   90.00000000
_cell_angle_beta   90.00000000
_cell_angle_gamma   90.00000000
_symmetry_Int_Tables_number   1
_chemical_formula_structural   Ce3Ga10Ni
_chemical_formula_sum   'Ce3 Ga10 Ni1'
_cell_volume   277.97608740
_cell_formula_units_Z   1
loop_
 _symmetry_equiv_pos_site_id
 _symmetry_equiv_pos_as_xyz
  1  'x, y, z'
loop_
 _atom_site_type_symbol
 _atom_site_label
 _atom_site_symmetry_multiplicity
 _atom_site_fract_x
 _atom_site_fract_y
 _atom_site_fract_z
 _atom_site_occupancy
  Ce  Ce0  1  0.00000000  0.50000000  0.50000000  1
  Ce  Ce1  1  0.00000000  0.00000000  0.24573600  1
  Ce  Ce2  1  0.00000000  0.00000000  0.75426400  1
  Ga  Ga0  1  0.50000000  0.50000000  0.18461500  1
  Ga  Ga1  1  0.50000000  0.50000000  0.81538500  1
  Ga  Ga2  1  0.50000000  0.50000000  0.34190000  1
  Ga  Ga3  1  0.50000000  0.50000000  0.65810000  1
  Ga  Ga4  1  0.50000000  0.00000000  0.41924400  1
  Ga  Ga5  1  0.50000000  0.00000000  0.58075600  1
  Ga  Ga6  1  0.50000000  0.00000000  0.08501600  1
  Ga  Ga7  1  0.50000000  0.00000000  0.91498400  1
  Ga  Ga8  1  0.00000000  0.50000000  0.08418900  1
  Ga  Ga9  1  0.00000000  0.50000000  0.91581100  1
  Ni  Ni0  1  0.00000000  0.00000000  0.00000000  1
loop_
_geom_bond_atom_site_label_1
_geom_bond_atom_site_label_2
_geom_bond_distance
_geom_bond_site_symmetry_2
Ce0 Ga3 3.207480 1_455
Ce0 Ga3 3.207480 1_555
Ce0 Ga2 3.207480 1_455
Ce0 Ga2 3.207480 1_555
Ce0 Ga5 3.259567 1_555
Ce0 Ga5 3.259567 1_465
Ce0 Ga5 3.259567 1_565
Ce0 Ga5 3.259567 1_455
Ce0 Ga4 3.259567 1_555
Ce0 Ga4 3.259567 1_465
Ce0 Ga4 3.259567 1_565
Ce0 Ga4 3.259567 1_455
Ce1 Ga0 3.158364 1_545
Ce1 Ga0 3.158364 1_445
Ce1 Ga0 3.158364 1_455
Ce1 Ga0 3.158364 1_555
Ce1 Ga6 3.237698 1_555
Ce1 Ga6 3.237698 1_455
Ce1 Ga8 3.275500 1_545
Ce1 Ga8 3.275500 1_555
Ce1 Ga2 3.355645 1_445
Ce1 Ga2 3.355645 1_545
Ce1 Ga2 3.355645 1_555
Ce1 Ga2 3.355645 1_455
Ce1 Ga4 3.388099 1_455
Ce1 Ga4 3.388099 1_555
Ce2 Ga1 3.158364 1_545
Ce2 Ga1 3.158364 1_555
Ce2 Ga1 3.158364 1_445
Ce2 Ga1 3.158364 1_455
Ce2 Ga7 3.237698 1_455
Ce2 Ga7 3.237698 1_555
Ce2 Ga9 3.275500 1_555
Ce2 Ga9 3.275500 1_545
Ce2 Ga3 3.355645 1_555
Ce2 Ga3 3.355645 1_545
Ce2 Ga3 3.355645 1_445
Ce2 Ga3 3.355645 1_455
Ce2 Ga5 3.388099 1_555
Ce2 Ga5 3.388099 1_455
Ga0 Ga2 2.401647 1_555
Ga0 Ga8 2.609893 1_655
Ga0 Ga8 2.609893 1_555
Ga0 Ga6 2.637621 1_565
Ga0 Ga6 2.637621 1_555
Ga1 Ga3 2.401647 1_555
Ga1 Ga9 2.609893 1_655
Ga1 Ga9 2.609893 1_555
Ga1 Ga7 2.637621 1_555
Ga1 Ga7 2.637621 1_565
Ga2 Ga4 2.457420 1_565
Ga2 Ga4 2.457420 1_555
Ga3 Ga5 2.457420 1_565
Ga3 Ga5 2.457420 1_555
Ga4 Ga5 2.466191 1_555
Ga6 Ni0 2.478965 1_655
Ga6 Ni0 2.478965 1_555
Ga6 Ga7 2.596286 1_554
Ga6 Ga8 3.017352 1_555
Ga6 Ga8 3.017352 1_545
Ga6 Ga8 3.017352 1_645
Ga6 Ga8 3.017352 1_655
Ga7 Ni0 2.478965 1_556
Ga7 Ni0 2.478965 1_656
Ga7 Ga9 3.017352 1_655
Ga7 Ga9 3.017352 1_555
Ga7 Ga9 3.017352 1_545
Ga7 Ga9 3.017352 1_645
Ga8 Ni0 2.509325 1_565
Ga8 Ni0 2.509325 1_555
Ga8 Ga9 2.571031 1_554
Ga9 Ni0 2.509325 1_556
Ga9 Ni0 2.509325 1_566
