# generated using pymatgen
data_TiCrCuS4
_symmetry_space_group_name_H-M   'P 1'
_cell_length_a   11.41751800
_cell_length_b   6.97578500
_cell_length_c   11.94246500
_cell_angle_alpha   90.00000000
_cell_angle_beta   90.00000000
_cell_angle_gamma   90.00000000
_symmetry_Int_Tables_number   1
_chemical_formula_structural   TiCrCuS4
_chemical_formula_sum   'Ti8 Cr8 Cu8 S32'
_cell_volume   951.17136833
_cell_formula_units_Z   8
loop_
 _symmetry_equiv_pos_site_id
 _symmetry_equiv_pos_as_xyz
  1  'x, y, z'
loop_
 _atom_site_type_symbol
 _atom_site_label
 _atom_site_symmetry_multiplicity
 _atom_site_fract_x
 _atom_site_fract_y
 _atom_site_fract_z
 _atom_site_occupancy
  Ti  Ti0  1  0.08952800  0.88473200  0.68297700  1
  Ti  Ti1  1  0.91047200  0.11526800  0.18297700  1
  Ti  Ti2  1  0.41047200  0.88473200  0.18297700  1
  Ti  Ti3  1  0.58952800  0.11526800  0.68297700  1
  Ti  Ti4  1  0.13402900  0.37675900  0.33224300  1
  Ti  Ti5  1  0.86597100  0.62324100  0.83224300  1
  Ti  Ti6  1  0.36597100  0.37675900  0.83224300  1
  Ti  Ti7  1  0.63402900  0.62324100  0.33224300  1
  Cr  Cr0  1  0.15738500  0.61778300  0.95182700  1
  Cr  Cr1  1  0.84261500  0.38221700  0.45182700  1
  Cr  Cr2  1  0.34261500  0.61778300  0.45182700  1
  Cr  Cr3  1  0.65738500  0.38221700  0.95182700  1
  Cr  Cr4  1  0.13966900  0.12618900  0.97510300  1
  Cr  Cr5  1  0.86033100  0.87381100  0.47510300  1
  Cr  Cr6  1  0.36033100  0.12618900  0.47510300  1
  Cr  Cr7  1  0.63966900  0.87381100  0.97510300  1
  Cu  Cu0  1  0.10948700  0.37380400  0.68710100  1
  Cu  Cu1  1  0.89051300  0.62619600  0.18710100  1
  Cu  Cu2  1  0.39051300  0.37380400  0.18710100  1
  Cu  Cu3  1  0.60948700  0.62619600  0.68710100  1
  Cu  Cu4  1  0.12273700  0.88850800  0.32355700  1
  Cu  Cu5  1  0.87726300  0.11149200  0.82355700  1
  Cu  Cu6  1  0.37726300  0.88850800  0.82355700  1
  Cu  Cu7  1  0.62273700  0.11149200  0.32355700  1
  S  S0  1  0.02580100  0.86011900  0.88350600  1
  S  S1  1  0.97419900  0.13988100  0.38350600  1
  S  S2  1  0.47419900  0.86011900  0.38350600  1
  S  S3  1  0.52580100  0.13988100  0.88350600  1
  S  S4  1  0.03604100  0.36692700  0.14126700  1
  S  S5  1  0.96395900  0.63307300  0.64126700  1
  S  S6  1  0.46395900  0.36692700  0.64126700  1
  S  S7  1  0.53604100  0.63307300  0.14126700  1
  S  S8  1  0.02393600  0.38908300  0.87584500  1
  S  S9  1  0.97606400  0.61091700  0.37584500  1
  S  S10  1  0.47606400  0.38908300  0.37584500  1
  S  S11  1  0.52393600  0.61091700  0.87584500  1
  S  S12  1  0.03385200  0.87188500  0.14275900  1
  S  S13  1  0.96614800  0.12811500  0.64275900  1
  S  S14  1  0.46614800  0.87188500  0.64275900  1
  S  S15  1  0.53385200  0.12811500  0.14275900  1
  S  S16  1  0.21575400  0.87702800  0.51870900  1
  S  S17  1  0.78424600  0.12297200  0.01870900  1
  S  S18  1  0.28424600  0.87702800  0.01870900  1
  S  S19  1  0.71575400  0.12297200  0.51870900  1
  S  S20  1  0.21728800  0.36870000  0.51703800  1
  S  S21  1  0.78271200  0.63130000  0.01703800  1
  S  S22  1  0.28271200  0.36870000  0.01703800  1
  S  S23  1  0.71728800  0.63130000  0.51703800  1
  S  S24  1  0.23044200  0.12202800  0.79015300  1
  S  S25  1  0.76955800  0.87797200  0.29015200  1
  S  S26  1  0.26955800  0.12202800  0.29015200  1
  S  S27  1  0.73044200  0.87797200  0.79015300  1
  S  S28  1  0.24242800  0.63293400  0.77491600  1
  S  S29  1  0.75757200  0.36706600  0.27491600  1
  S  S30  1  0.25757200  0.63293400  0.27491600  1
  S  S31  1  0.74242800  0.36706600  0.77491600  1
loop_
_geom_bond_atom_site_label_1
_geom_bond_atom_site_label_2
_geom_bond_distance
_geom_bond_site_symmetry_2
Cr0 S28 2.327595 1_555
Cr0 S22 2.381831 1_556
Cr0 S8 2.385394 1_555
Cr0 S0 2.404279 1_555
Cr0 S18 2.450795 1_556
Cr1 S29 2.327595 1_555
Cr1 S23 2.381831 1_555
Cr1 S9 2.385394 1_555
Cr1 S1 2.404279 1_555
Cr1 S19 2.450795 1_555
Cr2 S30 2.327595 1_555
Cr2 S20 2.381831 1_555
Cr2 S10 2.385394 1_555
Cr2 S2 2.404279 1_555
Cr2 S16 2.450795 1_555
Cr3 S31 2.327595 1_555
Cr3 S21 2.381831 1_556
Cr3 S11 2.385394 1_555
Cr3 S3 2.404279 1_555
Cr3 S17 2.450795 1_556
Cr4 S22 2.404163 1_556
Cr4 S24 2.439998 1_555
Cr4 S18 2.452959 1_546
Cr4 S0 2.516297 1_545
Cr4 S8 2.552323 1_555
Cr4 S4 2.856212 1_556
Cr4 S12 2.935225 1_546
Cr5 S23 2.404163 1_555
Cr5 S25 2.440008 1_555
Cr5 S19 2.452959 1_565
Cr5 S1 2.516297 1_565
Cr5 S9 2.552323 1_555
Cr5 S5 2.856212 1_555
Cr5 S13 2.935225 1_565
Cr6 S20 2.404163 1_555
Cr6 S26 2.440008 1_555
Cr6 S16 2.452959 1_545
Cr6 S2 2.516297 1_545
Cr6 S10 2.552323 1_555
Cr6 S6 2.856212 1_555
Cr6 S14 2.935225 1_545
Cr7 S21 2.404163 1_556
Cr7 S27 2.439998 1_555
Cr7 S17 2.452959 1_566
Cr7 S3 2.516297 1_565
Cr7 S11 2.552323 1_555
Cr7 S7 2.856212 1_556
Cr7 S15 2.935225 1_566
Cu0 S20 2.375085 1_555
Cu0 S13 2.428203 1_455
Cu0 S8 2.458919 1_555
Cu0 S5 2.516243 1_455
Cu0 S24 2.550784 1_555
Cu0 S28 2.582879 1_555
Cu1 S21 2.375085 1_555
Cu1 S12 2.428203 1_655
Cu1 S9 2.458919 1_555
Cu1 S4 2.516243 1_655
Cu1 S25 2.550779 1_555
Cu1 S29 2.582879 1_555
Cu2 S22 2.375085 1_555
Cu2 S15 2.428203 1_555
Cu2 S10 2.458919 1_555
Cu2 S7 2.516243 1_555
Cu2 S26 2.550779 1_555
Cu2 S30 2.582879 1_555
Cu3 S23 2.375085 1_555
Cu3 S14 2.428203 1_555
Cu3 S11 2.458919 1_555
Cu3 S6 2.516243 1_555
Cu3 S27 2.550784 1_555
Cu3 S31 2.582879 1_555
Cu4 S26 2.371251 1_565
Cu4 S12 2.388596 1_555
Cu4 S30 2.426091 1_555
Cu4 S1 2.542363 1_465
Cu4 S16 2.562418 1_555
Cu4 S9 2.635159 1_455
Cu5 S27 2.371249 1_545
Cu5 S13 2.388596 1_555
Cu5 S31 2.426091 1_555
Cu5 S0 2.542363 1_645
Cu5 S17 2.562418 1_556
Cu5 S8 2.635159 1_655
Cu6 S24 2.371249 1_565
Cu6 S14 2.388596 1_555
Cu6 S28 2.426091 1_555
Cu6 S3 2.542363 1_565
Cu6 S18 2.562418 1_556
Cu6 S11 2.635159 1_555
Cu7 S25 2.371251 1_545
Cu7 S15 2.388596 1_555
Cu7 S29 2.426091 1_555
Cu7 S2 2.542363 1_545
Cu7 S19 2.562418 1_555
Cu7 S10 2.635159 1_555
S0 Ti0 2.508785 1_555
S0 Ti5 2.536804 1_455
S1 Ti1 2.508785 1_555
S1 Ti4 2.536804 1_655
S2 Ti2 2.508785 1_555
S2 Ti7 2.536804 1_555
S3 Ti3 2.508785 1_555
S3 Ti6 2.536804 1_555
S4 Ti1 2.320652 1_455
S4 Ti4 2.541274 1_555
S5 Ti0 2.320652 1_655
S5 Ti5 2.541274 1_555
S6 Ti3 2.320652 1_555
S6 Ti6 2.541274 1_555
S7 Ti2 2.320652 1_555
S7 Ti7 2.541274 1_555
S8 Ti5 2.488396 1_455
S9 Ti4 2.488396 1_655
S10 Ti7 2.488396 1_555
S11 Ti6 2.488396 1_555
S12 Ti1 2.257784 1_465
S13 Ti0 2.257784 1_645
S14 Ti3 2.257784 1_565
S15 Ti2 2.257784 1_545
S16 Ti0 2.434837 1_555
S17 Ti1 2.434837 1_555
S18 Ti2 2.434837 1_555
S19 Ti3 2.434837 1_555
S20 Ti4 2.403594 1_555
S21 Ti5 2.403594 1_554
S22 Ti6 2.403594 1_554
S23 Ti7 2.403594 1_555
S24 Ti6 2.409289 1_555
S24 Ti0 2.639486 1_545
S25 Ti7 2.409292 1_555
S25 Ti1 2.639480 1_565
S26 Ti4 2.409292 1_555
S26 Ti2 2.639480 1_545
S27 Ti5 2.409289 1_555
S27 Ti3 2.639486 1_565
S28 Ti6 2.377356 1_555
S28 Ti0 2.708950 1_555
S29 Ti7 2.377356 1_555
S29 Ti1 2.708950 1_555
S30 Ti4 2.377356 1_555
S30 Ti2 2.708950 1_555
S31 Ti5 2.377356 1_555
S31 Ti3 2.708950 1_555
