# generated using pymatgen
data_TbAg(WO4)2
_symmetry_space_group_name_H-M   'P 1'
_cell_length_a   7.41017035
_cell_length_b   7.41017035
_cell_length_c   7.34525842
_cell_angle_alpha   65.79201100
_cell_angle_beta   65.79201100
_cell_angle_gamma   94.14420591
_symmetry_Int_Tables_number   1
_chemical_formula_structural   TbAg(WO4)2
_chemical_formula_sum   'Tb2 Ag2 W4 O16'
_cell_volume   321.19900600
_cell_formula_units_Z   2
loop_
 _symmetry_equiv_pos_site_id
 _symmetry_equiv_pos_as_xyz
  1  'x, y, z'
loop_
 _atom_site_type_symbol
 _atom_site_label
 _atom_site_symmetry_multiplicity
 _atom_site_fract_x
 _atom_site_fract_y
 _atom_site_fract_z
 _atom_site_occupancy
  Tb  Tb0  1  0.69821400  0.30178600  0.00000000  1
  Tb  Tb1  1  0.30178600  0.69821400  0.00000000  1
  Ag  Ag0  1  0.68377900  0.68377900  0.48257100  1
  Ag  Ag1  1  0.31622100  0.31622100  0.51742900  1
  W  W0  1  0.21136200  0.21136200  0.03257900  1
  W  W1  1  0.78863800  0.78863800  0.96742100  1
  W  W2  1  0.83566100  0.16433900  0.50000000  1
  W  W3  1  0.16433900  0.83566100  0.50000000  1
  O  O0  1  0.35241200  0.10177100  0.24416000  1
  O  O1  1  0.64758800  0.89822900  0.75584000  1
  O  O2  1  0.89822900  0.64758800  0.75584000  1
  O  O3  1  0.10177100  0.35241200  0.24416000  1
  O  O4  1  0.68534900  0.21880500  0.35190800  1
  O  O5  1  0.31465100  0.78119500  0.64809200  1
  O  O6  1  0.78119500  0.31465100  0.64809200  1
  O  O7  1  0.21880500  0.68534900  0.35190800  1
  O  O8  1  0.69867000  0.95893700  0.08549000  1
  O  O9  1  0.30133000  0.04106300  0.91451000  1
  O  O10  1  0.04106300  0.30133000  0.91451000  1
  O  O11  1  0.95893700  0.69867000  0.08549000  1
  O  O12  1  0.97814900  0.97814900  0.34146300  1
  O  O13  1  0.02185100  0.02185100  0.65853700  1
  O  O14  1  0.55643600  0.55643600  0.13548500  1
  O  O15  1  0.44356400  0.44356400  0.86451500  1
loop_
_geom_bond_atom_site_label_1
_geom_bond_atom_site_label_2
_geom_bond_distance
_geom_bond_site_symmetry_2
Ag0 O15 2.357727 1_555
Ag0 O12 2.488906 1_555
Ag0 O8 2.739143 1_555
Ag0 O11 2.739143 1_555
Ag0 O5 2.785493 1_555
Ag0 O6 2.785493 1_555
Ag1 O14 2.357727 1_555
Ag1 O13 2.488906 1_555
Ag1 O9 2.739143 1_555
Ag1 O10 2.739143 1_555
Ag1 O7 2.785493 1_555
Ag1 O4 2.785493 1_555
O0 W3 1.943745 1_545
O0 W0 2.141732 1_555
O0 Tb0 2.341283 1_555
O1 W2 1.943745 1_565
O1 W1 2.141732 1_555
O1 Tb1 2.341283 1_556
O2 W3 1.943745 1_655
O2 W1 2.141732 1_555
O2 Tb0 2.341283 1_556
O3 W2 1.943745 1_455
O3 W0 2.141732 1_555
O3 Tb1 2.341283 1_555
O4 W2 1.812552 1_555
O4 Tb0 2.356823 1_555
O5 W3 1.812552 1_555
O5 Tb1 2.356823 1_556
O6 W2 1.812552 1_555
O6 Tb0 2.356823 1_556
O7 W3 1.812552 1_555
O7 Tb1 2.356823 1_555
O8 W1 1.825938 1_554
O8 Tb0 2.354456 1_565
O9 W0 1.825938 1_556
O9 Tb1 2.354456 1_546
O10 W0 1.825938 1_556
O10 Tb0 2.354456 1_456
O11 W1 1.825938 1_554
O11 Tb1 2.354456 1_655
O12 W0 2.063471 1_665
O12 W3 2.212302 1_655
O12 W2 2.212302 1_565
O13 W1 2.063471 1_445
O13 W2 2.212302 1_455
O13 W3 2.212302 1_545
O14 W1 1.879725 1_554
O14 Tb0 2.573723 1_555
O14 Tb1 2.573723 1_555
O15 W0 1.879725 1_556
O15 Tb0 2.573723 1_556
O15 Tb1 2.573723 1_556
