# generated using pymatgen
data_Tm6ReO12
_symmetry_space_group_name_H-M   'P 1'
_cell_length_a   6.33067057
_cell_length_b   6.33067057
_cell_length_c   6.33066995
_cell_angle_alpha   98.83286163
_cell_angle_beta   98.83286167
_cell_angle_gamma   98.83285449
_symmetry_Int_Tables_number   1
_chemical_formula_structural   Tm6ReO12
_chemical_formula_sum   'Tm6 Re1 O12'
_cell_volume   243.62405345
_cell_formula_units_Z   1
loop_
 _symmetry_equiv_pos_site_id
 _symmetry_equiv_pos_as_xyz
  1  'x, y, z'
loop_
 _atom_site_type_symbol
 _atom_site_label
 _atom_site_symmetry_multiplicity
 _atom_site_fract_x
 _atom_site_fract_y
 _atom_site_fract_z
 _atom_site_occupancy
  Tm  Tm0  1  0.68290374  0.85607117  0.38986992  1
  Tm  Tm1  1  0.38986992  0.68290374  0.85607117  1
  Tm  Tm2  1  0.85607117  0.38986992  0.68290374  1
  Tm  Tm3  1  0.31709626  0.14392883  0.61013008  1
  Tm  Tm4  1  0.61013008  0.31709626  0.14392883  1
  Tm  Tm5  1  0.14392883  0.61013008  0.31709626  1
  Re  Re0  1  0.00000000  0.00000000  -0.00000000  1
  O  O0  1  0.43005142  0.58949409  0.17724135  1
  O  O1  1  0.17724135  0.43005142  0.58949409  1
  O  O2  1  0.58949409  0.17724135  0.43005142  1
  O  O3  1  0.56994858  0.41050591  0.82275865  1
  O  O4  1  0.82275865  0.56994858  0.41050591  1
  O  O5  1  0.41050591  0.82275865  0.56994858  1
  O  O6  1  0.92304136  0.03839449  0.70105635  1
  O  O7  1  0.96160551  0.29894365  0.07695864  1
  O  O8  1  0.29894365  0.07695864  0.96160551  1
  O  O9  1  0.07695864  0.96160551  0.29894365  1
  O  O10  1  0.03839449  0.70105635  0.92304136  1
  O  O11  1  0.70105635  0.92304136  0.03839449  1
loop_
_geom_bond_atom_site_label_1
_geom_bond_atom_site_label_2
_geom_bond_distance
_geom_bond_site_symmetry_2
O0 Tm5 2.147463 1_555
O0 Tm1 2.192030 1_554
O0 Tm4 2.209926 1_555
O0 Tm0 2.243505 1_555
O1 Tm3 2.147463 1_555
O1 Tm2 2.192030 1_455
O1 Tm5 2.209926 1_555
O1 Tm1 2.243505 1_555
O2 Tm4 2.147463 1_555
O2 Tm0 2.192030 1_545
O2 Tm3 2.209926 1_555
O2 Tm2 2.243505 1_555
O3 Tm2 2.147463 1_555
O3 Tm4 2.192030 1_556
O3 Tm1 2.209926 1_555
O3 Tm3 2.243505 1_555
O4 Tm0 2.147463 1_555
O4 Tm5 2.192030 1_655
O4 Tm2 2.209926 1_555
O4 Tm4 2.243505 1_555
O5 Tm1 2.147463 1_555
O5 Tm3 2.192030 1_565
O5 Tm0 2.209926 1_555
O5 Tm5 2.243505 1_555
O6 Re0 1.942299 1_656
O6 Tm0 2.316763 1_545
O6 Tm2 2.344608 1_555
O6 Tm3 2.654835 1_655
O7 Re0 1.942299 1_655
O7 Tm5 2.316763 1_655
O7 Tm4 2.344608 1_555
O7 Tm2 2.654835 1_554
O8 Re0 1.942299 1_556
O8 Tm4 2.316763 1_556
O8 Tm3 2.344608 1_555
O8 Tm1 2.654835 1_545
O9 Re0 1.942299 1_565
O9 Tm3 2.316763 1_565
O9 Tm5 2.344608 1_555
O9 Tm0 2.654835 1_455
O10 Re0 1.942299 1_566
O10 Tm2 2.316763 1_455
O10 Tm1 2.344608 1_555
O10 Tm5 2.654835 1_556
O11 Re0 1.942299 1_665
O11 Tm1 2.316763 1_554
O11 Tm0 2.344608 1_555
O11 Tm4 2.654835 1_565
