# generated using pymatgen
data_Nb7Co6
_symmetry_space_group_name_H-M   'P 1'
_cell_length_a   4.97604442
_cell_length_b   4.97604442
_cell_length_c   9.16826665
_cell_angle_alpha   74.25399834
_cell_angle_beta   74.25399834
_cell_angle_gamma   59.99999441
_symmetry_Int_Tables_number   1
_chemical_formula_structural   Nb7Co6
_chemical_formula_sum   'Nb7 Co6'
_cell_volume   186.69967277
_cell_formula_units_Z   1
loop_
 _symmetry_equiv_pos_site_id
 _symmetry_equiv_pos_as_xyz
  1  'x, y, z'
loop_
 _atom_site_type_symbol
 _atom_site_label
 _atom_site_symmetry_multiplicity
 _atom_site_fract_x
 _atom_site_fract_y
 _atom_site_fract_z
 _atom_site_occupancy
  Nb  Nb0  1  0.00000000  0.00000000  0.00000000  1
  Nb  Nb1  1  0.16662800  0.16662800  0.50011500  1
  Nb  Nb2  1  0.83337200  0.83337200  0.49988500  1
  Nb  Nb3  1  0.34738000  0.34738000  0.95786000  1
  Nb  Nb4  1  0.65262000  0.65262000  0.04214000  1
  Nb  Nb5  1  0.45036600  0.45036600  0.64890200  1
  Nb  Nb6  1  0.54963400  0.54963400  0.35109800  1
  Co  Co0  1  0.57942500  0.09332800  0.23391900  1
  Co  Co1  1  0.09332800  0.09332800  0.23391900  1
  Co  Co2  1  0.09332800  0.57942500  0.23391900  1
  Co  Co3  1  0.42057500  0.90667200  0.76608100  1
  Co  Co4  1  0.90667200  0.90667200  0.76608100  1
  Co  Co5  1  0.90667200  0.42057500  0.76608100  1
loop_
_geom_bond_atom_site_label_1
_geom_bond_atom_site_label_2
_geom_bond_distance
_geom_bond_site_symmetry_2
Nb0 Nb4 2.896253 1_455
Nb0 Nb3 2.896253 1_454
Nb0 Nb3 2.896253 1_544
Nb0 Nb4 2.896253 1_545
Nb0 Nb4 2.896253 1_445
Nb0 Nb3 2.896253 1_554
Nb3 Nb5 2.689948 1_555
Nb3 Nb4 2.965150 1_456
Nb3 Nb4 2.965150 1_546
Nb3 Nb4 2.965150 1_556
Nb4 Nb6 2.689948 1_555
Nb5 Nb6 2.592836 1_555
Co0 Co2 2.418840 1_555
Co0 Co1 2.418840 1_555
Co0 Nb0 2.515469 1_655
Co0 Co2 2.557204 1_645
Co0 Co1 2.557204 1_655
Co0 Nb6 2.689368 1_545
Co0 Nb6 2.689368 1_555
Co0 Nb1 2.705868 1_555
Co0 Nb2 2.746260 1_545
Co0 Nb3 2.779772 1_554
Co0 Nb4 2.996638 1_555
Co0 Nb4 2.996638 1_545
Co1 Co2 2.418840 1_555
Co1 Nb0 2.515469 1_555
Co1 Co2 2.557204 1_545
Co1 Nb6 2.689368 1_545
Co1 Nb6 2.689368 1_455
Co1 Nb1 2.705866 1_555
Co1 Nb2 2.746258 1_445
Co1 Nb3 2.779772 1_554
Co1 Nb4 2.996638 1_455
Co1 Nb4 2.996638 1_545
Co2 Nb0 2.515469 1_565
Co2 Nb6 2.689368 1_455
Co2 Nb6 2.689368 1_555
Co2 Nb1 2.705868 1_555
Co2 Nb2 2.746260 1_455
Co2 Nb3 2.779772 1_554
Co2 Nb4 2.996638 1_555
Co2 Nb4 2.996638 1_455
Co3 Co5 2.418840 1_555
Co3 Co4 2.418840 1_555
Co3 Nb0 2.515469 1_566
Co3 Co5 2.557204 1_465
Co3 Co4 2.557204 1_455
Co3 Nb5 2.689368 1_565
Co3 Nb5 2.689368 1_555
Co3 Nb2 2.705868 1_555
Co3 Nb1 2.746260 1_565
Co3 Nb4 2.779772 1_556
Co3 Nb3 2.996638 1_555
Co3 Nb3 2.996638 1_565
Co4 Co5 2.418840 1_555
Co4 Nb0 2.515469 1_666
Co4 Co5 2.557204 1_565
Co4 Nb5 2.689368 1_565
Co4 Nb5 2.689368 1_655
Co4 Nb2 2.705866 1_555
Co4 Nb1 2.746258 1_665
Co4 Nb4 2.779772 1_556
Co4 Nb3 2.996638 1_655
Co4 Nb3 2.996638 1_565
Co5 Nb0 2.515469 1_656
Co5 Nb5 2.689368 1_655
Co5 Nb5 2.689368 1_555
Co5 Nb2 2.705868 1_555
Co5 Nb1 2.746260 1_655
Co5 Nb4 2.779772 1_556
Co5 Nb3 2.996638 1_555
Co5 Nb3 2.996638 1_655
