# generated using pymatgen
data_Ti3Zn(P2O7)2
_symmetry_space_group_name_H-M   'P 1'
_cell_length_a   7.89131000
_cell_length_b   7.62851600
_cell_length_c   9.78191764
_cell_angle_alpha   67.96239334
_cell_angle_beta   90.00000000
_cell_angle_gamma   90.00000000
_symmetry_Int_Tables_number   1
_chemical_formula_structural   Ti3Zn(P2O7)2
_chemical_formula_sum   'Ti6 Zn2 P8 O28'
_cell_volume   545.83797890
_cell_formula_units_Z   2
loop_
 _symmetry_equiv_pos_site_id
 _symmetry_equiv_pos_as_xyz
  1  'x, y, z'
loop_
 _atom_site_type_symbol
 _atom_site_label
 _atom_site_symmetry_multiplicity
 _atom_site_fract_x
 _atom_site_fract_y
 _atom_site_fract_z
 _atom_site_occupancy
  Ti  Ti0  1  0.13539500  0.81573500  0.52715300  1
  Ti  Ti1  1  0.63539500  0.18426500  0.97284700  1
  Ti  Ti2  1  0.86460500  0.18426500  0.47284700  1
  Ti  Ti3  1  0.36460500  0.81573500  0.02715300  1
  Ti  Ti4  1  0.00000000  0.00000000  0.00000000  1
  Ti  Ti5  1  0.50000000  0.00000000  0.50000000  1
  Zn  Zn0  1  0.00000000  0.50000000  0.00000000  1
  Zn  Zn1  1  0.50000000  0.50000000  0.50000000  1
  P  P0  1  0.95069400  0.39348000  0.69882700  1
  P  P1  1  0.45069400  0.60652000  0.80117300  1
  P  P2  1  0.04930600  0.60652000  0.30117300  1
  P  P3  1  0.54930600  0.39348000  0.19882700  1
  P  P4  1  0.20589000  0.11669700  0.69096200  1
  P  P5  1  0.70589000  0.88330300  0.80903800  1
  P  P6  1  0.79411000  0.88330300  0.30903800  1
  P  P7  1  0.29411000  0.11669700  0.19096200  1
  O  O0  1  0.37714300  0.13632400  0.61637700  1
  O  O1  1  0.87714300  0.86367600  0.88362300  1
  O  O2  1  0.62285700  0.86367600  0.38362300  1
  O  O3  1  0.12285700  0.13632400  0.11637700  1
  O  O4  1  0.39183600  0.73296800  0.64122400  1
  O  O5  1  0.89183600  0.26703200  0.85877600  1
  O  O6  1  0.60816400  0.26703200  0.35877600  1
  O  O7  1  0.10816400  0.73296800  0.14122400  1
  O  O8  1  0.83554200  0.35223300  0.58936100  1
  O  O9  1  0.33554200  0.64776700  0.91063900  1
  O  O10  1  0.16445800  0.64776700  0.41063900  1
  O  O11  1  0.66445800  0.35223300  0.08936100  1
  O  O12  1  0.14002800  0.31946600  0.67773600  1
  O  O13  1  0.64002800  0.68053400  0.82226400  1
  O  O14  1  0.85997200  0.68053400  0.32226400  1
  O  O15  1  0.35997200  0.31946600  0.17773600  1
  O  O16  1  0.52115400  0.60062300  0.17089200  1
  O  O17  1  0.02115400  0.39937700  0.32910800  1
  O  O18  1  0.47884600  0.39937700  0.82910800  1
  O  O19  1  0.97884600  0.60062300  0.67089200  1
  O  O20  1  0.79042600  0.99243100  0.13976100  1
  O  O21  1  0.29042600  0.00756900  0.36023900  1
  O  O22  1  0.20957400  0.00756900  0.86023900  1
  O  O23  1  0.70957400  0.99243100  0.63976100  1
  O  O24  1  0.42282300  0.03295600  0.11135000  1
  O  O25  1  0.92282300  0.96704400  0.38865000  1
  O  O26  1  0.57717700  0.96704400  0.88865000  1
  O  O27  1  0.07717700  0.03295600  0.61135000  1
loop_
_geom_bond_atom_site_label_1
_geom_bond_atom_site_label_2
_geom_bond_distance
_geom_bond_site_symmetry_2
O0 P4 1.516261 1_555
O0 Ti5 2.050798 1_555
O1 P5 1.516261 1_555
O1 Ti4 2.050798 1_666
O2 P6 1.516261 1_555
O2 Ti5 2.050798 1_565
O3 P7 1.516261 1_555
O3 Ti4 2.050798 1_555
O4 P1 1.568956 1_555
O4 Ti5 2.162123 1_565
O4 Ti0 2.282591 1_555
O5 P0 1.568956 1_555
O5 Ti4 2.162123 1_656
O5 Ti1 2.282591 1_555
O6 P3 1.568956 1_555
O6 Ti5 2.162123 1_555
O6 Ti2 2.282591 1_555
O7 P2 1.568956 1_555
O7 Ti4 2.162123 1_565
O7 Ti3 2.282591 1_555
O8 P0 1.524522 1_555
O8 Ti2 2.022215 1_555
O9 P1 1.524522 1_555
O9 Ti3 2.022215 1_556
O10 P2 1.524522 1_555
O10 Ti0 2.022215 1_555
O11 P3 1.524522 1_555
O11 Ti1 2.022215 1_554
O12 P4 1.590396 1_555
O12 P0 1.637402 1_455
O13 P5 1.590396 1_555
O13 P1 1.637402 1_555
O14 P6 1.590396 1_555
O14 P2 1.637402 1_655
O15 P7 1.590396 1_555
O15 P3 1.637402 1_555
O16 P3 1.515585 1_555
O16 Ti3 2.112932 1_555
O17 P2 1.515585 1_555
O17 Ti2 2.112932 1_455
O18 P1 1.515585 1_555
O18 Ti1 2.112932 1_555
O19 P0 1.515585 1_555
O19 Ti0 2.112932 1_655
O20 P6 1.549606 1_555
O20 Ti1 2.123924 1_564
O20 Ti4 2.132661 1_665
O21 P7 1.549606 1_555
O21 Ti0 2.123924 1_545
O21 Ti5 2.132661 1_555
O22 P4 1.549606 1_555
O22 Ti3 2.123924 1_546
O22 Ti4 2.132661 1_556
O23 P5 1.549606 1_555
O23 Ti2 2.123924 1_565
O23 Ti5 2.132661 1_565
O24 P7 1.555493 1_555
O24 Ti3 2.158578 1_545
O24 Ti1 2.192771 1_554
O25 P6 1.555493 1_555
O25 Ti2 2.158578 1_565
O25 Ti0 2.192771 1_655
O26 P5 1.555493 1_555
O26 Ti1 2.158578 1_565
O26 Ti3 2.192771 1_556
O27 P4 1.555493 1_555
O27 Ti0 2.158578 1_545
O27 Ti2 2.192771 1_455
