# generated using pymatgen
data_Mg5Si9
_symmetry_space_group_name_H-M   'P 1'
_cell_length_a   6.67617700
_cell_length_b   6.92669587
_cell_length_c   13.64273727
_cell_angle_alpha   75.46170054
_cell_angle_beta   76.36828291
_cell_angle_gamma   66.22095010
_symmetry_Int_Tables_number   1
_chemical_formula_structural   Mg5Si9
_chemical_formula_sum   'Mg10 Si18'
_cell_volume   552.37200859
_cell_formula_units_Z   2
loop_
 _symmetry_equiv_pos_site_id
 _symmetry_equiv_pos_as_xyz
  1  'x, y, z'
loop_
 _atom_site_type_symbol
 _atom_site_label
 _atom_site_symmetry_multiplicity
 _atom_site_fract_x
 _atom_site_fract_y
 _atom_site_fract_z
 _atom_site_occupancy
  Mg  Mg0  1  0.26227700  0.43436000  0.30214100  1
  Mg  Mg1  1  0.75896100  0.73166500  0.55286000  1
  Mg  Mg2  1  0.99900700  0.13629500  0.47655400  1
  Mg  Mg3  1  0.16842000  0.69967000  0.63427300  1
  Mg  Mg4  1  0.58482500  0.60425600  0.40152900  1
  Mg  Mg5  1  0.31678900  0.28416500  0.53816600  1
  Mg  Mg6  1  0.38524900  0.74616500  0.93981800  1
  Mg  Mg7  1  0.57553600  0.30295000  0.07384100  1
  Mg  Mg8  1  0.71537000  0.01322800  0.87072200  1
  Mg  Mg9  1  0.19402700  0.12076400  0.10781700  1
  Si  Si0  1  0.01457400  0.38199400  0.91751900  1
  Si  Si1  1  0.06780900  0.54833100  0.11806800  1
  Si  Si2  1  0.06482900  0.10199300  0.69182500  1
  Si  Si3  1  0.91105500  0.99084800  0.31299100  1
  Si  Si4  1  0.73586000  0.03147800  0.65777400  1
  Si  Si5  1  0.50955500  0.94720200  0.22201200  1
  Si  Si6  1  0.55191000  0.53684300  0.75178100  1
  Si  Si7  1  0.58644000  0.58187800  0.19175600  1
  Si  Si8  1  0.42824400  0.91671100  0.73774700  1
  Si  Si9  1  0.53318500  0.01758000  0.38540200  1
  Si  Si10  1  0.89194000  0.89729000  0.15950500  1
  Si  Si11  1  0.99666600  0.03569200  0.98244300  1
  Si  Si12  1  0.94079800  0.43840800  0.74675800  1
  Si  Si13  1  0.90580200  0.35150200  0.27736000  1
  Si  Si14  1  0.38366500  0.37428800  0.90750800  1
  Si  Si15  1  0.77322500  0.65177800  0.01546800  1
  Si  Si16  1  0.14480700  0.72191400  0.42879200  1
  Si  Si17  1  0.59911400  0.40054000  0.59776200  1
loop_
_geom_bond_atom_site_label_1
_geom_bond_atom_site_label_2
_geom_bond_distance
_geom_bond_site_symmetry_2
Mg0 Si16 2.719792 1_555
Mg0 Si7 2.733155 1_555
Mg0 Si13 2.772315 1_455
Mg0 Si9 2.829677 1_555
Mg0 Si1 2.886208 1_555
Mg1 Si16 2.714237 1_655
Mg1 Si4 2.741381 1_565
Mg1 Si17 2.781190 1_555
Mg1 Si9 2.890994 1_565
Mg1 Si6 2.999021 1_555
Mg1 Si12 3.069999 1_555
Mg2 Si4 2.793933 1_555
Mg2 Si16 2.828003 1_645
Mg2 Si13 2.830130 1_555
Mg2 Si3 2.926169 1_545
Mg2 Si17 2.951300 1_555
Mg2 Si2 3.008098 1_655
Mg3 Si12 2.768300 1_455
Mg3 Si17 2.801370 1_555
Mg3 Si16 2.806970 1_555
Mg3 Si2 2.854685 1_565
Mg3 Si4 2.881998 1_465
Mg3 Si6 3.015830 1_555
Mg4 Si16 2.671843 1_555
Mg4 Si13 2.698011 1_555
Mg4 Si17 2.698635 1_555
Mg4 Si9 2.699520 1_565
Mg4 Si7 2.901949 1_555
Mg4 Si5 2.930898 1_555
Mg5 Si17 2.672107 1_555
Mg5 Si2 2.745526 1_555
Mg5 Si9 2.863924 1_555
Mg5 Si16 2.909869 1_555
Mg5 Si4 3.212925 1_555
Mg6 Si11 2.601739 1_465
Mg6 Si8 2.709852 1_555
Mg6 Si14 2.724662 1_555
Mg6 Si15 2.785213 1_556
Mg6 Si6 3.023611 1_555
Mg6 Si1 3.243853 1_556
Mg7 Si14 2.707625 1_554
Mg7 Si7 2.838135 1_555
Mg7 Si11 2.862821 1_554
Mg7 Si5 2.882221 1_545
Mg7 Si10 2.907202 1_545
Mg7 Si15 3.053587 1_555
Mg7 Si1 3.106061 1_555
Mg8 Si14 2.655320 1_555
Mg8 Si15 2.722966 1_546
Mg8 Si11 2.752832 1_555
Mg8 Si4 2.849049 1_555
Mg8 Si2 3.081770 1_655
Mg9 Si5 2.621876 1_545
Mg9 Si11 2.683922 1_454
Mg9 Si1 2.764186 1_555
Mg9 Si10 2.874013 1_445
Mg9 Si0 2.968012 1_554
Mg9 Si13 2.980804 1_455
Mg9 Si3 3.134912 1_445
Mg9 Si14 3.147614 1_554
Si0 Si11 2.380629 1_455
Si0 Si15 2.384249 1_456
Si0 Si12 2.398158 1_455
Si0 Si14 2.415023 1_555
Si1 Si10 2.371752 1_455
Si1 Si15 2.449127 1_455
Si1 Si13 2.518937 1_455
Si2 Si8 2.393310 1_545
Si2 Si4 2.595730 1_455
Si3 Si9 2.432034 1_565
Si4 Si8 2.421769 1_545
Si5 Si9 2.450447 1_565
Si5 Si7 2.492851 1_555
Si6 Si8 2.389853 1_555
Si10 Si3 2.386397 1_555
Si10 Si5 2.402916 1_555
Si10 Si11 2.413472 1_564
Si12 Si2 2.388636 1_655
Si12 Si6 2.392140 1_555
Si13 Si3 2.409553 1_545
Si13 Si7 2.439389 1_555
Si14 Si6 2.395247 1_555
Si15 Si7 2.462180 1_555
Si16 Si3 2.396176 1_455
Si17 Si4 2.336309 1_555
Si17 Si6 2.418643 1_555
