# generated using pymatgen
data_CoO2
_symmetry_space_group_name_H-M   'P 1'
_cell_length_a   9.80269464
_cell_length_b   10.68183861
_cell_length_c   10.70738491
_cell_angle_alpha   94.91276331
_cell_angle_beta   93.49747741
_cell_angle_gamma   87.36653339
_symmetry_Int_Tables_number   1
_chemical_formula_structural   CoO2
_chemical_formula_sum   'Co30 O60'
_cell_volume   1114.04420167
_cell_formula_units_Z   30
loop_
 _symmetry_equiv_pos_site_id
 _symmetry_equiv_pos_as_xyz
  1  'x, y, z'
loop_
 _atom_site_type_symbol
 _atom_site_label
 _atom_site_symmetry_multiplicity
 _atom_site_fract_x
 _atom_site_fract_y
 _atom_site_fract_z
 _atom_site_occupancy
  Co  Co0  1  0.23098000  0.24894800  0.48800900  1
  Co  Co1  1  0.51371900  0.16414400  0.56218200  1
  Co  Co2  1  0.06298700  0.80954600  0.56101300  1
  Co  Co3  1  0.36453800  0.95015600  0.54909700  1
  Co  Co4  1  0.50078200  0.66376800  0.32778500  1
  Co  Co5  1  0.48479200  0.27473400  0.23276900  1
  Co  Co6  1  0.81908100  0.24338500  0.72028600  1
  Co  Co7  1  0.75396400  0.07484400  0.17182800  1
  Co  Co8  1  0.26593300  0.40887500  0.98584500  1
  Co  Co9  1  0.09222300  0.80092300  0.26256800  1
  Co  Co10  1  0.02273800  0.02848100  0.43536100  1
  Co  Co11  1  0.94006500  0.52243600  0.90053000  1
  Co  Co12  1  0.84147800  0.03908200  0.86184800  1
  Co  Co13  1  0.23579400  0.35301300  0.72032800  1
  Co  Co14  1  0.20293000  0.09142900  0.73795200  1
  Co  Co15  1  0.16537400  0.65432200  0.80043000  1
  Co  Co16  1  0.48220800  0.71693900  0.74779100  1
  Co  Co17  1  0.30593900  0.98303900  0.18613200  1
  Co  Co18  1  0.51117600  0.42554300  0.53397100  1
  Co  Co19  1  0.97252200  0.44326700  0.63296700  1
  Co  Co20  1  0.59013700  0.27891100  0.87296000  1
  Co  Co21  1  0.32623900  0.74757600  0.03612900  1
  Co  Co22  1  0.55561800  0.56496900  0.05218100  1
  Co  Co23  1  0.28128700  0.57447400  0.53411100  1
  Co  Co24  1  0.72984800  0.92824000  0.39507000  1
  Co  Co25  1  0.76127500  0.69562300  0.21434000  1
  Co  Co26  1  0.89168700  0.25521600  0.40146200  1
  Co  Co27  1  0.61708700  0.88221900  0.03055400  1
  Co  Co28  1  0.76651200  0.38721800  0.18439200  1
  Co  Co29  1  0.43125100  0.00388900  0.87232200  1
  O  O0  1  0.77302500  0.67367500  0.83552500  1
  O  O1  1  0.16197100  0.97135500  0.57692600  1
  O  O2  1  0.32767000  0.72320900  0.86492600  1
  O  O3  1  0.67583800  0.74798500  0.35964400  1
  O  O4  1  0.85740000  0.08400600  0.33579200  1
  O  O5  1  0.92006100  0.90792800  0.48429400  1
  O  O6  1  0.50436000  0.15032700  0.92851200  1
  O  O7  1  0.14971200  0.21411100  0.64027600  1
  O  O8  1  0.59112800  0.44164200  0.93125000  1
  O  O9  1  0.91438000  0.87188900  0.82409600  1
  O  O10  1  0.66787100  0.93683200  0.20992900  1
  O  O11  1  0.37766500  0.12430600  0.20825200  1
  O  O12  1  0.07661800  0.18578000  0.40686700  1
  O  O13  1  0.43410000  0.89768600  0.29854400  1
  O  O14  1  0.40096400  0.05894800  0.69607500  1
  O  O15  1  0.62326800  0.26458300  0.68626700  1
  O  O16  1  0.14561400  0.96008700  0.30992900  1
  O  O17  1  0.43399300  0.65608600  0.14796200  1
  O  O18  1  0.19066400  0.69324400  0.63375000  1
  O  O19  1  0.15670000  0.43063900  0.56413700  1
  O  O20  1  0.62440800  0.04533700  0.50946400  1
  O  O21  1  0.19153400  0.59939700  0.04986800  1
  O  O22  1  0.41985700  0.91777900  0.04824400  1
  O  O23  1  0.02675700  0.84993500  0.76316900  1
  O  O24  1  0.25060300  0.25959600  0.85093500  1
  O  O25  1  0.38401300  0.83509400  0.38597800  1
  O  O26  1  0.12785900  0.12864200  0.07559000  1
  O  O27  1  0.38532000  0.30209300  0.58788600  1
  O  O28  1  0.67677300  0.63512400  0.76091100  1
  O  O29  1  0.85977300  0.67438600  0.53816300  1
  O  O30  1  0.91164600  0.09520200  0.72277500  1
  O  O31  1  0.40518100  0.54520000  0.41348900  1
  O  O32  1  0.08955000  0.64048900  0.96529600  1
  O  O33  1  0.35544000  0.09944500  0.46416600  1
  O  O34  1  0.19987000  0.84671800  0.12922100  1
  O  O35  1  0.67459200  0.24048300  0.16580300  1
  O  O36  1  0.45412900  0.55342500  0.64888900  1
  O  O37  1  0.76223300  0.99702200  0.00742500  1
  O  O38  1  0.77769200  0.20846200  0.88251500  1
  O  O39  1  0.88557100  0.39394000  0.31660200  1
  O  O40  1  0.56040700  0.31113600  0.41020900  1
  O  O41  1  0.84911500  0.55724200  0.52875900  1
  O  O42  1  0.00908400  0.09343100  0.06691300  1
  O  O43  1  0.12176600  0.72825800  0.40141500  1
  O  O44  1  0.18574600  0.38133400  0.28140100  1
  O  O45  1  0.55705000  0.86374200  0.86019000  1
  O  O46  1  0.65333900  0.53432700  0.20709500  1
  O  O47  1  0.28214000  0.31931000  0.33358300  1
  O  O48  1  0.87100200  0.40718500  0.76656500  1
  O  O49  1  0.66954800  0.71293400  0.05246400  1
  O  O50  1  0.00898400  0.58125400  0.74739500  1
  O  O51  1  0.06681800  0.37240300  0.98905400  1
  O  O52  1  0.38565100  0.37401200  0.10456000  1
  O  O53  1  0.01081600  0.41168900  0.10133800  1
  O  O54  1  0.22882200  0.99498900  0.85589000  1
  O  O55  1  0.44117000  0.82003500  0.61411700  1
  O  O56  1  0.88324900  0.47626500  0.07009900  1
  O  O57  1  0.25862700  0.48747800  0.83173000  1
  O  O58  1  0.93238600  0.74681800  0.19811700  1
  O  O59  1  0.87535600  0.29734000  0.56485900  1
loop_
_geom_bond_atom_site_label_1
_geom_bond_atom_site_label_2
_geom_bond_distance
_geom_bond_site_symmetry_2
Co0 O12 1.825599 1_555
Co0 O27 1.879488 1_555
Co0 O7 1.928961 1_555
Co0 O33 1.973098 1_555
Co0 O47 1.974622 1_555
Co0 O19 2.152419 1_555
Co1 O20 1.712313 1_555
Co1 O27 1.906221 1_555
Co1 O15 1.938339 1_555
Co1 O33 1.939597 1_555
Co1 O14 2.263425 1_555
Co1 O40 2.432533 1_555
Co2 O5 1.901130 1_455
Co2 O18 1.902703 1_555
Co2 O43 1.956074 1_555
Co2 O1 2.010339 1_555
Co2 O23 2.217512 1_555
Co2 O29 2.501371 1_455
Co3 O55 1.728260 1_555
Co3 O33 1.898254 1_565
Co3 O14 1.900261 1_565
Co3 O1 2.025437 1_555
Co3 O25 2.061321 1_555
Co4 O31 1.933262 1_555
Co4 O3 1.971861 1_555
Co4 O17 1.991670 1_555
Co4 O25 2.178730 1_555
Co4 O46 2.357523 1_555
Co5 O11 1.950085 1_555
Co5 O52 1.986325 1_555
Co5 O40 2.009587 1_555
Co5 O35 2.040815 1_555
Co5 O47 2.329151 1_555
Co6 O30 1.789363 1_555
Co6 O48 1.862405 1_555
Co6 O38 1.879359 1_555
Co6 O59 1.926553 1_555
Co6 O15 1.938374 1_555
Co7 O10 1.819712 1_545
Co7 O37 1.885983 1_545
Co7 O35 1.904465 1_555
Co7 O4 1.970380 1_555
Co8 O52 1.729335 1_556
Co8 O57 1.910633 1_555
Co8 O51 2.010742 1_555
Co8 O24 2.062265 1_555
Co8 O21 2.197549 1_556
Co9 O43 1.738117 1_555
Co9 O58 1.774316 1_455
Co9 O16 1.823008 1_555
Co9 O34 1.934502 1_555
Co10 O5 1.801342 1_445
Co10 O12 1.839640 1_555
Co10 O16 1.933089 1_545
Co10 O4 1.981010 1_455
Co10 O1 2.088610 1_545
Co11 O48 1.920186 1_555
Co11 O50 1.972387 1_655
Co11 O32 2.028397 1_655
Co11 O56 2.037639 1_556
Co11 O51 2.223559 1_655
Co11 O0 2.363473 1_555
Co12 O30 1.834577 1_555
Co12 O37 1.880092 1_546
Co12 O38 1.886217 1_555
Co12 O9 1.912579 1_545
Co12 O42 2.699401 1_656
Co13 O24 1.781413 1_555
Co13 O57 1.799861 1_555
Co13 O7 1.859352 1_555
Co13 O19 2.026288 1_555
Co13 O27 2.122158 1_555
Co14 O54 1.697058 1_545
Co14 O7 1.785678 1_555
Co14 O14 2.026725 1_555
Co14 O1 2.088814 1_545
Co14 O24 2.131821 1_555
Co15 O50 1.791563 1_555
Co15 O2 1.853629 1_555
Co15 O18 1.900010 1_555
Co15 O32 1.976204 1_555
Co15 O57 2.009828 1_555
Co15 O23 2.487436 1_555
Co16 O55 1.892676 1_555
Co16 O36 1.984876 1_555
Co16 O2 2.020030 1_555
Co16 O45 2.029883 1_555
Co16 O28 2.063083 1_555
Co17 O11 1.686261 1_565
Co17 O34 1.866194 1_555
Co17 O13 1.938181 1_555
Co17 O22 1.966248 1_555
Co17 O16 2.152300 1_555
Co17 O26 2.584760 1_565
Co18 O40 1.796913 1_555
Co18 O36 1.848957 1_555
Co18 O27 1.990233 1_555
Co18 O31 2.091492 1_555
Co19 O50 1.867388 1_655
Co19 O48 1.867771 1_555
Co19 O59 1.930233 1_555
Co19 O19 1.985926 1_655
Co19 O41 2.030587 1_555
Co20 O8 1.796162 1_555
Co20 O6 1.804010 1_555
Co20 O38 1.954509 1_555
Co20 O15 2.036448 1_555
Co21 O2 1.830140 1_554
Co21 O17 1.859011 1_555
Co21 O34 1.870533 1_555
Co21 O22 2.064664 1_555
Co21 O21 2.127502 1_555
Co22 O8 1.803869 1_554
Co22 O17 1.814426 1_555
Co22 O46 1.909565 1_555
Co22 O49 1.976455 1_555
Co23 O18 1.821312 1_555
Co23 O31 1.824330 1_555
Co23 O36 2.046925 1_555
Co23 O19 2.064083 1_555
Co24 O20 1.976458 1_565
Co24 O3 2.018824 1_555
Co24 O10 2.046079 1_555
Co24 O5 2.053655 1_555
Co24 O4 2.281137 1_565
Co25 O58 1.810755 1_555
Co25 O3 1.844384 1_555
Co25 O49 1.922599 1_555
Co25 O46 2.056367 1_555
Co26 O59 1.783747 1_555
Co26 O39 1.800227 1_555
Co26 O12 1.926342 1_655
Co26 O4 1.938926 1_555
Co27 O45 1.879062 1_554
Co27 O49 1.887285 1_555
Co27 O37 1.960848 1_555
Co27 O22 1.970536 1_555
Co27 O10 1.998778 1_555
Co28 O39 1.777632 1_555
Co28 O35 1.833778 1_555
Co28 O46 1.888497 1_555
Co28 O56 2.045033 1_555
Co29 O6 1.792097 1_555
Co29 O45 1.896119 1_545
Co29 O54 1.987338 1_545
Co29 O14 2.025106 1_555
Co29 O22 2.176831 1_546
O0 O28 1.259159 1_555
O13 O25 1.325896 1_555
O21 O32 1.389034 1_554
O23 O9 1.315992 1_455
O26 O42 1.235631 1_555
O29 O41 1.255384 1_555
O44 O47 1.259152 1_555
O51 O53 1.376904 1_556
O53 O56 1.435501 1_455
