# generated using pymatgen
data_CeMg6B
_symmetry_space_group_name_H-M   'P 1'
_cell_length_a   7.14034502
_cell_length_b   7.14034502
_cell_length_c   4.74379800
_cell_angle_alpha   90.00000000
_cell_angle_beta   90.00000000
_cell_angle_gamma   133.30344773
_symmetry_Int_Tables_number   1
_chemical_formula_structural   CeMg6B
_chemical_formula_sum   'Ce1 Mg6 B1'
_cell_volume   176.00935396
_cell_formula_units_Z   1
loop_
 _symmetry_equiv_pos_site_id
 _symmetry_equiv_pos_as_xyz
  1  'x, y, z'
loop_
 _atom_site_type_symbol
 _atom_site_label
 _atom_site_symmetry_multiplicity
 _atom_site_fract_x
 _atom_site_fract_y
 _atom_site_fract_z
 _atom_site_occupancy
  Ce  Ce0  1  0.80695500  0.19304500  0.50000000  1
  Mg  Mg0  1  0.30372400  0.19669400  0.50000000  1
  Mg  Mg1  1  0.80330600  0.69627600  0.50000000  1
  Mg  Mg2  1  0.17965300  0.33781100  0.00000000  1
  Mg  Mg3  1  0.66218900  0.82034700  0.00000000  1
  Mg  Mg4  1  0.64609700  0.35390300  0.00000000  1
  Mg  Mg5  1  0.21121500  0.78878500  0.00000000  1
  B  B0  1  0.38686400  0.61313600  0.50000000  1
loop_
_geom_bond_atom_site_label_1
_geom_bond_atom_site_label_2
_geom_bond_distance
_geom_bond_site_symmetry_2
Ce0 Mg2 3.162748 1_655
Ce0 Mg2 3.162748 1_656
Ce0 Mg3 3.162748 1_545
Ce0 Mg3 3.162748 1_546
Ce0 Mg4 3.173959 1_556
Ce0 Mg4 3.173959 1_555
Mg0 Mg4 3.016299 1_556
Mg0 Mg4 3.016299 1_555
Mg1 Mg4 3.016299 1_556
Mg1 Mg4 3.016299 1_555
Mg2 Mg5 3.069926 1_555
Mg2 Mg4 3.252839 1_555
Mg3 Mg5 3.069926 1_555
Mg3 Mg4 3.252839 1_555
Mg4 Mg5 2.955846 1_545
Mg4 Mg5 2.955846 1_655
B0 Mg1 2.602487 1_555
B0 Mg0 2.602487 1_555
B0 Mg3 2.773068 1_555
B0 Mg3 2.773068 1_556
B0 Mg2 2.773068 1_556
B0 Mg2 2.773068 1_555
B0 Ce0 3.017579 1_565
B0 Ce0 3.017579 1_455
