# generated using pymatgen
data_KMnIO6
_symmetry_space_group_name_H-M   'P 1'
_cell_length_a   5.12591982
_cell_length_b   5.13186773
_cell_length_c   24.44415542
_cell_angle_alpha   90.16878303
_cell_angle_beta   90.07957410
_cell_angle_gamma   120.32271383
_symmetry_Int_Tables_number   1
_chemical_formula_structural   KMnIO6
_chemical_formula_sum   'K4 Mn4 I4 O24'
_cell_volume   555.04367522
_cell_formula_units_Z   4
loop_
 _symmetry_equiv_pos_site_id
 _symmetry_equiv_pos_as_xyz
  1  'x, y, z'
loop_
 _atom_site_type_symbol
 _atom_site_label
 _atom_site_symmetry_multiplicity
 _atom_site_fract_x
 _atom_site_fract_y
 _atom_site_fract_z
 _atom_site_occupancy
  K  K0  1  0.66672300  0.33324300  0.12499500  1
  K  K1  1  0.66720000  0.33469700  0.37514900  1
  K  K2  1  0.66536600  0.33212400  0.62493900  1
  K  K3  1  0.66694100  0.33325900  0.87489900  1
  Mn  Mn0  1  0.32418700  0.67130100  0.50004600  1
  Mn  Mn1  1  0.33352400  0.66617400  0.74998700  1
  Mn  Mn2  1  0.33303300  0.66689400  0.99996400  1
  Mn  Mn3  1  0.33289900  0.66692500  0.25001200  1
  I  I0  1  0.00040000  0.99984500  0.99998400  1
  I  I1  1  0.00044400  0.99985900  0.25001700  1
  I  I2  1  0.99955200  0.00017400  0.50001300  1
  I  I3  1  0.00052800  0.99975000  0.74998700  1
  O  O0  1  0.04457100  0.32729900  0.20583600  1
  O  O1  1  0.07227300  0.34221000  0.45515800  1
  O  O2  1  0.04643500  0.32893400  0.70593300  1
  O  O3  1  0.04441500  0.32733200  0.95579400  1
  O  O4  1  0.28348700  0.95423200  0.20589500  1
  O  O5  1  0.27899800  0.94520100  0.45538800  1
  O  O6  1  0.28216600  0.95077800  0.70589900  1
  O  O7  1  0.28343000  0.95428700  0.95586500  1
  O  O8  1  0.28509000  0.33079200  0.04411500  1
  O  O9  1  0.28531800  0.33081300  0.29415900  1
  O  O10  1  0.26875400  0.32573400  0.54562500  1
  O  O11  1  0.28431900  0.33443300  0.79418700  1
  O  O12  1  0.66952000  0.71485300  0.20586100  1
  O  O13  1  0.67294500  0.73111800  0.45450600  1
  O  O14  1  0.66585400  0.71585700  0.70575800  1
  O  O15  1  0.66936600  0.71479600  0.95583000  1
  O  O16  1  0.67221800  0.95561600  0.04415900  1
  O  O17  1  0.67233900  0.95579500  0.29418100  1
  O  O18  1  0.65971900  0.92956400  0.54468300  1
  O  O19  1  0.67064800  0.95307200  0.79410500  1
  O  O20  1  0.04536800  0.71707100  0.04410800  1
  O  O21  1  0.04538900  0.71692800  0.29412900  1
  O  O22  1  0.05737300  0.72069700  0.54475700  1
  O  O23  1  0.04920700  0.71834600  0.79407800  1
loop_
_geom_bond_atom_site_label_1
_geom_bond_atom_site_label_2
_geom_bond_distance
_geom_bond_site_symmetry_2
K0 O12 2.773362 1_555
K0 O16 2.773722 1_545
K0 O8 2.774873 1_555
K0 O0 2.776060 1_655
K0 O4 2.779954 1_545
K0 O20 2.780231 1_655
K1 O9 2.775092 1_555
K1 O21 2.778831 1_655
K1 O17 2.779942 1_545
K1 O13 2.796167 1_555
K1 O5 2.796382 1_545
K1 O1 2.836409 1_655
K2 O14 2.784406 1_555
K2 O6 2.785092 1_545
K2 O2 2.785180 1_655
K2 O10 2.795413 1_555
K2 O22 2.800651 1_655
K2 O18 2.834241 1_545
K3 O15 2.774901 1_555
K3 O3 2.775621 1_655
K3 O19 2.778896 1_545
K3 O7 2.781538 1_545
K3 O11 2.782162 1_555
K3 O23 2.787767 1_655
Mn0 O22 1.865970 1_555
Mn0 O1 1.872623 1_555
Mn0 O5 1.886311 1_555
Mn0 O18 1.894670 1_555
Mn0 O10 1.992666 1_555
Mn0 O13 1.995677 1_555
Mn1 O14 1.924565 1_555
Mn1 O11 1.925436 1_555
Mn1 O19 1.932195 1_555
Mn1 O2 1.932204 1_555
Mn1 O23 1.937500 1_555
Mn1 O6 1.939244 1_555
Mn2 O16 1.941510 1_556
Mn2 O3 1.942269 1_555
Mn2 O15 1.943014 1_555
Mn2 O8 1.945219 1_556
Mn2 O7 1.946569 1_555
Mn2 O20 1.947089 1_556
Mn3 O17 1.942060 1_555
Mn3 O0 1.942061 1_555
Mn3 O12 1.944419 1_555
Mn3 O21 1.945609 1_555
Mn3 O9 1.945802 1_555
Mn3 O4 1.945948 1_555
I0 O8 1.913108 1_566
I0 O15 1.913980 1_455
I0 O7 1.915167 1_555
I0 O16 1.915303 1_456
I0 O20 1.915359 1_556
I0 O3 1.915905 1_565
I1 O9 1.913572 1_565
I1 O12 1.913656 1_455
I1 O17 1.915102 1_455
I1 O0 1.915397 1_565
I1 O4 1.915441 1_555
I1 O21 1.915795 1_555
I2 O10 1.896164 1_655
I2 O13 1.896932 1_545
I2 O18 1.930870 1_545
I2 O5 1.931804 1_645
I2 O1 1.942667 1_655
I2 O22 1.943888 1_645
I3 O19 1.917615 1_455
I3 O6 1.917758 1_555
I3 O2 1.918036 1_565
I3 O23 1.918757 1_555
I3 O11 1.922315 1_565
I3 O14 1.922577 1_455
