# generated using pymatgen
data_YbGaCoO4
_symmetry_space_group_name_H-M   'P 1'
_cell_length_a   8.44185870
_cell_length_b   8.44185870
_cell_length_c   8.44185867
_cell_angle_alpha   23.72540565
_cell_angle_beta   23.72540565
_cell_angle_gamma   23.72540526
_symmetry_Int_Tables_number   1
_chemical_formula_structural   YbGaCoO4
_chemical_formula_sum   'Yb1 Ga1 Co1 O4'
_cell_volume   85.54985438
_cell_formula_units_Z   1
loop_
 _symmetry_equiv_pos_site_id
 _symmetry_equiv_pos_as_xyz
  1  'x, y, z'
loop_
 _atom_site_type_symbol
 _atom_site_label
 _atom_site_symmetry_multiplicity
 _atom_site_fract_x
 _atom_site_fract_y
 _atom_site_fract_z
 _atom_site_occupancy
  Yb  Yb0  1  0.99876700  0.99876700  0.99876700  1
  Ga  Ga0  1  0.78530800  0.78530800  0.78530800  1
  Co  Co0  1  0.21370000  0.21370000  0.21370000  1
  O  O0  1  0.71232800  0.71232800  0.71232800  1
  O  O1  1  0.28483700  0.28483700  0.28483700  1
  O  O2  1  0.86717100  0.86717100  0.86717100  1
  O  O3  1  0.13308800  0.13308800  0.13308800  1
loop_
_geom_bond_atom_site_label_1
_geom_bond_atom_site_label_2
_geom_bond_distance
_geom_bond_site_symmetry_2
Ga0 O0 1.795437 1_555
Ga0 O2 2.013974 1_555
Ga0 O3 2.035107 1_566
Ga0 O3 2.035107 1_656
Ga0 O3 2.035107 1_665
Co0 O1 1.750096 1_555
Co0 O3 1.983197 1_555
Co0 O2 2.029958 1_454
Co0 O2 2.029958 1_544
Co0 O2 2.029958 1_445
O0 Yb0 2.312212 1_545
O0 Yb0 2.312212 1_455
O0 Yb0 2.312212 1_554
O1 Yb0 2.316755 1_454
O1 Yb0 2.316755 1_544
O1 Yb0 2.316755 1_445
