# generated using pymatgen
data_V3Cr3B8
_symmetry_space_group_name_H-M   'P 1'
_cell_length_a   2.94844874
_cell_length_b   2.96441538
_cell_length_c   13.01512367
_cell_angle_alpha   90.00000000
_cell_angle_beta   90.00000000
_cell_angle_gamma   90.00000000
_symmetry_Int_Tables_number   1
_chemical_formula_structural   V3Cr3B8
_chemical_formula_sum   'V3 Cr3 B8'
_cell_volume   113.75773563
_cell_formula_units_Z   1
loop_
 _symmetry_equiv_pos_site_id
 _symmetry_equiv_pos_as_xyz
  1  'x, y, z'
loop_
 _atom_site_type_symbol
 _atom_site_label
 _atom_site_symmetry_multiplicity
 _atom_site_fract_x
 _atom_site_fract_y
 _atom_site_fract_z
 _atom_site_occupancy
  V  V0  1  0.00000000  0.00000000  0.81049845  1
  V  V1  1  0.50000000  0.00000000  0.00158545  1
  V  V2  1  0.00000000  0.50000000  0.49877993  1
  Cr  Cr0  1  0.00000000  -0.00000000  0.18714615  1
  Cr  Cr1  1  0.50000000  0.50000000  0.68782471  1
  Cr  Cr2  1  0.50000000  0.50000000  0.31289703  1
  B  B0  1  0.50000000  0.00000000  0.43217273  1
  B  B1  1  0.00000000  0.50000000  0.93498222  1
  B  B2  1  0.00000000  0.50000000  0.06826333  1
  B  B3  1  0.50000000  0.00000000  0.56546063  1
  B  B4  1  0.00000000  0.00000000  0.35958627  1
  B  B5  1  0.50000000  0.50000000  0.86285846  1
  B  B6  1  0.50000000  0.50000000  0.14091353  1
  B  B7  1  0.00000000  0.00000000  0.63702809  1
loop_
_geom_bond_atom_site_label_1
_geom_bond_atom_site_label_2
_geom_bond_distance
_geom_bond_site_symmetry_2
B0 B3 1.734759 1_555
B0 B4 1.750953 1_555
B0 B4 1.750953 1_655
B0 Cr2 2.146357 1_555
B0 Cr2 2.146357 1_545
B0 V2 2.263138 1_645
B0 V2 2.263138 1_655
B0 V2 2.263138 1_555
B0 V2 2.263138 1_545
B1 B2 1.734670 1_556
B1 B5 1.747711 1_555
B1 B5 1.747711 1_455
B1 V0 2.195882 1_555
B1 V0 2.195882 1_565
B1 V1 2.263118 1_466
B1 V1 2.263118 1_566
B1 V1 2.263118 1_556
B1 V1 2.263118 1_456
B2 B6 1.751401 1_455
B2 B6 1.751401 1_555
B2 Cr0 2.142662 1_565
B2 Cr0 2.142662 1_555
B2 V1 2.263491 1_565
B2 V1 2.263491 1_555
B2 V1 2.263491 1_465
B2 V1 2.263491 1_455
B3 B7 1.743833 1_555
B3 B7 1.743833 1_655
B3 Cr1 2.175606 1_545
B3 Cr1 2.175606 1_555
B3 V2 2.263505 1_545
B3 V2 2.263505 1_555
B3 V2 2.263505 1_645
B3 V2 2.263505 1_655
B4 Cr2 2.177047 1_455
B4 Cr2 2.177047 1_555
B4 Cr2 2.177047 1_445
B4 Cr2 2.177047 1_545
B4 Cr0 2.244329 1_555
B4 V2 2.340709 1_555
B4 V2 2.340709 1_545
B5 V0 2.198791 1_565
B5 V0 2.198791 1_665
B5 V0 2.198791 1_555
B5 V0 2.198791 1_655
B5 Cr1 2.278086 1_555
B5 V1 2.336011 1_566
B5 V1 2.336011 1_556
B6 Cr0 2.175396 1_565
B6 Cr0 2.175396 1_655
B6 Cr0 2.175396 1_555
B6 Cr0 2.175396 1_665
B6 Cr2 2.238387 1_555
B6 V1 2.342063 1_555
B6 V1 2.342063 1_565
B7 Cr1 2.192570 1_545
B7 Cr1 2.192570 1_445
B7 Cr1 2.192570 1_455
B7 Cr1 2.192570 1_555
B7 V0 2.257738 1_555
B7 V2 2.331197 1_545
B7 V2 2.331197 1_555
