# generated using pymatgen
data_Cr3N4
_symmetry_space_group_name_H-M   'P 1'
_cell_length_a   8.17645907
_cell_length_b   8.17645907
_cell_length_c   6.02958000
_cell_angle_alpha   90.00000000
_cell_angle_beta   90.00000000
_cell_angle_gamma   119.99999248
_symmetry_Int_Tables_number   1
_chemical_formula_structural   Cr3N4
_chemical_formula_sum   'Cr12 N16'
_cell_volume   349.09872332
_cell_formula_units_Z   4
loop_
 _symmetry_equiv_pos_site_id
 _symmetry_equiv_pos_as_xyz
  1  'x, y, z'
loop_
 _atom_site_type_symbol
 _atom_site_label
 _atom_site_symmetry_multiplicity
 _atom_site_fract_x
 _atom_site_fract_y
 _atom_site_fract_z
 _atom_site_occupancy
  Cr  Cr0  1  0.56799300  0.08174500  0.79269100  1
  Cr  Cr1  1  0.51375200  0.43200700  0.79269100  1
  Cr  Cr2  1  0.91825500  0.48624800  0.79269100  1
  Cr  Cr3  1  0.43200700  0.51375200  0.29269100  1
  Cr  Cr4  1  0.48624800  0.91825500  0.29269100  1
  Cr  Cr5  1  0.08174500  0.56799300  0.29269100  1
  Cr  Cr6  1  0.08680100  0.25416000  0.02267700  1
  Cr  Cr7  1  0.16735800  0.91319900  0.02267700  1
  Cr  Cr8  1  0.74584000  0.83264200  0.02267700  1
  Cr  Cr9  1  0.91319900  0.16735800  0.52267700  1
  Cr  Cr10  1  0.83264200  0.74584000  0.52267700  1
  Cr  Cr11  1  0.25416000  0.08680100  0.52267700  1
  N  N0  1  0.04508000  0.65293600  0.02461300  1
  N  N1  1  0.60785600  0.95492000  0.02461300  1
  N  N2  1  0.34706400  0.39214400  0.02461300  1
  N  N3  1  0.95492000  0.60785600  0.52461300  1
  N  N4  1  0.39214400  0.34706400  0.52461300  1
  N  N5  1  0.65293600  0.04508000  0.52461300  1
  N  N6  1  0.00230200  0.31542700  0.77205600  1
  N  N7  1  0.31312600  0.99769800  0.77205600  1
  N  N8  1  0.68457300  0.68687400  0.77205600  1
  N  N9  1  0.99769800  0.31312600  0.27205600  1
  N  N10  1  0.68687400  0.68457300  0.27205600  1
  N  N11  1  0.31542700  0.00230200  0.27205600  1
  N  N12  1  0.00000000  0.00000000  0.02027500  1
  N  N13  1  0.00000000  0.00000000  0.52027500  1
  N  N14  1  0.33333300  0.66666700  0.35802300  1
  N  N15  1  0.66666700  0.33333300  0.85802300  1
loop_
_geom_bond_atom_site_label_1
_geom_bond_atom_site_label_2
_geom_bond_distance
_geom_bond_site_symmetry_2
Cr0 N15 1.837958 1_555
Cr0 N5 1.842066 1_555
Cr0 N7 1.843458 1_545
Cr0 N1 1.864150 1_546
Cr1 N15 1.837965 1_555
Cr1 N4 1.842066 1_555
Cr1 N8 1.843459 1_555
Cr1 N2 1.864150 1_556
Cr2 N15 1.837959 1_555
Cr2 N3 1.842066 1_555
Cr2 N6 1.843465 1_655
Cr2 N0 1.864150 1_656
Cr3 N14 1.837965 1_555
Cr3 N2 1.842066 1_555
Cr3 N10 1.843459 1_555
Cr3 N4 1.864150 1_555
Cr4 N14 1.837959 1_555
Cr4 N1 1.842066 1_555
Cr4 N11 1.843465 1_565
Cr4 N5 1.864150 1_565
Cr5 N14 1.837958 1_555
Cr5 N0 1.842066 1_555
Cr5 N9 1.843458 1_455
Cr5 N3 1.864150 1_455
Cr6 N12 1.829656 1_555
Cr6 N6 1.832469 1_554
Cr6 N9 1.837241 1_455
Cr6 N2 1.844083 1_555
Cr7 N12 1.829648 1_565
Cr7 N7 1.832477 1_554
Cr7 N11 1.837241 1_565
Cr7 N0 1.844083 1_555
Cr8 N12 1.829654 1_665
Cr8 N8 1.832477 1_554
Cr8 N10 1.837241 1_555
Cr8 N1 1.844076 1_555
Cr9 N13 1.829648 1_655
Cr9 N9 1.832477 1_555
Cr9 N6 1.837241 1_655
Cr9 N5 1.844083 1_555
Cr10 N13 1.829654 1_665
Cr10 N10 1.832477 1_555
Cr10 N8 1.837241 1_555
Cr10 N3 1.844076 1_555
Cr11 N13 1.829656 1_555
Cr11 N11 1.832469 1_555
Cr11 N7 1.837241 1_545
Cr11 N4 1.844083 1_555
