# generated using pymatgen
data_LiScP2O7
_symmetry_space_group_name_H-M   'P 1'
_cell_length_a   8.52197500
_cell_length_b   5.01522900
_cell_length_c   7.11600187
_cell_angle_alpha   71.08441612
_cell_angle_beta   90.00000000
_cell_angle_gamma   90.00000000
_symmetry_Int_Tables_number   1
_chemical_formula_structural   LiScP2O7
_chemical_formula_sum   'Li2 Sc2 P4 O14'
_cell_volume   287.71131267
_cell_formula_units_Z   2
loop_
 _symmetry_equiv_pos_site_id
 _symmetry_equiv_pos_as_xyz
  1  'x, y, z'
loop_
 _atom_site_type_symbol
 _atom_site_label
 _atom_site_symmetry_multiplicity
 _atom_site_fract_x
 _atom_site_fract_y
 _atom_site_fract_z
 _atom_site_occupancy
  Li  Li0  1  0.35368300  0.18304400  0.34111300  1
  Li  Li1  1  0.85368300  0.81695600  0.65888700  1
  Sc  Sc0  1  0.00080600  0.21128500  0.26823400  1
  Sc  Sc1  1  0.50080600  0.78871500  0.73176600  1
  P  P0  1  0.17930100  0.59897200  0.53259700  1
  P  P1  1  0.28709500  0.21969700  0.91989600  1
  P  P2  1  0.78709500  0.78030300  0.08010400  1
  P  P3  1  0.67930100  0.40102800  0.46740300  1
  O  O0  1  0.33021600  0.96413700  0.86125300  1
  O  O1  1  0.15778400  0.40385800  0.76264600  1
  O  O2  1  0.65778400  0.59614200  0.23735400  1
  O  O3  1  0.53923800  0.19823500  0.50593500  1
  O  O4  1  0.03923800  0.80176500  0.49406500  1
  O  O5  1  0.67705400  0.59798400  0.59276700  1
  O  O6  1  0.20257300  0.14403900  0.12071800  1
  O  O7  1  0.70257300  0.85596100  0.87928200  1
  O  O8  1  0.17705400  0.40201600  0.40723300  1
  O  O9  1  0.83588600  0.24214100  0.48455000  1
  O  O10  1  0.42936400  0.40662500  0.91783600  1
  O  O11  1  0.33588600  0.75785900  0.51545000  1
  O  O12  1  0.92936400  0.59337500  0.08216400  1
  O  O13  1  0.83021600  0.03586300  0.13874700  1
loop_
_geom_bond_atom_site_label_1
_geom_bond_atom_site_label_2
_geom_bond_distance
_geom_bond_site_symmetry_2
Li0 O3 1.984909 1_555
Li0 O8 2.007021 1_555
Li0 O6 2.086901 1_555
Li0 O11 2.096192 1_545
Li1 O4 1.984909 1_655
Li1 O5 2.007021 1_555
Li1 O7 2.086901 1_555
Li1 O9 2.096192 1_565
O0 P1 1.516142 1_565
O0 Sc1 2.064477 1_555
O1 P0 1.622479 1_555
O1 P1 1.627726 1_555
O2 P3 1.622479 1_555
O2 P2 1.627726 1_555
O3 P3 1.534108 1_555
O3 Sc1 2.183598 1_545
O4 P0 1.534108 1_555
O4 Sc0 2.183598 1_565
O5 P3 1.530757 1_555
O5 Sc1 2.182371 1_555
O6 P1 1.534086 1_554
O6 Sc0 2.098026 1_555
O7 P2 1.534086 1_556
O7 Sc1 2.098026 1_555
O8 P0 1.530757 1_555
O8 Sc0 2.182371 1_555
O9 P3 1.538664 1_555
O9 Sc0 2.126763 1_655
O10 P1 1.529749 1_555
O10 Sc1 2.037372 1_555
O11 P0 1.538664 1_555
O11 Sc1 2.126763 1_555
O12 P2 1.529749 1_555
O12 Sc0 2.037372 1_655
O13 P2 1.516142 1_545
O13 Sc0 2.064477 1_655
