# generated using pymatgen
data_Ba2MgSi2O7
_symmetry_space_group_name_H-M   'P 1'
_cell_length_a   6.82894761
_cell_length_b   6.82894761
_cell_length_c   8.45838593
_cell_angle_alpha   102.56198355
_cell_angle_beta   102.56198355
_cell_angle_gamma   103.82052829
_symmetry_Int_Tables_number   1
_chemical_formula_structural   Ba2MgSi2O7
_chemical_formula_sum   'Ba4 Mg2 Si4 O14'
_cell_volume   358.43732024
_cell_formula_units_Z   2
loop_
 _symmetry_equiv_pos_site_id
 _symmetry_equiv_pos_as_xyz
  1  'x, y, z'
loop_
 _atom_site_type_symbol
 _atom_site_label
 _atom_site_symmetry_multiplicity
 _atom_site_fract_x
 _atom_site_fract_y
 _atom_site_fract_z
 _atom_site_occupancy
  Ba  Ba0  1  0.18211486  0.27087214  0.47392648  1
  Ba  Ba1  1  0.72912786  0.81788514  0.02607352  1
  Ba  Ba2  1  0.81788514  0.72912786  0.52607352  1
  Ba  Ba3  1  0.27087214  0.18211486  0.97392648  1
  Mg  Mg0  1  0.25786893  0.74213107  0.25000000  1
  Mg  Mg1  1  0.74213107  0.25786893  0.75000000  1
  Si  Si0  1  0.39776239  0.83134644  0.63656544  1
  Si  Si1  1  0.16865356  0.60223761  0.86343456  1
  Si  Si2  1  0.60223761  0.16865356  0.36343456  1
  Si  Si3  1  0.83134644  0.39776239  0.13656544  1
  O  O0  1  0.33364332  0.66635668  0.75000000  1
  O  O1  1  0.66635668  0.33364332  0.25000000  1
  O  O2  1  0.64430632  0.95843732  0.73232877  1
  O  O3  1  0.04156268  0.35569368  0.76767123  1
  O  O4  1  0.35569368  0.04156268  0.26767123  1
  O  O5  1  0.95843732  0.64430632  0.23232877  1
  O  O6  1  0.38073034  0.67755979  0.45504671  1
  O  O7  1  0.32244021  0.61926966  0.04495329  1
  O  O8  1  0.61926966  0.32244021  0.54495329  1
  O  O9  1  0.67755979  0.38073034  0.95504671  1
  O  O10  1  0.24446630  0.97713794  0.63210903  1
  O  O11  1  0.02286206  0.75553370  0.86789097  1
  O  O12  1  0.75553370  0.02286206  0.36789097  1
  O  O13  1  0.97713794  0.24446630  0.13210903  1
loop_
_geom_bond_atom_site_label_1
_geom_bond_atom_site_label_2
_geom_bond_distance
_geom_bond_site_symmetry_2
Ba0 O10 2.706060 1_545
Ba0 O4 2.738402 1_555
Ba0 O12 2.829234 1_455
Ba0 O8 2.832411 1_555
Ba0 O6 2.840021 1_555
Ba0 O3 2.847279 1_555
Ba0 O13 2.871106 1_455
Ba0 O0 2.947549 1_555
Ba1 O11 2.706060 1_654
Ba1 O5 2.738402 1_555
Ba1 O13 2.829234 1_565
Ba1 O9 2.832411 1_554
Ba1 O7 2.840021 1_555
Ba1 O2 2.847279 1_554
Ba1 O12 2.871106 1_565
Ba1 O0 2.947549 1_554
Ba2 O12 2.706060 1_565
Ba2 O2 2.738402 1_555
Ba2 O10 2.829234 1_655
Ba2 O6 2.832411 1_555
Ba2 O8 2.840021 1_555
Ba2 O5 2.847279 1_555
Ba2 O11 2.871106 1_655
Ba2 O1 2.947549 1_555
Ba3 O13 2.706060 1_456
Ba3 O3 2.738402 1_555
Ba3 O11 2.829234 1_545
Ba3 O7 2.832411 1_556
Ba3 O9 2.840021 1_555
Ba3 O4 2.847279 1_556
Ba3 O10 2.871106 1_545
Ba3 O1 2.947549 1_556
Mg0 O7 1.944955 1_555
Mg0 O6 1.944955 1_555
Mg0 O4 1.954693 1_565
Mg0 O5 1.954693 1_455
Mg1 O8 1.944955 1_555
Mg1 O9 1.944955 1_555
Mg1 O3 1.954693 1_655
Mg1 O2 1.954693 1_545
O0 Si0 1.673043 1_555
O0 Si1 1.673043 1_555
O1 Si3 1.673043 1_555
O1 Si2 1.673043 1_555
O2 Si0 1.626912 1_555
O3 Si1 1.626912 1_555
O4 Si2 1.626912 1_555
O5 Si3 1.626912 1_555
O6 Si0 1.623679 1_555
O7 Si1 1.623679 1_554
O8 Si2 1.623679 1_555
O9 Si3 1.623679 1_556
O10 Si0 1.607995 1_555
O11 Si1 1.607995 1_555
O12 Si2 1.607995 1_555
O13 Si3 1.607995 1_555
