# generated using pymatgen
data_Sr4LiMn2(GaO5)2
_symmetry_space_group_name_H-M   'P 1'
_cell_length_a   5.82015685
_cell_length_b   5.82630219
_cell_length_c   9.02221128
_cell_angle_alpha   72.64129449
_cell_angle_beta   72.88944872
_cell_angle_gamma   94.23546542
_symmetry_Int_Tables_number   1
_chemical_formula_structural   Sr4LiMn2(GaO5)2
_chemical_formula_sum   'Sr4 Li1 Mn2 Ga2 O10'
_cell_volume   274.66834601
_cell_formula_units_Z   1
loop_
 _symmetry_equiv_pos_site_id
 _symmetry_equiv_pos_as_xyz
  1  'x, y, z'
loop_
 _atom_site_type_symbol
 _atom_site_label
 _atom_site_symmetry_multiplicity
 _atom_site_fract_x
 _atom_site_fract_y
 _atom_site_fract_z
 _atom_site_occupancy
  Sr  Sr0  1  0.13502400  0.57313800  0.80589700  1
  Sr  Sr1  1  0.91746700  0.35253500  0.22851000  1
  Sr  Sr2  1  0.56021100  0.12659800  0.80690200  1
  Sr  Sr3  1  0.35110500  0.91601700  0.22880300  1
  Li  Li0  1  0.89119300  0.89422200  0.70780100  1
  Mn  Mn0  1  0.50155600  0.49866000  0.01952200  1
  Mn  Mn1  1  0.98415300  0.98695900  0.01175300  1
  Ga  Ga0  1  0.67410900  0.67828200  0.49716100  1
  Ga  Ga1  1  0.33345100  0.32616200  0.49229100  1
  O  O0  1  0.24432700  0.24550700  0.99860200  1
  O  O1  1  0.22712200  0.75481100  0.01468200  1
  O  O2  1  0.75707000  0.23255000  0.00841200  1
  O  O3  1  0.77168300  0.77531300  0.96329500  1
  O  O4  1  0.65341900  0.67026100  0.70671800  1
  O  O5  1  0.33084000  0.32395700  0.28937100  1
  O  O6  1  0.14111600  0.11611100  0.69423100  1
  O  O7  1  0.88308900  0.88926100  0.30091100  1
  O  O8  1  0.33517500  0.65499400  0.50184700  1
  O  O9  1  0.66503400  0.34180500  0.50186200  1
loop_
_geom_bond_atom_site_label_1
_geom_bond_atom_site_label_2
_geom_bond_distance
_geom_bond_site_symmetry_2
Li0 O6 1.823494 1_665
Li0 O4 1.834864 1_555
Li0 O3 2.076001 1_555
Li0 Sr0 2.537744 1_655
Mn0 O3 1.998915 1_554
Mn0 O0 2.111554 1_554
Mn0 O5 2.213410 1_555
Mn0 O2 2.229588 1_555
Mn0 O1 2.265981 1_555
Mn0 O4 2.542347 1_554
Mn1 O3 1.911935 1_554
Mn1 O0 2.006716 1_664
Mn1 O2 2.017964 1_565
Mn1 O1 2.028064 1_655
Mn1 O7 2.374348 1_555
Mn1 O6 2.584526 1_664
Ga0 O7 1.827192 1_555
Ga0 O4 1.844935 1_555
Ga0 O9 1.944632 1_555
Ga0 O8 1.954356 1_555
Ga1 O6 1.826840 1_555
Ga1 O5 1.839172 1_555
Ga1 O8 1.942767 1_555
Ga1 O9 1.953693 1_555
O0 Sr2 2.425583 1_555
O0 Sr0 2.433347 1_555
O0 Sr1 2.633548 1_456
O0 Sr3 2.634714 1_546
O1 Sr0 2.579948 1_554
O1 Sr2 2.604395 1_564
O1 Sr3 2.633964 1_555
O1 Sr1 2.663694 1_455
O2 Sr2 2.605787 1_554
O2 Sr0 2.634717 1_654
O2 Sr1 2.669503 1_555
O2 Sr3 2.709480 1_545
O3 Sr2 2.713955 1_565
O3 Sr0 2.734065 1_655
O4 Sr0 2.842722 1_555
O4 Sr2 2.982258 1_555
O4 Sr0 3.222708 1_655
O5 Sr3 2.596172 1_545
O5 Sr1 2.626700 1_455
O6 Sr2 2.908758 1_555
O6 Sr0 3.014093 1_545
O6 Sr0 3.114537 1_555
O7 Sr1 2.558028 1_565
O7 Sr3 2.588690 1_655
O8 Sr3 2.449351 1_555
O8 Sr0 2.523197 1_555
O9 Sr1 2.450939 1_555
O9 Sr2 2.521610 1_555
