# generated using pymatgen
data_Cs10Ge2O9
_symmetry_space_group_name_H-M   'P 1'
_cell_length_a   11.79010992
_cell_length_b   13.07187036
_cell_length_c   15.37867045
_cell_angle_alpha   85.28207159
_cell_angle_beta   90.00000000
_cell_angle_gamma   90.00000000
_symmetry_Int_Tables_number   1
_chemical_formula_structural   Cs10Ge2O9
_chemical_formula_sum   'Cs40 Ge8 O36'
_cell_volume   2362.11130116
_cell_formula_units_Z   4
loop_
 _symmetry_equiv_pos_site_id
 _symmetry_equiv_pos_as_xyz
  1  'x, y, z'
loop_
 _atom_site_type_symbol
 _atom_site_label
 _atom_site_symmetry_multiplicity
 _atom_site_fract_x
 _atom_site_fract_y
 _atom_site_fract_z
 _atom_site_occupancy
  Cs  Cs0  1  0.91602857  0.62010711  0.17659696  1
  Cs  Cs1  1  0.41602857  0.87989289  0.32340304  1
  Cs  Cs2  1  0.08397143  0.37989289  0.82340304  1
  Cs  Cs3  1  0.58397143  0.12010711  0.67659696  1
  Cs  Cs4  1  0.89084513  0.37735115  0.00315771  1
  Cs  Cs5  1  0.39084513  0.12264885  0.49684229  1
  Cs  Cs6  1  0.10915487  0.62264885  0.99684229  1
  Cs  Cs7  1  0.60915487  0.87735115  0.50315771  1
  Cs  Cs8  1  0.82828294  0.14099709  0.16228545  1
  Cs  Cs9  1  0.32828294  0.35900291  0.33771455  1
  Cs  Cs10  1  0.17171706  0.85900291  0.83771455  1
  Cs  Cs11  1  0.67171706  0.64099709  0.66228545  1
  Cs  Cs12  1  0.21252115  0.63938686  0.28829695  1
  Cs  Cs13  1  0.71252115  0.86061314  0.21170305  1
  Cs  Cs14  1  0.78747885  0.36061314  0.71170305  1
  Cs  Cs15  1  0.28747885  0.13938686  0.78829695  1
  Cs  Cs16  1  0.63759568  0.71503127  0.03611697  1
  Cs  Cs17  1  0.13759568  0.78496873  0.46388303  1
  Cs  Cs18  1  0.36240432  0.28496873  0.96388303  1
  Cs  Cs19  1  0.86240432  0.21503127  0.53611697  1
  Cs  Cs20  1  0.88899119  0.98017284  0.37267257  1
  Cs  Cs21  1  0.38899119  0.51982716  0.12732743  1
  Cs  Cs22  1  0.11100881  0.01982716  0.62732743  1
  Cs  Cs23  1  0.61100881  0.48017284  0.87267257  1
  Cs  Cs24  1  0.65878485  0.38649987  0.24660319  1
  Cs  Cs25  1  0.15878485  0.11350013  0.25339681  1
  Cs  Cs26  1  0.34121515  0.61350013  0.75339681  1
  Cs  Cs27  1  0.84121515  0.88649987  0.74660319  1
  Cs  Cs28  1  0.96834209  0.37053651  0.33795947  1
  Cs  Cs29  1  0.46834209  0.12946349  0.16204053  1
  Cs  Cs30  1  0.03165791  0.62946349  0.66204053  1
  Cs  Cs31  1  0.53165791  0.87053651  0.83795947  1
  Cs  Cs32  1  0.31940156  0.87949013  0.08230177  1
  Cs  Cs33  1  0.81940156  0.62050987  0.41769823  1
  Cs  Cs34  1  0.68059844  0.12050987  0.91769823  1
  Cs  Cs35  1  0.18059844  0.37949013  0.58230177  1
  Cs  Cs36  1  0.59538541  0.38556757  0.49345990  1
  Cs  Cs37  1  0.09538541  0.11443243  0.00654010  1
  Cs  Cs38  1  0.40461459  0.61443243  0.50654010  1
  Cs  Cs39  1  0.90461459  0.88556757  0.99345990  1
  Ge  Ge0  1  0.64801403  0.14094547  0.36950780  1
  Ge  Ge1  1  0.14801403  0.35905453  0.13049220  1
  Ge  Ge2  1  0.35198597  0.85905453  0.63049220  1
  Ge  Ge3  1  0.85198597  0.64094547  0.86950780  1
  Ge  Ge4  1  0.55466129  0.63837368  0.28583381  1
  Ge  Ge5  1  0.05466129  0.86162632  0.21416619  1
  Ge  Ge6  1  0.44533871  0.36162632  0.71416619  1
  Ge  Ge7  1  0.94533871  0.13837368  0.78583381  1
  O  O0  1  0.65194058  0.02605944  0.31219966  1
  O  O1  1  0.15194058  0.47394056  0.18780034  1
  O  O2  1  0.34805942  0.97394056  0.68780034  1
  O  O3  1  0.84805942  0.52605944  0.81219966  1
  O  O4  1  0.77927117  0.21056293  0.34378378  1
  O  O5  1  0.27927117  0.28943707  0.15621622  1
  O  O6  1  0.22072883  0.78943707  0.65621622  1
  O  O7  1  0.72072883  0.71056293  0.84378378  1
  O  O8  1  0.52521849  0.21642323  0.33393620  1
  O  O9  1  0.02521849  0.28357677  0.16606380  1
  O  O10  1  0.47478151  0.78357677  0.66606380  1
  O  O11  1  0.97478151  0.71642323  0.83393620  1
  O  O12  1  0.63917003  0.10837127  0.48556031  1
  O  O13  1  0.13917003  0.39162873  0.01443969  1
  O  O14  1  0.36082997  0.89162873  0.51443969  1
  O  O15  1  0.86082997  0.60837127  0.98556031  1
  O  O16  1  0.02024123  0.01809960  0.81258897  1
  O  O17  1  0.52024123  0.48190040  0.68741103  1
  O  O18  1  0.97975877  0.98190040  0.18741103  1
  O  O19  1  0.47975877  0.51809960  0.31258897  1
  O  O20  1  0.69197421  0.60701967  0.24284330  1
  O  O21  1  0.19197421  0.89298033  0.25715670  1
  O  O22  1  0.30802579  0.39298033  0.75715670  1
  O  O23  1  0.80802579  0.10701967  0.74284330  1
  O  O24  1  0.07568443  0.79025647  0.12044279  1
  O  O25  1  0.57568443  0.70974353  0.37955721  1
  O  O26  1  0.92431557  0.20974353  0.87955721  1
  O  O27  1  0.42431557  0.29025647  0.62044279  1
  O  O28  1  0.02762388  0.21130806  0.70321379  1
  O  O29  1  0.52762388  0.28869194  0.79678621  1
  O  O30  1  0.97237612  0.78869194  0.29678621  1
  O  O31  1  0.47237612  0.71130806  0.20321379  1
  O  O32  1  0.82166140  0.42471178  0.52287875  1
  O  O33  1  0.32166140  0.07528822  0.97712125  1
  O  O34  1  0.17833860  0.57528822  0.47712125  1
  O  O35  1  0.67833860  0.92471178  0.02287875  1
loop_
_geom_bond_atom_site_label_1
_geom_bond_atom_site_label_2
_geom_bond_distance
_geom_bond_site_symmetry_2
Cs0 O20 2.831377 1_555
Cs0 O24 2.986639 1_655
Cs0 O15 3.025295 1_554
Cs0 O30 3.063361 1_555
Cs0 O1 3.370836 1_655
Cs1 O21 2.831377 1_555
Cs1 O25 2.986639 1_555
Cs1 O14 3.025295 1_555
Cs1 O31 3.063361 1_555
Cs1 O0 3.370836 1_565
Cs2 O22 2.831377 1_555
Cs2 O26 2.986639 1_455
Cs2 O13 3.025295 1_556
Cs2 O28 3.063361 1_555
Cs2 O3 3.370836 1_455
Cs3 O23 2.831377 1_555
Cs3 O27 2.986639 1_555
Cs3 O12 3.025295 1_555
Cs3 O29 3.063361 1_555
Cs3 O2 3.370836 1_545
Cs4 O13 2.939753 1_655
Cs4 O15 3.030448 1_554
Cs4 O26 3.042059 1_554
Cs4 O9 3.127903 1_655
Cs4 O3 3.423189 1_554
Cs5 O12 2.939753 1_555
Cs5 O14 3.030448 1_545
Cs5 O27 3.042059 1_555
Cs5 O8 3.127903 1_555
Cs5 O2 3.423189 1_545
Cs6 O15 2.939753 1_455
Cs6 O13 3.030448 1_556
Cs6 O24 3.042059 1_556
Cs6 O11 3.127903 1_455
Cs6 O1 3.423189 1_556
Cs7 O14 2.939753 1_555
Cs7 O12 3.030448 1_565
Cs7 O25 3.042059 1_555
Cs7 O10 3.127903 1_555
Cs7 O0 3.423189 1_565
Cs8 O18 2.744399 1_545
Cs8 O9 2.980950 1_655
Cs8 O4 3.060914 1_555
Cs8 O0 3.365328 1_555
Cs9 O19 2.744399 1_555
Cs9 O8 2.980950 1_555
Cs9 O5 3.060914 1_555
Cs9 O1 3.365328 1_555
Cs10 O16 2.744399 1_565
Cs10 O11 2.980950 1_455
Cs10 O6 3.060914 1_555
Cs10 O2 3.365328 1_555
Cs11 O17 2.744399 1_555
Cs11 O10 2.980950 1_555
Cs11 O7 3.060914 1_555
Cs11 O3 3.365328 1_555
Cs12 O1 2.850581 1_555
Cs12 O34 2.982729 1_555
Cs12 O21 3.318993 1_555
Cs12 O31 3.432196 1_555
Cs12 O30 3.447397 1_455
Cs12 O24 3.509731 1_555
Cs12 O19 3.533140 1_555
Cs13 O0 2.850581 1_565
Cs13 O35 2.982729 1_555
Cs13 O20 3.318993 1_555
Cs13 O30 3.432196 1_555
Cs13 O31 3.447397 1_555
Cs13 O25 3.509731 1_555
Cs13 O18 3.533140 1_555
Cs14 O3 2.850581 1_555
Cs14 O32 2.982729 1_555
Cs14 O23 3.318993 1_555
Cs14 O29 3.432196 1_555
Cs14 O28 3.447397 1_655
Cs14 O26 3.509731 1_555
Cs14 O17 3.533140 1_555
Cs15 O2 2.850581 1_545
Cs15 O33 2.982729 1_555
Cs15 O22 3.318993 1_555
Cs15 O28 3.432196 1_555
Cs15 O29 3.447397 1_555
Cs15 O27 3.509731 1_555
Cs15 O16 3.533140 1_555
Cs16 O35 2.773630 1_555
Cs16 O15 3.107078 1_554
Cs16 O7 3.121102 1_554
Cs16 O31 3.221774 1_555
Cs16 O20 3.431226 1_555
Cs17 O34 2.773630 1_555
Cs17 O14 3.107078 1_555
Cs17 O6 3.121102 1_555
Cs17 O30 3.221774 1_455
Cs17 O21 3.431226 1_555
Cs18 O33 2.773630 1_555
Cs18 O13 3.107078 1_556
Cs18 O5 3.121102 1_556
Cs18 O29 3.221774 1_555
Cs18 O22 3.431226 1_555
Cs19 O32 2.773630 1_555
Cs19 O12 3.107078 1_555
Cs19 O4 3.121102 1_555
Cs19 O28 3.221774 1_655
Cs19 O23 3.431226 1_555
Cs20 O0 2.990671 1_565
Cs20 O30 3.012322 1_555
Cs20 O18 3.041776 1_555
Cs20 O4 3.274236 1_565
Cs21 O1 2.990671 1_555
Cs21 O31 3.012322 1_555
Cs21 O19 3.041776 1_555
Cs21 O5 3.274236 1_555
Cs22 O2 2.990671 1_545
Cs22 O28 3.012322 1_555
Cs22 O16 3.041776 1_555
Cs22 O6 3.274236 1_545
Cs23 O3 2.990671 1_555
Cs23 O29 3.012322 1_555
Cs23 O17 3.041776 1_555
Cs23 O7 3.274236 1_555
Cs24 O20 2.904903 1_555
Cs24 O19 2.954897 1_555
Cs24 O8 2.955540 1_555
Cs24 O4 2.995880 1_555
Cs25 O21 2.904903 1_545
Cs25 O18 2.954897 1_445
Cs25 O9 2.955540 1_555
Cs25 O5 2.995880 1_555
Cs26 O22 2.904903 1_555
Cs26 O17 2.954897 1_555
Cs26 O10 2.955540 1_555
Cs26 O6 2.995880 1_555
Cs27 O23 2.904903 1_565
Cs27 O16 2.954897 1_665
Cs27 O11 2.955540 1_555
Cs27 O7 2.995880 1_555
Cs28 O9 3.037166 1_655
Cs28 O4 3.052756 1_555
Cs28 O1 3.366289 1_655
Cs28 O32 3.451207 1_555
Cs29 O8 3.037166 1_555
Cs29 O5 3.052756 1_555
Cs29 O0 3.366289 1_555
Cs29 O33 3.451207 1_554
Cs30 O11 3.037166 1_455
Cs30 O6 3.052756 1_555
Cs30 O3 3.366289 1_455
Cs30 O34 3.451207 1_555
Cs31 O10 3.037166 1_555
Cs31 O7 3.052756 1_555
Cs31 O2 3.366289 1_555
Cs31 O35 3.451207 1_556
Cs32 O33 2.913224 1_564
Cs32 O21 3.097930 1_555
Cs32 O24 3.138285 1_555
Cs32 O31 3.297161 1_555
Cs33 O32 2.913224 1_555
Cs33 O20 3.097930 1_555
Cs33 O25 3.138285 1_555
Cs33 O30 3.297161 1_555
Cs34 O35 2.913224 1_546
Cs34 O23 3.097930 1_555
Cs34 O26 3.138285 1_555
Cs34 O29 3.297161 1_555
Cs35 O34 2.913224 1_555
Cs35 O22 3.097930 1_555
Cs35 O27 3.138285 1_555
Cs35 O28 3.297161 1_555
Cs36 O32 2.760770 1_555
Cs36 O27 3.005590 1_555
Cs36 O19 3.435716 1_555
Cs36 O17 3.447471 1_555
Cs37 O33 2.760770 1_554
Cs37 O26 3.005590 1_454
Cs37 O18 3.435716 1_445
Cs37 O16 3.447471 1_554
Cs38 O34 2.760770 1_555
Cs38 O25 3.005590 1_555
Cs38 O17 3.435716 1_555
Cs38 O19 3.447471 1_555
Cs39 O35 2.760770 1_556
Cs39 O24 3.005590 1_656
Cs39 O16 3.435716 1_665
Cs39 O18 3.447471 1_556
Ge0 O0 1.803310 1_555
Ge0 O12 1.803453 1_555
Ge0 O8 1.811068 1_555
Ge0 O4 1.822170 1_555
Ge1 O1 1.803310 1_555
Ge1 O13 1.803453 1_555
Ge1 O9 1.811068 1_555
Ge1 O5 1.822170 1_555
Ge2 O2 1.803310 1_555
Ge2 O14 1.803453 1_555
Ge2 O10 1.811068 1_555
Ge2 O6 1.822170 1_555
Ge3 O3 1.803310 1_555
Ge3 O15 1.803453 1_555
Ge3 O11 1.811068 1_555
Ge3 O7 1.822170 1_555
Ge4 O25 1.797352 1_555
Ge4 O31 1.807004 1_555
Ge4 O20 1.808482 1_555
Ge4 O19 1.820604 1_555
Ge5 O24 1.797352 1_555
Ge5 O30 1.807004 1_455
Ge5 O21 1.808482 1_555
Ge5 O18 1.820604 1_455
Ge6 O27 1.797352 1_555
Ge6 O29 1.807004 1_555
Ge6 O22 1.808482 1_555
Ge6 O17 1.820604 1_555
Ge7 O26 1.797352 1_555
Ge7 O28 1.807004 1_655
Ge7 O23 1.808482 1_555
Ge7 O16 1.820604 1_655
