# generated using pymatgen
data_LiTiCoF6
_symmetry_space_group_name_H-M   'P 1'
_cell_length_a   8.80142110
_cell_length_b   8.80142110
_cell_length_c   4.65674800
_cell_angle_alpha   90.00000000
_cell_angle_beta   90.00000000
_cell_angle_gamma   119.99999322
_symmetry_Int_Tables_number   1
_chemical_formula_structural   LiTiCoF6
_chemical_formula_sum   'Li3 Ti3 Co3 F18'
_cell_volume   312.40573519
_cell_formula_units_Z   3
loop_
 _symmetry_equiv_pos_site_id
 _symmetry_equiv_pos_as_xyz
  1  'x, y, z'
loop_
 _atom_site_type_symbol
 _atom_site_label
 _atom_site_symmetry_multiplicity
 _atom_site_fract_x
 _atom_site_fract_y
 _atom_site_fract_z
 _atom_site_occupancy
  Li  Li0  1  0.68707900  0.00000000  0.50000000  1
  Li  Li1  1  0.00000000  0.68707900  0.50000000  1
  Li  Li2  1  0.31292100  0.31292100  0.50000000  1
  Ti  Ti0  1  0.34535200  0.00000000  0.00000000  1
  Ti  Ti1  1  0.00000000  0.34535200  0.00000000  1
  Ti  Ti2  1  0.65464800  0.65464800  0.00000000  1
  Co  Co0  1  0.00000000  0.00000000  0.00000000  1
  Co  Co1  1  0.33333300  0.66666700  0.49166800  1
  Co  Co2  1  0.66666700  0.33333300  0.50833200  1
  F  F0  1  0.10062500  0.55202100  0.24118000  1
  F  F1  1  0.44797900  0.54860400  0.24118000  1
  F  F2  1  0.55202100  0.10062500  0.75882000  1
  F  F3  1  0.45139600  0.89937500  0.24118000  1
  F  F4  1  0.54860400  0.44797900  0.75882000  1
  F  F5  1  0.89937500  0.45139600  0.75882000  1
  F  F6  1  0.10980400  0.24092600  0.23743800  1
  F  F7  1  0.75907400  0.86887800  0.23743800  1
  F  F8  1  0.24092600  0.10980400  0.76256200  1
  F  F9  1  0.13112200  0.89019600  0.23743800  1
  F  F10  1  0.86887800  0.75907400  0.76256200  1
  F  F11  1  0.89019600  0.13112200  0.76256200  1
  F  F12  1  0.43884700  0.20303600  0.24835300  1
  F  F13  1  0.79696400  0.23581100  0.24835300  1
  F  F14  1  0.20303600  0.43884700  0.75164700  1
  F  F15  1  0.76418900  0.56115300  0.24835300  1
  F  F16  1  0.23581100  0.79696400  0.75164700  1
  F  F17  1  0.56115300  0.76418900  0.75164700  1
loop_
_geom_bond_atom_site_label_1
_geom_bond_atom_site_label_2
_geom_bond_distance
_geom_bond_site_symmetry_2
Co0 F11 2.145626 1_454
Co0 F9 2.145626 1_545
Co0 F8 2.145626 1_554
Co0 F6 2.145626 1_555
Co0 F10 2.145626 1_444
Co0 F7 2.145626 1_445
Co1 F16 2.121769 1_555
Co1 F14 2.121775 1_555
Co1 F17 2.121776 1_555
Co1 F0 2.122988 1_555
Co1 F3 2.122988 1_555
Co1 F1 2.122994 1_555
Co2 F13 2.121769 1_555
Co2 F12 2.121775 1_555
Co2 F15 2.121776 1_555
Co2 F2 2.122988 1_555
Co2 F5 2.122988 1_555
Co2 F4 2.122994 1_555
F0 Ti1 1.934806 1_555
F0 Li1 2.168592 1_555
F1 Ti2 1.934806 1_555
F1 Li2 2.168593 1_555
F2 Ti0 1.934806 1_556
F2 Li0 2.168592 1_555
F3 Ti0 1.934806 1_565
F3 Li0 2.168593 1_565
F4 Ti2 1.934806 1_556
F4 Li2 2.168593 1_555
F5 Ti1 1.934806 1_656
F5 Li1 2.168593 1_655
F6 Ti1 1.972187 1_555
F6 Li2 1.989878 1_555
F7 Ti2 1.972187 1_555
F7 Li0 1.989878 1_565
F8 Ti0 1.972187 1_556
F8 Li2 1.989878 1_555
F9 Ti0 1.972187 1_565
F9 Li1 1.989878 1_555
F10 Ti2 1.972187 1_556
F10 Li1 1.989878 1_655
F11 Ti1 1.972187 1_656
F11 Li0 1.989878 1_555
F12 Ti0 1.933277 1_555
F12 Li2 2.146839 1_555
F13 Ti1 1.933277 1_655
F13 Li0 2.146839 1_555
F14 Ti1 1.933277 1_556
F14 Li2 2.146839 1_555
F15 Ti2 1.933277 1_555
F15 Li1 2.146839 1_655
F16 Ti0 1.933277 1_566
F16 Li1 2.146839 1_555
F17 Ti2 1.933277 1_556
F17 Li0 2.146839 1_565
