# generated using pymatgen
data_Cs4Li(Pb2O3)2
_symmetry_space_group_name_H-M   'P 1'
_cell_length_a   8.30270632
_cell_length_b   8.04955876
_cell_length_c   8.30270632
_cell_angle_alpha   114.20645362
_cell_angle_beta   111.94532714
_cell_angle_gamma   103.64751888
_symmetry_Int_Tables_number   1
_chemical_formula_structural   Cs4Li(Pb2O3)2
_chemical_formula_sum   'Cs4 Li1 Pb4 O6'
_cell_volume   416.81065487
_cell_formula_units_Z   1
loop_
 _symmetry_equiv_pos_site_id
 _symmetry_equiv_pos_as_xyz
  1  'x, y, z'
loop_
 _atom_site_type_symbol
 _atom_site_label
 _atom_site_symmetry_multiplicity
 _atom_site_fract_x
 _atom_site_fract_y
 _atom_site_fract_z
 _atom_site_occupancy
  Cs  Cs0  1  0.04130900  0.02921000  0.99402700  1
  Cs  Cs1  1  0.54174900  0.01293100  0.53449400  1
  Cs  Cs2  1  0.46481700  0.47079000  0.01210000  1
  Cs  Cs3  1  0.02156400  0.48706900  0.52881800  1
  Li  Li0  1  0.70933000  0.75000000  0.95933000  1
  Pb  Pb0  1  0.55082800  0.52454500  0.52020900  1
  Pb  Pb1  1  0.96791600  0.96635900  0.49676500  1
  Pb  Pb2  1  0.49566400  0.97545500  0.02628200  1
  Pb  Pb3  1  0.03040600  0.53364100  0.00155700  1
  O  O0  1  0.77486000  0.55775200  0.80898600  1
  O  O1  1  0.75123400  0.94224800  0.21710800  1
  O  O2  1  0.50290800  0.75000000  0.75290800  1
  O  O3  1  0.00243500  0.25000000  0.75243500  1
  O  O4  1  0.75838700  0.74277100  0.50436400  1
  O  O5  1  0.26159300  0.75722900  0.01561600  1
loop_
_geom_bond_atom_site_label_1
_geom_bond_atom_site_label_2
_geom_bond_distance
_geom_bond_site_symmetry_2
Cs0 O4 3.159375 1_445
Cs0 O3 3.161736 1_555
Cs0 O5 3.183816 1_546
Cs1 O4 3.124589 1_545
Cs1 O3 3.177533 1_655
Cs1 O2 3.336831 1_545
Cs1 O5 3.344515 1_545
Cs1 O0 3.560121 1_555
Cs1 O1 3.599470 1_545
Cs2 O5 3.159376 1_555
Cs2 O3 3.161735 1_554
Cs2 O4 3.183810 1_555
Cs3 O5 3.124589 1_556
Cs3 O3 3.177534 1_555
Cs3 O2 3.336824 1_555
Cs3 O4 3.344521 1_455
Cs3 O1 3.560121 1_445
Cs3 O0 3.599477 1_455
Li0 O0 1.889397 1_555
Li0 O1 1.889397 1_556
Li0 O2 1.918114 1_555
O0 Pb3 2.238067 1_656
O0 Pb0 2.277353 1_555
O1 Pb1 2.238067 1_555
O1 Pb2 2.277357 1_555
O2 Pb2 2.285721 1_556
O2 Pb0 2.285727 1_555
O3 Pb1 2.250142 1_445
O3 Pb3 2.250142 1_556
O4 Pb1 2.228735 1_555
O4 Pb0 2.236793 1_555
O5 Pb3 2.228735 1_555
O5 Pb2 2.236798 1_555
