# generated using pymatgen
data_VCoSi
_symmetry_space_group_name_H-M   'P 1'
_cell_length_a   4.68788798
_cell_length_b   4.68788798
_cell_length_c   7.34691100
_cell_angle_alpha   90.00000000
_cell_angle_beta   90.00000000
_cell_angle_gamma   118.92548663
_symmetry_Int_Tables_number   1
_chemical_formula_structural   VCoSi
_chemical_formula_sum   'V4 Co4 Si4'
_cell_volume   141.31591786
_cell_formula_units_Z   4
loop_
 _symmetry_equiv_pos_site_id
 _symmetry_equiv_pos_as_xyz
  1  'x, y, z'
loop_
 _atom_site_type_symbol
 _atom_site_label
 _atom_site_symmetry_multiplicity
 _atom_site_fract_x
 _atom_site_fract_y
 _atom_site_fract_z
 _atom_site_occupancy
  V  V0  1  0.33330800  0.66669200  0.18547700  1
  V  V1  1  0.66496700  0.33503300  0.31938200  1
  V  V2  1  0.66496700  0.33503300  0.68061800  1
  V  V3  1  0.33330800  0.66669200  0.81452300  1
  Co  Co0  1  0.99797900  0.00202100  0.25845600  1
  Co  Co1  1  0.99797900  0.00202100  0.74154400  1
  Co  Co2  1  0.83259600  0.65559900  0.00000000  1
  Co  Co3  1  0.34440100  0.16740400  0.00000000  1
  Si  Si0  1  0.83187400  0.16812600  0.00000000  1
  Si  Si1  1  0.17081700  0.34138500  0.50000000  1
  Si  Si2  1  0.65861500  0.82918300  0.50000000  1
  Si  Si3  1  0.16964700  0.83035300  0.50000000  1
loop_
_geom_bond_atom_site_label_1
_geom_bond_atom_site_label_2
_geom_bond_distance
_geom_bond_site_symmetry_2
V0 V3 2.725366 1_554
V0 V1 2.853230 1_555
V0 V1 2.913645 1_565
V0 V1 2.913645 1_455
V1 V2 2.653969 1_555
V2 V3 2.853230 1_555
V2 V3 2.913645 1_655
V2 V3 2.913645 1_545
Co0 Si3 2.251884 1_645
Co0 Si2 2.256047 1_545
Co0 Si1 2.256047 1_655
Co0 Si0 2.324839 1_555
Co0 Co3 2.371942 1_655
Co0 Co2 2.371942 1_545
Co0 V1 2.726186 1_555
Co0 V0 2.760469 1_645
Co0 V1 2.773494 1_655
Co0 V1 2.773494 1_545
Co0 V0 2.780157 1_655
Co0 V0 2.780157 1_545
Co1 Si3 2.251884 1_645
Co1 Si2 2.256047 1_545
Co1 Si1 2.256047 1_655
Co1 Si0 2.324839 1_556
Co1 Co3 2.371942 1_656
Co1 Co2 2.371942 1_546
Co1 V2 2.726186 1_555
Co1 V3 2.760469 1_645
Co1 V2 2.773494 1_655
Co1 V2 2.773494 1_545
Co1 V3 2.780157 1_655
Co1 V3 2.780157 1_545
Co2 Si0 2.283584 1_555
Co2 Co3 2.325672 1_555
Co2 Si0 2.404308 1_565
Co2 Co3 2.438146 1_665
Co2 V1 2.690619 1_555
Co2 V2 2.690619 1_554
Co2 V3 2.692817 1_654
Co2 V0 2.692817 1_655
Co2 V3 2.730529 1_554
Co2 V0 2.730529 1_555
Co3 Si0 2.283584 1_555
Co3 Si0 2.404308 1_455
Co3 V1 2.690619 1_555
Co3 V2 2.690619 1_554
Co3 V3 2.692817 1_544
Co3 V0 2.692817 1_545
Co3 V0 2.730529 1_555
Co3 V3 2.730529 1_554
Si0 V1 2.706026 1_555
Si0 V2 2.706026 1_554
Si0 V0 2.744181 1_655
Si0 V3 2.744181 1_654
Si0 V0 2.744181 1_545
Si0 V3 2.744181 1_544
Si1 Si3 2.294885 1_555
Si1 Si2 2.323781 1_555
Si1 Si3 2.393013 1_545
Si1 Si2 2.440037 1_445
Si1 V3 2.668676 1_555
Si1 V0 2.668676 1_555
Si1 V2 2.682306 1_555
Si1 V1 2.682306 1_555
Si1 V2 2.704968 1_455
Si1 V1 2.704968 1_455
Si2 Si3 2.294885 1_555
Si2 Si3 2.393013 1_655
Si2 V0 2.668676 1_555
Si2 V3 2.668676 1_555
Si2 V2 2.682306 1_555
Si2 V1 2.682306 1_555
Si2 V1 2.704968 1_565
Si2 V2 2.704968 1_565
Si3 V3 2.662019 1_555
Si3 V0 2.662019 1_555
Si3 V2 2.726867 1_565
Si3 V2 2.726867 1_455
Si3 V1 2.726867 1_565
Si3 V1 2.726867 1_455
