# generated using pymatgen
data_AgBiTe2
_symmetry_space_group_name_H-M   'P 1'
_cell_length_a   4.44581052
_cell_length_b   4.44581052
_cell_length_c   20.96159700
_cell_angle_alpha   90.00000000
_cell_angle_beta   90.00000000
_cell_angle_gamma   120.00000773
_symmetry_Int_Tables_number   1
_chemical_formula_structural   AgBiTe2
_chemical_formula_sum   'Ag3 Bi3 Te6'
_cell_volume   358.80365899
_cell_formula_units_Z   3
loop_
 _symmetry_equiv_pos_site_id
 _symmetry_equiv_pos_as_xyz
  1  'x, y, z'
loop_
 _atom_site_type_symbol
 _atom_site_label
 _atom_site_symmetry_multiplicity
 _atom_site_fract_x
 _atom_site_fract_y
 _atom_site_fract_z
 _atom_site_occupancy
  Ag  Ag0  1  0.00000000  0.00000000  0.00000000  1
  Ag  Ag1  1  0.66666700  0.33333300  0.33057900  1
  Ag  Ag2  1  0.33333300  0.66666700  0.66942100  1
  Bi  Bi0  1  0.00000000  0.00000000  0.50000000  1
  Bi  Bi1  1  0.66666700  0.33333300  0.83519300  1
  Bi  Bi2  1  0.33333300  0.66666700  0.16480700  1
  Te  Te0  1  0.00000000  0.00000000  0.74583700  1
  Te  Te1  1  0.00000000  0.00000000  0.25416300  1
  Te  Te2  1  0.66666700  0.33333300  0.07562500  1
  Te  Te3  1  0.33333300  0.66666700  0.92437500  1
  Te  Te4  1  0.66666700  0.33333300  0.59031900  1
  Te  Te5  1  0.33333300  0.66666700  0.40968100  1
loop_
_geom_bond_atom_site_label_1
_geom_bond_atom_site_label_2
_geom_bond_distance
_geom_bond_site_symmetry_2
Ag0 Te2 3.016840 1_455
Ag0 Te3 3.016840 1_544
Ag0 Te2 3.016843 1_445
Ag0 Te2 3.016843 1_555
Ag0 Te3 3.016843 1_444
Ag0 Te3 3.016843 1_554
Ag1 Te1 3.025585 1_655
Ag1 Te1 3.025588 1_665
Ag1 Te1 3.025588 1_555
Ag1 Te5 3.055766 1_545
Ag1 Te5 3.055766 1_655
Ag1 Te5 3.055773 1_555
Ag2 Te0 3.025585 1_565
Ag2 Te0 3.025588 1_665
Ag2 Te0 3.025588 1_555
Ag2 Te4 3.055766 1_565
Ag2 Te4 3.055766 1_455
Ag2 Te4 3.055773 1_555
Bi0 Te4 3.189470 1_455
Bi0 Te5 3.189470 1_545
Bi0 Te4 3.189473 1_445
Bi0 Te4 3.189473 1_555
Bi0 Te5 3.189473 1_445
Bi0 Te5 3.189473 1_555
Bi1 Te3 3.175381 1_545
Bi1 Te3 3.175381 1_655
Bi1 Te3 3.175387 1_555
Bi1 Te0 3.177529 1_655
Bi1 Te0 3.177532 1_665
Bi1 Te0 3.177532 1_555
Bi2 Te2 3.175381 1_455
Bi2 Te2 3.175381 1_565
Bi2 Te2 3.175387 1_555
Bi2 Te1 3.177529 1_565
Bi2 Te1 3.177532 1_665
Bi2 Te1 3.177532 1_555
