# generated using pymatgen
data_Ba3Dy(BO3)3
_symmetry_space_group_name_H-M   'P 1'
_cell_length_a   9.52147815
_cell_length_b   9.52147815
_cell_length_c   17.94875600
_cell_angle_alpha   90.00000000
_cell_angle_beta   90.00000000
_cell_angle_gamma   120.00000103
_symmetry_Int_Tables_number   1
_chemical_formula_structural   Ba3Dy(BO3)3
_chemical_formula_sum   'Ba18 Dy6 B18 O54'
_cell_volume   1409.20355766
_cell_formula_units_Z   6
loop_
 _symmetry_equiv_pos_site_id
 _symmetry_equiv_pos_as_xyz
  1  'x, y, z'
loop_
 _atom_site_type_symbol
 _atom_site_label
 _atom_site_symmetry_multiplicity
 _atom_site_fract_x
 _atom_site_fract_y
 _atom_site_fract_z
 _atom_site_occupancy
  Ba  Ba0  1  0.00000000  0.00000000  0.71917900  1
  Ba  Ba1  1  0.00000000  0.00000000  0.21917900  1
  Ba  Ba2  1  0.34624800  0.34624800  0.63031900  1
  Ba  Ba3  1  0.00000000  0.65375200  0.63031900  1
  Ba  Ba4  1  0.65375200  0.65375200  0.13031900  1
  Ba  Ba5  1  0.00000000  0.34624800  0.13031900  1
  Ba  Ba6  1  0.65375200  0.00000000  0.63031900  1
  Ba  Ba7  1  0.34624800  0.00000000  0.13031900  1
  Ba  Ba8  1  0.31975100  0.31975100  0.86967000  1
  Ba  Ba9  1  0.00000000  0.68024900  0.86967000  1
  Ba  Ba10  1  0.68024900  0.68024900  0.36967000  1
  Ba  Ba11  1  0.00000000  0.31975100  0.36967000  1
  Ba  Ba12  1  0.68024900  0.00000000  0.86967000  1
  Ba  Ba13  1  0.31975100  0.00000000  0.36967000  1
  Ba  Ba14  1  0.66666700  0.33333300  0.77350300  1
  Ba  Ba15  1  0.33333300  0.66666700  0.27350300  1
  Ba  Ba16  1  0.66666700  0.33333300  0.27350300  1
  Ba  Ba17  1  0.33333300  0.66666700  0.77350300  1
  Dy  Dy0  1  0.00000000  0.00000000  0.00324200  1
  Dy  Dy1  1  0.00000000  0.00000000  0.50324200  1
  Dy  Dy2  1  0.66666700  0.33333300  0.99786900  1
  Dy  Dy3  1  0.33333300  0.66666700  0.49786900  1
  Dy  Dy4  1  0.66666700  0.33333300  0.49786900  1
  Dy  Dy5  1  0.33333300  0.66666700  0.99786900  1
  B  B0  1  0.66695500  0.66695500  0.74893400  1
  B  B1  1  0.00000000  0.33304500  0.74893400  1
  B  B2  1  0.33304500  0.33304500  0.24893400  1
  B  B3  1  0.00000000  0.66695500  0.24893400  1
  B  B4  1  0.33304500  0.00000000  0.74893400  1
  B  B5  1  0.66695500  0.00000000  0.24893400  1
  B  B6  1  0.67286700  0.67286700  0.57562600  1
  B  B7  1  0.00000000  0.32713300  0.57562600  1
  B  B8  1  0.32713300  0.32713300  0.07562600  1
  B  B9  1  0.00000000  0.67286700  0.07562600  1
  B  B10  1  0.32713300  0.00000000  0.57562600  1
  B  B11  1  0.67286700  0.00000000  0.07562600  1
  B  B12  1  0.66119400  0.66119400  0.92139300  1
  B  B13  1  0.00000000  0.33880600  0.92139300  1
  B  B14  1  0.33880600  0.33880600  0.42139300  1
  B  B15  1  0.00000000  0.66119400  0.42139300  1
  B  B16  1  0.33880600  0.00000000  0.92139300  1
  B  B17  1  0.66119400  0.00000000  0.42139300  1
  O  O0  1  0.85339500  0.18660900  0.74952400  1
  O  O1  1  0.33321300  0.14660500  0.74952400  1
  O  O2  1  0.14660500  0.81339100  0.24952400  1
  O  O3  1  0.33321300  0.18660900  0.24952400  1
  O  O4  1  0.81339100  0.66678700  0.74952400  1
  O  O5  1  0.66678700  0.85339500  0.24952400  1
  O  O6  1  0.81339100  0.14660500  0.24952400  1
  O  O7  1  0.66678700  0.81339100  0.74952400  1
  O  O8  1  0.18660900  0.33321300  0.24952400  1
  O  O9  1  0.18660900  0.85339500  0.74952400  1
  O  O10  1  0.85339500  0.66678700  0.24952400  1
  O  O11  1  0.14660500  0.33321300  0.74952400  1
  O  O12  1  0.80673200  0.80673200  0.93056200  1
  O  O13  1  0.00000000  0.19326800  0.93056200  1
  O  O14  1  0.19326800  0.19326800  0.43056200  1
  O  O15  1  0.00000000  0.80673200  0.43056200  1
  O  O16  1  0.19326800  0.00000000  0.93056200  1
  O  O17  1  0.80673200  0.00000000  0.43056200  1
  O  O18  1  0.52017900  0.52017900  0.74845100  1
  O  O19  1  0.00000000  0.47982100  0.74845100  1
  O  O20  1  0.47982100  0.47982100  0.24845100  1
  O  O21  1  0.00000000  0.52017900  0.24845100  1
  O  O22  1  0.47982100  0.00000000  0.74845100  1
  O  O23  1  0.52017900  0.00000000  0.24845100  1
  O  O24  1  0.85356500  0.33759200  0.91672000  1
  O  O25  1  0.48402700  0.14643500  0.91672000  1
  O  O26  1  0.14643500  0.66240800  0.41672000  1
  O  O27  1  0.48402700  0.33759200  0.41672000  1
  O  O28  1  0.66240800  0.51597300  0.91672000  1
  O  O29  1  0.51597300  0.85356500  0.41672000  1
  O  O30  1  0.66240800  0.14643500  0.41672000  1
  O  O31  1  0.51597300  0.66240800  0.91672000  1
  O  O32  1  0.33759200  0.48402700  0.41672000  1
  O  O33  1  0.33759200  0.85356500  0.91672000  1
  O  O34  1  0.85356500  0.51597300  0.41672000  1
  O  O35  1  0.14643500  0.48402700  0.91672000  1
  O  O36  1  0.81804100  0.81804100  0.58441700  1
  O  O37  1  0.00000000  0.18195900  0.58441700  1
  O  O38  1  0.18195900  0.18195900  0.08441700  1
  O  O39  1  0.00000000  0.81804100  0.08441700  1
  O  O40  1  0.18195900  0.00000000  0.58441700  1
  O  O41  1  0.81804100  0.00000000  0.08441700  1
  O  O42  1  0.85416000  0.32690500  0.57127500  1
  O  O43  1  0.47274500  0.14584000  0.57127500  1
  O  O44  1  0.14584000  0.67309500  0.07127500  1
  O  O45  1  0.47274500  0.32690500  0.07127500  1
  O  O46  1  0.67309500  0.52725500  0.57127500  1
  O  O47  1  0.52725500  0.85416000  0.07127500  1
  O  O48  1  0.67309500  0.14584000  0.07127500  1
  O  O49  1  0.52725500  0.67309500  0.57127500  1
  O  O50  1  0.32690500  0.47274500  0.07127500  1
  O  O51  1  0.32690500  0.85416000  0.57127500  1
  O  O52  1  0.85416000  0.52725500  0.07127500  1
  O  O53  1  0.14584000  0.47274500  0.57127500  1
loop_
_geom_bond_atom_site_label_1
_geom_bond_atom_site_label_2
_geom_bond_distance
_geom_bond_site_symmetry_2
Ba0 O11 2.807551 1_555
Ba0 O1 2.807551 1_555
Ba0 O7 2.807552 1_445
Ba0 O4 2.807552 1_445
Ba0 O0 2.807559 1_455
Ba0 O9 2.807559 1_545
Ba0 O36 2.975275 1_445
Ba0 O40 2.975275 1_555
Ba0 O37 2.975275 1_555
Ba1 O10 2.807551 1_445
Ba1 O5 2.807551 1_445
Ba1 O8 2.807552 1_555
Ba1 O3 2.807552 1_555
Ba1 O2 2.807559 1_545
Ba1 O6 2.807559 1_455
Ba1 O38 2.975275 1_555
Ba1 O39 2.975275 1_545
Ba1 O41 2.975275 1_455
Ba2 O18 2.690422 1_555
Ba2 O11 2.823242 1_555
Ba2 O1 2.823242 1_555
Ba2 O49 2.900837 1_555
Ba2 O46 2.900837 1_555
Ba2 O43 2.917741 1_555
Ba2 O53 2.917741 1_555
Ba2 O40 2.972792 1_555
Ba2 O37 2.972792 1_555
Ba3 O19 2.690422 1_555
Ba3 O9 2.823245 1_555
Ba3 O4 2.823248 1_455
Ba3 O42 2.900837 1_455
Ba3 O53 2.900837 1_555
Ba3 O51 2.917741 1_555
Ba3 O46 2.917741 1_455
Ba3 O40 2.972792 1_565
Ba3 O36 2.972792 1_455
Ba4 O20 2.690422 1_555
Ba4 O10 2.823242 1_555
Ba4 O5 2.823242 1_555
Ba4 O45 2.900837 1_555
Ba4 O50 2.900837 1_555
Ba4 O47 2.917741 1_555
Ba4 O52 2.917741 1_555
Ba4 O41 2.972792 1_565
Ba4 O39 2.972792 1_655
Ba5 O21 2.690422 1_555
Ba5 O6 2.823245 1_455
Ba5 O8 2.823248 1_555
Ba5 O44 2.900837 1_555
Ba5 O52 2.900837 1_455
Ba5 O48 2.917741 1_455
Ba5 O50 2.917741 1_555
Ba5 O41 2.972792 1_455
Ba5 O38 2.972792 1_555
Ba6 O22 2.690422 1_555
Ba6 O0 2.823245 1_555
Ba6 O7 2.823248 1_545
Ba6 O51 2.900837 1_545
Ba6 O43 2.900837 1_555
Ba6 O42 2.917741 1_555
Ba6 O49 2.917741 1_545
Ba6 O37 2.972792 1_655
Ba6 O36 2.972792 1_545
Ba7 O23 2.690422 1_555
Ba7 O2 2.823245 1_545
Ba7 O3 2.823248 1_555
Ba7 O48 2.900837 1_555
Ba7 O47 2.900837 1_545
Ba7 O44 2.917741 1_545
Ba7 O45 2.917741 1_555
Ba7 O39 2.972792 1_545
Ba7 O38 2.972792 1_555
Ba8 O11 2.756087 1_555
Ba8 O1 2.756087 1_555
Ba8 O13 2.871819 1_555
Ba8 O16 2.871819 1_555
Ba8 O18 2.894077 1_555
Ba8 O35 2.909324 1_555
Ba8 O25 2.909324 1_555
Ba8 O28 2.958507 1_555
Ba8 O31 2.958507 1_555
Ba9 O9 2.756090 1_555
Ba9 O4 2.756093 1_455
Ba9 O16 2.871819 1_565
Ba9 O12 2.871819 1_455
Ba9 O19 2.894077 1_555
Ba9 O33 2.909324 1_555
Ba9 O28 2.909324 1_455
Ba9 O24 2.958507 1_455
Ba9 O35 2.958507 1_555
Ba10 O10 2.756087 1_555
Ba10 O5 2.756087 1_555
Ba10 O17 2.871819 1_565
Ba10 O15 2.871819 1_655
Ba10 O20 2.894077 1_555
Ba10 O34 2.909324 1_555
Ba10 O29 2.909324 1_555
Ba10 O32 2.958507 1_555
Ba10 O27 2.958507 1_555
Ba11 O6 2.756090 1_455
Ba11 O8 2.756093 1_555
Ba11 O17 2.871819 1_455
Ba11 O14 2.871819 1_555
Ba11 O21 2.894077 1_555
Ba11 O30 2.909324 1_455
Ba11 O32 2.909324 1_555
Ba11 O26 2.958507 1_555
Ba11 O34 2.958507 1_455
Ba12 O0 2.756090 1_555
Ba12 O7 2.756093 1_545
Ba12 O13 2.871819 1_655
Ba12 O12 2.871819 1_545
Ba12 O22 2.894077 1_555
Ba12 O24 2.909324 1_555
Ba12 O31 2.909324 1_545
Ba12 O33 2.958507 1_545
Ba12 O25 2.958507 1_555
Ba13 O2 2.756090 1_545
Ba13 O3 2.756093 1_555
Ba13 O15 2.871819 1_545
Ba13 O14 2.871819 1_555
Ba13 O23 2.894077 1_555
Ba13 O26 2.909324 1_545
Ba13 O27 2.909324 1_555
Ba13 O30 2.958507 1_555
Ba13 O29 2.958507 1_545
Ba14 O0 2.789582 1_555
Ba14 O1 2.789598 1_555
Ba14 O4 2.789599 1_555
Ba14 O19 2.791767 1_655
Ba14 O22 2.791768 1_555
Ba14 O18 2.791776 1_555
Ba14 O24 3.115137 1_555
Ba14 O25 3.115139 1_555
Ba14 O28 3.115142 1_555
Ba15 O2 2.789582 1_555
Ba15 O5 2.789598 1_555
Ba15 O8 2.789599 1_555
Ba15 O21 2.791767 1_555
Ba15 O23 2.791768 1_565
Ba15 O20 2.791776 1_555
Ba15 O26 3.115137 1_555
Ba15 O29 3.115139 1_555
Ba15 O32 3.115142 1_555
Ba16 O6 2.789582 1_555
Ba16 O10 2.789598 1_555
Ba16 O3 2.789599 1_555
Ba16 O23 2.791767 1_555
Ba16 O21 2.791768 1_655
Ba16 O20 2.791776 1_555
Ba16 O30 3.115137 1_555
Ba16 O34 3.115139 1_555
Ba16 O27 3.115142 1_555
Ba17 O9 2.789582 1_555
Ba17 O11 2.789598 1_555
Ba17 O7 2.789599 1_555
Ba17 O22 2.791767 1_565
Ba17 O19 2.791768 1_555
Ba17 O18 2.791776 1_555
Ba17 O33 3.115137 1_555
Ba17 O35 3.115139 1_555
Ba17 O31 3.115142 1_555
Dy0 O12 2.255679 1_444
Dy0 O16 2.255679 1_554
Dy0 O13 2.255679 1_554
Dy0 O38 2.263723 1_555
Dy0 O39 2.263723 1_545
Dy0 O41 2.263723 1_455
Dy1 O14 2.255679 1_555
Dy1 O17 2.255679 1_455
Dy1 O15 2.255679 1_545
Dy1 O36 2.263723 1_445
Dy1 O40 2.263723 1_555
Dy1 O37 2.263723 1_555
Dy2 O48 2.244084 1_556
Dy2 O52 2.244088 1_556
Dy2 O45 2.244092 1_556
Dy2 O24 2.284233 1_555
Dy2 O25 2.284237 1_555
Dy2 O28 2.284241 1_555
Dy3 O51 2.244084 1_555
Dy3 O53 2.244088 1_555
Dy3 O49 2.244092 1_555
Dy3 O26 2.284233 1_555
Dy3 O29 2.284237 1_555
Dy3 O32 2.284241 1_555
Dy4 O42 2.244084 1_555
Dy4 O43 2.244088 1_555
Dy4 O46 2.244092 1_555
Dy4 O30 2.284233 1_555
Dy4 O34 2.284237 1_555
Dy4 O27 2.284241 1_555
Dy5 O44 2.244084 1_556
Dy5 O47 2.244088 1_556
Dy5 O50 2.244092 1_556
Dy5 O33 2.284233 1_555
Dy5 O35 2.284237 1_555
Dy5 O31 2.284241 1_555
B0 O4 1.395128 1_555
B0 O7 1.395128 1_555
B0 O18 1.397551 1_555
B1 O0 1.395133 1_455
B1 O11 1.395137 1_555
B1 O19 1.397551 1_555
B2 O8 1.395128 1_555
B2 O3 1.395128 1_555
B2 O20 1.397551 1_555
B3 O2 1.395133 1_555
B3 O10 1.395137 1_455
B3 O21 1.397551 1_555
B4 O9 1.395133 1_545
B4 O1 1.395137 1_555
B4 O22 1.397551 1_555
B5 O6 1.395133 1_555
B5 O5 1.395137 1_545
B5 O23 1.397551 1_555
B6 O49 1.389724 1_555
B6 O46 1.389724 1_555
B6 O36 1.391248 1_555
B7 O53 1.389724 1_555
B7 O42 1.389724 1_455
B7 O37 1.391248 1_555
B8 O50 1.389724 1_555
B8 O45 1.389724 1_555
B8 O38 1.391248 1_555
B9 O52 1.389724 1_455
B9 O44 1.389724 1_555
B9 O39 1.391248 1_555
B10 O43 1.389724 1_555
B10 O51 1.389724 1_545
B10 O40 1.391248 1_555
B11 O47 1.389724 1_545
B11 O48 1.389724 1_555
B11 O41 1.391248 1_555
B12 O31 1.391065 1_555
B12 O28 1.391065 1_555
B12 O12 1.395475 1_555
B13 O35 1.391065 1_555
B13 O24 1.391065 1_455
B13 O13 1.395475 1_555
B14 O27 1.391065 1_555
B14 O32 1.391065 1_555
B14 O14 1.395475 1_555
B15 O34 1.391065 1_455
B15 O26 1.391065 1_555
B15 O15 1.395475 1_555
B16 O25 1.391065 1_555
B16 O33 1.391065 1_545
B16 O16 1.395475 1_555
B17 O29 1.391065 1_545
B17 O30 1.391065 1_555
B17 O17 1.395475 1_555
