# generated using pymatgen
data_Li4V3O8
_symmetry_space_group_name_H-M   'P 1'
_cell_length_a   5.85506012
_cell_length_b   6.15067351
_cell_length_c   8.49500419
_cell_angle_alpha   85.99002551
_cell_angle_beta   89.91213922
_cell_angle_gamma   90.62722536
_symmetry_Int_Tables_number   1
_chemical_formula_structural   Li4V3O8
_chemical_formula_sum   'Li8 V6 O16'
_cell_volume   305.15883658
_cell_formula_units_Z   2
loop_
 _symmetry_equiv_pos_site_id
 _symmetry_equiv_pos_as_xyz
  1  'x, y, z'
loop_
 _atom_site_type_symbol
 _atom_site_label
 _atom_site_symmetry_multiplicity
 _atom_site_fract_x
 _atom_site_fract_y
 _atom_site_fract_z
 _atom_site_occupancy
  Li  Li0  1  0.99999200  0.00010800  0.99998600  1
  Li  Li1  1  0.50000700  0.49991400  0.49999800  1
  Li  Li2  1  0.50005200  0.49998000  0.00001400  1
  Li  Li3  1  0.99993600  0.00001800  0.49999900  1
  Li  Li4  1  0.49419000  0.21627400  0.85792500  1
  Li  Li5  1  0.99412200  0.71627000  0.35661800  1
  Li  Li6  1  0.50582800  0.78367200  0.14203900  1
  Li  Li7  1  0.00585200  0.28376500  0.64345100  1
  V  V0  1  0.49991000  0.99999600  0.49988700  1
  V  V1  1  0.74594000  0.75168600  0.75533300  1
  V  V2  1  0.25401100  0.24820600  0.24464200  1
  V  V3  1  0.00015000  0.50012900  0.00003200  1
  V  V4  1  0.75344400  0.25134600  0.25434600  1
  V  V5  1  0.24654100  0.74873100  0.74561600  1
  O  O0  1  0.00596700  0.47234700  0.23500500  1
  O  O1  1  0.49711900  0.97083400  0.73689700  1
  O  O2  1  0.99406700  0.52767400  0.76512200  1
  O  O3  1  0.50285400  0.02911300  0.26298500  1
  O  O4  1  0.49069300  0.46234900  0.24530800  1
  O  O5  1  0.98828600  0.96166200  0.74331700  1
  O  O6  1  0.76064600  0.72537600  0.98646100  1
  O  O7  1  0.27279700  0.21483000  0.48846100  1
  O  O8  1  0.23674100  0.72215500  0.97575100  1
  O  O9  1  0.74743500  0.23540000  0.47475000  1
  O  O10  1  0.50928900  0.53760200  0.75472900  1
  O  O11  1  0.01173300  0.03832400  0.25667900  1
  O  O12  1  0.23938600  0.27471200  0.01355900  1
  O  O13  1  0.72716500  0.78508700  0.51154300  1
  O  O14  1  0.76336800  0.27796800  0.02431400  1
  O  O15  1  0.25247800  0.76447200  0.52523000  1
loop_
_geom_bond_atom_site_label_1
_geom_bond_atom_site_label_2
_geom_bond_distance
_geom_bond_site_symmetry_2
Li0 O12 2.192392 1_656
Li0 O6 2.192775 1_545
Li0 O11 2.210615 1_656
Li0 O5 2.210654 1_545
Li0 O14 2.232332 1_556
Li0 O8 2.233123 1_645
Li1 O4 2.192600 1_555
Li1 O10 2.193073 1_555
Li1 O7 2.197125 1_555
Li1 O13 2.197385 1_555
Li1 O9 2.211591 1_555
Li1 O15 2.212166 1_555
Li2 O12 2.047727 1_555
Li2 O6 2.047940 1_554
Li2 O14 2.071677 1_555
Li2 O8 2.072300 1_554
Li2 O10 2.080915 1_554
Li2 O4 2.081010 1_555
Li3 O7 2.059819 1_655
Li3 O13 2.059875 1_545
Li3 O5 2.064888 1_545
Li3 O11 2.064917 1_655
Li3 O9 2.081371 1_555
Li3 O15 2.082237 1_645
Li4 O1 1.885178 1_545
Li4 O12 2.043299 1_556
Li4 O10 2.106191 1_555
Li4 O14 2.166703 1_556
Li5 O0 1.881972 1_655
Li5 O11 2.101243 1_665
Li5 O13 2.107239 1_555
Li5 O15 2.117546 1_655
Li6 O3 1.884769 1_565
Li6 O6 2.042845 1_554
Li6 O4 2.106387 1_555
Li6 O8 2.165513 1_554
Li7 O2 1.882182 1_455
Li7 O5 2.101299 1_445
Li7 O7 2.107723 1_555
Li7 O9 2.118501 1_455
O0 V3 1.991831 1_555
O0 V4 1.996195 1_455
O0 V2 2.011198 1_555
O1 V5 1.991439 1_555
O1 V1 1.994492 1_555
O1 V0 2.008868 1_555
O2 V3 1.991307 1_656
O2 V5 1.996262 1_655
O2 V1 2.010997 1_555
O3 V4 1.992039 1_555
O3 V2 1.994332 1_555
O3 V0 2.007954 1_545
O4 V2 1.901672 1_555
O4 V4 2.021656 1_555
O5 V1 1.905988 1_555
O5 V5 2.010454 1_655
O6 V1 1.960882 1_555
O6 V3 1.979861 1_656
O7 V0 1.882721 1_545
O7 V2 2.070269 1_555
O8 V3 1.935117 1_556
O8 V5 1.951098 1_555
O9 V4 1.868295 1_555
O9 V0 2.037708 1_545
O10 V1 1.901265 1_555
O10 V5 2.022140 1_555
O11 V2 1.905311 1_555
O11 V4 2.010964 1_455
O12 V2 1.960495 1_555
O12 V3 1.979470 1_555
O13 V0 1.883649 1_555
O13 V1 2.070025 1_555
O14 V3 1.936482 1_655
O14 V4 1.950250 1_555
O15 V5 1.868158 1_555
O15 V0 2.037934 1_555
