# generated using pymatgen
data_Ba4Sr(SnO3)5
_symmetry_space_group_name_H-M   'P 1'
_cell_length_a   4.17711400
_cell_length_b   4.17711400
_cell_length_c   20.88404900
_cell_angle_alpha   90.00000000
_cell_angle_beta   90.00000000
_cell_angle_gamma   90.00000000
_symmetry_Int_Tables_number   1
_chemical_formula_structural   Ba4Sr(SnO3)5
_chemical_formula_sum   'Ba4 Sr1 Sn5 O15'
_cell_volume   364.39076308
_cell_formula_units_Z   1
loop_
 _symmetry_equiv_pos_site_id
 _symmetry_equiv_pos_as_xyz
  1  'x, y, z'
loop_
 _atom_site_type_symbol
 _atom_site_label
 _atom_site_symmetry_multiplicity
 _atom_site_fract_x
 _atom_site_fract_y
 _atom_site_fract_z
 _atom_site_occupancy
  Ba  Ba0  1  0.50000000  0.50000000  0.19966500  1
  Ba  Ba1  1  0.50000000  0.50000000  0.40000300  1
  Ba  Ba2  1  0.50000000  0.50000000  0.59999700  1
  Ba  Ba3  1  0.50000000  0.50000000  0.80033500  1
  Sr  Sr0  1  0.50000000  0.50000000  0.00000000  1
  Sn  Sn0  1  0.00000000  0.00000000  0.90073800  1
  Sn  Sn1  1  0.00000000  0.00000000  0.09926200  1
  Sn  Sn2  1  0.00000000  0.00000000  0.29991000  1
  Sn  Sn3  1  0.00000000  0.00000000  0.50000000  1
  Sn  Sn4  1  0.00000000  0.00000000  0.70009000  1
  O  O0  1  0.00000000  0.00000000  0.00000000  1
  O  O1  1  0.00000000  0.00000000  0.19967300  1
  O  O2  1  0.00000000  0.00000000  0.40000700  1
  O  O3  1  0.00000000  0.00000000  0.59999300  1
  O  O4  1  0.00000000  0.00000000  0.80032700  1
  O  O5  1  0.00000000  0.50000000  0.90169900  1
  O  O6  1  0.00000000  0.50000000  0.09830100  1
  O  O7  1  0.00000000  0.50000000  0.29998100  1
  O  O8  1  0.00000000  0.50000000  0.50000000  1
  O  O9  1  0.00000000  0.50000000  0.70001900  1
  O  O10  1  0.50000000  0.00000000  0.90169900  1
  O  O11  1  0.50000000  0.00000000  0.09830100  1
  O  O12  1  0.50000000  0.00000000  0.29998100  1
  O  O13  1  0.50000000  0.00000000  0.50000000  1
  O  O14  1  0.50000000  0.00000000  0.70001900  1
loop_
_geom_bond_atom_site_label_1
_geom_bond_atom_site_label_2
_geom_bond_distance
_geom_bond_site_symmetry_2
Ba0 O1 2.953666 1_655
Ba0 O1 2.953666 1_565
Ba0 O1 2.953666 1_665
Ba0 O1 2.953666 1_555
Ba0 O7 2.958228 1_655
Ba0 O7 2.958228 1_555
Ba0 O12 2.958228 1_555
Ba0 O12 2.958228 1_565
Ba0 O11 2.973768 1_555
Ba0 O11 2.973768 1_565
Ba0 O6 2.973768 1_555
Ba0 O6 2.973768 1_655
Ba1 O13 2.953514 1_565
Ba1 O8 2.953514 1_655
Ba1 O13 2.953514 1_555
Ba1 O8 2.953514 1_555
Ba1 O2 2.953666 1_565
Ba1 O2 2.953666 1_665
Ba1 O2 2.953666 1_555
Ba1 O2 2.953666 1_655
Ba1 O12 2.953883 1_565
Ba1 O7 2.953883 1_655
Ba1 O7 2.953883 1_555
Ba1 O12 2.953883 1_555
Ba2 O13 2.953514 1_565
Ba2 O8 2.953514 1_655
Ba2 O13 2.953514 1_555
Ba2 O8 2.953514 1_555
Ba2 O3 2.953666 1_655
Ba2 O3 2.953666 1_555
Ba2 O3 2.953666 1_565
Ba2 O3 2.953666 1_665
Ba2 O14 2.953883 1_555
Ba2 O14 2.953883 1_565
Ba2 O9 2.953883 1_655
Ba2 O9 2.953883 1_555
Ba3 O4 2.953666 1_565
Ba3 O4 2.953666 1_665
Ba3 O4 2.953666 1_655
Ba3 O4 2.953666 1_555
Ba3 O9 2.958228 1_655
Ba3 O9 2.958228 1_555
Ba3 O14 2.958228 1_555
Ba3 O14 2.958228 1_565
Ba3 O10 2.973768 1_565
Ba3 O5 2.973768 1_555
Ba3 O10 2.973768 1_555
Ba3 O5 2.973768 1_655
O0 Sn1 2.072992 1_555
O0 Sn0 2.072992 1_554
O0 Sr0 2.953666 1_455
O0 Sr0 2.953666 1_555
O0 Sr0 2.953666 1_445
O0 Sr0 2.953666 1_545
O1 Sn2 2.093354 1_555
O1 Sn1 2.096988 1_555
O2 Sn3 2.088259 1_555
O2 Sn2 2.090431 1_555
O3 Sn3 2.088259 1_555
O3 Sn4 2.090431 1_555
O4 Sn4 2.093354 1_555
O4 Sn0 2.096988 1_555
O5 Sn0 2.088653 1_555
O5 Sn0 2.088653 1_565
O5 Sr0 2.928577 1_456
O5 Sr0 2.928577 1_556
O6 Sn1 2.088653 1_565
O6 Sn1 2.088653 1_555
O6 Sr0 2.928577 1_455
O6 Sr0 2.928577 1_555
O7 Sn2 2.088558 1_565
O7 Sn2 2.088558 1_555
O8 Sn3 2.088557 1_555
O8 Sn3 2.088557 1_565
O9 Sn4 2.088558 1_565
O9 Sn4 2.088558 1_555
O10 Sn0 2.088653 1_655
O10 Sn0 2.088653 1_555
O10 Sr0 2.928577 1_546
O10 Sr0 2.928577 1_556
O11 Sn1 2.088653 1_555
O11 Sn1 2.088653 1_655
O11 Sr0 2.928577 1_545
O11 Sr0 2.928577 1_555
O12 Sn2 2.088558 1_555
O12 Sn2 2.088558 1_655
O13 Sn3 2.088557 1_655
O13 Sn3 2.088557 1_555
O14 Sn4 2.088558 1_655
O14 Sn4 2.088558 1_555
