# generated using pymatgen
data_Er2MgSe4
_symmetry_space_group_name_H-M   'P 1'
_cell_length_a   8.15990975
_cell_length_b   8.15990975
_cell_length_c   8.15990975
_cell_angle_alpha   60.00000000
_cell_angle_beta   60.00000000
_cell_angle_gamma   60.00000000
_symmetry_Int_Tables_number   1
_chemical_formula_structural   Er2MgSe4
_chemical_formula_sum   'Er4 Mg2 Se8'
_cell_volume   384.18558777
_cell_formula_units_Z   2
loop_
 _symmetry_equiv_pos_site_id
 _symmetry_equiv_pos_as_xyz
  1  'x, y, z'
loop_
 _atom_site_type_symbol
 _atom_site_label
 _atom_site_symmetry_multiplicity
 _atom_site_fract_x
 _atom_site_fract_y
 _atom_site_fract_z
 _atom_site_occupancy
  Er  Er0  1  0.12500000  0.62500000  0.62500000  1
  Er  Er1  1  0.62500000  0.12500000  0.62500000  1
  Er  Er2  1  0.62500000  0.62500000  0.12500000  1
  Er  Er3  1  0.62500000  0.62500000  0.62500000  1
  Mg  Mg0  1  0.25000000  0.25000000  0.25000000  1
  Mg  Mg1  1  0.00000000  -0.00000000  -0.00000000  1
  Se  Se0  1  0.85963471  0.38012243  0.38012243  1
  Se  Se1  1  0.38012243  0.85963471  0.38012243  1
  Se  Se2  1  0.38012243  0.38012243  0.85963471  1
  Se  Se3  1  0.38012243  0.38012243  0.38012243  1
  Se  Se4  1  0.39036529  0.86987757  0.86987757  1
  Se  Se5  1  0.86987757  0.39036529  0.86987757  1
  Se  Se6  1  0.86987757  0.86987757  0.39036529  1
  Se  Se7  1  0.86987757  0.86987757  0.86987757  1
loop_
_geom_bond_atom_site_label_1
_geom_bond_atom_site_label_2
_geom_bond_distance
_geom_bond_site_symmetry_2
Er0 Se7 2.827088 1_455
Er0 Se3 2.827088 1_555
Er0 Se1 2.827099 1_555
Er0 Se2 2.827099 1_555
Er0 Se6 2.827099 1_455
Er0 Se5 2.827099 1_455
Er1 Se7 2.827088 1_545
Er1 Se3 2.827088 1_555
Er1 Se4 2.827099 1_545
Er1 Se2 2.827099 1_555
Er1 Se6 2.827099 1_545
Er1 Se0 2.827099 1_555
Er2 Se7 2.827088 1_554
Er2 Se3 2.827088 1_555
Er2 Se1 2.827099 1_555
Er2 Se4 2.827099 1_554
Er2 Se5 2.827099 1_554
Er2 Se0 2.827099 1_555
Er3 Se4 2.827087 1_555
Er3 Se5 2.827087 1_555
Er3 Se2 2.827087 1_555
Er3 Se6 2.827087 1_555
Er3 Se0 2.827087 1_555
Er3 Se1 2.827087 1_555
Mg0 Se2 2.600824 1_554
Mg0 Se1 2.600824 1_545
Mg0 Se0 2.600824 1_455
Mg0 Se3 2.600837 1_555
Mg1 Se6 2.600824 1_445
Mg1 Se5 2.600824 1_454
Mg1 Se4 2.600824 1_544
Mg1 Se7 2.600837 1_444
