# generated using pymatgen
data_Pr2Ni7
_symmetry_space_group_name_H-M   'P 1'
_cell_length_a   4.99831272
_cell_length_b   4.99831300
_cell_length_c   12.60408820
_cell_angle_alpha   78.56352323
_cell_angle_beta   78.56352133
_cell_angle_gamma   60.00000477
_symmetry_Int_Tables_number   1
_chemical_formula_structural   Pr2Ni7
_chemical_formula_sum   'Pr4 Ni14'
_cell_volume   265.45856653
_cell_formula_units_Z   2
loop_
 _symmetry_equiv_pos_site_id
 _symmetry_equiv_pos_as_xyz
  1  'x, y, z'
loop_
 _atom_site_type_symbol
 _atom_site_label
 _atom_site_symmetry_multiplicity
 _atom_site_fract_x
 _atom_site_fract_y
 _atom_site_fract_z
 _atom_site_occupancy
  Pr  Pr0  1  0.94909800  0.94909800  0.15270500  1
  Pr  Pr1  1  0.05090200  0.05090200  0.84729500  1
  Pr  Pr2  1  0.85273000  0.85273000  0.44181100  1
  Pr  Pr3  1  0.14727000  0.14727000  0.55818900  1
  Ni  Ni0  1  0.50000000  0.50000000  0.50000000  1
  Ni  Ni1  1  0.72165500  0.72165500  0.83503400  1
  Ni  Ni2  1  0.27834500  0.27834500  0.16496600  1
  Ni  Ni3  1  0.61214300  0.61214300  0.16357100  1
  Ni  Ni4  1  0.38785700  0.38785700  0.83642900  1
  Ni  Ni5  1  0.00000000  0.50000000  0.00000000  1
  Ni  Ni6  1  0.50000000  0.00000000  0.00000000  1
  Ni  Ni7  1  0.50000000  0.50000000  0.00000000  1
  Ni  Ni8  1  0.39193300  0.39193300  0.32572000  1
  Ni  Ni9  1  0.89041400  0.39193300  0.32572000  1
  Ni  Ni10  1  0.39193300  0.89041400  0.32572000  1
  Ni  Ni11  1  0.60806700  0.60806700  0.67428000  1
  Ni  Ni12  1  0.10958600  0.60806700  0.67428000  1
  Ni  Ni13  1  0.60806700  0.10958600  0.67428000  1
loop_
_geom_bond_atom_site_label_1
_geom_bond_atom_site_label_2
_geom_bond_distance
_geom_bond_site_symmetry_2
Ni0 Ni11 2.577127 1_555
Ni0 Ni8 2.577127 1_555
Ni0 Ni9 2.577127 1_555
Ni0 Ni12 2.577127 1_555
Ni0 Ni13 2.577127 1_555
Ni0 Ni10 2.577127 1_555
Ni0 Pr2 2.972778 1_455
Ni0 Pr3 2.972778 1_655
Ni0 Pr3 2.972778 1_565
Ni0 Pr2 2.972778 1_545
Ni0 Pr2 2.972782 1_555
Ni0 Pr3 2.972782 1_555
Ni1 Ni11 2.446365 1_555
Ni1 Ni12 2.446367 1_655
Ni1 Ni13 2.446367 1_565
Ni1 Ni7 2.485670 1_556
Ni1 Ni6 2.485672 1_566
Ni1 Ni5 2.485672 1_656
Ni1 Pr1 2.889693 1_565
Ni1 Pr1 2.889693 1_655
Ni1 Pr1 2.889701 1_665
Ni2 Ni8 2.446365 1_555
Ni2 Ni9 2.446367 1_455
Ni2 Ni7 2.485670 1_555
Ni2 Ni6 2.485672 1_555
Ni2 Ni5 2.485672 1_555
Ni2 Pr0 2.889693 1_545
Ni2 Pr0 2.889693 1_455
Ni2 Pr0 2.889701 1_445
Ni3 Ni8 2.455039 1_555
Ni3 Ni9 2.455039 1_555
Ni3 Ni7 2.471755 1_555
Ni3 Ni5 2.471755 1_655
Ni3 Ni6 2.471755 1_565
Ni3 Pr0 2.888852 1_555
Ni3 Pr0 2.888857 1_455
Ni3 Pr0 2.888857 1_545
Ni4 Ni7 2.471755 1_556
Ni4 Ni5 2.471755 1_556
Ni4 Ni6 2.471755 1_556
Ni4 Pr1 2.888852 1_555
Ni4 Pr1 2.888857 1_655
Ni4 Pr1 2.888857 1_565
Ni5 Ni7 2.499156 1_455
Ni5 Ni7 2.499156 1_555
Ni5 Ni6 2.499157 1_555
Ni5 Ni6 2.499157 1_465
Ni5 Pr1 3.123472 1_554
Ni5 Pr0 3.123472 1_455
Ni5 Pr1 3.123476 1_564
Ni5 Pr0 3.123476 1_445
Ni6 Ni7 2.499156 1_545
Ni6 Ni7 2.499156 1_555
Ni6 Pr0 3.123472 1_545
Ni6 Pr1 3.123472 1_554
Ni6 Pr0 3.123476 1_445
Ni6 Pr1 3.123476 1_654
Ni7 Pr1 3.123474 1_654
Ni7 Pr0 3.123474 1_455
Ni7 Pr1 3.123474 1_564
Ni7 Pr0 3.123474 1_545
Ni8 Ni9 2.491564 1_555
Ni8 Ni9 2.506749 1_455
Ni8 Pr2 2.876558 1_455
Ni8 Pr2 2.876558 1_545
Ni8 Pr3 3.198408 1_555
Ni8 Pr0 3.279018 1_545
Ni8 Pr0 3.279018 1_455
Ni9 Pr2 2.876556 1_545
Ni9 Pr2 2.876560 1_555
Ni9 Pr3 3.198406 1_655
Ni9 Pr0 3.279016 1_555
Ni9 Pr0 3.279019 1_545
Ni10 Ni2 2.446367 1_565
Ni10 Ni3 2.455039 1_555
Ni10 Ni8 2.491564 1_555
Ni10 Ni9 2.491564 1_555
Ni10 Ni8 2.506749 1_565
Ni10 Ni9 2.506749 1_465
Ni10 Pr2 2.876556 1_455
Ni10 Pr2 2.876560 1_555
Ni10 Pr3 3.198406 1_565
Ni10 Pr0 3.279015 1_555
Ni10 Pr0 3.279019 1_455
Ni11 Ni4 2.455039 1_555
Ni11 Ni12 2.491564 1_555
Ni11 Ni13 2.491564 1_555
Ni11 Ni12 2.506749 1_655
Ni11 Ni13 2.506749 1_565
Ni11 Pr3 2.876558 1_655
Ni11 Pr3 2.876558 1_565
Ni11 Pr2 3.198408 1_555
Ni11 Pr1 3.279018 1_565
Ni11 Pr1 3.279018 1_655
Ni12 Ni4 2.455039 1_555
Ni12 Ni13 2.491564 1_555
Ni12 Ni13 2.506749 1_465
Ni12 Pr3 2.876556 1_565
Ni12 Pr3 2.876560 1_555
Ni12 Pr2 3.198406 1_455
Ni12 Pr1 3.279016 1_555
Ni12 Pr1 3.279019 1_565
Ni13 Ni4 2.455039 1_555
Ni13 Pr3 2.876556 1_655
Ni13 Pr3 2.876560 1_555
Ni13 Pr2 3.198406 1_545
Ni13 Pr1 3.279015 1_555
Ni13 Pr1 3.279019 1_655
