# generated using pymatgen
data_Li2TiV3O8
_symmetry_space_group_name_H-M   'P 1'
_cell_length_a   6.03700745
_cell_length_b   8.35203213
_cell_length_c   6.04669460
_cell_angle_alpha   89.50352620
_cell_angle_beta   89.00543773
_cell_angle_gamma   90.57293702
_symmetry_Int_Tables_number   1
_chemical_formula_structural   Li2TiV3O8
_chemical_formula_sum   'Li4 Ti2 V6 O16'
_cell_volume   304.80899957
_cell_formula_units_Z   2
loop_
 _symmetry_equiv_pos_site_id
 _symmetry_equiv_pos_as_xyz
  1  'x, y, z'
loop_
 _atom_site_type_symbol
 _atom_site_label
 _atom_site_symmetry_multiplicity
 _atom_site_fract_x
 _atom_site_fract_y
 _atom_site_fract_z
 _atom_site_occupancy
  Li  Li0  1  0.25389000  0.12599000  0.00660100  1
  Li  Li1  1  0.75354500  0.62601600  0.50789700  1
  Li  Li2  1  0.74647300  0.87399200  0.99207200  1
  Li  Li3  1  0.24612200  0.37398600  0.49332400  1
  Ti  Ti0  1  0.00045700  0.49868200  0.00043000  1
  Ti  Ti1  1  0.49948500  0.00135000  0.49978400  1
  V  V0  1  0.25003100  0.75006400  0.74992300  1
  V  V1  1  0.75000400  0.24994500  0.74988500  1
  V  V2  1  0.24999600  0.74996800  0.24995500  1
  V  V3  1  0.49907600  0.49995200  0.00057400  1
  V  V4  1  0.00088100  0.00008500  0.49947900  1
  V  V5  1  0.74996400  0.24984000  0.25010000  1
  O  O0  1  0.53014200  0.25986800  0.00585700  1
  O  O1  1  0.02966000  0.76038700  0.50817000  1
  O  O2  1  0.47035700  0.73962000  0.99190100  1
  O  O3  1  0.96983500  0.24015300  0.49412000  1
  O  O4  1  0.75773300  0.48046600  0.23238300  1
  O  O5  1  0.25945100  0.98130700  0.73094500  1
  O  O6  1  0.75794700  0.49139500  0.78215200  1
  O  O7  1  0.25825200  0.99217000  0.28146600  1
  O  O8  1  0.98067600  0.26465500  0.00712300  1
  O  O9  1  0.47655700  0.76342200  0.50411000  1
  O  O10  1  0.02347700  0.73657300  0.99590900  1
  O  O11  1  0.51934200  0.23536900  0.49285200  1
  O  O12  1  0.24173000  0.50788400  0.21852400  1
  O  O13  1  0.74204800  0.00865400  0.71784400  1
  O  O14  1  0.24058100  0.51864700  0.76903700  1
  O  O15  1  0.74229000  0.01955900  0.26758400  1
loop_
_geom_bond_atom_site_label_1
_geom_bond_atom_site_label_2
_geom_bond_distance
_geom_bond_site_symmetry_2
Li0 O7 1.995525 1_545
Li0 O0 1.998496 1_555
Li0 O8 2.024815 1_455
Li0 O5 2.067214 1_544
Li1 O6 1.996192 1_555
Li1 O1 2.000198 1_655
Li1 O9 2.037888 1_555
Li1 O4 2.070761 1_555
Li2 O13 1.996252 1_565
Li2 O2 2.000196 1_555
Li2 O10 2.038036 1_655
Li2 O15 2.070835 1_566
Li3 O12 1.995566 1_555
Li3 O3 1.998459 1_455
Li3 O11 2.024614 1_555
Li3 O14 2.067384 1_555
O0 V5 2.004336 1_555
O0 V3 2.015836 1_555
O0 V1 2.024193 1_554
O1 V0 1.995457 1_555
O1 V4 2.011532 1_565
O1 V2 2.036492 1_555
O2 V0 1.996329 1_555
O2 V3 2.011246 1_556
O2 V2 2.035820 1_556
O3 V5 2.003410 1_555
O3 V4 2.015695 1_655
O3 V1 2.023071 1_555
O4 V5 1.928302 1_555
O4 Ti0 2.014440 1_655
O4 V3 2.122882 1_555
O5 V0 1.933972 1_555
O5 Ti1 2.000597 1_565
O5 V4 2.120640 1_565
O6 Ti0 1.988925 1_656
O6 V1 2.027867 1_555
O6 V3 2.030768 1_556
O7 Ti1 1.983858 1_565
O7 V4 2.022072 1_565
O7 V2 2.033672 1_555
O8 Ti0 1.957079 1_655
O8 V5 2.009021 1_555
O8 V1 2.109222 1_554
O9 Ti1 1.990530 1_565
O9 V0 2.003840 1_555
O9 V2 2.077981 1_555
O10 Ti0 1.990259 1_556
O10 V0 2.004764 1_555
O10 V2 2.077289 1_556
O11 Ti1 1.957052 1_555
O11 V5 2.007537 1_555
O11 V1 2.108188 1_555
O12 Ti0 1.983126 1_555
O12 V3 2.021721 1_555
O12 V2 2.032642 1_555
O13 Ti1 1.988277 1_555
O13 V1 2.026403 1_555
O13 V4 2.030379 1_655
O14 V0 1.935467 1_555
O14 Ti0 2.001899 1_556
O14 V3 2.120537 1_556
O15 V5 1.925353 1_555
O15 Ti1 2.015806 1_555
O15 V4 2.122926 1_655
