# generated using pymatgen
data_In2Se3
_symmetry_space_group_name_H-M   'P 1'
_cell_length_a   10.00347251
_cell_length_b   10.00347251
_cell_length_c   10.00347235
_cell_angle_alpha   24.01226477
_cell_angle_beta   24.01226477
_cell_angle_gamma   24.01226303
_symmetry_Int_Tables_number   1
_chemical_formula_structural   In2Se3
_chemical_formula_sum   'In2 Se3'
_cell_volume   145.65785132
_cell_formula_units_Z   1
loop_
 _symmetry_equiv_pos_site_id
 _symmetry_equiv_pos_as_xyz
  1  'x, y, z'
loop_
 _atom_site_type_symbol
 _atom_site_label
 _atom_site_symmetry_multiplicity
 _atom_site_fract_x
 _atom_site_fract_y
 _atom_site_fract_z
 _atom_site_occupancy
  In  In0  1  0.71343000  0.71343000  0.71343000  1
  In  In1  1  0.24980700  0.24980700  0.24980700  1
  Se  Se0  1  0.79897500  0.79897500  0.79897500  1
  Se  Se1  1  0.54066200  0.54066200  0.54066200  1
  Se  Se2  1  0.00012600  0.00012600  0.00012600  1
loop_
_geom_bond_atom_site_label_1
_geom_bond_atom_site_label_2
_geom_bond_distance
_geom_bond_site_symmetry_2
In0 Se0 2.492083 1_555
In0 Se2 2.760313 1_566
In0 Se2 2.760313 1_656
In0 Se2 2.760313 1_665
In1 Se1 2.702737 1_455
In1 Se1 2.702737 1_545
In1 Se1 2.702737 1_554
