# generated using pymatgen
data_Sr7Ag3
_symmetry_space_group_name_H-M   'P 1'
_cell_length_a   7.28840292
_cell_length_b   11.36446495
_cell_length_c   11.36450788
_cell_angle_alpha   120.00075905
_cell_angle_beta   89.99951703
_cell_angle_gamma   89.99957548
_symmetry_Int_Tables_number   1
_chemical_formula_structural   Sr7Ag3
_chemical_formula_sum   'Sr14 Ag6'
_cell_volume   815.19087739
_cell_formula_units_Z   2
loop_
 _symmetry_equiv_pos_site_id
 _symmetry_equiv_pos_as_xyz
  1  'x, y, z'
loop_
 _atom_site_type_symbol
 _atom_site_label
 _atom_site_symmetry_multiplicity
 _atom_site_fract_x
 _atom_site_fract_y
 _atom_site_fract_z
 _atom_site_occupancy
  Sr  Sr0  1  0.45086720  0.33332618  0.66666630  1
  Sr  Sr1  1  0.95088046  0.66666419  0.33332332  1
  Sr  Sr2  1  0.24767590  0.12497923  0.87501491  1
  Sr  Sr3  1  0.24768792  0.75003283  0.87500739  1
  Sr  Sr4  1  0.24766926  0.12499746  0.24998102  1
  Sr  Sr5  1  0.74766577  0.87501227  0.12497785  1
  Sr  Sr6  1  0.74766215  0.24998446  0.12499943  1
  Sr  Sr7  1  0.74767670  0.87500748  0.75003590  1
  Sr  Sr8  1  0.43855790  0.54156606  0.45843726  1
  Sr  Sr9  1  0.43857366  0.91681327  0.45842172  1
  Sr  Sr10  1  0.43856453  0.54156725  0.08315203  1
  Sr  Sr11  1  0.93856004  0.45844968  0.54156048  1
  Sr  Sr12  1  0.93856318  0.08313834  0.54156210  1
  Sr  Sr13  1  0.93858035  0.45843356  0.91683355  1
  Ag  Ag0  1  0.16814608  0.81144130  0.18857685  1
  Ag  Ag1  1  0.16813504  0.37715169  0.18859275  1
  Ag  Ag2  1  0.16813761  0.81140645  0.62284392  1
  Ag  Ag3  1  0.66813792  0.18860086  0.81144120  1
  Ag  Ag4  1  0.66812954  0.62281913  0.81140038  1
  Ag  Ag5  1  0.66812677  0.18860731  0.37717160  1
loop_
_geom_bond_atom_site_label_1
_geom_bond_atom_site_label_2
_geom_bond_distance
_geom_bond_site_symmetry_2
Ag0 Sr1 3.259920 1_455
Ag0 Sr5 3.310358 1_455
Ag0 Sr4 3.321753 1_565
Ag0 Sr3 3.321909 1_554
Ag0 Sr9 3.324288 1_555
Ag0 Sr10 3.324385 1_555
Ag1 Sr1 3.259735 1_455
Ag1 Sr6 3.310307 1_455
Ag1 Sr4 3.321685 1_555
Ag1 Sr2 3.321978 1_554
Ag1 Sr8 3.324193 1_555
Ag1 Sr10 3.324310 1_555
Ag2 Sr1 3.259861 1_455
Ag2 Sr7 3.310288 1_455
Ag2 Sr3 3.321716 1_555
Ag2 Sr2 3.321945 1_565
Ag2 Sr8 3.324090 1_555
Ag2 Sr9 3.324144 1_555
Ag3 Sr0 3.259739 1_555
Ag3 Sr2 3.310328 1_555
Ag3 Sr6 3.321868 1_556
Ag3 Sr7 3.322167 1_545
Ag3 Sr13 3.324216 1_555
Ag3 Sr12 3.324422 1_555
Ag4 Sr0 3.259631 1_555
Ag4 Sr3 3.310237 1_555
Ag4 Sr7 3.321909 1_555
Ag4 Sr5 3.322064 1_556
Ag4 Sr13 3.324090 1_555
Ag4 Sr11 3.324094 1_555
Ag5 Sr0 3.259608 1_555
Ag5 Sr4 3.310292 1_555
Ag5 Sr6 3.321811 1_555
Ag5 Sr5 3.322175 1_545
Ag5 Sr11 3.324186 1_555
Ag5 Sr12 3.324339 1_555
