# generated using pymatgen
data_LiNi2P2O9
_symmetry_space_group_name_H-M   'P 1'
_cell_length_a   6.25759100
_cell_length_b   7.43748500
_cell_length_c   13.85284800
_cell_angle_alpha   90.00000000
_cell_angle_beta   90.00000000
_cell_angle_gamma   90.00000000
_symmetry_Int_Tables_number   1
_chemical_formula_structural   LiNi2P2O9
_chemical_formula_sum   'Li4 Ni8 P8 O36'
_cell_volume   644.72178593
_cell_formula_units_Z   4
loop_
 _symmetry_equiv_pos_site_id
 _symmetry_equiv_pos_as_xyz
  1  'x, y, z'
loop_
 _atom_site_type_symbol
 _atom_site_label
 _atom_site_symmetry_multiplicity
 _atom_site_fract_x
 _atom_site_fract_y
 _atom_site_fract_z
 _atom_site_occupancy
  Li  Li0  1  0.75000000  0.93935200  0.77799800  1
  Li  Li1  1  0.75000000  0.56064800  0.27799800  1
  Li  Li2  1  0.25000100  0.43935100  0.72200200  1
  Li  Li3  1  0.25000100  0.06064800  0.22200200  1
  Ni  Ni0  1  0.75000000  0.34793800  0.87989700  1
  Ni  Ni1  1  0.25000100  0.65206200  0.12010300  1
  Ni  Ni2  1  0.25000100  0.84793800  0.62010300  1
  Ni  Ni3  1  0.75000000  0.15206200  0.37989700  1
  Ni  Ni4  1  0.50000000  0.00000000  0.00000000  1
  Ni  Ni5  1  0.50000000  0.50000000  0.50000000  1
  Ni  Ni6  1  0.00000000  0.50000000  0.50000000  1
  Ni  Ni7  1  0.00000000  0.00000000  0.00000000  1
  P  P0  1  0.25000100  0.36254500  0.93504200  1
  P  P1  1  0.75000000  0.63745500  0.06495900  1
  P  P2  1  0.75000000  0.86254500  0.56495800  1
  P  P3  1  0.25000100  0.13745600  0.43504200  1
  P  P4  1  0.75000000  0.39912600  0.69624800  1
  P  P5  1  0.75000000  0.10087400  0.19624800  1
  P  P6  1  0.25000100  0.89912600  0.80375200  1
  P  P7  1  0.25000100  0.60087300  0.30375200  1
  O  O0  1  0.04277500  0.58061100  0.36204500  1
  O  O1  1  0.54277400  0.41938800  0.63795500  1
  O  O2  1  0.95722500  0.08061100  0.13795500  1
  O  O3  1  0.45722500  0.91938900  0.86204500  1
  O  O4  1  0.95722500  0.41938800  0.63795500  1
  O  O5  1  0.45722500  0.58061100  0.36204500  1
  O  O6  1  0.04277500  0.91938900  0.86204500  1
  O  O7  1  0.54277400  0.08061100  0.13795500  1
  O  O8  1  0.25000100  0.31427900  0.49385000  1
  O  O9  1  0.75000000  0.68572200  0.50615000  1
  O  O10  1  0.75000000  0.81427800  0.00614900  1
  O  O11  1  0.25000100  0.18572200  0.99385000  1
  O  O12  1  0.75000000  0.13573500  0.95633100  1
  O  O13  1  0.25000100  0.86426500  0.04366800  1
  O  O14  1  0.25000100  0.63573500  0.54366800  1
  O  O15  1  0.75000000  0.36426600  0.45633200  1
  O  O16  1  0.75000000  0.21872300  0.75512200  1
  O  O17  1  0.25000100  0.78127700  0.24487900  1
  O  O18  1  0.25000100  0.71872300  0.74487800  1
  O  O19  1  0.75000000  0.28127800  0.25512100  1
  O  O20  1  0.43798400  0.13589700  0.36225600  1
  O  O21  1  0.93798400  0.86410300  0.63774400  1
  O  O22  1  0.56201600  0.63589600  0.13774400  1
  O  O23  1  0.06201600  0.36410300  0.86225600  1
  O  O24  1  0.56201600  0.86410300  0.63774400  1
  O  O25  1  0.06201600  0.13589700  0.36225600  1
  O  O26  1  0.43798400  0.36410300  0.86225600  1
  O  O27  1  0.93798400  0.63589600  0.13774400  1
  O  O28  1  0.75000000  0.46914600  0.00238300  1
  O  O29  1  0.25000100  0.03787700  0.71728500  1
  O  O30  1  0.25000100  0.46212200  0.21728500  1
  O  O31  1  0.75000000  0.53787700  0.78271500  1
  O  O32  1  0.75000000  0.03085400  0.50238300  1
  O  O33  1  0.25000100  0.96914600  0.49761700  1
  O  O34  1  0.25000100  0.53085300  0.99761600  1
  O  O35  1  0.75000000  0.96212300  0.28271500  1
loop_
_geom_bond_atom_site_label_1
_geom_bond_atom_site_label_2
_geom_bond_distance
_geom_bond_site_symmetry_2
Li0 O16 2.101844 1_565
Li0 O6 2.175795 1_655
Li0 O3 2.175795 1_555
Li0 O24 2.339208 1_555
Li0 O21 2.339208 1_555
Li1 O19 2.101839 1_555
Li1 O0 2.175795 1_655
Li1 O5 2.175795 1_555
Li1 O27 2.339207 1_555
Li1 O22 2.339207 1_555
Li2 O18 2.101852 1_555
Li2 O1 2.175784 1_555
Li2 O4 2.175800 1_455
Li2 O26 2.339203 1_555
Li2 O23 2.339210 1_555
Li3 O17 2.101847 1_545
Li3 O7 2.175784 1_555
Li3 O2 2.175800 1_455
Li3 O20 2.339205 1_555
Li3 O25 2.339212 1_555
Ni0 O12 1.900529 1_555
Ni0 O28 1.921388 1_556
Ni0 O31 1.951413 1_555
Ni0 O26 1.971372 1_555
Ni0 O23 1.971372 1_655
Ni0 O16 1.977691 1_555
Ni1 O13 1.900537 1_555
Ni1 O34 1.921404 1_554
Ni1 O30 1.951419 1_555
Ni1 O22 1.971366 1_555
Ni1 O27 1.971379 1_455
Ni1 O17 1.977703 1_555
Ni2 O14 1.900537 1_555
Ni2 O33 1.921388 1_555
Ni2 O29 1.951413 1_565
Ni2 O24 1.971366 1_555
Ni2 O21 1.971378 1_455
Ni2 O18 1.977691 1_555
Ni3 O15 1.900543 1_555
Ni3 O32 1.921388 1_555
Ni3 O35 1.951413 1_545
Ni3 O20 1.971372 1_555
Ni3 O25 1.971372 1_655
Ni3 O19 1.977707 1_555
Ni4 O13 1.957652 1_545
Ni4 O12 1.957661 1_554
Ni4 O7 2.020713 1_555
Ni4 O3 2.020714 1_544
Ni4 O11 2.088679 1_554
Ni4 O10 2.088683 1_545
Ni5 O14 1.957652 1_555
Ni5 O15 1.957653 1_555
Ni5 O5 2.020714 1_555
Ni5 O1 2.020715 1_555
Ni5 O8 2.088674 1_555
Ni5 O9 2.088684 1_555
Ni6 O15 1.957653 1_455
Ni6 O14 1.957662 1_555
Ni6 O0 2.020714 1_555
Ni6 O4 2.020716 1_455
Ni6 O8 2.088684 1_555
Ni6 O9 2.088684 1_455
Ni7 O12 1.957661 1_454
Ni7 O13 1.957662 1_545
Ni7 O2 2.020714 1_455
Ni7 O6 2.020714 1_544
Ni7 O10 2.088683 1_445
Ni7 O11 2.088689 1_554
O0 P7 1.535034 1_555
O1 P4 1.535034 1_555
O2 P5 1.535029 1_555
O3 P6 1.535024 1_555
O4 P4 1.535028 1_555
O5 P7 1.535023 1_555
O6 P6 1.535034 1_555
O7 P5 1.535034 1_555
O8 P3 1.546999 1_555
O9 P2 1.546999 1_555
O10 P1 1.547013 1_555
O11 P0 1.546999 1_555
O16 P4 1.570171 1_555
O17 P7 1.570170 1_555
O18 P6 1.570171 1_555
O19 P5 1.570170 1_555
O20 P3 1.549361 1_555
O21 P2 1.549366 1_555
O22 P1 1.549357 1_555
O23 P0 1.549371 1_555
O24 P2 1.549366 1_555
O25 P3 1.549371 1_555
O26 P0 1.549361 1_555
O27 P1 1.549357 1_555
O28 P1 1.522640 1_555
O29 P6 1.581043 1_545
O30 P7 1.581043 1_555
O31 P4 1.581043 1_555
O32 P2 1.522632 1_545
O33 P3 1.522638 1_565
O34 P0 1.522618 1_555
O35 P5 1.581043 1_565
