# generated using pymatgen
data_Si4Pb2O11
_symmetry_space_group_name_H-M   'P 1'
_cell_length_a   8.69005700
_cell_length_b   9.79876000
_cell_length_c   13.21157200
_cell_angle_alpha   90.00000000
_cell_angle_beta   90.00000000
_cell_angle_gamma   90.00000000
_symmetry_Int_Tables_number   1
_chemical_formula_structural   Si4Pb2O11
_chemical_formula_sum   'Si16 Pb8 O44'
_cell_volume   1124.98891110
_cell_formula_units_Z   4
loop_
 _symmetry_equiv_pos_site_id
 _symmetry_equiv_pos_as_xyz
  1  'x, y, z'
loop_
 _atom_site_type_symbol
 _atom_site_label
 _atom_site_symmetry_multiplicity
 _atom_site_fract_x
 _atom_site_fract_y
 _atom_site_fract_z
 _atom_site_occupancy
  Si  Si0  1  0.18507100  0.93511900  0.73039400  1
  Si  Si1  1  0.68657400  0.06494200  0.77264900  1
  Si  Si2  1  0.81492900  0.06488100  0.23039400  1
  Si  Si3  1  0.31342600  0.93505800  0.27264900  1
  Si  Si4  1  0.81342600  0.56494200  0.27264900  1
  Si  Si5  1  0.31492900  0.43511900  0.23039400  1
  Si  Si6  1  0.18657400  0.43505800  0.77264900  1
  Si  Si7  1  0.68507100  0.56488100  0.73039400  1
  Si  Si8  1  0.86348600  0.82273200  0.69843200  1
  Si  Si9  1  0.36418100  0.17837400  0.80395000  1
  Si  Si10  1  0.13651400  0.17726800  0.19843200  1
  Si  Si11  1  0.63581900  0.82162600  0.30395000  1
  Si  Si12  1  0.13581900  0.67837400  0.30395000  1
  Si  Si13  1  0.63651400  0.32273200  0.19843200  1
  Si  Si14  1  0.86418100  0.32162600  0.80395000  1
  Si  Si15  1  0.36348600  0.67726800  0.69843200  1
  Pb  Pb0  1  0.03917700  0.94746900  0.47429600  1
  Pb  Pb1  1  0.53658600  0.05490000  0.03058500  1
  Pb  Pb2  1  0.96082300  0.05253100  0.97429600  1
  Pb  Pb3  1  0.46341400  0.94510000  0.53058500  1
  Pb  Pb4  1  0.96341400  0.55490000  0.53058500  1
  Pb  Pb5  1  0.46082300  0.44746900  0.97429600  1
  Pb  Pb6  1  0.03658600  0.44510000  0.03058500  1
  Pb  Pb7  1  0.53917700  0.55253100  0.47429600  1
  O  O0  1  0.72291700  0.93558300  0.69693900  1
  O  O1  1  0.22443100  0.06370600  0.80654700  1
  O  O2  1  0.27708300  0.06441700  0.19693900  1
  O  O3  1  0.77556900  0.93629400  0.30654700  1
  O  O4  1  0.27556900  0.56370600  0.30654700  1
  O  O5  1  0.77708300  0.43558300  0.19693900  1
  O  O6  1  0.72443100  0.43629400  0.80654700  1
  O  O7  1  0.22291700  0.56441700  0.69693900  1
  O  O8  1  0.80477100  0.68802900  0.76091500  1
  O  O9  1  0.30447800  0.31132400  0.74065300  1
  O  O10  1  0.19522900  0.31197100  0.26091500  1
  O  O11  1  0.69552200  0.68867600  0.24065300  1
  O  O12  1  0.19552200  0.81132400  0.24065300  1
  O  O13  1  0.69522900  0.18802900  0.26091500  1
  O  O14  1  0.80447800  0.18867600  0.74065300  1
  O  O15  1  0.30477100  0.81197100  0.76091500  1
  O  O16  1  0.00794100  0.89242800  0.76099300  1
  O  O17  1  0.50905300  0.10769300  0.74312100  1
  O  O18  1  0.99205900  0.10757200  0.26099300  1
  O  O19  1  0.49094700  0.89230700  0.24312100  1
  O  O20  1  0.99094700  0.60769300  0.24312100  1
  O  O21  1  0.49205900  0.39242800  0.26099300  1
  O  O22  1  0.00905300  0.39230700  0.74312100  1
  O  O23  1  0.50794100  0.60757200  0.76099300  1
  O  O24  1  0.91367300  0.78277800  0.58419900  1
  O  O25  1  0.41527000  0.21972100  0.91776500  1
  O  O26  1  0.08632700  0.21722200  0.08419900  1
  O  O27  1  0.58473000  0.78027900  0.41776500  1
  O  O28  1  0.08473000  0.71972100  0.41776500  1
  O  O29  1  0.58632700  0.28277800  0.08419900  1
  O  O30  1  0.91527000  0.28027900  0.91776500  1
  O  O31  1  0.41367300  0.71722200  0.58419900  1
  O  O32  1  0.20527500  0.97145600  0.61095800  1
  O  O33  1  0.70875400  0.02751400  0.89189200  1
  O  O34  1  0.79472500  0.02854400  0.11095800  1
  O  O35  1  0.29124600  0.97248600  0.39189200  1
  O  O36  1  0.79124600  0.52751400  0.39189200  1
  O  O37  1  0.29472500  0.47145600  0.11095800  1
  O  O38  1  0.20875400  0.47248600  0.89189200  1
  O  O39  1  0.70527500  0.52854400  0.61095800  1
  O  O40  1  0.90546600  0.14928800  0.51471100  1
  O  O41  1  0.09453400  0.85071200  0.01471100  1
  O  O42  1  0.59453400  0.64928800  0.01471100  1
  O  O43  1  0.40546600  0.35071200  0.51471100  1
loop_
_geom_bond_atom_site_label_1
_geom_bond_atom_site_label_2
_geom_bond_distance
_geom_bond_site_symmetry_2
O0 Si1 1.645279 1_565
O0 Si8 1.647839 1_555
O1 Si0 1.648276 1_545
O1 Si9 1.654847 1_555
O2 Si3 1.645279 1_545
O2 Si10 1.647839 1_555
O3 Si2 1.648276 1_565
O3 Si11 1.654847 1_555
O4 Si5 1.648276 1_555
O4 Si12 1.654847 1_555
O5 Si4 1.645279 1_555
O5 Si13 1.647839 1_555
O6 Si7 1.648276 1_555
O6 Si14 1.654847 1_555
O7 Si6 1.645279 1_555
O7 Si15 1.647839 1_555
O8 Si8 1.638287 1_555
O8 Si7 1.643390 1_555
O9 Si9 1.632679 1_555
O9 Si6 1.642708 1_555
O10 Si10 1.638287 1_555
O10 Si5 1.643390 1_555
O11 Si11 1.632679 1_555
O11 Si4 1.642708 1_555
O12 Si12 1.632679 1_555
O12 Si3 1.642708 1_555
O13 Si13 1.638287 1_555
O13 Si2 1.643390 1_555
O14 Si14 1.632679 1_555
O14 Si1 1.642708 1_555
O15 Si15 1.638287 1_555
O15 Si0 1.643390 1_555
O16 Si0 1.645530 1_555
O16 Si8 1.650874 1_455
O17 Si1 1.645446 1_555
O17 Si9 1.646350 1_555
O18 Si2 1.645530 1_555
O18 Si10 1.650874 1_655
O19 Si3 1.645446 1_555
O19 Si11 1.646350 1_555
O20 Si4 1.645446 1_555
O20 Si12 1.646350 1_655
O21 Si5 1.645530 1_555
O21 Si13 1.650874 1_555
O22 Si6 1.645446 1_555
O22 Si14 1.646350 1_455
O23 Si7 1.645530 1_555
O23 Si15 1.650874 1_555
O24 Si8 1.618999 1_555
O24 Pb4 2.382122 1_555
O24 Pb0 2.429406 1_655
O25 Si9 1.619349 1_555
O25 Pb5 2.386370 1_555
O25 Pb1 2.437512 1_556
O26 Si10 1.618999 1_555
O26 Pb6 2.382122 1_555
O26 Pb2 2.429406 1_454
O27 Si11 1.619349 1_555
O27 Pb7 2.386370 1_555
O27 Pb3 2.437512 1_555
O28 Si12 1.619349 1_555
O28 Pb0 2.386370 1_555
O28 Pb4 2.437512 1_455
O29 Si13 1.618999 1_555
O29 Pb1 2.382122 1_555
O29 Pb5 2.429406 1_554
O30 Si14 1.619349 1_555
O30 Pb2 2.386370 1_555
O30 Pb6 2.437512 1_656
O31 Si15 1.618999 1_555
O31 Pb3 2.382122 1_555
O31 Pb7 2.429406 1_555
O32 Si0 1.627111 1_555
O32 Pb0 2.323479 1_555
O32 Pb3 2.495269 1_555
O33 Si1 1.628957 1_555
O33 Pb1 2.380754 1_556
O33 Pb2 2.458372 1_555
O34 Si2 1.627111 1_555
O34 Pb2 2.323479 1_554
O34 Pb1 2.495269 1_555
O35 Si3 1.628957 1_555
O35 Pb3 2.380754 1_555
O35 Pb0 2.458372 1_555
O36 Si4 1.628957 1_555
O36 Pb4 2.380754 1_555
O36 Pb7 2.458372 1_555
O37 Si5 1.627111 1_555
O37 Pb5 2.323479 1_554
O37 Pb6 2.495269 1_555
O38 Si6 1.628957 1_555
O38 Pb6 2.380754 1_556
O38 Pb5 2.458372 1_555
O39 Si7 1.627111 1_555
O39 Pb7 2.323479 1_555
O39 Pb4 2.495269 1_555
O40 Pb0 2.355005 1_645
O41 Pb2 2.355005 1_464
O42 Pb5 2.355005 1_554
O43 Pb7 2.355005 1_555
