# generated using pymatgen
data_Li9Mn2Co5O16
_symmetry_space_group_name_H-M   'P 1'
_cell_length_a   5.07351200
_cell_length_b   5.92991568
_cell_length_c   10.17068372
_cell_angle_alpha   89.74401463
_cell_angle_beta   100.37095061
_cell_angle_gamma   105.89960752
_symmetry_Int_Tables_number   1
_chemical_formula_structural   Li9Mn2Co5O16
_chemical_formula_sum   'Li9 Mn2 Co5 O16'
_cell_volume   289.15064586
_cell_formula_units_Z   1
loop_
 _symmetry_equiv_pos_site_id
 _symmetry_equiv_pos_as_xyz
  1  'x, y, z'
loop_
 _atom_site_type_symbol
 _atom_site_label
 _atom_site_symmetry_multiplicity
 _atom_site_fract_x
 _atom_site_fract_y
 _atom_site_fract_z
 _atom_site_occupancy
  Li  Li0  1  0.49476400  0.36800500  0.12755900  1
  Li  Li1  1  0.99083700  0.24858200  0.24502500  1
  Li  Li2  1  0.00744800  0.50693400  0.00241700  1
  Li  Li3  1  0.50449800  0.12375100  0.36483300  1
  Li  Li4  1  0.00245400  0.99816500  0.49912300  1
  Li  Li5  1  0.49971800  0.87168800  0.62790800  1
  Li  Li6  1  0.99843000  0.74840900  0.75193300  1
  Li  Li7  1  0.49876100  0.63077800  0.88124500  1
  Li  Li8  1  0.49998900  0.87366600  0.12388500  1
  Mn  Mn0  1  0.99917100  0.99538900  0.00115500  1
  Mn  Mn1  1  0.00229100  0.50106000  0.49970000  1
  Co  Co0  1  0.99567800  0.76181800  0.24717200  1
  Co  Co1  1  0.49684300  0.63120000  0.36641000  1
  Co  Co2  1  0.50220700  0.37475800  0.62572900  1
  Co  Co3  1  0.99998800  0.24775100  0.75088400  1
  Co  Co4  1  0.49777200  0.11738700  0.88288500  1
  O  O0  1  0.22652400  0.05489100  0.17658500  1
  O  O1  1  0.76136400  0.92092200  0.31214100  1
  O  O2  1  0.75307000  0.17825600  0.04657300  1
  O  O3  1  0.24259500  0.78913500  0.44249600  1
  O  O4  1  0.75581100  0.66763600  0.55303700  1
  O  O5  1  0.23462500  0.55014500  0.67862400  1
  O  O6  1  0.74085700  0.42080500  0.79914600  1
  O  O7  1  0.23212100  0.29010400  0.93806500  1
  O  O8  1  0.77548700  0.70984300  0.05971600  1
  O  O9  1  0.25357200  0.57223400  0.20353500  1
  O  O10  1  0.23474100  0.83026600  0.93843000  1
  O  O11  1  0.76757300  0.44808900  0.32318100  1
  O  O12  1  0.25098800  0.32888300  0.45201700  1
  O  O13  1  0.76600900  0.21125000  0.56109000  1
  O  O14  1  0.25454500  0.08062100  0.69801900  1
  O  O15  1  0.75926900  0.94757600  0.81948300  1
loop_
_geom_bond_atom_site_label_1
_geom_bond_atom_site_label_2
_geom_bond_distance
_geom_bond_site_symmetry_2
Li0 O0 2.097564 1_555
Li0 O7 2.109380 1_554
Li0 O9 2.173012 1_555
Li0 O11 2.180967 1_555
Li0 O2 2.206092 1_555
Li0 O8 2.317999 1_555
Li1 O0 2.071935 1_655
Li1 O11 2.093182 1_555
Li1 O9 2.105218 1_655
Li1 O2 2.135010 1_555
Li1 O1 2.152093 1_545
Li1 O12 2.250571 1_655
Li2 O8 2.049739 1_455
Li2 O7 2.111896 1_554
Li2 O10 2.115922 1_554
Li2 O2 2.118654 1_455
Li2 O9 2.171599 1_555
Li2 O6 2.233514 1_454
Li3 O11 2.109452 1_555
Li3 O0 2.130895 1_555
Li3 O1 2.132657 1_545
Li3 O13 2.166196 1_555
Li3 O12 2.279845 1_555
Li3 O3 2.290425 1_545
Li4 O1 2.045936 1_455
Li4 O3 2.106892 1_555
Li4 O12 2.125971 1_565
Li4 O13 2.131367 1_465
Li4 O4 2.145182 1_455
Li4 O14 2.168344 1_565
Li5 O3 2.066439 1_555
Li5 O15 2.119524 1_555
Li5 O5 2.132245 1_555
Li5 O14 2.182288 1_565
Li5 O4 2.226656 1_555
Li5 O13 2.273636 1_565
Li6 O10 2.035065 1_655
Li6 O15 2.105173 1_555
Li6 O5 2.115570 1_655
Li6 O6 2.130468 1_555
Li6 O4 2.150782 1_555
Li6 O14 2.171252 1_665
Li7 O8 2.053097 1_556
Li7 O15 2.144414 1_555
Li7 O10 2.164892 1_555
Li7 O5 2.221435 1_555
Li7 O6 2.229959 1_555
Li7 O7 2.240267 1_555
Li8 O10 2.082231 1_554
Li8 O1 2.095260 1_555
Li8 O8 2.097958 1_555
Li8 O0 2.111146 1_565
Li8 O9 2.131102 1_555
Li8 O2 2.146961 1_565
Mn0 O0 1.918376 1_665
Mn0 O8 1.921272 1_555
Mn0 O10 1.927556 1_654
Mn0 O2 1.975410 1_565
Mn0 O15 1.995449 1_554
Mn0 O7 1.998532 1_664
Mn1 O4 1.938972 1_455
Mn1 O11 1.941723 1_455
Mn1 O12 1.949427 1_555
Mn1 O5 1.957091 1_555
Mn1 O3 1.961748 1_555
Mn1 O13 1.977740 1_455
Co0 O1 1.908645 1_555
Co0 O8 2.006914 1_555
Co0 O0 2.020833 1_665
Co0 O9 2.047512 1_655
Co0 O11 2.127818 1_555
Co0 O3 2.130201 1_655
Co1 O9 1.849960 1_555
Co1 O1 2.013033 1_555
Co1 O3 2.041482 1_555
Co1 O11 2.073127 1_555
Co1 O4 2.079916 1_555
Co1 O12 2.163254 1_555
Co2 O6 1.925028 1_555
Co2 O12 1.955390 1_555
Co2 O13 2.048692 1_555
Co2 O5 2.062926 1_555
Co2 O14 2.069306 1_555
Co2 O4 2.079675 1_555
Co3 O14 1.973663 1_655
Co3 O6 1.999629 1_555
Co3 O7 2.027160 1_655
Co3 O13 2.054303 1_555
Co3 O15 2.061885 1_545
Co3 O5 2.075176 1_655
Co4 O2 1.884789 1_556
Co4 O10 2.004198 1_545
Co4 O14 2.031357 1_555
Co4 O7 2.052867 1_555
Co4 O15 2.058094 1_545
Co4 O6 2.152287 1_555
