# generated using pymatgen
data_ZnCdSb2
_symmetry_space_group_name_H-M   'P 1'
_cell_length_a   6.48096400
_cell_length_b   8.10145300
_cell_length_c   8.52293400
_cell_angle_alpha   90.00000000
_cell_angle_beta   90.00000000
_cell_angle_gamma   90.00000000
_symmetry_Int_Tables_number   1
_chemical_formula_structural   ZnCdSb2
_chemical_formula_sum   'Zn4 Cd4 Sb8'
_cell_volume   447.49856938
_cell_formula_units_Z   4
loop_
 _symmetry_equiv_pos_site_id
 _symmetry_equiv_pos_as_xyz
  1  'x, y, z'
loop_
 _atom_site_type_symbol
 _atom_site_label
 _atom_site_symmetry_multiplicity
 _atom_site_fract_x
 _atom_site_fract_y
 _atom_site_fract_z
 _atom_site_occupancy
  Zn  Zn0  1  0.94835200  0.38645800  0.13358100  1
  Zn  Zn1  1  0.44835200  0.11354200  0.86641900  1
  Zn  Zn2  1  0.05164800  0.88645800  0.36641900  1
  Zn  Zn3  1  0.55164800  0.61354200  0.63358100  1
  Cd  Cd0  1  0.04107100  0.61890100  0.86915900  1
  Cd  Cd1  1  0.54107100  0.88109900  0.13084100  1
  Cd  Cd2  1  0.95892900  0.11890100  0.63084100  1
  Cd  Cd3  1  0.45892900  0.38109900  0.36915900  1
  Sb  Sb0  1  0.64492600  0.07007800  0.39775700  1
  Sb  Sb1  1  0.14492600  0.42992200  0.60224300  1
  Sb  Sb2  1  0.35507400  0.57007800  0.10224300  1
  Sb  Sb3  1  0.85507400  0.92992200  0.89775700  1
  Sb  Sb4  1  0.36497400  0.91348900  0.60973200  1
  Sb  Sb5  1  0.86497400  0.58651100  0.39026800  1
  Sb  Sb6  1  0.63502600  0.41348900  0.89026800  1
  Sb  Sb7  1  0.13502600  0.08651100  0.10973200  1
loop_
_geom_bond_atom_site_label_1
_geom_bond_atom_site_label_2
_geom_bond_distance
_geom_bond_site_symmetry_2
Cd0 Sb3 2.803835 1_455
Cd0 Sb1 2.823511 1_555
Cd0 Sb2 2.871283 1_556
Cd0 Zn0 2.997699 1_456
Cd0 Sb6 3.118788 1_455
Cd1 Sb2 2.803835 1_555
Cd1 Sb0 2.823511 1_565
Cd1 Sb3 2.871283 1_554
Cd1 Zn1 2.997699 1_564
Cd1 Sb7 3.118788 1_565
Cd2 Sb1 2.803835 1_655
Cd2 Sb3 2.823511 1_545
Cd2 Sb0 2.871283 1_555
Cd2 Zn2 2.997699 1_645
Cd2 Sb4 3.118788 1_645
Cd3 Sb0 2.803835 1_555
Cd3 Sb2 2.823511 1_555
Cd3 Sb1 2.871283 1_555
Cd3 Zn3 2.997699 1_555
Cd3 Sb5 3.118788 1_555
Sb0 Sb4 2.857485 1_545
Sb0 Zn2 3.038502 1_645
Sb1 Sb5 2.857485 1_455
Sb1 Zn3 3.038502 1_555
Sb2 Sb6 2.857485 1_554
Sb2 Zn0 3.038502 1_455
Sb3 Sb7 2.857485 1_666
Sb3 Zn1 3.038502 1_565
Sb4 Zn3 2.722119 1_555
Sb4 Zn1 2.775766 1_565
Sb4 Zn2 2.910655 1_555
Sb5 Zn2 2.722119 1_655
Sb5 Zn0 2.775766 1_555
Sb5 Zn3 2.910655 1_555
Sb6 Zn1 2.722119 1_555
Sb6 Zn3 2.775766 1_555
Sb6 Zn0 2.910655 1_556
Sb7 Zn0 2.722119 1_455
Sb7 Zn2 2.775766 1_545
Sb7 Zn1 2.910655 1_554
