# generated using pymatgen
data_Li4MgNi3O8
_symmetry_space_group_name_H-M   'P 1'
_cell_length_a   5.80568690
_cell_length_b   5.86895736
_cell_length_c   8.13338073
_cell_angle_alpha   89.66098324
_cell_angle_beta   90.00115028
_cell_angle_gamma   90.00337046
_symmetry_Int_Tables_number   1
_chemical_formula_structural   Li4MgNi3O8
_chemical_formula_sum   'Li8 Mg2 Ni6 O16'
_cell_volume   277.12650458
_cell_formula_units_Z   2
loop_
 _symmetry_equiv_pos_site_id
 _symmetry_equiv_pos_as_xyz
  1  'x, y, z'
loop_
 _atom_site_type_symbol
 _atom_site_label
 _atom_site_symmetry_multiplicity
 _atom_site_fract_x
 _atom_site_fract_y
 _atom_site_fract_z
 _atom_site_occupancy
  Li  Li0  1  0.25000300  0.25001100  0.25001100  1
  Li  Li1  1  0.75000700  0.74995200  0.75002900  1
  Li  Li2  1  0.25001200  0.74998900  0.74999500  1
  Li  Li3  1  0.75000500  0.24998700  0.25004600  1
  Li  Li4  1  0.00024900  0.99989700  0.50004500  1
  Li  Li5  1  0.49976600  0.50009700  0.00000100  1
  Li  Li6  1  0.99977100  0.49995500  0.00006900  1
  Li  Li7  1  0.50022800  0.00002600  0.50000100  1
  Mg  Mg0  1  0.24999800  0.25003200  0.75001100  1
  Mg  Mg1  1  0.74997200  0.75003600  0.25000700  1
  Ni  Ni0  1  0.74984700  0.25013300  0.74996600  1
  Ni  Ni1  1  0.00035700  0.49981500  0.49991500  1
  Ni  Ni2  1  0.49963000  0.00018400  0.99999100  1
  Ni  Ni3  1  0.24998700  0.74999300  0.25009700  1
  Ni  Ni4  1  0.99967200  0.99978200  0.99997300  1
  Ni  Ni5  1  0.50033800  0.50013300  0.50004100  1
  O  O0  1  0.24946600  0.74085100  0.01569300  1
  O  O1  1  0.75051200  0.24077000  0.51571000  1
  O  O2  1  0.25052800  0.75917800  0.48428200  1
  O  O3  1  0.74953900  0.25919200  0.98431400  1
  O  O4  1  0.24938100  0.21338200  0.99878500  1
  O  O5  1  0.75062200  0.71332700  0.49879400  1
  O  O6  1  0.25060200  0.28659700  0.50119900  1
  O  O7  1  0.74937100  0.78666200  0.00118200  1
  O  O8  1  0.01586000  0.52006100  0.26076300  1
  O  O9  1  0.51565700  0.02023100  0.76080800  1
  O  O10  1  0.48416600  0.98001600  0.23917400  1
  O  O11  1  0.98438000  0.47974400  0.73915600  1
  O  O12  1  0.01566300  0.97977700  0.23916000  1
  O  O13  1  0.51590400  0.47992800  0.73922400  1
  O  O14  1  0.48433100  0.52026900  0.26079900  1
  O  O15  1  0.98417700  0.01999300  0.76075700  1
loop_
_geom_bond_atom_site_label_1
_geom_bond_atom_site_label_2
_geom_bond_distance
_geom_bond_site_symmetry_2
Li0 O6 2.055526 1_555
Li0 O4 2.055862 1_554
Li0 O10 2.090163 1_545
Li0 O8 2.090300 1_555
Li0 O12 2.091777 1_545
Li0 O14 2.091814 1_555
Li1 O7 2.055324 1_556
Li1 O5 2.055932 1_555
Li1 O13 2.089930 1_555
Li1 O15 2.090229 1_565
Li1 O11 2.091918 1_555
Li1 O9 2.092111 1_565
Li2 O0 2.161374 1_556
Li2 O2 2.161501 1_555
Li2 O15 2.214188 1_465
Li2 O11 2.214275 1_455
Li2 O9 2.214306 1_565
Li2 O13 2.214662 1_555
Li3 O1 2.161105 1_555
Li3 O3 2.161657 1_554
Li3 O10 2.213973 1_545
Li3 O12 2.214383 1_645
Li3 O8 2.214415 1_655
Li3 O14 2.214703 1_555
Li4 O1 2.029601 1_465
Li4 O2 2.031275 1_555
Li4 O15 2.126494 1_465
Li4 O12 2.127742 1_555
Li4 O5 2.220144 1_455
Li4 O6 2.223468 1_565
Li5 O3 2.029893 1_554
Li5 O0 2.031466 1_555
Li5 O14 2.127060 1_555
Li5 O13 2.127065 1_554
Li5 O7 2.220033 1_555
Li5 O4 2.223660 1_554
Li6 O0 2.029376 1_655
Li6 O3 2.031132 1_554
Li6 O8 2.126352 1_655
Li6 O11 2.127993 1_554
Li6 O4 2.220225 1_654
Li6 O7 2.223804 1_555
Li7 O2 2.029252 1_545
Li7 O1 2.031245 1_555
Li7 O9 2.127140 1_555
Li7 O10 2.127390 1_545
Li7 O6 2.220270 1_555
Li7 O5 2.223752 1_545
Mg0 O4 2.033512 1_555
Mg0 O6 2.033769 1_555
Mg0 O11 2.049938 1_455
Mg0 O9 2.050442 1_555
Mg0 O13 2.051767 1_555
Mg0 O15 2.051935 1_455
Mg1 O5 2.033652 1_555
Mg1 O7 2.033910 1_555
Mg1 O14 2.050114 1_555
Mg1 O12 2.050249 1_655
Mg1 O10 2.051786 1_555
Mg1 O8 2.052100 1_655
Ni0 O1 1.906414 1_555
Ni0 O3 1.907098 1_555
Ni0 O13 1.915733 1_555
Ni0 O9 1.917115 1_555
Ni0 O11 1.917317 1_555
Ni0 O15 1.918767 1_555
Ni1 O5 1.916394 1_455
Ni1 O6 1.917510 1_555
Ni1 O8 1.950118 1_555
Ni1 O11 1.950912 1_455
Ni1 O1 2.104600 1_455
Ni1 O2 2.107177 1_555
Ni2 O7 1.916459 1_546
Ni2 O4 1.917450 1_555
Ni2 O10 1.950334 1_546
Ni2 O9 1.950448 1_555
Ni2 O3 2.104645 1_555
Ni2 O0 2.107054 1_546
Ni3 O2 1.905800 1_555
Ni3 O0 1.907571 1_555
Ni3 O8 1.916920 1_555
Ni3 O14 1.917078 1_555
Ni3 O12 1.917323 1_555
Ni3 O10 1.917597 1_555
Ni4 O4 1.916506 1_665
Ni4 O7 1.917269 1_556
Ni4 O12 1.950454 1_656
Ni4 O15 1.950621 1_565
Ni4 O0 2.103998 1_656
Ni4 O3 2.107356 1_565
Ni5 O6 1.916379 1_555
Ni5 O5 1.917478 1_555
Ni5 O13 1.950370 1_555
Ni5 O14 1.950947 1_555
Ni5 O2 2.104563 1_555
Ni5 O1 2.107325 1_555
