# generated using pymatgen
data_Sm3NiGe2
_symmetry_space_group_name_H-M   'P 1'
_cell_length_a   4.21889532
_cell_length_b   11.57424456
_cell_length_c   11.62760108
_cell_angle_alpha   89.99893882
_cell_angle_beta   89.99999518
_cell_angle_gamma   90.00000166
_symmetry_Int_Tables_number   1
_chemical_formula_structural   Sm3NiGe2
_chemical_formula_sum   'Sm12 Ni4 Ge8'
_cell_volume   567.78187921
_cell_formula_units_Z   4
loop_
 _symmetry_equiv_pos_site_id
 _symmetry_equiv_pos_as_xyz
  1  'x, y, z'
loop_
 _atom_site_type_symbol
 _atom_site_label
 _atom_site_symmetry_multiplicity
 _atom_site_fract_x
 _atom_site_fract_y
 _atom_site_fract_z
 _atom_site_occupancy
  Sm  Sm0  1  0.24999978  0.37205005  0.06003267  1
  Sm  Sm1  1  0.74999991  0.62795471  0.93995178  1
  Sm  Sm2  1  0.74999988  0.87205588  0.43995653  1
  Sm  Sm3  1  0.25000016  0.12794835  0.56005572  1
  Sm  Sm4  1  0.25000044  0.69596894  0.21784875  1
  Sm  Sm5  1  0.74999991  0.30404114  0.78216327  1
  Sm  Sm6  1  0.74999990  0.19596687  0.28215616  1
  Sm  Sm7  1  0.24999986  0.80404843  0.71783221  1
  Sm  Sm8  1  0.24999994  0.44384637  0.38210684  1
  Sm  Sm9  1  0.75000010  0.55615128  0.61792037  1
  Sm  Sm10  1  0.75000002  0.94384269  0.11789526  1
  Sm  Sm11  1  0.24999982  0.05615774  0.88207929  1
  Ni  Ni0  1  0.24999970  0.13305006  0.12861792  1
  Ni  Ni1  1  0.75000018  0.86693533  0.87133214  1
  Ni  Ni2  1  0.75000057  0.63304925  0.37136855  1
  Ni  Ni3  1  0.25000020  0.36692868  0.62868281  1
  Ge  Ge0  1  0.25000040  0.68740989  0.47791344  1
  Ge  Ge1  1  0.74999991  0.31260437  0.52221852  1
  Ge  Ge2  1  0.74999970  0.18740729  0.02209784  1
  Ge  Ge3  1  0.24999980  0.81261130  0.97777267  1
  Ge  Ge4  1  0.24999991  0.00554610  0.30431551  1
  Ge  Ge5  1  0.74999999  0.99444204  0.69574679  1
  Ge  Ge6  1  0.75000005  0.50553408  0.19566127  1
  Ge  Ge7  1  0.24999988  0.49444718  0.80427369  1
loop_
_geom_bond_atom_site_label_1
_geom_bond_atom_site_label_2
_geom_bond_distance
_geom_bond_site_symmetry_2
Ni0 Sm6 2.857856 1_455
Ni0 Sm6 2.857857 1_555
Ni0 Sm0 2.878889 1_555
Ni0 Sm11 3.001640 1_554
Ni0 Sm10 3.043209 1_445
Ni0 Sm10 3.043211 1_545
Ni1 Sm7 2.857489 1_655
Ni1 Sm7 2.857491 1_555
Ni1 Sm1 2.878785 1_555
Ni1 Sm10 3.001963 1_556
Ni1 Sm11 3.043346 1_665
Ni1 Sm11 3.043348 1_565
Ni2 Sm4 2.857714 1_655
Ni2 Sm4 2.857715 1_555
Ni2 Sm2 2.879000 1_555
Ni2 Sm9 3.001774 1_555
Ni2 Sm8 3.043175 1_655
Ni2 Sm8 3.043179 1_555
Ni3 Sm5 2.857333 1_555
Ni3 Sm5 2.857334 1_455
Ni3 Sm3 2.878834 1_555
Ni3 Sm8 3.002110 1_555
Ni3 Sm9 3.043352 1_555
Ni3 Sm9 3.043353 1_455
Ge0 Ni2 2.525954 1_455
Ge0 Ni2 2.525955 1_555
Ge0 Sm4 3.025549 1_555
Ge0 Sm8 3.031210 1_555
Ge0 Sm2 3.035106 1_555
Ge0 Sm2 3.035110 1_455
Ge0 Sm9 3.067231 1_555
Ge0 Sm9 3.067232 1_455
Ge0 Sm7 3.099187 1_555
Ge1 Ni3 2.525389 1_555
Ge1 Ni3 2.525392 1_655
Ge1 Sm5 3.024157 1_555
Ge1 Sm9 3.030584 1_555
Ge1 Sm3 3.034987 1_555
Ge1 Sm3 3.034988 1_655
Ge1 Sm8 3.067783 1_655
Ge1 Sm8 3.067783 1_555
Ge1 Sm6 3.100685 1_555
Ge2 Ni0 2.525792 1_555
Ge2 Ni0 2.525792 1_655
Ge2 Sm6 3.025479 1_555
Ge2 Sm10 3.031144 1_545
Ge2 Sm0 3.035056 1_555
Ge2 Sm0 3.035056 1_655
Ge2 Sm11 3.067281 1_554
Ge2 Sm11 3.067281 1_654
Ge2 Sm5 3.099284 1_554
Ge3 Ni1 2.525242 1_455
Ge3 Ni1 2.525244 1_555
Ge3 Sm7 3.024110 1_555
Ge3 Sm11 3.030504 1_565
Ge3 Sm1 3.034976 1_455
Ge3 Sm1 3.034977 1_555
Ge3 Sm10 3.067819 1_456
Ge3 Sm10 3.067820 1_556
Ge3 Sm4 3.100808 1_556
Ge4 Ni0 2.520193 1_555
Ge4 Sm2 3.053580 1_445
Ge4 Sm2 3.053580 1_545
Ge4 Sm6 3.061642 1_555
Ge4 Sm6 3.061642 1_455
Ge4 Sm10 3.107803 1_445
Ge4 Sm10 3.107804 1_545
Ge4 Sm3 3.293903 1_555
Ge4 Sm4 3.721522 1_545
Ge5 Ni1 2.519154 1_555
Ge5 Sm3 3.053974 1_565
Ge5 Sm3 3.053975 1_665
Ge5 Sm7 3.061343 1_655
Ge5 Sm7 3.061343 1_555
Ge5 Sm11 3.107124 1_665
Ge5 Sm11 3.107125 1_565
Ge5 Sm2 3.294349 1_555
Ge5 Sm5 3.721609 1_565
Ge6 Ni2 2.520404 1_555
Ge6 Sm0 3.053498 1_655
Ge6 Sm0 3.053499 1_555
Ge6 Sm4 3.061792 1_555
Ge6 Sm4 3.061795 1_655
Ge6 Sm8 3.107949 1_655
Ge6 Sm8 3.107949 1_555
Ge6 Sm1 3.293625 1_554
Ge6 Sm6 3.721464 1_555
Ge7 Ni3 2.519330 1_555
Ge7 Sm1 3.053933 1_455
Ge7 Sm1 3.053934 1_555
Ge7 Sm5 3.061478 1_455
Ge7 Sm5 3.061478 1_555
Ge7 Sm9 3.107244 1_455
Ge7 Sm9 3.107245 1_555
Ge7 Sm0 3.294027 1_556
Ge7 Sm7 3.721675 1_555
