# generated using pymatgen
data_BaLiV2Ni3(HO5)2
_symmetry_space_group_name_H-M   'P 1'
_cell_length_a   6.01806985
_cell_length_b   6.01188221
_cell_length_c   7.83789422
_cell_angle_alpha   70.57617986
_cell_angle_beta   67.56796079
_cell_angle_gamma   59.92452137
_symmetry_Int_Tables_number   1
_chemical_formula_structural   BaLiV2Ni3(HO5)2
_chemical_formula_sum   'Ba1 Li1 V2 Ni3 H2 O10'
_cell_volume   223.25887481
_cell_formula_units_Z   1
loop_
 _symmetry_equiv_pos_site_id
 _symmetry_equiv_pos_as_xyz
  1  'x, y, z'
loop_
 _atom_site_type_symbol
 _atom_site_label
 _atom_site_symmetry_multiplicity
 _atom_site_fract_x
 _atom_site_fract_y
 _atom_site_fract_z
 _atom_site_occupancy
  Ba  Ba0  1  0.95362600  0.61154700  0.48361500  1
  Li  Li0  1  0.13133500  0.05040000  0.68237200  1
  V  V0  1  0.58282800  0.08146900  0.75053400  1
  V  V1  1  0.41040800  0.93281100  0.24671600  1
  Ni  Ni0  1  0.99284300  0.00382200  0.00959800  1
  Ni  Ni1  1  0.99432000  0.49724200  0.99618000  1
  Ni  Ni2  1  0.51141700  0.49703300  0.99616900  1
  H  H0  1  0.29754100  0.67654000  0.72898900  1
  H  H1  1  0.73154700  0.25200900  0.28578000  1
  O  O0  1  0.21418400  0.21480600  0.81588500  1
  O  O1  1  0.75299200  0.21503900  0.81652400  1
  O  O2  1  0.76291500  0.79499600  0.17084600  1
  O  O3  1  0.27149100  0.79520000  0.17050900  1
  O  O4  1  0.72021800  0.72419100  0.83303500  1
  O  O5  1  0.27691700  0.27197900  0.17416800  1
  O  O6  1  0.33142700  0.84957800  0.48832400  1
  O  O7  1  0.68943000  0.12236300  0.50212800  1
  O  O8  1  0.22177200  0.69195300  0.86276000  1
  O  O9  1  0.77779100  0.30035600  0.14419800  1
loop_
_geom_bond_atom_site_label_1
_geom_bond_atom_site_label_2
_geom_bond_distance
_geom_bond_site_symmetry_2
Ba0 O7 2.684458 1_565
Ba0 O4 2.697495 1_555
Ba0 O2 2.761076 1_555
Ba0 O3 2.762775 1_655
Ba0 Li0 3.018507 1_655
Ba0 O5 3.089729 1_655
Ba0 O0 3.188527 1_655
Ba0 O1 3.208130 1_555
Ba0 O6 3.252501 1_655
Ba0 O6 3.260225 1_555
Li0 O6 1.894019 1_545
Li0 O1 1.968712 1_455
Li0 O0 1.975002 1_555
Ni0 O9 1.965318 1_555
Ni0 O8 2.091434 1_644
Ni0 O3 2.104693 1_645
Ni0 O2 2.106964 1_545
Ni0 O1 2.130233 1_554
Ni0 O0 2.134836 1_654
Ni1 O9 1.980874 1_556
Ni1 O8 2.009195 1_655
Ni1 O4 2.100319 1_555
Ni1 O0 2.132582 1_655
Ni1 O2 2.166626 1_556
Ni1 O5 2.217703 1_656
Ni2 O9 1.980213 1_556
Ni2 O8 2.008417 1_555
Ni2 O4 2.100300 1_555
Ni2 O1 2.127290 1_555
Ni2 O3 2.166676 1_556
Ni2 O5 2.219077 1_556
H0 O8 0.986522 1_555
H1 O9 1.012044 1_555
H1 O7 1.593147 1_555
O0 V0 1.857471 1_555
O1 V0 1.861641 1_555
O2 V1 1.773060 1_555
O3 V1 1.772873 1_555
O4 V0 1.849207 1_565
O5 V1 1.749871 1_545
O6 V1 1.727313 1_555
O7 V0 1.774602 1_555
