# generated using pymatgen
data_Ho2MgSe4
_symmetry_space_group_name_H-M   'P 1'
_cell_length_a   14.10169600
_cell_length_b   8.22351600
_cell_length_c   6.82290800
_cell_angle_alpha   90.00000000
_cell_angle_beta   90.00000000
_cell_angle_gamma   90.00000000
_symmetry_Int_Tables_number   1
_chemical_formula_structural   Ho2MgSe4
_chemical_formula_sum   'Ho8 Mg4 Se16'
_cell_volume   791.22209244
_cell_formula_units_Z   4
loop_
 _symmetry_equiv_pos_site_id
 _symmetry_equiv_pos_as_xyz
  1  'x, y, z'
loop_
 _atom_site_type_symbol
 _atom_site_label
 _atom_site_symmetry_multiplicity
 _atom_site_fract_x
 _atom_site_fract_y
 _atom_site_fract_z
 _atom_site_occupancy
  Ho  Ho0  1  0.00000000  0.00000000  0.50000000  1
  Ho  Ho1  1  0.50000000  0.00000000  0.00000000  1
  Ho  Ho2  1  0.50000000  0.50000000  0.00000000  1
  Ho  Ho3  1  0.00000000  0.50000000  0.50000000  1
  Ho  Ho4  1  0.23430200  0.75000000  0.00252600  1
  Ho  Ho5  1  0.76569800  0.25000000  0.99747400  1
  Ho  Ho6  1  0.26569800  0.25000000  0.50252600  1
  Ho  Ho7  1  0.73430200  0.75000000  0.49747400  1
  Mg  Mg0  1  0.09240600  0.25000000  0.92021800  1
  Mg  Mg1  1  0.90759400  0.75000000  0.07978200  1
  Mg  Mg2  1  0.40759400  0.75000000  0.42021800  1
  Mg  Mg3  1  0.59240600  0.25000000  0.57978200  1
  Se  Se0  1  0.16925900  0.00545400  0.74075000  1
  Se  Se1  1  0.83074100  0.99454600  0.25925000  1
  Se  Se2  1  0.33074100  0.99454600  0.24075000  1
  Se  Se3  1  0.66925900  0.00545400  0.75925000  1
  Se  Se4  1  0.66925900  0.49454600  0.75925000  1
  Se  Se5  1  0.33074100  0.50545400  0.24075000  1
  Se  Se6  1  0.83074100  0.50545400  0.25925000  1
  Se  Se7  1  0.16925900  0.49454600  0.74075000  1
  Se  Se8  1  0.07331200  0.75000000  0.25013700  1
  Se  Se9  1  0.92668800  0.25000000  0.74986300  1
  Se  Se10  1  0.42668800  0.25000000  0.75013700  1
  Se  Se11  1  0.57331200  0.75000000  0.24986300  1
  Se  Se12  1  0.09160800  0.25000000  0.29065600  1
  Se  Se13  1  0.90839200  0.75000000  0.70934400  1
  Se  Se14  1  0.40839200  0.75000000  0.79065600  1
  Se  Se15  1  0.59160800  0.25000000  0.20934400  1
loop_
_geom_bond_atom_site_label_1
_geom_bond_atom_site_label_2
_geom_bond_distance
_geom_bond_site_symmetry_2
Ho0 Se12 2.817020 1_555
Ho0 Se13 2.817020 1_445
Ho0 Se8 2.863869 1_545
Ho0 Se9 2.863869 1_455
Ho0 Se0 2.897792 1_555
Ho0 Se1 2.897792 1_445
Ho1 Se14 2.817020 1_544
Ho1 Se15 2.817020 1_555
Ho1 Se10 2.863869 1_554
Ho1 Se11 2.863869 1_545
Ho1 Se2 2.897792 1_545
Ho1 Se3 2.897792 1_554
Ho2 Se15 2.817020 1_555
Ho2 Se14 2.817020 1_554
Ho2 Se10 2.863869 1_554
Ho2 Se11 2.863869 1_555
Ho2 Se5 2.897792 1_555
Ho2 Se4 2.897792 1_554
Ho3 Se12 2.817020 1_555
Ho3 Se13 2.817020 1_455
Ho3 Se8 2.863869 1_555
Ho3 Se9 2.863869 1_455
Ho3 Se7 2.897792 1_555
Ho3 Se6 2.897792 1_455
Ho4 Se8 2.829862 1_555
Ho4 Se14 2.848951 1_554
Ho4 Se7 2.905927 1_554
Ho4 Se0 2.905927 1_564
Ho4 Se2 2.921570 1_555
Ho4 Se5 2.921570 1_555
Ho5 Se9 2.829862 1_555
Ho5 Se15 2.848951 1_556
Ho5 Se1 2.905927 1_546
Ho5 Se6 2.905927 1_556
Ho5 Se3 2.921570 1_555
Ho5 Se4 2.921570 1_555
Ho6 Se10 2.829862 1_555
Ho6 Se12 2.848951 1_555
Ho6 Se5 2.905927 1_555
Ho6 Se2 2.905927 1_545
Ho6 Se7 2.921570 1_555
Ho6 Se0 2.921570 1_555
Ho7 Se11 2.829862 1_555
Ho7 Se13 2.848951 1_555
Ho7 Se4 2.905927 1_555
Ho7 Se3 2.905927 1_565
Ho7 Se6 2.921570 1_555
Ho7 Se1 2.921570 1_555
Mg0 Se12 2.527489 1_556
Mg0 Se0 2.591939 1_555
Mg0 Se7 2.591939 1_555
Mg0 Se9 2.610001 1_455
Mg1 Se13 2.527489 1_554
Mg1 Se6 2.591939 1_555
Mg1 Se1 2.591939 1_555
Mg1 Se8 2.610001 1_655
Mg2 Se14 2.527489 1_555
Mg2 Se2 2.591939 1_555
Mg2 Se5 2.591939 1_555
Mg2 Se11 2.610001 1_555
Mg3 Se15 2.527489 1_555
Mg3 Se3 2.591939 1_555
Mg3 Se4 2.591939 1_555
Mg3 Se10 2.610001 1_555
