# generated using pymatgen
data_NaLa(GaS2)4
_symmetry_space_group_name_H-M   'P 1'
_cell_length_a   11.99484058
_cell_length_b   11.99484058
_cell_length_c   11.94628529
_cell_angle_alpha   105.23886315
_cell_angle_beta   105.23886315
_cell_angle_gamma   118.45319093
_symmetry_Int_Tables_number   1
_chemical_formula_structural   NaLa(GaS2)4
_chemical_formula_sum   'Na4 La4 Ga16 S32'
_cell_volume   1296.51538005
_cell_formula_units_Z   4
loop_
 _symmetry_equiv_pos_site_id
 _symmetry_equiv_pos_as_xyz
  1  'x, y, z'
loop_
 _atom_site_type_symbol
 _atom_site_label
 _atom_site_symmetry_multiplicity
 _atom_site_fract_x
 _atom_site_fract_y
 _atom_site_fract_z
 _atom_site_occupancy
  Na  Na0  1  0.12105058  0.37894942  0.25000000  1
  Na  Na1  1  0.62894942  0.87105058  0.25000000  1
  Na  Na2  1  0.87894942  0.62105058  0.75000000  1
  Na  Na3  1  0.37105058  0.12894942  0.75000000  1
  La  La0  1  0.87500000  0.62500000  0.25000000  1
  La  La1  1  0.12500000  0.37500000  0.75000000  1
  La  La2  1  0.37500000  0.12500000  0.25000000  1
  La  La3  1  0.62500000  0.87500000  0.75000000  1
  Ga  Ga0  1  0.38406006  0.38852041  0.52162199  1
  Ga  Ga1  1  0.11147959  0.11593994  0.97837801  1
  Ga  Ga2  1  0.63756193  0.13310158  0.52162199  1
  Ga  Ga3  1  0.36689842  0.86243807  0.97837801  1
  Ga  Ga4  1  0.61593994  0.61147959  0.47837801  1
  Ga  Ga5  1  0.88852041  0.88406006  0.02162199  1
  Ga  Ga6  1  0.36243807  0.86689842  0.47837801  1
  Ga  Ga7  1  0.63310158  0.13756193  0.02162199  1
  Ga  Ga8  1  0.47037345  0.46942006  0.10989047  1
  Ga  Ga9  1  0.03057994  0.02962655  0.39010953  1
  Ga  Ga10  1  0.13951702  0.64047041  0.10989047  1
  Ga  Ga11  1  0.85952959  0.36048298  0.39010953  1
  Ga  Ga12  1  0.52962655  0.53057994  0.89010953  1
  Ga  Ga13  1  0.96942006  0.97037345  0.60989047  1
  Ga  Ga14  1  0.86048298  0.35952959  0.89010953  1
  Ga  Ga15  1  0.14047041  0.63951702  0.60989047  1
  S  S0  1  0.15503912  0.66170056  0.31314834  1
  S  S1  1  0.83829944  0.34496088  0.18685166  1
  S  S2  1  0.65810922  0.65144778  0.31314834  1
  S  S3  1  0.84855222  0.84189078  0.18685166  1
  S  S4  1  0.84496088  0.33829944  0.68685166  1
  S  S5  1  0.16170056  0.65503912  0.81314834  1
  S  S6  1  0.34189078  0.34855222  0.68685166  1
  S  S7  1  0.15144778  0.15810922  0.81314834  1
  S  S8  1  0.18337007  0.18443965  0.33735181  1
  S  S9  1  0.31556035  0.31662993  0.16264819  1
  S  S10  1  0.65398173  0.15291216  0.33735181  1
  S  S11  1  0.34708784  0.84601827  0.16264819  1
  S  S12  1  0.81662993  0.81556035  0.66264819  1
  S  S13  1  0.68443965  0.68337007  0.83735181  1
  S  S14  1  0.34601827  0.84708784  0.66264819  1
  S  S15  1  0.65291216  0.15398173  0.83735181  1
  S  S16  1  0.41372710  0.08188796  0.00492851  1
  S  S17  1  0.41811204  0.08627290  0.49507149  1
  S  S18  1  0.09120140  0.92304054  0.00492851  1
  S  S19  1  0.57695946  0.40879860  0.49507149  1
  S  S20  1  0.58627290  0.91811204  0.99507149  1
  S  S21  1  0.58188796  0.91372710  0.50492851  1
  S  S22  1  0.90879860  0.07695946  0.99507149  1
  S  S23  1  0.42304054  0.59120140  0.50492851  1
  S  S24  1  0.08285191  0.41407195  0.50363924  1
  S  S25  1  0.08592805  0.41714809  0.99636076  1
  S  S26  1  0.92078733  0.08956728  0.50363924  1
  S  S27  1  0.41043272  0.57921267  0.99636076  1
  S  S28  1  0.91714809  0.58592805  0.49636076  1
  S  S29  1  0.91407195  0.58285191  0.00363924  1
  S  S30  1  0.07921267  0.91043272  0.49636076  1
  S  S31  1  0.58956728  0.42078733  0.00363924  1
loop_
_geom_bond_atom_site_label_1
_geom_bond_atom_site_label_2
_geom_bond_distance
_geom_bond_site_symmetry_2
Na0 S1 3.068182 1_455
Na0 S0 3.068182 1_555
Na0 S8 3.102067 1_555
Na0 S9 3.102067 1_555
Na0 S24 3.132301 1_555
Na0 S25 3.132301 1_554
Na0 S22 3.196092 1_454
Na0 S23 3.196092 1_555
Na1 S3 3.068182 1_555
Na1 S2 3.068182 1_555
Na1 S11 3.102067 1_555
Na1 S10 3.102067 1_565
Na1 S27 3.132301 1_554
Na1 S26 3.132301 1_565
Na1 S20 3.196092 1_554
Na1 S21 3.196092 1_555
Na2 S5 3.068182 1_655
Na2 S4 3.068182 1_555
Na2 S13 3.102067 1_555
Na2 S12 3.102067 1_555
Na2 S28 3.132301 1_555
Na2 S29 3.132301 1_556
Na2 S19 3.196092 1_555
Na2 S18 3.196092 1_656
Na3 S6 3.068182 1_555
Na3 S7 3.068182 1_555
Na3 S15 3.102067 1_555
Na3 S14 3.102067 1_545
Na3 S30 3.132301 1_545
Na3 S31 3.132301 1_556
Na3 S17 3.196092 1_555
Na3 S16 3.196092 1_556
La0 S3 3.021628 1_555
La0 S1 3.021628 1_555
La0 S2 3.021628 1_555
La0 S0 3.021628 1_655
La0 S28 3.050530 1_555
La0 S29 3.050530 1_555
La0 S30 3.050530 1_655
La0 S31 3.050530 1_555
La1 S4 3.021628 1_455
La1 S5 3.021628 1_555
La1 S6 3.021628 1_555
La1 S7 3.021628 1_555
La1 S24 3.050530 1_555
La1 S25 3.050530 1_555
La1 S26 3.050530 1_455
La1 S27 3.050530 1_555
La2 S17 3.033569 1_555
La2 S16 3.033569 1_555
La2 S19 3.033569 1_555
La2 S18 3.033569 1_545
La2 S11 3.051575 1_545
La2 S10 3.051575 1_555
La2 S8 3.051575 1_555
La2 S9 3.051575 1_555
La3 S20 3.033569 1_555
La3 S21 3.033569 1_555
La3 S22 3.033569 1_565
La3 S23 3.033569 1_555
La3 S15 3.051575 1_565
La3 S14 3.051575 1_555
La3 S13 3.051575 1_555
La3 S12 3.051575 1_555
Ga0 S6 2.274453 1_555
Ga0 S23 2.321529 1_555
Ga0 S8 2.323678 1_555
Ga0 S19 2.324543 1_555
Ga1 S7 2.274453 1_555
Ga1 S22 2.321529 1_455
Ga1 S9 2.323678 1_556
Ga1 S18 2.324543 1_546
Ga2 S4 2.274453 1_555
Ga2 S21 2.321529 1_545
Ga2 S10 2.323678 1_555
Ga2 S17 2.324543 1_555
Ga3 S5 2.274453 1_555
Ga3 S20 2.321529 1_555
Ga3 S11 2.323678 1_556
Ga3 S16 2.324543 1_566
Ga4 S2 2.274453 1_555
Ga4 S19 2.321529 1_555
Ga4 S12 2.323678 1_555
Ga4 S23 2.324543 1_555
Ga5 S3 2.274453 1_555
Ga5 S18 2.321529 1_655
Ga5 S13 2.323678 1_554
Ga5 S22 2.324543 1_564
Ga6 S0 2.274453 1_555
Ga6 S17 2.321529 1_565
Ga6 S14 2.323678 1_555
Ga6 S21 2.324543 1_555
Ga7 S1 2.274453 1_555
Ga7 S16 2.321529 1_555
Ga7 S15 2.323678 1_554
Ga7 S20 2.324543 1_544
Ga8 S9 2.276809 1_555
Ga8 S31 2.314079 1_555
Ga8 S2 2.321134 1_555
Ga8 S27 2.327935 1_554
Ga9 S8 2.276809 1_555
Ga9 S30 2.314079 1_545
Ga9 S3 2.321134 1_445
Ga9 S26 2.327935 1_455
Ga10 S11 2.276809 1_555
Ga10 S29 2.314079 1_455
Ga10 S0 2.321134 1_555
Ga10 S25 2.327936 1_554
Ga11 S10 2.276809 1_555
Ga11 S28 2.314079 1_555
Ga11 S1 2.321134 1_555
Ga11 S24 2.327936 1_655
Ga12 S13 2.276809 1_555
Ga12 S27 2.314079 1_555
Ga12 S6 2.321134 1_555
Ga12 S31 2.327935 1_556
Ga13 S12 2.276809 1_555
Ga13 S26 2.314079 1_565
Ga13 S7 2.321134 1_665
Ga13 S30 2.327935 1_655
Ga14 S15 2.276809 1_555
Ga14 S25 2.314079 1_655
Ga14 S4 2.321134 1_555
Ga14 S29 2.327936 1_556
Ga15 S14 2.276809 1_555
Ga15 S24 2.314079 1_555
Ga15 S5 2.321134 1_555
Ga15 S28 2.327936 1_455
