# generated using pymatgen
data_CeMg14Ga
_symmetry_space_group_name_H-M   'P 1'
_cell_length_a   6.50803506
_cell_length_b   6.33430095
_cell_length_c   10.30121009
_cell_angle_alpha   90.00000000
_cell_angle_beta   90.00000000
_cell_angle_gamma   119.12079146
_symmetry_Int_Tables_number   1
_chemical_formula_structural   CeMg14Ga
_chemical_formula_sum   'Ce1 Mg14 Ga1'
_cell_volume   370.97727065
_cell_formula_units_Z   1
loop_
 _symmetry_equiv_pos_site_id
 _symmetry_equiv_pos_as_xyz
  1  'x, y, z'
loop_
 _atom_site_type_symbol
 _atom_site_label
 _atom_site_symmetry_multiplicity
 _atom_site_fract_x
 _atom_site_fract_y
 _atom_site_fract_z
 _atom_site_occupancy
  Ce  Ce0  1  0.15026473  0.32513187  0.12500000  1
  Mg  Mg0  1  0.16512472  0.33256186  0.62500000  1
  Mg  Mg1  1  0.16053743  0.83026821  0.62500000  1
  Mg  Mg2  1  0.64670726  0.31519323  0.12500000  1
  Mg  Mg3  1  0.66580005  0.33703209  0.62500000  1
  Mg  Mg4  1  0.64670726  0.83151302  0.12500000  1
  Mg  Mg5  1  0.66580005  0.82876695  0.62500000  1
  Mg  Mg6  1  0.33744916  0.16659697  0.38013282  1
  Mg  Mg7  1  0.33744916  0.16659697  0.86986718  1
  Mg  Mg8  1  0.33744916  0.67085320  0.38013282  1
  Mg  Mg9  1  0.33744916  0.67085320  0.86986718  1
  Mg  Mg10  1  0.83144863  0.16572482  0.38450027  1
  Mg  Mg11  1  0.83144863  0.16572482  0.86549973  1
  Mg  Mg12  1  0.84599216  0.67299658  0.35841395  1
  Mg  Mg13  1  0.84599216  0.67299658  0.89158605  1
  Ga  Ga0  1  0.19438027  0.84718963  0.12500000  1
loop_
_geom_bond_atom_site_label_1
_geom_bond_atom_site_label_2
_geom_bond_distance
_geom_bond_site_symmetry_2
Ce0 Ga0 3.177066 1_555
Ce0 Ga0 3.177066 1_545
Ce0 Mg10 3.229755 1_455
Ce0 Mg11 3.229755 1_454
Ce0 Mg4 3.246998 1_445
Ce0 Mg2 3.246999 1_455
Ce0 Mg6 3.254295 1_555
Ce0 Mg7 3.254295 1_554
Ce0 Mg8 3.254301 1_555
Ce0 Mg9 3.254301 1_554
Ce0 Mg4 3.261966 1_555
Ce0 Mg2 3.261966 1_555
Mg0 Mg11 3.120354 1_455
Mg0 Mg10 3.120354 1_455
Mg0 Mg7 3.142147 1_555
Mg0 Mg6 3.142147 1_555
Mg0 Mg9 3.142153 1_555
Mg0 Mg8 3.142153 1_555
Mg0 Mg1 3.167258 1_555
Mg0 Mg1 3.167258 1_545
Mg0 Mg5 3.244727 1_555
Mg0 Mg3 3.244727 1_555
Mg0 Mg5 3.263496 1_445
Mg0 Mg3 3.263496 1_455
Mg1 Mg9 3.136795 1_555
Mg1 Mg8 3.136795 1_555
Mg1 Mg7 3.136801 1_565
Mg1 Mg6 3.136801 1_565
Mg1 Mg3 3.215151 1_455
Mg1 Mg5 3.215151 1_455
Mg1 Mg12 3.277110 1_455
Mg1 Mg13 3.277110 1_455
Mg1 Mg3 3.292905 1_565
Mg1 Mg5 3.292905 1_555
Mg2 Mg4 3.063776 1_545
Mg2 Mg7 3.162314 1_554
Mg2 Mg6 3.162314 1_555
Mg2 Mg4 3.270525 1_555
Mg3 Mg5 3.114797 1_555
Mg3 Mg6 3.138339 1_555
Mg3 Mg7 3.138339 1_555
Mg3 Mg5 3.219504 1_545
Mg4 Mg9 3.162314 1_554
Mg4 Mg8 3.162314 1_555
Mg5 Mg9 3.138339 1_555
Mg5 Mg8 3.138339 1_555
Mg6 Mg8 3.140190 1_545
Mg6 Mg8 3.194111 1_555
Mg7 Mg9 3.140190 1_545
Mg7 Mg9 3.194111 1_555
Mg10 Mg3 3.100956 1_555
Mg10 Mg5 3.100962 1_545
Mg10 Mg12 3.179605 1_555
Mg10 Mg12 3.179605 1_545
Mg10 Mg8 3.217972 1_545
Mg10 Mg6 3.217972 1_555
Mg10 Mg2 3.255099 1_555
Mg10 Mg4 3.255105 1_545
Mg10 Mg8 3.290692 1_655
Mg10 Mg6 3.290692 1_655
Mg11 Mg3 3.100956 1_555
Mg11 Mg5 3.100962 1_545
Mg11 Mg13 3.179605 1_555
Mg11 Mg13 3.179605 1_545
Mg11 Mg9 3.217972 1_545
Mg11 Mg7 3.217972 1_555
Mg11 Mg2 3.255099 1_556
Mg11 Mg4 3.255105 1_546
Mg11 Mg9 3.290692 1_655
Mg11 Mg7 3.290692 1_655
Mg12 Mg4 3.120760 1_555
Mg12 Mg2 3.120766 1_555
Mg12 Mg6 3.212848 1_665
Mg12 Mg8 3.212848 1_655
Mg12 Mg6 3.310598 1_555
Mg12 Mg8 3.310598 1_555
Mg12 Mg5 3.319094 1_555
Mg12 Mg3 3.319099 1_555
Mg13 Mg4 3.120760 1_556
Mg13 Mg2 3.120766 1_556
Mg13 Mg7 3.212848 1_665
Mg13 Mg9 3.212848 1_655
Mg13 Mg7 3.310598 1_555
Mg13 Mg9 3.310598 1_555
Mg13 Mg5 3.319094 1_555
Mg13 Mg3 3.319099 1_555
Ga0 Mg2 2.993342 1_565
Ga0 Mg4 2.993342 1_555
Ga0 Mg12 3.115225 1_455
Ga0 Mg13 3.115225 1_454
Ga0 Mg8 3.167667 1_555
Ga0 Mg9 3.167667 1_554
Ga0 Mg6 3.167674 1_565
Ga0 Mg7 3.167674 1_564
