# generated using pymatgen
data_P3Pb5O13
_symmetry_space_group_name_H-M   'P 1'
_cell_length_a   7.52934000
_cell_length_b   9.91535600
_cell_length_c   9.95760392
_cell_angle_alpha   60.26908138
_cell_angle_beta   90.00000000
_cell_angle_gamma   90.00000000
_symmetry_Int_Tables_number   1
_chemical_formula_structural   P3Pb5O13
_chemical_formula_sum   'P6 Pb10 O26'
_cell_volume   645.53811554
_cell_formula_units_Z   2
loop_
 _symmetry_equiv_pos_site_id
 _symmetry_equiv_pos_as_xyz
  1  'x, y, z'
loop_
 _atom_site_type_symbol
 _atom_site_label
 _atom_site_symmetry_multiplicity
 _atom_site_fract_x
 _atom_site_fract_y
 _atom_site_fract_z
 _atom_site_occupancy
  P  P0  1  0.24957800  0.40403500  0.62522600  1
  P  P1  1  0.25053400  0.97358000  0.40194500  1
  P  P2  1  0.25116400  0.62196900  0.97518200  1
  P  P3  1  0.74957800  0.59596500  0.37477400  1
  P  P4  1  0.75053400  0.02642000  0.59805500  1
  P  P5  1  0.75116400  0.37803100  0.02481800  1
  Pb  Pb0  1  0.28825500  0.23935200  0.98742700  1
  Pb  Pb1  1  0.27718200  0.77398600  0.23062500  1
  Pb  Pb2  1  0.28176000  0.99660800  0.76631100  1
  Pb  Pb3  1  0.78825500  0.76064800  0.01257300  1
  Pb  Pb4  1  0.77718200  0.22601400  0.76937500  1
  Pb  Pb5  1  0.78176000  0.00339200  0.23368900  1
  Pb  Pb6  1  0.50000300  0.33263000  0.33552100  1
  Pb  Pb7  1  0.00000300  0.66737000  0.66447900  1
  Pb  Pb8  1  0.50551000  0.66604300  0.66438400  1
  Pb  Pb9  1  0.00551000  0.33395700  0.33561600  1
  O  O0  1  0.25550600  0.32853500  0.52104900  1
  O  O1  1  0.25458300  0.15256600  0.33060100  1
  O  O2  1  0.25472600  0.51403900  0.15243800  1
  O  O3  1  0.75550600  0.67146500  0.47895100  1
  O  O4  1  0.75458300  0.84743400  0.66939900  1
  O  O5  1  0.75472600  0.48596100  0.84756200  1
  O  O6  1  0.24480100  0.58476000  0.52763900  1
  O  O7  1  0.25077400  0.88904100  0.58290400  1
  O  O8  1  0.25121200  0.52537600  0.88885200  1
  O  O9  1  0.74480100  0.41524000  0.47236100  1
  O  O10  1  0.75077400  0.11095900  0.41709600  1
  O  O11  1  0.75121200  0.47462400  0.11114800  1
  O  O12  1  0.41733000  0.35807000  0.73315800  1
  O  O13  1  0.41467900  0.91408700  0.34999900  1
  O  O14  1  0.41471400  0.73375700  0.91603800  1
  O  O15  1  0.91733000  0.64193000  0.26684200  1
  O  O16  1  0.91467900  0.08591300  0.65000100  1
  O  O17  1  0.91471400  0.26624300  0.08396200  1
  O  O18  1  0.58413000  0.65464200  0.26492500  1
  O  O19  1  0.58091700  0.07879500  0.65122900  1
  O  O20  1  0.58178000  0.27201900  0.07713400  1
  O  O21  1  0.08413000  0.34535800  0.73507500  1
  O  O22  1  0.08091700  0.92120500  0.34877100  1
  O  O23  1  0.08178000  0.72798100  0.92286600  1
  O  O24  1  0.35086100  0.01690900  0.99074100  1
  O  O25  1  0.85086100  0.98309100  0.00925900  1
loop_
_geom_bond_atom_site_label_1
_geom_bond_atom_site_label_2
_geom_bond_distance
_geom_bond_site_symmetry_2
O0 P0 1.552017 1_555
O0 Pb6 2.594052 1_555
O0 Pb9 2.618577 1_555
O1 P1 1.550710 1_545
O1 Pb6 2.586766 1_555
O1 Pb9 2.615978 1_555
O2 P2 1.545268 1_554
O2 Pb6 2.591735 1_555
O2 Pb9 2.608816 1_555
O3 P3 1.552017 1_555
O3 Pb7 2.594052 1_655
O3 Pb8 2.618577 1_555
O4 P4 1.550710 1_565
O4 Pb7 2.586766 1_655
O4 Pb8 2.615978 1_555
O5 P5 1.545268 1_556
O5 Pb7 2.591735 1_655
O5 Pb8 2.608816 1_555
O6 P0 1.558697 1_555
O6 Pb1 2.612076 1_555
O6 Pb7 2.651773 1_555
O6 Pb8 2.728622 1_555
O7 P1 1.565702 1_555
O7 Pb2 2.541523 1_555
O7 Pb7 2.699079 1_555
O7 Pb8 2.728847 1_555
O8 P2 1.572543 1_555
O8 Pb0 2.514607 1_555
O8 Pb7 2.726083 1_555
O8 Pb8 2.741396 1_555
O9 P3 1.558697 1_555
O9 Pb4 2.612076 1_555
O9 Pb6 2.651773 1_555
O9 Pb9 2.728622 1_655
O10 P4 1.565702 1_555
O10 Pb5 2.541523 1_555
O10 Pb6 2.699079 1_555
O10 Pb9 2.728847 1_655
O11 P5 1.572543 1_555
O11 Pb3 2.514607 1_555
O11 Pb6 2.726083 1_555
O11 Pb9 2.741396 1_655
O12 P0 1.572349 1_555
O12 Pb0 2.405116 1_555
O13 P1 1.563851 1_555
O13 Pb1 2.460136 1_555
O14 P2 1.563448 1_555
O14 Pb2 2.482635 1_555
O15 P3 1.572349 1_555
O15 Pb3 2.405116 1_555
O16 P4 1.563851 1_555
O16 Pb4 2.460136 1_555
O17 P5 1.563448 1_555
O17 Pb5 2.482635 1_555
O18 P3 1.567022 1_555
O18 Pb1 2.541127 1_555
O18 Pb3 2.676101 1_555
O19 P4 1.566452 1_555
O19 Pb2 2.474789 1_545
O19 Pb4 2.720641 1_555
O20 P5 1.568337 1_555
O20 Pb0 2.464576 1_554
O20 Pb5 2.770091 1_555
O21 P0 1.567022 1_555
O21 Pb4 2.541127 1_455
O21 Pb0 2.676101 1_555
O22 P1 1.566452 1_555
O22 Pb5 2.474789 1_465
O22 Pb1 2.720641 1_555
O23 P2 1.568337 1_555
O23 Pb3 2.464576 1_456
O23 Pb2 2.770091 1_555
O24 Pb0 2.239593 1_555
O24 Pb2 2.398262 1_545
O24 Pb1 2.471544 1_546
O25 Pb3 2.239593 1_555
O25 Pb5 2.398262 1_565
O25 Pb4 2.471544 1_564
