# generated using pymatgen
data_Te2MoWS2
_symmetry_space_group_name_H-M   'P 1'
_cell_length_a   3.35997774
_cell_length_b   3.35997774
_cell_length_c   39.93005300
_cell_angle_alpha   90.00000000
_cell_angle_beta   90.00000000
_cell_angle_gamma   119.99999481
_symmetry_Int_Tables_number   1
_chemical_formula_structural   Te2MoWS2
_chemical_formula_sum   'Te4 Mo2 W2 S4'
_cell_volume   390.39418534
_cell_formula_units_Z   2
loop_
 _symmetry_equiv_pos_site_id
 _symmetry_equiv_pos_as_xyz
  1  'x, y, z'
loop_
 _atom_site_type_symbol
 _atom_site_label
 _atom_site_symmetry_multiplicity
 _atom_site_fract_x
 _atom_site_fract_y
 _atom_site_fract_z
 _atom_site_occupancy
  Te  Te0  1  0.00000000  0.00000000  0.32758100  1
  Te  Te1  1  0.33333300  0.66666700  0.42358300  1
  Te  Te2  1  0.33333300  0.66666700  0.51876200  1
  Te  Te3  1  0.00000000  0.00000000  0.23282700  1
  Mo  Mo0  1  0.00000000  0.00000000  0.09376300  1
  Mo  Mo1  1  0.33333300  0.66666700  0.28020300  1
  W  W0  1  0.00000000  0.00000000  0.47118500  1
  W  W1  1  0.33333300  0.66666700  0.65777300  1
  S  S0  1  0.00000000  0.00000000  0.69577900  1
  S  S1  1  0.33333300  0.66666700  0.05587900  1
  S  S2  1  0.33333300  0.66666700  0.13168900  1
  S  S3  1  0.00000000  0.00000000  0.61972400  1
loop_
_geom_bond_atom_site_label_1
_geom_bond_atom_site_label_2
_geom_bond_distance
_geom_bond_site_symmetry_2
Te1 W0 2.715878 1_565
Te1 W0 2.715880 1_665
Te1 W0 2.715880 1_555
Te2 W0 2.715180 1_565
Te2 W0 2.715182 1_665
Te2 W0 2.715182 1_555
Mo0 S1 2.459966 1_545
Mo0 S1 2.459969 1_555
Mo0 S1 2.459969 1_445
Mo0 S2 2.460998 1_545
Mo0 S2 2.461000 1_555
Mo0 S2 2.461000 1_445
Mo1 Te3 2.709570 1_565
Mo1 Te3 2.709572 1_665
Mo1 Te3 2.709572 1_555
Mo1 Te0 2.709626 1_565
Mo1 Te0 2.709628 1_555
Mo1 Te0 2.709628 1_665
S0 W1 2.462965 1_545
S0 W1 2.462967 1_445
S0 W1 2.462967 1_555
S3 W1 2.464023 1_545
S3 W1 2.464026 1_555
S3 W1 2.464026 1_445
