# generated using pymatgen
data_Mg(MoO2)2
_symmetry_space_group_name_H-M   'P 1'
_cell_length_a   6.28633900
_cell_length_b   6.28633900
_cell_length_c   20.98481204
_cell_angle_alpha   81.98145279
_cell_angle_beta   81.98145279
_cell_angle_gamma   61.45146173
_symmetry_Int_Tables_number   1
_chemical_formula_structural   Mg(MoO2)2
_chemical_formula_sum   'Mg8 Mo16 O32'
_cell_volume   718.79417020
_cell_formula_units_Z   8
loop_
 _symmetry_equiv_pos_site_id
 _symmetry_equiv_pos_as_xyz
  1  'x, y, z'
loop_
 _atom_site_type_symbol
 _atom_site_label
 _atom_site_symmetry_multiplicity
 _atom_site_fract_x
 _atom_site_fract_y
 _atom_site_fract_z
 _atom_site_occupancy
  Mg  Mg0  1  0.85430800  0.85430800  0.96702900  1
  Mg  Mg1  1  0.38251600  0.38251600  0.87566100  1
  Mg  Mg2  1  0.59470000  0.59470000  0.72102000  1
  Mg  Mg3  1  0.12142600  0.12142600  0.62676200  1
  Mg  Mg4  1  0.87324600  0.87324600  0.37696700  1
  Mg  Mg5  1  0.99414500  0.99414500  0.50242400  1
  Mg  Mg6  1  0.63209600  0.63209600  0.12393900  1
  Mg  Mg7  1  0.75068700  0.75068700  0.25186900  1
  Mo  Mo0  1  0.37988500  0.88242900  0.87617300  1
  Mo  Mo1  1  0.24842700  0.24842700  0.74889200  1
  Mo  Mo2  1  0.88242900  0.37988500  0.87617300  1
  Mo  Mo3  1  0.35757900  0.35757900  0.44799400  1
  Mo  Mo4  1  0.11944200  0.61281800  0.62333300  1
  Mo  Mo5  1  0.89671100  0.89671100  0.77980000  1
  Mo  Mo6  1  0.11029700  0.11029700  0.19012600  1
  Mo  Mo7  1  0.61281800  0.11944200  0.62333300  1
  Mo  Mo8  1  0.86889200  0.36316400  0.37788400  1
  Mo  Mo9  1  0.64021600  0.64021600  0.53299800  1
  Mo  Mo10  1  0.36316400  0.86889200  0.37788400  1
  Mo  Mo11  1  0.12841800  0.63239500  0.12356200  1
  Mo  Mo12  1  0.63239500  0.12841800  0.12356200  1
  Mo  Mo13  1  0.39141700  0.39141700  0.31161100  1
  Mo  Mo14  1  0.50646900  0.50646900  0.99439600  1
  Mo  Mo15  1  0.15269800  0.15269800  0.04619200  1
  O  O0  1  0.68274300  0.21271800  0.93460700  1
  O  O1  1  0.56622500  0.56622500  0.81913500  1
  O  O2  1  0.21271800  0.68274300  0.93460700  1
  O  O3  1  0.68738800  0.68738800  0.93503400  1
  O  O4  1  0.07565300  0.07565300  0.81854000  1
  O  O5  1  0.42031900  0.95344700  0.68635200  1
  O  O6  1  0.54011900  0.09081300  0.81349900  1
  O  O7  1  0.30110200  0.30110200  0.56950500  1
  O  O8  1  0.95344700  0.42031900  0.68635200  1
  O  O9  1  0.19738200  0.19738200  0.93283200  1
  O  O10  1  0.42740100  0.42740100  0.68363400  1
  O  O11  1  0.09081300  0.54011900  0.81349900  1
  O  O12  1  0.15202600  0.72328300  0.44107400  1
  O  O13  1  0.80916700  0.80916700  0.56413700  1
  O  O14  1  0.29141100  0.81633100  0.56523800  1
  O  O15  1  0.05471600  0.05471600  0.32423200  1
  O  O16  1  0.72328300  0.15202600  0.44107400  1
  O  O17  1  0.93390300  0.93390300  0.67681000  1
  O  O18  1  0.16324100  0.16324100  0.44075000  1
  O  O19  1  0.81633100  0.29141100  0.56523800  1
  O  O20  1  0.57718900  0.57718900  0.31115100  1
  O  O21  1  0.92561000  0.47264000  0.18437800  1
  O  O22  1  0.02619000  0.57541600  0.31685300  1
  O  O23  1  0.81171200  0.81171200  0.06660700  1
  O  O24  1  0.47264000  0.92561000  0.18437800  1
  O  O25  1  0.68498600  0.68498600  0.43672000  1
  O  O26  1  0.92589500  0.92589500  0.18677600  1
  O  O27  1  0.57541600  0.02619000  0.31685300  1
  O  O28  1  0.33112100  0.33112100  0.06033700  1
  O  O29  1  0.79299500  0.33109900  0.05963800  1
  O  O30  1  0.45132100  0.45132100  0.17094100  1
  O  O31  1  0.33109900  0.79299500  0.05963800  1
loop_
_geom_bond_atom_site_label_1
_geom_bond_atom_site_label_2
_geom_bond_distance
_geom_bond_site_symmetry_2
Mg0 O3 2.024457 1_555
Mg0 O0 2.038860 1_565
Mg0 O2 2.038860 1_655
Mg0 O23 2.065493 1_556
Mg1 O1 2.141221 1_555
Mg1 O2 2.142172 1_555
Mg1 O0 2.142172 1_555
Mg1 O6 2.148514 1_555
Mg1 O11 2.148514 1_555
Mg1 O9 2.159583 1_555
Mg2 O1 2.031807 1_555
Mg2 O5 2.053955 1_555
Mg2 O8 2.053955 1_555
Mg2 O10 2.084517 1_555
Mg3 O7 2.111251 1_555
Mg3 O17 2.125968 1_445
Mg3 O5 2.144738 1_545
Mg3 O8 2.144738 1_455
Mg3 O14 2.198686 1_545
Mg3 O19 2.198686 1_455
Mg4 O15 2.089706 1_665
Mg4 O12 2.120041 1_655
Mg4 O16 2.120041 1_565
Mg4 O22 2.149673 1_655
Mg4 O27 2.149673 1_565
Mg4 O25 2.210011 1_555
Mg5 O12 2.044900 1_655
Mg5 O16 2.044900 1_565
Mg5 O18 2.060899 1_665
Mg5 O14 2.181439 1_655
Mg5 O19 2.181439 1_565
Mg5 O13 2.198556 1_555
Mg6 O30 2.040748 1_555
Mg6 O23 2.111376 1_555
Mg6 O24 2.132666 1_555
Mg6 O21 2.132666 1_555
Mg6 O31 2.219539 1_555
Mg6 O29 2.219539 1_555
Mg7 O20 2.075239 1_555
Mg7 O22 2.118706 1_655
Mg7 O27 2.118706 1_565
Mg7 O26 2.147588 1_555
Mg7 O24 2.165467 1_555
Mg7 O21 2.165467 1_555
Mo0 O4 2.147289 1_565
Mo0 O2 2.157690 1_555
Mo0 O3 2.178071 1_555
Mo0 O9 2.180597 1_565
Mo0 O1 2.191593 1_555
Mo0 O6 2.207114 1_565
Mo1 O5 2.167189 1_545
Mo1 O8 2.167189 1_455
Mo1 O4 2.176512 1_555
Mo1 O10 2.181098 1_555
Mo1 O6 2.182760 1_555
Mo1 O11 2.182760 1_555
Mo2 O4 2.147289 1_655
Mo2 O0 2.157690 1_555
Mo2 O3 2.178071 1_555
Mo2 O9 2.180597 1_655
Mo2 O1 2.191593 1_555
Mo2 O11 2.207114 1_655
Mo3 O12 2.023806 1_555
Mo3 O16 2.023806 1_555
Mo3 O18 2.130314 1_555
Mo3 O7 2.523759 1_555
Mo4 O7 2.130414 1_555
Mo4 O8 2.162779 1_455
Mo4 O17 2.170358 1_455
Mo4 O14 2.193347 1_555
Mo4 O13 2.195026 1_455
Mo4 O10 2.196103 1_555
Mo5 O6 2.048923 1_565
Mo5 O11 2.048923 1_655
Mo5 O17 2.133196 1_555
Mo5 O4 2.216159 1_665
Mo6 O21 1.996408 1_455
Mo6 O24 1.996408 1_545
Mo6 O26 2.005581 1_445
Mo6 O15 2.780623 1_555
Mo7 O7 2.130414 1_555
Mo7 O5 2.162779 1_545
Mo7 O17 2.170358 1_545
Mo7 O19 2.193347 1_555
Mo7 O13 2.195026 1_545
Mo7 O10 2.196103 1_555
Mo8 O15 2.114027 1_655
Mo8 O16 2.165522 1_555
Mo8 O18 2.177038 1_655
Mo8 O22 2.197583 1_655
Mo8 O20 2.228565 1_555
Mo8 O25 2.239852 1_555
Mo9 O19 1.991529 1_555
Mo9 O14 1.991529 1_555
Mo9 O25 1.999693 1_555
Mo9 O13 2.036773 1_555
Mo10 O15 2.114027 1_565
Mo10 O12 2.165522 1_555
Mo10 O18 2.177038 1_565
Mo10 O27 2.197583 1_565
Mo10 O20 2.228565 1_555
Mo10 O25 2.239852 1_555
Mo11 O30 2.107950 1_555
Mo11 O21 2.162172 1_455
Mo11 O26 2.179728 1_455
Mo11 O23 2.192223 1_455
Mo11 O31 2.194748 1_555
Mo11 O28 2.212154 1_555
Mo12 O30 2.107950 1_555
Mo12 O24 2.162172 1_545
Mo12 O26 2.179728 1_545
Mo12 O23 2.192223 1_545
Mo12 O29 2.194748 1_555
Mo12 O28 2.212154 1_555
Mo13 O20 2.006236 1_555
Mo13 O22 2.011985 1_555
Mo13 O27 2.011985 1_555
Mo14 O2 2.124797 1_555
Mo14 O0 2.124797 1_555
Mo14 O3 2.141160 1_555
Mo14 O28 2.157587 1_556
Mo14 O29 2.168650 1_556
Mo14 O31 2.168650 1_556
Mo15 O29 1.984155 1_455
Mo15 O31 1.984155 1_545
Mo15 O28 1.998105 1_555
Mo15 O9 2.349309 1_554
