# generated using pymatgen
data_Mg(SiO2)5
_symmetry_space_group_name_H-M   'P 1'
_cell_length_a   6.95907400
_cell_length_b   6.95907400
_cell_length_c   6.47278600
_cell_angle_alpha   90.00000000
_cell_angle_beta   90.00000000
_cell_angle_gamma   90.00000000
_symmetry_Int_Tables_number   1
_chemical_formula_structural   Mg(SiO2)5
_chemical_formula_sum   'Mg1 Si5 O10'
_cell_volume   313.46868215
_cell_formula_units_Z   1
loop_
 _symmetry_equiv_pos_site_id
 _symmetry_equiv_pos_as_xyz
  1  'x, y, z'
loop_
 _atom_site_type_symbol
 _atom_site_label
 _atom_site_symmetry_multiplicity
 _atom_site_fract_x
 _atom_site_fract_y
 _atom_site_fract_z
 _atom_site_occupancy
  Mg  Mg0  1  0.50000000  0.50000000  0.50000000  1
  Si  Si0  1  0.26935200  0.00000000  0.11918700  1
  Si  Si1  1  0.00000000  0.73064800  0.88081300  1
  Si  Si2  1  0.00000000  0.26935200  0.88081300  1
  Si  Si3  1  0.73064800  0.00000000  0.11918700  1
  Si  Si4  1  0.00000000  0.00000000  0.50000000  1
  O  O0  1  0.19240600  0.00000000  0.35693700  1
  O  O1  1  0.00000000  0.80759400  0.64306300  1
  O  O2  1  0.00000000  0.19240600  0.64306300  1
  O  O3  1  0.80759400  0.00000000  0.35693700  1
  O  O4  1  0.19209500  0.19209500  0.00000000  1
  O  O5  1  0.19209500  0.80790500  0.00000000  1
  O  O6  1  0.80790500  0.19209500  0.00000000  1
  O  O7  1  0.80790500  0.80790500  0.00000000  1
  O  O8  1  0.50000000  0.00000000  0.11982800  1
  O  O9  1  0.00000000  0.50000000  0.88017200  1
loop_
_geom_bond_atom_site_label_1
_geom_bond_atom_site_label_2
_geom_bond_distance
_geom_bond_site_symmetry_2
O0 Si4 1.627987 1_555
O0 Si0 1.629405 1_555
O1 Si4 1.627987 1_565
O1 Si1 1.629405 1_555
O2 Si4 1.627987 1_555
O2 Si2 1.629405 1_555
O3 Si4 1.627987 1_655
O3 Si3 1.629405 1_555
O4 Si2 1.634401 1_554
O4 Si0 1.634401 1_555
O5 Si0 1.634401 1_565
O5 Si1 1.634401 1_554
O6 Si3 1.634401 1_555
O6 Si2 1.634401 1_654
O7 Si3 1.634401 1_565
O7 Si1 1.634401 1_654
O8 Si3 1.605102 1_555
O8 Si0 1.605102 1_555
O9 Si1 1.605102 1_555
O9 Si2 1.605102 1_555
