# generated using pymatgen
data_Li5Mn(CoO4)2
_symmetry_space_group_name_H-M   'P 1'
_cell_length_a   5.13250363
_cell_length_b   5.13250363
_cell_length_c   10.21092175
_cell_angle_alpha   80.59587486
_cell_angle_beta   80.59587486
_cell_angle_gamma   32.84500079
_symmetry_Int_Tables_number   1
_chemical_formula_structural   Li5Mn(CoO4)2
_chemical_formula_sum   'Li5 Mn1 Co2 O8'
_cell_volume   143.75511955
_cell_formula_units_Z   1
loop_
 _symmetry_equiv_pos_site_id
 _symmetry_equiv_pos_as_xyz
  1  'x, y, z'
loop_
 _atom_site_type_symbol
 _atom_site_label
 _atom_site_symmetry_multiplicity
 _atom_site_fract_x
 _atom_site_fract_y
 _atom_site_fract_z
 _atom_site_occupancy
  Li  Li0  1  0.74986000  0.74986000  0.86743600  1
  Li  Li1  1  0.25734400  0.25734400  0.61609200  1
  Li  Li2  1  0.74265600  0.74265600  0.38390800  1
  Li  Li3  1  0.25014000  0.25014000  0.13256400  1
  Li  Li4  1  0.00000000  0.00000000  0.50000000  1
  Mn  Mn0  1  0.00000000  0.00000000  0.00000000  1
  Co  Co0  1  0.50854600  0.50854600  0.73055300  1
  Co  Co1  1  0.49145400  0.49145400  0.26944700  1
  O  O0  1  0.10856400  0.10856400  0.82305100  1
  O  O1  1  0.62244200  0.62244200  0.57550600  1
  O  O2  1  0.11417300  0.11417300  0.30279600  1
  O  O3  1  0.60980400  0.60980400  0.05511800  1
  O  O4  1  0.39019600  0.39019600  0.94488200  1
  O  O5  1  0.88582700  0.88582700  0.69720500  1
  O  O6  1  0.37755800  0.37755800  0.42449400  1
  O  O7  1  0.89143600  0.89143600  0.17694900  1
loop_
_geom_bond_atom_site_label_1
_geom_bond_atom_site_label_2
_geom_bond_distance
_geom_bond_site_symmetry_2
Li0 O5 2.005209 1_555
Li0 O0 2.112178 1_565
Li0 O0 2.112178 1_655
Li0 O3 2.161931 1_556
Li0 O4 2.238862 1_655
Li0 O4 2.238862 1_565
Li1 O1 2.056490 1_545
Li1 O1 2.056490 1_455
Li1 O6 2.107028 1_555
Li1 O5 2.179200 1_455
Li1 O5 2.179200 1_545
Li1 O0 2.357348 1_555
Li2 O6 2.056490 1_655
Li2 O6 2.056490 1_565
Li2 O1 2.107028 1_555
Li2 O2 2.179195 1_565
Li2 O2 2.179195 1_655
Li2 O7 2.357348 1_555
Li3 O2 2.005217 1_555
Li3 O7 2.112178 1_455
Li3 O7 2.112178 1_545
Li3 O4 2.161931 1_554
Li3 O3 2.238862 1_545
Li3 O3 2.238862 1_455
Li4 O6 2.114260 1_545
Li4 O6 2.114260 1_455
Li4 O1 2.114260 1_545
Li4 O1 2.114260 1_455
Li4 O2 2.132433 1_555
Li4 O5 2.132442 1_445
Mn0 O7 1.936287 1_445
Mn0 O0 1.936287 1_554
Mn0 O3 1.948975 1_545
Mn0 O4 1.948975 1_454
Mn0 O4 1.948975 1_544
Mn0 O3 1.948975 1_455
Co0 O1 1.777413 1_555
Co0 O5 1.954921 1_455
Co0 O5 1.954921 1_545
Co0 O0 2.069863 1_655
Co0 O0 2.069863 1_565
Co0 O4 2.297518 1_555
Co1 O6 1.777413 1_555
Co1 O2 1.954923 1_655
Co1 O2 1.954923 1_565
Co1 O7 2.069863 1_455
Co1 O7 2.069863 1_545
Co1 O3 2.297518 1_555
