# generated using pymatgen
data_Cr3Co
_symmetry_space_group_name_H-M   'P 1'
_cell_length_a   5.08272751
_cell_length_b   5.08272751
_cell_length_c   4.08336900
_cell_angle_alpha   90.00000000
_cell_angle_beta   90.00000000
_cell_angle_gamma   119.99999359
_symmetry_Int_Tables_number   1
_chemical_formula_structural   Cr3Co
_chemical_formula_sum   'Cr6 Co2'
_cell_volume   91.35723387
_cell_formula_units_Z   2
loop_
 _symmetry_equiv_pos_site_id
 _symmetry_equiv_pos_as_xyz
  1  'x, y, z'
loop_
 _atom_site_type_symbol
 _atom_site_label
 _atom_site_symmetry_multiplicity
 _atom_site_fract_x
 _atom_site_fract_y
 _atom_site_fract_z
 _atom_site_occupancy
  Cr  Cr0  1  0.16479100  0.32958200  0.25000000  1
  Cr  Cr1  1  0.83520900  0.67041800  0.75000000  1
  Cr  Cr2  1  0.67041800  0.83520900  0.25000000  1
  Cr  Cr3  1  0.32958200  0.16479100  0.75000000  1
  Cr  Cr4  1  0.16479100  0.83520900  0.25000000  1
  Cr  Cr5  1  0.83520900  0.16479100  0.75000000  1
  Co  Co0  1  0.33333300  0.66666700  0.75000000  1
  Co  Co1  1  0.66666700  0.33333300  0.25000000  1
loop_
_geom_bond_atom_site_label_1
_geom_bond_atom_site_label_2
_geom_bond_distance
_geom_bond_site_symmetry_2
Cr0 Cr3 2.504623 1_554
Cr0 Cr3 2.504623 1_555
Cr0 Cr5 2.504623 1_455
Cr0 Cr5 2.504623 1_454
Cr0 Cr4 2.512763 1_545
Cr0 Cr2 2.512763 1_445
Cr0 Cr4 2.569964 1_555
Cr0 Cr2 2.569965 1_555
Cr1 Cr2 2.504623 1_556
Cr1 Cr2 2.504623 1_555
Cr1 Cr4 2.504623 1_656
Cr1 Cr4 2.504623 1_655
Cr1 Cr5 2.512763 1_565
Cr1 Cr3 2.512763 1_665
Cr1 Cr5 2.569964 1_555
Cr1 Cr3 2.569965 1_555
Cr2 Cr5 2.504623 1_564
Cr2 Cr5 2.504623 1_565
Cr2 Cr4 2.512763 1_655
Cr2 Cr4 2.569964 1_555
Cr3 Cr4 2.504623 1_545
Cr3 Cr4 2.504623 1_546
Cr3 Cr5 2.512763 1_455
Cr3 Cr5 2.569964 1_555
Co0 Cr4 2.523894 1_556
Co0 Cr4 2.523894 1_555
Co0 Cr0 2.523896 1_556
Co0 Cr0 2.523896 1_555
Co0 Cr2 2.523896 1_555
Co0 Cr2 2.523896 1_556
Co0 Cr1 2.541415 1_455
Co0 Cr3 2.541415 1_565
Co0 Cr5 2.541418 1_565
Co0 Cr5 2.541418 1_455
Co0 Cr3 2.541420 1_555
Co0 Cr1 2.541420 1_555
Co1 Cr5 2.523894 1_555
Co1 Cr5 2.523894 1_554
Co1 Cr3 2.523896 1_554
Co1 Cr1 2.523896 1_555
Co1 Cr3 2.523896 1_555
Co1 Cr1 2.523896 1_554
Co1 Cr0 2.541415 1_655
Co1 Cr2 2.541415 1_545
Co1 Cr4 2.541418 1_655
Co1 Cr4 2.541418 1_545
Co1 Cr0 2.541420 1_555
Co1 Cr2 2.541420 1_555
