# generated using pymatgen
data_SmH6C2SNO9
_symmetry_space_group_name_H-M   'P 1'
_cell_length_a   8.80378600
_cell_length_b   6.67218200
_cell_length_c   15.26793490
_cell_angle_alpha   67.44563215
_cell_angle_beta   90.00000000
_cell_angle_gamma   90.00000000
_symmetry_Int_Tables_number   1
_chemical_formula_structural   SmH6C2SNO9
_chemical_formula_sum   'Sm4 H24 C8 S4 N4 O36'
_cell_volume   828.25121175
_cell_formula_units_Z   4
loop_
 _symmetry_equiv_pos_site_id
 _symmetry_equiv_pos_as_xyz
  1  'x, y, z'
loop_
 _atom_site_type_symbol
 _atom_site_label
 _atom_site_symmetry_multiplicity
 _atom_site_fract_x
 _atom_site_fract_y
 _atom_site_fract_z
 _atom_site_occupancy
  Sm  Sm0  1  0.73676500  0.33823500  0.40882600  1
  Sm  Sm1  1  0.76323500  0.33823500  0.90882600  1
  Sm  Sm2  1  0.26323500  0.66176500  0.59117400  1
  Sm  Sm3  1  0.23676500  0.66176500  0.09117400  1
  H  H0  1  0.79579300  0.92121000  0.16923400  1
  H  H1  1  0.70420700  0.92121000  0.66923400  1
  H  H2  1  0.20420700  0.07879000  0.83076600  1
  H  H3  1  0.29579300  0.07879000  0.33076600  1
  H  H4  1  0.82552700  0.99276000  0.26424400  1
  H  H5  1  0.67447300  0.99276000  0.76424400  1
  H  H6  1  0.17447300  0.00724000  0.73575600  1
  H  H7  1  0.32552700  0.00724000  0.23575600  1
  H  H8  1  0.96042400  0.02955800  0.18294200  1
  H  H9  1  0.53957600  0.02955800  0.68294200  1
  H  H10  1  0.03957600  0.97044200  0.81705800  1
  H  H11  1  0.46042400  0.97044200  0.31705800  1
  H  H12  1  0.97598600  0.29078700  0.56817000  1
  H  H13  1  0.52401400  0.29078700  0.06817000  1
  H  H14  1  0.02401400  0.70921300  0.43183000  1
  H  H15  1  0.47598600  0.70921300  0.93183000  1
  H  H16  1  0.97355300  0.05541700  0.57007600  1
  H  H17  1  0.52644700  0.05541700  0.07007600  1
  H  H18  1  0.02644700  0.94458300  0.42992400  1
  H  H19  1  0.47355300  0.94458300  0.92992400  1
  H  H20  1  0.80531300  0.18737600  0.15667600  1
  H  H21  1  0.69468700  0.18737600  0.65667600  1
  H  H22  1  0.19468700  0.81262400  0.84332400  1
  H  H23  1  0.30531300  0.81262400  0.34332400  1
  C  C0  1  0.03004700  0.58464600  0.27890500  1
  C  C1  1  0.46995300  0.58464600  0.77890500  1
  C  C2  1  0.96995300  0.41535400  0.72109500  1
  C  C3  1  0.53004700  0.41535400  0.22109500  1
  C  C4  1  0.02616400  0.36306700  0.26905600  1
  C  C5  1  0.47383600  0.36306700  0.76905600  1
  C  C6  1  0.97383600  0.63693300  0.73094400  1
  C  C7  1  0.52616400  0.63693300  0.23094400  1
  S  S0  1  0.66592600  0.74070300  0.52271800  1
  S  S1  1  0.83407400  0.74070300  0.02271800  1
  S  S2  1  0.33407400  0.25929700  0.47728200  1
  S  S3  1  0.16592600  0.25929700  0.97728200  1
  N  N0  1  0.84509600  0.03281700  0.19331500  1
  N  N1  1  0.65490400  0.03281700  0.69331500  1
  N  N2  1  0.15490400  0.96718300  0.80668500  1
  N  N3  1  0.34509600  0.96718300  0.30668500  1
  O  O0  1  0.73455400  0.56711800  0.49646100  1
  O  O1  1  0.76544600  0.56711800  0.99646100  1
  O  O2  1  0.26544600  0.43288200  0.50353900  1
  O  O3  1  0.23455400  0.43288200  0.00353900  1
  O  O4  1  0.73032300  0.95378700  0.45940200  1
  O  O5  1  0.76967700  0.95378700  0.95940200  1
  O  O6  1  0.26967700  0.04621300  0.54059800  1
  O  O7  1  0.23032300  0.04621300  0.04059800  1
  O  O8  1  0.94372700  0.60562000  0.34165700  1
  O  O9  1  0.55627300  0.60562000  0.84165700  1
  O  O10  1  0.05627300  0.39438000  0.65834300  1
  O  O11  1  0.44372700  0.39438000  0.15834300  1
  O  O12  1  0.92068300  0.19543500  0.54310600  1
  O  O13  1  0.57931700  0.19543500  0.04310600  1
  O  O14  1  0.07931700  0.80456500  0.45689400  1
  O  O15  1  0.42068300  0.80456500  0.95689400  1
  O  O16  1  0.94185700  0.21826300  0.32727900  1
  O  O17  1  0.55814300  0.21826300  0.82727900  1
  O  O18  1  0.05814300  0.78173700  0.67272100  1
  O  O19  1  0.44185700  0.78173700  0.17272100  1
  O  O20  1  0.50250900  0.25558800  0.49203300  1
  O  O21  1  0.99749100  0.25558800  0.99203300  1
  O  O22  1  0.49749100  0.74441200  0.50796700  1
  O  O23  1  0.00250900  0.74441200  0.00796700  1
  O  O24  1  0.60465200  0.65646300  0.29661700  1
  O  O25  1  0.89534800  0.65646300  0.79661700  1
  O  O26  1  0.39534800  0.34353700  0.70338300  1
  O  O27  1  0.10465200  0.34353700  0.20338300  1
  O  O28  1  0.61651800  0.27079500  0.27672500  1
  O  O29  1  0.88348200  0.27079500  0.77672500  1
  O  O30  1  0.38348200  0.72920500  0.72327500  1
  O  O31  1  0.11651800  0.72920500  0.22327500  1
  O  O32  1  0.70003500  0.69836400  0.62301500  1
  O  O33  1  0.79996500  0.69836400  0.12301500  1
  O  O34  1  0.29996500  0.30163600  0.37698500  1
  O  O35  1  0.20003500  0.30163600  0.87698500  1
loop_
_geom_bond_atom_site_label_1
_geom_bond_atom_site_label_2
_geom_bond_distance
_geom_bond_site_symmetry_2
H0 N0 1.043135 1_565
H1 N1 1.043135 1_565
H2 N2 1.043135 1_545
H3 N3 1.043135 1_545
H4 N0 1.025592 1_565
H5 N1 1.025592 1_565
H6 N2 1.025592 1_545
H7 N3 1.025592 1_545
H8 N0 1.029115 1_555
H9 N1 1.029115 1_555
H10 N2 1.029115 1_555
H11 N3 1.029115 1_555
H12 O12 0.987426 1_555
H13 O13 0.987426 1_555
H14 O14 0.987426 1_555
H15 O15 0.987426 1_555
H16 O12 0.981775 1_555
H17 O13 0.981775 1_555
H18 O14 0.981775 1_555
H19 O15 0.981775 1_555
H20 N0 1.027877 1_555
H21 N1 1.027877 1_555
H22 N2 1.027877 1_555
H23 N3 1.027877 1_555
C0 O31 1.266019 1_555
C0 O8 1.271965 1_455
C1 O30 1.266019 1_555
C1 O9 1.271965 1_555
C2 O29 1.266019 1_555
C2 O10 1.271965 1_655
C3 O28 1.266019 1_555
C3 O11 1.271965 1_555
C4 O27 1.264939 1_555
C4 O16 1.271113 1_455
C5 O26 1.264939 1_555
C5 O17 1.271113 1_555
C6 O25 1.264939 1_555
C6 O18 1.271113 1_655
C7 O24 1.264939 1_555
C7 O19 1.271113 1_555
O0 S0 1.491087 1_555
O0 Sm0 2.385436 1_555
O1 S1 1.491087 1_556
O1 Sm1 2.385436 1_555
O2 S2 1.491087 1_555
O2 Sm2 2.385436 1_555
O3 S3 1.491087 1_554
O3 Sm3 2.385436 1_555
O4 S0 1.490952 1_555
O4 Sm0 2.379032 1_565
O5 S1 1.490952 1_556
O5 Sm1 2.379032 1_565
O6 S2 1.490952 1_555
O6 Sm2 2.379032 1_545
O7 S3 1.490952 1_554
O7 Sm3 2.379032 1_545
O8 Sm0 2.480094 1_555
O9 Sm1 2.480094 1_555
O10 Sm2 2.480094 1_555
O11 Sm3 2.480094 1_555
O12 Sm0 2.496854 1_555
O13 Sm1 2.496854 1_554
O14 Sm2 2.496854 1_555
O15 Sm3 2.496854 1_556
O16 Sm0 2.493110 1_555
O17 Sm1 2.493110 1_555
O18 Sm2 2.493110 1_555
O19 Sm3 2.493110 1_555
O20 S2 1.498650 1_555
O20 Sm0 2.373571 1_555
O21 S3 1.498650 1_655
O21 Sm1 2.373571 1_555
O22 S0 1.498650 1_555
O22 Sm2 2.373571 1_555
O23 S1 1.498650 1_455
O23 Sm3 2.373571 1_555
O24 Sm0 2.450647 1_555
O25 Sm1 2.450647 1_555
O26 Sm2 2.450647 1_555
O27 Sm3 2.450647 1_555
O28 Sm0 2.467244 1_555
O29 Sm1 2.467244 1_555
O30 Sm2 2.467244 1_555
O31 Sm3 2.467244 1_555
O32 S0 1.477529 1_555
O33 S1 1.477529 1_555
O34 S2 1.477529 1_555
O35 S3 1.477529 1_555
