# generated using pymatgen
data_Yb(AlSi)2
_symmetry_space_group_name_H-M   'P 1'
_cell_length_a   4.16368240
_cell_length_b   4.16368240
_cell_length_c   6.44972281
_cell_angle_alpha   90.00000000
_cell_angle_beta   90.00000000
_cell_angle_gamma   120.00000729
_symmetry_Int_Tables_number   1
_chemical_formula_structural   Yb(AlSi)2
_chemical_formula_sum   'Yb1 Al2 Si2'
_cell_volume   96.83376979
_cell_formula_units_Z   1
loop_
 _symmetry_equiv_pos_site_id
 _symmetry_equiv_pos_as_xyz
  1  'x, y, z'
loop_
 _atom_site_type_symbol
 _atom_site_label
 _atom_site_symmetry_multiplicity
 _atom_site_fract_x
 _atom_site_fract_y
 _atom_site_fract_z
 _atom_site_occupancy
  Yb  Yb0  1  0.00000000  0.00000000  0.00000000  1
  Al  Al0  1  0.66666700  0.33333300  0.35413246  1
  Al  Al1  1  0.33333300  0.66666700  0.64586754  1
  Si  Si0  1  0.66666700  0.33333300  0.74450831  1
  Si  Si1  1  0.33333300  0.66666700  0.25549169  1
loop_
_geom_bond_atom_site_label_1
_geom_bond_atom_site_label_2
_geom_bond_distance
_geom_bond_site_symmetry_2
Al0 Si1 2.486664 1_655
Al0 Si1 2.486664 1_545
Al0 Si1 2.486671 1_555
Al0 Si0 2.517816 1_555
Al1 Si0 2.486664 1_565
Al1 Si0 2.486664 1_455
Al1 Si0 2.486671 1_555
Al1 Si1 2.517816 1_555
Si0 Yb0 2.914473 1_656
Si0 Yb0 2.914475 1_556
Si0 Yb0 2.914475 1_666
Si1 Yb0 2.914473 1_565
Si1 Yb0 2.914475 1_555
Si1 Yb0 2.914475 1_665
