# generated using pymatgen
data_Bi2O3
_symmetry_space_group_name_H-M   'P 1'
_cell_length_a   6.15099339
_cell_length_b   6.15099339
_cell_length_c   19.36215600
_cell_angle_alpha   90.00000000
_cell_angle_beta   90.00000000
_cell_angle_gamma   146.44702638
_symmetry_Int_Tables_number   1
_chemical_formula_structural   Bi2O3
_chemical_formula_sum   'Bi8 O12'
_cell_volume   404.89253957
_cell_formula_units_Z   4
loop_
 _symmetry_equiv_pos_site_id
 _symmetry_equiv_pos_as_xyz
  1  'x, y, z'
loop_
 _atom_site_type_symbol
 _atom_site_label
 _atom_site_symmetry_multiplicity
 _atom_site_fract_x
 _atom_site_fract_y
 _atom_site_fract_z
 _atom_site_occupancy
  Bi  Bi0  1  0.63114100  0.36885900  0.04402800  1
  Bi  Bi1  1  0.36885900  0.63114100  0.95597200  1
  Bi  Bi2  1  0.63114100  0.36885900  0.45597200  1
  Bi  Bi3  1  0.36885900  0.63114100  0.54402800  1
  Bi  Bi4  1  0.10241100  0.89758900  0.64428600  1
  Bi  Bi5  1  0.89758900  0.10241100  0.35571400  1
  Bi  Bi6  1  0.89758900  0.10241100  0.14428600  1
  Bi  Bi7  1  0.10241100  0.89758900  0.85571400  1
  O  O0  1  0.00000000  0.00000000  0.50000000  1
  O  O1  1  0.00000000  0.00000000  0.00000000  1
  O  O2  1  0.48416400  0.51583600  0.85963100  1
  O  O3  1  0.51583600  0.48416400  0.14036900  1
  O  O4  1  0.51583600  0.48416400  0.35963100  1
  O  O5  1  0.48416400  0.51583600  0.64036900  1
  O  O6  1  0.74543800  0.25456200  0.92768600  1
  O  O7  1  0.25456200  0.74543800  0.07231400  1
  O  O8  1  0.25456200  0.74543800  0.42768600  1
  O  O9  1  0.74543800  0.25456200  0.57231400  1
  O  O10  1  0.14001200  0.85998800  0.75000000  1
  O  O11  1  0.85998800  0.14001200  0.25000000  1
loop_
_geom_bond_atom_site_label_1
_geom_bond_atom_site_label_2
_geom_bond_distance
_geom_bond_site_symmetry_2
Bi0 O3 2.307392 1_555
Bi0 O7 2.359089 1_655
Bi0 O7 2.359089 1_545
Bi0 O1 2.502938 1_555
Bi0 O1 2.502938 1_665
Bi0 O6 2.624252 1_554
Bi1 O2 2.307392 1_555
Bi1 O6 2.359089 1_565
Bi1 O6 2.359089 1_455
Bi1 O1 2.502938 1_556
Bi1 O1 2.502938 1_666
Bi1 O7 2.624252 1_556
Bi2 O4 2.307392 1_555
Bi2 O8 2.359089 1_655
Bi2 O8 2.359089 1_545
Bi2 O0 2.502938 1_665
Bi2 O0 2.502938 1_555
Bi2 O9 2.624252 1_555
Bi3 O5 2.307392 1_555
Bi3 O9 2.359089 1_565
Bi3 O9 2.359089 1_455
Bi3 O0 2.502938 1_665
Bi3 O0 2.502938 1_555
Bi3 O8 2.624252 1_555
Bi4 O10 2.094216 1_555
Bi4 O5 2.257794 1_455
Bi4 O5 2.257794 1_565
Bi4 O9 2.816382 1_455
Bi4 O9 2.816382 1_565
Bi5 O11 2.094216 1_555
Bi5 O4 2.257794 1_655
Bi5 O4 2.257794 1_545
Bi5 O8 2.816382 1_655
Bi5 O8 2.816382 1_545
Bi6 O11 2.094216 1_555
Bi6 O3 2.257794 1_655
Bi6 O3 2.257794 1_545
Bi6 O7 2.816382 1_655
Bi6 O7 2.816382 1_545
Bi7 O10 2.094216 1_555
Bi7 O2 2.257794 1_565
Bi7 O2 2.257794 1_455
Bi7 O6 2.816382 1_455
Bi7 O6 2.816382 1_565
