# generated using pymatgen
data_MgSb4O9
_symmetry_space_group_name_H-M   'P 1'
_cell_length_a   9.30202400
_cell_length_b   9.30202400
_cell_length_c   5.09795500
_cell_angle_alpha   90.00000000
_cell_angle_beta   90.00000000
_cell_angle_gamma   90.00000000
_symmetry_Int_Tables_number   1
_chemical_formula_structural   MgSb4O9
_chemical_formula_sum   'Mg2 Sb8 O18'
_cell_volume   441.11406849
_cell_formula_units_Z   2
loop_
 _symmetry_equiv_pos_site_id
 _symmetry_equiv_pos_as_xyz
  1  'x, y, z'
loop_
 _atom_site_type_symbol
 _atom_site_label
 _atom_site_symmetry_multiplicity
 _atom_site_fract_x
 _atom_site_fract_y
 _atom_site_fract_z
 _atom_site_occupancy
  Mg  Mg0  1  0.50000000  0.00000000  0.09208200  1
  Mg  Mg1  1  0.00000000  0.50000000  0.90791800  1
  Sb  Sb0  1  0.58070000  0.27402800  0.64162500  1
  Sb  Sb1  1  0.72597200  0.58070000  0.35837500  1
  Sb  Sb2  1  0.22597200  0.08070000  0.64162500  1
  Sb  Sb3  1  0.08070000  0.77402800  0.35837500  1
  Sb  Sb4  1  0.41930000  0.72597200  0.64162500  1
  Sb  Sb5  1  0.77402800  0.91930000  0.64162500  1
  Sb  Sb6  1  0.91930000  0.22597200  0.35837500  1
  Sb  Sb7  1  0.27402800  0.41930000  0.35837500  1
  O  O0  1  0.50000000  0.50000000  0.50000000  1
  O  O1  1  0.00000000  0.00000000  0.50000000  1
  O  O2  1  0.21335800  0.44249900  0.00508400  1
  O  O3  1  0.94249900  0.28664200  0.00508400  1
  O  O4  1  0.05750100  0.71335800  0.00508400  1
  O  O5  1  0.78664200  0.55750100  0.00508400  1
  O  O6  1  0.28664200  0.05750100  0.99491600  1
  O  O7  1  0.55750100  0.21335800  0.99491600  1
  O  O8  1  0.44249900  0.78664200  0.99491600  1
  O  O9  1  0.71335800  0.94249900  0.99491600  1
  O  O10  1  0.60807700  0.80659200  0.47881500  1
  O  O11  1  0.30659200  0.89192300  0.47881500  1
  O  O12  1  0.69340800  0.10807700  0.47881500  1
  O  O13  1  0.39192300  0.19340800  0.47881500  1
  O  O14  1  0.10807700  0.30659200  0.52118500  1
  O  O15  1  0.19340800  0.60807700  0.52118500  1
  O  O16  1  0.80659200  0.39192300  0.52118500  1
  O  O17  1  0.89192300  0.69340800  0.52118500  1
loop_
_geom_bond_atom_site_label_1
_geom_bond_atom_site_label_2
_geom_bond_distance
_geom_bond_site_symmetry_2
Mg0 O6 2.114318 1_554
Mg0 O7 2.114318 1_554
Mg0 O9 2.114318 1_544
Mg0 O8 2.114318 1_544
Mg1 O3 2.114318 1_456
Mg1 O2 2.114318 1_556
Mg1 O4 2.114318 1_556
Mg1 O5 2.114318 1_456
O0 Sb1 2.345886 1_555
O0 Sb4 2.345886 1_555
O0 Sb0 2.345886 1_555
O0 Sb7 2.345886 1_555
O1 Sb5 2.345886 1_445
O1 Sb3 2.345886 1_545
O1 Sb2 2.345886 1_555
O1 Sb6 2.345886 1_455
O2 Sb7 1.899707 1_555
O3 Sb6 1.899707 1_555
O4 Sb3 1.899707 1_555
O5 Sb1 1.899707 1_555
O6 Sb2 1.899707 1_555
O7 Sb0 1.899707 1_555
O8 Sb4 1.899707 1_555
O9 Sb5 1.899707 1_555
O10 Sb5 2.042306 1_555
O10 Sb4 2.082032 1_555
O10 Sb1 2.448453 1_555
O11 Sb4 2.042306 1_555
O11 Sb2 2.082032 1_565
O11 Sb3 2.448453 1_555
O12 Sb0 2.042306 1_555
O12 Sb5 2.082032 1_545
O12 Sb6 2.448453 1_555
O13 Sb2 2.042306 1_555
O13 Sb0 2.082032 1_555
O13 Sb7 2.448453 1_555
O14 Sb7 2.042306 1_555
O14 Sb6 2.082032 1_455
O14 Sb2 2.448453 1_555
O15 Sb3 2.042306 1_555
O15 Sb7 2.082032 1_555
O15 Sb4 2.448453 1_555
O16 Sb6 2.042306 1_555
O16 Sb1 2.082032 1_555
O16 Sb0 2.448453 1_555
O17 Sb1 2.042306 1_555
O17 Sb3 2.082032 1_655
O17 Sb5 2.448453 1_555
