# generated using pymatgen
data_Ba2Tl2Zn3(FeO3)4
_symmetry_space_group_name_H-M   'P 1'
_cell_length_a   3.90904129
_cell_length_b   3.90904122
_cell_length_c   21.18840851
_cell_angle_alpha   95.29276107
_cell_angle_beta   95.29276262
_cell_angle_gamma   89.99999637
_symmetry_Int_Tables_number   1
_chemical_formula_structural   Ba2Tl2Zn3(FeO3)4
_chemical_formula_sum   'Ba2 Tl2 Zn3 Fe4 O12'
_cell_volume   321.00484184
_cell_formula_units_Z   1
loop_
 _symmetry_equiv_pos_site_id
 _symmetry_equiv_pos_as_xyz
  1  'x, y, z'
loop_
 _atom_site_type_symbol
 _atom_site_label
 _atom_site_symmetry_multiplicity
 _atom_site_fract_x
 _atom_site_fract_y
 _atom_site_fract_z
 _atom_site_occupancy
  Ba  Ba0  1  0.15775700  0.15775700  0.31551300  1
  Ba  Ba1  1  0.84224300  0.84224300  0.68448700  1
  Tl  Tl0  1  0.72286500  0.72286500  0.44572900  1
  Tl  Tl1  1  0.27713500  0.27713500  0.55427100  1
  Zn  Zn0  1  0.07678400  0.07678400  0.15356700  1
  Zn  Zn1  1  0.92321600  0.92321600  0.84643300  1
  Zn  Zn2  1  0.00000000  0.00000000  0.00000000  1
  Fe  Fe0  1  0.53504300  0.53504300  0.07008600  1
  Fe  Fe1  1  0.39511000  0.39511000  0.79022000  1
  Fe  Fe2  1  0.60489000  0.60489000  0.20978000  1
  Fe  Fe3  1  0.46495700  0.46495700  0.92991400  1
  O  O0  1  0.39647500  0.89647500  0.79295000  1
  O  O1  1  0.53377800  0.03377800  0.06755700  1
  O  O2  1  0.22539700  0.22539700  0.45079500  1
  O  O3  1  0.96622200  0.46622200  0.93244300  1
  O  O4  1  0.77460300  0.77460300  0.54920500  1
  O  O5  1  0.10352500  0.60352500  0.20705000  1
  O  O6  1  0.60352500  0.10352500  0.20705000  1
  O  O7  1  0.32845300  0.32845300  0.65690500  1
  O  O8  1  0.89647500  0.39647500  0.79295000  1
  O  O9  1  0.03377800  0.53377800  0.06755700  1
  O  O10  1  0.46622200  0.96622200  0.93244300  1
  O  O11  1  0.67154700  0.67154700  0.34309500  1
loop_
_geom_bond_atom_site_label_1
_geom_bond_atom_site_label_2
_geom_bond_distance
_geom_bond_site_symmetry_2
Ba0 O11 2.824182 1_555
Ba0 O11 2.824187 1_545
Ba0 O11 2.824187 1_455
Ba0 O11 2.824193 1_445
Ba0 O2 2.841915 1_555
Ba0 O5 3.001965 1_555
Ba0 O6 3.001965 1_555
Ba0 O6 3.001967 1_455
Ba0 O5 3.001967 1_545
Ba1 O7 2.824182 1_555
Ba1 O7 2.824187 1_565
Ba1 O7 2.824187 1_655
Ba1 O7 2.824193 1_665
Ba1 O4 2.841915 1_555
Ba1 O8 3.001965 1_555
Ba1 O0 3.001965 1_555
Ba1 O0 3.001967 1_655
Ba1 O8 3.001967 1_565
Fe0 O1 1.955241 1_565
Fe0 O9 1.955241 1_655
Fe0 O1 1.955244 1_555
Fe0 O9 1.955245 1_555
Fe1 O0 1.955362 1_545
Fe1 O0 1.955362 1_555
Fe1 O8 1.955362 1_455
Fe1 O8 1.955362 1_555
Fe2 O6 1.955362 1_565
Fe2 O6 1.955362 1_555
Fe2 O5 1.955362 1_655
Fe2 O5 1.955362 1_555
Fe3 O10 1.955241 1_545
Fe3 O3 1.955241 1_455
Fe3 O10 1.955244 1_555
Fe3 O3 1.955245 1_555
O0 Zn1 2.254435 1_555
O0 Zn1 2.254438 1_455
O1 Zn2 2.415420 1_555
O1 Zn2 2.415423 1_655
O2 Tl1 2.173756 1_555
O2 Tl0 2.766152 1_445
O2 Tl0 2.766157 1_455
O2 Tl0 2.766157 1_545
O2 Tl0 2.766163 1_555
O3 Zn2 2.415420 1_666
O3 Zn2 2.415423 1_656
O4 Tl0 2.173756 1_555
O4 Tl1 2.766152 1_665
O4 Tl1 2.766157 1_655
O4 Tl1 2.766157 1_565
O4 Tl1 2.766163 1_555
O5 Zn0 2.254435 1_555
O5 Zn0 2.254438 1_565
O6 Zn0 2.254435 1_555
O6 Zn0 2.254438 1_655
O7 Tl1 2.156067 1_555
O8 Zn1 2.254435 1_555
O8 Zn1 2.254438 1_545
O9 Zn2 2.415420 1_555
O9 Zn2 2.415423 1_565
O10 Zn2 2.415420 1_666
O10 Zn2 2.415423 1_566
O11 Tl0 2.156067 1_555
