# generated using pymatgen
data_Nd2CuTe2(SO7)2
_symmetry_space_group_name_H-M   'P 1'
_cell_length_a   5.22013301
_cell_length_b   8.00577029
_cell_length_c   8.29886638
_cell_angle_alpha   61.81426915
_cell_angle_beta   74.14006931
_cell_angle_gamma   85.34413044
_symmetry_Int_Tables_number   1
_chemical_formula_structural   Nd2CuTe2(SO7)2
_chemical_formula_sum   'Nd2 Cu1 Te2 S2 O14'
_cell_volume   293.58719071
_cell_formula_units_Z   1
loop_
 _symmetry_equiv_pos_site_id
 _symmetry_equiv_pos_as_xyz
  1  'x, y, z'
loop_
 _atom_site_type_symbol
 _atom_site_label
 _atom_site_symmetry_multiplicity
 _atom_site_fract_x
 _atom_site_fract_y
 _atom_site_fract_z
 _atom_site_occupancy
  Nd  Nd0  1  0.93349242  0.75051430  0.98108266  1
  Nd  Nd1  1  0.06650758  0.24948570  0.01891734  1
  Cu  Cu0  1  0.00000000  -0.00000000  0.50000000  1
  Te  Te0  1  0.49458770  0.73335585  0.64550735  1
  Te  Te1  1  0.50541230  0.26664415  0.35449265  1
  S  S0  1  0.25587085  0.74432792  0.25791212  1
  S  S1  1  0.74412915  0.25567208  0.74208788  1
  O  O0  1  0.15597290  0.58329589  0.24717445  1
  O  O1  1  0.84402710  0.41670411  0.75282555  1
  O  O2  1  0.13452949  0.74428208  0.43788903  1
  O  O3  1  0.86547051  0.25571792  0.56211097  1
  O  O4  1  0.54711159  0.74242735  0.22418054  1
  O  O5  1  0.45288841  0.25757265  0.77581946  1
  O  O6  1  0.17986118  0.91606929  0.09974687  1
  O  O7  1  0.82013882  0.08393071  0.90025313  1
  O  O8  1  0.26600013  0.56326344  0.88068065  1
  O  O9  1  0.73399987  0.43673656  0.11931935  1
  O  O10  1  0.72969254  0.81495332  0.73466088  1
  O  O11  1  0.27030746  0.18504668  0.26533912  1
  O  O12  1  0.25650277  0.92864967  0.64952916  1
  O  O13  1  0.74349723  0.07135033  0.35047084  1
loop_
_geom_bond_atom_site_label_1
_geom_bond_atom_site_label_2
_geom_bond_distance
_geom_bond_site_symmetry_2
Nd0 O10 2.384005 1_555
Nd0 O9 2.400045 1_556
Nd0 O4 2.411665 1_556
Nd0 O8 2.433383 1_655
Nd0 O7 2.488799 1_565
Nd0 O0 2.524694 1_656
Nd0 O6 2.565620 1_656
Nd0 O12 2.568170 1_655
Nd1 O11 2.384005 1_555
Nd1 O8 2.400045 1_554
Nd1 O5 2.411665 1_554
Nd1 O9 2.433383 1_455
Nd1 O6 2.488799 1_545
Nd1 O1 2.524694 1_454
Nd1 O7 2.565620 1_454
Nd1 O13 2.568170 1_455
Cu0 O13 1.942533 1_455
Cu0 O12 1.942533 1_545
Cu0 O11 2.022434 1_555
Cu0 O10 2.022434 1_445
Cu0 O2 2.348524 1_545
Cu0 O3 2.348524 1_455
O0 S0 1.478155 1_555
O1 S1 1.478155 1_555
O2 S0 1.454130 1_555
O3 S1 1.454130 1_555
O4 S0 1.468879 1_555
O5 S1 1.468879 1_555
O6 S0 1.503994 1_555
O7 S1 1.503994 1_555
O8 Te0 1.888784 1_555
O9 Te1 1.888784 1_555
O10 Te0 1.887696 1_555
O11 Te1 1.887696 1_555
O12 Te0 1.923898 1_555
O13 Te1 1.923898 1_555
