# generated using pymatgen
data_CeGa2Cu3
_symmetry_space_group_name_H-M   'P 1'
_cell_length_a   5.14966117
_cell_length_b   5.14966028
_cell_length_c   4.14467620
_cell_angle_alpha   90.00000000
_cell_angle_beta   90.00000000
_cell_angle_gamma   118.34134626
_symmetry_Int_Tables_number   1
_chemical_formula_structural   CeGa2Cu3
_chemical_formula_sum   'Ce1 Ga2 Cu3'
_cell_volume   96.73800752
_cell_formula_units_Z   1
loop_
 _symmetry_equiv_pos_site_id
 _symmetry_equiv_pos_as_xyz
  1  'x, y, z'
loop_
 _atom_site_type_symbol
 _atom_site_label
 _atom_site_symmetry_multiplicity
 _atom_site_fract_x
 _atom_site_fract_y
 _atom_site_fract_z
 _atom_site_occupancy
  Ce  Ce0  1  0.50000000  0.50000000  0.00000000  1
  Ga  Ga0  1  0.00000000  0.50000000  0.50000000  1
  Ga  Ga1  1  0.50000000  0.00000000  0.50000000  1
  Cu  Cu0  1  0.16012930  0.83987070  0.00000000  1
  Cu  Cu1  1  0.83987070  0.16012930  -0.00000000  1
  Cu  Cu2  1  0.00000000  0.00000000  0.50000000  1
loop_
_geom_bond_atom_site_label_1
_geom_bond_atom_site_label_2
_geom_bond_distance
_geom_bond_site_symmetry_2
Ce0 Cu1 2.995076 1_565
Ce0 Cu0 2.995076 1_545
Ce0 Cu0 2.995077 1_655
Ce0 Cu1 2.995077 1_455
Ce0 Cu0 3.005818 1_555
Ce0 Cu1 3.005818 1_555
Ce0 Ga1 3.305198 1_565
Ce0 Ga1 3.305198 1_555
Ce0 Ga1 3.305198 1_554
Ce0 Ga1 3.305198 1_564
Ce0 Ga0 3.305199 1_555
Ce0 Ga0 3.305199 1_655
Ce0 Ga0 3.305199 1_654
Ce0 Ga0 3.305199 1_554
Ce0 Cu2 3.355516 1_664
Ce0 Cu2 3.355516 1_554
Ce0 Cu2 3.355516 1_555
Ce0 Cu2 3.355516 1_665
Ga0 Ga1 2.639111 1_565
Ga0 Ga1 2.639111 1_455
Cu0 Cu2 2.510012 1_564
Cu0 Cu2 2.510012 1_565
Cu0 Ga0 2.582159 1_554
Cu0 Ga0 2.582159 1_555
Cu0 Ga1 2.582159 1_565
Cu0 Ga1 2.582159 1_564
Cu1 Cu2 2.510012 1_655
Cu1 Cu2 2.510012 1_654
Cu1 Ga0 2.582159 1_655
Cu1 Ga0 2.582159 1_654
Cu1 Ga1 2.582159 1_555
Cu1 Ga1 2.582159 1_554
Cu2 Ga0 2.574830 1_555
Cu2 Ga0 2.574830 1_545
Cu2 Ga1 2.574831 1_455
Cu2 Ga1 2.574831 1_555
