# generated using pymatgen
data_Ca2P7Ir12
_symmetry_space_group_name_H-M   'P 1'
_cell_length_a   9.59945981
_cell_length_b   9.59945981
_cell_length_c   3.94837800
_cell_angle_alpha   90.00000000
_cell_angle_beta   90.00000000
_cell_angle_gamma   119.99999867
_symmetry_Int_Tables_number   1
_chemical_formula_structural   Ca2P7Ir12
_chemical_formula_sum   'Ca2 P7 Ir12'
_cell_volume   315.09604353
_cell_formula_units_Z   1
loop_
 _symmetry_equiv_pos_site_id
 _symmetry_equiv_pos_as_xyz
  1  'x, y, z'
loop_
 _atom_site_type_symbol
 _atom_site_label
 _atom_site_symmetry_multiplicity
 _atom_site_fract_x
 _atom_site_fract_y
 _atom_site_fract_z
 _atom_site_occupancy
  Ca  Ca0  1  0.33333300  0.66666700  0.74936900  1
  Ca  Ca1  1  0.66666700  0.33333300  0.25063100  1
  P  P0  1  0.00000000  0.00000000  0.50000000  1
  P  P1  1  0.28594800  0.87559800  0.24623800  1
  P  P2  1  0.58965000  0.71405200  0.24623800  1
  P  P3  1  0.12440200  0.41035000  0.24623800  1
  P  P4  1  0.71405200  0.12440200  0.75376200  1
  P  P5  1  0.41035000  0.28594800  0.75376200  1
  P  P6  1  0.87559800  0.58965000  0.75376200  1
  Ir  Ir0  1  0.26061200  0.10372700  0.24506100  1
  Ir  Ir1  1  0.84311500  0.73938800  0.24506100  1
  Ir  Ir2  1  0.89627300  0.15688500  0.24506100  1
  Ir  Ir3  1  0.73938800  0.89627300  0.75493900  1
  Ir  Ir4  1  0.15688500  0.26061200  0.75493900  1
  Ir  Ir5  1  0.10372700  0.84311500  0.75493900  1
  Ir  Ir6  1  0.06560500  0.61646200  0.25004000  1
  Ir  Ir7  1  0.55085700  0.93439500  0.25004000  1
  Ir  Ir8  1  0.38353800  0.44914300  0.25004000  1
  Ir  Ir9  1  0.93439500  0.38353800  0.74996000  1
  Ir  Ir10  1  0.44914300  0.06560500  0.74996000  1
  Ir  Ir11  1  0.61646200  0.55085700  0.74996000  1
loop_
_geom_bond_atom_site_label_1
_geom_bond_atom_site_label_2
_geom_bond_distance
_geom_bond_site_symmetry_2
Ca0 P1 2.998416 1_556
Ca0 P3 2.998421 1_556
Ca0 P2 2.998424 1_556
Ca0 P1 3.014651 1_555
Ca0 P3 3.014656 1_555
Ca0 P2 3.014659 1_555
Ca0 Ir6 3.079895 1_555
Ca0 Ir7 3.079898 1_555
Ca0 Ir8 3.079902 1_555
Ca0 Ir6 3.083290 1_556
Ca0 Ir7 3.083292 1_556
Ca0 Ir8 3.083297 1_556
Ca0 Ir5 3.385380 1_555
Ca0 Ir3 3.385388 1_555
Ca0 Ir4 3.385388 1_555
Ca0 Ir10 3.412369 1_565
Ca0 Ir9 3.412371 1_455
Ca0 Ir11 3.412378 1_555
Ca1 P4 2.998416 1_554
Ca1 P6 2.998421 1_554
Ca1 P5 2.998424 1_554
Ca1 P4 3.014651 1_555
Ca1 P6 3.014656 1_555
Ca1 P5 3.014659 1_555
Ca1 Ir9 3.079895 1_555
Ca1 Ir10 3.079898 1_555
Ca1 Ir11 3.079902 1_555
Ca1 Ir9 3.083290 1_554
Ca1 Ir10 3.083292 1_554
Ca1 Ir11 3.083297 1_554
Ca1 Ir2 3.385380 1_555
Ca1 Ir0 3.385388 1_555
Ca1 Ir1 3.385388 1_555
Ca1 Ir7 3.412369 1_545
Ca1 Ir6 3.412371 1_655
Ca1 Ir8 3.412378 1_555
Ir0 P1 2.321102 1_545
Ir0 P0 2.402569 1_555
Ir0 P5 2.524783 1_554
Ir0 P5 2.577949 1_555
Ir0 Ir10 2.809448 1_554
Ir0 Ir10 2.836503 1_555
Ir0 Ir8 2.911132 1_555
Ir1 P2 2.321102 1_555
Ir1 P0 2.402569 1_665
Ir1 P6 2.524783 1_554
Ir1 P6 2.577949 1_555
Ir1 Ir11 2.809448 1_554
Ir1 Ir11 2.836503 1_555
Ir1 Ir6 2.911132 1_655
Ir2 P3 2.321102 1_655
Ir2 P0 2.402569 1_655
Ir2 P4 2.524783 1_554
Ir2 P4 2.577949 1_555
Ir2 Ir9 2.809448 1_554
Ir2 Ir9 2.836503 1_555
Ir2 Ir7 2.911132 1_545
Ir3 P4 2.321102 1_565
Ir3 P0 2.402569 1_665
Ir3 P2 2.524783 1_556
Ir3 P2 2.577949 1_555
Ir3 Ir7 2.809448 1_556
Ir3 Ir7 2.836503 1_555
Ir4 P5 2.321102 1_555
Ir4 P0 2.402569 1_555
Ir4 P3 2.524783 1_556
Ir4 P3 2.577949 1_555
Ir4 Ir8 2.809448 1_556
Ir4 Ir8 2.836503 1_555
Ir4 Ir9 2.911132 1_455
Ir5 P6 2.321102 1_455
Ir5 P0 2.402569 1_565
Ir5 P1 2.524783 1_556
Ir5 P1 2.577949 1_555
Ir5 Ir6 2.809448 1_556
Ir5 Ir6 2.836503 1_555
Ir6 P3 2.313061 1_555
Ir6 P1 2.323905 1_555
Ir6 P6 2.600625 1_454
Ir6 P6 2.622842 1_455
Ir6 Ir9 2.768719 1_455
Ir6 Ir9 2.769169 1_454
Ir7 P1 2.313061 1_555
Ir7 P2 2.323905 1_555
Ir7 P4 2.600625 1_564
Ir7 P4 2.622842 1_565
Ir8 P2 2.313061 1_555
Ir8 P3 2.323905 1_555
Ir8 P5 2.600625 1_554
Ir8 P5 2.622842 1_555
Ir9 P6 2.313061 1_555
Ir9 P4 2.323905 1_555
Ir9 P3 2.600625 1_656
Ir9 P3 2.622842 1_655
Ir10 P4 2.313061 1_555
Ir10 P5 2.323905 1_555
Ir10 P1 2.600625 1_546
Ir10 P1 2.622842 1_545
Ir10 Ir7 2.768719 1_545
Ir10 Ir7 2.769169 1_546
Ir10 Ir5 2.911132 1_545
Ir11 P5 2.313061 1_555
Ir11 P6 2.323905 1_555
Ir11 P2 2.600625 1_556
Ir11 P2 2.622842 1_555
Ir11 Ir8 2.768719 1_555
Ir11 Ir8 2.769169 1_556
Ir11 Ir3 2.911132 1_555
