# generated using pymatgen
data_Sr2YCu2SnO7
_symmetry_space_group_name_H-M   'P 1'
_cell_length_a   12.67301010
_cell_length_b   12.67301010
_cell_length_c   12.67301010
_cell_angle_alpha   155.02538031
_cell_angle_beta   154.78872864
_cell_angle_gamma   35.78291806
_symmetry_Int_Tables_number   1
_chemical_formula_structural   Sr2YCu2SnO7
_chemical_formula_sum   'Sr4 Y2 Cu4 Sn2 O14'
_cell_volume   365.60117617
_cell_formula_units_Z   2
loop_
 _symmetry_equiv_pos_site_id
 _symmetry_equiv_pos_as_xyz
  1  'x, y, z'
loop_
 _atom_site_type_symbol
 _atom_site_label
 _atom_site_symmetry_multiplicity
 _atom_site_fract_x
 _atom_site_fract_y
 _atom_site_fract_z
 _atom_site_occupancy
  Sr  Sr0  1  0.63186500  0.62530900  0.97636100  1
  Sr  Sr1  1  0.36813500  0.34449700  0.99344400  1
  Sr  Sr2  1  0.14894800  0.12530900  0.99344400  1
  Sr  Sr3  1  0.85105200  0.84449700  0.97636100  1
  Y  Y0  1  0.00000000  0.98698200  0.98698200  1
  Y  Y1  1  0.50000000  0.48698200  0.98698200  1
  Cu  Cu0  1  0.56639500  0.04975900  0.48750300  1
  Cu  Cu1  1  0.43360500  0.92110800  0.48336400  1
  Cu  Cu2  1  0.06225600  0.54975900  0.48336400  1
  Cu  Cu3  1  0.93774400  0.42110800  0.48750300  1
  Sn  Sn0  1  0.21145000  0.76651100  0.47796000  1
  Sn  Sn1  1  0.78855000  0.26651100  0.55506100  1
  O  O0  1  0.85368800  0.64329400  0.99698300  1
  O  O1  1  0.14631200  0.14329400  0.78960600  1
  O  O2  1  0.32013500  0.30331800  0.50311400  1
  O  O3  1  0.67986500  0.18297900  0.98318300  1
  O  O4  1  0.30020400  0.80331800  0.98318300  1
  O  O5  1  0.69979600  0.68297900  0.50311400  1
  O  O6  1  0.80543300  0.78990500  0.47113900  1
  O  O7  1  0.19456700  0.66570600  0.98447200  1
  O  O8  1  0.81876500  0.28990500  0.98447200  1
  O  O9  1  0.18123500  0.16570600  0.47113900  1
  O  O10  1  0.20477900  0.62996400  0.49658100  1
  O  O11  1  0.79522100  0.29180200  0.42518500  1
  O  O12  1  0.63338300  0.12996400  0.42518500  1
  O  O13  1  0.36661700  0.79180200  0.49658100  1
loop_
_geom_bond_atom_site_label_1
_geom_bond_atom_site_label_2
_geom_bond_distance
_geom_bond_site_symmetry_2
Cu0 O8 1.936639 1_555
Cu0 O6 1.943549 1_545
Cu0 O2 1.948928 1_555
Cu0 O4 1.968259 1_544
Cu0 O12 2.538922 1_555
Cu1 O9 1.936635 1_565
Cu1 O7 1.943549 1_554
Cu1 O3 1.948928 1_565
Cu1 O5 1.968259 1_555
Cu1 O13 2.538922 1_555
Cu2 O6 1.936638 1_455
Cu2 O8 1.943550 1_454
Cu2 O4 1.948928 1_555
Cu2 O2 1.968259 1_555
Cu2 O10 2.538922 1_555
Cu3 O7 1.936638 1_655
Cu3 O9 1.943554 1_655
Cu3 O5 1.948928 1_555
Cu3 O3 1.968259 1_554
Cu3 O11 2.538922 1_555
O0 Sn0 2.090993 1_656
O0 Sn1 2.096125 1_555
O0 Sr0 2.761356 1_555
O0 Sr3 2.761392 1_555
O1 Sn1 2.091000 1_455
O1 Sn0 2.096124 1_545
O1 Sr2 2.761368 1_555
O1 Sr1 2.761379 1_555
O2 Y1 2.378008 1_555
O2 Y0 2.478921 1_544
O2 Sr0 2.672192 1_555
O2 Sr2 2.771783 1_554
O3 Y1 2.378008 1_555
O3 Y0 2.478921 1_645
O3 Sr1 2.672186 1_555
O3 Sr3 2.771772 1_545
O4 Y0 2.378008 1_555
O4 Y1 2.478921 1_555
O4 Sr2 2.672192 1_565
O4 Sr0 2.771783 1_555
O5 Y0 2.378008 1_655
O5 Y1 2.478921 1_554
O5 Sr3 2.672184 1_555
O5 Sr1 2.771774 1_554
O6 Y1 2.407735 1_554
O6 Y0 2.505350 1_655
O6 Sr0 2.698289 1_554
O6 Sr2 2.775764 1_665
O7 Y1 2.407735 1_555
O7 Y0 2.505350 1_555
O7 Sr1 2.698277 1_555
O7 Sr3 2.775759 1_455
O8 Y0 2.407730 1_645
O8 Y1 2.505340 1_555
O8 Sr2 2.698300 1_655
O8 Sr0 2.775769 1_555
O9 Y0 2.407727 1_544
O9 Y1 2.505343 1_555
O9 Sr3 2.698289 1_444
O9 Sr1 2.775764 1_555
O10 Sn0 2.017709 1_555
O10 Sr0 2.617503 1_555
O10 Sr2 2.702875 1_554
O10 Sr2 2.957766 1_565
O10 Sr0 3.091691 1_454
O11 Sn1 2.017697 1_555
O11 Sr1 2.617509 1_554
O11 Sr3 2.702876 1_544
O11 Sr3 2.957771 1_555
O11 Sr1 3.091691 1_655
O12 Sn1 2.017697 1_555
O12 Sr2 2.617503 1_554
O12 Sr0 2.702875 1_544
O12 Sr0 2.957766 1_555
O12 Sr2 3.091691 1_655
O13 Sn0 2.017686 1_555
O13 Sr3 2.617503 1_555
O13 Sr1 2.702876 1_554
O13 Sr1 2.957771 1_565
O13 Sr3 3.091696 1_454
