# generated using pymatgen
data_Sr2SiO4
_symmetry_space_group_name_H-M   'P 1'
_cell_length_a   7.09729398
_cell_length_b   5.68068270
_cell_length_c   11.01353724
_cell_angle_alpha   62.13802631
_cell_angle_beta   90.00000000
_cell_angle_gamma   90.00000000
_symmetry_Int_Tables_number   1
_chemical_formula_structural   Sr2SiO4
_chemical_formula_sum   'Sr8 Si4 O16'
_cell_volume   392.56334806
_cell_formula_units_Z   4
loop_
 _symmetry_equiv_pos_site_id
 _symmetry_equiv_pos_as_xyz
  1  'x, y, z'
loop_
 _atom_site_type_symbol
 _atom_site_label
 _atom_site_symmetry_multiplicity
 _atom_site_fract_x
 _atom_site_fract_y
 _atom_site_fract_z
 _atom_site_occupancy
  Sr  Sr0  1  0.49982140  0.02909043  0.19749639  1
  Sr  Sr1  1  -0.00017860  0.97090957  0.30250361  1
  Sr  Sr2  1  0.50017860  0.97090957  0.80250361  1
  Sr  Sr3  1  0.00017860  0.02909043  0.69749639  1
  Sr  Sr4  1  0.15781855  0.31321330  0.92317101  1
  Sr  Sr5  1  0.65781855  0.68678670  0.57682899  1
  Sr  Sr6  1  0.84218145  0.68678670  0.07682899  1
  Sr  Sr7  1  0.34218145  0.31321330  0.42317101  1
  Si  Si0  1  0.72118107  0.33997285  0.91841606  1
  Si  Si1  1  0.22118107  0.66002715  0.58158394  1
  Si  Si2  1  0.27881893  0.66002715  0.08158394  1
  Si  Si3  1  0.77881893  0.33997285  0.41841606  1
  O  O0  1  0.76849285  0.65463286  0.82163654  1
  O  O1  1  0.26849285  0.34536714  0.67836346  1
  O  O2  1  0.23150715  0.34536714  0.17836346  1
  O  O3  1  0.73150715  0.65463286  0.32163654  1
  O  O4  1  0.82235548  0.15586123  0.85819163  1
  O  O5  1  0.32235548  0.84413877  0.64180837  1
  O  O6  1  0.17764452  0.84413877  0.14180837  1
  O  O7  1  0.67764452  0.15586123  0.35819163  1
  O  O8  1  0.81912833  0.24340596  0.07028903  1
  O  O9  1  0.31912833  0.75659404  0.42971097  1
  O  O10  1  0.18087167  0.75659404  0.92971097  1
  O  O11  1  0.68087167  0.24340596  0.57028903  1
  O  O12  1  0.00406640  0.29073571  0.43027908  1
  O  O13  1  0.50406640  0.70926429  0.06972092  1
  O  O14  1  0.99593360  0.70926429  0.56972092  1
  O  O15  1  0.49593360  0.29073571  0.93027908  1
loop_
_geom_bond_atom_site_label_1
_geom_bond_atom_site_label_2
_geom_bond_distance
_geom_bond_site_symmetry_2
O0 Si0 1.631915 1_555
O0 Sr3 2.525799 1_665
O0 Sr2 2.558306 1_555
O0 Sr5 2.731213 1_555
O0 Sr6 2.947207 1_556
O1 Si1 1.631915 1_555
O1 Sr2 2.525799 1_545
O1 Sr3 2.558306 1_555
O1 Sr4 2.731213 1_555
O1 Sr7 2.947207 1_555
O2 Si2 1.631915 1_555
O2 Sr1 2.525799 1_545
O2 Sr0 2.558306 1_555
O2 Sr7 2.731213 1_555
O2 Sr4 2.947207 1_554
O3 Si3 1.631915 1_555
O3 Sr0 2.525799 1_565
O3 Sr1 2.558306 1_655
O3 Sr6 2.731213 1_555
O3 Sr5 2.947207 1_555
O4 Si0 1.642508 1_555
O4 Sr3 2.536724 1_655
O4 Sr6 2.630818 1_546
O4 Sr2 2.703849 1_545
O4 Sr4 2.752756 1_655
O5 Si1 1.642508 1_555
O5 Sr2 2.536724 1_555
O5 Sr7 2.630818 1_565
O5 Sr3 2.703849 1_565
O5 Sr5 2.752756 1_555
O6 Si2 1.642508 1_555
O6 Sr1 2.536724 1_555
O6 Sr4 2.630818 1_564
O6 Sr0 2.703849 1_565
O6 Sr6 2.752756 1_455
O7 Si3 1.642508 1_555
O7 Sr0 2.536724 1_555
O7 Sr5 2.630818 1_545
O7 Sr1 2.703849 1_645
O7 Sr7 2.752756 1_555
O8 Si0 1.650553 1_554
O8 Sr6 2.558398 1_555
O8 Sr1 2.623223 1_645
O8 Sr0 2.643196 1_555
O8 Sr4 2.821384 1_654
O8 Sr6 3.133238 1_545
O9 Si1 1.650553 1_555
O9 Sr7 2.558398 1_555
O9 Sr0 2.623223 1_565
O9 Sr1 2.643196 1_555
O9 Sr5 2.821384 1_555
O9 Sr7 3.133238 1_565
O10 Si2 1.650553 1_556
O10 Sr4 2.558398 1_555
O10 Sr3 2.623223 1_565
O10 Sr2 2.643196 1_555
O10 Sr6 2.821384 1_456
O10 Sr4 3.133238 1_565
O11 Si3 1.650553 1_555
O11 Sr5 2.558398 1_555
O11 Sr2 2.623223 1_545
O11 Sr3 2.643196 1_655
O11 Sr7 2.821384 1_555
O11 Sr5 3.133238 1_545
O12 Si3 1.617659 1_455
O12 Sr7 2.402428 1_555
O12 Sr3 2.604352 1_555
O12 Sr1 2.769824 1_545
O13 Si2 1.617659 1_555
O13 Sr6 2.402428 1_555
O13 Sr2 2.604352 1_554
O13 Sr0 2.769824 1_565
O14 Si1 1.617659 1_655
O14 Sr5 2.402428 1_555
O14 Sr1 2.604352 1_655
O14 Sr3 2.769824 1_665
O15 Si0 1.617659 1_555
O15 Sr4 2.402428 1_555
O15 Sr0 2.604352 1_556
O15 Sr2 2.769824 1_545
