# generated using pymatgen
data_YFeF5
_symmetry_space_group_name_H-M   'P 1'
_cell_length_a   5.81826070
_cell_length_b   5.81826070
_cell_length_c   5.81826070
_cell_angle_alpha   137.34482920
_cell_angle_beta   106.21717501
_cell_angle_gamma   89.15635073
_symmetry_Int_Tables_number   1
_chemical_formula_structural   YFeF5
_chemical_formula_sum   'Y1 Fe1 F5'
_cell_volume   122.52087481
_cell_formula_units_Z   1
loop_
 _symmetry_equiv_pos_site_id
 _symmetry_equiv_pos_as_xyz
  1  'x, y, z'
loop_
 _atom_site_type_symbol
 _atom_site_label
 _atom_site_symmetry_multiplicity
 _atom_site_fract_x
 _atom_site_fract_y
 _atom_site_fract_z
 _atom_site_occupancy
  Y  Y0  1  0.50000000  0.50000000  0.00000000  1
  Fe  Fe0  1  0.00000000  0.00000000  0.00000000  1
  F  F0  1  0.81444800  0.50000000  0.31444800  1
  F  F1  1  0.18555200  0.50000000  0.68555200  1
  F  F2  1  0.23232300  0.23232300  0.00000000  1
  F  F3  1  0.76767700  0.76767700  0.00000000  1
  F  F4  1  0.50000000  0.00000000  0.50000000  1
loop_
_geom_bond_atom_site_label_1
_geom_bond_atom_site_label_2
_geom_bond_distance
_geom_bond_site_symmetry_2
F0 Y0 2.196548 1_555
F0 Fe0 2.481512 1_655
F0 Fe0 2.481512 1_666
F1 Y0 2.196548 1_556
F1 Fe0 2.481512 1_555
F1 Fe0 2.481512 1_566
F2 Fe0 1.925637 1_555
F2 Y0 2.218672 1_555
F3 Fe0 1.925637 1_665
F3 Y0 2.218672 1_555
F4 Y0 2.116100 1_556
F4 Y0 2.116100 1_545
