# generated using pymatgen
data_ZnB4O7
_symmetry_space_group_name_H-M   'P 1'
_cell_length_a   8.12698724
_cell_length_b   8.64621306
_cell_length_c   13.75648787
_cell_angle_alpha   90.00000000
_cell_angle_beta   90.00000000
_cell_angle_gamma   90.00000000
_symmetry_Int_Tables_number   1
_chemical_formula_structural   ZnB4O7
_chemical_formula_sum   'Zn8 B32 O56'
_cell_volume   966.63625664
_cell_formula_units_Z   8
loop_
 _symmetry_equiv_pos_site_id
 _symmetry_equiv_pos_as_xyz
  1  'x, y, z'
loop_
 _atom_site_type_symbol
 _atom_site_label
 _atom_site_symmetry_multiplicity
 _atom_site_fract_x
 _atom_site_fract_y
 _atom_site_fract_z
 _atom_site_occupancy
  Zn  Zn0  1  0.60654807  0.12457754  0.38125568  1
  Zn  Zn1  1  0.10654807  0.37542246  0.61874432  1
  Zn  Zn2  1  0.39345193  0.62457754  0.11874432  1
  Zn  Zn3  1  0.89345193  0.87542246  0.88125568  1
  Zn  Zn4  1  0.39345193  0.87542246  0.61874432  1
  Zn  Zn5  1  0.89345193  0.62457754  0.38125568  1
  Zn  Zn6  1  0.60654807  0.37542246  0.88125568  1
  Zn  Zn7  1  0.10654807  0.12457754  0.11874432  1
  B  B0  1  0.16089363  0.13701786  0.46328365  1
  B  B1  1  0.66089363  0.36298214  0.53671635  1
  B  B2  1  0.83910637  0.63701786  0.03671635  1
  B  B3  1  0.33910637  0.86298214  0.96328365  1
  B  B4  1  0.83910637  0.86298214  0.53671635  1
  B  B5  1  0.33910637  0.63701786  0.46328365  1
  B  B6  1  0.16089363  0.36298214  0.96328365  1
  B  B7  1  0.66089363  0.13701786  0.03671635  1
  B  B8  1  0.96553902  0.08549594  0.33134243  1
  B  B9  1  0.46553902  0.41450406  0.66865757  1
  B  B10  1  0.03446098  0.58549594  0.16865757  1
  B  B11  1  0.53446098  0.91450406  0.83134243  1
  B  B12  1  0.03446098  0.91450406  0.66865757  1
  B  B13  1  0.53446098  0.58549594  0.33134243  1
  B  B14  1  0.96553902  0.41450406  0.83134243  1
  B  B15  1  0.46553902  0.08549594  0.16865757  1
  B  B16  1  0.03318063  0.35275551  0.27003063  1
  B  B17  1  0.53318063  0.14724449  0.72996937  1
  B  B18  1  0.96681937  0.85275551  0.22996937  1
  B  B19  1  0.46681937  0.64724449  0.77003063  1
  B  B20  1  0.96681937  0.64724449  0.72996937  1
  B  B21  1  0.46681937  0.85275551  0.27003063  1
  B  B22  1  0.03318063  0.14724449  0.77003063  1
  B  B23  1  0.53318063  0.35275551  0.22996937  1
  B  B24  1  0.91378805  0.30334505  0.43647198  1
  B  B25  1  0.41378805  0.19665495  0.56352802  1
  B  B26  1  0.08621195  0.80334505  0.06352802  1
  B  B27  1  0.58621195  0.69665495  0.93647198  1
  B  B28  1  0.08621195  0.69665495  0.56352802  1
  B  B29  1  0.58621195  0.80334505  0.43647198  1
  B  B30  1  0.91378805  0.19665495  0.93647198  1
  B  B31  1  0.41378805  0.30334505  0.06352802  1
  O  O0  1  0.11340129  0.05301300  0.38600947  1
  O  O1  1  0.61340129  0.44698700  0.61399053  1
  O  O2  1  0.88659871  0.55301300  0.11399053  1
  O  O3  1  0.38659871  0.94698700  0.88600947  1
  O  O4  1  0.88659871  0.94698700  0.61399053  1
  O  O5  1  0.38659871  0.55301300  0.38600947  1
  O  O6  1  0.11340129  0.44698700  0.88600947  1
  O  O7  1  0.61340129  0.05301300  0.11399053  1
  O  O8  1  0.84401930  0.16795549  0.39037858  1
  O  O9  1  0.34401930  0.33204451  0.60962142  1
  O  O10  1  0.15598070  0.66795549  0.10962142  1
  O  O11  1  0.65598070  0.83204451  0.89037858  1
  O  O12  1  0.15598070  0.83204451  0.60962142  1
  O  O13  1  0.65598070  0.66795549  0.39037858  1
  O  O14  1  0.84401930  0.33204451  0.89037858  1
  O  O15  1  0.34401930  0.16795549  0.10962142  1
  O  O16  1  0.01785095  0.19718277  0.24863828  1
  O  O17  1  0.51785095  0.30281723  0.75136172  1
  O  O18  1  0.98214905  0.69718277  0.25136172  1
  O  O19  1  0.48214905  0.80281723  0.74863828  1
  O  O20  1  0.98214905  0.80281723  0.75136172  1
  O  O21  1  0.48214905  0.69718277  0.24863828  1
  O  O22  1  0.01785095  0.30281723  0.74863828  1
  O  O23  1  0.51785095  0.19718277  0.25136172  1
  O  O24  1  0.60553915  0.44687511  0.29502428  1
  O  O25  1  0.10553915  0.05312489  0.70497572  1
  O  O26  1  0.39446085  0.94687511  0.20497572  1
  O  O27  1  0.89446085  0.55312489  0.79502428  1
  O  O28  1  0.39446085  0.55312489  0.70497572  1
  O  O29  1  0.89446085  0.94687511  0.29502428  1
  O  O30  1  0.60553915  0.05312489  0.79502428  1
  O  O31  1  0.10553915  0.44687511  0.20497572  1
  O  O32  1  0.97640481  0.40943612  0.35792996  1
  O  O33  1  0.47640481  0.09056388  0.64207004  1
  O  O34  1  0.02359519  0.90943612  0.14207004  1
  O  O35  1  0.52359519  0.59056388  0.85792996  1
  O  O36  1  0.02359519  0.59056388  0.64207004  1
  O  O37  1  0.52359519  0.90943612  0.35792996  1
  O  O38  1  0.97640481  0.09056388  0.85792996  1
  O  O39  1  0.47640481  0.40943612  0.14207004  1
  O  O40  1  0.80851984  0.39390461  0.49491204  1
  O  O41  1  0.30851984  0.10609539  0.50508796  1
  O  O42  1  0.19148016  0.89390461  0.00508796  1
  O  O43  1  0.69148016  0.60609539  0.99491204  1
  O  O44  1  0.19148016  0.60609539  0.50508796  1
  O  O45  1  0.69148016  0.89390461  0.49491204  1
  O  O46  1  0.80851984  0.10609539  0.99491204  1
  O  O47  1  0.30851984  0.39390461  0.00508796  1
  O  O48  1  0.05946571  0.25618008  0.49783176  1
  O  O49  1  0.55946571  0.24381992  0.50216824  1
  O  O50  1  0.94053429  0.75618008  0.00216824  1
  O  O51  1  0.44053429  0.74381992  0.99783176  1
  O  O52  1  0.94053429  0.74381992  0.50216824  1
  O  O53  1  0.44053429  0.75618008  0.49783176  1
  O  O54  1  0.05946571  0.24381992  0.99783176  1
  O  O55  1  0.55946571  0.25618008  0.00216824  1
loop_
_geom_bond_atom_site_label_1
_geom_bond_atom_site_label_2
_geom_bond_distance
_geom_bond_site_symmetry_2
B0 O0 1.344073 1_555
B0 O41 1.357061 1_555
B0 O48 1.402452 1_555
B1 O1 1.344073 1_555
B1 O40 1.357061 1_555
B1 O49 1.402452 1_555
B2 O2 1.344073 1_555
B2 O43 1.357061 1_554
B2 O50 1.402452 1_555
B3 O3 1.344073 1_555
B3 O42 1.357061 1_556
B3 O51 1.402452 1_555
B4 O4 1.344073 1_555
B4 O45 1.357061 1_555
B4 O52 1.402452 1_555
B5 O5 1.344073 1_555
B5 O44 1.357061 1_555
B5 O53 1.402452 1_555
B6 O6 1.344073 1_555
B6 O47 1.357061 1_556
B6 O54 1.402452 1_555
B7 O7 1.344073 1_555
B7 O46 1.357061 1_554
B7 O55 1.402452 1_555
B8 O29 1.421197 1_545
B8 O0 1.445145 1_655
B8 O8 1.463968 1_555
B8 O16 1.551664 1_655
B9 O28 1.421197 1_555
B9 O1 1.445145 1_555
B9 O9 1.463968 1_555
B9 O17 1.551664 1_555
B10 O31 1.421197 1_555
B10 O2 1.445145 1_455
B10 O10 1.463968 1_555
B10 O18 1.551664 1_455
B11 O30 1.421197 1_565
B11 O3 1.445145 1_555
B11 O11 1.463968 1_555
B11 O19 1.551664 1_555
B12 O25 1.421197 1_565
B12 O4 1.445145 1_455
B12 O12 1.463968 1_555
B12 O20 1.551664 1_455
B13 O24 1.421197 1_555
B13 O5 1.445145 1_555
B13 O13 1.463968 1_555
B13 O21 1.551664 1_555
B14 O27 1.421197 1_555
B14 O6 1.445145 1_655
B14 O14 1.463968 1_555
B14 O22 1.551664 1_655
B15 O26 1.421197 1_545
B15 O7 1.445145 1_555
B15 O15 1.463968 1_555
B15 O23 1.551664 1_555
B16 O31 1.344968 1_555
B16 O16 1.382555 1_555
B16 O32 1.383910 1_455
B17 O30 1.344968 1_555
B17 O17 1.382555 1_555
B17 O33 1.383910 1_555
B18 O29 1.344968 1_555
B18 O18 1.382555 1_555
B18 O34 1.383910 1_655
B19 O28 1.344968 1_555
B19 O19 1.382555 1_555
B19 O35 1.383910 1_555
B20 O27 1.344968 1_555
B20 O20 1.382555 1_555
B20 O36 1.383910 1_655
B21 O26 1.344968 1_555
B21 O21 1.382555 1_555
B21 O37 1.383910 1_555
B22 O25 1.344968 1_555
B22 O22 1.382555 1_555
B22 O38 1.383910 1_455
B23 O24 1.344968 1_555
B23 O23 1.382555 1_555
B23 O39 1.383910 1_555
B24 O40 1.411131 1_555
B24 O8 1.447025 1_555
B24 O32 1.505914 1_555
B24 O48 1.510120 1_655
B25 O41 1.411131 1_555
B25 O9 1.447025 1_555
B25 O33 1.505914 1_555
B25 O49 1.510120 1_555
B26 O42 1.411131 1_555
B26 O10 1.447025 1_555
B26 O34 1.505914 1_555
B26 O50 1.510120 1_455
B27 O43 1.411131 1_555
B27 O11 1.447025 1_555
B27 O35 1.505914 1_555
B27 O51 1.510120 1_555
B28 O44 1.411131 1_555
B28 O12 1.447025 1_555
B28 O36 1.505914 1_555
B28 O52 1.510120 1_455
B29 O45 1.411131 1_555
B29 O13 1.447025 1_555
B29 O37 1.505914 1_555
B29 O53 1.510120 1_555
B30 O46 1.411131 1_555
B30 O14 1.447025 1_555
B30 O38 1.505914 1_555
B30 O54 1.510120 1_655
B31 O47 1.411131 1_555
B31 O15 1.447025 1_555
B31 O39 1.505914 1_555
B31 O55 1.510120 1_555
O8 Zn0 1.970033 1_555
O9 Zn1 1.970033 1_555
O10 Zn2 1.970033 1_555
O11 Zn3 1.970033 1_555
O12 Zn4 1.970033 1_555
O13 Zn5 1.970033 1_555
O14 Zn6 1.970033 1_555
O15 Zn7 1.970033 1_555
O16 Zn7 2.026487 1_555
O17 Zn6 2.026487 1_555
O18 Zn5 2.026487 1_555
O19 Zn4 2.026487 1_555
O20 Zn3 2.026487 1_555
O21 Zn2 2.026487 1_555
O22 Zn1 2.026487 1_555
O23 Zn0 2.026487 1_555
O32 Zn5 2.004406 1_555
O33 Zn4 2.004406 1_545
O34 Zn7 2.004406 1_565
O35 Zn6 2.004406 1_555
O36 Zn1 2.004406 1_555
O37 Zn0 2.004406 1_565
O38 Zn3 2.004406 1_545
O39 Zn2 2.004406 1_555
O48 Zn1 1.994000 1_555
O49 Zn0 1.994000 1_555
O50 Zn3 1.994000 1_554
O51 Zn2 1.994000 1_556
O52 Zn5 1.994000 1_555
O53 Zn4 1.994000 1_555
O54 Zn7 1.994000 1_556
O55 Zn6 1.994000 1_554
