# generated using pymatgen
data_Ca2S3(NO6)2
_symmetry_space_group_name_H-M   'P 1'
_cell_length_a   10.83200200
_cell_length_b   10.83200200
_cell_length_c   10.83200200
_cell_angle_alpha   90.00000000
_cell_angle_beta   90.00000000
_cell_angle_gamma   90.00000000
_symmetry_Int_Tables_number   1
_chemical_formula_structural   Ca2S3(NO6)2
_chemical_formula_sum   'Ca8 S12 N8 O48'
_cell_volume   1270.94335436
_cell_formula_units_Z   4
loop_
 _symmetry_equiv_pos_site_id
 _symmetry_equiv_pos_as_xyz
  1  'x, y, z'
loop_
 _atom_site_type_symbol
 _atom_site_label
 _atom_site_symmetry_multiplicity
 _atom_site_fract_x
 _atom_site_fract_y
 _atom_site_fract_z
 _atom_site_occupancy
  Ca  Ca0  1  0.33504200  0.33504200  0.33504200  1
  Ca  Ca1  1  0.16495800  0.66495800  0.83504200  1
  Ca  Ca2  1  0.66495800  0.83504200  0.16495800  1
  Ca  Ca3  1  0.83504200  0.16495800  0.66495800  1
  Ca  Ca4  1  0.60325200  0.60325200  0.60325200  1
  Ca  Ca5  1  0.89674800  0.39674800  0.10325200  1
  Ca  Ca6  1  0.39674800  0.10325200  0.89674800  1
  Ca  Ca7  1  0.10325200  0.89674800  0.39674800  1
  S  S0  1  0.01618200  0.21792200  0.37497900  1
  S  S1  1  0.48381800  0.78207800  0.87497900  1
  S  S2  1  0.98381800  0.71792200  0.12502100  1
  S  S3  1  0.37497900  0.01618200  0.21792200  1
  S  S4  1  0.51618200  0.28207800  0.62502100  1
  S  S5  1  0.87497900  0.48381800  0.78207800  1
  S  S6  1  0.12502100  0.98381800  0.71792200  1
  S  S7  1  0.62502100  0.51618200  0.28207800  1
  S  S8  1  0.21792200  0.37497900  0.01618200  1
  S  S9  1  0.71792200  0.12502100  0.98381800  1
  S  S10  1  0.28207800  0.62502100  0.51618200  1
  S  S11  1  0.78207800  0.87497900  0.48381800  1
  N  N0  1  0.04831200  0.04831200  0.04831200  1
  N  N1  1  0.45168800  0.95168800  0.54831200  1
  N  N2  1  0.95168800  0.54831200  0.45168800  1
  N  N3  1  0.54831200  0.45168800  0.95168800  1
  N  N4  1  0.81661200  0.81661200  0.81661200  1
  N  N5  1  0.68338800  0.18338800  0.31661200  1
  N  N6  1  0.18338800  0.31661200  0.68338800  1
  N  N7  1  0.31661200  0.68338800  0.18338800  1
  O  O0  1  0.00977100  0.08643300  0.33542200  1
  O  O1  1  0.49022900  0.91356700  0.83542200  1
  O  O2  1  0.99022900  0.58643300  0.16457800  1
  O  O3  1  0.33542200  0.00977100  0.08643300  1
  O  O4  1  0.50977100  0.41356700  0.66457800  1
  O  O5  1  0.83542200  0.49022900  0.91356700  1
  O  O6  1  0.16457800  0.99022900  0.58643300  1
  O  O7  1  0.66457800  0.50977100  0.41356700  1
  O  O8  1  0.08643300  0.33542200  0.00977100  1
  O  O9  1  0.58643300  0.16457800  0.99022900  1
  O  O10  1  0.41356700  0.66457800  0.50977100  1
  O  O11  1  0.91356700  0.83542200  0.49022900  1
  O  O12  1  0.26977000  0.50873400  0.44501400  1
  O  O13  1  0.23023000  0.49126600  0.94501400  1
  O  O14  1  0.73023000  0.00873400  0.05498600  1
  O  O15  1  0.44501400  0.26977000  0.50873400  1
  O  O16  1  0.76977000  0.99126600  0.55498600  1
  O  O17  1  0.94501400  0.23023000  0.49126600  1
  O  O18  1  0.05498600  0.73023000  0.00873400  1
  O  O19  1  0.55498600  0.76977000  0.99126600  1
  O  O20  1  0.50873400  0.44501400  0.26977000  1
  O  O21  1  0.00873400  0.05498600  0.73023000  1
  O  O22  1  0.99126600  0.55498600  0.76977000  1
  O  O23  1  0.49126600  0.94501400  0.23023000  1
  O  O24  1  0.03616800  0.79959600  0.21973000  1
  O  O25  1  0.46383200  0.20040400  0.71973000  1
  O  O26  1  0.96383200  0.29959600  0.28027000  1
  O  O27  1  0.21973000  0.03616800  0.79959600  1
  O  O28  1  0.53616800  0.70040400  0.78027000  1
  O  O29  1  0.71973000  0.46383200  0.20040400  1
  O  O30  1  0.28027000  0.96383200  0.29959600  1
  O  O31  1  0.78027000  0.53616800  0.70040400  1
  O  O32  1  0.79959600  0.21973000  0.03616800  1
  O  O33  1  0.29959600  0.28027000  0.96383200  1
  O  O34  1  0.70040400  0.78027000  0.53616800  1
  O  O35  1  0.20040400  0.71973000  0.46383200  1
  O  O36  1  0.14755100  0.24904800  0.39782700  1
  O  O37  1  0.35244900  0.75095200  0.89782700  1
  O  O38  1  0.85244900  0.74904800  0.10217300  1
  O  O39  1  0.39782700  0.14755100  0.24904800  1
  O  O40  1  0.64755100  0.25095200  0.60217300  1
  O  O41  1  0.89782700  0.35244900  0.75095200  1
  O  O42  1  0.10217300  0.85244900  0.74904800  1
  O  O43  1  0.60217300  0.64755100  0.25095200  1
  O  O44  1  0.24904800  0.39782700  0.14755100  1
  O  O45  1  0.74904800  0.10217300  0.85244900  1
  O  O46  1  0.25095200  0.60217300  0.64755100  1
  O  O47  1  0.75095200  0.89782700  0.35244900  1
loop_
_geom_bond_atom_site_label_1
_geom_bond_atom_site_label_2
_geom_bond_distance
_geom_bond_site_symmetry_2
Ca0 O36 2.335541 1_555
Ca0 O39 2.335541 1_555
Ca0 O44 2.335541 1_555
Ca0 O20 2.336380 1_555
Ca0 O12 2.336380 1_555
Ca0 O15 2.336380 1_555
Ca1 O37 2.335541 1_555
Ca1 O46 2.335541 1_555
Ca1 O42 2.335541 1_555
Ca1 O13 2.336380 1_555
Ca1 O22 2.336380 1_455
Ca1 O18 2.336380 1_556
Ca2 O47 2.335541 1_555
Ca2 O43 2.335541 1_555
Ca2 O38 2.335541 1_555
Ca2 O23 2.336380 1_555
Ca2 O19 2.336380 1_554
Ca2 O14 2.336380 1_565
Ca3 O41 2.335541 1_555
Ca3 O40 2.335541 1_555
Ca3 O45 2.335541 1_555
Ca3 O17 2.336380 1_555
Ca3 O16 2.336380 1_545
Ca3 O21 2.336380 1_655
Ca4 O34 2.304803 1_555
Ca4 O31 2.304803 1_555
Ca4 O28 2.304803 1_555
Ca4 O10 2.385008 1_555
Ca4 O7 2.385008 1_555
Ca4 O4 2.385008 1_555
Ca5 O29 2.304803 1_555
Ca5 O26 2.304803 1_555
Ca5 O32 2.304803 1_555
Ca5 O2 2.385008 1_555
Ca5 O8 2.385008 1_655
Ca5 O5 2.385008 1_554
Ca6 O25 2.304803 1_555
Ca6 O33 2.304803 1_555
Ca6 O27 2.304803 1_555
Ca6 O9 2.385008 1_555
Ca6 O3 2.385008 1_556
Ca6 O1 2.385008 1_545
Ca7 O35 2.304803 1_555
Ca7 O30 2.304803 1_555
Ca7 O24 2.304803 1_555
Ca7 O6 2.385008 1_555
Ca7 O0 2.385008 1_565
Ca7 O11 2.385008 1_455
O0 S0 1.488966 1_555
O1 S1 1.488966 1_555
O2 S2 1.488966 1_555
O3 S3 1.488966 1_555
O4 S4 1.488966 1_555
O5 S5 1.488966 1_555
O6 S6 1.488966 1_555
O7 S7 1.488966 1_555
O8 S8 1.488966 1_555
O9 S9 1.488966 1_555
O10 S10 1.488966 1_555
O11 S11 1.488966 1_555
O12 S10 1.482799 1_555
O13 S8 1.482799 1_556
O14 S9 1.482799 1_554
O15 S4 1.482799 1_555
O16 S11 1.482799 1_555
O17 S0 1.482799 1_655
O18 S2 1.482799 1_455
O19 S1 1.482799 1_555
O20 S7 1.482799 1_555
O21 S6 1.482799 1_545
O22 S5 1.482799 1_555
O23 S3 1.482799 1_565
O24 S2 1.468564 1_455
O25 S4 1.468564 1_555
O26 S0 1.468564 1_655
O27 S6 1.468564 1_545
O28 S1 1.468564 1_555
O29 S7 1.468564 1_555
O30 S3 1.468564 1_565
O31 S5 1.468564 1_555
O32 S9 1.468564 1_554
O33 S8 1.468564 1_556
O34 S11 1.468564 1_555
O35 S10 1.468564 1_555
O36 S0 1.483180 1_555
O37 S1 1.483180 1_555
O38 S2 1.483180 1_555
O39 S3 1.483180 1_555
O40 S4 1.483180 1_555
O41 S5 1.483180 1_555
O42 S6 1.483180 1_555
O43 S7 1.483180 1_555
O44 S8 1.483180 1_555
O45 S9 1.483180 1_555
O46 S10 1.483180 1_555
O47 S11 1.483180 1_555
