# generated using pymatgen
data_Mg2Al2SiH4O9
_symmetry_space_group_name_H-M   'P 1'
_cell_length_a   5.36121987
_cell_length_b   5.35783393
_cell_length_c   14.12164036
_cell_angle_alpha   90.29329366
_cell_angle_beta   90.26794357
_cell_angle_gamma   60.10125882
_symmetry_Int_Tables_number   1
_chemical_formula_structural   Mg2Al2SiH4O9
_chemical_formula_sum   'Mg4 Al4 Si2 H8 O18'
_cell_volume   351.64454093
_cell_formula_units_Z   2
loop_
 _symmetry_equiv_pos_site_id
 _symmetry_equiv_pos_as_xyz
  1  'x, y, z'
loop_
 _atom_site_type_symbol
 _atom_site_label
 _atom_site_symmetry_multiplicity
 _atom_site_fract_x
 _atom_site_fract_y
 _atom_site_fract_z
 _atom_site_occupancy
  Mg  Mg0  1  0.31682500  0.68358700  0.26373000  1
  Mg  Mg1  1  0.66890300  0.33475500  0.76302000  1
  Mg  Mg2  1  0.98808200  0.35276900  0.26299800  1
  Mg  Mg3  1  0.99789800  0.66493000  0.76234300  1
  Al  Al0  1  0.32012200  0.34595400  0.45954700  1
  Al  Al1  1  0.67089900  0.67509700  0.95916000  1
  Al  Al2  1  0.64419500  0.02635400  0.26430700  1
  Al  Al3  1  0.34167900  0.99148200  0.76418200  1
  Si  Si0  1  0.97697000  0.01639500  0.46176000  1
  Si  Si1  1  0.01381400  0.00500400  0.96148900  1
  H  H0  1  0.67783000  0.31725700  0.12498300  1
  H  H1  1  0.03718400  0.28496100  0.62529800  1
  H  H2  1  0.33511100  0.30494200  0.90441100  1
  H  H3  1  0.65083500  0.72199400  0.40489900  1
  H  H4  1  0.64363400  0.01912700  0.62462900  1
  H  H5  1  0.30785400  0.70013900  0.62458600  1
  H  H6  1  0.34201100  0.99516600  0.12503200  1
  H  H7  1  0.94879700  0.73237300  0.12568600  1
  O  O0  1  0.65192300  0.71127800  0.33612800  1
  O  O1  1  0.02858400  0.99821800  0.84334600  1
  O  O2  1  0.03045000  0.29847700  0.69532800  1
  O  O3  1  0.77845500  0.32602500  0.99950500  1
  O  O4  1  0.64513600  0.00087200  0.69449600  1
  O  O5  1  0.34180300  0.33020400  0.33498500  1
  O  O6  1  0.91932000  0.77607700  0.99928500  1
  O  O7  1  0.32909600  0.68952700  0.69423700  1
  O  O8  1  0.65549000  0.32752400  0.19456100  1
  O  O9  1  0.33521700  0.30940600  0.83555200  1
  O  O10  1  0.64604300  0.68918400  0.83455600  1
  O  O11  1  0.95956400  0.02152100  0.34371800  1
  O  O12  1  0.66203700  0.10067600  0.50549300  1
  O  O13  1  0.95446300  0.71777100  0.19565700  1
  O  O14  1  0.07072500  0.24717800  0.49951000  1
  O  O15  1  0.21510300  0.69608600  0.49935100  1
  O  O16  1  0.32976300  0.91898900  0.00535000  1
  O  O17  1  0.33948600  0.01529900  0.19498400  1
loop_
_geom_bond_atom_site_label_1
_geom_bond_atom_site_label_2
_geom_bond_distance
_geom_bond_site_symmetry_2
Mg0 O17 2.085640 1_565
Mg0 O13 2.088386 1_455
Mg0 O5 2.093027 1_555
Mg0 O8 2.105818 1_555
Mg0 O0 2.131149 1_555
Mg0 O11 2.182827 1_465
Mg1 O2 2.085312 1_655
Mg1 O4 2.088329 1_555
Mg1 O10 2.095502 1_555
Mg1 O7 2.103697 1_555
Mg1 O9 2.128088 1_555
Mg1 O1 2.188724 1_645
Mg2 O17 2.084280 1_655
Mg2 O8 2.086800 1_555
Mg2 O5 2.097365 1_655
Mg2 O13 2.104117 1_555
Mg2 O0 2.133081 1_555
Mg2 O11 2.182984 1_555
Mg3 O4 2.083632 1_565
Mg3 O7 2.084651 1_655
Mg3 O10 2.094627 1_555
Mg3 O2 2.102831 1_655
Mg3 O9 2.129815 1_655
Mg3 O1 2.189633 1_655
Al0 O15 1.758217 1_555
Al0 O14 1.761217 1_555
Al0 O12 1.761876 1_555
Al0 O5 1.762214 1_555
Al1 O3 1.757184 1_555
Al1 O6 1.759475 1_555
Al1 O16 1.760049 1_556
Al1 O10 1.763188 1_555
Al2 O5 1.908421 1_555
Al2 O8 1.921395 1_555
Al2 O13 1.922815 1_545
Al2 O17 1.926515 1_555
Al2 O0 1.956413 1_545
Al2 O11 2.013910 1_555
Al3 O10 1.907901 1_555
Al3 O7 1.920770 1_555
Al3 O2 1.923565 1_565
Al3 O4 1.927389 1_565
Al3 O9 1.960209 1_565
Al3 O1 2.006341 1_555
H0 O8 0.988314 1_555
H1 O2 0.990728 1_555
H2 O9 0.972828 1_555
H3 O0 0.972435 1_555
H4 O4 0.991570 1_555
H5 O7 0.988288 1_555
H6 O17 0.992582 1_565
H7 O13 0.990725 1_555
O1 Si1 1.669972 1_565
O3 Si1 1.634606 1_655
O6 Si1 1.635440 1_665
O11 Si0 1.668722 1_555
O12 Si0 1.637955 1_555
O14 Si0 1.635884 1_455
O15 Si0 1.635737 1_465
O16 Si1 1.637102 1_564
