# generated using pymatgen
data_Er2Si3Ni
_symmetry_space_group_name_H-M   'P 1'
_cell_length_a   4.00702213
_cell_length_b   4.00702213
_cell_length_c   7.86903100
_cell_angle_alpha   90.00000000
_cell_angle_beta   90.00000000
_cell_angle_gamma   120.00000221
_symmetry_Int_Tables_number   1
_chemical_formula_structural   Er2Si3Ni
_chemical_formula_sum   'Er2 Si3 Ni1'
_cell_volume   109.41966001
_cell_formula_units_Z   1
loop_
 _symmetry_equiv_pos_site_id
 _symmetry_equiv_pos_as_xyz
  1  'x, y, z'
loop_
 _atom_site_type_symbol
 _atom_site_label
 _atom_site_symmetry_multiplicity
 _atom_site_fract_x
 _atom_site_fract_y
 _atom_site_fract_z
 _atom_site_occupancy
  Er  Er0  1  0.33333300  0.66666700  0.73984400  1
  Er  Er1  1  0.33333300  0.66666700  0.26015600  1
  Si  Si0  1  0.66666700  0.33333300  0.00000000  1
  Si  Si1  1  0.00000000  0.00000000  0.50000000  1
  Si  Si2  1  0.00000000  0.00000000  0.00000000  1
  Ni  Ni0  1  0.66666700  0.33333300  0.50000000  1
loop_
_geom_bond_atom_site_label_1
_geom_bond_atom_site_label_2
_geom_bond_distance
_geom_bond_site_symmetry_2
Er0 Ni0 2.985652 1_455
Er0 Ni0 2.985652 1_565
Er0 Si1 2.985652 1_565
Er0 Si1 2.985654 1_665
Er0 Si1 2.985654 1_555
Er0 Ni0 2.985657 1_555
Er0 Si0 3.089173 1_456
Er0 Si0 3.089173 1_566
Er0 Si2 3.089174 1_566
Er0 Si2 3.089176 1_556
Er0 Si2 3.089176 1_666
Er0 Si0 3.089179 1_556
Er1 Ni0 2.985652 1_455
Er1 Ni0 2.985652 1_565
Er1 Si1 2.985652 1_565
Er1 Si1 2.985654 1_555
Er1 Si1 2.985654 1_665
Er1 Ni0 2.985657 1_555
Er1 Si0 3.089173 1_455
Er1 Si0 3.089173 1_565
Er1 Si2 3.089174 1_565
Er1 Si2 3.089176 1_555
Er1 Si2 3.089176 1_665
Er1 Si0 3.089179 1_555
Si0 Si2 2.313453 1_655
Si0 Si2 2.313456 1_665
Si0 Si2 2.313456 1_555
Ni0 Si1 2.313453 1_655
Ni0 Si1 2.313456 1_665
Ni0 Si1 2.313456 1_555
