# generated using pymatgen
data_Pr(FeO3)2
_symmetry_space_group_name_H-M   'P 1'
_cell_length_a   5.42472900
_cell_length_b   5.42617000
_cell_length_c   7.68590200
_cell_angle_alpha   90.00000000
_cell_angle_beta   90.00000000
_cell_angle_gamma   90.00000000
_symmetry_Int_Tables_number   1
_chemical_formula_structural   Pr(FeO3)2
_chemical_formula_sum   'Pr2 Fe4 O12'
_cell_volume   226.23838183
_cell_formula_units_Z   2
loop_
 _symmetry_equiv_pos_site_id
 _symmetry_equiv_pos_as_xyz
  1  'x, y, z'
loop_
 _atom_site_type_symbol
 _atom_site_label
 _atom_site_symmetry_multiplicity
 _atom_site_fract_x
 _atom_site_fract_y
 _atom_site_fract_z
 _atom_site_occupancy
  Pr  Pr0  1  0.77210400  0.99223300  0.00000000  1
  Pr  Pr1  1  0.22789600  0.49223300  0.50000000  1
  Fe  Fe0  1  0.25476200  0.99889100  0.74896600  1
  Fe  Fe1  1  0.25476200  0.99889100  0.25103400  1
  Fe  Fe2  1  0.74523800  0.49889100  0.24896600  1
  Fe  Fe3  1  0.74523800  0.49889100  0.75103400  1
  O  O0  1  0.25222300  0.94638600  0.50000000  1
  O  O1  1  0.52272300  0.77259700  0.77694500  1
  O  O2  1  0.52272300  0.77259700  0.22305500  1
  O  O3  1  0.01201700  0.73661100  0.22925000  1
  O  O4  1  0.01201700  0.73661100  0.77075000  1
  O  O5  1  0.75634800  0.53495100  0.50000000  1
  O  O6  1  0.74777700  0.44638600  0.00000000  1
  O  O7  1  0.47727700  0.27259700  0.72305500  1
  O  O8  1  0.47727700  0.27259700  0.27694500  1
  O  O9  1  0.98798300  0.23661100  0.72925000  1
  O  O10  1  0.98798300  0.23661100  0.27075000  1
  O  O11  1  0.24365200  0.03495100  0.00000000  1
loop_
_geom_bond_atom_site_label_1
_geom_bond_atom_site_label_2
_geom_bond_distance
_geom_bond_site_symmetry_2
Fe0 O1 1.914943 1_555
Fe0 O7 1.924177 1_565
Fe0 O0 1.934670 1_555
Fe0 O11 1.940255 1_566
Fe0 O9 1.944538 1_465
Fe0 O4 1.946148 1_555
Fe1 O2 1.914943 1_555
Fe1 O8 1.924177 1_565
Fe1 O0 1.934670 1_555
Fe1 O11 1.940255 1_565
Fe1 O10 1.944538 1_465
Fe1 O3 1.946148 1_555
Fe2 O8 1.914943 1_555
Fe2 O2 1.924177 1_555
Fe2 O6 1.934670 1_555
Fe2 O5 1.940255 1_555
Fe2 O3 1.944538 1_655
Fe2 O10 1.946148 1_555
Fe3 O7 1.914943 1_555
Fe3 O1 1.924177 1_555
Fe3 O6 1.934670 1_556
Fe3 O5 1.940255 1_555
Fe3 O4 1.944538 1_655
Fe3 O9 1.946148 1_555
O0 Pr1 2.467842 1_555
O0 Pr1 2.964797 1_565
O1 Pr0 2.487885 1_556
O1 Pr1 3.066451 1_555
O2 Pr0 2.487885 1_555
O2 Pr1 3.066451 1_555
O3 Pr0 2.592745 1_455
O3 Pr1 2.731337 1_555
O4 Pr0 2.592745 1_456
O4 Pr1 2.731337 1_555
O5 Pr1 2.568501 1_655
O5 Pr1 2.876065 1_555
O6 Pr0 2.467842 1_545
O6 Pr0 2.964797 1_555
O7 Pr1 2.487885 1_555
O7 Pr0 3.066451 1_546
O8 Pr1 2.487885 1_555
O8 Pr0 3.066451 1_545
O9 Pr1 2.592745 1_655
O9 Pr0 2.731337 1_546
O10 Pr1 2.592745 1_655
O10 Pr0 2.731337 1_545
O11 Pr0 2.568501 1_445
O11 Pr0 2.876065 1_545
