# generated using pymatgen
data_Ca4Si3Pd4
_symmetry_space_group_name_H-M   'P 1'
_cell_length_a   10.82064660
_cell_length_b   10.82064660
_cell_length_c   7.81696818
_cell_angle_alpha   71.45214277
_cell_angle_beta   71.45214277
_cell_angle_gamma   30.49497587
_symmetry_Int_Tables_number   1
_chemical_formula_structural   Ca4Si3Pd4
_chemical_formula_sum   'Ca8 Si6 Pd8'
_cell_volume   438.49033071
_cell_formula_units_Z   2
loop_
 _symmetry_equiv_pos_site_id
 _symmetry_equiv_pos_as_xyz
  1  'x, y, z'
loop_
 _atom_site_type_symbol
 _atom_site_label
 _atom_site_symmetry_multiplicity
 _atom_site_fract_x
 _atom_site_fract_y
 _atom_site_fract_z
 _atom_site_occupancy
  Ca  Ca0  1  0.93455467  0.20095521  0.32671392  1
  Ca  Ca1  1  0.06544533  0.79904479  0.67328608  1
  Ca  Ca2  1  0.79904479  0.06544533  0.17328608  1
  Ca  Ca3  1  0.45525414  0.20551770  0.90669160  1
  Ca  Ca4  1  0.79448230  0.54474586  0.59330840  1
  Ca  Ca5  1  0.20551770  0.45525414  0.40669160  1
  Ca  Ca6  1  0.20095521  0.93455467  0.82671392  1
  Ca  Ca7  1  0.54474586  0.79448230  0.09330840  1
  Si  Si0  1  0.30516217  0.03902243  0.43344992  1
  Si  Si1  1  0.38394080  0.61605920  0.25000000  1
  Si  Si2  1  0.03902243  0.30516217  0.93344992  1
  Si  Si3  1  0.69483783  0.96097757  0.56655008  1
  Si  Si4  1  0.96097757  0.69483783  0.06655008  1
  Si  Si5  1  0.61605920  0.38394080  0.75000000  1
  Pd  Pd0  1  0.57431632  0.30253175  0.52418157  1
  Pd  Pd1  1  0.69746825  0.42568368  0.97581843  1
  Pd  Pd2  1  0.30253175  0.57431632  0.02418157  1
  Pd  Pd3  1  0.42568368  0.69746825  0.47581843  1
  Pd  Pd4  1  0.64166073  0.91458986  0.32003707  1
  Pd  Pd5  1  0.91458986  0.64166073  0.82003707  1
  Pd  Pd6  1  0.35833927  0.08541014  0.67996293  1
  Pd  Pd7  1  0.08541014  0.35833927  0.17996293  1
loop_
_geom_bond_atom_site_label_1
_geom_bond_atom_site_label_2
_geom_bond_distance
_geom_bond_site_symmetry_2
Ca0 Pd0 2.941628 1_555
Ca0 Si0 2.989519 1_655
Ca0 Pd7 3.039290 1_655
Ca0 Pd3 3.047472 1_645
Ca0 Pd3 3.075953 1_555
Ca0 Pd1 3.082338 1_554
Ca0 Si2 3.127322 1_654
Ca0 Si1 3.236155 1_555
Ca0 Si1 3.403406 1_645
Ca0 Si5 3.449563 1_555
Ca1 Pd3 2.941628 1_555
Ca1 Si3 2.989519 1_455
Ca1 Pd5 3.039290 1_455
Ca1 Pd0 3.047472 1_465
Ca1 Pd0 3.075953 1_555
Ca1 Pd2 3.082338 1_556
Ca1 Si4 3.127322 1_456
Ca1 Si5 3.236155 1_555
Ca1 Si5 3.403406 1_465
Ca1 Si1 3.449563 1_555
Ca2 Pd1 2.941628 1_554
Ca2 Si4 2.989519 1_545
Ca2 Pd4 3.039290 1_545
Ca2 Pd2 3.047472 1_645
Ca2 Pd2 3.075953 1_555
Ca2 Pd0 3.082338 1_555
Ca2 Si3 3.127322 1_545
Ca2 Si1 3.236155 1_555
Ca2 Si1 3.403406 1_645
Ca2 Si5 3.449563 1_554
Ca3 Pd7 2.952491 1_556
Ca3 Si3 3.010151 1_545
Ca3 Si4 3.058780 1_456
Ca3 Pd2 3.082321 1_556
Ca3 Pd0 3.096021 1_555
Ca3 Pd5 3.140650 1_455
Ca3 Si4 3.144436 1_546
Ca3 Pd5 3.258059 1_545
Ca3 Pd6 3.305535 1_555
Ca3 Pd4 3.339309 1_546
Ca3 Si5 3.344301 1_555
Ca4 Pd4 2.952491 1_555
Ca4 Si2 3.010151 1_655
Ca4 Si0 3.058780 1_565
Ca4 Pd3 3.082321 1_555
Ca4 Pd1 3.096021 1_555
Ca4 Pd6 3.140650 1_565
Ca4 Si0 3.144436 1_655
Ca4 Pd6 3.258059 1_655
Ca4 Pd5 3.305535 1_555
Ca4 Pd7 3.339309 1_655
Ca4 Si5 3.344301 1_555
Ca5 Pd6 2.952491 1_555
Ca5 Si4 3.010151 1_455
Ca5 Si3 3.058780 1_545
Ca5 Pd0 3.082321 1_555
Ca5 Pd2 3.096021 1_555
Ca5 Pd4 3.140650 1_545
Ca5 Si3 3.144436 1_455
Ca5 Pd4 3.258059 1_455
Ca5 Pd7 3.305535 1_555
Ca5 Pd5 3.339309 1_455
Ca5 Si1 3.344301 1_555
Ca6 Pd2 2.941628 1_556
Ca6 Si2 2.989519 1_565
Ca6 Pd6 3.039290 1_565
Ca6 Pd1 3.047472 1_465
Ca6 Pd1 3.075953 1_555
Ca6 Pd3 3.082338 1_555
Ca6 Si0 3.127322 1_565
Ca6 Si5 3.236155 1_555
Ca6 Si5 3.403406 1_465
Ca6 Si1 3.449563 1_556
Ca7 Pd5 2.952491 1_554
Ca7 Si0 3.010151 1_565
Ca7 Si2 3.058780 1_654
Ca7 Pd1 3.082321 1_554
Ca7 Pd3 3.096021 1_555
Ca7 Pd7 3.140650 1_655
Ca7 Si2 3.144436 1_564
Ca7 Pd7 3.258059 1_565
Ca7 Pd4 3.305535 1_555
Ca7 Pd6 3.339309 1_564
Ca7 Si1 3.344301 1_555
Pd0 Si5 2.505634 1_555
Pd0 Si1 2.546720 1_555
Pd0 Si3 2.580595 1_545
Pd1 Si5 2.505634 1_555
Pd1 Si1 2.546720 1_556
Pd1 Si2 2.580595 1_655
Pd2 Si1 2.505634 1_555
Pd2 Si5 2.546720 1_554
Pd2 Si4 2.580595 1_455
Pd3 Si1 2.505634 1_555
Pd3 Si5 2.546720 1_555
Pd3 Si0 2.580595 1_565
Pd4 Si4 2.449875 1_555
Pd4 Si0 2.472578 1_565
Pd4 Si3 2.472818 1_555
Pd5 Si3 2.449875 1_555
Pd5 Si2 2.472578 1_655
Pd5 Si4 2.472818 1_556
Pd6 Si2 2.449875 1_555
Pd6 Si3 2.472578 1_545
Pd6 Si0 2.472818 1_555
Pd7 Si0 2.449875 1_555
Pd7 Si4 2.472578 1_455
Pd7 Si2 2.472818 1_554
