# generated using pymatgen
data_Li4Mn3V3(TeO8)2
_symmetry_space_group_name_H-M   'P 1'
_cell_length_a   5.98940500
_cell_length_b   6.05247663
_cell_length_c   10.19973424
_cell_angle_alpha   90.74691976
_cell_angle_beta   90.92490241
_cell_angle_gamma   118.48922606
_symmetry_Int_Tables_number   1
_chemical_formula_structural   Li4Mn3V3(TeO8)2
_chemical_formula_sum   'Li4 Mn3 V3 Te2 O16'
_cell_volume   324.84110400
_cell_formula_units_Z   1
loop_
 _symmetry_equiv_pos_site_id
 _symmetry_equiv_pos_as_xyz
  1  'x, y, z'
loop_
 _atom_site_type_symbol
 _atom_site_label
 _atom_site_symmetry_multiplicity
 _atom_site_fract_x
 _atom_site_fract_y
 _atom_site_fract_z
 _atom_site_occupancy
  Li  Li0  1  0.67872500  0.33187500  0.09025300  1
  Li  Li1  1  0.98943200  0.99709300  0.01286400  1
  Li  Li2  1  0.99868600  0.99499200  0.50803900  1
  Li  Li3  1  0.32360000  0.67232800  0.60361100  1
  Mn  Mn0  1  0.33203000  0.16726900  0.79146100  1
  Mn  Mn1  1  0.17414500  0.83564700  0.28504000  1
  Mn  Mn2  1  0.16097100  0.33771500  0.28375500  1
  V  V0  1  0.81034200  0.65786100  0.77868000  1
  V  V1  1  0.82522600  0.16691300  0.78457300  1
  V  V2  1  0.65135000  0.80105400  0.27416800  1
  Te  Te0  1  0.66622500  0.32699800  0.49584500  1
  Te  Te1  1  0.31892300  0.67507600  0.00957500  1
  O  O0  1  0.82767600  0.66375100  0.40118900  1
  O  O1  1  0.97250000  0.48483700  0.68083400  1
  O  O2  1  0.66294300  0.33912400  0.88727000  1
  O  O3  1  0.00883600  0.99913500  0.69339100  1
  O  O4  1  0.98771600  0.97764200  0.19756400  1
  O  O5  1  0.82135800  0.15133900  0.40012500  1
  O  O6  1  0.53295500  0.52211500  0.67615000  1
  O  O7  1  0.52361300  0.02915900  0.68165600  1
  O  O8  1  0.70643600  0.86097500  0.89026400  1
  O  O9  1  0.32506400  0.15463400  0.40543500  1
  O  O10  1  0.49916200  0.96361500  0.15237700  1
  O  O11  1  0.52280900  0.52821100  0.17169600  1
  O  O12  1  0.35363500  0.69888300  0.38458300  1
  O  O13  1  0.14437100  0.82689700  0.91065500  1
  O  O14  1  0.04578700  0.53600600  0.14410700  1
  O  O15  1  0.13548700  0.29916400  0.89699800  1
loop_
_geom_bond_atom_site_label_1
_geom_bond_atom_site_label_2
_geom_bond_distance
_geom_bond_site_symmetry_2
Li0 O14 2.003394 1_655
Li0 O11 2.008028 1_555
Li0 O2 2.072995 1_554
Li0 O10 2.073185 1_545
Li1 O4 1.888985 1_555
Li1 O8 1.920405 1_554
Li1 O13 1.980982 1_654
Li1 O15 2.017041 1_664
Li2 O3 1.889992 1_655
Li2 O9 2.034856 1_665
Li2 O5 2.045295 1_565
Li2 O0 2.050419 1_555
Li3 O6 2.005350 1_555
Li3 O1 2.032364 1_455
Li3 O7 2.046785 1_565
Li3 O12 2.245846 1_555
Mn0 O3 1.953192 1_545
Mn0 O2 1.977214 1_555
Mn0 O15 2.024043 1_555
Mn0 O7 2.049855 1_555
Mn0 O13 2.210386 1_545
Mn0 O6 2.256109 1_555
Mn1 O4 1.919578 1_455
Mn1 O12 1.925450 1_555
Mn1 O9 2.071229 1_565
Mn1 O14 2.124306 1_555
Mn1 O0 2.200909 1_455
Mn1 O10 2.212312 1_555
Mn2 O4 2.088621 1_445
Mn2 O12 2.159704 1_555
Mn2 O5 2.177773 1_455
Mn2 O14 2.178957 1_555
Mn2 O9 2.183933 1_555
Mn2 O11 2.250121 1_555
O0 Te0 2.054905 1_555
O0 V2 2.074994 1_555
O1 V0 2.002577 1_555
O1 V1 2.016012 1_555
O1 Te0 2.450978 1_555
O2 V1 2.024658 1_555
O2 V0 2.047019 1_555
O3 V0 2.043096 1_455
O3 V1 2.044323 1_465
O4 V2 1.957038 1_555
O5 Te0 1.972684 1_555
O5 V2 2.238180 1_545
O6 V0 1.774316 1_555
O6 Te0 2.510765 1_555
O7 V1 1.881370 1_555
O7 Te0 2.498695 1_555
O8 V0 1.977414 1_555
O8 V1 1.979153 1_565
O8 Te1 2.401962 1_556
O9 Te0 1.998618 1_555
O10 V2 2.047668 1_555
O10 Te1 2.102648 1_555
O11 V2 1.768710 1_555
O11 Te1 2.454463 1_555
O12 V2 1.965036 1_555
O13 Te1 1.965181 1_556
O13 V0 2.187640 1_455
O14 Te1 2.014099 1_555
O15 V1 1.974111 1_455
O15 Te1 2.282232 1_556
