# generated using pymatgen
data_H8CBrN5O3
_symmetry_space_group_name_H-M   'P 1'
_cell_length_a   8.21402200
_cell_length_b   12.95387800
_cell_length_c   8.08433541
_cell_angle_alpha   90.00000000
_cell_angle_beta   118.37185579
_cell_angle_gamma   90.00000000
_symmetry_Int_Tables_number   1
_chemical_formula_structural   H8CBrN5O3
_chemical_formula_sum   'H32 C4 Br4 N20 O12'
_cell_volume   756.87553844
_cell_formula_units_Z   4
loop_
 _symmetry_equiv_pos_site_id
 _symmetry_equiv_pos_as_xyz
  1  'x, y, z'
loop_
 _atom_site_type_symbol
 _atom_site_label
 _atom_site_symmetry_multiplicity
 _atom_site_fract_x
 _atom_site_fract_y
 _atom_site_fract_z
 _atom_site_occupancy
  H  H0  1  0.46884300  0.62504900  0.39345300  1
  H  H1  1  0.53115700  0.12504900  0.10654700  1
  H  H2  1  0.53115700  0.37495100  0.60654700  1
  H  H3  1  0.46884300  0.87495100  0.89345300  1
  H  H4  1  0.26044100  0.66740400  0.37431000  1
  H  H5  1  0.73955900  0.16740400  0.12569000  1
  H  H6  1  0.73955900  0.33259600  0.62569000  1
  H  H7  1  0.26044100  0.83259600  0.87431000  1
  H  H8  1  0.01376900  0.27923100  0.23657300  1
  H  H9  1  0.98623100  0.77923100  0.26342700  1
  H  H10  1  0.98623100  0.72076900  0.76342700  1
  H  H11  1  0.01376900  0.22076900  0.73657300  1
  H  H12  1  0.25505300  0.43984900  0.83925700  1
  H  H13  1  0.74494700  0.93984900  0.66074300  1
  H  H14  1  0.74494700  0.56015100  0.16074300  1
  H  H15  1  0.25505300  0.06015100  0.33925700  1
  H  H16  1  0.31686800  0.54083400  0.40824900  1
  H  H17  1  0.68313200  0.04083400  0.09175100  1
  H  H18  1  0.68313200  0.45916600  0.59175100  1
  H  H19  1  0.31686800  0.95916600  0.90824900  1
  H  H20  1  0.99003500  0.19987100  0.07794900  1
  H  H21  1  0.00996500  0.69987100  0.42205100  1
  H  H22  1  0.00996500  0.80012900  0.92205100  1
  H  H23  1  0.99003500  0.30012900  0.57794900  1
  H  H24  1  0.10124800  0.54357000  0.80266400  1
  H  H25  1  0.89875200  0.04357000  0.69733600  1
  H  H26  1  0.89875200  0.45643000  0.19733600  1
  H  H27  1  0.10124800  0.95643000  0.30266400  1
  H  H28  1  0.18787700  0.65749700  0.06339100  1
  H  H29  1  0.81212300  0.15749700  0.43660900  1
  H  H30  1  0.81212300  0.34250300  0.93660900  1
  H  H31  1  0.18787700  0.84250300  0.56339100  1
  C  C0  1  0.29231000  0.50977200  0.07788000  1
  C  C1  1  0.70769000  0.00977200  0.42212000  1
  C  C2  1  0.70769000  0.49022800  0.92212000  1
  C  C3  1  0.29231000  0.99022800  0.57788000  1
  Br  Br0  1  0.18195300  0.11241900  0.97094700  1
  Br  Br1  1  0.81804700  0.61241900  0.52905300  1
  Br  Br2  1  0.81804700  0.88758100  0.02905300  1
  Br  Br3  1  0.18195300  0.38758100  0.47094700  1
  N  N0  1  0.42420200  0.45138600  0.21260600  1
  N  N1  1  0.57579800  0.95138600  0.28739400  1
  N  N2  1  0.57579800  0.54861400  0.78739400  1
  N  N3  1  0.42420200  0.04861400  0.71260600  1
  N  N4  1  0.49071500  0.36876300  0.16114100  1
  N  N5  1  0.50928500  0.86876300  0.33885900  1
  N  N6  1  0.50928500  0.63123700  0.83885900  1
  N  N7  1  0.49071500  0.13123700  0.66114100  1
  N  N8  1  0.23353700  0.59107100  0.14522600  1
  N  N9  1  0.76646300  0.09107100  0.35477400  1
  N  N10  1  0.76646300  0.40892900  0.85477400  1
  N  N11  1  0.23353700  0.90892900  0.64522600  1
  N  N12  1  0.32878800  0.60777000  0.34239000  1
  N  N13  1  0.67121200  0.10777000  0.15761000  1
  N  N14  1  0.67121200  0.39223000  0.65761000  1
  N  N15  1  0.32878800  0.89223000  0.84239000  1
  N  N16  1  0.20945100  0.49810800  0.89211200  1
  N  N17  1  0.79054900  0.99810800  0.60788800  1
  N  N18  1  0.79054900  0.50189200  0.10788800  1
  N  N19  1  0.20945100  0.00189200  0.39211200  1
  O  O0  1  0.44291100  0.34612100  0.99266400  1
  O  O1  1  0.55708900  0.84612100  0.50733600  1
  O  O2  1  0.55708900  0.65387900  0.00733600  1
  O  O3  1  0.44291100  0.15387900  0.49266400  1
  O  O4  1  0.60877200  0.31650100  0.29465000  1
  O  O5  1  0.39122800  0.81650100  0.20535000  1
  O  O6  1  0.39122800  0.68349900  0.70535000  1
  O  O7  1  0.60877200  0.18349900  0.79465000  1
  O  O8  1  0.91903800  0.24377200  0.12125000  1
  O  O9  1  0.08096200  0.74377200  0.37875000  1
  O  O10  1  0.08096200  0.75622800  0.87875000  1
  O  O11  1  0.91903800  0.25622800  0.62125000  1
loop_
_geom_bond_atom_site_label_1
_geom_bond_atom_site_label_2
_geom_bond_distance
_geom_bond_site_symmetry_2
H0 N12 1.045288 1_555
H1 N13 1.045288 1_555
H2 N14 1.045288 1_555
H3 N15 1.045288 1_555
H4 N12 1.056500 1_555
H5 N13 1.056500 1_555
H6 N14 1.056500 1_555
H7 N15 1.056500 1_555
H8 O8 0.998100 1_455
H9 O9 0.998100 1_655
H10 O10 0.998100 1_655
H11 O11 0.998100 1_455
H12 N16 1.022030 1_555
H13 N17 1.022030 1_555
H14 N18 1.022030 1_555
H15 N19 1.022030 1_555
H16 N12 1.046154 1_555
H17 N13 1.046154 1_555
H18 N14 1.046154 1_555
H19 N15 1.046154 1_555
H20 O8 0.989976 1_555
H21 O9 0.989976 1_555
H22 O10 0.989976 1_555
H23 O11 0.989976 1_555
H24 N16 1.024132 1_555
H25 N17 1.024132 1_545
H26 N18 1.024132 1_555
H27 N19 1.024132 1_565
H28 N8 1.040651 1_555
H29 N9 1.040651 1_555
H30 N10 1.040651 1_555
H31 N11 1.040651 1_555
C0 N16 1.330437 1_554
C0 N0 1.345576 1_555
C0 N8 1.374183 1_555
C1 N17 1.330437 1_545
C1 N1 1.345576 1_545
C1 N9 1.374183 1_555
C2 N18 1.330437 1_556
C2 N2 1.345576 1_555
C2 N10 1.374183 1_555
C3 N19 1.330437 1_565
C3 N3 1.345576 1_565
C3 N11 1.374183 1_555
Br0 H11 2.231781 1_555
Br1 H10 2.231781 1_555
Br2 H9 2.231781 1_555
Br3 H8 2.231781 1_555
N0 N4 1.353936 1_555
N1 N5 1.353936 1_555
N2 N6 1.353936 1_555
N3 N7 1.353936 1_555
N4 O4 1.252565 1_555
N4 O0 1.259778 1_554
N5 O5 1.252565 1_555
N5 O1 1.259778 1_555
N6 O6 1.252565 1_555
N6 O2 1.259778 1_556
N7 O7 1.252565 1_555
N7 O3 1.259778 1_555
N10 N14 1.419283 1_555
N11 N15 1.419283 1_555
N12 N8 1.419283 1_555
N13 N9 1.419283 1_555
