# generated using pymatgen
data_Yb4Pt
_symmetry_space_group_name_H-M   'P 1'
_cell_length_a   8.20768822
_cell_length_b   8.20768822
_cell_length_c   8.20768822
_cell_angle_alpha   60.00000000
_cell_angle_beta   60.00000000
_cell_angle_gamma   60.00000000
_symmetry_Int_Tables_number   1
_chemical_formula_structural   Yb4Pt
_chemical_formula_sum   'Yb8 Pt2'
_cell_volume   390.97370969
_cell_formula_units_Z   2
loop_
 _symmetry_equiv_pos_site_id
 _symmetry_equiv_pos_as_xyz
  1  'x, y, z'
loop_
 _atom_site_type_symbol
 _atom_site_label
 _atom_site_symmetry_multiplicity
 _atom_site_fract_x
 _atom_site_fract_y
 _atom_site_fract_z
 _atom_site_occupancy
  Yb  Yb0  1  0.61805800  0.61805800  0.61805800  1
  Yb  Yb1  1  0.14582500  0.61805800  0.61805800  1
  Yb  Yb2  1  0.61805800  0.14582500  0.61805800  1
  Yb  Yb3  1  0.60417500  0.13194200  0.13194200  1
  Yb  Yb4  1  0.13194200  0.13194200  0.13194200  1
  Yb  Yb5  1  0.61805800  0.61805800  0.14582500  1
  Yb  Yb6  1  0.13194200  0.60417500  0.13194200  1
  Yb  Yb7  1  0.13194200  0.13194200  0.60417500  1
  Pt  Pt0  1  0.00000000  0.00000000  0.00000000  1
  Pt  Pt1  1  0.75000000  0.75000000  0.75000000  1
loop_
_geom_bond_atom_site_label_1
_geom_bond_atom_site_label_2
_geom_bond_distance
_geom_bond_site_symmetry_2
Pt0 Yb7 2.652641 1_554
Pt0 Yb6 2.652641 1_545
Pt0 Yb3 2.652641 1_455
Pt0 Yb4 2.652647 1_555
Pt1 Yb1 2.652641 1_655
Pt1 Yb2 2.652641 1_565
Pt1 Yb5 2.652641 1_556
Pt1 Yb0 2.652647 1_555
