# generated using pymatgen
data_Mg6GaW
_symmetry_space_group_name_H-M   'P 1'
_cell_length_a   4.95394800
_cell_length_b   5.86272300
_cell_length_c   10.70636200
_cell_angle_alpha   90.00000000
_cell_angle_beta   90.00000000
_cell_angle_gamma   90.00000000
_symmetry_Int_Tables_number   1
_chemical_formula_structural   Mg6GaW
_chemical_formula_sum   'Mg12 Ga2 W2'
_cell_volume   310.95156176
_cell_formula_units_Z   2
loop_
 _symmetry_equiv_pos_site_id
 _symmetry_equiv_pos_as_xyz
  1  'x, y, z'
loop_
 _atom_site_type_symbol
 _atom_site_label
 _atom_site_symmetry_multiplicity
 _atom_site_fract_x
 _atom_site_fract_y
 _atom_site_fract_z
 _atom_site_occupancy
  Mg  Mg0  1  0.50000000  0.24841800  0.41975300  1
  Mg  Mg1  1  0.50000000  0.75158200  0.41975300  1
  Mg  Mg2  1  0.00000000  0.76003500  0.08517800  1
  Mg  Mg3  1  0.00000000  0.23996500  0.08517800  1
  Mg  Mg4  1  0.00000000  0.00000000  0.32270800  1
  Mg  Mg5  1  0.00000000  0.50000000  0.32832400  1
  Mg  Mg6  1  0.50000000  0.74841800  0.91975300  1
  Mg  Mg7  1  0.50000000  0.25158200  0.91975300  1
  Mg  Mg8  1  0.00000000  0.26003500  0.58517800  1
  Mg  Mg9  1  0.00000000  0.73996500  0.58517800  1
  Mg  Mg10  1  0.00000000  0.50000000  0.82270800  1
  Mg  Mg11  1  0.00000000  0.00000000  0.82832400  1
  Ga  Ga0  1  0.50000000  0.50000000  0.16791400  1
  Ga  Ga1  1  0.50000000  0.00000000  0.66791400  1
  W  W0  1  0.50000000  0.00000000  0.17119000  1
  W  W1  1  0.50000000  0.50000000  0.67119000  1
loop_
_geom_bond_atom_site_label_1
_geom_bond_atom_site_label_2
_geom_bond_distance
_geom_bond_site_symmetry_2
Mg0 Mg1 2.912812 1_545
Mg0 Mg1 2.949911 1_555
Mg0 W0 3.033667 1_555
Mg0 Mg5 3.044517 1_655
Mg0 Mg5 3.044517 1_555
Mg0 Mg8 3.045790 1_655
Mg0 Mg8 3.045790 1_555
Mg0 Mg4 3.055493 1_555
Mg0 Mg4 3.055493 1_655
Mg0 W1 3.069565 1_555
Mg1 W0 3.033667 1_565
Mg1 Mg5 3.044517 1_655
Mg1 Mg5 3.044517 1_555
Mg1 Mg9 3.045790 1_555
Mg1 Mg9 3.045790 1_655
Mg1 Mg4 3.055493 1_565
Mg1 Mg4 3.055493 1_665
Mg1 W1 3.069565 1_555
Mg2 Mg3 2.813697 1_565
Mg2 Mg4 2.906284 1_565
Mg2 W0 2.993766 1_565
Mg2 W0 2.993766 1_465
Mg2 Mg5 3.016760 1_555
Mg2 Mg6 3.045790 1_554
Mg2 Mg6 3.045790 1_454
Mg2 Mg3 3.049026 1_555
Mg3 Mg4 2.906284 1_555
Mg3 W0 2.993766 1_455
Mg3 W0 2.993766 1_555
Mg3 Mg5 3.016760 1_555
Mg3 Mg7 3.045790 1_554
Mg3 Mg7 3.045790 1_454
Mg4 Mg5 2.931978 1_545
Mg4 Mg5 2.931978 1_555
Mg4 W0 2.960904 1_455
Mg4 W0 2.960904 1_555
Mg4 Mg8 3.196998 1_555
Mg4 Mg9 3.196998 1_545
Mg5 Mg9 3.088943 1_555
Mg5 Mg8 3.088943 1_555
Mg6 Mg7 2.912812 1_555
Mg6 Mg7 2.949911 1_565
Mg6 W1 3.033667 1_555
Mg6 W0 3.069565 1_566
Mg7 W1 3.033667 1_555
Mg7 W0 3.069565 1_556
Mg8 Mg9 2.813697 1_555
Mg8 W1 2.993766 1_455
Mg8 W1 2.993766 1_555
Mg8 Mg9 3.049026 1_545
Mg9 W1 2.993766 1_555
Mg9 W1 2.993766 1_455
Mg10 Mg9 2.906284 1_555
Mg10 Mg8 2.906284 1_555
Mg10 Mg11 2.931978 1_565
Mg10 Mg11 2.931978 1_555
Mg10 W1 2.960904 1_555
Mg10 W1 2.960904 1_455
Mg10 Mg6 3.055493 1_455
Mg10 Mg6 3.055493 1_555
Mg10 Mg7 3.055493 1_455
Mg10 Mg7 3.055493 1_555
Mg10 Mg2 3.196998 1_556
Mg10 Mg3 3.196998 1_556
Mg11 Mg8 3.016760 1_555
Mg11 Mg9 3.016760 1_545
Mg11 Mg7 3.044517 1_455
Mg11 Mg7 3.044517 1_555
Mg11 Mg6 3.044517 1_545
Mg11 Mg6 3.044517 1_445
Mg11 Mg3 3.088943 1_556
Mg11 Mg2 3.088943 1_546
Ga0 W0 2.931571 1_555
Ga0 W0 2.931571 1_565
Ga0 Mg5 3.014115 1_655
Ga0 Mg5 3.014115 1_555
Ga0 Mg6 3.029892 1_554
Ga0 Mg7 3.029892 1_554
Ga0 Mg2 3.040425 1_555
Ga0 Mg2 3.040425 1_655
Ga0 Mg3 3.040425 1_555
Ga0 Mg3 3.040425 1_655
Ga0 Mg1 3.073340 1_555
Ga0 Mg0 3.073340 1_555
Ga1 W1 2.931571 1_545
Ga1 W1 2.931571 1_555
Ga1 Mg11 3.014115 1_655
Ga1 Mg11 3.014115 1_555
Ga1 Mg1 3.029892 1_545
Ga1 Mg0 3.029892 1_555
Ga1 Mg8 3.040425 1_555
Ga1 Mg8 3.040425 1_655
Ga1 Mg9 3.040425 1_645
Ga1 Mg9 3.040425 1_545
Ga1 Mg7 3.073340 1_555
Ga1 Mg6 3.073340 1_545
