# generated using pymatgen
data_Mn2Al2Cu
_symmetry_space_group_name_H-M   'P 1'
_cell_length_a   17.47207586
_cell_length_b   17.47207586
_cell_length_c   17.47207586
_cell_angle_alpha   161.97377589
_cell_angle_beta   161.97377589
_cell_angle_gamma   25.60034018
_symmetry_Int_Tables_number   1
_chemical_formula_structural   Mn2Al2Cu
_chemical_formula_sum   'Mn16 Al16 Cu8'
_cell_volume   510.60295979
_cell_formula_units_Z   8
loop_
 _symmetry_equiv_pos_site_id
 _symmetry_equiv_pos_as_xyz
  1  'x, y, z'
loop_
 _atom_site_type_symbol
 _atom_site_label
 _atom_site_symmetry_multiplicity
 _atom_site_fract_x
 _atom_site_fract_y
 _atom_site_fract_z
 _atom_site_occupancy
  Mn  Mn0_0  1  0.40667450  0.40667450  0.00000000  1
  Mn  Mn0_1  1  0.40667450  0.40667450  0.50000000  1
  Mn  Mn0_2  1  0.40667450  0.90667450  0.00000000  1
  Mn  Mn0_3  1  0.40667450  0.90667450  0.50000000  1
  Mn  Mn0_4  1  0.90667450  0.40667450  0.00000000  1
  Mn  Mn0_5  1  0.90667450  0.40667450  0.50000000  1
  Mn  Mn0_6  1  0.90667450  0.90667450  0.00000000  1
  Mn  Mn0_7  1  0.90667450  0.90667450  0.50000000  1
  Mn  Mn1_0  1  0.19395500  0.19395500  0.00000000  1
  Mn  Mn1_1  1  0.19395500  0.19395500  0.50000000  1
  Mn  Mn1_2  1  0.19395500  0.69395500  0.00000000  1
  Mn  Mn1_3  1  0.19395500  0.69395500  0.50000000  1
  Mn  Mn1_4  1  0.69395500  0.19395500  0.00000000  1
  Mn  Mn1_5  1  0.69395500  0.19395500  0.50000000  1
  Mn  Mn1_6  1  0.69395500  0.69395500  0.00000000  1
  Mn  Mn1_7  1  0.69395500  0.69395500  0.50000000  1
  Al  Al0_0  1  0.29520100  0.29520100  0.00000000  1
  Al  Al0_1  1  0.29520100  0.29520100  0.50000000  1
  Al  Al0_2  1  0.29520100  0.79520100  0.00000000  1
  Al  Al0_3  1  0.29520100  0.79520100  0.50000000  1
  Al  Al0_4  1  0.79520100  0.29520100  0.00000000  1
  Al  Al0_5  1  0.79520100  0.29520100  0.50000000  1
  Al  Al0_6  1  0.79520100  0.79520100  0.00000000  1
  Al  Al0_7  1  0.79520100  0.79520100  0.50000000  1
  Al  Al1_0  1  0.10877400  0.10877400  0.00000000  1
  Al  Al1_1  1  0.10877400  0.10877400  0.50000000  1
  Al  Al1_2  1  0.10877400  0.60877400  0.00000000  1
  Al  Al1_3  1  0.10877400  0.60877400  0.50000000  1
  Al  Al1_4  1  0.60877400  0.10877400  0.00000000  1
  Al  Al1_5  1  0.60877400  0.10877400  0.50000000  1
  Al  Al1_6  1  0.60877400  0.60877400  0.00000000  1
  Al  Al1_7  1  0.60877400  0.60877400  0.50000000  1
  Cu  Cu0_0  1  0.49539550  0.49539550  0.00000000  1
  Cu  Cu0_1  1  0.49539550  0.49539550  0.50000000  1
  Cu  Cu0_2  1  0.49539550  0.99539550  0.00000000  1
  Cu  Cu0_3  1  0.49539550  0.99539550  0.50000000  1
  Cu  Cu0_4  1  0.99539550  0.49539550  0.00000000  1
  Cu  Cu0_5  1  0.99539550  0.49539550  0.50000000  1
  Cu  Cu0_6  1  0.99539550  0.99539550  0.00000000  1
  Cu  Cu0_7  1  0.99539550  0.99539550  0.50000000  1
loop_
_geom_bond_atom_site_label_1
_geom_bond_atom_site_label_2
_geom_bond_distance
_geom_bond_site_symmetry_2
Mn0_0 Mn1_2 2.315147 1_555
Mn0_0 Mn1_1 2.315147 1_554
Mn0_0 Mn1_4 2.315147 1_555
Mn0_0 Mn1_7 2.315147 1_555
Mn0_1 Mn1_5 2.315147 1_555
Mn0_1 Mn1_0 2.315147 1_555
Mn0_1 Mn1_3 2.315147 1_555
Mn0_1 Mn1_6 2.315147 1_556
Mn0_2 Mn1_6 2.315147 1_555
Mn0_2 Mn1_5 2.315147 1_565
Mn0_2 Mn1_3 2.315147 1_554
Mn0_2 Mn1_0 2.315147 1_565
Mn0_3 Mn1_2 2.315147 1_555
Mn0_3 Mn1_7 2.315147 1_555
Mn0_3 Mn1_4 2.315147 1_566
Mn0_3 Mn1_1 2.315147 1_565
Mn0_4 Mn1_6 2.315147 1_555
Mn0_4 Mn1_5 2.315147 1_554
Mn0_4 Mn1_0 2.315147 1_655
Mn0_4 Mn1_3 2.315147 1_655
Mn0_5 Mn1_2 2.315147 1_656
Mn0_5 Mn1_1 2.315147 1_655
Mn0_5 Mn1_7 2.315147 1_555
Mn0_5 Mn1_4 2.315147 1_555
Mn0_6 Mn1_2 2.315147 1_655
Mn0_6 Mn1_7 2.315147 1_554
Mn0_6 Mn1_1 2.315147 1_665
Mn0_6 Mn1_4 2.315147 1_565
Mn0_7 Mn1_6 2.315147 1_555
Mn0_7 Mn1_3 2.315147 1_655
Mn0_7 Mn1_0 2.315147 1_666
Mn0_7 Mn1_5 2.315147 1_565
Al0_0 Cu0_1 2.574187 1_555
Al0_0 Cu0_7 2.574187 1_444
Al0_0 Cu0_4 2.574187 1_455
Al0_0 Cu0_2 2.574187 1_545
Al0_0 Al0_5 2.737184 1_555
Al0_0 Al0_3 2.737184 1_544
Al0_0 Al0_3 2.737184 1_555
Al0_0 Al0_5 2.737184 1_454
Al0_0 Al1_7 2.904984 1_555
Al0_0 Al1_2 2.904984 1_555
Al0_0 Al1_4 2.904984 1_555
Al0_0 Al1_1 2.904984 1_554
Al0_1 Cu0_0 2.574187 1_556
Al0_1 Cu0_5 2.574187 1_455
Al0_1 Cu0_3 2.574187 1_545
Al0_1 Cu0_6 2.574187 1_445
Al0_1 Al0_4 2.737184 1_556
Al0_1 Al0_2 2.737184 1_545
Al0_1 Al0_4 2.737184 1_455
Al0_1 Al0_2 2.737184 1_556
Al0_1 Al1_3 2.904984 1_555
Al0_1 Al1_5 2.904984 1_555
Al0_1 Al1_0 2.904984 1_555
Al0_1 Al1_6 2.904984 1_556
Al0_2 Cu0_5 2.574187 1_454
Al0_2 Cu0_3 2.574187 1_555
Al0_2 Cu0_0 2.574187 1_555
Al0_2 Cu0_6 2.574187 1_455
Al0_2 Al0_7 2.737184 1_454
Al0_2 Al0_7 2.737184 1_555
Al0_2 Al1_5 2.904984 1_565
Al0_2 Al1_6 2.904984 1_555
Al0_2 Al1_3 2.904984 1_554
Al0_2 Al1_0 2.904984 1_565
Al0_3 Cu0_1 2.574187 1_555
Al0_3 Cu0_7 2.574187 1_455
Al0_3 Cu0_2 2.574187 1_556
Al0_3 Cu0_4 2.574187 1_455
Al0_3 Al0_6 2.737184 1_455
Al0_3 Al0_6 2.737184 1_556
Al0_3 Al1_4 2.904984 1_566
Al0_3 Al1_2 2.904984 1_555
Al0_3 Al1_7 2.904984 1_555
Al0_3 Al1_1 2.904984 1_565
Al0_4 Cu0_5 2.574187 1_555
Al0_4 Cu0_0 2.574187 1_555
Al0_4 Cu0_6 2.574187 1_545
Al0_4 Cu0_3 2.574187 1_544
Al0_4 Al0_7 2.737184 1_555
Al0_4 Al0_7 2.737184 1_544
Al0_4 Al1_3 2.904984 1_655
Al0_4 Al1_0 2.904984 1_655
Al0_4 Al1_6 2.904984 1_555
Al0_4 Al1_5 2.904984 1_554
Al0_5 Cu0_4 2.574187 1_556
Al0_5 Cu0_1 2.574187 1_555
Al0_5 Cu0_7 2.574187 1_545
Al0_5 Cu0_2 2.574187 1_545
Al0_5 Al0_6 2.737184 1_545
Al0_5 Al0_6 2.737184 1_556
Al0_5 Al1_2 2.904984 1_656
Al0_5 Al1_7 2.904984 1_555
Al0_5 Al1_4 2.904984 1_555
Al0_5 Al1_1 2.904984 1_655
Al0_6 Cu0_7 2.574187 1_555
Al0_6 Cu0_4 2.574187 1_555
Al0_6 Cu0_2 2.574187 1_555
Al0_6 Cu0_1 2.574187 1_554
Al0_6 Al1_2 2.904984 1_655
Al0_6 Al1_1 2.904984 1_665
Al0_6 Al1_7 2.904984 1_554
Al0_6 Al1_4 2.904984 1_565
Al0_7 Cu0_5 2.574187 1_555
Al0_7 Cu0_3 2.574187 1_555
Al0_7 Cu0_0 2.574187 1_555
Al0_7 Cu0_6 2.574187 1_556
Al0_7 Al1_0 2.904984 1_666
Al0_7 Al1_6 2.904984 1_555
Al0_7 Al1_3 2.904984 1_655
Al0_7 Al1_5 2.904984 1_565
Al1_0 Mn0_2 2.531859 1_545
Al1_0 Mn0_1 2.531859 1_555
Al1_0 Mn0_7 2.531859 1_444
Al1_0 Mn0_4 2.531859 1_455
Al1_0 Al1_5 2.737184 1_555
Al1_0 Al1_3 2.737184 1_555
Al1_0 Al1_5 2.737184 1_454
Al1_0 Al1_3 2.737184 1_544
Al1_1 Mn0_6 2.531859 1_445
Al1_1 Mn0_3 2.531859 1_545
Al1_1 Mn0_5 2.531859 1_455
Al1_1 Mn0_0 2.531859 1_556
Al1_1 Al1_2 2.737184 1_545
Al1_1 Al1_4 2.737184 1_556
Al1_1 Al1_2 2.737184 1_556
Al1_1 Al1_4 2.737184 1_455
Al1_2 Mn0_6 2.531859 1_455
Al1_2 Mn0_3 2.531859 1_555
Al1_2 Mn0_5 2.531859 1_454
Al1_2 Mn0_0 2.531859 1_555
Al1_2 Al1_7 2.737184 1_454
Al1_2 Al1_7 2.737184 1_555
Al1_3 Mn0_2 2.531859 1_556
Al1_3 Mn0_4 2.531859 1_455
Al1_3 Mn0_1 2.531859 1_555
Al1_3 Mn0_7 2.531859 1_455
Al1_3 Al1_6 2.737184 1_556
Al1_3 Al1_6 2.737184 1_455
Al1_4 Mn0_6 2.531859 1_545
Al1_4 Mn0_3 2.531859 1_544
Al1_4 Mn0_5 2.531859 1_555
Al1_4 Mn0_0 2.531859 1_555
Al1_4 Al1_7 2.737184 1_555
Al1_4 Al1_7 2.737184 1_544
Al1_5 Mn0_2 2.531859 1_545
Al1_5 Mn0_1 2.531859 1_555
Al1_5 Mn0_7 2.531859 1_545
Al1_5 Mn0_4 2.531859 1_556
Al1_5 Al1_6 2.737184 1_545
Al1_5 Al1_6 2.737184 1_556
Al1_6 Mn0_2 2.531859 1_555
Al1_6 Mn0_1 2.531859 1_554
Al1_6 Mn0_4 2.531859 1_555
Al1_6 Mn0_7 2.531859 1_555
Al1_7 Mn0_5 2.531859 1_555
Al1_7 Mn0_6 2.531859 1_556
Al1_7 Mn0_0 2.531859 1_555
Al1_7 Mn0_3 2.531859 1_555
Cu0_0 Mn1_1 2.611255 1_554
Cu0_0 Mn1_7 2.611255 1_555
Cu0_0 Mn1_4 2.611255 1_555
Cu0_0 Mn1_2 2.611255 1_555
Cu0_0 Cu0_3 2.737184 1_555
Cu0_0 Cu0_5 2.737184 1_454
Cu0_0 Cu0_5 2.737184 1_555
Cu0_0 Cu0_3 2.737184 1_544
Cu0_1 Mn1_0 2.611255 1_555
Cu0_1 Mn1_3 2.611255 1_555
Cu0_1 Mn1_5 2.611255 1_555
Cu0_1 Mn1_6 2.611255 1_556
Cu0_1 Cu0_2 2.737184 1_545
Cu0_1 Cu0_4 2.737184 1_455
Cu0_1 Cu0_2 2.737184 1_556
Cu0_1 Cu0_4 2.737184 1_556
Cu0_2 Mn1_0 2.611255 1_565
Cu0_2 Mn1_5 2.611255 1_565
Cu0_2 Mn1_3 2.611255 1_554
Cu0_2 Mn1_6 2.611255 1_555
Cu0_2 Cu0_7 2.737184 1_555
Cu0_2 Cu0_7 2.737184 1_454
Cu0_3 Mn1_1 2.611255 1_565
Cu0_3 Mn1_4 2.611255 1_566
Cu0_3 Mn1_7 2.611255 1_555
Cu0_3 Mn1_2 2.611255 1_555
Cu0_3 Cu0_6 2.737184 1_556
Cu0_3 Cu0_6 2.737184 1_455
Cu0_4 Mn1_5 2.611255 1_554
Cu0_4 Mn1_3 2.611255 1_655
Cu0_4 Mn1_0 2.611255 1_655
Cu0_4 Mn1_6 2.611255 1_555
Cu0_4 Cu0_7 2.737184 1_544
Cu0_4 Cu0_7 2.737184 1_555
Cu0_5 Mn1_7 2.611255 1_555
Cu0_5 Mn1_4 2.611255 1_555
Cu0_5 Mn1_1 2.611255 1_655
Cu0_5 Mn1_2 2.611255 1_656
Cu0_5 Cu0_6 2.737184 1_545
Cu0_5 Cu0_6 2.737184 1_556
Cu0_6 Mn1_4 2.611255 1_565
Cu0_6 Mn1_1 2.611255 1_665
Cu0_6 Mn1_7 2.611255 1_554
Cu0_6 Mn1_2 2.611255 1_655
Cu0_7 Mn1_0 2.611255 1_666
Cu0_7 Mn1_5 2.611255 1_565
Cu0_7 Mn1_3 2.611255 1_655
Cu0_7 Mn1_6 2.611255 1_555
