# generated using pymatgen
data_Ba2EuMg(CuO2)4
_symmetry_space_group_name_H-M   'P 1'
_cell_length_a   3.82367800
_cell_length_b   3.91035624
_cell_length_c   16.91166807
_cell_angle_alpha   96.47679979
_cell_angle_beta   90.00000000
_cell_angle_gamma   90.00000000
_symmetry_Int_Tables_number   1
_chemical_formula_structural   Ba2EuMg(CuO2)4
_chemical_formula_sum   'Ba2 Eu1 Mg1 Cu4 O8'
_cell_volume   251.24843367
_cell_formula_units_Z   1
loop_
 _symmetry_equiv_pos_site_id
 _symmetry_equiv_pos_as_xyz
  1  'x, y, z'
loop_
 _atom_site_type_symbol
 _atom_site_label
 _atom_site_symmetry_multiplicity
 _atom_site_fract_x
 _atom_site_fract_y
 _atom_site_fract_z
 _atom_site_occupancy
  Ba  Ba0  1  0.50000000  0.31965600  0.64897500  1
  Ba  Ba1  1  0.50000000  0.64171800  0.28495800  1
  Eu  Eu0  1  0.50000000  0.53298100  0.06294700  1
  Mg  Mg0  1  0.50000000  0.44276800  0.87653800  1
  Cu  Cu0  1  0.00000000  0.07940400  0.15678800  1
  Cu  Cu1  1  0.00000000  0.96808100  0.92765400  1
  Cu  Cu2  1  0.00000000  0.20330100  0.41094900  1
  Cu  Cu3  1  0.00000000  0.76160400  0.52994000  1
  O  O0  1  0.00000000  0.14915400  0.30055200  1
  O  O1  1  0.00000000  0.81646300  0.64118400  1
  O  O2  1  0.00000000  0.47569200  0.94318000  1
  O  O3  1  0.00000000  0.57443000  0.14659100  1
  O  O4  1  0.00000000  0.25904800  0.52470800  1
  O  O5  1  0.00000000  0.70654400  0.41762400  1
  O  O6  1  0.50000000  0.07164400  0.14100300  1
  O  O7  1  0.50000000  0.93084500  0.85214800  1
loop_
_geom_bond_atom_site_label_1
_geom_bond_atom_site_label_2
_geom_bond_distance
_geom_bond_site_symmetry_2
Ba0 O1 2.736001 1_545
Ba0 O1 2.736001 1_645
Ba0 O1 2.739396 1_555
Ba0 O1 2.739396 1_655
Ba0 O4 2.831165 1_655
Ba0 O4 2.831165 1_555
Ba1 O0 2.746615 1_665
Ba1 O0 2.746615 1_565
Ba1 O0 2.747569 1_555
Ba1 O0 2.747569 1_655
Ba1 O5 2.936807 1_555
Ba1 O5 2.936807 1_655
Ba1 O3 3.010172 1_555
Ba1 O3 3.010172 1_655
Ba1 O6 3.109958 1_555
Ba1 O6 3.110714 1_565
Eu0 O6 2.352484 1_555
Eu0 O6 2.356275 1_565
Eu0 O3 2.372900 1_555
Eu0 O3 2.372900 1_655
Eu0 O2 2.775867 1_654
Eu0 O2 2.775867 1_554
Mg0 O7 1.997578 1_555
Mg0 O7 1.997765 1_545
Mg0 O2 2.215662 1_555
Mg0 O2 2.215662 1_655
Cu0 O6 1.930151 1_555
Cu0 O6 1.930151 1_455
Cu0 O3 1.962670 1_545
Cu0 O3 1.962674 1_555
Cu0 O0 2.415772 1_555
Cu1 O2 1.972366 1_555
Cu1 O2 1.972650 1_565
Cu1 O7 2.294546 1_455
Cu1 O7 2.294546 1_555
Cu2 O0 1.855082 1_555
Cu2 O4 1.911576 1_555
Cu2 O5 1.958341 1_555
Cu2 O5 1.958445 1_545
Cu3 O1 1.869316 1_555
Cu3 O5 1.887328 1_555
Cu3 O4 1.957140 1_565
Cu3 O4 1.957168 1_555
