# generated using pymatgen
data_NaMg14Co
_symmetry_space_group_name_H-M   'P 1'
_cell_length_a   6.41677480
_cell_length_b   6.41677427
_cell_length_c   9.83846623
_cell_angle_alpha   90.00000000
_cell_angle_beta   90.00000000
_cell_angle_gamma   120.00000271
_symmetry_Int_Tables_number   1
_chemical_formula_structural   NaMg14Co
_chemical_formula_sum   'Na1 Mg14 Co1'
_cell_volume   350.82584430
_cell_formula_units_Z   1
loop_
 _symmetry_equiv_pos_site_id
 _symmetry_equiv_pos_as_xyz
  1  'x, y, z'
loop_
 _atom_site_type_symbol
 _atom_site_label
 _atom_site_symmetry_multiplicity
 _atom_site_fract_x
 _atom_site_fract_y
 _atom_site_fract_z
 _atom_site_occupancy
  Na  Na0  1  0.16666700  0.33333300  0.62500000  1
  Mg  Mg0  1  0.16170419  0.83085159  0.12500000  1
  Mg  Mg1  1  0.17258056  0.83628978  0.62500000  1
  Mg  Mg2  1  0.66914841  0.33829581  0.12500000  1
  Mg  Mg3  1  0.66371022  0.32741944  0.62500000  1
  Mg  Mg4  1  0.66914841  0.83085159  0.12500000  1
  Mg  Mg5  1  0.66371022  0.83628978  0.62500000  1
  Mg  Mg6  1  0.32723380  0.17276620  0.35859846  1
  Mg  Mg7  1  0.32723380  0.17276620  0.89140154  1
  Mg  Mg8  1  0.32723380  0.65446861  0.35859846  1
  Mg  Mg9  1  0.32723380  0.65446861  0.89140154  1
  Mg  Mg10  1  0.84553139  0.17276620  0.35859846  1
  Mg  Mg11  1  0.84553139  0.17276620  0.89140154  1
  Mg  Mg12  1  0.83333300  0.66666700  0.38008264  1
  Mg  Mg13  1  0.83333300  0.66666700  0.86991736  1
  Co  Co0  1  0.16666700  0.33333300  0.12500000  1
loop_
_geom_bond_atom_site_label_1
_geom_bond_atom_site_label_2
_geom_bond_distance
_geom_bond_site_symmetry_2
Mg0 Mg9 2.982166 1_554
Mg0 Mg8 2.982166 1_555
Mg0 Mg7 2.982174 1_564
Mg0 Mg6 2.982174 1_565
Mg0 Mg12 3.102911 1_455
Mg0 Mg13 3.102911 1_454
Mg0 Mg2 3.160619 1_455
Mg0 Mg4 3.160620 1_455
Mg0 Mg2 3.256155 1_565
Mg0 Mg4 3.256155 1_555
Mg1 Mg13 3.059463 1_455
Mg1 Mg12 3.059463 1_455
Mg1 Mg3 3.151468 1_565
Mg1 Mg5 3.151468 1_555
Mg1 Na0 3.208555 1_555
Mg1 Na0 3.208555 1_565
Mg1 Mg8 3.220771 1_555
Mg1 Mg9 3.220771 1_555
Mg1 Mg6 3.220778 1_565
Mg1 Mg7 3.220778 1_565
Mg1 Mg3 3.265306 1_455
Mg1 Mg5 3.265306 1_455
Mg2 Mg7 2.982174 1_554
Mg2 Mg6 2.982174 1_555
Mg2 Mg4 3.160619 1_555
Mg2 Mg4 3.256155 1_545
Mg3 Mg5 3.151468 1_545
Mg3 Na0 3.208556 1_655
Mg3 Na0 3.208556 1_555
Mg3 Mg6 3.220778 1_555
Mg3 Mg7 3.220778 1_555
Mg3 Mg5 3.265306 1_555
Mg4 Mg9 2.982173 1_554
Mg4 Mg8 2.982173 1_555
Mg5 Na0 3.208555 1_555
Mg5 Na0 3.208555 1_665
Mg5 Mg8 3.220778 1_555
Mg5 Mg9 3.220778 1_555
Mg6 Mg8 3.090976 1_555
Mg6 Na0 3.170841 1_555
Mg6 Mg8 3.325799 1_545
Mg7 Mg9 3.090976 1_555
Mg7 Na0 3.170841 1_555
Mg7 Mg9 3.325799 1_545
Mg8 Na0 3.170847 1_555
Mg9 Na0 3.170847 1_555
Mg10 Mg2 2.982166 1_555
Mg10 Mg4 2.982173 1_545
Mg10 Mg8 3.090976 1_655
Mg10 Mg6 3.090976 1_655
Mg10 Na0 3.170847 1_655
Mg10 Mg12 3.216057 1_555
Mg10 Mg12 3.216057 1_545
Mg10 Mg3 3.220771 1_555
Mg10 Mg5 3.220778 1_545
Mg10 Mg8 3.325799 1_545
Mg10 Mg6 3.325799 1_555
Mg11 Mg2 2.982166 1_556
Mg11 Mg4 2.982173 1_546
Mg11 Mg9 3.090976 1_655
Mg11 Mg7 3.090976 1_655
Mg11 Na0 3.170847 1_655
Mg11 Mg13 3.216057 1_555
Mg11 Mg13 3.216057 1_545
Mg11 Mg3 3.220771 1_555
Mg11 Mg5 3.220778 1_545
Mg11 Mg9 3.325799 1_545
Mg11 Mg7 3.325799 1_555
Mg12 Mg5 3.059456 1_555
Mg12 Mg3 3.059463 1_555
Mg12 Mg4 3.102904 1_555
Mg12 Mg2 3.102911 1_555
Mg12 Mg6 3.216057 1_665
Mg12 Mg6 3.216057 1_555
Mg12 Mg8 3.216057 1_655
Mg12 Mg8 3.216057 1_555
Mg13 Mg5 3.059456 1_555
Mg13 Mg3 3.059463 1_555
Mg13 Mg4 3.102904 1_556
Mg13 Mg2 3.102911 1_556
Mg13 Mg7 3.216057 1_665
Mg13 Mg7 3.216057 1_555
Mg13 Mg9 3.216057 1_655
Mg13 Mg9 3.216057 1_555
Co0 Mg6 2.909749 1_555
Co0 Mg7 2.909749 1_554
Co0 Mg8 2.909756 1_555
Co0 Mg9 2.909756 1_554
Co0 Mg11 2.909756 1_454
Co0 Mg10 2.909756 1_455
Co0 Mg0 3.208506 1_555
Co0 Mg4 3.208506 1_445
Co0 Mg4 3.208506 1_555
Co0 Mg0 3.208506 1_545
Co0 Mg2 3.208506 1_455
Co0 Mg2 3.208506 1_555
