# generated using pymatgen
data_TbAl7Fe5
_symmetry_space_group_name_H-M   'P 1'
_cell_length_a   6.61740409
_cell_length_b   6.61740409
_cell_length_c   6.61740409
_cell_angle_alpha   135.43856724
_cell_angle_beta   98.51819529
_cell_angle_gamma   98.01185512
_symmetry_Int_Tables_number   1
_chemical_formula_structural   TbAl7Fe5
_chemical_formula_sum   'Tb1 Al7 Fe5'
_cell_volume   188.14494397
_cell_formula_units_Z   1
loop_
 _symmetry_equiv_pos_site_id
 _symmetry_equiv_pos_as_xyz
  1  'x, y, z'
loop_
 _atom_site_type_symbol
 _atom_site_label
 _atom_site_symmetry_multiplicity
 _atom_site_fract_x
 _atom_site_fract_y
 _atom_site_fract_z
 _atom_site_occupancy
  Tb  Tb0  1  0.00489000  0.00000000  0.00489000  1
  Al  Al0  1  0.65947200  0.00000000  0.65947200  1
  Al  Al1  1  0.33976400  0.00000000  0.33976400  1
  Al  Al2  1  0.33416200  0.34265100  0.99151100  1
  Al  Al3  1  0.64886100  0.65734900  0.99151100  1
  Al  Al4  1  0.77363400  0.50000000  0.27363400  1
  Al  Al5  1  0.79301300  0.28870500  0.50430800  1
  Al  Al6  1  0.21560300  0.71129500  0.50430800  1
  Fe  Fe0  1  0.49900000  0.49822300  0.49665300  1
  Fe  Fe1  1  0.49900000  0.00234700  0.00077600  1
  Fe  Fe2  1  0.99843000  0.99765300  0.49665300  1
  Fe  Fe3  1  0.99843000  0.50177700  0.00077600  1
  Fe  Fe4  1  0.23574300  0.50000000  0.73574300  1
loop_
_geom_bond_atom_site_label_1
_geom_bond_atom_site_label_2
_geom_bond_distance
_geom_bond_site_symmetry_2
Al0 Fe1 2.625651 1_556
Al0 Fe0 2.625657 1_545
Al0 Fe2 2.625657 1_545
Al0 Fe3 2.625658 1_556
Al0 Al4 2.695776 1_556
Al0 Al4 2.695776 1_545
Al0 Al1 2.761496 1_555
Al0 Al6 2.842296 1_545
Al0 Al5 2.842296 1_555
Al0 Tb0 2.983568 1_656
Al1 Fe3 2.624485 1_445
Al1 Fe0 2.624487 1_555
Al1 Fe2 2.624487 1_445
Al1 Fe1 2.624493 1_555
Al1 Fe4 2.664982 1_544
Al1 Fe4 2.664982 1_555
Al1 Al5 2.881386 1_555
Al1 Al6 2.881386 1_545
Al1 Tb0 2.892494 1_555
Al2 Fe2 2.578543 1_445
Al2 Fe3 2.578544 1_456
Al2 Fe4 2.597452 1_555
Al2 Fe1 2.669542 1_556
Al2 Fe0 2.669546 1_556
Al2 Al3 2.732144 1_555
Al2 Al6 2.758186 1_556
Al2 Al6 2.758186 1_545
Al2 Al4 2.793636 1_556
Al2 Tb0 2.977065 1_556
Al3 Fe0 2.578544 1_555
Al3 Fe1 2.578550 1_566
Al3 Fe4 2.597458 1_555
Al3 Fe3 2.669539 1_556
Al3 Fe2 2.669542 1_556
Al3 Al5 2.758182 1_555
Al3 Al5 2.758186 1_566
Al3 Al4 2.793634 1_556
Al3 Tb0 2.977061 1_666
Al4 Fe1 2.508840 1_555
Al4 Fe2 2.508842 1_555
Al4 Fe0 2.508842 1_555
Al4 Fe3 2.508847 1_555
Al4 Al5 2.708317 1_555
Al4 Al6 2.708317 1_655
Al4 Tb0 3.206993 1_655
Al4 Tb0 3.206993 1_666
Al5 Fe3 2.484148 1_556
Al5 Fe2 2.484154 1_545
Al5 Fe0 2.555984 1_555
Al5 Fe1 2.555988 1_555
Al5 Fe4 2.713157 1_655
Al5 Tb0 3.108048 1_666
Al5 Tb0 3.108048 1_655
Al6 Fe1 2.484150 1_566
Al6 Fe0 2.484154 1_555
Al6 Fe2 2.555984 1_455
Al6 Fe3 2.555990 1_455
Al6 Fe4 2.713157 1_555
Al6 Tb0 3.108048 1_555
Al6 Tb0 3.108048 1_566
Fe0 Fe1 2.488263 1_555
Fe0 Fe4 2.516727 1_555
Fe0 Fe1 2.529645 1_566
Fe0 Tb0 3.271834 1_555
Fe0 Tb0 3.346048 1_666
Fe1 Fe4 2.516729 1_544
Fe1 Tb0 3.271835 1_555
Fe1 Tb0 3.346047 1_655
Fe2 Fe3 2.488263 1_555
Fe2 Fe4 2.516727 1_665
Fe2 Fe3 2.529645 1_566
Fe2 Tb0 3.271834 1_665
Fe2 Tb0 3.346048 1_666
Fe3 Fe4 2.516722 1_654
Fe3 Tb0 3.271829 1_665
Fe3 Tb0 3.346053 1_655
Fe4 Tb0 3.204826 1_555
Fe4 Tb0 3.204826 1_566
