# generated using pymatgen
data_Ti8In5
_symmetry_space_group_name_H-M   'P 1'
_cell_length_a   10.01215000
_cell_length_b   10.01215000
_cell_length_c   10.01215000
_cell_angle_alpha   90.00000000
_cell_angle_beta   90.00000000
_cell_angle_gamma   90.00000000
_symmetry_Int_Tables_number   1
_chemical_formula_structural   Ti8In5
_chemical_formula_sum   'Ti32 In20'
_cell_volume   1003.64943047
_cell_formula_units_Z   4
loop_
 _symmetry_equiv_pos_site_id
 _symmetry_equiv_pos_as_xyz
  1  'x, y, z'
loop_
 _atom_site_type_symbol
 _atom_site_label
 _atom_site_symmetry_multiplicity
 _atom_site_fract_x
 _atom_site_fract_y
 _atom_site_fract_z
 _atom_site_occupancy
  Ti  Ti0  1  0.48196600  0.83177300  0.16822700  1
  Ti  Ti1  1  0.83177300  0.83177300  0.51803400  1
  Ti  Ti2  1  0.83177300  0.48196600  0.16822700  1
  Ti  Ti3  1  0.48196600  0.16822700  0.83177300  1
  Ti  Ti4  1  0.83177300  0.16822700  0.48196600  1
  Ti  Ti5  1  0.83177300  0.51803400  0.83177300  1
  Ti  Ti6  1  0.51803400  0.83177300  0.83177300  1
  Ti  Ti7  1  0.16822700  0.83177300  0.48196600  1
  Ti  Ti8  1  0.16822700  0.48196600  0.83177300  1
  Ti  Ti9  1  0.51803400  0.16822700  0.16822700  1
  Ti  Ti10  1  0.16822700  0.16822700  0.51803400  1
  Ti  Ti11  1  0.16822700  0.51803400  0.16822700  1
  Ti  Ti12  1  0.50000000  0.50000000  0.13966400  1
  Ti  Ti13  1  0.50000000  0.86033600  0.50000000  1
  Ti  Ti14  1  0.86033600  0.50000000  0.50000000  1
  Ti  Ti15  1  0.50000000  0.50000000  0.86033600  1
  Ti  Ti16  1  0.50000000  0.13966400  0.50000000  1
  Ti  Ti17  1  0.13966400  0.50000000  0.50000000  1
  Ti  Ti18  1  0.00000000  0.00000000  0.35722900  1
  Ti  Ti19  1  0.00000000  0.64277100  0.00000000  1
  Ti  Ti20  1  0.64277100  0.00000000  0.00000000  1
  Ti  Ti21  1  0.00000000  0.00000000  0.64277100  1
  Ti  Ti22  1  0.00000000  0.35722900  0.00000000  1
  Ti  Ti23  1  0.35722900  0.00000000  0.00000000  1
  Ti  Ti24  1  0.90316000  0.90316000  0.09684000  1
  Ti  Ti25  1  0.90316000  0.09684000  0.90316000  1
  Ti  Ti26  1  0.09684000  0.90316000  0.90316000  1
  Ti  Ti27  1  0.09684000  0.09684000  0.09684000  1
  Ti  Ti28  1  0.17093600  0.17093600  0.82906400  1
  Ti  Ti29  1  0.17093600  0.82906400  0.17093600  1
  Ti  Ti30  1  0.82906400  0.17093600  0.17093600  1
  Ti  Ti31  1  0.82906400  0.82906400  0.82906400  1
  In  In0  1  0.97452900  0.68983800  0.31016200  1
  In  In1  1  0.68983800  0.68983800  0.02547100  1
  In  In2  1  0.68983800  0.97452900  0.31016200  1
  In  In3  1  0.97452900  0.31016200  0.68983800  1
  In  In4  1  0.68983800  0.31016200  0.97452900  1
  In  In5  1  0.68983800  0.02547100  0.68983800  1
  In  In6  1  0.02547100  0.68983800  0.68983800  1
  In  In7  1  0.31016200  0.68983800  0.97452900  1
  In  In8  1  0.31016200  0.97452900  0.68983800  1
  In  In9  1  0.02547100  0.31016200  0.31016200  1
  In  In10  1  0.31016200  0.31016200  0.02547100  1
  In  In11  1  0.31016200  0.02547100  0.31016200  1
  In  In12  1  0.65993000  0.65993000  0.34007000  1
  In  In13  1  0.65993000  0.34007000  0.65993000  1
  In  In14  1  0.34007000  0.65993000  0.65993000  1
  In  In15  1  0.34007000  0.34007000  0.34007000  1
  In  In16  1  0.35052600  0.35052600  0.64947400  1
  In  In17  1  0.35052600  0.64947400  0.35052600  1
  In  In18  1  0.64947400  0.35052600  0.35052600  1
  In  In19  1  0.64947400  0.64947400  0.64947400  1
loop_
_geom_bond_atom_site_label_1
_geom_bond_atom_site_label_2
_geom_bond_distance
_geom_bond_site_symmetry_2
Ti0 Ti23 2.689525 1_565
Ti0 Ti20 2.875055 1_565
Ti0 Ti29 3.114315 1_555
Ti1 Ti21 2.689525 1_665
Ti1 Ti18 2.875055 1_665
Ti1 Ti31 3.114315 1_555
Ti2 Ti22 2.689525 1_655
Ti2 Ti30 3.114315 1_555
Ti10 Ti21 2.689525 1_555
Ti10 Ti18 2.875055 1_555
Ti10 Ti28 3.114315 1_555
Ti11 Ti19 2.689525 1_555
Ti11 Ti22 2.875055 1_555
Ti11 Ti29 3.114315 1_555
Ti12 Ti15 2.796674 1_554
Ti13 Ti16 2.796674 1_565
Ti14 Ti17 2.796674 1_655
Ti18 Ti7 2.689525 1_545
Ti18 Ti4 2.689525 1_455
Ti18 Ti21 2.858889 1_555
Ti18 Ti24 2.945656 1_445
Ti18 Ti27 2.945656 1_555
Ti18 Ti30 3.055647 1_455
Ti18 Ti29 3.055647 1_545
Ti19 Ti5 2.689525 1_454
Ti19 Ti22 2.858889 1_555
Ti19 Ti2 2.875055 1_455
Ti19 Ti8 2.875055 1_554
Ti19 Ti24 2.945656 1_455
Ti19 Ti26 2.945656 1_554
Ti19 Ti29 3.055647 1_555
Ti19 Ti31 3.055647 1_454
Ti20 Ti9 2.689525 1_555
Ti20 Ti6 2.689525 1_544
Ti20 Ti23 2.858889 1_555
Ti20 Ti3 2.875055 1_554
Ti20 Ti24 2.945656 1_545
Ti20 Ti25 2.945656 1_554
Ti20 Ti30 3.055647 1_555
Ti20 Ti31 3.055647 1_544
Ti21 Ti7 2.875055 1_545
Ti21 Ti4 2.875055 1_455
Ti21 Ti26 2.945656 1_545
Ti21 Ti25 2.945656 1_455
Ti21 Ti28 3.055647 1_555
Ti21 Ti31 3.055647 1_445
Ti22 Ti8 2.689525 1_554
Ti22 Ti5 2.875055 1_454
Ti22 Ti25 2.945656 1_454
Ti22 Ti27 2.945656 1_555
Ti22 Ti30 3.055647 1_455
Ti22 Ti28 3.055647 1_554
Ti23 Ti3 2.689525 1_554
Ti23 Ti9 2.875055 1_555
Ti23 Ti6 2.875055 1_544
Ti23 Ti26 2.945656 1_544
Ti23 Ti27 2.945656 1_555
Ti23 Ti29 3.055647 1_545
Ti23 Ti28 3.055647 1_554
Ti24 Ti25 2.742377 1_564
Ti24 Ti26 2.742377 1_654
Ti24 Ti27 2.742377 1_665
Ti24 Ti29 2.878984 1_655
Ti24 Ti30 2.878984 1_565
Ti24 Ti31 2.878984 1_554
Ti25 Ti27 2.742377 1_656
Ti25 Ti26 2.742377 1_645
Ti25 Ti28 2.878984 1_655
Ti25 Ti30 2.878984 1_556
Ti25 Ti31 2.878984 1_545
Ti26 Ti27 2.742377 1_566
Ti26 Ti28 2.878984 1_565
Ti26 Ti29 2.878984 1_556
Ti26 Ti31 2.878984 1_455
Ti27 Ti29 2.878984 1_545
Ti27 Ti30 2.878984 1_455
Ti27 Ti28 2.878984 1_554
Ti28 Ti3 3.114315 1_555
Ti28 Ti8 3.114315 1_555
Ti29 Ti7 3.114315 1_555
Ti30 Ti9 3.114315 1_555
Ti30 Ti4 3.114315 1_555
Ti31 Ti6 3.114315 1_555
Ti31 Ti5 3.114315 1_555
In0 Ti29 2.784448 1_655
In0 Ti2 2.897226 1_555
In0 Ti1 2.897226 1_555
In0 Ti14 2.921026 1_555
In0 Ti11 2.956232 1_655
In0 Ti7 2.956232 1_655
In0 Ti24 3.103865 1_555
In0 Ti18 3.151276 1_665
In0 Ti19 3.151276 1_655
In0 Ti17 3.155758 1_655
In0 In12 3.178152 1_555
In1 Ti31 2.784448 1_554
In1 Ti0 2.897226 1_555
In1 Ti2 2.897226 1_555
In1 Ti12 2.921026 1_555
In1 Ti5 2.956232 1_554
In1 Ti6 2.956232 1_554
In1 Ti24 3.103865 1_555
In1 Ti19 3.151276 1_655
In1 Ti20 3.151276 1_565
In1 Ti15 3.155758 1_554
In1 In12 3.178152 1_555
In2 Ti30 2.784448 1_565
In2 Ti0 2.897226 1_555
In2 Ti1 2.897226 1_555
In2 Ti13 2.921026 1_555
In2 Ti9 2.956232 1_565
In2 Ti4 2.956232 1_565
In2 Ti24 3.103865 1_555
In2 Ti18 3.151276 1_665
In2 Ti20 3.151276 1_565
In2 Ti16 3.155758 1_565
In3 Ti28 2.784448 1_655
In3 Ti4 2.897226 1_555
In3 Ti5 2.897226 1_555
In3 Ti14 2.921026 1_555
In3 Ti10 2.956232 1_655
In3 Ti8 2.956232 1_655
In3 Ti25 3.103865 1_555
In3 Ti22 3.151276 1_656
In3 Ti21 3.151276 1_655
In3 Ti17 3.155758 1_655
In4 Ti30 2.784448 1_556
In4 Ti3 2.897226 1_555
In4 Ti5 2.897226 1_555
In4 Ti15 2.921026 1_555
In4 Ti9 2.956232 1_556
In4 Ti2 2.956232 1_556
In4 Ti25 3.103865 1_555
In4 Ti22 3.151276 1_656
In4 Ti20 3.151276 1_556
In4 Ti12 3.155758 1_556
In5 Ti31 2.784448 1_545
In5 Ti4 2.897226 1_555
In5 Ti3 2.897226 1_555
In5 Ti16 2.921026 1_555
In5 Ti6 2.956232 1_545
In5 Ti1 2.956232 1_545
In5 Ti25 3.103865 1_555
In5 Ti20 3.151276 1_556
In5 Ti21 3.151276 1_655
In5 Ti13 3.155758 1_545
In6 Ti31 2.784448 1_455
In6 Ti8 2.897226 1_555
In6 Ti7 2.897226 1_555
In6 Ti17 2.921026 1_555
In6 Ti1 2.956232 1_455
In6 Ti5 2.956232 1_455
In6 Ti26 3.103865 1_555
In6 Ti19 3.151276 1_556
In6 Ti21 3.151276 1_565
In6 Ti14 3.155758 1_455
In7 Ti29 2.784448 1_556
In7 Ti8 2.897226 1_555
In7 Ti6 2.897226 1_555
In7 Ti15 2.921026 1_555
In7 Ti11 2.956232 1_556
In7 Ti0 2.956232 1_556
In7 Ti26 3.103865 1_555
In7 Ti23 3.151276 1_566
In7 Ti19 3.151276 1_556
In7 Ti12 3.155758 1_556
In8 Ti28 2.784448 1_565
In8 Ti7 2.897226 1_555
In8 Ti6 2.897226 1_555
In8 Ti13 2.921026 1_555
In8 Ti10 2.956232 1_565
In8 Ti3 2.956232 1_565
In8 Ti26 3.103865 1_555
In8 Ti23 3.151276 1_566
In8 Ti21 3.151276 1_565
In8 Ti16 3.155758 1_565
In9 Ti30 2.784448 1_455
In9 Ti10 2.897226 1_555
In9 Ti11 2.897226 1_555
In9 Ti17 2.921026 1_555
In9 Ti2 2.956232 1_455
In9 Ti4 2.956232 1_455
In9 Ti27 3.103865 1_555
In9 Ti18 3.151276 1_555
In9 Ti22 3.151276 1_555
In9 Ti14 3.155758 1_455
In10 Ti28 2.784448 1_554
In10 Ti11 2.897226 1_555
In10 Ti9 2.897226 1_555
In10 Ti12 2.921026 1_555
In10 Ti8 2.956232 1_554
In10 Ti3 2.956232 1_554
In10 Ti27 3.103865 1_555
In10 Ti23 3.151276 1_555
In10 Ti22 3.151276 1_555
In10 Ti15 3.155758 1_554
In10 In15 3.178152 1_555
In11 Ti29 2.784448 1_545
In11 Ti10 2.897226 1_555
In11 Ti9 2.897226 1_555
In11 Ti16 2.921026 1_555
In11 Ti0 2.956232 1_545
In11 Ti7 2.956232 1_545
In11 Ti27 3.103865 1_555
In11 Ti23 3.151276 1_555
In11 Ti18 3.151276 1_555
In11 Ti13 3.155758 1_545
In11 In15 3.178152 1_555
In12 Ti1 3.015822 1_555
In12 Ti2 3.015822 1_555
In12 Ti0 3.015822 1_555
In12 Ti14 3.025555 1_555
In12 Ti13 3.025555 1_555
In12 Ti12 3.025555 1_555
In12 In19 3.101335 1_555
In12 In17 3.101335 1_555
In12 In18 3.101335 1_555
In12 In2 3.178152 1_555
In13 Ti5 3.015822 1_555
In13 Ti3 3.015822 1_555
In13 Ti4 3.015822 1_555
In13 Ti15 3.025555 1_555
In13 Ti14 3.025555 1_555
In13 Ti16 3.025555 1_555
In13 In19 3.101335 1_555
In13 In18 3.101335 1_555
In13 In16 3.101335 1_555
In13 In3 3.178152 1_555
In13 In4 3.178152 1_555
In13 In5 3.178152 1_555
In14 Ti6 3.015822 1_555
In14 Ti7 3.015822 1_555
In14 Ti8 3.015822 1_555
In14 Ti15 3.025555 1_555
In14 Ti13 3.025555 1_555
In14 Ti17 3.025555 1_555
In14 In19 3.101335 1_555
In14 In17 3.101335 1_555
In14 In16 3.101335 1_555
In14 In8 3.178152 1_555
In14 In7 3.178152 1_555
In14 In6 3.178152 1_555
In15 Ti9 3.015822 1_555
In15 Ti10 3.015822 1_555
In15 Ti11 3.015822 1_555
In15 Ti12 3.025555 1_555
In15 Ti16 3.025555 1_555
In15 Ti17 3.025555 1_555
In15 In17 3.101335 1_555
In15 In18 3.101335 1_555
In15 In16 3.101335 1_555
In15 In9 3.178152 1_555
In16 Ti3 2.897343 1_555
In16 Ti10 2.897343 1_555
In16 Ti8 2.897343 1_555
In16 Ti15 2.989390 1_555
In16 Ti16 2.989390 1_555
In16 Ti17 2.989390 1_555
In16 Ti28 3.114369 1_555
In17 Ti0 2.897343 1_555
In17 Ti7 2.897343 1_555
In17 Ti11 2.897343 1_555
In17 Ti13 2.989390 1_555
In17 Ti12 2.989390 1_555
In17 Ti17 2.989390 1_555
In17 Ti29 3.114369 1_555
In18 Ti9 2.897343 1_555
In18 Ti4 2.897343 1_555
In18 Ti2 2.897343 1_555
In18 Ti14 2.989390 1_555
In18 Ti12 2.989390 1_555
In18 Ti16 2.989390 1_555
In18 Ti30 3.114369 1_555
In19 Ti6 2.897343 1_555
In19 Ti1 2.897343 1_555
In19 Ti5 2.897343 1_555
In19 Ti14 2.989390 1_555
In19 Ti15 2.989390 1_555
In19 Ti13 2.989390 1_555
In19 Ti31 3.114369 1_555
