# generated using pymatgen
data_K2ZrSi2O7
_symmetry_space_group_name_H-M   'P 1'
_cell_length_a   11.27597830
_cell_length_b   11.27597830
_cell_length_c   14.33145659
_cell_angle_alpha   67.18764485
_cell_angle_beta   67.18764485
_cell_angle_gamma   59.89285515
_symmetry_Int_Tables_number   1
_chemical_formula_structural   K2ZrSi2O7
_chemical_formula_sum   'K16 Zr8 Si16 O56'
_cell_volume   1409.76414070
_cell_formula_units_Z   8
loop_
 _symmetry_equiv_pos_site_id
 _symmetry_equiv_pos_as_xyz
  1  'x, y, z'
loop_
 _atom_site_type_symbol
 _atom_site_label
 _atom_site_symmetry_multiplicity
 _atom_site_fract_x
 _atom_site_fract_y
 _atom_site_fract_z
 _atom_site_occupancy
  K  K0  1  0.38237700  0.88980200  0.59022900  1
  K  K1  1  0.88980200  0.38237700  0.59022900  1
  K  K2  1  0.61762300  0.11019800  0.40977100  1
  K  K3  1  0.11019800  0.61762300  0.40977100  1
  K  K4  1  0.60857800  0.11671800  0.91845600  1
  K  K5  1  0.11671800  0.60857800  0.91845600  1
  K  K6  1  0.39142200  0.88328200  0.08154400  1
  K  K7  1  0.88328200  0.39142200  0.08154400  1
  K  K8  1  0.39036900  0.39036900  0.57661500  1
  K  K9  1  0.60963100  0.60963100  0.42338500  1
  K  K10  1  0.11122100  0.11122100  0.92127300  1
  K  K11  1  0.88877900  0.88877900  0.07872700  1
  K  K12  1  0.62143700  0.62143700  0.88920000  1
  K  K13  1  0.37856300  0.37856300  0.11080000  1
  K  K14  1  0.88214800  0.88214800  0.60426900  1
  K  K15  1  0.11785200  0.11785200  0.39573100  1
  Zr  Zr0  1  0.98849200  0.98849200  0.78164900  1
  Zr  Zr1  1  0.01150800  0.01150800  0.21835100  1
  Zr  Zr2  1  0.51237300  0.51237300  0.71890900  1
  Zr  Zr3  1  0.48762700  0.48762700  0.28109100  1
  Zr  Zr4  1  0.49803800  0.00382100  0.75025100  1
  Zr  Zr5  1  0.00382100  0.49803800  0.75025100  1
  Zr  Zr6  1  0.50196200  0.99617900  0.24974900  1
  Zr  Zr7  1  0.99617900  0.50196200  0.24974900  1
  Si  Si0  1  0.19837200  0.72084600  0.62080200  1
  Si  Si1  1  0.72084600  0.19837200  0.62080200  1
  Si  Si2  1  0.80162800  0.27915400  0.37919800  1
  Si  Si3  1  0.27915400  0.80162800  0.37919800  1
  Si  Si4  1  0.30288300  0.78033400  0.87956600  1
  Si  Si5  1  0.78033400  0.30288300  0.87956600  1
  Si  Si6  1  0.69711700  0.21966600  0.12043400  1
  Si  Si7  1  0.21966600  0.69711700  0.12043400  1
  Si  Si8  1  0.19965200  0.19965200  0.63287600  1
  Si  Si9  1  0.80034800  0.80034800  0.36712400  1
  Si  Si10  1  0.30139800  0.30139800  0.86781500  1
  Si  Si11  1  0.69860200  0.69860200  0.13218500  1
  Si  Si12  1  0.71607700  0.71607700  0.61101100  1
  Si  Si13  1  0.28392300  0.28392300  0.38898900  1
  Si  Si14  1  0.78528200  0.78528200  0.88919100  1
  Si  Si15  1  0.21471800  0.21471800  0.11080900  1
  O  O0  1  0.86769400  0.86769400  0.89257900  1
  O  O1  1  0.13230600  0.13230600  0.10742100  1
  O  O2  1  0.13520700  0.86268700  0.87969400  1
  O  O3  1  0.86268700  0.13520700  0.87969400  1
  O  O4  1  0.86479300  0.13731300  0.12030600  1
  O  O5  1  0.13731300  0.86479300  0.12030600  1
  O  O6  1  0.66608200  0.39456000  0.80643700  1
  O  O7  1  0.39456000  0.66608200  0.80643700  1
  O  O8  1  0.33391800  0.60544000  0.19356300  1
  O  O9  1  0.60544000  0.33391800  0.19356300  1
  O  O10  1  0.63860200  0.36613600  0.62028000  1
  O  O11  1  0.36613600  0.63860200  0.62028000  1
  O  O12  1  0.36139800  0.63386400  0.37972000  1
  O  O13  1  0.63386400  0.36139800  0.37972000  1
  O  O14  1  0.18075500  0.81924500  0.50000000  1
  O  O15  1  0.81924500  0.18075500  0.50000000  1
  O  O16  1  0.31969100  0.68030900  0.00000000  1
  O  O17  1  0.68030900  0.31969100  0.00000000  1
  O  O18  1  0.39436100  0.39436100  0.80149500  1
  O  O19  1  0.60563900  0.60563900  0.19850500  1
  O  O20  1  0.63302100  0.63302100  0.60940800  1
  O  O21  1  0.36697900  0.36697900  0.39059200  1
  O  O22  1  0.37520900  0.88805100  0.85190700  1
  O  O23  1  0.88805100  0.37520900  0.85190700  1
  O  O24  1  0.62479100  0.11194900  0.14809300  1
  O  O25  1  0.11194900  0.62479100  0.14809300  1
  O  O26  1  0.61243400  0.12661800  0.64967500  1
  O  O27  1  0.12661800  0.61243400  0.64967500  1
  O  O28  1  0.38756600  0.87338200  0.35032500  1
  O  O29  1  0.87338200  0.38756600  0.35032500  1
  O  O30  1  0.65210100  0.89255600  0.83625600  1
  O  O31  1  0.89255600  0.65210100  0.83625600  1
  O  O32  1  0.34789900  0.10744400  0.16374400  1
  O  O33  1  0.10744400  0.34789900  0.16374400  1
  O  O34  1  0.84916000  0.60957900  0.66423900  1
  O  O35  1  0.60957900  0.84916000  0.66423900  1
  O  O36  1  0.15084000  0.39042100  0.33576100  1
  O  O37  1  0.39042100  0.15084000  0.33576100  1
  O  O38  1  0.38197900  0.14253700  0.85018400  1
  O  O39  1  0.14253700  0.38197900  0.85018400  1
  O  O40  1  0.61802100  0.85746300  0.14981600  1
  O  O41  1  0.85746300  0.61802100  0.14981600  1
  O  O42  1  0.11899900  0.35816700  0.65110100  1
  O  O43  1  0.35816700  0.11899900  0.65110100  1
  O  O44  1  0.88100100  0.64183300  0.34889900  1
  O  O45  1  0.64183300  0.88100100  0.34889900  1
  O  O46  1  0.21220900  0.21220900  0.50987800  1
  O  O47  1  0.78779100  0.78779100  0.49012200  1
  O  O48  1  0.28822100  0.28822100  0.99113100  1
  O  O49  1  0.71177900  0.71177900  0.00886900  1
  O  O50  1  0.83652500  0.10711400  0.69255200  1
  O  O51  1  0.10711400  0.83652500  0.69255200  1
  O  O52  1  0.16347500  0.89288600  0.30744800  1
  O  O53  1  0.89288600  0.16347500  0.30744800  1
  O  O54  1  0.10658700  0.10658700  0.69939900  1
  O  O55  1  0.89341300  0.89341300  0.30060100  1
loop_
_geom_bond_atom_site_label_1
_geom_bond_atom_site_label_2
_geom_bond_distance
_geom_bond_site_symmetry_2
K0 O11 2.784875 1_555
K0 O20 2.867473 1_555
K0 O43 2.893202 1_565
K0 O35 2.907030 1_555
K0 O54 3.108140 1_565
K0 O46 3.113395 1_565
K0 O51 3.131036 1_555
K0 O7 3.147222 1_555
K1 O10 2.784875 1_555
K1 O20 2.867473 1_555
K1 O42 2.893202 1_655
K1 O34 2.907030 1_555
K1 O54 3.108140 1_655
K1 O46 3.113395 1_655
K1 O50 3.131036 1_555
K1 O6 3.147222 1_555
K2 O13 2.784875 1_555
K2 O21 2.867473 1_555
K2 O45 2.893202 1_545
K2 O37 2.907030 1_555
K2 O55 3.108140 1_545
K2 O47 3.113395 1_545
K2 O53 3.131036 1_555
K2 O9 3.147222 1_555
K3 O12 2.784875 1_555
K3 O21 2.867473 1_555
K3 O44 2.893202 1_455
K3 O36 2.907030 1_555
K3 O55 3.108140 1_455
K3 O47 3.113395 1_455
K3 O52 3.131036 1_555
K3 O8 3.147222 1_555
K4 O3 2.799533 1_555
K4 O0 2.880199 1_545
K4 O38 2.922701 1_555
K4 O30 2.938335 1_545
K4 O48 3.083770 1_555
K4 O18 3.151088 1_555
K4 O6 3.184929 1_555
K4 O50 3.261870 1_555
K4 O24 3.344646 1_556
K5 O2 2.799533 1_555
K5 O0 2.880199 1_455
K5 O39 2.922701 1_555
K5 O31 2.938335 1_455
K5 O48 3.083770 1_555
K5 O18 3.151088 1_555
K5 O7 3.184929 1_555
K5 O51 3.261870 1_555
K5 O25 3.344646 1_556
K6 O5 2.799533 1_555
K6 O1 2.880199 1_565
K6 O40 2.922701 1_555
K6 O32 2.938335 1_565
K6 O49 3.083770 1_555
K6 O19 3.151088 1_555
K6 O8 3.184929 1_555
K6 O52 3.261870 1_555
K6 O22 3.344646 1_554
K7 O4 2.799533 1_555
K7 O1 2.880199 1_655
K7 O41 2.922701 1_555
K7 O33 2.938335 1_655
K7 O49 3.083770 1_555
K7 O19 3.151088 1_555
K7 O9 3.184929 1_555
K7 O53 3.261870 1_555
K7 O23 3.344646 1_554
K8 O27 2.891115 1_555
K8 O26 2.891115 1_555
K8 O21 2.899454 1_555
K8 O10 2.959627 1_555
K8 O11 2.959627 1_555
K8 O42 2.985960 1_555
K8 O43 2.985960 1_555
K8 O13 3.068389 1_555
K8 O12 3.068389 1_555
K8 O18 3.258510 1_555
K9 O28 2.891115 1_555
K9 O29 2.891115 1_555
K9 O20 2.899454 1_555
K9 O13 2.959627 1_555
K9 O12 2.959627 1_555
K9 O44 2.985960 1_555
K9 O45 2.985960 1_555
K9 O11 3.068389 1_555
K9 O10 3.068389 1_555
K9 O19 3.258510 1_555
K10 O1 2.875837 1_556
K10 O23 2.883030 1_455
K10 O22 2.883030 1_545
K10 O3 2.948147 1_455
K10 O2 2.948147 1_545
K10 O38 2.979010 1_555
K10 O39 2.979010 1_555
K10 O4 3.103007 1_456
K10 O5 3.103007 1_546
K10 O54 3.221314 1_555
K11 O0 2.875837 1_554
K11 O24 2.883030 1_565
K11 O25 2.883030 1_655
K11 O5 2.948147 1_655
K11 O4 2.948147 1_565
K11 O40 2.979010 1_555
K11 O41 2.979010 1_555
K11 O2 3.103007 1_654
K11 O3 3.103007 1_564
K11 O55 3.221314 1_555
K12 O22 2.926290 1_555
K12 O23 2.926290 1_555
K12 O49 2.960979 1_556
K12 O7 2.966966 1_555
K12 O6 2.966966 1_555
K12 O16 2.983438 1_556
K12 O17 2.983438 1_556
K12 O30 3.016563 1_555
K12 O31 3.016563 1_555
K12 O35 3.252092 1_555
K12 O34 3.252092 1_555
K13 O25 2.926290 1_555
K13 O24 2.926290 1_555
K13 O48 2.960979 1_554
K13 O9 2.966966 1_555
K13 O8 2.966966 1_555
K13 O17 2.983438 1_555
K13 O16 2.983438 1_555
K13 O32 3.016563 1_555
K13 O33 3.016563 1_555
K13 O36 3.252092 1_555
K13 O37 3.252092 1_555
K14 O14 2.932182 1_655
K14 O15 2.932182 1_565
K14 O26 2.952531 1_565
K14 O27 2.952531 1_655
K14 O47 2.962299 1_555
K14 O50 2.995857 1_565
K14 O51 2.995857 1_655
K14 O34 3.028871 1_555
K14 O35 3.028871 1_555
K14 O30 3.332558 1_555
K14 O31 3.332558 1_555
K15 O14 2.932182 1_545
K15 O15 2.932182 1_455
K15 O28 2.952531 1_545
K15 O29 2.952531 1_455
K15 O46 2.962299 1_555
K15 O53 2.995857 1_455
K15 O52 2.995857 1_545
K15 O36 3.028871 1_555
K15 O37 3.028871 1_555
K15 O33 3.332558 1_555
K15 O32 3.332558 1_555
O0 Si14 1.632725 1_555
O0 Zr0 2.177422 1_555
O1 Si15 1.632725 1_555
O1 Zr1 2.177422 1_555
O2 Si4 1.635336 1_555
O2 Zr0 2.150838 1_455
O3 Si5 1.635336 1_555
O3 Zr0 2.150838 1_545
O4 Si6 1.635336 1_555
O4 Zr1 2.150838 1_655
O5 Si7 1.635336 1_555
O5 Zr1 2.150838 1_565
O6 Si5 1.642419 1_555
O6 Zr2 2.103836 1_555
O7 Si4 1.642419 1_555
O7 Zr2 2.103836 1_555
O8 Si7 1.642419 1_555
O8 Zr3 2.103836 1_555
O9 Si6 1.642419 1_555
O9 Zr3 2.103836 1_555
O10 Si1 1.634940 1_555
O10 Zr2 2.153050 1_555
O11 Si0 1.634940 1_555
O11 Zr2 2.153050 1_555
O12 Si3 1.634940 1_555
O12 Zr3 2.153050 1_555
O13 Si2 1.634940 1_555
O13 Zr3 2.153050 1_555
O14 Si0 1.680436 1_555
O14 Si3 1.680436 1_555
O15 Si1 1.680436 1_555
O15 Si2 1.680436 1_555
O16 Si7 1.678320 1_555
O16 Si4 1.678320 1_554
O17 Si6 1.678320 1_555
O17 Si5 1.678320 1_554
O18 Si10 1.630417 1_555
O18 Zr2 2.067922 1_555
O19 Si11 1.630417 1_555
O19 Zr3 2.067922 1_555
O20 Si12 1.633414 1_555
O20 Zr2 2.170258 1_555
O21 Si13 1.633414 1_555
O21 Zr3 2.170258 1_555
O22 Si4 1.633185 1_555
O22 Zr4 2.125881 1_565
O23 Si5 1.633185 1_555
O23 Zr5 2.125881 1_655
O24 Si6 1.633185 1_555
O24 Zr6 2.125881 1_545
O25 Si7 1.633185 1_555
O25 Zr7 2.125881 1_455
O26 Si1 1.631158 1_555
O26 Zr4 2.112183 1_555
O27 Si0 1.631158 1_555
O27 Zr5 2.112183 1_555
O28 Si3 1.631158 1_555
O28 Zr6 2.112183 1_555
O29 Si2 1.631158 1_555
O29 Zr7 2.112183 1_555
O30 Si14 1.625846 1_555
O30 Zr4 2.094247 1_565
O31 Si14 1.625846 1_555
O31 Zr5 2.094247 1_655
O32 Si15 1.625846 1_555
O32 Zr6 2.094247 1_545
O33 Si15 1.625846 1_555
O33 Zr7 2.094247 1_455
O34 Si12 1.626451 1_555
O34 Zr5 2.099283 1_655
O35 Si12 1.626451 1_555
O35 Zr4 2.099283 1_565
O36 Si13 1.626451 1_555
O36 Zr7 2.099283 1_455
O37 Si13 1.626451 1_555
O37 Zr6 2.099283 1_545
O38 Si10 1.624283 1_555
O38 Zr4 2.107251 1_555
O39 Si10 1.624283 1_555
O39 Zr5 2.107251 1_555
O40 Si11 1.624283 1_555
O40 Zr6 2.107251 1_555
O41 Si11 1.624283 1_555
O41 Zr7 2.107251 1_555
O42 Si8 1.623932 1_555
O42 Zr5 2.108362 1_555
O43 Si8 1.623932 1_555
O43 Zr4 2.108362 1_555
O44 Si9 1.623932 1_555
O44 Zr7 2.108362 1_555
O45 Si9 1.623932 1_555
O45 Zr6 2.108362 1_555
O46 Si8 1.667449 1_555
O46 Si13 1.671141 1_555
O47 Si9 1.667449 1_555
O47 Si12 1.671141 1_555
O48 Si10 1.668054 1_555
O48 Si15 1.673376 1_556
O49 Si11 1.668054 1_555
O49 Si14 1.673376 1_554
O50 Si1 1.640326 1_555
O50 Zr0 2.104456 1_545
O51 Si0 1.640326 1_555
O51 Zr0 2.104456 1_455
O52 Si3 1.640326 1_555
O52 Zr1 2.104456 1_565
O53 Si2 1.640326 1_555
O53 Zr1 2.104456 1_655
O54 Si8 1.632365 1_555
O54 Zr0 2.068970 1_445
O55 Si9 1.632365 1_555
O55 Zr1 2.068970 1_665
