# generated using pymatgen
data_Y4ZnGa3
_symmetry_space_group_name_H-M   'P 1'
_cell_length_a   11.36664473
_cell_length_b   11.36664473
_cell_length_c   11.36664473
_cell_angle_alpha   159.21688107
_cell_angle_beta   158.21915433
_cell_angle_gamma   30.28357064
_symmetry_Int_Tables_number   1
_chemical_formula_structural   Y4ZnGa3
_chemical_formula_sum   'Y4 Zn1 Ga3'
_cell_volume   193.23673355
_cell_formula_units_Z   1
loop_
 _symmetry_equiv_pos_site_id
 _symmetry_equiv_pos_as_xyz
  1  'x, y, z'
loop_
 _atom_site_type_symbol
 _atom_site_label
 _atom_site_symmetry_multiplicity
 _atom_site_fract_x
 _atom_site_fract_y
 _atom_site_fract_z
 _atom_site_occupancy
  Y  Y0  1  0.17976500  0.67976500  0.50000000  1
  Y  Y1  1  0.92879500  0.92879500  0.00000000  1
  Y  Y2  1  0.32035100  0.32035100  0.00000000  1
  Y  Y3  1  0.57193100  0.07193100  0.50000000  1
  Zn  Zn0  1  0.03714000  0.53714000  0.50000000  1
  Ga  Ga0  1  0.78724100  0.78724100  0.00000000  1
  Ga  Ga1  1  0.46162800  0.46162800  0.00000000  1
  Ga  Ga2  1  0.71314900  0.21314900  0.50000000  1
loop_
_geom_bond_atom_site_label_1
_geom_bond_atom_site_label_2
_geom_bond_distance
_geom_bond_site_symmetry_2
Y0 Zn0 3.129769 1_555
Y1 Zn0 3.139452 1_665
Y1 Zn0 3.139452 1_654
Y3 Zn0 3.065650 1_645
Y3 Zn0 3.065650 1_656
Y3 Zn0 3.065650 1_544
Y3 Zn0 3.065650 1_555
Ga0 Ga2 2.616678 1_554
Ga0 Ga2 2.616678 1_565
Ga0 Y2 3.056672 1_655
Ga0 Y2 3.056672 1_554
Ga0 Y2 3.056672 1_565
Ga0 Y2 3.056672 1_666
Ga0 Y1 3.106267 1_555
Ga0 Y0 3.189694 1_655
Ga0 Y0 3.189694 1_554
Ga1 Zn0 2.712489 1_655
Ga1 Zn0 2.712489 1_554
Ga1 Y1 3.055233 1_545
Ga1 Y1 3.055233 1_556
Ga1 Y1 3.055233 1_455
Ga1 Y1 3.055233 1_444
Ga1 Y2 3.100189 1_555
Ga1 Y3 3.172115 1_565
Ga1 Y3 3.172115 1_554
Ga2 Y0 3.058107 1_645
Ga2 Y0 3.058107 1_656
Ga2 Y0 3.058107 1_544
Ga2 Y0 3.058107 1_555
Ga2 Y3 3.098894 1_555
Ga2 Y2 3.185250 1_555
Ga2 Y2 3.185250 1_656
