# generated using pymatgen
data_Dy
_symmetry_space_group_name_H-M   'P 1'
_cell_length_a   7.08419282
_cell_length_b   12.28816318
_cell_length_c   12.28816158
_cell_angle_alpha   109.53808791
_cell_angle_beta   90.00000000
_cell_angle_gamma   90.00000000
_symmetry_Int_Tables_number   1
_chemical_formula_structural   Dy
_chemical_formula_sum   Dy32
_cell_volume   1008.11126091
_cell_formula_units_Z   32
loop_
 _symmetry_equiv_pos_site_id
 _symmetry_equiv_pos_as_xyz
  1  'x, y, z'
loop_
 _atom_site_type_symbol
 _atom_site_label
 _atom_site_symmetry_multiplicity
 _atom_site_fract_x
 _atom_site_fract_y
 _atom_site_fract_z
 _atom_site_occupancy
  Dy  Dy0_0  1  0.00000000  0.12547417  0.37452582  1
  Dy  Dy0_1  1  0.00000000  0.12547417  0.87452582  1
  Dy  Dy0_2  1  0.00000000  0.62547418  0.37452582  1
  Dy  Dy0_3  1  0.00000000  0.62547417  0.87452582  1
  Dy  Dy0_4  1  0.50000000  0.12547417  0.37452582  1
  Dy  Dy0_5  1  0.50000000  0.12547417  0.87452582  1
  Dy  Dy0_6  1  0.50000000  0.62547418  0.37452582  1
  Dy  Dy0_7  1  0.50000000  0.62547417  0.87452582  1
  Dy  Dy1_0  1  0.00000000  0.37452582  0.12547417  1
  Dy  Dy1_1  1  0.00000000  0.37452583  0.62547417  1
  Dy  Dy1_2  1  0.00000000  0.87452582  0.12547417  1
  Dy  Dy1_3  1  0.00000000  0.87452582  0.62547417  1
  Dy  Dy1_4  1  0.50000000  0.37452582  0.12547417  1
  Dy  Dy1_5  1  0.50000000  0.37452583  0.62547417  1
  Dy  Dy1_6  1  0.50000000  0.87452582  0.12547417  1
  Dy  Dy1_7  1  0.50000000  0.87452582  0.62547417  1
  Dy  Dy2_0  1  0.25000000  0.12460646  0.12460646  1
  Dy  Dy2_1  1  0.25000000  0.12460646  0.62460646  1
  Dy  Dy2_2  1  0.25000000  0.62460646  0.12460646  1
  Dy  Dy2_3  1  0.25000000  0.62460646  0.62460646  1
  Dy  Dy2_4  1  0.75000000  0.12460646  0.12460646  1
  Dy  Dy2_5  1  0.75000000  0.12460646  0.62460646  1
  Dy  Dy2_6  1  0.75000000  0.62460646  0.12460646  1
  Dy  Dy2_7  1  0.75000000  0.62460646  0.62460646  1
  Dy  Dy3_0  1  0.25000000  0.37539354  0.37539354  1
  Dy  Dy3_1  1  0.25000000  0.37539354  0.87539354  1
  Dy  Dy3_2  1  0.25000000  0.87539354  0.37539354  1
  Dy  Dy3_3  1  0.25000000  0.87539354  0.87539354  1
  Dy  Dy3_4  1  0.75000000  0.37539354  0.37539354  1
  Dy  Dy3_5  1  0.75000000  0.37539354  0.87539354  1
  Dy  Dy3_6  1  0.75000000  0.87539354  0.37539354  1
  Dy  Dy3_7  1  0.75000000  0.87539354  0.87539354  1
loop_
_geom_bond_atom_site_label_1
_geom_bond_atom_site_label_2
_geom_bond_distance
_geom_bond_site_symmetry_2
Dy0_0 Dy2_0 3.542057 1_555
Dy0_0 Dy2_4 3.542057 1_455
Dy0_0 Dy3_0 3.542057 1_555
Dy0_0 Dy3_4 3.542057 1_455
Dy0_0 Dy0_4 3.542096 1_455
Dy0_0 Dy0_4 3.542096 1_555
Dy0_0 Dy1_1 3.544410 1_555
Dy0_0 Dy1_2 3.544410 1_545
Dy0_0 Dy2_5 3.549953 1_455
Dy0_0 Dy2_1 3.549953 1_555
Dy0_0 Dy3_2 3.549953 1_545
Dy0_0 Dy3_6 3.549953 1_445
Dy0_1 Dy2_5 3.542057 1_455
Dy0_1 Dy2_1 3.542057 1_555
Dy0_1 Dy3_1 3.542057 1_555
Dy0_1 Dy3_5 3.542057 1_455
Dy0_1 Dy0_5 3.542096 1_455
Dy0_1 Dy0_5 3.542096 1_555
Dy0_1 Dy1_0 3.544410 1_556
Dy0_1 Dy1_3 3.544410 1_545
Dy0_1 Dy2_0 3.549953 1_556
Dy0_1 Dy2_4 3.549953 1_456
Dy0_1 Dy3_3 3.549953 1_545
Dy0_1 Dy3_7 3.549953 1_445
Dy0_2 Dy2_6 3.542057 1_455
Dy0_2 Dy2_2 3.542057 1_555
Dy0_2 Dy3_2 3.542057 1_555
Dy0_2 Dy3_6 3.542057 1_455
Dy0_2 Dy0_6 3.542096 1_455
Dy0_2 Dy0_6 3.542096 1_555
Dy0_2 Dy1_3 3.544410 1_555
Dy0_2 Dy1_0 3.544410 1_555
Dy0_2 Dy2_3 3.549953 1_555
Dy0_2 Dy2_7 3.549953 1_455
Dy0_2 Dy3_4 3.549953 1_455
Dy0_2 Dy3_0 3.549953 1_555
Dy0_3 Dy2_3 3.542057 1_555
Dy0_3 Dy2_7 3.542057 1_455
Dy0_3 Dy3_3 3.542057 1_555
Dy0_3 Dy3_7 3.542057 1_455
Dy0_3 Dy0_7 3.542096 1_555
Dy0_3 Dy0_7 3.542096 1_455
Dy0_3 Dy1_2 3.544410 1_556
Dy0_3 Dy1_1 3.544410 1_555
Dy0_3 Dy2_2 3.549953 1_556
Dy0_3 Dy2_6 3.549953 1_456
Dy0_3 Dy3_1 3.549953 1_555
Dy0_3 Dy3_5 3.549953 1_455
Dy0_4 Dy2_0 3.542057 1_555
Dy0_4 Dy2_4 3.542057 1_555
Dy0_4 Dy3_4 3.542057 1_555
Dy0_4 Dy3_0 3.542057 1_555
Dy0_4 Dy1_5 3.544410 1_555
Dy0_4 Dy1_6 3.544410 1_545
Dy0_4 Dy2_1 3.549953 1_555
Dy0_4 Dy2_5 3.549953 1_555
Dy0_4 Dy3_2 3.549953 1_545
Dy0_4 Dy3_6 3.549953 1_545
Dy0_5 Dy2_5 3.542057 1_555
Dy0_5 Dy2_1 3.542057 1_555
Dy0_5 Dy3_1 3.542057 1_555
Dy0_5 Dy3_5 3.542057 1_555
Dy0_5 Dy1_4 3.544410 1_556
Dy0_5 Dy1_7 3.544410 1_545
Dy0_5 Dy2_0 3.549953 1_556
Dy0_5 Dy2_4 3.549953 1_556
Dy0_5 Dy3_7 3.549953 1_545
Dy0_5 Dy3_3 3.549953 1_545
Dy0_6 Dy2_6 3.542057 1_555
Dy0_6 Dy2_2 3.542057 1_555
Dy0_6 Dy3_2 3.542057 1_555
Dy0_6 Dy3_6 3.542057 1_555
Dy0_6 Dy1_7 3.544410 1_555
Dy0_6 Dy1_4 3.544410 1_555
Dy0_6 Dy2_3 3.549953 1_555
Dy0_6 Dy2_7 3.549953 1_555
Dy0_6 Dy3_0 3.549953 1_555
Dy0_6 Dy3_4 3.549953 1_555
Dy0_7 Dy2_7 3.542057 1_555
Dy0_7 Dy2_3 3.542057 1_555
Dy0_7 Dy3_3 3.542057 1_555
Dy0_7 Dy3_7 3.542057 1_555
Dy0_7 Dy1_6 3.544410 1_556
Dy0_7 Dy1_5 3.544410 1_555
Dy0_7 Dy2_2 3.549953 1_556
Dy0_7 Dy2_6 3.549953 1_556
Dy0_7 Dy3_1 3.549953 1_555
Dy0_7 Dy3_5 3.549953 1_555
Dy1_0 Dy3_0 3.542057 1_555
Dy1_0 Dy3_4 3.542057 1_455
Dy1_0 Dy2_0 3.542057 1_555
Dy1_0 Dy2_4 3.542057 1_455
Dy1_0 Dy1_4 3.542096 1_555
Dy1_0 Dy1_4 3.542096 1_455
Dy1_0 Dy3_1 3.549953 1_554
Dy1_0 Dy3_5 3.549953 1_454
Dy1_0 Dy2_6 3.549953 1_455
Dy1_0 Dy2_2 3.549953 1_555
Dy1_1 Dy3_1 3.542057 1_555
Dy1_1 Dy3_5 3.542057 1_455
Dy1_1 Dy2_5 3.542057 1_455
Dy1_1 Dy2_1 3.542057 1_555
Dy1_1 Dy1_5 3.542096 1_555
Dy1_1 Dy1_5 3.542096 1_455
Dy1_1 Dy3_0 3.549953 1_555
Dy1_1 Dy3_4 3.549953 1_455
Dy1_1 Dy2_7 3.549953 1_455
Dy1_1 Dy2_3 3.549953 1_555
Dy1_2 Dy3_6 3.542057 1_455
Dy1_2 Dy3_2 3.542057 1_555
Dy1_2 Dy2_2 3.542057 1_555
Dy1_2 Dy2_6 3.542057 1_455
Dy1_2 Dy1_6 3.542096 1_555
Dy1_2 Dy1_6 3.542096 1_455
Dy1_2 Dy3_7 3.549953 1_454
Dy1_2 Dy3_3 3.549953 1_554
Dy1_2 Dy2_0 3.549953 1_565
Dy1_2 Dy2_4 3.549953 1_465
Dy1_3 Dy3_3 3.542057 1_555
Dy1_3 Dy3_7 3.542057 1_455
Dy1_3 Dy2_3 3.542057 1_555
Dy1_3 Dy2_7 3.542057 1_455
Dy1_3 Dy1_7 3.542096 1_455
Dy1_3 Dy1_7 3.542096 1_555
Dy1_3 Dy3_6 3.549953 1_455
Dy1_3 Dy3_2 3.549953 1_555
Dy1_3 Dy2_1 3.549953 1_565
Dy1_3 Dy2_5 3.549953 1_465
Dy1_4 Dy3_0 3.542057 1_555
Dy1_4 Dy3_4 3.542057 1_555
Dy1_4 Dy2_0 3.542057 1_555
Dy1_4 Dy2_4 3.542057 1_555
Dy1_4 Dy3_1 3.549953 1_554
Dy1_4 Dy3_5 3.549953 1_554
Dy1_4 Dy2_2 3.549953 1_555
Dy1_4 Dy2_6 3.549953 1_555
Dy1_5 Dy3_1 3.542057 1_555
Dy1_5 Dy3_5 3.542057 1_555
Dy1_5 Dy2_1 3.542057 1_555
Dy1_5 Dy2_5 3.542057 1_555
Dy1_5 Dy3_4 3.549953 1_555
Dy1_5 Dy3_0 3.549953 1_555
Dy1_5 Dy2_3 3.549953 1_555
Dy1_5 Dy2_7 3.549953 1_555
Dy1_6 Dy3_6 3.542057 1_555
Dy1_6 Dy3_2 3.542057 1_555
Dy1_6 Dy2_2 3.542057 1_555
Dy1_6 Dy2_6 3.542057 1_555
Dy1_6 Dy3_3 3.549953 1_554
Dy1_6 Dy3_7 3.549953 1_554
Dy1_6 Dy2_0 3.549953 1_565
Dy1_6 Dy2_4 3.549953 1_565
Dy1_7 Dy3_3 3.542057 1_555
Dy1_7 Dy3_7 3.542057 1_555
Dy1_7 Dy2_3 3.542057 1_555
Dy1_7 Dy2_7 3.542057 1_555
Dy1_7 Dy3_2 3.549953 1_555
Dy1_7 Dy3_6 3.549953 1_555
Dy1_7 Dy2_1 3.549953 1_565
Dy1_7 Dy2_5 3.549953 1_565
Dy2_0 Dy3_3 3.533200 1_544
Dy2_0 Dy2_4 3.542096 1_555
Dy2_0 Dy2_4 3.542096 1_455
Dy2_0 Dy3_0 3.555518 1_555
Dy2_1 Dy3_2 3.533200 1_545
Dy2_1 Dy2_5 3.542096 1_455
Dy2_1 Dy2_5 3.542096 1_555
Dy2_1 Dy3_1 3.555518 1_555
Dy2_2 Dy3_1 3.533200 1_554
Dy2_2 Dy2_6 3.542096 1_455
Dy2_2 Dy2_6 3.542096 1_555
Dy2_2 Dy3_2 3.555518 1_555
Dy2_3 Dy3_0 3.533200 1_555
Dy2_3 Dy2_7 3.542096 1_555
Dy2_3 Dy2_7 3.542096 1_455
Dy2_3 Dy3_3 3.555518 1_555
Dy2_4 Dy3_7 3.533200 1_544
Dy2_4 Dy3_4 3.555518 1_555
Dy2_5 Dy3_6 3.533200 1_545
Dy2_5 Dy3_5 3.555518 1_555
Dy2_6 Dy3_5 3.533200 1_554
Dy2_6 Dy3_6 3.555518 1_555
Dy2_7 Dy3_4 3.533200 1_555
Dy2_7 Dy3_7 3.555518 1_555
Dy3_0 Dy3_4 3.542096 1_455
Dy3_0 Dy3_4 3.542096 1_555
Dy3_1 Dy3_5 3.542096 1_455
Dy3_1 Dy3_5 3.542096 1_555
Dy3_2 Dy3_6 3.542096 1_555
Dy3_2 Dy3_6 3.542096 1_455
Dy3_3 Dy3_7 3.542096 1_455
Dy3_3 Dy3_7 3.542096 1_555
