# generated using pymatgen
data_V4OF11
_symmetry_space_group_name_H-M   'P 1'
_cell_length_a   5.07062873
_cell_length_b   7.27497006
_cell_length_c   5.33053230
_cell_angle_alpha   94.55676938
_cell_angle_beta   90.01017296
_cell_angle_gamma   89.57810660
_symmetry_Int_Tables_number   1
_chemical_formula_structural   V4OF11
_chemical_formula_sum   'V4 O1 F11'
_cell_volume   196.00938220
_cell_formula_units_Z   1
loop_
 _symmetry_equiv_pos_site_id
 _symmetry_equiv_pos_as_xyz
  1  'x, y, z'
loop_
 _atom_site_type_symbol
 _atom_site_label
 _atom_site_symmetry_multiplicity
 _atom_site_fract_x
 _atom_site_fract_y
 _atom_site_fract_z
 _atom_site_occupancy
  V  V0  1  0.51068415  0.48141004  0.49971085  1
  V  V1  1  0.50406413  0.00487402  0.49999405  1
  V  V2  1  0.00077259  0.50245129  -0.00029797  1
  V  V3  1  0.00069166  0.00037883  0.00057128  1
  O  O0  1  0.58910889  0.25506892  0.49975672  1
  F  F0  1  0.87471290  0.24823557  0.00073405  1
  F  F1  1  0.81096870  0.56072065  0.31074421  1
  F  F2  1  0.81320761  0.94302841  0.68983221  1
  F  F3  1  0.68498456  0.93902107  0.19181182  1
  F  F4  1  0.69360708  0.56349263  0.81015314  1
  F  F5  1  0.39566178  0.74382655  0.50093478  1
  F  F6  1  0.30755917  0.44243401  0.18690905  1
  F  F7  1  0.31638872  0.05910719  0.80967953  1
  F  F8  1  0.18548355  0.05429072  0.31247386  1
  F  F9  1  0.18499648  0.44724143  0.68700769  1
  F  F10  1  0.12710802  0.75441867  -0.00001429  1
loop_
_geom_bond_atom_site_label_1
_geom_bond_atom_site_label_2
_geom_bond_distance
_geom_bond_site_symmetry_2
O0 V0 1.691133 1_555
O0 V1 1.873732 1_555
F0 V3 1.908454 1_655
F0 V2 1.961622 1_655
F1 V2 1.933358 1_655
F1 V0 1.942108 1_555
F2 V3 1.927948 1_666
F2 V1 1.935217 1_565
F3 V1 1.907570 1_565
F3 V3 1.970921 1_665
F4 V2 1.924715 1_656
F4 V0 1.950882 1_555
F5 V1 1.981332 1_565
F5 V0 1.991579 1_555
F6 V2 1.914430 1_555
F6 V0 1.962150 1_555
F7 V1 1.917788 1_555
F7 V3 1.964737 1_556
F8 V3 1.922843 1_555
F8 V1 1.945742 1_555
F9 V2 1.923769 1_556
F9 V0 1.957524 1_555
F10 V3 1.896025 1_565
F10 V2 1.946102 1_555
