# generated using pymatgen
data_CaLaMgAl2Si3HO13
_symmetry_space_group_name_H-M   'P 1'
_cell_length_a   5.74327500
_cell_length_b   8.99215900
_cell_length_c   10.17083274
_cell_angle_alpha   65.59375252
_cell_angle_beta   90.00000000
_cell_angle_gamma   90.00000000
_symmetry_Int_Tables_number   1
_chemical_formula_structural   CaLaMgAl2Si3HO13
_chemical_formula_sum   'Ca2 La2 Mg2 Al4 Si6 H2 O26'
_cell_volume   478.32839434
_cell_formula_units_Z   2
loop_
 _symmetry_equiv_pos_site_id
 _symmetry_equiv_pos_as_xyz
  1  'x, y, z'
loop_
 _atom_site_type_symbol
 _atom_site_label
 _atom_site_symmetry_multiplicity
 _atom_site_fract_x
 _atom_site_fract_y
 _atom_site_fract_z
 _atom_site_occupancy
  Ca  Ca0  1  0.75000000  0.23818800  0.15221200  1
  Ca  Ca1  1  0.25000000  0.76181200  0.84778800  1
  La  La0  1  0.75000000  0.40637000  0.42796200  1
  La  La1  1  0.25000000  0.59363000  0.57203800  1
  Mg  Mg0  1  0.25000000  0.70397500  0.20918300  1
  Mg  Mg1  1  0.75000000  0.29602500  0.79081700  1
  Al  Al0  1  0.00000000  0.00000000  0.00000000  1
  Al  Al1  1  0.50000000  0.00000000  0.00000000  1
  Al  Al2  1  0.00000000  0.00000000  0.50000000  1
  Al  Al3  1  0.50000000  0.00000000  0.50000000  1
  Si  Si0  1  0.75000000  0.66348500  0.03884700  1
  Si  Si1  1  0.25000000  0.33651500  0.96115300  1
  Si  Si2  1  0.25000000  0.31365500  0.28236700  1
  Si  Si3  1  0.75000000  0.68634500  0.71763300  1
  Si  Si4  1  0.75000000  0.81470500  0.31972500  1
  Si  Si5  1  0.25000000  0.18529500  0.68027500  1
  H  H0  1  0.25000000  0.94083600  0.31788800  1
  H  H1  1  0.75000000  0.05916400  0.68211200  1
  O  O0  1  0.99237900  0.76525500  0.03272700  1
  O  O1  1  0.49237900  0.23474500  0.96727300  1
  O  O2  1  0.00762100  0.23474500  0.96727300  1
  O  O3  1  0.50762100  0.76525500  0.03272700  1
  O  O4  1  0.97458700  0.69083600  0.35934800  1
  O  O5  1  0.47458700  0.30916400  0.64065200  1
  O  O6  1  0.02541300  0.30916400  0.64065200  1
  O  O7  1  0.52541300  0.69083600  0.35934800  1
  O  O8  1  0.01143400  0.20388200  0.34130000  1
  O  O9  1  0.51143400  0.79611800  0.65870000  1
  O  O10  1  0.98856600  0.79611800  0.65870000  1
  O  O11  1  0.48856600  0.20388200  0.34130000  1
  O  O12  1  0.25000000  0.95004100  0.12528600  1
  O  O13  1  0.75000000  0.04995900  0.87471400  1
  O  O14  1  0.75000000  0.95491700  0.14905500  1
  O  O15  1  0.25000000  0.04508300  0.85094500  1
  O  O16  1  0.75000000  0.93331500  0.40976800  1
  O  O17  1  0.25000000  0.06668500  0.59023200  1
  O  O18  1  0.75000000  0.48983700  0.17756400  1
  O  O19  1  0.25000000  0.51016300  0.82243600  1
  O  O20  1  0.25000000  0.46178400  0.33180000  1
  O  O21  1  0.75000000  0.53821600  0.66820000  1
  O  O22  1  0.25000000  0.38125800  0.10432300  1
  O  O23  1  0.75000000  0.61874200  0.89567700  1
  O  O24  1  0.25000000  0.91905300  0.42271300  1
  O  O25  1  0.75000000  0.08094700  0.57728700  1
loop_
_geom_bond_atom_site_label_1
_geom_bond_atom_site_label_2
_geom_bond_distance
_geom_bond_site_symmetry_2
Ca0 O11 2.357535 1_555
Ca0 O8 2.357535 1_655
Ca0 O18 2.381019 1_555
Ca0 O1 2.403407 1_554
Ca0 O2 2.403407 1_654
Ca0 O14 2.560653 1_545
Ca1 O10 2.357535 1_455
Ca1 O9 2.357535 1_555
Ca1 O19 2.381019 1_555
Ca1 O3 2.403407 1_556
Ca1 O0 2.403407 1_456
Ca1 O15 2.560653 1_565
La0 O18 2.338727 1_555
La0 O6 2.526460 1_655
La0 O5 2.526460 1_555
La0 O25 2.682688 1_555
La0 O4 2.686767 1_555
La0 O7 2.686767 1_555
La0 O11 2.770019 1_555
La0 O8 2.770019 1_655
La0 O20 3.008059 1_555
La0 O20 3.008059 1_655
La0 O21 3.125684 1_555
La1 O19 2.338727 1_555
La1 O7 2.526460 1_555
La1 O4 2.526460 1_455
La1 O24 2.682688 1_555
La1 O6 2.686767 1_555
La1 O5 2.686767 1_555
La1 O9 2.770019 1_555
La1 O10 2.770019 1_455
La1 O21 3.008059 1_455
La1 O21 3.008059 1_555
La1 O20 3.125684 1_555
Mg0 O20 2.013376 1_555
Mg0 O12 2.015860 1_555
Mg0 O7 2.167832 1_555
Mg0 O4 2.167832 1_455
Mg0 O3 2.212806 1_555
Mg0 O0 2.212806 1_455
Mg1 O21 2.013376 1_555
Mg1 O13 2.015860 1_555
Mg1 O6 2.167832 1_655
Mg1 O5 2.167832 1_555
Mg1 O2 2.212806 1_655
Mg1 O1 2.212806 1_555
Al0 O13 1.847718 1_454
Al0 O12 1.847718 1_545
Al0 O0 1.996949 1_445
Al0 O2 1.996949 1_554
Al0 O14 2.004076 1_445
Al0 O15 2.004076 1_554
Al1 O12 1.847718 1_545
Al1 O13 1.847718 1_554
Al1 O3 1.996949 1_545
Al1 O1 1.996949 1_554
Al1 O14 2.004076 1_545
Al1 O15 2.004076 1_554
Al2 O8 1.877574 1_555
Al2 O10 1.877574 1_445
Al2 O25 1.918895 1_455
Al2 O24 1.918895 1_545
Al2 O17 1.928254 1_555
Al2 O16 1.928254 1_445
Al3 O11 1.877574 1_555
Al3 O9 1.877574 1_545
Al3 O25 1.918895 1_555
Al3 O24 1.918895 1_545
Al3 O17 1.928254 1_555
Al3 O16 1.928254 1_545
H0 O24 1.001238 1_555
H1 O25 1.001238 1_555
O0 Si0 1.652897 1_555
O1 Si1 1.652897 1_555
O2 Si1 1.652897 1_555
O3 Si0 1.652897 1_555
O4 Si4 1.641908 1_555
O5 Si5 1.641908 1_555
O6 Si5 1.641908 1_555
O7 Si4 1.641908 1_555
O8 Si2 1.649846 1_555
O9 Si3 1.649846 1_555
O10 Si3 1.649846 1_555
O11 Si2 1.649846 1_555
O14 Si4 1.671578 1_555
O15 Si5 1.671578 1_555
O16 Si4 1.668374 1_555
O17 Si5 1.668374 1_555
O18 Si0 1.614973 1_555
O19 Si1 1.614973 1_555
O20 Si2 1.606377 1_555
O21 Si3 1.606377 1_555
O22 Si2 1.654997 1_555
O22 Si1 1.663260 1_554
O23 Si3 1.654997 1_555
O23 Si0 1.663260 1_556
