# generated using pymatgen
data_Sr3La7Mn9FeO30
_symmetry_space_group_name_H-M   'P 1'
_cell_length_a   5.53769001
_cell_length_b   5.53768985
_cell_length_c   55.42434074
_cell_angle_alpha   60.77276193
_cell_angle_beta   60.77276286
_cell_angle_gamma   60.75305112
_symmetry_Int_Tables_number   1
_chemical_formula_structural   Sr3La7Mn9FeO30
_chemical_formula_sum   'Sr6 La14 Mn18 Fe2 O60'
_cell_volume   1222.60346676
_cell_formula_units_Z   2
loop_
 _symmetry_equiv_pos_site_id
 _symmetry_equiv_pos_as_xyz
  1  'x, y, z'
loop_
 _atom_site_type_symbol
 _atom_site_label
 _atom_site_symmetry_multiplicity
 _atom_site_fract_x
 _atom_site_fract_y
 _atom_site_fract_z
 _atom_site_occupancy
  Sr  Sr0  1  0.24588866  0.24770087  0.02637601  1
  Sr  Sr1  1  0.24834792  0.24954850  0.12556139  1
  Sr  Sr2  1  0.24719114  0.24829135  0.22565330  1
  Sr  Sr3  1  0.25170865  0.25280886  0.32434670  1
  Sr  Sr4  1  0.25045150  0.25165208  0.42443861  1
  Sr  Sr5  1  0.25229913  0.25411134  0.52362399  1
  La  La0  1  0.74594636  0.74765278  0.07617534  1
  La  La1  1  0.74848683  0.74959431  0.17575581  1
  La  La2  1  0.74874158  0.75125842  0.27500000  1
  La  La3  1  0.75040569  0.75151317  0.37424419  1
  La  La4  1  0.25774601  0.25335174  0.62308727  1
  La  La5  1  0.75234722  0.75405364  0.47382466  1
  La  La6  1  0.25093165  0.25094995  0.72464353  1
  La  La7  1  0.75655805  0.75612865  0.57239521  1
  La  La8  1  0.24905005  0.24906835  0.82535647  1
  La  La9  1  0.75197807  0.75208787  0.67414549  1
  La  La10  1  0.24664826  0.24225399  0.92691273  1
  La  La11  1  0.74960450  0.75039550  0.77500000  1
  La  La12  1  0.74791213  0.74802193  0.87585451  1
  La  La13  1  0.74387135  0.74344195  0.97760479  1
  Mn  Mn0  1  -0.00073734  0.99428753  0.00094506  1
  Mn  Mn1  1  0.99918581  -0.00055882  0.10022241  1
  Mn  Mn2  1  0.99751677  0.00148708  0.20002388  1
  Mn  Mn3  1  0.49858338  0.49875527  0.05060444  1
  Mn  Mn4  1  0.49767961  0.50072237  0.15028389  1
  Mn  Mn5  1  0.99927763  0.00232039  0.39971611  1
  Mn  Mn6  1  0.00124473  0.00141662  0.49939556  1
  Mn  Mn7  1  0.49851292  0.50248323  0.34997612  1
  Mn  Mn8  1  0.00035030  0.00406382  0.59930139  1
  Mn  Mn9  1  0.50055882  0.50081419  0.44977759  1
  Mn  Mn10  1  -0.00002995  0.00173355  0.69973922  1
  Mn  Mn11  1  0.50571247  0.50073734  0.54905494  1
  Mn  Mn12  1  0.99936960  -0.00005549  0.80005704  1
  Mn  Mn13  1  0.50245962  0.50008458  0.64959774  1
  Mn  Mn14  1  0.50005549  0.50063040  0.74994296  1
  Mn  Mn15  1  0.99991542  0.99754038  0.90040226  1
  Mn  Mn16  1  0.49826645  0.50002995  0.85026078  1
  Mn  Mn17  1  0.49593618  0.49964970  0.95069861  1
  Fe  Fe0  1  0.00126167  0.00008607  0.29975064  1
  Fe  Fe1  1  0.49991393  0.49873833  0.25024936  1
  O  O0  1  0.18780804  0.75174765  0.03097048  1
  O  O1  1  0.31019359  0.19046529  0.07461829  1
  O  O2  1  0.25186067  0.70463477  0.07945607  1
  O  O3  1  0.74774025  0.31166939  0.01897840  1
  O  O4  1  0.19424931  0.74655473  0.13120514  1
  O  O5  1  0.70121270  0.80009710  0.02402508  1
  O  O6  1  0.31091291  0.18634569  0.17506599  1
  O  O7  1  0.79582569  0.25173006  0.07043321  1
  O  O8  1  0.24699130  0.70170935  0.18013031  1
  O  O9  1  0.74793360  0.30947123  0.11937522  1
  O  O10  1  0.18738041  0.75578819  0.23015617  1
  O  O11  1  0.70245458  0.79277295  0.12477423  1
  O  O12  1  0.31432049  0.18567951  0.27500000  1
  O  O13  1  0.79859080  0.24938791  0.17023136  1
  O  O14  1  0.24735023  0.70550710  0.27930772  1
  O  O15  1  0.75631606  0.30506575  0.21849976  1
  O  O16  1  0.19493425  0.74368394  0.33150024  1
  O  O17  1  0.70932835  0.80101254  0.22396847  1
  O  O18  1  0.31365431  0.18908709  0.37493401  1
  O  O19  1  0.79449290  0.25264977  0.27069228  1
  O  O20  1  0.25061209  0.70140920  0.37976864  1
  O  O21  1  0.74421181  0.31261959  0.31984383  1
  O  O22  1  0.19052877  0.75206640  0.43062478  1
  O  O23  1  0.69898746  0.79067165  0.32603153  1
  O  O24  1  0.30953471  0.18980641  0.47538171  1
  O  O25  1  0.79829065  0.25300870  0.36986969  1
  O  O26  1  0.24826994  0.70417431  0.47956679  1
  O  O27  1  0.75344527  0.30575069  0.41879486  1
  O  O28  1  0.18833061  0.75225975  0.53102160  1
  O  O29  1  0.70722705  0.79754542  0.42522577  1
  O  O30  1  0.31309575  0.18826094  0.57615529  1
  O  O31  1  0.79536523  0.24813933  0.47054393  1
  O  O32  1  0.25088542  0.68699511  0.58104523  1
  O  O33  1  0.74825235  0.31219196  0.51902952  1
  O  O34  1  0.18504723  0.74784205  0.63176149  1
  O  O35  1  0.69990290  0.79878730  0.52597492  1
  O  O36  1  0.31904425  0.18303660  0.67521045  1
  O  O37  1  0.79433283  0.25027210  0.57036575  1
  O  O38  1  0.24918855  0.68202114  0.68195716  1
  O  O39  1  0.75179975  0.31546765  0.61836685  1
  O  O40  1  0.18271890  0.74846265  0.73206815  1
  O  O41  1  0.68532749  0.81369304  0.62590238  1
  O  O42  1  0.31906378  0.18093622  0.77500000  1
  O  O43  1  0.81627926  0.25246115  0.66787628  1
  O  O44  1  0.24794193  0.68216073  0.78220029  1
  O  O45  1  0.75158205  0.31699875  0.71790154  1
  O  O46  1  0.18300125  0.74841795  0.83209846  1
  O  O47  1  0.68189700  0.81818985  0.72516886  1
  O  O48  1  0.31696340  0.18095575  0.87478955  1
  O  O49  1  0.81783927  0.25205807  0.76779971  1
  O  O50  1  0.24753885  0.68372074  0.88212372  1
  O  O51  1  0.75153735  0.31728110  0.81793185  1
  O  O52  1  0.18453235  0.74820025  0.93163315  1
  O  O53  1  0.68181015  0.81810300  0.82483114  1
  O  O54  1  0.31173906  0.18690425  0.97384471  1
  O  O55  1  0.81797886  0.25081145  0.86804284  1
  O  O56  1  0.24972790  0.70566717  0.97963425  1
  O  O57  1  0.75215795  0.31495277  0.91823851  1
  O  O58  1  0.68630696  0.81467251  0.92409762  1
  O  O59  1  0.81300489  0.24911458  0.96895477  1
loop_
_geom_bond_atom_site_label_1
_geom_bond_atom_site_label_2
_geom_bond_distance
_geom_bond_site_symmetry_2
La0 O9 2.438627 1_555
La0 O1 2.461322 1_565
La0 O0 2.505397 1_655
La0 O11 2.709359 1_555
La0 O2 2.772143 1_555
La0 O2 2.782406 1_655
La0 O7 2.783163 1_555
La0 O7 2.787409 1_565
La0 O5 2.882579 1_555
La0 O4 3.088160 1_555
La0 O1 3.141197 1_655
La0 O3 3.183611 1_565
La1 O15 2.444390 1_555
La1 O6 2.448710 1_565
La1 O4 2.497678 1_655
La1 O17 2.717598 1_555
La1 O8 2.761402 1_655
La1 O13 2.769614 1_565
La1 O13 2.799617 1_555
La1 O8 2.800143 1_555
La1 O11 2.844351 1_555
La2 O12 2.433020 1_565
La2 O21 2.486220 1_555
La2 O10 2.486220 1_655
La2 O19 2.765179 1_555
La2 O14 2.765180 1_655
La2 O19 2.794883 1_565
La2 O14 2.794883 1_555
La2 O17 2.811833 1_555
La2 O23 2.811833 1_555
La3 O16 2.444390 1_655
La3 O18 2.448710 1_565
La3 O27 2.497677 1_555
La3 O23 2.717598 1_555
La3 O25 2.761402 1_555
La3 O20 2.769614 1_555
La3 O20 2.799617 1_655
La3 O25 2.800143 1_565
La3 O29 2.844351 1_555
La4 O32 2.393873 1_555
La4 O41 2.432130 1_545
La4 O43 2.492455 1_455
La4 O30 2.649349 1_555
La4 O39 2.779014 1_455
La4 O39 2.793692 1_555
La4 O34 2.797775 1_545
La4 O34 2.812663 1_555
La4 O36 2.888343 1_555
La4 O37 2.981315 1_555
La4 O41 3.174823 1_455
La4 O38 3.251573 1_545
La5 O22 2.438627 1_655
La5 O24 2.461322 1_565
La5 O33 2.505397 1_555
La5 O29 2.709359 1_555
La5 O31 2.772143 1_565
La5 O31 2.782406 1_555
La5 O26 2.783163 1_655
La5 O26 2.787410 1_555
La5 O35 2.882579 1_555
La5 O27 3.088160 1_565
La5 O24 3.141197 1_655
La5 O28 3.183611 1_555
La6 O38 2.404250 1_555
La6 O47 2.418823 1_545
La6 O49 2.423042 1_455
La6 O36 2.765615 1_555
La6 O45 2.793848 1_555
La6 O45 2.794149 1_455
La6 O40 2.795009 1_545
La6 O40 2.800153 1_555
La6 O42 2.812627 1_555
La7 O28 2.370530 1_655
La7 O30 2.458769 1_565
La7 O39 2.524477 1_555
La7 O35 2.626009 1_555
La7 O37 2.759654 1_555
La7 O32 2.788396 1_555
La7 O37 2.789292 1_565
La7 O32 2.819266 1_655
La7 O41 2.951263 1_555
La7 O33 3.054959 1_565
La7 O30 3.154003 1_655
La7 O34 3.266488 1_555
La8 O55 2.404250 1_455
La8 O53 2.418823 1_545
La8 O44 2.423042 1_555
La8 O48 2.765615 1_555
La8 O46 2.793848 1_545
La8 O46 2.794149 1_555
La8 O51 2.795010 1_555
La8 O51 2.800153 1_455
La8 O42 2.812627 1_555
La9 O34 2.401572 1_655
La9 O36 2.419739 1_565
La9 O45 2.445481 1_555
La9 O41 2.711450 1_555
La9 O43 2.785300 1_555
La9 O38 2.793684 1_555
La9 O43 2.797955 1_565
La9 O38 2.806308 1_655
La9 O47 2.842915 1_555
La10 O59 2.393873 1_455
La10 O58 2.432130 1_545
La10 O50 2.492454 1_555
La10 O54 2.649349 1_555
La10 O52 2.779014 1_555
La10 O52 2.793692 1_545
La10 O57 2.797776 1_555
La10 O57 2.812663 1_455
La10 O48 2.888343 1_555
La10 O56 2.981315 1_545
La10 O58 3.174823 1_455
La10 O55 3.251574 1_555
La11 O42 2.411287 1_565
La11 O51 2.416846 1_555
La11 O40 2.416846 1_655
La11 O47 2.787569 1_555
La11 O53 2.787569 1_555
La11 O49 2.795612 1_565
La11 O44 2.795612 1_555
La11 O49 2.797662 1_555
La11 O44 2.797662 1_655
La12 O57 2.401572 1_555
La12 O48 2.419739 1_565
La12 O46 2.445481 1_655
La12 O58 2.711450 1_555
La12 O50 2.785300 1_655
La12 O55 2.793684 1_565
La12 O50 2.797955 1_555
La12 O55 2.806308 1_555
La12 O53 2.842915 1_555
La13 O3 2.370530 1_556
La13 O54 2.458769 1_565
La13 O52 2.524477 1_655
La13 O5 2.626009 1_556
La13 O56 2.759654 1_655
La13 O59 2.788396 1_565
La13 O56 2.789292 1_555
La13 O59 2.819266 1_555
La13 O58 2.951263 1_555
La13 O0 3.054959 1_556
La13 O54 3.154003 1_655
La13 O57 3.266488 1_565
Mn0 O0 1.951215 1_555
Mn0 O5 1.961153 1_455
Mn0 O56 1.987693 1_554
Mn0 O3 1.997980 1_465
Mn0 O54 2.022112 1_564
Mn0 O59 2.029574 1_464
Mn1 O7 1.992936 1_555
Mn1 O2 1.994466 1_645
Mn1 O11 1.998704 1_545
Mn1 O9 2.003385 1_555
Mn1 O1 2.006631 1_655
Mn1 O4 2.015347 1_645
Mn2 O17 1.940304 1_545
Mn2 O15 1.951956 1_555
Mn2 O10 1.960530 1_645
Mn2 O13 1.977273 1_555
Mn2 O8 1.984706 1_645
Mn2 O6 1.995526 1_655
Mn3 O2 1.961710 1_555
Mn3 O7 1.971477 1_555
Mn3 O1 1.984902 1_555
Mn3 O5 2.007176 1_555
Mn3 O3 2.016032 1_555
Mn3 O0 2.023062 1_555
Mn4 O4 1.972053 1_555
Mn4 O11 1.973298 1_555
Mn4 O8 1.986955 1_555
Mn4 O13 1.991563 1_555
Mn4 O9 1.999023 1_555
Mn4 O6 2.006013 1_555
Mn5 O27 1.972053 1_555
Mn5 O29 1.973298 1_545
Mn5 O25 1.986955 1_555
Mn5 O20 1.991563 1_645
Mn5 O22 1.999023 1_645
Mn5 O18 2.006014 1_655
Mn6 O31 1.961710 1_455
Mn6 O26 1.971477 1_545
Mn6 O24 1.984902 1_555
Mn6 O35 2.007176 1_445
Mn6 O28 2.016032 1_545
Mn6 O33 2.023062 1_455
Mn7 O23 1.940304 1_555
Mn7 O16 1.951956 1_555
Mn7 O21 1.960530 1_555
Mn7 O20 1.977273 1_555
Mn7 O25 1.984706 1_555
Mn7 O18 1.995526 1_555
Mn8 O37 1.965698 1_455
Mn8 O30 1.991053 1_555
Mn8 O32 2.003821 1_545
Mn8 O39 2.006161 1_455
Mn8 O41 2.023829 1_445
Mn8 O34 2.045012 1_545
Mn9 O26 1.992936 1_555
Mn9 O31 1.994466 1_555
Mn9 O29 1.998704 1_555
Mn9 O22 2.003385 1_555
Mn9 O24 2.006631 1_555
Mn9 O27 2.015347 1_555
Mn10 O45 1.992686 1_455
Mn10 O38 1.999670 1_545
Mn10 O36 2.008241 1_555
Mn10 O47 2.012003 1_445
Mn10 O43 2.015176 1_455
Mn10 O40 2.032624 1_545
Mn11 O33 1.951215 1_555
Mn11 O35 1.961153 1_555
Mn11 O37 1.987693 1_555
Mn11 O28 1.997980 1_555
Mn11 O30 2.022112 1_555
Mn11 O32 2.029574 1_555
Mn12 O51 1.992204 1_555
Mn12 O44 1.993629 1_645
Mn12 O53 2.003488 1_545
Mn12 O42 2.010230 1_655
Mn12 O46 2.022827 1_645
Mn12 O49 2.025406 1_555
Mn13 O41 1.989651 1_555
Mn13 O43 1.990186 1_555
Mn13 O39 1.990650 1_555
Mn13 O34 1.991265 1_555
Mn13 O36 2.007467 1_555
Mn13 O38 2.031299 1_555
Mn14 O40 1.992204 1_555
Mn14 O49 1.993629 1_555
Mn14 O47 2.003488 1_555
Mn14 O42 2.010230 1_555
Mn14 O45 2.022827 1_555
Mn14 O44 2.025406 1_555
Mn15 O58 1.989651 1_555
Mn15 O50 1.990186 1_655
Mn15 O52 1.990650 1_655
Mn15 O57 1.991265 1_565
Mn15 O48 2.007467 1_665
Mn15 O55 2.031299 1_565
Mn16 O46 1.992686 1_555
Mn16 O55 1.999670 1_555
Mn16 O48 2.008241 1_555
Mn16 O53 2.012003 1_555
Mn16 O50 2.015176 1_555
Mn16 O51 2.032624 1_555
Mn17 O56 1.965698 1_555
Mn17 O54 1.991053 1_555
Mn17 O59 2.003821 1_555
Mn17 O52 2.006161 1_555
Mn17 O58 2.023829 1_555
Mn17 O57 2.045012 1_555
Fe0 O19 1.974169 1_455
Fe0 O14 1.981626 1_545
Fe0 O12 1.996340 1_555
Fe0 O23 2.033395 1_445
Fe0 O16 2.043987 1_545
Fe0 O21 2.046624 1_455
Fe1 O14 1.974169 1_555
Fe1 O19 1.981626 1_555
Fe1 O12 1.996340 1_555
Fe1 O17 2.033395 1_555
Fe1 O15 2.043987 1_555
Fe1 O10 2.046624 1_555
O0 Sr0 2.774217 1_555
O0 Sr0 2.794890 1_565
O1 Sr0 2.714477 1_555
O1 Sr1 2.836327 1_555
O2 Sr1 2.567454 1_555
O2 Sr0 3.009656 1_565
O3 Sr0 2.779277 1_555
O3 Sr0 2.812692 1_655
O4 Sr1 2.775984 1_555
O4 Sr1 2.796285 1_565
O5 Sr0 2.531019 1_565
O5 Sr0 3.074231 1_655
O6 Sr1 2.764561 1_555
O6 Sr2 2.821010 1_555
O7 Sr0 2.496088 1_655
O7 Sr1 3.079133 1_555
O8 Sr2 2.546351 1_555
O8 Sr1 3.064450 1_565
O9 Sr1 2.782286 1_555
O9 Sr1 2.797334 1_655
O10 Sr2 2.783448 1_565
O10 Sr2 2.786532 1_555
O11 Sr1 2.551273 1_565
O11 Sr1 3.050299 1_655
O12 Sr3 2.771200 1_555
O12 Sr2 2.771200 1_555
O13 Sr1 2.512193 1_655
O13 Sr2 3.098335 1_555
O14 Sr3 2.530816 1_555
O14 Sr2 3.024740 1_565
O15 Sr2 2.782251 1_655
O15 Sr2 2.803165 1_555
O16 Sr3 2.782251 1_555
O16 Sr3 2.803165 1_565
O17 Sr2 2.547866 1_565
O17 Sr2 3.054987 1_655
O18 Sr4 2.764561 1_555
O18 Sr3 2.821010 1_555
O19 Sr2 2.530816 1_655
O19 Sr3 3.024740 1_555
O20 Sr4 2.512193 1_555
O20 Sr3 3.098335 1_565
O21 Sr3 2.783448 1_555
O21 Sr3 2.786532 1_655
O22 Sr4 2.782286 1_565
O22 Sr4 2.797334 1_555
O23 Sr3 2.547866 1_565
O23 Sr3 3.054987 1_655
O24 Sr5 2.714477 1_555
O24 Sr4 2.836327 1_555
O25 Sr3 2.546351 1_655
O25 Sr4 3.064450 1_555
O26 Sr5 2.496087 1_555
O26 Sr4 3.079133 1_565
O27 Sr4 2.775984 1_655
O27 Sr4 2.796285 1_555
O28 Sr5 2.779277 1_565
O28 Sr5 2.812692 1_555
O29 Sr4 2.551273 1_565
O29 Sr4 3.050299 1_655
O30 Sr5 2.919537 1_555
O31 Sr4 2.567454 1_655
O31 Sr5 3.009656 1_555
O32 Sr5 3.198547 1_565
O33 Sr5 2.774217 1_655
O33 Sr5 2.794890 1_555
O35 Sr5 2.531019 1_565
O35 Sr5 3.074231 1_655
O37 Sr5 2.593538 1_655
O54 Sr0 2.919537 1_556
O56 Sr0 2.593538 1_556
O59 Sr0 3.198547 1_556
