# generated using pymatgen
data_Y4Si2Ni13(SbO14)2
_symmetry_space_group_name_H-M   'P 1'
_cell_length_a   5.58093984
_cell_length_b   9.26354035
_cell_length_c   12.17945853
_cell_angle_alpha   87.71043294
_cell_angle_beta   76.69377384
_cell_angle_gamma   79.89466313
_symmetry_Int_Tables_number   1
_chemical_formula_structural   Y4Si2Ni13(SbO14)2
_chemical_formula_sum   'Y4 Si2 Ni13 Sb2 O28'
_cell_volume   603.25885264
_cell_formula_units_Z   1
loop_
 _symmetry_equiv_pos_site_id
 _symmetry_equiv_pos_as_xyz
  1  'x, y, z'
loop_
 _atom_site_type_symbol
 _atom_site_label
 _atom_site_symmetry_multiplicity
 _atom_site_fract_x
 _atom_site_fract_y
 _atom_site_fract_z
 _atom_site_occupancy
  Y  Y0  1  0.07164400  0.65628300  0.41160600  1
  Y  Y1  1  0.51702500  0.34389700  0.41140400  1
  Y  Y2  1  0.92779700  0.34434200  0.58895600  1
  Y  Y3  1  0.48259500  0.65572200  0.58826700  1
  Si  Si0  1  0.23988900  0.29115900  0.99975800  1
  Si  Si1  1  0.76039800  0.70859600  0.00048400  1
  Ni  Ni0  1  0.92110000  0.64022600  0.74035700  1
  Ni  Ni1  1  0.66028200  0.32461200  0.12352500  1
  Ni  Ni2  1  0.33537400  0.36090700  0.73977500  1
  Ni  Ni3  1  0.07858500  0.35899600  0.26010400  1
  Ni  Ni4  1  0.33839200  0.67804500  0.87622300  1
  Ni  Ni5  1  0.29010800  0.00053900  0.41825200  1
  Ni  Ni6  1  0.21748600  0.67550700  0.12294000  1
  Ni  Ni7  1  0.00025500  0.99999400  0.00047800  1
  Ni  Ni8  1  0.43004600  0.99937100  0.14235100  1
  Ni  Ni9  1  0.78295400  0.32223200  0.87715400  1
  Ni  Ni10  1  0.66432600  0.63980900  0.26019400  1
  Ni  Ni11  1  0.57187000  0.99962900  0.85609100  1
  Ni  Ni12  1  0.70643900  0.00166500  0.58052500  1
  Sb  Sb0  1  0.86126000  0.99998900  0.27823500  1
  Sb  Sb1  1  0.13846000  0.00006700  0.72016400  1
  O  O0  1  0.72516500  0.40370800  0.25437600  1
  O  O1  1  0.12278800  0.38989500  0.41747900  1
  O  O2  1  0.94581300  0.34382900  0.99995800  1
  O  O3  1  0.30246600  0.10954300  0.99975600  1
  O  O4  1  0.87636300  0.61001100  0.58294900  1
  O  O5  1  0.27519500  0.59665400  0.74573500  1
  O  O6  1  0.00725500  0.10405300  0.58543600  1
  O  O7  1  0.99274400  0.89634600  0.41257100  1
  O  O8  1  0.69885400  0.89021200  0.00072000  1
  O  O9  1  0.12518700  0.89141800  0.14893800  1
  O  O10  1  0.30768400  0.35705400  0.11012400  1
  O  O11  1  0.02383200  0.59595300  0.25435500  1
  O  O12  1  0.40449600  0.89590400  0.58544600  1
  O  O13  1  0.72628300  0.10894200  0.14959300  1
  O  O14  1  0.58303400  0.64261200  0.11111900  1
  O  O15  1  0.05460100  0.65534300  0.99984300  1
  O  O16  1  0.27433300  0.89259400  0.84921600  1
  O  O17  1  0.87472300  0.10783400  0.84949200  1
  O  O18  1  0.59446600  0.10360900  0.41356400  1
  O  O19  1  0.13040300  0.12196600  0.28232500  1
  O  O20  1  0.86867900  0.87848500  0.71684400  1
  O  O21  1  0.41777000  0.35574400  0.88870900  1
  O  O22  1  0.41135800  0.12237000  0.71533800  1
  O  O23  1  0.53961500  0.38992100  0.58266700  1
  O  O24  1  0.69074100  0.64493400  0.88992100  1
  O  O25  1  0.58820600  0.87826800  0.28192000  1
  O  O26  1  0.97508700  0.40468900  0.74660200  1
  O  O27  1  0.45996200  0.60981300  0.41700000  1
loop_
_geom_bond_atom_site_label_1
_geom_bond_atom_site_label_2
_geom_bond_distance
_geom_bond_site_symmetry_2
Ni0 O5 1.962160 1_655
Ni0 O24 1.970190 1_555
Ni0 O4 2.025797 1_555
Ni0 O26 2.150320 1_555
Ni0 O20 2.190995 1_555
Ni1 O0 1.913084 1_555
Ni1 O2 1.951974 1_554
Ni1 O10 1.981338 1_555
Ni1 O13 1.993205 1_555
Ni2 O26 1.963171 1_455
Ni2 O21 1.968101 1_555
Ni2 O23 2.023706 1_555
Ni2 O5 2.152054 1_555
Ni2 O22 2.194720 1_555
Ni3 O0 1.959896 1_455
Ni3 O10 1.972643 1_555
Ni3 O1 2.025577 1_555
Ni3 O11 2.163044 1_555
Ni3 O19 2.178040 1_555
Ni4 O5 1.914610 1_555
Ni4 O15 1.952826 1_555
Ni4 O24 1.980925 1_555
Ni4 O16 1.984604 1_555
Ni5 O7 2.076261 1_445
Ni5 O18 2.078525 1_555
Ni5 O19 2.231377 1_555
Ni5 O25 2.241704 1_545
Ni5 O6 2.388056 1_555
Ni5 O12 2.391080 1_545
Ni6 O11 1.913623 1_555
Ni6 O15 1.954060 1_554
Ni6 O14 1.981350 1_555
Ni6 O9 1.994990 1_555
Ni7 O8 2.112220 1_455
Ni7 O3 2.113694 1_564
Ni7 O9 2.226240 1_555
Ni7 O13 2.231934 1_465
Ni7 O16 2.244737 1_554
Ni7 O17 2.251909 1_464
Ni8 O9 2.104537 1_555
Ni8 O13 2.105832 1_565
Ni8 O8 2.159753 1_555
Ni8 O3 2.176552 1_564
Ni8 O25 2.262310 1_555
Ni8 O19 2.273452 1_565
Ni9 O26 1.914959 1_555
Ni9 O2 1.953637 1_555
Ni9 O21 1.979734 1_555
Ni9 O17 1.984296 1_555
Ni10 O11 1.961189 1_655
Ni10 O14 1.968343 1_555
Ni10 O27 2.022767 1_555
Ni10 O0 2.155125 1_555
Ni10 O25 2.189911 1_555
Ni11 O17 2.096076 1_565
Ni11 O16 2.096644 1_555
Ni11 O3 2.180166 1_565
Ni11 O8 2.193719 1_556
Ni11 O20 2.255245 1_555
Ni11 O22 2.286441 1_565
Ni12 O6 2.081155 1_655
Ni12 O12 2.081168 1_545
Ni12 O22 2.216786 1_555
Ni12 O20 2.248674 1_545
Ni12 O18 2.375259 1_555
Ni12 O7 2.407753 1_545
O0 Y1 2.105377 1_555
O1 Y1 2.150946 1_555
O1 Y2 2.183733 1_455
O1 Y0 2.433975 1_555
O2 Si0 1.627550 1_655
O3 Si0 1.657189 1_555
O4 Y3 2.150128 1_555
O4 Y0 2.184504 1_655
O4 Y2 2.427308 1_555
O5 Y3 2.105702 1_555
O6 Sb1 2.082298 1_555
O6 Y2 2.192196 1_455
O7 Sb0 2.077770 1_555
O7 Y0 2.189873 1_655
O8 Si1 1.656993 1_555
O9 Sb0 2.049392 1_455
O10 Si0 1.644188 1_554
O11 Y0 2.103508 1_555
O12 Sb1 2.080883 1_565
O12 Y3 2.191341 1_555
O13 Sb0 2.047216 1_545
O14 Si1 1.643677 1_555
O15 Si1 1.627734 1_456
O16 Sb1 2.048264 1_565
O17 Sb1 2.046210 1_655
O18 Sb0 2.085727 1_545
O18 Y1 2.192067 1_555
O19 Sb0 2.042056 1_445
O20 Sb1 2.040540 1_665
O21 Si0 1.642710 1_555
O22 Sb1 2.040993 1_555
O23 Y2 2.151820 1_555
O23 Y1 2.181644 1_555
O23 Y3 2.428395 1_555
O24 Si1 1.642289 1_556
O25 Sb0 2.040378 1_555
O26 Y2 2.107018 1_555
O27 Y0 2.149928 1_555
O27 Y3 2.181508 1_555
O27 Y1 2.429437 1_555
