# generated using pymatgen
data_ZrFeMo
_symmetry_space_group_name_H-M   'P 1'
_cell_length_a   5.21232007
_cell_length_b   5.20261881
_cell_length_c   8.48620600
_cell_angle_alpha   90.00000000
_cell_angle_beta   90.00000000
_cell_angle_gamma   119.88371915
_symmetry_Int_Tables_number   1
_chemical_formula_structural   ZrFeMo
_chemical_formula_sum   'Zr4 Fe4 Mo4'
_cell_volume   199.52851303
_cell_formula_units_Z   4
loop_
 _symmetry_equiv_pos_site_id
 _symmetry_equiv_pos_as_xyz
  1  'x, y, z'
loop_
 _atom_site_type_symbol
 _atom_site_label
 _atom_site_symmetry_multiplicity
 _atom_site_fract_x
 _atom_site_fract_y
 _atom_site_fract_z
 _atom_site_occupancy
  Zr  Zr0  1  0.66307900  0.33141700  0.56809100  1
  Zr  Zr1  1  0.32473600  0.66252500  0.44774900  1
  Zr  Zr2  1  0.32473600  0.66252500  0.05225100  1
  Zr  Zr3  1  0.66307900  0.33141700  0.93190900  1
  Fe  Fe0  1  0.00263800  0.00130500  0.51415400  1
  Fe  Fe1  1  0.00263800  0.00130500  0.98584600  1
  Fe  Fe2  1  0.17536500  0.34013100  0.75000000  1
  Fe  Fe3  1  0.17545900  0.83513900  0.75000000  1
  Mo  Mo0  1  0.67156300  0.83575800  0.75000000  1
  Mo  Mo1  1  0.83085500  0.66520500  0.25000000  1
  Mo  Mo2  1  0.83086800  0.16574100  0.25000000  1
  Mo  Mo3  1  0.33498300  0.16753400  0.25000000  1
loop_
_geom_bond_atom_site_label_1
_geom_bond_atom_site_label_2
_geom_bond_distance
_geom_bond_site_symmetry_2
Zr0 Zr3 3.087434 1_555
Zr0 Zr1 3.159801 1_655
Zr0 Zr1 3.185557 1_555
Zr0 Zr1 3.185567 1_545
Zr2 Zr3 3.159801 1_454
Zr2 Zr3 3.185557 1_554
Zr2 Zr3 3.185567 1_564
Fe0 Mo0 2.498886 1_445
Fe0 Fe3 2.518044 1_545
Fe0 Fe2 2.518381 1_555
Fe0 Mo3 2.698324 1_555
Fe0 Mo2 2.705880 1_455
Fe0 Mo1 2.706329 1_445
Fe0 Zr0 3.019612 1_555
Fe0 Zr1 3.031739 1_545
Fe0 Zr1 3.035648 1_555
Fe0 Zr0 3.052973 1_455
Fe0 Zr0 3.056430 1_445
Fe0 Zr1 3.115027 1_445
Fe1 Mo0 2.498886 1_445
Fe1 Fe3 2.518044 1_545
Fe1 Fe2 2.518381 1_555
Fe1 Mo3 2.698324 1_556
Fe1 Mo2 2.705880 1_456
Fe1 Mo1 2.706329 1_446
Fe1 Zr3 3.019612 1_555
Fe1 Zr2 3.031739 1_546
Fe1 Zr2 3.035648 1_556
Fe1 Zr3 3.052973 1_455
Fe1 Zr3 3.056430 1_445
Fe1 Zr2 3.115027 1_446
Fe2 Fe3 2.575094 1_555
Fe2 Mo0 2.586997 1_555
Fe2 Fe3 2.627525 1_545
Fe2 Mo0 2.629632 1_445
Fe2 Zr1 2.949106 1_555
Fe2 Zr2 2.949106 1_556
Fe2 Zr3 2.993717 1_555
Fe2 Zr0 2.993717 1_555
Fe2 Zr3 3.065037 1_455
Fe2 Zr0 3.065037 1_455
Fe3 Mo0 2.584250 1_555
Fe3 Mo0 2.628073 1_455
Fe3 Zr1 2.947410 1_555
Fe3 Zr2 2.947410 1_556
Fe3 Zr0 2.995016 1_565
Fe3 Zr3 2.995016 1_565
Fe3 Zr3 3.067439 1_455
Fe3 Zr0 3.067439 1_455
Mo0 Zr1 3.005963 1_555
Mo0 Zr2 3.005963 1_556
Mo0 Zr3 3.024644 1_565
Mo0 Zr0 3.024644 1_565
Mo0 Zr0 3.025593 1_555
Mo0 Zr3 3.025593 1_555
Mo1 Mo3 2.591466 1_555
Mo1 Mo2 2.598555 1_555
Mo1 Mo2 2.604064 1_565
Mo1 Mo3 2.625185 1_665
Mo1 Zr2 3.078791 1_655
Mo1 Zr1 3.078791 1_655
Mo1 Zr3 3.090926 1_554
Mo1 Zr0 3.090926 1_555
Mo1 Zr2 3.120740 1_555
Mo1 Zr1 3.120740 1_555
Mo2 Mo3 2.589372 1_555
Mo2 Mo3 2.622973 1_655
Mo2 Zr2 3.081051 1_655
Mo2 Zr1 3.081051 1_655
Mo2 Zr3 3.089611 1_554
Mo2 Zr0 3.089611 1_555
Mo2 Zr2 3.122108 1_545
Mo2 Zr1 3.122108 1_545
Mo3 Zr3 3.079814 1_554
Mo3 Zr0 3.079814 1_555
Mo3 Zr2 3.095519 1_545
Mo3 Zr1 3.095519 1_545
Mo3 Zr1 3.096445 1_555
Mo3 Zr2 3.096445 1_555
