# generated using pymatgen
data_AlAgS2
_symmetry_space_group_name_H-M   'P 1'
_cell_length_a   7.22879799
_cell_length_b   7.22879799
_cell_length_c   7.22879815
_cell_angle_alpha   28.39034885
_cell_angle_beta   28.39034885
_cell_angle_gamma   28.39034379
_symmetry_Int_Tables_number   1
_chemical_formula_structural   AlAgS2
_chemical_formula_sum   'Al1 Ag1 S2'
_cell_volume   75.46961940
_cell_formula_units_Z   1
loop_
 _symmetry_equiv_pos_site_id
 _symmetry_equiv_pos_as_xyz
  1  'x, y, z'
loop_
 _atom_site_type_symbol
 _atom_site_label
 _atom_site_symmetry_multiplicity
 _atom_site_fract_x
 _atom_site_fract_y
 _atom_site_fract_z
 _atom_site_occupancy
  Al  Al0  1  0.99900500  0.99900500  0.99900500  1
  Ag  Ag0  1  0.15533400  0.15533400  0.15533400  1
  S  S0  1  0.27228500  0.27228500  0.27228500  1
  S  S1  1  0.73237600  0.73237600  0.73237600  1
loop_
_geom_bond_atom_site_label_1
_geom_bond_atom_site_label_2
_geom_bond_distance
_geom_bond_site_symmetry_2
Al0 S0 2.397913 1_656
Al0 S0 2.397913 1_566
Al0 S0 2.397914 1_665
Al0 S1 2.472790 1_565
Al0 S1 2.472790 1_655
Al0 S1 2.472790 1_556
Ag0 S0 2.432442 1_555
Ag0 S1 2.768522 1_454
Ag0 S1 2.768522 1_544
Ag0 S1 2.768522 1_445
