# generated using pymatgen
data_In9Cu11
_symmetry_space_group_name_H-M   'P 1'
_cell_length_a   4.54217600
_cell_length_b   6.84587219
_cell_length_c   12.12713331
_cell_angle_alpha   102.88923884
_cell_angle_beta   79.20630163
_cell_angle_gamma   109.37476079
_symmetry_Int_Tables_number   1
_chemical_formula_structural   In9Cu11
_chemical_formula_sum   'In9 Cu11'
_cell_volume   344.13553192
_cell_formula_units_Z   1
loop_
 _symmetry_equiv_pos_site_id
 _symmetry_equiv_pos_as_xyz
  1  'x, y, z'
loop_
 _atom_site_type_symbol
 _atom_site_label
 _atom_site_symmetry_multiplicity
 _atom_site_fract_x
 _atom_site_fract_y
 _atom_site_fract_z
 _atom_site_occupancy
  In  In0  1  0.12558200  0.73833300  0.48716900  1
  In  In1  1  0.61608600  0.23818600  0.00601300  1
  In  In2  1  0.37441800  0.76166700  0.01283100  1
  In  In3  1  0.88391400  0.26181400  0.49398700  1
  In  In4  1  0.57875100  0.42953700  0.27203500  1
  In  In5  1  0.07288200  0.91435900  0.76859500  1
  In  In6  1  0.92124900  0.07046300  0.22796500  1
  In  In7  1  0.42711800  0.58564100  0.73140500  1
  In  In8  1  0.75000000  0.25000000  0.75000000  1
  Cu  Cu0  1  0.77455900  0.66413700  0.11502000  1
  Cu  Cu1  1  0.27554200  0.15896500  0.60788000  1
  Cu  Cu2  1  0.72544100  0.83586300  0.38498000  1
  Cu  Cu3  1  0.22445800  0.34103500  0.89212000  1
  Cu  Cu4  1  0.00059800  0.00136900  0.00017200  1
  Cu  Cu5  1  0.49940200  0.49863100  0.49982800  1
  Cu  Cu6  1  0.25000000  0.75000000  0.25000000  1
  Cu  Cu7  1  0.35631800  0.09580200  0.38316700  1
  Cu  Cu8  1  0.85810100  0.60875400  0.89255300  1
  Cu  Cu9  1  0.14368200  0.40419800  0.11683300  1
  Cu  Cu10  1  0.64189900  0.89124600  0.60744700  1
loop_
_geom_bond_atom_site_label_1
_geom_bond_atom_site_label_2
_geom_bond_distance
_geom_bond_site_symmetry_2
In0 In3 3.092587 1_455
In1 In8 3.063947 1_554
In1 In2 3.092587 1_545
In1 In4 3.195228 1_555
In3 In8 3.063947 1_555
In3 In6 3.195228 1_555
In4 In6 3.223070 1_455
In4 In6 3.223070 1_555
Cu0 In4 2.603544 1_555
Cu0 Cu8 2.611897 1_554
Cu0 In2 2.702369 1_655
Cu0 In2 2.702373 1_555
Cu0 In6 2.733121 1_565
Cu0 Cu4 2.765873 1_665
Cu0 Cu6 2.782291 1_655
Cu0 Cu6 2.782295 1_555
Cu0 Cu9 2.826487 1_655
Cu0 Cu9 2.826494 1_555
Cu0 In1 2.830679 1_555
Cu1 Cu7 2.636847 1_555
Cu1 In5 2.685411 1_545
Cu1 Cu5 2.729393 1_555
Cu1 In3 2.784390 1_455
Cu1 In3 2.784397 1_555
Cu1 In8 2.832675 1_455
Cu1 In8 2.832679 1_555
Cu1 In0 2.844365 1_545
Cu1 Cu10 2.853793 1_545
Cu1 Cu10 2.853793 1_445
Cu1 In7 2.889629 1_555
Cu2 In6 2.603544 1_565
Cu2 In0 2.702369 1_555
Cu2 In0 2.702373 1_655
Cu2 In4 2.733121 1_555
Cu2 Cu5 2.765873 1_555
Cu2 Cu6 2.782291 1_555
Cu2 Cu6 2.782295 1_655
Cu2 Cu7 2.826487 1_565
Cu2 Cu7 2.826494 1_665
Cu2 In3 2.830679 1_565
Cu3 Cu9 2.636847 1_556
Cu3 In7 2.685411 1_555
Cu3 Cu4 2.729393 1_556
Cu3 In1 2.784390 1_556
Cu3 In1 2.784397 1_456
Cu3 In8 2.832675 1_555
Cu3 In8 2.832679 1_455
Cu3 In2 2.844365 1_556
Cu3 Cu8 2.853793 1_555
Cu3 Cu8 2.853793 1_455
Cu3 In5 2.889629 1_545
Cu4 Cu8 2.635076 1_444
Cu4 In6 2.672481 1_455
Cu4 In5 2.718018 1_544
Cu4 Cu9 2.728290 1_555
Cu4 In1 2.732180 1_455
Cu4 In1 2.732180 1_555
Cu4 In2 2.767324 1_445
Cu4 In2 2.767328 1_545
Cu5 In4 2.672481 1_555
Cu5 In7 2.718018 1_555
Cu5 Cu7 2.728290 1_555
Cu5 In3 2.732180 1_455
Cu5 In3 2.732180 1_555
Cu5 In0 2.767324 1_655
Cu5 In0 2.767328 1_555
Cu6 Cu7 2.504675 1_565
Cu6 Cu9 2.504675 1_555
Cu6 In0 2.839350 1_555
Cu6 In2 2.839350 1_555
Cu6 In4 3.114277 1_555
Cu6 In4 3.114277 1_455
Cu6 In6 3.114277 1_465
Cu6 In6 3.114277 1_565
Cu7 In4 2.718299 1_555
Cu7 In3 2.749270 1_455
Cu7 In3 2.749270 1_555
Cu7 In0 2.803225 1_545
Cu7 In6 2.915096 1_555
Cu7 In6 2.915100 1_455
Cu8 In8 2.623962 1_555
Cu8 In5 2.662357 1_655
Cu8 In2 2.773906 1_656
Cu8 In2 2.773910 1_556
Cu8 In1 2.945804 1_556
Cu8 In7 2.960706 1_655
Cu8 In7 2.960710 1_555
Cu9 In6 2.718299 1_455
Cu9 In1 2.749270 1_455
Cu9 In1 2.749270 1_555
Cu9 In2 2.803225 1_555
Cu9 In4 2.915096 1_455
Cu9 In4 2.915100 1_555
Cu10 Cu2 2.611897 1_555
Cu10 In8 2.623962 1_565
Cu10 Cu5 2.635076 1_555
Cu10 In7 2.662357 1_555
Cu10 In0 2.773906 1_555
Cu10 In0 2.773910 1_655
Cu10 In3 2.945804 1_565
Cu10 In5 2.960706 1_555
Cu10 In5 2.960710 1_655
