# generated using pymatgen
data_Na3Fe(PO4)2
_symmetry_space_group_name_H-M   'P 1'
_cell_length_a   5.25757908
_cell_length_b   5.25757908
_cell_length_c   14.07404237
_cell_angle_alpha   88.23639401
_cell_angle_beta   88.23639401
_cell_angle_gamma   57.87648573
_symmetry_Int_Tables_number   1
_chemical_formula_structural   Na3Fe(PO4)2
_chemical_formula_sum   'Na6 Fe2 P4 O16'
_cell_volume   329.27278125
_cell_formula_units_Z   2
loop_
 _symmetry_equiv_pos_site_id
 _symmetry_equiv_pos_as_xyz
  1  'x, y, z'
loop_
 _atom_site_type_symbol
 _atom_site_label
 _atom_site_symmetry_multiplicity
 _atom_site_fract_x
 _atom_site_fract_y
 _atom_site_fract_z
 _atom_site_occupancy
  Na  Na0  1  0.95066000  0.04934000  0.25000000  1
  Na  Na1  1  0.04934000  0.95066000  0.75000000  1
  Na  Na2  1  0.28946800  0.37233500  0.13389200  1
  Na  Na3  1  0.62766500  0.71053200  0.36610800  1
  Na  Na4  1  0.37233500  0.28946800  0.63389200  1
  Na  Na5  1  0.71053200  0.62766500  0.86610800  1
  Fe  Fe0  1  0.00000000  0.00000000  0.50000000  1
  Fe  Fe1  1  0.00000000  0.00000000  0.00000000  1
  P  P0  1  0.64819200  0.68785500  0.11267600  1
  P  P1  1  0.68785500  0.64819200  0.61267600  1
  P  P2  1  0.31214500  0.35180800  0.38732400  1
  P  P3  1  0.35180800  0.31214500  0.88732400  1
  O  O0  1  0.27176000  0.07111900  0.91527100  1
  O  O1  1  0.92888100  0.72824000  0.58472900  1
  O  O2  1  0.72824000  0.92888100  0.08472900  1
  O  O3  1  0.07111900  0.27176000  0.41527100  1
  O  O4  1  0.70432700  0.14608200  0.88505400  1
  O  O5  1  0.85391800  0.29567300  0.61494600  1
  O  O6  1  0.29567300  0.85391800  0.11494600  1
  O  O7  1  0.14608200  0.70432700  0.38505400  1
  O  O8  1  0.21781300  0.56366400  0.96248800  1
  O  O9  1  0.43633600  0.78218700  0.53751200  1
  O  O10  1  0.78218700  0.43633600  0.03751200  1
  O  O11  1  0.56366400  0.21781300  0.46248800  1
  O  O12  1  0.44817100  0.22118900  0.29008700  1
  O  O13  1  0.77881100  0.55182900  0.20991300  1
  O  O14  1  0.55182900  0.77881100  0.70991300  1
  O  O15  1  0.22118900  0.44817100  0.79008700  1
loop_
_geom_bond_atom_site_label_1
_geom_bond_atom_site_label_2
_geom_bond_distance
_geom_bond_site_symmetry_2
Na0 O12 2.348459 1_555
Na0 O13 2.348459 1_555
Na0 O7 2.425862 1_645
Na0 O6 2.425862 1_645
Na0 O2 2.867876 1_545
Na0 O3 2.867876 1_655
Na1 O15 2.348459 1_555
Na1 O14 2.348459 1_555
Na1 O4 2.425862 1_465
Na1 O5 2.425862 1_465
Na1 O0 2.867876 1_565
Na1 O1 2.867876 1_455
Na2 O12 2.336754 1_555
Na2 O2 2.348913 1_545
Na2 O13 2.536604 1_455
Na2 O8 2.544953 1_554
Na2 O6 2.555141 1_555
Na2 O6 2.729614 1_545
Na3 O13 2.336754 1_555
Na3 O3 2.348913 1_655
Na3 O12 2.536604 1_565
Na3 O9 2.544953 1_555
Na3 O7 2.555141 1_555
Na3 O7 2.729614 1_655
Na4 O15 2.336754 1_555
Na4 O1 2.348913 1_455
Na4 O14 2.536604 1_545
Na4 O11 2.544953 1_555
Na4 O5 2.555141 1_555
Na4 O5 2.729614 1_455
Na5 O14 2.336754 1_555
Na5 O0 2.348913 1_565
Na5 O15 2.536604 1_655
Na5 O10 2.544953 1_556
Na5 O4 2.555141 1_555
Na5 O4 2.729614 1_565
Fe0 O3 2.009761 1_555
Fe0 O1 2.009761 1_445
Fe0 O11 2.023941 1_455
Fe0 O9 2.023941 1_545
Fe0 O5 2.105263 1_455
Fe0 O7 2.105263 1_545
Fe1 O2 2.009761 1_445
Fe1 O0 2.009761 1_554
Fe1 O8 2.023941 1_544
Fe1 O10 2.023941 1_455
Fe1 O6 2.105263 1_545
Fe1 O4 2.105263 1_454
O0 P3 1.569703 1_555
O1 P1 1.569703 1_555
O2 P0 1.569703 1_555
O3 P2 1.569703 1_555
O4 P3 1.573383 1_555
O5 P1 1.573383 1_555
O6 P0 1.573383 1_555
O7 P2 1.573383 1_555
O8 P3 1.553560 1_555
O9 P1 1.553560 1_555
O10 P0 1.553560 1_555
O11 P2 1.553560 1_555
O12 P2 1.526828 1_555
O13 P0 1.526828 1_555
O14 P1 1.526828 1_555
O15 P3 1.526828 1_555
