# generated using pymatgen
data_Sr3NbCoO7
_symmetry_space_group_name_H-M   'P 1'
_cell_length_a   3.96588094
_cell_length_b   3.99846471
_cell_length_c   11.07266759
_cell_angle_alpha   79.52933258
_cell_angle_beta   79.91522576
_cell_angle_gamma   89.90873987
_symmetry_Int_Tables_number   1
_chemical_formula_structural   Sr3NbCoO7
_chemical_formula_sum   'Sr3 Nb1 Co1 O7'
_cell_volume   169.90976245
_cell_formula_units_Z   1
loop_
 _symmetry_equiv_pos_site_id
 _symmetry_equiv_pos_as_xyz
  1  'x, y, z'
loop_
 _atom_site_type_symbol
 _atom_site_label
 _atom_site_symmetry_multiplicity
 _atom_site_fract_x
 _atom_site_fract_y
 _atom_site_fract_z
 _atom_site_occupancy
  Sr  Sr0  1  0.31092500  0.30875300  0.38212900  1
  Sr  Sr1  1  0.67884300  0.68259200  0.63560300  1
  Sr  Sr2  1  0.51393800  0.52117700  0.95887300  1
  Nb  Nb0  1  0.90060700  0.90218000  0.19633100  1
  Co  Co0  1  0.09339700  0.11125100  0.78257200  1
  O  O0  1  0.60028800  0.09585000  0.80607700  1
  O  O1  1  0.09637900  0.59597000  0.80610700  1
  O  O2  1  0.39570000  0.89567300  0.20885400  1
  O  O3  1  0.89555100  0.39620400  0.20789900  1
  O  O4  1  0.99104200  0.99149400  0.01782700  1
  O  O5  1  0.21610800  0.19618300  0.60359900  1
  O  O6  1  0.80722200  0.80267100  0.39412900  1
loop_
_geom_bond_atom_site_label_1
_geom_bond_atom_site_label_2
_geom_bond_distance
_geom_bond_site_symmetry_2
Nb0 O4 1.912689 1_555
Nb0 O2 1.982708 1_555
Nb0 O2 1.992243 1_655
Nb0 O3 2.002425 1_565
Nb0 O3 2.003720 1_555
Nb0 O6 2.119412 1_555
Co0 O5 1.922890 1_555
Co0 O0 1.926722 1_455
Co0 O1 2.002281 1_555
Co0 O1 2.029501 1_545
Co0 O0 2.071164 1_555
Co0 O4 2.521214 1_446
O0 Sr2 2.578022 1_545
O0 Sr2 2.590929 1_555
O0 Sr1 2.704921 1_545
O0 Sr1 2.711260 1_555
O1 Sr2 2.547263 1_555
O1 Sr2 2.595434 1_455
O1 Sr1 2.694041 1_555
O1 Sr1 2.698443 1_455
O2 Sr0 2.727926 1_555
O2 Sr0 2.728794 1_565
O3 Sr0 2.722257 1_555
O3 Sr0 2.724641 1_655
O4 Sr2 2.867519 1_654
O4 Sr2 2.872198 1_664
O4 Sr2 2.899858 1_564
O4 Sr2 2.903934 1_554
O5 Sr0 2.373607 1_555
O5 Sr1 2.767991 1_545
O5 Sr1 2.786678 1_555
O5 Sr1 2.892708 1_445
O5 Sr1 2.901904 1_455
O6 Sr1 2.587698 1_555
O6 Sr0 2.810392 1_655
O6 Sr0 2.815159 1_665
O6 Sr0 2.822697 1_565
O6 Sr0 2.826891 1_555
