# generated using pymatgen
data_Li9Mn2Co5O16
_symmetry_space_group_name_H-M   'P 1'
_cell_length_a   5.91616800
_cell_length_b   6.48473796
_cell_length_c   7.77965737
_cell_angle_alpha   87.03791508
_cell_angle_beta   80.40155146
_cell_angle_gamma   76.46314225
_symmetry_Int_Tables_number   1
_chemical_formula_structural   Li9Mn2Co5O16
_chemical_formula_sum   'Li9 Mn2 Co5 O16'
_cell_volume   286.08633564
_cell_formula_units_Z   1
loop_
 _symmetry_equiv_pos_site_id
 _symmetry_equiv_pos_as_xyz
  1  'x, y, z'
loop_
 _atom_site_type_symbol
 _atom_site_label
 _atom_site_symmetry_multiplicity
 _atom_site_fract_x
 _atom_site_fract_y
 _atom_site_fract_z
 _atom_site_occupancy
  Li  Li0  1  0.93676000  0.88000300  0.36985700  1
  Li  Li1  1  0.68266800  0.36985100  0.88286300  1
  Li  Li2  1  0.57364500  0.13793300  0.60824200  1
  Li  Li3  1  0.31491000  0.61362700  0.13673100  1
  Li  Li4  1  0.18819400  0.36761200  0.88093000  1
  Li  Li5  1  0.81096400  0.61721000  0.13248700  1
  Li  Li6  1  0.44062300  0.88413800  0.36910000  1
  Li  Li7  1  0.06016300  0.13126700  0.62046100  1
  Li  Li8  1  0.62894800  0.25289700  0.24870200  1
  Mn  Mn0  1  0.99616900  0.99931100  0.00483000  1
  Mn  Mn1  1  0.87509200  0.75141400  0.74805800  1
  Co  Co0  1  0.75196300  0.50566500  0.49521800  1
  Co  Co1  1  0.50045100  0.00153900  0.00481300  1
  Co  Co2  1  0.26095300  0.48968500  0.48703000  1
  Co  Co3  1  0.37642200  0.73838800  0.74652400  1
  Co  Co4  1  0.12086600  0.25230500  0.24986900  1
  O  O0  1  0.20051500  0.93821200  0.17881700  1
  O  O1  1  0.95623600  0.46117700  0.67587100  1
  O  O2  1  0.84913800  0.21426300  0.43448000  1
  O  O3  1  0.60824300  0.70897300  0.92418200  1
  O  O4  1  0.45623500  0.45052500  0.69465500  1
  O  O5  1  0.08174400  0.70195500  0.92416700  1
  O  O6  1  0.72879500  0.94495700  0.16251200  1
  O  O7  1  0.33013200  0.19893000  0.44090500  1
  O  O8  1  0.66065300  0.80322200  0.57623100  1
  O  O9  1  0.40041200  0.28810800  0.06771100  1
  O  O10  1  0.27656700  0.03606800  0.83542200  1
  O  O11  1  0.03868900  0.55750300  0.31026300  1
  O  O12  1  0.92004700  0.29115000  0.06019700  1
  O  O13  1  0.53176200  0.56621100  0.33550500  1
  O  O14  1  0.13851900  0.79850000  0.57677500  1
  O  O15  1  0.80351900  0.04740000  0.81658900  1
loop_
_geom_bond_atom_site_label_1
_geom_bond_atom_site_label_2
_geom_bond_distance
_geom_bond_site_symmetry_2
Li0 O0 2.056848 1_655
Li0 O11 2.090173 1_655
Li0 O14 2.133759 1_655
Li0 O6 2.154581 1_555
Li0 O2 2.172465 1_565
Li0 O8 2.217531 1_555
Li1 O12 2.091372 1_556
Li1 O15 2.106645 1_555
Li1 O4 2.111631 1_555
Li1 O9 2.161539 1_556
Li1 O3 2.169304 1_555
Li1 O1 2.245962 1_555
Li2 O7 2.057225 1_555
Li2 O2 2.074274 1_555
Li2 O4 2.090316 1_555
Li2 O8 2.127953 1_545
Li2 O15 2.254861 1_555
Li2 O10 2.456821 1_555
Li3 O11 2.029151 1_555
Li3 O0 2.079921 1_555
Li3 O9 2.127629 1_555
Li3 O13 2.135319 1_555
Li3 O5 2.293153 1_554
Li3 O3 2.359632 1_554
Li4 O9 2.044885 1_556
Li4 O12 2.065548 1_456
Li4 O4 2.110945 1_555
Li4 O10 2.124101 1_555
Li4 O5 2.139170 1_555
Li4 O1 2.244224 1_455
Li5 O11 2.049305 1_655
Li5 O6 2.082731 1_555
Li5 O12 2.136954 1_555
Li5 O3 2.152448 1_554
Li5 O13 2.159654 1_555
Li5 O5 2.224670 1_654
Li6 O13 2.024308 1_555
Li6 O7 2.068293 1_565
Li6 O0 2.178683 1_555
Li6 O8 2.204281 1_555
Li6 O6 2.231745 1_555
Li6 O14 2.349911 1_555
Li7 O2 2.036934 1_455
Li7 O7 2.053169 1_555
Li7 O15 2.111275 1_455
Li7 O1 2.128835 1_455
Li7 O14 2.131178 1_545
Li7 O10 2.248154 1_555
Li8 O6 2.059193 1_545
Li8 O2 2.070330 1_555
Li8 O9 2.078441 1_555
Li8 O13 2.092868 1_555
Li8 O12 2.120910 1_555
Li8 O7 2.199456 1_555
Mn0 O12 1.894853 1_565
Mn0 O6 1.923658 1_555
Mn0 O0 1.927873 1_655
Mn0 O15 1.970768 1_564
Mn0 O5 1.982536 1_654
Mn0 O10 1.992286 1_664
Mn1 O1 1.919515 1_555
Mn1 O14 1.945733 1_655
Mn1 O15 1.948745 1_565
Mn1 O5 1.950458 1_655
Mn1 O8 1.956752 1_555
Mn1 O3 1.971947 1_555
Co0 O2 1.902035 1_555
Co0 O13 1.909208 1_555
Co0 O1 1.969829 1_555
Co0 O8 1.984058 1_555
Co0 O11 2.112790 1_655
Co0 O4 2.219561 1_555
Co1 O9 1.877661 1_555
Co1 O6 1.933624 1_545
Co1 O3 1.955193 1_544
Co1 O10 1.988439 1_554
Co1 O0 2.152324 1_545
Co1 O15 2.185538 1_554
Co2 O7 1.873756 1_555
Co2 O13 1.970957 1_555
Co2 O11 2.020756 1_555
Co2 O14 2.078284 1_555
Co2 O4 2.109711 1_555
Co2 O1 2.164982 1_455
Co3 O4 1.863355 1_555
Co3 O10 2.005373 1_565
Co3 O14 2.046140 1_555
Co3 O8 2.071239 1_555
Co3 O3 2.076066 1_555
Co3 O5 2.088221 1_555
Co4 O11 1.985838 1_555
Co4 O12 2.014558 1_455
Co4 O2 2.021627 1_455
Co4 O9 2.039977 1_555
Co4 O7 2.054552 1_555
Co4 O0 2.063097 1_545
