# generated using pymatgen
data_Tl9SbTe6
_symmetry_space_group_name_H-M   'P 1'
_cell_length_a   8.96558651
_cell_length_b   8.96594003
_cell_length_c   92.65320216
_cell_angle_alpha   118.87387414
_cell_angle_beta   118.87328069
_cell_angle_gamma   90.00385717
_symmetry_Int_Tables_number   1
_chemical_formula_structural   Tl9SbTe6
_chemical_formula_sum   'Tl90 Sb10 Te60'
_cell_volume   5440.67894043
_cell_formula_units_Z   10
loop_
 _symmetry_equiv_pos_site_id
 _symmetry_equiv_pos_as_xyz
  1  'x, y, z'
loop_
 _atom_site_type_symbol
 _atom_site_label
 _atom_site_symmetry_multiplicity
 _atom_site_fract_x
 _atom_site_fract_y
 _atom_site_fract_z
 _atom_site_occupancy
  Tl  Tl0  1  0.00714217  0.51311035  0.93150849  1
  Tl  Tl1  1  0.19677058  0.99177678  0.96839739  1
  Tl  Tl2  1  0.48737260  0.69236914  0.96842943  1
  Tl  Tl3  1  0.30787091  0.80191580  0.93149301  1
  Tl  Tl4  1  0.00948148  0.51132575  0.83141593  1
  Tl  Tl5  1  0.19901514  0.99235416  0.86864287  1
  Tl  Tl6  1  0.69243433  0.19685880  0.96842433  1
  Tl  Tl7  1  0.51301210  0.30790646  0.93149645  1
  Tl  Tl8  1  0.50223886  0.50223400  0.90043648  1
  Tl  Tl9  1  0.48750203  0.69419666  0.86865468  1
  Tl  Tl10  1  0.30465301  0.80283592  0.83140950  1
  Tl  Tl11  1  0.80200516  0.00709207  0.93150788  1
  Tl  Tl12  1  0.99181490  0.48718787  0.96840533  1
  Tl  Tl13  1  0.00841718  0.51218262  0.73146989  1
  Tl  Tl14  1  0.19678414  0.99083007  0.76850056  1
  Tl  Tl15  1  0.69421189  0.19906243  0.86865460  1
  Tl  Tl16  1  0.51124358  0.30467505  0.83141390  1
  Tl  Tl17  1  0.49845504  0.49844478  0.79968842  1
  Tl  Tl18  1  0.48833016  0.69422050  0.76850537  1
  Tl  Tl19  1  0.30615500  0.80250647  0.73145837  1
  Tl  Tl20  1  0.80283015  0.00947160  0.83141587  1
  Tl  Tl21  1  0.99229301  0.48737807  0.86864172  1
  Tl  Tl22  1  0.00890194  0.51183842  0.63145423  1
  Tl  Tl23  1  0.19767188  0.99146762  0.66856950  1
  Tl  Tl24  1  0.69423560  0.19677200  0.76850776  1
  Tl  Tl25  1  0.51206806  0.30618544  0.73145936  1
  Tl  Tl26  1  0.50072982  0.50073056  0.70015568  1
  Tl  Tl27  1  0.48809890  0.69422661  0.66856947  1
  Tl  Tl28  1  0.30551970  0.80266648  0.63143526  1
  Tl  Tl29  1  0.80253765  0.00838487  0.73146929  1
  Tl  Tl30  1  0.99080042  0.48823804  0.76850095  1
  Tl  Tl31  1  0.00884436  0.51195327  0.53147438  1
  Tl  Tl32  1  0.19729097  0.99129644  0.56853406  1
  Tl  Tl33  1  0.69426826  0.19769496  0.66857712  1
  Tl  Tl34  1  0.51169070  0.30557088  0.63144075  1
  Tl  Tl35  1  0.49955308  0.49955723  0.59991733  1
  Tl  Tl36  1  0.48815615  0.69409654  0.56853726  1
  Tl  Tl37  1  0.30584250  0.80269026  0.53145381  1
  Tl  Tl38  1  0.80268336  0.00879162  0.63144749  1
  Tl  Tl39  1  0.99136480  0.48803648  0.66856655  1
  Tl  Tl40  1  0.00863523  0.51196351  0.43143345  1
  Tl  Tl41  1  0.19731669  0.99120834  0.46855252  1
  Tl  Tl42  1  0.69415751  0.19730974  0.56854618  1
  Tl  Tl43  1  0.51184385  0.30590346  0.53146274  1
  Tl  Tl44  1  0.50044690  0.50044282  0.50008267  1
  Tl  Tl45  1  0.48830920  0.69442904  0.46855924  1
  Tl  Tl46  1  0.30573170  0.80230508  0.43142288  1
  Tl  Tl47  1  0.80270903  0.00870353  0.53146594  1
  Tl  Tl48  1  0.99115566  0.48804673  0.56852562  1
  Tl  Tl49  1  0.00919954  0.51176193  0.33149905  1
  Tl  Tl50  1  0.19746228  0.99161511  0.36853071  1
  Tl  Tl51  1  0.69448033  0.19733351  0.46856474  1
  Tl  Tl52  1  0.51190105  0.30577336  0.43143052  1
  Tl  Tl53  1  0.49927013  0.49926937  0.39984431  1
  Tl  Tl54  1  0.48793199  0.69381450  0.36854064  1
  Tl  Tl55  1  0.30576446  0.80322800  0.33149224  1
  Tl  Tl56  1  0.80232820  0.00853239  0.43143050  1
  Tl  Tl57  1  0.99109815  0.48816167  0.46854578  1
  Tl  Tl58  1  0.00770699  0.51262199  0.23135828  1
  Tl  Tl59  1  0.19716996  0.99052842  0.26858414  1
  Tl  Tl60  1  0.69384504  0.19749348  0.36854162  1
  Tl  Tl61  1  0.51166989  0.30577952  0.33149463  1
  Tl  Tl62  1  0.50154503  0.50155522  0.30031159  1
  Tl  Tl63  1  0.48875634  0.69532490  0.26858610  1
  Tl  Tl64  1  0.30578803  0.80093756  0.23134539  1
  Tl  Tl65  1  0.80321579  0.00916995  0.33149944  1
  Tl  Tl66  1  0.99158286  0.48781748  0.36853011  1
  Tl  Tl67  1  0.00818507  0.51281208  0.13159467  1
  Tl  Tl68  1  0.19799487  0.99290787  0.16849212  1
  Tl  Tl69  1  0.69534702  0.19716411  0.26859050  1
  Tl  Tl70  1  0.51249801  0.30580340  0.23134532  1
  Tl  Tl71  1  0.00346850  0.00348386  0.10069108  1
  Tl  Tl72  1  0.49776110  0.49776614  0.19956352  1
  Tl  Tl73  1  0.48698782  0.69209355  0.16850354  1
  Tl  Tl74  1  0.30756567  0.80314123  0.13157567  1
  Tl  Tl75  1  0.80098488  0.00764586  0.23135714  1
  Tl  Tl76  1  0.99051841  0.48867420  0.26858406  1
  Tl  Tl77  1  0.00781070  0.51354675  0.03131359  1
  Tl  Tl78  1  0.20027504  0.99212540  0.06867412  1
  Tl  Tl79  1  0.69212903  0.19808429  0.16850699  1
  Tl  Tl80  1  0.51262737  0.30763086  0.13157057  1
  Tl  Tl81  1  0.99653152  0.99651616  0.99930893  1
  Tl  Tl82  1  0.48670550  0.69485441  0.06871757  1
  Tl  Tl83  1  0.30512917  0.79958362  0.03129062  1
  Tl  Tl84  1  0.80322939  0.00822322  0.13160260  1
  Tl  Tl85  1  0.99285785  0.48688975  0.16849152  1
  Tl  Tl86  1  0.69487080  0.20041640  0.06870939  1
  Tl  Tl87  1  0.51329458  0.30514562  0.03128244  1
  Tl  Tl88  1  0.79972498  0.00787462  0.03132589  1
  Tl  Tl89  1  0.99218931  0.48645336  0.06868641  1
  Sb  Sb0  1  0.99561325  0.99562307  0.89910755  1
  Sb  Sb1  1  0.50855097  0.50859006  0.00172661  1
  Sb  Sb2  1  0.00229122  0.00228786  0.80045367  1
  Sb  Sb3  1  0.99876504  0.99878162  0.69975151  1
  Sb  Sb4  1  0.00070012  0.00070146  0.60013873  1
  Sb  Sb5  1  0.00123492  0.00121840  0.40024848  1
  Sb  Sb6  1  0.99770880  0.99771217  0.29954633  1
  Sb  Sb7  1  0.99929987  0.99929850  0.49986127  1
  Sb  Sb8  1  0.00438681  0.00437697  0.20089245  1
  Sb  Sb9  1  0.49144906  0.49140998  0.09827340  1
  Te  Te0  1  0.24639369  0.24628711  0.94928535  1
  Te  Te1  1  0.14856810  0.31885850  0.89990515  1
  Te  Te2  1  0.31883081  0.85059895  0.89991190  1
  Te  Te3  1  0.23069344  0.23059938  0.84611598  1
  Te  Te4  1  0.75229227  0.75234168  0.95044294  1
  Te  Te5  1  0.14920021  0.32017302  0.80004289  1
  Te  Te6  1  0.68010694  0.14850847  0.89988404  1
  Te  Te7  1  0.32030155  0.85128391  0.80005524  1
  Te  Te8  1  0.85053288  0.68023389  0.89989870  1
  Te  Te9  1  0.23633062  0.23615575  0.74723121  1
  Te  Te10  1  0.77034150  0.77040758  0.85408293  1
  Te  Te11  1  0.14866569  0.31946145  0.69998521  1
  Te  Te12  1  0.68009301  0.14915469  0.80002613  1
  Te  Te13  1  0.31957396  0.85113116  0.69999707  1
  Te  Te14  1  0.85124976  0.68023512  0.80003775  1
  Te  Te15  1  0.23339581  0.23323083  0.64664887  1
  Te  Te16  1  0.76307796  0.76328331  0.75265460  1
  Te  Te17  1  0.14889424  0.31982977  0.60001084  1
  Te  Te18  1  0.68028676  0.14864820  0.69996975  1
  Te  Te19  1  0.31982663  0.85118234  0.60001138  1
  Te  Te20  1  0.85102061  0.68032339  0.69997676  1
  Te  Te21  1  0.23515694  0.23506870  0.54701488  1
  Te  Te22  1  0.76687079  0.76699799  0.65339238  1
  Te  Te23  1  0.14886152  0.31975077  0.49999549  1
  Te  Te24  1  0.68029385  0.14890631  0.60000769  1
  Te  Te25  1  0.31970614  0.85109359  0.49999231  1
  Te  Te26  1  0.85113855  0.68024916  0.60000452  1
  Te  Te27  1  0.23312933  0.23300203  0.44660762  1
  Te  Te28  1  0.76484321  0.76493145  0.55298514  1
  Te  Te29  1  0.14897941  0.31967657  0.40002324  1
  Te  Te30  1  0.68017337  0.14881772  0.49998863  1
  Te  Te31  1  0.31971335  0.85135182  0.40003026  1
  Te  Te32  1  0.85110586  0.68017027  0.49998917  1
  Te  Te33  1  0.23692197  0.23671663  0.34734540  1
  Te  Te34  1  0.76660408  0.76676910  0.45335112  1
  Te  Te35  1  0.14875035  0.31976491  0.29996226  1
  Te  Te36  1  0.68042600  0.14886892  0.40000294  1
  Te  Te37  1  0.31990702  0.85084518  0.29997386  1
  Te  Te38  1  0.85133415  0.68053861  0.40001478  1
  Te  Te39  1  0.22965864  0.22959246  0.24591709  1
  Te  Te40  1  0.76366937  0.76384422  0.35276879  1
  Te  Te41  1  0.14946717  0.31976606  0.20010129  1
  Te  Te42  1  0.67969833  0.14871615  0.29994475  1
  Te  Te43  1  0.31989319  0.85149155  0.20011597  1
  Te  Te44  1  0.85079978  0.67982698  0.29995711  1
  Te  Te45  1  0.24770776  0.24765831  0.14955707  1
  Te  Te46  1  0.76930661  0.76940060  0.25388401  1
  Te  Te47  1  0.17861910  0.34908053  0.09968628  1
  Te  Te48  1  0.68116899  0.14940102  0.20008810  1
  Te  Te49  1  0.34947693  0.81851295  0.09974915  1
  Te  Te50  1  0.85143176  0.68114146  0.20009485  1
  Te  Te51  1  0.27369743  0.27363160  0.05475248  1
  Te  Te52  1  0.75360611  0.75371277  0.15071462  1
  Te  Te53  1  0.18128229  0.35179334  0.00022160  1
  Te  Te54  1  0.64797538  0.17875259  0.09972014  1
  Te  Te55  1  0.35202465  0.82124731  0.00027986  1
  Te  Te56  1  0.81871772  0.64820659  0.09977839  1
  Te  Te57  1  0.72630249  0.72636834  0.04524751  1
  Te  Te58  1  0.65052304  0.18148715  0.00025085  1
  Te  Te59  1  0.82138085  0.65091922  0.00031370  1
loop_
_geom_bond_atom_site_label_1
_geom_bond_atom_site_label_2
_geom_bond_distance
_geom_bond_site_symmetry_2
Sb0 Te10 3.047402 1_555
Sb0 Te2 3.158995 1_655
Sb0 Te1 3.159082 1_665
Sb0 Te8 3.159949 1_555
Sb0 Te6 3.160304 1_565
Sb0 Te0 3.396178 1_665
Sb1 Te57 2.945627 1_555
Sb1 Te53 3.165447 1_555
Sb1 Te58 3.165660 1_555
Sb1 Te59 3.166609 1_555
Sb1 Te55 3.166611 1_555
Sb2 Te3 3.090561 1_555
Sb2 Te5 3.164211 1_555
Sb2 Te14 3.164581 1_445
Sb2 Te7 3.165018 1_545
Sb2 Te12 3.165513 1_455
Sb2 Te16 3.235185 1_445
Sb3 Te22 3.137724 1_555
Sb3 Te11 3.159852 1_665
Sb3 Te18 3.160530 1_565
Sb3 Te20 3.160916 1_555
Sb3 Te13 3.161043 1_655
Sb3 Te9 3.213568 1_665
Sb4 Te15 3.147945 1_555
Sb4 Te17 3.162251 1_555
Sb4 Te24 3.162319 1_455
Sb4 Te19 3.162491 1_545
Sb4 Te26 3.162608 1_445
Sb4 Te28 3.191495 1_445
Sb5 Te27 3.137724 1_555
Sb5 Te38 3.159852 1_445
Sb5 Te31 3.160531 1_545
Sb5 Te29 3.160915 1_555
Sb5 Te36 3.161043 1_455
Sb5 Te40 3.213567 1_445
Sb6 Te46 3.090561 1_555
Sb6 Te44 3.164211 1_555
Sb6 Te35 3.164581 1_665
Sb6 Te42 3.165019 1_565
Sb6 Te37 3.165514 1_655
Sb6 Te33 3.235185 1_665
Sb7 Te34 3.147946 1_555
Sb7 Te32 3.162251 1_555
Sb7 Te25 3.162319 1_655
Sb7 Te30 3.162492 1_565
Sb7 Te23 3.162607 1_665
Sb7 Te21 3.191496 1_665
Sb8 Te39 3.047403 1_555
Sb8 Te48 3.158997 1_455
Sb8 Te50 3.159084 1_445
Sb8 Te41 3.159948 1_555
Sb8 Te43 3.160304 1_545
Sb8 Te52 3.396180 1_445
Sb9 Te51 2.945628 1_555
Sb9 Te56 3.165448 1_555
Sb9 Te49 3.165661 1_555
Sb9 Te47 3.166609 1_555
Sb9 Te54 3.166612 1_555
Te1 Tl5 3.200092 1_545
Te1 Tl7 3.208534 1_555
Te1 Tl15 3.425838 1_455
Te1 Tl0 3.446135 1_555
Te1 Tl8 3.539826 1_555
Te1 Tl21 3.597813 1_455
Te1 Tl3 3.617192 1_555
Te2 Tl21 3.203978 1_455
Te2 Tl3 3.205206 1_555
Te2 Tl5 3.422526 1_555
Te2 Tl7 3.449215 1_565
Te2 Tl8 3.540078 1_555
Te2 Tl9 3.598372 1_555
Te2 Tl11 3.617940 1_565
Te4 Tl81 3.307392 1_555
Te4 Tl8 3.384586 1_555
Te5 Tl16 3.206621 1_555
Te5 Tl14 3.211287 1_545
Te5 Tl4 3.414899 1_555
Te5 Tl24 3.430306 1_455
Te5 Tl17 3.536962 1_555
Te5 Tl10 3.613492 1_555
Te5 Tl30 3.615707 1_455
Te6 Tl15 3.195907 1_555
Te6 Tl0 3.212473 1_655
Te6 Tl9 3.425963 1_545
Te6 Tl11 3.447146 1_555
Te6 Tl8 3.539307 1_555
Te6 Tl5 3.601518 1_545
Te6 Tl7 3.614005 1_555
Te7 Tl10 3.203145 1_555
Te7 Tl30 3.215111 1_455
Te7 Tl16 3.418501 1_565
Te7 Tl14 3.427184 1_555
Te7 Tl17 3.536889 1_555
Te7 Tl20 3.612397 1_565
Te7 Tl18 3.615967 1_555
Te8 Tl9 3.200022 1_555
Te8 Tl11 3.208840 1_565
Te8 Tl21 3.422159 1_555
Te8 Tl3 3.448944 1_655
Te8 Tl8 3.539335 1_555
Te8 Tl15 3.602224 1_555
Te8 Tl0 3.614065 1_655
Te9 Tl17 3.550457 1_555
Te9 Tl25 3.607761 1_555
Te9 Tl19 3.611238 1_545
Te9 Tl13 3.611379 1_555
Te9 Tl29 3.614223 1_455
Te11 Tl23 3.206580 1_545
Te11 Tl25 3.208281 1_555
Te11 Tl33 3.426239 1_455
Te11 Tl13 3.428011 1_555
Te11 Tl26 3.539958 1_555
Te11 Tl39 3.610016 1_455
Te11 Tl19 3.616638 1_555
Te12 Tl24 3.207499 1_555
Te12 Tl4 3.210507 1_655
Te12 Tl20 3.415416 1_555
Te12 Tl18 3.430450 1_545
Te12 Tl17 3.536482 1_555
Te12 Tl16 3.609597 1_555
Te12 Tl14 3.618637 1_545
Te13 Tl19 3.204328 1_555
Te13 Tl39 3.210091 1_455
Te13 Tl23 3.423711 1_555
Te13 Tl25 3.431704 1_565
Te13 Tl26 3.539839 1_555
Te13 Tl27 3.610260 1_555
Te13 Tl29 3.615927 1_565
Te14 Tl20 3.207073 1_565
Te14 Tl18 3.211189 1_555
Te14 Tl10 3.418215 1_655
Te14 Tl30 3.426344 1_555
Te14 Tl17 3.537205 1_555
Te14 Tl4 3.609390 1_655
Te14 Tl24 3.619879 1_555
Te15 Tl26 3.621496 1_555
Te16 Tl26 3.553281 1_555
Te16 Tl18 3.602746 1_555
Te16 Tl24 3.606496 1_565
Te16 Tl30 3.606644 1_555
Te16 Tl14 3.609779 1_655
Te17 Tl34 3.207565 1_555
Te17 Tl32 3.208761 1_545
Te17 Tl22 3.422629 1_555
Te17 Tl42 3.428630 1_455
Te17 Tl35 3.538325 1_555
Te17 Tl48 3.612485 1_455
Te17 Tl28 3.614948 1_555
Te18 Tl33 3.202593 1_555
Te18 Tl13 3.211867 1_655
Te18 Tl27 3.426846 1_545
Te18 Tl29 3.428742 1_555
Te18 Tl26 3.540039 1_555
Te18 Tl25 3.612760 1_555
Te18 Tl23 3.613137 1_545
Te19 Tl28 3.204126 1_555
Te19 Tl48 3.212157 1_455
Te19 Tl32 3.425670 1_555
Te19 Tl34 3.426436 1_565
Te19 Tl35 3.538848 1_555
Te19 Tl36 3.612382 1_555
Te19 Tl38 3.615024 1_565
Te20 Tl27 3.205773 1_555
Te20 Tl29 3.207956 1_565
Te20 Tl39 3.422902 1_555
Te20 Tl19 3.431871 1_655
Te20 Tl26 3.539998 1_555
Te20 Tl13 3.612532 1_655
Te20 Tl33 3.613347 1_555
Te21 Tl35 3.580592 1_555
Te22 Tl35 3.619349 1_555
Te23 Tl41 3.207438 1_545
Te23 Tl43 3.208274 1_555
Te23 Tl31 3.425546 1_555
Te23 Tl51 3.425850 1_455
Te23 Tl44 3.538779 1_555
Te23 Tl57 3.611192 1_455
Te23 Tl37 3.615817 1_555
Te24 Tl42 3.205110 1_555
Te24 Tl22 3.210927 1_655
Te24 Tl38 3.422756 1_555
Te24 Tl36 3.429727 1_545
Te24 Tl35 3.538803 1_555
Te24 Tl34 3.611242 1_555
Te24 Tl32 3.616219 1_545
Te25 Tl37 3.205109 1_555
Te25 Tl57 3.210926 1_455
Te25 Tl41 3.422756 1_555
Te25 Tl43 3.429728 1_565
Te25 Tl44 3.538802 1_555
Te25 Tl45 3.611242 1_555
Te25 Tl47 3.616219 1_565
Te26 Tl38 3.207439 1_565
Te26 Tl36 3.208275 1_555
Te26 Tl48 3.425546 1_555
Te26 Tl28 3.425850 1_655
Te26 Tl35 3.538779 1_555
Te26 Tl22 3.611191 1_655
Te26 Tl42 3.615816 1_555
Te27 Tl44 3.619349 1_555
Te28 Tl44 3.580594 1_555
Te29 Tl52 3.205772 1_555
Te29 Tl50 3.207956 1_545
Te29 Tl40 3.422901 1_555
Te29 Tl60 3.431871 1_455
Te29 Tl53 3.539998 1_555
Te29 Tl66 3.612533 1_455
Te29 Tl46 3.613348 1_555
Te30 Tl51 3.204127 1_555
Te30 Tl31 3.212157 1_655
Te30 Tl47 3.425670 1_555
Te30 Tl45 3.426437 1_545
Te30 Tl44 3.538848 1_555
Te30 Tl43 3.612381 1_555
Te30 Tl41 3.615024 1_545
Te31 Tl46 3.202592 1_555
Te31 Tl66 3.211867 1_455
Te31 Tl52 3.426845 1_565
Te31 Tl50 3.428742 1_555
Te31 Tl53 3.540038 1_555
Te31 Tl54 3.612760 1_555
Te31 Tl56 3.613137 1_565
Te32 Tl45 3.207566 1_555
Te32 Tl47 3.208760 1_565
Te32 Tl57 3.422629 1_555
Te32 Tl37 3.428629 1_655
Te32 Tl44 3.538325 1_555
Te32 Tl31 3.612485 1_655
Te32 Tl51 3.614948 1_555
Te33 Tl53 3.553280 1_555
Te33 Tl61 3.602747 1_555
Te33 Tl55 3.606495 1_545
Te33 Tl49 3.606644 1_555
Te33 Tl65 3.609779 1_455
Te34 Tl53 3.621496 1_555
Te35 Tl59 3.207073 1_545
Te35 Tl61 3.211188 1_555
Te35 Tl69 3.418215 1_455
Te35 Tl49 3.426344 1_555
Te35 Tl62 3.537205 1_555
Te35 Tl76 3.609391 1_455
Te35 Tl55 3.619878 1_555
Te36 Tl60 3.204330 1_555
Te36 Tl40 3.210091 1_655
Te36 Tl56 3.423710 1_555
Te36 Tl54 3.431705 1_545
Te36 Tl53 3.539838 1_555
Te36 Tl52 3.610259 1_555
Te36 Tl50 3.615928 1_545
Te37 Tl55 3.207499 1_555
Te37 Tl76 3.210507 1_455
Te37 Tl59 3.415415 1_555
Te37 Tl61 3.430452 1_565
Te37 Tl62 3.536482 1_555
Te37 Tl63 3.609595 1_555
Te37 Tl65 3.618637 1_565
Te38 Tl56 3.206579 1_565
Te38 Tl54 3.208279 1_555
Te38 Tl46 3.426240 1_655
Te38 Tl66 3.428011 1_555
Te38 Tl53 3.539957 1_555
Te38 Tl40 3.610017 1_655
Te38 Tl60 3.616639 1_555
Te40 Tl62 3.550456 1_555
Te40 Tl54 3.607761 1_555
Te40 Tl60 3.611238 1_565
Te40 Tl66 3.611378 1_555
Te40 Tl50 3.614222 1_655
Te41 Tl70 3.200022 1_555
Te41 Tl68 3.208840 1_545
Te41 Tl58 3.422160 1_555
Te41 Tl79 3.448945 1_455
Te41 Tl72 3.539335 1_555
Te41 Tl64 3.602224 1_555
Te41 Tl85 3.614064 1_455
Te42 Tl69 3.203144 1_555
Te42 Tl49 3.215111 1_655
Te42 Tl63 3.418501 1_545
Te42 Tl65 3.427185 1_555
Te42 Tl62 3.536887 1_555
Te42 Tl59 3.612395 1_545
Te42 Tl61 3.615967 1_555
Te43 Tl64 3.195906 1_555
Te43 Tl85 3.212473 1_455
Te43 Tl70 3.425963 1_565
Te43 Tl68 3.447146 1_555
Te43 Tl72 3.539305 1_555
Te43 Tl75 3.601517 1_565
Te43 Tl73 3.614005 1_555
Te44 Tl63 3.206621 1_555
Te44 Tl65 3.211287 1_565
Te44 Tl76 3.414899 1_555
Te44 Tl55 3.430307 1_655
Te44 Tl62 3.536962 1_555
Te44 Tl69 3.613492 1_555
Te44 Tl49 3.615707 1_655
Te45 Tl71 3.307392 1_555
Te45 Tl72 3.384585 1_555
Te47 Tl78 3.192869 1_545
Te47 Tl80 3.217100 1_555
Te47 Tl89 3.367639 1_455
Te47 Tl74 3.424018 1_555
Te47 Tl71 3.534833 1_555
Te48 Tl58 3.203979 1_655
Te48 Tl79 3.205207 1_555
Te48 Tl75 3.422526 1_555
Te48 Tl73 3.449215 1_545
Te48 Tl72 3.540079 1_555
Te48 Tl70 3.598371 1_555
Te48 Tl68 3.617939 1_545
Te49 Tl89 3.198143 1_455
Te49 Tl74 3.212222 1_555
Te49 Tl82 3.368595 1_555
Te49 Tl84 3.421856 1_565
Te49 Tl71 3.536079 1_565
Te50 Tl75 3.200092 1_565
Te50 Tl73 3.208534 1_555
Te50 Tl64 3.425838 1_655
Te50 Tl85 3.446135 1_555
Te50 Tl72 3.539824 1_555
Te50 Tl58 3.597812 1_655
Te50 Tl79 3.617191 1_555
Te51 Tl78 3.525834 1_545
Te51 Tl89 3.527899 1_455
Te51 Tl86 3.530753 1_555
Te51 Tl82 3.532383 1_555
Te53 Tl87 3.194883 1_555
Te53 Tl1 3.215025 1_544
Te53 Tl83 3.374825 1_555
Te53 Tl12 3.416063 1_454
Te53 Tl81 3.535735 1_444
Te54 Tl86 3.189934 1_555
Te54 Tl67 3.219861 1_655
Te54 Tl78 3.374265 1_545
Te54 Tl80 3.417851 1_555
Te54 Tl71 3.534985 1_655
Te55 Tl83 3.189934 1_555
Te55 Tl12 3.219861 1_454
Te55 Tl88 3.374265 1_565
Te55 Tl2 3.417851 1_554
Te55 Tl81 3.534985 1_454
Te56 Tl82 3.194883 1_555
Te56 Tl84 3.215026 1_565
Te56 Tl86 3.374824 1_555
Te56 Tl67 3.416064 1_655
Te56 Tl71 3.535734 1_665
Te57 Tl88 3.525834 1_565
Te57 Tl77 3.527899 1_655
Te57 Tl83 3.530753 1_555
Te57 Tl87 3.532383 1_555
Te58 Tl77 3.198143 1_655
Te58 Tl6 3.212222 1_554
Te58 Tl87 3.368595 1_555
Te58 Tl1 3.421856 1_544
Te58 Tl81 3.536080 1_544
Te59 Tl88 3.192871 1_565
Te59 Tl2 3.217100 1_554
Te59 Tl77 3.367638 1_655
Te59 Tl6 3.424016 1_554
Te59 Tl81 3.534833 1_554
