# generated using pymatgen
data_Cu2Sb
_symmetry_space_group_name_H-M   'P 1'
_cell_length_a   4.02029744
_cell_length_b   4.02029744
_cell_length_c   5.99324426
_cell_angle_alpha   90.00000000
_cell_angle_beta   90.00000000
_cell_angle_gamma   90.00000000
_symmetry_Int_Tables_number   1
_chemical_formula_structural   Cu2Sb
_chemical_formula_sum   'Cu4 Sb2'
_cell_volume   96.86755742
_cell_formula_units_Z   2
loop_
 _symmetry_equiv_pos_site_id
 _symmetry_equiv_pos_as_xyz
  1  'x, y, z'
loop_
 _atom_site_type_symbol
 _atom_site_label
 _atom_site_symmetry_multiplicity
 _atom_site_fract_x
 _atom_site_fract_y
 _atom_site_fract_z
 _atom_site_occupancy
  Cu  Cu0  1  0.75000000  0.25000000  0.00000000  1
  Cu  Cu1  1  0.25000000  0.75000000  0.00000000  1
  Cu  Cu2  1  0.25000000  0.25000000  0.26214317  1
  Cu  Cu3  1  0.75000000  0.75000000  0.73785683  1
  Sb  Sb0  1  0.25000000  0.25000000  0.70192221  1
  Sb  Sb1  1  0.75000000  0.75000000  0.29807779  1
loop_
_geom_bond_atom_site_label_1
_geom_bond_atom_site_label_2
_geom_bond_distance
_geom_bond_site_symmetry_2
Cu0 Cu2 2.551277 1_555
Cu0 Cu3 2.551277 1_544
Cu0 Cu2 2.551277 1_655
Cu0 Cu3 2.551277 1_554
Cu0 Sb0 2.689259 1_554
Cu0 Sb1 2.689259 1_545
Cu0 Sb1 2.689259 1_555
Cu0 Sb0 2.689259 1_654
Cu0 Cu1 2.842780 1_645
Cu0 Cu1 2.842780 1_655
Cu0 Cu1 2.842780 1_545
Cu0 Cu1 2.842780 1_555
Cu1 Cu2 2.551277 1_555
Cu1 Cu2 2.551277 1_565
Cu1 Cu3 2.551277 1_454
Cu1 Cu3 2.551277 1_554
Cu1 Sb0 2.689259 1_554
Cu1 Sb1 2.689259 1_455
Cu1 Sb0 2.689259 1_564
Cu1 Sb1 2.689259 1_555
Cu2 Sb0 2.635703 1_555
Cu2 Sb1 2.850926 1_545
Cu2 Sb1 2.850926 1_445
Cu2 Sb1 2.850926 1_455
Cu2 Sb1 2.850926 1_555
Cu3 Sb1 2.635703 1_555
Cu3 Sb0 2.850926 1_555
Cu3 Sb0 2.850926 1_655
Cu3 Sb0 2.850926 1_565
Cu3 Sb0 2.850926 1_665
