# generated using pymatgen
data_Ca2TaWO6
_symmetry_space_group_name_H-M   'P 1'
_cell_length_a   5.70948664
_cell_length_b   5.70948664
_cell_length_c   5.70948699
_cell_angle_alpha   59.53070442
_cell_angle_beta   59.53070442
_cell_angle_gamma   59.53071362
_symmetry_Int_Tables_number   1
_chemical_formula_structural   Ca2TaWO6
_chemical_formula_sum   'Ca2 Ta1 W1 O6'
_cell_volume   130.20179193
_cell_formula_units_Z   1
loop_
 _symmetry_equiv_pos_site_id
 _symmetry_equiv_pos_as_xyz
  1  'x, y, z'
loop_
 _atom_site_type_symbol
 _atom_site_label
 _atom_site_symmetry_multiplicity
 _atom_site_fract_x
 _atom_site_fract_y
 _atom_site_fract_z
 _atom_site_occupancy
  Ca  Ca0  1  0.23144300  0.23144300  0.23144300  1
  Ca  Ca1  1  0.72826500  0.72826500  0.72826500  1
  Ta  Ta0  1  0.49931700  0.49931700  0.49931700  1
  W  W0  1  0.99970000  0.99970000  0.99970000  1
  O  O0  1  0.35325000  0.17078000  0.73817000  1
  O  O1  1  0.64812200  0.83354500  0.28514000  1
  O  O2  1  0.83354500  0.28514000  0.64812200  1
  O  O3  1  0.28514000  0.64812200  0.83354500  1
  O  O4  1  0.73817000  0.35325000  0.17078000  1
  O  O5  1  0.17078000  0.73817000  0.35325000  1
loop_
_geom_bond_atom_site_label_1
_geom_bond_atom_site_label_2
_geom_bond_distance
_geom_bond_site_symmetry_2
Ca0 O3 2.338159 1_554
Ca0 O2 2.338159 1_455
Ca0 O1 2.338159 1_545
Ca0 O5 2.700737 1_545
Ca0 O4 2.700737 1_455
Ca0 O0 2.700738 1_554
Ca1 O5 2.346686 1_655
Ca1 O4 2.346686 1_556
Ca1 O0 2.346686 1_565
Ca1 O3 2.514853 1_555
Ca1 O2 2.514854 1_555
Ca1 O1 2.514854 1_555
O0 Ta0 1.978034 1_555
O0 W0 2.173035 1_445
O1 Ta0 2.020569 1_555
O1 W0 2.151958 1_554
O2 Ta0 2.020570 1_555
O2 W0 2.151958 1_545
O3 Ta0 2.020570 1_555
O3 W0 2.151958 1_455
O4 Ta0 1.978034 1_555
O4 W0 2.173035 1_544
O5 Ta0 1.978034 1_555
O5 W0 2.173035 1_454
