# generated using pymatgen
data_Ag2B8O13
_symmetry_space_group_name_H-M   'P 1'
_cell_length_a   8.48136500
_cell_length_b   10.73510670
_cell_length_c   11.58937072
_cell_angle_alpha   101.09477590
_cell_angle_beta   90.00000000
_cell_angle_gamma   90.00000000
_symmetry_Int_Tables_number   1
_chemical_formula_structural   Ag2B8O13
_chemical_formula_sum   'Ag8 B32 O52'
_cell_volume   1035.47184149
_cell_formula_units_Z   4
loop_
 _symmetry_equiv_pos_site_id
 _symmetry_equiv_pos_as_xyz
  1  'x, y, z'
loop_
 _atom_site_type_symbol
 _atom_site_label
 _atom_site_symmetry_multiplicity
 _atom_site_fract_x
 _atom_site_fract_y
 _atom_site_fract_z
 _atom_site_occupancy
  Ag  Ag0  1  0.12446400  0.81497500  0.61848600  1
  Ag  Ag1  1  0.13317100  0.46176600  0.92506000  1
  Ag  Ag2  1  0.36810800  0.96116200  0.92594700  1
  Ag  Ag3  1  0.41379700  0.30565000  0.61477300  1
  Ag  Ag4  1  0.62446400  0.68502500  0.38151400  1
  Ag  Ag5  1  0.63317100  0.03823400  0.07494000  1
  Ag  Ag6  1  0.86810800  0.53883800  0.07405300  1
  Ag  Ag7  1  0.91379700  0.19435000  0.38522700  1
  B  B0  1  0.00409600  0.54046900  0.70975800  1
  B  B1  1  0.04155500  0.69782900  0.32778800  1
  B  B2  1  0.07234600  0.89184800  0.24288200  1
  B  B3  1  0.07751900  0.74084700  0.87204900  1
  B  B4  1  0.09423600  0.06565800  0.12454200  1
  B  B5  1  0.11433200  0.10644200  0.59996500  1
  B  B6  1  0.16970300  0.21943600  0.00431200  1
  B  B7  1  0.17913700  0.55276200  0.43993300  1
  B  B8  1  0.32044600  0.05253900  0.43972100  1
  B  B9  1  0.33054900  0.71971800  0.00472700  1
  B  B10  1  0.38587600  0.60474700  0.59948500  1
  B  B11  1  0.40625900  0.56638700  0.12530100  1
  B  B12  1  0.42296300  0.24127300  0.87262600  1
  B  B13  1  0.42912700  0.39146500  0.24191700  1
  B  B14  1  0.45636100  0.19773800  0.32762500  1
  B  B15  1  0.49642300  0.04067800  0.71025100  1
  B  B16  1  0.50409600  0.95953100  0.29024200  1
  B  B17  1  0.54155500  0.80217100  0.67221200  1
  B  B18  1  0.57234600  0.60815200  0.75711800  1
  B  B19  1  0.57751900  0.75915300  0.12795100  1
  B  B20  1  0.59423600  0.43434200  0.87545800  1
  B  B21  1  0.61433200  0.39355800  0.40003500  1
  B  B22  1  0.66970300  0.28056400  0.99568800  1
  B  B23  1  0.67913700  0.94723800  0.56006700  1
  B  B24  1  0.82044600  0.44746100  0.56027900  1
  B  B25  1  0.83054900  0.78028200  0.99527300  1
  B  B26  1  0.88587600  0.89525300  0.40051500  1
  B  B27  1  0.90625900  0.93361300  0.87469900  1
  B  B28  1  0.92296300  0.25872700  0.12737400  1
  B  B29  1  0.92912600  0.10853500  0.75808300  1
  B  B30  1  0.95636100  0.30226200  0.67237500  1
  B  B31  1  0.99642300  0.45932200  0.28974900  1
  O  O0  1  0.03614700  0.04201300  0.67663600  1
  O  O1  1  0.02206100  0.42313300  0.73972500  1
  O  O2  1  0.04038400  0.29100300  0.04476800  1
  O  O3  1  0.03449300  0.86307300  0.83477400  1
  O  O4  1  0.08560700  0.23033000  0.59918600  1
  O  O5  1  0.09667100  0.44730400  0.38204100  1
  O  O6  1  0.08837100  0.64258000  0.76505600  1
  O  O7  1  0.11126200  0.77083900  0.24600600  1
  O  O8  1  0.13457700  0.95356000  0.15847600  1
  O  O9  1  0.15985800  0.67057500  0.41458900  1
  O  O10  1  0.19308000  0.10215400  0.03952900  1
  O  O11  1  0.21775000  0.02949200  0.52620600  1
  O  O12  1  0.26577100  0.26113300  0.92684300  1
  O  O13  1  0.23476100  0.76103500  0.92683300  1
  O  O14  1  0.28367200  0.52855900  0.52468200  1
  O  O15  1  0.30695100  0.60277500  0.04041900  1
  O  O16  1  0.33590500  0.16994300  0.41277100  1
  O  O17  1  0.36545100  0.45412800  0.15879200  1
  O  O18  1  0.38840700  0.27091100  0.24534100  1
  O  O19  1  0.41281700  0.14349100  0.76494700  1
  O  O20  1  0.40430400  0.94762000  0.38298700  1
  O  O21  1  0.40916000  0.73046000  0.60270000  1
  O  O22  1  0.46633200  0.36341800  0.83507500  1
  O  O23  1  0.45983700  0.79132500  0.04526100  1
  O  O24  1  0.47688900  0.92341900  0.73981000  1
  O  O25  1  0.46861300  0.54000000  0.67373400  1
  O  O26  1  0.53614700  0.45798700  0.32336400  1
  O  O27  1  0.52206100  0.07686700  0.26027500  1
  O  O28  1  0.54038400  0.20899700  0.95523200  1
  O  O29  1  0.53449300  0.63692700  0.16522600  1
  O  O30  1  0.58560700  0.26967000  0.40081400  1
  O  O31  1  0.59667100  0.05269600  0.61795900  1
  O  O32  1  0.58837100  0.85742000  0.23494400  1
  O  O33  1  0.61126200  0.72916100  0.75399400  1
  O  O34  1  0.63457700  0.54644000  0.84152400  1
  O  O35  1  0.65985800  0.82942500  0.58541100  1
  O  O36  1  0.69308000  0.39784600  0.96047100  1
  O  O37  1  0.71775000  0.47050800  0.47379400  1
  O  O38  1  0.76577100  0.23886700  0.07315700  1
  O  O39  1  0.73476100  0.73896500  0.07316700  1
  O  O40  1  0.78367200  0.97144100  0.47531800  1
  O  O41  1  0.80695100  0.89722500  0.95958100  1
  O  O42  1  0.83590500  0.33005700  0.58722900  1
  O  O43  1  0.86545100  0.04587200  0.84120800  1
  O  O44  1  0.88840700  0.22908900  0.75465900  1
  O  O45  1  0.91281700  0.35650900  0.23505300  1
  O  O46  1  0.90430400  0.55238000  0.61701300  1
  O  O47  1  0.90916000  0.76954000  0.39730000  1
  O  O48  1  0.96633200  0.13658200  0.16492500  1
  O  O49  1  0.95983700  0.70867500  0.95473900  1
  O  O50  1  0.97688900  0.57658100  0.26019000  1
  O  O51  1  0.96861300  0.96000000  0.32626600  1
loop_
_geom_bond_atom_site_label_1
_geom_bond_atom_site_label_2
_geom_bond_distance
_geom_bond_site_symmetry_2
Ag0 O0 2.514639 1_565
Ag0 O21 2.573536 1_555
Ag0 O3 2.575660 1_555
Ag0 O9 2.582100 1_555
Ag0 O6 2.759353 1_555
Ag0 O11 2.832099 1_565
Ag1 O1 2.308843 1_555
Ag1 O15 2.339296 1_556
Ag1 O12 2.433366 1_555
Ag1 O2 2.623602 1_556
Ag2 O24 2.309231 1_555
Ag2 O10 2.336774 1_566
Ag2 O13 2.429657 1_555
Ag2 O23 2.609930 1_556
Ag3 O25 2.520034 1_555
Ag3 O22 2.548014 1_555
Ag3 O16 2.593611 1_555
Ag3 O19 2.688035 1_555
Ag4 O26 2.514639 1_555
Ag4 O47 2.573536 1_555
Ag4 O29 2.575660 1_555
Ag4 O35 2.582100 1_555
Ag4 O32 2.759353 1_555
Ag4 O37 2.832099 1_555
Ag5 O27 2.308843 1_555
Ag5 O41 2.339296 1_544
Ag5 O38 2.433366 1_555
Ag5 O28 2.623602 1_554
Ag6 O50 2.309231 1_555
Ag6 O36 2.336774 1_554
Ag6 O39 2.429657 1_555
Ag6 O49 2.609930 1_554
Ag7 O51 2.520034 1_545
Ag7 O48 2.548014 1_555
Ag7 O42 2.593611 1_555
Ag7 O45 2.688035 1_555
B0 O6 1.361187 1_555
B0 O1 1.377979 1_555
B0 O46 1.393164 1_455
B1 O7 1.465624 1_555
B1 O50 1.488720 1_455
B1 O9 1.489161 1_555
B1 O47 1.504601 1_455
B2 O7 1.347542 1_555
B2 O8 1.387002 1_555
B2 O51 1.403949 1_455
B3 O6 1.468137 1_555
B3 O49 1.470122 1_455
B3 O13 1.475020 1_555
B3 O3 1.503185 1_555
B4 O48 1.355870 1_455
B4 O8 1.379131 1_545
B4 O10 1.405550 1_555
B5 O4 1.353819 1_555
B5 O11 1.382275 1_555
B5 O0 1.394342 1_555
B6 O12 1.350922 1_554
B6 O2 1.369095 1_555
B6 O10 1.410258 1_555
B7 O9 1.362179 1_555
B7 O14 1.384368 1_555
B7 O5 1.388766 1_555
B8 O16 1.361878 1_555
B8 O11 1.385610 1_555
B8 O20 1.386269 1_545
B9 O13 1.351218 1_554
B9 O23 1.369310 1_555
B9 O15 1.409623 1_555
B10 O21 1.357313 1_555
B10 O14 1.378041 1_555
B10 O25 1.395055 1_555
B11 O29 1.354825 1_555
B11 O17 1.379406 1_555
B11 O15 1.406279 1_555
B12 O28 1.468345 1_555
B12 O19 1.470528 1_555
B12 O12 1.471781 1_555
B12 O22 1.504546 1_555
B13 O18 1.347392 1_555
B13 O17 1.386243 1_555
B13 O26 1.401927 1_555
B14 O18 1.465231 1_555
B14 O27 1.487826 1_555
B14 O16 1.489911 1_555
B14 O30 1.505088 1_555
B15 O19 1.361448 1_555
B15 O24 1.376703 1_545
B15 O31 1.391661 1_555
B16 O32 1.361187 1_555
B16 O27 1.377979 1_565
B16 O20 1.393164 1_555
B17 O33 1.465624 1_555
B17 O24 1.488720 1_555
B17 O35 1.489161 1_555
B17 O21 1.504601 1_555
B18 O33 1.347542 1_555
B18 O34 1.387002 1_555
B18 O25 1.403949 1_555
B19 O32 1.468137 1_555
B19 O23 1.470122 1_555
B19 O39 1.475020 1_555
B19 O29 1.503185 1_555
B20 O22 1.355870 1_555
B20 O34 1.379131 1_555
B20 O36 1.405550 1_555
B21 O30 1.353819 1_555
B21 O37 1.382275 1_555
B21 O26 1.394342 1_555
B22 O38 1.350922 1_556
B22 O28 1.369095 1_555
B22 O36 1.410258 1_555
B23 O35 1.362179 1_555
B23 O40 1.384368 1_555
B23 O31 1.388766 1_565
B24 O42 1.361878 1_555
B24 O37 1.385610 1_555
B24 O46 1.386269 1_555
B25 O39 1.351218 1_556
B25 O49 1.369310 1_555
B25 O41 1.409623 1_555
B26 O47 1.357313 1_555
B26 O40 1.378041 1_555
B26 O51 1.395055 1_555
B27 O3 1.354825 1_655
B27 O43 1.379406 1_565
B27 O41 1.406279 1_555
B28 O2 1.468345 1_655
B28 O45 1.470528 1_555
B28 O38 1.471781 1_555
B28 O48 1.504546 1_555
B29 O44 1.347389 1_555
B29 O43 1.386239 1_555
B29 O0 1.401933 1_655
B30 O44 1.465231 1_555
B30 O1 1.487826 1_655
B30 O42 1.489911 1_555
B30 O4 1.505088 1_655
B31 O45 1.361448 1_555
B31 O50 1.376703 1_555
B31 O5 1.391661 1_655
