# generated using pymatgen
data_LiMg2Al
_symmetry_space_group_name_H-M   'P 1'
_cell_length_a   13.22797003
_cell_length_b   13.22797003
_cell_length_c   13.22797003
_cell_angle_alpha   154.70130276
_cell_angle_beta   133.52586964
_cell_angle_gamma   53.64587189
_symmetry_Int_Tables_number   1
_chemical_formula_structural   LiMg2Al
_chemical_formula_sum   'Li8 Mg16 Al8'
_cell_volume   713.83960426
_cell_formula_units_Z   8
loop_
 _symmetry_equiv_pos_site_id
 _symmetry_equiv_pos_as_xyz
  1  'x, y, z'
loop_
 _atom_site_type_symbol
 _atom_site_label
 _atom_site_symmetry_multiplicity
 _atom_site_fract_x
 _atom_site_fract_y
 _atom_site_fract_z
 _atom_site_occupancy
  Li  Li0_0  1  0.00000000  0.00000000  0.00000000  1
  Li  Li0_1  1  0.00000000  0.00000000  0.50000000  1
  Li  Li0_2  1  0.00000000  0.50000000  0.00000000  1
  Li  Li0_3  1  0.00000000  0.50000000  0.50000000  1
  Li  Li0_4  1  0.50000000  0.00000000  0.00000000  1
  Li  Li0_5  1  0.50000000  0.00000000  0.50000000  1
  Li  Li0_6  1  0.50000000  0.50000000  0.00000000  1
  Li  Li0_7  1  0.50000000  0.50000000  0.50000000  1
  Mg  Mg0_0  1  0.37395700  0.37395700  0.00000000  1
  Mg  Mg0_1  1  0.37395700  0.37395700  0.50000000  1
  Mg  Mg0_2  1  0.37395700  0.87395700  0.00000000  1
  Mg  Mg0_3  1  0.37395700  0.87395700  0.50000000  1
  Mg  Mg0_4  1  0.87395700  0.37395700  0.00000000  1
  Mg  Mg0_5  1  0.87395700  0.37395700  0.50000000  1
  Mg  Mg0_6  1  0.87395700  0.87395700  0.00000000  1
  Mg  Mg0_7  1  0.87395700  0.87395700  0.50000000  1
  Mg  Mg1_0  1  0.12604300  0.12604300  0.00000000  1
  Mg  Mg1_1  1  0.12604300  0.12604300  0.50000000  1
  Mg  Mg1_2  1  0.12604300  0.62604300  0.00000000  1
  Mg  Mg1_3  1  0.12604300  0.62604300  0.50000000  1
  Mg  Mg1_4  1  0.62604300  0.12604300  0.00000000  1
  Mg  Mg1_5  1  0.62604300  0.12604300  0.50000000  1
  Mg  Mg1_6  1  0.62604300  0.62604300  0.00000000  1
  Mg  Mg1_7  1  0.62604300  0.62604300  0.50000000  1
  Al  Al0_0  1  0.25000000  0.25000000  0.00000000  1
  Al  Al0_1  1  0.25000000  0.25000000  0.50000000  1
  Al  Al0_2  1  0.25000000  0.75000000  0.00000000  1
  Al  Al0_3  1  0.25000000  0.75000000  0.50000000  1
  Al  Al0_4  1  0.75000000  0.25000000  0.00000000  1
  Al  Al0_5  1  0.75000000  0.25000000  0.50000000  1
  Al  Al0_6  1  0.75000000  0.75000000  0.00000000  1
  Al  Al0_7  1  0.75000000  0.75000000  0.50000000  1
loop_
_geom_bond_atom_site_label_1
_geom_bond_atom_site_label_2
_geom_bond_distance
_geom_bond_site_symmetry_2
Li0_0 Li0_3 2.896710 1_544
Li0_0 Li0_3 2.896710 1_555
Li0_0 Mg1_0 2.975802 1_555
Li0_0 Mg0_6 2.975802 1_445
Li0_1 Li0_2 2.896710 1_545
Li0_1 Li0_2 2.896710 1_556
Li0_1 Mg1_1 2.975802 1_555
Li0_1 Mg0_7 2.975802 1_445
Li0_2 Mg0_4 2.975802 1_455
Li0_2 Mg1_2 2.975802 1_555
Li0_3 Mg1_3 2.975802 1_555
Li0_3 Mg0_5 2.975802 1_455
Li0_4 Li0_7 2.896710 1_555
Li0_4 Li0_7 2.896710 1_544
Li0_4 Mg0_2 2.975802 1_545
Li0_4 Mg1_4 2.975802 1_555
Li0_5 Li0_6 2.896710 1_545
Li0_5 Li0_6 2.896710 1_556
Li0_5 Mg0_3 2.975802 1_545
Li0_5 Mg1_5 2.975802 1_555
Li0_6 Mg0_0 2.975802 1_555
Li0_6 Mg1_6 2.975802 1_555
Li0_7 Mg1_7 2.975802 1_555
Li0_7 Mg0_1 2.975802 1_555
Mg0_0 Mg0_3 2.896710 1_555
Mg0_0 Mg0_3 2.896710 1_544
Mg0_0 Mg1_7 2.984867 1_555
Mg0_0 Mg1_2 2.984867 1_555
Mg0_0 Mg1_1 2.984867 1_554
Mg0_0 Mg1_4 2.984867 1_555
Mg0_1 Mg0_2 2.896710 1_545
Mg0_1 Mg0_2 2.896710 1_556
Mg0_1 Mg1_6 2.984867 1_556
Mg0_1 Mg1_5 2.984867 1_555
Mg0_1 Mg1_3 2.984867 1_555
Mg0_1 Mg1_0 2.984867 1_555
Mg0_2 Mg1_6 2.984867 1_555
Mg0_2 Mg1_0 2.984867 1_565
Mg0_2 Mg1_5 2.984867 1_565
Mg0_2 Mg1_3 2.984867 1_554
Mg0_3 Mg1_1 2.984867 1_565
Mg0_3 Mg1_7 2.984867 1_555
Mg0_3 Mg1_4 2.984867 1_566
Mg0_3 Mg1_2 2.984867 1_555
Mg0_4 Mg0_7 2.896710 1_555
Mg0_4 Mg0_7 2.896710 1_544
Mg0_4 Mg1_6 2.984867 1_555
Mg0_4 Mg1_0 2.984867 1_655
Mg0_4 Mg1_5 2.984867 1_554
Mg0_4 Mg1_3 2.984867 1_655
Mg0_5 Mg0_6 2.896710 1_556
Mg0_5 Mg0_6 2.896710 1_545
Mg0_5 Mg1_2 2.984867 1_656
Mg0_5 Mg1_4 2.984867 1_555
Mg0_5 Mg1_7 2.984867 1_555
Mg0_5 Mg1_1 2.984867 1_655
Mg0_6 Mg1_2 2.984867 1_655
Mg0_6 Mg1_4 2.984867 1_565
Mg0_6 Mg1_7 2.984867 1_554
Mg0_6 Mg1_1 2.984867 1_665
Mg0_7 Mg1_0 2.984867 1_666
Mg0_7 Mg1_5 2.984867 1_565
Mg0_7 Mg1_3 2.984867 1_655
Mg0_7 Mg1_6 2.984867 1_555
Mg1_0 Mg1_3 2.896710 1_555
Mg1_0 Mg1_3 2.896710 1_544
Mg1_1 Mg1_2 2.896710 1_545
Mg1_1 Mg1_2 2.896710 1_556
Mg1_4 Mg1_7 2.896710 1_555
Mg1_4 Mg1_7 2.896710 1_544
Mg1_5 Mg1_6 2.896710 1_545
Mg1_5 Mg1_6 2.896710 1_556
Al0_0 Al0_3 2.896710 1_555
Al0_0 Al0_3 2.896710 1_544
Al0_0 Mg1_0 2.926553 1_555
Al0_0 Mg0_0 2.926553 1_555
Al0_0 Li0_2 2.984460 1_555
Al0_0 Li0_1 2.984460 1_554
Al0_0 Li0_4 2.984460 1_555
Al0_0 Li0_7 2.984460 1_555
Al0_1 Al0_2 2.896710 1_545
Al0_1 Al0_2 2.896710 1_556
Al0_1 Mg1_1 2.926553 1_555
Al0_1 Mg0_1 2.926553 1_555
Al0_1 Li0_6 2.984460 1_556
Al0_1 Li0_3 2.984460 1_555
Al0_1 Li0_0 2.984460 1_555
Al0_1 Li0_5 2.984460 1_555
Al0_2 Mg1_2 2.926553 1_555
Al0_2 Mg0_2 2.926553 1_555
Al0_2 Li0_5 2.984460 1_565
Al0_2 Li0_6 2.984460 1_555
Al0_2 Li0_0 2.984460 1_565
Al0_2 Li0_3 2.984460 1_554
Al0_3 Mg0_3 2.926553 1_555
Al0_3 Mg1_3 2.926553 1_555
Al0_3 Li0_1 2.984460 1_565
Al0_3 Li0_2 2.984460 1_555
Al0_3 Li0_7 2.984460 1_555
Al0_3 Li0_4 2.984460 1_566
Al0_4 Al0_7 2.896710 1_555
Al0_4 Al0_7 2.896710 1_544
Al0_4 Mg1_4 2.926553 1_555
Al0_4 Mg0_4 2.926553 1_555
Al0_4 Li0_6 2.984460 1_555
Al0_4 Li0_3 2.984460 1_655
Al0_4 Li0_5 2.984460 1_554
Al0_4 Li0_0 2.984460 1_655
Al0_5 Al0_6 2.896710 1_545
Al0_5 Al0_6 2.896710 1_556
Al0_5 Mg1_5 2.926553 1_555
Al0_5 Mg0_5 2.926553 1_555
Al0_5 Li0_7 2.984460 1_555
Al0_5 Li0_2 2.984460 1_656
Al0_5 Li0_4 2.984460 1_555
Al0_5 Li0_1 2.984460 1_655
Al0_6 Mg1_6 2.926553 1_555
Al0_6 Mg0_6 2.926553 1_555
Al0_6 Li0_7 2.984460 1_554
Al0_6 Li0_1 2.984460 1_665
Al0_6 Li0_4 2.984460 1_565
Al0_6 Li0_2 2.984460 1_655
Al0_7 Mg0_7 2.926553 1_555
Al0_7 Mg1_7 2.926553 1_555
Al0_7 Li0_3 2.984460 1_655
Al0_7 Li0_0 2.984460 1_666
Al0_7 Li0_5 2.984460 1_565
Al0_7 Li0_6 2.984460 1_555
