# generated using pymatgen
data_Li9Mn2Co5O16
_symmetry_space_group_name_H-M   'P 1'
_cell_length_a   2.90534800
_cell_length_b   8.44261800
_cell_length_c   11.85497368
_cell_angle_alpha   89.79125492
_cell_angle_beta   90.00000000
_cell_angle_gamma   90.00000000
_symmetry_Int_Tables_number   1
_chemical_formula_structural   Li9Mn2Co5O16
_chemical_formula_sum   'Li9 Mn2 Co5 O16'
_cell_volume   290.78567655
_cell_formula_units_Z   1
loop_
 _symmetry_equiv_pos_site_id
 _symmetry_equiv_pos_as_xyz
  1  'x, y, z'
loop_
 _atom_site_type_symbol
 _atom_site_label
 _atom_site_symmetry_multiplicity
 _atom_site_fract_x
 _atom_site_fract_y
 _atom_site_fract_z
 _atom_site_occupancy
  Li  Li0  1  0.50000000  0.74572900  0.86714200  1
  Li  Li1  1  0.50000000  0.25323000  0.62089900  1
  Li  Li2  1  0.50000000  0.74847500  0.38252800  1
  Li  Li3  1  0.00000000  0.49978300  0.99833400  1
  Li  Li4  1  0.00000000  0.99839700  0.74413700  1
  Li  Li5  1  0.00000000  0.49105900  0.49773500  1
  Li  Li6  1  0.50000000  0.25490300  0.12647500  1
  Li  Li7  1  0.00000000  0.01305100  0.25981500  1
  Li  Li8  1  0.50000000  0.24870200  0.37782700  1
  Mn  Mn0  1  0.00000000  0.00022500  0.99751000  1
  Mn  Mn1  1  0.50000000  0.74399000  0.12882200  1
  Co  Co0  1  0.00000000  0.50364000  0.74767300  1
  Co  Co1  1  0.00000000  0.02259200  0.49741900  1
  Co  Co2  1  0.00000000  0.47145600  0.25773500  1
  Co  Co3  1  0.50000000  0.26006100  0.87458600  1
  Co  Co4  1  0.50000000  0.75146400  0.61927500  1
  O  O0  1  0.50000000  0.00023500  0.88541100  1
  O  O1  1  0.50000000  0.50462100  0.63501600  1
  O  O2  1  0.50000000  0.99700600  0.38770500  1
  O  O3  1  0.00000000  0.74131300  0.01731200  1
  O  O4  1  0.00000000  0.25581800  0.76055500  1
  O  O5  1  0.00000000  0.74877500  0.50646400  1
  O  O6  1  0.50000000  0.51976900  0.13698500  1
  O  O7  1  0.00000000  0.26070100  0.24392000  1
  O  O8  1  0.50000000  0.50020800  0.86665200  1
  O  O9  1  0.50000000  0.99026600  0.61427200  1
  O  O10  1  0.50000000  0.50089300  0.36439100  1
  O  O11  1  0.00000000  0.25439100  0.99119400  1
  O  O12  1  0.00000000  0.74628300  0.74245700  1
  O  O13  1  0.00000000  0.23547800  0.50251300  1
  O  O14  1  0.50000000  0.98190700  0.11174200  1
  O  O15  1  0.00000000  0.75558000  0.23549900  1
loop_
_geom_bond_atom_site_label_1
_geom_bond_atom_site_label_2
_geom_bond_distance
_geom_bond_site_symmetry_2
Li0 O12 2.072468 1_555
Li0 O12 2.072468 1_655
Li0 O8 2.072869 1_555
Li0 O0 2.160369 1_565
Li0 O3 2.297934 1_556
Li0 O3 2.297934 1_656
Li1 O13 2.025824 1_655
Li1 O13 2.025824 1_555
Li1 O1 2.129594 1_555
Li1 O4 2.202742 1_555
Li1 O4 2.202742 1_655
Li1 O9 2.221780 1_545
Li2 O5 2.066159 1_555
Li2 O5 2.066159 1_655
Li2 O2 2.099373 1_555
Li2 O10 2.102049 1_555
Li2 O15 2.269633 1_655
Li2 O15 2.269633 1_555
Li3 O3 2.052334 1_556
Li3 O11 2.073787 1_555
Li3 O8 2.132422 1_555
Li3 O8 2.132422 1_455
Li3 O6 2.200572 1_456
Li3 O6 2.200572 1_556
Li4 O9 2.118005 1_455
Li4 O9 2.118005 1_555
Li4 O12 2.128668 1_555
Li4 O4 2.182711 1_565
Li4 O0 2.217125 1_465
Li4 O0 2.217125 1_565
Li5 O10 2.148277 1_455
Li5 O10 2.148277 1_555
Li5 O13 2.158310 1_555
Li5 O5 2.178634 1_555
Li5 O1 2.184803 1_555
Li5 O1 2.184803 1_455
Li6 O7 2.012877 1_655
Li6 O7 2.012877 1_555
Li6 O11 2.163875 1_654
Li6 O11 2.163875 1_554
Li6 O6 2.240084 1_555
Li6 O14 2.312044 1_545
Li7 O7 2.098605 1_555
Li7 O2 2.103752 1_445
Li7 O2 2.103752 1_545
Li7 O15 2.193801 1_545
Li7 O14 2.294383 1_445
Li7 O14 2.294383 1_545
Li8 O13 2.075199 1_655
Li8 O13 2.075199 1_555
Li8 O2 2.127771 1_545
Li8 O10 2.134523 1_555
Li8 O7 2.153925 1_655
Li8 O7 2.153925 1_555
Mn0 O0 1.968837 1_455
Mn0 O0 1.968837 1_555
Mn0 O14 1.991622 1_546
Mn0 O14 1.991622 1_446
Mn0 O11 2.146860 1_555
Mn0 O3 2.197614 1_546
Mn1 O6 1.895132 1_555
Mn1 O15 1.928752 1_555
Mn1 O15 1.928752 1_655
Mn1 O3 1.964316 1_655
Mn1 O3 1.964316 1_555
Mn1 O14 2.018088 1_555
Co0 O1 1.973305 1_555
Co0 O1 1.973305 1_455
Co0 O8 2.024918 1_555
Co0 O8 2.024918 1_455
Co0 O12 2.049250 1_555
Co0 O4 2.097277 1_555
Co1 O13 1.798549 1_555
Co1 O2 1.962314 1_445
Co1 O2 1.962314 1_545
Co1 O9 2.025097 1_445
Co1 O9 2.025097 1_545
Co1 O5 2.313828 1_545
Co2 O7 1.787439 1_555
Co2 O10 1.942430 1_455
Co2 O10 1.942430 1_555
Co2 O6 2.078831 1_455
Co2 O6 2.078831 1_555
Co2 O15 2.412236 1_555
Co3 O4 1.984781 1_555
Co3 O4 1.984781 1_655
Co3 O11 2.005756 1_655
Co3 O11 2.005756 1_555
Co3 O8 2.029308 1_555
Co3 O0 2.196895 1_555
Co4 O5 1.974731 1_655
Co4 O5 1.974731 1_555
Co4 O9 2.016770 1_555
Co4 O12 2.060156 1_655
Co4 O12 2.060156 1_555
Co4 O1 2.091662 1_555
