# generated using pymatgen
data_KGd(NbCl3)6
_symmetry_space_group_name_H-M   'P 1'
_cell_length_a   10.20803688
_cell_length_b   10.20803688
_cell_length_c   10.20803613
_cell_angle_alpha   55.09729435
_cell_angle_beta   55.09729435
_cell_angle_gamma   55.09729380
_symmetry_Int_Tables_number   1
_chemical_formula_structural   KGd(NbCl3)6
_chemical_formula_sum   'K1 Gd1 Nb6 Cl18'
_cell_volume   666.39671677
_cell_formula_units_Z   1
loop_
 _symmetry_equiv_pos_site_id
 _symmetry_equiv_pos_as_xyz
  1  'x, y, z'
loop_
 _atom_site_type_symbol
 _atom_site_label
 _atom_site_symmetry_multiplicity
 _atom_site_fract_x
 _atom_site_fract_y
 _atom_site_fract_z
 _atom_site_occupancy
  K  K0  1  0.72213100  0.72213100  0.72213100  1
  Gd  Gd0  1  0.99857700  0.99857700  0.99857700  1
  Nb  Nb0  1  0.35068000  0.58460100  0.70345200  1
  Nb  Nb1  1  0.58460100  0.70345200  0.35068000  1
  Nb  Nb2  1  0.70345200  0.35068000  0.58460100  1
  Nb  Nb3  1  0.64970100  0.41435000  0.29798100  1
  Nb  Nb4  1  0.41435000  0.29798100  0.64970100  1
  Nb  Nb5  1  0.29798100  0.64970100  0.41435000  1
  Cl  Cl0  1  0.84221000  0.31122000  0.02655300  1
  Cl  Cl1  1  0.31122000  0.02655300  0.84221000  1
  Cl  Cl2  1  0.02655300  0.84221000  0.31122000  1
  Cl  Cl3  1  0.15830900  0.69209400  0.97008100  1
  Cl  Cl4  1  0.69209400  0.97008100  0.15830900  1
  Cl  Cl5  1  0.97008100  0.15830900  0.69209400  1
  Cl  Cl6  1  0.56375100  0.42445300  0.83942000  1
  Cl  Cl7  1  0.42445300  0.83942000  0.56375100  1
  Cl  Cl8  1  0.83942000  0.56375100  0.42445300  1
  Cl  Cl9  1  0.43709300  0.57471100  0.16114000  1
  Cl  Cl10  1  0.57471100  0.16114000  0.43709300  1
  Cl  Cl11  1  0.16114000  0.43709300  0.57471100  1
  Cl  Cl12  1  0.22719300  0.35906100  0.91575700  1
  Cl  Cl13  1  0.35906100  0.91575700  0.22719300  1
  Cl  Cl14  1  0.91575700  0.22719300  0.35906100  1
  Cl  Cl15  1  0.77363300  0.64098200  0.08336600  1
  Cl  Cl16  1  0.64098200  0.08336600  0.77363300  1
  Cl  Cl17  1  0.08336600  0.77363200  0.64098200  1
loop_
_geom_bond_atom_site_label_1
_geom_bond_atom_site_label_2
_geom_bond_distance
_geom_bond_site_symmetry_2
Cl0 Nb3 2.717843 1_555
Cl0 Gd0 2.739812 1_544
Cl0 K0 3.508906 1_554
Cl1 Nb4 2.717843 1_555
Cl1 Gd0 2.739812 1_445
Cl1 K0 3.508906 1_545
Cl2 Nb5 2.717843 1_555
Cl2 Gd0 2.739812 1_454
Cl2 K0 3.508906 1_455
Cl3 Gd0 2.681839 1_455
Cl3 Nb0 2.702535 1_555
Cl4 Gd0 2.681839 1_554
Cl4 Nb1 2.702535 1_555
Cl5 Gd0 2.681839 1_545
Cl5 Nb2 2.702535 1_555
Cl6 Nb0 2.473621 1_555
Cl6 Nb2 2.476841 1_555
Cl6 K0 3.539008 1_555
Cl7 Nb1 2.473621 1_555
Cl7 Nb0 2.476841 1_555
Cl7 K0 3.539008 1_555
Cl8 Nb2 2.473621 1_555
Cl8 Nb1 2.476841 1_555
Cl8 K0 3.539008 1_555
Cl9 Nb5 2.470525 1_555
Cl9 Nb3 2.475503 1_555
Cl9 K0 3.631151 1_554
Cl10 Nb3 2.470525 1_555
Cl10 Nb4 2.475503 1_555
Cl10 K0 3.631151 1_545
Cl11 Nb4 2.470525 1_555
Cl11 Nb5 2.475503 1_555
Cl11 K0 3.631151 1_455
Cl12 Nb4 2.460035 1_555
Cl12 Nb0 2.464029 1_555
Cl13 Nb5 2.460035 1_555
Cl13 Nb1 2.464029 1_555
Cl14 Nb3 2.460035 1_555
Cl14 Nb2 2.464029 1_555
Cl15 Nb3 2.475834 1_555
Cl15 Nb1 2.476636 1_555
Cl15 K0 3.575582 1_554
Cl16 Nb4 2.475834 1_555
Cl16 Nb2 2.476636 1_555
Cl16 K0 3.575582 1_545
Cl17 Nb5 2.475829 1_555
Cl17 Nb0 2.476636 1_555
Cl17 K0 3.575576 1_455
