# generated using pymatgen
data_Li4Ga4P4O17F3
_symmetry_space_group_name_H-M   'P 1'
_cell_length_a   6.83389800
_cell_length_b   7.45447484
_cell_length_c   7.64523963
_cell_angle_alpha   116.41460738
_cell_angle_beta   90.82227371
_cell_angle_gamma   90.68762967
_symmetry_Int_Tables_number   1
_chemical_formula_structural   Li4Ga4P4O17F3
_chemical_formula_sum   'Li4 Ga4 P4 O17 F3'
_cell_volume   348.70138311
_cell_formula_units_Z   1
loop_
 _symmetry_equiv_pos_site_id
 _symmetry_equiv_pos_as_xyz
  1  'x, y, z'
loop_
 _atom_site_type_symbol
 _atom_site_label
 _atom_site_symmetry_multiplicity
 _atom_site_fract_x
 _atom_site_fract_y
 _atom_site_fract_z
 _atom_site_occupancy
  Li  Li0  1  0.34592400  0.93765800  0.72195200  1
  Li  Li1  1  0.84430700  0.43329800  0.21899200  1
  Li  Li2  1  0.15649100  0.56526300  0.78196700  1
  Li  Li3  1  0.65503400  0.06785000  0.28118200  1
  Ga  Ga0  1  0.00124200  0.99991400  0.00115600  1
  Ga  Ga1  1  0.49771800  0.50503600  0.49699500  1
  Ga  Ga2  1  0.25468600  0.74783500  0.25346700  1
  Ga  Ga3  1  0.74808700  0.25039000  0.74937800  1
  P  P0  1  0.39614200  0.28238100  0.04261500  1
  P  P1  1  0.89588800  0.78308800  0.54488500  1
  P  P2  1  0.10231200  0.21743700  0.45574600  1
  P  P3  1  0.60546600  0.71597000  0.95538400  1
  O  O0  1  0.26567300  0.10214800  0.02377500  1
  O  O1  1  0.76703400  0.60207200  0.52515500  1
  O  O2  1  0.23363800  0.39723000  0.47649200  1
  O  O3  1  0.73553900  0.89630900  0.97435900  1
  O  O4  1  0.54932800  0.33482400  0.21405900  1
  O  O5  1  0.04827100  0.83935600  0.71762100  1
  O  O6  1  0.94998500  0.16277800  0.28272000  1
  O  O7  1  0.45153200  0.65978800  0.78544300  1
  O  O8  1  0.27413000  0.46236800  0.06586600  1
  O  O9  1  0.77269200  0.96381200  0.56948200  1
  O  O10  1  0.22404600  0.03652500  0.42864700  1
  O  O11  1  0.72705500  0.53518200  0.93139300  1
  O  O12  1  0.50515100  0.19272300  0.84526800  1
  O  O13  1  0.00411100  0.69426700  0.34702300  1
  O  O14  1  0.99340400  0.30588400  0.65312600  1
  O  O15  1  0.49870100  0.80760700  0.15488700  1
  O  O16  1  0.39537500  0.72787600  0.46390500  1
  F  F0  1  0.89988300  0.22858200  0.96354900  1
  F  F1  1  0.10163900  0.77127900  0.03781000  1
  F  F2  1  0.59951500  0.27327100  0.53569700  1
loop_
_geom_bond_atom_site_label_1
_geom_bond_atom_site_label_2
_geom_bond_distance
_geom_bond_site_symmetry_2
Li0 O16 1.933564 1_555
Li0 O12 2.003523 1_565
Li0 O5 2.148596 1_555
Li0 O0 2.159616 1_566
Li0 O7 2.442844 1_555
Li1 O13 2.039458 1_655
Li1 O4 2.131110 1_555
Li1 O1 2.184457 1_555
Li1 O6 2.392609 1_555
Li2 O14 2.042839 1_455
Li2 O7 2.123747 1_555
Li2 O2 2.179360 1_555
Li2 O5 2.425662 1_555
Li3 O15 2.022684 1_545
Li3 O6 2.126376 1_555
Li3 O3 2.196690 1_544
Li3 O4 2.382943 1_555
Ga0 O0 1.927955 1_565
Ga0 O3 1.936600 1_454
Ga0 O6 1.984202 1_465
Ga0 O5 1.988860 1_554
Ga1 O16 1.925956 1_555
Ga1 O2 1.942246 1_555
Ga1 O1 1.942952 1_555
Ga1 O4 2.001016 1_555
Ga1 O7 2.014653 1_555
Ga2 O16 1.925341 1_555
Ga2 O15 1.965799 1_555
Ga2 O13 1.968818 1_555
Ga2 O8 1.974810 1_555
Ga2 O10 1.980728 1_565
Ga3 O12 1.943371 1_555
Ga3 O14 1.952639 1_555
Ga3 O11 1.961811 1_555
Ga3 O9 1.970965 1_545
O0 P0 1.554415 1_555
O1 P1 1.550987 1_555
O2 P2 1.550748 1_555
O3 P3 1.553232 1_555
O4 P0 1.568963 1_555
O5 P1 1.568947 1_455
O6 P2 1.571713 1_655
O7 P3 1.560811 1_555
O8 P0 1.531645 1_555
O9 P1 1.538015 1_555
O10 P2 1.528734 1_555
O11 P3 1.533507 1_555
O12 P0 1.557257 1_556
O13 P1 1.557684 1_455
O14 P2 1.557103 1_655
O15 P3 1.562771 1_554
F0 Li1 1.915873 1_556
F0 Ga0 1.981616 1_646
F0 Ga3 1.993918 1_555
F1 Li2 1.920184 1_554
F1 Ga0 1.975241 1_555
F1 Ga2 2.013479 1_555
F2 Li3 1.912890 1_555
F2 Ga3 1.983238 1_555
F2 Ga1 2.008525 1_555
