# generated using pymatgen
data_Ba2ZnGe2O7
_symmetry_space_group_name_H-M   'P 1'
_cell_length_a   8.48295500
_cell_length_b   8.48295500
_cell_length_c   5.64481800
_cell_angle_alpha   90.00000000
_cell_angle_beta   90.00000000
_cell_angle_gamma   90.00000000
_symmetry_Int_Tables_number   1
_chemical_formula_structural   Ba2ZnGe2O7
_chemical_formula_sum   'Ba4 Zn2 Ge4 O14'
_cell_volume   406.20406981
_cell_formula_units_Z   2
loop_
 _symmetry_equiv_pos_site_id
 _symmetry_equiv_pos_as_xyz
  1  'x, y, z'
loop_
 _atom_site_type_symbol
 _atom_site_label
 _atom_site_symmetry_multiplicity
 _atom_site_fract_x
 _atom_site_fract_y
 _atom_site_fract_z
 _atom_site_occupancy
  Ba  Ba0  1  0.33479900  0.83479900  0.50739200  1
  Ba  Ba1  1  0.16520100  0.33479900  0.49260800  1
  Ba  Ba2  1  0.66520100  0.16520100  0.50739200  1
  Ba  Ba3  1  0.83479900  0.66520100  0.49260800  1
  Zn  Zn0  1  0.50000000  0.50000000  0.00000000  1
  Zn  Zn1  1  0.00000000  0.00000000  0.00000000  1
  Ge  Ge0  1  0.14122700  0.64122700  0.96115400  1
  Ge  Ge1  1  0.35877300  0.14122700  0.03884600  1
  Ge  Ge2  1  0.85877300  0.35877300  0.96115400  1
  Ge  Ge3  1  0.64122700  0.85877300  0.03884600  1
  O  O0  1  0.50000000  0.00000000  0.15813500  1
  O  O1  1  0.00000000  0.50000000  0.84186500  1
  O  O2  1  0.13897100  0.63897100  0.26951700  1
  O  O3  1  0.36102900  0.13897100  0.73048300  1
  O  O4  1  0.86102900  0.36102900  0.26951700  1
  O  O5  1  0.63897100  0.86102900  0.73048300  1
  O  O6  1  0.31608600  0.57957100  0.81279900  1
  O  O7  1  0.18391400  0.07957100  0.18720100  1
  O  O8  1  0.68391400  0.42042900  0.81279900  1
  O  O9  1  0.81608600  0.92042900  0.18720100  1
  O  O10  1  0.57957100  0.68391400  0.18720100  1
  O  O11  1  0.92042900  0.18391400  0.81279900  1
  O  O12  1  0.42042900  0.31608600  0.18720100  1
  O  O13  1  0.07957100  0.81608600  0.81279900  1
loop_
_geom_bond_atom_site_label_1
_geom_bond_atom_site_label_2
_geom_bond_distance
_geom_bond_site_symmetry_2
Ba0 O2 2.705953 1_555
Ba0 O13 2.772159 1_555
Ba0 O6 2.772159 1_555
Ba0 O0 2.795458 1_565
Ba0 O3 2.879791 1_565
Ba0 O5 2.879791 1_555
Ba0 O7 3.035858 1_565
Ba0 O10 3.035858 1_555
Ba1 O3 2.705953 1_555
Ba1 O7 2.772159 1_555
Ba1 O12 2.772159 1_555
Ba1 O1 2.795458 1_555
Ba1 O4 2.879791 1_455
Ba1 O2 2.879791 1_555
Ba1 O11 3.035858 1_455
Ba1 O6 3.035858 1_555
Ba2 O4 2.705953 1_555
Ba2 O11 2.772159 1_555
Ba2 O8 2.772159 1_555
Ba2 O0 2.795458 1_555
Ba2 O3 2.879791 1_555
Ba2 O5 2.879791 1_545
Ba2 O12 3.035858 1_555
Ba2 O9 3.035858 1_545
Ba3 O5 2.705953 1_555
Ba3 O9 2.772159 1_555
Ba3 O10 2.772159 1_555
Ba3 O1 2.795458 1_655
Ba3 O4 2.879791 1_555
Ba3 O2 2.879791 1_655
Ba3 O8 3.035858 1_555
Ba3 O13 3.035858 1_655
Ge0 O2 1.740863 1_556
Ge0 O13 1.781880 1_555
Ge0 O6 1.781880 1_555
Ge0 O1 1.823166 1_555
Ge1 O3 1.740863 1_554
Ge1 O12 1.781880 1_555
Ge1 O7 1.781880 1_555
Ge1 O0 1.823166 1_555
Ge2 O4 1.740863 1_556
Ge2 O11 1.781880 1_555
Ge2 O8 1.781880 1_555
Ge2 O1 1.823166 1_655
Ge3 O5 1.740863 1_554
Ge3 O9 1.781880 1_555
Ge3 O10 1.781880 1_555
Ge3 O0 1.823166 1_565
O6 Zn0 2.001571 1_556
O7 Zn1 2.001571 1_555
O8 Zn0 2.001571 1_556
O9 Zn1 2.001571 1_665
O10 Zn0 2.001571 1_555
O11 Zn1 2.001571 1_656
O12 Zn0 2.001571 1_555
O13 Zn1 2.001571 1_566
