# generated using pymatgen
data_CsHgCl3
_symmetry_space_group_name_H-M   'P 1'
_cell_length_a   15.70788200
_cell_length_b   9.55200900
_cell_length_c   10.96885994
_cell_angle_alpha   55.08005614
_cell_angle_beta   90.00000000
_cell_angle_gamma   90.00000000
_symmetry_Int_Tables_number   1
_chemical_formula_structural   CsHgCl3
_chemical_formula_sum   'Cs8 Hg8 Cl24'
_cell_volume   1349.46811887
_cell_formula_units_Z   8
loop_
 _symmetry_equiv_pos_site_id
 _symmetry_equiv_pos_as_xyz
  1  'x, y, z'
loop_
 _atom_site_type_symbol
 _atom_site_label
 _atom_site_symmetry_multiplicity
 _atom_site_fract_x
 _atom_site_fract_y
 _atom_site_fract_z
 _atom_site_occupancy
  Cs  Cs0  1  0.00000000  0.50000000  0.00000000  1
  Cs  Cs1  1  0.50000000  0.50000000  0.50000000  1
  Cs  Cs2  1  0.75224600  0.00432600  0.25264500  1
  Cs  Cs3  1  0.74775400  0.00432600  0.75264500  1
  Cs  Cs4  1  0.24775400  0.99567400  0.74735500  1
  Cs  Cs5  1  0.25224600  0.99567400  0.24735500  1
  Cs  Cs6  1  0.50000000  0.50000000  0.00000000  1
  Cs  Cs7  1  0.00000000  0.50000000  0.50000000  1
  Hg  Hg0  1  0.00000000  0.00000000  0.00000000  1
  Hg  Hg1  1  0.50000000  0.00000000  0.50000000  1
  Hg  Hg2  1  0.00000000  0.00000000  0.50000000  1
  Hg  Hg3  1  0.50000000  0.00000000  0.00000000  1
  Hg  Hg4  1  0.74341500  0.49292100  0.25698200  1
  Hg  Hg5  1  0.75658500  0.49292100  0.75698200  1
  Hg  Hg6  1  0.25658500  0.50707900  0.74301800  1
  Hg  Hg7  1  0.24341500  0.50707900  0.24301800  1
  Cl  Cl0  1  0.00153400  0.99110700  0.28713700  1
  Cl  Cl1  1  0.49846600  0.99110700  0.78713700  1
  Cl  Cl2  1  0.99846600  0.00889300  0.71286300  1
  Cl  Cl3  1  0.50153400  0.00889300  0.21286300  1
  Cl  Cl4  1  0.11028300  0.22506100  0.88525700  1
  Cl  Cl5  1  0.38971700  0.22506100  0.38525700  1
  Cl  Cl6  1  0.88971700  0.77493900  0.11474300  1
  Cl  Cl7  1  0.61028300  0.77493900  0.61474300  1
  Cl  Cl8  1  0.86676900  0.73218800  0.63722100  1
  Cl  Cl9  1  0.63323100  0.73218800  0.13722100  1
  Cl  Cl10  1  0.13323100  0.26781200  0.36277900  1
  Cl  Cl11  1  0.36676900  0.26781200  0.86277900  1
  Cl  Cl12  1  0.86545400  0.27864700  0.36131400  1
  Cl  Cl13  1  0.63454600  0.27864700  0.86131400  1
  Cl  Cl14  1  0.13454600  0.72135300  0.63868600  1
  Cl  Cl15  1  0.36545400  0.72135300  0.13868600  1
  Cl  Cl16  1  0.12458000  0.76012100  0.11265000  1
  Cl  Cl17  1  0.37542000  0.76012100  0.61265000  1
  Cl  Cl18  1  0.87542000  0.23987900  0.88735000  1
  Cl  Cl19  1  0.62458000  0.23987900  0.38735000  1
  Cl  Cl20  1  0.25058300  0.47935200  0.50682700  1
  Cl  Cl21  1  0.24941700  0.47935200  0.00682700  1
  Cl  Cl22  1  0.74941700  0.52064800  0.49317300  1
  Cl  Cl23  1  0.75058300  0.52064800  0.99317300  1
loop_
_geom_bond_atom_site_label_1
_geom_bond_atom_site_label_2
_geom_bond_distance
_geom_bond_site_symmetry_2
Cl0 Hg2 2.384629 1_565
Cl0 Cs7 3.862452 1_555
Cl0 Cs2 3.929093 1_465
Cl0 Cs5 3.959745 1_555
Cl0 Cs0 4.002683 1_565
Cl1 Hg3 2.384629 1_566
Cl1 Cs6 3.862452 1_556
Cl1 Cs3 3.929093 1_565
Cl1 Cs4 3.959745 1_555
Cl1 Cs1 4.002683 1_565
Cl2 Hg2 2.384629 1_655
Cl2 Cs7 3.862452 1_655
Cl2 Cs4 3.929093 1_645
Cl2 Cs3 3.959745 1_555
Cl2 Cs0 4.002683 1_646
Cl3 Hg3 2.384629 1_555
Cl3 Cs6 3.862452 1_555
Cl3 Cs5 3.929093 1_545
Cl3 Cs2 3.959745 1_555
Cl3 Cs1 4.002683 1_545
Cl4 Hg0 2.471614 1_556
Cl4 Cs7 3.879425 1_555
Cl4 Cs0 3.907198 1_556
Cl4 Cs4 3.942887 1_545
Cl4 Cs5 3.947842 1_546
Cl5 Hg1 2.471614 1_555
Cl5 Cs6 3.879425 1_555
Cl5 Cs1 3.907198 1_555
Cl5 Cs5 3.942887 1_545
Cl5 Cs4 3.947842 1_545
Cl6 Hg0 2.471614 1_665
Cl6 Cs7 3.879425 1_655
Cl6 Cs0 3.907198 1_655
Cl6 Cs2 3.942887 1_565
Cl6 Cs3 3.947842 1_564
Cl7 Hg1 2.471614 1_565
Cl7 Cs6 3.879425 1_556
Cl7 Cs1 3.907198 1_555
Cl7 Cs3 3.942887 1_565
Cl7 Cs2 3.947842 1_565
Cl8 Hg5 2.550955 1_555
Cl8 Hg2 2.963295 1_665
Cl8 Cs0 3.876761 1_656
Cl8 Cs2 3.903063 1_565
Cl8 Cs7 3.922492 1_655
Cl8 Cs3 3.952587 1_565
Cl9 Hg4 2.550955 1_555
Cl9 Hg3 2.963295 1_565
Cl9 Cs1 3.876761 1_555
Cl9 Cs3 3.903063 1_564
Cl9 Cs6 3.922492 1_555
Cl9 Cs2 3.952587 1_565
Cl10 Hg7 2.550955 1_555
Cl10 Hg2 2.963295 1_555
Cl10 Cs0 3.876761 1_555
Cl10 Cs4 3.903063 1_545
Cl10 Cs7 3.922492 1_555
Cl10 Cs5 3.952587 1_545
Cl11 Hg6 2.550955 1_555
Cl11 Hg3 2.963295 1_556
Cl11 Cs1 3.876761 1_555
Cl11 Cs5 3.903063 1_546
Cl11 Cs6 3.922492 1_556
Cl11 Cs4 3.952587 1_545
Cl12 Hg4 2.547942 1_555
Cl12 Hg2 3.038018 1_655
Cl12 Cs7 3.864407 1_655
Cl12 Cs2 3.876193 1_555
Cl12 Cs0 3.879505 1_655
Cl12 Cs3 3.978996 1_555
Cl13 Hg5 2.547942 1_555
Cl13 Hg3 3.038018 1_556
Cl13 Cs6 3.864407 1_556
Cl13 Cs3 3.876193 1_555
Cl13 Cs1 3.879505 1_555
Cl13 Cs2 3.978996 1_556
Cl14 Hg6 2.547942 1_555
Cl14 Hg2 3.038018 1_565
Cl14 Cs7 3.864407 1_555
Cl14 Cs4 3.876193 1_555
Cl14 Cs0 3.879505 1_556
Cl14 Cs5 3.978996 1_555
Cl15 Hg7 2.547942 1_555
Cl15 Hg3 3.038018 1_565
Cl15 Cs6 3.864407 1_555
Cl15 Cs5 3.876193 1_555
Cl15 Cs1 3.879505 1_555
Cl15 Cs4 3.978996 1_554
Cl16 Hg0 2.713852 1_565
Cl16 Hg7 2.722930 1_555
Cl16 Cs4 3.813070 1_554
Cl16 Cs0 3.878759 1_555
Cl16 Cs5 3.882435 1_555
Cl16 Cs7 3.996132 1_555
Cl17 Hg1 2.713852 1_565
Cl17 Hg6 2.722930 1_555
Cl17 Cs5 3.813070 1_555
Cl17 Cs1 3.878759 1_555
Cl17 Cs4 3.882435 1_555
Cl17 Cs6 3.996132 1_556
Cl18 Hg0 2.713852 1_656
Cl18 Hg5 2.722930 1_555
Cl18 Cs2 3.813070 1_556
Cl18 Cs0 3.878759 1_656
Cl18 Cs3 3.882435 1_555
Cl18 Cs7 3.996132 1_655
Cl19 Hg1 2.713852 1_555
Cl19 Hg4 2.722930 1_555
Cl19 Cs3 3.813070 1_555
Cl19 Cs1 3.878759 1_555
Cl19 Cs2 3.882435 1_555
Cl19 Cs6 3.996132 1_555
Cl20 Hg6 2.752554 1_555
Cl20 Hg7 2.752966 1_555
Cl20 Cs4 3.788527 1_545
Cl20 Cs1 3.921333 1_555
Cl20 Cs7 3.939632 1_555
Cl20 Cs5 4.044084 1_555
Cl21 Hg7 2.752554 1_555
Cl21 Hg6 2.752966 1_554
Cl21 Cs5 3.788527 1_545
Cl21 Cs0 3.921333 1_555
Cl21 Cs6 3.939632 1_555
Cl21 Cs4 4.044084 1_554
Cl22 Hg4 2.752554 1_555
Cl22 Hg5 2.752966 1_555
Cl22 Cs2 3.788527 1_565
Cl22 Cs1 3.921333 1_555
Cl22 Cs7 3.939632 1_655
Cl22 Cs3 4.044084 1_555
Cl23 Hg5 2.752554 1_555
Cl23 Hg4 2.752966 1_556
Cl23 Cs3 3.788527 1_565
Cl23 Cs0 3.921333 1_656
Cl23 Cs6 3.939632 1_556
Cl23 Cs2 4.044084 1_556
