# generated using pymatgen
data_Li3Mn5OF11
_symmetry_space_group_name_H-M   'P 1'
_cell_length_a   5.41303000
_cell_length_b   5.72349558
_cell_length_c   9.42926501
_cell_angle_alpha   106.29487873
_cell_angle_beta   89.31766737
_cell_angle_gamma   117.85595479
_symmetry_Int_Tables_number   1
_chemical_formula_structural   Li3Mn5OF11
_chemical_formula_sum   'Li3 Mn5 O1 F11'
_cell_volume   245.44891593
_cell_formula_units_Z   1
loop_
 _symmetry_equiv_pos_site_id
 _symmetry_equiv_pos_as_xyz
  1  'x, y, z'
loop_
 _atom_site_type_symbol
 _atom_site_label
 _atom_site_symmetry_multiplicity
 _atom_site_fract_x
 _atom_site_fract_y
 _atom_site_fract_z
 _atom_site_occupancy
  Li  Li0  1  0.28876200  0.14949000  0.42417700  1
  Li  Li1  1  0.71217600  0.87198500  0.55591900  1
  Li  Li2  1  0.23271700  0.37905600  0.07509900  1
  Mn  Mn0  1  0.76180900  0.63972000  0.93084700  1
  Mn  Mn1  1  0.46447300  0.08295600  0.82414700  1
  Mn  Mn2  1  0.97566700  0.62187200  0.32965800  1
  Mn  Mn3  1  0.03185400  0.38849400  0.67542100  1
  Mn  Mn4  1  0.54183500  0.88106800  0.17041000  1
  O  O0  1  0.51834800  0.77177700  0.98009100  1
  F  F0  1  0.53263800  0.46779700  0.28854300  1
  F  F1  1  0.02089400  0.97924900  0.77282500  1
  F  F2  1  0.57742500  0.12829600  0.61819900  1
  F  F3  1  0.92215100  0.38424400  0.87409900  1
  F  F4  1  0.97487200  0.72940100  0.52991100  1
  F  F5  1  0.45295100  0.21949600  0.02413400  1
  F  F6  1  0.03505700  0.27894700  0.47600100  1
  F  F7  1  0.05785000  0.60526400  0.13097700  1
  F  F8  1  0.43240200  0.86925000  0.37231200  1
  F  F9  1  0.47617700  0.52074400  0.71769500  1
  F  F10  1  0.98994200  0.03089400  0.22953600  1
loop_
_geom_bond_atom_site_label_1
_geom_bond_atom_site_label_2
_geom_bond_distance
_geom_bond_site_symmetry_2
Mn0 O0 1.800821 1_555
Mn4 O0 1.711463 1_554
F0 Mn2 2.129086 1_555
F0 Li2 2.382838 1_555
F0 Li0 2.391069 1_555
F1 Mn1 2.210529 1_565
F1 Li1 2.402215 1_455
F1 Mn0 2.644179 1_455
F1 Mn3 2.722050 1_565
F2 Li1 1.880238 1_545
F2 Mn1 2.078108 1_555
F2 Mn3 2.171892 1_655
F2 Li0 2.484555 1_555
F3 Mn3 1.961729 1_655
F3 Mn0 1.978274 1_555
F3 Mn1 2.216487 1_555
F4 Mn2 1.815045 1_555
F4 Li1 1.926651 1_555
F5 Li2 1.801001 1_555
F5 Mn1 1.840209 1_554
F5 Mn0 2.597710 1_554
F6 Mn3 1.810261 1_555
F6 Li0 1.845405 1_555
F7 Li2 1.897471 1_555
F7 Mn2 1.906924 1_455
F7 Mn4 2.307107 1_555
F7 Mn0 2.596936 1_454
F8 Mn4 1.996957 1_555
F8 Li0 2.032874 1_565
F8 Mn2 2.170654 1_455
F8 Li1 2.305676 1_555
F9 Mn3 2.160728 1_555
F9 Mn0 2.283833 1_555
F10 Mn4 2.179432 1_545
F10 Li0 2.188861 1_655
