# generated using pymatgen
data_Ho3Al2
_symmetry_space_group_name_H-M   'P 1'
_cell_length_a   8.15342056
_cell_length_b   8.15342056
_cell_length_c   7.59040528
_cell_angle_alpha   90.00000000
_cell_angle_beta   90.00000000
_cell_angle_gamma   90.00000000
_symmetry_Int_Tables_number   1
_chemical_formula_structural   Ho3Al2
_chemical_formula_sum   'Ho12 Al8'
_cell_volume   504.59698754
_cell_formula_units_Z   4
loop_
 _symmetry_equiv_pos_site_id
 _symmetry_equiv_pos_as_xyz
  1  'x, y, z'
loop_
 _atom_site_type_symbol
 _atom_site_label
 _atom_site_symmetry_multiplicity
 _atom_site_fract_x
 _atom_site_fract_y
 _atom_site_fract_z
 _atom_site_occupancy
  Ho  Ho0  1  -0.00000000  0.50000000  0.25000000  1
  Ho  Ho1  1  0.50000000  -0.00000000  0.75000000  1
  Ho  Ho2  1  0.50000000  -0.00000000  0.25000000  1
  Ho  Ho3  1  -0.00000000  0.50000000  0.75000000  1
  Ho  Ho4  1  0.15114971  0.84885029  0.50000000  1
  Ho  Ho5  1  0.84885029  0.15114971  0.50000000  1
  Ho  Ho6  1  0.34885129  0.34885129  0.00000000  1
  Ho  Ho7  1  0.65114871  0.65114871  0.00000000  1
  Ho  Ho8  1  0.20162060  0.79837940  0.00000000  1
  Ho  Ho9  1  0.79837940  0.20162060  0.00000000  1
  Ho  Ho10  1  0.29837840  0.29837840  0.50000000  1
  Ho  Ho11  1  0.70162160  0.70162160  0.50000000  1
  Al  Al0  1  0.38149203  0.61850797  0.30357657  1
  Al  Al1  1  0.61850797  0.38149203  0.30357657  1
  Al  Al2  1  0.11850797  0.11850797  0.80357657  1
  Al  Al3  1  0.88149203  0.88149203  0.80357657  1
  Al  Al4  1  0.38149203  0.61850797  0.69642343  1
  Al  Al5  1  0.61850797  0.38149203  0.69642343  1
  Al  Al6  1  0.11850797  0.11850797  0.19642343  1
  Al  Al7  1  0.88149203  0.88149203  0.19642343  1
loop_
_geom_bond_atom_site_label_1
_geom_bond_atom_site_label_2
_geom_bond_distance
_geom_bond_site_symmetry_2
Al0 Al1 2.732954 1_555
Al0 Al4 2.981867 1_555
Al0 Ho4 3.045855 1_555
Al0 Ho11 3.081395 1_555
Al0 Ho10 3.081395 1_555
Al0 Ho8 3.100209 1_555
Al0 Ho7 3.196003 1_555
Al0 Ho6 3.196003 1_555
Al0 Ho2 3.282377 1_565
Al0 Ho0 3.282377 1_555
Al1 Al5 2.981867 1_555
Al1 Ho5 3.045855 1_555
Al1 Ho11 3.081395 1_555
Al1 Ho10 3.081395 1_555
Al1 Ho9 3.100209 1_555
Al1 Ho7 3.196003 1_555
Al1 Ho6 3.196003 1_555
Al1 Ho2 3.282377 1_555
Al1 Ho0 3.282377 1_655
Al2 Al3 2.732954 1_445
Al2 Al6 2.981867 1_556
Al2 Ho6 3.045865 1_556
Al2 Ho9 3.081386 1_456
Al2 Ho8 3.081386 1_546
Al2 Ho10 3.100201 1_555
Al2 Ho4 3.196009 1_545
Al2 Ho5 3.196009 1_455
Al2 Ho3 3.282377 1_555
Al2 Ho1 3.282377 1_555
Al3 Al7 2.981867 1_556
Al3 Ho7 3.045865 1_556
Al3 Ho9 3.081386 1_566
Al3 Ho8 3.081386 1_656
Al3 Ho11 3.100201 1_555
Al3 Ho5 3.196009 1_565
Al3 Ho4 3.196009 1_655
Al3 Ho1 3.282377 1_565
Al3 Ho3 3.282377 1_655
Al4 Al5 2.732954 1_555
Al4 Ho4 3.045855 1_555
Al4 Ho11 3.081395 1_555
Al4 Ho10 3.081395 1_555
Al4 Ho8 3.100209 1_556
Al4 Ho7 3.196003 1_556
Al4 Ho6 3.196003 1_556
Al4 Ho1 3.282377 1_565
Al4 Ho3 3.282377 1_555
Al5 Ho5 3.045855 1_555
Al5 Ho11 3.081395 1_555
Al5 Ho10 3.081395 1_555
Al5 Ho9 3.100209 1_556
Al5 Ho7 3.196003 1_556
Al5 Ho6 3.196003 1_556
Al5 Ho1 3.282377 1_555
Al5 Ho3 3.282377 1_655
Al6 Al7 2.732954 1_445
Al6 Ho6 3.045865 1_555
Al6 Ho9 3.081386 1_455
Al6 Ho8 3.081386 1_545
Al6 Ho10 3.100201 1_555
Al6 Ho4 3.196009 1_545
Al6 Ho5 3.196009 1_455
Al6 Ho0 3.282377 1_555
Al6 Ho2 3.282377 1_555
Al7 Ho7 3.045865 1_555
Al7 Ho8 3.081386 1_655
Al7 Ho9 3.081386 1_565
Al7 Ho11 3.100201 1_555
Al7 Ho4 3.196009 1_655
Al7 Ho5 3.196009 1_565
Al7 Ho0 3.282377 1_655
Al7 Ho2 3.282377 1_565
