# generated using pymatgen
data_Sc2TlC
_symmetry_space_group_name_H-M   'P 1'
_cell_length_a   6.74186664
_cell_length_b   6.74186732
_cell_length_c   30.44629698
_cell_angle_alpha   90.00000000
_cell_angle_beta   90.00000000
_cell_angle_gamma   119.99999668
_symmetry_Int_Tables_number   1
_chemical_formula_structural   Sc2TlC
_chemical_formula_sum   'Sc32 Tl16 C16'
_cell_volume   1198.46535524
_cell_formula_units_Z   16
loop_
 _symmetry_equiv_pos_site_id
 _symmetry_equiv_pos_as_xyz
  1  'x, y, z'
loop_
 _atom_site_type_symbol
 _atom_site_label
 _atom_site_symmetry_multiplicity
 _atom_site_fract_x
 _atom_site_fract_y
 _atom_site_fract_z
 _atom_site_occupancy
  Sc  Sc0_0  1  0.33333350  0.16666650  0.29015736  1
  Sc  Sc0_1  1  0.33333350  0.16666650  0.79015736  1
  Sc  Sc0_2  1  0.33333350  0.66666650  0.29015736  1
  Sc  Sc0_3  1  0.33333350  0.66666650  0.79015736  1
  Sc  Sc0_4  1  0.83333350  0.16666650  0.29015736  1
  Sc  Sc0_5  1  0.83333350  0.16666650  0.79015736  1
  Sc  Sc0_6  1  0.83333350  0.66666650  0.29015736  1
  Sc  Sc0_7  1  0.83333350  0.66666650  0.79015736  1
  Sc  Sc1_0  1  0.16666650  0.33333350  0.20984264  1
  Sc  Sc1_1  1  0.16666650  0.33333350  0.70984264  1
  Sc  Sc1_2  1  0.16666650  0.83333350  0.20984264  1
  Sc  Sc1_3  1  0.16666650  0.83333350  0.70984264  1
  Sc  Sc1_4  1  0.66666650  0.33333350  0.20984264  1
  Sc  Sc1_5  1  0.66666650  0.33333350  0.70984264  1
  Sc  Sc1_6  1  0.66666650  0.83333350  0.20984264  1
  Sc  Sc1_7  1  0.66666650  0.83333350  0.70984264  1
  Sc  Sc2_0  1  0.16666650  0.33333350  0.04015736  1
  Sc  Sc2_1  1  0.16666650  0.33333350  0.54015736  1
  Sc  Sc2_2  1  0.16666650  0.83333350  0.04015736  1
  Sc  Sc2_3  1  0.16666650  0.83333350  0.54015736  1
  Sc  Sc2_4  1  0.66666650  0.33333350  0.04015736  1
  Sc  Sc2_5  1  0.66666650  0.33333350  0.54015736  1
  Sc  Sc2_6  1  0.66666650  0.83333350  0.04015736  1
  Sc  Sc2_7  1  0.66666650  0.83333350  0.54015736  1
  Sc  Sc3_0  1  0.33333350  0.16666650  0.45984264  1
  Sc  Sc3_1  1  0.33333350  0.16666650  0.95984264  1
  Sc  Sc3_2  1  0.33333350  0.66666650  0.45984264  1
  Sc  Sc3_3  1  0.33333350  0.66666650  0.95984264  1
  Sc  Sc3_4  1  0.83333350  0.16666650  0.45984264  1
  Sc  Sc3_5  1  0.83333350  0.16666650  0.95984264  1
  Sc  Sc3_6  1  0.83333350  0.66666650  0.45984264  1
  Sc  Sc3_7  1  0.83333350  0.66666650  0.95984264  1
  Tl  Tl0_0  1  0.33333350  0.16666650  0.12500000  1
  Tl  Tl0_1  1  0.33333350  0.16666650  0.62500000  1
  Tl  Tl0_2  1  0.33333350  0.66666650  0.12500000  1
  Tl  Tl0_3  1  0.33333350  0.66666650  0.62500000  1
  Tl  Tl0_4  1  0.83333350  0.16666650  0.12500000  1
  Tl  Tl0_5  1  0.83333350  0.16666650  0.62500000  1
  Tl  Tl0_6  1  0.83333350  0.66666650  0.12500000  1
  Tl  Tl0_7  1  0.83333350  0.66666650  0.62500000  1
  Tl  Tl1_0  1  0.16666650  0.33333350  0.37500000  1
  Tl  Tl1_1  1  0.16666650  0.33333350  0.87500000  1
  Tl  Tl1_2  1  0.16666650  0.83333350  0.37500000  1
  Tl  Tl1_3  1  0.16666650  0.83333350  0.87500000  1
  Tl  Tl1_4  1  0.66666650  0.33333350  0.37500000  1
  Tl  Tl1_5  1  0.66666650  0.33333350  0.87500000  1
  Tl  Tl1_6  1  0.66666650  0.83333350  0.37500000  1
  Tl  Tl1_7  1  0.66666650  0.83333350  0.87500000  1
  C  C0_0  1  0.00000000  0.00000000  0.25000000  1
  C  C0_1  1  0.00000000  0.00000000  0.75000000  1
  C  C0_2  1  0.00000000  0.50000000  0.25000000  1
  C  C0_3  1  0.00000000  0.50000000  0.75000000  1
  C  C0_4  1  0.50000000  0.00000000  0.25000000  1
  C  C0_5  1  0.50000000  0.00000000  0.75000000  1
  C  C0_6  1  0.50000000  0.50000000  0.25000000  1
  C  C0_7  1  0.50000000  0.50000000  0.75000000  1
  C  C1_0  1  0.00000000  0.00000000  0.00000000  1
  C  C1_1  1  0.00000000  0.00000000  0.50000000  1
  C  C1_2  1  0.00000000  0.50000000  0.00000000  1
  C  C1_3  1  0.00000000  0.50000000  0.50000000  1
  C  C1_4  1  0.50000000  0.00000000  0.00000000  1
  C  C1_5  1  0.50000000  0.00000000  0.50000000  1
  C  C1_6  1  0.50000000  0.50000000  0.00000000  1
  C  C1_7  1  0.50000000  0.50000000  0.50000000  1
loop_
_geom_bond_atom_site_label_1
_geom_bond_atom_site_label_2
_geom_bond_distance
_geom_bond_site_symmetry_2
Sc0_0 Tl1_4 3.234248 1_555
Sc0_0 Tl1_2 3.234248 1_545
Sc0_0 Tl1_0 3.234251 1_555
Sc0_1 Tl1_5 3.234248 1_555
Sc0_1 Tl1_3 3.234248 1_545
Sc0_1 Tl1_1 3.234251 1_555
Sc0_2 Tl1_6 3.234248 1_555
Sc0_2 Tl1_0 3.234248 1_555
Sc0_2 Tl1_2 3.234251 1_555
Sc0_3 Tl1_7 3.234248 1_555
Sc0_3 Tl1_1 3.234248 1_555
Sc0_3 Tl1_3 3.234251 1_555
Sc0_4 Tl1_0 3.234248 1_655
Sc0_4 Tl1_6 3.234248 1_545
Sc0_4 Tl1_4 3.234251 1_555
Sc0_5 Tl1_1 3.234248 1_655
Sc0_5 Tl1_7 3.234248 1_545
Sc0_5 Tl1_5 3.234251 1_555
Sc0_6 Tl1_2 3.234248 1_655
Sc0_6 Tl1_4 3.234248 1_555
Sc0_6 Tl1_6 3.234251 1_555
Sc0_7 Tl1_3 3.234248 1_655
Sc0_7 Tl1_5 3.234248 1_555
Sc0_7 Tl1_7 3.234251 1_555
Sc1_0 Tl0_4 3.234248 1_455
Sc1_0 Tl0_2 3.234248 1_555
Sc1_0 Tl0_0 3.234251 1_555
Sc1_1 Tl0_5 3.234248 1_455
Sc1_1 Tl0_3 3.234248 1_555
Sc1_1 Tl0_1 3.234251 1_555
Sc1_2 Tl0_6 3.234248 1_455
Sc1_2 Tl0_0 3.234248 1_565
Sc1_2 Tl0_2 3.234251 1_555
Sc1_3 Tl0_7 3.234248 1_455
Sc1_3 Tl0_1 3.234248 1_565
Sc1_3 Tl0_3 3.234251 1_555
Sc1_4 Tl0_0 3.234248 1_555
Sc1_4 Tl0_6 3.234248 1_555
Sc1_4 Tl0_4 3.234251 1_555
Sc1_5 Tl0_1 3.234248 1_555
Sc1_5 Tl0_7 3.234248 1_555
Sc1_5 Tl0_5 3.234251 1_555
Sc1_6 Tl0_2 3.234248 1_555
Sc1_6 Tl0_4 3.234248 1_565
Sc1_6 Tl0_6 3.234251 1_555
Sc1_7 Tl0_3 3.234248 1_555
Sc1_7 Tl0_5 3.234248 1_565
Sc1_7 Tl0_7 3.234251 1_555
Sc2_0 Tl0_4 3.234248 1_455
Sc2_0 Tl0_2 3.234248 1_555
Sc2_0 Tl0_0 3.234251 1_555
Sc2_1 Tl0_5 3.234248 1_455
Sc2_1 Tl0_3 3.234248 1_555
Sc2_1 Tl0_1 3.234251 1_555
Sc2_2 Tl0_6 3.234248 1_455
Sc2_2 Tl0_0 3.234248 1_565
Sc2_2 Tl0_2 3.234251 1_555
Sc2_3 Tl0_7 3.234248 1_455
Sc2_3 Tl0_1 3.234248 1_565
Sc2_3 Tl0_3 3.234251 1_555
Sc2_4 Tl0_0 3.234248 1_555
Sc2_4 Tl0_6 3.234248 1_555
Sc2_4 Tl0_4 3.234251 1_555
Sc2_5 Tl0_1 3.234248 1_555
Sc2_5 Tl0_7 3.234248 1_555
Sc2_5 Tl0_5 3.234251 1_555
Sc2_6 Tl0_2 3.234248 1_555
Sc2_6 Tl0_4 3.234248 1_565
Sc2_6 Tl0_6 3.234251 1_555
Sc2_7 Tl0_3 3.234248 1_555
Sc2_7 Tl0_5 3.234248 1_565
Sc2_7 Tl0_7 3.234251 1_555
Sc3_0 Tl1_4 3.234248 1_555
Sc3_0 Tl1_2 3.234248 1_545
Sc3_0 Tl1_0 3.234251 1_555
Sc3_1 Tl1_5 3.234248 1_555
Sc3_1 Tl1_3 3.234248 1_545
Sc3_1 Tl1_1 3.234251 1_555
Sc3_2 Tl1_6 3.234248 1_555
Sc3_2 Tl1_0 3.234248 1_555
Sc3_2 Tl1_2 3.234251 1_555
Sc3_3 Tl1_7 3.234248 1_555
Sc3_3 Tl1_1 3.234248 1_555
Sc3_3 Tl1_3 3.234251 1_555
Sc3_4 Tl1_0 3.234248 1_655
Sc3_4 Tl1_6 3.234248 1_545
Sc3_4 Tl1_4 3.234251 1_555
Sc3_5 Tl1_1 3.234248 1_655
Sc3_5 Tl1_7 3.234248 1_545
Sc3_5 Tl1_5 3.234251 1_555
Sc3_6 Tl1_2 3.234248 1_655
Sc3_6 Tl1_4 3.234248 1_555
Sc3_6 Tl1_6 3.234251 1_555
Sc3_7 Tl1_3 3.234248 1_655
Sc3_7 Tl1_5 3.234248 1_555
Sc3_7 Tl1_7 3.234251 1_555
Tl0_0 Tl0_4 3.370933 1_455
Tl0_0 Tl0_4 3.370933 1_555
Tl0_0 Tl0_2 3.370934 1_545
Tl0_0 Tl0_6 3.370934 1_555
Tl0_0 Tl0_6 3.370934 1_445
Tl0_0 Tl0_2 3.370934 1_555
Tl0_1 Tl0_5 3.370933 1_455
Tl0_1 Tl0_5 3.370933 1_555
Tl0_1 Tl0_3 3.370934 1_545
Tl0_1 Tl0_7 3.370934 1_445
Tl0_1 Tl0_7 3.370934 1_555
Tl0_1 Tl0_3 3.370934 1_555
Tl0_2 Tl0_6 3.370933 1_455
Tl0_2 Tl0_6 3.370933 1_555
Tl0_2 Tl0_4 3.370934 1_455
Tl0_2 Tl0_4 3.370934 1_565
Tl0_3 Tl0_7 3.370933 1_455
Tl0_3 Tl0_7 3.370933 1_555
Tl0_3 Tl0_5 3.370934 1_565
Tl0_3 Tl0_5 3.370934 1_455
Tl0_4 Tl0_6 3.370934 1_545
Tl0_4 Tl0_6 3.370934 1_555
Tl0_5 Tl0_7 3.370934 1_545
Tl0_5 Tl0_7 3.370934 1_555
Tl1_0 Tl1_4 3.370933 1_455
Tl1_0 Tl1_4 3.370933 1_555
Tl1_0 Tl1_2 3.370934 1_545
Tl1_0 Tl1_6 3.370934 1_555
Tl1_0 Tl1_6 3.370934 1_445
Tl1_0 Tl1_2 3.370934 1_555
Tl1_1 Tl1_5 3.370933 1_455
Tl1_1 Tl1_5 3.370933 1_555
Tl1_1 Tl1_3 3.370934 1_545
Tl1_1 Tl1_7 3.370934 1_555
Tl1_1 Tl1_7 3.370934 1_445
Tl1_1 Tl1_3 3.370934 1_555
Tl1_2 Tl1_6 3.370933 1_455
Tl1_2 Tl1_6 3.370933 1_555
Tl1_2 Tl1_4 3.370934 1_565
Tl1_2 Tl1_4 3.370934 1_455
Tl1_3 Tl1_7 3.370933 1_455
Tl1_3 Tl1_7 3.370933 1_555
Tl1_3 Tl1_5 3.370934 1_455
Tl1_3 Tl1_5 3.370934 1_565
Tl1_4 Tl1_6 3.370934 1_545
Tl1_4 Tl1_6 3.370934 1_555
Tl1_5 Tl1_7 3.370934 1_545
Tl1_5 Tl1_7 3.370934 1_555
C0_0 Sc0_4 2.298386 1_455
C0_0 Sc1_2 2.298386 1_545
C0_0 Sc1_6 2.298389 1_445
C0_0 Sc0_0 2.298389 1_555
C0_0 Sc0_6 2.298389 1_445
C0_0 Sc1_0 2.298389 1_555
C0_1 Sc0_5 2.298386 1_455
C0_1 Sc1_3 2.298386 1_545
C0_1 Sc0_1 2.298389 1_555
C0_1 Sc1_7 2.298389 1_445
C0_1 Sc0_7 2.298389 1_445
C0_1 Sc1_1 2.298389 1_555
C0_2 Sc0_6 2.298386 1_455
C0_2 Sc1_0 2.298386 1_555
C0_2 Sc1_4 2.298389 1_455
C0_2 Sc0_2 2.298389 1_555
C0_2 Sc0_4 2.298389 1_455
C0_2 Sc1_2 2.298389 1_555
C0_3 Sc0_7 2.298386 1_455
C0_3 Sc1_1 2.298386 1_555
C0_3 Sc0_3 2.298389 1_555
C0_3 Sc1_5 2.298389 1_455
C0_3 Sc0_5 2.298389 1_455
C0_3 Sc1_3 2.298389 1_555
C0_4 Sc0_0 2.298386 1_555
C0_4 Sc1_6 2.298386 1_545
C0_4 Sc0_4 2.298389 1_555
C0_4 Sc1_2 2.298389 1_545
C0_4 Sc0_2 2.298389 1_545
C0_4 Sc1_4 2.298389 1_555
C0_5 Sc0_1 2.298386 1_555
C0_5 Sc1_7 2.298386 1_545
C0_5 Sc0_5 2.298389 1_555
C0_5 Sc1_3 2.298389 1_545
C0_5 Sc0_3 2.298389 1_545
C0_5 Sc1_5 2.298389 1_555
C0_6 Sc1_4 2.298386 1_555
C0_6 Sc0_2 2.298386 1_555
C0_6 Sc1_0 2.298389 1_555
C0_6 Sc0_6 2.298389 1_555
C0_6 Sc0_0 2.298389 1_555
C0_6 Sc1_6 2.298389 1_555
C0_7 Sc0_3 2.298386 1_555
C0_7 Sc1_5 2.298386 1_555
C0_7 Sc0_7 2.298389 1_555
C0_7 Sc1_1 2.298389 1_555
C0_7 Sc0_1 2.298389 1_555
C0_7 Sc1_7 2.298389 1_555
C1_0 Sc2_2 2.298386 1_545
C1_0 Sc3_5 2.298386 1_454
C1_0 Sc2_6 2.298389 1_445
C1_0 Sc3_1 2.298389 1_554
C1_0 Sc2_0 2.298389 1_555
C1_0 Sc3_7 2.298389 1_444
C1_1 Sc3_4 2.298386 1_455
C1_1 Sc2_3 2.298386 1_545
C1_1 Sc3_0 2.298389 1_555
C1_1 Sc2_7 2.298389 1_445
C1_1 Sc3_6 2.298389 1_445
C1_1 Sc2_1 2.298389 1_555
C1_2 Sc2_0 2.298386 1_555
C1_2 Sc3_7 2.298386 1_454
C1_2 Sc2_4 2.298389 1_455
C1_2 Sc3_3 2.298389 1_554
C1_2 Sc2_2 2.298389 1_555
C1_2 Sc3_5 2.298389 1_454
C1_3 Sc3_6 2.298386 1_455
C1_3 Sc2_1 2.298386 1_555
C1_3 Sc3_2 2.298389 1_555
C1_3 Sc2_5 2.298389 1_455
C1_3 Sc3_4 2.298389 1_455
C1_3 Sc2_3 2.298389 1_555
C1_4 Sc2_6 2.298386 1_545
C1_4 Sc3_1 2.298386 1_554
C1_4 Sc2_2 2.298389 1_545
C1_4 Sc3_5 2.298389 1_554
C1_4 Sc2_4 2.298389 1_555
C1_4 Sc3_3 2.298389 1_544
C1_5 Sc3_0 2.298386 1_555
C1_5 Sc2_7 2.298386 1_545
C1_5 Sc3_4 2.298389 1_555
C1_5 Sc2_3 2.298389 1_545
C1_5 Sc3_2 2.298389 1_545
C1_5 Sc2_5 2.298389 1_555
C1_6 Sc2_4 2.298386 1_555
C1_6 Sc3_3 2.298386 1_554
C1_6 Sc2_0 2.298389 1_555
C1_6 Sc3_7 2.298389 1_554
C1_6 Sc2_6 2.298389 1_555
C1_6 Sc3_1 2.298389 1_554
C1_7 Sc3_2 2.298386 1_555
C1_7 Sc2_5 2.298386 1_555
C1_7 Sc3_6 2.298389 1_555
C1_7 Sc2_1 2.298389 1_555
C1_7 Sc3_0 2.298389 1_555
C1_7 Sc2_7 2.298389 1_555
