# generated using pymatgen
data_Li4MnCo2O7
_symmetry_space_group_name_H-M   'P 1'
_cell_length_a   10.29266534
_cell_length_b   10.29266534
_cell_length_c   5.17984885
_cell_angle_alpha   84.59615746
_cell_angle_beta   84.59615746
_cell_angle_gamma   150.88941270
_symmetry_Int_Tables_number   1
_chemical_formula_structural   Li4MnCo2O7
_chemical_formula_sum   'Li8 Mn2 Co4 O14'
_cell_volume   247.51141090
_cell_formula_units_Z   2
loop_
 _symmetry_equiv_pos_site_id
 _symmetry_equiv_pos_as_xyz
  1  'x, y, z'
loop_
 _atom_site_type_symbol
 _atom_site_label
 _atom_site_symmetry_multiplicity
 _atom_site_fract_x
 _atom_site_fract_y
 _atom_site_fract_z
 _atom_site_occupancy
  Li  Li0  1  0.92615500  0.07384500  0.50000000  1
  Li  Li1  1  0.35547800  0.64452200  0.50000000  1
  Li  Li2  1  0.78437200  0.21562800  0.50000000  1
  Li  Li3  1  0.21814300  0.78185700  0.50000000  1
  Li  Li4  1  0.64412100  0.35587900  0.50000000  1
  Li  Li5  1  0.07088000  0.92912000  0.50000000  1
  Li  Li6  1  0.49988100  0.50011900  0.50000000  1
  Li  Li7  1  0.28541900  0.71458100  0.00000000  1
  Mn  Mn0  1  0.99872500  0.00127500  0.00000000  1
  Mn  Mn1  1  0.14551700  0.85448300  0.00000000  1
  Co  Co0  1  0.42746500  0.57253500  0.00000000  1
  Co  Co1  1  0.85738800  0.14261200  0.00000000  1
  Co  Co2  1  0.71734400  0.28265600  0.00000000  1
  Co  Co3  1  0.57096800  0.42903200  0.00000000  1
  O  O0  1  0.69904700  0.84574000  0.23598200  1
  O  O1  1  0.10339600  0.38205400  0.20659300  1
  O  O2  1  0.57148100  0.99665100  0.22892600  1
  O  O3  1  0.97447100  0.55607800  0.23941100  1
  O  O4  1  0.39725300  0.11017400  0.20731800  1
  O  O5  1  0.84328400  0.70095800  0.23501000  1
  O  O6  1  0.27860400  0.27773600  0.22755100  1
  O  O7  1  0.15426000  0.30095300  0.76401800  1
  O  O8  1  0.61794600  0.89660400  0.79340700  1
  O  O9  1  0.00334900  0.42851900  0.77107400  1
  O  O10  1  0.44392200  0.02552900  0.76058900  1
  O  O11  1  0.88982600  0.60274700  0.79268200  1
  O  O12  1  0.29904200  0.15671600  0.76499000  1
  O  O13  1  0.72226400  0.72139600  0.77244900  1
loop_
_geom_bond_atom_site_label_1
_geom_bond_atom_site_label_2
_geom_bond_distance
_geom_bond_site_symmetry_2
Li0 O8 2.039284 1_545
Li0 O1 2.039284 1_655
Li0 O7 2.112752 1_655
Li0 O0 2.112752 1_545
Li0 O6 2.175049 1_655
Li0 O13 2.175049 1_545
Li1 O0 2.103066 1_555
Li1 O7 2.103066 1_555
Li1 O9 2.103291 1_555
Li1 O2 2.103291 1_555
Li1 O1 2.368134 1_555
Li1 O8 2.368134 1_555
Li2 O9 2.097318 1_655
Li2 O2 2.097318 1_545
Li2 O10 2.135555 1_555
Li2 O3 2.135555 1_555
Li2 O8 2.183442 1_545
Li2 O1 2.183442 1_655
Li3 O9 2.118903 1_555
Li3 O2 2.118903 1_555
Li3 O10 2.134667 1_565
Li3 O3 2.134667 1_455
Li3 O11 2.177014 1_455
Li3 O4 2.177014 1_565
Li4 O10 1.999561 1_555
Li4 O3 1.999561 1_555
Li4 O12 2.128577 1_555
Li4 O5 2.128577 1_555
Li4 O11 2.317251 1_555
Li4 O4 2.317251 1_555
Li5 O12 2.118175 1_565
Li5 O5 2.118175 1_455
Li5 O13 2.123821 1_455
Li5 O6 2.123821 1_565
Li5 O4 2.150753 1_565
Li5 O11 2.150753 1_455
Li6 O5 2.105913 1_555
Li6 O12 2.105913 1_555
Li6 O13 2.126628 1_555
Li6 O6 2.126628 1_555
Li6 O7 2.130850 1_555
Li6 O0 2.130850 1_555
Li7 O1 2.024183 1_555
Li7 O8 2.024183 1_554
Li7 O3 2.047028 1_455
Li7 O10 2.047028 1_564
Li7 O2 2.207582 1_555
Li7 O9 2.207582 1_554
Mn0 O7 1.965713 1_654
Mn0 O0 1.965713 1_545
Mn0 O5 1.969580 1_545
Mn0 O12 1.969580 1_654
Mn0 O6 2.175465 1_655
Mn0 O13 2.175465 1_544
Mn1 O3 1.869141 1_455
Mn1 O10 1.869141 1_564
Mn1 O11 1.983420 1_454
Mn1 O4 1.983420 1_565
Mn1 O12 1.997724 1_564
Mn1 O5 1.997724 1_455
Co0 O8 1.902725 1_554
Co0 O1 1.902725 1_555
Co0 O6 1.950975 1_555
Co0 O13 1.950975 1_554
Co0 O0 2.184310 1_555
Co0 O7 2.184310 1_554
Co1 O2 1.898692 1_545
Co1 O9 1.898692 1_654
Co1 O0 1.925249 1_545
Co1 O7 1.925249 1_654
Co1 O8 1.932186 1_544
Co1 O1 1.932186 1_655
Co2 O2 1.900126 1_545
Co2 O9 1.900126 1_654
Co2 O11 1.978289 1_554
Co2 O4 1.978289 1_555
Co2 O10 2.173275 1_554
Co2 O3 2.173275 1_555
Co3 O13 1.915093 1_554
Co3 O6 1.915093 1_555
Co3 O4 1.960096 1_555
Co3 O11 1.960096 1_554
Co3 O12 2.179015 1_554
Co3 O5 2.179015 1_555
