# generated using pymatgen
data_MgU2Cr2O16
_symmetry_space_group_name_H-M   'P 1'
_cell_length_a   10.71147500
_cell_length_b   15.56343200
_cell_length_c   8.26148500
_cell_angle_alpha   90.00000000
_cell_angle_beta   90.00000000
_cell_angle_gamma   90.00000000
_symmetry_Int_Tables_number   1
_chemical_formula_structural   MgU2Cr2O16
_chemical_formula_sum   'Mg4 U8 Cr8 O64'
_cell_volume   1377.24996394
_cell_formula_units_Z   4
loop_
 _symmetry_equiv_pos_site_id
 _symmetry_equiv_pos_as_xyz
  1  'x, y, z'
loop_
 _atom_site_type_symbol
 _atom_site_label
 _atom_site_symmetry_multiplicity
 _atom_site_fract_x
 _atom_site_fract_y
 _atom_site_fract_z
 _atom_site_occupancy
  Mg  Mg0  1  0.80826600  0.75000000  0.45012000  1
  Mg  Mg1  1  0.30826600  0.75000000  0.04988000  1
  Mg  Mg2  1  0.19173400  0.25000000  0.54988000  1
  Mg  Mg3  1  0.69173400  0.25000000  0.95012000  1
  U  U0  1  0.81914500  0.00106100  0.51435500  1
  U  U1  1  0.31914500  0.49893900  0.98564500  1
  U  U2  1  0.18085500  0.50106100  0.48564500  1
  U  U3  1  0.68085500  0.99893900  0.01435500  1
  U  U4  1  0.18085500  0.99893900  0.48564500  1
  U  U5  1  0.68085500  0.50106100  0.01435500  1
  U  U6  1  0.81914500  0.49893900  0.51435500  1
  U  U7  1  0.31914500  0.00106100  0.98564500  1
  Cr  Cr0  1  0.95714200  0.94993800  0.85635100  1
  Cr  Cr1  1  0.45714200  0.55006200  0.64364900  1
  Cr  Cr2  1  0.04285800  0.44993800  0.14364900  1
  Cr  Cr3  1  0.54285800  0.05006200  0.35635100  1
  Cr  Cr4  1  0.04285800  0.05006200  0.14364900  1
  Cr  Cr5  1  0.54285800  0.44993800  0.35635100  1
  Cr  Cr6  1  0.95714200  0.55006200  0.85635100  1
  Cr  Cr7  1  0.45714200  0.94993800  0.64364900  1
  O  O0  1  0.67524600  0.88624900  0.06461900  1
  O  O1  1  0.17524600  0.61375100  0.43538100  1
  O  O2  1  0.32475400  0.38624900  0.93538100  1
  O  O3  1  0.82475400  0.11375100  0.56461900  1
  O  O4  1  0.32475400  0.11375100  0.93538100  1
  O  O5  1  0.82475400  0.38624900  0.56461900  1
  O  O6  1  0.67524600  0.61375100  0.06461900  1
  O  O7  1  0.17524600  0.88624900  0.43538100  1
  O  O8  1  0.81355100  0.88485300  0.45890600  1
  O  O9  1  0.31355100  0.61514700  0.04109400  1
  O  O10  1  0.18644900  0.38485300  0.54109400  1
  O  O11  1  0.68644900  0.11514700  0.95890600  1
  O  O12  1  0.18644900  0.11514700  0.54109400  1
  O  O13  1  0.68644900  0.38485300  0.95890600  1
  O  O14  1  0.81355100  0.61514700  0.45890600  1
  O  O15  1  0.31355100  0.88485300  0.04109400  1
  O  O16  1  0.00820900  0.97961500  0.65593000  1
  O  O17  1  0.50820900  0.52038500  0.84407000  1
  O  O18  1  0.99179100  0.47961500  0.34407000  1
  O  O19  1  0.49179100  0.02038500  0.15593000  1
  O  O20  1  0.99179100  0.02038500  0.34407000  1
  O  O21  1  0.49179100  0.47961500  0.15593000  1
  O  O22  1  0.00820900  0.52038500  0.65593000  1
  O  O23  1  0.50820900  0.97961500  0.84407000  1
  O  O24  1  0.89875500  0.99577700  0.05434000  1
  O  O25  1  0.39875500  0.50422300  0.44566000  1
  O  O26  1  0.10124500  0.49577700  0.94566000  1
  O  O27  1  0.60124500  0.00422300  0.55434000  1
  O  O28  1  0.10124500  0.00422300  0.94566000  1
  O  O29  1  0.60124500  0.49577700  0.55434000  1
  O  O30  1  0.89875500  0.50422300  0.05434000  1
  O  O31  1  0.39875500  0.99577700  0.44566000  1
  O  O32  1  0.97899800  0.85006600  0.87962100  1
  O  O33  1  0.47899800  0.64993400  0.62037900  1
  O  O34  1  0.02100200  0.35006600  0.12037900  1
  O  O35  1  0.52100200  0.14993400  0.37962100  1
  O  O36  1  0.02100200  0.14993400  0.12037900  1
  O  O37  1  0.52100200  0.35006600  0.37962100  1
  O  O38  1  0.97899800  0.64993400  0.87962100  1
  O  O39  1  0.47899800  0.85006600  0.62037900  1
  O  O40  1  0.99379700  0.75000000  0.51358700  1
  O  O41  1  0.49379700  0.75000000  0.98641300  1
  O  O42  1  0.00620300  0.25000000  0.48641300  1
  O  O43  1  0.50620300  0.25000000  0.01358700  1
  O  O44  1  0.84387600  0.75000000  0.20398700  1
  O  O45  1  0.34387600  0.75000000  0.29601300  1
  O  O46  1  0.15612400  0.25000000  0.79601300  1
  O  O47  1  0.65612400  0.25000000  0.70398700  1
  O  O48  1  0.75431700  0.75000000  0.68961400  1
  O  O49  1  0.25431700  0.75000000  0.81038600  1
  O  O50  1  0.24568300  0.25000000  0.31038600  1
  O  O51  1  0.74568300  0.25000000  0.18961400  1
  O  O52  1  0.79642300  0.96492800  0.78670000  1
  O  O53  1  0.29642300  0.53507200  0.71330000  1
  O  O54  1  0.20357700  0.46492800  0.21330000  1
  O  O55  1  0.70357700  0.03507200  0.28670000  1
  O  O56  1  0.20357700  0.03507200  0.21330000  1
  O  O57  1  0.70357700  0.46492800  0.28670000  1
  O  O58  1  0.79642300  0.53507200  0.78670000  1
  O  O59  1  0.29642300  0.96492800  0.71330000  1
  O  O60  1  0.62414000  0.75000000  0.38022200  1
  O  O61  1  0.12414000  0.75000000  0.11977800  1
  O  O62  1  0.37586000  0.25000000  0.61977800  1
  O  O63  1  0.87586000  0.25000000  0.88022200  1
loop_
_geom_bond_atom_site_label_1
_geom_bond_atom_site_label_2
_geom_bond_distance
_geom_bond_site_symmetry_2
Mg0 O60 2.055061 1_555
Mg0 O40 2.055317 1_555
Mg0 O48 2.061238 1_555
Mg0 O44 2.068890 1_555
Mg0 O8 2.100793 1_555
Mg0 O14 2.100793 1_555
Mg1 O61 2.055061 1_555
Mg1 O41 2.055317 1_554
Mg1 O49 2.061238 1_554
Mg1 O45 2.068890 1_555
Mg1 O15 2.100793 1_555
Mg1 O9 2.100793 1_555
Mg2 O62 2.055061 1_555
Mg2 O42 2.055317 1_555
Mg2 O50 2.061238 1_555
Mg2 O46 2.068890 1_555
Mg2 O12 2.100793 1_555
Mg2 O10 2.100793 1_555
Mg3 O63 2.055061 1_555
Mg3 O43 2.055317 1_556
Mg3 O51 2.061238 1_556
Mg3 O47 2.068890 1_555
Mg3 O11 2.100793 1_555
Mg3 O13 2.100793 1_555
Cr0 O32 1.583595 1_555
Cr0 O16 1.803921 1_655
Cr0 O52 1.830089 1_555
Cr0 O24 1.890914 1_556
Cr0 O28 1.908072 1_665
Cr1 O33 1.583595 1_555
Cr1 O17 1.803921 1_555
Cr1 O53 1.830089 1_555
Cr1 O25 1.890914 1_555
Cr1 O29 1.908072 1_555
Cr2 O34 1.583595 1_555
Cr2 O18 1.803921 1_455
Cr2 O54 1.830089 1_555
Cr2 O26 1.890914 1_554
Cr2 O30 1.908072 1_455
Cr3 O35 1.583595 1_555
Cr3 O19 1.803921 1_555
Cr3 O55 1.830089 1_555
Cr3 O27 1.890914 1_555
Cr3 O31 1.908072 1_545
Cr4 O36 1.583595 1_555
Cr4 O20 1.803921 1_455
Cr4 O56 1.830089 1_555
Cr4 O28 1.890914 1_554
Cr4 O24 1.908072 1_445
Cr5 O37 1.583595 1_555
Cr5 O21 1.803921 1_555
Cr5 O57 1.830089 1_555
Cr5 O29 1.890914 1_555
Cr5 O25 1.908072 1_555
Cr6 O38 1.583595 1_555
Cr6 O22 1.803921 1_655
Cr6 O58 1.830089 1_555
Cr6 O30 1.890914 1_556
Cr6 O26 1.908072 1_655
Cr7 O39 1.583595 1_555
Cr7 O23 1.803921 1_555
Cr7 O59 1.830089 1_555
Cr7 O31 1.890914 1_555
Cr7 O27 1.908072 1_565
O0 U3 1.803334 1_555
O1 U2 1.803334 1_555
O2 U1 1.803334 1_555
O3 U0 1.803334 1_555
O4 U7 1.803334 1_555
O5 U6 1.803334 1_555
O6 U5 1.803334 1_555
O7 U4 1.803334 1_555
O8 U0 1.866669 1_565
O9 U1 1.866669 1_554
O10 U2 1.866669 1_555
O11 U3 1.866669 1_546
O12 U4 1.866669 1_545
O13 U5 1.866669 1_556
O14 U6 1.866669 1_555
O15 U7 1.866669 1_564
O16 U4 2.342956 1_555
O16 U0 2.362343 1_465
O17 U5 2.342956 1_556
O17 U1 2.362343 1_555
O18 U6 2.342956 1_555
O18 U2 2.362343 1_655
O19 U7 2.342956 1_554
O19 U3 2.362343 1_545
O20 U0 2.342956 1_555
O20 U4 2.362343 1_645
O21 U1 2.342956 1_554
O21 U5 2.362343 1_555
O22 U2 2.342956 1_555
O22 U6 2.362343 1_455
O23 U3 2.342956 1_556
O23 U7 2.362343 1_565
O24 U3 2.357804 1_555
O25 U2 2.357804 1_555
O26 U1 2.357804 1_555
O27 U0 2.357804 1_555
O28 U7 2.357804 1_555
O29 U6 2.357804 1_555
O30 U5 2.357804 1_555
O31 U4 2.357804 1_555
O52 U3 2.312981 1_556
O52 U0 2.331922 1_565
O53 U2 2.312981 1_555
O53 U1 2.331922 1_555
O54 U1 2.312981 1_554
O54 U2 2.331922 1_555
O55 U0 2.312981 1_555
O55 U3 2.331922 1_545
O56 U7 2.312981 1_554
O56 U4 2.331922 1_545
O57 U6 2.312981 1_555
O57 U5 2.331922 1_555
O58 U5 2.312981 1_556
O58 U6 2.331922 1_555
O59 U4 2.312981 1_555
O59 U7 2.331922 1_565
