# generated using pymatgen
data_Dy5Co2Bi
_symmetry_space_group_name_H-M   'P 1'
_cell_length_a   8.63194713
_cell_length_b   8.63194713
_cell_length_c   8.63194713
_cell_angle_alpha   127.33741379
_cell_angle_beta   127.33741379
_cell_angle_gamma   77.70087762
_symmetry_Int_Tables_number   1
_chemical_formula_structural   Dy5Co2Bi
_chemical_formula_sum   'Dy10 Co4 Bi2'
_cell_volume   394.19462714
_cell_formula_units_Z   2
loop_
 _symmetry_equiv_pos_site_id
 _symmetry_equiv_pos_as_xyz
  1  'x, y, z'
loop_
 _atom_site_type_symbol
 _atom_site_label
 _atom_site_symmetry_multiplicity
 _atom_site_fract_x
 _atom_site_fract_y
 _atom_site_fract_z
 _atom_site_occupancy
  Dy  Dy0  1  0.00000000  0.00000000  0.00000000  1
  Dy  Dy1  1  0.50000000  0.50000000  0.00000000  1
  Dy  Dy2  1  0.78633500  0.28633500  0.81576900  1
  Dy  Dy3  1  0.21366500  0.71366500  0.18423200  1
  Dy  Dy4  1  0.47056700  0.97056700  0.18423200  1
  Dy  Dy5  1  0.28633500  0.47056700  0.50000000  1
  Dy  Dy6  1  0.02943300  0.21366500  0.50000000  1
  Dy  Dy7  1  0.52943300  0.02943300  0.81576800  1
  Dy  Dy8  1  0.71366500  0.52943300  0.50000000  1
  Dy  Dy9  1  0.97056700  0.78633500  0.50000000  1
  Co  Co0  1  0.13490000  0.63490000  0.76980000  1
  Co  Co1  1  0.86510000  0.36510000  0.23020000  1
  Co  Co2  1  0.63490000  0.86510000  0.50000000  1
  Co  Co3  1  0.36510000  0.13490000  0.50000000  1
  Bi  Bi0  1  0.25000000  0.25000000  0.00000000  1
  Bi  Bi1  1  0.75000000  0.75000000  0.00000000  1
loop_
_geom_bond_atom_site_label_1
_geom_bond_atom_site_label_2
_geom_bond_distance
_geom_bond_site_symmetry_2
Co0 Dy3 2.831654 1_556
Co0 Dy4 2.831654 1_556
Co0 Dy6 2.835521 1_555
Co0 Dy9 2.835521 1_455
Co0 Dy8 2.835521 1_455
Co0 Dy5 2.835521 1_555
Co0 Dy1 2.980523 1_556
Co0 Dy0 2.980523 1_566
Co1 Dy2 2.831645 1_554
Co1 Dy7 2.831654 1_554
Co1 Dy8 2.835521 1_555
Co1 Dy9 2.835521 1_555
Co1 Dy6 2.835521 1_655
Co1 Dy5 2.835521 1_655
Co1 Dy1 2.980523 1_555
Co1 Dy0 2.980523 1_655
Co2 Dy9 2.831654 1_555
Co2 Dy8 2.831654 1_555
Co2 Dy2 2.835521 1_565
Co2 Dy4 2.835521 1_555
Co2 Dy3 2.835521 1_555
Co2 Dy7 2.835521 1_565
Co2 Dy1 2.980523 1_555
Co2 Dy0 2.980523 1_666
Co3 Dy6 2.831654 1_555
Co3 Dy5 2.831654 1_555
Co3 Dy2 2.835521 1_555
Co3 Dy3 2.835521 1_545
Co3 Dy4 2.835521 1_545
Co3 Dy7 2.835521 1_555
Co3 Dy0 2.980523 1_555
Co3 Dy1 2.980523 1_556
Bi0 Dy6 3.315964 1_554
Bi0 Dy3 3.315964 1_555
Bi0 Dy4 3.315964 1_545
Bi0 Dy9 3.315964 1_444
Bi0 Dy8 3.315964 1_555
Bi0 Dy5 3.315964 1_555
Bi0 Dy7 3.315964 1_554
Bi0 Dy2 3.315965 1_454
Bi0 Dy0 3.361220 1_555
Bi0 Dy1 3.361220 1_555
Bi1 Dy4 3.315964 1_555
Bi1 Dy3 3.315964 1_655
Bi1 Dy5 3.315964 1_554
Bi1 Dy6 3.315964 1_665
Bi1 Dy8 3.315964 1_554
Bi1 Dy7 3.315964 1_564
Bi1 Dy9 3.315964 1_555
Bi1 Dy2 3.315965 1_554
Bi1 Dy0 3.361220 1_665
Bi1 Dy1 3.361220 1_555
