# generated using pymatgen
data_Ba2PrSeO6
_symmetry_space_group_name_H-M   'P 1'
_cell_length_a   6.07634270
_cell_length_b   6.07634270
_cell_length_c   6.07634270
_cell_angle_alpha   60.00000000
_cell_angle_beta   60.00000000
_cell_angle_gamma   60.00000000
_symmetry_Int_Tables_number   1
_chemical_formula_structural   Ba2PrSeO6
_chemical_formula_sum   'Ba2 Pr1 Se1 O6'
_cell_volume   158.63966417
_cell_formula_units_Z   1
loop_
 _symmetry_equiv_pos_site_id
 _symmetry_equiv_pos_as_xyz
  1  'x, y, z'
loop_
 _atom_site_type_symbol
 _atom_site_label
 _atom_site_symmetry_multiplicity
 _atom_site_fract_x
 _atom_site_fract_y
 _atom_site_fract_z
 _atom_site_occupancy
  Ba  Ba0  1  0.25000000  0.25000000  0.25000000  1
  Ba  Ba1  1  0.75000000  0.75000000  0.75000000  1
  Pr  Pr0  1  0.00000000  0.00000000  0.00000000  1
  Se  Se0  1  0.50000000  0.50000000  0.50000000  1
  O  O0  1  0.72890837  0.27109163  0.27109163  1
  O  O1  1  0.27109163  0.72890837  0.72890837  1
  O  O2  1  0.72890837  0.27109163  0.72890837  1
  O  O3  1  0.27109163  0.72890837  0.27109163  1
  O  O4  1  0.72890837  0.72890837  0.27109163  1
  O  O5  1  0.27109163  0.27109163  0.72890837  1
loop_
_geom_bond_atom_site_label_1
_geom_bond_atom_site_label_2
_geom_bond_distance
_geom_bond_site_symmetry_2
Ba0 O2 3.043573 1_455
Ba0 O5 3.043573 1_555
Ba0 O3 3.043573 1_555
Ba0 O1 3.043573 1_545
Ba0 O0 3.043573 1_455
Ba0 O4 3.043573 1_545
Ba0 O0 3.043573 1_555
Ba0 O4 3.043573 1_455
Ba0 O1 3.043573 1_554
Ba0 O3 3.043573 1_545
Ba0 O5 3.043573 1_554
Ba0 O2 3.043573 1_554
Ba1 O2 3.043573 1_565
Ba1 O5 3.043573 1_655
Ba1 O4 3.043573 1_556
Ba1 O5 3.043573 1_565
Ba1 O1 3.043573 1_655
Ba1 O3 3.043573 1_556
Ba1 O0 3.043573 1_556
Ba1 O1 3.043573 1_555
Ba1 O3 3.043573 1_655
Ba1 O0 3.043573 1_565
Ba1 O4 3.043573 1_555
Ba1 O2 3.043573 1_555
O0 Se0 1.967066 1_555
O0 Pr0 2.329557 1_655
O1 Se0 1.967066 1_555
O1 Pr0 2.329557 1_566
O2 Se0 1.967066 1_555
O2 Pr0 2.329557 1_656
O3 Se0 1.967066 1_555
O3 Pr0 2.329557 1_565
O4 Se0 1.967066 1_555
O4 Pr0 2.329557 1_665
O5 Se0 1.967066 1_555
O5 Pr0 2.329557 1_556
