# generated using pymatgen
data_Tc3Sn
_symmetry_space_group_name_H-M   'P 1'
_cell_length_a   5.88343328
_cell_length_b   5.88291400
_cell_length_c   17.26689400
_cell_angle_alpha   90.00000000
_cell_angle_beta   90.00000000
_cell_angle_gamma   60.00290838
_symmetry_Int_Tables_number   1
_chemical_formula_structural   Tc3Sn
_chemical_formula_sum   'Tc24 Sn8'
_cell_volume   517.58408527
_cell_formula_units_Z   8
loop_
 _symmetry_equiv_pos_site_id
 _symmetry_equiv_pos_as_xyz
  1  'x, y, z'
loop_
 _atom_site_type_symbol
 _atom_site_label
 _atom_site_symmetry_multiplicity
 _atom_site_fract_x
 _atom_site_fract_y
 _atom_site_fract_z
 _atom_site_occupancy
  Tc  Tc0_0  1  0.16665650  0.16667200  0.43750000  1
  Tc  Tc0_1  1  0.16665650  0.16667200  0.93750000  1
  Tc  Tc0_2  1  0.16665650  0.66667200  0.43750000  1
  Tc  Tc0_3  1  0.16665650  0.66667200  0.93750000  1
  Tc  Tc0_4  1  0.66665650  0.16667200  0.43750000  1
  Tc  Tc0_5  1  0.66665650  0.16667200  0.93750000  1
  Tc  Tc0_6  1  0.66665650  0.66667200  0.43750000  1
  Tc  Tc0_7  1  0.66665650  0.66667200  0.93750000  1
  Tc  Tc1_0  1  0.33333050  0.33333450  0.05660900  1
  Tc  Tc1_1  1  0.33333050  0.33333450  0.55660900  1
  Tc  Tc1_2  1  0.33333050  0.83333450  0.05660900  1
  Tc  Tc1_3  1  0.33333050  0.83333450  0.55660900  1
  Tc  Tc1_4  1  0.83333050  0.33333450  0.05660900  1
  Tc  Tc1_5  1  0.83333050  0.33333450  0.55660900  1
  Tc  Tc1_6  1  0.83333050  0.83333450  0.05660900  1
  Tc  Tc1_7  1  0.83333050  0.83333450  0.55660900  1
  Tc  Tc2_0  1  0.33333050  0.33333450  0.31839100  1
  Tc  Tc2_1  1  0.33333050  0.33333450  0.81839100  1
  Tc  Tc2_2  1  0.33333050  0.83333450  0.31839100  1
  Tc  Tc2_3  1  0.33333050  0.83333450  0.81839100  1
  Tc  Tc2_4  1  0.83333050  0.33333450  0.31839100  1
  Tc  Tc2_5  1  0.83333050  0.33333450  0.81839100  1
  Tc  Tc2_6  1  0.83333050  0.83333450  0.31839100  1
  Tc  Tc2_7  1  0.83333050  0.83333450  0.81839100  1
  Sn  Sn0_0  1  0.16668250  0.16665850  0.18750000  1
  Sn  Sn0_1  1  0.16668250  0.16665850  0.68750000  1
  Sn  Sn0_2  1  0.16668250  0.66665850  0.18750000  1
  Sn  Sn0_3  1  0.16668250  0.66665850  0.68750000  1
  Sn  Sn0_4  1  0.66668250  0.16665850  0.18750000  1
  Sn  Sn0_5  1  0.66668250  0.16665850  0.68750000  1
  Sn  Sn0_6  1  0.66668250  0.66665850  0.18750000  1
  Sn  Sn0_7  1  0.66668250  0.66665850  0.68750000  1
loop_
_geom_bond_atom_site_label_1
_geom_bond_atom_site_label_2
_geom_bond_distance
_geom_bond_site_symmetry_2
Tc0_0 Tc1_1 2.667219 1_555
Tc0_0 Tc2_0 2.667219 1_555
Tc0_0 Tc2_2 2.667223 1_545
Tc0_0 Tc1_3 2.667223 1_545
Tc0_0 Tc1_5 2.667281 1_455
Tc0_0 Tc2_4 2.667281 1_455
Tc0_0 Tc0_2 2.941457 1_545
Tc0_0 Tc0_2 2.941457 1_555
Tc0_0 Tc0_6 2.941716 1_455
Tc0_0 Tc0_6 2.941716 1_545
Tc0_0 Tc0_4 2.941717 1_555
Tc0_0 Tc0_4 2.941717 1_455
Tc0_1 Tc1_0 2.667219 1_556
Tc0_1 Tc2_1 2.667219 1_555
Tc0_1 Tc1_2 2.667223 1_546
Tc0_1 Tc2_3 2.667223 1_545
Tc0_1 Tc1_4 2.667281 1_456
Tc0_1 Tc2_5 2.667281 1_455
Tc0_1 Tc0_3 2.941457 1_545
Tc0_1 Tc0_3 2.941457 1_555
Tc0_1 Tc0_7 2.941716 1_455
Tc0_1 Tc0_7 2.941716 1_545
Tc0_1 Tc0_5 2.941717 1_555
Tc0_1 Tc0_5 2.941717 1_455
Tc0_2 Tc2_2 2.667219 1_555
Tc0_2 Tc1_3 2.667219 1_555
Tc0_2 Tc1_1 2.667223 1_555
Tc0_2 Tc2_0 2.667223 1_555
Tc0_2 Tc1_7 2.667281 1_455
Tc0_2 Tc2_6 2.667281 1_455
Tc0_2 Tc0_4 2.941716 1_465
Tc0_2 Tc0_4 2.941716 1_555
Tc0_2 Tc0_6 2.941717 1_555
Tc0_2 Tc0_6 2.941717 1_455
Tc0_3 Tc1_2 2.667219 1_556
Tc0_3 Tc2_3 2.667219 1_555
Tc0_3 Tc1_0 2.667223 1_556
Tc0_3 Tc2_1 2.667223 1_555
Tc0_3 Tc1_6 2.667281 1_456
Tc0_3 Tc2_7 2.667281 1_455
Tc0_3 Tc0_5 2.941716 1_465
Tc0_3 Tc0_5 2.941716 1_555
Tc0_3 Tc0_7 2.941717 1_555
Tc0_3 Tc0_7 2.941717 1_455
Tc0_4 Tc1_5 2.667219 1_555
Tc0_4 Tc2_4 2.667219 1_555
Tc0_4 Tc1_7 2.667223 1_545
Tc0_4 Tc2_6 2.667223 1_545
Tc0_4 Tc1_1 2.667281 1_555
Tc0_4 Tc2_0 2.667281 1_555
Tc0_4 Tc0_6 2.941457 1_555
Tc0_4 Tc0_6 2.941457 1_545
Tc0_5 Tc1_4 2.667219 1_556
Tc0_5 Tc2_5 2.667219 1_555
Tc0_5 Tc1_6 2.667223 1_546
Tc0_5 Tc2_7 2.667223 1_545
Tc0_5 Tc1_0 2.667281 1_556
Tc0_5 Tc2_1 2.667281 1_555
Tc0_5 Tc0_7 2.941457 1_555
Tc0_5 Tc0_7 2.941457 1_545
Tc0_6 Tc2_6 2.667219 1_555
Tc0_6 Tc1_7 2.667219 1_555
Tc0_6 Tc2_4 2.667223 1_555
Tc0_6 Tc1_5 2.667223 1_555
Tc0_6 Tc2_2 2.667281 1_555
Tc0_6 Tc1_3 2.667281 1_555
Tc0_7 Tc1_6 2.667219 1_556
Tc0_7 Tc2_7 2.667219 1_555
Tc0_7 Tc1_4 2.667223 1_556
Tc0_7 Tc2_5 2.667223 1_555
Tc0_7 Tc1_2 2.667281 1_556
Tc0_7 Tc2_3 2.667281 1_555
Tc1_0 Tc1_2 2.941457 1_555
Tc1_0 Tc1_2 2.941457 1_545
Tc1_0 Tc1_6 2.941716 1_455
Tc1_0 Tc1_6 2.941716 1_545
Tc1_0 Tc1_4 2.941717 1_455
Tc1_0 Tc1_4 2.941717 1_555
Tc1_1 Tc1_3 2.941457 1_555
Tc1_1 Tc1_3 2.941457 1_545
Tc1_1 Tc1_7 2.941716 1_455
Tc1_1 Tc1_7 2.941716 1_545
Tc1_1 Tc1_5 2.941717 1_455
Tc1_1 Tc1_5 2.941717 1_555
Tc1_2 Tc1_4 2.941716 1_555
Tc1_2 Tc1_4 2.941716 1_465
Tc1_2 Tc1_6 2.941717 1_455
Tc1_2 Tc1_6 2.941717 1_555
Tc1_3 Tc1_5 2.941716 1_555
Tc1_3 Tc1_5 2.941716 1_465
Tc1_3 Tc1_7 2.941717 1_455
Tc1_3 Tc1_7 2.941717 1_555
Tc1_4 Tc1_6 2.941457 1_555
Tc1_4 Tc1_6 2.941457 1_545
Tc1_5 Tc1_7 2.941457 1_555
Tc1_5 Tc1_7 2.941457 1_545
Tc2_0 Tc2_2 2.941457 1_555
Tc2_0 Tc2_2 2.941457 1_545
Tc2_0 Tc2_6 2.941716 1_455
Tc2_0 Tc2_6 2.941716 1_545
Tc2_0 Tc2_4 2.941717 1_455
Tc2_0 Tc2_4 2.941717 1_555
Tc2_1 Tc2_3 2.941457 1_555
Tc2_1 Tc2_3 2.941457 1_545
Tc2_1 Tc2_7 2.941716 1_455
Tc2_1 Tc2_7 2.941716 1_545
Tc2_1 Tc2_5 2.941717 1_455
Tc2_1 Tc2_5 2.941717 1_555
Tc2_2 Tc2_4 2.941716 1_555
Tc2_2 Tc2_4 2.941716 1_465
Tc2_2 Tc2_6 2.941717 1_555
Tc2_2 Tc2_6 2.941717 1_455
Tc2_3 Tc2_5 2.941716 1_555
Tc2_3 Tc2_5 2.941716 1_465
Tc2_3 Tc2_7 2.941717 1_455
Tc2_3 Tc2_7 2.941717 1_555
Tc2_4 Tc2_6 2.941457 1_555
Tc2_4 Tc2_6 2.941457 1_545
Tc2_5 Tc2_7 2.941457 1_555
Tc2_5 Tc2_7 2.941457 1_545
Sn0_0 Tc2_2 2.827018 1_545
Sn0_0 Tc1_2 2.827018 1_545
Sn0_0 Tc1_0 2.827018 1_555
Sn0_0 Tc2_0 2.827018 1_555
Sn0_0 Tc2_4 2.827194 1_455
Sn0_0 Tc1_4 2.827194 1_455
Sn0_0 Sn0_2 2.941457 1_555
Sn0_0 Sn0_2 2.941457 1_545
Sn0_0 Sn0_6 2.941716 1_455
Sn0_0 Sn0_6 2.941716 1_545
Sn0_0 Sn0_4 2.941717 1_455
Sn0_0 Sn0_4 2.941717 1_555
Sn0_1 Tc1_3 2.827018 1_545
Sn0_1 Tc2_3 2.827018 1_545
Sn0_1 Tc1_1 2.827018 1_555
Sn0_1 Tc2_1 2.827018 1_555
Sn0_1 Tc1_5 2.827194 1_455
Sn0_1 Tc2_5 2.827194 1_455
Sn0_1 Sn0_3 2.941457 1_555
Sn0_1 Sn0_3 2.941457 1_545
Sn0_1 Sn0_7 2.941716 1_455
Sn0_1 Sn0_7 2.941716 1_545
Sn0_1 Sn0_5 2.941717 1_455
Sn0_1 Sn0_5 2.941717 1_555
Sn0_2 Tc2_0 2.827018 1_555
Sn0_2 Tc1_0 2.827018 1_555
Sn0_2 Tc2_2 2.827018 1_555
Sn0_2 Tc1_2 2.827018 1_555
Sn0_2 Tc2_6 2.827194 1_455
Sn0_2 Tc1_6 2.827194 1_455
Sn0_2 Sn0_4 2.941716 1_465
Sn0_2 Sn0_4 2.941716 1_555
Sn0_2 Sn0_6 2.941717 1_455
Sn0_2 Sn0_6 2.941717 1_555
Sn0_3 Tc1_1 2.827018 1_555
Sn0_3 Tc2_1 2.827018 1_555
Sn0_3 Tc2_3 2.827018 1_555
Sn0_3 Tc1_3 2.827018 1_555
Sn0_3 Tc2_7 2.827194 1_455
Sn0_3 Tc1_7 2.827194 1_455
Sn0_3 Sn0_5 2.941716 1_465
Sn0_3 Sn0_5 2.941716 1_555
Sn0_3 Sn0_7 2.941717 1_455
Sn0_3 Sn0_7 2.941717 1_555
Sn0_4 Tc2_6 2.827018 1_545
Sn0_4 Tc1_6 2.827018 1_545
Sn0_4 Tc2_4 2.827018 1_555
Sn0_4 Tc1_4 2.827018 1_555
Sn0_4 Tc2_0 2.827194 1_555
Sn0_4 Tc1_0 2.827194 1_555
Sn0_4 Sn0_6 2.941457 1_545
Sn0_4 Sn0_6 2.941457 1_555
Sn0_5 Tc1_7 2.827018 1_545
Sn0_5 Tc2_7 2.827018 1_545
Sn0_5 Tc1_5 2.827018 1_555
Sn0_5 Tc2_5 2.827018 1_555
Sn0_5 Tc1_1 2.827194 1_555
Sn0_5 Tc2_1 2.827194 1_555
Sn0_5 Sn0_7 2.941457 1_555
Sn0_5 Sn0_7 2.941457 1_545
Sn0_6 Tc1_4 2.827018 1_555
Sn0_6 Tc2_4 2.827018 1_555
Sn0_6 Tc2_6 2.827018 1_555
Sn0_6 Tc1_6 2.827018 1_555
Sn0_6 Tc2_2 2.827194 1_555
Sn0_6 Tc1_2 2.827194 1_555
Sn0_7 Tc1_5 2.827018 1_555
Sn0_7 Tc2_5 2.827018 1_555
Sn0_7 Tc1_7 2.827018 1_555
Sn0_7 Tc2_7 2.827018 1_555
Sn0_7 Tc2_3 2.827194 1_555
Sn0_7 Tc1_3 2.827194 1_555
