# generated using pymatgen
data_NpSb2
_symmetry_space_group_name_H-M   'P 1'
_cell_length_a   4.35069070
_cell_length_b   4.35069070
_cell_length_c   17.24798700
_cell_angle_alpha   90.00000000
_cell_angle_beta   90.00000000
_cell_angle_gamma   90.40688543
_symmetry_Int_Tables_number   1
_chemical_formula_structural   NpSb2
_chemical_formula_sum   'Np4 Sb8'
_cell_volume   326.47045388
_cell_formula_units_Z   4
loop_
 _symmetry_equiv_pos_site_id
 _symmetry_equiv_pos_as_xyz
  1  'x, y, z'
loop_
 _atom_site_type_symbol
 _atom_site_label
 _atom_site_symmetry_multiplicity
 _atom_site_fract_x
 _atom_site_fract_y
 _atom_site_fract_z
 _atom_site_occupancy
  Np  Np0  1  0.36066500  0.36066500  0.89231700  1
  Np  Np1  1  0.63933500  0.63933500  0.10768300  1
  Np  Np2  1  0.13933500  0.13933500  0.39231700  1
  Np  Np3  1  0.86066500  0.86066500  0.60768300  1
  Sb  Sb0  1  0.35983400  0.35983400  0.56948500  1
  Sb  Sb1  1  0.64016600  0.64016600  0.43051500  1
  Sb  Sb2  1  0.14016600  0.14016600  0.06948500  1
  Sb  Sb3  1  0.85983400  0.85983400  0.93051500  1
  Sb  Sb4  1  0.37238900  0.87238900  0.75000000  1
  Sb  Sb5  1  0.12761100  0.62761100  0.25000000  1
  Sb  Sb6  1  0.62761100  0.12761100  0.25000000  1
  Sb  Sb7  1  0.87238900  0.37238900  0.75000000  1
loop_
_geom_bond_atom_site_label_1
_geom_bond_atom_site_label_2
_geom_bond_distance
_geom_bond_site_symmetry_2
Np0 Sb3 3.130480 1_555
Np0 Sb3 3.140442 1_445
Np0 Sb3 3.156827 1_545
Np0 Sb3 3.156827 1_455
Np0 Sb4 3.246908 1_545
Np0 Sb7 3.246908 1_455
Np0 Sb4 3.314076 1_555
Np0 Sb7 3.314076 1_555
Np0 Sb2 3.341465 1_556
Np1 Sb2 3.130480 1_555
Np1 Sb2 3.140442 1_665
Np1 Sb2 3.156827 1_565
Np1 Sb2 3.156827 1_655
Np1 Sb5 3.246908 1_655
Np1 Sb6 3.246908 1_565
Np1 Sb5 3.314076 1_555
Np1 Sb6 3.314076 1_555
Np1 Sb3 3.341465 1_554
Np2 Sb1 3.130480 1_445
Np2 Sb1 3.140442 1_555
Np2 Sb1 3.156827 1_455
Np2 Sb1 3.156827 1_545
Np2 Sb5 3.246908 1_555
Np2 Sb6 3.246908 1_555
Np2 Sb5 3.314076 1_545
Np2 Sb6 3.314076 1_455
Np2 Sb0 3.341465 1_555
Np3 Sb0 3.130480 1_665
Np3 Sb0 3.140442 1_555
Np3 Sb0 3.156827 1_565
Np3 Sb0 3.156827 1_655
Np3 Sb4 3.246908 1_555
Np3 Sb7 3.246908 1_555
Np3 Sb7 3.314076 1_565
Np3 Sb4 3.314076 1_655
Np3 Sb1 3.341465 1_555
Sb0 Sb1 2.949456 1_555
Sb2 Sb3 2.949456 1_444
Sb4 Sb7 3.065460 1_565
Sb4 Sb7 3.065460 1_455
Sb4 Sb7 3.087307 1_465
Sb4 Sb7 3.087307 1_555
Sb5 Sb6 3.065460 1_565
Sb5 Sb6 3.065460 1_455
Sb5 Sb6 3.087307 1_555
Sb5 Sb6 3.087307 1_465
