# generated using pymatgen
data_ScIn3P4
_symmetry_space_group_name_H-M   'P 1'
_cell_length_a   4.21710500
_cell_length_b   4.21710500
_cell_length_c   11.90613000
_cell_angle_alpha   90.00000000
_cell_angle_beta   90.00000000
_cell_angle_gamma   90.00000000
_symmetry_Int_Tables_number   1
_chemical_formula_structural   ScIn3P4
_chemical_formula_sum   'Sc1 In3 P4'
_cell_volume   211.73831328
_cell_formula_units_Z   1
loop_
 _symmetry_equiv_pos_site_id
 _symmetry_equiv_pos_as_xyz
  1  'x, y, z'
loop_
 _atom_site_type_symbol
 _atom_site_label
 _atom_site_symmetry_multiplicity
 _atom_site_fract_x
 _atom_site_fract_y
 _atom_site_fract_z
 _atom_site_occupancy
  Sc  Sc0  1  0.00000000  0.00000000  0.00000000  1
  In  In0  1  0.50000000  0.50000000  0.74987200  1
  In  In1  1  0.00000000  0.00000000  0.50000000  1
  In  In2  1  0.50000000  0.50000000  0.25012800  1
  P  P0  1  0.00000000  0.50000000  0.62471800  1
  P  P1  1  0.50000000  0.00000000  0.37528200  1
  P  P2  1  0.00000000  0.50000000  0.12401200  1
  P  P3  1  0.50000000  0.00000000  0.87598800  1
loop_
_geom_bond_atom_site_label_1
_geom_bond_atom_site_label_2
_geom_bond_distance
_geom_bond_site_symmetry_2
In0 P0 2.581936 1_655
In0 P0 2.581936 1_555
In0 P3 2.588563 1_555
In0 P3 2.588563 1_565
In1 P0 2.578943 1_545
In1 P1 2.578943 1_455
In1 P0 2.578943 1_555
In1 P1 2.578943 1_555
In2 P1 2.581936 1_565
In2 P1 2.581936 1_555
In2 P2 2.588563 1_555
In2 P2 2.588563 1_655
P2 Sc0 2.574112 1_565
P2 Sc0 2.574112 1_555
P3 Sc0 2.574112 1_656
P3 Sc0 2.574112 1_556
