# generated using pymatgen
data_PRhSe
_symmetry_space_group_name_H-M   'P 1'
_cell_length_a   5.82584600
_cell_length_b   5.82584600
_cell_length_c   5.82584600
_cell_angle_alpha   90.00000000
_cell_angle_beta   90.00000000
_cell_angle_gamma   90.00000000
_symmetry_Int_Tables_number   1
_chemical_formula_structural   PRhSe
_chemical_formula_sum   'P4 Rh4 Se4'
_cell_volume   197.73201906
_cell_formula_units_Z   4
loop_
 _symmetry_equiv_pos_site_id
 _symmetry_equiv_pos_as_xyz
  1  'x, y, z'
loop_
 _atom_site_type_symbol
 _atom_site_label
 _atom_site_symmetry_multiplicity
 _atom_site_fract_x
 _atom_site_fract_y
 _atom_site_fract_z
 _atom_site_occupancy
  P  P0  1  0.88647035  0.38647035  0.11352965  1
  P  P1  1  0.38647035  0.11352965  0.88647035  1
  P  P2  1  0.11352965  0.88647035  0.38647035  1
  P  P3  1  0.61352965  0.61352965  0.61352965  1
  Rh  Rh0  1  0.48619265  0.98619265  0.51380735  1
  Rh  Rh1  1  0.98619265  0.51380735  0.48619265  1
  Rh  Rh2  1  0.51380735  0.48619265  0.98619265  1
  Rh  Rh3  1  0.01380735  0.01380735  0.01380735  1
  Se  Se0  1  0.11499291  0.61499291  0.88500709  1
  Se  Se1  1  0.61499291  0.88500709  0.11499291  1
  Se  Se2  1  0.88500709  0.11499291  0.61499291  1
  Se  Se3  1  0.38500709  0.38500709  0.38500709  1
loop_
_geom_bond_atom_site_label_1
_geom_bond_atom_site_label_2
_geom_bond_distance
_geom_bond_site_symmetry_2
P0 Se0 2.305944 1_654
P0 Rh3 2.366735 1_655
P0 Rh1 2.366735 1_555
P0 Rh2 2.366735 1_554
P1 Se1 2.305944 1_546
P1 Rh2 2.366735 1_555
P1 Rh3 2.366735 1_556
P1 Rh0 2.366735 1_545
P2 Se2 2.305944 1_465
P2 Rh0 2.366735 1_555
P2 Rh3 2.366735 1_565
P2 Rh1 2.366735 1_455
P3 Se3 2.305944 1_555
P3 Rh2 2.366735 1_555
P3 Rh0 2.366735 1_555
P3 Rh1 2.366735 1_555
Rh0 Se3 2.511750 1_565
Rh0 Se2 2.511750 1_565
Rh0 Se1 2.511750 1_555
Rh1 Se2 2.511750 1_555
Rh1 Se0 2.511750 1_655
Rh1 Se3 2.511750 1_655
Rh2 Se0 2.511750 1_555
Rh2 Se1 2.511750 1_556
Rh2 Se3 2.511750 1_556
Rh3 Se2 2.511750 1_454
Rh3 Se1 2.511750 1_445
Rh3 Se0 2.511750 1_544
