# generated using pymatgen
data_MnCd3Te4
_symmetry_space_group_name_H-M   'P 1'
_cell_length_a   4.61110324
_cell_length_b   6.48217022
_cell_length_c   9.20754865
_cell_angle_alpha   90.00000000
_cell_angle_beta   90.00000000
_cell_angle_gamma   90.00000000
_symmetry_Int_Tables_number   1
_chemical_formula_structural   MnCd3Te4
_chemical_formula_sum   'Mn1 Cd3 Te4'
_cell_volume   275.21322497
_cell_formula_units_Z   1
loop_
 _symmetry_equiv_pos_site_id
 _symmetry_equiv_pos_as_xyz
  1  'x, y, z'
loop_
 _atom_site_type_symbol
 _atom_site_label
 _atom_site_symmetry_multiplicity
 _atom_site_fract_x
 _atom_site_fract_y
 _atom_site_fract_z
 _atom_site_occupancy
  Mn  Mn0  1  0.50000000  0.50082357  0.50000000  1
  Cd  Cd0  1  -0.00000000  0.00013832  0.25435992  1
  Cd  Cd1  1  0.50000000  0.49861799  -0.00000000  1
  Cd  Cd2  1  0.00000000  0.00013832  0.74564008  1
  Te  Te0  1  0.50000000  0.25612619  0.25752137  1
  Te  Te1  1  0.00000000  0.75396890  -0.00000000  1
  Te  Te2  1  0.50000000  0.25612619  0.74247863  1
  Te  Te3  1  0.00000000  0.73405954  0.50000000  1
loop_
_geom_bond_atom_site_label_1
_geom_bond_atom_site_label_2
_geom_bond_distance
_geom_bond_site_symmetry_2
Mn0 Te0 2.738720 1_555
Mn0 Te2 2.738720 1_555
Mn0 Te3 2.757052 1_555
Mn0 Te3 2.757052 1_655
Cd0 Te1 2.833974 1_545
Cd0 Te0 2.840754 1_455
Cd0 Te0 2.840754 1_555
Cd0 Te3 2.844346 1_545
Cd1 Te1 2.838195 1_655
Cd1 Te1 2.838195 1_555
Cd1 Te2 2.844836 1_554
Cd1 Te0 2.844836 1_555
Cd2 Te1 2.833974 1_546
Cd2 Te2 2.840754 1_555
Cd2 Te2 2.840754 1_455
Cd2 Te3 2.844346 1_545
