# generated using pymatgen
data_Cu3(GeO3)4
_symmetry_space_group_name_H-M   'P 1'
_cell_length_a   6.27032703
_cell_length_b   6.27032703
_cell_length_c   6.27032703
_cell_angle_alpha   109.47122063
_cell_angle_beta   109.47122063
_cell_angle_gamma   109.47122063
_symmetry_Int_Tables_number   1
_chemical_formula_structural   Cu3(GeO3)4
_chemical_formula_sum   'Cu3 Ge4 O12'
_cell_volume   189.77923257
_cell_formula_units_Z   1
loop_
 _symmetry_equiv_pos_site_id
 _symmetry_equiv_pos_as_xyz
  1  'x, y, z'
loop_
 _atom_site_type_symbol
 _atom_site_label
 _atom_site_symmetry_multiplicity
 _atom_site_fract_x
 _atom_site_fract_y
 _atom_site_fract_z
 _atom_site_occupancy
  Cu  Cu0  1  0.50000000  0.50000000  0.00000000  1
  Cu  Cu1  1  0.50000000  0.00000000  0.50000000  1
  Cu  Cu2  1  0.00000000  0.50000000  0.50000000  1
  Ge  Ge0  1  0.00000000  0.00000000  0.50000000  1
  Ge  Ge1  1  0.00000000  0.50000000  0.00000000  1
  Ge  Ge2  1  0.50000000  0.50000000  0.50000000  1
  Ge  Ge3  1  0.50000000  0.00000000  0.00000000  1
  O  O0  1  0.31339300  0.81620500  0.12959700  1
  O  O1  1  0.68660700  0.18379500  0.87040300  1
  O  O2  1  0.68660700  0.81620500  0.50281200  1
  O  O3  1  0.87040300  0.68660700  0.18379500  1
  O  O4  1  0.81620500  0.12959700  0.31339300  1
  O  O5  1  0.18379500  0.49718800  0.31339300  1
  O  O6  1  0.49718800  0.31339300  0.18379500  1
  O  O7  1  0.18379500  0.87040300  0.68660700  1
  O  O8  1  0.31339300  0.18379500  0.49718800  1
  O  O9  1  0.12959700  0.31339300  0.81620500  1
  O  O10  1  0.81620500  0.50281200  0.68660700  1
  O  O11  1  0.50281200  0.68660700  0.81620500  1
loop_
_geom_bond_atom_site_label_1
_geom_bond_atom_site_label_2
_geom_bond_distance
_geom_bond_site_symmetry_2
Cu0 O11 1.896402 1_554
Cu0 O6 1.896402 1_555
Cu0 O3 1.896407 1_555
Cu0 O9 1.896407 1_554
Cu1 O8 1.896402 1_555
Cu1 O2 1.896402 1_545
Cu1 O0 1.896407 1_545
Cu1 O1 1.896407 1_555
Cu2 O5 1.896402 1_555
Cu2 O10 1.896402 1_455
Cu2 O4 1.896407 1_455
Cu2 O7 1.896407 1_555
Ge0 O7 1.927911 1_545
Ge0 O4 1.927911 1_455
Ge0 O8 1.927916 1_555
Ge0 O2 1.927916 1_445
Ge0 O9 1.927918 1_555
Ge0 O3 1.927918 1_445
Ge1 O3 1.927911 1_455
Ge1 O9 1.927911 1_554
Ge1 O5 1.927916 1_555
Ge1 O10 1.927916 1_454
Ge1 O0 1.927918 1_555
Ge1 O1 1.927918 1_454
Ge2 O11 1.927916 1_555
Ge2 O10 1.927916 1_555
Ge2 O2 1.927916 1_555
Ge2 O5 1.927916 1_555
Ge2 O8 1.927916 1_555
Ge2 O6 1.927916 1_555
Ge3 O1 1.927911 1_554
Ge3 O0 1.927911 1_545
Ge3 O6 1.927916 1_555
Ge3 O11 1.927916 1_544
Ge3 O4 1.927918 1_555
Ge3 O7 1.927918 1_544
