# generated using pymatgen
data_Y5(Ge5Os2)2
_symmetry_space_group_name_H-M   'P 1'
_cell_length_a   13.03257521
_cell_length_b   13.03266531
_cell_length_c   4.31761393
_cell_angle_alpha   90.00000000
_cell_angle_beta   90.00000000
_cell_angle_gamma   89.99920009
_symmetry_Int_Tables_number   1
_chemical_formula_structural   Y5(Ge5Os2)2
_chemical_formula_sum   'Y10 Ge20 Os8'
_cell_volume   733.34323233
_cell_formula_units_Z   2
loop_
 _symmetry_equiv_pos_site_id
 _symmetry_equiv_pos_as_xyz
  1  'x, y, z'
loop_
 _atom_site_type_symbol
 _atom_site_label
 _atom_site_symmetry_multiplicity
 _atom_site_fract_x
 _atom_site_fract_y
 _atom_site_fract_z
 _atom_site_occupancy
  Y  Y0  1  0.49998545  0.49995604  0.00000000  1
  Y  Y1  1  -0.00001282  0.00000208  0.00000000  1
  Y  Y2  1  0.67272944  0.17271401  0.50000000  1
  Y  Y3  1  0.32723689  0.82729226  0.50000000  1
  Y  Y4  1  0.17272223  0.32725978  0.50000000  1
  Y  Y5  1  0.82730752  0.67275434  0.50000000  1
  Y  Y6  1  0.88281468  0.38276575  0.50000000  1
  Y  Y7  1  0.11718797  0.61721366  0.50000000  1
  Y  Y8  1  0.38279995  0.11722307  0.50000000  1
  Y  Y9  1  0.61723645  0.88284214  0.50000000  1
  Ge  Ge0  1  0.56803149  0.06800773  0.00000000  1
  Ge  Ge1  1  0.43197627  0.93198904  0.00000000  1
  Ge  Ge2  1  0.06801957  0.43202758  0.00000000  1
  Ge  Ge3  1  0.93201661  0.56806732  0.00000000  1
  Ge  Ge4  1  0.66406150  0.69941060  0.00000000  1
  Ge  Ge5  1  0.33596268  0.30062354  0.00000000  1
  Ge  Ge6  1  0.16400115  0.80062620  0.00000000  1
  Ge  Ge7  1  0.83595148  0.19933659  0.00000000  1
  Ge  Ge8  1  0.30059718  0.66404980  0.00000000  1
  Ge  Ge9  1  0.69937051  0.33593508  0.00000000  1
  Ge  Ge10  1  0.19938547  0.16402228  0.00000000  1
  Ge  Ge11  1  0.80066344  0.83597973  0.00000000  1
  Ge  Ge12  1  0.65909977  0.50769094  0.50000000  1
  Ge  Ge13  1  0.34087290  0.49236019  0.50000000  1
  Ge  Ge14  1  0.15908070  0.99229690  0.50000000  1
  Ge  Ge15  1  0.84090074  0.00760278  0.50000000  1
  Ge  Ge16  1  0.49233805  0.65913033  0.50000000  1
  Ge  Ge17  1  0.50765188  0.34087271  0.50000000  1
  Ge  Ge18  1  0.00765788  0.15905120  0.50000000  1
  Ge  Ge19  1  0.99233940  0.84089447  0.50000000  1
  Os  Os0  1  0.74635597  0.51895482  0.00000000  1
  Os  Os1  1  0.25366170  0.48102621  0.00000000  1
  Os  Os2  1  0.24632776  0.98104353  0.00000000  1
  Os  Os3  1  0.75367443  0.01897207  0.00000000  1
  Os  Os4  1  0.48102715  0.74635820  0.00000000  1
  Os  Os5  1  0.51896043  0.25363995  0.00000000  1
  Os  Os6  1  0.01896617  0.24632104  0.00000000  1
  Os  Os7  1  0.98103996  0.75368600  0.00000000  1
loop_
_geom_bond_atom_site_label_1
_geom_bond_atom_site_label_2
_geom_bond_distance
_geom_bond_site_symmetry_2
Ge0 Os5 2.502374 1_555
Ge0 Os3 2.502376 1_555
Ge0 Ge1 2.507302 1_545
Ge0 Y2 2.895592 1_555
Ge0 Y2 2.895592 1_554
Ge0 Y9 3.300783 1_544
Ge0 Y9 3.300783 1_545
Ge0 Y8 3.301426 1_554
Ge0 Y8 3.301426 1_555
Ge1 Os4 2.502289 1_555
Ge1 Os2 2.502509 1_555
Ge1 Y3 2.895788 1_555
Ge1 Y3 2.895788 1_554
Ge1 Y8 3.301363 1_565
Ge1 Y8 3.301363 1_564
Ge1 Y9 3.301526 1_554
Ge1 Y9 3.301526 1_555
Ge2 Os1 2.502260 1_555
Ge2 Os6 2.503269 1_555
Ge2 Ge3 2.506980 1_455
Ge2 Y4 2.895981 1_554
Ge2 Y4 2.895981 1_555
Ge2 Y7 3.300899 1_554
Ge2 Y7 3.300899 1_555
Ge2 Y6 3.301303 1_455
Ge2 Y6 3.301303 1_454
Ge3 Os7 2.502061 1_555
Ge3 Os0 2.502872 1_555
Ge3 Y5 2.895524 1_555
Ge3 Y5 2.895524 1_554
Ge3 Y7 3.300691 1_655
Ge3 Y7 3.300691 1_654
Ge3 Y6 3.302084 1_554
Ge3 Y6 3.302084 1_555
Ge4 Os4 2.462620 1_555
Ge4 Os0 2.584814 1_555
Ge4 Y5 3.050810 1_555
Ge4 Y5 3.050810 1_554
Ge4 Y9 3.278382 1_554
Ge4 Y9 3.278382 1_555
Ge4 Y0 3.365952 1_555
Ge5 Os5 2.462275 1_555
Ge5 Os1 2.584219 1_555
Ge5 Y4 3.050729 1_555
Ge5 Y4 3.050729 1_554
Ge5 Y8 3.278117 1_554
Ge5 Y8 3.278117 1_555
Ge5 Y0 3.364282 1_555
Ge6 Os7 2.461689 1_455
Ge6 Ge8 2.517390 1_555
Ge6 Os2 2.584559 1_555
Ge6 Y3 3.050738 1_554
Ge6 Y3 3.050738 1_555
Ge6 Y7 3.278185 1_555
Ge6 Y7 3.278185 1_554
Ge6 Y1 3.364600 1_565
Ge7 Os6 2.462508 1_655
Ge7 Ge9 2.517455 1_555
Ge7 Os3 2.583664 1_555
Ge7 Y2 3.050549 1_555
Ge7 Y2 3.050549 1_554
Ge7 Y6 3.278465 1_554
Ge7 Y6 3.278465 1_555
Ge7 Y1 3.364364 1_655
Ge8 Os1 2.462477 1_555
Ge8 Os4 2.584598 1_555
Ge8 Y3 3.050769 1_554
Ge8 Y3 3.050769 1_555
Ge8 Y7 3.278198 1_555
Ge8 Y7 3.278198 1_554
Ge8 Y0 3.365381 1_555
Ge9 Os0 2.462590 1_555
Ge9 Os5 2.584291 1_555
Ge9 Y2 3.050577 1_555
Ge9 Y2 3.050577 1_554
Ge9 Y6 3.278517 1_554
Ge9 Y6 3.278517 1_555
Ge9 Y0 3.364746 1_555
Ge10 Os2 2.461916 1_545
Ge10 Ge5 2.517481 1_555
Ge10 Os6 2.584392 1_555
Ge10 Y4 3.050753 1_554
Ge10 Y4 3.050753 1_555
Ge10 Y8 3.278146 1_554
Ge10 Y8 3.278146 1_555
Ge10 Y1 3.364919 1_555
Ge11 Os3 2.462239 1_565
Ge11 Ge4 2.517413 1_555
Ge11 Os7 2.583858 1_555
Ge11 Y5 3.050614 1_555
Ge11 Y5 3.050614 1_554
Ge11 Y9 3.278418 1_555
Ge11 Y9 3.278418 1_554
Ge11 Y1 3.364186 1_665
Ge12 Os0 2.444415 1_556
Ge12 Os0 2.444415 1_555
Ge12 Ge16 2.935744 1_555
Ge12 Ge17 2.936407 1_555
Ge12 Y0 2.995116 1_556
Ge12 Y0 2.995116 1_555
Ge12 Y5 3.071403 1_555
Ge12 Y6 3.339344 1_555
Ge13 Os1 2.444197 1_556
Ge13 Os1 2.444197 1_555
Ge13 Ge16 2.936094 1_555
Ge13 Ge17 2.936332 1_555
Ge13 Y0 2.995040 1_555
Ge13 Y0 2.995040 1_556
Ge13 Y4 3.071210 1_555
Ge13 Y7 3.338547 1_555
Ge14 Os2 2.444349 1_555
Ge14 Os2 2.444349 1_556
Ge14 Ge19 2.935264 1_455
Ge14 Ge18 2.935529 1_565
Ge14 Y1 2.994913 1_566
Ge14 Y1 2.994913 1_565
Ge14 Y3 3.070344 1_555
Ge14 Y8 3.339439 1_565
Ge15 Os3 2.444315 1_556
Ge15 Os3 2.444315 1_555
Ge15 Ge19 2.935224 1_545
Ge15 Ge18 2.935820 1_655
Ge15 Y1 2.994804 1_656
Ge15 Y1 2.994804 1_655
Ge15 Y2 3.071458 1_555
Ge15 Y9 3.337763 1_545
Ge16 Os4 2.444282 1_555
Ge16 Os4 2.444282 1_556
Ge16 Y0 2.995627 1_556
Ge16 Y0 2.995627 1_555
Ge16 Y3 3.071279 1_555
Ge16 Y9 3.339190 1_555
Ge17 Os5 2.444310 1_555
Ge17 Os5 2.444310 1_556
Ge17 Y0 2.994814 1_556
Ge17 Y0 2.994814 1_555
Ge17 Y2 3.071034 1_555
Ge17 Y8 3.338188 1_555
Ge18 Os6 2.444536 1_556
Ge18 Os6 2.444536 1_555
Ge18 Y1 2.994510 1_556
Ge18 Y1 2.994510 1_555
Ge18 Y4 3.071420 1_555
Ge18 Y6 3.338831 1_455
Ge19 Os7 2.444157 1_555
Ge19 Os7 2.444157 1_556
Ge19 Y1 2.995027 1_666
Ge19 Y1 2.995027 1_665
Ge19 Y5 3.070487 1_555
Ge19 Y7 3.338481 1_655
Os0 Y5 3.129095 1_555
Os0 Y5 3.129095 1_554
Os0 Y0 3.220379 1_555
Os0 Y6 3.312611 1_554
Os0 Y6 3.312611 1_555
Os1 Y4 3.128766 1_554
Os1 Y4 3.128766 1_555
Os1 Y0 3.219702 1_555
Os1 Y7 3.312704 1_554
Os1 Y7 3.312704 1_555
Os2 Y3 3.128487 1_555
Os2 Y3 3.128487 1_554
Os2 Y1 3.219942 1_565
Os2 Y8 3.312665 1_565
Os2 Y8 3.312665 1_564
Os3 Y2 3.128567 1_554
Os3 Y2 3.128567 1_555
Os3 Y1 3.219592 1_655
Os3 Y9 3.312079 1_544
Os3 Y9 3.312079 1_545
Os4 Y3 3.128916 1_554
Os4 Y3 3.128916 1_555
Os4 Y0 3.220764 1_555
Os4 Y9 3.312955 1_554
Os4 Y9 3.312955 1_555
Os5 Y2 3.128703 1_555
Os5 Y2 3.128703 1_554
Os5 Y0 3.219663 1_555
Os5 Y8 3.312145 1_555
Os5 Y8 3.312145 1_554
Os6 Y4 3.128670 1_554
Os6 Y4 3.128670 1_555
Os6 Y1 3.219711 1_555
Os6 Y6 3.312250 1_455
Os6 Y6 3.312250 1_454
Os7 Y5 3.128441 1_555
Os7 Y5 3.128441 1_554
Os7 Y1 3.219642 1_665
Os7 Y7 3.312419 1_655
Os7 Y7 3.312419 1_654
