# generated using pymatgen
data_Al4Co13Si2(SbO14)2
_symmetry_space_group_name_H-M   'P 1'
_cell_length_a   11.61202499
_cell_length_b   11.61202499
_cell_length_c   8.94328852
_cell_angle_alpha   87.42624402
_cell_angle_beta   87.42624402
_cell_angle_gamma   152.51888127
_symmetry_Int_Tables_number   1
_chemical_formula_structural   Al4Co13Si2(SbO14)2
_chemical_formula_sum   'Al4 Co13 Si2 Sb2 O28'
_cell_volume   546.43739666
_cell_formula_units_Z   1
loop_
 _symmetry_equiv_pos_site_id
 _symmetry_equiv_pos_as_xyz
  1  'x, y, z'
loop_
 _atom_site_type_symbol
 _atom_site_label
 _atom_site_symmetry_multiplicity
 _atom_site_fract_x
 _atom_site_fract_y
 _atom_site_fract_z
 _atom_site_occupancy
  Al  Al0  1  0.05729800  0.48644700  0.67230500  1
  Al  Al1  1  0.51355300  0.94270200  0.32769500  1
  Al  Al2  1  0.94270200  0.51355300  0.32769500  1
  Al  Al3  1  0.48644700  0.05729800  0.67230500  1
  Co  Co0  1  0.92903900  0.64136500  0.64814100  1
  Co  Co1  1  0.65175000  0.79192500  0.34550800  1
  Co  Co2  1  0.35863500  0.07096100  0.35185900  1
  Co  Co3  1  0.07096100  0.35863500  0.35185900  1
  Co  Co4  1  0.34825000  0.20807500  0.65449200  1
  Co  Co5  1  0.28707300  0.71292700  0.00000000  1
  Co  Co6  1  0.20807500  0.34825000  0.65449200  1
  Co  Co7  1  0.00000000  0.00000000  0.00000000  1
  Co  Co8  1  0.42908200  0.57091800  0.00000000  1
  Co  Co9  1  0.79192500  0.65175000  0.34550800  1
  Co  Co10  1  0.64136500  0.92903900  0.64814100  1
  Co  Co11  1  0.57091800  0.42908200  0.00000000  1
  Co  Co12  1  0.71292700  0.28707300  0.00000000  1
  Si  Si0  1  0.23378300  0.23378300  0.31406600  1
  Si  Si1  1  0.76621700  0.76621700  0.68593400  1
  Sb  Sb0  1  0.85873000  0.14127000  0.00000000  1
  Sb  Sb1  1  0.14127000  0.85873000  0.00000000  1
  O  O0  1  0.68727300  0.98529800  0.40103500  1
  O  O1  1  0.17974200  0.62488700  0.36343500  1
  O  O2  1  0.93226500  0.93226500  0.35675500  1
  O  O3  1  0.30869500  0.30869500  0.12535200  1
  O  O4  1  0.82025800  0.37511300  0.63656500  1
  O  O5  1  0.31272700  0.01470200  0.59896500  1
  O  O6  1  0.01465500  0.59508000  0.11888400  1
  O  O7  1  0.98534500  0.40492000  0.88111600  1
  O  O8  1  0.69130500  0.69130500  0.87464800  1
  O  O9  1  0.12492100  0.27604200  0.88425300  1
  O  O10  1  0.28900700  0.40880400  0.38335700  1
  O  O11  1  0.01470200  0.31272700  0.59896500  1
  O  O12  1  0.40492000  0.98534500  0.88111600  1
  O  O13  1  0.72395800  0.87507900  0.11574700  1
  O  O14  1  0.59119600  0.71099300  0.61664300  1
  O  O15  1  0.06773500  0.06773500  0.64324500  1
  O  O16  1  0.27604200  0.12492100  0.88425300  1
  O  O17  1  0.87507900  0.72395800  0.11574700  1
  O  O18  1  0.59508000  0.01465500  0.11888400  1
  O  O19  1  0.12990100  0.41850700  0.12083000  1
  O  O20  1  0.87009900  0.58149300  0.87917000  1
  O  O21  1  0.40880400  0.28900700  0.38335700  1
  O  O22  1  0.41850700  0.12990100  0.12083000  1
  O  O23  1  0.62488700  0.17974200  0.36343500  1
  O  O24  1  0.71099300  0.59119600  0.61664300  1
  O  O25  1  0.58149300  0.87009900  0.87917000  1
  O  O26  1  0.98529800  0.68727300  0.40103500  1
  O  O27  1  0.37511300  0.82025800  0.63656500  1
loop_
_geom_bond_atom_site_label_1
_geom_bond_atom_site_label_2
_geom_bond_distance
_geom_bond_site_symmetry_2
Al0 O11 1.766834 1_555
Al0 O27 1.774188 1_555
Al0 O4 1.775409 1_455
Al0 O7 1.838301 1_455
Al1 O0 1.766834 1_555
Al1 O1 1.774188 1_555
Al1 O23 1.775409 1_565
Al1 O18 1.838301 1_565
Al2 O26 1.766834 1_555
Al2 O23 1.774188 1_555
Al2 O1 1.775409 1_655
Al2 O6 1.838301 1_655
Al3 O5 1.766834 1_555
Al3 O4 1.774188 1_555
Al3 O27 1.775409 1_545
Al3 O12 1.838301 1_545
Co0 O20 2.029901 1_555
Co0 O5 2.054155 1_665
Co0 O4 2.067890 1_555
Co0 O24 2.071509 1_555
Co0 O26 2.177478 1_555
Co1 O2 1.975263 1_555
Co1 O0 1.983409 1_555
Co1 O13 2.021934 1_555
Co1 O10 2.033771 1_555
Co1 O14 2.393151 1_555
Co2 O22 2.029901 1_555
Co2 O26 2.054155 1_445
Co2 O23 2.067890 1_555
Co2 O21 2.071509 1_555
Co2 O5 2.177478 1_555
Co3 O19 2.029901 1_555
Co3 O0 2.054155 1_445
Co3 O1 2.067890 1_555
Co3 O10 2.071509 1_555
Co3 O11 2.177478 1_555
Co4 O15 1.975263 1_555
Co4 O5 1.983409 1_555
Co4 O16 2.021934 1_555
Co4 O24 2.033771 1_555
Co4 O21 2.393151 1_555
Co5 O19 2.146368 1_555
Co5 O25 2.146368 1_554
Co5 O7 2.154016 1_454
Co5 O18 2.154016 1_565
Co5 O12 2.212736 1_554
Co5 O6 2.212736 1_555
Co6 O15 1.975263 1_555
Co6 O11 1.983409 1_555
Co6 O9 2.021934 1_555
Co6 O14 2.033771 1_555
Co6 O10 2.393151 1_555
Co7 O9 2.183440 1_554
Co7 O16 2.183440 1_554
Co7 O17 2.183440 1_445
Co7 O13 2.183440 1_445
Co7 O3 2.208690 1_555
Co7 O8 2.208690 1_444
Co8 O13 2.111659 1_555
Co8 O9 2.111659 1_554
Co8 O3 2.117234 1_555
Co8 O8 2.117234 1_554
Co8 O25 2.225081 1_554
Co8 O19 2.225081 1_555
Co9 O2 1.975263 1_555
Co9 O26 1.983409 1_555
Co9 O17 2.021934 1_555
Co9 O21 2.033771 1_555
Co9 O24 2.393151 1_555
Co10 O25 2.029901 1_555
Co10 O11 2.054155 1_665
Co10 O27 2.067890 1_555
Co10 O14 2.071509 1_555
Co10 O0 2.177478 1_555
Co11 O17 2.111659 1_555
Co11 O16 2.111659 1_554
Co11 O8 2.117234 1_554
Co11 O3 2.117234 1_555
Co11 O20 2.225081 1_554
Co11 O22 2.225081 1_555
Co12 O22 2.146368 1_555
Co12 O20 2.146368 1_554
Co12 O12 2.154016 1_544
Co12 O6 2.154016 1_655
Co12 O7 2.212736 1_554
Co12 O18 2.212736 1_555
O2 Si0 1.634660 1_665
O3 Si0 1.659961 1_555
O6 Sb1 2.060483 1_555
O7 Sb0 2.060483 1_556
O8 Si1 1.659961 1_555
O9 Sb0 2.014736 1_456
O10 Si0 1.661941 1_555
O12 Sb1 2.060483 1_556
O13 Sb0 2.014736 1_565
O14 Si1 1.661941 1_555
O15 Si1 1.634660 1_445
O16 Sb1 2.014736 1_546
O17 Sb1 2.014736 1_655
O18 Sb0 2.060483 1_555
O19 Sb0 2.019503 1_455
O20 Sb1 2.019503 1_656
O21 Si0 1.661941 1_555
O22 Sb1 2.019503 1_545
O24 Si1 1.661941 1_555
O25 Sb0 2.019503 1_566
