# generated using pymatgen
data_LiCu6OF11
_symmetry_space_group_name_H-M   'P 1'
_cell_length_a   5.40427144
_cell_length_b   4.69260256
_cell_length_c   9.02905684
_cell_angle_alpha   88.94980115
_cell_angle_beta   90.21112799
_cell_angle_gamma   90.33107607
_symmetry_Int_Tables_number   1
_chemical_formula_structural   LiCu6OF11
_chemical_formula_sum   'Li1 Cu6 O1 F11'
_cell_volume   228.93401418
_cell_formula_units_Z   1
loop_
 _symmetry_equiv_pos_site_id
 _symmetry_equiv_pos_as_xyz
  1  'x, y, z'
loop_
 _atom_site_type_symbol
 _atom_site_label
 _atom_site_symmetry_multiplicity
 _atom_site_fract_x
 _atom_site_fract_y
 _atom_site_fract_z
 _atom_site_occupancy
  Li  Li0  1  0.32614000  0.21589600  0.54586000  1
  Cu  Cu0  1  0.00322000  0.00188800  0.00198900  1
  Cu  Cu1  1  0.50763800  0.53439900  0.03839400  1
  Cu  Cu2  1  0.34696300  0.96616400  0.29639100  1
  Cu  Cu3  1  0.82098800  0.48593800  0.31895200  1
  Cu  Cu4  1  0.14550200  0.56562700  0.71276500  1
  Cu  Cu5  1  0.68100400  0.99250800  0.68846800  1
  O  O0  1  0.55543100  0.68279500  0.23395800  1
  F  F0  1  0.28485000  0.20274300  0.07820800  1
  F  F1  1  0.05259400  0.76113300  0.23954400  1
  F  F2  1  0.79375500  0.28025300  0.07899000  1
  F  F3  1  0.11109900  0.25425800  0.38820300  1
  F  F4  1  0.60026800  0.18879300  0.40490800  1
  F  F5  1  0.37367500  0.82575400  0.60428000  1
  F  F6  1  0.87514800  0.70611500  0.59143700  1
  F  F7  1  0.46382900  0.31415900  0.73598900  1
  F  F8  1  0.22022800  0.71371900  0.92598500  1
  F  F9  1  0.97610900  0.20258500  0.75186000  1
  F  F10  1  0.72405700  0.79971800  0.91850400  1
loop_
_geom_bond_atom_site_label_1
_geom_bond_atom_site_label_2
_geom_bond_distance
_geom_bond_site_symmetry_2
Cu0 F2 1.878108 1_455
Cu0 F0 1.917797 1_555
Cu0 F8 1.932152 1_544
Cu0 F10 1.935362 1_444
Cu0 F1 2.420454 1_545
Cu0 F9 2.435185 1_454
Cu1 O0 1.925921 1_555
Cu1 F2 1.987127 1_555
Cu1 F0 1.990490 1_555
Cu1 F10 2.008218 1_554
Cu1 F8 2.030503 1_554
Cu2 O0 1.845186 1_555
Cu2 F1 1.927263 1_555
Cu2 F4 1.984065 1_565
Cu2 F3 2.051448 1_565
Cu2 F0 2.268319 1_565
Cu3 O0 1.866315 1_555
Cu3 F1 1.924155 1_655
Cu3 F4 1.979246 1_555
Cu3 F3 2.004645 1_655
Cu3 F2 2.391698 1_555
Cu4 F6 1.934493 1_455
Cu4 F9 1.956336 1_455
Cu4 F5 1.979326 1_555
Cu4 F8 2.095804 1_555
Cu4 F7 2.099456 1_555
Cu5 F6 1.934104 1_555
Cu5 F9 1.959257 1_565
Cu5 F7 1.971741 1_565
Cu5 F5 1.986496 1_555
Cu5 F10 2.261979 1_555
F3 Li0 1.841234 1_555
F4 Li0 1.962800 1_555
F5 Li0 1.914425 1_565
F7 Li0 1.931053 1_555
