# generated using pymatgen
data_KIrNCl5O2
_symmetry_space_group_name_H-M   'P 1'
_cell_length_a   6.23175500
_cell_length_b   7.19891500
_cell_length_c   23.05528100
_cell_angle_alpha   90.00000000
_cell_angle_beta   90.00000000
_cell_angle_gamma   90.00000000
_symmetry_Int_Tables_number   1
_chemical_formula_structural   KIrNCl5O2
_chemical_formula_sum   'K4 Ir4 N4 Cl20 O8'
_cell_volume   1034.30312384
_cell_formula_units_Z   4
loop_
 _symmetry_equiv_pos_site_id
 _symmetry_equiv_pos_as_xyz
  1  'x, y, z'
loop_
 _atom_site_type_symbol
 _atom_site_label
 _atom_site_symmetry_multiplicity
 _atom_site_fract_x
 _atom_site_fract_y
 _atom_site_fract_z
 _atom_site_occupancy
  K  K0  1  0.48723500  0.75000000  0.17696600  1
  K  K1  1  0.01276500  0.75000000  0.67696600  1
  K  K2  1  0.51276500  0.25000000  0.82303400  1
  K  K3  1  0.98723500  0.25000000  0.32303400  1
  Ir  Ir0  1  0.61477800  0.75000000  0.37382900  1
  Ir  Ir1  1  0.88522200  0.75000000  0.87382900  1
  Ir  Ir2  1  0.38522200  0.25000000  0.62617100  1
  Ir  Ir3  1  0.11477800  0.25000000  0.12617100  1
  N  N0  1  0.37396100  0.75000000  0.41540600  1
  N  N1  1  0.12603900  0.75000000  0.91540600  1
  N  N2  1  0.62603900  0.25000000  0.58459400  1
  N  N3  1  0.87396100  0.25000000  0.08459400  1
  Cl  Cl0  1  0.49702700  0.98293700  0.30779400  1
  Cl  Cl1  1  0.00297300  0.51706300  0.80779400  1
  Cl  Cl2  1  0.50297300  0.48293700  0.69220600  1
  Cl  Cl3  1  0.99702700  0.01706300  0.19220600  1
  Cl  Cl4  1  0.50297300  0.01706300  0.69220600  1
  Cl  Cl5  1  0.99702700  0.48293700  0.19220600  1
  Cl  Cl6  1  0.49702700  0.51706300  0.30779400  1
  Cl  Cl7  1  0.00297300  0.98293700  0.80779400  1
  Cl  Cl8  1  0.75737200  0.98525400  0.43448200  1
  Cl  Cl9  1  0.74262800  0.51474600  0.93448200  1
  Cl  Cl10  1  0.24262800  0.48525400  0.56551800  1
  Cl  Cl11  1  0.25737200  0.01474600  0.06551800  1
  Cl  Cl12  1  0.24262800  0.01474600  0.56551800  1
  Cl  Cl13  1  0.25737200  0.48525400  0.06551800  1
  Cl  Cl14  1  0.75737200  0.51474600  0.43448200  1
  Cl  Cl15  1  0.74262800  0.98525400  0.93448200  1
  Cl  Cl16  1  0.93605000  0.75000000  0.32501500  1
  Cl  Cl17  1  0.56395000  0.75000000  0.82501500  1
  Cl  Cl18  1  0.06395000  0.25000000  0.67498500  1
  Cl  Cl19  1  0.43605000  0.25000000  0.17498500  1
  O  O0  1  0.22894600  0.75000000  0.44620200  1
  O  O1  1  0.27105400  0.75000000  0.94620200  1
  O  O2  1  0.77105400  0.25000000  0.55379800  1
  O  O3  1  0.72894600  0.25000000  0.05379800  1
  O  O4  1  0.75532900  0.75000000  0.07942800  1
  O  O5  1  0.74467100  0.75000000  0.57942800  1
  O  O6  1  0.24467100  0.25000000  0.92057200  1
  O  O7  1  0.25532900  0.25000000  0.42057200  1
loop_
_geom_bond_atom_site_label_1
_geom_bond_atom_site_label_2
_geom_bond_distance
_geom_bond_site_symmetry_2
K0 O4 2.801459 1_555
K1 O5 2.801459 1_455
K2 O6 2.801459 1_555
K3 O7 2.801459 1_655
Ir0 N0 1.780728 1_555
Ir1 N1 1.780728 1_655
Ir2 N2 1.780728 1_555
Ir3 N3 1.780728 1_455
N0 O0 1.149254 1_555
N1 O1 1.149254 1_555
N2 O2 1.149254 1_555
N3 O3 1.149254 1_555
Cl0 Ir0 2.380819 1_555
Cl1 Ir1 2.380819 1_455
Cl2 Ir2 2.380819 1_555
Cl3 Ir3 2.380819 1_655
Cl4 Ir2 2.380819 1_555
Cl5 Ir3 2.380819 1_655
Cl6 Ir0 2.380819 1_555
Cl7 Ir1 2.380819 1_455
Cl8 Ir0 2.369233 1_555
Cl8 K3 3.505204 1_565
Cl9 Ir1 2.369233 1_555
Cl9 K2 3.505204 1_555
Cl10 Ir2 2.369233 1_555
Cl10 K1 3.505204 1_555
Cl11 Ir3 2.369233 1_555
Cl11 K0 3.505204 1_545
Cl12 Ir2 2.369233 1_555
Cl12 K1 3.505204 1_545
Cl13 Ir3 2.369233 1_555
Cl13 K0 3.505204 1_555
Cl14 Ir0 2.369233 1_555
Cl14 K3 3.505204 1_555
Cl15 Ir1 2.369233 1_555
Cl15 K2 3.505204 1_565
Cl16 Ir0 2.296721 1_555
Cl17 Ir1 2.296721 1_555
Cl18 Ir2 2.296721 1_555
Cl19 Ir3 2.296721 1_555
