# generated using pymatgen
data_Te2MoWS2
_symmetry_space_group_name_H-M   'P 1'
_cell_length_a   3.35577217
_cell_length_b   3.35577217
_cell_length_c   38.30585900
_cell_angle_alpha   90.00000000
_cell_angle_beta   90.00000000
_cell_angle_gamma   120.00000339
_symmetry_Int_Tables_number   1
_chemical_formula_structural   Te2MoWS2
_chemical_formula_sum   'Te4 Mo2 W2 S4'
_cell_volume   373.57754109
_cell_formula_units_Z   2
loop_
 _symmetry_equiv_pos_site_id
 _symmetry_equiv_pos_as_xyz
  1  'x, y, z'
loop_
 _atom_site_type_symbol
 _atom_site_label
 _atom_site_symmetry_multiplicity
 _atom_site_fract_x
 _atom_site_fract_y
 _atom_site_fract_z
 _atom_site_occupancy
  Te  Te0  1  0.33333300  0.66666700  0.04460800  1
  Te  Te1  1  0.33333300  0.66666700  0.42036100  1
  Te  Te2  1  0.33333300  0.66666700  0.14323800  1
  Te  Te3  1  0.33333300  0.66666700  0.51899500  1
  Mo  Mo0  1  0.00000000  0.00000000  0.09389100  1
  Mo  Mo1  1  0.00000000  0.00000000  0.46964700  1
  W  W0  1  0.33333300  0.66666700  0.28177700  1
  W  W1  1  0.33333300  0.66666700  0.65754200  1
  S  S0  1  0.00000000  0.00000000  0.32142700  1
  S  S1  1  0.00000000  0.00000000  0.69719400  1
  S  S2  1  0.00000000  0.00000000  0.24217200  1
  S  S3  1  0.00000000  0.00000000  0.61789600  1
loop_
_geom_bond_atom_site_label_1
_geom_bond_atom_site_label_2
_geom_bond_distance
_geom_bond_site_symmetry_2
Mo0 Te0 2.705110 1_545
Mo0 Te0 2.705112 1_445
Mo0 Te0 2.705112 1_555
Mo0 Te2 2.706822 1_545
Mo0 Te2 2.706824 1_445
Mo0 Te2 2.706824 1_555
Mo1 Te1 2.705190 1_545
Mo1 Te1 2.705192 1_555
Mo1 Te1 2.705192 1_445
Mo1 Te3 2.706848 1_545
Mo1 Te3 2.706850 1_445
Mo1 Te3 2.706850 1_555
S0 W0 2.461821 1_545
S0 W0 2.461824 1_445
S0 W0 2.461824 1_555
S1 W1 2.461869 1_545
S1 W1 2.461871 1_555
S1 W1 2.461871 1_445
S2 W0 2.460758 1_545
S2 W0 2.460761 1_555
S2 W0 2.460761 1_445
S3 W1 2.461727 1_545
S3 W1 2.461729 1_445
S3 W1 2.461729 1_555
