# generated using pymatgen
data_LiFe6(OF2)4
_symmetry_space_group_name_H-M   'P 1'
_cell_length_a   7.88884594
_cell_length_b   5.82071285
_cell_length_c   5.82748394
_cell_angle_alpha   69.32481985
_cell_angle_beta   69.40258555
_cell_angle_gamma   69.52866215
_symmetry_Int_Tables_number   1
_chemical_formula_structural   LiFe6(OF2)4
_chemical_formula_sum   'Li1 Fe6 O4 F8'
_cell_volume   226.44921865
_cell_formula_units_Z   1
loop_
 _symmetry_equiv_pos_site_id
 _symmetry_equiv_pos_as_xyz
  1  'x, y, z'
loop_
 _atom_site_type_symbol
 _atom_site_label
 _atom_site_symmetry_multiplicity
 _atom_site_fract_x
 _atom_site_fract_y
 _atom_site_fract_z
 _atom_site_occupancy
  Li  Li0  1  0.57372200  0.40560300  0.92655600  1
  Fe  Fe0  1  0.85259400  0.65103900  0.67171200  1
  Fe  Fe1  1  0.68014000  0.34693900  0.33098400  1
  Fe  Fe2  1  0.31592000  0.69988600  0.62984400  1
  Fe  Fe3  1  0.16119700  0.33280600  0.36164300  1
  Fe  Fe4  1  0.48967400  0.95087100  0.02384100  1
  Fe  Fe5  1  0.00000900  0.99234300  0.01740000  1
  O  O0  1  0.32180000  0.00696100  0.35255900  1
  O  O1  1  0.67516700  0.61281500  0.00253900  1
  O  O2  1  0.00098000  0.29403400  0.71216500  1
  O  O3  1  0.00121900  0.69429900  0.31121800  1
  F  F0  1  0.67247600  0.03228200  0.63292200  1
  F  F1  1  0.33715900  0.38932400  0.94676900  1
  F  F2  1  0.27952300  0.89764800  0.90456800  1
  F  F3  1  0.97916100  0.22330900  0.22830600  1
  F  F4  1  0.63354700  0.56730800  0.57666800  1
  F  F5  1  0.01692400  0.77750900  0.78449400  1
  F  F6  1  0.36871500  0.44029900  0.41593100  1
  F  F7  1  0.71507500  0.09097400  0.09696700  1
loop_
_geom_bond_atom_site_label_1
_geom_bond_atom_site_label_2
_geom_bond_distance
_geom_bond_site_symmetry_2
Li0 O1 1.895483 1_556
Fe0 O1 1.934351 1_556
Fe0 O2 1.972510 1_655
Fe0 O3 1.987786 1_655
Fe1 O1 1.994670 1_555
Fe2 O0 1.942618 1_565
Fe3 O0 1.883657 1_555
Fe3 O2 1.969359 1_555
Fe3 O3 2.018261 1_555
Fe4 O0 1.970839 1_565
Fe4 O1 2.014762 1_555
Fe5 O3 1.960564 1_555
Fe5 O2 2.010444 1_564
F0 Fe1 2.044773 1_555
F0 Fe0 2.158877 1_545
F0 Fe4 2.213158 1_546
F1 Li0 1.861916 1_555
F1 Fe2 2.086896 1_555
F1 Fe3 2.297120 1_556
F1 Fe4 2.363382 1_546
F2 Fe5 1.995999 1_556
F2 Fe4 2.156295 1_556
F2 Fe2 2.171925 1_555
F3 Fe5 2.053017 1_645
F3 Fe1 2.136349 1_555
F3 Fe3 2.201646 1_655
F4 Li0 1.882688 1_555
F4 Fe1 2.104045 1_555
F4 Fe0 2.232378 1_555
F4 Fe2 2.289131 1_555
F5 Fe0 2.064729 1_455
F5 Fe5 2.092367 1_556
F5 Fe2 2.150902 1_555
F6 Fe3 2.095767 1_555
F6 Fe2 2.129563 1_555
F6 Fe1 2.230819 1_555
F7 Li0 1.910502 1_554
F7 Fe5 2.036956 1_645
F7 Fe1 2.244684 1_555
F7 Fe4 2.408591 1_545
