# generated using pymatgen
data_SrZnCu(PO4)2
_symmetry_space_group_name_H-M   'P 1'
_cell_length_a   5.60753701
_cell_length_b   6.88705532
_cell_length_c   9.26968510
_cell_angle_alpha   108.97241179
_cell_angle_beta   102.81021869
_cell_angle_gamma   99.57188945
_symmetry_Int_Tables_number   1
_chemical_formula_structural   SrZnCu(PO4)2
_chemical_formula_sum   'Sr2 Zn2 Cu2 P4 O16'
_cell_volume   318.89578914
_cell_formula_units_Z   2
loop_
 _symmetry_equiv_pos_site_id
 _symmetry_equiv_pos_as_xyz
  1  'x, y, z'
loop_
 _atom_site_type_symbol
 _atom_site_label
 _atom_site_symmetry_multiplicity
 _atom_site_fract_x
 _atom_site_fract_y
 _atom_site_fract_z
 _atom_site_occupancy
  Sr  Sr0  1  0.25433400  0.80168000  0.05707400  1
  Sr  Sr1  1  0.74566600  0.19832000  0.94292600  1
  Zn  Zn0  1  0.99091500  0.38457100  0.64040500  1
  Zn  Zn1  1  0.00908500  0.61542900  0.35959500  1
  Cu  Cu0  1  0.63729200  0.84557200  0.54595900  1
  Cu  Cu1  1  0.36270800  0.15442800  0.45404100  1
  P  P0  1  0.39769900  0.42568900  0.23906600  1
  P  P1  1  0.60230100  0.57431100  0.76093400  1
  P  P2  1  0.83956300  0.02403000  0.29990200  1
  P  P3  1  0.16043700  0.97597000  0.70009800  1
  O  O0  1  0.80978200  0.56247600  0.89595600  1
  O  O1  1  0.66326200  0.47926700  0.21453500  1
  O  O2  1  0.65483100  0.79577900  0.74894300  1
  O  O3  1  0.94185100  0.09714200  0.68343100  1
  O  O4  1  0.33673800  0.52073300  0.78546500  1
  O  O5  1  0.03525100  0.73861100  0.58876300  1
  O  O6  1  0.96474900  0.26138900  0.41123700  1
  O  O7  1  0.26634000  0.00615200  0.87415800  1
  O  O8  1  0.34516900  0.20422100  0.25105700  1
  O  O9  1  0.73366000  0.99384800  0.12584200  1
  O  O10  1  0.19021800  0.43752400  0.10404400  1
  O  O11  1  0.37310700  0.59276900  0.39704300  1
  O  O12  1  0.62689300  0.40723100  0.60295700  1
  O  O13  1  0.62226700  0.92605800  0.35573000  1
  O  O14  1  0.05814900  0.90285800  0.31656900  1
  O  O15  1  0.37773300  0.07394200  0.64427000  1
loop_
_geom_bond_atom_site_label_1
_geom_bond_atom_site_label_2
_geom_bond_distance
_geom_bond_site_symmetry_2
Cu0 O11 1.950412 1_555
Cu0 O13 2.002254 1_555
Cu0 O2 2.004095 1_555
Cu0 O3 2.039031 1_565
Cu0 O15 2.416640 1_565
Cu0 O5 2.454404 1_655
Cu1 O12 1.950412 1_555
Cu1 O15 2.002254 1_555
Cu1 O8 2.004095 1_555
Cu1 O14 2.039031 1_545
Cu1 O13 2.416640 1_545
Cu1 O6 2.454404 1_455
O0 P1 1.542380 1_555
O0 Sr0 2.557774 1_656
O0 Sr1 2.662381 1_555
O1 P0 1.558019 1_555
O1 Zn1 1.966479 1_655
O1 Sr1 2.818148 1_554
O2 P1 1.549479 1_555
O2 Sr1 2.657328 1_565
O3 P3 1.600857 1_645
O3 Zn0 2.129375 1_555
O3 Sr1 2.796510 1_555
O4 P1 1.558019 1_555
O4 Zn0 1.966479 1_455
O4 Sr0 2.818148 1_556
O5 P3 1.558930 1_555
O5 Zn1 1.975479 1_555
O6 P2 1.558930 1_555
O6 Zn0 1.975479 1_555
O7 P3 1.521567 1_545
O7 Sr0 2.536574 1_546
O7 Sr1 2.625072 1_555
O8 P0 1.549479 1_555
O8 Sr0 2.657328 1_545
O9 P2 1.521567 1_565
O9 Sr1 2.536574 1_564
O9 Sr0 2.625072 1_555
O10 P0 1.542380 1_555
O10 Sr1 2.557774 1_454
O10 Sr0 2.662381 1_555
O11 P0 1.591920 1_555
O11 Zn1 2.034349 1_555
O12 P1 1.591920 1_555
O12 Zn0 2.034349 1_555
O13 P2 1.562391 1_565
O13 Sr0 2.827051 1_555
O14 P2 1.600857 1_465
O14 Zn1 2.129375 1_555
O14 Sr0 2.796510 1_555
O15 P3 1.562391 1_545
O15 Sr1 2.827051 1_555
