# generated using pymatgen
data_Na2PO3F
_symmetry_space_group_name_H-M   'P 1'
_cell_length_a   5.50478800
_cell_length_b   7.02512400
_cell_length_c   19.23148400
_cell_angle_alpha   90.00000000
_cell_angle_beta   90.00000000
_cell_angle_gamma   90.00000000
_symmetry_Int_Tables_number   1
_chemical_formula_structural   Na2PO3F
_chemical_formula_sum   'Na16 P8 O24 F8'
_cell_volume   743.71645477
_cell_formula_units_Z   8
loop_
 _symmetry_equiv_pos_site_id
 _symmetry_equiv_pos_as_xyz
  1  'x, y, z'
loop_
 _atom_site_type_symbol
 _atom_site_label
 _atom_site_symmetry_multiplicity
 _atom_site_fract_x
 _atom_site_fract_y
 _atom_site_fract_z
 _atom_site_occupancy
  Na  Na0  1  0.25756400  0.42024700  0.03933000  1
  Na  Na1  1  0.75756400  0.07975300  0.96067000  1
  Na  Na2  1  0.74243600  0.92024700  0.46067000  1
  Na  Na3  1  0.24243600  0.57975300  0.53933000  1
  Na  Na4  1  0.28422700  0.06126800  0.19135800  1
  Na  Na5  1  0.78422700  0.43873200  0.80864200  1
  Na  Na6  1  0.71577300  0.56126800  0.30864200  1
  Na  Na7  1  0.21577300  0.93873200  0.69135800  1
  Na  Na8  1  0.24669300  0.71102000  0.87795400  1
  Na  Na9  1  0.74669300  0.78898000  0.12204600  1
  Na  Na10  1  0.75330700  0.21102000  0.62204600  1
  Na  Na11  1  0.25330700  0.28898000  0.37795400  1
  Na  Na12  1  0.23815800  0.22078600  0.86603400  1
  Na  Na13  1  0.73815800  0.27921400  0.13396600  1
  Na  Na14  1  0.76184200  0.72078600  0.63396600  1
  Na  Na15  1  0.26184200  0.77921400  0.36603400  1
  P  P0  1  0.19848200  0.52655100  0.21170200  1
  P  P1  1  0.69848200  0.97344900  0.78829800  1
  P  P2  1  0.80151800  0.02655100  0.28829800  1
  P  P3  1  0.30151800  0.47344900  0.71170200  1
  P  P4  1  0.24012600  0.97973600  0.03122600  1
  P  P5  1  0.74012600  0.52026400  0.96877400  1
  P  P6  1  0.75987400  0.47973600  0.46877400  1
  P  P7  1  0.25987400  0.02026400  0.53122600  1
  O  O0  1  0.31418600  0.38126500  0.16316000  1
  O  O1  1  0.68581400  0.88126500  0.33684000  1
  O  O2  1  0.81418600  0.11873500  0.83684000  1
  O  O3  1  0.18581400  0.61873500  0.66316000  1
  O  O4  1  0.21732300  0.47844600  0.78707500  1
  O  O5  1  0.71732300  0.02155400  0.21292500  1
  O  O6  1  0.78267700  0.97844600  0.71292500  1
  O  O7  1  0.28267700  0.52155400  0.28707500  1
  O  O8  1  0.01527900  0.96574300  0.56242600  1
  O  O9  1  0.51527900  0.53425700  0.43757400  1
  O  O10  1  0.98472100  0.46574300  0.93757400  1
  O  O11  1  0.48472100  0.03425700  0.06242600  1
  O  O12  1  0.27770900  0.00425700  0.45253800  1
  O  O13  1  0.77770900  0.49574300  0.54746200  1
  O  O14  1  0.72229100  0.50425700  0.04746200  1
  O  O15  1  0.22229100  0.99574300  0.95253800  1
  O  O16  1  0.47711700  0.93888700  0.57048600  1
  O  O17  1  0.97711700  0.56111300  0.42951400  1
  O  O18  1  0.52288300  0.43888700  0.92951400  1
  O  O19  1  0.02288300  0.06111300  0.07048600  1
  O  O20  1  0.57428300  0.44788500  0.70173800  1
  O  O21  1  0.07428300  0.05211500  0.29826200  1
  O  O22  1  0.42571700  0.94788500  0.79826200  1
  O  O23  1  0.92571700  0.55211500  0.20173800  1
  F  F0  1  0.31617600  0.73045700  0.18395900  1
  F  F1  1  0.81617600  0.76954300  0.81604100  1
  F  F2  1  0.68382400  0.23045700  0.31604100  1
  F  F3  1  0.18382400  0.26954300  0.68395900  1
  F  F4  1  0.28238000  0.25072000  0.54460800  1
  F  F5  1  0.71762000  0.75072000  0.95539200  1
  F  F6  1  0.78238000  0.24928000  0.45539200  1
  F  F7  1  0.21762000  0.74928000  0.04460800  1
loop_
_geom_bond_atom_site_label_1
_geom_bond_atom_site_label_2
_geom_bond_distance
_geom_bond_site_symmetry_2
Na0 O0 2.417308 1_555
Na0 O10 2.487472 1_454
Na0 O18 2.571090 1_554
Na0 O14 2.630072 1_555
Na1 O2 2.417308 1_555
Na1 O11 2.487472 1_556
Na1 O19 2.571090 1_656
Na1 O15 2.630072 1_645
Na2 O1 2.417308 1_555
Na2 O8 2.487472 1_655
Na2 O16 2.571090 1_555
Na2 O12 2.630072 1_565
Na3 O3 2.417308 1_555
Na3 O9 2.487472 1_555
Na3 O17 2.571090 1_455
Na3 O13 2.630072 1_455
Na4 O0 2.318375 1_555
Na4 O21 2.359362 1_555
Na4 O5 2.435941 1_555
Na4 O11 2.720716 1_555
Na4 O19 2.733719 1_555
Na5 O2 2.318375 1_555
Na5 O20 2.359362 1_555
Na5 O4 2.435941 1_655
Na5 O10 2.720716 1_555
Na5 O18 2.733719 1_555
Na6 O1 2.318375 1_555
Na6 O23 2.359362 1_555
Na6 O7 2.435941 1_555
Na6 O9 2.720716 1_555
Na6 O17 2.733719 1_555
Na7 O3 2.318375 1_555
Na7 O22 2.359362 1_555
Na7 O6 2.435941 1_455
Na7 O8 2.720716 1_555
Na7 O16 2.733719 1_555
Na8 O4 2.397964 1_555
Na8 O15 2.465014 1_555
Na8 O22 2.467581 1_555
Na8 O10 2.522574 1_455
Na8 O18 2.636209 1_555
Na9 O5 2.397964 1_565
Na9 O14 2.465014 1_555
Na9 O23 2.467581 1_555
Na9 O11 2.522574 1_565
Na9 O19 2.636209 1_665
Na10 O6 2.397964 1_545
Na10 O13 2.465014 1_555
Na10 O20 2.467581 1_555
Na10 O8 2.522574 1_645
Na10 O16 2.636209 1_545
Na11 O7 2.397964 1_555
Na11 O12 2.465014 1_555
Na11 O21 2.467581 1_555
Na11 O9 2.522574 1_555
Na11 O17 2.636209 1_455
Na12 O15 2.296653 1_545
Na12 O4 2.365466 1_555
Na12 O2 2.505229 1_455
Na12 O18 2.508899 1_555
Na12 O22 2.537765 1_545
Na12 O10 2.607790 1_455
Na13 O14 2.296653 1_555
Na13 O5 2.365466 1_555
Na13 O0 2.505229 1_555
Na13 O19 2.508899 1_655
Na13 O23 2.537765 1_555
Na13 O11 2.607790 1_555
Na14 O13 2.296653 1_555
Na14 O6 2.365466 1_555
Na14 O3 2.505229 1_655
Na14 O16 2.508899 1_555
Na14 O20 2.537765 1_555
Na14 O8 2.607790 1_655
Na15 O12 2.296653 1_565
Na15 O7 2.365466 1_555
Na15 O1 2.505229 1_555
Na15 O17 2.508899 1_455
Na15 O21 2.537765 1_565
Na15 O9 2.607790 1_555
O0 P0 1.522791 1_555
O1 P2 1.522791 1_565
O2 P1 1.522791 1_545
O3 P3 1.522791 1_555
O4 P3 1.522233 1_555
O5 P2 1.522233 1_555
O6 P1 1.522233 1_555
O7 P0 1.522233 1_555
O8 P7 1.523036 1_565
O9 P6 1.523036 1_555
O10 P5 1.523036 1_555
O11 P4 1.523036 1_545
O12 P7 1.520632 1_555
O13 P6 1.520632 1_555
O14 P5 1.520632 1_554
O15 P4 1.520632 1_556
O16 P7 1.525454 1_565
O17 P6 1.525454 1_555
O18 P5 1.525454 1_555
O19 P4 1.525454 1_545
O20 P3 1.524308 1_555
O21 P2 1.524308 1_455
O22 P1 1.524308 1_555
O23 P0 1.524308 1_655
F0 P0 1.660232 1_555
F0 Na4 2.334973 1_565
F0 Na9 2.683877 1_555
F1 P1 1.660232 1_555
F1 Na5 2.334973 1_555
F1 Na8 2.683877 1_655
F2 P2 1.660232 1_555
F2 Na6 2.334973 1_555
F2 Na11 2.683877 1_555
F3 P3 1.660232 1_555
F3 Na7 2.334973 1_545
F3 Na10 2.683877 1_455
F4 P7 1.643984 1_555
F4 Na3 2.324150 1_555
F5 P5 1.643984 1_555
F5 Na1 2.324150 1_565
F6 P6 1.643984 1_555
F6 Na2 2.324150 1_545
F7 P4 1.643984 1_555
F7 Na0 2.324150 1_555
