# generated using pymatgen
data_CaLaCrSbO6
_symmetry_space_group_name_H-M   'P 1'
_cell_length_a   5.68600237
_cell_length_b   5.89606000
_cell_length_c   7.85187011
_cell_angle_alpha   90.01431397
_cell_angle_beta   90.18307018
_cell_angle_gamma   89.90670399
_symmetry_Int_Tables_number   1
_chemical_formula_structural   CaLaCrSbO6
_chemical_formula_sum   'Ca2 La2 Cr2 Sb2 O12'
_cell_volume   263.23233235
_cell_formula_units_Z   2
loop_
 _symmetry_equiv_pos_site_id
 _symmetry_equiv_pos_as_xyz
  1  'x, y, z'
loop_
 _atom_site_type_symbol
 _atom_site_label
 _atom_site_symmetry_multiplicity
 _atom_site_fract_x
 _atom_site_fract_y
 _atom_site_fract_z
 _atom_site_occupancy
  Ca  Ca0  1  0.48847400  0.44370700  0.75129600  1
  Ca  Ca1  1  0.98832500  0.05629600  0.25128700  1
  La  La0  1  0.01160200  0.94643800  0.74954100  1
  La  La1  1  0.51141200  0.55360900  0.24953600  1
  Cr  Cr0  1  0.50057800  0.00261000  0.49929800  1
  Cr  Cr1  1  0.00053000  0.49741700  0.99935100  1
  Sb  Sb0  1  0.50041500  0.00285000  0.00094500  1
  Sb  Sb1  1  0.00038700  0.49713500  0.50096500  1
  O  O0  1  0.09827000  0.46103000  0.25282700  1
  O  O1  1  0.21484400  0.18841600  0.94917400  1
  O  O2  1  0.18519400  0.21193700  0.55183400  1
  O  O3  1  0.31695100  0.71519400  0.94647300  1
  O  O4  1  0.28762800  0.68135800  0.55138500  1
  O  O5  1  0.39622000  0.96592600  0.24704500  1
  O  O6  1  0.59828500  0.03900800  0.75284000  1
  O  O7  1  0.71534300  0.31193700  0.44922200  1
  O  O8  1  0.68471300  0.28753800  0.05191400  1
  O  O9  1  0.81644900  0.78531600  0.44655500  1
  O  O10  1  0.78813500  0.81824400  0.05142200  1
  O  O11  1  0.89624200  0.53403600  0.74709100  1
loop_
_geom_bond_atom_site_label_1
_geom_bond_atom_site_label_2
_geom_bond_distance
_geom_bond_site_symmetry_2
Ca0 O11 2.380131 1_555
Ca0 O4 2.390790 1_555
Ca0 O3 2.421825 1_555
Ca0 O6 2.465509 1_555
Ca0 O1 2.669200 1_555
Ca0 O2 2.698760 1_555
Ca0 O8 2.765022 1_556
Ca0 O7 2.812236 1_555
Ca1 O5 2.379199 1_645
Ca1 O10 2.391887 1_545
Ca1 O9 2.423722 1_545
Ca1 O0 2.467864 1_655
Ca1 O7 2.665177 1_555
Ca1 O8 2.695537 1_555
Ca1 O2 2.765767 1_655
Ca1 O1 2.813637 1_654
La0 O6 2.412020 1_465
La0 O1 2.412617 1_565
La0 O2 2.418805 1_565
La0 O11 2.519550 1_455
La0 O3 2.690830 1_555
La0 O4 2.707995 1_555
La0 O9 2.789064 1_455
La0 O10 2.797774 1_456
La1 O7 2.411927 1_555
La1 O0 2.412797 1_555
La1 O8 2.417299 1_555
La1 O5 2.516769 1_555
La1 O9 2.693937 1_555
La1 O10 2.711995 1_555
La1 O3 2.788134 1_554
La1 O4 2.796241 1_555
Cr0 O6 2.076298 1_555
Cr0 O5 2.077157 1_545
Cr0 O2 2.215066 1_555
Cr0 O7 2.232214 1_555
Cr0 O9 2.244034 1_545
Cr0 O4 2.287378 1_545
Cr1 O0 2.075760 1_556
Cr1 O11 2.076959 1_455
Cr1 O8 2.222282 1_456
Cr1 O1 2.225970 1_555
Cr1 O3 2.251818 1_555
Cr1 O10 2.280173 1_456
O0 Sb1 2.038988 1_555
O1 Sb0 1.997278 1_556
O2 Sb1 2.020701 1_555
O3 Sb0 2.037214 1_566
O4 Sb1 2.001371 1_555
O5 Sb0 2.034773 1_565
O6 Sb0 2.039044 1_556
O7 Sb1 1.996395 1_655
O8 Sb0 2.019529 1_555
O9 Sb1 2.038415 1_655
O10 Sb0 2.002123 1_565
O11 Sb1 2.034559 1_655
