# generated using pymatgen
data_Rb3Na(RuO4)2
_symmetry_space_group_name_H-M   'P 1'
_cell_length_a   6.20753028
_cell_length_b   6.20753028
_cell_length_c   8.06452700
_cell_angle_alpha   90.00000000
_cell_angle_beta   90.00000000
_cell_angle_gamma   120.00000300
_symmetry_Int_Tables_number   1
_chemical_formula_structural   Rb3Na(RuO4)2
_chemical_formula_sum   'Rb3 Na1 Ru2 O8'
_cell_volume   269.12076736
_cell_formula_units_Z   1
loop_
 _symmetry_equiv_pos_site_id
 _symmetry_equiv_pos_as_xyz
  1  'x, y, z'
loop_
 _atom_site_type_symbol
 _atom_site_label
 _atom_site_symmetry_multiplicity
 _atom_site_fract_x
 _atom_site_fract_y
 _atom_site_fract_z
 _atom_site_occupancy
  Rb  Rb0  1  0.66666700  0.33333300  0.34091600  1
  Rb  Rb1  1  0.00000000  0.00000000  0.00000000  1
  Rb  Rb2  1  0.33333300  0.66666700  0.65908400  1
  Na  Na0  1  0.00000000  0.00000000  0.50000000  1
  Ru  Ru0  1  0.66666700  0.33333300  0.77882200  1
  Ru  Ru1  1  0.33333300  0.66666700  0.22117800  1
  O  O0  1  0.17799000  0.35598000  0.30752600  1
  O  O1  1  0.64402000  0.82201000  0.30752600  1
  O  O2  1  0.17799000  0.82201000  0.30752600  1
  O  O3  1  0.82201000  0.64402000  0.69247400  1
  O  O4  1  0.82201000  0.17799000  0.69247400  1
  O  O5  1  0.35598000  0.17799000  0.69247400  1
  O  O6  1  0.66666700  0.33333300  0.99846400  1
  O  O7  1  0.33333300  0.66666700  0.00153600  1
loop_
_geom_bond_atom_site_label_1
_geom_bond_atom_site_label_2
_geom_bond_distance
_geom_bond_site_symmetry_2
Na0 O1 2.464068 1_445
Na0 O3 2.464068 1_445
Na0 O0 2.464068 1_555
Na0 O5 2.464068 1_555
Na0 O2 2.464068 1_545
Na0 O4 2.464068 1_455
O0 Ru1 1.809567 1_555
O0 Rb0 3.117799 1_455
O0 Rb0 3.117805 1_555
O0 Rb1 3.132559 1_555
O0 Rb2 3.290546 1_555
O1 Ru1 1.809567 1_555
O1 Rb0 3.117799 1_565
O1 Rb0 3.117805 1_555
O1 Rb1 3.132559 1_665
O1 Rb2 3.290546 1_555
O2 Ru1 1.809562 1_555
O2 Rb0 3.117802 1_565
O2 Rb0 3.117802 1_455
O2 Rb1 3.132559 1_565
O2 Rb2 3.290543 1_555
O3 Ru0 1.809567 1_555
O3 Rb2 3.117799 1_655
O3 Rb2 3.117805 1_555
O3 Rb1 3.132559 1_666
O3 Rb0 3.290546 1_555
O4 Ru0 1.809562 1_555
O4 Rb2 3.117802 1_655
O4 Rb2 3.117802 1_545
O4 Rb1 3.132559 1_656
O4 Rb0 3.290543 1_555
O5 Ru0 1.809567 1_555
O5 Rb2 3.117799 1_545
O5 Rb2 3.117805 1_555
O5 Rb1 3.132559 1_556
O5 Rb0 3.290546 1_555
O6 Ru0 1.771309 1_555
O6 Rb0 2.761713 1_556
O7 Ru1 1.771309 1_555
O7 Rb2 2.761713 1_554
