# generated using pymatgen
data_Rb2Cu3(P2O7)2
_symmetry_space_group_name_H-M   'P 1'
_cell_length_a   10.77967100
_cell_length_b   7.82883300
_cell_length_c   7.90874166
_cell_angle_alpha   75.97064603
_cell_angle_beta   90.00000000
_cell_angle_gamma   90.00000000
_symmetry_Int_Tables_number   1
_chemical_formula_structural   Rb2Cu3(P2O7)2
_chemical_formula_sum   'Rb4 Cu6 P8 O28'
_cell_volume   647.52793269
_cell_formula_units_Z   2
loop_
 _symmetry_equiv_pos_site_id
 _symmetry_equiv_pos_as_xyz
  1  'x, y, z'
loop_
 _atom_site_type_symbol
 _atom_site_label
 _atom_site_symmetry_multiplicity
 _atom_site_fract_x
 _atom_site_fract_y
 _atom_site_fract_z
 _atom_site_occupancy
  Rb  Rb0  1  0.81052000  0.26129000  0.54593900  1
  Rb  Rb1  1  0.31052000  0.73871000  0.95406100  1
  Rb  Rb2  1  0.18948000  0.73871000  0.45406100  1
  Rb  Rb3  1  0.68948000  0.26129000  0.04593900  1
  Cu  Cu0  1  0.00000000  0.00000000  0.00000000  1
  Cu  Cu1  1  0.50000000  0.00000000  0.50000000  1
  Cu  Cu2  1  0.89787600  0.72900700  0.76918900  1
  Cu  Cu3  1  0.39787600  0.27099300  0.73081100  1
  Cu  Cu4  1  0.10212400  0.27099300  0.23081100  1
  Cu  Cu5  1  0.60212400  0.72900700  0.26918900  1
  P  P0  1  0.05180100  0.38214300  0.83576000  1
  P  P1  1  0.55180100  0.61785700  0.66424000  1
  P  P2  1  0.94819900  0.61785700  0.16424000  1
  P  P3  1  0.44819900  0.38214300  0.33576000  1
  P  P4  1  0.16020800  0.12065900  0.65639500  1
  P  P5  1  0.66020800  0.87934100  0.84360500  1
  P  P6  1  0.83979200  0.87934100  0.34360500  1
  P  P7  1  0.33979200  0.12065900  0.15639500  1
  O  O0  1  0.87487500  0.58316900  0.01005700  1
  O  O1  1  0.37487500  0.41683100  0.48994300  1
  O  O2  1  0.12512500  0.41683100  0.98994300  1
  O  O3  1  0.62512500  0.58316900  0.51005700  1
  O  O4  1  0.09166500  0.97652000  0.79122600  1
  O  O5  1  0.59166500  0.02348000  0.70877400  1
  O  O6  1  0.90833500  0.02348000  0.20877400  1
  O  O7  1  0.40833500  0.97652000  0.29122600  1
  O  O8  1  0.00657500  0.55172100  0.70983900  1
  O  O9  1  0.50657500  0.44827900  0.79016100  1
  O  O10  1  0.99342500  0.44827900  0.29016100  1
  O  O11  1  0.49342500  0.55172100  0.20983900  1
  O  O12  1  0.80102300  0.91682400  0.83766200  1
  O  O13  1  0.30102300  0.08317600  0.66233800  1
  O  O14  1  0.19897700  0.08317600  0.16233800  1
  O  O15  1  0.69897700  0.91682400  0.33766200  1
  O  O16  1  0.15242800  0.30654200  0.71725400  1
  O  O17  1  0.65242800  0.69345800  0.78274600  1
  O  O18  1  0.84757200  0.69345800  0.28274600  1
  O  O19  1  0.34757200  0.30654200  0.21725400  1
  O  O20  1  0.10123700  0.14417100  0.47799900  1
  O  O21  1  0.60123700  0.85582900  0.02200100  1
  O  O22  1  0.89876300  0.85582900  0.52200100  1
  O  O23  1  0.39876300  0.14417100  0.97799900  1
  O  O24  1  0.94888700  0.24212600  0.88409800  1
  O  O25  1  0.44888700  0.75787400  0.61590200  1
  O  O26  1  0.05111300  0.75787400  0.11590200  1
  O  O27  1  0.55111300  0.24212600  0.38409800  1
loop_
_geom_bond_atom_site_label_1
_geom_bond_atom_site_label_2
_geom_bond_distance
_geom_bond_site_symmetry_2
Cu0 O4 1.970682 1_544
Cu0 O6 1.970682 1_455
Cu0 O24 1.973459 1_454
Cu0 O26 1.973459 1_545
Cu1 O7 1.970682 1_545
Cu1 O5 1.970682 1_555
Cu1 O27 1.973459 1_555
Cu1 O25 1.973459 1_545
Cu2 O8 1.958453 1_655
Cu2 O22 1.966372 1_555
Cu2 O12 1.982773 1_555
Cu2 O0 1.984798 1_556
Cu3 O9 1.958453 1_555
Cu3 O23 1.966372 1_555
Cu3 O13 1.982773 1_555
Cu3 O1 1.984798 1_555
Cu4 O10 1.958453 1_455
Cu4 O20 1.966372 1_555
Cu4 O14 1.982773 1_555
Cu4 O2 1.984798 1_554
Cu5 O11 1.958453 1_555
Cu5 O21 1.966372 1_555
Cu5 O15 1.982773 1_555
Cu5 O3 1.984798 1_555
O0 P2 1.531655 1_555
O0 Rb3 3.174570 1_555
O1 P3 1.531655 1_555
O1 Rb2 3.174570 1_555
O2 P0 1.531655 1_555
O2 Rb1 3.174570 1_555
O3 P1 1.531655 1_555
O3 Rb0 3.174570 1_555
O4 P4 1.540451 1_565
O4 Rb1 3.086742 1_555
O5 P5 1.540451 1_545
O5 Rb0 3.086742 1_555
O6 P6 1.540451 1_545
O6 Rb3 3.086742 1_555
O7 P7 1.540451 1_565
O7 Rb2 3.086742 1_555
O8 P0 1.533280 1_555
O8 Rb2 2.947328 1_555
O9 P1 1.533280 1_555
O9 Rb3 2.947328 1_556
O10 P2 1.533280 1_555
O10 Rb0 2.947328 1_555
O11 P3 1.533280 1_555
O11 Rb1 2.947328 1_554
O12 P5 1.544595 1_555
O12 Rb0 3.096680 1_565
O13 P4 1.544595 1_555
O13 Rb1 3.096680 1_545
O14 P7 1.544595 1_555
O14 Rb2 3.096680 1_545
O15 P6 1.544595 1_555
O15 Rb3 3.096680 1_565
O16 P0 1.635326 1_555
O16 P4 1.641963 1_555
O17 P1 1.635326 1_555
O17 P5 1.641963 1_555
O18 P2 1.635326 1_555
O18 P6 1.641963 1_555
O19 P3 1.635326 1_555
O19 P7 1.641963 1_555
O20 P4 1.517456 1_555
O20 Rb0 3.345027 1_455
O20 Rb2 3.362758 1_545
O21 P5 1.517456 1_554
O21 Rb1 3.345027 1_554
O21 Rb3 3.362758 1_565
O22 P6 1.517456 1_555
O22 Rb2 3.345027 1_655
O22 Rb0 3.362758 1_565
O23 P7 1.517456 1_556
O23 Rb3 3.345027 1_556
O23 Rb1 3.362758 1_545
O24 P0 1.541195 1_655
O24 Rb0 3.034003 1_555
O24 Rb3 3.094079 1_556
O25 P1 1.541195 1_555
O25 Rb1 3.034003 1_555
O25 Rb2 3.094079 1_555
O26 P2 1.541195 1_455
O26 Rb2 3.034003 1_555
O26 Rb1 3.094079 1_554
O27 P3 1.541195 1_555
O27 Rb3 3.034003 1_555
O27 Rb0 3.094079 1_555
