# generated using pymatgen
data_Mg2Fe
_symmetry_space_group_name_H-M   'P 1'
_cell_length_a   15.42139105
_cell_length_b   15.42139105
_cell_length_c   6.24964200
_cell_angle_alpha   90.00000000
_cell_angle_beta   90.00000000
_cell_angle_gamma   144.64198240
_symmetry_Int_Tables_number   1
_chemical_formula_structural   Mg2Fe
_chemical_formula_sum   'Mg32 Fe16'
_cell_volume   860.08926145
_cell_formula_units_Z   16
loop_
 _symmetry_equiv_pos_site_id
 _symmetry_equiv_pos_as_xyz
  1  'x, y, z'
loop_
 _atom_site_type_symbol
 _atom_site_label
 _atom_site_symmetry_multiplicity
 _atom_site_fract_x
 _atom_site_fract_y
 _atom_site_fract_z
 _atom_site_occupancy
  Mg  Mg0_0  1  0.45737300  0.04262700  0.37500000  1
  Mg  Mg0_1  1  0.45737300  0.04262700  0.87500000  1
  Mg  Mg0_2  1  0.45737300  0.54262700  0.37500000  1
  Mg  Mg0_3  1  0.45737300  0.54262700  0.87500000  1
  Mg  Mg0_4  1  0.95737300  0.04262700  0.37500000  1
  Mg  Mg0_5  1  0.95737300  0.04262700  0.87500000  1
  Mg  Mg0_6  1  0.95737300  0.54262700  0.37500000  1
  Mg  Mg0_7  1  0.95737300  0.54262700  0.87500000  1
  Mg  Mg1_0  1  0.04262700  0.45737300  0.12500000  1
  Mg  Mg1_1  1  0.04262700  0.45737300  0.62500000  1
  Mg  Mg1_2  1  0.04262700  0.95737300  0.12500000  1
  Mg  Mg1_3  1  0.04262700  0.95737300  0.62500000  1
  Mg  Mg1_4  1  0.54262700  0.45737300  0.12500000  1
  Mg  Mg1_5  1  0.54262700  0.45737300  0.62500000  1
  Mg  Mg1_6  1  0.54262700  0.95737300  0.12500000  1
  Mg  Mg1_7  1  0.54262700  0.95737300  0.62500000  1
  Mg  Mg2_0  1  0.14152000  0.35848000  0.37500000  1
  Mg  Mg2_1  1  0.14152000  0.35848000  0.87500000  1
  Mg  Mg2_2  1  0.14152000  0.85848000  0.37500000  1
  Mg  Mg2_3  1  0.14152000  0.85848000  0.87500000  1
  Mg  Mg2_4  1  0.64152000  0.35848000  0.37500000  1
  Mg  Mg2_5  1  0.64152000  0.35848000  0.87500000  1
  Mg  Mg2_6  1  0.64152000  0.85848000  0.37500000  1
  Mg  Mg2_7  1  0.64152000  0.85848000  0.87500000  1
  Mg  Mg3_0  1  0.35848000  0.14152000  0.12500000  1
  Mg  Mg3_1  1  0.35848000  0.14152000  0.62500000  1
  Mg  Mg3_2  1  0.35848000  0.64152000  0.12500000  1
  Mg  Mg3_3  1  0.35848000  0.64152000  0.62500000  1
  Mg  Mg3_4  1  0.85848000  0.14152000  0.12500000  1
  Mg  Mg3_5  1  0.85848000  0.14152000  0.62500000  1
  Mg  Mg3_6  1  0.85848000  0.64152000  0.12500000  1
  Mg  Mg3_7  1  0.85848000  0.64152000  0.62500000  1
  Fe  Fe0_0  1  0.27928350  0.22071650  0.37500000  1
  Fe  Fe0_1  1  0.27928350  0.22071650  0.87500000  1
  Fe  Fe0_2  1  0.27928350  0.72071650  0.37500000  1
  Fe  Fe0_3  1  0.27928350  0.72071650  0.87500000  1
  Fe  Fe0_4  1  0.77928350  0.22071650  0.37500000  1
  Fe  Fe0_5  1  0.77928350  0.22071650  0.87500000  1
  Fe  Fe0_6  1  0.77928350  0.72071650  0.37500000  1
  Fe  Fe0_7  1  0.77928350  0.72071650  0.87500000  1
  Fe  Fe1_0  1  0.22071650  0.27928350  0.12500000  1
  Fe  Fe1_1  1  0.22071650  0.27928350  0.62500000  1
  Fe  Fe1_2  1  0.22071650  0.77928350  0.12500000  1
  Fe  Fe1_3  1  0.22071650  0.77928350  0.62500000  1
  Fe  Fe1_4  1  0.72071650  0.27928350  0.12500000  1
  Fe  Fe1_5  1  0.72071650  0.27928350  0.62500000  1
  Fe  Fe1_6  1  0.72071650  0.77928350  0.12500000  1
  Fe  Fe1_7  1  0.72071650  0.77928350  0.62500000  1
loop_
_geom_bond_atom_site_label_1
_geom_bond_atom_site_label_2
_geom_bond_distance
_geom_bond_site_symmetry_2
Mg0_0 Mg1_6 2.952557 1_545
Mg0_0 Mg1_7 2.952557 1_545
Mg0_0 Mg2_2 3.037768 1_545
Mg0_0 Mg2_4 3.037768 1_555
Mg0_0 Mg0_1 3.124821 1_554
Mg0_0 Mg0_1 3.124821 1_555
Mg0_0 Mg3_0 3.299464 1_555
Mg0_0 Mg3_1 3.299464 1_555
Mg0_1 Mg1_6 2.952557 1_546
Mg0_1 Mg1_7 2.952557 1_545
Mg0_1 Mg2_3 3.037768 1_545
Mg0_1 Mg2_5 3.037768 1_555
Mg0_1 Mg3_1 3.299464 1_555
Mg0_1 Mg3_0 3.299464 1_556
Mg0_2 Mg1_4 2.952557 1_555
Mg0_2 Mg1_5 2.952557 1_555
Mg0_2 Mg2_6 3.037768 1_555
Mg0_2 Mg2_0 3.037768 1_555
Mg0_2 Mg0_3 3.124821 1_554
Mg0_2 Mg0_3 3.124821 1_555
Mg0_2 Mg3_2 3.299464 1_555
Mg0_2 Mg3_3 3.299464 1_555
Mg0_3 Mg1_5 2.952557 1_555
Mg0_3 Mg1_4 2.952557 1_556
Mg0_3 Mg2_7 3.037768 1_555
Mg0_3 Mg2_1 3.037768 1_555
Mg0_3 Mg3_2 3.299464 1_556
Mg0_3 Mg3_3 3.299464 1_555
Mg0_4 Mg1_2 2.952557 1_645
Mg0_4 Mg1_3 2.952557 1_645
Mg0_4 Mg2_6 3.037768 1_545
Mg0_4 Mg2_0 3.037768 1_655
Mg0_4 Mg0_5 3.124821 1_554
Mg0_4 Mg0_5 3.124821 1_555
Mg0_4 Mg3_4 3.299464 1_555
Mg0_4 Mg3_5 3.299464 1_555
Mg0_5 Mg1_3 2.952557 1_645
Mg0_5 Mg1_2 2.952557 1_646
Mg0_5 Mg2_7 3.037768 1_545
Mg0_5 Mg2_1 3.037768 1_655
Mg0_5 Mg3_4 3.299464 1_556
Mg0_5 Mg3_5 3.299464 1_555
Mg0_6 Mg1_0 2.952557 1_655
Mg0_6 Mg1_1 2.952557 1_655
Mg0_6 Mg2_2 3.037768 1_655
Mg0_6 Mg2_4 3.037768 1_555
Mg0_6 Mg0_7 3.124821 1_554
Mg0_6 Mg0_7 3.124821 1_555
Mg0_6 Mg3_6 3.299464 1_555
Mg0_6 Mg3_7 3.299464 1_555
Mg0_7 Mg1_1 2.952557 1_655
Mg0_7 Mg1_0 2.952557 1_656
Mg0_7 Mg2_3 3.037768 1_655
Mg0_7 Mg2_5 3.037768 1_555
Mg0_7 Mg3_7 3.299464 1_555
Mg0_7 Mg3_6 3.299464 1_556
Mg1_0 Mg3_2 3.037768 1_555
Mg1_0 Mg3_4 3.037768 1_455
Mg1_0 Mg1_1 3.124821 1_555
Mg1_0 Mg1_1 3.124821 1_554
Mg1_0 Mg2_0 3.299464 1_555
Mg1_0 Mg2_1 3.299464 1_554
Mg1_1 Mg3_5 3.037768 1_455
Mg1_1 Mg3_3 3.037768 1_555
Mg1_1 Mg2_0 3.299464 1_555
Mg1_1 Mg2_1 3.299464 1_555
Mg1_2 Mg3_0 3.037768 1_565
Mg1_2 Mg3_6 3.037768 1_455
Mg1_2 Mg1_3 3.124821 1_555
Mg1_2 Mg1_3 3.124821 1_554
Mg1_2 Mg2_3 3.299464 1_554
Mg1_2 Mg2_2 3.299464 1_555
Mg1_3 Mg3_1 3.037768 1_565
Mg1_3 Mg3_7 3.037768 1_455
Mg1_3 Mg2_3 3.299464 1_555
Mg1_3 Mg2_2 3.299464 1_555
Mg1_4 Mg3_0 3.037768 1_555
Mg1_4 Mg3_6 3.037768 1_555
Mg1_4 Mg1_5 3.124821 1_555
Mg1_4 Mg1_5 3.124821 1_554
Mg1_4 Mg2_4 3.299464 1_555
Mg1_4 Mg2_5 3.299464 1_554
Mg1_5 Mg3_1 3.037768 1_555
Mg1_5 Mg3_7 3.037768 1_555
Mg1_5 Mg2_5 3.299464 1_555
Mg1_5 Mg2_4 3.299464 1_555
Mg1_6 Mg3_2 3.037768 1_555
Mg1_6 Mg3_4 3.037768 1_565
Mg1_6 Mg1_7 3.124821 1_555
Mg1_6 Mg1_7 3.124821 1_554
Mg1_6 Mg2_6 3.299464 1_555
Mg1_6 Mg2_7 3.299464 1_554
Mg1_7 Mg3_3 3.037768 1_555
Mg1_7 Mg3_5 3.037768 1_565
Mg1_7 Mg2_7 3.299464 1_555
Mg1_7 Mg2_6 3.299464 1_555
Mg2_0 Mg3_2 2.977746 1_555
Mg2_0 Mg3_4 2.977746 1_455
Mg2_0 Mg3_3 2.977746 1_555
Mg2_0 Mg3_5 2.977746 1_455
Mg2_0 Mg2_1 3.124821 1_554
Mg2_0 Mg2_1 3.124821 1_555
Mg2_1 Mg3_2 2.977746 1_556
Mg2_1 Mg3_3 2.977746 1_555
Mg2_1 Mg3_4 2.977746 1_456
Mg2_1 Mg3_5 2.977746 1_455
Mg2_2 Mg3_6 2.977746 1_455
Mg2_2 Mg3_0 2.977746 1_565
Mg2_2 Mg3_1 2.977746 1_565
Mg2_2 Mg3_7 2.977746 1_455
Mg2_2 Mg2_3 3.124821 1_554
Mg2_2 Mg2_3 3.124821 1_555
Mg2_3 Mg3_1 2.977746 1_565
Mg2_3 Mg3_6 2.977746 1_456
Mg2_3 Mg3_0 2.977746 1_566
Mg2_3 Mg3_7 2.977746 1_455
Mg2_4 Mg3_6 2.977746 1_555
Mg2_4 Mg3_7 2.977746 1_555
Mg2_4 Mg3_0 2.977746 1_555
Mg2_4 Mg3_1 2.977746 1_555
Mg2_4 Mg2_5 3.124821 1_554
Mg2_4 Mg2_5 3.124821 1_555
Mg2_5 Mg3_6 2.977746 1_556
Mg2_5 Mg3_7 2.977746 1_555
Mg2_5 Mg3_0 2.977746 1_556
Mg2_5 Mg3_1 2.977746 1_555
Mg2_6 Mg3_4 2.977746 1_565
Mg2_6 Mg3_2 2.977746 1_555
Mg2_6 Mg3_3 2.977746 1_555
Mg2_6 Mg3_5 2.977746 1_565
Mg2_6 Mg2_7 3.124821 1_554
Mg2_6 Mg2_7 3.124821 1_555
Mg2_7 Mg3_5 2.977746 1_565
Mg2_7 Mg3_4 2.977746 1_566
Mg2_7 Mg3_2 2.977746 1_556
Mg2_7 Mg3_3 2.977746 1_555
Mg3_0 Mg3_1 3.124821 1_555
Mg3_0 Mg3_1 3.124821 1_554
Mg3_2 Mg3_3 3.124821 1_555
Mg3_2 Mg3_3 3.124821 1_554
Mg3_4 Mg3_5 3.124821 1_555
Mg3_4 Mg3_5 3.124821 1_554
Mg3_6 Mg3_7 3.124821 1_555
Mg3_6 Mg3_7 3.124821 1_554
Fe0_0 Fe1_0 2.324472 1_555
Fe0_0 Fe1_1 2.324472 1_555
Fe0_0 Mg3_0 2.803099 1_555
Fe0_0 Mg3_1 2.803099 1_555
Fe0_0 Mg1_2 2.842189 1_545
Fe0_0 Mg1_3 2.842189 1_545
Fe0_0 Mg1_4 2.842189 1_555
Fe0_0 Mg1_5 2.842189 1_555
Fe0_0 Mg0_4 3.154150 1_455
Fe0_0 Mg0_2 3.154150 1_555
Fe0_1 Fe1_1 2.324472 1_555
Fe0_1 Fe1_0 2.324472 1_556
Fe0_1 Mg3_0 2.803099 1_556
Fe0_1 Mg3_1 2.803099 1_555
Fe0_1 Mg1_2 2.842189 1_546
Fe0_1 Mg1_3 2.842189 1_545
Fe0_1 Mg1_5 2.842189 1_555
Fe0_1 Mg1_4 2.842189 1_556
Fe0_1 Mg0_5 3.154150 1_455
Fe0_1 Mg0_3 3.154150 1_555
Fe0_2 Fe1_2 2.324472 1_555
Fe0_2 Fe1_3 2.324472 1_555
Fe0_2 Mg3_2 2.803099 1_555
Fe0_2 Mg3_3 2.803099 1_555
Fe0_2 Mg1_1 2.842189 1_555
Fe0_2 Mg1_0 2.842189 1_555
Fe0_2 Mg1_6 2.842189 1_555
Fe0_2 Mg1_7 2.842189 1_555
Fe0_2 Mg0_6 3.154150 1_455
Fe0_2 Mg0_0 3.154150 1_565
Fe0_3 Fe1_3 2.324472 1_555
Fe0_3 Fe1_2 2.324472 1_556
Fe0_3 Mg3_2 2.803099 1_556
Fe0_3 Mg3_3 2.803099 1_555
Fe0_3 Mg1_0 2.842189 1_556
Fe0_3 Mg1_1 2.842189 1_555
Fe0_3 Mg1_7 2.842189 1_555
Fe0_3 Mg1_6 2.842189 1_556
Fe0_3 Mg0_7 3.154150 1_455
Fe0_3 Mg0_1 3.154150 1_565
Fe0_4 Fe1_4 2.324472 1_555
Fe0_4 Fe1_5 2.324472 1_555
Fe0_4 Mg3_4 2.803099 1_555
Fe0_4 Mg3_5 2.803099 1_555
Fe0_4 Mg1_6 2.842189 1_545
Fe0_4 Mg1_7 2.842189 1_545
Fe0_4 Mg1_0 2.842189 1_655
Fe0_4 Mg1_1 2.842189 1_655
Fe0_4 Mg0_0 3.154150 1_555
Fe0_4 Mg0_6 3.154150 1_555
Fe0_5 Fe1_4 2.324472 1_556
Fe0_5 Fe1_5 2.324472 1_555
Fe0_5 Mg3_4 2.803099 1_556
Fe0_5 Mg3_5 2.803099 1_555
Fe0_5 Mg1_7 2.842189 1_545
Fe0_5 Mg1_6 2.842189 1_546
Fe0_5 Mg1_0 2.842189 1_656
Fe0_5 Mg1_1 2.842189 1_655
Fe0_5 Mg0_1 3.154150 1_555
Fe0_5 Mg0_7 3.154150 1_555
Fe0_6 Fe1_6 2.324472 1_555
Fe0_6 Fe1_7 2.324472 1_555
Fe0_6 Mg3_6 2.803099 1_555
Fe0_6 Mg3_7 2.803099 1_555
Fe0_6 Mg1_4 2.842189 1_555
Fe0_6 Mg1_5 2.842189 1_555
Fe0_6 Mg1_2 2.842189 1_655
Fe0_6 Mg1_3 2.842189 1_655
Fe0_6 Mg0_2 3.154150 1_555
Fe0_6 Mg0_4 3.154150 1_565
Fe0_7 Fe1_6 2.324472 1_556
Fe0_7 Fe1_7 2.324472 1_555
Fe0_7 Mg3_6 2.803099 1_556
Fe0_7 Mg3_7 2.803099 1_555
Fe0_7 Mg1_4 2.842189 1_556
Fe0_7 Mg1_5 2.842189 1_555
Fe0_7 Mg1_2 2.842189 1_656
Fe0_7 Mg1_3 2.842189 1_655
Fe0_7 Mg0_3 3.154150 1_555
Fe0_7 Mg0_5 3.154150 1_565
Fe1_0 Mg2_0 2.803099 1_555
Fe1_0 Mg2_1 2.803099 1_554
Fe1_0 Mg0_4 2.842189 1_455
Fe1_0 Mg0_5 2.842189 1_454
Fe1_0 Mg0_3 2.842189 1_554
Fe1_0 Mg0_2 2.842189 1_555
Fe1_0 Mg1_2 3.154150 1_545
Fe1_0 Mg1_4 3.154150 1_555
Fe1_1 Mg2_1 2.803099 1_555
Fe1_1 Mg2_0 2.803099 1_555
Fe1_1 Mg0_4 2.842189 1_455
Fe1_1 Mg0_5 2.842189 1_455
Fe1_1 Mg0_3 2.842189 1_555
Fe1_1 Mg0_2 2.842189 1_555
Fe1_1 Mg1_3 3.154150 1_545
Fe1_1 Mg1_5 3.154150 1_555
Fe1_2 Mg2_2 2.803099 1_555
Fe1_2 Mg2_3 2.803099 1_554
Fe1_2 Mg0_6 2.842189 1_455
Fe1_2 Mg0_7 2.842189 1_454
Fe1_2 Mg0_1 2.842189 1_564
Fe1_2 Mg0_0 2.842189 1_565
Fe1_2 Mg1_0 3.154150 1_555
Fe1_2 Mg1_6 3.154150 1_555
Fe1_3 Mg2_3 2.803099 1_555
Fe1_3 Mg2_2 2.803099 1_555
Fe1_3 Mg0_6 2.842189 1_455
Fe1_3 Mg0_7 2.842189 1_455
Fe1_3 Mg0_1 2.842189 1_565
Fe1_3 Mg0_0 2.842189 1_565
Fe1_3 Mg1_1 3.154150 1_555
Fe1_3 Mg1_7 3.154150 1_555
Fe1_4 Mg2_4 2.803099 1_555
Fe1_4 Mg2_5 2.803099 1_554
Fe1_4 Mg0_1 2.842189 1_554
Fe1_4 Mg0_0 2.842189 1_555
Fe1_4 Mg0_6 2.842189 1_555
Fe1_4 Mg0_7 2.842189 1_554
Fe1_4 Mg1_6 3.154150 1_545
Fe1_4 Mg1_0 3.154150 1_655
Fe1_5 Mg2_5 2.803099 1_555
Fe1_5 Mg2_4 2.803099 1_555
Fe1_5 Mg0_1 2.842189 1_555
Fe1_5 Mg0_0 2.842189 1_555
Fe1_5 Mg0_7 2.842189 1_555
Fe1_5 Mg0_6 2.842189 1_555
Fe1_5 Mg1_7 3.154150 1_545
Fe1_5 Mg1_1 3.154150 1_655
Fe1_6 Mg2_7 2.803099 1_554
Fe1_6 Mg2_6 2.803099 1_555
Fe1_6 Mg0_2 2.842189 1_555
Fe1_6 Mg0_3 2.842189 1_554
Fe1_6 Mg0_4 2.842189 1_565
Fe1_6 Mg0_5 2.842189 1_564
Fe1_6 Mg1_4 3.154150 1_555
Fe1_6 Mg1_2 3.154150 1_655
Fe1_7 Mg2_7 2.803099 1_555
Fe1_7 Mg2_6 2.803099 1_555
Fe1_7 Mg0_3 2.842189 1_555
Fe1_7 Mg0_2 2.842189 1_555
Fe1_7 Mg0_5 2.842189 1_565
Fe1_7 Mg0_4 2.842189 1_565
Fe1_7 Mg1_5 3.154150 1_555
Fe1_7 Mg1_3 3.154150 1_655
