# generated using pymatgen
data_BaLa3Mn4O12
_symmetry_space_group_name_H-M   'P 1'
_cell_length_a   5.58986556
_cell_length_b   7.89478486
_cell_length_c   5.66523760
_cell_angle_alpha   90.14667249
_cell_angle_beta   89.70063302
_cell_angle_gamma   90.59709472
_symmetry_Int_Tables_number   1
_chemical_formula_structural   BaLa3Mn4O12
_chemical_formula_sum   'Ba1 La3 Mn4 O12'
_cell_volume   249.99361502
_cell_formula_units_Z   1
loop_
 _symmetry_equiv_pos_site_id
 _symmetry_equiv_pos_as_xyz
  1  'x, y, z'
loop_
 _atom_site_type_symbol
 _atom_site_label
 _atom_site_symmetry_multiplicity
 _atom_site_fract_x
 _atom_site_fract_y
 _atom_site_fract_z
 _atom_site_occupancy
  Ba  Ba0  1  0.49762100  0.25072500  0.00091900  1
  La  La0  1  0.00456600  0.74876600  0.49578200  1
  La  La1  1  0.50182000  0.75168100  0.00208800  1
  La  La2  1  0.99776000  0.24845900  0.49851000  1
  Mn  Mn0  1  0.99933600  0.99670900  0.99982800  1
  Mn  Mn1  1  0.50079900  0.50051100  0.50208900  1
  Mn  Mn2  1  0.99954500  0.50245400  0.00013800  1
  Mn  Mn3  1  0.49992200  0.99921500  0.49670200  1
  O  O0  1  0.00294500  0.75930400  0.06645500  1
  O  O1  1  0.49828000  0.23936700  0.53265900  1
  O  O2  1  0.00060800  0.23866100  0.92586500  1
  O  O3  1  0.49779800  0.76059600  0.43633400  1
  O  O4  1  0.23384500  0.53106200  0.70998800  1
  O  O5  1  0.78792600  0.95981200  0.73488200  1
  O  O6  1  0.74071500  0.01641600  0.22077300  1
  O  O7  1  0.25323500  0.49029100  0.21964200  1
  O  O8  1  0.73682400  0.54226900  0.79094900  1
  O  O9  1  0.26745800  0.95545300  0.78457900  1
  O  O10  1  0.20099200  0.02820200  0.27585900  1
  O  O11  1  0.77800500  0.48004600  0.30596000  1
loop_
_geom_bond_atom_site_label_1
_geom_bond_atom_site_label_2
_geom_bond_distance
_geom_bond_site_symmetry_2
Ba0 O6 2.627079 1_555
Ba0 O7 2.646292 1_555
Ba0 O1 2.654074 1_554
Ba0 O2 2.813375 1_554
Ba0 O2 2.843942 1_654
Ba0 O10 2.861472 1_555
Ba0 O8 2.904104 1_554
Ba0 O9 2.920760 1_544
Ba0 O11 2.945119 1_555
Ba0 O1 3.014020 1_555
Ba0 O4 3.146578 1_554
Ba0 O5 3.195953 1_544
La0 O0 2.433942 1_555
La0 O5 2.467950 1_455
La0 O4 2.478328 1_555
La0 O11 2.684697 1_455
La0 O9 2.731381 1_555
La0 O10 2.752092 1_565
La0 O8 2.762395 1_455
La0 O3 2.776480 1_555
La0 O3 2.856983 1_455
La0 O7 2.926369 1_555
La0 O6 3.028762 1_465
La0 O0 3.233823 1_556
La1 O9 2.427680 1_554
La1 O8 2.430726 1_554
La1 O3 2.460925 1_555
La1 O5 2.735305 1_554
La1 O6 2.762647 1_565
La1 O7 2.764741 1_555
La1 O0 2.811741 1_555
La1 O4 2.823593 1_554
La1 O0 2.826744 1_655
La2 O2 2.422642 1_655
La2 O10 2.433171 1_655
La2 O11 2.472391 1_555
La2 O1 2.797899 1_555
La2 O6 2.801827 1_555
La2 O1 2.807205 1_655
La2 O4 2.845378 1_655
La2 O7 2.848763 1_655
La2 O5 2.881918 1_545
Mn0 O0 1.913172 1_656
Mn0 O6 1.914596 1_566
Mn0 O5 1.934803 1_555
Mn0 O10 1.946398 1_666
Mn0 O2 1.956558 1_665
Mn0 O9 1.956643 1_655
Mn1 O11 1.909995 1_555
Mn1 O4 1.913069 1_555
Mn1 O1 2.069274 1_555
Mn1 O3 2.088026 1_555
Mn1 O7 2.121819 1_555
Mn1 O8 2.130282 1_555
Mn2 O7 1.894329 1_655
Mn2 O8 1.920861 1_554
Mn2 O0 2.061251 1_655
Mn2 O4 2.107499 1_654
Mn2 O2 2.123678 1_654
Mn2 O11 2.131010 1_555
Mn3 O1 1.906454 1_565
Mn3 O3 1.913702 1_555
Mn3 O6 2.061323 1_565
Mn3 O9 2.106918 1_555
Mn3 O10 2.107402 1_565
Mn3 O5 2.131803 1_555
