# generated using pymatgen
data_Sr10In17Au27
_symmetry_space_group_name_H-M   'P 1'
_cell_length_a   4.75191700
_cell_length_b   9.15209700
_cell_length_c   30.06357032
_cell_angle_alpha   89.61341274
_cell_angle_beta   90.00000000
_cell_angle_gamma   90.00000000
_symmetry_Int_Tables_number   1
_chemical_formula_structural   Sr10In17Au27
_chemical_formula_sum   'Sr10 In17 Au27'
_cell_volume   1307.43507207
_cell_formula_units_Z   1
loop_
 _symmetry_equiv_pos_site_id
 _symmetry_equiv_pos_as_xyz
  1  'x, y, z'
loop_
 _atom_site_type_symbol
 _atom_site_label
 _atom_site_symmetry_multiplicity
 _atom_site_fract_x
 _atom_site_fract_y
 _atom_site_fract_z
 _atom_site_occupancy
  Sr  Sr0  1  0.50000000  0.33097700  0.25187900  1
  Sr  Sr1  1  0.00000000  0.66249700  0.75001200  1
  Sr  Sr2  1  0.50000000  0.20081600  0.87588800  1
  Sr  Sr3  1  0.50000000  0.20093400  0.62387600  1
  Sr  Sr4  1  0.00000000  0.80029500  0.12453600  1
  Sr  Sr5  1  0.00000000  0.80914000  0.37146500  1
  Sr  Sr6  1  0.50000000  0.31505700  0.48426600  1
  Sr  Sr7  1  0.50000000  0.31528600  0.01561400  1
  Sr  Sr8  1  0.00000000  0.68438400  0.51481400  1
  Sr  Sr9  1  0.00000000  0.68371200  0.98467800  1
  In  In0  1  0.50000000  0.43153600  0.36897200  1
  In  In1  1  0.50000000  0.42972900  0.13188300  1
  In  In2  1  0.00000000  0.57061400  0.63095900  1
  In  In3  1  0.00000000  0.57066200  0.86896500  1
  In  In4  1  0.50000000  0.27245700  0.75016400  1
  In  In5  1  0.00000000  0.72973900  0.25068800  1
  In  In6  1  0.50000000  0.93549800  0.46507900  1
  In  In7  1  0.50000000  0.93605100  0.03544900  1
  In  In8  1  0.00000000  0.06438000  0.53515300  1
  In  In9  1  0.00000000  0.06444400  0.96464200  1
  In  In10  1  0.50000000  0.80851700  0.83907500  1
  In  In11  1  0.50000000  0.80899200  0.66109700  1
  In  In12  1  0.00000000  0.19049000  0.16152900  1
  In  In13  1  0.00000000  0.17924000  0.33606400  1
  In  In14  1  0.50000000  0.96705800  0.20290500  1
  In  In15  1  0.00000000  0.02858300  0.69867700  1
  In  In16  1  0.00000000  0.02960100  0.80124300  1
  Au  Au0  1  0.50000000  0.11669300  0.38601700  1
  Au  Au1  1  0.50000000  0.11176000  0.11604600  1
  Au  Au2  1  0.00000000  0.88578600  0.61473300  1
  Au  Au3  1  0.00000000  0.88589100  0.88529400  1
  Au  Au4  1  0.50000000  0.64720500  0.43872300  1
  Au  Au5  1  0.50000000  0.64569400  0.06118400  1
  Au  Au6  1  0.00000000  0.35395000  0.56091200  1
  Au  Au7  1  0.00000000  0.35423200  0.93884700  1
  Au  Au8  1  0.50000000  0.51308200  0.81496000  1
  Au  Au9  1  0.50000000  0.51282900  0.68518100  1
  Au  Au10  1  0.00000000  0.48782600  0.18507200  1
  Au  Au11  1  0.00000000  0.48371800  0.31547800  1
  Au  Au12  1  0.50000000  0.66664700  0.30306100  1
  Au  Au13  1  0.50000000  0.66714700  0.19529900  1
  Au  Au14  1  0.00000000  0.33176500  0.69552600  1
  Au  Au15  1  0.00000000  0.33230600  0.80479300  1
  Au  Au16  1  0.50000000  0.53059700  0.92515700  1
  Au  Au17  1  0.50000000  0.52976500  0.57458600  1
  Au  Au18  1  0.00000000  0.46818900  0.07512100  1
  Au  Au19  1  0.00000000  0.47252000  0.42483000  1
  Au  Au20  1  0.50000000  0.94689400  0.75015800  1
  Au  Au21  1  0.00000000  0.05507700  0.24832100  1
  Au  Au22  1  0.50000000  0.90352400  0.94006600  1
  Au  Au23  1  0.50000000  0.90372400  0.55998100  1
  Au  Au24  1  0.00000000  0.09623500  0.05992000  1
  Au  Au25  1  0.00000000  0.09533400  0.43992000  1
  Au  Au26  1  0.50000000  0.98092300  0.30124300  1
loop_
_geom_bond_atom_site_label_1
_geom_bond_atom_site_label_2
_geom_bond_distance
_geom_bond_site_symmetry_2
In0 In13 3.462143 1_555
In0 In13 3.462143 1_655
In0 Sr6 3.619495 1_555
In0 Sr0 3.644552 1_555
In1 Sr7 3.655774 1_555
In1 Sr0 3.713078 1_555
In2 Sr8 3.636937 1_555
In2 Sr1 3.682138 1_555
In3 Sr9 3.636032 1_555
In3 Sr1 3.668067 1_555
In4 Sr2 3.831799 1_555
In4 Sr3 3.857034 1_555
In5 Sr5 3.707796 1_555
In5 Sr4 3.842862 1_555
In6 Sr6 3.525165 1_565
In6 Sr8 3.621640 1_555
In6 Sr8 3.621640 1_655
In6 Sr5 3.866153 1_655
In6 Sr5 3.866153 1_555
In7 Sr7 3.517681 1_565
In7 Sr9 3.654584 1_554
In7 Sr9 3.654584 1_654
In7 Sr4 3.783796 1_555
In7 Sr4 3.783796 1_655
In8 Sr8 3.535166 1_545
In8 Sr6 3.633413 1_455
In8 Sr6 3.633413 1_555
In8 Sr3 3.790343 1_455
In8 Sr3 3.790343 1_555
In9 Sr9 3.532169 1_545
In9 Sr7 3.648463 1_456
In9 Sr7 3.648463 1_556
In9 Sr2 3.778570 1_455
In9 Sr2 3.778570 1_555
In10 Sr2 3.764193 1_565
In10 Sr1 3.827360 1_655
In10 Sr1 3.827360 1_555
In11 In15 3.315299 1_665
In11 In15 3.315299 1_565
In11 Sr3 3.750361 1_565
In11 Sr1 3.813118 1_655
In11 Sr1 3.813118 1_555
In12 Sr4 3.747429 1_545
In12 Sr0 3.837114 1_455
In12 Sr0 3.837114 1_555
In13 Sr5 3.543601 1_545
In13 Sr0 3.732524 1_555
In13 Sr0 3.732524 1_455
In14 Sr0 3.650614 1_565
In14 Sr4 3.684300 1_555
In14 Sr4 3.684300 1_655
In15 In16 3.083577 1_555
In15 Sr3 3.625252 1_455
In15 Sr3 3.625252 1_555
In15 Sr1 3.679346 1_545
In16 Sr2 3.630979 1_555
In16 Sr2 3.630979 1_455
In16 Sr1 3.705411 1_545
Au0 Au26 2.842912 1_545
Au0 In13 2.866454 1_655
Au0 In13 2.866454 1_555
Au0 Au25 2.881873 1_555
Au0 Au25 2.881873 1_655
Au0 In6 2.889014 1_545
Au0 In0 2.923278 1_555
Au0 Sr6 3.477448 1_555
Au0 Sr5 3.711608 1_545
Au0 Sr5 3.711608 1_645
Au1 In12 2.836792 1_555
Au1 In12 2.836792 1_655
Au1 In7 2.917135 1_545
Au1 Au24 2.918175 1_555
Au1 Au24 2.918175 1_655
Au1 In14 2.919935 1_545
Au1 In1 2.951943 1_555
Au1 Sr7 3.536971 1_555
Au1 Sr4 3.718358 1_545
Au1 Sr4 3.718358 1_645
Au2 In11 2.840562 1_555
Au2 In11 2.840562 1_455
Au2 In15 2.849792 1_565
Au2 In8 2.888375 1_565
Au2 Au23 2.894466 1_555
Au2 Au23 2.894466 1_455
Au2 In2 2.922195 1_555
Au2 Sr8 3.534945 1_555
Au2 Sr3 3.748388 1_565
Au2 Sr3 3.748388 1_465
Au3 In16 2.840795 1_565
Au3 In10 2.844406 1_555
Au3 In10 2.844406 1_455
Au3 In9 2.900609 1_565
Au3 In3 2.929738 1_555
Au3 Sr9 3.503771 1_555
Au3 Sr2 3.744511 1_465
Au3 Sr2 3.744511 1_565
Au4 In6 2.760008 1_555
Au4 In0 2.889479 1_555
Au4 Sr8 3.317292 1_555
Au4 Sr8 3.317292 1_655
Au4 Sr6 3.325537 1_555
Au4 Sr5 3.448151 1_655
Au4 Sr5 3.448151 1_555
Au5 In7 2.762696 1_555
Au5 In1 2.892679 1_555
Au5 Sr9 3.323499 1_654
Au5 Sr9 3.323499 1_554
Au5 Sr7 3.328201 1_555
Au5 Sr4 3.363184 1_555
Au5 Sr4 3.363184 1_655
Au6 In8 2.766011 1_555
Au6 In2 2.902244 1_555
Au6 Sr8 3.318079 1_555
Au6 Sr6 3.330545 1_455
Au6 Sr6 3.330545 1_555
Au6 Sr3 3.339720 1_555
Au6 Sr3 3.339720 1_455
Au7 In9 2.758192 1_555
Au7 In3 2.877700 1_555
Au7 Sr9 3.323756 1_555
Au7 Sr7 3.329787 1_556
Au7 Sr7 3.329787 1_456
Au7 Sr2 3.351875 1_555
Au7 Sr2 3.351875 1_455
Au8 In10 2.804078 1_555
Au8 In3 2.927533 1_655
Au8 In3 2.927533 1_555
Au8 In4 2.949979 1_555
Au8 Sr1 3.360301 1_655
Au8 Sr1 3.360301 1_555
Au8 Sr2 3.384089 1_555
Au9 In11 2.800829 1_555
Au9 In2 2.927538 1_555
Au9 In2 2.927538 1_655
Au9 In4 2.932275 1_555
Au9 Sr1 3.369910 1_555
Au9 Sr1 3.369910 1_655
Au9 Sr3 3.408218 1_555
Au10 In12 2.816406 1_555
Au10 Au13 2.905157 1_555
Au10 Au13 2.905157 1_455
Au10 In1 2.914847 1_455
Au10 In1 2.914847 1_555
Au10 In5 2.975254 1_555
Au10 Au18 3.311612 1_555
Au10 Sr4 3.379358 1_555
Au10 Sr0 3.420647 1_555
Au10 Sr0 3.420647 1_455
Au11 In13 2.850431 1_555
Au11 In0 2.906762 1_555
Au11 In0 2.906762 1_455
Au11 Au12 2.928991 1_455
Au11 Au12 2.928991 1_555
Au11 In5 2.967247 1_555
Au11 Au19 3.288417 1_555
Au11 Sr0 3.360233 1_455
Au11 Sr0 3.360233 1_555
Au11 Sr5 3.430880 1_555
Au12 Au26 2.876435 1_555
Au12 In5 2.906104 1_555
Au12 In5 2.906104 1_655
Au12 In0 2.915296 1_555
Au12 Au13 3.239683 1_555
Au12 Sr5 3.407511 1_555
Au12 Sr5 3.407511 1_655
Au12 Sr0 3.445160 1_555
Au13 In14 2.755860 1_555
Au13 In1 2.900356 1_555
Au13 In5 2.959572 1_555
Au13 In5 2.959572 1_655
Au13 Sr4 3.408948 1_555
Au13 Sr4 3.408948 1_655
Au13 Sr0 3.505511 1_555
Au14 In15 2.775729 1_555
Au14 Au9 2.912212 1_555
Au14 Au9 2.912212 1_455
Au14 In2 2.913611 1_555
Au14 In4 2.936997 1_455
Au14 In4 2.936997 1_555
Au14 Au15 3.284993 1_555
Au14 Sr3 3.428360 1_455
Au14 Sr3 3.428360 1_555
Au14 Sr1 3.451401 1_555
Au15 In16 2.773160 1_555
Au15 Au8 2.912513 1_455
Au15 Au8 2.912513 1_555
Au15 In3 2.921902 1_555
Au15 In4 2.941875 1_555
Au15 In4 2.941875 1_455
Au15 Sr2 3.409840 1_455
Au15 Sr2 3.409840 1_555
Au15 Sr1 3.431805 1_555
Au16 Au7 2.900164 1_555
Au16 Au7 2.900164 1_655
Au16 In3 2.936855 1_655
Au16 In3 2.936855 1_555
Au16 Sr9 3.293133 1_555
Au16 Sr9 3.293133 1_655
Au16 Au8 3.317871 1_555
Au16 Sr7 3.347567 1_556
Au16 Sr2 3.371015 1_555
Au16 Au22 3.445366 1_555
Au17 Au6 2.900384 1_555
Au17 Au6 2.900384 1_655
Au17 In2 2.943765 1_555
Au17 In2 2.943765 1_655
Au17 Sr8 3.292780 1_555
Au17 Sr8 3.292780 1_655
Au17 Au9 3.327447 1_555
Au17 Sr3 3.345549 1_555
Au17 Sr6 3.362502 1_555
Au17 Au23 3.447619 1_555
Au18 Au5 2.907007 1_555
Au18 Au5 2.907007 1_455
Au18 In1 2.944996 1_555
Au18 In1 2.944996 1_455
Au18 Sr7 3.292071 1_455
Au18 Sr7 3.292071 1_555
Au18 Sr9 3.348359 1_554
Au18 Sr4 3.392089 1_555
Au18 Au24 3.437752 1_555
Au19 Au4 2.895616 1_555
Au19 Au4 2.895616 1_455
Au19 In0 2.935028 1_455
Au19 In0 2.935028 1_555
Au19 Sr6 3.298501 1_455
Au19 Sr6 3.298501 1_555
Au19 Sr8 3.338986 1_555
Au19 Sr5 3.463873 1_555
Au19 Au25 3.478689 1_555
Au20 In15 2.929828 1_565
Au20 In15 2.929828 1_665
Au20 In16 2.931297 1_565
Au20 In16 2.931297 1_665
Au20 In10 2.950251 1_555
Au20 In11 2.967733 1_555
Au20 In4 2.979585 1_565
Au20 Sr1 3.524212 1_555
Au20 Sr1 3.524212 1_655
Au21 In14 2.858876 1_445
Au21 In14 2.858876 1_545
Au21 In13 2.879252 1_555
Au21 In12 2.881074 1_555
Au21 Au26 2.936418 1_545
Au21 Au26 2.936418 1_445
Au21 In5 2.977895 1_545
Au21 Sr0 3.469324 1_555
Au21 Sr0 3.469324 1_455
Au22 In7 2.884961 1_556
Au22 In9 2.893918 1_565
Au22 In9 2.893918 1_665
Au22 Au3 2.895900 1_555
Au22 Au3 2.895900 1_655
Au22 In10 3.163840 1_555
Au22 Sr2 3.324879 1_565
Au22 Sr9 3.384476 1_555
Au22 Sr9 3.384476 1_655
Au23 In6 2.865922 1_555
Au23 In8 2.889534 1_665
Au23 In8 2.889534 1_565
Au23 In11 3.155496 1_555
Au23 Sr3 3.340558 1_565
Au23 Sr8 3.399344 1_555
Au23 Sr8 3.399344 1_655
Au24 In9 2.881088 1_554
Au24 In7 2.889668 1_445
Au24 In7 2.889668 1_545
Au24 In12 3.179790 1_555
Au24 Sr4 3.322419 1_545
Au24 Sr7 3.376757 1_555
Au24 Sr7 3.376757 1_455
Au25 In8 2.875123 1_555
Au25 In6 2.888291 1_545
Au25 In6 2.888291 1_445
Au25 In13 3.210294 1_555
Au25 Sr5 3.341963 1_545
Au25 Sr6 3.391548 1_555
Au25 Sr6 3.391548 1_455
Au26 In14 2.959969 1_555
Au26 In13 3.171906 1_565
Au26 In13 3.171906 1_665
Au26 Sr0 3.521668 1_565
Au26 Sr5 3.539628 1_555
Au26 Sr5 3.539628 1_655
