# generated using pymatgen
data_K(InGa)2
_symmetry_space_group_name_H-M   'P 1'
_cell_length_a   6.70039546
_cell_length_b   6.70039546
_cell_length_c   6.70039546
_cell_angle_alpha   139.32621532
_cell_angle_beta   139.32621532
_cell_angle_gamma   58.87778805
_symmetry_Int_Tables_number   1
_chemical_formula_structural   K(InGa)2
_chemical_formula_sum   'K1 In2 Ga2'
_cell_volume   126.56921675
_cell_formula_units_Z   1
loop_
 _symmetry_equiv_pos_site_id
 _symmetry_equiv_pos_as_xyz
  1  'x, y, z'
loop_
 _atom_site_type_symbol
 _atom_site_label
 _atom_site_symmetry_multiplicity
 _atom_site_fract_x
 _atom_site_fract_y
 _atom_site_fract_z
 _atom_site_occupancy
  K  K0  1  0.00000000  0.00000000  0.00000000  1
  In  In0  1  0.75000000  0.25000000  0.50000000  1
  In  In1  1  0.25000000  0.75000000  0.50000000  1
  Ga  Ga0  1  0.39178275  0.39178275  -0.00000000  1
  Ga  Ga1  1  0.60821725  0.60821725  0.00000000  1
loop_
_geom_bond_atom_site_label_1
_geom_bond_atom_site_label_2
_geom_bond_distance
_geom_bond_site_symmetry_2
In0 In1 3.293211 1_645
In0 In1 3.293211 1_555
In0 In1 3.293211 1_544
In0 In1 3.293211 1_656
In0 K0 3.732979 1_656
In0 K0 3.732979 1_555
In0 K0 3.732979 1_666
In0 K0 3.732979 1_655
In1 K0 3.732979 1_555
In1 K0 3.732979 1_566
In1 K0 3.732979 1_565
In1 K0 3.732979 1_666
Ga0 Ga1 2.525896 1_555
Ga0 In0 2.856670 1_454
Ga0 In1 2.856670 1_544
Ga0 In1 2.856670 1_555
Ga0 In0 2.856670 1_555
Ga0 K0 3.527078 1_554
Ga0 K0 3.527078 1_655
Ga0 K0 3.527078 1_565
Ga0 K0 3.527078 1_666
Ga1 In1 2.856670 1_655
Ga1 In0 2.856670 1_565
Ga1 In1 2.856670 1_554
Ga1 In0 2.856670 1_554
Ga1 K0 3.527078 1_655
Ga1 K0 3.527078 1_565
Ga1 K0 3.527078 1_666
Ga1 K0 3.527078 1_554
