# generated using pymatgen
data_VSbRh
_symmetry_space_group_name_H-M   'P 1'
_cell_length_a   4.30187926
_cell_length_b   4.30187926
_cell_length_c   4.30187926
_cell_angle_alpha   60.00000000
_cell_angle_beta   60.00000000
_cell_angle_gamma   60.00000000
_symmetry_Int_Tables_number   1
_chemical_formula_structural   VSbRh
_chemical_formula_sum   'V1 Sb1 Rh1'
_cell_volume   56.29368188
_cell_formula_units_Z   1
loop_
 _symmetry_equiv_pos_site_id
 _symmetry_equiv_pos_as_xyz
  1  'x, y, z'
loop_
 _atom_site_type_symbol
 _atom_site_label
 _atom_site_symmetry_multiplicity
 _atom_site_fract_x
 _atom_site_fract_y
 _atom_site_fract_z
 _atom_site_occupancy
  V  V0  1  0.50000000  0.50000000  0.50000000  1
  Sb  Sb0  1  0.00000000  0.00000000  0.00000000  1
  Rh  Rh0  1  0.75000000  0.75000000  0.75000000  1
loop_
_geom_bond_atom_site_label_1
_geom_bond_atom_site_label_2
_geom_bond_distance
_geom_bond_site_symmetry_2
Sb0 V0 3.041888 1_454
Sb0 V0 3.041888 1_445
Sb0 V0 3.041888 1_455
Sb0 V0 3.041888 1_544
Sb0 V0 3.041888 1_545
Sb0 V0 3.041888 1_554
Rh0 V0 2.634352 1_555
Rh0 Sb0 2.634352 1_656
Rh0 Sb0 2.634352 1_665
Rh0 V0 2.634352 1_556
Rh0 Sb0 2.634352 1_566
Rh0 V0 2.634352 1_655
Rh0 Sb0 2.634352 1_666
Rh0 V0 2.634352 1_565
