# generated using pymatgen
data_Y2Ga3Ni
_symmetry_space_group_name_H-M   'P 1'
_cell_length_a   4.27725656
_cell_length_b   4.27725656
_cell_length_c   7.54461800
_cell_angle_alpha   90.00000000
_cell_angle_beta   90.00000000
_cell_angle_gamma   120.00000865
_symmetry_Int_Tables_number   1
_chemical_formula_structural   Y2Ga3Ni
_chemical_formula_sum   'Y2 Ga3 Ni1'
_cell_volume   119.53592627
_cell_formula_units_Z   1
loop_
 _symmetry_equiv_pos_site_id
 _symmetry_equiv_pos_as_xyz
  1  'x, y, z'
loop_
 _atom_site_type_symbol
 _atom_site_label
 _atom_site_symmetry_multiplicity
 _atom_site_fract_x
 _atom_site_fract_y
 _atom_site_fract_z
 _atom_site_occupancy
  Y  Y0  1  0.33333300  0.66666700  0.77140300  1
  Y  Y1  1  0.33333300  0.66666700  0.23736500  1
  Ga  Ga0  1  0.66666700  0.33333300  0.01303400  1
  Ga  Ga1  1  0.66666700  0.33333300  0.46133100  1
  Ga  Ga2  1  0.00000000  0.00000000  0.54361600  1
  Ni  Ni0  1  0.00000000  0.00000000  0.97325100  1
loop_
_geom_bond_atom_site_label_1
_geom_bond_atom_site_label_2
_geom_bond_distance
_geom_bond_site_symmetry_2
Y0 Y1 3.515505 1_556
Ga0 Ni0 2.487646 1_654
Ga0 Ni0 2.487650 1_664
Ga0 Ni0 2.487650 1_554
Ga0 Y1 2.993797 1_545
Ga0 Y1 2.993797 1_655
Ga0 Y1 2.993804 1_555
Ga0 Y0 3.069474 1_544
Ga0 Y0 3.069474 1_654
Ga0 Y0 3.069481 1_554
Ga1 Ga2 2.546311 1_655
Ga1 Ga2 2.546314 1_555
Ga1 Ga2 2.546314 1_665
Ga1 Y1 2.992241 1_545
Ga1 Y1 2.992241 1_655
Ga1 Y1 2.992248 1_555
Ga2 Y0 3.008615 1_545
Ga2 Y0 3.008618 1_445
Ga2 Y0 3.008618 1_555
Ga2 Y1 3.381852 1_545
Ga2 Y1 3.381854 1_555
Ga2 Y1 3.381854 1_445
Ni0 Y0 2.901279 1_545
Ni0 Y0 2.901281 1_445
Ni0 Y0 2.901281 1_555
Ni0 Y1 3.173154 1_546
Ni0 Y1 3.173157 1_446
Ni0 Y1 3.173157 1_556
