# generated using pymatgen
data_LiVPO4F
_symmetry_space_group_name_H-M   'P 1'
_cell_length_a   6.40972673
_cell_length_b   10.70009801
_cell_length_c   12.91335896
_cell_angle_alpha   89.96919497
_cell_angle_beta   89.94001083
_cell_angle_gamma   89.98249479
_symmetry_Int_Tables_number   1
_chemical_formula_structural   LiVPO4F
_chemical_formula_sum   'Li8 V8 P8 O32 F8'
_cell_volume   885.65824968
_cell_formula_units_Z   8
loop_
 _symmetry_equiv_pos_site_id
 _symmetry_equiv_pos_as_xyz
  1  'x, y, z'
loop_
 _atom_site_type_symbol
 _atom_site_label
 _atom_site_symmetry_multiplicity
 _atom_site_fract_x
 _atom_site_fract_y
 _atom_site_fract_z
 _atom_site_occupancy
  Li  Li0  1  0.75225600  0.26180400  0.74880800  1
  Li  Li1  1  0.75150600  0.25974500  0.24960900  1
  Li  Li2  1  0.25923600  0.76676000  0.75133900  1
  Li  Li3  1  0.24769100  0.76141600  0.25192700  1
  Li  Li4  1  0.49854800  0.51092600  0.39337700  1
  Li  Li5  1  0.00329400  0.01029200  0.10576800  1
  Li  Li6  1  0.99745300  0.51041900  0.89335500  1
  Li  Li7  1  0.50372000  0.01158400  0.60547600  1
  V  V0  1  0.49886900  0.01143100  0.38273500  1
  V  V1  1  0.50137100  0.51195200  0.61651300  1
  V  V2  1  0.00182500  0.01097400  0.88276300  1
  V  V3  1  0.99918700  0.51115300  0.11624800  1
  V  V4  1  0.24997800  0.26140700  0.24957400  1
  V  V5  1  0.75315400  0.76144000  0.74897600  1
  V  V6  1  0.25115100  0.26150900  0.74966400  1
  V  V7  1  0.74880400  0.76136100  0.24899400  1
  P  P0  1  0.34335800  0.26143900  0.49960200  1
  P  P1  1  0.65801800  0.76142000  0.49925400  1
  P  P2  1  0.15702900  0.26105600  0.99966900  1
  P  P3  1  0.84362400  0.76146300  0.99920500  1
  P  P4  1  0.49903500  0.51134700  0.18383900  1
  P  P5  1  0.50261600  0.01188900  0.81492800  1
  P  P6  1  0.00026200  0.51069700  0.68410800  1
  P  P7  1  0.99950700  0.01085200  0.31499300  1
  O  O0  1  0.48394500  0.14174900  0.49552500  1
  O  O1  1  0.51773400  0.64170000  0.50335600  1
  O  O2  1  0.01744500  0.14128500  0.99606300  1
  O  O3  1  0.98311400  0.64154700  0.00297200  1
  O  O4  1  0.48436100  0.38039600  0.50331000  1
  O  O5  1  0.51615500  0.88027000  0.49588700  1
  O  O6  1  0.01491100  0.37988100  0.00350000  1
  O  O7  1  0.98592100  0.88014700  0.99565300  1
  O  O8  1  0.20682400  0.27082000  0.40132000  1
  O  O9  1  0.79527700  0.77100300  0.59718500  1
  O  O10  1  0.29332700  0.27103900  0.90131000  1
  O  O11  1  0.70660100  0.77139600  0.09738300  1
  O  O12  1  0.20753300  0.25143800  0.59810900  1
  O  O13  1  0.79327000  0.75183900  0.40054400  1
  O  O14  1  0.29342000  0.25173700  0.09800600  1
  O  O15  1  0.70793200  0.75285800  0.90066200  1
  O  O16  1  0.30549100  0.52727400  0.11691800  1
  O  O17  1  0.69562800  0.02790500  0.88201200  1
  O  O18  1  0.19479400  0.52717600  0.61789400  1
  O  O19  1  0.80535400  0.02723900  0.38152100  1
  O  O20  1  0.69283600  0.49506900  0.11702400  1
  O  O21  1  0.30849600  0.99459700  0.88131500  1
  O  O22  1  0.80749700  0.49357600  0.61667600  1
  O  O23  1  0.19261600  0.99368300  0.38214700  1
  O  O24  1  0.51839800  0.62677400  0.25947700  1
  O  O25  1  0.48284300  0.12737000  0.73937500  1
  O  O26  1  0.97870300  0.62542200  0.76009100  1
  O  O27  1  0.02039900  0.12632800  0.23949400  1
  O  O28  1  0.47934800  0.39622300  0.25982300  1
  O  O29  1  0.52318300  0.89690600  0.73877000  1
  O  O30  1  0.01951500  0.39518300  0.75977500  1
  O  O31  1  0.97982200  0.89590200  0.23899900  1
  F  F0  1  0.49620100  0.87674400  0.26926600  1
  F  F1  1  0.50298900  0.37774400  0.73028900  1
  F  F2  1  0.00613000  0.87656300  0.76876300  1
  F  F3  1  0.99672200  0.37649900  0.22981700  1
  F  F4  1  0.50217500  0.14584300  0.26904300  1
  F  F5  1  0.49976700  0.64711500  0.72979100  1
  F  F6  1  0.99938900  0.14536700  0.76921500  1
  F  F7  1  0.00144000  0.64595800  0.22969600  1
loop_
_geom_bond_atom_site_label_1
_geom_bond_atom_site_label_2
_geom_bond_distance
_geom_bond_site_symmetry_2
Li0 O30 2.234648 1_655
Li0 O25 2.251267 1_555
Li1 O27 2.241387 1_655
Li1 O28 2.278433 1_555
Li2 O29 2.197388 1_555
Li2 O26 2.352504 1_455
Li3 O31 2.246205 1_455
Li3 O24 2.257104 1_555
Li4 O4 1.992974 1_555
Li4 O1 1.998179 1_555
Li4 O28 2.121004 1_555
Li4 O24 2.130698 1_555
Li5 O7 1.994027 1_444
Li5 O2 1.994346 1_554
Li5 O31 2.116143 1_445
Li5 O27 2.130349 1_555
Li6 O3 1.995640 1_556
Li6 O6 1.996157 1_656
Li6 O26 2.118536 1_555
Li6 O30 2.125454 1_655
Li7 O0 1.992480 1_555
Li7 O5 1.996271 1_545
Li7 O29 2.117102 1_545
Li7 O25 2.131734 1_555
O0 P0 1.566603 1_555
O0 V0 2.019094 1_555
O1 P1 1.566163 1_555
O1 V1 2.017727 1_555
O2 P2 1.563937 1_555
O2 V2 2.024206 1_555
O3 P3 1.564439 1_554
O3 V3 2.023615 1_555
O4 P0 1.562095 1_555
O4 V1 2.032976 1_555
O5 P1 1.563738 1_555
O5 V0 2.028539 1_565
O6 P2 1.564633 1_554
O6 V3 2.026015 1_455
O7 P3 1.564380 1_555
O7 V2 2.023051 1_665
O8 P0 1.545585 1_555
O8 V4 1.981301 1_555
O9 P1 1.544776 1_555
O9 V5 1.980954 1_555
O10 P2 1.544507 1_555
O10 V6 1.979798 1_555
O11 P3 1.545239 1_554
O11 V7 1.979540 1_555
O12 P0 1.544382 1_555
O12 V6 1.980239 1_555
O13 P1 1.544231 1_555
O13 V7 1.980524 1_555
O14 P2 1.545607 1_554
O14 V4 1.979428 1_555
O15 P3 1.544909 1_555
O15 V5 1.981890 1_555
O16 P4 1.522103 1_555
O16 V3 1.970969 1_455
O17 P5 1.520820 1_555
O17 V2 1.970961 1_655
O18 P6 1.521409 1_555
O18 V1 1.971828 1_555
O19 P7 1.521607 1_555
O19 V0 1.971850 1_555
O20 P4 1.521725 1_555
O20 V3 1.971220 1_555
O21 P5 1.521536 1_565
O21 V2 1.973489 1_565
O22 P6 1.523485 1_655
O22 V1 1.971954 1_555
O23 P7 1.523084 1_465
O23 V0 1.972243 1_565
O24 P4 1.580030 1_555
O24 V7 2.067347 1_555
O25 P5 1.579133 1_555
O25 V6 2.069227 1_555
O26 P6 1.577870 1_655
O26 V5 2.056162 1_555
O27 P7 1.579146 1_455
O27 V4 2.067204 1_555
O28 P4 1.579448 1_555
O28 V4 2.064424 1_555
O29 P5 1.580887 1_565
O29 V5 2.071266 1_555
O30 P6 1.580053 1_555
O30 V6 2.065376 1_555
O31 P7 1.579062 1_565
O31 V7 2.069413 1_555
F0 Li3 2.027919 1_555
F0 V7 2.052453 1_555
F0 V0 2.055867 1_565
F1 Li0 2.036719 1_555
F1 V6 2.053091 1_555
F1 V1 2.053949 1_555
F2 Li2 2.015283 1_555
F2 V5 2.052900 1_455
F2 V2 2.058768 1_565
F3 Li1 2.023978 1_555
F3 V4 2.053312 1_655
F3 V3 2.055400 1_555
F4 Li1 2.025450 1_555
F4 V4 2.050528 1_555
F4 V0 2.054766 1_555
F5 Li2 2.022772 1_555
F5 V5 2.048909 1_555
F5 V1 2.057616 1_555
F6 Li0 2.032295 1_555
F6 V6 2.052380 1_655
F6 V2 2.053266 1_655
F7 Li3 2.025470 1_555
F7 V7 2.051189 1_455
F7 V3 2.056536 1_455
