# generated using pymatgen
data_BaSr7Ti8O20
_symmetry_space_group_name_H-M   'P 1'
_cell_length_a   11.31480917
_cell_length_b   11.28303937
_cell_length_c   17.73465673
_cell_angle_alpha   108.57492331
_cell_angle_beta   108.46045412
_cell_angle_gamma   90.11645561
_symmetry_Int_Tables_number   1
_chemical_formula_structural   BaSr7Ti8O20
_chemical_formula_sum   'Ba4 Sr28 Ti32 O80'
_cell_volume   2022.34947669
_cell_formula_units_Z   4
loop_
 _symmetry_equiv_pos_site_id
 _symmetry_equiv_pos_as_xyz
  1  'x, y, z'
loop_
 _atom_site_type_symbol
 _atom_site_label
 _atom_site_symmetry_multiplicity
 _atom_site_fract_x
 _atom_site_fract_y
 _atom_site_fract_z
 _atom_site_occupancy
  Ba  Ba0  1  0.30817900  0.06096200  0.12220200  1
  Ba  Ba1  1  0.30721200  0.56285000  0.12201500  1
  Ba  Ba2  1  0.80814500  0.06283000  0.12144000  1
  Ba  Ba3  1  0.05801300  0.80914400  0.12168200  1
  Sr  Sr0  1  0.30464300  0.05761300  0.61256300  1
  Sr  Sr1  1  0.30566200  0.56255800  0.61501400  1
  Sr  Sr2  1  0.80467900  0.06252100  0.61454600  1
  Sr  Sr3  1  0.80581900  0.55641100  0.11349700  1
  Sr  Sr4  1  0.80564400  0.56089800  0.61488300  1
  Sr  Sr5  1  0.19136600  0.44092200  0.38538900  1
  Sr  Sr6  1  0.19183000  0.44163400  0.88602500  1
  Sr  Sr7  1  0.18999200  0.93812300  0.38263900  1
  Sr  Sr8  1  0.18997000  0.93829800  0.88437800  1
  Sr  Sr9  1  0.69046800  0.44240200  0.38465200  1
  Sr  Sr10  1  0.68944100  0.43819000  0.88301200  1
  Sr  Sr11  1  0.68954800  0.93876600  0.38288100  1
  Sr  Sr12  1  0.68982500  0.93893600  0.88454800  1
  Sr  Sr13  1  0.05423800  0.30639200  0.11416500  1
  Sr  Sr14  1  0.05576500  0.30471800  0.61359300  1
  Sr  Sr15  1  0.05628100  0.80371100  0.61614500  1
  Sr  Sr16  1  0.55579100  0.30835400  0.11456500  1
  Sr  Sr17  1  0.55699600  0.30308700  0.61420200  1
  Sr  Sr18  1  0.55640000  0.80415500  0.11626900  1
  Sr  Sr19  1  0.55589400  0.80318900  0.61477100  1
  Sr  Sr20  1  0.43828900  0.19053300  0.38437800  1
  Sr  Sr21  1  0.44109000  0.19472900  0.88493000  1
  Sr  Sr22  1  0.44028000  0.69521600  0.38457100  1
  Sr  Sr23  1  0.44047800  0.69690100  0.88403600  1
  Sr  Sr24  1  0.94189600  0.19637500  0.38439600  1
  Sr  Sr25  1  0.93908400  0.19560200  0.88286100  1
  Sr  Sr26  1  0.94231900  0.69523600  0.38751600  1
  Sr  Sr27  1  0.94153400  0.69665000  0.88518900  1
  Ti  Ti0  1  0.99648400  0.00008300  0.99762800  1
  Ti  Ti1  1  0.99790100  0.99947700  0.49943900  1
  Ti  Ti2  1  0.99596300  0.49801300  0.99774500  1
  Ti  Ti3  1  0.99873900  0.50061400  0.50088700  1
  Ti  Ti4  1  0.49662800  0.99990100  0.99844900  1
  Ti  Ti5  1  0.49828800  0.99886600  0.49943700  1
  Ti  Ti6  1  0.49825700  0.49992000  0.99888600  1
  Ti  Ti7  1  0.49875800  0.49875900  0.50016000  1
  Ti  Ti8  1  0.24743500  0.24936700  0.99854300  1
  Ti  Ti9  1  0.24810000  0.24993100  0.49944200  1
  Ti  Ti10  1  0.24844700  0.75025600  0.99881300  1
  Ti  Ti11  1  0.24835300  0.74991400  0.50015900  1
  Ti  Ti12  1  0.74692700  0.25020700  0.99831100  1
  Ti  Ti13  1  0.74911800  0.25069900  0.49946800  1
  Ti  Ti14  1  0.74589600  0.74804000  0.99789600  1
  Ti  Ti15  1  0.74924800  0.75096300  0.50050400  1
  Ti  Ti16  1  0.11878600  0.11584500  0.25262900  1
  Ti  Ti17  1  0.11436900  0.10957900  0.74910000  1
  Ti  Ti18  1  0.11938000  0.61170700  0.25162800  1
  Ti  Ti19  1  0.11332000  0.61111200  0.74974800  1
  Ti  Ti20  1  0.62428600  0.11206200  0.25219700  1
  Ti  Ti21  1  0.61744400  0.11015400  0.74879400  1
  Ti  Ti22  1  0.62027900  0.61223800  0.25167600  1
  Ti  Ti23  1  0.61244600  0.61291000  0.74904000  1
  Ti  Ti24  1  0.36961300  0.38804300  0.25210400  1
  Ti  Ti25  1  0.36506500  0.38932500  0.74900500  1
  Ti  Ti26  1  0.37322800  0.88795900  0.25330600  1
  Ti  Ti27  1  0.36651300  0.88939400  0.74944800  1
  Ti  Ti28  1  0.86986700  0.39349400  0.25148700  1
  Ti  Ti29  1  0.86194900  0.38899200  0.74911900  1
  Ti  Ti30  1  0.86974800  0.88253400  0.25166600  1
  Ti  Ti31  1  0.86644900  0.88729900  0.74923800  1
  O  O0  1  0.11827300  0.12066200  0.49123600  1
  O  O1  1  0.11879300  0.12271200  0.99265800  1
  O  O2  1  0.12071100  0.62284300  0.49555700  1
  O  O3  1  0.11951000  0.62088900  0.99303700  1
  O  O4  1  0.61922300  0.12198700  0.49183700  1
  O  O5  1  0.61898300  0.12383900  0.99422800  1
  O  O6  1  0.61835400  0.62064800  0.49098400  1
  O  O7  1  0.61906700  0.62047700  0.99272600  1
  O  O8  1  0.12116700  0.37377100  0.00158500  1
  O  O9  1  0.12694400  0.37904500  0.50764700  1
  O  O10  1  0.12292200  0.87580300  0.00078500  1
  O  O11  1  0.12637000  0.87828900  0.50616400  1
  O  O12  1  0.62381300  0.37697400  0.00324100  1
  O  O13  1  0.62670400  0.37809600  0.50586300  1
  O  O14  1  0.62162700  0.87459600  0.00351700  1
  O  O15  1  0.62702100  0.87838400  0.50656500  1
  O  O16  1  0.36887400  0.12078500  0.49283600  1
  O  O17  1  0.36983200  0.12314000  0.99277000  1
  O  O18  1  0.37021100  0.62120400  0.49429500  1
  O  O19  1  0.37188800  0.62308400  0.99383200  1
  O  O20  1  0.86996800  0.12175300  0.49341100  1
  O  O21  1  0.86962200  0.12427400  0.99272900  1
  O  O22  1  0.87031600  0.62232600  0.49522400  1
  O  O23  1  0.86720900  0.61973100  0.99184700  1
  O  O24  1  0.37565300  0.37566000  0.00288100  1
  O  O25  1  0.37786700  0.37858800  0.50944200  1
  O  O26  1  0.37497300  0.87585900  0.00212100  1
  O  O27  1  0.37661700  0.87714500  0.50674500  1
  O  O28  1  0.87175100  0.37584200  0.00065400  1
  O  O29  1  0.87758100  0.37860800  0.50727100  1
  O  O30  1  0.87161600  0.87595800  0.00098200  1
  O  O31  1  0.87876000  0.87958000  0.51036200  1
  O  O32  1  0.06234600  0.08055900  0.13074600  1
  O  O33  1  0.06571800  0.08459300  0.63001800  1
  O  O34  1  0.05485100  0.56807800  0.12836800  1
  O  O35  1  0.06263200  0.58027700  0.62943200  1
  O  O36  1  0.56210000  0.08187000  0.13142800  1
  O  O37  1  0.56109100  0.08101200  0.62844000  1
  O  O38  1  0.56791100  0.57658200  0.13039700  1
  O  O39  1  0.56487800  0.58120500  0.62888500  1
  O  O40  1  0.42882400  0.41362100  0.37114200  1
  O  O41  1  0.43128400  0.41893800  0.86842800  1
  O  O42  1  0.43380000  0.91794500  0.37327300  1
  O  O43  1  0.43254900  0.92363000  0.87002200  1
  O  O44  1  0.93328500  0.42382100  0.37206700  1
  O  O45  1  0.93245800  0.42132900  0.86857300  1
  O  O46  1  0.92951200  0.91413600  0.37187200  1
  O  O47  1  0.93030000  0.92256200  0.86921400  1
  O  O48  1  0.31279000  0.30559300  0.12999500  1
  O  O49  1  0.31030500  0.29403500  0.63001200  1
  O  O50  1  0.31641100  0.80872700  0.13013800  1
  O  O51  1  0.31068600  0.79943300  0.62910500  1
  O  O52  1  0.81310600  0.31110400  0.12870700  1
  O  O53  1  0.81186800  0.29919600  0.62847500  1
  O  O54  1  0.80966700  0.79649200  0.13001500  1
  O  O55  1  0.80823900  0.79650900  0.62918800  1
  O  O56  1  0.18443000  0.20778300  0.37279300  1
  O  O57  1  0.18201600  0.20055400  0.86799500  1
  O  O58  1  0.18207500  0.69866400  0.37241100  1
  O  O59  1  0.18312300  0.69728300  0.86967500  1
  O  O60  1  0.68873600  0.20722900  0.37058300  1
  O  O61  1  0.67794100  0.19862800  0.86889100  1
  O  O62  1  0.69096200  0.70296700  0.37149200  1
  O  O63  1  0.67981200  0.69791900  0.86888800  1
  O  O64  1  0.49979800  0.00721500  0.25853800  1
  O  O65  1  0.47102400  0.02062500  0.74754300  1
  O  O66  1  0.49068400  0.51058700  0.25787600  1
  O  O67  1  0.47284000  0.51680800  0.74719700  1
  O  O68  1  0.99777900  0.00300300  0.25713200  1
  O  O69  1  0.97274500  0.01628100  0.74718700  1
  O  O70  1  0.97471500  0.52485600  0.25333500  1
  O  O71  1  0.97253100  0.51900300  0.74841500  1
  O  O72  1  0.23271500  0.49038100  0.25256400  1
  O  O73  1  0.22300200  0.47922900  0.74857100  1
  O  O74  1  0.24919300  0.00531600  0.25789700  1
  O  O75  1  0.22225700  0.98034900  0.74910900  1
  O  O76  1  0.72396800  0.47277500  0.25122600  1
  O  O77  1  0.72278800  0.47959800  0.74830700  1
  O  O78  1  0.74186500  0.99293600  0.25186400  1
  O  O79  1  0.72211400  0.98064300  0.74863300  1
loop_
_geom_bond_atom_site_label_1
_geom_bond_atom_site_label_2
_geom_bond_distance
_geom_bond_site_symmetry_2
Ba0 O48 2.718867 1_555
Ba0 O10 2.766371 1_545
Ba0 O26 2.767741 1_545
Ba0 O36 2.830527 1_555
Ba0 O32 2.838479 1_555
Ba0 O1 2.874631 1_554
Ba0 O17 2.878520 1_554
Ba0 O50 2.894138 1_545
Ba0 O64 2.921339 1_555
Ba0 O74 2.934105 1_555
Ba1 O50 2.731796 1_555
Ba1 O24 2.779271 1_555
Ba1 O8 2.788510 1_555
Ba1 O3 2.838120 1_554
Ba1 O19 2.863744 1_554
Ba1 O66 2.864472 1_555
Ba1 O34 2.893055 1_555
Ba1 O38 2.907397 1_555
Ba1 O48 2.950616 1_555
Ba1 O72 3.029627 1_555
Ba2 O52 2.762560 1_555
Ba2 O30 2.762838 1_545
Ba2 O14 2.774017 1_545
Ba2 O32 2.831253 1_655
Ba2 O5 2.842893 1_554
Ba2 O36 2.849282 1_555
Ba2 O21 2.861250 1_554
Ba2 O68 2.936215 1_555
Ba2 O78 2.965244 1_545
Ba2 O54 3.056757 1_545
Ba3 O34 2.760665 1_555
Ba3 O10 2.779289 1_555
Ba3 O30 2.788172 1_455
Ba3 O3 2.850450 1_554
Ba3 O54 2.865842 1_455
Ba3 O23 2.868479 1_454
Ba3 O50 2.879845 1_555
Ba3 O74 2.945991 1_565
Ba3 O68 2.952058 1_465
Ba3 O32 3.014504 1_565
O0 Ti1 1.997602 1_445
O0 Ti9 2.006758 1_555
O0 Sr24 2.635541 1_455
O0 Sr7 2.660659 1_545
O0 Sr14 2.761998 1_555
O0 Sr0 2.773158 1_555
O1 Ti8 1.993002 1_555
O1 Ti0 1.996132 1_455
O1 Sr8 2.665769 1_545
O1 Sr25 2.668740 1_455
O1 Sr13 2.762235 1_556
O2 Ti3 1.993357 1_455
O2 Ti11 1.997629 1_555
O2 Sr26 2.639549 1_455
O2 Sr5 2.666562 1_555
O2 Sr1 2.728796 1_555
O2 Sr15 2.735432 1_555
O3 Ti2 2.005757 1_455
O3 Ti10 2.017649 1_555
O3 Sr6 2.628078 1_555
O3 Sr27 2.655853 1_455
O4 Ti13 2.006901 1_555
O4 Ti5 2.012149 1_545
O4 Sr20 2.625991 1_555
O4 Sr11 2.660097 1_545
O4 Sr17 2.743874 1_555
O4 Sr2 2.762841 1_555
O5 Ti12 1.998340 1_555
O5 Ti4 2.000550 1_545
O5 Sr21 2.640436 1_555
O5 Sr12 2.680938 1_545
O5 Sr16 2.746241 1_556
O6 Ti7 2.005871 1_555
O6 Ti15 2.014584 1_555
O6 Sr9 2.613726 1_555
O6 Sr22 2.634287 1_555
O6 Sr19 2.769255 1_555
O6 Sr4 2.788205 1_555
O7 Ti6 1.977986 1_555
O7 Ti14 1.990865 1_555
O7 Sr10 2.662415 1_555
O7 Sr23 2.672381 1_555
O7 Sr18 2.774033 1_556
O7 Sr3 2.775136 1_556
O8 Ti2 1.996115 1_454
O8 Ti8 2.005756 1_554
O8 Sr13 2.657056 1_555
O8 Sr25 2.694149 1_454
O8 Sr6 2.731418 1_554
O9 Ti3 2.000712 1_455
O9 Ti9 2.005512 1_555
O9 Sr14 2.615670 1_555
O9 Sr1 2.652321 1_555
O9 Sr24 2.761096 1_455
O9 Sr5 2.771839 1_555
O10 Ti0 2.005887 1_464
O10 Ti10 2.008269 1_554
O10 Sr27 2.679448 1_454
O10 Sr8 2.692904 1_554
O11 Ti1 1.999766 1_455
O11 Ti11 2.004323 1_555
O11 Sr0 2.619883 1_565
O11 Sr15 2.676537 1_555
O11 Sr26 2.732929 1_455
O11 Sr7 2.777048 1_555
O12 Ti6 1.988795 1_554
O12 Ti12 1.999873 1_554
O12 Sr16 2.650168 1_555
O12 Sr3 2.659727 1_555
O12 Sr21 2.718815 1_554
O12 Sr10 2.741119 1_554
O13 Ti7 1.990619 1_555
O13 Ti13 2.000312 1_555
O13 Sr17 2.650087 1_555
O13 Sr4 2.656116 1_555
O13 Sr9 2.764353 1_555
O13 Sr20 2.798825 1_555
O14 Ti4 2.003973 1_554
O14 Ti14 2.008045 1_554
O14 Sr18 2.668255 1_555
O14 Sr23 2.690180 1_554
O14 Sr12 2.752927 1_554
O15 Ti5 1.996630 1_555
O15 Ti15 1.998729 1_555
O15 Sr2 2.652343 1_565
O15 Sr19 2.657557 1_555
O15 Sr22 2.766786 1_555
O15 Sr11 2.776509 1_555
O16 Ti9 2.001295 1_555
O16 Ti5 2.013060 1_545
O16 Sr20 2.618113 1_555
O16 Sr7 2.659988 1_545
O16 Sr0 2.735702 1_555
O16 Sr17 2.766702 1_555
O17 Ti8 1.990416 1_555
O17 Ti4 2.001942 1_545
O17 Sr21 2.630262 1_555
O17 Sr8 2.671627 1_545
O17 Sr16 2.772736 1_556
O18 Ti11 2.005900 1_555
O18 Ti7 2.009711 1_555
O18 Sr5 2.639715 1_555
O18 Sr22 2.668730 1_555
O18 Sr1 2.728661 1_555
O18 Sr19 2.745897 1_555
O19 Ti6 1.997477 1_555
O19 Ti10 2.005751 1_555
O19 Sr6 2.649538 1_555
O19 Sr23 2.659922 1_555
O19 Sr18 2.744621 1_556
O20 Ti13 1.999898 1_555
O20 Ti1 2.003570 1_545
O20 Sr24 2.672043 1_555
O20 Sr11 2.672610 1_545
O20 Sr2 2.743219 1_555
O20 Sr14 2.750554 1_655
O21 Ti12 1.990355 1_555
O21 Ti0 2.009538 1_555
O21 Sr25 2.651085 1_555
O21 Sr12 2.673463 1_545
O21 Sr13 2.745568 1_656
O22 Ti15 1.998657 1_555
O22 Ti3 2.002746 1_555
O22 Sr26 2.640672 1_555
O22 Sr9 2.650940 1_555
O22 Sr4 2.727197 1_555
O22 Sr15 2.746547 1_655
O23 Ti14 1.998474 1_555
O23 Ti2 2.005622 1_555
O23 Sr10 2.640590 1_555
O23 Sr27 2.662461 1_555
O23 Sr3 2.752525 1_556
O24 Ti8 1.998058 1_554
O24 Ti6 2.003190 1_554
O24 Sr16 2.657454 1_555
O24 Sr21 2.712535 1_554
O24 Sr6 2.726600 1_554
O25 Ti9 1.989221 1_555
O25 Ti7 2.003457 1_555
O25 Sr17 2.629826 1_555
O25 Sr1 2.642206 1_555
O25 Sr5 2.799917 1_555
O25 Sr20 2.803017 1_555
O26 Ti10 1.986700 1_554
O26 Ti4 1.991181 1_554
O26 Sr23 2.703187 1_554
O26 Sr18 2.717549 1_555
O26 Sr8 2.722765 1_554
O27 Ti11 1.989480 1_555
O27 Ti5 2.004232 1_555
O27 Sr0 2.621323 1_565
O27 Sr19 2.654355 1_555
O27 Sr22 2.754643 1_555
O27 Sr7 2.793553 1_555
O28 Ti12 1.980679 1_554
O28 Ti2 1.990329 1_554
O28 Sr3 2.658272 1_555
O28 Sr13 2.703539 1_655
O28 Sr10 2.705228 1_554
O28 Sr25 2.718056 1_554
O29 Ti13 1.987862 1_555
O29 Ti3 1.994259 1_555
O29 Sr14 2.629837 1_655
O29 Sr4 2.650457 1_555
O29 Sr24 2.767989 1_555
O29 Sr9 2.795897 1_555
O30 Ti14 2.000412 1_554
O30 Ti0 2.014789 1_564
O30 Sr12 2.692701 1_554
O30 Sr27 2.706382 1_554
O31 Ti15 1.987813 1_555
O31 Ti1 2.002444 1_555
O31 Sr15 2.632586 1_655
O31 Sr2 2.633479 1_565
O31 Sr26 2.775110 1_555
O31 Sr11 2.836041 1_555
O32 Ti16 1.953239 1_555
O32 Ti0 2.114382 1_454
O32 Sr13 2.654965 1_555
O33 Ti17 1.930378 1_555
O33 Ti1 2.080548 1_445
O33 Sr14 2.589879 1_555
O33 Sr0 2.823138 1_555
O33 Sr2 2.881202 1_455
O33 Sr15 3.098550 1_545
O34 Ti18 1.963696 1_555
O34 Ti2 2.070980 1_454
O34 Sr3 2.744512 1_455
O34 Sr13 2.882085 1_555
O35 Ti19 1.937562 1_555
O35 Ti3 2.043470 1_455
O35 Sr15 2.604742 1_555
O35 Sr4 2.838281 1_455
O35 Sr1 2.842872 1_555
O35 Sr14 3.029934 1_555
O36 Ti20 1.943766 1_555
O36 Ti4 2.113559 1_544
O36 Sr16 2.664366 1_555
O36 Sr18 3.057217 1_545
O37 Ti21 1.939233 1_555
O37 Ti5 2.053038 1_545
O37 Sr17 2.596246 1_555
O37 Sr0 2.828554 1_555
O37 Sr2 2.846102 1_555
O37 Sr19 3.065060 1_545
O38 Ti22 1.944150 1_555
O38 Ti6 2.087304 1_554
O38 Sr18 2.657719 1_555
O38 Sr3 2.803185 1_555
O38 Sr16 2.947790 1_555
O39 Ti23 1.935371 1_555
O39 Ti7 2.049209 1_555
O39 Sr19 2.594342 1_555
O39 Sr4 2.816070 1_555
O39 Sr1 2.866136 1_555
O39 Sr17 3.063736 1_555
O40 Ti24 1.924636 1_555
O40 Ti7 2.057733 1_555
O40 Sr20 2.600773 1_555
O40 Sr5 2.785907 1_555
O40 Sr9 2.902491 1_555
O40 Sr22 3.108878 1_555
O41 Ti25 1.924010 1_555
O41 Ti6 2.074138 1_555
O41 Sr21 2.636264 1_555
O41 Sr6 2.826848 1_555
O41 Sr10 2.851224 1_555
O41 Sr23 3.057937 1_555
O42 Ti26 1.930744 1_555
O42 Ti5 2.008531 1_555
O42 Sr22 2.583260 1_555
O42 Sr7 2.821024 1_555
O42 Sr11 2.849109 1_555
O42 Sr20 3.017937 1_565
O43 Ti27 1.934097 1_555
O43 Ti4 2.038799 1_555
O43 Sr23 2.646892 1_555
O43 Sr8 2.836078 1_555
O43 Sr12 2.839888 1_555
O43 Sr21 2.983792 1_565
O44 Ti28 1.940612 1_555
O44 Ti3 2.045311 1_555
O44 Sr24 2.643504 1_555
O44 Sr9 2.828957 1_555
O44 Sr5 2.855170 1_655
O44 Sr26 2.984991 1_555
O45 Ti29 1.921867 1_555
O45 Ti2 2.050622 1_555
O45 Sr25 2.637491 1_555
O45 Sr10 2.842459 1_555
O45 Sr6 2.852694 1_655
O45 Sr27 3.023872 1_555
O46 Ti30 1.931537 1_555
O46 Ti1 2.035845 1_555
O46 Sr26 2.571132 1_555
O46 Sr11 2.791342 1_555
O46 Sr7 2.898897 1_655
O46 Sr24 3.120569 1_565
O47 Ti31 1.921843 1_555
O47 Ti0 2.039736 1_565
O47 Sr27 2.651844 1_555
O47 Sr12 2.819606 1_555
O47 Sr8 2.864164 1_655
O47 Sr25 3.011278 1_565
O48 Ti24 1.949563 1_555
O48 Ti8 2.085225 1_554
O48 Sr16 2.849075 1_555
O48 Sr13 2.849359 1_555
O49 Ti25 1.927944 1_555
O49 Ti9 2.082637 1_555
O49 Sr0 2.583908 1_555
O49 Sr14 2.808344 1_555
O49 Sr17 2.897052 1_555
O49 Sr1 3.123801 1_555
O50 Ti26 1.961659 1_555
O50 Ti10 2.082225 1_554
O50 Sr18 2.802174 1_555
O51 Ti27 1.935914 1_555
O51 Ti11 2.049898 1_555
O51 Sr1 2.602637 1_555
O51 Sr15 2.815992 1_555
O51 Sr19 2.866569 1_555
O51 Sr0 3.018143 1_565
O52 Ti28 1.959675 1_555
O52 Ti12 2.066294 1_554
O52 Sr13 2.819711 1_655
O52 Sr16 2.841260 1_555
O52 Sr3 2.864056 1_555
O53 Ti29 1.942733 1_555
O53 Ti13 2.051849 1_555
O53 Sr2 2.600937 1_555
O53 Sr17 2.815629 1_555
O53 Sr14 2.856613 1_655
O53 Sr4 3.037369 1_555
O54 Ti30 1.947637 1_555
O54 Ti14 2.102662 1_554
O54 Sr3 2.628961 1_555
O54 Sr18 2.801959 1_555
O55 Ti31 1.932806 1_555
O55 Ti15 2.050519 1_555
O55 Sr4 2.587983 1_555
O55 Sr19 2.788234 1_555
O55 Sr15 2.891194 1_655
O55 Sr2 3.093218 1_565
O56 Ti16 1.937853 1_555
O56 Ti9 2.020736 1_555
O56 Sr5 2.566977 1_555
O56 Sr24 2.821834 1_455
O56 Sr20 2.825702 1_555
O56 Sr7 3.102268 1_545
O57 Ti17 1.918683 1_555
O57 Ti8 2.076574 1_555
O57 Sr6 2.633584 1_555
O57 Sr25 2.845320 1_455
O57 Sr21 2.853642 1_555
O57 Sr8 3.062796 1_545
O58 Ti18 1.936526 1_555
O58 Ti11 2.029084 1_555
O58 Sr7 2.649016 1_555
O58 Sr26 2.810499 1_455
O58 Sr22 2.861856 1_555
O58 Sr5 2.988895 1_555
O59 Ti19 1.925690 1_555
O59 Ti10 2.050060 1_555
O59 Sr8 2.646437 1_555
O59 Sr27 2.832919 1_455
O59 Sr23 2.841699 1_555
O59 Sr6 2.988316 1_555
O60 Ti20 1.919310 1_555
O60 Ti13 2.056047 1_555
O60 Sr9 2.584264 1_555
O60 Sr24 2.802904 1_555
O60 Sr20 2.931174 1_555
O60 Sr11 3.105270 1_545
O61 Ti21 1.928942 1_555
O61 Ti12 2.056348 1_555
O61 Sr10 2.632958 1_555
O61 Sr21 2.784796 1_555
O61 Sr25 2.887123 1_555
O61 Sr12 3.029365 1_545
O62 Ti22 1.933227 1_555
O62 Ti15 2.053447 1_555
O62 Sr11 2.603715 1_555
O62 Sr26 2.771638 1_555
O62 Sr22 2.921522 1_555
O62 Sr9 3.022548 1_555
O63 Ti23 1.921144 1_555
O63 Ti14 2.050371 1_555
O63 Sr12 2.642497 1_555
O63 Sr23 2.805036 1_555
O63 Sr27 2.883387 1_555
O63 Sr10 3.018991 1_555
O64 Ti20 1.890621 1_555
O64 Ti26 1.923173 1_545
O64 Sr20 2.791386 1_555
O64 Sr11 2.856963 1_545
O64 Sr18 3.061358 1_545
O65 Ti27 1.908397 1_545
O65 Ti21 1.929056 1_555
O65 Sr0 2.689666 1_555
O65 Sr21 2.717768 1_555
O65 Sr19 3.201049 1_545
O65 Sr12 3.241721 1_545
O66 Ti24 1.900575 1_555
O66 Ti22 1.911366 1_555
O66 Sr22 2.747318 1_555
O66 Sr9 2.940608 1_555
O66 Sr16 3.115566 1_555
O67 Ti25 1.898445 1_555
O67 Ti23 1.899939 1_555
O67 Sr1 2.703071 1_555
O67 Sr23 2.752556 1_555
O67 Sr17 3.176931 1_555
O67 Sr10 3.197873 1_555
O68 Ti16 1.904989 1_655
O68 Ti30 1.942851 1_545
O68 Sr24 2.833071 1_555
O68 Sr7 2.863391 1_645
O69 Ti17 1.900815 1_655
O69 Ti31 1.902655 1_545
O69 Sr2 2.715679 1_555
O69 Sr25 2.740471 1_555
O69 Sr15 3.145797 1_645
O69 Sr8 3.212542 1_645
O70 Ti28 1.882167 1_555
O70 Ti18 1.919444 1_655
O70 Sr26 2.670873 1_555
O70 Sr3 2.737329 1_555
O70 Sr5 3.190203 1_655
O71 Ti19 1.889989 1_655
O71 Ti29 1.931747 1_555
O71 Sr4 2.698528 1_555
O71 Sr27 2.732852 1_555
O71 Sr14 3.194049 1_655
O71 Sr6 3.225830 1_655
O72 Ti18 1.877984 1_555
O72 Ti24 1.934414 1_555
O72 Sr5 2.759267 1_555
O72 Sr13 2.830161 1_555
O72 Sr22 3.063786 1_555
O73 Ti25 1.901736 1_555
O73 Ti19 1.938810 1_555
O73 Sr14 2.702079 1_555
O73 Sr6 2.729356 1_555
O73 Sr1 3.191722 1_555
O73 Sr23 3.214213 1_555
O74 Ti16 1.932768 1_555
O74 Ti26 1.934126 1_545
O74 Sr7 2.814692 1_545
O74 Sr20 2.816487 1_555
O75 Ti17 1.903556 1_565
O75 Ti27 1.929228 1_555
O75 Sr15 2.691764 1_555
O75 Sr8 2.719005 1_555
O75 Sr0 3.203797 1_565
O75 Sr21 3.204739 1_565
O76 Ti28 1.878620 1_555
O76 Ti22 1.964194 1_555
O76 Sr9 2.635232 1_555
O76 Sr16 2.671529 1_555
O77 Ti29 1.877816 1_555
O77 Ti23 1.956242 1_555
O77 Sr17 2.698793 1_555
O77 Sr10 2.710890 1_555
O77 Sr4 3.178620 1_555
O77 Sr27 3.224799 1_555
O78 Ti20 1.893082 1_565
O78 Ti30 1.911332 1_555
O78 Sr11 2.810193 1_555
O78 Sr18 2.871615 1_555
O78 Sr24 3.014736 1_565
O79 Ti21 1.882678 1_565
O79 Ti31 1.944104 1_555
O79 Sr19 2.703846 1_555
O79 Sr12 2.728484 1_555
O79 Sr25 3.189452 1_565
O79 Sr2 3.191241 1_565
