# generated using pymatgen
data_Al2Fe(SiO5)2
_symmetry_space_group_name_H-M   'P 1'
_cell_length_a   11.86375459
_cell_length_b   11.86375459
_cell_length_c   5.27469100
_cell_angle_alpha   90.00000000
_cell_angle_beta   90.00000000
_cell_angle_gamma   109.91063295
_symmetry_Int_Tables_number   1
_chemical_formula_structural   Al2Fe(SiO5)2
_chemical_formula_sum   'Al8 Fe4 Si8 O40'
_cell_volume   698.02841180
_cell_formula_units_Z   4
loop_
 _symmetry_equiv_pos_site_id
 _symmetry_equiv_pos_as_xyz
  1  'x, y, z'
loop_
 _atom_site_type_symbol
 _atom_site_label
 _atom_site_symmetry_multiplicity
 _atom_site_fract_x
 _atom_site_fract_y
 _atom_site_fract_z
 _atom_site_occupancy
  Al  Al0  1  0.19049600  0.19049600  0.00000000  1
  Al  Al1  1  0.30950400  0.30950400  0.50000000  1
  Al  Al2  1  0.69049600  0.69049600  0.50000000  1
  Al  Al3  1  0.80950400  0.80950400  0.00000000  1
  Al  Al4  1  0.78839200  0.21160800  0.50000000  1
  Al  Al5  1  0.28839200  0.71160800  0.00000000  1
  Al  Al6  1  0.71160800  0.28839200  0.00000000  1
  Al  Al7  1  0.21160800  0.78839200  0.50000000  1
  Fe  Fe0  1  0.86948600  0.13051400  0.00000000  1
  Fe  Fe1  1  0.36948600  0.63051400  0.50000000  1
  Fe  Fe2  1  0.63051400  0.36948600  0.50000000  1
  Fe  Fe3  1  0.13051400  0.86948600  0.00000000  1
  Si  Si0  1  0.06315800  0.33506600  0.33364600  1
  Si  Si1  1  0.16493400  0.43684200  0.83364600  1
  Si  Si2  1  0.83506600  0.56315800  0.83364600  1
  Si  Si3  1  0.93684200  0.66493400  0.33364600  1
  Si  Si4  1  0.43684200  0.16493400  0.16635400  1
  Si  Si5  1  0.33506600  0.06315800  0.66635400  1
  Si  Si6  1  0.66493400  0.93684200  0.66635400  1
  Si  Si7  1  0.56315800  0.83506600  0.16635400  1
  O  O0  1  0.02398600  0.14950900  0.89810200  1
  O  O1  1  0.35049100  0.47601400  0.39810200  1
  O  O2  1  0.64950900  0.52398600  0.39810200  1
  O  O3  1  0.97601400  0.85049100  0.89810200  1
  O  O4  1  0.47601400  0.35049100  0.60189800  1
  O  O5  1  0.14950900  0.02398600  0.10189800  1
  O  O6  1  0.85049100  0.97601400  0.10189800  1
  O  O7  1  0.52398600  0.64950900  0.60189800  1
  O  O8  1  0.16311700  0.26830700  0.31442200  1
  O  O9  1  0.23169300  0.33688300  0.81442200  1
  O  O10  1  0.76830700  0.66311700  0.81442200  1
  O  O11  1  0.83688300  0.73169300  0.31442200  1
  O  O12  1  0.33688300  0.23169300  0.18557800  1
  O  O13  1  0.26830700  0.16311700  0.68557800  1
  O  O14  1  0.73169300  0.83688300  0.68557800  1
  O  O15  1  0.66311700  0.76830700  0.18557800  1
  O  O16  1  0.08010000  0.41954800  0.08258500  1
  O  O17  1  0.08045200  0.41990000  0.58258500  1
  O  O18  1  0.91954800  0.58010000  0.58258500  1
  O  O19  1  0.91990000  0.58045200  0.08258500  1
  O  O20  1  0.41990000  0.08045200  0.41741500  1
  O  O21  1  0.41954800  0.08010000  0.91741500  1
  O  O22  1  0.58045200  0.91990000  0.91741500  1
  O  O23  1  0.58010000  0.91954800  0.41741500  1
  O  O24  1  0.93110100  0.23166500  0.33866800  1
  O  O25  1  0.26833500  0.56889900  0.83866800  1
  O  O26  1  0.73166500  0.43110100  0.83866800  1
  O  O27  1  0.06889900  0.76833500  0.33866800  1
  O  O28  1  0.56889900  0.26833500  0.16133200  1
  O  O29  1  0.23166500  0.93110100  0.66133200  1
  O  O30  1  0.76833500  0.06889900  0.66133200  1
  O  O31  1  0.43110100  0.73166500  0.16133200  1
  O  O32  1  0.85097600  0.27307600  0.83036800  1
  O  O33  1  0.22692400  0.64902400  0.33036800  1
  O  O34  1  0.77307600  0.35097600  0.33036800  1
  O  O35  1  0.14902400  0.72692400  0.83036800  1
  O  O36  1  0.64902400  0.22692400  0.66963200  1
  O  O37  1  0.27307600  0.85097600  0.16963200  1
  O  O38  1  0.72692400  0.14902400  0.16963200  1
  O  O39  1  0.35097600  0.77307600  0.66963200  1
loop_
_geom_bond_atom_site_label_1
_geom_bond_atom_site_label_2
_geom_bond_distance
_geom_bond_site_symmetry_2
Al0 O12 1.906580 1_555
Al0 O9 1.906580 1_554
Al0 O5 1.942529 1_555
Al0 O0 1.942529 1_554
Al0 O8 1.977994 1_555
Al0 O13 1.977994 1_554
Al1 O8 1.906580 1_555
Al1 O13 1.906580 1_555
Al1 O4 1.942529 1_555
Al1 O1 1.942529 1_555
Al1 O12 1.977994 1_555
Al1 O9 1.977994 1_555
Al2 O14 1.906580 1_555
Al2 O11 1.906580 1_555
Al2 O2 1.942529 1_555
Al2 O7 1.942529 1_555
Al2 O15 1.977994 1_555
Al2 O10 1.977994 1_555
Al3 O10 1.906580 1_554
Al3 O15 1.906580 1_555
Al3 O6 1.942529 1_555
Al3 O3 1.942529 1_554
Al3 O14 1.977994 1_554
Al3 O11 1.977994 1_555
Al4 O24 1.836533 1_555
Al4 O30 1.836533 1_555
Al4 O38 1.936725 1_555
Al4 O32 1.936725 1_555
Al4 O36 1.942179 1_555
Al4 O34 1.942179 1_555
Al5 O25 1.836533 1_554
Al5 O31 1.836533 1_555
Al5 O39 1.936725 1_554
Al5 O33 1.936725 1_555
Al5 O37 1.942179 1_555
Al5 O35 1.942179 1_554
Al6 O28 1.836533 1_555
Al6 O26 1.836533 1_554
Al6 O34 1.936725 1_555
Al6 O36 1.936725 1_554
Al6 O32 1.942179 1_554
Al6 O38 1.942179 1_555
Al7 O27 1.836533 1_555
Al7 O29 1.836533 1_555
Al7 O35 1.936725 1_555
Al7 O37 1.936725 1_555
Al7 O33 1.942179 1_555
Al7 O39 1.942179 1_555
Fe0 O6 1.848793 1_545
Fe0 O0 1.848793 1_654
Fe0 O38 1.990565 1_555
Fe0 O32 1.990565 1_554
Fe0 O24 2.137301 1_555
Fe0 O30 2.137301 1_554
Fe1 O7 1.848793 1_555
Fe1 O1 1.848793 1_555
Fe1 O39 1.990565 1_555
Fe1 O33 1.990565 1_555
Fe1 O31 2.137301 1_555
Fe1 O25 2.137301 1_555
Fe2 O2 1.848793 1_555
Fe2 O4 1.848793 1_555
Fe2 O34 1.990565 1_555
Fe2 O36 1.990565 1_555
Fe2 O28 2.137301 1_555
Fe2 O26 2.137301 1_555
Fe3 O3 1.848793 1_454
Fe3 O5 1.848793 1_565
Fe3 O35 1.990565 1_554
Fe3 O37 1.990565 1_555
Fe3 O27 2.137301 1_555
Fe3 O29 2.137301 1_554
O8 Si0 1.638176 1_555
O9 Si1 1.638176 1_555
O10 Si2 1.638176 1_555
O11 Si3 1.638176 1_555
O12 Si4 1.638176 1_555
O13 Si5 1.638176 1_555
O14 Si6 1.638176 1_555
O15 Si7 1.638176 1_555
O16 Si1 1.624365 1_554
O16 Si0 1.631389 1_555
O17 Si0 1.624365 1_555
O17 Si1 1.631389 1_555
O18 Si3 1.624365 1_555
O18 Si2 1.631389 1_555
O19 Si2 1.624365 1_554
O19 Si3 1.631389 1_555
O20 Si5 1.624365 1_555
O20 Si4 1.631389 1_555
O21 Si4 1.624365 1_556
O21 Si5 1.631389 1_555
O22 Si7 1.624365 1_556
O22 Si6 1.631389 1_555
O23 Si6 1.624365 1_555
O23 Si7 1.631389 1_555
O24 Si0 1.628206 1_655
O25 Si1 1.628206 1_555
O26 Si2 1.628206 1_555
O27 Si3 1.628206 1_455
O28 Si4 1.628206 1_555
O29 Si5 1.628206 1_565
O30 Si6 1.628206 1_545
O31 Si7 1.628206 1_555
