# generated using pymatgen
data_RbHgC2N2ClO
_symmetry_space_group_name_H-M   'P 1'
_cell_length_a   9.31975948
_cell_length_b   9.31975948
_cell_length_c   11.00948900
_cell_angle_alpha   90.00000000
_cell_angle_beta   90.00000000
_cell_angle_gamma   149.30094595
_symmetry_Int_Tables_number   1
_chemical_formula_structural   RbHgC2N2ClO
_chemical_formula_sum   'Rb2 Hg2 C4 N4 Cl2 O2'
_cell_volume   488.19884830
_cell_formula_units_Z   2
loop_
 _symmetry_equiv_pos_site_id
 _symmetry_equiv_pos_as_xyz
  1  'x, y, z'
loop_
 _atom_site_type_symbol
 _atom_site_label
 _atom_site_symmetry_multiplicity
 _atom_site_fract_x
 _atom_site_fract_y
 _atom_site_fract_z
 _atom_site_occupancy
  Rb  Rb0  1  0.27636500  0.72363500  0.25000000  1
  Rb  Rb1  1  0.72363500  0.27636500  0.75000000  1
  Hg  Hg0  1  0.00000000  0.00000000  0.50000000  1
  Hg  Hg1  1  0.00000000  0.00000000  0.00000000  1
  C  C0  1  0.88730300  0.11269700  0.52592200  1
  C  C1  1  0.11269700  0.88730300  0.47407800  1
  C  C2  1  0.88730300  0.11269700  0.97407800  1
  C  C3  1  0.11269700  0.88730300  0.02592200  1
  N  N0  1  0.82254100  0.17745900  0.53507900  1
  N  N1  1  0.17745900  0.82254100  0.46492200  1
  N  N2  1  0.82254100  0.17745900  0.96492200  1
  N  N3  1  0.17745900  0.82254100  0.03507900  1
  Cl  Cl0  1  0.94695300  0.05304700  0.25000000  1
  Cl  Cl1  1  0.05304700  0.94695300  0.75000000  1
  O  O0  1  0.67441400  0.32558600  0.25000000  1
  O  O1  1  0.32558600  0.67441400  0.75000000  1
loop_
_geom_bond_atom_site_label_1
_geom_bond_atom_site_label_2
_geom_bond_distance
_geom_bond_site_symmetry_2
C0 N0 1.168430 1_555
C0 Hg0 2.045691 1_655
C1 N1 1.168429 1_555
C1 Hg0 2.045691 1_565
C2 N2 1.168429 1_555
C2 Hg1 2.045691 1_656
C3 N3 1.168430 1_555
C3 Hg1 2.045691 1_565
N0 Rb1 2.959617 1_555
N1 Rb0 2.959625 1_555
N2 Rb1 2.959625 1_555
N3 Rb0 2.959617 1_555
Cl0 Hg0 2.912853 1_655
Cl0 Hg1 2.912853 1_655
Cl0 Rb0 3.935483 1_545
Cl0 Rb0 3.935483 1_655
Cl1 Hg1 2.912853 1_566
Cl1 Hg0 2.912853 1_565
Cl1 Rb1 3.935483 1_455
Cl1 Rb1 3.935483 1_565
O0 Rb0 3.073154 1_545
O0 Rb0 3.073154 1_655
O1 Rb1 3.073154 1_455
O1 Rb1 3.073154 1_565
