# generated using pymatgen
data_Pm3Hg
_symmetry_space_group_name_H-M   'P 1'
_cell_length_a   7.04465960
_cell_length_b   7.04465210
_cell_length_c   5.48642723
_cell_angle_alpha   90.00000000
_cell_angle_beta   90.00000000
_cell_angle_gamma   120.00009505
_symmetry_Int_Tables_number   1
_chemical_formula_structural   Pm3Hg
_chemical_formula_sum   'Pm6 Hg2'
_cell_volume   235.79761188
_cell_formula_units_Z   2
loop_
 _symmetry_equiv_pos_site_id
 _symmetry_equiv_pos_as_xyz
  1  'x, y, z'
loop_
 _atom_site_type_symbol
 _atom_site_label
 _atom_site_symmetry_multiplicity
 _atom_site_fract_x
 _atom_site_fract_y
 _atom_site_fract_z
 _atom_site_occupancy
  Pm  Pm0  1  0.17622801  0.35245851  0.24999900  1
  Pm  Pm1  1  0.64760324  0.82378514  0.24999900  1
  Pm  Pm2  1  0.17618193  0.82378205  0.24999900  1
  Pm  Pm3  1  0.82381562  0.64763532  0.74999900  1
  Pm  Pm4  1  0.35242844  0.17619734  0.74999900  1
  Pm  Pm5  1  0.82376919  0.17619375  0.74999900  1
  Hg  Hg0  1  0.33331014  0.66663760  0.74999900  1
  Hg  Hg1  1  0.66666242  0.33331030  0.24999900  1
loop_
_geom_bond_atom_site_label_1
_geom_bond_atom_site_label_2
_geom_bond_distance
_geom_bond_site_symmetry_2
Hg0 Pm0 3.346517 1_555
Hg0 Pm0 3.346517 1_556
Hg0 Pm2 3.346846 1_555
Hg0 Pm2 3.346846 1_556
Hg0 Pm1 3.346917 1_555
Hg0 Pm1 3.346917 1_556
Hg0 Pm3 3.524190 1_455
Hg0 Pm5 3.524196 1_455
Hg0 Pm4 3.524253 1_555
Hg0 Pm4 3.524261 1_565
Hg0 Pm3 3.524284 1_555
Hg0 Pm5 3.524303 1_565
Hg1 Pm5 3.346674 1_554
Hg1 Pm5 3.346674 1_555
Hg1 Pm4 3.346710 1_555
Hg1 Pm4 3.346710 1_554
Hg1 Pm3 3.347027 1_555
Hg1 Pm3 3.347027 1_554
Hg1 Pm0 3.524206 1_655
Hg1 Pm2 3.524209 1_655
Hg1 Pm1 3.524213 1_545
Hg1 Pm2 3.524270 1_545
Hg1 Pm1 3.524276 1_555
Hg1 Pm0 3.524327 1_555
