# generated using pymatgen
data_LiIrN2
_symmetry_space_group_name_H-M   'P 1'
_cell_length_a   5.70637000
_cell_length_b   6.59349500
_cell_length_c   5.34294300
_cell_angle_alpha   90.00000000
_cell_angle_beta   90.00000000
_cell_angle_gamma   90.00000000
_symmetry_Int_Tables_number   1
_chemical_formula_structural   LiIrN2
_chemical_formula_sum   'Li4 Ir4 N8'
_cell_volume   201.02781396
_cell_formula_units_Z   4
loop_
 _symmetry_equiv_pos_site_id
 _symmetry_equiv_pos_as_xyz
  1  'x, y, z'
loop_
 _atom_site_type_symbol
 _atom_site_label
 _atom_site_symmetry_multiplicity
 _atom_site_fract_x
 _atom_site_fract_y
 _atom_site_fract_z
 _atom_site_occupancy
  Li  Li0  1  0.59126500  0.37342300  0.99865400  1
  Li  Li1  1  0.40873500  0.62657700  0.49865400  1
  Li  Li2  1  0.90873500  0.87342300  0.49865400  1
  Li  Li3  1  0.09126500  0.12657700  0.99865400  1
  Ir  Ir0  1  0.57813800  0.85750500  0.01182300  1
  Ir  Ir1  1  0.42186200  0.14249500  0.51182300  1
  Ir  Ir2  1  0.92186200  0.35750500  0.51182300  1
  Ir  Ir3  1  0.07813800  0.64249500  0.01182300  1
  N  N0  1  0.60474900  0.36970800  0.39746700  1
  N  N1  1  0.39525100  0.63029200  0.89746700  1
  N  N2  1  0.89525100  0.86970800  0.89746700  1
  N  N3  1  0.10474900  0.13029200  0.39746700  1
  N  N4  1  0.55758700  0.90183100  0.36205600  1
  N  N5  1  0.44241300  0.09816900  0.86205600  1
  N  N6  1  0.94241300  0.40183100  0.86205600  1
  N  N7  1  0.05758700  0.59816900  0.36205600  1
loop_
_geom_bond_atom_site_label_1
_geom_bond_atom_site_label_2
_geom_bond_distance
_geom_bond_site_symmetry_2
Li0 N1 2.100451 1_555
Li0 N0 2.132365 1_556
Li0 N5 2.132594 1_555
Li0 N6 2.140766 1_555
Li1 N0 2.100451 1_555
Li1 N1 2.132365 1_555
Li1 N4 2.132594 1_555
Li1 N7 2.140766 1_555
Li2 N3 2.100451 1_665
Li2 N2 2.132365 1_555
Li2 N7 2.132594 1_655
Li2 N4 2.140766 1_555
Li3 N2 2.100451 1_445
Li3 N3 2.132365 1_556
Li3 N6 2.132594 1_455
Li3 N5 2.140766 1_555
Ir0 N4 1.897588 1_555
Ir0 N2 1.911626 1_554
Ir0 N1 1.925318 1_554
Ir0 N5 1.938594 1_564
Ir1 N5 1.897588 1_555
Ir1 N3 1.911626 1_555
Ir1 N0 1.925318 1_555
Ir1 N4 1.938594 1_545
Ir2 N6 1.897588 1_555
Ir2 N0 1.911626 1_555
Ir2 N3 1.925318 1_655
Ir2 N7 1.938594 1_655
Ir3 N7 1.897588 1_555
Ir3 N1 1.911626 1_554
Ir3 N2 1.925318 1_454
Ir3 N6 1.938594 1_454
