# generated using pymatgen
data_ErB4W
_symmetry_space_group_name_H-M   'P 1'
_cell_length_a   3.60103575
_cell_length_b   6.00201372
_cell_length_c   11.59207706
_cell_angle_alpha   90.00000000
_cell_angle_beta   90.00000000
_cell_angle_gamma   90.00000000
_symmetry_Int_Tables_number   1
_chemical_formula_structural   ErB4W
_chemical_formula_sum   'Er4 B16 W4'
_cell_volume   250.54496315
_cell_formula_units_Z   4
loop_
 _symmetry_equiv_pos_site_id
 _symmetry_equiv_pos_as_xyz
  1  'x, y, z'
loop_
 _atom_site_type_symbol
 _atom_site_label
 _atom_site_symmetry_multiplicity
 _atom_site_fract_x
 _atom_site_fract_y
 _atom_site_fract_z
 _atom_site_occupancy
  Er  Er0  1  0.00000000  0.62754120  0.35086715  1
  Er  Er1  1  0.00000000  0.37245880  0.64913285  1
  Er  Er2  1  0.00000000  0.12754120  0.14913285  1
  Er  Er3  1  0.00000000  0.87245880  0.85086715  1
  B  B0  1  0.50000000  0.78730468  0.18664737  1
  B  B1  1  0.50000000  0.21269532  0.81335263  1
  B  B2  1  0.50000000  0.28730468  0.31335263  1
  B  B3  1  0.50000000  0.71269532  0.68664737  1
  B  B4  1  0.50000000  0.86689553  0.03195458  1
  B  B5  1  0.50000000  0.13310447  0.96804542  1
  B  B6  1  0.50000000  0.36689553  0.46804542  1
  B  B7  1  0.50000000  0.63310447  0.53195458  1
  B  B8  1  0.50000000  0.88562840  0.45235696  1
  B  B9  1  0.50000000  0.11437160  0.54764304  1
  B  B10  1  0.50000000  0.38562840  0.04764304  1
  B  B11  1  0.50000000  0.61437160  0.95235696  1
  B  B12  1  0.50000000  0.97635151  0.30633042  1
  B  B13  1  0.50000000  0.02364849  0.69366958  1
  B  B14  1  0.50000000  0.47635151  0.19366958  1
  B  B15  1  0.50000000  0.52364849  0.80633042  1
  W  W0  1  0.00000000  0.63071752  0.08437737  1
  W  W1  1  -0.00000000  0.36928248  0.91562263  1
  W  W2  1  -0.00000000  0.13071752  0.41562263  1
  W  W3  1  0.00000000  0.86928248  0.58437737  1
loop_
_geom_bond_atom_site_label_1
_geom_bond_atom_site_label_2
_geom_bond_distance
_geom_bond_site_symmetry_2
Er0 W3 3.071213 1_555
Er0 W2 3.074973 1_555
Er0 W0 3.089229 1_555
Er0 W2 3.111962 1_565
Er1 W2 3.071213 1_555
Er1 W3 3.074973 1_555
Er1 W1 3.089229 1_555
Er1 W3 3.111962 1_545
Er2 W1 3.071213 1_554
Er2 W0 3.074973 1_545
Er2 W2 3.089229 1_555
Er2 W0 3.111962 1_555
Er3 W0 3.071213 1_556
Er3 W1 3.074973 1_565
Er3 W3 3.089229 1_555
Er3 W1 3.111962 1_555
B0 B12 1.792280 1_555
B0 B4 1.855750 1_555
B0 B14 1.868120 1_555
B0 W0 2.351728 1_555
B0 W0 2.351728 1_655
B0 Er2 2.757021 1_565
B0 Er2 2.757021 1_665
B0 Er0 2.790204 1_555
B0 Er0 2.790204 1_655
B1 B13 1.792280 1_555
B1 B5 1.855750 1_555
B1 B15 1.868120 1_555
B1 W1 2.351728 1_555
B1 W1 2.351728 1_655
B1 Er3 2.757021 1_545
B1 Er3 2.757021 1_645
B1 Er1 2.790204 1_655
B1 Er1 2.790204 1_555
B2 B6 1.855750 1_555
B2 W2 2.351728 1_655
B2 W2 2.351728 1_555
B2 Er0 2.757021 1_555
B2 Er0 2.757021 1_655
B2 Er2 2.790204 1_555
B2 Er2 2.790204 1_655
B3 B7 1.855750 1_555
B3 W3 2.351728 1_655
B3 W3 2.351728 1_555
B3 Er1 2.757021 1_555
B3 Er1 2.757021 1_655
B3 Er3 2.790204 1_655
B3 Er3 2.790204 1_555
B4 B5 1.761186 1_564
B4 W0 2.370776 1_555
B4 W0 2.370776 1_655
B4 Er2 2.744867 1_665
B4 Er2 2.744867 1_565
B4 Er3 2.765779 1_654
B4 Er3 2.765779 1_554
B5 W1 2.370776 1_655
B5 W1 2.370776 1_555
B5 Er3 2.744867 1_545
B5 Er3 2.744867 1_645
B5 Er2 2.765779 1_556
B5 Er2 2.765779 1_656
B6 B7 1.761186 1_555
B6 B9 1.774424 1_555
B6 W2 2.370776 1_655
B6 W2 2.370776 1_555
B6 Er0 2.744867 1_655
B6 Er0 2.744867 1_555
B6 Er1 2.765779 1_655
B6 Er1 2.765779 1_555
B7 B8 1.774424 1_555
B7 W3 2.370776 1_555
B7 W3 2.370776 1_655
B7 Er1 2.744867 1_555
B7 Er1 2.744867 1_655
B7 Er0 2.765779 1_655
B7 Er0 2.765779 1_555
B8 B9 1.762092 1_565
B8 W2 2.363708 1_565
B8 W2 2.363708 1_665
B8 W3 2.365076 1_555
B8 W3 2.365076 1_655
B8 Er0 2.650566 1_555
B8 Er0 2.650566 1_655
B9 W3 2.363708 1_545
B9 W3 2.363708 1_645
B9 W2 2.365076 1_555
B9 W2 2.365076 1_655
B9 Er1 2.650566 1_555
B9 Er1 2.650566 1_655
B10 B11 1.762092 1_554
B10 B5 1.774424 1_554
B10 B14 1.778176 1_555
B10 W0 2.363708 1_655
B10 W0 2.363708 1_555
B10 W1 2.365076 1_654
B10 W1 2.365076 1_554
B10 Er2 2.650566 1_655
B10 Er2 2.650566 1_555
B11 B4 1.774424 1_556
B11 B15 1.778176 1_555
B11 W1 2.363708 1_655
B11 W1 2.363708 1_555
B11 W0 2.365076 1_556
B11 W0 2.365076 1_656
B11 Er3 2.650566 1_655
B11 Er3 2.650566 1_555
B12 B8 1.778176 1_555
B12 B2 1.868120 1_565
B12 W2 2.388593 1_565
B12 W2 2.388593 1_665
B12 Er2 2.717701 1_565
B12 Er2 2.717701 1_665
B12 Er0 2.809166 1_555
B12 Er0 2.809166 1_655
B13 B9 1.778176 1_555
B13 B3 1.868120 1_545
B13 W3 2.388593 1_645
B13 W3 2.388593 1_545
B13 Er3 2.717701 1_645
B13 Er3 2.717701 1_545
B13 Er1 2.809166 1_655
B13 Er1 2.809166 1_555
B14 B2 1.792280 1_555
B14 W0 2.388593 1_555
B14 W0 2.388593 1_655
B14 Er0 2.717701 1_555
B14 Er0 2.717701 1_655
B14 Er2 2.809166 1_555
B14 Er2 2.809166 1_655
B15 B3 1.792280 1_555
B15 W1 2.388593 1_655
B15 W1 2.388593 1_555
B15 Er1 2.717701 1_655
B15 Er1 2.717701 1_555
B15 Er3 2.809166 1_555
B15 Er3 2.809166 1_655
