# generated using pymatgen
data_CuSn3H27C9NCl
_symmetry_space_group_name_H-M   'P 1'
_cell_length_a   16.32404852
_cell_length_b   16.32404852
_cell_length_c   16.32404852
_cell_angle_alpha   90.00000000
_cell_angle_beta   90.00000000
_cell_angle_gamma   90.00000000
_symmetry_Int_Tables_number   1
_chemical_formula_structural   CuSn3H27C9NCl
_chemical_formula_sum   'Cu8 Sn24 H216 C72 N8 Cl8'
_cell_volume   4349.94364815
_cell_formula_units_Z   8
loop_
 _symmetry_equiv_pos_site_id
 _symmetry_equiv_pos_as_xyz
  1  'x, y, z'
loop_
 _atom_site_type_symbol
 _atom_site_label
 _atom_site_symmetry_multiplicity
 _atom_site_fract_x
 _atom_site_fract_y
 _atom_site_fract_z
 _atom_site_occupancy
  Cu  Cu0  1  0.23117915  0.73117915  0.76882085  1
  Cu  Cu1  1  0.73117915  0.76882085  0.23117915  1
  Cu  Cu2  1  0.76882085  0.23117915  0.73117915  1
  Cu  Cu3  1  0.26882085  0.26882085  0.26882085  1
  Cu  Cu4  1  0.72990626  0.72990626  0.72990626  1
  Cu  Cu5  1  0.27009374  0.22990626  0.77009374  1
  Cu  Cu6  1  0.22990626  0.77009374  0.27009374  1
  Cu  Cu7  1  0.77009374  0.27009374  0.22990626  1
  Sn  Sn0  1  0.16891771  0.54473807  0.77746251  1
  Sn  Sn1  1  0.22253749  0.66891771  0.95526193  1
  Sn  Sn2  1  0.04473807  0.72253749  0.83108229  1
  Sn  Sn3  1  0.66891771  0.95526193  0.22253749  1
  Sn  Sn4  1  0.72253749  0.83108229  0.04473807  1
  Sn  Sn5  1  0.54473807  0.77746251  0.16891771  1
  Sn  Sn6  1  0.83108229  0.04473807  0.72253749  1
  Sn  Sn7  1  0.77746251  0.16891771  0.54473807  1
  Sn  Sn8  1  0.95526193  0.22253749  0.66891771  1
  Sn  Sn9  1  0.33108229  0.45526193  0.27746251  1
  Sn  Sn10  1  0.27746251  0.33108229  0.45526193  1
  Sn  Sn11  1  0.45526193  0.27746251  0.33108229  1
  Sn  Sn12  1  0.54217093  0.71862980  0.67109454  1
  Sn  Sn13  1  0.32890546  0.04217093  0.78137020  1
  Sn  Sn14  1  0.21862980  0.82890546  0.45782907  1
  Sn  Sn15  1  0.04217093  0.78137020  0.32890546  1
  Sn  Sn16  1  0.82890546  0.45782907  0.21862980  1
  Sn  Sn17  1  0.71862980  0.67109454  0.54217093  1
  Sn  Sn18  1  0.45782907  0.21862980  0.82890546  1
  Sn  Sn19  1  0.67109454  0.54217093  0.71862980  1
  Sn  Sn20  1  0.78137020  0.32890546  0.04217093  1
  Sn  Sn21  1  0.95782907  0.28137020  0.17109454  1
  Sn  Sn22  1  0.17109454  0.95782907  0.28137020  1
  Sn  Sn23  1  0.28137020  0.17109454  0.95782907  1
  H  H0  1  0.17035761  0.39865320  0.85916901  1
  H  H1  1  0.14083099  0.67035761  0.10134680  1
  H  H2  1  0.89865320  0.64083099  0.82964239  1
  H  H3  1  0.67035761  0.10134680  0.14083099  1
  H  H4  1  0.64083099  0.82964239  0.89865320  1
  H  H5  1  0.39865320  0.85916901  0.17035761  1
  H  H6  1  0.82964239  0.89865320  0.64083099  1
  H  H7  1  0.85916901  0.17035761  0.39865320  1
  H  H8  1  0.10134680  0.14083099  0.67035761  1
  H  H9  1  0.32964239  0.60134680  0.35916901  1
  H  H10  1  0.35916901  0.32964239  0.60134680  1
  H  H11  1  0.60134680  0.35916901  0.32964239  1
  H  H12  1  0.07393051  0.44688022  0.87592590  1
  H  H13  1  0.12407410  0.57393051  0.05311978  1
  H  H14  1  0.94688022  0.62407410  0.92606949  1
  H  H15  1  0.57393051  0.05311978  0.12407410  1
  H  H16  1  0.62407410  0.92606949  0.94688022  1
  H  H17  1  0.44688022  0.87592590  0.07393051  1
  H  H18  1  0.92606949  0.94688022  0.62407410  1
  H  H19  1  0.87592590  0.07393051  0.44688022  1
  H  H20  1  0.05311978  0.12407410  0.57393051  1
  H  H21  1  0.42606949  0.55311978  0.37592590  1
  H  H22  1  0.37592590  0.42606949  0.55311978  1
  H  H23  1  0.55311978  0.37592590  0.42606949  1
  H  H24  1  0.16115828  0.47924536  0.93304261  1
  H  H25  1  0.06695739  0.66115828  0.02075464  1
  H  H26  1  0.97924536  0.56695739  0.83884172  1
  H  H27  1  0.66115828  0.02075464  0.06695739  1
  H  H28  1  0.56695739  0.83884172  0.97924536  1
  H  H29  1  0.47924536  0.93304261  0.16115828  1
  H  H30  1  0.83884172  0.97924536  0.56695739  1
  H  H31  1  0.93304261  0.16115828  0.47924536  1
  H  H32  1  0.02075464  0.06695739  0.66115828  1
  H  H33  1  0.33884172  0.52075464  0.43304261  1
  H  H34  1  0.43304261  0.33884172  0.52075464  1
  H  H35  1  0.52075464  0.43304261  0.33884172  1
  H  H36  1  0.29530687  0.46724381  0.70083571  1
  H  H37  1  0.29916429  0.79530687  0.03275619  1
  H  H38  1  0.96724381  0.79916429  0.70469313  1
  H  H39  1  0.79530687  0.03275619  0.29916429  1
  H  H40  1  0.79916429  0.70469313  0.96724381  1
  H  H41  1  0.46724381  0.70083571  0.29530687  1
  H  H42  1  0.70469313  0.96724381  0.79916429  1
  H  H43  1  0.70083571  0.29530687  0.46724381  1
  H  H44  1  0.03275619  0.29916429  0.79530687  1
  H  H45  1  0.20469313  0.53275619  0.20083571  1
  H  H46  1  0.20083571  0.20469313  0.53275619  1
  H  H47  1  0.53275619  0.20083571  0.20469313  1
  H  H48  1  0.33683707  0.53989281  0.77200366  1
  H  H49  1  0.22799634  0.83683707  0.96010719  1
  H  H50  1  0.03989281  0.72799634  0.66316293  1
  H  H51  1  0.83683707  0.96010719  0.22799634  1
  H  H52  1  0.72799634  0.66316293  0.03989281  1
  H  H53  1  0.53989281  0.77200366  0.33683707  1
  H  H54  1  0.66316293  0.03989281  0.72799634  1
  H  H55  1  0.77200366  0.33683707  0.53989281  1
  H  H56  1  0.96010719  0.22799634  0.83683707  1
  H  H57  1  0.16316293  0.46010719  0.27200366  1
  H  H58  1  0.27200366  0.16316293  0.46010719  1
  H  H59  1  0.46010719  0.27200366  0.16316293  1
  H  H60  1  0.29777045  0.57424342  0.67567197  1
  H  H61  1  0.32432803  0.79777045  0.92575658  1
  H  H62  1  0.07424342  0.82432803  0.70222955  1
  H  H63  1  0.79777045  0.92575658  0.32432803  1
  H  H64  1  0.82432803  0.70222955  0.07424342  1
  H  H65  1  0.57424342  0.67567197  0.29777045  1
  H  H66  1  0.70222955  0.07424342  0.82432803  1
  H  H67  1  0.67567197  0.29777045  0.57424342  1
  H  H68  1  0.92575658  0.32432803  0.79777045  1
  H  H69  1  0.20222955  0.42575658  0.17567197  1
  H  H70  1  0.17567197  0.20222955  0.42575658  1
  H  H71  1  0.42575658  0.17567197  0.20222955  1
  H  H72  1  0.07920999  0.47810058  0.65374500  1
  H  H73  1  0.34625500  0.57920999  0.02189942  1
  H  H74  1  0.97810058  0.84625500  0.92079001  1
  H  H75  1  0.57920999  0.02189942  0.34625500  1
  H  H76  1  0.84625500  0.92079001  0.97810058  1
  H  H77  1  0.47810058  0.65374500  0.07920999  1
  H  H78  1  0.92079001  0.97810058  0.84625500  1
  H  H79  1  0.65374500  0.07920999  0.47810058  1
  H  H80  1  0.02189942  0.34625500  0.57920999  1
  H  H81  1  0.42079001  0.52189942  0.15374500  1
  H  H82  1  0.15374500  0.42079001  0.52189942  1
  H  H83  1  0.52189942  0.15374500  0.42079001  1
  H  H84  1  0.09262082  0.58446680  0.63262545  1
  H  H85  1  0.36737455  0.59262082  0.91553320  1
  H  H86  1  0.08446680  0.86737455  0.90737918  1
  H  H87  1  0.59262082  0.91553320  0.36737455  1
  H  H88  1  0.86737455  0.90737918  0.08446680  1
  H  H89  1  0.58446680  0.63262545  0.09262082  1
  H  H90  1  0.90737918  0.08446680  0.86737455  1
  H  H91  1  0.63262545  0.09262082  0.58446680  1
  H  H92  1  0.91553320  0.36737455  0.59262082  1
  H  H93  1  0.40737918  0.41553320  0.13262545  1
  H  H94  1  0.13262545  0.40737918  0.41553320  1
  H  H95  1  0.41553320  0.13262545  0.40737918  1
  H  H96  1  0.01634288  0.55147511  0.70416868  1
  H  H97  1  0.29583132  0.51634288  0.94852489  1
  H  H98  1  0.05147511  0.79583132  0.98365712  1
  H  H99  1  0.51634288  0.94852489  0.29583132  1
  H  H100  1  0.79583132  0.98365712  0.05147511  1
  H  H101  1  0.55147511  0.70416868  0.01634288  1
  H  H102  1  0.98365712  0.05147511  0.79583132  1
  H  H103  1  0.70416868  0.01634288  0.55147511  1
  H  H104  1  0.94852489  0.29583132  0.51634288  1
  H  H105  1  0.48365712  0.44852489  0.20416868  1
  H  H106  1  0.20416868  0.48365712  0.44852489  1
  H  H107  1  0.44852489  0.20416868  0.48365712  1
  H  H108  1  0.54838636  0.86783792  0.59311917  1
  H  H109  1  0.40688083  0.04838636  0.63216208  1
  H  H110  1  0.36783792  0.90688083  0.45161364  1
  H  H111  1  0.04838636  0.63216208  0.40688083  1
  H  H112  1  0.90688083  0.45161364  0.36783792  1
  H  H113  1  0.86783792  0.59311917  0.54838636  1
  H  H114  1  0.45161364  0.36783792  0.90688083  1
  H  H115  1  0.59311917  0.54838636  0.86783792  1
  H  H116  1  0.63216208  0.40688083  0.04838636  1
  H  H117  1  0.95161364  0.13216208  0.09311917  1
  H  H118  1  0.09311917  0.95161364  0.13216208  1
  H  H119  1  0.13216208  0.09311917  0.95161364  1
  H  H120  1  0.61205794  0.87060587  0.68240246  1
  H  H121  1  0.31759754  0.11205794  0.62939413  1
  H  H122  1  0.37060587  0.81759754  0.38794206  1
  H  H123  1  0.11205794  0.62939413  0.31759754  1
  H  H124  1  0.81759754  0.38794206  0.37060587  1
  H  H125  1  0.87060587  0.68240246  0.61205794  1
  H  H126  1  0.38794206  0.37060587  0.81759754  1
  H  H127  1  0.68240246  0.61205794  0.87060587  1
  H  H128  1  0.62939413  0.31759754  0.11205794  1
  H  H129  1  0.88794206  0.12939413  0.18240246  1
  H  H130  1  0.18240246  0.88794206  0.12939413  1
  H  H131  1  0.12939413  0.18240246  0.88794206  1
  H  H132  1  0.50320816  0.87950474  0.69202063  1
  H  H133  1  0.30797937  0.00320816  0.62049526  1
  H  H134  1  0.37950474  0.80797937  0.49679184  1
  H  H135  1  0.00320816  0.62049526  0.30797937  1
  H  H136  1  0.80797937  0.49679184  0.37950474  1
  H  H137  1  0.87950474  0.69202063  0.50320816  1
  H  H138  1  0.49679184  0.37950474  0.80797937  1
  H  H139  1  0.69202063  0.50320816  0.87950474  1
  H  H140  1  0.62049526  0.30797937  0.00320816  1
  H  H141  1  0.99679184  0.12049526  0.19202063  1
  H  H142  1  0.19202063  0.99679184  0.12049526  1
  H  H143  1  0.12049526  0.19202063  0.99679184  1
  H  H144  1  0.42857669  0.71265877  0.79177076  1
  H  H145  1  0.20822924  0.92857669  0.78734123  1
  H  H146  1  0.21265877  0.70822924  0.57142331  1
  H  H147  1  0.92857669  0.78734123  0.20822924  1
  H  H148  1  0.70822924  0.57142331  0.21265877  1
  H  H149  1  0.71265877  0.79177076  0.42857669  1
  H  H150  1  0.57142331  0.21265877  0.70822924  1
  H  H151  1  0.79177076  0.42857669  0.71265877  1
  H  H152  1  0.78734123  0.20822924  0.92857669  1
  H  H153  1  0.07142331  0.28734123  0.29177076  1
  H  H154  1  0.29177076  0.07142331  0.28734123  1
  H  H155  1  0.28734123  0.29177076  0.07142331  1
  H  H156  1  0.52802194  0.71556944  0.83835056  1
  H  H157  1  0.16164944  0.02802194  0.78443056  1
  H  H158  1  0.21556944  0.66164944  0.47197806  1
  H  H159  1  0.02802194  0.78443056  0.16164944  1
  H  H160  1  0.66164944  0.47197806  0.21556944  1
  H  H161  1  0.71556944  0.83835056  0.52802194  1
  H  H162  1  0.47197806  0.21556944  0.66164944  1
  H  H163  1  0.83835056  0.52802194  0.71556944  1
  H  H164  1  0.78443056  0.16164944  0.02802194  1
  H  H165  1  0.97197806  0.28443056  0.33835056  1
  H  H166  1  0.33835056  0.97197806  0.28443056  1
  H  H167  1  0.28443056  0.33835056  0.97197806  1
  H  H168  1  0.48881500  0.62142078  0.79794880  1
  H  H169  1  0.20205120  0.98881500  0.87857922  1
  H  H170  1  0.12142078  0.70205120  0.51118500  1
  H  H171  1  0.98881500  0.87857922  0.20205120  1
  H  H172  1  0.70205120  0.51118500  0.12142078  1
  H  H173  1  0.62142078  0.79794880  0.48881500  1
  H  H174  1  0.51118500  0.12142078  0.70205120  1
  H  H175  1  0.79794880  0.48881500  0.62142078  1
  H  H176  1  0.87857922  0.20205120  0.98881500  1
  H  H177  1  0.01118500  0.37857922  0.29794880  1
  H  H178  1  0.29794880  0.01118500  0.37857922  1
  H  H179  1  0.37857922  0.29794880  0.01118500  1
  H  H180  1  0.47362839  0.59818160  0.57564936  1
  H  H181  1  0.42435064  0.97362839  0.90181840  1
  H  H182  1  0.09818160  0.92435064  0.52637161  1
  H  H183  1  0.97362839  0.90181840  0.42435064  1
  H  H184  1  0.92435064  0.52637161  0.09818160  1
  H  H185  1  0.59818160  0.57564936  0.47362839  1
  H  H186  1  0.52637161  0.09818160  0.92435064  1
  H  H187  1  0.57564936  0.47362839  0.59818160  1
  H  H188  1  0.90181840  0.42435064  0.97362839  1
  H  H189  1  0.02637161  0.40181840  0.07564936  1
  H  H190  1  0.07564936  0.02637161  0.40181840  1
  H  H191  1  0.40181840  0.07564936  0.02637161  1
  H  H192  1  0.49183888  0.68638098  0.51328881  1
  H  H193  1  0.48671119  0.99183888  0.81361902  1
  H  H194  1  0.18638098  0.98671119  0.50816112  1
  H  H195  1  0.99183888  0.81361902  0.48671119  1
  H  H196  1  0.98671119  0.50816112  0.18638098  1
  H  H197  1  0.68638098  0.51328881  0.49183888  1
  H  H198  1  0.50816112  0.18638098  0.98671119  1
  H  H199  1  0.51328881  0.49183888  0.68638098  1
  H  H200  1  0.81361902  0.48671119  0.99183888  1
  H  H201  1  0.00816112  0.31361902  0.01328881  1
  H  H202  1  0.01328881  0.00816112  0.31361902  1
  H  H203  1  0.31361902  0.01328881  0.00816112  1
  H  H204  1  0.40603605  0.68402423  0.58115835  1
  H  H205  1  0.41884165  0.90603605  0.81597577  1
  H  H206  1  0.18402423  0.91884165  0.59396395  1
  H  H207  1  0.90603605  0.81597577  0.41884165  1
  H  H208  1  0.91884165  0.59396395  0.18402423  1
  H  H209  1  0.68402423  0.58115835  0.40603605  1
  H  H210  1  0.59396395  0.18402423  0.91884165  1
  H  H211  1  0.58115835  0.40603605  0.68402423  1
  H  H212  1  0.81597577  0.41884165  0.90603605  1
  H  H213  1  0.09396395  0.31597577  0.08115835  1
  H  H214  1  0.08115835  0.09396395  0.31597577  1
  H  H215  1  0.31597577  0.08115835  0.09396395  1
  C  C0  1  0.14020060  0.45696452  0.87317757  1
  C  C1  1  0.12682243  0.64020060  0.04303548  1
  C  C2  1  0.95696452  0.62682243  0.85979940  1
  C  C3  1  0.64020060  0.04303548  0.12682243  1
  C  C4  1  0.62682243  0.85979940  0.95696452  1
  C  C5  1  0.45696452  0.87317757  0.14020060  1
  C  C6  1  0.85979940  0.95696452  0.62682243  1
  C  C7  1  0.87317757  0.14020060  0.45696452  1
  C  C8  1  0.04303548  0.12682243  0.64020060  1
  C  C9  1  0.35979940  0.54303548  0.37317757  1
  C  C10  1  0.37317757  0.35979940  0.54303548  1
  C  C11  1  0.54303548  0.37317757  0.35979940  1
  C  C12  1  0.28971125  0.52957619  0.72512256  1
  C  C13  1  0.27487744  0.78971125  0.97042381  1
  C  C14  1  0.02957619  0.77487744  0.71028875  1
  C  C15  1  0.78971125  0.97042381  0.27487744  1
  C  C16  1  0.77487744  0.71028875  0.02957619  1
  C  C17  1  0.52957619  0.72512256  0.28971125  1
  C  C18  1  0.71028875  0.02957619  0.77487744  1
  C  C19  1  0.72512256  0.28971125  0.52957619  1
  C  C20  1  0.97042381  0.27487744  0.78971125  1
  C  C21  1  0.21028875  0.47042381  0.22512256  1
  C  C22  1  0.22512256  0.21028875  0.47042381  1
  C  C23  1  0.47042381  0.22512256  0.21028875  1
  C  C24  1  0.07803064  0.53968480  0.68057712  1
  C  C25  1  0.31942288  0.57803064  0.96031520  1
  C  C26  1  0.03968480  0.81942288  0.92196936  1
  C  C27  1  0.57803064  0.96031520  0.31942288  1
  C  C28  1  0.81942288  0.92196936  0.03968480  1
  C  C29  1  0.53968480  0.68057712  0.07803064  1
  C  C30  1  0.92196936  0.03968480  0.81942288  1
  C  C31  1  0.68057712  0.07803064  0.53968480  1
  C  C32  1  0.96031520  0.31942288  0.57803064  1
  C  C33  1  0.42196936  0.46031520  0.18057712  1
  C  C34  1  0.18057712  0.42196936  0.46031520  1
  C  C35  1  0.46031520  0.18057712  0.42196936  1
  C  C36  1  0.55304918  0.85028079  0.65780061  1
  C  C37  1  0.34219939  0.05304918  0.64971921  1
  C  C38  1  0.35028079  0.84219939  0.44695082  1
  C  C39  1  0.05304918  0.64971921  0.34219939  1
  C  C40  1  0.84219939  0.44695082  0.35028079  1
  C  C41  1  0.85028079  0.65780061  0.55304918  1
  C  C42  1  0.44695082  0.35028079  0.84219939  1
  C  C43  1  0.65780061  0.55304918  0.85028079  1
  C  C44  1  0.64971921  0.34219939  0.05304918  1
  C  C45  1  0.94695082  0.14971921  0.15780061  1
  C  C46  1  0.15780061  0.94695082  0.14971921  1
  C  C47  1  0.14971921  0.15780061  0.94695082  1
  C  C48  1  0.49101005  0.68796716  0.78951095  1
  C  C49  1  0.21048905  0.99101005  0.81203284  1
  C  C50  1  0.18796716  0.71048905  0.50898995  1
  C  C51  1  0.99101005  0.81203284  0.21048905  1
  C  C52  1  0.71048905  0.50898995  0.18796716  1
  C  C53  1  0.68796716  0.78951095  0.49101005  1
  C  C54  1  0.50898995  0.18796716  0.71048905  1
  C  C55  1  0.78951095  0.49101005  0.68796716  1
  C  C56  1  0.81203284  0.21048905  0.99101005  1
  C  C57  1  0.00898995  0.31203284  0.28951095  1
  C  C58  1  0.28951095  0.00898995  0.31203284  1
  C  C59  1  0.31203284  0.28951095  0.00898995  1
  C  C60  1  0.47004741  0.66508130  0.57319278  1
  C  C61  1  0.42680722  0.97004741  0.83491870  1
  C  C62  1  0.16508130  0.92680722  0.52995259  1
  C  C63  1  0.97004741  0.83491870  0.42680722  1
  C  C64  1  0.92680722  0.52995259  0.16508130  1
  C  C65  1  0.66508130  0.57319278  0.47004741  1
  C  C66  1  0.52995259  0.16508130  0.92680722  1
  C  C67  1  0.57319278  0.47004741  0.66508130  1
  C  C68  1  0.83491870  0.42680722  0.97004741  1
  C  C69  1  0.02995259  0.33491870  0.07319278  1
  C  C70  1  0.07319278  0.02995259  0.33491870  1
  C  C71  1  0.33491870  0.07319278  0.02995259  1
  N  N0  1  0.16468753  0.66468753  0.83531247  1
  N  N1  1  0.66468753  0.83531247  0.16468753  1
  N  N2  1  0.83531247  0.16468753  0.66468753  1
  N  N3  1  0.33531247  0.33531247  0.33531247  1
  N  N4  1  0.66345055  0.66345055  0.66345055  1
  N  N5  1  0.33654945  0.16345055  0.83654945  1
  N  N6  1  0.16345055  0.83654945  0.33654945  1
  N  N7  1  0.83654945  0.33654945  0.16345055  1
  Cl  Cl0  1  0.30574941  0.80574941  0.69425059  1
  Cl  Cl1  1  0.80574941  0.69425059  0.30574941  1
  Cl  Cl2  1  0.69425059  0.30574941  0.80574941  1
  Cl  Cl3  1  0.19425059  0.19425059  0.19425059  1
  Cl  Cl4  1  0.80442284  0.80442284  0.80442284  1
  Cl  Cl5  1  0.19557716  0.30442284  0.69557716  1
  Cl  Cl6  1  0.30442284  0.69557716  0.19557716  1
  Cl  Cl7  1  0.69557716  0.19557716  0.30442284  1
loop_
_geom_bond_atom_site_label_1
_geom_bond_atom_site_label_2
_geom_bond_distance
_geom_bond_site_symmetry_2
Cu0 N0 1.879989 1_555
Cu1 N1 1.879989 1_555
Cu2 N2 1.879989 1_555
Cu3 N3 1.879989 1_555
Cu4 N4 1.878974 1_555
Cu5 N5 1.878974 1_555
Cu6 N6 1.878974 1_555
Cu7 N7 1.878974 1_555
C0 H12 1.095169 1_555
C0 H0 1.095767 1_555
C0 H24 1.097418 1_555
C0 Sn0 2.171175 1_555
C1 H13 1.095169 1_555
C1 H1 1.095767 1_555
C1 H25 1.097418 1_555
C1 Sn1 2.171175 1_554
C2 H14 1.095169 1_555
C2 H2 1.095767 1_555
C2 H26 1.097418 1_555
C2 Sn2 2.171175 1_655
C3 H15 1.095169 1_555
C3 H3 1.095767 1_555
C3 H27 1.097418 1_555
C3 Sn3 2.171175 1_545
C4 H16 1.095169 1_555
C4 H4 1.095767 1_555
C4 H28 1.097418 1_555
C4 Sn4 2.171175 1_556
C5 H17 1.095169 1_555
C5 H5 1.095767 1_555
C5 H29 1.097418 1_555
C5 Sn5 2.171175 1_555
C6 H18 1.095169 1_555
C6 H6 1.095767 1_555
C6 H30 1.097418 1_555
C6 Sn6 2.171175 1_565
C7 H19 1.095169 1_555
C7 H7 1.095767 1_555
C7 H31 1.097418 1_555
C7 Sn7 2.171175 1_555
C8 H20 1.095169 1_555
C8 H8 1.095767 1_555
C8 H32 1.097418 1_555
C8 Sn8 2.171175 1_455
C9 H21 1.095169 1_555
C9 H9 1.095767 1_555
C9 H33 1.097418 1_555
C9 Sn9 2.171175 1_555
C10 H22 1.095169 1_555
C10 H10 1.095767 1_555
C10 H34 1.097418 1_555
C10 Sn10 2.171175 1_555
C11 H23 1.095169 1_555
C11 H11 1.095767 1_555
C11 H35 1.097418 1_555
C11 Sn11 2.171175 1_555
C12 H60 1.095716 1_555
C12 H36 1.095840 1_555
C12 H48 1.098102 1_555
C12 Sn0 2.163194 1_555
C13 H61 1.095716 1_555
C13 H37 1.095840 1_556
C13 H49 1.098102 1_555
C13 Sn1 2.163194 1_555
C14 H62 1.095716 1_555
C14 H38 1.095840 1_455
C14 H50 1.098102 1_555
C14 Sn2 2.163194 1_555
C15 H63 1.095716 1_555
C15 H39 1.095840 1_565
C15 H51 1.098102 1_555
C15 Sn3 2.163194 1_555
C16 H64 1.095716 1_555
C16 H40 1.095840 1_554
C16 H52 1.098102 1_555
C16 Sn4 2.163194 1_555
C17 H65 1.095716 1_555
C17 H41 1.095840 1_555
C17 H53 1.098102 1_555
C17 Sn5 2.163194 1_555
C18 H66 1.095716 1_555
C18 H42 1.095840 1_545
C18 H54 1.098102 1_555
C18 Sn6 2.163194 1_555
C19 H67 1.095716 1_555
C19 H43 1.095840 1_555
C19 H55 1.098102 1_555
C19 Sn7 2.163194 1_555
C20 H68 1.095716 1_555
C20 H44 1.095840 1_655
C20 H56 1.098102 1_555
C20 Sn8 2.163194 1_555
C21 H69 1.095716 1_555
C21 H45 1.095840 1_555
C21 H57 1.098102 1_555
C21 Sn9 2.163194 1_555
C22 H70 1.095716 1_555
C22 H46 1.095840 1_555
C22 H58 1.098102 1_555
C22 Sn10 2.163194 1_555
C23 H71 1.095716 1_555
C23 H47 1.095840 1_555
C23 H59 1.098102 1_555
C23 Sn11 2.163194 1_555
C24 H96 1.095166 1_555
C24 H72 1.096749 1_555
C24 H84 1.097198 1_555
C24 Sn0 2.170102 1_555
C25 H97 1.095166 1_555
C25 H73 1.096749 1_556
C25 H85 1.097198 1_555
C25 Sn1 2.170102 1_555
C26 H98 1.095166 1_555
C26 H74 1.096749 1_455
C26 H86 1.097198 1_555
C26 Sn2 2.170102 1_555
C27 H99 1.095166 1_555
C27 H75 1.096749 1_565
C27 H87 1.097198 1_555
C27 Sn3 2.170102 1_555
C28 H100 1.095166 1_555
C28 H76 1.096749 1_554
C28 H88 1.097198 1_555
C28 Sn4 2.170102 1_555
C29 H101 1.095166 1_555
C29 H77 1.096749 1_555
C29 H89 1.097198 1_555
C29 Sn5 2.170102 1_555
C30 H102 1.095166 1_555
C30 H78 1.096749 1_545
C30 H90 1.097198 1_555
C30 Sn6 2.170102 1_555
C31 H103 1.095166 1_555
C31 H79 1.096749 1_555
C31 H91 1.097198 1_555
C31 Sn7 2.170102 1_555
C32 H104 1.095166 1_555
C32 H80 1.096749 1_655
C32 H92 1.097198 1_555
C32 Sn8 2.170102 1_555
C33 H105 1.095166 1_555
C33 H81 1.096749 1_555
C33 H93 1.097198 1_555
C33 Sn9 2.170102 1_555
C34 H106 1.095166 1_555
C34 H82 1.096749 1_555
C34 H94 1.097198 1_555
C34 Sn10 2.170102 1_555
C35 H107 1.095166 1_555
C35 H83 1.096749 1_555
C35 H95 1.097198 1_555
C35 Sn11 2.170102 1_555
C36 H120 1.095098 1_555
C36 H132 1.096166 1_555
C36 H108 1.096714 1_555
C36 Sn12 2.167293 1_555
C37 H121 1.095098 1_555
C37 H133 1.096166 1_555
C37 H109 1.096714 1_555
C37 Sn13 2.167293 1_555
C38 H122 1.095098 1_555
C38 H134 1.096166 1_555
C38 H110 1.096714 1_555
C38 Sn14 2.167293 1_555
C39 H123 1.095098 1_555
C39 H135 1.096166 1_555
C39 H111 1.096714 1_555
C39 Sn15 2.167293 1_555
C40 H124 1.095098 1_555
C40 H136 1.096166 1_555
C40 H112 1.096714 1_555
C40 Sn16 2.167293 1_555
C41 H125 1.095098 1_555
C41 H137 1.096166 1_555
C41 H113 1.096714 1_555
C41 Sn17 2.167293 1_555
C42 H126 1.095098 1_555
C42 H138 1.096166 1_555
C42 H114 1.096714 1_555
C42 Sn18 2.167293 1_555
C43 H127 1.095098 1_555
C43 H139 1.096166 1_555
C43 H115 1.096714 1_555
C43 Sn19 2.167293 1_555
C44 H128 1.095098 1_555
C44 H140 1.096166 1_555
C44 H116 1.096714 1_555
C44 Sn20 2.167293 1_555
C45 H129 1.095098 1_555
C45 H141 1.096166 1_555
C45 H117 1.096714 1_555
C45 Sn21 2.167293 1_555
C46 H130 1.095098 1_555
C46 H142 1.096166 1_555
C46 H118 1.096714 1_555
C46 Sn22 2.167293 1_555
C47 H131 1.095098 1_555
C47 H143 1.096166 1_555
C47 H119 1.096714 1_555
C47 Sn23 2.167293 1_555
C48 H168 1.095590 1_555
C48 H144 1.096595 1_555
C48 H156 1.097126 1_555
C48 Sn12 2.164404 1_555
C49 H169 1.095590 1_555
C49 H145 1.096595 1_555
C49 H157 1.097126 1_565
C49 Sn13 2.164404 1_565
C50 H170 1.095590 1_555
C50 H146 1.096595 1_555
C50 H158 1.097126 1_555
C50 Sn14 2.164404 1_555
C51 H171 1.095590 1_555
C51 H147 1.096595 1_555
C51 H159 1.097126 1_655
C51 Sn15 2.164404 1_655
C52 H172 1.095590 1_555
C52 H148 1.096595 1_555
C52 H160 1.097126 1_555
C52 Sn16 2.164404 1_555
C53 H173 1.095590 1_555
C53 H149 1.096595 1_555
C53 H161 1.097126 1_555
C53 Sn17 2.164404 1_555
C54 H174 1.095590 1_555
C54 H150 1.096595 1_555
C54 H162 1.097126 1_555
C54 Sn18 2.164404 1_555
C55 H175 1.095590 1_555
C55 H151 1.096595 1_555
C55 H163 1.097126 1_555
C55 Sn19 2.164404 1_555
C56 H176 1.095590 1_555
C56 H152 1.096595 1_555
C56 H164 1.097126 1_556
C56 Sn20 2.164404 1_556
C57 H177 1.095590 1_555
C57 H153 1.096595 1_555
C57 H165 1.097126 1_455
C57 Sn21 2.164404 1_455
C58 H178 1.095590 1_555
C58 H154 1.096595 1_555
C58 H166 1.097126 1_545
C58 Sn22 2.164404 1_545
C59 H179 1.095590 1_555
C59 H155 1.096595 1_555
C59 H167 1.097126 1_554
C59 Sn23 2.164404 1_554
C60 H180 1.094372 1_555
C60 H192 1.097121 1_555
C60 H204 1.097450 1_555
C60 Sn12 2.168949 1_555
C61 H181 1.094372 1_555
C61 H193 1.097121 1_555
C61 H205 1.097450 1_555
C61 Sn13 2.168949 1_565
C62 H182 1.094372 1_555
C62 H194 1.097121 1_555
C62 H206 1.097450 1_555
C62 Sn14 2.168949 1_555
C63 H183 1.094372 1_555
C63 H195 1.097121 1_555
C63 H207 1.097450 1_555
C63 Sn15 2.168949 1_655
C64 H184 1.094372 1_555
C64 H196 1.097121 1_555
C64 H208 1.097450 1_555
C64 Sn16 2.168949 1_555
C65 H185 1.094372 1_555
C65 H197 1.097121 1_555
C65 H209 1.097450 1_555
C65 Sn17 2.168949 1_555
C66 H186 1.094372 1_555
C66 H198 1.097121 1_555
C66 H210 1.097450 1_555
C66 Sn18 2.168949 1_555
C67 H187 1.094372 1_555
C67 H199 1.097121 1_555
C67 H211 1.097450 1_555
C67 Sn19 2.168949 1_555
C68 H188 1.094372 1_555
C68 H200 1.097121 1_555
C68 H212 1.097450 1_555
C68 Sn20 2.168949 1_556
C69 H189 1.094372 1_555
C69 H201 1.097121 1_555
C69 H213 1.097450 1_555
C69 Sn21 2.168949 1_455
C70 H190 1.094372 1_555
C70 H202 1.097121 1_555
C70 H214 1.097450 1_555
C70 Sn22 2.168949 1_545
C71 H191 1.094372 1_555
C71 H203 1.097121 1_555
C71 H215 1.097450 1_555
C71 Sn23 2.168949 1_554
N0 Sn2 2.174985 1_555
N0 Sn1 2.174985 1_555
N0 Sn0 2.174985 1_555
N1 Sn4 2.174985 1_555
N1 Sn5 2.174985 1_555
N1 Sn3 2.174985 1_555
N2 Sn6 2.174985 1_555
N2 Sn7 2.174985 1_555
N2 Sn8 2.174985 1_555
N3 Sn10 2.174985 1_555
N3 Sn9 2.174985 1_555
N3 Sn11 2.174985 1_555
N4 Sn19 2.178629 1_555
N4 Sn17 2.178629 1_555
N4 Sn12 2.178629 1_555
N5 Sn18 2.178629 1_555
N5 Sn13 2.178629 1_555
N5 Sn23 2.178629 1_555
N6 Sn14 2.178629 1_555
N6 Sn15 2.178629 1_555
N6 Sn22 2.178629 1_555
N7 Sn16 2.178629 1_555
N7 Sn20 2.178629 1_555
N7 Sn21 2.178629 1_555
Cl0 Cu0 2.108406 1_555
Cl1 Cu1 2.108406 1_555
Cl2 Cu2 2.108406 1_555
Cl3 Cu3 2.108406 1_555
Cl4 Cu4 2.106888 1_555
Cl5 Cu5 2.106888 1_555
Cl6 Cu6 2.106888 1_555
Cl7 Cu7 2.106888 1_555
