# generated using pymatgen
data_Mg5Si9
_symmetry_space_group_name_H-M   'P 1'
_cell_length_a   5.49542300
_cell_length_b   7.09086112
_cell_length_c   13.59035324
_cell_angle_alpha   96.84696798
_cell_angle_beta   100.55794890
_cell_angle_gamma   107.85854129
_symmetry_Int_Tables_number   1
_chemical_formula_structural   Mg5Si9
_chemical_formula_sum   'Mg10 Si18'
_cell_volume   486.74364434
_cell_formula_units_Z   2
loop_
 _symmetry_equiv_pos_site_id
 _symmetry_equiv_pos_as_xyz
  1  'x, y, z'
loop_
 _atom_site_type_symbol
 _atom_site_label
 _atom_site_symmetry_multiplicity
 _atom_site_fract_x
 _atom_site_fract_y
 _atom_site_fract_z
 _atom_site_occupancy
  Mg  Mg0  1  0.53933700  0.46474500  0.67706100  1
  Mg  Mg1  1  0.73147800  0.91749800  0.38090100  1
  Mg  Mg2  1  0.60236500  0.15037400  0.54257500  1
  Mg  Mg3  1  0.17726300  0.77139100  0.40738400  1
  Mg  Mg4  1  0.08886200  0.67894900  0.61983100  1
  Mg  Mg5  1  0.16829900  0.36230700  0.45801800  1
  Mg  Mg6  1  0.61232400  0.58035500  0.03465900  1
  Mg  Mg7  1  0.11067400  0.22482800  0.90094600  1
  Mg  Mg8  1  0.32867100  0.80970400  0.17565400  1
  Mg  Mg9  1  0.58398500  0.04012400  0.97802800  1
  Si  Si0  1  0.01940800  0.37273400  0.10945900  1
  Si  Si1  1  0.67607800  0.37160500  0.86017900  1
  Si  Si2  1  0.34008200  0.13019800  0.32112300  1
  Si  Si3  1  0.64019800  0.87748300  0.74019500  1
  Si  Si4  1  0.75764300  0.24008000  0.26081300  1
  Si  Si5  1  0.33617300  0.06763100  0.74989800  1
  Si  Si6  1  0.75100900  0.61245300  0.24064800  1
  Si  Si7  1  0.36803800  0.62114300  0.83733200  1
  Si  Si8  1  0.90512100  0.96137800  0.19365300  1
  Si  Si9  1  0.10440900  0.09520600  0.58599100  1
  Si  Si10  1  0.04374300  0.82160300  0.82291700  1
  Si  Si11  1  0.03128100  0.92553700  0.01231200  1
  Si  Si12  1  0.31651300  0.49626200  0.28666300  1
  Si  Si13  1  0.98912300  0.34017700  0.71746200  1
  Si  Si14  1  0.38577100  0.23814700  0.11560100  1
  Si  Si15  1  0.09509800  0.60043000  0.97926000  1
  Si  Si16  1  0.58616800  0.74726600  0.55488000  1
  Si  Si17  1  0.71085100  0.48029400  0.43638700  1
loop_
_geom_bond_atom_site_label_1
_geom_bond_atom_site_label_2
_geom_bond_distance
_geom_bond_site_symmetry_2
Mg0 Si1 2.684242 1_555
Mg0 Si16 2.733176 1_555
Mg0 Si7 2.770572 1_555
Mg0 Si3 2.800149 1_555
Mg0 Si13 2.854591 1_555
Mg0 Mg2 2.857229 1_555
Mg0 Si9 2.900361 1_555
Mg0 Si5 3.049087 1_555
Mg0 Si13 3.051251 1_455
Mg0 Mg5 3.146205 1_555
Mg0 Mg4 3.218808 1_655
Mg0 Si10 3.241039 1_655
Mg0 Mg4 3.304936 1_555
Mg1 Si6 2.749128 1_555
Mg1 Si8 2.894788 1_555
Mg1 Si16 2.909729 1_555
Mg1 Mg2 2.912513 1_565
Mg1 Mg3 2.920061 1_655
Mg1 Si4 2.948004 1_565
Mg1 Mg3 3.005687 1_555
Mg1 Si9 3.006997 1_665
Mg1 Si2 3.033569 1_565
Mg1 Mg8 3.075068 1_555
Mg1 Si12 3.098737 1_555
Mg1 Mg5 3.233440 1_665
Mg1 Si17 3.250479 1_555
Mg2 Si13 2.758509 1_555
Mg2 Si9 2.824829 1_555
Mg2 Si16 2.858255 1_545
Mg2 Si17 2.859331 1_555
Mg2 Si9 2.869387 1_655
Mg2 Si2 3.055638 1_555
Mg3 Si12 2.774144 1_555
Mg3 Si6 2.778255 1_455
Mg3 Si16 2.786345 1_555
Mg3 Si17 2.881825 1_455
Mg3 Si2 2.889195 1_565
Mg4 Si17 2.825772 1_455
Mg4 Si13 2.837313 1_455
Mg4 Si5 2.868509 1_565
Mg4 Si10 2.905388 1_555
Mg4 Si16 2.942213 1_555
Mg4 Si16 2.945246 1_455
Mg4 Si3 2.975920 1_555
Mg4 Si9 3.018983 1_565
Mg4 Si7 3.204982 1_555
Mg5 Si9 2.708607 1_555
Mg5 Si12 2.781516 1_555
Mg5 Si2 2.815627 1_555
Mg5 Si17 2.860715 1_455
Mg5 Si17 2.919919 1_555
Mg5 Si16 2.940786 1_555
Mg5 Si4 3.009476 1_455
Mg6 Si6 2.725704 1_555
Mg6 Si1 2.778888 1_554
Mg6 Si14 2.816674 1_555
Mg6 Si15 2.855115 1_654
Mg6 Si15 2.855819 1_554
Mg6 Si7 2.860307 1_554
Mg6 Si11 2.891558 1_655
Mg6 Si8 3.037302 1_555
Mg6 Si0 3.122320 1_655
Mg6 Mg7 3.172815 1_554
Mg7 Si11 2.724858 1_546
Mg7 Si13 2.746689 1_455
Mg7 Si15 2.780434 1_555
Mg7 Si10 2.814964 1_545
Mg7 Si5 2.868088 1_555
Mg7 Si1 2.875976 1_455
Mg7 Si14 3.005866 1_556
Mg7 Si7 3.038861 1_555
Mg7 Si0 3.084889 1_556
Mg7 Si1 3.135182 1_555
Mg7 Si3 3.203915 1_445
Mg7 Mg9 3.209893 1_455
Mg7 Mg9 3.316051 1_555
Mg8 Si15 2.757796 1_554
Mg8 Si2 2.805866 1_565
Mg8 Si12 2.822354 1_555
Mg8 Si11 2.863898 1_555
Mg8 Si8 2.883658 1_455
Mg8 Si8 2.969072 1_555
Mg8 Si0 2.973826 1_555
Mg8 Si4 3.155224 1_565
Mg9 Si14 2.777096 1_556
Mg9 Si11 2.795529 1_646
Mg9 Si0 2.906293 1_656
Mg9 Si1 2.968351 1_555
Mg9 Si11 3.032813 1_546
Mg9 Si7 3.089088 1_545
Mg9 Si10 3.124904 1_545
Mg9 Si5 3.203865 1_555
Si0 Si14 2.471244 1_555
Si0 Si12 2.532133 1_555
Si0 Si15 2.539640 1_554
Si0 Si4 2.810857 1_455
Si1 Si5 2.472999 1_555
Si1 Si15 2.504166 1_655
Si1 Si7 2.805076 1_555
Si1 Si13 2.850602 1_555
Si2 Si4 2.507854 1_555
Si2 Si8 2.526002 1_445
Si3 Si5 2.459010 1_565
Si3 Si7 2.629044 1_555
Si4 Si8 2.493746 1_545
Si4 Si6 2.697461 1_555
Si5 Si9 2.416465 1_555
Si6 Si8 2.556665 1_555
Si10 Si5 2.426610 1_565
Si10 Si3 2.463814 1_455
Si10 Si7 2.593650 1_555
Si10 Si11 2.610800 1_556
Si10 Si15 2.810707 1_555
Si11 Si15 2.438402 1_554
Si11 Si14 2.507296 1_565
Si11 Si8 2.683996 1_455
Si12 Si6 2.496926 1_555
Si12 Si17 2.727430 1_555
Si12 Si2 2.729035 1_555
Si12 Si4 2.980995 1_455
Si13 Si7 2.529357 1_655
Si13 Si9 2.638361 1_655
Si14 Si4 2.563111 1_555
Si15 Si7 2.642811 1_555
Si16 Si3 2.507370 1_555
Si16 Si17 2.668231 1_555
Si17 Si2 2.751165 1_555
Si17 Si4 2.861010 1_555
Si17 Si6 2.947210 1_555
