# generated using pymatgen
data_Ge2Mo
_symmetry_space_group_name_H-M   'P 1'
_cell_length_a   3.46229404
_cell_length_b   6.35035722
_cell_length_c   8.58005837
_cell_angle_alpha   90.00000000
_cell_angle_beta   90.00000000
_cell_angle_gamma   90.00000000
_symmetry_Int_Tables_number   1
_chemical_formula_structural   Ge2Mo
_chemical_formula_sum   'Ge8 Mo4'
_cell_volume   188.64806130
_cell_formula_units_Z   4
loop_
 _symmetry_equiv_pos_site_id
 _symmetry_equiv_pos_as_xyz
  1  'x, y, z'
loop_
 _atom_site_type_symbol
 _atom_site_label
 _atom_site_symmetry_multiplicity
 _atom_site_fract_x
 _atom_site_fract_y
 _atom_site_fract_z
 _atom_site_occupancy
  Ge  Ge0  1  0.25000000  0.43657617  0.86856711  1
  Ge  Ge1  1  0.75000000  0.56342383  0.13143289  1
  Ge  Ge2  1  0.25000000  0.93657617  0.63143289  1
  Ge  Ge3  1  0.75000000  0.06342383  0.36856711  1
  Ge  Ge4  1  0.75000000  0.13527585  0.95963591  1
  Ge  Ge5  1  0.25000000  0.86472415  0.04036409  1
  Ge  Ge6  1  0.75000000  0.63527585  0.54036409  1
  Ge  Ge7  1  0.25000000  0.36472415  0.45963591  1
  Mo  Mo0  1  0.25000000  0.75011286  0.32907474  1
  Mo  Mo1  1  0.75000000  0.24988714  0.67092526  1
  Mo  Mo2  1  0.25000000  0.25011286  0.17092526  1
  Mo  Mo3  1  0.75000000  0.74988714  0.82907474  1
loop_
_geom_bond_atom_site_label_1
_geom_bond_atom_site_label_2
_geom_bond_distance
_geom_bond_site_symmetry_2
Ge0 Mo3 2.659011 1_555
Ge0 Mo3 2.659011 1_455
Ge0 Ge4 2.695994 1_555
Ge0 Ge4 2.695994 1_455
Ge0 Mo1 2.697785 1_555
Ge0 Mo1 2.697785 1_455
Ge0 Mo2 2.851710 1_556
Ge1 Mo2 2.659011 1_655
Ge1 Mo2 2.659011 1_555
Ge1 Ge5 2.695994 1_655
Ge1 Ge5 2.695994 1_555
Ge1 Mo0 2.697785 1_655
Ge1 Mo0 2.697785 1_555
Ge1 Mo3 2.851710 1_554
Ge2 Mo1 2.659011 1_565
Ge2 Mo1 2.659011 1_465
Ge2 Ge6 2.695994 1_455
Ge2 Ge6 2.695994 1_555
Ge2 Mo3 2.697785 1_455
Ge2 Mo3 2.697785 1_555
Ge2 Mo0 2.851710 1_555
Ge3 Mo0 2.659011 1_645
Ge3 Mo0 2.659011 1_545
Ge3 Ge7 2.695994 1_655
Ge3 Ge7 2.695994 1_555
Ge3 Mo2 2.697785 1_655
Ge3 Mo2 2.697785 1_555
Ge3 Mo1 2.851710 1_555
Ge4 Ge5 2.535450 1_546
Ge4 Ge5 2.535450 1_646
Ge4 Mo1 2.581863 1_555
Ge4 Mo2 2.610594 1_556
Ge4 Mo2 2.610594 1_656
Ge4 Mo3 2.691552 1_545
Ge5 Mo0 2.581863 1_555
Ge5 Mo3 2.610594 1_554
Ge5 Mo3 2.610594 1_454
Ge5 Mo2 2.691552 1_565
Ge6 Ge7 2.535450 1_555
Ge6 Ge7 2.535450 1_655
Ge6 Mo3 2.581863 1_555
Ge6 Mo0 2.610594 1_655
Ge6 Mo0 2.610594 1_555
Ge6 Mo1 2.691552 1_555
Ge7 Mo2 2.581863 1_555
Ge7 Mo1 2.610594 1_555
Ge7 Mo1 2.610594 1_455
Ge7 Mo0 2.691552 1_555
