# generated using pymatgen
data_Ca11Si4ClO18
_symmetry_space_group_name_H-M   'P 1'
_cell_length_a   8.70201106
_cell_length_b   8.70201106
_cell_length_c   8.70201106
_cell_angle_alpha   105.22783343
_cell_angle_beta   105.22783343
_cell_angle_gamma   118.33878533
_symmetry_Int_Tables_number   1
_chemical_formula_structural   Ca11Si4ClO18
_chemical_formula_sum   'Ca11 Si4 Cl1 O18'
_cell_volume   498.02731454
_cell_formula_units_Z   1
loop_
 _symmetry_equiv_pos_site_id
 _symmetry_equiv_pos_as_xyz
  1  'x, y, z'
loop_
 _atom_site_type_symbol
 _atom_site_label
 _atom_site_symmetry_multiplicity
 _atom_site_fract_x
 _atom_site_fract_y
 _atom_site_fract_z
 _atom_site_occupancy
  Ca  Ca0  1  0.29322400  0.54980800  0.25658400  1
  Ca  Ca1  1  0.29322400  0.03664000  0.74341600  1
  Ca  Ca2  1  0.96336000  0.70677600  0.25658400  1
  Ca  Ca3  1  0.70677600  0.96336000  0.25658400  1
  Ca  Ca4  1  0.45019200  0.70677600  0.74341600  1
  Ca  Ca5  1  0.70677600  0.45019200  0.74341600  1
  Ca  Ca6  1  0.03664000  0.29322400  0.74341600  1
  Ca  Ca7  1  0.54980800  0.29322400  0.25658400  1
  Ca  Ca8  1  0.00000000  0.50000000  0.50000000  1
  Ca  Ca9  1  0.50000000  0.00000000  0.50000000  1
  Ca  Ca10  1  0.00000000  0.00000000  0.00000000  1
  Si  Si0  1  0.78871300  0.78871300  0.57742700  1
  Si  Si1  1  0.21128700  0.21128700  0.42257300  1
  Si  Si2  1  0.78871300  0.21128700  0.00000000  1
  Si  Si3  1  0.21128700  0.78871300  0.00000000  1
  Cl  Cl0  1  0.50000000  0.50000000  0.00000000  1
  O  O0  1  0.18300000  0.36499200  0.54799200  1
  O  O1  1  0.81700000  0.63500800  0.45200800  1
  O  O2  1  0.36499200  0.81700000  0.18199200  1
  O  O3  1  0.81700000  0.36499200  0.18199200  1
  O  O4  1  0.63500800  0.18300000  0.81800800  1
  O  O5  1  0.18300000  0.63500800  0.81800800  1
  O  O6  1  0.63500800  0.81700000  0.45200800  1
  O  O7  1  0.36499200  0.18300000  0.54799200  1
  O  O8  1  0.29173300  0.29173300  0.28626700  1
  O  O9  1  0.00546600  0.00546600  0.71373300  1
  O  O10  1  0.99453400  0.70826700  0.00000000  1
  O  O11  1  0.70826700  0.99453400  0.00000000  1
  O  O12  1  0.25000000  0.75000000  0.50000000  1
  O  O13  1  0.75000000  0.25000000  0.50000000  1
  O  O14  1  0.70826700  0.70826700  0.71373300  1
  O  O15  1  0.99453400  0.99453400  0.28626700  1
  O  O16  1  0.00546600  0.29173300  0.00000000  1
  O  O17  1  0.29173300  0.00546600  0.00000000  1
loop_
_geom_bond_atom_site_label_1
_geom_bond_atom_site_label_2
_geom_bond_distance
_geom_bond_site_symmetry_2
Ca0 O8 2.321466 1_555
Ca0 O16 2.321466 1_555
Ca0 O6 2.417581 1_555
Ca0 O2 2.417581 1_555
Ca0 O12 2.601013 1_555
Ca0 Cl0 3.279255 1_555
Ca1 O9 2.321466 1_555
Ca1 O17 2.321466 1_556
Ca1 O4 2.417581 1_555
Ca1 O7 2.417581 1_555
Ca1 O12 2.601013 1_545
Ca1 Cl0 3.279255 1_556
Ca2 O15 2.321466 1_555
Ca2 O10 2.321466 1_555
Ca2 O1 2.417581 1_555
Ca2 O3 2.417581 1_555
Ca2 O12 2.601013 1_655
Ca2 Cl0 3.279255 1_555
Ca3 O15 2.321466 1_555
Ca3 O11 2.321466 1_555
Ca3 O6 2.417581 1_555
Ca3 O2 2.417581 1_555
Ca3 O13 2.601013 1_565
Ca3 Cl0 3.279255 1_555
Ca4 O11 2.321466 1_556
Ca4 O14 2.321466 1_555
Ca4 O5 2.417581 1_555
Ca4 O0 2.417581 1_555
Ca4 O12 2.601013 1_555
Ca4 Cl0 3.279255 1_556
Ca5 O10 2.321466 1_556
Ca5 O14 2.321466 1_555
Ca5 O4 2.417581 1_555
Ca5 O7 2.417581 1_555
Ca5 O13 2.601013 1_555
Ca5 Cl0 3.279255 1_556
Ca6 O9 2.321466 1_555
Ca6 O16 2.321466 1_556
Ca6 O5 2.417581 1_555
Ca6 O0 2.417581 1_555
Ca6 O13 2.601013 1_455
Ca6 Cl0 3.279255 1_556
Ca7 O17 2.321466 1_555
Ca7 O8 2.321466 1_555
Ca7 O1 2.417581 1_555
Ca7 O3 2.417581 1_555
Ca7 O13 2.601013 1_555
Ca7 Cl0 3.279255 1_555
Ca8 O13 2.229897 1_455
Ca8 O12 2.229897 1_555
Ca8 O0 2.403158 1_555
Ca8 O5 2.403158 1_555
Ca8 O3 2.403158 1_455
Ca8 O1 2.403158 1_455
Ca9 O13 2.229897 1_555
Ca9 O12 2.229897 1_545
Ca9 O7 2.403158 1_555
Ca9 O4 2.403158 1_555
Ca9 O2 2.403158 1_545
Ca9 O6 2.403158 1_545
Ca10 O17 2.516434 1_555
Ca10 O8 2.516434 1_555
Ca10 O16 2.516434 1_555
Ca10 O9 2.516434 1_554
Ca10 O10 2.516434 1_445
Ca10 O11 2.516434 1_445
Ca10 O14 2.516434 1_444
Ca10 O15 2.516434 1_445
O0 Si1 1.651547 1_555
O1 Si0 1.651547 1_555
O2 Si3 1.651543 1_555
O3 Si2 1.651543 1_555
O4 Si2 1.651543 1_556
O5 Si3 1.651543 1_556
O6 Si0 1.651547 1_555
O7 Si1 1.651547 1_555
O8 Si1 1.671579 1_555
O9 Si0 1.671586 1_445
O10 Si3 1.671588 1_655
O11 Si2 1.671588 1_565
O14 Si0 1.671579 1_555
O15 Si1 1.671586 1_665
O16 Si2 1.671588 1_455
O17 Si3 1.671588 1_545
