# generated using pymatgen
data_YbFe2
_symmetry_space_group_name_H-M   'P 1'
_cell_length_a   5.06795400
_cell_length_b   5.07300904
_cell_length_c   8.27955200
_cell_angle_alpha   90.00000000
_cell_angle_beta   90.00000000
_cell_angle_gamma   119.96704289
_symmetry_Int_Tables_number   1
_chemical_formula_structural   YbFe2
_chemical_formula_sum   'Yb4 Fe8'
_cell_volume   184.40806164
_cell_formula_units_Z   4
loop_
 _symmetry_equiv_pos_site_id
 _symmetry_equiv_pos_as_xyz
  1  'x, y, z'
loop_
 _atom_site_type_symbol
 _atom_site_label
 _atom_site_symmetry_multiplicity
 _atom_site_fract_x
 _atom_site_fract_y
 _atom_site_fract_z
 _atom_site_occupancy
  Yb  Yb0  1  0.33336600  0.66673200  0.43583400  1
  Yb  Yb1  1  0.66663400  0.33326800  0.56416600  1
  Yb  Yb2  1  0.66663400  0.33326800  0.93583400  1
  Yb  Yb3  1  0.33336600  0.66673200  0.06416600  1
  Fe  Fe0  1  0.00000000  0.00000000  0.50000000  1
  Fe  Fe1  1  0.00000000  0.00000000  0.00000000  1
  Fe  Fe2  1  0.83588800  0.16431600  0.25000000  1
  Fe  Fe3  1  0.83616900  0.67233800  0.25000000  1
  Fe  Fe4  1  0.32842800  0.16431600  0.25000000  1
  Fe  Fe5  1  0.16411200  0.83568400  0.75000000  1
  Fe  Fe6  1  0.16383100  0.32766200  0.75000000  1
  Fe  Fe7  1  0.67157200  0.83568400  0.75000000  1
loop_
_geom_bond_atom_site_label_1
_geom_bond_atom_site_label_2
_geom_bond_distance
_geom_bond_site_symmetry_2
Fe0 Fe6 2.521522 1_555
Fe0 Fe3 2.521522 1_445
Fe0 Fe4 2.522625 1_555
Fe0 Fe2 2.522625 1_455
Fe0 Fe7 2.522625 1_445
Fe0 Fe5 2.522625 1_545
Fe0 Yb0 2.974640 1_445
Fe0 Yb1 2.974640 1_555
Fe0 Yb0 2.974640 1_545
Fe0 Yb1 2.974640 1_455
Fe0 Yb0 2.977935 1_555
Fe0 Yb1 2.977935 1_445
Fe1 Fe6 2.521522 1_554
Fe1 Fe3 2.521522 1_445
Fe1 Fe5 2.522625 1_544
Fe1 Fe4 2.522625 1_555
Fe1 Fe2 2.522625 1_455
Fe1 Fe7 2.522625 1_444
Fe1 Yb2 2.974640 1_554
Fe1 Yb3 2.974640 1_445
Fe1 Yb3 2.974640 1_545
Fe1 Yb2 2.974640 1_454
Fe1 Yb2 2.977935 1_444
Fe1 Yb3 2.977935 1_555
Fe2 Fe4 2.496170 1_655
Fe2 Fe3 2.496520 1_545
Fe2 Fe4 2.571784 1_555
Fe2 Fe3 2.576489 1_555
Fe2 Yb0 2.966555 1_655
Fe2 Yb3 2.966555 1_655
Fe2 Yb0 2.966972 1_545
Fe2 Yb3 2.966972 1_545
Fe2 Yb1 2.995137 1_555
Fe2 Yb2 2.995137 1_554
Fe3 Fe4 2.496520 1_665
Fe3 Fe4 2.576489 1_555
Fe3 Yb3 2.964626 1_655
Fe3 Yb0 2.964626 1_655
Fe3 Yb0 2.964626 1_555
Fe3 Yb3 2.964626 1_555
Fe3 Yb2 2.997757 1_554
Fe3 Yb1 2.997757 1_555
Fe4 Yb3 2.966555 1_555
Fe4 Yb0 2.966555 1_555
Fe4 Yb0 2.966972 1_545
Fe4 Yb3 2.966972 1_545
Fe4 Yb2 2.995137 1_554
Fe4 Yb1 2.995137 1_555
Fe5 Fe7 2.496170 1_455
Fe5 Fe6 2.496520 1_565
Fe5 Fe7 2.571784 1_555
Fe5 Fe6 2.576489 1_555
Fe5 Yb2 2.966555 1_455
Fe5 Yb1 2.966555 1_455
Fe5 Yb2 2.966972 1_565
Fe5 Yb1 2.966972 1_565
Fe5 Yb3 2.995137 1_556
Fe5 Yb0 2.995137 1_555
Fe6 Fe7 2.496520 1_445
Fe6 Fe7 2.576489 1_555
Fe6 Yb2 2.964626 1_555
Fe6 Yb1 2.964626 1_555
Fe6 Yb1 2.964626 1_455
Fe6 Yb2 2.964626 1_455
Fe6 Yb3 2.997757 1_556
Fe6 Yb0 2.997757 1_555
Fe7 Yb1 2.966555 1_555
Fe7 Yb2 2.966555 1_555
Fe7 Yb2 2.966972 1_565
Fe7 Yb1 2.966972 1_565
Fe7 Yb3 2.995137 1_556
Fe7 Yb0 2.995137 1_555
