# generated using pymatgen
data_BaCaNdNbO6
_symmetry_space_group_name_H-M   'P 1'
_cell_length_a   6.10741626
_cell_length_b   6.10741626
_cell_length_c   6.10741626
_cell_angle_alpha   60.00000000
_cell_angle_beta   60.00000000
_cell_angle_gamma   60.00000000
_symmetry_Int_Tables_number   1
_chemical_formula_structural   BaCaNdNbO6
_chemical_formula_sum   'Ba1 Ca1 Nd1 Nb1 O6'
_cell_volume   161.08591348
_cell_formula_units_Z   1
loop_
 _symmetry_equiv_pos_site_id
 _symmetry_equiv_pos_as_xyz
  1  'x, y, z'
loop_
 _atom_site_type_symbol
 _atom_site_label
 _atom_site_symmetry_multiplicity
 _atom_site_fract_x
 _atom_site_fract_y
 _atom_site_fract_z
 _atom_site_occupancy
  Ba  Ba0  1  0.75000000  0.75000000  0.75000000  1
  Ca  Ca0  1  0.25000000  0.25000000  0.25000000  1
  Nd  Nd0  1  0.50000000  0.50000000  0.50000000  1
  Nb  Nb0  1  0.00000000  0.00000000  0.00000000  1
  O  O0  1  0.76711369  0.23288631  0.23288631  1
  O  O1  1  0.23288631  0.76711369  0.76711369  1
  O  O2  1  0.76711369  0.23288631  0.76711369  1
  O  O3  1  0.23288631  0.76711369  0.23288631  1
  O  O4  1  0.76711369  0.76711369  0.23288631  1
  O  O5  1  0.23288631  0.23288631  0.76711369  1
loop_
_geom_bond_atom_site_label_1
_geom_bond_atom_site_label_2
_geom_bond_distance
_geom_bond_site_symmetry_2
Ba0 O5 3.057283 1_565
Ba0 O1 3.057283 1_655
Ba0 O2 3.057283 1_555
Ba0 O3 3.057283 1_556
Ba0 O0 3.057283 1_556
Ba0 O2 3.057283 1_565
Ba0 O1 3.057283 1_555
Ba0 O3 3.057283 1_655
Ba0 O4 3.057283 1_555
Ba0 O4 3.057283 1_556
Ba0 O0 3.057283 1_565
Ba0 O5 3.057283 1_655
Ca0 O4 3.057283 1_545
Ca0 O3 3.057283 1_555
Ca0 O1 3.057283 1_545
Ca0 O0 3.057283 1_555
Ca0 O4 3.057283 1_455
Ca0 O2 3.057283 1_554
Ca0 O1 3.057283 1_554
Ca0 O3 3.057283 1_545
Ca0 O2 3.057283 1_455
Ca0 O5 3.057283 1_555
Ca0 O5 3.057283 1_554
Ca0 O0 3.057283 1_455
Nd0 O1 2.307112 1_555
Nd0 O5 2.307112 1_555
Nd0 O3 2.307112 1_555
Nd0 O0 2.307112 1_555
Nd0 O2 2.307112 1_555
Nd0 O4 2.307112 1_555
Nb0 O0 2.011484 1_455
Nb0 O3 2.011484 1_545
Nb0 O5 2.011484 1_554
Nb0 O4 2.011484 1_445
Nb0 O2 2.011484 1_454
Nb0 O1 2.011484 1_544
