# generated using pymatgen
data_ScH15C3(SO4)3
_symmetry_space_group_name_H-M   'P 1'
_cell_length_a   11.87934728
_cell_length_b   11.87934728
_cell_length_c   11.87934751
_cell_angle_alpha   73.37473736
_cell_angle_beta   73.37473736
_cell_angle_gamma   73.37474070
_symmetry_Int_Tables_number   1
_chemical_formula_structural   ScH15C3(SO4)3
_chemical_formula_sum   'Sc4 H60 C12 S12 O48'
_cell_volume   1500.60163406
_cell_formula_units_Z   4
loop_
 _symmetry_equiv_pos_site_id
 _symmetry_equiv_pos_as_xyz
  1  'x, y, z'
loop_
 _atom_site_type_symbol
 _atom_site_label
 _atom_site_symmetry_multiplicity
 _atom_site_fract_x
 _atom_site_fract_y
 _atom_site_fract_z
 _atom_site_occupancy
  Sc  Sc0  1  0.00000000  0.00000000  0.00000000  1
  Sc  Sc1  1  0.50000000  0.50000000  0.50000000  1
  Sc  Sc2  1  0.76880100  0.76880100  0.76880100  1
  Sc  Sc3  1  0.23119900  0.23119900  0.23119900  1
  H  H0  1  0.95353600  0.91740100  0.25273900  1
  H  H1  1  0.25273900  0.95353600  0.91740100  1
  H  H2  1  0.91740100  0.25273900  0.95353600  1
  H  H3  1  0.04646400  0.08259900  0.74726100  1
  H  H4  1  0.74726100  0.04646400  0.08259900  1
  H  H5  1  0.08259900  0.74726100  0.04646400  1
  H  H6  1  0.09762900  0.90989000  0.20678200  1
  H  H7  1  0.20678200  0.09762900  0.90989000  1
  H  H8  1  0.90989000  0.20678200  0.09762900  1
  H  H9  1  0.90237100  0.09011000  0.79321800  1
  H  H10  1  0.79321800  0.90237100  0.09011000  1
  H  H11  1  0.09011000  0.79321800  0.90237100  1
  H  H12  1  0.43970800  0.59026300  0.70959200  1
  H  H13  1  0.70959200  0.43970800  0.59026300  1
  H  H14  1  0.59026300  0.70959200  0.43970800  1
  H  H15  1  0.56029200  0.40973700  0.29040800  1
  H  H16  1  0.29040800  0.56029200  0.40973700  1
  H  H17  1  0.40973700  0.29040800  0.56029200  1
  H  H18  1  0.41157300  0.45645500  0.75022200  1
  H  H19  1  0.75022200  0.41157300  0.45645500  1
  H  H20  1  0.45645500  0.75022200  0.41157300  1
  H  H21  1  0.58842700  0.54354500  0.24977800  1
  H  H22  1  0.24977800  0.58842700  0.54354500  1
  H  H23  1  0.54354500  0.24977800  0.58842700  1
  H  H24  1  0.85621800  0.52507400  0.01849600  1
  H  H25  1  0.01849600  0.85621800  0.52507400  1
  H  H26  1  0.52507400  0.01849600  0.85621800  1
  H  H27  1  0.14378200  0.47492600  0.98150400  1
  H  H28  1  0.98150400  0.14378200  0.47492600  1
  H  H29  1  0.47492600  0.98150400  0.14378200  1
  H  H30  1  0.86824500  0.53311400  0.16440600  1
  H  H31  1  0.16440600  0.86824500  0.53311400  1
  H  H32  1  0.53311400  0.16440600  0.86824500  1
  H  H33  1  0.13175500  0.46688600  0.83559400  1
  H  H34  1  0.83559400  0.13175500  0.46688600  1
  H  H35  1  0.46688600  0.83559400  0.13175500  1
  H  H36  1  0.94014100  0.62509600  0.02912900  1
  H  H37  1  0.02912900  0.94014100  0.62509600  1
  H  H38  1  0.62509600  0.02912900  0.94014100  1
  H  H39  1  0.05985900  0.37490400  0.97087100  1
  H  H40  1  0.97087100  0.05985900  0.37490400  1
  H  H41  1  0.37490400  0.97087100  0.05985900  1
  H  H42  1  0.48152900  0.87354800  0.57251700  1
  H  H43  1  0.57251700  0.48152900  0.87354800  1
  H  H44  1  0.87354800  0.57251700  0.48152900  1
  H  H45  1  0.51847100  0.12645200  0.42748300  1
  H  H46  1  0.42748300  0.51847100  0.12645200  1
  H  H47  1  0.12645200  0.42748300  0.51847100  1
  H  H48  1  0.41605400  0.99575100  0.64963800  1
  H  H49  1  0.64963800  0.41605400  0.99575100  1
  H  H50  1  0.99575100  0.64963800  0.41605400  1
  H  H51  1  0.58394600  0.00424900  0.35036200  1
  H  H52  1  0.35036200  0.58394600  0.00424900  1
  H  H53  1  0.00424900  0.35036200  0.58394600  1
  H  H54  1  0.32562800  0.89541700  0.65470600  1
  H  H55  1  0.65470600  0.32562800  0.89541700  1
  H  H56  1  0.89541700  0.65470600  0.32562800  1
  H  H57  1  0.67437200  0.10458300  0.34529400  1
  H  H58  1  0.34529400  0.67437200  0.10458300  1
  H  H59  1  0.10458300  0.34529400  0.67437200  1
  C  C0  1  0.86301700  0.58307500  0.07218100  1
  C  C1  1  0.07218100  0.86301700  0.58307500  1
  C  C2  1  0.58307500  0.07218100  0.86301700  1
  C  C3  1  0.13698300  0.41692500  0.92781900  1
  C  C4  1  0.92781900  0.13698300  0.41692500  1
  C  C5  1  0.41692500  0.92781900  0.13698300  1
  C  C6  1  0.41654500  0.90312600  0.65049000  1
  C  C7  1  0.65049000  0.41654500  0.90312600  1
  C  C8  1  0.90312600  0.65049000  0.41654500  1
  C  C9  1  0.58345500  0.09687400  0.34951000  1
  C  C10  1  0.34951000  0.58345500  0.09687400  1
  C  C11  1  0.09687400  0.34951000  0.58345500  1
  S  S0  1  0.73167000  0.69998100  0.07935500  1
  S  S1  1  0.07935500  0.73167000  0.69998100  1
  S  S2  1  0.69998100  0.07935500  0.73167000  1
  S  S3  1  0.26833000  0.30001900  0.92064500  1
  S  S4  1  0.92064500  0.26833000  0.30001900  1
  S  S5  1  0.30001900  0.92064500  0.26833000  1
  S  S6  1  0.46116100  0.80725400  0.78167100  1
  S  S7  1  0.78167100  0.46116100  0.80725400  1
  S  S8  1  0.80725400  0.78167100  0.46116100  1
  S  S9  1  0.53883900  0.19274600  0.21832900  1
  S  S10  1  0.21832900  0.53883900  0.19274600  1
  S  S11  1  0.19274600  0.21832900  0.53883900  1
  O  O0  1  0.01857000  0.94010400  0.18107400  1
  O  O1  1  0.18107400  0.01857000  0.94010400  1
  O  O2  1  0.94010400  0.18107400  0.01857000  1
  O  O3  1  0.98143000  0.05989600  0.81892600  1
  O  O4  1  0.81892600  0.98143000  0.05989600  1
  O  O5  1  0.05989600  0.81892600  0.98143000  1
  O  O6  1  0.43964700  0.52028900  0.67939200  1
  O  O7  1  0.67939200  0.43964700  0.52028900  1
  O  O8  1  0.52028900  0.67939200  0.43964700  1
  O  O9  1  0.56035300  0.47971100  0.32060800  1
  O  O10  1  0.32060800  0.56035300  0.47971100  1
  O  O11  1  0.47971100  0.32060800  0.56035300  1
  O  O12  1  0.73144400  0.76947300  0.95297500  1
  O  O13  1  0.95297500  0.73144400  0.76947300  1
  O  O14  1  0.76947300  0.95297500  0.73144400  1
  O  O15  1  0.26855600  0.23052700  0.04702500  1
  O  O16  1  0.04702500  0.26855600  0.23052700  1
  O  O17  1  0.23052700  0.04702500  0.26855600  1
  O  O18  1  0.62700300  0.64455100  0.12969200  1
  O  O19  1  0.12969200  0.62700300  0.64455100  1
  O  O20  1  0.64455100  0.12969200  0.62700300  1
  O  O21  1  0.37299700  0.35544900  0.87030800  1
  O  O22  1  0.87030800  0.37299700  0.35544900  1
  O  O23  1  0.35544900  0.87030800  0.37299700  1
  O  O24  1  0.74159800  0.77740500  0.15157700  1
  O  O25  1  0.15157700  0.74159800  0.77740500  1
  O  O26  1  0.77740500  0.15157700  0.74159800  1
  O  O27  1  0.25840200  0.22259500  0.84842300  1
  O  O28  1  0.84842300  0.25840200  0.22259500  1
  O  O29  1  0.22259500  0.84842300  0.25840200  1
  O  O30  1  0.58620700  0.82036200  0.76900600  1
  O  O31  1  0.76900600  0.58620700  0.82036200  1
  O  O32  1  0.82036200  0.76900600  0.58620700  1
  O  O33  1  0.41379300  0.17963800  0.23099400  1
  O  O34  1  0.23099400  0.41379300  0.17963800  1
  O  O35  1  0.17963800  0.23099400  0.41379300  1
  O  O36  1  0.38038300  0.85232300  0.88610400  1
  O  O37  1  0.88610400  0.38038300  0.85232300  1
  O  O38  1  0.85232300  0.88610400  0.38038300  1
  O  O39  1  0.61961700  0.14767700  0.11389600  1
  O  O40  1  0.11389600  0.61961700  0.14767700  1
  O  O41  1  0.14767700  0.11389600  0.61961700  1
  O  O42  1  0.46051200  0.68364100  0.78335200  1
  O  O43  1  0.78335200  0.46051200  0.68364100  1
  O  O44  1  0.68364100  0.78335200  0.46051200  1
  O  O45  1  0.53948800  0.31635900  0.21664800  1
  O  O46  1  0.21664800  0.53948800  0.31635900  1
  O  O47  1  0.31635900  0.21664800  0.53948800  1
loop_
_geom_bond_atom_site_label_1
_geom_bond_atom_site_label_2
_geom_bond_distance
_geom_bond_site_symmetry_2
H0 O0 1.002918 1_655
H0 O38 1.665252 1_555
H1 O1 1.002918 1_565
H1 O36 1.665252 1_555
H2 O2 1.002918 1_556
H2 O37 1.665252 1_555
H3 O3 1.002918 1_455
H3 O41 1.665252 1_555
H4 O4 1.002918 1_545
H4 O39 1.665252 1_555
H5 O5 1.002918 1_554
H5 O40 1.665252 1_555
H6 O0 1.006300 1_555
H6 O29 1.660542 1_555
H7 O1 1.006300 1_555
H7 O27 1.660542 1_555
H8 O2 1.006300 1_555
H8 O28 1.660542 1_555
H9 O3 1.006300 1_555
H9 O26 1.660542 1_555
H10 O4 1.006300 1_555
H10 O24 1.660542 1_555
H11 O5 1.006300 1_555
H11 O25 1.660542 1_555
H12 O6 0.995396 1_555
H12 O42 1.701847 1_555
H13 O7 0.995396 1_555
H13 O43 1.701847 1_555
H14 O8 0.995396 1_555
H14 O44 1.701847 1_555
H15 O9 0.995396 1_555
H15 O45 1.701847 1_555
H16 O10 0.995396 1_555
H16 O46 1.701847 1_555
H17 O11 0.995396 1_555
H17 O47 1.701847 1_555
H18 O6 1.006610 1_555
H18 O21 1.626607 1_555
H19 O7 1.006610 1_555
H19 O22 1.626607 1_555
H20 O8 1.006610 1_555
H20 O23 1.626607 1_555
H21 O9 1.006610 1_555
H21 O18 1.626607 1_555
H22 O10 1.006610 1_555
H22 O19 1.626607 1_555
H23 O11 1.006610 1_555
H23 O20 1.626607 1_555
C0 H36 1.094361 1_555
C0 H24 1.095783 1_555
C0 H30 1.096427 1_555
C1 H37 1.094361 1_555
C1 H25 1.095783 1_555
C1 H31 1.096427 1_555
C2 H38 1.094361 1_555
C2 H26 1.095783 1_555
C2 H32 1.096427 1_555
C3 H39 1.094361 1_555
C3 H27 1.095783 1_555
C3 H33 1.096427 1_555
C4 H40 1.094361 1_555
C4 H28 1.095783 1_555
C4 H34 1.096427 1_555
C5 H41 1.094361 1_555
C5 H29 1.095783 1_555
C5 H35 1.096427 1_555
C6 H42 1.095090 1_555
C6 H54 1.095623 1_555
C6 H48 1.095828 1_555
C7 H43 1.095090 1_555
C7 H55 1.095623 1_555
C7 H49 1.095828 1_555
C8 H44 1.095090 1_555
C8 H56 1.095623 1_555
C8 H50 1.095828 1_555
C9 H45 1.095090 1_555
C9 H57 1.095623 1_555
C9 H51 1.095828 1_555
C10 H46 1.095090 1_555
C10 H58 1.095623 1_555
C10 H52 1.095828 1_555
C11 H47 1.095090 1_555
C11 H59 1.095623 1_555
C11 H53 1.095828 1_555
O0 Sc0 2.118449 1_565
O1 Sc0 2.118449 1_556
O2 Sc0 2.118449 1_655
O3 Sc0 2.118449 1_656
O4 Sc0 2.118449 1_665
O5 Sc0 2.118449 1_566
O6 Sc1 2.105772 1_555
O7 Sc1 2.105772 1_555
O8 Sc1 2.105772 1_555
O9 Sc1 2.105772 1_555
O10 Sc1 2.105772 1_555
O11 Sc1 2.105772 1_555
O12 S0 1.492406 1_556
O12 Sc2 2.106216 1_555
O13 S1 1.492406 1_655
O13 Sc2 2.106216 1_555
O14 S2 1.492406 1_565
O14 Sc2 2.106216 1_555
O15 S3 1.492406 1_554
O15 Sc3 2.106216 1_555
O16 S4 1.492406 1_455
O16 Sc3 2.106216 1_555
O17 S5 1.492406 1_545
O17 Sc3 2.106216 1_555
O18 S0 1.467949 1_555
O19 S1 1.467949 1_555
O20 S2 1.467949 1_555
O21 S3 1.467949 1_555
O22 S4 1.467949 1_555
O23 S5 1.467949 1_555
O24 S0 1.472220 1_555
O25 S1 1.472220 1_555
O26 S2 1.472220 1_555
O27 S3 1.472220 1_555
O28 S4 1.472220 1_555
O29 S5 1.472220 1_555
O30 S6 1.498184 1_555
O30 Sc2 2.077917 1_555
O31 S7 1.498184 1_555
O31 Sc2 2.077917 1_555
O32 S8 1.498184 1_555
O32 Sc2 2.077917 1_555
O33 S9 1.498184 1_555
O33 Sc3 2.077917 1_555
O34 S10 1.498184 1_555
O34 Sc3 2.077917 1_555
O35 S11 1.498184 1_555
O35 Sc3 2.077917 1_555
O36 S6 1.466770 1_555
O37 S7 1.466770 1_555
O38 S8 1.466770 1_555
O39 S9 1.466770 1_555
O40 S10 1.466770 1_555
O41 S11 1.466770 1_555
O42 S6 1.465056 1_555
O43 S7 1.465056 1_555
O44 S8 1.465056 1_555
O45 S9 1.465056 1_555
O46 S10 1.465056 1_555
O47 S11 1.465056 1_555
