# generated using pymatgen
data_Li4Co3Sb5O16
_symmetry_space_group_name_H-M   'P 1'
_cell_length_a   6.18992999
_cell_length_b   10.78836678
_cell_length_c   12.15223381
_cell_angle_alpha   116.38557753
_cell_angle_beta   75.23888062
_cell_angle_gamma   90.02174823
_symmetry_Int_Tables_number   1
_chemical_formula_structural   Li4Co3Sb5O16
_chemical_formula_sum   'Li8 Co6 Sb10 O32'
_cell_volume   696.99241986
_cell_formula_units_Z   2
loop_
 _symmetry_equiv_pos_site_id
 _symmetry_equiv_pos_as_xyz
  1  'x, y, z'
loop_
 _atom_site_type_symbol
 _atom_site_label
 _atom_site_symmetry_multiplicity
 _atom_site_fract_x
 _atom_site_fract_y
 _atom_site_fract_z
 _atom_site_occupancy
  Li  Li0  1  0.55283300  0.78524200  0.89452600  1
  Li  Li1  1  0.04716300  0.29572000  0.90576700  1
  Li  Li2  1  0.50669800  0.49137200  0.98702100  1
  Li  Li3  1  0.00938200  0.01600900  0.98132800  1
  Li  Li4  1  0.74855400  0.24651600  0.50295200  1
  Li  Li5  1  0.24673300  0.75367000  0.50641200  1
  Li  Li6  1  0.30393700  0.37566300  0.39224300  1
  Li  Li7  1  0.82836500  0.84850300  0.34290200  1
  Co  Co0  1  0.89297100  0.28293100  0.21385300  1
  Co  Co1  1  0.39731500  0.77199700  0.20483500  1
  Co  Co2  1  0.38801600  0.43796800  0.71622900  1
  Co  Co3  1  0.88271800  0.94175900  0.72704200  1
  Co  Co4  1  0.89573700  0.43798000  0.71603800  1
  Co  Co5  1  0.39051700  0.94170300  0.72696800  1
  Sb  Sb0  1  0.73944700  0.57911900  0.52071800  1
  Sb  Sb1  1  0.23808900  0.07887500  0.52391300  1
  Sb  Sb2  1  0.13967500  0.68624800  0.72083400  1
  Sb  Sb3  1  0.63391700  0.19296600  0.73246300  1
  Sb  Sb4  1  0.01436100  0.64047400  0.97125900  1
  Sb  Sb5  1  0.50729300  0.15340800  0.98597300  1
  Sb  Sb6  1  0.14126500  0.52053800  0.21329700  1
  Sb  Sb7  1  0.64322700  0.02588500  0.20504300  1
  Sb  Sb8  1  0.64616100  0.52081800  0.21320500  1
  Sb  Sb9  1  0.15178500  0.02590300  0.20484500  1
  O  O0  1  0.84534700  0.65044300  0.31019300  1
  O  O1  1  0.34694500  0.15494500  0.30592400  1
  O  O2  1  0.94773900  0.39422400  0.10477000  1
  O  O3  1  0.45226100  0.89909600  0.09543200  1
  O  O4  1  0.34221700  0.64698000  0.31653500  1
  O  O5  1  0.84559400  0.15700400  0.30926300  1
  O  O6  1  0.09450200  0.89465400  0.81207900  1
  O  O7  1  0.59371500  0.39761000  0.81273200  1
  O  O8  1  0.45258500  0.37762400  0.09503400  1
  O  O9  1  0.95379100  0.92395200  0.09209300  1
  O  O10  1  0.69864000  0.45092600  0.60188800  1
  O  O11  1  0.19384700  0.95951500  0.61135900  1
  O  O12  1  0.19427100  0.47884300  0.61265600  1
  O  O13  1  0.68168200  0.98814500  0.63677500  1
  O  O14  1  0.07653000  0.43740700  0.84396300  1
  O  O15  1  0.56888500  0.95234100  0.86228800  1
  O  O16  1  0.95827200  0.71552300  0.61356600  1
  O  O17  1  0.45700800  0.20962100  0.61681100  1
  O  O18  1  0.42777100  0.71548800  0.61312500  1
  O  O19  1  0.92672100  0.20939100  0.61684200  1
  O  O20  1  0.08306100  0.41926500  0.31479600  1
  O  O21  1  0.59141100  0.91680700  0.29921200  1
  O  O22  1  0.60213900  0.41948000  0.31461800  1
  O  O23  1  0.10833100  0.91626400  0.29835000  1
  O  O24  1  0.30268400  0.66405300  0.83869600  1
  O  O25  1  0.78479200  0.17935100  0.86436600  1
  O  O26  1  0.85899200  0.66430700  0.83883000  1
  O  O27  1  0.35138300  0.17902400  0.86451700  1
  O  O28  1  0.70468500  0.13198200  0.09319700  1
  O  O29  1  0.22792000  0.60974500  0.10137600  1
  O  O30  1  0.20208300  0.13224100  0.09330100  1
  O  O31  1  0.67079000  0.61032600  0.10143800  1
loop_
_geom_bond_atom_site_label_1
_geom_bond_atom_site_label_2
_geom_bond_distance
_geom_bond_site_symmetry_2
Li0 O15 2.005223 1_555
Li0 O24 2.076684 1_555
Li0 O26 2.077285 1_555
Li0 O3 2.101815 1_556
Li1 O14 1.970858 1_555
Li1 O2 2.077080 1_456
Li1 O25 2.078514 1_455
Li1 O27 2.083790 1_555
Li2 O7 1.820465 1_555
Li2 O29 1.934453 1_556
Li2 O31 1.935090 1_556
Li2 O8 2.132685 1_556
Li3 O6 1.810206 1_545
Li3 O9 1.966844 1_446
Li3 O28 2.038175 1_456
Li3 O30 2.038657 1_556
Li4 O10 1.964369 1_555
Li4 O5 2.023170 1_555
Li4 O17 2.132183 1_555
Li4 O19 2.136119 1_555
Li5 O11 1.983887 1_555
Li5 O4 1.985788 1_555
Li5 O18 2.079137 1_555
Li5 O16 2.084259 1_455
Li6 O20 2.006484 1_555
Li6 O22 2.007201 1_555
Li6 O1 2.116448 1_555
Li6 O12 2.301797 1_555
Li7 O23 1.924428 1_655
Li7 O21 1.929137 1_555
Li7 O0 1.989648 1_555
Co0 O20 2.045267 1_655
Co0 O22 2.045917 1_555
Co0 O2 2.121108 1_555
Co0 O5 2.121892 1_555
Co0 O30 2.215229 1_655
Co0 O28 2.215234 1_555
Co1 O21 2.075496 1_555
Co1 O23 2.075517 1_555
Co1 O31 2.111145 1_555
Co1 O29 2.111510 1_555
Co1 O3 2.270004 1_555
Co1 O4 2.273522 1_555
Co2 O7 2.097906 1_555
Co2 O10 2.111448 1_555
Co2 O12 2.116552 1_555
Co2 O14 2.147149 1_555
Co2 O17 2.191646 1_555
Co2 O24 2.194776 1_555
Co3 O13 2.046027 1_555
Co3 O6 2.049946 1_655
Co3 O11 2.140418 1_655
Co3 O15 2.166659 1_555
Co3 O16 2.181316 1_555
Co3 O25 2.325130 1_565
Co4 O7 2.097681 1_555
Co4 O10 2.113514 1_555
Co4 O12 2.120394 1_655
Co4 O14 2.136396 1_655
Co4 O19 2.193593 1_555
Co4 O26 2.197576 1_555
Co5 O13 2.044847 1_555
Co5 O6 2.045715 1_555
Co5 O11 2.145776 1_555
Co5 O15 2.166498 1_555
Co5 O18 2.181752 1_555
Co5 O27 2.323398 1_565
O0 Sb8 2.034494 1_555
O0 Sb6 2.035163 1_655
O1 Sb9 2.034990 1_555
O1 Sb7 2.035697 1_555
O2 Sb8 2.057973 1_555
O2 Sb6 2.058587 1_655
O3 Sb9 2.055176 1_565
O3 Sb7 2.055299 1_565
O4 Sb8 2.061056 1_555
O4 Sb6 2.062716 1_555
O5 Sb9 2.093819 1_655
O5 Sb7 2.094957 1_555
O6 Sb2 1.997355 1_555
O7 Sb3 1.962213 1_555
O8 Sb5 2.155191 1_554
O8 Sb6 2.185781 1_555
O8 Sb8 2.188169 1_555
O9 Sb7 2.025893 1_565
O9 Sb9 2.025927 1_665
O9 Sb4 2.716359 1_654
O10 Sb0 2.008664 1_555
O11 Sb1 1.982451 1_565
O12 Sb2 2.002196 1_555
O13 Sb3 1.965651 1_565
O14 Sb4 2.006400 1_555
O15 Sb5 1.980048 1_565
O16 Sb2 2.042522 1_655
O16 Sb0 2.138881 1_555
O17 Sb3 2.053173 1_555
O17 Sb1 2.112606 1_555
O18 Sb2 2.042058 1_555
O18 Sb0 2.139446 1_555
O19 Sb3 2.052771 1_555
O19 Sb1 2.110025 1_655
O20 Sb6 1.953440 1_555
O21 Sb7 1.951115 1_565
O22 Sb8 1.953070 1_555
O23 Sb9 1.949669 1_565
O24 Sb2 2.041652 1_555
O24 Sb4 2.178027 1_555
O25 Sb5 2.070374 1_555
O25 Sb3 2.106013 1_555
O26 Sb2 2.040242 1_655
O26 Sb4 2.176590 1_655
O27 Sb5 2.067557 1_555
O27 Sb3 2.107270 1_555
O28 Sb5 2.079273 1_554
O28 Sb7 2.102660 1_555
O29 Sb6 1.963425 1_555
O29 Sb4 2.426722 1_554
O30 Sb5 2.081159 1_554
O30 Sb9 2.101731 1_555
O31 Sb8 1.964836 1_555
O31 Sb4 2.423546 1_654
