# generated using pymatgen
data_CeSe2
_symmetry_space_group_name_H-M   'P 1'
_cell_length_a   8.57158654
_cell_length_b   18.99134802
_cell_length_c   18.99134756
_cell_angle_alpha   102.82809691
_cell_angle_beta   90.00000000
_cell_angle_gamma   90.00000000
_symmetry_Int_Tables_number   1
_chemical_formula_structural   CeSe2
_chemical_formula_sum   'Ce12 Se24'
_cell_volume   3014.36254910
_cell_formula_units_Z   12
loop_
 _symmetry_equiv_pos_site_id
 _symmetry_equiv_pos_as_xyz
  1  'x, y, z'
loop_
 _atom_site_type_symbol
 _atom_site_label
 _atom_site_symmetry_multiplicity
 _atom_site_fract_x
 _atom_site_fract_y
 _atom_site_fract_z
 _atom_site_occupancy
  Ce  Ce0  1  0.25263137  0.27377789  0.72622211  1
  Ce  Ce1  1  0.75263137  0.72622211  0.27377789  1
  Ce  Ce2  1  0.75121840  0.37640087  0.62359913  1
  Ce  Ce3  1  0.25121840  0.62359913  0.37640087  1
  Ce  Ce4  1  0.27295595  0.75265271  0.65594137  1
  Ce  Ce5  1  0.27295595  0.34405863  0.24734729  1
  Ce  Ce6  1  0.77295595  0.24734729  0.34405863  1
  Ce  Ce7  1  0.77295595  0.65594137  0.75265271  1
  Ce  Ce8  1  0.35402323  0.00471907  0.58260026  1
  Ce  Ce9  1  0.35402323  0.41739974  0.99528093  1
  Ce  Ce10  1  0.85402323  0.99528093  0.41739974  1
  Ce  Ce11  1  0.85402323  0.58260026  0.00471907  1
  Se  Se0  1  0.80283749  0.33344966  0.47857437  1
  Se  Se1  1  0.80283749  0.52142563  0.66655034  1
  Se  Se2  1  0.30283749  0.66655034  0.52142563  1
  Se  Se3  1  0.30283749  0.47857437  0.33344966  1
  Se  Se4  1  0.29312141  0.12806436  0.68323415  1
  Se  Se5  1  0.29312141  0.31676585  0.87193564  1
  Se  Se6  1  0.79312141  0.87193564  0.31676585  1
  Se  Se7  1  0.79312141  0.68323415  0.12806436  1
  Se  Se8  1  0.83609953  0.10814777  0.35024405  1
  Se  Se9  1  0.83609953  0.64975595  0.89185223  1
  Se  Se10  1  0.33609953  0.89185223  0.64975595  1
  Se  Se11  1  0.33609953  0.35024405  0.10814777  1
  Se  Se12  1  0.47762726  0.25231783  0.29150065  1
  Se  Se13  1  0.47762726  0.70849935  0.74768217  1
  Se  Se14  1  0.97762726  0.74768217  0.70849935  1
  Se  Se15  1  0.97762726  0.29150065  0.25231783  1
  Se  Se16  1  0.14688260  0.98791964  0.47133553  1
  Se  Se17  1  0.14688260  0.52866447  0.01208036  1
  Se  Se18  1  0.64688260  0.01208036  0.52866447  1
  Se  Se19  1  0.64688260  0.47133553  0.98791964  1
  Se  Se20  1  0.95471170  0.30587879  0.69412121  1
  Se  Se21  1  0.45471170  0.69412121  0.30587879  1
  Se  Se22  1  0.45184357  0.34541311  0.65458689  1
  Se  Se23  1  0.95184357  0.65458689  0.34541311  1
loop_
_geom_bond_atom_site_label_1
_geom_bond_atom_site_label_2
_geom_bond_distance
_geom_bond_site_symmetry_2
Ce0 Se20 2.725703 1_455
Ce0 Se22 2.727505 1_555
Ce0 Se5 2.727944 1_555
Ce0 Se4 2.727944 1_555
Ce1 Se21 2.725703 1_555
Ce1 Se23 2.727505 1_555
Ce1 Se7 2.727944 1_555
Ce1 Se6 2.727944 1_555
Ce2 Se20 2.725154 1_555
Ce2 Se22 2.726061 1_555
Ce2 Se0 2.729326 1_555
Ce2 Se1 2.729327 1_555
Ce3 Se21 2.725154 1_555
Ce3 Se23 2.726061 1_455
Ce3 Se2 2.729326 1_555
Ce3 Se3 2.729327 1_555
Ce4 Se2 2.722257 1_555
Ce4 Se10 2.726387 1_555
Ce4 Se14 2.730424 1_455
Ce4 Se13 2.732251 1_555
Ce5 Se3 2.722257 1_555
Ce5 Se11 2.726387 1_555
Ce5 Se15 2.730424 1_455
Ce5 Se12 2.732251 1_555
Ce6 Se0 2.722257 1_555
Ce6 Se8 2.726387 1_555
Ce6 Se12 2.730424 1_555
Ce6 Se15 2.732251 1_555
Ce7 Se1 2.722257 1_555
Ce7 Se9 2.726387 1_555
Ce7 Se13 2.730424 1_555
Ce7 Se14 2.732251 1_555
Ce8 Se16 2.723961 1_545
Ce8 Se4 2.724772 1_555
Ce8 Se18 2.726500 1_555
Ce8 Se10 2.731060 1_545
Ce9 Se17 2.723961 1_556
Ce9 Se5 2.724772 1_555
Ce9 Se19 2.726500 1_555
Ce9 Se11 2.731060 1_556
Ce10 Se18 2.723961 1_565
Ce10 Se6 2.724772 1_555
Ce10 Se16 2.726500 1_655
Ce10 Se8 2.731060 1_565
Ce11 Se19 2.723961 1_554
Ce11 Se7 2.724772 1_555
Ce11 Se17 2.726500 1_655
Ce11 Se9 2.731060 1_554
