# generated using pymatgen
data_PrBrCl2
_symmetry_space_group_name_H-M   'P 1'
_cell_length_a   4.34737654
_cell_length_b   7.57415756
_cell_length_c   7.67586432
_cell_angle_alpha   61.26409406
_cell_angle_beta   90.00000000
_cell_angle_gamma   90.00000000
_symmetry_Int_Tables_number   1
_chemical_formula_structural   PrBrCl2
_chemical_formula_sum   'Pr2 Br2 Cl4'
_cell_volume   221.62142091
_cell_formula_units_Z   2
loop_
 _symmetry_equiv_pos_site_id
 _symmetry_equiv_pos_as_xyz
  1  'x, y, z'
loop_
 _atom_site_type_symbol
 _atom_site_label
 _atom_site_symmetry_multiplicity
 _atom_site_fract_x
 _atom_site_fract_y
 _atom_site_fract_z
 _atom_site_occupancy
  Pr  Pr0  1  0.00000000  0.33908393  0.32820447  1
  Pr  Pr1  1  0.50000000  0.66895137  0.66083364  1
  Br  Br0  1  -0.00000000  0.36676205  0.91306359  1
  Br  Br1  1  0.00000000  0.92019790  0.71503477  1
  Cl  Cl0  1  0.00000000  0.70010060  0.39135610  1
  Cl  Cl1  1  0.50000000  0.60045393  0.08805307  1
  Cl  Cl2  1  0.50000000  0.08242788  0.31494609  1
  Cl  Cl3  1  0.50000000  0.32202434  0.58850627  1
loop_
_geom_bond_atom_site_label_1
_geom_bond_atom_site_label_2
_geom_bond_distance
_geom_bond_site_symmetry_2
Br0 Pr1 3.074267 1_555
Br0 Pr1 3.074267 1_455
Br0 Pr0 3.091247 1_556
Br1 Pr1 3.046411 1_555
Br1 Pr1 3.046411 1_455
Br1 Pr0 3.134364 1_565
Cl0 Pr1 2.930856 1_555
Cl0 Pr1 2.930856 1_455
Cl0 Pr0 2.997735 1_555
Cl1 Pr0 2.921141 1_555
Cl1 Pr0 2.921141 1_655
Cl1 Pr1 3.063810 1_554
Cl2 Pr0 2.950332 1_555
Cl2 Pr0 2.950332 1_655
Cl2 Pr1 2.976867 1_545
Cl3 Pr0 2.912995 1_555
Cl3 Pr0 2.912995 1_655
Cl3 Pr1 2.935242 1_555
