# generated using pymatgen
data_RbPH3O4
_symmetry_space_group_name_H-M   'P 1'
_cell_length_a   7.02365102
_cell_length_b   9.20023600
_cell_length_c   14.98705040
_cell_angle_alpha   90.00000000
_cell_angle_beta   100.21633687
_cell_angle_gamma   90.00000000
_symmetry_Int_Tables_number   1
_chemical_formula_structural   RbPH3O4
_chemical_formula_sum   'Rb8 P8 H24 O32'
_cell_volume   953.09717848
_cell_formula_units_Z   8
loop_
 _symmetry_equiv_pos_site_id
 _symmetry_equiv_pos_as_xyz
  1  'x, y, z'
loop_
 _atom_site_type_symbol
 _atom_site_label
 _atom_site_symmetry_multiplicity
 _atom_site_fract_x
 _atom_site_fract_y
 _atom_site_fract_z
 _atom_site_occupancy
  Rb  Rb0  1  0.11309300  0.65635400  0.63040300  1
  Rb  Rb1  1  0.38690700  0.15635400  0.36959700  1
  Rb  Rb2  1  0.88690700  0.34364600  0.36959700  1
  Rb  Rb3  1  0.61309300  0.84364600  0.63040300  1
  Rb  Rb4  1  0.90766800  0.11579900  0.82294900  1
  Rb  Rb5  1  0.59233200  0.61579900  0.17705100  1
  Rb  Rb6  1  0.09233200  0.88420100  0.17705100  1
  Rb  Rb7  1  0.40766800  0.38420100  0.82294900  1
  P  P0  1  0.35464800  0.94970200  0.98613900  1
  P  P1  1  0.14535200  0.44970200  0.01386100  1
  P  P2  1  0.64535200  0.05029800  0.01386100  1
  P  P3  1  0.85464800  0.55029800  0.98613900  1
  P  P4  1  0.06679300  0.06781900  0.55859900  1
  P  P5  1  0.43320700  0.56781900  0.44140100  1
  P  P6  1  0.93320700  0.93218100  0.44140100  1
  P  P7  1  0.56679300  0.43218100  0.55859900  1
  H  H0  1  0.20006900  0.16251000  0.00573700  1
  H  H1  1  0.29993100  0.66251000  0.99426300  1
  H  H2  1  0.79993100  0.83749000  0.99426300  1
  H  H3  1  0.70006900  0.33749000  0.00573700  1
  H  H4  1  0.79451200  0.18551700  0.57440500  1
  H  H5  1  0.70548800  0.68551700  0.42559500  1
  H  H6  1  0.20548800  0.81448300  0.42559500  1
  H  H7  1  0.29451200  0.31448300  0.57440500  1
  H  H8  1  0.43778100  0.04527400  0.80860000  1
  H  H9  1  0.06221900  0.54527400  0.19140000  1
  H  H10  1  0.56221900  0.95472600  0.19140000  1
  H  H11  1  0.93778100  0.45472600  0.80860000  1
  H  H12  1  0.37457700  0.06190300  0.70510600  1
  H  H13  1  0.12542300  0.56190300  0.29489400  1
  H  H14  1  0.62542300  0.93809700  0.29489400  1
  H  H15  1  0.87457700  0.43809700  0.70510600  1
  H  H16  1  0.56873000  0.67566100  0.82534500  1
  H  H17  1  0.93127000  0.17566100  0.17465500  1
  H  H18  1  0.43127000  0.32433900  0.17465500  1
  H  H19  1  0.06873000  0.82433900  0.82534500  1
  H  H20  1  0.40101600  0.78883900  0.82457000  1
  H  H21  1  0.09898400  0.28883900  0.17543000  1
  H  H22  1  0.59898400  0.21116100  0.17543000  1
  H  H23  1  0.90101600  0.71116100  0.82457000  1
  O  O0  1  0.28728100  0.93857000  0.88338900  1
  O  O1  1  0.21271900  0.43857000  0.11661100  1
  O  O2  1  0.71271900  0.06143000  0.11661100  1
  O  O3  1  0.78728100  0.56143000  0.88338900  1
  O  O4  1  0.35935100  0.80727200  0.03868000  1
  O  O5  1  0.14064900  0.30727200  0.96132000  1
  O  O6  1  0.64064900  0.19272800  0.96132000  1
  O  O7  1  0.85935100  0.69272800  0.03868000  1
  O  O8  1  0.22637800  0.05917400  0.03280500  1
  O  O9  1  0.27362200  0.55917400  0.96719500  1
  O  O10  1  0.77362200  0.94082600  0.96719500  1
  O  O11  1  0.72637800  0.44082600  0.03280500  1
  O  O12  1  0.20604700  0.97509200  0.62378300  1
  O  O13  1  0.29395300  0.47509200  0.37621700  1
  O  O14  1  0.79395300  0.02490800  0.37621700  1
  O  O15  1  0.70604700  0.52490800  0.62378300  1
  O  O16  1  0.14929000  0.20444300  0.52096700  1
  O  O17  1  0.35071000  0.70444300  0.47903300  1
  O  O18  1  0.85071000  0.79555700  0.47903300  1
  O  O19  1  0.64929000  0.29555700  0.52096700  1
  O  O20  1  0.88683900  0.10772500  0.60748000  1
  O  O21  1  0.61316100  0.60772500  0.39252000  1
  O  O22  1  0.11316100  0.89227500  0.39252000  1
  O  O23  1  0.38683900  0.39227500  0.60748000  1
  O  O24  1  0.47680700  0.09424400  0.75623800  1
  O  O25  1  0.02319300  0.59424400  0.24376200  1
  O  O26  1  0.52319300  0.90575600  0.24376200  1
  O  O27  1  0.97680700  0.40575600  0.75623800  1
  O  O28  1  0.45027600  0.71325600  0.78729200  1
  O  O29  1  0.04972400  0.21325600  0.21270800  1
  O  O30  1  0.54972400  0.28674400  0.21270800  1
  O  O31  1  0.95027600  0.78674400  0.78729200  1
loop_
_geom_bond_atom_site_label_1
_geom_bond_atom_site_label_2
_geom_bond_distance
_geom_bond_site_symmetry_2
H0 O8 1.037296 1_555
H0 O5 1.514122 1_554
H0 Rb4 3.148226 1_454
H1 O9 1.037296 1_555
H1 O4 1.514122 1_556
H1 Rb5 3.148226 1_556
H2 O10 1.037296 1_555
H2 O7 1.514122 1_556
H2 Rb6 3.148226 1_656
H3 O11 1.037296 1_555
H3 O6 1.514122 1_554
H3 Rb7 3.148226 1_554
H4 O20 1.031716 1_555
H4 O19 1.554654 1_555
H5 O21 1.031716 1_555
H5 O18 1.554654 1_555
H6 O22 1.031716 1_555
H6 O17 1.554654 1_555
H7 O23 1.031716 1_555
H7 O16 1.554654 1_555
H8 O24 0.985016 1_555
H8 Rb7 3.135337 1_555
H9 O25 0.985016 1_555
H9 Rb6 3.135337 1_555
H10 O26 0.985016 1_555
H10 Rb5 3.135337 1_555
H11 O27 0.985016 1_555
H11 Rb4 3.135337 1_555
H12 O24 0.998075 1_555
H12 Rb3 2.959287 1_545
H13 O25 0.998075 1_555
H13 Rb2 2.959287 1_455
H14 O26 0.998075 1_555
H14 Rb1 2.959287 1_565
H15 O27 0.998075 1_555
H15 Rb0 2.959287 1_655
H16 O28 0.984255 1_555
H16 Rb7 2.908099 1_555
H17 O29 0.984255 1_655
H17 Rb6 2.908099 1_645
H18 O30 0.984255 1_555
H18 Rb5 2.908099 1_555
H19 O31 0.984255 1_455
H19 Rb4 2.908099 1_465
H20 O28 0.991948 1_555
H21 O29 0.991948 1_555
H22 O30 0.991948 1_555
H23 O31 0.991948 1_555
O0 P0 1.532076 1_555
O0 Rb4 3.119528 1_465
O1 P1 1.532076 1_555
O1 Rb5 3.119528 1_555
O2 P2 1.532076 1_555
O2 Rb6 3.119528 1_645
O3 P3 1.532076 1_555
O3 Rb7 3.119528 1_555
O4 P0 1.526119 1_554
O4 Rb5 2.979550 1_555
O4 Rb6 3.114227 1_555
O5 P1 1.526119 1_556
O5 Rb4 2.979550 1_455
O5 Rb7 3.114227 1_555
O6 P2 1.526119 1_556
O6 Rb7 2.979550 1_555
O6 Rb4 3.114227 1_555
O7 P3 1.526119 1_554
O7 Rb6 2.979550 1_655
O7 Rb5 3.114227 1_555
O8 P0 1.593331 1_544
O8 Rb6 2.978811 1_545
O9 P1 1.593331 1_556
O9 Rb7 2.978811 1_555
O10 P2 1.593331 1_566
O10 Rb4 2.978811 1_565
O11 P3 1.593331 1_554
O11 Rb5 2.978811 1_555
O12 P4 1.516523 1_565
O12 Rb0 3.009721 1_555
O12 Rb3 3.089547 1_555
O13 P5 1.516523 1_555
O13 Rb1 3.009721 1_555
O13 Rb2 3.089547 1_455
O14 P6 1.516523 1_545
O14 Rb2 3.009721 1_555
O14 Rb1 3.089547 1_555
O15 P7 1.516523 1_555
O15 Rb3 3.009721 1_555
O15 Rb0 3.089547 1_655
O16 P4 1.532884 1_555
O16 Rb2 2.949556 1_455
O16 Rb1 3.077444 1_555
O17 P5 1.532884 1_555
O17 Rb3 2.949556 1_555
O17 Rb0 3.077444 1_555
O18 P6 1.532884 1_555
O18 Rb0 2.949556 1_655
O18 Rb3 3.077444 1_555
O19 P7 1.532884 1_555
O19 Rb1 2.949556 1_555
O19 Rb2 3.077444 1_555
O20 P4 1.611663 1_655
O20 Rb3 3.154680 1_545
O20 Rb4 3.207391 1_555
O21 P5 1.611663 1_555
O21 Rb2 3.154680 1_555
O21 Rb5 3.207391 1_555
O22 P6 1.611663 1_455
O22 Rb1 3.154680 1_565
O22 Rb6 3.207391 1_555
O23 P7 1.611663 1_555
O23 Rb0 3.154680 1_555
O23 Rb7 3.207391 1_555
O24 Rb7 2.919610 1_555
O24 Rb4 3.020537 1_555
O24 Rb3 3.229375 1_545
O25 Rb6 2.919610 1_555
O25 Rb5 3.020537 1_455
O25 Rb2 3.229375 1_455
O26 Rb5 2.919610 1_555
O26 Rb6 3.020537 1_555
O26 Rb1 3.229375 1_565
O27 Rb4 2.919610 1_555
O27 Rb7 3.020537 1_655
O27 Rb0 3.229375 1_655
O28 Rb3 3.037975 1_555
O28 Rb0 3.071810 1_555
O28 Rb7 3.097889 1_555
O29 Rb2 3.037975 1_455
O29 Rb1 3.071810 1_555
O29 Rb6 3.097889 1_545
O30 Rb1 3.037975 1_555
O30 Rb2 3.071810 1_555
O30 Rb5 3.097889 1_555
O31 Rb0 3.037975 1_655
O31 Rb3 3.071810 1_555
O31 Rb4 3.097889 1_565
