# generated using pymatgen
data_Sr5Ca3Fe2(Co3O10)2
_symmetry_space_group_name_H-M   'P 1'
_cell_length_a   10.81007899
_cell_length_b   11.22679923
_cell_length_c   17.62912951
_cell_angle_alpha   108.35626616
_cell_angle_beta   107.93132024
_cell_angle_gamma   90.17816232
_symmetry_Int_Tables_number   1
_chemical_formula_structural   Sr5Ca3Fe2(Co3O10)2
_chemical_formula_sum   'Sr20 Ca12 Fe8 Co24 O80'
_cell_volume   1920.11551381
_cell_formula_units_Z   4
loop_
 _symmetry_equiv_pos_site_id
 _symmetry_equiv_pos_as_xyz
  1  'x, y, z'
loop_
 _atom_site_type_symbol
 _atom_site_label
 _atom_site_symmetry_multiplicity
 _atom_site_fract_x
 _atom_site_fract_y
 _atom_site_fract_z
 _atom_site_occupancy
  Sr  Sr0  1  0.30792563  0.05902318  0.60802604  1
  Sr  Sr1  1  0.30333770  0.56200033  0.60843323  1
  Sr  Sr2  1  0.80601583  0.06398021  0.60934412  1
  Sr  Sr3  1  0.81333189  0.56150531  0.61022479  1
  Sr  Sr4  1  0.19404290  0.43489461  0.38297388  1
  Sr  Sr5  1  0.19668116  0.43860435  0.89525418  1
  Sr  Sr6  1  0.69639616  0.43648698  0.38362475  1
  Sr  Sr7  1  0.69406662  0.93651195  0.38464055  1
  Sr  Sr8  1  0.70146055  0.94196131  0.89417634  1
  Sr  Sr9  1  0.05752667  0.29478817  0.60923875  1
  Sr  Sr10  1  0.06074000  0.79594904  0.60993535  1
  Sr  Sr11  1  0.55745814  0.29505035  0.60973901  1
  Sr  Sr12  1  0.55497424  0.80345450  0.61032106  1
  Sr  Sr13  1  0.44596550  0.20099536  0.38423782  1
  Sr  Sr14  1  0.45526349  0.20662070  0.89400719  1
  Sr  Sr15  1  0.44493082  0.69967460  0.38323154  1
  Sr  Sr16  1  0.44693317  0.70857440  0.89461480  1
  Sr  Sr17  1  0.94422777  0.19820735  0.38367040  1
  Sr  Sr18  1  0.94761741  0.20280469  0.89439585  1
  Sr  Sr19  1  0.94501828  0.69771941  0.38376406  1
  Ca  Ca0  1  0.30869044  0.06693356  0.10748367  1
  Ca  Ca1  1  0.29885026  0.56666259  0.10925772  1
  Ca  Ca2  1  0.80529946  0.06716841  0.10930148  1
  Ca  Ca3  1  0.80265279  0.56849867  0.10851718  1
  Ca  Ca4  1  0.19613134  0.93177437  0.38871480  1
  Ca  Ca5  1  0.19976582  0.93209442  0.89636811  1
  Ca  Ca6  1  0.69763385  0.43430640  0.89697589  1
  Ca  Ca7  1  0.05723252  0.28971831  0.11020832  1
  Ca  Ca8  1  0.05180831  0.78947913  0.10989194  1
  Ca  Ca9  1  0.55347317  0.29439015  0.10846909  1
  Ca  Ca10  1  0.55047363  0.79398201  0.11082529  1
  Ca  Ca11  1  0.94991355  0.71116289  0.89685227  1
  Fe  Fe0  1  0.11274178  0.09072512  0.75602161  1
  Fe  Fe1  1  0.10687773  0.59585369  0.75511448  1
  Fe  Fe2  1  0.61206196  0.59225434  0.75401240  1
  Fe  Fe3  1  0.36110093  0.41046779  0.75311321  1
  Fe  Fe4  1  0.34970380  0.90781300  0.24530611  1
  Fe  Fe5  1  0.35924671  0.91041459  0.75494308  1
  Fe  Fe6  1  0.85698961  0.41302387  0.75685918  1
  Fe  Fe7  1  0.86241824  0.90781459  0.75337667  1
  Co  Co0  1  0.01182890  0.00175898  0.00764619  1
  Co  Co1  1  0.00315929  0.99712349  0.49598125  1
  Co  Co2  1  0.00508381  0.50306807  0.00493608  1
  Co  Co3  1  0.00407373  0.49876969  0.49855654  1
  Co  Co4  1  0.50960848  0.00218457  0.00645147  1
  Co  Co5  1  0.49924981  0.99644172  0.49225715  1
  Co  Co6  1  0.50890845  0.50452416  0.00707987  1
  Co  Co7  1  0.50728038  0.50356360  0.50438340  1
  Co  Co8  1  0.25743698  0.25038154  0.00338328  1
  Co  Co9  1  0.25300428  0.24693841  0.49802614  1
  Co  Co10  1  0.25777061  0.75331200  0.00946227  1
  Co  Co11  1  0.25249546  0.74889901  0.49721620  1
  Co  Co12  1  0.76468277  0.25810449  0.01499075  1
  Co  Co13  1  0.75399314  0.24892928  0.49862398  1
  Co  Co14  1  0.75771477  0.75167259  0.00400362  1
  Co  Co15  1  0.75643916  0.75190333  0.50286227  1
  Co  Co16  1  0.10576632  0.08799167  0.24426174  1
  Co  Co17  1  0.10487474  0.59231074  0.24312282  1
  Co  Co18  1  0.60736471  0.09122402  0.24368610  1
  Co  Co19  1  0.61061933  0.09928556  0.75193762  1
  Co  Co20  1  0.60522057  0.59005653  0.24236764  1
  Co  Co21  1  0.35550753  0.40324789  0.24155430  1
  Co  Co22  1  0.85656732  0.40499116  0.24361304  1
  Co  Co23  1  0.85798293  0.90292895  0.24377304  1
  O  O0  1  0.12822003  0.11914137  0.48788529  1
  O  O1  1  0.12897110  0.11012113  0.99451971  1
  O  O2  1  0.12566357  0.61991638  0.49010685  1
  O  O3  1  0.11887381  0.62522632  0.99034428  1
  O  O4  1  0.62277783  0.12437483  0.49203329  1
  O  O5  1  0.63715259  0.13408990  0.99928291  1
  O  O6  1  0.63121043  0.63022823  0.49254704  1
  O  O7  1  0.62145147  0.61915635  0.99440380  1
  O  O8  1  0.12687566  0.38768585  0.01629473  1
  O  O9  1  0.13027191  0.37356382  0.50311673  1
  O  O10  1  0.14282568  0.87324770  0.01568215  1
  O  O11  1  0.12784511  0.87660081  0.50103382  1
  O  O12  1  0.64144709  0.38500734  0.02021065  1
  O  O13  1  0.62562804  0.38298417  0.50247273  1
  O  O14  1  0.63489576  0.88936365  0.01616179  1
  O  O15  1  0.63010605  0.87817100  0.50616659  1
  O  O16  1  0.36964873  0.11602183  0.48597794  1
  O  O17  1  0.38548555  0.11245749  0.99535658  1
  O  O18  1  0.38036994  0.61499262  0.49222119  1
  O  O19  1  0.36888175  0.62829417  0.99621402  1
  O  O20  1  0.87682814  0.11660855  0.49244409  1
  O  O21  1  0.88025633  0.12245860  0.99615322  1
  O  O22  1  0.87460349  0.61811936  0.48981835  1
  O  O23  1  0.87562998  0.61101682  0.99194221  1
  O  O24  1  0.39023127  0.39239341  0.01501430  1
  O  O25  1  0.37543768  0.37144720  0.50393203  1
  O  O26  1  0.38985513  0.88691935  0.02206011  1
  O  O27  1  0.37600815  0.87609139  0.49997116  1
  O  O28  1  0.87866345  0.37842402  0.01485868  1
  O  O29  1  0.88043707  0.37643869  0.50331019  1
  O  O30  1  0.89557595  0.88700157  0.01551446  1
  O  O31  1  0.87651850  0.87223475  0.50317505  1
  O  O32  1  0.09586232  0.10031985  0.14134689  1
  O  O33  1  0.08989682  0.09319029  0.64622546  1
  O  O34  1  0.08518824  0.60303158  0.13887257  1
  O  O35  1  0.07953241  0.59348566  0.64394064  1
  O  O36  1  0.59142557  0.10795993  0.14166378  1
  O  O37  1  0.57982604  0.09268656  0.64393165  1
  O  O38  1  0.58917713  0.60600374  0.13985534  1
  O  O39  1  0.58488029  0.59067090  0.64086198  1
  O  O40  1  0.43425006  0.40575601  0.34897931  1
  O  O41  1  0.45006149  0.40792542  0.86292345  1
  O  O42  1  0.43826287  0.90776297  0.35555669  1
  O  O43  1  0.44812197  0.90995330  0.86518696  1
  O  O44  1  0.93438119  0.40660348  0.35077079  1
  O  O45  1  0.94350801  0.40195287  0.86364076  1
  O  O46  1  0.93771753  0.90958830  0.35335430  1
  O  O47  1  0.95164555  0.89869205  0.86244763  1
  O  O48  1  0.33689132  0.28691151  0.13654258  1
  O  O49  1  0.33185285  0.29798071  0.64201029  1
  O  O50  1  0.33585853  0.78199241  0.14185801  1
  O  O51  1  0.33041622  0.79987010  0.64373906  1
  O  O52  1  0.84796134  0.28484377  0.14190502  1
  O  O53  1  0.83292151  0.30477115  0.64605540  1
  O  O54  1  0.84255743  0.78679179  0.14070743  1
  O  O55  1  0.83423148  0.79812760  0.64114170  1
  O  O56  1  0.18392101  0.19752251  0.35006319  1
  O  O57  1  0.19549916  0.20654404  0.86719860  1
  O  O58  1  0.18176215  0.70055884  0.34988177  1
  O  O59  1  0.19670345  0.71615748  0.86088755  1
  O  O60  1  0.68450350  0.19407351  0.35204984  1
  O  O61  1  0.68819701  0.21200970  0.85611006  1
  O  O62  1  0.68294103  0.69414386  0.34999182  1
  O  O63  1  0.70176058  0.70973497  0.86174231  1
  O  O64  1  0.42278569  0.05952470  0.23869196  1
  O  O65  1  0.43114361  0.06544493  0.75258894  1
  O  O66  1  0.42370473  0.55990131  0.23744082  1
  O  O67  1  0.43276618  0.56879060  0.75281127  1
  O  O68  1  0.92412157  0.06008163  0.23826139  1
  O  O69  1  0.93353885  0.06549453  0.75301168  1
  O  O70  1  0.92361469  0.56031741  0.23831236  1
  O  O71  1  0.93011538  0.57476157  0.76150767  1
  O  O72  1  0.17505496  0.43179674  0.23831469  1
  O  O73  1  0.18309181  0.43949951  0.75474228  1
  O  O74  1  0.17065098  0.92590964  0.24594967  1
  O  O75  1  0.18172431  0.93377759  0.76061304  1
  O  O76  1  0.67505503  0.42907844  0.23775512  1
  O  O77  1  0.67831800  0.43464241  0.75975728  1
  O  O78  1  0.67575072  0.92978575  0.23914572  1
  O  O79  1  0.68658687  0.94082148  0.75378435  1
loop_
_geom_bond_atom_site_label_1
_geom_bond_atom_site_label_2
_geom_bond_distance
_geom_bond_site_symmetry_2
Ca0 O64 2.289901 1_555
Ca0 O48 2.357292 1_555
Ca0 O26 2.455556 1_545
Ca0 O1 2.491401 1_554
Ca0 O32 2.549546 1_555
Ca0 O17 2.549873 1_554
Ca0 O10 2.556332 1_545
Ca0 O36 2.932434 1_555
Ca1 O66 2.272568 1_555
Ca1 O50 2.304736 1_555
Ca1 O8 2.491187 1_555
Ca1 O34 2.527475 1_555
Ca1 O24 2.557194 1_555
Ca1 O19 2.611055 1_554
Ca1 O3 2.641368 1_554
Ca1 O38 3.022392 1_555
Ca2 O68 2.267428 1_555
Ca2 O52 2.336721 1_555
Ca2 O14 2.474735 1_545
Ca2 O5 2.526998 1_554
Ca2 O36 2.556317 1_555
Ca2 O30 2.583944 1_545
Ca2 O21 2.606281 1_554
Ca2 O32 3.015173 1_655
Ca3 O70 2.290150 1_555
Ca3 O54 2.341140 1_555
Ca3 O12 2.447716 1_555
Ca3 O38 2.540177 1_555
Ca3 O7 2.551175 1_554
Ca3 O28 2.565562 1_555
Ca3 O23 2.586026 1_554
Ca3 O34 2.936078 1_655
Ca4 O74 2.425543 1_555
Ca4 O58 2.458404 1_555
Ca4 O27 2.539721 1_555
Ca4 O16 2.549253 1_565
Ca4 O0 2.550271 1_565
Ca4 O11 2.553239 1_555
Ca4 O46 2.660779 1_455
Ca4 O42 2.848285 1_555
Ca5 O59 2.302421 1_555
Ca5 O75 2.346723 1_555
Ca5 O1 2.494204 1_565
Ca5 O47 2.560721 1_455
Ca5 O17 2.601527 1_565
Ca5 O10 2.628611 1_556
Ca5 O26 2.701910 1_556
Ca5 O43 2.898043 1_555
Ca6 O61 2.361898 1_555
Ca6 O77 2.364343 1_555
Ca6 O23 2.518288 1_555
Ca6 O41 2.550365 1_555
Ca6 O7 2.563507 1_555
Ca6 O28 2.620435 1_556
Ca6 O12 2.638725 1_556
Ca6 O45 2.893989 1_555
Ca7 O72 2.283453 1_555
Ca7 O32 2.365713 1_555
Ca7 O52 2.495962 1_455
Ca7 O8 2.535114 1_555
Ca7 O21 2.541648 1_454
Ca7 O28 2.571359 1_455
Ca7 O1 2.686991 1_554
Ca7 O48 2.915727 1_555
Ca8 O34 2.310305 1_555
Ca8 O74 2.350754 1_555
Ca8 O54 2.485824 1_455
Ca8 O30 2.499575 1_455
Ca8 O10 2.568100 1_555
Ca8 O3 2.620884 1_554
Ca8 O23 2.622760 1_454
Ca8 O50 2.952829 1_555
Ca9 O76 2.276191 1_555
Ca9 O36 2.349562 1_555
Ca9 O12 2.502473 1_555
Ca9 O24 2.530327 1_555
Ca9 O48 2.544003 1_555
Ca9 O17 2.574449 1_554
Ca9 O5 2.581188 1_554
Ca10 O78 2.281313 1_555
Ca10 O38 2.333375 1_555
Ca10 O26 2.432854 1_555
Ca10 O50 2.554568 1_555
Ca10 O19 2.561993 1_554
Ca10 O14 2.611862 1_555
Ca10 O7 2.663683 1_554
Ca11 O71 2.337957 1_555
Ca11 O47 2.368916 1_555
Ca11 O3 2.478349 1_655
Ca11 O63 2.559404 1_555
Ca11 O23 2.594121 1_555
Ca11 O30 2.604034 1_556
Ca11 O10 2.633256 1_656
Ca11 O59 2.930082 1_655
Fe0 O33 1.883557 1_555
Fe0 O57 1.907987 1_555
Fe0 O75 1.930848 1_545
Fe0 O69 1.938972 1_455
Fe1 O59 1.880104 1_555
Fe1 O35 1.881404 1_555
Fe1 O73 1.940404 1_555
Fe1 O71 1.966366 1_455
Fe2 O63 1.888678 1_555
Fe2 O39 1.918953 1_555
Fe2 O77 1.931421 1_555
Fe2 O67 1.947949 1_555
Fe3 O41 1.887280 1_555
Fe3 O49 1.894561 1_555
Fe3 O67 1.938941 1_555
Fe3 O73 1.960100 1_555
Fe4 O42 1.883909 1_555
Fe4 O50 1.884591 1_555
Fe4 O64 1.926704 1_565
Fe4 O74 1.949967 1_555
Fe5 O43 1.885973 1_555
Fe5 O51 1.889337 1_555
Fe5 O65 1.921470 1_565
Fe5 O75 1.966265 1_555
Fe6 O45 1.870253 1_555
Fe6 O53 1.884204 1_555
Fe6 O71 1.945810 1_555
Fe6 O77 1.961606 1_555
Fe7 O55 1.901564 1_555
Fe7 O47 1.902826 1_555
Fe7 O69 1.930449 1_565
Fe7 O79 1.939417 1_555
Co0 O30 1.862321 1_445
Co0 O1 1.866896 1_554
Co0 O21 1.976790 1_454
Co0 O10 2.030977 1_545
Co0 O32 2.153554 1_555
Co0 O47 2.327811 1_444
Co1 O11 1.915420 1_555
Co1 O20 1.918327 1_465
Co1 O0 1.988726 1_565
Co1 O31 2.015710 1_455
Co1 O46 2.265488 1_455
Co1 O33 2.392296 1_565
Co2 O8 1.860945 1_555
Co2 O23 1.862142 1_454
Co2 O3 1.966389 1_554
Co2 O28 2.036151 1_455
Co2 O34 2.156493 1_555
Co2 O45 2.264893 1_454
Co3 O22 1.945983 1_455
Co3 O29 1.951806 1_455
Co3 O2 1.958755 1_555
Co3 O9 1.964432 1_555
Co3 O35 2.314250 1_555
Co3 O44 2.348319 1_455
Co4 O17 1.836450 1_554
Co4 O14 1.863439 1_545
Co4 O26 1.964523 1_545
Co4 O5 2.079041 1_554
Co4 O36 2.187872 1_555
Co4 O43 2.251268 1_544
Co5 O16 1.946064 1_565
Co5 O15 1.956362 1_555
Co5 O27 1.958338 1_555
Co5 O4 1.959835 1_565
Co5 O42 2.177138 1_555
Co5 O37 2.411676 1_565
Co6 O24 1.860520 1_555
Co6 O7 1.877527 1_554
Co6 O12 1.977407 1_555
Co6 O19 2.064217 1_554
Co6 O38 2.143226 1_555
Co6 O41 2.302956 1_554
Co7 O13 1.865211 1_555
Co7 O18 1.868578 1_555
Co7 O25 2.050316 1_555
Co7 O6 2.051266 1_555
Co7 O39 2.172330 1_555
Co7 O40 2.470359 1_555
Co8 O1 2.032335 1_554
Co8 O24 2.059924 1_555
Co8 O17 2.080791 1_554
Co8 O8 2.100079 1_555
Co8 O48 2.136936 1_555
Co8 O57 2.172181 1_554
Co9 O25 1.878418 1_555
Co9 O0 1.894201 1_555
Co9 O16 1.942967 1_555
Co9 O9 1.947804 1_555
Co9 O49 2.290530 1_555
Co9 O56 2.357120 1_555
Co10 O10 1.835849 1_555
Co10 O19 1.855786 1_554
Co10 O3 1.950791 1_554
Co10 O26 1.979800 1_555
Co10 O50 2.139084 1_555
Co10 O59 2.390748 1_554
Co11 O27 1.930979 1_555
Co11 O2 1.939056 1_555
Co11 O11 1.970472 1_555
Co11 O18 2.045270 1_555
Co11 O51 2.331410 1_555
Co11 O58 2.347814 1_555
Co12 O28 1.826538 1_555
Co12 O5 1.850911 1_554
Co12 O12 1.953896 1_555
Co12 O21 1.984713 1_554
Co12 O52 2.059489 1_555
Co12 O61 2.540674 1_554
Co13 O4 1.940289 1_555
Co13 O29 1.941191 1_555
Co13 O20 1.995320 1_555
Co13 O13 2.049837 1_555
Co13 O60 2.328108 1_555
Co13 O53 2.341188 1_555
Co14 O7 2.021400 1_554
Co14 O23 2.032616 1_554
Co14 O30 2.043518 1_555
Co14 O14 2.043912 1_555
Co14 O54 2.200646 1_555
Co14 O63 2.279855 1_554
Co15 O6 1.847196 1_555
Co15 O31 1.868163 1_555
Co15 O15 1.971548 1_555
Co15 O22 1.978814 1_555
Co15 O55 2.203925 1_555
Co15 O62 2.427400 1_555
Co16 O56 1.812025 1_555
Co16 O32 1.833289 1_555
Co16 O68 1.952555 1_455
Co16 O74 1.957861 1_545
Co17 O58 1.816532 1_555
Co17 O34 1.826497 1_555
Co17 O72 1.944748 1_555
Co17 O70 1.962068 1_455
Co18 O60 1.817101 1_555
Co18 O36 1.822650 1_555
Co18 O78 1.947107 1_545
Co18 O64 1.995835 1_555
Co19 O61 1.805190 1_555
Co19 O37 1.806220 1_555
Co19 O79 1.967119 1_545
Co19 O65 1.980031 1_555
Co20 O62 1.813044 1_555
Co20 O38 1.827322 1_555
Co20 O76 1.948449 1_555
Co20 O66 1.960815 1_555
Co21 O40 1.812600 1_555
Co21 O48 1.849212 1_555
Co21 O66 1.935721 1_555
Co21 O72 1.964195 1_555
Co22 O44 1.810108 1_555
Co22 O52 1.848302 1_555
Co22 O70 1.926506 1_555
Co22 O76 1.957036 1_555
Co23 O54 1.830058 1_555
Co23 O46 1.834065 1_555
Co23 O68 1.943284 1_565
Co23 O78 1.974458 1_555
O0 Sr17 2.628192 1_455
O0 Sr0 2.662746 1_555
O0 Sr9 2.721829 1_555
O1 Sr18 2.660903 1_455
O2 Sr4 2.612740 1_555
O2 Sr1 2.618807 1_555
O2 Sr19 2.622734 1_455
O2 Sr10 2.674475 1_555
O3 Sr5 2.564046 1_555
O4 Sr13 2.609175 1_555
O4 Sr11 2.623415 1_555
O4 Sr7 2.649533 1_545
O4 Sr2 2.651316 1_555
O5 Sr14 2.586197 1_555
O5 Sr8 2.618086 1_545
O6 Sr15 2.635012 1_555
O6 Sr6 2.669613 1_555
O6 Sr3 2.697721 1_555
O6 Sr12 2.700461 1_555
O7 Sr16 2.596566 1_555
O8 Sr5 2.684508 1_554
O8 Sr18 2.698658 1_454
O9 Sr1 2.604872 1_555
O9 Sr9 2.616159 1_555
O9 Sr17 2.666687 1_455
O9 Sr4 2.692575 1_555
O11 Sr0 2.612060 1_565
O11 Sr10 2.642010 1_555
O11 Sr19 2.656610 1_455
O12 Sr14 2.724491 1_554
O13 Sr3 2.635508 1_555
O13 Sr13 2.662967 1_555
O13 Sr6 2.666947 1_555
O13 Sr11 2.668884 1_555
O14 Sr8 2.690937 1_554
O14 Sr16 2.719152 1_554
O15 Sr12 2.572714 1_555
O15 Sr2 2.594570 1_565
O15 Sr15 2.699636 1_555
O15 Sr7 2.700010 1_555
O16 Sr13 2.606068 1_555
O16 Sr0 2.689351 1_555
O16 Sr11 2.721568 1_555
O17 Sr14 2.625532 1_555
O18 Sr4 2.643439 1_555
O18 Sr15 2.656083 1_555
O18 Sr1 2.657013 1_555
O18 Sr12 2.674858 1_555
O19 Sr16 2.583577 1_555
O19 Sr5 2.591551 1_555
O20 Sr7 2.616509 1_545
O20 Sr2 2.630144 1_555
O20 Sr9 2.638480 1_655
O20 Sr17 2.647604 1_555
O21 Sr18 2.526144 1_555
O21 Sr8 2.572065 1_545
O22 Sr6 2.593158 1_555
O22 Sr19 2.607305 1_555
O22 Sr3 2.657299 1_555
O22 Sr10 2.684636 1_655
O24 Sr5 2.660998 1_554
O24 Sr14 2.743187 1_554
O25 Sr11 2.616254 1_555
O25 Sr1 2.643899 1_555
O25 Sr13 2.674352 1_555
O25 Sr4 2.700044 1_555
O26 Sr16 2.732300 1_554
O27 Sr0 2.607063 1_565
O27 Sr12 2.623713 1_555
O27 Sr15 2.664455 1_555
O28 Sr18 2.701763 1_554
O29 Sr3 2.603906 1_555
O29 Sr9 2.623006 1_655
O29 Sr17 2.678408 1_555
O29 Sr6 2.680288 1_555
O30 Sr8 2.726748 1_554
O31 Sr10 2.638105 1_655
O31 Sr2 2.658737 1_565
O31 Sr19 2.681336 1_555
O31 Sr7 2.682963 1_555
O33 Sr9 2.542454 1_555
O33 Sr0 2.641193 1_555
O33 Sr2 2.928911 1_455
O33 Sr10 3.188929 1_545
O35 Sr10 2.520593 1_555
O35 Sr1 2.677409 1_555
O35 Sr3 2.751186 1_455
O37 Sr11 2.521818 1_555
O37 Sr2 2.693228 1_555
O37 Sr0 2.807059 1_555
O37 Sr12 3.106760 1_545
O39 Sr12 2.609382 1_555
O39 Sr3 2.685649 1_555
O39 Sr1 2.915467 1_555
O39 Sr11 3.186005 1_555
O40 Sr13 2.557387 1_555
O40 Sr6 2.705190 1_555
O40 Sr4 2.837044 1_555
O40 Sr15 3.156915 1_555
O41 Sr14 2.484537 1_555
O41 Sr5 2.964702 1_555
O42 Sr15 2.529462 1_555
O42 Sr7 2.651586 1_555
O42 Sr13 3.166104 1_565
O43 Sr16 2.474546 1_555
O43 Sr8 2.628061 1_555
O44 Sr17 2.576774 1_555
O44 Sr4 2.683631 1_655
O44 Sr6 2.804808 1_555
O44 Sr19 3.129291 1_555
O45 Sr18 2.458460 1_555
O45 Sr5 2.622875 1_655
O46 Sr19 2.594165 1_555
O46 Sr7 2.850857 1_555
O46 Sr17 3.110403 1_565
O47 Sr8 2.937992 1_555
O49 Sr0 2.551628 1_555
O49 Sr11 2.667508 1_555
O49 Sr9 2.839107 1_555
O49 Sr1 3.198390 1_555
O51 Sr1 2.537869 1_555
O51 Sr12 2.671389 1_555
O51 Sr10 2.787209 1_555
O51 Sr0 3.159799 1_565
O53 Sr2 2.566825 1_555
O53 Sr9 2.693554 1_655
O53 Sr11 2.840606 1_555
O53 Sr3 3.133636 1_555
O55 Sr3 2.532518 1_555
O55 Sr10 2.668357 1_655
O55 Sr12 2.902329 1_555
O55 Sr2 3.204641 1_565
O56 Sr4 2.536865 1_555
O56 Sr13 2.706004 1_555
O56 Sr17 2.829737 1_455
O57 Sr5 2.493320 1_555
O57 Sr14 2.700219 1_555
O57 Sr18 2.866200 1_455
O58 Sr15 2.722686 1_555
O58 Sr19 2.803600 1_455
O59 Sr16 2.592448 1_555
O60 Sr6 2.594741 1_555
O60 Sr17 2.686060 1_555
O60 Sr13 2.802097 1_555
O60 Sr7 3.116694 1_545
O61 Sr18 2.685309 1_555
O61 Sr14 2.801939 1_555
O62 Sr7 2.587931 1_555
O62 Sr19 2.707032 1_555
O62 Sr15 2.805983 1_555
O62 Sr6 3.125697 1_555
O63 Sr8 2.487264 1_555
O63 Sr16 2.985283 1_555
O64 Sr13 2.490739 1_555
O65 Sr14 2.429790 1_555
O65 Sr0 2.463287 1_555
O66 Sr15 2.493024 1_555
O67 Sr16 2.455075 1_555
O67 Sr1 2.475088 1_555
O68 Sr17 2.484799 1_555
O69 Sr18 2.440678 1_555
O69 Sr2 2.477547 1_555
O70 Sr19 2.479771 1_555
O71 Sr3 2.530684 1_555
O72 Sr4 2.483689 1_555
O73 Sr5 2.439127 1_555
O73 Sr9 2.505834 1_555
O75 Sr10 2.533816 1_555
O76 Sr6 2.484532 1_555
O77 Sr11 2.531106 1_555
O78 Sr7 2.487782 1_555
O79 Sr8 2.426229 1_555
O79 Sr12 2.472465 1_555
