# generated using pymatgen
data_Tl3Cd
_symmetry_space_group_name_H-M   'P 1'
_cell_length_a   5.97707631
_cell_length_b   5.97707631
_cell_length_c   5.97707631
_cell_angle_alpha   132.73140867
_cell_angle_beta   132.73140867
_cell_angle_gamma   69.07627069
_symmetry_Int_Tables_number   1
_chemical_formula_structural   Tl3Cd
_chemical_formula_sum   'Tl3 Cd1'
_cell_volume   113.08055488
_cell_formula_units_Z   1
loop_
 _symmetry_equiv_pos_site_id
 _symmetry_equiv_pos_as_xyz
  1  'x, y, z'
loop_
 _atom_site_type_symbol
 _atom_site_label
 _atom_site_symmetry_multiplicity
 _atom_site_fract_x
 _atom_site_fract_y
 _atom_site_fract_z
 _atom_site_occupancy
  Tl  Tl0  1  0.75000000  0.25000000  0.50000000  1
  Tl  Tl1  1  0.25000000  0.75000000  0.50000000  1
  Tl  Tl2  1  0.50000000  0.50000000  -0.00000000  1
  Cd  Cd0  1  -0.00000000  0.00000000  -0.00000000  1
loop_
_geom_bond_atom_site_label_1
_geom_bond_atom_site_label_2
_geom_bond_distance
_geom_bond_site_symmetry_2
Tl0 Tl1 3.388731 1_544
Tl0 Tl1 3.388731 1_645
Tl0 Tl1 3.388731 1_555
Tl0 Tl1 3.388731 1_656
Tl0 Tl2 3.435438 1_556
Tl0 Tl2 3.435438 1_545
Tl0 Tl2 3.435438 1_555
Tl0 Tl2 3.435438 1_656
Tl1 Tl2 3.435438 1_566
Tl1 Tl2 3.435438 1_455
Tl1 Tl2 3.435438 1_556
Tl1 Tl2 3.435438 1_555
Cd0 Tl2 3.388731 1_444
Cd0 Tl2 3.388731 1_455
Cd0 Tl2 3.388731 1_545
Cd0 Tl2 3.388731 1_556
Cd0 Tl1 3.435438 1_545
Cd0 Tl0 3.435438 1_555
Cd0 Tl0 3.435438 1_454
Cd0 Tl1 3.435438 1_555
Cd0 Tl0 3.435438 1_444
Cd0 Tl0 3.435438 1_455
Cd0 Tl1 3.435438 1_444
Cd0 Tl1 3.435438 1_544
