# generated using pymatgen
data_BaZr4SnO12
_symmetry_space_group_name_H-M   'P 1'
_cell_length_a   5.77158335
_cell_length_b   5.77158335
_cell_length_c   8.36105164
_cell_angle_alpha   90.00000000
_cell_angle_beta   90.00000000
_cell_angle_gamma   89.62007457
_symmetry_Int_Tables_number   1
_chemical_formula_structural   BaZr4SnO12
_chemical_formula_sum   'Ba1 Zr4 Sn1 O12'
_cell_volume   278.51032606
_cell_formula_units_Z   1
loop_
 _symmetry_equiv_pos_site_id
 _symmetry_equiv_pos_as_xyz
  1  'x, y, z'
loop_
 _atom_site_type_symbol
 _atom_site_label
 _atom_site_symmetry_multiplicity
 _atom_site_fract_x
 _atom_site_fract_y
 _atom_site_fract_z
 _atom_site_occupancy
  Ba  Ba0  1  0.52456972  0.47543028  0.50000000  1
  Zr  Zr0  1  0.49522505  0.99720422  0.24797156  1
  Zr  Zr1  1  0.49522505  0.99720422  0.75202844  1
  Zr  Zr2  1  0.00279578  0.50477495  0.75202844  1
  Zr  Zr3  1  0.00279578  0.50477495  0.24797156  1
  Sn  Sn0  1  0.97538002  0.02461998  0.00000000  1
  O  O0  1  0.29604082  0.29738423  0.25747714  1
  O  O1  1  0.70261577  0.70395918  0.25747714  1
  O  O2  1  0.70261577  0.70395918  0.74252286  1
  O  O3  1  0.29604082  0.29738423  0.74252286  1
  O  O4  1  0.16109804  0.83890196  0.16824166  1
  O  O5  1  0.77894365  0.22105635  0.27007900  1
  O  O6  1  0.77894365  0.22105635  0.72992100  1
  O  O7  1  0.16109804  0.83890196  0.83175834  1
  O  O8  1  0.62628053  0.99248857  0.00000000  1
  O  O9  1  0.46255060  0.96613052  0.50000000  1
  O  O10  1  0.00751143  0.37371947  0.00000000  1
  O  O11  1  0.03386948  0.53744940  0.50000000  1
loop_
_geom_bond_atom_site_label_1
_geom_bond_atom_site_label_2
_geom_bond_distance
_geom_bond_site_symmetry_2
Ba0 O1 2.631615 1_555
Ba0 O0 2.631615 1_555
Ba0 O2 2.631615 1_555
Ba0 O3 2.631615 1_555
Ba0 O5 2.824507 1_555
Ba0 O6 2.824507 1_555
Ba0 O9 2.852292 1_555
Ba0 O11 2.852292 1_555
Ba0 O11 2.963535 1_655
Ba0 O9 2.963535 1_545
O0 Zr3 2.068021 1_555
O0 Zr0 2.074393 1_545
O1 Zr0 2.068021 1_555
O1 Zr3 2.074393 1_655
O2 Zr1 2.068021 1_555
O2 Zr2 2.074393 1_655
O3 Zr2 2.068021 1_555
O3 Zr1 2.074393 1_545
O4 Sn0 2.064313 1_465
O4 Zr0 2.240850 1_555
O4 Zr3 2.240850 1_555
O5 Zr0 2.100682 1_545
O5 Zr3 2.100682 1_655
O6 Zr1 2.100682 1_545
O6 Zr2 2.100682 1_655
O7 Sn0 2.064313 1_466
O7 Zr1 2.240850 1_555
O7 Zr2 2.240850 1_555
O8 Sn0 2.024597 1_565
O8 Zr1 2.207077 1_554
O8 Zr0 2.207077 1_555
O9 Zr0 2.123338 1_555
O9 Zr1 2.123338 1_555
O10 Sn0 2.024597 1_455
O10 Zr2 2.207077 1_554
O10 Zr3 2.207077 1_555
O11 Zr3 2.123338 1_555
O11 Zr2 2.123338 1_555
