# generated using pymatgen
data_ZrUB24
_symmetry_space_group_name_H-M   'P 1'
_cell_length_a   9.07371505
_cell_length_b   9.07371505
_cell_length_c   9.07371475
_cell_angle_alpha   33.71669964
_cell_angle_beta   33.71669964
_cell_angle_gamma   33.71669901
_symmetry_Int_Tables_number   1
_chemical_formula_structural   ZrUB24
_chemical_formula_sum   'Zr1 U1 B24'
_cell_volume   205.08520982
_cell_formula_units_Z   1
loop_
 _symmetry_equiv_pos_site_id
 _symmetry_equiv_pos_as_xyz
  1  'x, y, z'
loop_
 _atom_site_type_symbol
 _atom_site_label
 _atom_site_symmetry_multiplicity
 _atom_site_fract_x
 _atom_site_fract_y
 _atom_site_fract_z
 _atom_site_occupancy
  Zr  Zr0  1  0.50000000  0.50000000  0.50000000  1
  U  U0  1  0.00000000  0.00000000  0.00000000  1
  B  B0  1  0.91200200  0.58885000  0.24921500  1
  B  B1  1  0.41115000  0.08799800  0.75078500  1
  B  B2  1  0.08001500  0.41962500  0.08001500  1
  B  B3  1  0.58008900  0.92033900  0.58008900  1
  B  B4  1  0.24921500  0.58885000  0.91200200  1
  B  B5  1  0.75078500  0.08799800  0.41115000  1
  B  B6  1  0.08001500  0.08001500  0.41962500  1
  B  B7  1  0.58008900  0.58008900  0.92033900  1
  B  B8  1  0.91200200  0.24921500  0.58885000  1
  B  B9  1  0.41115000  0.75078500  0.08799800  1
  B  B10  1  0.24921500  0.91200200  0.58885000  1
  B  B11  1  0.75078500  0.41115000  0.08799800  1
  B  B12  1  0.41991100  0.41991100  0.07966100  1
  B  B13  1  0.91998500  0.91998500  0.58037500  1
  B  B14  1  0.41991100  0.07966100  0.41991100  1
  B  B15  1  0.91998500  0.58037500  0.91998500  1
  B  B16  1  0.07966100  0.41991100  0.41991100  1
  B  B17  1  0.58037500  0.91998500  0.91998500  1
  B  B18  1  0.58885000  0.91200200  0.24921500  1
  B  B19  1  0.08799800  0.41115000  0.75078500  1
  B  B20  1  0.58885000  0.24921500  0.91200200  1
  B  B21  1  0.08799800  0.75078500  0.41115000  1
  B  B22  1  0.41962500  0.08001500  0.08001500  1
  B  B23  1  0.92033900  0.58008900  0.58008900  1
loop_
_geom_bond_atom_site_label_1
_geom_bond_atom_site_label_2
_geom_bond_distance
_geom_bond_site_symmetry_2
B0 B18 1.700708 1_555
B0 B4 1.774710 1_654
B0 B16 1.775853 1_655
B0 B2 1.781229 1_655
B0 B8 1.787456 1_555
B0 U0 2.754337 1_665
B0 Zr0 2.759281 1_555
B1 B19 1.700708 1_555
B1 B9 1.774710 1_546
B1 B3 1.775853 1_545
B1 B17 1.781229 1_545
B1 B5 1.787456 1_555
B1 U0 2.754337 1_556
B1 Zr0 2.759281 1_555
B2 B4 1.781229 1_554
B2 B22 1.787325 1_555
B2 B6 1.787325 1_555
B2 Zr0 2.761482 1_554
B2 Zr0 2.761482 1_455
B3 B5 1.775853 1_565
B3 B7 1.790693 1_555
B3 U0 2.762966 1_665
B3 U0 2.762966 1_566
B4 U0 2.754337 1_566
B4 Zr0 2.759281 1_555
B5 U0 2.754337 1_655
B5 Zr0 2.759281 1_555
B6 B8 1.781229 1_455
B6 Zr0 2.761482 1_545
B6 Zr0 2.761482 1_455
B7 B9 1.775853 1_556
B7 U0 2.762966 1_566
B7 U0 2.762966 1_656
B8 U0 2.754337 1_656
B8 Zr0 2.759281 1_555
B9 U0 2.754337 1_565
B9 Zr0 2.759281 1_555
B10 B4 1.700708 1_555
B10 B8 1.774710 1_465
B10 B14 1.775853 1_565
B10 B6 1.781229 1_565
B10 B18 1.787456 1_555
B10 U0 2.754337 1_566
B10 Zr0 2.759281 1_555
B11 B5 1.700708 1_555
B11 B19 1.774710 1_654
B11 B7 1.775853 1_554
B11 B15 1.781229 1_554
B11 B9 1.787456 1_555
B11 U0 2.754337 1_655
B11 Zr0 2.759281 1_555
B12 B7 1.684662 1_554
B12 B4 1.775853 1_554
B12 B20 1.775853 1_554
B12 B16 1.790693 1_555
B12 B14 1.790693 1_555
B12 U0 2.762966 1_565
B12 U0 2.762966 1_655
B13 B6 1.674897 1_665
B13 B5 1.781229 1_565
B13 B21 1.781229 1_655
B13 B15 1.787325 1_555
B13 B17 1.787325 1_555
B13 Zr0 2.761482 1_655
B13 Zr0 2.761482 1_565
B14 B3 1.684662 1_545
B14 B18 1.775853 1_545
B14 B16 1.790693 1_555
B14 U0 2.762966 1_556
B14 U0 2.762966 1_655
B15 B2 1.674897 1_656
B15 B19 1.781229 1_655
B15 B17 1.787325 1_555
B15 Zr0 2.761482 1_556
B15 Zr0 2.761482 1_655
B16 B23 1.684662 1_455
B16 B8 1.775853 1_455
B16 U0 2.762966 1_556
B16 U0 2.762966 1_565
B17 B22 1.674897 1_566
B17 B9 1.781229 1_556
B17 Zr0 2.761482 1_556
B17 Zr0 2.761482 1_565
B18 B20 1.774710 1_564
B18 B22 1.781229 1_565
B18 U0 2.754337 1_665
B18 Zr0 2.759281 1_555
B19 B23 1.775853 1_455
B19 B21 1.787456 1_555
B19 U0 2.754337 1_556
B19 Zr0 2.759281 1_555
B20 B8 1.700708 1_555
B20 B22 1.781229 1_556
B20 B4 1.787456 1_555
B20 U0 2.754337 1_656
B20 Zr0 2.759281 1_555
B21 B9 1.700708 1_555
B21 B5 1.774710 1_465
B21 B23 1.775853 1_455
B21 U0 2.754337 1_565
B21 Zr0 2.759281 1_555
B22 B6 1.787325 1_555
B22 Zr0 2.761482 1_554
B22 Zr0 2.761482 1_545
B23 B3 1.790693 1_555
B23 B7 1.790693 1_555
B23 U0 2.762966 1_665
B23 U0 2.762966 1_656
