# generated using pymatgen
data_Li5V3Bi2(PO4)6
_symmetry_space_group_name_H-M   'P 1'
_cell_length_a   8.92028143
_cell_length_b   8.92104166
_cell_length_c   8.99176145
_cell_angle_alpha   59.84345266
_cell_angle_beta   60.86226668
_cell_angle_gamma   61.00234985
_symmetry_Int_Tables_number   1
_chemical_formula_structural   Li5V3Bi2(PO4)6
_chemical_formula_sum   'Li5 V3 Bi2 P6 O24'
_cell_volume   512.35457151
_cell_formula_units_Z   1
loop_
 _symmetry_equiv_pos_site_id
 _symmetry_equiv_pos_as_xyz
  1  'x, y, z'
loop_
 _atom_site_type_symbol
 _atom_site_label
 _atom_site_symmetry_multiplicity
 _atom_site_fract_x
 _atom_site_fract_y
 _atom_site_fract_z
 _atom_site_occupancy
  Li  Li0  1  0.45547700  0.19124700  0.18663300  1
  Li  Li1  1  0.28252000  0.85548900  0.64008300  1
  Li  Li2  1  0.69561500  0.15011700  0.32033700  1
  Li  Li3  1  0.68277700  0.84717200  0.15275000  1
  Li  Li4  1  0.68639700  0.31187300  0.84461100  1
  V  V0  1  0.05555200  0.64639500  0.65132000  1
  V  V1  1  0.45215800  0.84449600  0.85047300  1
  V  V2  1  0.94772400  0.34851800  0.34701300  1
  Bi  Bi0  1  0.01811400  0.99351200  0.00655300  1
  Bi  Bi1  1  0.49863200  0.48324500  0.49838200  1
  P  P0  1  0.25516400  0.25277200  0.54568300  1
  P  P1  1  0.25670600  0.94609600  0.25160900  1
  P  P2  1  0.25612700  0.54359300  0.94556800  1
  P  P3  1  0.75755800  0.45635200  0.03965800  1
  P  P4  1  0.77414300  0.03206900  0.74471300  1
  P  P5  1  0.74247400  0.74501800  0.46338400  1
  O  O0  1  0.08333900  0.09707700  0.29783500  1
  O  O1  1  0.08874000  0.50400500  0.09694700  1
  O  O2  1  0.09676800  0.30696600  0.49091700  1
  O  O3  1  0.24727600  0.07544500  0.72376800  1
  O  O4  1  0.24210400  0.40507700  0.59762900  1
  O  O5  1  0.44139300  0.21463500  0.40141800  1
  O  O6  1  0.26247800  0.91943900  0.08886600  1
  O  O7  1  0.25409100  0.75468400  0.41775400  1
  O  O8  1  0.25932200  0.58423800  0.74826100  1
  O  O9  1  0.58112200  0.60624700  0.02229500  1
  O  O10  1  0.77477100  0.27646400  0.02915000  1
  O  O11  1  0.60948600  0.99635000  0.77793200  1
  O  O12  1  0.43055300  0.97223000  0.21481200  1
  O  O13  1  0.24531000  0.73887100  0.91790900  1
  O  O14  1  0.43564100  0.39743200  0.96459500  1
  O  O15  1  0.75063000  0.39058000  0.24308100  1
  O  O16  1  0.75526300  0.23929000  0.61319100  1
  O  O17  1  0.77801200  0.02821200  0.92088300  1
  O  O18  1  0.55434400  0.78792200  0.60516900  1
  O  O19  1  0.74521000  0.61048000  0.39498900  1
  O  O20  1  0.76732800  0.91869500  0.28642400  1
  O  O21  1  0.89744600  0.67201200  0.53549200  1
  O  O22  1  0.92658500  0.51028800  0.89784500  1
  O  O23  1  0.95565100  0.89639800  0.67307000  1
loop_
_geom_bond_atom_site_label_1
_geom_bond_atom_site_label_2
_geom_bond_distance
_geom_bond_site_symmetry_2
Li0 O14 1.933767 1_554
Li0 O12 1.949386 1_545
Li0 O5 1.983024 1_555
Li1 O13 2.085500 1_555
Li1 O18 2.091187 1_555
Li1 O8 2.183841 1_555
Li1 O3 2.273864 1_565
Li2 O5 1.884544 1_555
Li2 O20 1.981559 1_545
Li2 O15 2.125245 1_555
Li2 O10 2.151877 1_555
Li3 O12 1.894031 1_555
Li3 O17 1.974639 1_564
Li3 O20 2.130876 1_555
Li3 O19 2.221095 1_555
Li4 O14 1.889943 1_555
Li4 O10 1.995089 1_556
Li4 O17 2.083010 1_555
Li4 O16 2.202264 1_555
Bi0 O6 2.327903 1_555
Bi0 O13 2.384440 1_554
Bi0 O3 2.387052 1_564
Bi0 O10 2.428631 1_465
Bi0 O17 2.449633 1_464
Bi0 O20 2.461852 1_455
Bi1 O4 2.335003 1_555
Bi1 O7 2.408852 1_555
Bi1 O8 2.432166 1_555
Bi1 O15 2.466987 1_555
Bi1 O16 2.501266 1_555
Bi1 O19 2.521845 1_555
O0 P1 1.515097 1_545
O0 V2 2.129619 1_455
O1 P2 1.502010 1_554
O1 V2 2.089474 1_455
O2 P0 1.499565 1_555
O2 V2 2.072407 1_455
O3 P0 1.588932 1_555
O3 V1 2.213939 1_545
O4 P0 1.583995 1_555
O4 V0 2.103657 1_555
O5 P0 1.534616 1_555
O6 P1 1.570027 1_555
O6 V1 2.171614 1_554
O7 P1 1.609301 1_555
O7 V0 2.116304 1_555
O8 P2 1.610681 1_555
O8 V0 2.109824 1_555
O9 P3 1.509498 1_555
O9 V1 2.070927 1_554
O10 P3 1.583403 1_555
O11 P4 1.509637 1_565
O11 V1 2.072262 1_555
O12 P1 1.530381 1_555
O13 P2 1.590943 1_555
O13 V1 2.163843 1_555
O14 P2 1.520503 1_555
O15 P3 1.593917 1_555
O15 V2 2.171002 1_555
O16 P4 1.593710 1_555
O16 V2 2.214185 1_555
O17 P4 1.583984 1_555
O18 P5 1.540178 1_555
O18 V1 2.159929 1_555
O19 P5 1.586800 1_555
O19 V2 2.252065 1_555
O20 P5 1.579270 1_555
O21 P5 1.526838 1_555
O21 V0 2.001205 1_655
O22 P3 1.531511 1_556
O22 V0 1.969314 1_655
O23 P4 1.539177 1_565
O23 V0 2.036690 1_655
