# generated using pymatgen
data_K(Nb3S4)2
_symmetry_space_group_name_H-M   'P 1'
_cell_length_a   9.73396337
_cell_length_b   9.73396337
_cell_length_c   3.41280536
_cell_angle_alpha   90.00000000
_cell_angle_beta   90.00000000
_cell_angle_gamma   119.99999622
_symmetry_Int_Tables_number   1
_chemical_formula_structural   K(Nb3S4)2
_chemical_formula_sum   'K1 Nb6 S8'
_cell_volume   280.04097688
_cell_formula_units_Z   1
loop_
 _symmetry_equiv_pos_site_id
 _symmetry_equiv_pos_as_xyz
  1  'x, y, z'
loop_
 _atom_site_type_symbol
 _atom_site_label
 _atom_site_symmetry_multiplicity
 _atom_site_fract_x
 _atom_site_fract_y
 _atom_site_fract_z
 _atom_site_occupancy
  K  K0  1  0.00000000  0.00000000  0.50000000  1
  Nb  Nb0  1  0.62301162  0.51357829  0.25068904  1
  Nb  Nb1  1  0.89056667  0.37698838  0.25068904  1
  Nb  Nb2  1  0.48642171  0.10943333  0.25068904  1
  Nb  Nb3  1  0.37698838  0.48642171  0.74931096  1
  Nb  Nb4  1  0.10943333  0.62301162  0.74931096  1
  Nb  Nb5  1  0.51357829  0.89056667  0.74931096  1
  S  S0  1  0.33333300  0.66666700  0.24935015  1
  S  S1  1  0.66666700  0.33333300  0.75064985  1
  S  S2  1  0.94203074  0.65465615  0.24817127  1
  S  S3  1  0.71262441  0.05796926  0.24817127  1
  S  S4  1  0.34534385  0.28737559  0.24817127  1
  S  S5  1  0.05796926  0.34534385  0.75182873  1
  S  S6  1  0.28737559  0.94203074  0.75182873  1
  S  S7  1  0.65465615  0.71262441  0.75182873  1
loop_
_geom_bond_atom_site_label_1
_geom_bond_atom_site_label_2
_geom_bond_distance
_geom_bond_site_symmetry_2
K0 S5 3.234243 1_555
K0 S2 3.234243 1_445
K0 S4 3.234246 1_555
K0 S7 3.234246 1_445
K0 S6 3.234252 1_545
K0 S3 3.234252 1_455
Nb0 S7 2.480033 1_554
Nb0 S7 2.485380 1_555
Nb0 S4 2.490423 1_555
Nb0 S1 2.629783 1_555
Nb0 S1 2.629957 1_554
Nb0 S2 2.695278 1_555
Nb1 S5 2.480040 1_654
Nb1 S5 2.485387 1_655
Nb1 S2 2.490427 1_555
Nb1 S1 2.629776 1_555
Nb1 S1 2.629949 1_554
Nb1 S3 2.695279 1_555
Nb2 S6 2.480036 1_544
Nb2 S6 2.485382 1_545
Nb2 S3 2.490417 1_555
Nb2 S1 2.629778 1_555
Nb2 S1 2.629952 1_554
Nb2 S4 2.695287 1_555
Nb3 S4 2.480033 1_556
Nb3 S4 2.485380 1_555
Nb3 S7 2.490423 1_555
Nb3 S0 2.629783 1_555
Nb3 S0 2.629957 1_556
Nb3 S5 2.695278 1_555
Nb4 S2 2.480040 1_456
Nb4 S2 2.485387 1_455
Nb4 S5 2.490427 1_555
Nb4 S0 2.629776 1_555
Nb4 S0 2.629949 1_556
Nb4 S6 2.695279 1_555
Nb5 S3 2.480036 1_566
Nb5 S3 2.485382 1_565
Nb5 S6 2.490417 1_555
Nb5 S0 2.629778 1_555
Nb5 S0 2.629952 1_556
Nb5 S7 2.695287 1_555
