# generated using pymatgen
data_Nb5Ge3
_symmetry_space_group_name_H-M   'P 1'
_cell_length_a   5.16215466
_cell_length_b   7.66900914
_cell_length_c   7.66900839
_cell_angle_alpha   83.49875637
_cell_angle_beta   70.33948823
_cell_angle_gamma   70.33950558
_symmetry_Int_Tables_number   1
_chemical_formula_structural   Nb5Ge3
_chemical_formula_sum   'Nb10 Ge6'
_cell_volume   269.23846726
_cell_formula_units_Z   2
loop_
 _symmetry_equiv_pos_site_id
 _symmetry_equiv_pos_as_xyz
  1  'x, y, z'
loop_
 _atom_site_type_symbol
 _atom_site_label
 _atom_site_symmetry_multiplicity
 _atom_site_fract_x
 _atom_site_fract_y
 _atom_site_fract_z
 _atom_site_occupancy
  Nb  Nb0  1  0.27774840  0.14632126  0.29821605  1
  Nb  Nb1  1  0.72225160  0.85367874  0.70178395  1
  Nb  Nb2  1  0.42375499  0.29821004  0.85379205  1
  Nb  Nb3  1  0.57624501  0.70178996  0.14620795  1
  Nb  Nb4  1  0.92375499  0.85379205  0.29821004  1
  Nb  Nb5  1  0.22225160  0.70178395  0.85367874  1
  Nb  Nb6  1  0.77774840  0.29821605  0.14632126  1
  Nb  Nb7  1  0.07624501  0.14620795  0.70178996  1
  Nb  Nb8  1  0.75000000  0.49996046  0.50003954  1
  Nb  Nb9  1  0.25000000  0.50003954  0.49996046  1
  Ge  Ge0  1  0.83479632  0.49994627  0.83063701  1
  Ge  Ge1  1  0.66520368  0.16936299  0.50005373  1
  Ge  Ge2  1  0.33479632  0.83063701  0.49994627  1
  Ge  Ge3  1  0.16520368  0.50005373  0.16936299  1
  Ge  Ge4  1  0.75000000  0.00000372  -0.00000372  1
  Ge  Ge5  1  0.25000000  -0.00000372  0.00000372  1
loop_
_geom_bond_atom_site_label_1
_geom_bond_atom_site_label_2
_geom_bond_distance
_geom_bond_site_symmetry_2
Nb8 Nb9 2.581077 1_655
Nb8 Nb9 2.581077 1_555
Ge0 Nb3 2.705380 1_556
Ge0 Nb6 2.705549 1_556
Ge0 Nb8 2.714096 1_555
Ge0 Nb9 2.714440 1_655
Ge0 Nb1 2.718812 1_555
Ge0 Nb7 2.718893 1_655
Ge0 Nb2 2.967237 1_655
Ge0 Nb5 2.968269 1_655
Ge0 Nb5 2.969552 1_555
Ge0 Nb2 2.969947 1_555
Ge1 Nb4 2.705381 1_545
Ge1 Nb1 2.705549 1_545
Ge1 Nb8 2.714096 1_555
Ge1 Nb9 2.714440 1_555
Ge1 Nb6 2.718811 1_555
Ge1 Nb2 2.718893 1_555
Ge1 Nb7 2.967237 1_555
Ge1 Nb0 2.968270 1_555
Ge1 Nb0 2.969552 1_655
Ge1 Nb7 2.969947 1_655
Ge2 Nb7 2.705381 1_565
Ge2 Nb0 2.705549 1_565
Ge2 Nb9 2.714096 1_555
Ge2 Nb8 2.714440 1_555
Ge2 Nb5 2.718811 1_555
Ge2 Nb3 2.718893 1_555
Ge2 Nb4 2.967237 1_555
Ge2 Nb1 2.968270 1_555
Ge2 Nb1 2.969552 1_455
Ge2 Nb4 2.969947 1_455
Ge3 Nb2 2.705380 1_554
Ge3 Nb5 2.705549 1_554
Ge3 Nb9 2.714096 1_555
Ge3 Nb8 2.714440 1_455
Ge3 Nb0 2.718812 1_555
Ge3 Nb4 2.718893 1_455
Ge3 Nb3 2.967237 1_455
Ge3 Nb6 2.968269 1_455
Ge3 Nb6 2.969552 1_555
Ge3 Nb3 2.969947 1_555
Ge4 Ge5 2.581077 1_555
Ge4 Ge5 2.581077 1_655
Ge4 Nb3 2.723062 1_545
Ge4 Nb4 2.723063 1_545
Ge4 Nb1 2.723943 1_544
Ge4 Nb6 2.723944 1_555
Ge4 Nb0 2.724247 1_555
Ge4 Nb5 2.724248 1_644
Ge4 Nb7 2.724317 1_654
Ge4 Nb2 2.724318 1_554
Ge5 Nb2 2.723062 1_554
Ge5 Nb7 2.723063 1_554
Ge5 Nb0 2.723943 1_555
Ge5 Nb5 2.723944 1_544
Ge5 Nb1 2.724247 1_544
Ge5 Nb6 2.724248 1_455
Ge5 Nb4 2.724317 1_445
Ge5 Nb3 2.724318 1_545
