# generated using pymatgen
data_PtN2(ClO)2
_symmetry_space_group_name_H-M   'P 1'
_cell_length_a   5.93582700
_cell_length_b   5.93582700
_cell_length_c   14.61917600
_cell_angle_alpha   90.00000000
_cell_angle_beta   90.00000000
_cell_angle_gamma   90.00000000
_symmetry_Int_Tables_number   1
_chemical_formula_structural   PtN2(ClO)2
_chemical_formula_sum   'Pt4 N8 Cl8 O8'
_cell_volume   515.09266373
_cell_formula_units_Z   4
loop_
 _symmetry_equiv_pos_site_id
 _symmetry_equiv_pos_as_xyz
  1  'x, y, z'
loop_
 _atom_site_type_symbol
 _atom_site_label
 _atom_site_symmetry_multiplicity
 _atom_site_fract_x
 _atom_site_fract_y
 _atom_site_fract_z
 _atom_site_occupancy
  Pt  Pt0  1  0.00000000  0.50000000  0.20727800  1
  Pt  Pt1  1  0.00000000  0.50000000  0.70727800  1
  Pt  Pt2  1  0.50000000  0.00000000  0.29272200  1
  Pt  Pt3  1  0.50000000  0.00000000  0.79272200  1
  N  N0  1  0.31751300  0.50000000  0.30353900  1
  N  N1  1  0.68248700  0.50000000  0.30353900  1
  N  N2  1  0.00000000  0.18248700  0.80353900  1
  N  N3  1  0.00000000  0.81751300  0.80353900  1
  N  N4  1  0.18248700  0.00000000  0.19646100  1
  N  N5  1  0.81751300  0.00000000  0.19646100  1
  N  N6  1  0.50000000  0.31751300  0.69646100  1
  N  N7  1  0.50000000  0.68248700  0.69646100  1
  Cl  Cl0  1  0.25451600  0.50000000  0.08934600  1
  Cl  Cl1  1  0.74548400  0.50000000  0.08934600  1
  Cl  Cl2  1  0.00000000  0.24548400  0.58934600  1
  Cl  Cl3  1  0.00000000  0.75451600  0.58934600  1
  Cl  Cl4  1  0.24548400  0.00000000  0.41065400  1
  Cl  Cl5  1  0.75451600  0.00000000  0.41065400  1
  Cl  Cl6  1  0.50000000  0.25451600  0.91065400  1
  Cl  Cl7  1  0.50000000  0.74548400  0.91065400  1
  O  O0  1  0.00000000  0.16503900  0.23118100  1
  O  O1  1  0.00000000  0.83496100  0.23118100  1
  O  O2  1  0.66503900  0.50000000  0.73118100  1
  O  O3  1  0.33496100  0.50000000  0.73118100  1
  O  O4  1  0.50000000  0.33496100  0.26881900  1
  O  O5  1  0.50000000  0.66503900  0.26881900  1
  O  O6  1  0.83496100  0.00000000  0.76881900  1
  O  O7  1  0.16503900  0.00000000  0.76881900  1
loop_
_geom_bond_atom_site_label_1
_geom_bond_atom_site_label_2
_geom_bond_distance
_geom_bond_site_symmetry_2
N0 O5 1.546183 1_555
N0 O4 1.546183 1_555
N0 Pt0 2.352121 1_555
N1 O5 1.546183 1_555
N1 O4 1.546183 1_555
N1 Pt0 2.352121 1_655
N2 O7 1.546183 1_555
N2 O6 1.546183 1_455
N2 Pt1 2.352121 1_555
N3 O7 1.546183 1_565
N3 O6 1.546183 1_465
N3 Pt1 2.352121 1_555
N4 O0 1.546183 1_555
N4 O1 1.546183 1_545
N4 Pt2 2.352121 1_555
N5 O0 1.546183 1_655
N5 O1 1.546183 1_645
N5 Pt2 2.352121 1_555
N6 O2 1.546183 1_555
N6 O3 1.546183 1_555
N6 Pt3 2.352121 1_555
N7 O2 1.546183 1_555
N7 O3 1.546183 1_555
N7 Pt3 2.352121 1_565
Cl0 Pt0 2.292339 1_555
Cl1 Pt0 2.292339 1_655
Cl2 Pt1 2.292339 1_555
Cl3 Pt1 2.292339 1_555
Cl4 Pt2 2.292339 1_555
Cl5 Pt2 2.292339 1_555
Cl6 Pt3 2.292339 1_555
Cl7 Pt3 2.292339 1_565
O0 Pt0 2.018745 1_555
O1 Pt0 2.018745 1_555
O2 Pt1 2.018745 1_655
O3 Pt1 2.018745 1_555
O4 Pt2 2.018745 1_555
O5 Pt2 2.018745 1_565
O6 Pt3 2.018745 1_555
O7 Pt3 2.018745 1_555
