# generated using pymatgen
data_V2Cu3Sb4
_symmetry_space_group_name_H-M   'P 1'
_cell_length_a   5.32029400
_cell_length_b   8.56675439
_cell_length_c   8.56675439
_cell_angle_alpha   120.00289130
_cell_angle_beta   90.00000000
_cell_angle_gamma   90.00000000
_symmetry_Int_Tables_number   1
_chemical_formula_structural   V2Cu3Sb4
_chemical_formula_sum   'V4 Cu6 Sb8'
_cell_volume   338.13197511
_cell_formula_units_Z   2
loop_
 _symmetry_equiv_pos_site_id
 _symmetry_equiv_pos_as_xyz
  1  'x, y, z'
loop_
 _atom_site_type_symbol
 _atom_site_label
 _atom_site_symmetry_multiplicity
 _atom_site_fract_x
 _atom_site_fract_y
 _atom_site_fract_z
 _atom_site_occupancy
  V  V0  1  0.75000000  0.66661700  0.33338300  1
  V  V1  1  0.25000000  0.33338300  0.66661700  1
  V  V2  1  0.50000000  0.00000000  0.00000000  1
  V  V3  1  0.00000000  0.00000000  0.00000000  1
  Cu  Cu0  1  0.50000000  0.50000000  0.00000000  1
  Cu  Cu1  1  0.50000000  0.50000000  0.50000000  1
  Cu  Cu2  1  0.50000000  0.00000000  0.50000000  1
  Cu  Cu3  1  0.00000000  0.50000000  0.00000000  1
  Cu  Cu4  1  0.00000000  0.50000000  0.50000000  1
  Cu  Cu5  1  0.00000000  0.00000000  0.50000000  1
  Sb  Sb0  1  0.75000000  0.84436500  0.68874900  1
  Sb  Sb1  1  0.75000000  0.84440400  0.15559600  1
  Sb  Sb2  1  0.75000000  0.31125100  0.15563500  1
  Sb  Sb3  1  0.25000000  0.15563500  0.31125100  1
  Sb  Sb4  1  0.25000000  0.15559600  0.84440400  1
  Sb  Sb5  1  0.25000000  0.68874900  0.84436500  1
  Sb  Sb6  1  0.25000000  0.66670100  0.33329900  1
  Sb  Sb7  1  0.75000000  0.33329900  0.66670100  1
loop_
_geom_bond_atom_site_label_1
_geom_bond_atom_site_label_2
_geom_bond_distance
_geom_bond_site_symmetry_2
V2 V3 2.660147 1_555
V2 V3 2.660147 1_655
Cu0 Cu3 2.660147 1_555
Cu0 Cu3 2.660147 1_655
Cu0 Sb7 2.807713 1_554
Cu0 Sb6 2.807713 1_555
Cu0 V0 2.808262 1_555
Cu0 V1 2.808262 1_554
Cu0 Sb5 2.883990 1_554
Cu0 Sb2 2.883990 1_555
Cu0 Sb4 2.884050 1_554
Cu0 Sb1 2.884050 1_555
Cu1 Cu4 2.660147 1_655
Cu1 Cu4 2.660147 1_555
Cu1 V0 2.807384 1_555
Cu1 V1 2.807384 1_555
Cu1 Sb6 2.808481 1_555
Cu1 Sb7 2.808481 1_555
Cu1 Sb5 2.883764 1_555
Cu1 Sb3 2.883764 1_555
Cu1 Sb0 2.883764 1_555
Cu1 Sb2 2.883764 1_555
Cu2 Cu5 2.660147 1_655
Cu2 Cu5 2.660147 1_555
Cu2 Sb7 2.807713 1_555
Cu2 Sb6 2.807713 1_545
Cu2 V0 2.808262 1_545
Cu2 V1 2.808262 1_555
Cu2 Sb0 2.883990 1_545
Cu2 Sb3 2.883990 1_555
Cu2 Sb1 2.884050 1_545
Cu2 Sb4 2.884050 1_555
Cu3 Sb6 2.807713 1_555
Cu3 Sb7 2.807713 1_454
Cu3 V1 2.808262 1_554
Cu3 V0 2.808262 1_455
Cu3 Sb5 2.883990 1_554
Cu3 Sb2 2.883990 1_455
Cu3 Sb1 2.884050 1_455
Cu3 Sb4 2.884050 1_554
Cu4 V0 2.807384 1_455
Cu4 V1 2.807384 1_555
Cu4 Sb6 2.808481 1_555
Cu4 Sb7 2.808481 1_455
Cu4 Sb5 2.883764 1_555
Cu4 Sb0 2.883764 1_455
Cu4 Sb3 2.883764 1_555
Cu4 Sb2 2.883764 1_455
Cu5 Sb6 2.807713 1_545
Cu5 Sb7 2.807713 1_455
Cu5 V0 2.808262 1_445
Cu5 V1 2.808262 1_555
Cu5 Sb0 2.883990 1_445
Cu5 Sb3 2.883990 1_555
Cu5 Sb1 2.884050 1_445
Cu5 Sb4 2.884050 1_555
Sb0 V0 2.636393 1_555
Sb0 V2 2.664788 1_566
Sb0 V3 2.664788 1_666
Sb1 V0 2.638052 1_555
Sb1 V3 2.664496 1_665
Sb1 V2 2.664496 1_565
Sb2 V0 2.636393 1_555
Sb2 V2 2.664788 1_555
Sb2 V3 2.664788 1_655
Sb3 V1 2.636393 1_555
Sb3 V3 2.664788 1_555
Sb3 V2 2.664788 1_555
Sb4 V1 2.638052 1_555
Sb4 V2 2.664496 1_556
Sb4 V3 2.664496 1_556
Sb5 V1 2.636393 1_555
Sb5 V2 2.664788 1_566
Sb5 V3 2.664788 1_566
Sb6 V0 2.660147 1_555
Sb6 V0 2.660147 1_455
Sb7 V1 2.660147 1_655
Sb7 V1 2.660147 1_555
