# generated using pymatgen
data_Ba2MgNb6(NO7)2
_symmetry_space_group_name_H-M   'P 1'
_cell_length_a   9.08043910
_cell_length_b   10.59379939
_cell_length_c   4.01704201
_cell_angle_alpha   79.06312291
_cell_angle_beta   89.99949951
_cell_angle_gamma   91.22488637
_symmetry_Int_Tables_number   1
_chemical_formula_structural   Ba2MgNb6(NO7)2
_chemical_formula_sum   'Ba2 Mg1 Nb6 N2 O14'
_cell_volume   379.31612160
_cell_formula_units_Z   1
loop_
 _symmetry_equiv_pos_site_id
 _symmetry_equiv_pos_as_xyz
  1  'x, y, z'
loop_
 _atom_site_type_symbol
 _atom_site_label
 _atom_site_symmetry_multiplicity
 _atom_site_fract_x
 _atom_site_fract_y
 _atom_site_fract_z
 _atom_site_occupancy
  Ba  Ba0  1  0.24140800  0.96951700  0.01239600  1
  Ba  Ba1  1  0.75869200  0.03820800  0.97900800  1
  Mg  Mg0  1  0.43044600  0.55898400  0.21846200  1
  Nb  Nb0  1  0.05681900  0.26606800  0.36493900  1
  Nb  Nb1  1  0.21658700  0.45221400  0.77181400  1
  Nb  Nb2  1  0.44858700  0.26022100  0.36785500  1
  Nb  Nb3  1  0.56446700  0.74565300  0.62490200  1
  Nb  Nb4  1  0.76944300  0.52595200  0.23469000  1
  Nb  Nb5  1  0.93124600  0.72791200  0.63374400  1
  N  N0  1  0.74631100  0.58739100  0.70393300  1
  N  N1  1  0.91547600  0.40594600  0.29480800  1
  O  O0  1  0.07256000  0.86191800  0.56614200  1
  O  O1  1  0.09329500  0.26941300  0.86321700  1
  O  O2  1  0.08426200  0.58177900  0.70687700  1
  O  O3  1  0.25777600  0.42906100  0.28336600  1
  O  O4  1  0.26207000  0.15885500  0.41837100  1
  O  O5  1  0.39893000  0.58712500  0.70435800  1
  O  O6  1  0.41111200  0.29482000  0.85045800  1
  O  O7  1  0.42814200  0.87483100  0.55966700  1
  O  O8  1  0.58386100  0.13480100  0.43067800  1
  O  O9  1  0.56601900  0.71428700  0.14055700  1
  O  O10  1  0.57904000  0.42229600  0.28663400  1
  O  O11  1  0.74653100  0.85250800  0.57160700  1
  O  O12  1  0.90340900  0.70772300  0.14378200  1
  O  O13  1  0.92963300  0.12428800  0.43610000  1
loop_
_geom_bond_atom_site_label_1
_geom_bond_atom_site_label_2
_geom_bond_distance
_geom_bond_site_symmetry_2
Ba0 O0 2.749765 1_555
Ba0 O0 2.750321 1_554
Ba0 O4 2.814293 1_564
Ba0 O4 2.818367 1_565
Ba0 O7 2.819636 1_555
Ba0 O7 2.820218 1_554
Ba1 O13 2.679925 1_555
Ba1 O13 2.680923 1_556
Ba1 O8 2.762839 1_556
Ba1 O8 2.762857 1_555
Ba1 O11 2.786178 1_546
Ba1 O11 2.788011 1_545
Mg0 O10 1.981289 1_555
Mg0 O9 2.009558 1_555
Mg0 O3 2.047517 1_555
Mg0 O5 2.050607 1_555
Mg0 O5 2.050797 1_554
Nb0 O13 1.853214 1_455
Nb0 O1 2.035633 1_555
Nb0 O1 2.036011 1_554
Nb0 O4 2.192655 1_555
Nb0 O3 2.463598 1_555
Nb1 O2 1.824955 1_555
Nb1 O3 2.058020 1_556
Nb1 O3 2.058270 1_555
Nb1 O5 2.146971 1_555
Nb1 O1 2.185393 1_555
Nb1 O6 2.434368 1_555
Nb2 O8 1.811201 1_555
Nb2 O4 1.975438 1_555
Nb2 O10 2.039162 1_555
Nb2 O6 2.069640 1_555
Nb2 O6 2.070311 1_554
Nb2 O3 2.493733 1_555
Nb3 O7 1.846660 1_555
Nb3 O11 1.971908 1_555
Nb3 O9 2.034789 1_556
Nb3 O9 2.035098 1_555
Nb3 O5 2.206904 1_555
Nb4 O10 2.017550 1_555
Nb4 O12 2.225820 1_555
Nb5 O0 1.873903 1_655
Nb5 O12 2.034404 1_556
Nb5 O12 2.034913 1_555
Nb5 O2 2.081563 1_655
Nb5 O11 2.141848 1_555
N0 Nb4 2.119492 1_555
N0 Nb4 2.119616 1_556
N0 Nb5 2.202145 1_555
N0 Nb3 2.356840 1_555
N1 Nb4 1.840800 1_555
N1 Nb0 1.960965 1_655
