# generated using pymatgen
data_Li5V3P8O29
_symmetry_space_group_name_H-M   'P 1'
_cell_length_a   9.78241260
_cell_length_b   9.80694168
_cell_length_c   14.07094492
_cell_angle_alpha   90.16446173
_cell_angle_beta   90.19043428
_cell_angle_gamma   59.81253199
_symmetry_Int_Tables_number   1
_chemical_formula_structural   Li5V3P8O29
_chemical_formula_sum   'Li10 V6 P16 O58'
_cell_volume   1166.82879663
_cell_formula_units_Z   2
loop_
 _symmetry_equiv_pos_site_id
 _symmetry_equiv_pos_as_xyz
  1  'x, y, z'
loop_
 _atom_site_type_symbol
 _atom_site_label
 _atom_site_symmetry_multiplicity
 _atom_site_fract_x
 _atom_site_fract_y
 _atom_site_fract_z
 _atom_site_occupancy
  Li  Li0  1  0.77132647  0.90582671  0.55838248  1
  Li  Li1  1  0.90952927  0.32039737  0.55700714  1
  Li  Li2  1  0.76286328  0.33226253  0.06125466  1
  Li  Li3  1  0.32952098  0.90155764  0.06159689  1
  Li  Li4  1  0.68020599  0.22631511  0.43890313  1
  Li  Li5  1  0.30882471  0.77510032  0.55872213  1
  Li  Li6  1  0.23405830  0.66384009  0.94284205  1
  Li  Li7  1  0.23184356  0.09124469  0.43796672  1
  Li  Li8  1  0.09629157  0.23350770  0.94402558  1
  Li  Li9  1  0.95259247  0.98122166  0.99593717  1
  V  V0  1  0.56698549  0.43341312  0.25221853  1
  V  V1  1  0.43221329  0.56717854  0.74989996  1
  V  V2  1  0.56867824  0.00227525  0.75373982  1
  V  V3  1  0.43691464  0.99889817  0.24612129  1
  V  V4  1  0.99758709  0.57397039  0.24907334  1
  V  V5  1  0.00249581  0.43701740  0.75145683  1
  P  P0  1  0.91683911  0.77647645  0.84112574  1
  P  P1  1  0.76935558  0.91234703  0.34146407  1
  P  P2  1  0.91441763  0.31937110  0.34185455  1
  P  P3  1  0.67053361  0.66045585  0.12777308  1
  P  P4  1  0.66710567  0.66798562  0.63140470  1
  P  P5  1  0.77508645  0.31552244  0.84345595  1
  P  P6  1  0.68301497  0.23042154  0.66053618  1
  P  P7  1  0.31558832  0.91307585  0.84146168  1
  P  P8  1  0.69064720  0.08577808  0.15825850  1
  P  P9  1  0.31952898  0.77211831  0.34189285  1
  P  P10  1  0.22637319  0.68626200  0.16013236  1
  P  P11  1  0.33023359  0.33290529  0.36906002  1
  P  P12  1  0.33218532  0.33415176  0.87129652  1
  P  P13  1  0.08512489  0.68556214  0.65564446  1
  P  P14  1  0.23087445  0.08926898  0.65918942  1
  P  P15  1  0.08609782  0.23084748  0.15845082  1
  O  O0  1  0.99166141  0.76491726  0.56990104  1
  O  O1  1  0.91737563  0.74545694  0.33530689  1
  O  O2  1  0.79122603  0.00299795  0.07546856  1
  O  O3  1  0.74555787  0.91425521  0.83618427  1
  O  O4  1  0.91881099  0.61736454  0.82928822  1
  O  O5  1  0.81393200  0.66768819  0.17657820  1
  O  O6  1  0.90479422  0.47831320  0.32362422  1
  O  O7  1  0.99813432  0.23035904  0.07022258  1
  O  O8  1  0.92194672  0.33971293  0.83653653  1
  O  O9  1  0.67237037  0.81551648  0.66835686  1
  O  O10  1  0.62157626  0.89870245  0.32212743  1
  O  O11  1  0.81631773  0.51700275  0.67816723  1
  O  O12  1  0.67948074  0.65375181  0.02209690  1
  O  O13  1  0.67936528  0.65214761  0.52587086  1
  O  O14  1  0.68059042  0.50709493  0.16886048  1
  O  O15  1  0.47418543  0.90389522  0.82776978  1
  O  O16  1  0.51401348  0.80834365  0.16465797  1
  O  O17  1  0.74924509  0.33466464  0.34298886  1
  O  O18  1  0.79482825  0.20846117  0.75056691  1
  O  O19  1  0.75752357  0.24522871  0.57073305  1
  O  O20  1  0.79171550  0.22579259  0.93275881  1
  O  O21  1  0.62097287  0.47152480  0.83050980  1
  O  O22  1  0.51365745  0.67261254  0.66970323  1
  O  O23  1  0.65784724  0.25894720  0.16408263  1
  O  O24  1  0.48055538  0.62074094  0.32097808  1
  O  O25  1  0.33903223  0.91957844  0.33684451  1
  O  O26  1  0.78848453  0.00900908  0.25606065  1
  O  O27  1  0.75844370  0.99694056  0.43268842  1
  O  O28  1  0.23677250  0.00342158  0.56944256  1
  O  O29  1  0.66641462  0.08247206  0.66017503  1
  O  O30  1  0.52073787  0.38069225  0.67967842  1
  O  O31  1  0.33423806  0.74580835  0.83828524  1
  O  O32  1  0.48519504  0.32937254  0.33426608  1
  O  O33  1  0.37980031  0.52928213  0.17036437  1
  O  O34  1  0.21925717  0.77555202  0.07067349  1
  O  O35  1  0.24767500  0.76405339  0.43267083  1
  O  O36  1  0.20741613  0.79418166  0.25144831  1
  O  O37  1  0.25322930  0.66302615  0.65757284  1
  O  O38  1  0.48226818  0.19470688  0.82773348  1
  O  O39  1  0.53450935  0.08435648  0.16705694  1
  O  O40  1  0.31933759  0.49140412  0.83569486  1
  O  O41  1  0.30916049  0.33358669  0.97612090  1
  O  O42  1  0.32105498  0.33379806  0.47468808  1
  O  O43  1  0.18462342  0.47919247  0.32015832  1
  O  O44  1  0.38213464  0.09623545  0.67701707  1
  O  O45  1  0.32807387  0.18483405  0.32665501  1
  O  O46  1  0.08097820  0.66329523  0.16505436  1
  O  O47  1  0.00190284  0.79309782  0.74825693  1
  O  O48  1  0.00490560  0.78533252  0.92556066  1
  O  O49  1  0.09546000  0.52409480  0.67788215  1
  O  O50  1  0.18454580  0.32582762  0.82415892  1
  O  O51  1  0.08868504  0.38464800  0.17213640  1
  O  O52  1  0.25427244  0.08394414  0.15745878  1
  O  O53  1  0.22752779  0.99842769  0.93039095  1
  O  O54  1  0.20631427  0.00209461  0.74954489  1
  O  O55  1  0.08141250  0.25722279  0.66037432  1
  O  O56  1  0.00425132  0.24015411  0.43110778  1
  O  O57  1  0.00285404  0.20762587  0.25118542  1
loop_
_geom_bond_atom_site_label_1
_geom_bond_atom_site_label_2
_geom_bond_distance
_geom_bond_site_symmetry_2
Li0 O0 1.893471 1_555
Li0 O27 1.958755 1_555
Li0 O29 2.076875 1_565
Li0 O9 2.235196 1_555
Li1 O56 1.971235 1_655
Li1 O19 1.974068 1_555
Li1 O55 2.065875 1_655
Li1 O11 2.383039 1_555
Li2 O7 1.999339 1_555
Li2 O20 2.033508 1_554
Li2 O23 2.103444 1_555
Li2 O14 2.117899 1_555
Li3 O34 2.012238 1_555
Li3 O52 2.056510 1_565
Li3 O53 2.085908 1_554
Li3 O16 2.127656 1_555
Li4 O27 1.980260 1_545
Li4 O17 2.035341 1_555
Li4 O19 2.043814 1_555
Li4 O32 2.208937 1_555
Li5 O35 1.890095 1_555
Li5 O28 1.986170 1_565
Li5 O37 2.013312 1_555
Li5 O22 2.329533 1_555
Li6 O48 1.953417 1_555
Li6 O34 2.070616 1_556
Li6 O40 2.098499 1_555
Li6 O31 2.140016 1_555
Li7 O56 1.956641 1_555
Li7 O28 2.033070 1_555
Li7 O25 2.044315 1_545
Li7 O45 2.251377 1_555
Li8 O53 2.005628 1_545
Li8 O7 2.029183 1_456
Li8 O8 2.118168 1_455
Li8 O50 2.283489 1_555
Li9 O2 1.860411 1_566
Li9 O48 1.984139 1_655
Li9 O20 2.286196 1_565
Li9 O34 2.584886 1_656
O0 P13 1.476380 1_655
O1 P1 1.549069 1_555
O1 V4 1.893105 1_555
O2 P8 1.477532 1_555
O3 P0 1.536543 1_555
O3 V2 1.890819 1_565
O4 P0 1.559239 1_555
O4 V5 1.880542 1_655
O5 P3 1.593050 1_555
O5 V4 1.856243 1_555
O6 P2 1.535866 1_555
O6 V4 1.916451 1_555
O7 P15 1.509535 1_655
O8 P5 1.572746 1_555
O8 V5 1.932273 1_655
O9 P4 1.561009 1_555
O9 V2 1.988457 1_565
O10 P1 1.540623 1_555
O10 V3 1.892257 1_555
O11 P4 1.606751 1_555
O11 V5 1.884478 1_655
O12 P3 1.489148 1_555
O13 P4 1.491557 1_555
O14 P3 1.568998 1_555
O14 V0 1.988484 1_555
O15 P7 1.521076 1_555
O15 V2 1.944079 1_565
O16 P3 1.576371 1_555
O16 V3 1.987723 1_555
O17 P2 1.545949 1_555
O17 V0 2.000891 1_555
O18 P6 1.613403 1_555
O18 P5 1.624163 1_555
O19 P6 1.504222 1_555
O20 P5 1.496941 1_555
O21 P5 1.525414 1_555
O21 V1 1.956112 1_555
O22 P4 1.575592 1_555
O22 V1 1.954075 1_555
O23 P8 1.563693 1_555
O23 V0 1.929045 1_555
O24 P9 1.555848 1_555
O24 V0 1.859864 1_555
O25 P9 1.552706 1_555
O25 V3 1.978498 1_555
O26 P1 1.601303 1_545
O26 P8 1.627642 1_555
O27 P1 1.501013 1_555
O28 P14 1.500793 1_555
O29 P6 1.538995 1_555
O29 V2 2.009104 1_555
O30 P6 1.553141 1_555
O30 V1 1.863746 1_555
O31 P7 1.557179 1_555
O31 V1 1.959861 1_555
O32 P11 1.578244 1_555
O32 V0 1.961621 1_555
O33 P10 1.523016 1_555
O33 V0 1.955601 1_555
O34 P10 1.516765 1_555
O35 P9 1.481339 1_555
O36 P10 1.613037 1_555
O36 P9 1.619540 1_555
O37 P13 1.545345 1_555
O37 V1 1.993414 1_555
O38 P12 1.543838 1_555
O38 V2 1.936559 1_555
O39 P8 1.539860 1_555
O39 V3 1.915362 1_545
O40 P12 1.566562 1_555
O40 V1 2.016939 1_555
O41 P12 1.493263 1_555
O42 P11 1.489029 1_555
O43 P11 1.582616 1_555
O43 V4 1.869487 1_455
O44 P14 1.534983 1_555
O44 V2 1.909497 1_555
O45 P11 1.578270 1_555
O45 V3 1.945879 1_545
O46 P10 1.549650 1_555
O46 V4 1.887202 1_455
O47 P0 1.603580 1_455
O47 P13 1.615203 1_555
O48 P0 1.493021 1_455
O49 P13 1.567558 1_555
O49 V5 1.849432 1_555
O50 P12 1.626161 1_555
O50 V5 1.857005 1_555
O51 P15 1.532782 1_555
O51 V4 1.935016 1_455
O52 P15 1.548791 1_555
O52 V3 1.984144 1_545
O53 P7 1.511466 1_555
O54 P14 1.618598 1_555
O54 P7 1.623695 1_545
O55 P14 1.558563 1_555
O55 V5 1.993039 1_555
O56 P2 1.504900 1_455
O57 P15 1.616454 1_555
O57 P2 1.619545 1_455
