# generated using pymatgen
data_CsKMg14O15
_symmetry_space_group_name_H-M   'P 1'
_cell_length_a   8.63482790
_cell_length_b   8.96352916
_cell_length_c   4.51356502
_cell_angle_alpha   90.00000000
_cell_angle_beta   90.00000000
_cell_angle_gamma   90.00000000
_symmetry_Int_Tables_number   1
_chemical_formula_structural   CsKMg14O15
_chemical_formula_sum   'Cs1 K1 Mg14 O15'
_cell_volume   349.34330516
_cell_formula_units_Z   1
loop_
 _symmetry_equiv_pos_site_id
 _symmetry_equiv_pos_as_xyz
  1  'x, y, z'
loop_
 _atom_site_type_symbol
 _atom_site_label
 _atom_site_symmetry_multiplicity
 _atom_site_fract_x
 _atom_site_fract_y
 _atom_site_fract_z
 _atom_site_occupancy
  Cs  Cs0  1  0.11343273  0.50000000  0.00000000  1
  K  K0  1  0.98431107  0.00000000  0.00000000  1
  Mg  Mg0  1  0.49741912  0.00000000  0.00000000  1
  Mg  Mg1  1  0.51889740  0.50000000  0.00000000  1
  Mg  Mg2  1  0.99210133  0.24630942  0.50000000  1
  Mg  Mg3  1  0.99210133  0.75369058  0.50000000  1
  Mg  Mg4  1  0.49780954  0.25053206  0.50000000  1
  Mg  Mg5  1  0.49780954  0.74946794  0.50000000  1
  Mg  Mg6  1  0.24628853  0.00000000  0.50000000  1
  Mg  Mg7  1  0.26508095  0.50000000  0.50000000  1
  Mg  Mg8  1  0.74103598  0.00000000  0.50000000  1
  Mg  Mg9  1  0.76110585  0.50000000  0.50000000  1
  Mg  Mg10  1  0.24474195  0.21594213  0.00000000  1
  Mg  Mg11  1  0.24474195  0.78405787  -0.00000000  1
  Mg  Mg12  1  0.75381370  0.25951292  0.00000000  1
  Mg  Mg13  1  0.75381370  0.74048708  0.00000000  1
  O  O0  1  0.27249866  0.00000000  0.00000000  1
  O  O1  1  0.71538922  0.00000000  0.00000000  1
  O  O2  1  0.74050275  0.50000000  0.00000000  1
  O  O3  1  0.24746900  0.25724554  0.50000000  1
  O  O4  1  0.24746900  0.74275446  0.50000000  1
  O  O5  1  0.74274695  0.24981725  0.50000000  1
  O  O6  1  0.74274695  0.75018275  0.50000000  1
  O  O7  1  0.00934653  0.00000000  0.50000000  1
  O  O8  1  0.99446663  0.50000000  0.50000000  1
  O  O9  1  0.49059615  0.00000000  0.50000000  1
  O  O10  1  0.49201591  0.50000000  0.50000000  1
  O  O11  1  0.99375249  0.25736821  0.00000000  1
  O  O12  1  0.99375249  0.74263179  0.00000000  1
  O  O13  1  0.48137129  0.26802554  0.00000000  1
  O  O14  1  0.48137129  0.73197446  0.00000000  1
loop_
_geom_bond_atom_site_label_1
_geom_bond_atom_site_label_2
_geom_bond_distance
_geom_bond_site_symmetry_2
Cs0 O12 2.407877 1_455
Cs0 O11 2.407877 1_455
Cs0 O8 2.479579 1_454
Cs0 O8 2.479579 1_455
K0 O7 2.267113 1_655
K0 O7 2.267113 1_654
K0 O11 2.308368 1_555
K0 O12 2.308368 1_545
K0 O1 2.322094 1_555
K0 O0 2.488450 1_655
Mg0 O1 1.882134 1_555
Mg0 O0 1.942149 1_555
Mg0 O9 2.257551 1_555
Mg0 O9 2.257551 1_554
Mg0 O14 2.406448 1_545
Mg0 O13 2.406448 1_555
Mg1 O2 1.913524 1_555
Mg1 O14 2.104406 1_555
Mg1 O13 2.104406 1_555
Mg1 O10 2.268688 1_555
Mg1 O10 2.268688 1_554
Mg2 O5 2.153362 1_555
Mg2 O3 2.207234 1_655
Mg2 O7 2.212818 1_655
Mg2 O11 2.259003 1_556
Mg2 O11 2.259003 1_555
Mg2 O8 2.274055 1_555
Mg3 O6 2.153362 1_555
Mg3 O4 2.207234 1_655
Mg3 O7 2.212818 1_665
Mg3 O12 2.259003 1_556
Mg3 O12 2.259003 1_555
Mg3 O8 2.274055 1_555
Mg4 O5 2.115002 1_555
Mg4 O3 2.162485 1_555
Mg4 O10 2.236673 1_555
Mg4 O9 2.246515 1_555
Mg4 O13 2.266672 1_555
Mg4 O13 2.266672 1_556
Mg5 O6 2.115002 1_555
Mg5 O4 2.162485 1_555
Mg5 O10 2.236673 1_555
Mg5 O9 2.246515 1_565
Mg5 O14 2.266672 1_556
Mg5 O14 2.266672 1_555
Mg6 O7 2.045953 1_555
Mg6 O9 2.109554 1_555
Mg6 O0 2.268102 1_555
Mg6 O0 2.268102 1_556
Mg6 O4 2.305850 1_545
Mg6 O3 2.305850 1_555
Mg7 O10 1.959544 1_555
Mg7 O4 2.181245 1_555
Mg7 O3 2.181245 1_555
Mg7 O8 2.336708 1_455
Mg8 O9 2.162505 1_555
Mg8 O5 2.239293 1_555
Mg8 O6 2.239293 1_545
Mg8 O1 2.267622 1_555
Mg8 O1 2.267622 1_556
Mg8 O7 2.316815 1_655
Mg9 O8 2.015030 1_555
Mg9 O5 2.248117 1_555
Mg9 O6 2.248117 1_555
Mg9 O2 2.263784 1_556
Mg9 O2 2.263784 1_555
Mg9 O10 2.323545 1_555
Mg10 O0 1.950386 1_555
Mg10 O13 2.095909 1_555
Mg10 O11 2.198831 1_455
Mg10 O3 2.287070 1_554
Mg10 O3 2.287070 1_555
Mg11 O0 1.950386 1_565
Mg11 O14 2.095909 1_555
Mg11 O12 2.198831 1_455
Mg11 O4 2.287070 1_554
Mg11 O4 2.287070 1_555
Mg12 O11 2.071919 1_555
Mg12 O2 2.158675 1_555
Mg12 O5 2.260476 1_555
Mg12 O5 2.260476 1_554
Mg12 O1 2.349695 1_555
Mg12 O13 2.353730 1_555
Mg13 O12 2.071919 1_555
Mg13 O2 2.158675 1_555
Mg13 O6 2.260476 1_555
Mg13 O6 2.260476 1_554
Mg13 O1 2.349695 1_565
Mg13 O14 2.353730 1_555
