# generated using pymatgen
data_GaSi2N3
_symmetry_space_group_name_H-M   'P 1'
_cell_length_a   5.55051400
_cell_length_b   5.79540370
_cell_length_c   4.91595700
_cell_angle_alpha   90.00000000
_cell_angle_beta   90.00000000
_cell_angle_gamma   121.47054048
_symmetry_Int_Tables_number   1
_chemical_formula_structural   GaSi2N3
_chemical_formula_sum   'Ga2 Si4 N6'
_cell_volume   134.87377622
_cell_formula_units_Z   2
loop_
 _symmetry_equiv_pos_site_id
 _symmetry_equiv_pos_as_xyz
  1  'x, y, z'
loop_
 _atom_site_type_symbol
 _atom_site_label
 _atom_site_symmetry_multiplicity
 _atom_site_fract_x
 _atom_site_fract_y
 _atom_site_fract_z
 _atom_site_occupancy
  Ga  Ga0  1  0.00000000  0.63556700  0.55239200  1
  Ga  Ga1  1  0.00000000  0.36443300  0.05239200  1
  Si  Si0  1  0.35117500  0.31303600  0.48280200  1
  Si  Si1  1  0.64882500  0.96186100  0.48280200  1
  Si  Si2  1  0.64882500  0.68696400  0.98280200  1
  Si  Si3  1  0.35117500  0.03813900  0.98280200  1
  N  N0  1  0.46886000  0.35946600  0.82335000  1
  N  N1  1  0.53114000  0.89060600  0.82335000  1
  N  N2  1  0.53114000  0.64053400  0.32335000  1
  N  N3  1  0.46886000  0.10939400  0.32335000  1
  N  N4  1  0.00000000  0.84204900  0.92330400  1
  N  N5  1  0.00000000  0.15795100  0.42330400  1
loop_
_geom_bond_atom_site_label_1
_geom_bond_atom_site_label_2
_geom_bond_distance
_geom_bond_site_symmetry_2
Ga0 N4 2.180987 1_555
Ga1 N5 2.180987 1_555
N0 Si0 1.765855 1_555
N0 Si2 1.798620 1_555
N0 Si3 1.799692 1_555
N1 Si1 1.765855 1_555
N1 Si3 1.798620 1_565
N1 Si2 1.799692 1_555
N2 Si2 1.765855 1_554
N2 Si0 1.798620 1_555
N2 Si1 1.799692 1_555
N3 Si3 1.765855 1_554
N3 Si1 1.798620 1_545
N3 Si0 1.799692 1_555
N4 Si3 1.692201 1_565
N4 Si2 1.692201 1_455
N5 Si1 1.692201 1_445
N5 Si0 1.692201 1_555
