# generated using pymatgen
data_Ce3Cu4(P2O)2
_symmetry_space_group_name_H-M   'P 1'
_cell_length_a   13.69800207
_cell_length_b   13.69800207
_cell_length_c   13.69800207
_cell_angle_alpha   163.67073509
_cell_angle_beta   163.67073509
_cell_angle_gamma   23.17260047
_symmetry_Int_Tables_number   1
_chemical_formula_structural   Ce3Cu4(P2O)2
_chemical_formula_sum   'Ce3 Cu4 P4 O2'
_cell_volume   203.13145615
_cell_formula_units_Z   1
loop_
 _symmetry_equiv_pos_site_id
 _symmetry_equiv_pos_as_xyz
  1  'x, y, z'
loop_
 _atom_site_type_symbol
 _atom_site_label
 _atom_site_symmetry_multiplicity
 _atom_site_fract_x
 _atom_site_fract_y
 _atom_site_fract_z
 _atom_site_occupancy
  Ce  Ce0  1  0.29787400  0.29787400  0.00000000  1
  Ce  Ce1  1  0.70212600  0.70212600  0.00000000  1
  Ce  Ce2  1  0.00000000  0.00000000  0.00000000  1
  Cu  Cu0  1  0.59794700  0.09794700  0.50000000  1
  Cu  Cu1  1  0.40205300  0.90205300  0.50000000  1
  Cu  Cu2  1  0.09794700  0.59794700  0.50000000  1
  Cu  Cu3  1  0.90205300  0.40205300  0.50000000  1
  P  P0  1  0.45513500  0.45513500  0.00000000  1
  P  P1  1  0.54486500  0.54486500  0.00000000  1
  P  P2  1  0.14696500  0.14696500  0.00000000  1
  P  P3  1  0.85303500  0.85303500  0.00000000  1
  O  O0  1  0.75000000  0.25000000  0.50000000  1
  O  O1  1  0.25000000  0.75000000  0.50000000  1
loop_
_geom_bond_atom_site_label_1
_geom_bond_atom_site_label_2
_geom_bond_distance
_geom_bond_site_symmetry_2
Ce0 O0 2.331357 1_454
Ce0 O1 2.331357 1_544
Ce0 O0 2.331357 1_555
Ce0 O1 2.331357 1_555
Ce0 P3 3.124171 1_444
Ce0 P3 3.124171 1_545
Ce0 P3 3.124171 1_455
Ce0 P3 3.124171 1_556
Ce1 O0 2.331357 1_565
Ce1 O1 2.331357 1_554
Ce1 O1 2.331357 1_655
Ce1 O0 2.331357 1_554
Ce1 P2 3.124171 1_666
Ce1 P2 3.124171 1_554
Ce1 P2 3.124171 1_565
Ce1 P2 3.124171 1_655
Ce2 P0 3.003109 1_545
Ce2 P0 3.003109 1_556
Ce2 P0 3.003109 1_444
Ce2 P0 3.003109 1_455
Ce2 P1 3.003109 1_444
Ce2 P1 3.003109 1_556
Ce2 P1 3.003109 1_455
Ce2 P1 3.003109 1_545
Ce2 Cu1 3.270227 1_545
Ce2 Cu2 3.270227 1_555
Ce2 Cu0 3.270227 1_454
Ce2 Cu0 3.270227 1_555
Ce2 Cu3 3.270227 1_444
Ce2 Cu1 3.270227 1_444
Ce2 Cu3 3.270227 1_455
Ce2 Cu2 3.270227 1_544
Cu0 P2 2.348417 1_656
Cu0 P2 2.348417 1_555
Cu0 P1 2.411208 1_545
Cu0 P1 2.411208 1_556
Cu1 P3 2.348417 1_455
Cu1 P3 2.348417 1_556
Cu1 P0 2.411208 1_555
Cu1 P0 2.411208 1_566
Cu2 P2 2.348417 1_566
Cu2 P2 2.348417 1_555
Cu2 P1 2.411208 1_556
Cu2 P1 2.411208 1_455
Cu3 P3 2.348417 1_545
Cu3 P3 2.348417 1_556
Cu3 P0 2.411208 1_555
Cu3 P0 2.411208 1_656
P0 P1 2.408153 1_555
