# generated using pymatgen
data_Bi2(NCl3)3
_symmetry_space_group_name_H-M   'P 1'
_cell_length_a   8.94991993
_cell_length_b   8.94991993
_cell_length_c   20.47941200
_cell_angle_alpha   90.00000000
_cell_angle_beta   90.00000000
_cell_angle_gamma   119.99999948
_symmetry_Int_Tables_number   1
_chemical_formula_structural   Bi2(NCl3)3
_chemical_formula_sum   'Bi4 N6 Cl18'
_cell_volume   1420.64777966
_cell_formula_units_Z   2
loop_
 _symmetry_equiv_pos_site_id
 _symmetry_equiv_pos_as_xyz
  1  'x, y, z'
loop_
 _atom_site_type_symbol
 _atom_site_label
 _atom_site_symmetry_multiplicity
 _atom_site_fract_x
 _atom_site_fract_y
 _atom_site_fract_z
 _atom_site_occupancy
  Bi  Bi0  1  0.33333300  0.66666700  0.34157700  1
  Bi  Bi1  1  0.66666700  0.33333300  0.65842300  1
  Bi  Bi2  1  0.66666700  0.33333300  0.84157700  1
  Bi  Bi3  1  0.33333300  0.66666700  0.15842300  1
  N  N0  1  0.00000000  0.00000000  0.25000000  1
  N  N1  1  0.00000000  0.00000000  0.75000000  1
  N  N2  1  0.66666700  0.33333300  0.41147200  1
  N  N3  1  0.33333300  0.66666700  0.58852800  1
  N  N4  1  0.33333300  0.66666700  0.91147200  1
  N  N5  1  0.66666700  0.33333300  0.08852800  1
  Cl  Cl0  1  0.46294100  0.53705900  0.25000000  1
  Cl  Cl1  1  0.46294100  0.92588300  0.25000000  1
  Cl  Cl2  1  0.07411700  0.53705900  0.25000000  1
  Cl  Cl3  1  0.53705900  0.46294100  0.75000000  1
  Cl  Cl4  1  0.53705900  0.07411700  0.75000000  1
  Cl  Cl5  1  0.92588300  0.46294100  0.75000000  1
  Cl  Cl6  1  0.19455000  0.80545000  0.39903800  1
  Cl  Cl7  1  0.19455000  0.38910000  0.39903800  1
  Cl  Cl8  1  0.61090000  0.80545000  0.39903800  1
  Cl  Cl9  1  0.80545000  0.19455000  0.60096200  1
  Cl  Cl10  1  0.80545000  0.61090000  0.60096200  1
  Cl  Cl11  1  0.38910000  0.19455000  0.60096200  1
  Cl  Cl12  1  0.80545000  0.19455000  0.89903800  1
  Cl  Cl13  1  0.80545000  0.61090000  0.89903800  1
  Cl  Cl14  1  0.38910000  0.19455000  0.89903800  1
  Cl  Cl15  1  0.19455000  0.80545000  0.10096200  1
  Cl  Cl16  1  0.19455000  0.38910000  0.10096200  1
  Cl  Cl17  1  0.61090000  0.80545000  0.10096200  1
loop_
_geom_bond_atom_site_label_1
_geom_bond_atom_site_label_2
_geom_bond_distance
_geom_bond_site_symmetry_2
Bi0 Cl6 2.452182 1_555
Bi0 Cl7 2.452188 1_555
Bi0 Cl8 2.452188 1_555
Bi0 Cl0 2.748446 1_555
Bi0 Cl1 2.748446 1_555
Bi0 Cl2 2.748446 1_555
Bi1 Cl9 2.452182 1_555
Bi1 Cl11 2.452188 1_555
Bi1 Cl10 2.452188 1_555
Bi1 Cl3 2.748446 1_555
Bi1 Cl5 2.748446 1_555
Bi1 Cl4 2.748446 1_555
Bi2 Cl12 2.452182 1_555
Bi2 Cl13 2.452188 1_555
Bi2 Cl14 2.452188 1_555
Bi2 Cl3 2.748446 1_555
Bi2 Cl5 2.748446 1_555
Bi2 Cl4 2.748446 1_555
Bi3 Cl15 2.452182 1_555
Bi3 Cl16 2.452188 1_555
Bi3 Cl17 2.452188 1_555
Bi3 Cl0 2.748446 1_555
Bi3 Cl2 2.748446 1_555
Bi3 Cl1 2.748446 1_555
