# generated using pymatgen
data_Cs2RuO4
_symmetry_space_group_name_H-M   'P 1'
_cell_length_a   6.47080269
_cell_length_b   8.51285019
_cell_length_c   11.48954890
_cell_angle_alpha   90.00000000
_cell_angle_beta   90.00000000
_cell_angle_gamma   90.00000000
_symmetry_Int_Tables_number   1
_chemical_formula_structural   Cs2RuO4
_chemical_formula_sum   'Cs8 Ru4 O16'
_cell_volume   632.90150138
_cell_formula_units_Z   4
loop_
 _symmetry_equiv_pos_site_id
 _symmetry_equiv_pos_as_xyz
  1  'x, y, z'
loop_
 _atom_site_type_symbol
 _atom_site_label
 _atom_site_symmetry_multiplicity
 _atom_site_fract_x
 _atom_site_fract_y
 _atom_site_fract_z
 _atom_site_occupancy
  Cs  Cs0  1  0.25000000  0.66299717  0.58461131  1
  Cs  Cs1  1  0.75000000  0.33700283  0.41538869  1
  Cs  Cs2  1  0.25000000  0.16299717  0.91538869  1
  Cs  Cs3  1  0.75000000  0.83700283  0.08461131  1
  Cs  Cs4  1  0.75000000  0.00865264  0.70382431  1
  Cs  Cs5  1  0.25000000  0.99134736  0.29617569  1
  Cs  Cs6  1  0.75000000  0.50865264  0.79617569  1
  Cs  Cs7  1  0.25000000  0.49134736  0.20382431  1
  Ru  Ru0  1  0.75000000  0.27619886  0.07912801  1
  Ru  Ru1  1  0.25000000  0.72380114  0.92087199  1
  Ru  Ru2  1  0.75000000  0.77619886  0.42087199  1
  Ru  Ru3  1  0.25000000  0.22380114  0.57912801  1
  O  O0  1  0.97392753  0.70077627  0.35074047  1
  O  O1  1  0.47392753  0.29922373  0.64925953  1
  O  O2  1  0.52607247  0.20077627  0.14925953  1
  O  O3  1  0.02607247  0.79922373  0.85074047  1
  O  O4  1  0.02607247  0.29922373  0.64925953  1
  O  O5  1  0.52607247  0.70077627  0.35074047  1
  O  O6  1  0.47392753  0.79922373  0.85074047  1
  O  O7  1  0.97392753  0.20077627  0.14925953  1
  O  O8  1  0.25000000  0.01622902  0.58040238  1
  O  O9  1  0.75000000  0.98377098  0.41959762  1
  O  O10  1  0.25000000  0.51622902  0.91959762  1
  O  O11  1  0.75000000  0.48377098  0.08040238  1
  O  O12  1  0.75000000  0.20015967  0.93431988  1
  O  O13  1  0.25000000  0.79984033  0.06568012  1
  O  O14  1  0.75000000  0.70015967  0.56568012  1
  O  O15  1  0.25000000  0.29984033  0.43431988  1
loop_
_geom_bond_atom_site_label_1
_geom_bond_atom_site_label_2
_geom_bond_distance
_geom_bond_site_symmetry_2
Cs0 O8 3.007399 1_565
Cs0 O5 3.242690 1_555
Cs0 O0 3.242690 1_455
Cs0 O14 3.258100 1_455
Cs0 O14 3.258100 1_555
Cs0 O4 3.498735 1_555
Cs0 O1 3.498735 1_555
Cs0 O15 3.541065 1_555
Cs0 O3 3.576867 1_555
Cs0 O6 3.576867 1_555
Cs1 O9 3.007399 1_545
Cs1 O4 3.242690 1_655
Cs1 O1 3.242690 1_555
Cs1 O15 3.258100 1_555
Cs1 O15 3.258100 1_655
Cs1 O5 3.498735 1_555
Cs1 O0 3.498735 1_555
Cs1 O14 3.541065 1_555
Cs1 O2 3.576867 1_555
Cs1 O7 3.576867 1_555
Cs2 O10 3.007399 1_555
Cs2 O7 3.242690 1_456
Cs2 O2 3.242690 1_556
Cs2 O12 3.258100 1_455
Cs2 O12 3.258100 1_555
Cs2 O6 3.498735 1_545
Cs2 O3 3.498735 1_545
Cs2 O13 3.541065 1_546
Cs2 O4 3.576867 1_555
Cs2 O1 3.576867 1_555
Cs3 O11 3.007399 1_555
Cs3 O3 3.242690 1_654
Cs3 O6 3.242690 1_554
Cs3 O13 3.258100 1_655
Cs3 O13 3.258100 1_555
Cs3 O2 3.498735 1_565
Cs3 O7 3.498735 1_565
Cs3 O12 3.541065 1_564
Cs3 O5 3.576867 1_555
Cs3 O0 3.576867 1_555
Cs4 O3 3.036300 1_645
Cs4 O6 3.036300 1_545
Cs4 O14 3.068540 1_545
Cs4 O12 3.109859 1_555
Cs4 O4 3.114954 1_655
Cs4 O1 3.114954 1_555
Cs4 O9 3.272499 1_545
Cs4 O8 3.533112 1_555
Cs4 O8 3.533112 1_655
Cs5 O7 3.036300 1_465
Cs5 O2 3.036300 1_565
Cs5 O15 3.068540 1_565
Cs5 O13 3.109859 1_555
Cs5 O5 3.114954 1_555
Cs5 O0 3.114954 1_455
Cs5 O8 3.272499 1_565
Cs5 O9 3.533112 1_455
Cs5 O9 3.533112 1_555
Cs6 O4 3.036300 1_655
Cs6 O1 3.036300 1_555
Cs6 O12 3.068540 1_555
Cs6 O14 3.109859 1_555
Cs6 O3 3.114954 1_655
Cs6 O6 3.114954 1_555
Cs6 O11 3.272499 1_556
Cs6 O10 3.533112 1_655
Cs6 O10 3.533112 1_555
Cs7 O5 3.036300 1_555
Cs7 O0 3.036300 1_455
Cs7 O13 3.068540 1_555
Cs7 O15 3.109859 1_555
Cs7 O7 3.114954 1_455
Cs7 O2 3.114954 1_555
Cs7 O10 3.272499 1_554
Cs7 O11 3.533112 1_455
Cs7 O11 3.533112 1_555
O0 Ru2 1.777948 1_555
O1 Ru3 1.777948 1_555
O2 Ru0 1.777948 1_555
O3 Ru1 1.777948 1_555
O4 Ru3 1.777948 1_555
O5 Ru2 1.777948 1_555
O6 Ru1 1.777948 1_555
O7 Ru0 1.777948 1_555
O8 Ru3 1.767091 1_555
O9 Ru2 1.767091 1_555
O10 Ru1 1.767091 1_555
O11 Ru0 1.767091 1_555
O12 Ru0 1.785266 1_556
O13 Ru1 1.785266 1_554
O14 Ru2 1.785266 1_555
O15 Ru3 1.785266 1_555
