# generated using pymatgen
data_Mn2InAgTe4
_symmetry_space_group_name_H-M   'P 1'
_cell_length_a   6.46536500
_cell_length_b   6.46536500
_cell_length_c   7.85772559
_cell_angle_alpha   65.70707147
_cell_angle_beta   114.29292853
_cell_angle_gamma   90.00000000
_symmetry_Int_Tables_number   1
_chemical_formula_structural   Mn2InAgTe4
_chemical_formula_sum   'Mn2 In1 Ag1 Te4'
_cell_volume   267.14490432
_cell_formula_units_Z   1
loop_
 _symmetry_equiv_pos_site_id
 _symmetry_equiv_pos_as_xyz
  1  'x, y, z'
loop_
 _atom_site_type_symbol
 _atom_site_label
 _atom_site_symmetry_multiplicity
 _atom_site_fract_x
 _atom_site_fract_y
 _atom_site_fract_z
 _atom_site_occupancy
  Mn  Mn0  1  0.75000000  0.75000000  0.50000000  1
  Mn  Mn1  1  0.25000000  0.25000000  0.50000000  1
  In  In0  1  0.50000000  0.50000000  0.00000000  1
  Ag  Ag0  1  0.00000000  0.00000000  0.00000000  1
  Te  Te0  1  0.11700100  0.88299900  0.73834200  1
  Te  Te1  1  0.88299900  0.62134100  0.26165800  1
  Te  Te2  1  0.62134100  0.37865900  0.73834200  1
  Te  Te3  1  0.37865900  0.11700100  0.26165800  1
loop_
_geom_bond_atom_site_label_1
_geom_bond_atom_site_label_2
_geom_bond_distance
_geom_bond_site_symmetry_2
Mn0 Te3 2.746943 1_565
Mn0 Te2 2.746943 1_555
Mn0 Te0 2.746943 1_655
Mn0 Te1 2.746943 1_555
Mn1 Te1 2.746943 1_455
Mn1 Te2 2.746943 1_555
Mn1 Te0 2.746943 1_545
Mn1 Te3 2.746943 1_555
In0 Te0 2.848255 1_554
In0 Te3 2.848255 1_555
In0 Te1 2.848255 1_555
In0 Te2 2.848255 1_554
Ag0 Te2 2.816228 1_454
Ag0 Te1 2.816228 1_445
Ag0 Te3 2.816228 1_555
Ag0 Te0 2.816228 1_544
