# generated using pymatgen
data_Dy2InNi2
_symmetry_space_group_name_H-M   'P 1'
_cell_length_a   3.68878778
_cell_length_b   3.84339893
_cell_length_c   7.32886324
_cell_angle_alpha   105.20122197
_cell_angle_beta   90.00000000
_cell_angle_gamma   90.00000000
_symmetry_Int_Tables_number   1
_chemical_formula_structural   Dy2InNi2
_chemical_formula_sum   'Dy2 In1 Ni2'
_cell_volume   100.26929768
_cell_formula_units_Z   1
loop_
 _symmetry_equiv_pos_site_id
 _symmetry_equiv_pos_as_xyz
  1  'x, y, z'
loop_
 _atom_site_type_symbol
 _atom_site_label
 _atom_site_symmetry_multiplicity
 _atom_site_fract_x
 _atom_site_fract_y
 _atom_site_fract_z
 _atom_site_occupancy
  Dy  Dy0  1  0.50000000  0.63755310  0.27510720  1
  Dy  Dy1  1  0.50000000  0.36244690  0.72489280  1
  In  In0  1  0.00000000  0.00000000  0.00000000  1
  Ni  Ni0  1  0.00000000  0.79993825  0.59987351  1
  Ni  Ni1  1  0.00000000  0.20006175  0.40012649  1
loop_
_geom_bond_atom_site_label_1
_geom_bond_atom_site_label_2
_geom_bond_distance
_geom_bond_site_symmetry_2
Dy0 Ni1 2.806510 1_565
Dy0 Ni1 2.806510 1_665
Dy0 Ni1 2.806515 1_655
Dy0 Ni1 2.806515 1_555
Dy0 Ni0 2.945757 1_655
Dy0 Ni0 2.945757 1_555
Dy0 In0 3.298541 1_555
Dy0 In0 3.298541 1_655
Dy0 In0 3.298543 1_665
Dy0 In0 3.298543 1_565
Dy1 Ni0 2.806510 1_645
Dy1 Ni0 2.806510 1_545
Dy1 Ni0 2.806515 1_555
Dy1 Ni0 2.806515 1_655
Dy1 Ni1 2.945757 1_655
Dy1 Ni1 2.945757 1_555
Dy1 In0 3.298541 1_666
Dy1 In0 3.298541 1_566
Dy1 In0 3.298543 1_556
Dy1 In0 3.298543 1_656
In0 Ni1 2.829868 1_555
In0 Ni0 2.829868 1_544
Ni0 Ni1 2.385078 1_565
Ni0 Ni1 2.385097 1_555
