# generated using pymatgen
data_Tb2CrSbO7
_symmetry_space_group_name_H-M   'P 1'
_cell_length_a   7.29295643
_cell_length_b   7.29295643
_cell_length_c   7.29295643
_cell_angle_alpha   120.22307859
_cell_angle_beta   119.37905180
_cell_angle_gamma   90.34645678
_symmetry_Int_Tables_number   1
_chemical_formula_structural   Tb2CrSbO7
_chemical_formula_sum   'Tb4 Cr2 Sb2 O14'
_cell_volume   275.08185569
_cell_formula_units_Z   2
loop_
 _symmetry_equiv_pos_site_id
 _symmetry_equiv_pos_as_xyz
  1  'x, y, z'
loop_
 _atom_site_type_symbol
 _atom_site_label
 _atom_site_symmetry_multiplicity
 _atom_site_fract_x
 _atom_site_fract_y
 _atom_site_fract_z
 _atom_site_occupancy
  Tb  Tb0  1  0.00000000  0.00000000  0.50000000  1
  Tb  Tb1  1  0.00000000  0.50000000  0.00000000  1
  Tb  Tb2  1  0.00000000  0.00000000  0.00000000  1
  Tb  Tb3  1  0.50000000  0.00000000  0.50000000  1
  Cr  Cr0  1  0.50000000  0.50000000  0.50000000  1
  Cr  Cr1  1  0.50000000  0.00000000  0.00000000  1
  Sb  Sb0  1  0.50000000  0.50000000  0.00000000  1
  Sb  Sb1  1  0.00000000  0.50000000  0.50000000  1
  O  O0  1  0.12233100  0.87233100  0.25000000  1
  O  O1  1  0.87766900  0.12766900  0.75000000  1
  O  O2  1  0.40990000  0.15990000  0.25000000  1
  O  O3  1  0.83180500  0.58180500  0.25000000  1
  O  O4  1  0.41189900  0.57865100  0.24250700  1
  O  O5  1  0.83614500  0.16939200  0.25749300  1
  O  O6  1  0.41189900  0.16939200  0.83324700  1
  O  O7  1  0.83614500  0.57865100  0.66675300  1
  O  O8  1  0.59010000  0.84010000  0.75000000  1
  O  O9  1  0.16819500  0.41819500  0.75000000  1
  O  O10  1  0.58810100  0.42134900  0.75749300  1
  O  O11  1  0.16385500  0.83060800  0.74250700  1
  O  O12  1  0.58810100  0.83060800  0.16675300  1
  O  O13  1  0.16385500  0.42134900  0.33324700  1
loop_
_geom_bond_atom_site_label_1
_geom_bond_atom_site_label_2
_geom_bond_distance
_geom_bond_site_symmetry_2
Cr0 O8 2.039641 1_555
Cr0 O2 2.039641 1_555
Cr0 O4 2.042867 1_555
Cr0 O10 2.042867 1_555
Cr0 O13 2.042873 1_555
Cr0 O7 2.042873 1_555
Cr1 O2 2.039641 1_555
Cr1 O8 2.039641 1_544
Cr1 O12 2.042873 1_545
Cr1 O5 2.042873 1_555
Cr1 O11 2.042873 1_544
Cr1 O6 2.042873 1_554
O0 Tb0 2.209992 1_565
O0 Tb1 2.209992 1_555
O0 Tb2 2.260563 1_565
O0 Tb3 2.260563 1_565
O1 Tb1 2.209992 1_656
O1 Tb0 2.209992 1_655
O1 Tb3 2.260563 1_555
O1 Tb2 2.260563 1_656
O2 Tb2 2.467819 1_555
O2 Tb3 2.467819 1_555
O3 Sb0 2.023451 1_555
O3 Sb1 2.023451 1_655
O3 Tb0 2.508565 1_665
O3 Tb1 2.508565 1_655
O4 Sb0 1.991954 1_555
O4 Tb1 2.495163 1_555
O4 Tb3 2.522847 1_565
O5 Sb1 1.991952 1_655
O5 Tb0 2.495162 1_655
O5 Tb2 2.522840 1_655
O6 Sb0 1.991952 1_556
O6 Tb0 2.495162 1_555
O6 Tb3 2.522840 1_555
O7 Sb1 1.991953 1_655
O7 Tb1 2.495157 1_656
O7 Tb2 2.522846 1_666
O8 Tb3 2.467819 1_565
O8 Tb2 2.467819 1_666
O9 Sb1 2.023451 1_555
O9 Sb0 2.023451 1_556
O9 Tb1 2.508565 1_556
O9 Tb0 2.508565 1_555
O10 Sb0 1.991954 1_556
O10 Tb1 2.495163 1_656
O10 Tb3 2.522847 1_555
O11 Sb1 1.991952 1_555
O11 Tb0 2.495162 1_565
O11 Tb2 2.522840 1_566
O12 Sb0 1.991952 1_555
O12 Tb0 2.495162 1_665
O12 Tb3 2.522840 1_565
O13 Sb1 1.991953 1_555
O13 Tb1 2.495157 1_555
O13 Tb2 2.522846 1_555
