# generated using pymatgen
data_MnZnBiO5
_symmetry_space_group_name_H-M   'P 1'
_cell_length_a   5.32244300
_cell_length_b   10.75018300
_cell_length_c   15.26745700
_cell_angle_alpha   90.00000000
_cell_angle_beta   90.00000000
_cell_angle_gamma   90.00000000
_symmetry_Int_Tables_number   1
_chemical_formula_structural   MnZnBiO5
_chemical_formula_sum   'Mn8 Zn8 Bi8 O40'
_cell_volume   873.56169421
_cell_formula_units_Z   8
loop_
 _symmetry_equiv_pos_site_id
 _symmetry_equiv_pos_as_xyz
  1  'x, y, z'
loop_
 _atom_site_type_symbol
 _atom_site_label
 _atom_site_symmetry_multiplicity
 _atom_site_fract_x
 _atom_site_fract_y
 _atom_site_fract_z
 _atom_site_occupancy
  Mn  Mn0  1  0.96606200  0.39550900  0.40657400  1
  Mn  Mn1  1  0.53393800  0.89550900  0.59342600  1
  Mn  Mn2  1  0.03393800  0.60449100  0.59342600  1
  Mn  Mn3  1  0.46606200  0.10449100  0.40657400  1
  Mn  Mn4  1  0.03393800  0.10449100  0.90657400  1
  Mn  Mn5  1  0.96606200  0.89550900  0.09342600  1
  Mn  Mn6  1  0.53393800  0.39550900  0.90657400  1
  Mn  Mn7  1  0.46606200  0.60449100  0.09342600  1
  Zn  Zn0  1  0.47928500  0.36001100  0.54174900  1
  Zn  Zn1  1  0.97928500  0.13998900  0.54174900  1
  Zn  Zn2  1  0.97928500  0.63998900  0.95825100  1
  Zn  Zn3  1  0.02071500  0.36001100  0.04174900  1
  Zn  Zn4  1  0.52071500  0.13998900  0.04174900  1
  Zn  Zn5  1  0.02071500  0.86001100  0.45825100  1
  Zn  Zn6  1  0.52071500  0.63998900  0.45825100  1
  Zn  Zn7  1  0.47928500  0.86001100  0.95825100  1
  Bi  Bi0  1  0.99090300  0.85586300  0.77451300  1
  Bi  Bi1  1  0.00909700  0.14413700  0.22548700  1
  Bi  Bi2  1  0.50909700  0.35586300  0.22548700  1
  Bi  Bi3  1  0.00909700  0.64413700  0.27451300  1
  Bi  Bi4  1  0.49090300  0.14413700  0.72548700  1
  Bi  Bi5  1  0.49090300  0.64413700  0.77451300  1
  Bi  Bi6  1  0.50909700  0.85586300  0.27451300  1
  Bi  Bi7  1  0.99090300  0.35586300  0.72548700  1
  O  O0  1  0.91903600  0.33470000  0.30237700  1
  O  O1  1  0.31624600  0.04415900  0.94379500  1
  O  O2  1  0.18375400  0.54415900  0.05620500  1
  O  O3  1  0.30298800  0.78184300  0.85394800  1
  O  O4  1  0.19701200  0.28184300  0.14605200  1
  O  O5  1  0.91903600  0.83470000  0.19762300  1
  O  O6  1  0.19701200  0.78184300  0.35394800  1
  O  O7  1  0.58096400  0.83470000  0.69762300  1
  O  O8  1  0.31624600  0.54415900  0.55620500  1
  O  O9  1  0.08096400  0.66530000  0.69762300  1
  O  O10  1  0.58096400  0.33470000  0.80237700  1
  O  O11  1  0.63785400  0.19701700  0.47555300  1
  O  O12  1  0.81624600  0.95584100  0.55620500  1
  O  O13  1  0.69701200  0.71815700  0.35394800  1
  O  O14  1  0.16555800  0.02055300  0.11920900  1
  O  O15  1  0.81624600  0.45584100  0.94379500  1
  O  O16  1  0.08096400  0.16530000  0.80237700  1
  O  O17  1  0.80298800  0.21815700  0.64605200  1
  O  O18  1  0.13785400  0.80298300  0.02444700  1
  O  O19  1  0.18375400  0.04415900  0.44379500  1
  O  O20  1  0.36214600  0.80298300  0.52444700  1
  O  O21  1  0.83444200  0.97944700  0.88079100  1
  O  O22  1  0.69701200  0.21815700  0.14605200  1
  O  O23  1  0.66555800  0.97944700  0.38079100  1
  O  O24  1  0.36214600  0.30298300  0.97555300  1
  O  O25  1  0.13785400  0.30298300  0.47555300  1
  O  O26  1  0.68375400  0.45584100  0.44379500  1
  O  O27  1  0.68375400  0.95584100  0.05620500  1
  O  O28  1  0.66555800  0.47944700  0.11920900  1
  O  O29  1  0.86214600  0.69701700  0.52444700  1
  O  O30  1  0.86214600  0.19701700  0.97555300  1
  O  O31  1  0.63785400  0.69701700  0.02444700  1
  O  O32  1  0.83444200  0.47944700  0.61920900  1
  O  O33  1  0.80298800  0.71815700  0.85394800  1
  O  O34  1  0.30298800  0.28184300  0.64605200  1
  O  O35  1  0.16555800  0.52055300  0.38079100  1
  O  O36  1  0.33444200  0.52055300  0.88079100  1
  O  O37  1  0.41903600  0.16530000  0.30237700  1
  O  O38  1  0.33444200  0.02055300  0.61920900  1
  O  O39  1  0.41903600  0.66530000  0.19762300  1
loop_
_geom_bond_atom_site_label_1
_geom_bond_atom_site_label_2
_geom_bond_distance
_geom_bond_site_symmetry_2
Mn0 O25 1.713039 1_655
Mn0 O26 1.732426 1_555
Mn0 O0 1.738016 1_555
Mn0 O35 1.757664 1_655
Mn1 O20 1.713039 1_555
Mn1 O12 1.732426 1_555
Mn1 O7 1.738016 1_555
Mn1 O38 1.757664 1_565
Mn2 O29 1.713039 1_455
Mn2 O8 1.732426 1_555
Mn2 O9 1.738016 1_555
Mn2 O32 1.757664 1_455
Mn3 O11 1.713039 1_555
Mn3 O19 1.732426 1_555
Mn3 O37 1.738016 1_555
Mn3 O23 1.757664 1_545
Mn4 O30 1.713039 1_455
Mn4 O1 1.732426 1_555
Mn4 O16 1.738016 1_555
Mn4 O21 1.757664 1_445
Mn5 O18 1.713039 1_655
Mn5 O27 1.732426 1_555
Mn5 O5 1.738016 1_555
Mn5 O14 1.757664 1_665
Mn6 O24 1.713039 1_555
Mn6 O15 1.732426 1_555
Mn6 O10 1.738016 1_555
Mn6 O36 1.757664 1_555
Mn7 O31 1.713039 1_555
Mn7 O2 1.732426 1_555
Mn7 O39 1.738016 1_555
Mn7 O28 1.757664 1_555
Bi0 O33 2.159311 1_555
Bi0 O3 2.205243 1_655
Bi0 O21 2.256400 1_555
Bi0 O9 2.409265 1_655
Bi0 O7 2.488056 1_555
Bi1 O4 2.159311 1_555
Bi1 O22 2.205243 1_455
Bi1 O14 2.256400 1_555
Bi1 O0 2.409265 1_455
Bi1 O37 2.488056 1_555
Bi2 O22 2.159311 1_555
Bi2 O4 2.205243 1_555
Bi2 O28 2.256400 1_555
Bi2 O37 2.409265 1_555
Bi2 O0 2.488056 1_555
Bi3 O6 2.159311 1_555
Bi3 O13 2.205243 1_455
Bi3 O35 2.256400 1_555
Bi3 O5 2.409265 1_455
Bi3 O39 2.488056 1_555
Bi4 O34 2.159311 1_555
Bi4 O17 2.205243 1_555
Bi4 O38 2.256400 1_555
Bi4 O10 2.409265 1_555
Bi4 O16 2.488056 1_555
Bi5 O3 2.159311 1_555
Bi5 O33 2.205243 1_555
Bi5 O36 2.256400 1_555
Bi5 O7 2.409265 1_555
Bi5 O9 2.488056 1_555
Bi6 O13 2.159311 1_555
Bi6 O6 2.205243 1_555
Bi6 O23 2.256400 1_555
Bi6 O39 2.409265 1_555
Bi6 O5 2.488056 1_555
Bi7 O17 2.159311 1_555
Bi7 O34 2.205243 1_655
Bi7 O32 2.256400 1_555
Bi7 O16 2.409265 1_655
Bi7 O10 2.488056 1_555
O1 Zn4 2.117116 1_556
O1 Zn7 2.172704 1_545
O2 Zn2 2.117116 1_454
O2 Zn3 2.172704 1_555
O3 Zn7 2.030387 1_555
O4 Zn3 2.030387 1_555
O6 Zn5 2.030387 1_555
O8 Zn6 2.117116 1_555
O8 Zn0 2.172704 1_555
O11 Zn1 2.167864 1_555
O11 Zn0 2.191792 1_555
O12 Zn5 2.117116 1_655
O12 Zn1 2.172704 1_565
O13 Zn6 2.030387 1_555
O15 Zn3 2.117116 1_656
O15 Zn2 2.172704 1_555
O17 Zn1 2.030387 1_555
O18 Zn7 2.167864 1_554
O18 Zn2 2.191792 1_454
O19 Zn1 2.117116 1_455
O19 Zn5 2.172704 1_545
O20 Zn5 2.167864 1_555
O20 Zn6 2.191792 1_555
O22 Zn4 2.030387 1_555
O24 Zn3 2.167864 1_556
O24 Zn4 2.191792 1_556
O25 Zn0 2.167864 1_555
O25 Zn1 2.191792 1_455
O26 Zn0 2.117116 1_555
O26 Zn6 2.172704 1_555
O27 Zn7 2.117116 1_554
O27 Zn4 2.172704 1_565
O29 Zn6 2.167864 1_555
O29 Zn5 2.191792 1_655
O30 Zn4 2.167864 1_556
O30 Zn3 2.191792 1_656
O31 Zn2 2.167864 1_554
O31 Zn7 2.191792 1_554
O33 Zn2 2.030387 1_555
O34 Zn0 2.030387 1_555
