# generated using pymatgen
data_PrSbMo2O9
_symmetry_space_group_name_H-M   'P 1'
_cell_length_a   9.92219111
_cell_length_b   9.92219111
_cell_length_c   11.08322511
_cell_angle_alpha   68.32008103
_cell_angle_beta   68.32008103
_cell_angle_gamma   95.75725133
_symmetry_Int_Tables_number   1
_chemical_formula_structural   PrSbMo2O9
_chemical_formula_sum   'Pr4 Sb4 Mo8 O36'
_cell_volume   906.11660796
_cell_formula_units_Z   4
loop_
 _symmetry_equiv_pos_site_id
 _symmetry_equiv_pos_as_xyz
  1  'x, y, z'
loop_
 _atom_site_type_symbol
 _atom_site_label
 _atom_site_symmetry_multiplicity
 _atom_site_fract_x
 _atom_site_fract_y
 _atom_site_fract_z
 _atom_site_occupancy
  Pr  Pr0  1  0.67504400  0.32495600  0.75000000  1
  Pr  Pr1  1  0.32495600  0.67504400  0.25000000  1
  Pr  Pr2  1  0.12437400  0.87562600  0.75000000  1
  Pr  Pr3  1  0.87562600  0.12437400  0.25000000  1
  Sb  Sb0  1  0.64709000  0.62032100  0.96267600  1
  Sb  Sb1  1  0.37967900  0.35291000  0.53732400  1
  Sb  Sb2  1  0.35291000  0.37967900  0.03732400  1
  Sb  Sb3  1  0.62032100  0.64709000  0.46267600  1
  Mo  Mo0  1  0.04918700  0.25999800  0.47218700  1
  Mo  Mo1  1  0.74000200  0.95081300  0.02781300  1
  Mo  Mo2  1  0.95081300  0.74000200  0.52781300  1
  Mo  Mo3  1  0.25999800  0.04918700  0.97218700  1
  Mo  Mo4  1  0.06285600  0.43496900  0.80265300  1
  Mo  Mo5  1  0.56503100  0.93714400  0.69734700  1
  Mo  Mo6  1  0.93714400  0.56503100  0.19734700  1
  Mo  Mo7  1  0.43496900  0.06285600  0.30265300  1
  O  O0  1  0.06149400  0.09553600  0.59896300  1
  O  O1  1  0.90446400  0.93850600  0.90103700  1
  O  O2  1  0.93850600  0.90446400  0.40103700  1
  O  O3  1  0.09553600  0.06149400  0.09896300  1
  O  O4  1  0.87564500  0.29789000  0.55875700  1
  O  O5  1  0.70211000  0.12435500  0.94124300  1
  O  O6  1  0.12435500  0.70211000  0.44124300  1
  O  O7  1  0.29789000  0.87564500  0.05875700  1
  O  O8  1  0.05317600  0.22829300  0.32136500  1
  O  O9  1  0.77170700  0.94682400  0.17863500  1
  O  O10  1  0.94682400  0.77170700  0.67863500  1
  O  O11  1  0.22829300  0.05317600  0.82136500  1
  O  O12  1  0.78145400  0.59739500  0.57487800  1
  O  O13  1  0.40260500  0.21854600  0.92512200  1
  O  O14  1  0.21854600  0.40260500  0.42512200  1
  O  O15  1  0.59739500  0.78145400  0.07487800  1
  O  O16  1  0.98600100  0.30586300  0.98836600  1
  O  O17  1  0.69413700  0.01399900  0.51163400  1
  O  O18  1  0.01399900  0.69413700  0.01163400  1
  O  O19  1  0.30586300  0.98600100  0.48836600  1
  O  O20  1  0.14255300  0.61672600  0.77695300  1
  O  O21  1  0.38327400  0.85744700  0.72304700  1
  O  O22  1  0.85744700  0.38327400  0.22304700  1
  O  O23  1  0.61672600  0.14255300  0.27695300  1
  O  O24  1  0.91516700  0.44289800  0.74719500  1
  O  O25  1  0.55710200  0.08483300  0.75280500  1
  O  O26  1  0.08483300  0.55710200  0.25280500  1
  O  O27  1  0.44289800  0.91516700  0.24719500  1
  O  O28  1  0.21445100  0.37292300  0.69715400  1
  O  O29  1  0.62707700  0.78554900  0.80284600  1
  O  O30  1  0.78554900  0.62707700  0.30284600  1
  O  O31  1  0.37292300  0.21445100  0.19715400  1
  O  O32  1  0.57497600  0.45995700  0.90146500  1
  O  O33  1  0.54004300  0.42502400  0.59853500  1
  O  O34  1  0.42502400  0.54004300  0.09853500  1
  O  O35  1  0.45995700  0.57497600  0.40146500  1
loop_
_geom_bond_atom_site_label_1
_geom_bond_atom_site_label_2
_geom_bond_distance
_geom_bond_site_symmetry_2
Mo0 O0 1.767687 1_555
Mo0 O4 1.789606 1_455
Mo0 O8 1.799137 1_555
Mo0 O14 1.851492 1_555
Mo1 O1 1.767687 1_554
Mo1 O5 1.789606 1_564
Mo1 O9 1.799137 1_555
Mo1 O15 1.851492 1_555
Mo2 O2 1.767687 1_555
Mo2 O6 1.789606 1_655
Mo2 O10 1.799137 1_555
Mo2 O12 1.851492 1_555
Mo3 O3 1.767687 1_556
Mo3 O7 1.789606 1_546
Mo3 O11 1.799137 1_555
Mo3 O13 1.851492 1_555
Mo4 O20 1.768257 1_555
Mo4 O16 1.776323 1_455
Mo4 O24 1.784452 1_455
Mo4 O28 1.851177 1_555
Mo5 O21 1.768257 1_555
Mo5 O17 1.776323 1_565
Mo5 O25 1.784452 1_565
Mo5 O29 1.851177 1_555
Mo6 O22 1.768257 1_555
Mo6 O18 1.776323 1_655
Mo6 O26 1.784452 1_655
Mo6 O30 1.851177 1_555
Mo7 O23 1.768257 1_555
Mo7 O19 1.776323 1_545
Mo7 O27 1.784452 1_545
Mo7 O31 1.851177 1_555
O0 Pr2 2.509705 1_545
O1 Pr2 2.509705 1_655
O2 Pr3 2.509705 1_565
O3 Pr3 2.509705 1_455
O4 Pr0 2.436644 1_555
O5 Pr0 2.436644 1_555
O6 Pr1 2.436644 1_555
O7 Pr1 2.436644 1_555
O8 Pr3 2.461699 1_455
O9 Pr3 2.461699 1_565
O10 Pr2 2.461699 1_655
O11 Pr2 2.461699 1_545
O12 Sb3 2.349424 1_555
O12 Pr0 2.495197 1_555
O13 Sb2 2.349424 1_556
O13 Pr0 2.495197 1_555
O14 Sb1 2.349424 1_555
O14 Pr1 2.495197 1_555
O15 Sb0 2.349424 1_554
O15 Pr1 2.495197 1_555
O16 Pr3 2.500124 1_556
O17 Pr3 2.500124 1_555
O18 Pr2 2.500124 1_554
O19 Pr2 2.500124 1_555
O20 Pr2 2.507307 1_555
O21 Pr2 2.507307 1_555
O22 Pr3 2.507307 1_555
O23 Pr3 2.507307 1_555
O24 Pr0 2.531003 1_555
O25 Pr0 2.531003 1_555
O26 Pr1 2.531003 1_555
O27 Pr1 2.531003 1_555
O28 Sb1 2.011126 1_555
O29 Sb0 2.011126 1_555
O30 Sb3 2.011126 1_555
O31 Sb2 2.011126 1_555
O32 Sb2 2.016702 1_556
O32 Sb0 2.105188 1_555
O32 Pr0 2.508975 1_555
O33 Sb3 2.016702 1_555
O33 Sb1 2.105188 1_555
O33 Pr0 2.508975 1_555
O34 Sb0 2.016702 1_554
O34 Sb2 2.105188 1_555
O34 Pr1 2.508975 1_555
O35 Sb1 2.016702 1_555
O35 Sb3 2.105188 1_555
O35 Pr1 2.508975 1_555
