# generated using pymatgen
data_Na3LiTi2Si4(HO4)4
_symmetry_space_group_name_H-M   'P 1'
_cell_length_a   5.27908504
_cell_length_b   8.67413000
_cell_length_c   15.07977287
_cell_angle_alpha   106.71481122
_cell_angle_beta   89.62993286
_cell_angle_gamma   90.00000000
_symmetry_Int_Tables_number   1
_chemical_formula_structural   Na3LiTi2Si4(HO4)4
_chemical_formula_sum   'Na6 Li2 Ti4 Si8 H8 O32'
_cell_volume   661.33398995
_cell_formula_units_Z   2
loop_
 _symmetry_equiv_pos_site_id
 _symmetry_equiv_pos_as_xyz
  1  'x, y, z'
loop_
 _atom_site_type_symbol
 _atom_site_label
 _atom_site_symmetry_multiplicity
 _atom_site_fract_x
 _atom_site_fract_y
 _atom_site_fract_z
 _atom_site_occupancy
  Na  Na0  1  0.88427600  0.97467400  0.33151500  1
  Na  Na1  1  0.61572400  0.64315900  0.66848500  1
  Na  Na2  1  0.11572400  0.02532600  0.66848500  1
  Na  Na3  1  0.38427600  0.35684100  0.33151500  1
  Na  Na4  1  0.25000000  0.65057900  0.00000000  1
  Na  Na5  1  0.75000000  0.34942100  0.00000000  1
  Li  Li0  1  0.75000000  0.99020800  0.00000000  1
  Li  Li1  1  0.25000000  0.00979200  0.00000000  1
  Ti  Ti0  1  0.37639800  0.75917700  0.32997800  1
  Ti  Ti1  1  0.12360200  0.42919900  0.67002200  1
  Ti  Ti2  1  0.62360200  0.24082300  0.67002200  1
  Ti  Ti3  1  0.87639800  0.57080100  0.32997800  1
  Si  Si0  1  0.70765900  0.85639200  0.52751900  1
  Si  Si1  1  0.79234100  0.32887300  0.47248100  1
  Si  Si2  1  0.29234100  0.14360800  0.47248100  1
  Si  Si3  1  0.20765900  0.67112700  0.52751900  1
  Si  Si4  1  0.46369500  0.99328000  0.18452600  1
  Si  Si5  1  0.03630500  0.80875300  0.81547400  1
  Si  Si6  1  0.53630500  0.00672100  0.81547400  1
  Si  Si7  1  0.96369500  0.19124700  0.18452600  1
  H  H0  1  0.75921200  0.72515000  0.08846000  1
  H  H1  1  0.74078800  0.63669000  0.91154000  1
  H  H2  1  0.24078800  0.27485000  0.91154000  1
  H  H3  1  0.25921200  0.36331000  0.08846000  1
  H  H4  1  0.92726100  0.65926500  0.15537400  1
  H  H5  1  0.57273900  0.50389200  0.84462600  1
  H  H6  1  0.07273900  0.34073500  0.84462600  1
  H  H7  1  0.42726100  0.49610800  0.15537400  1
  O  O0  1  0.55144600  0.20566100  0.43033400  1
  O  O1  1  0.94855400  0.77532800  0.56966600  1
  O  O2  1  0.44855400  0.79433900  0.56966600  1
  O  O3  1  0.05144600  0.22467200  0.43033400  1
  O  O4  1  0.26200400  0.95164500  0.42665500  1
  O  O5  1  0.23799600  0.52499000  0.57334500  1
  O  O6  1  0.73799600  0.04835500  0.57334500  1
  O  O7  1  0.76200400  0.47501000  0.42665500  1
  O  O8  1  0.50450500  0.87249900  0.24978200  1
  O  O9  1  0.99549500  0.62271800  0.75021800  1
  O  O10  1  0.49549500  0.12750100  0.75021800  1
  O  O11  1  0.00450500  0.37728200  0.24978200  1
  O  O12  1  0.48218700  0.91034300  0.07516900  1
  O  O13  1  0.01781300  0.83517400  0.92483100  1
  O  O14  1  0.51781300  0.08965700  0.92483100  1
  O  O15  1  0.98218700  0.16482600  0.07516900  1
  O  O16  1  0.06776000  0.70554300  0.27274700  1
  O  O17  1  0.43224000  0.43279600  0.72725300  1
  O  O18  1  0.93224000  0.29445700  0.72725300  1
  O  O19  1  0.56776000  0.56720400  0.27274700  1
  O  O20  1  0.19095400  0.08852900  0.22079400  1
  O  O21  1  0.30904600  0.86773600  0.77920600  1
  O  O22  1  0.80904600  0.91147100  0.77920600  1
  O  O23  1  0.69095400  0.13226400  0.22079400  1
  O  O24  1  0.71319400  0.79307400  0.41455100  1
  O  O25  1  0.78680600  0.37852300  0.58544900  1
  O  O26  1  0.28680600  0.20692600  0.58544900  1
  O  O27  1  0.21319400  0.62147700  0.41455100  1
  O  O28  1  0.88963600  0.64456700  0.08934200  1
  O  O29  1  0.61036400  0.55522500  0.91065800  1
  O  O30  1  0.11036400  0.35543300  0.91065800  1
  O  O31  1  0.38963600  0.44477500  0.08934200  1
loop_
_geom_bond_atom_site_label_1
_geom_bond_atom_site_label_2
_geom_bond_distance
_geom_bond_site_symmetry_2
Na0 O8 2.393233 1_555
Na0 O3 2.420760 1_665
Na0 O16 2.443824 1_655
Na0 O24 2.446405 1_555
Na0 O4 2.505257 1_655
Na0 O23 2.651922 1_565
Na0 O20 2.701431 1_665
Na0 O0 2.751542 1_565
Na1 O9 2.393231 1_555
Na1 O2 2.420766 1_555
Na1 O17 2.443824 1_555
Na1 O25 2.446405 1_555
Na1 O5 2.505257 1_555
Na1 O22 2.651928 1_555
Na1 O21 2.701436 1_555
Na1 O1 2.751547 1_555
Na2 O10 2.393233 1_555
Na2 O1 2.420760 1_445
Na2 O18 2.443824 1_455
Na2 O26 2.446405 1_555
Na2 O6 2.505257 1_455
Na2 O21 2.651922 1_545
Na2 O22 2.701431 1_445
Na2 O2 2.751542 1_545
Na3 O11 2.393231 1_555
Na3 O0 2.420766 1_555
Na3 O19 2.443824 1_555
Na3 O27 2.446405 1_555
Na3 O7 2.505257 1_555
Na3 O20 2.651928 1_555
Na3 O23 2.701436 1_555
Na3 O3 2.751547 1_555
Na4 O28 2.333286 1_455
Na4 O29 2.333286 1_554
Na4 O13 2.532417 1_554
Na4 O12 2.532417 1_555
Na4 O31 2.634691 1_555
Na4 O30 2.634691 1_554
Na5 O30 2.333286 1_654
Na5 O31 2.333286 1_555
Na5 O15 2.532417 1_555
Na5 O14 2.532417 1_554
Na5 O28 2.634691 1_555
Na5 O29 2.634691 1_554
Li0 O15 2.027773 1_565
Li0 O14 2.027773 1_564
Li0 O12 2.048086 1_555
Li0 O13 2.048086 1_654
Li1 O12 2.027773 1_545
Li1 O13 2.027773 1_544
Li1 O15 2.048086 1_455
Li1 O14 2.048086 1_554
H0 O28 0.984015 1_555
H1 O29 0.984015 1_555
H2 O30 0.984015 1_555
H3 O31 0.984015 1_555
H4 O28 0.988307 1_555
H5 O29 0.988306 1_555
H6 O30 0.988307 1_555
H7 O31 0.988306 1_555
O0 Si2 1.658371 1_555
O0 Si1 1.668274 1_555
O1 Si3 1.658375 1_655
O1 Si0 1.668269 1_555
O2 Si0 1.658371 1_555
O2 Si3 1.668274 1_555
O3 Si1 1.658375 1_455
O3 Si2 1.668269 1_555
O4 Si2 1.617200 1_565
O4 Ti0 1.966184 1_555
O5 Si3 1.617200 1_555
O5 Ti1 1.966184 1_555
O6 Si0 1.617200 1_545
O6 Ti2 1.966184 1_555
O7 Si1 1.617200 1_555
O7 Ti3 1.966184 1_555
O8 Si4 1.645641 1_555
O8 Ti0 1.886614 1_555
O9 Si5 1.645627 1_655
O9 Ti1 1.886620 1_655
O10 Si6 1.645634 1_555
O10 Ti2 1.886614 1_555
O11 Si7 1.645627 1_455
O11 Ti3 1.886620 1_455
O12 Si4 1.600639 1_555
O13 Si5 1.600637 1_555
O14 Si6 1.600637 1_555
O15 Si7 1.600637 1_555
O16 Ti0 1.844769 1_555
O16 Ti3 1.923624 1_455
O17 Ti1 1.844769 1_555
O17 Ti2 1.923624 1_555
O18 Ti2 1.844769 1_555
O18 Ti1 1.923624 1_655
O19 Ti3 1.844769 1_555
O19 Ti0 1.923624 1_555
O20 Si4 1.668749 1_545
O20 Si7 1.679607 1_455
O21 Si5 1.668756 1_555
O21 Si6 1.679601 1_565
O22 Si6 1.668753 1_565
O22 Si5 1.679607 1_655
O23 Si7 1.668756 1_555
O23 Si4 1.679596 1_545
O24 Si0 1.632696 1_555
O24 Ti3 2.158121 1_555
O24 Ti0 2.165118 1_555
O25 Si1 1.632696 1_555
O25 Ti2 2.158121 1_555
O25 Ti1 2.165118 1_655
O26 Si2 1.632696 1_555
O26 Ti1 2.158121 1_555
O26 Ti2 2.165118 1_555
O27 Si3 1.632696 1_555
O27 Ti0 2.158121 1_555
O27 Ti3 2.165118 1_455
