# generated using pymatgen
data_ZnH12C4N5Cl3
_symmetry_space_group_name_H-M   'P 1'
_cell_length_a   13.22764500
_cell_length_b   7.80986200
_cell_length_c   13.52742528
_cell_angle_alpha   90.00000000
_cell_angle_beta   113.93924764
_cell_angle_gamma   90.00000000
_symmetry_Int_Tables_number   1
_chemical_formula_structural   ZnH12C4N5Cl3
_chemical_formula_sum   'Zn4 H48 C16 N20 Cl12'
_cell_volume   1277.25005523
_cell_formula_units_Z   4
loop_
 _symmetry_equiv_pos_site_id
 _symmetry_equiv_pos_as_xyz
  1  'x, y, z'
loop_
 _atom_site_type_symbol
 _atom_site_label
 _atom_site_symmetry_multiplicity
 _atom_site_fract_x
 _atom_site_fract_y
 _atom_site_fract_z
 _atom_site_occupancy
  Zn  Zn0  1  0.27987500  0.85397900  0.29281900  1
  Zn  Zn1  1  0.72012500  0.35397900  0.20718100  1
  Zn  Zn2  1  0.72012500  0.14602100  0.70718100  1
  Zn  Zn3  1  0.27987500  0.64602100  0.79281900  1
  H  H0  1  0.40803900  0.44892400  0.61775400  1
  H  H1  1  0.59196100  0.94892400  0.88224600  1
  H  H2  1  0.59196100  0.55107600  0.38224600  1
  H  H3  1  0.40803900  0.05107600  0.11775400  1
  H  H4  1  0.33877800  0.34432800  0.49380400  1
  H  H5  1  0.66122200  0.84432800  0.00619600  1
  H  H6  1  0.66122200  0.65567200  0.50619600  1
  H  H7  1  0.33877800  0.15567200  0.99380400  1
  H  H8  1  0.13810200  0.55973800  0.45377800  1
  H  H9  1  0.86189800  0.05973800  0.04622200  1
  H  H10  1  0.86189800  0.44026200  0.54622200  1
  H  H11  1  0.13810200  0.94026200  0.95377800  1
  H  H12  1  0.06301400  0.40871400  0.35855500  1
  H  H13  1  0.93698600  0.90871400  0.14144500  1
  H  H14  1  0.93698600  0.59128600  0.64144500  1
  H  H15  1  0.06301400  0.09128600  0.85855500  1
  H  H16  1  0.37999000  0.86285300  0.51190100  1
  H  H17  1  0.62001000  0.36285300  0.98809900  1
  H  H18  1  0.62001000  0.13714700  0.48809900  1
  H  H19  1  0.37999000  0.63714700  0.01190100  1
  H  H20  1  0.45472700  0.73076000  0.62165400  1
  H  H21  1  0.54527300  0.23076000  0.87834600  1
  H  H22  1  0.54527300  0.26924000  0.37834600  1
  H  H23  1  0.45472700  0.76924000  0.12165400  1
  H  H24  1  0.99890000  0.43598000  0.18250900  1
  H  H25  1  0.00110000  0.93598000  0.31749100  1
  H  H26  1  0.00110000  0.56402000  0.81749100  1
  H  H27  1  0.99890000  0.06402000  0.68250900  1
  H  H28  1  0.05579400  0.35061100  0.09428600  1
  H  H29  1  0.94420600  0.85061100  0.40571400  1
  H  H30  1  0.94420600  0.64938900  0.90571400  1
  H  H31  1  0.05579400  0.14938900  0.59428600  1
  H  H32  1  0.06902300  0.23212100  0.21174400  1
  H  H33  1  0.93097700  0.73212100  0.28825600  1
  H  H34  1  0.93097700  0.76787900  0.78825600  1
  H  H35  1  0.06902300  0.26787900  0.71174400  1
  H  H36  1  0.33227200  0.49667900  0.24918900  1
  H  H37  1  0.66772800  0.99667900  0.25081100  1
  H  H38  1  0.66772800  0.50332100  0.75081100  1
  H  H39  1  0.33227200  0.00332100  0.74918900  1
  H  H40  1  0.27466400  0.29414200  0.19245900  1
  H  H41  1  0.72533600  0.79414200  0.30754100  1
  H  H42  1  0.72533600  0.70585800  0.80754100  1
  H  H43  1  0.27466400  0.20585800  0.69245900  1
  H  H44  1  0.22706900  0.48683000  0.11463100  1
  H  H45  1  0.77293100  0.98683000  0.38536900  1
  H  H46  1  0.77293100  0.51317000  0.88536900  1
  H  H47  1  0.22706900  0.01317000  0.61463100  1
  C  C0  1  0.35120700  0.60765500  0.48579600  1
  C  C1  1  0.64879300  0.10765500  0.01420400  1
  C  C2  1  0.64879300  0.39234500  0.51420400  1
  C  C3  1  0.35120700  0.89234500  0.98579600  1
  C  C4  1  0.19408500  0.51934100  0.33461100  1
  C  C5  1  0.80591500  0.01934100  0.16538900  1
  C  C6  1  0.80591500  0.48065900  0.66538900  1
  C  C7  1  0.19408500  0.98065900  0.83461100  1
  C  C8  1  0.06778700  0.36151200  0.17905000  1
  C  C9  1  0.93221300  0.86151200  0.32095000  1
  C  C10  1  0.93221300  0.63848800  0.82095000  1
  C  C11  1  0.06778700  0.13848800  0.67905000  1
  C  C12  1  0.25688600  0.43102800  0.19596800  1
  C  C13  1  0.74311400  0.93102800  0.30403200  1
  C  C14  1  0.74311400  0.56897200  0.80403200  1
  C  C15  1  0.25688600  0.06897200  0.69596800  1
  N  N0  1  0.36737700  0.45499500  0.53580100  1
  N  N1  1  0.63262300  0.95499500  0.96419900  1
  N  N2  1  0.63262300  0.54500500  0.46419900  1
  N  N3  1  0.36737700  0.04500500  0.03580100  1
  N  N4  1  0.28371600  0.62618600  0.37970900  1
  N  N5  1  0.71628400  0.12618600  0.12029100  1
  N  N6  1  0.71628400  0.37381400  0.62029100  1
  N  N7  1  0.28371600  0.87381400  0.87970900  1
  N  N8  1  0.17239800  0.44820100  0.23858000  1
  N  N9  1  0.82760200  0.94820100  0.26142000  1
  N  N10  1  0.82760200  0.55179900  0.76142000  1
  N  N11  1  0.17239800  0.05179900  0.73858000  1
  N  N12  1  0.12362200  0.49867800  0.38250400  1
  N  N13  1  0.87637800  0.99867800  0.11749600  1
  N  N14  1  0.87637800  0.50132200  0.61749600  1
  N  N15  1  0.12362200  0.00132200  0.88250400  1
  N  N16  1  0.40812900  0.74302000  0.54098500  1
  N  N17  1  0.59187100  0.24302000  0.95901500  1
  N  N18  1  0.59187100  0.25698000  0.45901500  1
  N  N19  1  0.40812900  0.75698000  0.04098500  1
  Cl  Cl0  1  0.13408700  0.84299400  0.12860100  1
  Cl  Cl1  1  0.86591300  0.34299400  0.37139900  1
  Cl  Cl2  1  0.86591300  0.15700600  0.87139900  1
  Cl  Cl3  1  0.13408700  0.65700600  0.62860100  1
  Cl  Cl4  1  0.44934800  0.88595900  0.28966000  1
  Cl  Cl5  1  0.55065200  0.38595900  0.21034000  1
  Cl  Cl6  1  0.55065200  0.11404100  0.71034000  1
  Cl  Cl7  1  0.44934800  0.61404100  0.78966000  1
  Cl  Cl8  1  0.25126400  0.05744200  0.40187100  1
  Cl  Cl9  1  0.74873600  0.55744200  0.09812900  1
  Cl  Cl10  1  0.74873600  0.94255800  0.59812900  1
  Cl  Cl11  1  0.25126400  0.44255800  0.90187100  1
loop_
_geom_bond_atom_site_label_1
_geom_bond_atom_site_label_2
_geom_bond_distance
_geom_bond_site_symmetry_2
H0 N0 1.018167 1_555
H1 N1 1.018167 1_555
H2 N2 1.018167 1_555
H3 N3 1.018167 1_555
H4 N0 1.019045 1_555
H5 N1 1.019045 1_554
H6 N2 1.019045 1_555
H7 N3 1.019045 1_556
H8 N12 1.021674 1_555
H9 N13 1.021674 1_545
H10 N14 1.021674 1_555
H11 N15 1.021674 1_565
H12 N12 1.015165 1_555
H13 N13 1.015165 1_555
H14 N14 1.015165 1_555
H15 N15 1.015165 1_555
H16 N16 1.024870 1_555
H17 N17 1.024870 1_555
H18 N18 1.024870 1_555
H19 N19 1.024870 1_555
H20 N16 1.016883 1_555
H21 N17 1.016883 1_555
H22 N18 1.016883 1_555
H23 N19 1.016883 1_555
C0 N16 1.336314 1_555
C0 N0 1.344385 1_555
C0 N4 1.355616 1_555
C1 N17 1.336314 1_554
C1 N1 1.344385 1_544
C1 N5 1.355616 1_555
C2 N18 1.336314 1_555
C2 N2 1.344385 1_555
C2 N6 1.355616 1_555
C3 N19 1.336314 1_556
C3 N3 1.344385 1_566
C3 N7 1.355616 1_555
C4 N8 1.332700 1_555
C4 N12 1.343339 1_555
C4 N4 1.373739 1_555
C5 N9 1.332700 1_545
C5 N13 1.343339 1_545
C5 N5 1.373739 1_555
C6 N10 1.332700 1_555
C6 N14 1.343339 1_555
C6 N6 1.373739 1_555
C7 N11 1.332700 1_565
C7 N15 1.343339 1_565
C7 N7 1.373739 1_555
C8 H28 1.095251 1_555
C8 H24 1.097880 1_455
C8 H32 1.100527 1_555
C8 N8 1.455104 1_555
C9 H29 1.095251 1_555
C9 H25 1.097880 1_655
C9 H33 1.100527 1_555
C9 N9 1.455104 1_555
C10 H30 1.095251 1_555
C10 H26 1.097880 1_655
C10 H34 1.100527 1_555
C10 N10 1.455104 1_555
C11 H31 1.095251 1_555
C11 H27 1.097880 1_455
C11 H35 1.100527 1_555
C11 N11 1.455104 1_555
C12 H36 1.092227 1_555
C12 H44 1.097236 1_555
C12 H40 1.099774 1_555
C12 N8 1.456721 1_555
C13 H37 1.092227 1_555
C13 H45 1.097236 1_555
C13 H41 1.099774 1_555
C13 N9 1.456721 1_555
C14 H38 1.092227 1_555
C14 H46 1.097236 1_555
C14 H42 1.099774 1_555
C14 N10 1.456721 1_555
C15 H39 1.092227 1_555
C15 H47 1.097236 1_555
C15 H43 1.099774 1_555
C15 N11 1.456721 1_555
N4 Zn0 2.121469 1_555
N5 Zn1 2.121469 1_555
N6 Zn2 2.121469 1_555
N7 Zn3 2.121469 1_555
Cl0 Zn0 2.276948 1_555
Cl1 Zn1 2.276948 1_555
Cl2 Zn2 2.276948 1_555
Cl3 Zn3 2.276948 1_555
Cl4 Zn0 2.273169 1_555
Cl5 Zn1 2.273169 1_555
Cl6 Zn2 2.273169 1_555
Cl7 Zn3 2.273169 1_555
Cl8 Zn0 2.301625 1_545
Cl9 Zn1 2.301625 1_555
Cl10 Zn2 2.301625 1_565
Cl11 Zn3 2.301625 1_555
