# generated using pymatgen
data_MoW(SeS)2
_symmetry_space_group_name_H-M   'P 1'
_cell_length_a   3.25695545
_cell_length_b   3.25695545
_cell_length_c   36.50742100
_cell_angle_alpha   90.00000000
_cell_angle_beta   90.00000000
_cell_angle_gamma   119.99998883
_symmetry_Int_Tables_number   1
_chemical_formula_structural   MoW(SeS)2
_chemical_formula_sum   'Mo2 W2 Se4 S4'
_cell_volume   335.37869537
_cell_formula_units_Z   2
loop_
 _symmetry_equiv_pos_site_id
 _symmetry_equiv_pos_as_xyz
  1  'x, y, z'
loop_
 _atom_site_type_symbol
 _atom_site_label
 _atom_site_symmetry_multiplicity
 _atom_site_fract_x
 _atom_site_fract_y
 _atom_site_fract_z
 _atom_site_occupancy
  Mo  Mo0  1  0.00000000  0.00000000  0.09391900  1
  Mo  Mo1  1  0.00000000  0.00000000  0.46967000  1
  W  W0  1  0.33333300  0.66666700  0.28180800  1
  W  W1  1  0.33333300  0.66666700  0.65759000  1
  Se  Se0  1  0.00000000  0.00000000  0.70441000  1
  Se  Se1  1  0.33333300  0.66666700  0.42308100  1
  Se  Se2  1  0.33333300  0.66666700  0.51617000  1
  Se  Se3  1  0.00000000  0.00000000  0.61072100  1
  S  S0  1  0.00000000  0.00000000  0.32427300  1
  S  S1  1  0.33333300  0.66666700  0.05154200  1
  S  S2  1  0.33333300  0.66666700  0.13627700  1
  S  S3  1  0.00000000  0.00000000  0.23928700  1
loop_
_geom_bond_atom_site_label_1
_geom_bond_atom_site_label_2
_geom_bond_distance
_geom_bond_site_symmetry_2
Mo0 S2 2.434586 1_545
Mo0 S2 2.434588 1_555
Mo0 S2 2.434588 1_445
Mo0 S1 2.435026 1_545
Mo0 S1 2.435029 1_555
Mo0 S1 2.435029 1_445
Mo1 Se2 2.533326 1_545
Mo1 Se2 2.533328 1_445
Mo1 Se2 2.533328 1_555
Mo1 Se1 2.535505 1_545
Mo1 Se1 2.535507 1_445
Mo1 Se1 2.535507 1_555
Se0 W1 2.541169 1_545
Se0 W1 2.541172 1_555
Se0 W1 2.541172 1_445
Se3 W1 2.542373 1_545
Se3 W1 2.542375 1_555
Se3 W1 2.542375 1_445
S0 W0 2.437069 1_545
S0 W0 2.437071 1_555
S0 W0 2.437071 1_445
S3 W0 2.438370 1_545
S3 W0 2.438372 1_555
S3 W0 2.438372 1_445
