# generated using pymatgen
data_NaHfMg14
_symmetry_space_group_name_H-M   'P 1'
_cell_length_a   6.47001503
_cell_length_b   6.47001450
_cell_length_c   10.21498653
_cell_angle_alpha   90.00000000
_cell_angle_beta   90.00000000
_cell_angle_gamma   120.00000278
_symmetry_Int_Tables_number   1
_chemical_formula_structural   NaHfMg14
_chemical_formula_sum   'Na1 Hf1 Mg14'
_cell_volume   370.32152917
_cell_formula_units_Z   1
loop_
 _symmetry_equiv_pos_site_id
 _symmetry_equiv_pos_as_xyz
  1  'x, y, z'
loop_
 _atom_site_type_symbol
 _atom_site_label
 _atom_site_symmetry_multiplicity
 _atom_site_fract_x
 _atom_site_fract_y
 _atom_site_fract_z
 _atom_site_occupancy
  Na  Na0  1  0.16666700  0.33333300  0.12500000  1
  Hf  Hf0  1  0.16666700  0.33333300  0.62500000  1
  Mg  Mg0  1  0.16970509  0.83485205  0.12500000  1
  Mg  Mg1  1  0.17218506  0.83609203  0.62500000  1
  Mg  Mg2  1  0.66514795  0.33029491  0.12500000  1
  Mg  Mg3  1  0.66390797  0.32781494  0.62500000  1
  Mg  Mg4  1  0.66514795  0.83485205  0.12500000  1
  Mg  Mg5  1  0.66390797  0.83609203  0.62500000  1
  Mg  Mg6  1  0.33225513  0.16774487  0.37898730  1
  Mg  Mg7  1  0.33225513  0.16774487  0.87101270  1
  Mg  Mg8  1  0.33225513  0.66451127  0.37898730  1
  Mg  Mg9  1  0.33225513  0.66451127  0.87101270  1
  Mg  Mg10  1  0.83548873  0.16774487  0.37898730  1
  Mg  Mg11  1  0.83548873  0.16774487  0.87101270  1
  Mg  Mg12  1  0.83333300  0.66666700  0.37573533  1
  Mg  Mg13  1  0.83333300  0.66666700  0.87426467  1
loop_
_geom_bond_atom_site_label_1
_geom_bond_atom_site_label_2
_geom_bond_distance
_geom_bond_site_symmetry_2
Hf0 Mg6 3.123888 1_555
Hf0 Mg7 3.123888 1_555
Hf0 Mg8 3.123894 1_555
Hf0 Mg9 3.123894 1_555
Hf0 Mg11 3.123894 1_455
Hf0 Mg10 3.123894 1_455
Hf0 Mg5 3.235155 1_555
Hf0 Mg1 3.235155 1_555
Hf0 Mg5 3.235155 1_445
Hf0 Mg1 3.235155 1_545
Hf0 Mg3 3.235155 1_455
Hf0 Mg3 3.235155 1_555
Mg0 Mg12 3.179994 1_455
Mg0 Mg13 3.179994 1_454
Mg0 Mg9 3.195483 1_554
Mg0 Mg8 3.195483 1_555
Mg0 Mg7 3.195490 1_564
Mg0 Mg6 3.195490 1_565
Mg0 Mg2 3.205522 1_565
Mg0 Mg4 3.205523 1_555
Mg0 Na0 3.235052 1_565
Mg0 Na0 3.235052 1_555
Mg0 Mg2 3.264492 1_455
Mg0 Mg4 3.264492 1_455
Mg1 Mg9 3.125690 1_555
Mg1 Mg8 3.125690 1_555
Mg1 Mg7 3.125696 1_565
Mg1 Mg6 3.125696 1_565
Mg1 Mg13 3.176193 1_455
Mg1 Mg12 3.176193 1_455
Mg1 Mg3 3.181454 1_565
Mg1 Mg5 3.181455 1_555
Mg1 Mg3 3.288560 1_455
Mg1 Mg5 3.288560 1_455
Mg2 Mg7 3.195490 1_554
Mg2 Mg6 3.195490 1_555
Mg2 Mg4 3.205522 1_545
Mg2 Na0 3.235052 1_555
Mg2 Na0 3.235052 1_655
Mg2 Mg4 3.264492 1_555
Mg3 Mg7 3.125696 1_555
Mg3 Mg6 3.125696 1_555
Mg3 Mg5 3.181454 1_545
Mg3 Mg5 3.288560 1_555
Mg4 Mg8 3.195490 1_555
Mg4 Mg9 3.195490 1_554
Mg4 Na0 3.235052 1_555
Mg4 Na0 3.235052 1_665
Mg5 Mg9 3.125696 1_555
Mg5 Mg8 3.125696 1_555
Mg6 Na0 3.189786 1_555
Mg6 Mg8 3.214086 1_555
Mg6 Mg8 3.255929 1_545
Mg7 Na0 3.189786 1_556
Mg7 Mg9 3.214086 1_555
Mg7 Mg9 3.255929 1_545
Mg8 Na0 3.189792 1_555
Mg9 Na0 3.189792 1_556
Mg10 Mg3 3.125690 1_555
Mg10 Mg5 3.125696 1_545
Mg10 Na0 3.189792 1_655
Mg10 Mg2 3.195483 1_555
Mg10 Mg4 3.195490 1_545
Mg10 Mg8 3.214086 1_655
Mg10 Mg6 3.214086 1_655
Mg10 Mg12 3.235200 1_555
Mg10 Mg12 3.235200 1_545
Mg10 Mg8 3.255929 1_545
Mg10 Mg6 3.255929 1_555
Mg11 Mg3 3.125690 1_555
Mg11 Mg5 3.125696 1_545
Mg11 Na0 3.189792 1_656
Mg11 Mg2 3.195483 1_556
Mg11 Mg4 3.195490 1_546
Mg11 Mg9 3.214086 1_655
Mg11 Mg7 3.214086 1_655
Mg11 Mg13 3.235200 1_555
Mg11 Mg13 3.235200 1_545
Mg11 Mg9 3.255929 1_545
Mg11 Mg7 3.255929 1_555
Mg12 Mg5 3.176187 1_555
Mg12 Mg3 3.176193 1_555
Mg12 Mg4 3.179987 1_555
Mg12 Mg2 3.179994 1_555
Mg12 Mg6 3.235200 1_665
Mg12 Mg6 3.235200 1_555
Mg12 Mg8 3.235201 1_655
Mg12 Mg8 3.235201 1_555
Mg13 Mg5 3.176187 1_555
Mg13 Mg3 3.176193 1_555
Mg13 Mg4 3.179987 1_556
Mg13 Mg2 3.179994 1_556
Mg13 Mg7 3.235200 1_665
Mg13 Mg7 3.235200 1_555
Mg13 Mg9 3.235201 1_655
Mg13 Mg9 3.235201 1_555
