# generated using pymatgen
data_K2WS4
_symmetry_space_group_name_H-M   'P 1'
_cell_length_a   6.96599643
_cell_length_b   9.35552292
_cell_length_c   12.35209709
_cell_angle_alpha   90.00000000
_cell_angle_beta   90.00000000
_cell_angle_gamma   90.00000000
_symmetry_Int_Tables_number   1
_chemical_formula_structural   K2WS4
_chemical_formula_sum   'K8 W4 S16'
_cell_volume   804.99282837
_cell_formula_units_Z   4
loop_
 _symmetry_equiv_pos_site_id
 _symmetry_equiv_pos_as_xyz
  1  'x, y, z'
loop_
 _atom_site_type_symbol
 _atom_site_label
 _atom_site_symmetry_multiplicity
 _atom_site_fract_x
 _atom_site_fract_y
 _atom_site_fract_z
 _atom_site_occupancy
  K  K0  1  0.75000000  0.53722330  0.33111994  1
  K  K1  1  0.25000000  0.46277670  0.66888006  1
  K  K2  1  0.25000000  0.96277670  0.83111994  1
  K  K3  1  0.75000000  0.03722330  0.16888006  1
  K  K4  1  0.75000000  0.85013321  0.60048251  1
  K  K5  1  0.25000000  0.14986679  0.39951749  1
  K  K6  1  0.25000000  0.64986679  0.10048251  1
  K  K7  1  0.75000000  0.35013321  0.89951749  1
  W  W0  1  0.75000000  0.75950177  0.92747969  1
  W  W1  1  0.25000000  0.24049823  0.07252031  1
  W  W2  1  0.25000000  0.74049823  0.42747969  1
  W  W3  1  0.75000000  0.25950177  0.57252031  1
  S  S0  1  0.00342228  0.66167311  0.85376103  1
  S  S1  1  0.99657772  0.33832689  0.14623897  1
  S  S2  1  0.99657772  0.83832689  0.35376103  1
  S  S3  1  0.50342228  0.33832689  0.14623897  1
  S  S4  1  0.00342228  0.16167311  0.64623897  1
  S  S5  1  0.49657772  0.66167311  0.85376103  1
  S  S6  1  0.49657772  0.16167311  0.64623897  1
  S  S7  1  0.50342228  0.83832689  0.35376103  1
  S  S8  1  0.75000000  0.99143887  0.89809254  1
  S  S9  1  0.25000000  0.00856113  0.10190746  1
  S  S10  1  0.25000000  0.50856113  0.39809254  1
  S  S11  1  0.75000000  0.49143887  0.60190746  1
  S  S12  1  0.75000000  0.21077366  0.39875071  1
  S  S13  1  0.25000000  0.78922634  0.60124929  1
  S  S14  1  0.25000000  0.28922634  0.89875071  1
  S  S15  1  0.75000000  0.71077366  0.10124929  1
loop_
_geom_bond_atom_site_label_1
_geom_bond_atom_site_label_2
_geom_bond_distance
_geom_bond_site_symmetry_2
K0 S12 3.166296 1_555
K0 S15 3.270835 1_555
K0 S7 3.311186 1_555
K0 S2 3.311186 1_555
K0 S11 3.372109 1_555
K0 S1 3.409984 1_555
K0 S3 3.409984 1_555
K0 S10 3.589920 1_555
K0 S10 3.589920 1_655
K1 S13 3.166296 1_555
K1 S14 3.270835 1_555
K1 S6 3.311186 1_555
K1 S4 3.311186 1_555
K1 S10 3.372109 1_555
K1 S5 3.409984 1_555
K1 S0 3.409984 1_555
K1 S11 3.589920 1_455
K1 S11 3.589920 1_555
K2 S14 3.166296 1_565
K2 S13 3.270835 1_555
K2 S0 3.311186 1_555
K2 S5 3.311186 1_555
K2 S9 3.372109 1_566
K2 S6 3.409984 1_565
K2 S4 3.409984 1_565
K2 S8 3.589920 1_455
K2 S8 3.589920 1_555
K3 S15 3.166296 1_545
K3 S12 3.270835 1_555
K3 S3 3.311186 1_555
K3 S1 3.311186 1_555
K3 S8 3.372109 1_544
K3 S7 3.409984 1_545
K3 S2 3.409984 1_545
K3 S9 3.589920 1_555
K3 S9 3.589920 1_655
K4 S11 3.355819 1_555
K4 S6 3.454108 1_565
K4 S4 3.454108 1_665
K4 S7 3.499997 1_555
K4 S2 3.499997 1_555
K4 S13 3.529314 1_655
K4 S13 3.529314 1_555
K5 S10 3.355819 1_555
K5 S7 3.454108 1_545
K5 S2 3.454108 1_445
K5 S6 3.499997 1_555
K5 S4 3.499997 1_555
K5 S12 3.529314 1_455
K5 S12 3.529314 1_555
K6 S9 3.355819 1_565
K6 S3 3.454108 1_555
K6 S1 3.454108 1_455
K6 S0 3.499997 1_554
K6 S5 3.499997 1_554
K6 S15 3.529314 1_455
K6 S15 3.529314 1_555
K7 S8 3.355819 1_545
K7 S5 3.454108 1_555
K7 S0 3.454108 1_655
K7 S1 3.499997 1_556
K7 S3 3.499997 1_556
K7 S14 3.529314 1_555
K7 S14 3.529314 1_655
S0 W0 2.187061 1_455
S1 W1 2.187061 1_655
S2 W2 2.187061 1_655
S3 W1 2.187061 1_555
S4 W3 2.187061 1_455
S5 W0 2.187061 1_555
S6 W3 2.187061 1_555
S7 W2 2.187061 1_555
S8 W0 2.200045 1_555
S9 W1 2.200045 1_555
S10 W2 2.200045 1_555
S11 W3 2.200045 1_555
S12 W3 2.194297 1_555
S13 W2 2.194297 1_555
S14 W1 2.194297 1_556
S15 W0 2.194297 1_554
