# generated using pymatgen
data_K2Co(SeO3)2
_symmetry_space_group_name_H-M   'P 1'
_cell_length_a   5.59962857
_cell_length_b   7.07860961
_cell_length_c   9.04428127
_cell_angle_alpha   72.86970828
_cell_angle_beta   89.69390176
_cell_angle_gamma   89.26184660
_symmetry_Int_Tables_number   1
_chemical_formula_structural   K2Co(SeO3)2
_chemical_formula_sum   'K4 Co2 Se4 O12'
_cell_volume   342.56089129
_cell_formula_units_Z   2
loop_
 _symmetry_equiv_pos_site_id
 _symmetry_equiv_pos_as_xyz
  1  'x, y, z'
loop_
 _atom_site_type_symbol
 _atom_site_label
 _atom_site_symmetry_multiplicity
 _atom_site_fract_x
 _atom_site_fract_y
 _atom_site_fract_z
 _atom_site_occupancy
  K  K0  1  0.99979800  0.61092700  0.80536100  1
  K  K1  1  0.49979800  0.11093000  0.30535900  1
  K  K2  1  0.00020200  0.38907400  0.19463900  1
  K  K3  1  0.50020200  0.88907100  0.69464100  1
  Co  Co0  1  0.50000000  0.50000000  0.50000000  1
  Co  Co1  1  0.00000000  0.00000000  0.00000000  1
  Se  Se0  1  0.99952200  0.26261900  0.63154000  1
  Se  Se1  1  0.49952900  0.76261200  0.13153400  1
  Se  Se2  1  0.00047800  0.73738100  0.36846000  1
  Se  Se3  1  0.50047100  0.23738800  0.86846600  1
  O  O0  1  0.24425100  0.73128200  0.48770400  1
  O  O1  1  0.74425700  0.23128200  0.98770300  1
  O  O2  1  0.75575000  0.26871900  0.51229600  1
  O  O3  1  0.25574300  0.76871900  0.01229700  1
  O  O4  1  0.24142000  0.26584900  0.51132000  1
  O  O5  1  0.74140700  0.76584300  0.01132400  1
  O  O6  1  0.75858000  0.73415100  0.48868000  1
  O  O7  1  0.25859300  0.23415700  0.98867500  1
  O  O8  1  0.00078700  0.97662200  0.24569400  1
  O  O9  1  0.50078700  0.47661700  0.74570500  1
  O  O10  1  0.99921300  0.02337900  0.75430700  1
  O  O11  1  0.49921300  0.52338300  0.25429600  1
loop_
_geom_bond_atom_site_label_1
_geom_bond_atom_site_label_2
_geom_bond_distance
_geom_bond_site_symmetry_2
K0 O5 2.810632 1_556
K0 O10 2.818300 1_565
K0 O3 2.847077 1_656
K0 O9 3.046684 1_655
K0 O7 3.046807 1_655
K0 O6 3.054168 1_555
K0 O9 3.064264 1_555
K0 O0 3.065896 1_655
K0 O1 3.074454 1_555
K0 Se0 3.291472 1_555
K1 O4 2.810593 1_555
K1 O11 2.818296 1_555
K1 O2 2.847091 1_555
K1 O8 3.046700 1_645
K1 O6 3.046837 1_545
K1 O7 3.054159 1_554
K1 O8 3.064281 1_545
K1 O1 3.065903 1_554
K1 O0 3.074493 1_545
K1 Se1 3.291560 1_545
K2 O7 2.810643 1_554
K2 O8 2.818299 1_545
K2 O1 2.847077 1_454
K2 O11 3.046684 1_455
K2 O5 3.046805 1_455
K2 O4 3.054168 1_555
K2 O11 3.064264 1_555
K2 O2 3.065893 1_455
K2 O3 3.074454 1_555
K2 Se2 3.291466 1_555
K3 O6 2.810598 1_555
K3 O9 2.818302 1_555
K3 O0 2.847089 1_555
K3 O10 3.046703 1_465
K3 O4 3.046832 1_565
K3 O5 3.054151 1_556
K3 O10 3.064283 1_565
K3 O3 3.065903 1_556
K3 O2 3.074496 1_565
K3 Se3 3.291554 1_565
Co0 O2 2.139529 1_555
Co0 O0 2.139531 1_555
Co0 O11 2.179235 1_555
Co0 O9 2.179244 1_555
Co0 O4 2.194201 1_555
Co0 O6 2.194201 1_555
Co1 O3 2.139502 1_545
Co1 O1 2.139507 1_454
Co1 O10 2.179143 1_454
Co1 O8 2.179153 1_545
Co1 O7 2.194274 1_554
Co1 O5 2.194275 1_445
O0 Se2 1.736401 1_555
O1 Se3 1.736411 1_555
O2 Se0 1.736395 1_555
O3 Se1 1.736409 1_555
O4 Se0 1.728567 1_455
O5 Se1 1.728422 1_555
O6 Se2 1.728567 1_655
O7 Se3 1.728417 1_555
O8 Se2 1.730064 1_555
O9 Se3 1.729981 1_555
O10 Se0 1.730062 1_555
O11 Se1 1.729985 1_555
