# generated using pymatgen
data_Li7V3P8O29
_symmetry_space_group_name_H-M   'P 1'
_cell_length_a   9.86675048
_cell_length_b   9.87760130
_cell_length_c   13.88344347
_cell_angle_alpha   90.13412223
_cell_angle_beta   90.29206273
_cell_angle_gamma   59.86509831
_symmetry_Int_Tables_number   1
_chemical_formula_structural   Li7V3P8O29
_chemical_formula_sum   'Li14 V6 P16 O58'
_cell_volume   1170.18854197
_cell_formula_units_Z   2
loop_
 _symmetry_equiv_pos_site_id
 _symmetry_equiv_pos_as_xyz
  1  'x, y, z'
loop_
 _atom_site_type_symbol
 _atom_site_label
 _atom_site_symmetry_multiplicity
 _atom_site_fract_x
 _atom_site_fract_y
 _atom_site_fract_z
 _atom_site_occupancy
  Li  Li0  1  0.90810419  0.77376912  0.06316326  1
  Li  Li1  1  0.77194201  0.91082226  0.56160919  1
  Li  Li2  1  0.90994443  0.31266787  0.56212138  1
  Li  Li3  1  0.67144510  0.66551765  0.38178507  1
  Li  Li4  1  0.66305875  0.66311869  0.88174238  1
  Li  Li5  1  0.77559010  0.31431120  0.06187471  1
  Li  Li6  1  0.31754825  0.91184213  0.06204685  1
  Li  Li7  1  0.67205206  0.22932178  0.44022102  1
  Li  Li8  1  0.31664642  0.77371121  0.56338706  1
  Li  Li9  1  0.67658291  0.09757550  0.93905233  1
  Li  Li10  1  0.22764388  0.67703560  0.93726133  1
  Li  Li11  1  0.09619511  0.67678652  0.43826296  1
  Li  Li12  1  0.22514763  0.09651730  0.43954597  1
  Li  Li13  1  0.09532640  0.22759664  0.94168083  1
  V  V0  1  0.56768187  0.43057108  0.24783509  1
  V  V1  1  0.43092678  0.56903514  0.74924602  1
  V  V2  1  0.56819435  0.00238414  0.74796127  1
  V  V3  1  0.43147817  0.00340906  0.25065141  1
  V  V4  1  0.00048984  0.56805662  0.24883410  1
  V  V5  1  0.00320363  0.43247696  0.75009062  1
  P  P0  1  0.90896437  0.76911601  0.84128309  1
  P  P1  1  0.76859434  0.91143641  0.34350654  1
  P  P2  1  0.90781766  0.32260948  0.34162474  1
  P  P3  1  0.66332189  0.66941417  0.12502134  1
  P  P4  1  0.66853515  0.66786096  0.62491031  1
  P  P5  1  0.77105883  0.32091521  0.84311041  1
  P  P6  1  0.67793927  0.23399547  0.65828785  1
  P  P7  1  0.32271402  0.91142128  0.84374829  1
  P  P8  1  0.67816042  0.08719653  0.15803700  1
  P  P9  1  0.32263521  0.76885813  0.34321479  1
  P  P10  1  0.23292764  0.68295155  0.15684236  1
  P  P11  1  0.33714208  0.33153786  0.37469138  1
  P  P12  1  0.33309359  0.33365252  0.87468880  1
  P  P13  1  0.08516282  0.68105662  0.65597189  1
  P  P14  1  0.23269066  0.08725852  0.65786881  1
  P  P15  1  0.08813187  0.23290258  0.15725090  1
  O  O0  1  0.99261129  0.75884728  0.56621874  1
  O  O1  1  0.91901678  0.75165597  0.34519079  1
  O  O2  1  0.75851815  0.99858317  0.06787756  1
  O  O3  1  0.74399591  0.91903658  0.84198863  1
  O  O4  1  0.88538192  0.62621572  0.82671371  1
  O  O5  1  0.80906252  0.67679749  0.16115337  1
  O  O6  1  0.88038597  0.48884508  0.32891786  1
  O  O7  1  0.99778009  0.23957018  0.06777529  1
  O  O8  1  0.92360641  0.32897191  0.84332034  1
  O  O9  1  0.67735925  0.81363759  0.66430838  1
  O  O10  1  0.62646660  0.88636142  0.32564078  1
  O  O11  1  0.81726831  0.51452075  0.66680924  1
  O  O12  1  0.65468983  0.67234265  0.01660092  1
  O  O13  1  0.67679645  0.66489075  0.51657427  1
  O  O14  1  0.67026908  0.51494213  0.16313981  1
  O  O15  1  0.48900064  0.88682073  0.82517396  1
  O  O16  1  0.51094745  0.81679013  0.16713711  1
  O  O17  1  0.74388627  0.33339354  0.33959411  1
  O  O18  1  0.78789302  0.21434695  0.75045306  1
  O  O19  1  0.76096248  0.23786591  0.56837236  1
  O  O20  1  0.75761419  0.24087776  0.93189686  1
  O  O21  1  0.63137787  0.48747077  0.82837221  1
  O  O22  1  0.51606909  0.67526374  0.66067502  1
  O  O23  1  0.66573548  0.25015382  0.15850751  1
  O  O24  1  0.48849722  0.62599527  0.32622989  1
  O  O25  1  0.33500757  0.91827286  0.34537150  1
  O  O26  1  0.78624985  0.99999028  0.25079574  1
  O  O27  1  0.74773229  0.00676241  0.43243723  1
  O  O28  1  0.24446980  0.99779691  0.56751843  1
  O  O29  1  0.66916542  0.08017069  0.66087176  1
  O  O30  1  0.51734286  0.37633375  0.67305630  1
  O  O31  1  0.33160729  0.75211306  0.84554500  1
  O  O32  1  0.48904576  0.32389511  0.33265301  1
  O  O33  1  0.38284226  0.52224036  0.17779376  1
  O  O34  1  0.25191469  0.75578551  0.06676268  1
  O  O35  1  0.24396840  0.75418133  0.43193932  1
  O  O36  1  0.21621300  0.78903635  0.24968996  1
  O  O37  1  0.24420226  0.67244925  0.65670972  1
  O  O38  1  0.48419232  0.18762835  0.83179594  1
  O  O39  1  0.51828574  0.09986765  0.17268462  1
  O  O40  1  0.32422413  0.48689129  0.83864344  1
  O  O41  1  0.32874479  0.32255239  0.98159092  1
  O  O42  1  0.34545061  0.31481025  0.48158825  1
  O  O43  1  0.19052407  0.48275188  0.33770869  1
  O  O44  1  0.38228713  0.09713260  0.67641470  1
  O  O45  1  0.33282913  0.18100243  0.33008283  1
  O  O46  1  0.08570840  0.66969830  0.15558409  1
  O  O47  1  0.99427240  0.78922075  0.74940959  1
  O  O48  1  0.99909357  0.75720213  0.93155290  1
  O  O49  1  0.09891443  0.52083383  0.67361567  1
  O  O50  1  0.18142905  0.33246103  0.82994632  1
  O  O51  1  0.10502490  0.37594975  0.17309922  1
  O  O52  1  0.24832799  0.07971380  0.16013505  1
  O  O53  1  0.24670964  0.00700721  0.93229208  1
  O  O54  1  0.21506183  0.99964192  0.75050751  1
  O  O55  1  0.08485303  0.25008498  0.65736365  1
  O  O56  1  0.99774566  0.24081923  0.43139936  1
  O  O57  1  0.99628478  0.21618731  0.25004867  1
loop_
_geom_bond_atom_site_label_1
_geom_bond_atom_site_label_2
_geom_bond_distance
_geom_bond_site_symmetry_2
Li0 O2 1.955322 1_555
Li0 O46 1.987074 1_655
Li0 O48 2.009791 1_554
Li0 O5 2.163960 1_555
Li1 O0 1.927538 1_555
Li1 O27 1.986838 1_565
Li1 O29 2.006459 1_565
Li1 O9 2.178267 1_555
Li2 O19 1.950997 1_555
Li2 O56 1.985094 1_555
Li2 O55 2.004568 1_655
Li2 O11 2.256836 1_555
Li3 O13 1.871751 1_555
Li3 O6 2.057009 1_555
Li3 O10 2.143704 1_555
Li3 O24 2.167405 1_555
Li4 O12 1.874528 1_556
Li4 O21 2.047695 1_555
Li4 O15 2.152400 1_555
Li4 O4 2.177472 1_555
Li5 O7 1.931647 1_555
Li5 O20 1.983364 1_554
Li5 O23 2.021098 1_555
Li5 O14 2.217628 1_555
Li6 O34 1.950124 1_555
Li6 O52 1.983000 1_565
Li6 O53 1.988148 1_564
Li6 O16 2.197878 1_555
Li7 O27 1.937393 1_555
Li7 O19 1.999978 1_555
Li7 O17 2.063790 1_555
Li7 O32 2.156104 1_555
Li8 O28 1.956226 1_555
Li8 O37 1.980764 1_555
Li8 O35 2.001445 1_555
Li8 O22 2.167833 1_555
Li9 O20 1.946912 1_555
Li9 O2 2.002067 1_546
Li9 O3 2.046624 1_545
Li9 O38 2.212242 1_555
Li10 O48 1.980930 1_455
Li10 O31 2.001276 1_555
Li10 O34 2.017684 1_556
Li10 O40 2.124709 1_555
Li11 O35 1.959290 1_555
Li11 O1 1.988982 1_455
Li11 O0 2.009321 1_455
Li11 O43 2.167520 1_555
Li12 O56 1.966149 1_455
Li12 O28 1.990442 1_545
Li12 O25 2.017843 1_545
Li12 O45 2.246655 1_555
Li13 O53 1.930921 1_555
Li13 O7 1.976595 1_456
Li13 O8 2.004376 1_455
Li13 O50 2.259550 1_555
O0 P13 1.505120 1_655
O1 P1 1.530383 1_555
O1 V4 2.064099 1_655
O2 P8 1.506570 1_565
O3 P0 1.556382 1_555
O3 V2 1.984640 1_565
O4 P0 1.554148 1_555
O4 V5 1.978530 1_655
O5 P3 1.556450 1_555
O5 V4 2.036826 1_655
O6 P2 1.534667 1_555
O6 V4 2.049671 1_655
O7 P15 1.507431 1_655
O8 P5 1.546622 1_555
O8 V5 2.039652 1_655
O9 P4 1.581725 1_555
O9 V2 1.992774 1_565
O10 P1 1.560236 1_555
O10 V3 1.968203 1_565
O11 P4 1.596780 1_555
O11 V5 1.961952 1_655
O12 P3 1.506747 1_555
O13 P4 1.506119 1_555
O14 P3 1.584699 1_555
O14 V0 1.991343 1_555
O15 P7 1.556015 1_555
O15 V2 1.993124 1_565
O16 P3 1.590224 1_555
O16 V3 1.976134 1_565
O17 P2 1.566813 1_555
O17 V0 1.968352 1_555
O18 P5 1.615783 1_555
O18 P6 1.620970 1_555
O19 P6 1.507627 1_555
O20 P5 1.507845 1_555
O21 P5 1.539471 1_555
O21 V1 2.037068 1_555
O22 P4 1.553044 1_555
O22 V1 2.054376 1_555
O23 P8 1.551707 1_555
O23 V0 1.980054 1_555
O24 P9 1.552007 1_555
O24 V0 2.001423 1_555
O25 P9 1.540978 1_555
O25 V3 2.040634 1_565
O26 P8 1.614508 1_565
O26 P1 1.616398 1_555
O27 P1 1.501966 1_545
O28 P14 1.503664 1_565
O29 P6 1.565176 1_555
O29 V2 1.957045 1_555
O30 P6 1.514813 1_555
O30 V1 1.959371 1_555
O31 P7 1.531668 1_555
O31 V1 2.059290 1_555
O32 P11 1.577284 1_555
O32 V0 1.983670 1_555
O33 P10 1.559690 1_555
O33 V0 1.849199 1_555
O34 P10 1.502876 1_555
O35 P9 1.504787 1_555
O36 P9 1.614140 1_555
O36 P10 1.615295 1_555
O37 P13 1.528271 1_555
O37 V1 2.044663 1_555
O38 P12 1.582276 1_555
O38 V2 1.966424 1_555
O39 P8 1.533056 1_555
O39 V3 1.909649 1_555
O40 P12 1.555400 1_555
O40 V1 2.045223 1_555
O41 P12 1.490891 1_555
O42 P11 1.490930 1_555
O43 P11 1.553641 1_555
O43 V4 2.035460 1_555
O44 P14 1.547589 1_555
O44 V2 1.867965 1_555
O45 P11 1.629503 1_555
O45 V3 1.878356 1_555
O46 P10 1.522525 1_555
O46 V4 2.062966 1_555
O47 P0 1.598385 1_555
O47 P13 1.634587 1_655
O48 P0 1.503187 1_555
O49 P13 1.539141 1_555
O49 V5 1.903391 1_555
O50 P12 1.622805 1_555
O50 V5 1.881061 1_555
O51 P15 1.518980 1_555
O51 V4 1.951070 1_555
O52 P15 1.545230 1_555
O52 V3 2.006645 1_555
O53 P7 1.502668 1_545
O54 P14 1.609985 1_565
O54 P7 1.620251 1_555
O55 P14 1.535863 1_555
O55 V5 2.023485 1_555
O56 P2 1.505699 1_555
O57 P2 1.602223 1_555
O57 P15 1.634473 1_655
