# generated using pymatgen
data_DyBiRu2O7
_symmetry_space_group_name_H-M   'P 1'
_cell_length_a   7.29184570
_cell_length_b   7.29184570
_cell_length_c   7.29184570
_cell_angle_alpha   120.44281489
_cell_angle_beta   119.69043620
_cell_angle_gamma   89.88587733
_symmetry_Int_Tables_number   1
_chemical_formula_structural   DyBiRu2O7
_chemical_formula_sum   'Dy2 Bi2 Ru4 O14'
_cell_volume   273.86431331
_cell_formula_units_Z   2
loop_
 _symmetry_equiv_pos_site_id
 _symmetry_equiv_pos_as_xyz
  1  'x, y, z'
loop_
 _atom_site_type_symbol
 _atom_site_label
 _atom_site_symmetry_multiplicity
 _atom_site_fract_x
 _atom_site_fract_y
 _atom_site_fract_z
 _atom_site_occupancy
  Dy  Dy0  1  0.50000000  0.50000000  0.00000000  1
  Dy  Dy1  1  0.00000000  0.50000000  0.50000000  1
  Bi  Bi0  1  0.50000000  0.50000000  0.50000000  1
  Bi  Bi1  1  0.50000000  0.00000000  0.00000000  1
  Ru  Ru0  1  0.00000000  0.00000000  0.50000000  1
  Ru  Ru1  1  0.00000000  0.50000000  0.00000000  1
  Ru  Ru2  1  0.00000000  0.00000000  0.00000000  1
  Ru  Ru3  1  0.50000000  0.00000000  0.50000000  1
  O  O0  1  0.63418000  0.38418000  0.25000000  1
  O  O1  1  0.36582000  0.61582000  0.75000000  1
  O  O2  1  0.33078500  0.07984800  0.66180500  1
  O  O3  1  0.91804300  0.07984800  0.24906200  1
  O  O4  1  0.91750500  0.66750500  0.25000000  1
  O  O5  1  0.91804300  0.66898100  0.83819500  1
  O  O6  1  0.33078500  0.66898100  0.25093800  1
  O  O7  1  0.32982500  0.07982500  0.25000000  1
  O  O8  1  0.66921500  0.92015200  0.33819500  1
  O  O9  1  0.08195700  0.92015200  0.75093800  1
  O  O10  1  0.08249500  0.33249500  0.75000000  1
  O  O11  1  0.08195700  0.33101900  0.16180500  1
  O  O12  1  0.66921500  0.33101900  0.74906200  1
  O  O13  1  0.67017500  0.92017500  0.75000000  1
loop_
_geom_bond_atom_site_label_1
_geom_bond_atom_site_label_2
_geom_bond_distance
_geom_bond_site_symmetry_2
Dy0 O0 2.187162 1_555
Dy0 O1 2.187162 1_554
Dy0 O8 2.516881 1_555
Dy0 O2 2.516881 1_554
Dy0 O6 2.516887 1_555
Dy0 O12 2.516887 1_554
Dy0 O4 2.518733 1_555
Dy0 O10 2.518733 1_554
Dy1 O0 2.187162 1_455
Dy1 O1 2.187162 1_555
Dy1 O3 2.516881 1_455
Dy1 O5 2.516881 1_455
Dy1 O9 2.516881 1_555
Dy1 O11 2.516881 1_555
Dy1 O4 2.518733 1_455
Dy1 O10 2.518733 1_555
Bi0 O1 2.279743 1_555
Bi0 O0 2.279743 1_555
Bi0 O13 2.522806 1_555
Bi0 O7 2.522806 1_555
Bi0 O5 2.526022 1_555
Bi0 O11 2.526022 1_555
Bi0 O6 2.526023 1_555
Bi0 O12 2.526023 1_555
Bi1 O1 2.279743 1_544
Bi1 O0 2.279743 1_555
Bi1 O13 2.522806 1_544
Bi1 O7 2.522806 1_555
Bi1 O3 2.526022 1_555
Bi1 O9 2.526022 1_544
Bi1 O8 2.526022 1_545
Bi1 O2 2.526022 1_554
O2 Ru3 1.999180 1_555
O2 Ru0 2.009788 1_555
O3 Ru2 1.999174 1_655
O3 Ru0 2.009795 1_655
O4 Ru0 2.000987 1_665
O4 Ru1 2.000987 1_655
O5 Ru2 1.999174 1_666
O5 Ru1 2.009795 1_656
O6 Ru3 1.999175 1_565
O6 Ru1 2.009789 1_555
O7 Ru2 2.008308 1_555
O7 Ru3 2.008308 1_555
O8 Ru3 1.999180 1_565
O8 Ru0 2.009788 1_665
O9 Ru2 1.999174 1_566
O9 Ru0 2.009795 1_565
O10 Ru0 2.000987 1_555
O10 Ru1 2.000987 1_556
O11 Ru2 1.999174 1_555
O11 Ru1 2.009795 1_555
O12 Ru3 1.999175 1_555
O12 Ru1 2.009789 1_656
O13 Ru2 2.008308 1_666
O13 Ru3 2.008308 1_565
