# generated using pymatgen
data_Ho3Ni2
_symmetry_space_group_name_H-M   'P 1'
_cell_length_a   7.14018128
_cell_length_b   7.14018129
_cell_length_c   7.14018080
_cell_angle_alpha   72.82122924
_cell_angle_beta   72.82122926
_cell_angle_gamma   72.82123553
_symmetry_Int_Tables_number   1
_chemical_formula_structural   Ho3Ni2
_chemical_formula_sum   'Ho9 Ni6'
_cell_volume   323.51460641
_cell_formula_units_Z   3
loop_
 _symmetry_equiv_pos_site_id
 _symmetry_equiv_pos_as_xyz
  1  'x, y, z'
loop_
 _atom_site_type_symbol
 _atom_site_label
 _atom_site_symmetry_multiplicity
 _atom_site_fract_x
 _atom_site_fract_y
 _atom_site_fract_z
 _atom_site_occupancy
  Ho  Ho0  1  0.00000000  -0.00000000  -0.00000000  1
  Ho  Ho1  1  0.79303573  0.79303573  0.79303573  1
  Ho  Ho2  1  0.20696427  0.20696427  0.20696427  1
  Ho  Ho3  1  0.33580821  0.61370635  0.82873374  1
  Ho  Ho4  1  0.82873374  0.33580821  0.61370635  1
  Ho  Ho5  1  0.61370635  0.82873374  0.33580721  1
  Ho  Ho6  1  0.66419179  0.38629365  0.17126626  1
  Ho  Ho7  1  0.17126626  0.66419179  0.38629365  1
  Ho  Ho8  1  0.38629365  0.17126626  0.66419279  1
  Ni  Ni0  1  0.14286427  0.96053359  0.58536637  1
  Ni  Ni1  1  0.58536637  0.14286527  0.96053359  1
  Ni  Ni2  1  0.96053359  0.58536637  0.14286527  1
  Ni  Ni3  1  0.85713573  0.03946641  0.41463363  1
  Ni  Ni4  1  0.41463363  0.85713473  0.03946641  1
  Ni  Ni5  1  0.03946641  0.41463363  0.85713473  1
loop_
_geom_bond_atom_site_label_1
_geom_bond_atom_site_label_2
_geom_bond_distance
_geom_bond_site_symmetry_2
Ho0 Ni0 2.902405 1_544
Ho0 Ni3 2.902405 1_455
Ho0 Ni2 2.902405 1_445
Ho0 Ni5 2.902405 1_554
Ho0 Ni1 2.902405 1_454
Ho0 Ni4 2.902405 1_545
Ho1 Ni4 2.746368 1_556
Ho1 Ni5 2.746368 1_655
Ho1 Ni3 2.746368 1_565
Ho1 Ni0 2.897836 1_655
Ho1 Ni2 2.897842 1_556
Ho1 Ni1 2.897842 1_565
Ho2 Ni1 2.746368 1_554
Ho2 Ni2 2.746368 1_455
Ho2 Ni0 2.746368 1_545
Ho2 Ni3 2.897836 1_455
Ho2 Ni5 2.897842 1_554
Ho2 Ni4 2.897842 1_545
Ho3 Ni5 2.809202 1_555
Ho3 Ni0 2.811935 1_555
Ho3 Ni4 2.867904 1_556
Ho3 Ni2 2.958659 1_456
Ho3 Ni1 3.308488 1_555
Ho4 Ni3 2.809199 1_555
Ho4 Ni1 2.811932 1_555
Ho4 Ni5 2.867904 1_655
Ho4 Ni0 2.958656 1_645
Ho4 Ni2 3.308488 1_555
Ho5 Ni4 2.809195 1_555
Ho5 Ni2 2.811929 1_555
Ho5 Ni3 2.867914 1_565
Ho5 Ni1 2.958654 1_564
Ho5 Ni0 3.308496 1_555
Ho6 Ni2 2.809202 1_555
Ho6 Ni3 2.811935 1_555
Ho6 Ni1 2.867904 1_554
Ho6 Ni5 2.958659 1_654
Ho6 Ni4 3.308488 1_555
Ho7 Ni0 2.809199 1_555
Ho7 Ni4 2.811932 1_555
Ho7 Ni2 2.867904 1_455
Ho7 Ni3 2.958656 1_465
Ho7 Ni5 3.308488 1_555
Ho8 Ni1 2.809195 1_555
Ho8 Ni5 2.811929 1_555
Ho8 Ni0 2.867914 1_545
Ho8 Ni4 2.958654 1_546
Ho8 Ni3 3.308496 1_555
Ni0 Ni3 2.519932 1_465
Ni1 Ni4 2.519944 1_546
Ni2 Ni5 2.519944 1_654
