# generated using pymatgen
data_ZnReN2
_symmetry_space_group_name_H-M   'P 1'
_cell_length_a   5.67295200
_cell_length_b   6.42187100
_cell_length_c   5.53634500
_cell_angle_alpha   90.00000000
_cell_angle_beta   90.00000000
_cell_angle_gamma   90.00000000
_symmetry_Int_Tables_number   1
_chemical_formula_structural   ZnReN2
_chemical_formula_sum   'Zn4 Re4 N8'
_cell_volume   201.69439609
_cell_formula_units_Z   4
loop_
 _symmetry_equiv_pos_site_id
 _symmetry_equiv_pos_as_xyz
  1  'x, y, z'
loop_
 _atom_site_type_symbol
 _atom_site_label
 _atom_site_symmetry_multiplicity
 _atom_site_fract_x
 _atom_site_fract_y
 _atom_site_fract_z
 _atom_site_occupancy
  Zn  Zn0  1  0.58243800  0.88734500  0.01169800  1
  Zn  Zn1  1  0.41756200  0.11265500  0.51169800  1
  Zn  Zn2  1  0.91756200  0.38734500  0.51169800  1
  Zn  Zn3  1  0.08243800  0.61265500  0.01169800  1
  Re  Re0  1  0.55383000  0.37731000  0.00296500  1
  Re  Re1  1  0.44617000  0.62269000  0.50296500  1
  Re  Re2  1  0.94617000  0.87731000  0.50296500  1
  Re  Re3  1  0.05383000  0.12269000  0.00296500  1
  N  N0  1  0.57855100  0.37068200  0.35202500  1
  N  N1  1  0.42144900  0.62931800  0.85202500  1
  N  N2  1  0.92144900  0.87068200  0.85202500  1
  N  N3  1  0.07855100  0.12931800  0.35202500  1
  N  N4  1  0.61972500  0.86570900  0.38331300  1
  N  N5  1  0.38027500  0.13429100  0.88331300  1
  N  N6  1  0.88027500  0.36570900  0.88331300  1
  N  N7  1  0.11972500  0.63429100  0.38331300  1
loop_
_geom_bond_atom_site_label_1
_geom_bond_atom_site_label_2
_geom_bond_distance
_geom_bond_site_symmetry_2
N0 Re0 1.938066 1_555
N0 Re1 1.970129 1_555
N0 Zn1 2.088361 1_555
N0 Zn2 2.119336 1_555
N1 Re1 1.938066 1_555
N1 Re0 1.970129 1_556
N1 Zn0 2.088361 1_556
N1 Zn3 2.119336 1_556
N2 Re2 1.938066 1_555
N2 Re3 1.970129 1_666
N2 Zn3 2.088361 1_656
N2 Zn0 2.119336 1_556
N3 Re3 1.938066 1_555
N3 Re2 1.970129 1_445
N3 Zn2 2.088361 1_455
N3 Zn1 2.119336 1_555
N4 Re1 1.960557 1_555
N4 Re2 1.968230 1_555
N4 Zn0 2.072896 1_555
N4 Zn1 2.082172 1_565
N5 Re0 1.960557 1_556
N5 Re3 1.968230 1_556
N5 Zn1 2.072896 1_555
N5 Zn0 2.082172 1_546
N6 Re3 1.960557 1_656
N6 Re0 1.968230 1_556
N6 Zn2 2.072896 1_555
N6 Zn3 2.082172 1_656
N7 Re2 1.960557 1_455
N7 Re1 1.968230 1_555
N7 Zn3 2.072896 1_555
N7 Zn2 2.082172 1_455
