# generated using pymatgen
data_La2NiRuO6
_symmetry_space_group_name_H-M   'P 1'
_cell_length_a   5.75081700
_cell_length_b   5.55368400
_cell_length_c   9.65100660
_cell_angle_alpha   55.18462370
_cell_angle_beta   90.00000000
_cell_angle_gamma   90.00000000
_symmetry_Int_Tables_number   1
_chemical_formula_structural   La2NiRuO6
_chemical_formula_sum   'La4 Ni2 Ru2 O12'
_cell_volume   253.06050885
_cell_formula_units_Z   2
loop_
 _symmetry_equiv_pos_site_id
 _symmetry_equiv_pos_as_xyz
  1  'x, y, z'
loop_
 _atom_site_type_symbol
 _atom_site_label
 _atom_site_symmetry_multiplicity
 _atom_site_fract_x
 _atom_site_fract_y
 _atom_site_fract_z
 _atom_site_occupancy
  La  La0  1  0.94449000  0.23688400  0.74986300  1
  La  La1  1  0.44449000  0.76311600  0.75013700  1
  La  La2  1  0.05551000  0.76311600  0.25013700  1
  La  La3  1  0.55551000  0.23688400  0.24986300  1
  Ni  Ni0  1  0.50000000  0.50000000  0.50000000  1
  Ni  Ni1  1  0.00000000  0.50000000  0.00000000  1
  Ru  Ru0  1  0.50000000  0.00000000  0.00000000  1
  Ru  Ru1  1  0.00000000  0.00000000  0.50000000  1
  O  O0  1  0.52277800  0.33564700  0.75324300  1
  O  O1  1  0.02277800  0.66435300  0.74675700  1
  O  O2  1  0.47722200  0.66435300  0.24675700  1
  O  O3  1  0.97722200  0.33564700  0.25324300  1
  O  O4  1  0.20836500  0.85083900  0.95073500  1
  O  O5  1  0.70836500  0.14916100  0.54926500  1
  O  O6  1  0.79163500  0.14916100  0.04926500  1
  O  O7  1  0.29163500  0.85083900  0.45073500  1
  O  O8  1  0.80003900  0.75045600  0.45568000  1
  O  O9  1  0.30003900  0.24954400  0.04432000  1
  O  O10  1  0.19996100  0.24954400  0.54432000  1
  O  O11  1  0.69996100  0.75045600  0.95568000  1
loop_
_geom_bond_atom_site_label_1
_geom_bond_atom_site_label_2
_geom_bond_distance
_geom_bond_site_symmetry_2
La0 O1 2.399655 1_655
La0 O4 2.431390 1_645
La0 O10 2.437045 1_655
La0 O0 2.490760 1_555
La0 O5 2.627974 1_555
La0 O11 2.663398 1_545
La0 O8 2.763933 1_555
La0 O6 2.784241 1_556
La1 O0 2.399655 1_555
La1 O5 2.431390 1_565
La1 O11 2.437045 1_555
La1 O1 2.490760 1_555
La1 O4 2.627974 1_555
La1 O10 2.663398 1_565
La1 O9 2.763933 1_556
La1 O7 2.784241 1_555
La2 O3 2.399655 1_455
La2 O6 2.431390 1_465
La2 O8 2.437045 1_455
La2 O2 2.490760 1_555
La2 O7 2.627974 1_555
La2 O9 2.663398 1_565
La2 O10 2.763933 1_555
La2 O4 2.784241 1_554
La3 O2 2.399655 1_555
La3 O7 2.431390 1_545
La3 O9 2.437045 1_555
La3 O3 2.490760 1_555
La3 O6 2.627974 1_555
La3 O8 2.663398 1_545
La3 O11 2.763933 1_554
La3 O5 2.784241 1_555
Ni0 O0 2.067934 1_555
Ni0 O2 2.067934 1_555
Ni0 O7 2.097744 1_555
Ni0 O5 2.097744 1_555
Ni0 O8 2.101331 1_555
Ni0 O10 2.101331 1_555
Ni1 O1 2.067934 1_554
Ni1 O3 2.067934 1_455
Ni1 O4 2.097744 1_554
Ni1 O6 2.097744 1_455
Ni1 O11 2.101331 1_454
Ni1 O9 2.101331 1_555
O0 Ru0 2.023430 1_556
O1 Ru1 2.023430 1_565
O2 Ru0 2.023430 1_565
O3 Ru1 2.023430 1_655
O4 Ru0 2.043241 1_566
O5 Ru1 2.043241 1_655
O6 Ru0 2.043241 1_555
O7 Ru1 2.043241 1_565
O8 Ru1 2.025559 1_665
O9 Ru0 2.025559 1_555
O10 Ru1 2.025559 1_555
O11 Ru0 2.025559 1_566
