# generated using pymatgen
data_Ti3ZnP3O13
_symmetry_space_group_name_H-M   'P 1'
_cell_length_a   6.40904400
_cell_length_b   7.71910500
_cell_length_c   10.54208996
_cell_angle_alpha   80.19263599
_cell_angle_beta   90.00000000
_cell_angle_gamma   90.00000000
_symmetry_Int_Tables_number   1
_chemical_formula_structural   Ti3ZnP3O13
_chemical_formula_sum   'Ti6 Zn2 P6 O26'
_cell_volume   513.91738951
_cell_formula_units_Z   2
loop_
 _symmetry_equiv_pos_site_id
 _symmetry_equiv_pos_as_xyz
  1  'x, y, z'
loop_
 _atom_site_type_symbol
 _atom_site_label
 _atom_site_symmetry_multiplicity
 _atom_site_fract_x
 _atom_site_fract_y
 _atom_site_fract_z
 _atom_site_occupancy
  Ti  Ti0  1  0.25000000  0.64742500  0.20036500  1
  Ti  Ti1  1  0.75000000  0.35257500  0.79963500  1
  Ti  Ti2  1  0.25000000  0.21095400  0.44026500  1
  Ti  Ti3  1  0.50000000  0.00000000  0.00000000  1
  Ti  Ti4  1  0.75000000  0.78904600  0.55973500  1
  Ti  Ti5  1  0.00000000  0.00000000  0.00000000  1
  Zn  Zn0  1  0.75000000  0.38130000  0.15107600  1
  Zn  Zn1  1  0.25000000  0.61870000  0.84892400  1
  P  P0  1  0.25000000  0.78067000  0.48693300  1
  P  P1  1  0.75000000  0.21933000  0.51306700  1
  P  P2  1  0.25000000  0.26470500  0.76251200  1
  P  P3  1  0.75000000  0.73529500  0.23748800  1
  P  P4  1  0.75000000  0.68770300  0.88147400  1
  P  P5  1  0.25000000  0.31229700  0.11852600  1
  O  O0  1  0.75000000  0.64869800  0.74121700  1
  O  O1  1  0.55461900  0.25334900  0.42784500  1
  O  O2  1  0.25000000  0.21906900  0.62675500  1
  O  O3  1  0.54924700  0.78715100  0.90817600  1
  O  O4  1  0.75000000  0.33549000  0.61734400  1
  O  O5  1  0.75000000  0.13324000  0.90331000  1
  O  O6  1  0.25000000  0.66451000  0.38265600  1
  O  O7  1  0.04924700  0.21284900  0.09182400  1
  O  O8  1  0.25000000  0.97908700  0.41771800  1
  O  O9  1  0.75000000  0.02091300  0.58228200  1
  O  O10  1  0.06083800  0.37907600  0.78853000  1
  O  O11  1  0.25000000  0.86676000  0.09669000  1
  O  O12  1  0.56083800  0.62092400  0.21147000  1
  O  O13  1  0.75000000  0.49451400  0.95745100  1
  O  O14  1  0.75000000  0.78093100  0.37324500  1
  O  O15  1  0.45075300  0.21284900  0.09182400  1
  O  O16  1  0.94538100  0.25334900  0.42784500  1
  O  O17  1  0.44538100  0.74665100  0.57215500  1
  O  O18  1  0.43916200  0.37907600  0.78853000  1
  O  O19  1  0.25000000  0.35130200  0.25878300  1
  O  O20  1  0.75000000  0.90857800  0.13393100  1
  O  O21  1  0.25000000  0.09142200  0.86606900  1
  O  O22  1  0.93916200  0.62092400  0.21147000  1
  O  O23  1  0.95075300  0.78715100  0.90817600  1
  O  O24  1  0.05461900  0.74665100  0.57215500  1
  O  O25  1  0.25000000  0.50548600  0.04254900  1
loop_
_geom_bond_atom_site_label_1
_geom_bond_atom_site_label_2
_geom_bond_distance
_geom_bond_site_symmetry_2
O0 P4 1.558389 1_555
O0 Ti4 2.031723 1_555
O0 Ti1 2.263759 1_555
O1 P1 1.537452 1_555
O1 Ti2 1.980197 1_555
O2 P2 1.531036 1_555
O2 Ti2 1.977628 1_555
O3 P4 1.548409 1_555
O3 Ti3 2.068323 1_566
O3 Zn1 2.456811 1_555
O4 P1 1.532395 1_555
O4 Ti1 1.948531 1_555
O5 Ti1 1.852197 1_555
O5 Ti3 2.075306 1_556
O5 Ti5 2.075306 1_656
O6 P0 1.532395 1_555
O6 Ti0 1.948531 1_555
O7 P5 1.548409 1_555
O7 Ti5 2.068323 1_555
O7 Zn0 2.456811 1_455
O8 P0 1.580348 1_555
O8 Ti2 1.845219 1_565
O9 P1 1.580348 1_555
O9 Ti4 1.845219 1_545
O10 P2 1.551426 1_555
O10 Ti1 2.004034 1_455
O10 Zn1 2.386979 1_555
O11 Ti0 1.852197 1_555
O11 Ti3 2.075306 1_565
O11 Ti5 2.075306 1_565
O12 P3 1.551426 1_555
O12 Ti0 2.004034 1_555
O12 Zn0 2.386979 1_555
O13 P4 1.567941 1_555
O13 Zn0 2.079077 1_556
O13 Ti1 2.142277 1_555
O14 P3 1.531036 1_555
O14 Ti4 1.977628 1_555
O15 P5 1.548409 1_555
O15 Ti3 2.068323 1_555
O15 Zn0 2.456811 1_555
O16 P1 1.537452 1_555
O16 Ti2 1.980197 1_655
O17 P0 1.537452 1_555
O17 Ti4 1.980197 1_555
O18 P2 1.551426 1_555
O18 Ti1 2.004034 1_555
O18 Zn1 2.386979 1_555
O19 P5 1.558389 1_555
O19 Ti2 2.031723 1_555
O19 Ti0 2.263759 1_555
O20 P3 1.575913 1_555
O20 Ti3 2.172396 1_565
O20 Ti5 2.172396 1_665
O21 P2 1.575913 1_555
O21 Ti3 2.172396 1_556
O21 Ti5 2.172396 1_556
O22 P3 1.551426 1_555
O22 Ti0 2.004034 1_655
O22 Zn0 2.386979 1_555
O23 P4 1.548409 1_555
O23 Ti5 2.068323 1_666
O23 Zn1 2.456811 1_655
O24 P0 1.537452 1_555
O24 Ti4 1.980197 1_455
O25 P5 1.567941 1_555
O25 Zn1 2.079077 1_554
O25 Ti0 2.142277 1_555
