# generated using pymatgen
data_Tm3Fe2Ge3
_symmetry_space_group_name_H-M   'P 1'
_cell_length_a   5.63668886
_cell_length_b   5.63668886
_cell_length_c   13.58574400
_cell_angle_alpha   90.00000000
_cell_angle_beta   90.00000000
_cell_angle_gamma   137.22207225
_symmetry_Int_Tables_number   1
_chemical_formula_structural   Tm3Fe2Ge3
_chemical_formula_sum   'Tm6 Fe4 Ge6'
_cell_volume   293.15867781
_cell_formula_units_Z   2
loop_
 _symmetry_equiv_pos_site_id
 _symmetry_equiv_pos_as_xyz
  1  'x, y, z'
loop_
 _atom_site_type_symbol
 _atom_site_label
 _atom_site_symmetry_multiplicity
 _atom_site_fract_x
 _atom_site_fract_y
 _atom_site_fract_z
 _atom_site_occupancy
  Tm  Tm0  1  0.64147100  0.35852900  0.25000000  1
  Tm  Tm1  1  0.35852900  0.64147100  0.75000000  1
  Tm  Tm2  1  0.92035100  0.07964900  0.11220100  1
  Tm  Tm3  1  0.07964900  0.92035100  0.88779900  1
  Tm  Tm4  1  0.07964900  0.92035100  0.61220100  1
  Tm  Tm5  1  0.92035100  0.07964900  0.38779900  1
  Fe  Fe0  1  0.78499400  0.21500600  0.58300600  1
  Fe  Fe1  1  0.21500600  0.78499300  0.41699400  1
  Fe  Fe2  1  0.21500600  0.78499300  0.08300600  1
  Fe  Fe3  1  0.78499400  0.21500600  0.91699400  1
  Ge  Ge0  1  0.33336200  0.66663800  0.25000000  1
  Ge  Ge1  1  0.66663800  0.33336200  0.75000000  1
  Ge  Ge2  1  0.62231200  0.37768800  0.04081900  1
  Ge  Ge3  1  0.37768800  0.62231200  0.95918100  1
  Ge  Ge4  1  0.37768800  0.62231200  0.54081900  1
  Ge  Ge5  1  0.62231200  0.37768800  0.45918100  1
loop_
_geom_bond_atom_site_label_1
_geom_bond_atom_site_label_2
_geom_bond_distance
_geom_bond_site_symmetry_2
Fe0 Ge4 2.345436 1_655
Fe0 Ge4 2.345436 1_545
Fe0 Ge5 2.397101 1_555
Fe0 Ge1 2.586632 1_555
Fe0 Tm4 3.004882 1_655
Fe0 Tm4 3.004882 1_545
Fe0 Tm5 3.008662 1_555
Fe0 Tm4 3.118303 1_645
Fe0 Tm1 3.157346 1_545
Fe0 Tm1 3.157346 1_655
Fe1 Ge5 2.345437 1_455
Fe1 Ge5 2.345440 1_565
Fe1 Ge4 2.397097 1_555
Fe1 Ge0 2.586630 1_555
Fe1 Tm5 3.004877 1_455
Fe1 Tm5 3.004880 1_565
Fe1 Tm4 3.008664 1_555
Fe1 Tm5 3.118308 1_465
Fe1 Tm0 3.157346 1_455
Fe1 Tm0 3.157349 1_565
Fe2 Ge2 2.345437 1_455
Fe2 Ge2 2.345440 1_565
Fe2 Ge3 2.397097 1_554
Fe2 Ge0 2.586630 1_555
Fe2 Tm2 3.004877 1_455
Fe2 Tm2 3.004880 1_565
Fe2 Tm3 3.008664 1_554
Fe2 Tm2 3.118308 1_465
Fe2 Tm0 3.157346 1_455
Fe2 Tm0 3.157349 1_565
Fe3 Ge3 2.345436 1_655
Fe3 Ge3 2.345436 1_545
Fe3 Ge2 2.397101 1_556
Fe3 Ge1 2.586632 1_555
Fe3 Tm3 3.004882 1_655
Fe3 Tm3 3.004882 1_545
Fe3 Tm2 3.008662 1_556
Fe3 Tm3 3.118303 1_645
Fe3 Tm1 3.157346 1_545
Fe3 Tm1 3.157346 1_655
Ge0 Tm0 2.878041 1_565
Ge0 Tm0 2.878041 1_455
Ge0 Tm5 2.926499 1_565
Ge0 Tm2 2.926499 1_565
Ge0 Tm5 2.926499 1_455
Ge0 Tm2 2.926499 1_455
Ge0 Tm0 3.234200 1_555
Ge1 Tm1 2.878041 1_655
Ge1 Tm1 2.878041 1_545
Ge1 Tm4 2.926499 1_655
Ge1 Tm3 2.926499 1_655
Ge1 Tm3 2.926499 1_545
Ge1 Tm4 2.926499 1_545
Ge1 Tm1 3.234200 1_555
Ge2 Ge3 2.797095 1_554
Ge2 Tm0 2.848987 1_555
Ge2 Tm3 2.957733 1_544
Ge2 Tm3 2.957733 1_654
Ge2 Tm2 3.108150 1_455
Ge2 Tm2 3.108150 1_565
Ge2 Tm2 3.275356 1_555
Ge3 Tm1 2.848987 1_555
Ge3 Tm2 2.957733 1_456
Ge3 Tm2 2.957733 1_566
Ge3 Tm3 3.108150 1_545
Ge3 Tm3 3.108150 1_655
Ge3 Tm3 3.275356 1_555
Ge4 Ge5 2.797095 1_555
Ge4 Tm1 2.848987 1_555
Ge4 Tm5 2.957733 1_455
Ge4 Tm5 2.957733 1_565
Ge4 Tm4 3.108150 1_545
Ge4 Tm4 3.108150 1_655
Ge4 Tm4 3.275356 1_555
Ge5 Tm0 2.848987 1_555
Ge5 Tm4 2.957733 1_545
Ge5 Tm4 2.957733 1_655
Ge5 Tm5 3.108150 1_455
Ge5 Tm5 3.108150 1_565
Ge5 Tm5 3.275356 1_555
