# generated using pymatgen
data_MgCoNi2O7
_symmetry_space_group_name_H-M   'P 1'
_cell_length_a   13.13212900
_cell_length_b   7.27376800
_cell_length_c   10.60424104
_cell_angle_alpha   69.55821799
_cell_angle_beta   90.00000000
_cell_angle_gamma   90.00000000
_symmetry_Int_Tables_number   1
_chemical_formula_structural   MgCoNi2O7
_chemical_formula_sum   'Mg8 Co8 Ni16 O56'
_cell_volume   949.13182545
_cell_formula_units_Z   8
loop_
 _symmetry_equiv_pos_site_id
 _symmetry_equiv_pos_as_xyz
  1  'x, y, z'
loop_
 _atom_site_type_symbol
 _atom_site_label
 _atom_site_symmetry_multiplicity
 _atom_site_fract_x
 _atom_site_fract_y
 _atom_site_fract_z
 _atom_site_occupancy
  Mg  Mg0  1  0.48483400  0.93622700  0.83194400  1
  Mg  Mg1  1  0.85820900  0.70175900  0.90361600  1
  Mg  Mg2  1  0.35820900  0.29824100  0.59638400  1
  Mg  Mg3  1  0.14179100  0.29824100  0.09638400  1
  Mg  Mg4  1  0.64179100  0.70175900  0.40361600  1
  Mg  Mg5  1  0.01516600  0.93622700  0.33194400  1
  Mg  Mg6  1  0.51516600  0.06377300  0.16805600  1
  Mg  Mg7  1  0.98483400  0.06377300  0.66805600  1
  Co  Co0  1  0.68773800  0.39305000  0.04403800  1
  Co  Co1  1  0.18773800  0.60695000  0.45596200  1
  Co  Co2  1  0.31226200  0.60695000  0.95596200  1
  Co  Co3  1  0.81226200  0.39305000  0.54403800  1
  Co  Co4  1  0.76463000  0.03570000  0.23266800  1
  Co  Co5  1  0.26463000  0.96430000  0.26733200  1
  Co  Co6  1  0.23537000  0.96430000  0.76733200  1
  Co  Co7  1  0.73537000  0.03570000  0.73266800  1
  Ni  Ni0  1  0.87374100  0.18248300  0.94247200  1
  Ni  Ni1  1  0.99130100  0.59103500  0.67905200  1
  Ni  Ni2  1  0.50869900  0.59103500  0.17905200  1
  Ni  Ni3  1  0.00869900  0.40896500  0.32094800  1
  Ni  Ni4  1  0.71423900  0.52820700  0.74621700  1
  Ni  Ni5  1  0.21423900  0.47179300  0.75378300  1
  Ni  Ni6  1  0.28576100  0.47179300  0.25378300  1
  Ni  Ni7  1  0.78576100  0.52820700  0.24621700  1
  Ni  Ni8  1  0.49130100  0.40896500  0.82094800  1
  Ni  Ni9  1  0.18419500  0.12231300  0.45578400  1
  Ni  Ni10  1  0.68419500  0.87768700  0.04421600  1
  Ni  Ni11  1  0.81580500  0.87768700  0.54421600  1
  Ni  Ni12  1  0.37374100  0.81751700  0.55752800  1
  Ni  Ni13  1  0.62625900  0.18248300  0.44247200  1
  Ni  Ni14  1  0.12625900  0.81751700  0.05752800  1
  Ni  Ni15  1  0.31580500  0.12231300  0.95578400  1
  O  O0  1  0.01831900  0.28149900  0.95038500  1
  O  O1  1  0.51831900  0.71850100  0.54961500  1
  O  O2  1  0.98168100  0.71850100  0.04961500  1
  O  O3  1  0.48168100  0.28149900  0.45038500  1
  O  O4  1  0.84663600  0.00119200  0.85575600  1
  O  O5  1  0.34663600  0.99880800  0.64424400  1
  O  O6  1  0.15336400  0.99880800  0.14424400  1
  O  O7  1  0.65336400  0.00119200  0.35575600  1
  O  O8  1  0.87902100  0.04452200  0.12719700  1
  O  O9  1  0.37902100  0.95547800  0.37280300  1
  O  O10  1  0.12097900  0.95547800  0.87280300  1
  O  O11  1  0.62097900  0.04452200  0.62719700  1
  O  O12  1  0.26114500  0.36321900  0.95340900  1
  O  O13  1  0.76114500  0.63678100  0.54659100  1
  O  O14  1  0.73885500  0.63678100  0.04659100  1
  O  O15  1  0.23885500  0.36321900  0.45340900  1
  O  O16  1  0.35552500  0.02588200  0.13413100  1
  O  O17  1  0.85552500  0.97411800  0.36586900  1
  O  O18  1  0.64447500  0.97411800  0.86586900  1
  O  O19  1  0.14447500  0.02588200  0.63413100  1
  O  O20  1  0.33410700  0.88743200  0.91356500  1
  O  O21  1  0.42469400  0.63150700  0.84884100  1
  O  O22  1  0.83410700  0.11256800  0.58643500  1
  O  O23  1  0.16589300  0.88743200  0.41356500  1
  O  O24  1  0.47451100  0.23880400  0.72978100  1
  O  O25  1  0.97451100  0.76119600  0.77021900  1
  O  O26  1  0.52548900  0.76119600  0.27021900  1
  O  O27  1  0.02548900  0.23880400  0.22978100  1
  O  O28  1  0.45982400  0.20113000  0.96624400  1
  O  O29  1  0.95982400  0.79887000  0.53375600  1
  O  O30  1  0.54017600  0.79887000  0.03375600  1
  O  O31  1  0.04017600  0.20113000  0.46624400  1
  O  O32  1  0.94234800  0.58257800  0.15853300  1
  O  O33  1  0.44234800  0.41742200  0.34146700  1
  O  O34  1  0.05765200  0.41742200  0.84146700  1
  O  O35  1  0.55765200  0.58257800  0.65853300  1
  O  O36  1  0.77191900  0.29478900  0.19562300  1
  O  O37  1  0.27191900  0.70521100  0.30437700  1
  O  O38  1  0.22808100  0.70521100  0.80437700  1
  O  O39  1  0.72808100  0.29478900  0.69562300  1
  O  O40  1  0.69465600  0.42359400  0.42162500  1
  O  O41  1  0.19465600  0.57640600  0.07837500  1
  O  O42  1  0.30534400  0.57640600  0.57837500  1
  O  O43  1  0.80534400  0.42359400  0.92162500  1
  O  O44  1  0.73470800  0.79068800  0.22614100  1
  O  O45  1  0.23470800  0.20931200  0.27385900  1
  O  O46  1  0.26529200  0.20931200  0.77385900  1
  O  O47  1  0.76529200  0.79068800  0.72614100  1
  O  O48  1  0.88303000  0.47214900  0.39305600  1
  O  O49  1  0.38303000  0.52785100  0.10694400  1
  O  O50  1  0.11697000  0.52785100  0.60694400  1
  O  O51  1  0.61697000  0.47214900  0.89305600  1
  O  O52  1  0.07530600  0.63150700  0.34884100  1
  O  O53  1  0.57530600  0.36849300  0.15115900  1
  O  O54  1  0.92469400  0.36849300  0.65115900  1
  O  O55  1  0.66589300  0.11256800  0.08643500  1
loop_
_geom_bond_atom_site_label_1
_geom_bond_atom_site_label_2
_geom_bond_distance
_geom_bond_site_symmetry_2
Mg0 O24 2.090553 1_565
Mg0 O20 2.139725 1_555
Mg0 O30 2.147729 1_556
Mg0 O18 2.160935 1_555
Mg0 O21 2.300246 1_555
Mg0 O5 2.613371 1_555
Mg1 O25 2.023208 1_555
Mg1 O4 2.062102 1_565
Mg1 O43 2.083818 1_555
Mg1 O14 2.116172 1_556
Mg1 O47 2.144489 1_555
Mg1 O2 2.274330 1_556
Mg2 O24 2.023208 1_555
Mg2 O5 2.062102 1_545
Mg2 O42 2.083818 1_555
Mg2 O15 2.116172 1_555
Mg2 O46 2.144489 1_555
Mg2 O3 2.274330 1_555
Mg3 O27 2.023208 1_555
Mg3 O6 2.062102 1_545
Mg3 O41 2.083818 1_555
Mg3 O12 2.116172 1_554
Mg3 O45 2.144489 1_555
Mg3 O0 2.274330 1_554
Mg4 O26 2.023208 1_555
Mg4 O7 2.062102 1_565
Mg4 O40 2.083818 1_555
Mg4 O13 2.116172 1_555
Mg4 O44 2.144489 1_555
Mg4 O1 2.274330 1_555
Mg5 O27 2.090553 1_565
Mg5 O23 2.139725 1_555
Mg5 O29 2.147729 1_455
Mg5 O17 2.160935 1_455
Mg5 O52 2.300246 1_555
Mg5 O6 2.613371 1_555
Mg6 O26 2.090553 1_545
Mg6 O55 2.139725 1_555
Mg6 O28 2.147729 1_554
Mg6 O16 2.160935 1_555
Mg6 O53 2.300246 1_555
Mg6 O7 2.613371 1_555
Mg7 O25 2.090553 1_545
Mg7 O22 2.139725 1_555
Mg7 O31 2.147729 1_655
Mg7 O19 2.160935 1_655
Mg7 O54 2.300246 1_555
Mg7 O4 2.613371 1_555
Co0 O51 1.764825 1_554
Co0 O53 1.833166 1_555
Co0 O36 1.874641 1_555
Co0 O14 1.904689 1_555
Co0 O55 1.950893 1_555
Co0 O43 1.979442 1_554
Co1 O50 1.764825 1_555
Co1 O52 1.833166 1_555
Co1 O37 1.874641 1_555
Co1 O15 1.904689 1_555
Co1 O23 1.950893 1_555
Co1 O42 1.979442 1_555
Co2 O49 1.764825 1_556
Co2 O21 1.833166 1_555
Co2 O38 1.874641 1_555
Co2 O12 1.904689 1_555
Co2 O20 1.950893 1_555
Co2 O41 1.979442 1_556
Co3 O48 1.764825 1_555
Co3 O54 1.833166 1_555
Co3 O39 1.874641 1_555
Co3 O13 1.904689 1_555
Co3 O22 1.950893 1_555
Co3 O40 1.979442 1_555
Co4 O17 1.782870 1_545
Co4 O36 1.788268 1_555
Co4 O44 1.849716 1_545
Co4 O8 1.860508 1_555
Co4 O7 1.916463 1_555
Co4 O55 1.947530 1_555
Co5 O16 1.782870 1_565
Co5 O37 1.788268 1_555
Co5 O45 1.849716 1_565
Co5 O9 1.860508 1_555
Co5 O6 1.916463 1_555
Co5 O23 1.947530 1_555
Co6 O19 1.782870 1_565
Co6 O38 1.788268 1_555
Co6 O46 1.849716 1_565
Co6 O10 1.860508 1_555
Co6 O5 1.916463 1_555
Co6 O20 1.947530 1_555
Co7 O18 1.782870 1_545
Co7 O39 1.788268 1_555
Co7 O47 1.849716 1_545
Co7 O11 1.860508 1_555
Co7 O4 1.916463 1_555
Co7 O22 1.947530 1_555
Ni0 O8 1.864377 1_556
Ni0 O4 1.886314 1_555
Ni0 O43 1.913264 1_555
Ni0 O0 2.042723 1_655
Ni1 O29 1.789740 1_555
Ni1 O25 1.830568 1_555
Ni1 O50 1.940329 1_655
Ni1 O34 1.949612 1_655
Ni1 O54 1.951222 1_555
Ni2 O30 1.789740 1_555
Ni2 O26 1.830568 1_555
Ni2 O49 1.940329 1_555
Ni2 O33 1.949612 1_555
Ni2 O53 1.951222 1_555
Ni3 O31 1.789740 1_555
Ni3 O27 1.830568 1_555
Ni3 O48 1.940329 1_455
Ni3 O32 1.949612 1_455
Ni3 O52 1.951222 1_555
Ni4 O51 1.943964 1_555
Ni4 O39 1.959537 1_555
Ni4 O47 1.963679 1_555
Ni4 O13 2.077630 1_555
Ni4 O43 2.116977 1_555
Ni4 O35 2.234406 1_555
Ni5 O50 1.943964 1_555
Ni5 O38 1.959537 1_555
Ni5 O46 1.963679 1_555
Ni5 O12 2.077630 1_555
Ni5 O42 2.116977 1_555
Ni5 O34 2.234406 1_555
Ni6 O49 1.943964 1_555
Ni6 O37 1.959537 1_555
Ni6 O45 1.963679 1_555
Ni6 O15 2.077630 1_555
Ni6 O41 2.116977 1_555
Ni6 O33 2.234406 1_555
Ni7 O48 1.943964 1_555
Ni7 O36 1.959537 1_555
Ni7 O44 1.963679 1_555
Ni7 O14 2.077630 1_555
Ni7 O40 2.116977 1_555
Ni7 O32 2.234406 1_555
Ni8 O28 1.789740 1_555
Ni8 O24 1.830568 1_555
Ni8 O51 1.940329 1_555
Ni8 O35 1.949612 1_555
Ni8 O21 1.951222 1_555
Ni9 O19 1.847762 1_555
Ni9 O15 1.885625 1_555
Ni9 O45 1.925994 1_555
Ni9 O23 1.926486 1_545
Ni9 O31 1.990557 1_555
Ni10 O18 1.847762 1_554
Ni10 O14 1.885625 1_555
Ni10 O44 1.925994 1_555
Ni10 O55 1.926486 1_565
Ni10 O30 1.990557 1_555
Ni11 O17 1.847762 1_555
Ni11 O13 1.885625 1_555
Ni11 O47 1.925994 1_555
Ni11 O22 1.926486 1_565
Ni11 O29 1.990557 1_555
Ni12 O9 1.864377 1_555
Ni12 O5 1.886314 1_555
Ni12 O42 1.913264 1_555
Ni12 O1 2.042723 1_555
Ni13 O11 1.864377 1_555
Ni13 O7 1.886314 1_555
Ni13 O40 1.913264 1_555
Ni13 O3 2.042723 1_555
Ni14 O10 1.864377 1_554
Ni14 O6 1.886314 1_555
Ni14 O41 1.913264 1_555
Ni14 O2 2.042723 1_455
Ni15 O16 1.847762 1_556
Ni15 O12 1.885625 1_555
Ni15 O46 1.925994 1_555
Ni15 O20 1.926486 1_545
Ni15 O28 1.990557 1_555
O0 O34 1.334408 1_555
O1 O35 1.334408 1_555
O2 O32 1.334408 1_555
O3 O33 1.334408 1_555
