# generated using pymatgen
data_In3Ga3N5
_symmetry_space_group_name_H-M   'P 1'
_cell_length_a   6.00248460
_cell_length_b   6.61484879
_cell_length_c   8.77310342
_cell_angle_alpha   106.28564921
_cell_angle_beta   96.68028642
_cell_angle_gamma   92.52352949
_symmetry_Int_Tables_number   1
_chemical_formula_structural   In3Ga3N5
_chemical_formula_sum   'In6 Ga6 N10'
_cell_volume   331.01851242
_cell_formula_units_Z   2
loop_
 _symmetry_equiv_pos_site_id
 _symmetry_equiv_pos_as_xyz
  1  'x, y, z'
loop_
 _atom_site_type_symbol
 _atom_site_label
 _atom_site_symmetry_multiplicity
 _atom_site_fract_x
 _atom_site_fract_y
 _atom_site_fract_z
 _atom_site_occupancy
  In  In0  1  0.80033100  0.42634100  0.60723600  1
  In  In1  1  0.19966900  0.57365900  0.39276400  1
  In  In2  1  0.67431700  0.84304100  0.92430000  1
  In  In3  1  0.32568300  0.15695900  0.07570000  1
  In  In4  1  0.66060000  0.63110900  0.25343100  1
  In  In5  1  0.33940000  0.36889100  0.74656900  1
  Ga  Ga0  1  0.86173400  0.30684500  0.96919700  1
  Ga  Ga1  1  0.13826600  0.69315500  0.03080300  1
  Ga  Ga2  1  0.68279400  0.93472300  0.58779200  1
  Ga  Ga3  1  0.31720600  0.06527700  0.41220800  1
  Ga  Ga4  1  0.12663200  0.88018500  0.71166300  1
  Ga  Ga5  1  0.87336800  0.11981500  0.28833700  1
  N  N0  1  0.86773900  0.03808700  0.79765300  1
  N  N1  1  0.13226100  0.96191300  0.20234700  1
  N  N2  1  0.88340100  0.69946000  0.52228900  1
  N  N3  1  0.11659900  0.30054000  0.47771100  1
  N  N4  1  0.85135100  0.55504300  0.88326200  1
  N  N5  1  0.14864900  0.44495700  0.11673800  1
  N  N6  1  0.34738900  0.89232500  0.56449600  1
  N  N7  1  0.65261100  0.10767500  0.43550400  1
  N  N8  1  0.30639600  0.81856700  0.89287800  1
  N  N9  1  0.69360400  0.18143300  0.10712200  1
loop_
_geom_bond_atom_site_label_1
_geom_bond_atom_site_label_2
_geom_bond_distance
_geom_bond_site_symmetry_2
In0 N2 2.197779 1_555
In0 N7 2.289738 1_555
In0 N4 2.308891 1_555
In0 N3 2.387111 1_655
In1 N3 2.197779 1_555
In1 N6 2.289738 1_555
In1 N5 2.308891 1_555
In1 N2 2.387111 1_455
In2 N4 2.184193 1_555
In2 N8 2.186608 1_555
In2 N0 2.284578 1_565
In2 N9 2.348793 1_566
In3 N5 2.184193 1_555
In3 N9 2.186608 1_555
In3 N1 2.284578 1_545
In3 N8 2.348793 1_544
In4 N2 2.484196 1_555
In5 N3 2.484196 1_555
Ga0 N9 1.986011 1_556
Ga0 N0 1.986071 1_555
Ga0 N4 1.989986 1_555
Ga0 N5 2.038542 1_656
Ga1 N8 1.986011 1_554
Ga1 N1 1.986071 1_555
Ga1 N5 1.989986 1_555
Ga1 N4 2.038542 1_454
Ga2 N0 1.959912 1_565
Ga2 N7 1.986422 1_565
Ga2 N6 1.999014 1_555
Ga2 N2 2.006608 1_555
Ga3 N1 1.959912 1_545
Ga3 N6 1.986422 1_545
Ga3 N7 1.999014 1_555
Ga3 N3 2.006608 1_555
Ga4 N8 1.964944 1_555
Ga4 N6 1.968782 1_555
Ga4 N0 2.012155 1_465
Ga4 N2 2.118723 1_455
Ga5 N9 1.964944 1_555
Ga5 N7 1.968782 1_555
Ga5 N1 2.012155 1_645
Ga5 N3 2.118723 1_655
