# generated using pymatgen
data_Ca4Mn3CrO12
_symmetry_space_group_name_H-M   'P 1'
_cell_length_a   5.33918300
_cell_length_b   10.83152000
_cell_length_c   15.15263300
_cell_angle_alpha   90.00000000
_cell_angle_beta   90.00000000
_cell_angle_gamma   89.99998398
_symmetry_Int_Tables_number   1
_chemical_formula_structural   Ca4Mn3CrO12
_chemical_formula_sum   'Ca16 Mn12 Cr4 O48'
_cell_volume   876.29900209
_cell_formula_units_Z   4
loop_
 _symmetry_equiv_pos_site_id
 _symmetry_equiv_pos_as_xyz
  1  'x, y, z'
loop_
 _atom_site_type_symbol
 _atom_site_label
 _atom_site_symmetry_multiplicity
 _atom_site_fract_x
 _atom_site_fract_y
 _atom_site_fract_z
 _atom_site_occupancy
  Ca  Ca0  1  0.99137300  0.02117100  0.12500000  1
  Ca  Ca1  1  0.99150700  0.02230100  0.62500000  1
  Ca  Ca2  1  0.99104300  0.52297900  0.12500000  1
  Ca  Ca3  1  0.99136500  0.52219800  0.62500000  1
  Ca  Ca4  1  0.00868800  0.47831300  0.37505300  1
  Ca  Ca5  1  0.00868800  0.47831300  0.87494700  1
  Ca  Ca6  1  0.00854200  0.97763400  0.37536500  1
  Ca  Ca7  1  0.00854200  0.97763400  0.87463500  1
  Ca  Ca8  1  0.49156600  0.22836800  0.37550600  1
  Ca  Ca9  1  0.49156600  0.22836800  0.87449400  1
  Ca  Ca10  1  0.49119700  0.72731800  0.37489800  1
  Ca  Ca11  1  0.49119700  0.72731800  0.87510200  1
  Ca  Ca12  1  0.50870900  0.27242300  0.12500000  1
  Ca  Ca13  1  0.50855000  0.27211800  0.62500000  1
  Ca  Ca14  1  0.50881600  0.77119900  0.12500000  1
  Ca  Ca15  1  0.50857600  0.77236100  0.62500000  1
  Mn  Mn0  1  0.50023500  0.00009500  0.50013600  1
  Mn  Mn1  1  0.50076900  0.50006400  0.00014100  1
  Mn  Mn2  1  0.50014700  0.50004400  0.49996100  1
  Mn  Mn3  1  0.99949000  0.25013600  0.50010800  1
  Mn  Mn4  1  0.00049500  0.74990000  0.99998400  1
  Mn  Mn5  1  0.00006700  0.74995700  0.49999500  1
  Mn  Mn6  1  0.99949000  0.25013600  0.74989200  1
  Mn  Mn7  1  0.00049500  0.74990000  0.25001600  1
  Mn  Mn8  1  0.00006700  0.74995700  0.75000500  1
  Mn  Mn9  1  0.50023500  0.00009500  0.74986400  1
  Mn  Mn10  1  0.50076900  0.50006400  0.24985900  1
  Mn  Mn11  1  0.50014700  0.50004400  0.75003900  1
  Cr  Cr0  1  0.49761200  0.99950000  0.99964500  1
  Cr  Cr1  1  0.99921200  0.25014400  0.99995800  1
  Cr  Cr2  1  0.99921200  0.25014400  0.25004200  1
  Cr  Cr3  1  0.49761200  0.99950000  0.25035500  1
  O  O0  1  0.20775100  0.10401600  0.26959600  1
  O  O1  1  0.20601700  0.10393600  0.77048500  1
  O  O2  1  0.20587600  0.60353000  0.27026700  1
  O  O3  1  0.20598200  0.60392500  0.77015800  1
  O  O4  1  0.79405300  0.39655400  0.23000300  1
  O  O5  1  0.79386200  0.39616700  0.72978900  1
  O  O6  1  0.79336700  0.89583900  0.22959500  1
  O  O7  1  0.79406800  0.89605900  0.72990900  1
  O  O8  1  0.70780500  0.14578800  0.23010700  1
  O  O9  1  0.70605600  0.14616300  0.72984400  1
  O  O10  1  0.70578300  0.64647200  0.22978100  1
  O  O11  1  0.70599700  0.64607400  0.72981400  1
  O  O12  1  0.29364400  0.35411100  0.27024400  1
  O  O13  1  0.29380400  0.35386900  0.77033100  1
  O  O14  1  0.29383300  0.85335000  0.26983600  1
  O  O15  1  0.29414100  0.85399600  0.77032800  1
  O  O16  1  0.29380400  0.35386900  0.47966800  1
  O  O17  1  0.29364400  0.35411100  0.97975500  1
  O  O18  1  0.29414100  0.85399700  0.47967100  1
  O  O19  1  0.29383300  0.85335000  0.98016300  1
  O  O20  1  0.70780500  0.14578800  0.01989200  1
  O  O21  1  0.70605600  0.14616300  0.52015500  1
  O  O22  1  0.70578300  0.64647100  0.02021800  1
  O  O23  1  0.70599700  0.64607300  0.52018500  1
  O  O24  1  0.79405300  0.39655400  0.01999600  1
  O  O25  1  0.79386200  0.39616700  0.52021000  1
  O  O26  1  0.79336700  0.89583800  0.02040400  1
  O  O27  1  0.79406800  0.89605900  0.52009000  1
  O  O28  1  0.20601700  0.10393600  0.47951400  1
  O  O29  1  0.20775100  0.10401600  0.98040300  1
  O  O30  1  0.20598200  0.60392500  0.47984100  1
  O  O31  1  0.20587600  0.60353000  0.97973200  1
  O  O32  1  0.57744700  0.00972800  0.37483000  1
  O  O33  1  0.57744700  0.00972900  0.87517000  1
  O  O34  1  0.57850800  0.50944700  0.37504400  1
  O  O35  1  0.57850800  0.50944700  0.87495600  1
  O  O36  1  0.42153500  0.49013200  0.12500000  1
  O  O37  1  0.42191200  0.49048700  0.62500000  1
  O  O38  1  0.42372800  0.99087900  0.12500000  1
  O  O39  1  0.42188200  0.99055200  0.62500000  1
  O  O40  1  0.07573300  0.24029500  0.12500000  1
  O  O41  1  0.07816500  0.24059100  0.62500000  1
  O  O42  1  0.07898300  0.74058900  0.12500000  1
  O  O43  1  0.07808900  0.74047600  0.62500000  1
  O  O44  1  0.92223300  0.25940100  0.37489000  1
  O  O45  1  0.92223300  0.25940200  0.87511000  1
  O  O46  1  0.92177100  0.75972100  0.37503000  1
  O  O47  1  0.92177100  0.75972100  0.87497000  1
loop_
_geom_bond_atom_site_label_1
_geom_bond_atom_site_label_2
_geom_bond_distance
_geom_bond_site_symmetry_2
Ca0 O38 2.331624 1_645
Ca0 O6 2.339323 1_545
Ca0 O26 2.339339 1_545
Ca0 O40 2.415806 1_655
Ca0 O8 2.578900 1_555
Ca0 O20 2.578909 1_555
Ca0 O0 2.634467 1_655
Ca0 O29 2.634480 1_654
Ca1 O39 2.323441 1_645
Ca1 O7 2.346913 1_545
Ca1 O27 2.346924 1_545
Ca1 O41 2.409258 1_655
Ca1 O9 2.578096 1_555
Ca1 O21 2.578106 1_555
Ca1 O1 2.636917 1_655
Ca1 O28 2.636930 1_655
Ca2 O36 2.325848 1_655
Ca2 O4 2.347959 1_555
Ca2 O24 2.347969 1_555
Ca2 O42 2.403358 1_655
Ca2 O10 2.574827 1_555
Ca2 O22 2.574830 1_555
Ca2 O2 2.630989 1_655
Ca2 O31 2.631002 1_654
Ca3 O37 2.324288 1_655
Ca3 O5 2.344504 1_555
Ca3 O25 2.344515 1_555
Ca3 O43 2.409198 1_655
Ca3 O11 2.577633 1_555
Ca3 O23 2.577637 1_555
Ca3 O3 2.633360 1_655
Ca3 O30 2.633372 1_655
Ca4 O34 2.321434 1_455
Ca4 O2 2.338593 1_555
Ca4 O30 2.341352 1_555
Ca4 O44 2.415664 1_455
Ca4 O12 2.578128 1_555
Ca4 O16 2.578192 1_555
Ca4 O4 2.632151 1_455
Ca4 O25 2.635361 1_455
Ca5 O35 2.321434 1_455
Ca5 O31 2.338583 1_555
Ca5 O3 2.341362 1_555
Ca5 O45 2.415653 1_455
Ca5 O17 2.578118 1_555
Ca5 O13 2.578201 1_555
Ca5 O24 2.632139 1_456
Ca5 O5 2.635374 1_455
Ca6 O32 2.327812 1_465
Ca6 O28 2.339595 1_565
Ca6 O0 2.360882 1_565
Ca6 O46 2.405372 1_455
Ca6 O18 2.572279 1_555
Ca6 O14 2.586378 1_555
Ca6 O27 2.626995 1_455
Ca6 O6 2.642651 1_455
Ca7 O33 2.327814 1_465
Ca7 O1 2.339605 1_565
Ca7 O29 2.360872 1_565
Ca7 O47 2.405372 1_455
Ca7 O15 2.572294 1_555
Ca7 O19 2.586368 1_555
Ca7 O7 2.627007 1_455
Ca7 O26 2.642642 1_456
Ca8 O44 2.323867 1_555
Ca8 O16 2.335358 1_555
Ca8 O12 2.348558 1_555
Ca8 O32 2.412208 1_555
Ca8 O28 2.573848 1_555
Ca8 O0 2.585708 1_555
Ca8 O21 2.628374 1_555
Ca8 O8 2.643298 1_555
Ca9 O45 2.323869 1_555
Ca9 O13 2.335368 1_555
Ca9 O17 2.348548 1_555
Ca9 O33 2.412197 1_555
Ca9 O1 2.573857 1_555
Ca9 O29 2.585699 1_555
Ca9 O9 2.628387 1_555
Ca9 O20 2.643285 1_556
Ca10 O46 2.325551 1_555
Ca10 O14 2.346981 1_555
Ca10 O18 2.347363 1_555
Ca10 O34 2.405478 1_555
Ca10 O2 2.575281 1_555
Ca10 O30 2.575637 1_555
Ca10 O10 2.629575 1_555
Ca10 O23 2.633668 1_555
Ca11 O47 2.325551 1_555
Ca11 O19 2.346970 1_555
Ca11 O15 2.347367 1_555
Ca11 O35 2.405478 1_555
Ca11 O31 2.575272 1_555
Ca11 O3 2.575647 1_555
Ca11 O22 2.629566 1_556
Ca11 O11 2.633677 1_555
Ca12 O40 2.337784 1_555
Ca12 O8 2.355406 1_555
Ca12 O20 2.355417 1_555
Ca12 O36 2.403614 1_555
Ca12 O4 2.580761 1_555
Ca12 O24 2.580771 1_555
Ca12 O12 2.635347 1_555
Ca12 O17 2.635360 1_554
Ca13 O41 2.323139 1_555
Ca13 O9 2.344597 1_555
Ca13 O21 2.344607 1_555
Ca13 O37 2.410077 1_555
Ca13 O5 2.578199 1_555
Ca13 O25 2.578209 1_555
Ca13 O13 2.635936 1_555
Ca13 O16 2.635949 1_555
Ca14 O42 2.318783 1_555
Ca14 O10 2.334935 1_555
Ca14 O22 2.334952 1_555
Ca14 O38 2.422449 1_555
Ca14 O6 2.577337 1_555
Ca14 O26 2.577341 1_555
Ca14 O14 2.631687 1_555
Ca14 O19 2.631699 1_554
Ca15 O43 2.324251 1_555
Ca15 O11 2.346179 1_555
Ca15 O23 2.346196 1_555
Ca15 O39 2.408242 1_555
Ca15 O7 2.577909 1_555
Ca15 O27 2.577919 1_555
Ca15 O15 2.634754 1_555
Ca15 O18 2.634771 1_555
Mn0 O39 1.940471 1_545
Mn0 O32 1.945754 1_555
Mn0 O21 1.950076 1_555
Mn0 O18 1.952223 1_545
Mn0 O27 1.955114 1_545
Mn0 O28 1.957139 1_555
Mn1 O36 1.941645 1_555
Mn1 O35 1.944420 1_554
Mn1 O24 1.949249 1_555
Mn1 O22 1.950772 1_555
Mn1 O17 1.953871 1_554
Mn1 O31 1.957192 1_554
Mn2 O34 1.941183 1_555
Mn2 O37 1.942929 1_555
Mn2 O23 1.950306 1_555
Mn2 O16 1.953237 1_555
Mn2 O25 1.954313 1_555
Mn2 O30 1.955961 1_555
Mn3 O41 1.941257 1_655
Mn3 O44 1.944294 1_555
Mn3 O25 1.949366 1_555
Mn3 O21 1.953231 1_555
Mn3 O28 1.954733 1_655
Mn3 O16 1.956440 1_655
Mn4 O42 1.942740 1_556
Mn4 O47 1.943277 1_455
Mn4 O19 1.949028 1_555
Mn4 O31 1.951961 1_555
Mn4 O26 1.953829 1_456
Mn4 O22 1.955768 1_456
Mn5 O46 1.942026 1_455
Mn5 O43 1.942139 1_555
Mn5 O30 1.950361 1_555
Mn5 O27 1.951089 1_455
Mn5 O23 1.955738 1_455
Mn5 O18 1.957047 1_555
Mn6 O41 1.941257 1_655
Mn6 O45 1.944294 1_555
Mn6 O5 1.949368 1_555
Mn6 O9 1.953233 1_555
Mn6 O1 1.954730 1_655
Mn6 O13 1.956438 1_655
Mn7 O42 1.942740 1_555
Mn7 O46 1.943277 1_455
Mn7 O14 1.949025 1_555
Mn7 O2 1.951958 1_555
Mn7 O6 1.953840 1_455
Mn7 O10 1.955765 1_455
Mn8 O47 1.942026 1_455
Mn8 O43 1.942139 1_555
Mn8 O3 1.950359 1_555
Mn8 O7 1.951091 1_455
Mn8 O11 1.955735 1_455
Mn8 O15 1.957038 1_555
Mn9 O39 1.940471 1_545
Mn9 O33 1.945754 1_555
Mn9 O9 1.950078 1_555
Mn9 O15 1.952229 1_545
Mn9 O7 1.955116 1_545
Mn9 O1 1.957137 1_555
Mn10 O36 1.941645 1_555
Mn10 O34 1.944420 1_555
Mn10 O4 1.949251 1_555
Mn10 O10 1.950783 1_555
Mn10 O12 1.953868 1_555
Mn10 O2 1.957190 1_555
Mn11 O35 1.941183 1_555
Mn11 O37 1.942929 1_555
Mn11 O11 1.950317 1_555
Mn11 O13 1.953234 1_555
Mn11 O5 1.954315 1_555
Mn11 O3 1.955958 1_555
Cr0 O33 1.936861 1_565
Cr0 O29 1.939515 1_565
Cr0 O38 1.942235 1_556
Cr0 O19 1.943423 1_555
Cr0 O26 1.962953 1_556
Cr0 O20 1.965782 1_566
Cr1 O45 1.938504 1_555
Cr1 O40 1.941198 1_656
Cr1 O20 1.946700 1_556
Cr1 O24 1.951140 1_556
Cr1 O29 1.957738 1_655
Cr1 O17 1.957838 1_655
Cr2 O44 1.938503 1_555
Cr2 O40 1.941198 1_655
Cr2 O8 1.946702 1_555
Cr2 O4 1.951142 1_555
Cr2 O0 1.957736 1_655
Cr2 O12 1.957836 1_655
Cr3 O32 1.936861 1_565
Cr3 O0 1.939512 1_565
Cr3 O38 1.942235 1_555
Cr3 O14 1.943421 1_555
Cr3 O6 1.962950 1_555
Cr3 O8 1.965784 1_565
