# generated using pymatgen
data_Rb3Ga2(Se2O7)2
_symmetry_space_group_name_H-M   'P 1'
_cell_length_a   9.77669120
_cell_length_b   9.77669120
_cell_length_c   13.58906500
_cell_angle_alpha   90.00000000
_cell_angle_beta   90.00000000
_cell_angle_gamma   136.36276597
_symmetry_Int_Tables_number   1
_chemical_formula_structural   Rb3Ga2(Se2O7)2
_chemical_formula_sum   'Rb6 Ga4 Se8 O28'
_cell_volume   896.35306915
_cell_formula_units_Z   2
loop_
 _symmetry_equiv_pos_site_id
 _symmetry_equiv_pos_as_xyz
  1  'x, y, z'
loop_
 _atom_site_type_symbol
 _atom_site_label
 _atom_site_symmetry_multiplicity
 _atom_site_fract_x
 _atom_site_fract_y
 _atom_site_fract_z
 _atom_site_occupancy
  Rb  Rb0  1  0.31645200  0.68354800  0.53491300  1
  Rb  Rb1  1  0.68354800  0.31645200  0.46508700  1
  Rb  Rb2  1  0.18354800  0.81645200  0.03491300  1
  Rb  Rb3  1  0.81645200  0.18354800  0.96508700  1
  Rb  Rb4  1  0.00000000  0.00000000  0.50000000  1
  Rb  Rb5  1  0.50000000  0.50000000  0.00000000  1
  Ga  Ga0  1  0.42086700  0.07913300  0.75000000  1
  Ga  Ga1  1  0.07913300  0.42086700  0.25000000  1
  Ga  Ga2  1  0.57913300  0.92086700  0.25000000  1
  Ga  Ga3  1  0.92086700  0.57913300  0.75000000  1
  Se  Se0  1  0.80534000  0.19466000  0.67021300  1
  Se  Se1  1  0.19466000  0.80534000  0.32978700  1
  Se  Se2  1  0.69466000  0.30534000  0.17021300  1
  Se  Se3  1  0.30534000  0.69466000  0.82978700  1
  Se  Se4  1  0.53758700  0.46241300  0.67792100  1
  Se  Se5  1  0.46241300  0.53758700  0.32207900  1
  Se  Se6  1  0.96241300  0.03758700  0.17792100  1
  Se  Se7  1  0.03758700  0.96241300  0.82207900  1
  O  O0  1  0.55978800  0.06370400  0.64667400  1
  O  O1  1  0.06370400  0.55978800  0.35332600  1
  O  O2  1  0.56370400  0.05978800  0.14667400  1
  O  O3  1  0.05978800  0.56370400  0.85332600  1
  O  O4  1  0.44021200  0.93629600  0.35332600  1
  O  O5  1  0.93629600  0.44021200  0.64667400  1
  O  O6  1  0.43629600  0.94021200  0.85332600  1
  O  O7  1  0.94021200  0.43629600  0.14667400  1
  O  O8  1  0.17484200  0.82515800  0.70240400  1
  O  O9  1  0.82515800  0.17484200  0.29759600  1
  O  O10  1  0.32515800  0.67484200  0.20240400  1
  O  O11  1  0.67484200  0.32515800  0.79759600  1
  O  O12  1  0.40066400  0.21917900  0.64662100  1
  O  O13  1  0.21917900  0.40066400  0.35337900  1
  O  O14  1  0.71917900  0.90066400  0.14662100  1
  O  O15  1  0.90066400  0.71917900  0.85337900  1
  O  O16  1  0.59933600  0.78082100  0.35337900  1
  O  O17  1  0.78082100  0.59933600  0.64662100  1
  O  O18  1  0.28082100  0.09933600  0.85337900  1
  O  O19  1  0.09933600  0.28082100  0.14662100  1
  O  O20  1  0.46802600  0.53197400  0.59661000  1
  O  O21  1  0.53197400  0.46802600  0.40339000  1
  O  O22  1  0.03197400  0.96802600  0.09661000  1
  O  O23  1  0.96802600  0.03197400  0.90339000  1
  O  O24  1  0.85856200  0.14143800  0.56986600  1
  O  O25  1  0.14143800  0.85856200  0.43013400  1
  O  O26  1  0.64143800  0.35856200  0.06986600  1
  O  O27  1  0.35856200  0.64143800  0.93013400  1
loop_
_geom_bond_atom_site_label_1
_geom_bond_atom_site_label_2
_geom_bond_distance
_geom_bond_site_symmetry_2
Ga0 O8 1.929891 1_545
Ga0 O11 1.929891 1_555
Ga0 O0 2.033588 1_555
Ga0 O6 2.033588 1_545
Ga0 O12 2.068493 1_555
Ga0 O18 2.068493 1_555
Ga1 O10 1.929891 1_555
Ga1 O9 1.929891 1_455
Ga1 O1 2.033588 1_555
Ga1 O7 2.033588 1_455
Ga1 O13 2.068493 1_555
Ga1 O19 2.068493 1_555
Ga2 O9 1.929891 1_565
Ga2 O10 1.929891 1_555
Ga2 O4 2.033588 1_555
Ga2 O2 2.033588 1_565
Ga2 O16 2.068493 1_555
Ga2 O14 2.068493 1_555
Ga3 O8 1.929891 1_655
Ga3 O11 1.929891 1_555
Ga3 O3 2.033588 1_655
Ga3 O5 2.033588 1_555
Ga3 O17 2.068493 1_555
Ga3 O15 2.068493 1_555
O0 Se0 1.748112 1_555
O0 Rb0 2.996919 1_545
O0 Rb1 3.054736 1_555
O1 Se1 1.748112 1_555
O1 Rb1 2.996919 1_455
O1 Rb0 3.054736 1_555
O2 Se2 1.748112 1_555
O2 Rb2 2.996919 1_545
O2 Rb3 3.054736 1_554
O3 Se3 1.748112 1_555
O3 Rb3 2.996919 1_455
O3 Rb2 3.054736 1_556
O4 Se1 1.748112 1_555
O4 Rb1 2.996919 1_565
O4 Rb0 3.054736 1_555
O5 Se0 1.748112 1_555
O5 Rb0 2.996919 1_655
O5 Rb1 3.054736 1_555
O6 Se3 1.748112 1_555
O6 Rb3 2.996919 1_565
O6 Rb2 3.054736 1_556
O7 Se2 1.748112 1_555
O7 Rb2 2.996919 1_655
O7 Rb3 3.054736 1_554
O12 Se4 1.737864 1_555
O12 Rb1 3.291169 1_555
O12 Rb4 3.428719 1_555
O13 Se5 1.737864 1_555
O13 Rb0 3.291169 1_555
O13 Rb4 3.428719 1_555
O14 Se6 1.737864 1_565
O14 Rb3 3.291169 1_564
O14 Rb5 3.428719 1_555
O15 Se7 1.737864 1_655
O15 Rb2 3.291169 1_656
O15 Rb5 3.428719 1_556
O16 Se5 1.737864 1_555
O16 Rb0 3.291169 1_555
O16 Rb4 3.428719 1_665
O17 Se4 1.737864 1_555
O17 Rb1 3.291169 1_555
O17 Rb4 3.428719 1_665
O18 Se7 1.737864 1_545
O18 Rb2 3.291169 1_546
O18 Rb5 3.428719 1_556
O19 Se6 1.737864 1_455
O19 Rb3 3.291169 1_454
O19 Rb5 3.428719 1_555
O20 Se4 1.677901 1_555
O20 Rb0 2.876375 1_555
O21 Se5 1.677901 1_555
O21 Rb1 2.876375 1_555
O22 Se6 1.677901 1_465
O22 Rb2 2.876375 1_555
O23 Se7 1.677901 1_645
O23 Rb3 2.876375 1_555
O24 Se0 1.671184 1_555
O24 Rb4 2.737395 1_655
O25 Se1 1.671184 1_555
O25 Rb4 2.737395 1_565
O26 Se2 1.671184 1_555
O26 Rb5 2.737395 1_555
O27 Se3 1.671184 1_555
O27 Rb5 2.737395 1_556
