# generated using pymatgen
data_Tb
_symmetry_space_group_name_H-M   'P 1'
_cell_length_a   7.21420381
_cell_length_b   7.21420381
_cell_length_c   17.67401312
_cell_angle_alpha   78.22372000
_cell_angle_beta   78.22372000
_cell_angle_gamma   59.99999585
_symmetry_Int_Tables_number   1
_chemical_formula_structural   Tb
_chemical_formula_sum   Tb24
_cell_volume   774.16758771
_cell_formula_units_Z   24
loop_
 _symmetry_equiv_pos_site_id
 _symmetry_equiv_pos_as_xyz
  1  'x, y, z'
loop_
 _atom_site_type_symbol
 _atom_site_label
 _atom_site_symmetry_multiplicity
 _atom_site_fract_x
 _atom_site_fract_y
 _atom_site_fract_z
 _atom_site_occupancy
  Tb  Tb0_0  1  0.00000000  0.00000000  0.00000000  1
  Tb  Tb0_1  1  0.00000000  0.00000000  0.50000000  1
  Tb  Tb0_2  1  1.00000000  0.50000000  0.00000000  1
  Tb  Tb0_3  1  0.00000000  0.50000000  0.50000000  1
  Tb  Tb0_4  1  0.50000000  0.00000000  0.00000000  1
  Tb  Tb0_5  1  0.50000000  0.00000000  0.50000000  1
  Tb  Tb0_6  1  0.50000000  0.50000000  0.00000000  1
  Tb  Tb0_7  1  0.50000000  0.50000000  0.50000000  1
  Tb  Tb1_0  1  0.11091618  0.11091618  0.16725097  1
  Tb  Tb1_1  1  0.11091618  0.11091618  0.66725097  1
  Tb  Tb1_2  1  0.11091617  0.61091617  0.16725097  1
  Tb  Tb1_3  1  0.11091617  0.61091618  0.66725097  1
  Tb  Tb1_4  1  0.61091618  0.11091618  0.16725097  1
  Tb  Tb1_5  1  0.61091618  0.11091618  0.66725097  1
  Tb  Tb1_6  1  0.61091618  0.61091618  0.16725097  1
  Tb  Tb1_7  1  0.61091618  0.61091618  0.66725097  1
  Tb  Tb2_0  1  0.38908382  0.38908382  0.33274903  1
  Tb  Tb2_1  1  0.38908382  0.38908382  0.83274903  1
  Tb  Tb2_2  1  0.38908382  0.88908383  0.33274903  1
  Tb  Tb2_3  1  0.38908382  0.88908383  0.83274903  1
  Tb  Tb2_4  1  0.88908383  0.38908382  0.33274903  1
  Tb  Tb2_5  1  0.88908383  0.38908382  0.83274903  1
  Tb  Tb2_6  1  0.88908382  0.88908382  0.33274903  1
  Tb  Tb2_7  1  0.88908382  0.88908382  0.83274903  1
loop_
_geom_bond_atom_site_label_1
_geom_bond_atom_site_label_2
_geom_bond_distance
_geom_bond_site_symmetry_2
Tb0_0 Tb1_0 3.548195 1_555
Tb0_0 Tb2_7 3.548195 1_444
Tb0_0 Tb1_4 3.548196 1_455
Tb0_0 Tb2_3 3.548196 1_544
Tb0_0 Tb2_5 3.548196 1_454
Tb0_0 Tb1_2 3.548196 1_545
Tb0_0 Tb0_6 3.607102 1_545
Tb0_0 Tb0_6 3.607102 1_455
Tb0_0 Tb0_2 3.607102 1_455
Tb0_0 Tb0_4 3.607102 1_555
Tb0_0 Tb0_4 3.607102 1_455
Tb0_0 Tb0_2 3.607102 1_445
Tb0_1 Tb2_6 3.548195 1_445
Tb0_1 Tb1_1 3.548195 1_555
Tb0_1 Tb2_4 3.548196 1_455
Tb0_1 Tb1_3 3.548196 1_545
Tb0_1 Tb2_2 3.548196 1_545
Tb0_1 Tb1_5 3.548196 1_455
Tb0_1 Tb0_7 3.607102 1_545
Tb0_1 Tb0_7 3.607102 1_455
Tb0_1 Tb0_5 3.607102 1_455
Tb0_1 Tb0_3 3.607102 1_545
Tb0_1 Tb0_3 3.607102 1_555
Tb0_1 Tb0_5 3.607102 1_555
Tb0_2 Tb1_2 3.548195 1_655
Tb0_2 Tb2_5 3.548195 1_554
Tb0_2 Tb2_7 3.548196 1_554
Tb0_2 Tb1_6 3.548196 1_555
Tb0_2 Tb1_0 3.548196 1_655
Tb0_2 Tb2_1 3.548196 1_654
Tb0_2 Tb0_4 3.607102 1_565
Tb0_2 Tb0_4 3.607102 1_655
Tb0_2 Tb0_6 3.607102 1_555
Tb0_2 Tb0_6 3.607102 1_655
Tb0_3 Tb1_3 3.548195 1_555
Tb0_3 Tb2_4 3.548195 1_455
Tb0_3 Tb1_7 3.548196 1_455
Tb0_3 Tb1_1 3.548196 1_555
Tb0_3 Tb2_0 3.548196 1_555
Tb0_3 Tb2_6 3.548196 1_455
Tb0_3 Tb0_5 3.607102 1_465
Tb0_3 Tb0_5 3.607102 1_555
Tb0_3 Tb0_7 3.607102 1_555
Tb0_3 Tb0_7 3.607102 1_455
Tb0_4 Tb1_4 3.548195 1_555
Tb0_4 Tb2_3 3.548195 1_544
Tb0_4 Tb1_6 3.548196 1_545
Tb0_4 Tb2_7 3.548196 1_544
Tb0_4 Tb1_0 3.548196 1_555
Tb0_4 Tb2_1 3.548196 1_554
Tb0_4 Tb0_6 3.607102 1_555
Tb0_4 Tb0_6 3.607102 1_545
Tb0_5 Tb1_5 3.548195 1_555
Tb0_5 Tb2_2 3.548195 1_545
Tb0_5 Tb1_7 3.548196 1_545
Tb0_5 Tb1_1 3.548196 1_555
Tb0_5 Tb2_6 3.548196 1_545
Tb0_5 Tb2_0 3.548196 1_555
Tb0_5 Tb0_7 3.607102 1_555
Tb0_5 Tb0_7 3.607102 1_545
Tb0_6 Tb1_6 3.548195 1_555
Tb0_6 Tb2_1 3.548195 1_554
Tb0_6 Tb1_4 3.548196 1_555
Tb0_6 Tb2_3 3.548196 1_554
Tb0_6 Tb1_2 3.548196 1_555
Tb0_6 Tb2_5 3.548196 1_554
Tb0_7 Tb2_0 3.548195 1_555
Tb0_7 Tb1_7 3.548195 1_555
Tb0_7 Tb1_5 3.548196 1_555
Tb0_7 Tb1_3 3.548196 1_555
Tb0_7 Tb2_4 3.548196 1_555
Tb0_7 Tb2_2 3.548196 1_555
Tb1_0 Tb2_6 3.523861 1_445
Tb1_0 Tb2_4 3.523864 1_455
Tb1_0 Tb2_2 3.523864 1_545
Tb1_0 Tb1_6 3.607102 1_455
Tb1_0 Tb1_6 3.607102 1_545
Tb1_0 Tb1_2 3.607102 1_555
Tb1_0 Tb1_4 3.607102 1_455
Tb1_0 Tb1_4 3.607102 1_555
Tb1_0 Tb1_2 3.607102 1_545
Tb1_1 Tb2_7 3.523861 1_445
Tb1_1 Tb2_5 3.523864 1_455
Tb1_1 Tb2_3 3.523864 1_545
Tb1_1 Tb1_7 3.607102 1_455
Tb1_1 Tb1_7 3.607102 1_545
Tb1_1 Tb1_5 3.607102 1_555
Tb1_1 Tb1_3 3.607102 1_555
Tb1_1 Tb1_3 3.607102 1_545
Tb1_1 Tb1_5 3.607102 1_455
Tb1_2 Tb2_4 3.523861 1_455
Tb1_2 Tb2_6 3.523864 1_455
Tb1_2 Tb2_0 3.523864 1_555
Tb1_2 Tb1_4 3.607102 1_465
Tb1_2 Tb1_4 3.607102 1_555
Tb1_2 Tb1_6 3.607102 1_455
Tb1_2 Tb1_6 3.607102 1_555
Tb1_3 Tb2_5 3.523861 1_455
Tb1_3 Tb2_1 3.523864 1_555
Tb1_3 Tb2_7 3.523864 1_455
Tb1_3 Tb1_5 3.607102 1_465
Tb1_3 Tb1_5 3.607102 1_555
Tb1_3 Tb1_7 3.607102 1_455
Tb1_3 Tb1_7 3.607102 1_555
Tb1_4 Tb2_2 3.523861 1_545
Tb1_4 Tb2_6 3.523864 1_545
Tb1_4 Tb2_0 3.523864 1_555
Tb1_4 Tb1_6 3.607102 1_545
Tb1_4 Tb1_6 3.607102 1_555
Tb1_5 Tb2_3 3.523861 1_545
Tb1_5 Tb2_1 3.523864 1_555
Tb1_5 Tb2_7 3.523864 1_545
Tb1_5 Tb1_7 3.607102 1_545
Tb1_5 Tb1_7 3.607102 1_555
Tb1_6 Tb2_0 3.523861 1_555
Tb1_6 Tb2_2 3.523864 1_555
Tb1_6 Tb2_4 3.523864 1_555
Tb1_7 Tb2_1 3.523861 1_555
Tb1_7 Tb2_5 3.523864 1_555
Tb1_7 Tb2_3 3.523864 1_555
Tb2_0 Tb2_6 3.607102 1_455
Tb2_0 Tb2_6 3.607102 1_545
Tb2_0 Tb2_4 3.607102 1_455
Tb2_0 Tb2_2 3.607102 1_545
Tb2_0 Tb2_4 3.607102 1_555
Tb2_0 Tb2_2 3.607102 1_555
Tb2_1 Tb2_7 3.607102 1_455
Tb2_1 Tb2_7 3.607102 1_545
Tb2_1 Tb2_3 3.607102 1_545
Tb2_1 Tb2_5 3.607102 1_455
Tb2_1 Tb2_5 3.607102 1_555
Tb2_1 Tb2_3 3.607102 1_555
Tb2_2 Tb2_4 3.607102 1_465
Tb2_2 Tb2_4 3.607102 1_555
Tb2_2 Tb2_6 3.607102 1_555
Tb2_2 Tb2_6 3.607102 1_455
Tb2_3 Tb2_5 3.607102 1_465
Tb2_3 Tb2_5 3.607102 1_555
Tb2_3 Tb2_7 3.607102 1_555
Tb2_3 Tb2_7 3.607102 1_455
Tb2_4 Tb2_6 3.607102 1_555
Tb2_4 Tb2_6 3.607102 1_545
Tb2_5 Tb2_7 3.607102 1_555
Tb2_5 Tb2_7 3.607102 1_545
