# generated using pymatgen
data_Na2FeO3
_symmetry_space_group_name_H-M   'P 1'
_cell_length_a   6.25721500
_cell_length_b   6.27427000
_cell_length_c   10.10586300
_cell_angle_alpha   90.00000000
_cell_angle_beta   90.00000000
_cell_angle_gamma   90.00000000
_symmetry_Int_Tables_number   1
_chemical_formula_structural   Na2FeO3
_chemical_formula_sum   'Na8 Fe4 O12'
_cell_volume   396.75068741
_cell_formula_units_Z   4
loop_
 _symmetry_equiv_pos_site_id
 _symmetry_equiv_pos_as_xyz
  1  'x, y, z'
loop_
 _atom_site_type_symbol
 _atom_site_label
 _atom_site_symmetry_multiplicity
 _atom_site_fract_x
 _atom_site_fract_y
 _atom_site_fract_z
 _atom_site_occupancy
  Na  Na0  1  0.01082500  0.50082300  0.75540000  1
  Na  Na1  1  0.01082500  0.99917700  0.75540000  1
  Na  Na2  1  0.48917500  0.49917700  0.25540000  1
  Na  Na3  1  0.48917500  0.00082300  0.25540000  1
  Na  Na4  1  0.51082500  0.50082300  0.74460000  1
  Na  Na5  1  0.51082500  0.99917700  0.74460000  1
  Na  Na6  1  0.98917500  0.00082300  0.24460000  1
  Na  Na7  1  0.98917500  0.49917700  0.24460000  1
  Fe  Fe0  1  0.16091100  0.75000000  0.00147900  1
  Fe  Fe1  1  0.33908900  0.25000000  0.50147900  1
  Fe  Fe2  1  0.66091100  0.75000000  0.49852100  1
  Fe  Fe3  1  0.83908900  0.25000000  0.99852100  1
  O  O0  1  0.00000000  0.00000000  0.00000000  1
  O  O1  1  0.00000000  0.50000000  0.00000000  1
  O  O2  1  0.22342600  0.25000000  0.34051800  1
  O  O3  1  0.24260700  0.25000000  0.66687600  1
  O  O4  1  0.25739300  0.75000000  0.16687600  1
  O  O5  1  0.27657400  0.75000000  0.84051800  1
  O  O6  1  0.50000000  0.50000000  0.50000000  1
  O  O7  1  0.50000000  0.00000000  0.50000000  1
  O  O8  1  0.72342600  0.25000000  0.15948200  1
  O  O9  1  0.74260700  0.25000000  0.83312400  1
  O  O10  1  0.75739300  0.75000000  0.33312400  1
  O  O11  1  0.77657400  0.75000000  0.65948200  1
loop_
_geom_bond_atom_site_label_1
_geom_bond_atom_site_label_2
_geom_bond_distance
_geom_bond_site_symmetry_2
Na0 O3 2.319560 1_555
Na0 O11 2.352082 1_455
Na0 O9 2.431105 1_455
Na0 O5 2.439103 1_555
Na0 O1 2.472827 1_556
Na1 O3 2.319560 1_565
Na1 O11 2.352082 1_455
Na1 O9 2.431105 1_465
Na1 O5 2.439103 1_555
Na1 O0 2.472827 1_566
Na2 O4 2.319560 1_555
Na2 O8 2.352082 1_555
Na2 O10 2.431105 1_555
Na2 O2 2.439103 1_555
Na2 O6 2.472827 1_555
Na3 O4 2.319560 1_545
Na3 O8 2.352082 1_555
Na3 O10 2.431105 1_545
Na3 O2 2.439103 1_555
Na3 O7 2.472827 1_555
Na4 O9 2.319560 1_555
Na4 O5 2.352082 1_555
Na4 O3 2.431105 1_555
Na4 O11 2.439103 1_555
Na4 O6 2.472827 1_555
Na5 O9 2.319560 1_565
Na5 O5 2.352082 1_555
Na5 O3 2.431105 1_565
Na5 O11 2.439103 1_555
Na5 O7 2.472827 1_565
Na6 O10 2.319560 1_545
Na6 O2 2.352082 1_655
Na6 O4 2.431105 1_645
Na6 O8 2.439103 1_555
Na6 O0 2.472827 1_655
Na7 O10 2.319560 1_555
Na7 O2 2.352082 1_655
Na7 O4 2.431105 1_655
Na7 O8 2.439103 1_555
Na7 O1 2.472827 1_655
Fe0 O4 1.777163 1_555
Fe0 O5 1.780385 1_554
Fe0 O0 1.863970 1_565
Fe0 O1 1.863970 1_555
Fe1 O3 1.777163 1_555
Fe1 O2 1.780385 1_555
Fe1 O7 1.863970 1_555
Fe1 O6 1.863970 1_555
Fe2 O10 1.777163 1_555
Fe2 O11 1.780385 1_555
Fe2 O7 1.863970 1_565
Fe2 O6 1.863970 1_555
Fe3 O9 1.777163 1_555
Fe3 O8 1.780385 1_556
Fe3 O0 1.863970 1_656
Fe3 O1 1.863970 1_656
