# generated using pymatgen
data_Ca5(SiN3)2
_symmetry_space_group_name_H-M   'P 1'
_cell_length_a   5.89287876
_cell_length_b   5.89287876
_cell_length_c   12.00733694
_cell_angle_alpha   85.09118680
_cell_angle_beta   85.09118680
_cell_angle_gamma   115.95974201
_symmetry_Int_Tables_number   1
_chemical_formula_structural   Ca5(SiN3)2
_chemical_formula_sum   'Ca10 Si4 N12'
_cell_volume   369.98138040
_cell_formula_units_Z   2
loop_
 _symmetry_equiv_pos_site_id
 _symmetry_equiv_pos_as_xyz
  1  'x, y, z'
loop_
 _atom_site_type_symbol
 _atom_site_label
 _atom_site_symmetry_multiplicity
 _atom_site_fract_x
 _atom_site_fract_y
 _atom_site_fract_z
 _atom_site_occupancy
  Ca  Ca0  1  0.72998333  0.38012911  0.73850706  1
  Ca  Ca1  1  0.38012911  0.72998333  0.73850706  1
  Ca  Ca2  1  0.27001667  0.61987089  0.26149294  1
  Ca  Ca3  1  0.61987089  0.27001667  0.26149294  1
  Ca  Ca4  1  0.08968008  0.08968008  0.79293357  1
  Ca  Ca5  1  0.91031992  0.91031992  0.20706643  1
  Ca  Ca6  1  0.81282144  0.18717856  0.50000000  1
  Ca  Ca7  1  0.18717856  0.81282144  0.50000000  1
  Ca  Ca8  1  0.75853366  0.24146634  -0.00000000  1
  Ca  Ca9  1  0.24146634  0.75853366  -0.00000000  1
  Si  Si0  1  0.35074917  0.35074917  0.57489320  1
  Si  Si1  1  0.64925083  0.64925083  0.42510680  1
  Si  Si2  1  0.67539069  0.67539069  0.93146243  1
  Si  Si3  1  0.32460931  0.32460931  0.06853757  1
  N  N0  1  0.09602457  0.38909633  0.63779302  1
  N  N1  1  0.38909633  0.09602457  0.63779302  1
  N  N2  1  0.90397543  0.61090367  0.36220698  1
  N  N3  1  0.61090367  0.90397543  0.36220698  1
  N  N4  1  0.94541213  0.65714965  0.87320332  1
  N  N5  1  0.65714965  0.94541213  0.87320332  1
  N  N6  1  0.05458787  0.34285035  0.12679668  1
  N  N7  1  0.34285035  0.05458787  0.12679668  1
  N  N8  1  0.39115384  0.39115384  0.91538753  1
  N  N9  1  0.60884616  0.60884616  0.08461247  1
  N  N10  1  0.35664762  0.35664762  0.42613739  1
  N  N11  1  0.64335238  0.64335238  0.57386261  1
loop_
_geom_bond_atom_site_label_1
_geom_bond_atom_site_label_2
_geom_bond_distance
_geom_bond_site_symmetry_2
Ca0 N0 2.358151 1_655
Ca0 N4 2.425121 1_555
Ca0 N1 2.473568 1_555
Ca0 N11 2.629855 1_555
Ca0 N5 2.751734 1_545
Ca0 N8 2.813038 1_555
Ca1 N1 2.358151 1_565
Ca1 N5 2.425121 1_555
Ca1 N0 2.473568 1_555
Ca1 N11 2.629855 1_555
Ca1 N4 2.751734 1_455
Ca1 N8 2.813038 1_555
Ca2 N2 2.358151 1_455
Ca2 N6 2.425121 1_555
Ca2 N3 2.473568 1_555
Ca2 N10 2.629855 1_555
Ca2 N7 2.751734 1_565
Ca2 N9 2.813038 1_555
Ca3 N3 2.358151 1_545
Ca3 N7 2.425121 1_555
Ca3 N2 2.473568 1_555
Ca3 N10 2.629855 1_555
Ca3 N6 2.751734 1_655
Ca3 N9 2.813038 1_555
Ca4 N5 2.385499 1_445
Ca4 N4 2.385499 1_445
Ca4 N0 2.439780 1_555
Ca4 N1 2.439780 1_555
Ca4 N8 2.570045 1_555
Ca5 N6 2.385499 1_665
Ca5 N7 2.385499 1_665
Ca5 N2 2.439780 1_555
Ca5 N3 2.439780 1_555
Ca5 N9 2.570045 1_555
Ca6 N3 2.451411 1_545
Ca6 N0 2.451411 1_655
Ca6 N2 2.688388 1_555
Ca6 N1 2.688388 1_555
Ca6 N10 2.934983 1_655
Ca6 N11 2.934983 1_545
Ca7 N2 2.451411 1_455
Ca7 N1 2.451411 1_565
Ca7 N3 2.688388 1_555
Ca7 N0 2.688388 1_555
Ca7 N10 2.934983 1_565
Ca7 N11 2.934983 1_455
Ca8 N6 2.327297 1_655
Ca8 N5 2.327297 1_544
Ca8 N7 2.498848 1_555
Ca8 N4 2.498848 1_554
Ca8 N8 2.896911 1_554
Ca8 N9 2.896911 1_555
Ca9 N4 2.327297 1_454
Ca9 N7 2.327297 1_565
Ca9 N6 2.498848 1_555
Ca9 N5 2.498848 1_554
Ca9 N8 2.896911 1_554
Ca9 N9 2.896911 1_555
N0 Si0 1.734018 1_555
N1 Si0 1.734018 1_555
N2 Si1 1.734018 1_555
N3 Si1 1.734018 1_555
N4 Si2 1.733479 1_555
N5 Si2 1.733479 1_555
N6 Si3 1.733479 1_555
N7 Si3 1.733479 1_555
N8 Si2 1.817360 1_555
N8 Si3 1.818719 1_556
N9 Si3 1.817360 1_555
N9 Si2 1.818719 1_554
N10 Si0 1.780584 1_555
N10 Si1 1.826524 1_555
N11 Si1 1.780584 1_555
N11 Si0 1.826524 1_555
