# generated using pymatgen
data_TiMn2Mo
_symmetry_space_group_name_H-M   'P 1'
_cell_length_a   9.48914862
_cell_length_b   9.48914862
_cell_length_c   9.48914862
_cell_angle_alpha   121.05728602
_cell_angle_beta   113.36624701
_cell_angle_gamma   95.01968450
_symmetry_Int_Tables_number   1
_chemical_formula_structural   TiMn2Mo
_chemical_formula_sum   'Ti1 Mn2 Mo1'
_cell_volume   623.85489584
_cell_formula_units_Z   1
loop_
 _symmetry_equiv_pos_site_id
 _symmetry_equiv_pos_as_xyz
  1  'x, y, z'
loop_
 _atom_site_type_symbol
 _atom_site_label
 _atom_site_symmetry_multiplicity
 _atom_site_fract_x
 _atom_site_fract_y
 _atom_site_fract_z
 _atom_site_occupancy
  Ti  Ti0  1  0.00000000  0.00000000  0.00000000  1
  Mn  Mn0  1  0.22540100  0.00000000  0.22540100  1
  Mn  Mn1  1  0.77459900  0.00000000  0.77459900  1
  Mo  Mo0  1  0.50000000  0.00000000  0.50000000  1
loop_
_geom_bond_atom_site_label_1
_geom_bond_atom_site_label_2
_geom_bond_distance
_geom_bond_site_symmetry_2
Mn0 Ti0 2.349623 1_555
Mn0 Mo0 2.862472 1_555
Mn1 Ti0 2.349623 1_656
Mn1 Mo0 2.862472 1_555
