# generated using pymatgen
data_ZnBP(HO3)2
_symmetry_space_group_name_H-M   'P 1'
_cell_length_a   9.05233600
_cell_length_b   9.26281100
_cell_length_c   10.73738800
_cell_angle_alpha   90.00000000
_cell_angle_beta   90.00000000
_cell_angle_gamma   90.00000000
_symmetry_Int_Tables_number   1
_chemical_formula_structural   ZnBP(HO3)2
_chemical_formula_sum   'Zn8 B8 P8 H16 O48'
_cell_volume   900.33081570
_cell_formula_units_Z   8
loop_
 _symmetry_equiv_pos_site_id
 _symmetry_equiv_pos_as_xyz
  1  'x, y, z'
loop_
 _atom_site_type_symbol
 _atom_site_label
 _atom_site_symmetry_multiplicity
 _atom_site_fract_x
 _atom_site_fract_y
 _atom_site_fract_z
 _atom_site_occupancy
  Zn  Zn0  1  0.13907000  0.50000000  0.25000000  1
  Zn  Zn1  1  0.36093000  0.00000000  0.75000000  1
  Zn  Zn2  1  0.86093000  0.50000000  0.75000000  1
  Zn  Zn3  1  0.63907000  0.00000000  0.25000000  1
  Zn  Zn4  1  0.12773800  0.00000000  0.25000000  1
  Zn  Zn5  1  0.37226200  0.50000000  0.75000000  1
  Zn  Zn6  1  0.87226200  0.00000000  0.75000000  1
  Zn  Zn7  1  0.62773800  0.50000000  0.25000000  1
  B  B0  1  0.52632100  0.75772000  0.42171300  1
  B  B1  1  0.97367900  0.74228000  0.92171300  1
  B  B2  1  0.97367900  0.25772000  0.57828700  1
  B  B3  1  0.52632100  0.24228000  0.07828700  1
  B  B4  1  0.47367900  0.24228000  0.57828700  1
  B  B5  1  0.02632100  0.25772000  0.07828700  1
  B  B6  1  0.02632100  0.74228000  0.42171300  1
  B  B7  1  0.47367900  0.75772000  0.92171300  1
  P  P0  1  0.22772700  0.76326100  0.07395300  1
  P  P1  1  0.27227300  0.73673900  0.57395300  1
  P  P2  1  0.27227300  0.26326100  0.92604700  1
  P  P3  1  0.22772700  0.23673900  0.42604700  1
  P  P4  1  0.77227300  0.23673900  0.92604700  1
  P  P5  1  0.72772700  0.26326100  0.42604700  1
  P  P6  1  0.72772700  0.73673900  0.07395300  1
  P  P7  1  0.77227300  0.76326100  0.57395300  1
  H  H0  1  0.41508600  0.95772700  0.38719600  1
  H  H1  1  0.08491400  0.54227300  0.88719600  1
  H  H2  1  0.08491400  0.45772700  0.61280400  1
  H  H3  1  0.41508600  0.04227300  0.11280400  1
  H  H4  1  0.58491400  0.04227300  0.61280400  1
  H  H5  1  0.91508600  0.45772700  0.11280400  1
  H  H6  1  0.91508600  0.54227300  0.38719600  1
  H  H7  1  0.58491400  0.95772700  0.88719600  1
  H  H8  1  0.40787700  0.66358800  0.27456300  1
  H  H9  1  0.09212300  0.83641200  0.77456300  1
  H  H10  1  0.09212300  0.16358800  0.72543700  1
  H  H11  1  0.40787700  0.33641200  0.22543700  1
  H  H12  1  0.59212300  0.33641200  0.72543700  1
  H  H13  1  0.90787700  0.16358800  0.22543700  1
  H  H14  1  0.90787700  0.83641200  0.27456300  1
  H  H15  1  0.59212300  0.66358800  0.77456300  1
  O  O0  1  0.26323800  0.64707500  0.17169200  1
  O  O1  1  0.23676200  0.85292500  0.67169200  1
  O  O2  1  0.23676200  0.14707500  0.82830800  1
  O  O3  1  0.26323800  0.35292500  0.32830800  1
  O  O4  1  0.73676200  0.35292500  0.82830800  1
  O  O5  1  0.76323800  0.14707500  0.32830800  1
  O  O6  1  0.76323800  0.85292500  0.17169200  1
  O  O7  1  0.73676200  0.64707500  0.67169200  1
  O  O8  1  0.50523300  0.90212600  0.36653600  1
  O  O9  1  0.99476700  0.59787400  0.86653600  1
  O  O10  1  0.99476700  0.40212600  0.63346400  1
  O  O11  1  0.50523300  0.09787400  0.13346400  1
  O  O12  1  0.49476700  0.09787400  0.63346400  1
  O  O13  1  0.00523300  0.40212600  0.13346400  1
  O  O14  1  0.00523300  0.59787400  0.36653600  1
  O  O15  1  0.49476700  0.90212600  0.86653600  1
  O  O16  1  0.26029700  0.91488100  0.12465700  1
  O  O17  1  0.23970300  0.58511900  0.62465700  1
  O  O18  1  0.23970300  0.41488100  0.87534300  1
  O  O19  1  0.26029700  0.08511900  0.37534300  1
  O  O20  1  0.73970300  0.08511900  0.87534300  1
  O  O21  1  0.76029700  0.41488100  0.37534300  1
  O  O22  1  0.76029700  0.58511900  0.12465700  1
  O  O23  1  0.73970300  0.91488100  0.62465700  1
  O  O24  1  0.49323800  0.64356700  0.33023400  1
  O  O25  1  0.00676200  0.85643300  0.83023400  1
  O  O26  1  0.00676200  0.14356700  0.66976600  1
  O  O27  1  0.49323800  0.35643300  0.16976600  1
  O  O28  1  0.50676200  0.35643300  0.66976600  1
  O  O29  1  0.99323800  0.14356700  0.16976600  1
  O  O30  1  0.99323800  0.85643300  0.33023400  1
  O  O31  1  0.50676200  0.64356700  0.83023400  1
  O  O32  1  0.18416200  0.76291600  0.45120200  1
  O  O33  1  0.31583800  0.73708400  0.95120200  1
  O  O34  1  0.31583800  0.26291600  0.54879800  1
  O  O35  1  0.18416200  0.23708400  0.04879800  1
  O  O36  1  0.81583800  0.23708400  0.54879800  1
  O  O37  1  0.68416200  0.26291600  0.04879800  1
  O  O38  1  0.68416200  0.73708400  0.45120200  1
  O  O39  1  0.81583800  0.76291600  0.95120200  1
  O  O40  1  0.06133300  0.75017900  0.03820200  1
  O  O41  1  0.43866700  0.74982100  0.53820200  1
  O  O42  1  0.43866700  0.25017900  0.96179800  1
  O  O43  1  0.06133300  0.24982100  0.46179800  1
  O  O44  1  0.93866700  0.24982100  0.96179800  1
  O  O45  1  0.56133300  0.25017900  0.46179800  1
  O  O46  1  0.56133300  0.74982100  0.03820200  1
  O  O47  1  0.93866700  0.75017900  0.53820200  1
loop_
_geom_bond_atom_site_label_1
_geom_bond_atom_site_label_2
_geom_bond_distance
_geom_bond_site_symmetry_2
B0 O24 1.473954 1_555
B0 O8 1.475342 1_555
B0 O38 1.475923 1_555
B0 O41 1.483045 1_555
B1 O25 1.473954 1_655
B1 O9 1.475342 1_555
B1 O39 1.475923 1_555
B1 O40 1.483045 1_656
B2 O26 1.473954 1_655
B2 O10 1.475342 1_555
B2 O36 1.475923 1_555
B2 O43 1.483045 1_655
B3 O27 1.473954 1_555
B3 O11 1.475342 1_555
B3 O37 1.475923 1_555
B3 O42 1.483045 1_554
B4 O28 1.473954 1_555
B4 O12 1.475342 1_555
B4 O34 1.475923 1_555
B4 O45 1.483045 1_555
B5 O29 1.473954 1_455
B5 O13 1.475342 1_555
B5 O35 1.475923 1_555
B5 O44 1.483045 1_454
B6 O30 1.473954 1_455
B6 O14 1.475342 1_555
B6 O32 1.475923 1_555
B6 O47 1.483045 1_455
B7 O31 1.473954 1_555
B7 O15 1.475342 1_555
B7 O33 1.475923 1_555
B7 O46 1.483045 1_556
H0 O8 0.990142 1_555
H1 O9 0.990142 1_455
H2 O10 0.990142 1_455
H3 O11 0.990142 1_555
H4 O12 0.990142 1_555
H5 O13 0.990142 1_655
H6 O14 0.990142 1_655
H7 O15 0.990142 1_555
H8 O24 0.994385 1_555
H8 O0 1.719820 1_555
H9 O25 0.994385 1_555
H9 O1 1.719820 1_555
H10 O26 0.994385 1_555
H10 O2 1.719820 1_555
H11 O27 0.994385 1_555
H11 O3 1.719820 1_555
H12 O28 0.994385 1_555
H12 O4 1.719820 1_555
H13 O29 0.994385 1_555
H13 O5 1.719820 1_555
H14 O30 0.994385 1_555
H14 O6 1.719820 1_555
H15 O31 0.994385 1_555
H15 O7 1.719820 1_555
O0 P0 1.537183 1_555
O0 Zn0 1.956098 1_555
O1 P1 1.537183 1_555
O1 Zn1 1.956098 1_565
O2 P2 1.537183 1_555
O2 Zn1 1.956098 1_555
O3 P3 1.537183 1_555
O3 Zn0 1.956098 1_555
O4 P4 1.537183 1_555
O4 Zn2 1.956098 1_555
O5 P5 1.537183 1_555
O5 Zn3 1.956098 1_555
O6 P6 1.537183 1_555
O6 Zn3 1.956098 1_565
O7 P7 1.537183 1_555
O7 Zn2 1.956098 1_555
O8 Zn3 1.963532 1_565
O9 Zn2 1.963532 1_555
O10 Zn2 1.963532 1_555
O11 Zn3 1.963532 1_555
O12 Zn1 1.963532 1_555
O13 Zn0 1.963532 1_555
O14 Zn0 1.963532 1_555
O15 Zn1 1.963532 1_565
O16 P0 1.534844 1_555
O16 Zn4 1.967967 1_565
O17 P1 1.534844 1_555
O17 Zn5 1.967967 1_555
O18 P2 1.534844 1_555
O18 Zn5 1.967967 1_555
O19 P3 1.534844 1_555
O19 Zn4 1.967967 1_555
O20 P4 1.534844 1_555
O20 Zn6 1.967967 1_555
O21 P5 1.534844 1_555
O21 Zn7 1.967967 1_555
O22 P6 1.534844 1_555
O22 Zn7 1.967967 1_555
O23 P7 1.534844 1_555
O23 Zn6 1.967967 1_565
O24 Zn7 1.998261 1_555
O25 Zn6 1.998261 1_465
O26 Zn6 1.998261 1_455
O27 Zn7 1.998261 1_555
O28 Zn5 1.998261 1_555
O29 Zn4 1.998261 1_655
O30 Zn4 1.998261 1_665
O31 Zn5 1.998261 1_555
O32 P1 1.559540 1_555
O33 P0 1.559540 1_556
O34 P3 1.559540 1_555
O35 P2 1.559540 1_554
O36 P5 1.559540 1_555
O37 P4 1.559540 1_554
O38 P7 1.559540 1_555
O39 P6 1.559540 1_556
O40 P0 1.559116 1_555
O41 P1 1.559116 1_555
O42 P2 1.559116 1_555
O43 P3 1.559116 1_555
O44 P4 1.559116 1_555
O45 P5 1.559116 1_555
O46 P6 1.559116 1_555
O47 P7 1.559116 1_555
