# generated using pymatgen
data_Ca(Al10Cr)2
_symmetry_space_group_name_H-M   'P 1'
_cell_length_a   10.21432999
_cell_length_b   10.21432999
_cell_length_c   10.21432999
_cell_angle_alpha   60.00000000
_cell_angle_beta   60.00000000
_cell_angle_gamma   60.00000000
_symmetry_Int_Tables_number   1
_chemical_formula_structural   Ca(Al10Cr)2
_chemical_formula_sum   'Ca2 Al40 Cr4'
_cell_volume   753.55447784
_cell_formula_units_Z   2
loop_
 _symmetry_equiv_pos_site_id
 _symmetry_equiv_pos_as_xyz
  1  'x, y, z'
loop_
 _atom_site_type_symbol
 _atom_site_label
 _atom_site_symmetry_multiplicity
 _atom_site_fract_x
 _atom_site_fract_y
 _atom_site_fract_z
 _atom_site_occupancy
  Ca  Ca0  1  0.50000000  0.50000000  0.50000000  1
  Ca  Ca1  1  0.75000000  0.75000000  0.75000000  1
  Al  Al0  1  0.86252000  0.86252000  0.13748000  1
  Al  Al1  1  0.13748000  0.13748000  0.86252000  1
  Al  Al2  1  0.86252000  0.13748000  0.86252000  1
  Al  Al3  1  0.13748000  0.86252000  0.13748000  1
  Al  Al4  1  0.13748000  0.86252000  0.86252000  1
  Al  Al5  1  0.86252000  0.13748000  0.13748000  1
  Al  Al6  1  0.38748000  0.38748000  0.11252000  1
  Al  Al7  1  0.11252000  0.11252000  0.38748000  1
  Al  Al8  1  0.38748000  0.11252000  0.38748000  1
  Al  Al9  1  0.11252000  0.38748000  0.11252000  1
  Al  Al10  1  0.11252000  0.38748000  0.38748000  1
  Al  Al11  1  0.38748000  0.11252000  0.11252000  1
  Al  Al12  1  0.56853500  0.29906800  0.29906800  1
  Al  Al13  1  0.29906800  0.56853500  0.83333000  1
  Al  Al14  1  0.29906800  0.83333000  0.56853500  1
  Al  Al15  1  0.83333000  0.29906800  0.29906800  1
  Al  Al16  1  0.29906800  0.29906800  0.56853500  1
  Al  Al17  1  0.56853500  0.83333000  0.29906800  1
  Al  Al18  1  0.83333000  0.56853500  0.29906800  1
  Al  Al19  1  0.29906800  0.29906800  0.83333000  1
  Al  Al20  1  0.29906800  0.56853500  0.29906800  1
  Al  Al21  1  0.83333000  0.29906800  0.56853500  1
  Al  Al22  1  0.56853500  0.29906800  0.83333000  1
  Al  Al23  1  0.29906800  0.83333000  0.29906800  1
  Al  Al24  1  0.68146500  0.95093200  0.95093200  1
  Al  Al25  1  0.95093200  0.68146500  0.41667000  1
  Al  Al26  1  0.95093200  0.41667000  0.68146500  1
  Al  Al27  1  0.41667000  0.95093200  0.95093200  1
  Al  Al28  1  0.95093200  0.95093200  0.68146500  1
  Al  Al29  1  0.68146500  0.41667000  0.95093200  1
  Al  Al30  1  0.41667000  0.68146500  0.95093200  1
  Al  Al31  1  0.95093200  0.95093200  0.41667000  1
  Al  Al32  1  0.95093200  0.68146500  0.95093200  1
  Al  Al33  1  0.41667000  0.95093200  0.68146500  1
  Al  Al34  1  0.68146500  0.95093200  0.41667000  1
  Al  Al35  1  0.95093200  0.41667000  0.95093200  1
  Al  Al36  1  0.12500000  0.62500000  0.62500000  1
  Al  Al37  1  0.62500000  0.12500000  0.62500000  1
  Al  Al38  1  0.62500000  0.62500000  0.12500000  1
  Al  Al39  1  0.62500000  0.62500000  0.62500000  1
  Cr  Cr0  1  0.62500000  0.12500000  0.12500000  1
  Cr  Cr1  1  0.12500000  0.62500000  0.12500000  1
  Cr  Cr2  1  0.12500000  0.12500000  0.62500000  1
  Cr  Cr3  1  0.12500000  0.12500000  0.12500000  1
loop_
_geom_bond_atom_site_label_1
_geom_bond_atom_site_label_2
_geom_bond_distance
_geom_bond_site_symmetry_2
Al0 Cr0 2.559938 1_565
Al0 Cr1 2.559938 1_655
Al0 Al17 2.697630 1_555
Al0 Al18 2.697630 1_555
Al0 Al5 2.808532 1_565
Al0 Al4 2.808532 1_654
Al0 Al3 2.808532 1_655
Al0 Al2 2.808532 1_564
Al0 Al34 2.828322 1_555
Al0 Al25 2.828322 1_555
Al0 Al24 2.828331 1_554
Al0 Al32 2.828331 1_554
Al1 Cr3 2.559938 1_556
Al1 Cr2 2.559938 1_555
Al1 Al16 2.697634 1_555
Al1 Al19 2.697639 1_555
Al1 Al3 2.808532 1_546
Al1 Al5 2.808532 1_456
Al1 Al4 2.808532 1_545
Al1 Al2 2.808532 1_455
Al1 Al27 2.828322 1_545
Al1 Al35 2.828322 1_455
Al1 Al26 2.828327 1_455
Al1 Al33 2.828327 1_545
Al2 Cr0 2.559938 1_556
Al2 Cr2 2.559938 1_655
Al2 Al22 2.697630 1_555
Al2 Al21 2.697630 1_555
Al2 Al4 2.808532 1_645
Al2 Al5 2.808532 1_556
Al2 Al26 2.828322 1_555
Al2 Al29 2.828322 1_555
Al2 Al28 2.828331 1_545
Al2 Al24 2.828331 1_545
Al3 Cr3 2.559938 1_565
Al3 Cr1 2.559938 1_555
Al3 Al5 2.808532 1_465
Al3 Al4 2.808532 1_554
Al3 Al31 2.828322 1_455
Al3 Al30 2.828327 1_554
Al4 Cr2 2.559938 1_565
Al4 Cr1 2.559938 1_556
Al5 Cr3 2.559938 1_655
Al5 Cr0 2.559938 1_555
Al6 Cr0 2.559938 1_555
Al6 Cr1 2.559938 1_555
Al6 Al8 2.808532 1_555
Al6 Al9 2.808532 1_555
Al7 Cr2 2.559938 1_555
Al7 Cr3 2.559938 1_555
Al7 Al8 2.808532 1_555
Al7 Al9 2.808532 1_555
Al8 Cr2 2.559938 1_555
Al8 Cr0 2.559938 1_555
Al9 Cr1 2.559938 1_555
Al9 Cr3 2.559938 1_555
Al10 Cr2 2.559938 1_555
Al10 Cr1 2.559938 1_555
Al10 Al26 2.697630 1_455
Al10 Al25 2.697630 1_455
Al10 Al8 2.808532 1_555
Al10 Al9 2.808532 1_555
Al10 Al6 2.808532 1_555
Al10 Al7 2.808532 1_555
Al10 Al21 2.828322 1_455
Al10 Al18 2.828322 1_455
Al10 Al16 2.828331 1_555
Al10 Al20 2.828331 1_555
Al11 Cr0 2.559938 1_555
Al11 Cr3 2.559938 1_555
Al11 Al24 2.697634 1_544
Al11 Al27 2.697639 1_544
Al11 Al8 2.808532 1_555
Al11 Al9 2.808532 1_555
Al11 Al6 2.808532 1_555
Al11 Al7 2.808532 1_555
Al11 Al23 2.828322 1_545
Al11 Al19 2.828322 1_554
Al11 Al22 2.828327 1_554
Al11 Al17 2.828327 1_545
Al12 Al5 2.697634 1_555
Al12 Al15 2.704704 1_555
Al12 Al20 2.752425 1_555
Al12 Al16 2.752425 1_555
Al12 Cr0 2.786656 1_555
Al12 Al8 2.828331 1_555
Al12 Al6 2.828331 1_555
Al12 Al29 2.903573 1_554
Al12 Al34 2.903573 1_545
Al12 Al37 3.090747 1_555
Al12 Al38 3.090747 1_555
Al12 Ca0 3.202096 1_555
Al13 Al4 2.697630 1_555
Al13 Al14 2.704704 1_555
Al13 Al22 2.752425 1_555
Al13 Al19 2.752425 1_555
Al13 Cr1 2.786647 1_556
Al13 Al6 2.828322 1_556
Al13 Al9 2.828327 1_556
Al13 Al30 2.903556 1_555
Al13 Al32 2.903573 1_455
Al13 Al39 3.090748 1_555
Al13 Al36 3.090756 1_555
Al13 Ca0 3.202104 1_555
Al14 Al4 2.697630 1_555
Al14 Al17 2.752425 1_555
Al14 Al23 2.752425 1_555
Al14 Cr2 2.786647 1_565
Al14 Al8 2.828322 1_565
Al14 Al7 2.828327 1_565
Al14 Al33 2.903556 1_555
Al14 Al28 2.903573 1_455
Al14 Al39 3.090748 1_555
Al14 Al36 3.090756 1_555
Al14 Ca0 3.202104 1_555
Al15 Al5 2.697639 1_555
Al15 Al18 2.752425 1_555
Al15 Al21 2.752425 1_555
Al15 Cr3 2.786651 1_655
Al15 Al7 2.828322 1_655
Al15 Al9 2.828322 1_655
Al15 Al31 2.903573 1_545
Al15 Al35 2.903573 1_554
Al15 Al38 3.090752 1_555
Al15 Al37 3.090752 1_555
Al15 Ca0 3.202100 1_555
Al16 Al19 2.704704 1_555
Al16 Al20 2.752425 1_555
Al16 Cr2 2.786656 1_555
Al16 Al8 2.828331 1_555
Al16 Al33 2.903573 1_545
Al16 Al26 2.903573 1_455
Al16 Al37 3.090747 1_555
Al16 Al36 3.090747 1_555
Al16 Ca0 3.202096 1_555
Al17 Al18 2.704704 1_555
Al17 Al23 2.752425 1_555
Al17 Cr0 2.786647 1_565
Al17 Al8 2.828322 1_565
Al17 Al34 2.903556 1_555
Al17 Al24 2.903573 1_554
Al17 Al39 3.090748 1_555
Al17 Al38 3.090756 1_555
Al17 Ca0 3.202104 1_555
Al18 Al21 2.752425 1_555
Al18 Cr1 2.786647 1_655
Al18 Al9 2.828327 1_655
Al18 Al25 2.903556 1_555
Al18 Al32 2.903573 1_554
Al18 Al39 3.090748 1_555
Al18 Al38 3.090756 1_555
Al18 Ca0 3.202104 1_555
Al19 Al22 2.752425 1_555
Al19 Cr3 2.786651 1_556
Al19 Al9 2.828322 1_556
Al19 Al35 2.903573 1_455
Al19 Al27 2.903573 1_545
Al19 Al37 3.090752 1_555
Al19 Al36 3.090752 1_555
Al19 Ca0 3.202100 1_555
Al20 Al3 2.697634 1_555
Al20 Al23 2.704704 1_555
Al20 Cr1 2.786656 1_555
Al20 Al6 2.828331 1_555
Al20 Al30 2.903573 1_554
Al20 Al25 2.903573 1_455
Al20 Al36 3.090747 1_555
Al20 Al38 3.090747 1_555
Al20 Ca0 3.202096 1_555
Al21 Al22 2.704704 1_555
Al21 Cr2 2.786647 1_655
Al21 Al7 2.828327 1_655
Al21 Al26 2.903556 1_555
Al21 Al28 2.903573 1_545
Al21 Al39 3.090748 1_555
Al21 Al37 3.090756 1_555
Al21 Ca0 3.202104 1_555
Al22 Cr0 2.786647 1_556
Al22 Al6 2.828322 1_556
Al22 Al29 2.903556 1_555
Al22 Al24 2.903573 1_545
Al22 Al39 3.090748 1_555
Al22 Al37 3.090756 1_555
Al22 Ca0 3.202104 1_555
Al23 Al3 2.697639 1_555
Al23 Cr3 2.786651 1_565
Al23 Al7 2.828322 1_565
Al23 Al27 2.903573 1_554
Al23 Al31 2.903573 1_455
Al23 Al36 3.090752 1_555
Al23 Al38 3.090752 1_555
Al23 Ca0 3.202100 1_555
Al24 Al27 2.704704 1_555
Al24 Al32 2.752425 1_555
Al24 Al28 2.752425 1_555
Al24 Cr0 2.786656 1_566
Al24 Al37 3.090747 1_565
Al24 Al38 3.090747 1_556
Al24 Ca1 3.202096 1_555
Al25 Al26 2.704704 1_555
Al25 Al34 2.752425 1_555
Al25 Al31 2.752425 1_555
Al25 Cr1 2.786647 1_655
Al25 Al3 2.828327 1_655
Al25 Al39 3.090748 1_555
Al25 Al36 3.090756 1_655
Al25 Ca1 3.202104 1_555
Al26 Al35 2.752425 1_555
Al26 Al29 2.752425 1_555
Al26 Cr2 2.786647 1_655
Al26 Al39 3.090748 1_555
Al26 Al36 3.090756 1_655
Al26 Ca1 3.202104 1_555
Al27 Al30 2.752425 1_555
Al27 Al33 2.752425 1_555
Al27 Cr3 2.786651 1_566
Al27 Al3 2.828322 1_556
Al27 Al37 3.090752 1_565
Al27 Al38 3.090752 1_556
Al27 Ca1 3.202100 1_555
Al28 Al7 2.697634 1_665
Al28 Al31 2.704704 1_555
Al28 Al32 2.752425 1_555
Al28 Cr2 2.786656 1_665
Al28 Al4 2.828331 1_655
Al28 Al36 3.090747 1_655
Al28 Al37 3.090747 1_565
Al28 Ca1 3.202096 1_555
Al29 Al6 2.697630 1_556
Al29 Al30 2.704704 1_555
Al29 Al35 2.752425 1_555
Al29 Cr0 2.786647 1_556
Al29 Al5 2.828327 1_556
Al29 Al39 3.090748 1_555
Al29 Al38 3.090756 1_556
Al29 Ca1 3.202104 1_555
Al30 Al6 2.697630 1_556
Al30 Al33 2.752425 1_555
Al30 Cr1 2.786647 1_556
Al30 Al4 2.828322 1_555
Al30 Al39 3.090748 1_555
Al30 Al38 3.090756 1_556
Al30 Ca1 3.202104 1_555
Al31 Al7 2.697639 1_665
Al31 Al34 2.752425 1_555
Al31 Cr3 2.786651 1_665
Al31 Al5 2.828322 1_565
Al31 Al36 3.090752 1_655
Al31 Al37 3.090752 1_565
Al31 Ca1 3.202100 1_555
Al32 Al9 2.697634 1_656
Al32 Al35 2.704704 1_555
Al32 Cr1 2.786656 1_656
Al32 Al4 2.828331 1_655
Al32 Al36 3.090747 1_655
Al32 Al38 3.090747 1_556
Al32 Ca1 3.202096 1_555
Al33 Al8 2.697630 1_565
Al33 Al34 2.704704 1_555
Al33 Cr2 2.786647 1_565
Al33 Al4 2.828322 1_555
Al33 Al39 3.090748 1_555
Al33 Al37 3.090756 1_565
Al33 Ca1 3.202104 1_555
Al34 Al8 2.697630 1_565
Al34 Cr0 2.786647 1_565
Al34 Al5 2.828327 1_565
Al34 Al39 3.090748 1_555
Al34 Al37 3.090756 1_565
Al34 Ca1 3.202104 1_555
Al35 Al9 2.697639 1_656
Al35 Cr3 2.786651 1_656
Al35 Al5 2.828322 1_556
Al35 Al36 3.090752 1_655
Al35 Al38 3.090752 1_556
Al35 Ca1 3.202100 1_555
Al36 Ca1 3.127487 1_455
Al36 Ca0 3.127487 1_555
Al37 Ca1 3.127487 1_545
Al37 Ca0 3.127487 1_555
Al38 Ca1 3.127487 1_554
Al38 Ca0 3.127487 1_555
Al39 Ca1 3.127487 1_555
Al39 Ca0 3.127487 1_555
