# generated using pymatgen
data_Re3N4
_symmetry_space_group_name_H-M   'P 1'
_cell_length_a   5.27499800
_cell_length_b   5.87324100
_cell_length_c   10.05312700
_cell_angle_alpha   90.00000000
_cell_angle_beta   90.00000000
_cell_angle_gamma   90.00000000
_symmetry_Int_Tables_number   1
_chemical_formula_structural   Re3N4
_chemical_formula_sum   'Re12 N16'
_cell_volume   311.45929064
_cell_formula_units_Z   4
loop_
 _symmetry_equiv_pos_site_id
 _symmetry_equiv_pos_as_xyz
  1  'x, y, z'
loop_
 _atom_site_type_symbol
 _atom_site_label
 _atom_site_symmetry_multiplicity
 _atom_site_fract_x
 _atom_site_fract_y
 _atom_site_fract_z
 _atom_site_occupancy
  Re  Re0  1  0.50000000  0.00000000  0.50000000  1
  Re  Re1  1  0.00000000  0.50000000  0.00000000  1
  Re  Re2  1  0.50000000  0.50000000  0.50000000  1
  Re  Re3  1  0.00000000  0.00000000  0.00000000  1
  Re  Re4  1  0.49048200  0.25000000  0.74554900  1
  Re  Re5  1  0.00951800  0.25000000  0.24554900  1
  Re  Re6  1  0.50951800  0.75000000  0.25445100  1
  Re  Re7  1  0.99048200  0.75000000  0.75445100  1
  Re  Re8  1  0.10162300  0.25000000  0.58245700  1
  Re  Re9  1  0.39837700  0.25000000  0.08245700  1
  Re  Re10  1  0.89837700  0.75000000  0.41754300  1
  Re  Re11  1  0.60162300  0.75000000  0.91754300  1
  N  N0  1  0.74014500  0.25000000  0.58419800  1
  N  N1  1  0.75985500  0.25000000  0.08419800  1
  N  N2  1  0.25985500  0.75000000  0.41580200  1
  N  N3  1  0.24014500  0.75000000  0.91580200  1
  N  N4  1  0.24862700  0.25000000  0.90830900  1
  N  N5  1  0.25137300  0.25000000  0.40830900  1
  N  N6  1  0.75137300  0.75000000  0.09169100  1
  N  N7  1  0.74862700  0.75000000  0.59169100  1
  N  N8  1  0.24624600  0.98492800  0.67062500  1
  N  N9  1  0.25375400  0.51507200  0.17062500  1
  N  N10  1  0.75375400  0.48492800  0.32937500  1
  N  N11  1  0.74624600  0.01507200  0.82937500  1
  N  N12  1  0.75375400  0.01507200  0.32937500  1
  N  N13  1  0.74624600  0.48492800  0.82937500  1
  N  N14  1  0.24624600  0.51507200  0.67062500  1
  N  N15  1  0.25375400  0.98492800  0.17062500  1
loop_
_geom_bond_atom_site_label_1
_geom_bond_atom_site_label_2
_geom_bond_distance
_geom_bond_site_symmetry_2
N0 Re8 1.906876 1_655
N0 Re4 2.089393 1_555
N0 Re2 2.115918 1_555
N0 Re0 2.115918 1_555
N1 Re9 1.906876 1_555
N1 Re5 2.089393 1_655
N1 Re1 2.115918 1_655
N1 Re3 2.115918 1_655
N2 Re10 1.906876 1_455
N2 Re6 2.089393 1_555
N2 Re2 2.115918 1_555
N2 Re0 2.115918 1_565
N3 Re11 1.906876 1_555
N3 Re7 2.089393 1_455
N3 Re1 2.115918 1_556
N3 Re3 2.115918 1_566
N4 Re9 1.920691 1_556
N4 Re4 2.074833 1_555
N4 Re1 2.173860 1_556
N4 Re3 2.173860 1_556
N5 Re8 1.920691 1_555
N5 Re5 2.074833 1_555
N5 Re0 2.173860 1_555
N5 Re2 2.173860 1_555
N6 Re11 1.920691 1_554
N6 Re6 2.074833 1_555
N6 Re1 2.173860 1_655
N6 Re3 2.173860 1_665
N7 Re10 1.920691 1_555
N7 Re7 2.074833 1_555
N7 Re0 2.173860 1_565
N7 Re2 2.173860 1_555
N8 Re8 1.947142 1_565
N8 Re7 2.105754 1_455
N8 Re4 2.156594 1_565
N8 Re0 2.177582 1_565
N9 Re9 1.947142 1_555
N9 Re6 2.105754 1_555
N9 Re5 2.156594 1_555
N9 Re1 2.177582 1_555
N10 Re10 1.947142 1_555
N10 Re5 2.105754 1_655
N10 Re6 2.156594 1_555
N10 Re2 2.177582 1_555
N11 Re11 1.947142 1_545
N11 Re4 2.105754 1_555
N11 Re7 2.156594 1_545
N11 Re3 2.177582 1_656
N12 Re10 1.947142 1_545
N12 Re5 2.105754 1_655
N12 Re6 2.156594 1_545
N12 Re0 2.177582 1_555
N13 Re11 1.947142 1_555
N13 Re4 2.105754 1_555
N13 Re7 2.156594 1_555
N13 Re1 2.177582 1_656
N14 Re8 1.947142 1_555
N14 Re7 2.105754 1_455
N14 Re4 2.156594 1_555
N14 Re2 2.177582 1_555
N15 Re9 1.947142 1_565
N15 Re6 2.105754 1_555
N15 Re5 2.156594 1_565
N15 Re3 2.177582 1_565
