# generated using pymatgen
data_LiLa4Ga2(FeO6)2
_symmetry_space_group_name_H-M   'P 1'
_cell_length_a   5.79830458
_cell_length_b   5.54953889
_cell_length_c   8.18409956
_cell_angle_alpha   92.00852125
_cell_angle_beta   91.42276591
_cell_angle_gamma   88.36736328
_symmetry_Int_Tables_number   1
_chemical_formula_structural   LiLa4Ga2(FeO6)2
_chemical_formula_sum   'Li1 La4 Ga2 Fe2 O12'
_cell_volume   263.00377432
_cell_formula_units_Z   1
loop_
 _symmetry_equiv_pos_site_id
 _symmetry_equiv_pos_as_xyz
  1  'x, y, z'
loop_
 _atom_site_type_symbol
 _atom_site_label
 _atom_site_symmetry_multiplicity
 _atom_site_fract_x
 _atom_site_fract_y
 _atom_site_fract_z
 _atom_site_occupancy
  Li  Li0  1  0.62975800  0.64998200  0.57246900  1
  La  La0  1  0.40455200  0.45258400  0.77947100  1
  La  La1  1  0.93542400  0.01435700  0.73823200  1
  La  La2  1  0.55654300  0.50872400  0.23824100  1
  La  La3  1  0.04901600  0.98460200  0.24237900  1
  Ga  Ga0  1  0.98220900  0.49161000  0.99900600  1
  Ga  Ga1  1  0.48908300  0.03505000  0.47905300  1
  Fe  Fe0  1  0.02963500  0.50640300  0.48870300  1
  Fe  Fe1  1  0.49938600  0.97732700  0.99427500  1
  O  O0  1  0.53047200  0.88115800  0.75195800  1
  O  O1  1  0.00600100  0.58002200  0.76314000  1
  O  O2  1  0.47237100  0.09077100  0.24160300  1
  O  O3  1  0.97920800  0.40797600  0.23280100  1
  O  O4  1  0.67431500  0.30539200  0.55096700  1
  O  O5  1  0.19755200  0.19075500  0.94944100  1
  O  O6  1  0.29013100  0.69616900  0.04360600  1
  O  O7  1  0.81539200  0.81854800  0.45211000  1
  O  O8  1  0.33645700  0.72113400  0.44495500  1
  O  O9  1  0.78355300  0.77738500  0.05392700  1
  O  O10  1  0.69914400  0.27427900  0.95427500  1
  O  O11  1  0.19932100  0.19529500  0.54605600  1
loop_
_geom_bond_atom_site_label_1
_geom_bond_atom_site_label_2
_geom_bond_distance
_geom_bond_site_symmetry_2
Li0 O7 1.782849 1_555
Li0 O4 1.924885 1_555
Li0 O0 2.000736 1_555
Li0 O8 2.009896 1_555
La0 O1 2.399279 1_555
La0 O5 2.410578 1_555
La0 O10 2.413519 1_555
La0 O0 2.526888 1_555
La0 O4 2.564471 1_555
La0 O6 2.599182 1_556
La0 O11 2.626166 1_555
La1 O1 2.448049 1_645
La1 O5 2.468197 1_655
La1 O11 2.478116 1_655
La1 O0 2.487994 1_545
La1 O10 2.629214 1_555
La1 O7 2.632931 1_545
La1 O4 2.677413 1_555
La2 O2 2.385043 1_555
La2 O8 2.400374 1_555
La2 O6 2.430651 1_555
La2 O3 2.499261 1_555
La2 O9 2.568845 1_555
La2 O10 2.756739 1_554
La2 O7 2.842218 1_555
La2 O4 2.891673 1_555
La3 O3 2.376430 1_465
La3 O7 2.434731 1_455
La3 O9 2.434958 1_455
La3 O2 2.540942 1_565
La3 O6 2.639321 1_555
La3 O8 2.749197 1_555
La3 O11 2.837308 1_565
La3 O5 2.854690 1_564
Ga0 O9 1.978793 1_556
Ga0 O3 1.985243 1_556
Ga0 O1 2.017297 1_655
Ga0 O10 2.081953 1_555
Ga0 O5 2.090474 1_655
Ga0 O6 2.159574 1_656
Ga1 O4 1.936308 1_555
Ga1 O11 1.959793 1_555
Ga1 O2 1.978015 1_555
Ga1 O8 1.984297 1_545
Ga1 O7 2.223649 1_545
Ga1 O0 2.422975 1_545
Fe0 O11 2.026391 1_555
Fe0 O7 2.128112 1_455
Fe0 O3 2.160686 1_455
Fe0 O8 2.212598 1_555
Fe0 O1 2.275538 1_555
Fe0 O4 2.443692 1_455
Fe1 O9 2.019465 1_556
Fe1 O0 2.046526 1_555
Fe1 O6 2.060592 1_556
Fe1 O10 2.080833 1_565
Fe1 O2 2.106869 1_566
Fe1 O5 2.116813 1_565
