# generated using pymatgen
data_C2S2N(O2F3)2
_symmetry_space_group_name_H-M   'P 1'
_cell_length_a   5.66225100
_cell_length_b   9.93264700
_cell_length_c   16.72071300
_cell_angle_alpha   90.00000000
_cell_angle_beta   90.00000000
_cell_angle_gamma   90.00000000
_symmetry_Int_Tables_number   1
_chemical_formula_structural   C2S2N(O2F3)2
_chemical_formula_sum   'C8 S8 N4 O16 F24'
_cell_volume   940.39196756
_cell_formula_units_Z   4
loop_
 _symmetry_equiv_pos_site_id
 _symmetry_equiv_pos_as_xyz
  1  'x, y, z'
loop_
 _atom_site_type_symbol
 _atom_site_label
 _atom_site_symmetry_multiplicity
 _atom_site_fract_x
 _atom_site_fract_y
 _atom_site_fract_z
 _atom_site_occupancy
  C  C0  1  0.22450600  0.41482100  0.09108300  1
  C  C1  1  0.27549400  0.41482100  0.40891700  1
  C  C2  1  0.77549400  0.08517900  0.59108300  1
  C  C3  1  0.72450600  0.08517900  0.90891700  1
  C  C4  1  0.77549400  0.58517900  0.90891700  1
  C  C5  1  0.72450600  0.58517900  0.59108300  1
  C  C6  1  0.22450600  0.91482100  0.40891700  1
  C  C7  1  0.27549400  0.91482100  0.09108300  1
  S  S0  1  0.42668900  0.42112400  0.18165000  1
  S  S1  1  0.07331100  0.42112400  0.31835000  1
  S  S2  1  0.57331100  0.07887600  0.68165000  1
  S  S3  1  0.92668900  0.07887600  0.81835000  1
  S  S4  1  0.57331100  0.57887600  0.81835000  1
  S  S5  1  0.92668900  0.57887600  0.68165000  1
  S  S6  1  0.42668900  0.92112400  0.31835000  1
  S  S7  1  0.07331100  0.92112400  0.18165000  1
  N  N0  1  0.25000000  0.50829600  0.25000000  1
  N  N1  1  0.75000000  0.99170400  0.75000000  1
  N  N2  1  0.75000000  0.49170400  0.75000000  1
  N  N3  1  0.25000000  0.00829600  0.25000000  1
  O  O0  1  0.60820800  0.51748400  0.16364400  1
  O  O1  1  0.89179200  0.51748400  0.33635600  1
  O  O2  1  0.39179200  0.98251600  0.66364400  1
  O  O3  1  0.10820800  0.98251600  0.83635600  1
  O  O4  1  0.39179200  0.48251600  0.83635600  1
  O  O5  1  0.10820800  0.48251600  0.66364400  1
  O  O6  1  0.60820800  0.01748400  0.33635600  1
  O  O7  1  0.89179200  0.01748400  0.16364400  1
  O  O8  1  0.48010400  0.28493900  0.20413000  1
  O  O9  1  0.01989600  0.28493900  0.29587000  1
  O  O10  1  0.51989600  0.21506100  0.70413000  1
  O  O11  1  0.98010400  0.21506100  0.79587000  1
  O  O12  1  0.51989600  0.71506100  0.79587000  1
  O  O13  1  0.98010400  0.71506100  0.70413000  1
  O  O14  1  0.48010400  0.78493900  0.29587000  1
  O  O15  1  0.01989600  0.78493900  0.20413000  1
  F  F0  1  0.35646300  0.36391600  0.03105000  1
  F  F1  1  0.14353700  0.36391600  0.46895000  1
  F  F2  1  0.64353700  0.13608400  0.53105000  1
  F  F3  1  0.85646300  0.13608400  0.96895000  1
  F  F4  1  0.64353700  0.63608400  0.96895000  1
  F  F5  1  0.85646300  0.63608400  0.53105000  1
  F  F6  1  0.35646300  0.86391600  0.46895000  1
  F  F7  1  0.14353700  0.86391600  0.03105000  1
  F  F8  1  0.15061200  0.53925000  0.07177900  1
  F  F9  1  0.34938800  0.53925000  0.42822100  1
  F  F10  1  0.84938800  0.96075000  0.57177900  1
  F  F11  1  0.65061200  0.96075000  0.92822100  1
  F  F12  1  0.84938800  0.46075000  0.92822100  1
  F  F13  1  0.65061200  0.46075000  0.57177900  1
  F  F14  1  0.15061200  0.03925000  0.42822100  1
  F  F15  1  0.34938800  0.03925000  0.07177900  1
  F  F16  1  0.03999500  0.33367600  0.10516400  1
  F  F17  1  0.46000500  0.33367600  0.39483600  1
  F  F18  1  0.96000500  0.16632400  0.60516400  1
  F  F19  1  0.53999500  0.16632400  0.89483600  1
  F  F20  1  0.96000500  0.66632400  0.89483600  1
  F  F21  1  0.53999500  0.66632400  0.60516400  1
  F  F22  1  0.03999500  0.83367600  0.39483600  1
  F  F23  1  0.46000500  0.83367600  0.10516400  1
loop_
_geom_bond_atom_site_label_1
_geom_bond_atom_site_label_2
_geom_bond_distance
_geom_bond_site_symmetry_2
C0 F16 1.340352 1_555
C0 F8 1.344143 1_555
C0 F0 1.349639 1_555
C0 S0 1.899408 1_555
C1 F17 1.340352 1_555
C1 F9 1.344143 1_555
C1 F1 1.349639 1_555
C1 S1 1.899408 1_555
C2 F18 1.340352 1_555
C2 F10 1.344143 1_545
C2 F2 1.349639 1_555
C2 S2 1.899408 1_555
C3 F19 1.340352 1_555
C3 F11 1.344143 1_545
C3 F3 1.349639 1_555
C3 S3 1.899408 1_555
C4 F20 1.340352 1_555
C4 F12 1.344143 1_555
C4 F4 1.349639 1_555
C4 S4 1.899408 1_555
C5 F21 1.340352 1_555
C5 F13 1.344143 1_555
C5 F5 1.349639 1_555
C5 S5 1.899408 1_555
C6 F22 1.340352 1_555
C6 F14 1.344143 1_565
C6 F6 1.349639 1_555
C6 S6 1.899408 1_555
C7 F23 1.340352 1_555
C7 F15 1.344143 1_565
C7 F7 1.349639 1_555
C7 S7 1.899408 1_555
N0 S0 1.748353 1_555
N0 S1 1.748353 1_555
N1 S2 1.748353 1_565
N1 S3 1.748353 1_565
N2 S5 1.748353 1_555
N2 S4 1.748353 1_555
N3 S7 1.748353 1_545
N3 S6 1.748353 1_545
O0 S0 1.436346 1_555
O1 S1 1.436346 1_655
O2 S2 1.436346 1_565
O3 S3 1.436346 1_465
O4 S4 1.436346 1_555
O5 S5 1.436346 1_455
O6 S6 1.436346 1_545
O7 S7 1.436346 1_645
O8 S0 1.436140 1_555
O9 S1 1.436140 1_555
O10 S2 1.436140 1_555
O11 S3 1.436140 1_555
O12 S4 1.436140 1_555
O13 S5 1.436140 1_555
O14 S6 1.436140 1_555
O15 S7 1.436140 1_555
