# generated using pymatgen
data_PdCN2
_symmetry_space_group_name_H-M   'P 1'
_cell_length_a   3.07363712
_cell_length_b   4.26062066
_cell_length_c   5.19613400
_cell_angle_alpha   90.00000000
_cell_angle_beta   90.00000000
_cell_angle_gamma   111.14336312
_symmetry_Int_Tables_number   1
_chemical_formula_structural   PdCN2
_chemical_formula_sum   'Pd1 C1 N2'
_cell_volume   63.46566664
_cell_formula_units_Z   1
loop_
 _symmetry_equiv_pos_site_id
 _symmetry_equiv_pos_as_xyz
  1  'x, y, z'
loop_
 _atom_site_type_symbol
 _atom_site_label
 _atom_site_symmetry_multiplicity
 _atom_site_fract_x
 _atom_site_fract_y
 _atom_site_fract_z
 _atom_site_occupancy
  Pd  Pd0  1  0.00000000  0.00000000  0.00000000  1
  C  C0  1  0.50000000  0.00000000  0.50000000  1
  N  N0  1  0.50000000  0.00000000  0.26346800  1
  N  N1  1  0.50000000  0.00000000  0.73653200  1
loop_
_geom_bond_atom_site_label_1
_geom_bond_atom_site_label_2
_geom_bond_distance
_geom_bond_site_symmetry_2
C0 N1 1.229052 1_555
C0 N0 1.229052 1_555
N0 Pd0 2.058158 1_555
N0 Pd0 2.058158 1_655
N1 Pd0 2.058158 1_656
N1 Pd0 2.058158 1_556
