# generated using pymatgen
data_Ti4Ni2O
_symmetry_space_group_name_H-M   'P 1'
_cell_length_a   7.98233188
_cell_length_b   7.98233188
_cell_length_c   7.98233188
_cell_angle_alpha   60.00000000
_cell_angle_beta   60.00000000
_cell_angle_gamma   60.00000000
_symmetry_Int_Tables_number   1
_chemical_formula_structural   Ti4Ni2O
_chemical_formula_sum   'Ti16 Ni8 O4'
_cell_volume   359.64526174
_cell_formula_units_Z   4
loop_
 _symmetry_equiv_pos_site_id
 _symmetry_equiv_pos_as_xyz
  1  'x, y, z'
loop_
 _atom_site_type_symbol
 _atom_site_label
 _atom_site_symmetry_multiplicity
 _atom_site_fract_x
 _atom_site_fract_y
 _atom_site_fract_z
 _atom_site_occupancy
  Ti  Ti0  1  0.31706500  0.31706500  0.68293500  1
  Ti  Ti1  1  0.68293500  0.31706500  0.68293500  1
  Ti  Ti2  1  0.31706500  0.68293500  0.68293500  1
  Ti  Ti3  1  0.68293500  0.68293500  0.31706500  1
  Ti  Ti4  1  0.31706500  0.68293500  0.31706500  1
  Ti  Ti5  1  0.68293500  0.31706500  0.31706500  1
  Ti  Ti6  1  0.44516200  0.44516200  0.05483800  1
  Ti  Ti7  1  0.05483800  0.44516200  0.05483800  1
  Ti  Ti8  1  0.44516200  0.05483800  0.05483800  1
  Ti  Ti9  1  0.05483800  0.05483800  0.44516200  1
  Ti  Ti10  1  0.44516200  0.05483800  0.44516200  1
  Ti  Ti11  1  0.05483800  0.44516200  0.44516200  1
  Ti  Ti12  1  0.08355000  0.08355000  0.74934900  1
  Ti  Ti13  1  0.08355000  0.74934900  0.08355000  1
  Ti  Ti14  1  0.74934900  0.08355000  0.08355000  1
  Ti  Ti15  1  0.08355000  0.08355000  0.08355000  1
  Ni  Ni0  1  0.87284000  0.87284000  0.38147900  1
  Ni  Ni1  1  0.87284000  0.38147900  0.87284000  1
  Ni  Ni2  1  0.38147900  0.87284000  0.87284000  1
  Ni  Ni3  1  0.87284000  0.87284000  0.87284000  1
  Ni  Ni4  1  0.66166800  0.66166800  0.01499700  1
  Ni  Ni5  1  0.66166800  0.01499700  0.66166800  1
  Ni  Ni6  1  0.01499700  0.66166800  0.66166800  1
  Ni  Ni7  1  0.66166800  0.66166800  0.66166800  1
  O  O0  1  0.37432600  0.37432600  0.87702300  1
  O  O1  1  0.37432600  0.87702300  0.37432600  1
  O  O2  1  0.87702300  0.37432600  0.37432600  1
  O  O3  1  0.37432600  0.37432600  0.37432600  1
loop_
_geom_bond_atom_site_label_1
_geom_bond_atom_site_label_2
_geom_bond_distance
_geom_bond_site_symmetry_2
Ni0 Ni7 2.446693 1_555
Ni0 Ni6 2.446702 1_655
Ni0 Ni5 2.446702 1_565
Ni0 Ti13 2.478441 1_655
Ni0 Ti14 2.478441 1_565
Ni0 Ti15 2.478441 1_665
Ni0 Ti10 2.840242 1_565
Ni0 Ti11 2.840242 1_655
Ni0 Ti9 2.840249 1_665
Ni0 Ti3 2.952448 1_555
Ni0 Ti4 2.952455 1_655
Ni0 Ti5 2.952455 1_565
Ni1 Ni7 2.446693 1_555
Ni1 Ni6 2.446702 1_655
Ni1 Ni4 2.446702 1_556
Ni1 Ti12 2.478441 1_655
Ni1 Ti14 2.478441 1_556
Ni1 Ti15 2.478441 1_656
Ni1 Ti6 2.840242 1_556
Ni1 Ti11 2.840242 1_655
Ni1 Ti7 2.840249 1_656
Ni1 Ti1 2.952448 1_555
Ni1 Ti0 2.952455 1_655
Ni1 Ti5 2.952455 1_556
Ni2 Ni7 2.446693 1_555
Ni2 Ni4 2.446702 1_556
Ni2 Ni5 2.446702 1_565
Ni2 Ti13 2.478441 1_556
Ni2 Ti12 2.478441 1_565
Ni2 Ti15 2.478441 1_566
Ni2 Ti10 2.840242 1_565
Ni2 Ti6 2.840242 1_556
Ni2 Ti8 2.840249 1_566
Ni2 Ti2 2.952448 1_555
Ni2 Ti4 2.952455 1_556
Ni2 Ti0 2.952455 1_565
Ni3 Ni5 2.446690 1_565
Ni3 Ni6 2.446690 1_655
Ni3 Ni4 2.446690 1_556
Ni3 Ti14 2.478441 1_566
Ni3 Ti13 2.478441 1_656
Ni3 Ti12 2.478441 1_665
Ni3 Ti8 2.840243 1_566
Ni3 Ti7 2.840243 1_656
Ni3 Ti9 2.840243 1_665
Ni3 Ti1 2.952454 1_565
Ni3 Ti2 2.952454 1_655
Ni3 Ti3 2.952454 1_556
Ni4 Ti3 2.592109 1_555
Ni4 Ti5 2.592114 1_555
Ni4 Ti4 2.592114 1_555
Ni4 Ti8 2.821724 1_565
Ni4 Ti7 2.821724 1_655
Ni4 Ti6 2.821731 1_555
Ni5 Ti1 2.592109 1_555
Ni5 Ti5 2.592114 1_555
Ni5 Ti0 2.592114 1_555
Ni5 Ti9 2.821724 1_655
Ni5 Ti8 2.821724 1_556
Ni5 Ti10 2.821731 1_555
Ni6 Ti2 2.592109 1_555
Ni6 Ti0 2.592114 1_555
Ni6 Ti4 2.592114 1_555
Ni6 Ti7 2.821724 1_556
Ni6 Ti9 2.821724 1_565
Ni6 Ti11 2.821731 1_555
Ni7 Ti1 2.592117 1_555
Ni7 Ti3 2.592117 1_555
Ni7 Ti2 2.592117 1_555
Ni7 Ti10 2.821727 1_565
Ni7 Ti6 2.821727 1_556
Ni7 Ti11 2.821727 1_655
O0 Ti2 2.107904 1_555
O0 Ti1 2.107904 1_555
O0 Ti0 2.107909 1_555
O0 Ti6 2.139843 1_556
O0 Ti8 2.139848 1_556
O0 Ti7 2.139848 1_556
O1 Ti2 2.107904 1_555
O1 Ti3 2.107904 1_555
O1 Ti4 2.107909 1_555
O1 Ti10 2.139843 1_565
O1 Ti8 2.139848 1_565
O1 Ti9 2.139848 1_565
O2 Ti1 2.107904 1_555
O2 Ti3 2.107904 1_555
O2 Ti5 2.107909 1_555
O2 Ti11 2.139843 1_655
O2 Ti9 2.139848 1_655
O2 Ti7 2.139848 1_655
O3 Ti5 2.107902 1_555
O3 Ti0 2.107902 1_555
O3 Ti4 2.107902 1_555
O3 Ti6 2.139850 1_555
O3 Ti10 2.139850 1_555
O3 Ti11 2.139850 1_555
