# generated using pymatgen
data_Ce2Si7
_symmetry_space_group_name_H-M   'P 1'
_cell_length_a   6.11147854
_cell_length_b   6.11147854
_cell_length_c   4.44274000
_cell_angle_alpha   90.00000000
_cell_angle_beta   90.00000000
_cell_angle_gamma   109.49371900
_symmetry_Int_Tables_number   1
_chemical_formula_structural   Ce2Si7
_chemical_formula_sum   'Ce2 Si7'
_cell_volume   156.42526109
_cell_formula_units_Z   1
loop_
 _symmetry_equiv_pos_site_id
 _symmetry_equiv_pos_as_xyz
  1  'x, y, z'
loop_
 _atom_site_type_symbol
 _atom_site_label
 _atom_site_symmetry_multiplicity
 _atom_site_fract_x
 _atom_site_fract_y
 _atom_site_fract_z
 _atom_site_occupancy
  Ce  Ce0  1  0.29574600  0.70425400  0.00000000  1
  Ce  Ce1  1  0.70425400  0.29574600  0.00000000  1
  Si  Si0  1  0.50000000  0.50000000  0.50000000  1
  Si  Si1  1  0.32114600  0.05646400  0.50000000  1
  Si  Si2  1  0.67885400  0.94353600  0.50000000  1
  Si  Si3  1  0.05646400  0.32114600  0.50000000  1
  Si  Si4  1  0.94353600  0.67885400  0.50000000  1
  Si  Si5  1  0.17932700  0.17932700  0.00000000  1
  Si  Si6  1  0.82067300  0.82067300  0.00000000  1
loop_
_geom_bond_atom_site_label_1
_geom_bond_atom_site_label_2
_geom_bond_distance
_geom_bond_site_symmetry_2
Ce0 Si0 3.015118 1_554
Ce0 Si0 3.015118 1_555
Ce0 Si6 3.045427 1_555
Ce0 Si5 3.045427 1_555
Ce0 Si4 3.060871 1_455
Ce0 Si4 3.060871 1_454
Ce0 Si1 3.060871 1_565
Ce0 Si1 3.060871 1_564
Ce0 Si2 3.204653 1_554
Ce0 Si2 3.204653 1_555
Ce0 Si3 3.204653 1_555
Ce0 Si3 3.204653 1_554
Ce0 Si5 3.211641 1_565
Ce0 Si6 3.211641 1_455
Ce1 Si0 3.015118 1_554
Ce1 Si0 3.015118 1_555
Ce1 Si6 3.045427 1_555
Ce1 Si5 3.045427 1_555
Ce1 Si2 3.060871 1_545
Ce1 Si2 3.060871 1_544
Ce1 Si3 3.060871 1_654
Ce1 Si3 3.060871 1_655
Ce1 Si4 3.204653 1_555
Ce1 Si4 3.204653 1_554
Ce1 Si1 3.204653 1_555
Ce1 Si1 3.204653 1_554
Ce1 Si5 3.211641 1_655
Ce1 Si6 3.211641 1_545
Si0 Si3 2.562224 1_555
Si0 Si1 2.562224 1_555
Si0 Si2 2.562224 1_555
Si0 Si4 2.562224 1_555
Si1 Si2 2.502483 1_545
Si1 Si5 2.585316 1_555
Si1 Si5 2.585316 1_556
Si1 Si3 2.641894 1_555
Si1 Si4 2.664026 1_445
Si2 Si6 2.585316 1_556
Si2 Si6 2.585316 1_555
Si2 Si4 2.641894 1_555
Si2 Si3 2.664026 1_665
Si3 Si4 2.502483 1_455
Si3 Si5 2.585316 1_555
Si3 Si5 2.585316 1_556
Si4 Si6 2.585316 1_556
Si4 Si6 2.585316 1_555
Si5 Si6 2.530292 1_445
