# generated using pymatgen
data_Sr2LaMnCoO7
_symmetry_space_group_name_H-M   'P 1'
_cell_length_a   5.50888595
_cell_length_b   10.50729891
_cell_length_c   5.51072532
_cell_angle_alpha   74.76500267
_cell_angle_beta   90.41072815
_cell_angle_gamma   90.13720769
_symmetry_Int_Tables_number   1
_chemical_formula_structural   Sr2LaMnCoO7
_chemical_formula_sum   'Sr4 La2 Mn2 Co2 O14'
_cell_volume   307.76199499
_cell_formula_units_Z   2
loop_
 _symmetry_equiv_pos_site_id
 _symmetry_equiv_pos_as_xyz
  1  'x, y, z'
loop_
 _atom_site_type_symbol
 _atom_site_label
 _atom_site_symmetry_multiplicity
 _atom_site_fract_x
 _atom_site_fract_y
 _atom_site_fract_z
 _atom_site_occupancy
  Sr  Sr0  1  0.99991700  0.00525100  0.49757700  1
  Sr  Sr1  1  0.49987500  0.00554900  0.99737300  1
  Sr  Sr2  1  0.00000700  0.36348100  0.31821400  1
  Sr  Sr3  1  0.50006200  0.36445400  0.81772200  1
  La  La0  1  0.49986700  0.63723800  0.18099700  1
  La  La1  1  0.00025900  0.63660300  0.68172700  1
  Mn  Mn0  1  0.49990100  0.19854200  0.40083800  1
  Mn  Mn1  1  0.00016900  0.19633500  0.90202200  1
  Co  Co0  1  0.00002600  0.81134400  0.09426500  1
  Co  Co1  1  0.50009300  0.81470900  0.59252200  1
  O  O0  1  0.00015300  0.60136400  0.19921100  1
  O  O1  1  0.49995900  0.60595700  0.69705700  1
  O  O2  1  0.50003400  0.39601900  0.30186100  1
  O  O3  1  0.00003200  0.39474500  0.80262500  1
  O  O4  1  0.49968400  0.99970200  0.50057400  1
  O  O5  1  0.99979300  0.00833800  0.99609900  1
  O  O6  1  0.75558400  0.79750600  0.85578200  1
  O  O7  1  0.24493300  0.79746800  0.34614700  1
  O  O8  1  0.74567000  0.79482900  0.35684500  1
  O  O9  1  0.25411000  0.79537800  0.84786800  1
  O  O10  1  0.74886800  0.19404600  0.65249400  1
  O  O11  1  0.25108400  0.19404700  0.15355600  1
  O  O12  1  0.74861400  0.19351900  0.15402800  1
  O  O13  1  0.25130300  0.19357900  0.65259800  1
loop_
_geom_bond_atom_site_label_1
_geom_bond_atom_site_label_2
_geom_bond_distance
_geom_bond_site_symmetry_2
La0 O2 2.445487 1_555
La0 O8 2.515604 1_555
La0 O9 2.517139 1_554
La0 O7 2.543619 1_555
La0 O6 2.543790 1_554
La0 O1 2.771438 1_554
La0 O1 2.775667 1_555
La0 O0 2.776607 1_555
La0 O0 2.780094 1_655
La1 O3 2.451964 1_555
La1 O8 2.519359 1_455
La1 O9 2.519980 1_555
La1 O7 2.544735 1_555
La1 O6 2.544961 1_455
La1 O1 2.770432 1_555
La1 O1 2.773388 1_455
La1 O0 2.777490 1_556
La1 O0 2.779363 1_555
Mn0 O11 1.935137 1_555
Mn0 O10 1.935245 1_555
Mn0 O13 1.947291 1_555
Mn0 O12 1.948003 1_555
Mn0 O2 2.002028 1_555
Mn0 O4 2.015846 1_545
Mn1 O5 1.905920 1_455
Mn1 O11 1.946220 1_556
Mn1 O10 1.948816 1_455
Mn1 O13 1.962770 1_555
Mn1 O12 1.963586 1_456
Mn1 O3 2.011487 1_555
Co0 O6 1.906766 1_454
Co0 O7 1.906810 1_555
Co0 O9 1.994778 1_554
Co0 O8 1.995818 1_455
Co0 O5 1.997135 1_464
Co0 O0 2.128785 1_555
Co1 O4 1.875472 1_555
Co1 O8 1.931250 1_555
Co1 O9 1.932198 1_555
Co1 O6 1.988079 1_555
Co1 O7 1.988142 1_555
Co1 O1 2.116334 1_555
O0 Sr2 2.411665 1_555
O1 Sr3 2.448366 1_555
O2 Sr3 2.773634 1_554
O2 Sr2 2.774101 1_555
O2 Sr3 2.774132 1_555
O2 Sr2 2.774149 1_655
O3 Sr3 2.771180 1_455
O3 Sr3 2.771838 1_555
O3 Sr2 2.773120 1_556
O3 Sr2 2.773945 1_555
O4 Sr0 2.753756 1_465
O4 Sr1 2.754497 1_565
O4 Sr0 2.756280 1_565
O4 Sr1 2.757503 1_564
O5 Sr1 2.754117 1_555
O5 Sr1 2.755060 1_655
O5 Sr0 2.755157 1_556
O5 Sr0 2.755924 1_555
O6 Sr0 2.869239 1_565
O6 Sr1 2.880722 1_565
O7 Sr1 2.874414 1_564
O7 Sr0 2.876202 1_465
O8 Sr0 2.884843 1_565
O8 Sr1 2.886289 1_564
O9 Sr0 2.879047 1_465
O9 Sr1 2.883472 1_565
O10 Sr2 2.603483 1_655
O10 Sr3 2.607717 1_555
O10 Sr1 2.731728 1_555
O10 Sr0 2.738024 1_555
O11 Sr2 2.604743 1_555
O11 Sr3 2.606791 1_554
O11 Sr1 2.732731 1_554
O11 Sr0 2.737103 1_455
O12 Sr2 2.597149 1_655
O12 Sr3 2.600265 1_554
O12 Sr1 2.718443 1_554
O12 Sr0 2.724203 1_555
O13 Sr2 2.597183 1_555
O13 Sr3 2.599717 1_555
O13 Sr1 2.718673 1_555
O13 Sr0 2.724278 1_455
