# generated using pymatgen
data_CsCaTa6Cl18
_symmetry_space_group_name_H-M   'P 1'
_cell_length_a   9.42961513
_cell_length_b   9.42961513
_cell_length_c   17.58142800
_cell_angle_alpha   90.00000000
_cell_angle_beta   90.00000000
_cell_angle_gamma   119.99999390
_symmetry_Int_Tables_number   1
_chemical_formula_structural   CsCaTa6Cl18
_chemical_formula_sum   'Cs2 Ca2 Ta12 Cl36'
_cell_volume   1353.85682805
_cell_formula_units_Z   2
loop_
 _symmetry_equiv_pos_site_id
 _symmetry_equiv_pos_as_xyz
  1  'x, y, z'
loop_
 _atom_site_type_symbol
 _atom_site_label
 _atom_site_symmetry_multiplicity
 _atom_site_fract_x
 _atom_site_fract_y
 _atom_site_fract_z
 _atom_site_occupancy
  Cs  Cs0  1  0.33333300  0.66666700  0.75000000  1
  Cs  Cs1  1  0.66666700  0.33333300  0.25000000  1
  Ca  Ca0  1  0.66666700  0.33333300  0.75000000  1
  Ca  Ca1  1  0.33333300  0.66666700  0.25000000  1
  Ta  Ta0  1  0.84196800  0.03786100  0.56834700  1
  Ta  Ta1  1  0.15803200  0.96213900  0.43165300  1
  Ta  Ta2  1  0.96213900  0.80410600  0.56834700  1
  Ta  Ta3  1  0.84196800  0.80410600  0.93165300  1
  Ta  Ta4  1  0.03786100  0.19589400  0.43165300  1
  Ta  Ta5  1  0.15803200  0.19589400  0.06834700  1
  Ta  Ta6  1  0.19589400  0.15803200  0.56834700  1
  Ta  Ta7  1  0.96213900  0.15803200  0.93165300  1
  Ta  Ta8  1  0.80410600  0.84196800  0.43165300  1
  Ta  Ta9  1  0.03786100  0.84196800  0.06834700  1
  Ta  Ta10  1  0.19589400  0.03786100  0.93165300  1
  Ta  Ta11  1  0.80410600  0.96213900  0.06834700  1
  Cl  Cl0  1  0.64114400  0.07820000  0.65671500  1
  Cl  Cl1  1  0.35885600  0.92180000  0.34328500  1
  Cl  Cl2  1  0.92180000  0.56294400  0.65671500  1
  Cl  Cl3  1  0.64114400  0.56294400  0.84328500  1
  Cl  Cl4  1  0.07820000  0.43705600  0.34328500  1
  Cl  Cl5  1  0.35885600  0.43705600  0.15671500  1
  Cl  Cl6  1  0.43705600  0.35885600  0.65671500  1
  Cl  Cl7  1  0.92180000  0.35885600  0.84328500  1
  Cl  Cl8  1  0.56294400  0.64114400  0.34328500  1
  Cl  Cl9  1  0.07820000  0.64114400  0.15671500  1
  Cl  Cl10  1  0.43705600  0.07820000  0.84328500  1
  Cl  Cl11  1  0.56294400  0.92180000  0.15671500  1
  Cl  Cl12  1  0.04370500  0.22959800  0.65900900  1
  Cl  Cl13  1  0.95629500  0.77040200  0.34099100  1
  Cl  Cl14  1  0.77040200  0.81410700  0.65900900  1
  Cl  Cl15  1  0.04370500  0.81410700  0.84099100  1
  Cl  Cl16  1  0.22959800  0.18589300  0.34099100  1
  Cl  Cl17  1  0.95629500  0.18589300  0.15900900  1
  Cl  Cl18  1  0.18589300  0.95629500  0.65900900  1
  Cl  Cl19  1  0.77040200  0.95629500  0.84099100  1
  Cl  Cl20  1  0.81410700  0.04370500  0.34099100  1
  Cl  Cl21  1  0.22959800  0.04370500  0.15900900  1
  Cl  Cl22  1  0.18589300  0.22959800  0.84099100  1
  Cl  Cl23  1  0.81410700  0.77040200  0.15900900  1
  Cl  Cl24  1  0.27320000  0.41335500  0.50001000  1
  Cl  Cl25  1  0.72680000  0.58664500  0.49999000  1
  Cl  Cl26  1  0.58664500  0.85984600  0.50001000  1
  Cl  Cl27  1  0.27320000  0.85984600  0.99999000  1
  Cl  Cl28  1  0.41335500  0.14015400  0.49999000  1
  Cl  Cl29  1  0.72680000  0.14015400  0.00001000  1
  Cl  Cl30  1  0.14015400  0.72680000  0.50001000  1
  Cl  Cl31  1  0.58664500  0.72680000  0.99999000  1
  Cl  Cl32  1  0.85984600  0.27320000  0.49999000  1
  Cl  Cl33  1  0.41335500  0.27320000  0.00001000  1
  Cl  Cl34  1  0.14015400  0.41335500  0.99999000  1
  Cl  Cl35  1  0.85984600  0.58664500  0.00001000  1
loop_
_geom_bond_atom_site_label_1
_geom_bond_atom_site_label_2
_geom_bond_distance
_geom_bond_site_symmetry_2
Ca0 Cl7 2.820760 1_555
Ca0 Cl0 2.820760 1_555
Ca0 Cl10 2.820764 1_555
Ca0 Cl2 2.820764 1_555
Ca0 Cl3 2.820768 1_555
Ca0 Cl6 2.820768 1_555
Ca1 Cl9 2.820760 1_555
Ca1 Cl1 2.820760 1_555
Ca1 Cl4 2.820764 1_555
Ca1 Cl11 2.820764 1_555
Ca1 Cl5 2.820768 1_555
Ca1 Cl8 2.820768 1_555
Cl0 Ta0 2.620090 1_555
Cl0 Cs0 3.861355 1_545
Cl1 Ta1 2.620090 1_555
Cl1 Cs1 3.861355 1_565
Cl2 Ta2 2.620083 1_555
Cl2 Cs0 3.861352 1_655
Cl3 Ta3 2.620085 1_555
Cl3 Cs0 3.861361 1_555
Cl4 Ta4 2.620083 1_555
Cl4 Cs1 3.861352 1_455
Cl5 Ta5 2.620085 1_555
Cl5 Cs1 3.861361 1_555
Cl6 Ta6 2.620085 1_555
Cl6 Cs0 3.861361 1_555
Cl7 Ta7 2.620090 1_555
Cl7 Cs0 3.861355 1_655
Cl8 Ta8 2.620085 1_555
Cl8 Cs1 3.861361 1_555
Cl9 Ta9 2.620090 1_555
Cl9 Cs1 3.861355 1_455
Cl10 Ta10 2.620083 1_555
Cl10 Cs0 3.861352 1_545
Cl11 Ta11 2.620083 1_555
Cl11 Cs1 3.861352 1_565
Cl12 Ta0 2.447243 1_455
Cl12 Ta6 2.454396 1_555
Cl12 Cs0 3.968379 1_555
Cl13 Ta1 2.447243 1_655
Cl13 Ta8 2.454396 1_555
Cl13 Cs1 3.968379 1_555
Cl14 Ta2 2.447247 1_555
Cl14 Ta0 2.454389 1_565
Cl14 Cs0 3.968380 1_555
Cl15 Ta3 2.447240 1_455
Cl15 Ta10 2.454390 1_565
Cl15 Cs0 3.968372 1_555
Cl16 Ta4 2.447247 1_555
Cl16 Ta1 2.454389 1_545
Cl16 Cs1 3.968380 1_555
Cl17 Ta5 2.447240 1_655
Cl17 Ta11 2.454390 1_545
Cl17 Cs1 3.968372 1_555
Cl18 Ta6 2.447240 1_565
Cl18 Ta2 2.454390 1_455
Cl18 Cs0 3.968372 1_555
Cl19 Ta7 2.447243 1_565
Cl19 Ta3 2.454396 1_555
Cl19 Cs0 3.968379 1_555
Cl20 Ta8 2.447240 1_545
Cl20 Ta4 2.454390 1_655
Cl20 Cs1 3.968372 1_555
Cl21 Ta9 2.447243 1_545
Cl21 Ta5 2.454396 1_555
Cl21 Cs1 3.968379 1_555
Cl22 Ta10 2.447247 1_555
Cl22 Ta7 2.454389 1_455
Cl22 Cs0 3.968380 1_555
Cl23 Ta11 2.447247 1_555
Cl23 Ta9 2.454389 1_655
Cl23 Cs1 3.968380 1_555
Cl24 Ta6 2.452829 1_555
Cl24 Ta4 2.454245 1_555
Cl25 Ta8 2.452829 1_555
Cl25 Ta2 2.454245 1_555
Cl26 Ta0 2.452826 1_565
Cl26 Ta8 2.454245 1_555
Cl27 Ta10 2.452814 1_565
Cl27 Ta9 2.454245 1_556
Cl28 Ta1 2.452826 1_545
Cl28 Ta6 2.454245 1_555
Cl29 Ta11 2.452814 1_545
Cl29 Ta7 2.454245 1_554
Cl30 Ta2 2.452814 1_455
Cl30 Ta1 2.454245 1_555
Cl31 Ta3 2.452829 1_555
Cl31 Ta11 2.454245 1_556
Cl32 Ta4 2.452814 1_655
Cl32 Ta0 2.454245 1_555
Cl33 Ta5 2.452829 1_555
Cl33 Ta10 2.454245 1_554
Cl34 Ta7 2.452826 1_455
Cl34 Ta5 2.454245 1_556
Cl35 Ta9 2.452826 1_655
Cl35 Ta3 2.454245 1_554
