# generated using pymatgen
data_SrLa2(CoO3)3
_symmetry_space_group_name_H-M   'P 1'
_cell_length_a   5.43526440
_cell_length_b   5.47858015
_cell_length_c   13.46719649
_cell_angle_alpha   90.95527150
_cell_angle_beta   89.96405176
_cell_angle_gamma   60.28863177
_symmetry_Int_Tables_number   1
_chemical_formula_structural   SrLa2(CoO3)3
_chemical_formula_sum   'Sr2 La4 Co6 O18'
_cell_volume   348.23240890
_cell_formula_units_Z   2
loop_
 _symmetry_equiv_pos_site_id
 _symmetry_equiv_pos_as_xyz
  1  'x, y, z'
loop_
 _atom_site_type_symbol
 _atom_site_label
 _atom_site_symmetry_multiplicity
 _atom_site_fract_x
 _atom_site_fract_y
 _atom_site_fract_z
 _atom_site_occupancy
  Sr  Sr0  1  0.33082600  0.33302300  0.41686200  1
  Sr  Sr1  1  0.33483000  0.33395400  0.91648700  1
  La  La0  1  0.66858200  0.66470300  0.08584300  1
  La  La1  1  0.66785300  0.66268100  0.58568600  1
  La  La2  1  0.99961100  0.00313200  0.24867100  1
  La  La3  1  0.99970100  0.00142800  0.74809300  1
  Co  Co0  1  0.33409400  0.33209400  0.66666300  1
  Co  Co1  1  0.66826100  0.66717000  0.83637300  1
  Co  Co2  1  0.99724700  0.99947300  0.49746800  1
  Co  Co3  1  0.33457800  0.33359000  0.16653400  1
  Co  Co4  1  0.66366600  0.66704000  0.33615100  1
  Co  Co5  1  0.00205500  0.00095000  0.99742200  1
  O  O0  1  0.82377700  0.82929300  0.41390800  1
  O  O1  1  0.83822200  0.83962900  0.92004700  1
  O  O2  1  0.82615300  0.33302800  0.41659400  1
  O  O3  1  0.83581100  0.33746400  0.91834900  1
  O  O4  1  0.31907500  0.83611700  0.41898200  1
  O  O5  1  0.33882100  0.83368700  0.91084700  1
  O  O6  1  0.18010100  0.15156200  0.08502600  1
  O  O7  1  0.16104900  0.16772900  0.59210900  1
  O  O8  1  0.49068700  0.51453800  0.24748000  1
  O  O9  1  0.50879600  0.49516400  0.74082800  1
  O  O10  1  0.49154200  0.00890000  0.24523900  1
  O  O11  1  0.50037700  0.00598200  0.74419200  1
  O  O12  1  0.17788400  0.65884600  0.08794700  1
  O  O13  1  0.16853900  0.65797900  0.58871100  1
  O  O14  1  0.99409600  0.49933500  0.24004600  1
  O  O15  1  0.99569400  0.51149400  0.74775000  1
  O  O16  1  0.67566500  0.16723600  0.09370900  1
  O  O17  1  0.67241000  0.15277900  0.58598300  1
loop_
_geom_bond_atom_site_label_1
_geom_bond_atom_site_label_2
_geom_bond_distance
_geom_bond_site_symmetry_2
La0 O14 2.596558 1_555
La0 O6 2.672995 1_565
La0 O10 2.674614 1_565
La0 O8 2.682492 1_555
La0 O12 2.683260 1_555
La0 O16 2.710388 1_555
La0 O3 2.715817 1_554
La0 O12 2.752598 1_655
La0 O16 2.772721 1_565
La0 O1 2.774651 1_554
La0 O6 2.807910 1_655
La0 O5 2.838458 1_554
La1 O9 2.608277 1_555
La1 O11 2.662569 1_565
La1 O15 2.688285 1_555
La1 O17 2.697340 1_565
La1 O13 2.709024 1_655
La1 O7 2.710907 1_655
La1 O13 2.727048 1_555
La1 O2 2.740024 1_555
La1 O7 2.772692 1_565
La1 O17 2.781416 1_555
La1 O0 2.781705 1_555
La1 O4 2.797795 1_555
La2 O16 2.600318 1_555
La2 O8 2.684397 1_645
La2 O12 2.689099 1_645
La2 O10 2.689955 1_655
La2 O6 2.707098 1_655
La2 O14 2.708196 1_555
La2 O2 2.727919 1_555
La2 O10 2.746391 1_555
La2 O4 2.759156 1_645
La2 O14 2.775577 1_545
La2 O0 2.782541 1_545
La2 O8 2.796588 1_555
La3 O7 2.620208 1_655
La3 O13 2.672263 1_645
La3 O17 2.687261 1_555
La3 O15 2.694931 1_545
La3 O9 2.701952 1_555
La3 O11 2.702231 1_555
La3 O5 2.727501 1_645
La3 O11 2.734238 1_655
La3 O3 2.769678 1_555
La3 O9 2.782453 1_645
La3 O15 2.783788 1_555
La3 O1 2.784928 1_545
Co0 O9 1.873429 1_555
Co0 O7 1.874612 1_555
Co0 O11 1.887268 1_555
Co0 O13 1.889589 1_555
Co0 O17 1.923070 1_555
Co0 O15 1.926455 1_455
Co1 O5 1.841844 1_555
Co1 O3 1.935993 1_555
Co1 O15 1.943690 1_555
Co1 O1 1.961346 1_555
Co1 O9 2.016310 1_555
Co1 O11 2.053912 1_565
Co2 O4 1.841814 1_655
Co2 O17 1.933312 1_565
Co2 O2 1.942563 1_565
Co2 O0 1.965278 1_555
Co2 O7 2.010625 1_665
Co2 O13 2.056321 1_655
Co3 O16 1.876830 1_555
Co3 O14 1.879196 1_455
Co3 O10 1.890833 1_555
Co3 O12 1.892195 1_555
Co3 O8 1.920928 1_555
Co3 O6 1.923292 1_555
Co4 O0 1.838745 1_555
Co4 O8 1.937729 1_555
Co4 O2 1.941004 1_555
Co4 O4 1.963025 1_555
Co4 O14 2.016568 1_555
Co4 O10 2.055001 1_565
Co5 O1 1.846746 1_445
Co5 O3 1.940296 1_455
Co5 O6 1.941582 1_556
Co5 O5 1.961769 1_545
Co5 O16 2.003558 1_456
Co5 O12 2.052922 1_546
O0 Sr0 2.731858 1_565
O0 Sr0 2.750489 1_655
O1 Sr1 2.735349 1_565
O1 Sr1 2.746983 1_655
O2 Sr0 2.692247 1_555
O2 Sr0 2.743022 1_655
O3 Sr1 2.702918 1_655
O3 Sr1 2.732674 1_555
O4 Sr0 2.724817 1_555
O4 Sr0 2.755172 1_565
O5 Sr1 2.729852 1_565
O5 Sr1 2.750953 1_555
O6 Sr1 2.786355 1_554
O7 Sr0 2.852802 1_555
O8 Sr0 2.806593 1_555
O9 Sr1 2.857449 1_555
O10 Sr0 2.753419 1_555
O11 Sr1 2.770893 1_555
O12 Sr1 2.753752 1_554
O13 Sr0 2.758085 1_555
O14 Sr0 2.876605 1_655
O15 Sr1 2.794529 1_655
O16 Sr1 2.891944 1_554
O17 Sr0 2.805787 1_555
