# generated using pymatgen
data_GdLuRu2
_symmetry_space_group_name_H-M   'P 1'
_cell_length_a   4.74326206
_cell_length_b   4.74326206
_cell_length_c   4.74326206
_cell_angle_alpha   60.00000000
_cell_angle_beta   60.00000000
_cell_angle_gamma   60.00000000
_symmetry_Int_Tables_number   1
_chemical_formula_structural   GdLuRu2
_chemical_formula_sum   'Gd1 Lu1 Ru2'
_cell_volume   75.45992373
_cell_formula_units_Z   1
loop_
 _symmetry_equiv_pos_site_id
 _symmetry_equiv_pos_as_xyz
  1  'x, y, z'
loop_
 _atom_site_type_symbol
 _atom_site_label
 _atom_site_symmetry_multiplicity
 _atom_site_fract_x
 _atom_site_fract_y
 _atom_site_fract_z
 _atom_site_occupancy
  Gd  Gd0  1  0.50000000  0.50000000  0.50000000  1
  Lu  Lu0  1  0.00000000  0.00000000  0.00000000  1
  Ru  Ru0  1  0.75000000  0.75000000  0.75000000  1
  Ru  Ru1  1  0.25000000  0.25000000  0.25000000  1
loop_
_geom_bond_atom_site_label_1
_geom_bond_atom_site_label_2
_geom_bond_distance
_geom_bond_site_symmetry_2
Gd0 Ru1 2.904643 1_655
Gd0 Ru0 2.904643 1_545
Gd0 Ru0 2.904643 1_455
Gd0 Ru0 2.904643 1_555
Gd0 Ru1 2.904643 1_565
Gd0 Ru1 2.904643 1_556
Gd0 Ru0 2.904643 1_554
Gd0 Ru1 2.904643 1_555
Lu0 Ru0 2.904643 1_454
Lu0 Ru1 2.904643 1_554
Lu0 Ru0 2.904643 1_544
Lu0 Ru0 2.904643 1_444
Lu0 Ru0 2.904643 1_445
Lu0 Ru1 2.904643 1_455
Lu0 Ru1 2.904643 1_555
Lu0 Ru1 2.904643 1_545
