# generated using pymatgen
data_Zn(NCl2)2
_symmetry_space_group_name_H-M   'P 1'
_cell_length_a   8.45237600
_cell_length_b   8.80011500
_cell_length_c   13.88591400
_cell_angle_alpha   90.00000000
_cell_angle_beta   90.00000000
_cell_angle_gamma   90.00000000
_symmetry_Int_Tables_number   1
_chemical_formula_structural   Zn(NCl2)2
_chemical_formula_sum   'Zn4 N8 Cl16'
_cell_volume   1032.86040027
_cell_formula_units_Z   4
loop_
 _symmetry_equiv_pos_site_id
 _symmetry_equiv_pos_as_xyz
  1  'x, y, z'
loop_
 _atom_site_type_symbol
 _atom_site_label
 _atom_site_symmetry_multiplicity
 _atom_site_fract_x
 _atom_site_fract_y
 _atom_site_fract_z
 _atom_site_occupancy
  Zn  Zn0  1  0.61842600  0.25000000  0.12350500  1
  Zn  Zn1  1  0.11842600  0.25000000  0.37649500  1
  Zn  Zn2  1  0.38157400  0.75000000  0.87649500  1
  Zn  Zn3  1  0.88157400  0.75000000  0.62350500  1
  N  N0  1  0.04619300  0.75000000  0.13546100  1
  N  N1  1  0.54619300  0.75000000  0.36453900  1
  N  N2  1  0.95380700  0.25000000  0.86453900  1
  N  N3  1  0.45380700  0.25000000  0.63546100  1
  N  N4  1  0.63410900  0.75000000  0.89842100  1
  N  N5  1  0.13410900  0.75000000  0.60157900  1
  N  N6  1  0.36589100  0.25000000  0.10157900  1
  N  N7  1  0.86589100  0.25000000  0.39842100  1
  Cl  Cl0  1  0.18544200  0.25000000  0.07359600  1
  Cl  Cl1  1  0.68544200  0.25000000  0.42640400  1
  Cl  Cl2  1  0.81455800  0.75000000  0.92640400  1
  Cl  Cl3  1  0.31455800  0.75000000  0.57359600  1
  Cl  Cl4  1  0.76732400  0.25000000  0.88906200  1
  Cl  Cl5  1  0.26732400  0.25000000  0.61093800  1
  Cl  Cl6  1  0.23267600  0.75000000  0.11093800  1
  Cl  Cl7  1  0.73267600  0.75000000  0.38906200  1
  Cl  Cl8  1  0.68259200  0.01723500  0.12859600  1
  Cl  Cl9  1  0.18259200  0.48276500  0.37140400  1
  Cl  Cl10  1  0.31740800  0.51723500  0.87140400  1
  Cl  Cl11  1  0.81740800  0.98276500  0.62859600  1
  Cl  Cl12  1  0.31740800  0.98276500  0.87140400  1
  Cl  Cl13  1  0.81740800  0.51723500  0.62859600  1
  Cl  Cl14  1  0.68259200  0.48276500  0.12859600  1
  Cl  Cl15  1  0.18259200  0.01723500  0.37140400  1
loop_
_geom_bond_atom_site_label_1
_geom_bond_atom_site_label_2
_geom_bond_distance
_geom_bond_site_symmetry_2
N4 Zn2 2.156125 1_555
N5 Zn3 2.156125 1_455
N6 Zn0 2.156125 1_555
N7 Zn1 2.156125 1_655
Cl0 N6 1.573941 1_555
Cl1 N7 1.573941 1_555
Cl2 N4 1.573941 1_555
Cl3 N5 1.573941 1_555
Cl4 N2 1.612588 1_555
Cl5 N3 1.612588 1_555
Cl6 N0 1.612588 1_555
Cl7 N1 1.612588 1_555
Cl8 Zn0 2.120123 1_555
Cl9 Zn1 2.120123 1_555
Cl10 Zn2 2.120123 1_555
Cl11 Zn3 2.120123 1_555
Cl12 Zn2 2.120123 1_555
Cl13 Zn3 2.120123 1_555
Cl14 Zn0 2.120123 1_555
Cl15 Zn1 2.120123 1_555
