# generated using pymatgen
data_Li4Cr(PO4)2
_symmetry_space_group_name_H-M   'P 1'
_cell_length_a   4.86597101
_cell_length_b   5.51206972
_cell_length_c   6.07527967
_cell_angle_alpha   96.60468880
_cell_angle_beta   96.11130010
_cell_angle_gamma   98.05884376
_symmetry_Int_Tables_number   1
_chemical_formula_structural   Li4Cr(PO4)2
_chemical_formula_sum   'Li4 Cr1 P2 O8'
_cell_volume   159.01895842
_cell_formula_units_Z   1
loop_
 _symmetry_equiv_pos_site_id
 _symmetry_equiv_pos_as_xyz
  1  'x, y, z'
loop_
 _atom_site_type_symbol
 _atom_site_label
 _atom_site_symmetry_multiplicity
 _atom_site_fract_x
 _atom_site_fract_y
 _atom_site_fract_z
 _atom_site_occupancy
  Li  Li0  1  0.15528800  0.29724100  0.56715200  1
  Li  Li1  1  0.32878500  0.55978900  0.17096900  1
  Li  Li2  1  0.67186200  0.44030300  0.82919500  1
  Li  Li3  1  0.84462200  0.70261000  0.43280900  1
  Cr  Cr0  1  0.00054600  0.00010600  0.00017800  1
  P  P0  1  0.37774800  0.79170800  0.70892800  1
  P  P1  1  0.62204200  0.20827600  0.29100300  1
  O  O0  1  0.26542500  0.60201300  0.86217000  1
  O  O1  1  0.25862300  0.68430300  0.46650800  1
  O  O2  1  0.29507800  0.18407900  0.26210700  1
  O  O3  1  0.28099800  0.04661800  0.77266600  1
  O  O4  1  0.71892600  0.95347500  0.22728000  1
  O  O5  1  0.70461400  0.81583000  0.73758100  1
  O  O6  1  0.74115600  0.31541500  0.53347600  1
  O  O7  1  0.73428700  0.39823300  0.13798000  1
loop_
_geom_bond_atom_site_label_1
_geom_bond_atom_site_label_2
_geom_bond_distance
_geom_bond_site_symmetry_2
Li0 O6 2.021453 1_455
Li0 O3 2.076671 1_555
Li0 O2 2.099450 1_555
Li0 O0 2.274243 1_555
Li0 O1 2.289832 1_555
Li1 O0 1.914721 1_554
Li1 O1 1.929794 1_555
Li1 O2 2.193202 1_555
Li1 O7 2.293979 1_555
Li2 O7 1.914090 1_556
Li2 O6 1.929980 1_555
Li2 O5 2.193447 1_555
Li2 O0 2.298595 1_555
Li3 O1 2.020967 1_655
Li3 O4 2.077743 1_555
Li3 O5 2.098551 1_555
Li3 O7 2.272172 1_555
Li3 O6 2.290645 1_555
Cr0 O3 2.055133 1_554
Cr0 O4 2.057406 1_445
Cr0 O2 2.085733 1_555
Cr0 O5 2.092476 1_444
O0 P0 1.559105 1_555
O1 P0 1.541747 1_555
O2 P1 1.567012 1_555
O3 P0 1.563636 1_545
O4 P1 1.563368 1_565
O5 P0 1.566578 1_555
O6 P1 1.541692 1_555
O7 P1 1.559035 1_555
