# generated using pymatgen
data_BaMg14Zr
_symmetry_space_group_name_H-M   'P 1'
_cell_length_a   6.60446019
_cell_length_b   6.58709567
_cell_length_c   10.52373725
_cell_angle_alpha   90.00000000
_cell_angle_beta   90.00000000
_cell_angle_gamma   119.91307019
_symmetry_Int_Tables_number   1
_chemical_formula_structural   BaMg14Zr
_chemical_formula_sum   'Ba1 Mg14 Zr1'
_cell_volume   396.83656835
_cell_formula_units_Z   1
loop_
 _symmetry_equiv_pos_site_id
 _symmetry_equiv_pos_as_xyz
  1  'x, y, z'
loop_
 _atom_site_type_symbol
 _atom_site_label
 _atom_site_symmetry_multiplicity
 _atom_site_fract_x
 _atom_site_fract_y
 _atom_site_fract_z
 _atom_site_occupancy
  Ba  Ba0  1  0.15668992  0.82834446  0.12500000  1
  Mg  Mg0  1  0.16270416  0.33135158  0.62500000  1
  Mg  Mg1  1  0.16737347  0.83368623  0.62500000  1
  Mg  Mg2  1  0.66389245  0.33051620  0.12500000  1
  Mg  Mg3  1  0.66690399  0.32837696  0.62500000  1
  Mg  Mg4  1  0.66389245  0.83337525  0.12500000  1
  Mg  Mg5  1  0.66690399  0.83852603  0.62500000  1
  Mg  Mg6  1  0.33584374  0.17890395  0.38696103  1
  Mg  Mg7  1  0.33584374  0.17890395  0.86303897  1
  Mg  Mg8  1  0.33584374  0.65694078  0.38696103  1
  Mg  Mg9  1  0.33584374  0.65694078  0.86303897  1
  Mg  Mg10  1  0.83938774  0.16969437  0.36917979  1
  Mg  Mg11  1  0.83938774  0.16969437  0.88082021  1
  Mg  Mg12  1  0.81773844  0.65886972  0.39100980  1
  Mg  Mg13  1  0.81773844  0.65886972  0.85899020  1
  Zr  Zr0  1  0.19401225  0.34700563  0.12500000  1
loop_
_geom_bond_atom_site_label_1
_geom_bond_atom_site_label_2
_geom_bond_distance
_geom_bond_site_symmetry_2
Ba0 Mg2 3.271313 1_455
Ba0 Mg4 3.271313 1_455
Ba0 Zr0 3.300471 1_555
Ba0 Zr0 3.300471 1_565
Ba0 Mg2 3.333397 1_565
Ba0 Mg4 3.333397 1_555
Ba0 Mg12 3.406139 1_455
Ba0 Mg13 3.406139 1_454
Ba0 Mg8 3.406927 1_555
Ba0 Mg9 3.406927 1_554
Ba0 Mg6 3.406933 1_565
Ba0 Mg7 3.406933 1_564
Mg0 Mg7 3.120345 1_555
Mg0 Mg6 3.120345 1_555
Mg0 Mg9 3.120352 1_555
Mg0 Mg8 3.120352 1_555
Mg0 Mg5 3.264765 1_445
Mg0 Mg3 3.264765 1_455
Mg0 Mg10 3.267043 1_455
Mg0 Mg11 3.267043 1_455
Mg0 Mg1 3.293656 1_555
Mg0 Mg1 3.293656 1_545
Mg0 Mg5 3.339782 1_555
Mg0 Mg3 3.339782 1_555
Mg1 Mg13 3.173295 1_455
Mg1 Mg12 3.173295 1_455
Mg1 Mg9 3.187596 1_555
Mg1 Mg8 3.187596 1_555
Mg1 Mg6 3.187603 1_565
Mg1 Mg7 3.187603 1_565
Mg1 Mg3 3.283347 1_565
Mg1 Mg5 3.283348 1_555
Mg1 Mg3 3.321344 1_455
Mg1 Mg5 3.321344 1_455
Mg2 Zr0 3.158874 1_555
Mg2 Mg4 3.274715 1_545
Mg2 Mg4 3.312381 1_555
Mg2 Mg6 3.336676 1_555
Mg2 Mg7 3.336676 1_554
Mg2 Zr0 3.448275 1_655
Mg3 Mg7 3.142975 1_555
Mg3 Mg6 3.142975 1_555
Mg3 Mg5 3.226695 1_545
Mg3 Mg5 3.360401 1_555
Mg4 Zr0 3.158874 1_555
Mg4 Mg9 3.336676 1_554
Mg4 Mg8 3.336676 1_555
Mg4 Zr0 3.448274 1_665
Mg5 Mg9 3.142974 1_555
Mg5 Mg8 3.142974 1_555
Mg6 Mg8 3.148874 1_555
Mg6 Zr0 3.276899 1_555
Mg6 Mg8 3.438221 1_545
Mg7 Mg9 3.148874 1_555
Mg7 Zr0 3.276899 1_556
Mg7 Mg9 3.438221 1_545
Mg8 Zr0 3.276905 1_555
Mg9 Zr0 3.276905 1_556
Mg10 Mg2 3.208350 1_555
Mg10 Mg4 3.208356 1_545
Mg10 Mg8 3.254381 1_655
Mg10 Mg6 3.254381 1_655
Mg10 Zr0 3.274838 1_655
Mg10 Mg3 3.290243 1_555
Mg10 Mg5 3.290249 1_545
Mg10 Mg12 3.303876 1_545
Mg10 Mg12 3.303876 1_555
Mg10 Mg8 3.361513 1_545
Mg10 Mg6 3.361513 1_555
Mg11 Mg2 3.208350 1_556
Mg11 Mg4 3.208356 1_546
Mg11 Mg9 3.254381 1_655
Mg11 Mg7 3.254381 1_655
Mg11 Zr0 3.274838 1_656
Mg11 Mg3 3.290243 1_555
Mg11 Mg5 3.290249 1_545
Mg11 Mg13 3.303876 1_545
Mg11 Mg13 3.303876 1_555
Mg11 Mg9 3.361513 1_545
Mg11 Mg7 3.361513 1_555
Mg12 Mg5 3.103595 1_555
Mg12 Mg3 3.103602 1_555
Mg12 Mg6 3.176623 1_555
Mg12 Mg8 3.176623 1_555
Mg12 Mg4 3.369768 1_555
Mg12 Mg2 3.369774 1_555
Mg12 Mg6 3.428424 1_665
Mg12 Mg8 3.428425 1_655
Mg13 Mg5 3.103595 1_555
Mg13 Mg3 3.103602 1_555
Mg13 Mg7 3.176623 1_555
Mg13 Mg9 3.176623 1_555
Mg13 Mg4 3.369768 1_556
Mg13 Mg2 3.369774 1_556
Mg13 Mg7 3.428424 1_665
Mg13 Mg9 3.428425 1_655
