# generated using pymatgen
data_K4U3(AsO8)2
_symmetry_space_group_name_H-M   'P 1'
_cell_length_a   17.55044200
_cell_length_b   7.02716000
_cell_length_c   7.19057849
_cell_angle_alpha   81.49179961
_cell_angle_beta   90.00000000
_cell_angle_gamma   90.00000000
_symmetry_Int_Tables_number   1
_chemical_formula_structural   K4U3(AsO8)2
_chemical_formula_sum   'K8 U6 As4 O32'
_cell_volume   877.05271025
_cell_formula_units_Z   2
loop_
 _symmetry_equiv_pos_site_id
 _symmetry_equiv_pos_as_xyz
  1  'x, y, z'
loop_
 _atom_site_type_symbol
 _atom_site_label
 _atom_site_symmetry_multiplicity
 _atom_site_fract_x
 _atom_site_fract_y
 _atom_site_fract_z
 _atom_site_occupancy
  K  K0  1  0.55154400  0.96203200  0.25758900  1
  K  K1  1  0.05154400  0.03796800  0.24241100  1
  K  K2  1  0.44845600  0.03796800  0.74241100  1
  K  K3  1  0.94845600  0.96203200  0.75758900  1
  K  K4  1  0.20149900  0.17044500  0.72252200  1
  K  K5  1  0.70149900  0.82955500  0.77747800  1
  K  K6  1  0.79850100  0.82955500  0.27747800  1
  K  K7  1  0.29850100  0.17044500  0.22252200  1
  U  U0  1  0.10230900  0.56929600  0.98389600  1
  U  U1  1  0.60230900  0.43070400  0.51610400  1
  U  U2  1  0.89769100  0.43070400  0.01610400  1
  U  U3  1  0.39769100  0.56929600  0.48389600  1
  U  U4  1  0.00000000  0.50000000  0.50000000  1
  U  U5  1  0.50000000  0.50000000  0.00000000  1
  As  As0  1  0.18126700  0.70063300  0.47063400  1
  As  As1  1  0.68126700  0.29936700  0.02936600  1
  As  As2  1  0.81873300  0.29936700  0.52936600  1
  As  As3  1  0.31873300  0.70063300  0.97063400  1
  O  O0  1  0.18820300  0.94203400  0.45225300  1
  O  O1  1  0.68820300  0.05796600  0.04774700  1
  O  O2  1  0.81179700  0.05796600  0.54774700  1
  O  O3  1  0.31179700  0.94203400  0.95225300  1
  O  O4  1  0.23341000  0.58327100  0.97541100  1
  O  O5  1  0.73341000  0.41672900  0.52458900  1
  O  O6  1  0.76659000  0.41672900  0.02458900  1
  O  O7  1  0.26659000  0.58327100  0.47541100  1
  O  O8  1  0.12632300  0.58545400  0.65635900  1
  O  O9  1  0.62632300  0.41454600  0.84364100  1
  O  O10  1  0.87367700  0.41454600  0.34364100  1
  O  O11  1  0.37367700  0.58545400  0.15635900  1
  O  O12  1  0.12103100  0.62981600  0.30158400  1
  O  O13  1  0.62103100  0.37018400  0.19841600  1
  O  O14  1  0.87896900  0.37018400  0.69841600  1
  O  O15  1  0.37896900  0.62981600  0.80158400  1
  O  O16  1  0.08451000  0.83340000  0.93994000  1
  O  O17  1  0.58451000  0.16660000  0.56006000  1
  O  O18  1  0.91549000  0.16660000  0.06006000  1
  O  O19  1  0.41549000  0.83340000  0.43994000  1
  O  O20  1  0.12628900  0.30856400  0.01800800  1
  O  O21  1  0.62628900  0.69143600  0.48199200  1
  O  O22  1  0.87371100  0.69143600  0.98199200  1
  O  O23  1  0.37371100  0.30856400  0.51800800  1
  O  O24  1  0.50222300  0.51629200  0.31502100  1
  O  O25  1  0.00222300  0.48370800  0.18497900  1
  O  O26  1  0.49777700  0.48370800  0.68497900  1
  O  O27  1  0.99777700  0.51629200  0.81502100  1
  O  O28  1  0.03318600  0.24777700  0.54243700  1
  O  O29  1  0.53318600  0.75222300  0.95756300  1
  O  O30  1  0.96681400  0.75222300  0.45756300  1
  O  O31  1  0.46681400  0.24777700  0.04243700  1
loop_
_geom_bond_atom_site_label_1
_geom_bond_atom_site_label_2
_geom_bond_distance
_geom_bond_site_symmetry_2
K0 O21 2.651864 1_555
K0 O31 2.778037 1_565
K0 O29 2.805875 1_554
K0 O19 2.808425 1_555
K0 O17 2.838443 1_565
K0 O1 2.860535 1_565
K0 O13 3.087630 1_565
K0 O24 3.216873 1_555
K1 O20 2.651864 1_555
K1 O30 2.778037 1_445
K1 O28 2.805875 1_555
K1 O18 2.808425 1_455
K1 O16 2.838443 1_544
K1 O0 2.860535 1_545
K1 O12 3.087630 1_545
K1 O25 3.216873 1_555
K2 O23 2.651864 1_555
K2 O29 2.778037 1_545
K2 O31 2.805875 1_556
K2 O17 2.808425 1_555
K2 O19 2.838443 1_545
K2 O3 2.860535 1_545
K2 O15 3.087630 1_545
K2 O26 3.216873 1_555
K3 O22 2.651864 1_555
K3 O28 2.778037 1_665
K3 O30 2.805875 1_555
K3 O16 2.808425 1_655
K3 O18 2.838443 1_566
K3 O2 2.860535 1_565
K3 O14 3.087630 1_565
K3 O27 3.216873 1_555
K4 O0 2.707491 1_545
K4 O20 2.794455 1_556
K4 O3 2.875366 1_545
K4 O8 3.171993 1_555
K5 O1 2.707491 1_566
K5 O21 2.794455 1_555
K5 O2 2.875366 1_565
K5 O9 3.171993 1_555
K6 O2 2.707491 1_565
K6 O22 2.794455 1_554
K6 O1 2.875366 1_565
K6 O10 3.171993 1_555
K7 O3 2.707491 1_544
K7 O23 2.794455 1_555
K7 O0 2.875366 1_545
K7 O11 3.171993 1_555
As0 O0 1.686295 1_555
As0 O7 1.707436 1_555
As0 O12 1.738348 1_555
As0 O8 1.746023 1_555
As1 O1 1.686295 1_555
As1 O6 1.707436 1_555
As1 O13 1.738348 1_555
As1 O9 1.746023 1_554
As2 O2 1.686295 1_555
As2 O5 1.707436 1_555
As2 O14 1.738348 1_555
As2 O10 1.746023 1_555
As3 O3 1.686295 1_555
As3 O4 1.707436 1_555
As3 O15 1.738348 1_555
As3 O11 1.746023 1_556
O4 U0 2.303399 1_555
O5 U1 2.303399 1_555
O6 U2 2.303399 1_555
O7 U3 2.303399 1_555
O8 U0 2.378710 1_555
O8 U4 2.596084 1_555
O9 U1 2.378710 1_555
O9 U5 2.596084 1_556
O10 U2 2.378710 1_555
O10 U4 2.596084 1_655
O11 U3 2.378710 1_555
O11 U5 2.596084 1_555
O12 U0 2.407198 1_554
O12 U4 2.644732 1_555
O13 U1 2.407198 1_555
O13 U5 2.644732 1_555
O14 U2 2.407198 1_556
O14 U4 2.644732 1_655
O15 U3 2.407198 1_555
O15 U5 2.644732 1_556
O16 U0 1.862331 1_555
O17 U1 1.862331 1_555
O18 U2 1.862331 1_555
O19 U3 1.862331 1_555
O20 U0 1.860452 1_554
O21 U1 1.860452 1_555
O22 U2 1.860452 1_556
O23 U3 1.860452 1_555
O24 U3 2.261151 1_555
O24 U5 2.285262 1_555
O24 U1 2.297939 1_555
O25 U2 2.261151 1_455
O25 U4 2.285262 1_555
O25 U0 2.297939 1_554
O26 U1 2.261151 1_555
O26 U5 2.285262 1_556
O26 U3 2.297939 1_555
O27 U0 2.261151 1_655
O27 U4 2.285262 1_655
O27 U2 2.297939 1_556
O28 U4 1.847632 1_555
O29 U5 1.847632 1_556
O30 U4 1.847632 1_655
O31 U5 1.847632 1_555
