# generated using pymatgen
data_BaMg(CO3)2
_symmetry_space_group_name_H-M   'P 1'
_cell_length_a   11.58602670
_cell_length_b   11.58602670
_cell_length_c   11.58602740
_cell_angle_alpha   25.39835076
_cell_angle_beta   25.39835076
_cell_angle_gamma   25.39834749
_symmetry_Int_Tables_number   1
_chemical_formula_structural   BaMg(CO3)2
_chemical_formula_sum   'Ba2 Mg2 C4 O12'
_cell_volume   251.83359431
_cell_formula_units_Z   2
loop_
 _symmetry_equiv_pos_site_id
 _symmetry_equiv_pos_as_xyz
  1  'x, y, z'
loop_
 _atom_site_type_symbol
 _atom_site_label
 _atom_site_symmetry_multiplicity
 _atom_site_fract_x
 _atom_site_fract_y
 _atom_site_fract_z
 _atom_site_occupancy
  Ba  Ba0  1  0.25000000  0.25000000  0.25000000  1
  Ba  Ba1  1  0.75000000  0.75000000  0.75000000  1
  Mg  Mg0  1  0.50000000  0.50000000  0.50000000  1
  Mg  Mg1  1  0.00000000  0.00000000  0.00000000  1
  C  C0  1  0.36999500  0.36999500  0.36999500  1
  C  C1  1  0.86999500  0.86999500  0.86999500  1
  C  C2  1  0.63000500  0.63000500  0.63000500  1
  C  C3  1  0.13000500  0.13000500  0.13000500  1
  O  O0  1  0.25399400  0.66334900  0.19583000  1
  O  O1  1  0.19583000  0.25399400  0.66334900  1
  O  O2  1  0.66334900  0.19583000  0.25399400  1
  O  O3  1  0.69583000  0.16334900  0.75399400  1
  O  O4  1  0.75399400  0.69583000  0.16334900  1
  O  O5  1  0.16334900  0.75399400  0.69583000  1
  O  O6  1  0.74600600  0.33665100  0.80417000  1
  O  O7  1  0.80417000  0.74600600  0.33665100  1
  O  O8  1  0.33665100  0.80417000  0.74600600  1
  O  O9  1  0.30417000  0.83665100  0.24600600  1
  O  O10  1  0.24600600  0.30417000  0.83665100  1
  O  O11  1  0.83665100  0.24600600  0.30417000  1
loop_
_geom_bond_atom_site_label_1
_geom_bond_atom_site_label_2
_geom_bond_distance
_geom_bond_site_symmetry_2
Ba0 O7 2.852787 1_455
Ba0 O4 2.852787 1_455
Ba0 O6 2.852787 1_554
Ba0 O5 2.852787 1_545
Ba0 O8 2.852787 1_545
Ba0 O3 2.852787 1_554
Ba0 O7 3.106068 1_545
Ba0 O4 3.106068 1_545
Ba0 O8 3.106068 1_554
Ba0 O3 3.106068 1_455
Ba0 O6 3.106068 1_455
Ba0 O5 3.106068 1_554
Ba1 O10 2.852787 1_655
Ba1 O1 2.852787 1_655
Ba1 O11 2.852787 1_565
Ba1 O0 2.852787 1_556
Ba1 O9 2.852787 1_556
Ba1 O2 2.852787 1_565
Ba1 O10 3.106068 1_565
Ba1 O1 3.106068 1_565
Ba1 O9 3.106068 1_655
Ba1 O2 3.106068 1_556
Ba1 O11 3.106068 1_556
Ba1 O0 3.106068 1_655
Mg0 O5 2.087610 1_555
Mg0 O11 2.087610 1_555
Mg0 O4 2.087610 1_555
Mg0 O10 2.087610 1_555
Mg0 O3 2.087610 1_555
Mg0 O9 2.087610 1_555
Mg1 O0 2.087610 1_545
Mg1 O6 2.087610 1_454
Mg1 O7 2.087610 1_445
Mg1 O1 2.087610 1_554
Mg1 O2 2.087610 1_455
Mg1 O8 2.087610 1_544
C0 O2 1.298417 1_555
C0 O0 1.298417 1_555
C0 O1 1.298417 1_555
C1 O3 1.298417 1_565
C1 O5 1.298417 1_655
C1 O4 1.298417 1_556
C2 O8 1.298417 1_555
C2 O6 1.298417 1_555
C2 O7 1.298417 1_555
C3 O9 1.298417 1_545
C3 O11 1.298417 1_455
C3 O10 1.298417 1_554
