# generated using pymatgen
data_Rb3AgGe4(Se5O)2
_symmetry_space_group_name_H-M   'P 1'
_cell_length_a   9.15086755
_cell_length_b   9.12973370
_cell_length_c   10.29689087
_cell_angle_alpha   62.15878348
_cell_angle_beta   63.58565414
_cell_angle_gamma   88.69576615
_symmetry_Int_Tables_number   1
_chemical_formula_structural   Rb3AgGe4(Se5O)2
_chemical_formula_sum   'Rb3 Ag1 Ge4 Se10 O2'
_cell_volume   662.41166899
_cell_formula_units_Z   1
loop_
 _symmetry_equiv_pos_site_id
 _symmetry_equiv_pos_as_xyz
  1  'x, y, z'
loop_
 _atom_site_type_symbol
 _atom_site_label
 _atom_site_symmetry_multiplicity
 _atom_site_fract_x
 _atom_site_fract_y
 _atom_site_fract_z
 _atom_site_occupancy
  Rb  Rb0  1  0.29511100  0.65403200  0.22326700  1
  Rb  Rb1  1  0.82896000  0.72498900  0.79180800  1
  Rb  Rb2  1  0.37688500  0.51282800  0.78011500  1
  Ag  Ag0  1  0.01381000  0.97964700  0.01406100  1
  Ge  Ge0  1  0.94897000  0.16804100  0.30895200  1
  Ge  Ge1  1  0.73580300  0.53202100  0.31914500  1
  Ge  Ge2  1  0.49906600  0.06530900  0.65936400  1
  Ge  Ge3  1  0.85537400  0.27482900  0.65082200  1
  Se  Se0  1  0.15478100  0.09129400  0.13455200  1
  Se  Se1  1  0.70963900  0.79750400  0.15063200  1
  Se  Se2  1  0.24813500  0.85813300  0.84151800  1
  Se  Se3  1  0.95139900  0.30926200  0.82559200  1
  Se  Se4  1  0.05903800  0.17689900  0.48208400  1
  Se  Se5  1  0.46075800  0.34311900  0.49661400  1
  Se  Se6  1  0.68301600  0.96682800  0.47977500  1
  Se  Se7  1  0.84266000  0.56204900  0.48507400  1
  Se  Se8  1  0.93459300  0.44992700  0.13207800  1
  Se  Se9  1  0.58598000  0.08245000  0.84328500  1
  O  O0  1  0.10484600  0.49620000  0.68035800  1
  O  O1  1  0.47897800  0.65443800  0.92430500  1
loop_
_geom_bond_atom_site_label_1
_geom_bond_atom_site_label_2
_geom_bond_distance
_geom_bond_site_symmetry_2
Rb0 Se1 3.667577 1_555
Rb0 Se5 3.796674 1_555
Rb0 Se4 3.899667 1_555
Rb0 Se0 3.977982 1_565
Rb1 Se4 3.709076 1_665
Rb1 Se1 3.734212 1_556
Rb2 Se0 3.591474 1_556
Rb2 Se5 3.699787 1_555
Ag0 Se0 2.628207 1_565
Ag0 Se1 2.652211 1_455
Ag0 Se2 2.707099 1_554
Ag0 Se3 2.932781 1_464
Ge0 Se0 2.317085 1_655
Ge0 Se6 2.401711 1_545
Ge0 Se8 2.403586 1_555
Ge0 Se4 2.436198 1_655
Ge1 Se1 2.314688 1_555
Ge1 Se8 2.397918 1_555
Ge1 Se5 2.410443 1_555
Ge1 Se7 2.426234 1_555
Ge2 Se2 2.328178 1_545
Ge2 Se6 2.403342 1_545
Ge2 Se9 2.422022 1_555
Ge2 Se5 2.424115 1_555
Ge3 Se9 2.385097 1_555
Ge3 Se7 2.405218 1_555
Ge3 Se4 2.405343 1_655
Ge3 Se3 2.461177 1_555
O0 Se3 1.725612 1_455
O0 Rb2 3.116595 1_555
O0 Rb1 3.387444 1_455
O1 Rb0 2.772851 1_556
O1 Rb2 2.798333 1_555
O1 Rb1 2.814016 1_555
