# generated using pymatgen
data_ScInCu4
_symmetry_space_group_name_H-M   'P 1'
_cell_length_a   4.95824978
_cell_length_b   4.95824978
_cell_length_c   4.95824978
_cell_angle_alpha   60.00000000
_cell_angle_beta   60.00000000
_cell_angle_gamma   60.00000000
_symmetry_Int_Tables_number   1
_chemical_formula_structural   ScInCu4
_chemical_formula_sum   'Sc1 In1 Cu4'
_cell_volume   86.19264441
_cell_formula_units_Z   1
loop_
 _symmetry_equiv_pos_site_id
 _symmetry_equiv_pos_as_xyz
  1  'x, y, z'
loop_
 _atom_site_type_symbol
 _atom_site_label
 _atom_site_symmetry_multiplicity
 _atom_site_fract_x
 _atom_site_fract_y
 _atom_site_fract_z
 _atom_site_occupancy
  Sc  Sc0  1  -0.00000000  -0.00000000  -0.00000000  1
  In  In0  1  0.25000000  0.25000000  0.25000000  1
  Cu  Cu0  1  0.62515330  0.62515330  0.62515330  1
  Cu  Cu1  1  0.12453911  0.62515330  0.62515330  1
  Cu  Cu2  1  0.62515330  0.12453911  0.62515330  1
  Cu  Cu3  1  0.62515330  0.62515330  0.12453911  1
loop_
_geom_bond_atom_site_label_1
_geom_bond_atom_site_label_2
_geom_bond_distance
_geom_bond_site_symmetry_2
In0 Sc0 3.036295 1_555
In0 Sc0 3.036295 1_556
In0 Sc0 3.036295 1_565
In0 Sc0 3.036295 1_655
Cu0 Cu1 2.476080 1_655
Cu0 Cu2 2.476080 1_565
Cu0 Cu3 2.476080 1_556
Cu0 Cu1 2.482170 1_555
Cu0 Cu2 2.482170 1_555
Cu0 Cu3 2.482170 1_555
Cu0 Sc0 2.906708 1_656
Cu0 Sc0 2.906708 1_665
Cu0 Sc0 2.906708 1_566
Cu0 In0 2.907356 1_655
Cu0 In0 2.907356 1_556
Cu0 In0 2.907356 1_565
Cu1 Cu2 2.476080 1_465
Cu1 Cu3 2.476080 1_456
Cu1 Cu2 2.482170 1_555
Cu1 Cu3 2.482170 1_555
Cu1 Sc0 2.906706 1_565
Cu1 Sc0 2.906706 1_556
Cu1 Sc0 2.906710 1_566
Cu1 In0 2.907354 1_555
Cu1 In0 2.907358 1_565
Cu1 In0 2.907358 1_556
Cu2 Cu3 2.476080 1_546
Cu2 Cu3 2.482170 1_555
Cu2 Sc0 2.906706 1_556
Cu2 Sc0 2.906706 1_655
Cu2 Sc0 2.906710 1_656
Cu2 In0 2.907354 1_555
Cu2 In0 2.907358 1_655
Cu2 In0 2.907358 1_556
Cu3 Sc0 2.906706 1_565
Cu3 Sc0 2.906706 1_655
Cu3 Sc0 2.906710 1_665
Cu3 In0 2.907354 1_555
Cu3 In0 2.907358 1_565
Cu3 In0 2.907358 1_655
