# generated using pymatgen
data_CaPr(SbO3)2
_symmetry_space_group_name_H-M   'P 1'
_cell_length_a   5.77477700
_cell_length_b   6.09325700
_cell_length_c   8.36125400
_cell_angle_alpha   90.00000000
_cell_angle_beta   90.00000000
_cell_angle_gamma   90.00000000
_symmetry_Int_Tables_number   1
_chemical_formula_structural   CaPr(SbO3)2
_chemical_formula_sum   'Ca2 Pr2 Sb4 O12'
_cell_volume   294.20911992
_cell_formula_units_Z   2
loop_
 _symmetry_equiv_pos_site_id
 _symmetry_equiv_pos_as_xyz
  1  'x, y, z'
loop_
 _atom_site_type_symbol
 _atom_site_label
 _atom_site_symmetry_multiplicity
 _atom_site_fract_x
 _atom_site_fract_y
 _atom_site_fract_z
 _atom_site_occupancy
  Ca  Ca0  1  0.48767200  0.19454800  0.00000000  1
  Ca  Ca1  1  0.98767200  0.80545200  0.50000000  1
  Pr  Pr0  1  0.02389200  0.68688200  0.00000000  1
  Pr  Pr1  1  0.52389200  0.31311800  0.50000000  1
  Sb  Sb0  1  0.00778500  0.24269600  0.75363100  1
  Sb  Sb1  1  0.00778500  0.24269600  0.24636900  1
  Sb  Sb2  1  0.50778500  0.75730400  0.25363100  1
  Sb  Sb3  1  0.50778500  0.75730400  0.74636900  1
  O  O0  1  0.13392300  0.18884800  0.50000000  1
  O  O1  1  0.18318500  0.94959300  0.81609200  1
  O  O2  1  0.18318500  0.94959300  0.18390800  1
  O  O3  1  0.29771500  0.44102400  0.18381000  1
  O  O4  1  0.29771500  0.44102400  0.81619000  1
  O  O5  1  0.37714400  0.69517600  0.50000000  1
  O  O6  1  0.63392300  0.81115200  0.00000000  1
  O  O7  1  0.68318500  0.05040700  0.68390800  1
  O  O8  1  0.68318500  0.05040700  0.31609200  1
  O  O9  1  0.79771500  0.55897600  0.68381000  1
  O  O10  1  0.79771500  0.55897600  0.31619000  1
  O  O11  1  0.87714400  0.30482400  0.00000000  1
loop_
_geom_bond_atom_site_label_1
_geom_bond_atom_site_label_2
_geom_bond_distance
_geom_bond_site_symmetry_2
Ca0 O11 2.347343 1_555
Ca0 O4 2.412645 1_554
Ca0 O3 2.412645 1_555
Ca0 O6 2.484109 1_545
Ca0 O1 2.772017 1_544
Ca0 O2 2.772017 1_545
Ca0 O8 3.005193 1_555
Ca0 O7 3.005193 1_554
Ca1 O5 2.347343 1_655
Ca1 O10 2.412645 1_555
Ca1 O9 2.412645 1_555
Ca1 O0 2.484109 1_665
Ca1 O7 2.772017 1_565
Ca1 O8 2.772017 1_565
Ca1 O2 3.005193 1_655
Ca1 O1 3.005193 1_655
O0 Sb1 2.266165 1_555
O0 Sb0 2.266165 1_555
O0 Pr1 2.375878 1_555
O1 Sb0 2.118568 1_565
O1 Sb3 2.286128 1_555
O1 Pr0 2.402740 1_556
O2 Sb1 2.118568 1_565
O2 Sb2 2.286128 1_555
O2 Pr0 2.402740 1_555
O3 Sb1 2.130072 1_555
O3 Sb2 2.350840 1_555
O3 Pr0 2.665829 1_555
O3 Pr1 3.050041 1_555
O4 Sb0 2.130072 1_555
O4 Sb3 2.350840 1_555
O4 Pr0 2.665829 1_556
O4 Pr1 3.050041 1_555
O5 Sb3 2.226179 1_555
O5 Sb2 2.226179 1_555
O5 Pr1 2.477424 1_555
O6 Sb2 2.266165 1_555
O6 Sb3 2.266165 1_554
O6 Pr0 2.375878 1_655
O7 Sb3 2.118568 1_545
O7 Sb0 2.286128 1_655
O7 Pr1 2.402740 1_555
O8 Sb2 2.118568 1_545
O8 Sb1 2.286128 1_655
O8 Pr1 2.402740 1_555
O9 Sb3 2.130072 1_555
O9 Sb0 2.350840 1_655
O9 Pr1 2.665829 1_555
O9 Pr0 3.050041 1_656
O10 Sb2 2.130072 1_555
O10 Sb1 2.350840 1_655
O10 Pr1 2.665829 1_555
O10 Pr0 3.050041 1_655
O11 Sb0 2.226179 1_654
O11 Sb1 2.226179 1_655
O11 Pr0 2.477424 1_655
