# generated using pymatgen
data_MgV8O16
_symmetry_space_group_name_H-M   'P 1'
_cell_length_a   5.20382262
_cell_length_b   5.89989822
_cell_length_c   10.38125230
_cell_angle_alpha   90.02024998
_cell_angle_beta   90.01798450
_cell_angle_gamma   87.27568728
_symmetry_Int_Tables_number   1
_chemical_formula_structural   MgV8O16
_chemical_formula_sum   'Mg1 V8 O16'
_cell_volume   318.36519685
_cell_formula_units_Z   1
loop_
 _symmetry_equiv_pos_site_id
 _symmetry_equiv_pos_as_xyz
  1  'x, y, z'
loop_
 _atom_site_type_symbol
 _atom_site_label
 _atom_site_symmetry_multiplicity
 _atom_site_fract_x
 _atom_site_fract_y
 _atom_site_fract_z
 _atom_site_occupancy
  Mg  Mg0  1  0.15430800  0.25402100  0.25001300  1
  V  V0  1  0.48949800  0.75621700  0.47984700  1
  V  V1  1  0.48950300  0.75621300  0.01997300  1
  V  V2  1  0.51218100  0.25186900  0.50202100  1
  V  V3  1  0.51209800  0.25184700  0.99808000  1
  V  V4  1  0.99832900  0.50176800  0.50412300  1
  V  V5  1  0.00497300  0.99563800  0.99603400  1
  V  V6  1  0.00510400  0.99560800  0.50394100  1
  V  V7  1  0.99829800  0.50183800  0.99595300  1
  O  O0  1  0.84338100  0.74197400  0.40322500  1
  O  O1  1  0.84348900  0.74217100  0.09677000  1
  O  O2  1  0.16848200  0.25958500  0.59139800  1
  O  O3  1  0.16819400  0.25949000  0.90860600  1
  O  O4  1  0.18186900  0.74119600  0.58923900  1
  O  O5  1  0.18158600  0.74126900  0.91078500  1
  O  O6  1  0.84744400  0.25217000  0.39706900  1
  O  O7  1  0.84765600  0.25236600  0.10301300  1
  O  O8  1  0.65427600  0.50979400  0.58392800  1
  O  O9  1  0.64314000  0.99979000  0.91476500  1
  O  O10  1  0.33533800  0.00764300  0.38888500  1
  O  O11  1  0.32525000  0.48014600  0.10817600  1
  O  O12  1  0.32519300  0.47989900  0.39181800  1
  O  O13  1  0.33549800  0.00779000  0.11111600  1
  O  O14  1  0.64322200  0.99987100  0.58522900  1
  O  O15  1  0.65418800  0.50983000  0.91599700  1
loop_
_geom_bond_atom_site_label_1
_geom_bond_atom_site_label_2
_geom_bond_distance
_geom_bond_site_symmetry_2
Mg0 O12 2.200980 1_555
Mg0 O11 2.203244 1_555
Mg0 O7 2.208010 1_455
Mg0 O6 2.209951 1_455
Mg0 O13 2.224361 1_555
Mg0 O10 2.224697 1_555
O0 V4 1.909875 1_555
O0 V0 2.004301 1_555
O0 V6 2.039303 1_655
O1 V7 1.909404 1_554
O1 V1 2.005080 1_555
O1 V5 2.038924 1_654
O2 V4 1.877941 1_455
O2 V2 2.013740 1_555
O2 V6 2.024136 1_545
O3 V7 1.878220 1_455
O3 V3 2.014656 1_555
O3 V5 2.023779 1_545
O4 V6 1.937120 1_555
O4 V4 1.953276 1_455
O4 V0 1.968479 1_555
O5 V5 1.936129 1_555
O5 V7 1.953570 1_455
O5 V1 1.967827 1_556
O6 V6 2.019367 1_645
O6 V4 2.031842 1_555
O6 V2 2.057274 1_555
O7 V5 2.019727 1_644
O7 V7 2.031631 1_554
O7 V3 2.057944 1_554
O8 V2 1.921222 1_555
O8 V4 1.971537 1_555
O8 V0 1.974458 1_555
O9 V3 1.824185 1_565
O9 V1 2.002038 1_556
O9 V5 2.062132 1_655
O10 V0 1.903442 1_545
O10 V6 2.097096 1_545
O10 V2 2.103974 1_555
O11 V3 1.985214 1_554
O11 V7 2.060719 1_454
O11 V1 2.087052 1_555
O12 V2 1.985344 1_555
O12 V4 2.061401 1_455
O12 V0 2.086826 1_555
O13 V1 1.904471 1_545
O13 V5 2.097901 1_544
O13 V3 2.102988 1_554
O14 V2 1.823674 1_565
O14 V0 2.002726 1_555
O14 V6 2.062901 1_655
O15 V3 1.922979 1_555
O15 V7 1.972010 1_555
O15 V1 1.973232 1_556
