# generated using pymatgen
data_Ba2InSbTe5
_symmetry_space_group_name_H-M   'P 1'
_cell_length_a   4.64721300
_cell_length_b   14.06871200
_cell_length_c   20.67456600
_cell_angle_alpha   90.00000000
_cell_angle_beta   90.00000000
_cell_angle_gamma   90.00000000
_symmetry_Int_Tables_number   1
_chemical_formula_structural   Ba2InSbTe5
_chemical_formula_sum   'Ba8 In4 Sb4 Te20'
_cell_volume   1351.70935432
_cell_formula_units_Z   4
loop_
 _symmetry_equiv_pos_site_id
 _symmetry_equiv_pos_as_xyz
  1  'x, y, z'
loop_
 _atom_site_type_symbol
 _atom_site_label
 _atom_site_symmetry_multiplicity
 _atom_site_fract_x
 _atom_site_fract_y
 _atom_site_fract_z
 _atom_site_occupancy
  Ba  Ba0  1  0.25000000  0.44958500  0.13398100  1
  Ba  Ba1  1  0.25000000  0.94958500  0.36601900  1
  Ba  Ba2  1  0.75000000  0.55041500  0.86601900  1
  Ba  Ba3  1  0.75000000  0.05041500  0.63398100  1
  Ba  Ba4  1  0.25000000  0.57346000  0.37489400  1
  Ba  Ba5  1  0.25000000  0.07346000  0.12510600  1
  Ba  Ba6  1  0.75000000  0.42654000  0.62510600  1
  Ba  Ba7  1  0.75000000  0.92654000  0.87489400  1
  In  In0  1  0.25000000  0.17837000  0.81829200  1
  In  In1  1  0.25000000  0.67837000  0.68170800  1
  In  In2  1  0.75000000  0.82163000  0.18170800  1
  In  In3  1  0.75000000  0.32163000  0.31829200  1
  Sb  Sb0  1  0.25000000  0.23123100  0.46622100  1
  Sb  Sb1  1  0.25000000  0.73123100  0.03377900  1
  Sb  Sb2  1  0.75000000  0.76876900  0.53377900  1
  Sb  Sb3  1  0.75000000  0.26876900  0.96622100  1
  Te  Te0  1  0.25000000  0.00110200  0.75617100  1
  Te  Te1  1  0.25000000  0.50110200  0.74382900  1
  Te  Te2  1  0.75000000  0.99889800  0.24382900  1
  Te  Te3  1  0.75000000  0.49889800  0.25617100  1
  Te  Te4  1  0.25000000  0.10506000  0.94863600  1
  Te  Te5  1  0.25000000  0.60506000  0.55136400  1
  Te  Te6  1  0.75000000  0.89494000  0.05136400  1
  Te  Te7  1  0.75000000  0.39494000  0.44863600  1
  Te  Te8  1  0.25000000  0.24032300  0.60547300  1
  Te  Te9  1  0.25000000  0.74032300  0.89452700  1
  Te  Te10  1  0.75000000  0.75967700  0.39452700  1
  Te  Te11  1  0.75000000  0.25967700  0.10547300  1
  Te  Te12  1  0.25000000  0.40880700  0.96442300  1
  Te  Te13  1  0.25000000  0.90880700  0.53557700  1
  Te  Te14  1  0.75000000  0.59119300  0.03557700  1
  Te  Te15  1  0.75000000  0.09119300  0.46442300  1
  Te  Te16  1  0.25000000  0.20814600  0.29411800  1
  Te  Te17  1  0.25000000  0.70814600  0.20588200  1
  Te  Te18  1  0.75000000  0.79185400  0.70588200  1
  Te  Te19  1  0.75000000  0.29185400  0.79411800  1
loop_
_geom_bond_atom_site_label_1
_geom_bond_atom_site_label_2
_geom_bond_distance
_geom_bond_site_symmetry_2
Ba0 Te3 3.501754 1_455
Ba0 Te3 3.501754 1_555
Ba0 Te12 3.552171 1_554
Ba0 Te11 3.589545 1_555
Ba0 Te11 3.589545 1_455
Ba0 Te14 3.675215 1_455
Ba0 Te14 3.675215 1_555
Ba0 Te17 3.929635 1_555
Ba1 Te2 3.501754 1_455
Ba1 Te2 3.501754 1_555
Ba1 Te13 3.552171 1_555
Ba1 Te10 3.589545 1_455
Ba1 Te10 3.589545 1_555
Ba1 Te15 3.675215 1_565
Ba1 Te15 3.675215 1_465
Ba1 Te16 3.929635 1_565
Ba2 Te1 3.501754 1_555
Ba2 Te1 3.501754 1_655
Ba2 Te14 3.552171 1_556
Ba2 Te9 3.589545 1_555
Ba2 Te9 3.589545 1_655
Ba2 Te12 3.675215 1_655
Ba2 Te12 3.675215 1_555
Ba2 Te19 3.929635 1_555
Ba3 Te0 3.501754 1_555
Ba3 Te0 3.501754 1_655
Ba3 Te15 3.552171 1_555
Ba3 Te8 3.589545 1_555
Ba3 Te8 3.589545 1_655
Ba3 Te13 3.675215 1_645
Ba3 Te13 3.675215 1_545
Ba3 Te18 3.929635 1_545
Ba4 Te10 3.525256 1_555
Ba4 Te10 3.525256 1_455
Ba4 Te3 3.538973 1_455
Ba4 Te3 3.538973 1_555
Ba4 Te5 3.675427 1_555
Ba4 Te7 3.745847 1_455
Ba4 Te7 3.745847 1_555
Ba4 Te17 3.974955 1_555
Ba5 Te11 3.525256 1_555
Ba5 Te11 3.525256 1_455
Ba5 Te2 3.538973 1_445
Ba5 Te2 3.538973 1_545
Ba5 Te4 3.675427 1_554
Ba5 Te6 3.745847 1_445
Ba5 Te6 3.745847 1_545
Ba5 Te16 3.974955 1_555
Ba6 Te8 3.525256 1_655
Ba6 Te8 3.525256 1_555
Ba6 Te1 3.538973 1_555
Ba6 Te1 3.538973 1_655
Ba6 Te7 3.675427 1_555
Ba6 Te5 3.745847 1_555
Ba6 Te5 3.745847 1_655
Ba6 Te19 3.974955 1_555
Ba7 Te9 3.525256 1_555
Ba7 Te9 3.525256 1_655
Ba7 Te0 3.538973 1_565
Ba7 Te0 3.538973 1_665
Ba7 Te6 3.675427 1_556
Ba7 Te4 3.745847 1_665
Ba7 Te4 3.745847 1_565
Ba7 Te18 3.974955 1_555
In0 Te0 2.805207 1_555
In0 Te19 2.863212 1_555
In0 Te19 2.863212 1_455
In0 Te4 2.885432 1_555
In1 Te1 2.805207 1_555
In1 Te18 2.863212 1_555
In1 Te18 2.863212 1_455
In1 Te5 2.885432 1_555
In2 Te2 2.805207 1_555
In2 Te17 2.863212 1_655
In2 Te17 2.863212 1_555
In2 Te6 2.885432 1_555
In3 Te3 2.805207 1_555
In3 Te16 2.863212 1_555
In3 Te16 2.863212 1_655
In3 Te7 2.885432 1_555
Sb0 Te8 2.881815 1_555
Sb0 Te15 3.046644 1_555
Sb0 Te15 3.046644 1_455
Sb0 Te7 3.291799 1_555
Sb0 Te7 3.291799 1_455
Sb1 Te9 2.881815 1_554
Sb1 Te14 3.046644 1_455
Sb1 Te14 3.046644 1_555
Sb1 Te6 3.291799 1_555
Sb1 Te6 3.291799 1_455
Sb2 Te10 2.881815 1_555
Sb2 Te13 3.046644 1_555
Sb2 Te13 3.046644 1_655
Sb2 Te5 3.291799 1_655
Sb2 Te5 3.291799 1_555
Sb3 Te11 2.881815 1_556
Sb3 Te12 3.046644 1_555
Sb3 Te12 3.046644 1_655
Sb3 Te4 3.291799 1_655
Sb3 Te4 3.291799 1_555
