# generated using pymatgen
data_Er(AlC)3
_symmetry_space_group_name_H-M   'P 1'
_cell_length_a   3.40228999
_cell_length_b   3.40228999
_cell_length_c   17.15305840
_cell_angle_alpha   90.00000000
_cell_angle_beta   90.00000000
_cell_angle_gamma   119.99997370
_symmetry_Int_Tables_number   1
_chemical_formula_structural   Er(AlC)3
_chemical_formula_sum   'Er2 Al6 C6'
_cell_volume   171.95506286
_cell_formula_units_Z   2
loop_
 _symmetry_equiv_pos_site_id
 _symmetry_equiv_pos_as_xyz
  1  'x, y, z'
loop_
 _atom_site_type_symbol
 _atom_site_label
 _atom_site_symmetry_multiplicity
 _atom_site_fract_x
 _atom_site_fract_y
 _atom_site_fract_z
 _atom_site_occupancy
  Er  Er0  1  0.00000000  -0.00000000  0.50000000  1
  Er  Er1  1  0.00000000  -0.00000000  0.00000000  1
  Al  Al0  1  0.33333300  0.66666700  0.36656768  1
  Al  Al1  1  0.66666700  0.33333300  0.63343232  1
  Al  Al2  1  0.66666700  0.33333300  0.86656768  1
  Al  Al3  1  0.33333300  0.66666700  0.13343232  1
  Al  Al4  1  0.33333300  0.66666700  0.75000000  1
  Al  Al5  1  0.66666700  0.33333300  0.25000000  1
  C  C0  1  0.33333300  0.66666700  0.90782174  1
  C  C1  1  0.66666700  0.33333300  0.09217826  1
  C  C2  1  0.66666700  0.33333300  0.40782174  1
  C  C3  1  0.33333300  0.66666700  0.59217826  1
  C  C4  1  0.33333300  0.66666700  0.25000000  1
  C  C5  1  0.66666700  0.33333300  0.75000000  1
loop_
_geom_bond_atom_site_label_1
_geom_bond_atom_site_label_2
_geom_bond_distance
_geom_bond_site_symmetry_2
Al0 C4 1.999492 1_555
Al0 C2 2.087885 1_455
Al0 C2 2.087885 1_565
Al0 C2 2.087890 1_555
Al1 C5 1.999492 1_555
Al1 C3 2.087885 1_545
Al1 C3 2.087885 1_655
Al1 C3 2.087890 1_555
Al2 C5 1.999492 1_555
Al2 C0 2.087885 1_545
Al2 C0 2.087885 1_655
Al2 C0 2.087890 1_555
Al3 C4 1.999492 1_555
Al3 C1 2.087885 1_455
Al3 C1 2.087885 1_565
Al3 C1 2.087890 1_555
Al4 C5 1.964312 1_455
Al4 C5 1.964312 1_565
Al4 C5 1.964317 1_555
Al5 C4 1.964312 1_545
Al5 C4 1.964312 1_655
Al5 C4 1.964317 1_555
C0 Er1 2.521610 1_566
C0 Er1 2.521613 1_666
C0 Er1 2.521613 1_556
C1 Er1 2.521610 1_655
C1 Er1 2.521613 1_665
C1 Er1 2.521613 1_555
C2 Er0 2.521610 1_655
C2 Er0 2.521613 1_555
C2 Er0 2.521613 1_665
C3 Er0 2.521610 1_565
C3 Er0 2.521613 1_555
C3 Er0 2.521613 1_665
