# generated using pymatgen
data_La3Mn3O10
_symmetry_space_group_name_H-M   'P 1'
_cell_length_a   5.45531300
_cell_length_b   5.45732497
_cell_length_c   22.82240117
_cell_angle_alpha   96.59838421
_cell_angle_beta   90.12029852
_cell_angle_gamma   118.86784126
_symmetry_Int_Tables_number   1
_chemical_formula_structural   La3Mn3O10
_chemical_formula_sum   'La9 Mn9 O30'
_cell_volume   589.78567795
_cell_formula_units_Z   3
loop_
 _symmetry_equiv_pos_site_id
 _symmetry_equiv_pos_as_xyz
  1  'x, y, z'
loop_
 _atom_site_type_symbol
 _atom_site_label
 _atom_site_symmetry_multiplicity
 _atom_site_fract_x
 _atom_site_fract_y
 _atom_site_fract_z
 _atom_site_occupancy
  La  La0  1  0.24975000  0.74772000  0.74838400  1
  La  La1  1  0.04620100  0.95309500  0.14288200  1
  La  La2  1  0.45514900  0.54747900  0.35942000  1
  La  La3  1  0.34457100  0.65176200  0.04371700  1
  La  La4  1  0.65650500  0.34604600  0.95813900  1
  La  La5  1  0.95334300  0.04364300  0.85953500  1
  La  La6  1  0.54456900  0.44548000  0.64493200  1
  La  La7  1  0.84730500  0.15689000  0.53972800  1
  La  La8  1  0.74474100  0.24728800  0.25335000  1
  Mn  Mn0  1  0.29578300  0.69410400  0.89946600  1
  Mn  Mn1  1  0.20287300  0.80380800  0.59627900  1
  Mn  Mn2  1  0.10314700  0.90200500  0.30244600  1
  Mn  Mn3  1  0.39942600  0.60009500  0.20087000  1
  Mn  Mn4  1  0.59746200  0.39783400  0.80009100  1
  Mn  Mn5  1  0.49578700  0.49937600  0.49728800  1
  Mn  Mn6  1  0.89819500  0.09668300  0.69997400  1
  Mn  Mn7  1  0.79733100  0.19519800  0.40176900  1
  Mn  Mn8  1  0.70498400  0.30587300  0.10128000  1
  O  O0  1  0.66794200  0.87711200  0.45776900  1
  O  O1  1  0.30351400  0.81150600  0.24737300  1
  O  O2  1  0.09656300  0.78541800  0.94459600  1
  O  O3  1  0.88516700  0.00539100  0.34324300  1
  O  O4  1  0.51615400  0.90029700  0.13794000  1
  O  O5  1  0.59958700  0.81668000  0.95480400  1
  O  O6  1  0.98941300  0.57624300  0.83539900  1
  O  O7  1  0.58006100  0.96537000  0.63750600  1
  O  O8  1  0.82040400  0.63464500  0.56095800  1
  O  O9  1  0.77978000  0.77194700  0.23540700  1
  O  O10  1  0.51148000  0.61740000  0.84627400  1
  O  O11  1  0.06841800  0.47676200  0.66201700  1
  O  O12  1  0.69841800  0.39811100  0.44979600  1
  O  O13  1  0.27836800  0.29740200  0.26337100  1
  O  O14  1  0.85619000  0.65952800  0.06333800  1
  O  O15  1  0.14416500  0.34015000  0.93737900  1
  O  O16  1  0.71828000  0.70548100  0.73721600  1
  O  O17  1  0.30464400  0.58345200  0.55554600  1
  O  O18  1  0.93516300  0.52415600  0.33798600  1
  O  O19  1  0.48532200  0.38443000  0.15358600  1
  O  O20  1  0.21595700  0.22518300  0.76431600  1
  O  O21  1  0.17760000  0.36779000  0.44234100  1
  O  O22  1  0.01179100  0.42283300  0.16477200  1
  O  O23  1  0.44088200  0.04776400  0.35386500  1
  O  O24  1  0.40111200  0.18338300  0.04583400  1
  O  O25  1  0.48149400  0.09791100  0.86285900  1
  O  O26  1  0.10852600  0.99538300  0.65272000  1
  O  O27  1  0.90134800  0.21346200  0.05564600  1
  O  O28  1  0.68544000  0.18813700  0.75056300  1
  O  O29  1  0.34984300  0.14214700  0.54602600  1
loop_
_geom_bond_atom_site_label_1
_geom_bond_atom_site_label_2
_geom_bond_distance
_geom_bond_site_symmetry_2
La0 O11 2.227087 1_555
La0 O28 2.425806 1_565
La0 O6 2.447888 1_455
La0 O16 2.685007 1_555
La0 O16 2.803981 1_455
La0 O25 2.929505 1_565
La1 O14 2.158000 1_455
La1 O19 2.399965 1_565
La1 O9 2.579537 1_455
La1 O22 2.650875 1_565
La1 O4 2.715794 1_555
La1 O4 2.764707 1_455
La1 O22 2.909826 1_555
La1 O13 3.032559 1_565
La2 O13 2.372868 1_555
La2 O21 2.416694 1_555
La2 O3 2.537614 1_565
La2 O0 2.581943 1_555
La2 O23 2.678581 1_555
La2 O18 2.724995 1_555
La2 O23 2.785841 1_565
La2 O18 2.816650 1_455
La2 O12 2.845955 1_555
La3 O4 2.331389 1_555
La3 O5 2.466921 1_554
La3 O27 2.491949 1_455
La3 O15 2.687406 1_554
La3 O14 2.722194 1_455
La3 O24 2.724098 1_555
La3 O24 2.760117 1_565
La3 O14 2.805068 1_555
La4 O25 2.353715 1_555
La4 O24 2.441434 1_556
La4 O2 2.494670 1_655
La4 O14 2.668950 1_556
La4 O15 2.717969 1_655
La4 O15 2.818067 1_555
La5 O15 2.136202 1_655
La5 O10 2.394582 1_545
La5 O6 2.647769 1_545
La5 O25 2.729675 1_555
La5 O25 2.750442 1_655
La5 O6 2.933677 1_555
La5 O16 3.059274 1_545
La6 O16 2.313797 1_555
La6 O8 2.443318 1_555
La6 O26 2.486727 1_545
La6 O29 2.529278 1_555
La6 O7 2.705393 1_545
La6 O11 2.710277 1_555
La6 O7 2.774199 1_555
La6 O17 2.781202 1_555
La6 O11 2.803021 1_655
La7 O0 2.163525 1_545
La7 O8 2.670871 1_555
La7 O29 2.680554 1_555
La7 O29 2.785131 1_655
La7 O8 2.879746 1_545
La7 O11 3.020691 1_655
La8 O18 2.213244 1_555
La8 O1 2.421764 1_545
La8 O22 2.497339 1_655
La8 O9 2.677409 1_545
La8 O13 2.694446 1_555
La8 O13 2.795657 1_655
La8 O9 2.853711 1_555
La8 O4 2.939106 1_545
Mn0 O2 1.702945 1_555
Mn0 O10 1.843469 1_555
Mn0 O5 1.875062 1_555
Mn0 O15 2.002114 1_555
Mn0 O6 2.020051 1_455
Mn0 O25 2.202640 1_565
Mn1 O17 1.734502 1_555
Mn1 O26 1.797240 1_555
Mn1 O8 1.953845 1_455
Mn1 O7 1.986487 1_555
Mn1 O29 2.104417 1_565
Mn1 O11 2.308753 1_555
Mn2 O3 1.769488 1_465
Mn2 O1 1.844688 1_555
Mn2 O23 1.940550 1_565
Mn2 O18 2.076679 1_455
Mn2 O9 2.118181 1_455
Mn2 O13 2.195298 1_565
Mn3 O19 1.735537 1_555
Mn3 O1 1.742148 1_555
Mn3 O9 1.936620 1_555
Mn3 O22 1.980055 1_555
Mn3 O4 2.165522 1_555
Mn3 O13 2.166027 1_555
Mn4 O10 1.738177 1_555
Mn4 O28 1.747280 1_555
Mn4 O20 1.951539 1_555
Mn4 O6 1.992871 1_555
Mn4 O25 2.161987 1_555
Mn4 O16 2.191227 1_555
Mn5 O12 1.777467 1_555
Mn5 O17 1.842075 1_555
Mn5 O21 1.918748 1_555
Mn5 O8 2.067095 1_555
Mn5 O0 2.122836 1_555
Mn5 O29 2.162198 1_555
Mn6 O26 1.807186 1_645
Mn6 O28 1.833504 1_555
Mn6 O7 2.027812 1_545
Mn6 O20 2.057166 1_655
Mn6 O11 2.114612 1_655
Mn6 O16 2.154264 1_545
Mn7 O12 1.737625 1_555
Mn7 O3 1.802957 1_555
Mn7 O23 1.975368 1_555
Mn7 O21 1.988177 1_655
Mn7 O0 2.115546 1_545
Mn7 O18 2.282326 1_555
Mn8 O27 1.700635 1_555
Mn8 O19 1.851825 1_555
Mn8 O24 1.876950 1_555
Mn8 O14 2.001262 1_555
Mn8 O22 2.013504 1_655
Mn8 O4 2.210833 1_545
