# generated using pymatgen
data_LaSm3
_symmetry_space_group_name_H-M   'P 1'
_cell_length_a   7.48506840
_cell_length_b   7.48506993
_cell_length_c   5.83987788
_cell_angle_alpha   90.00000000
_cell_angle_beta   90.00000000
_cell_angle_gamma   120.00000662
_symmetry_Int_Tables_number   1
_chemical_formula_structural   LaSm3
_chemical_formula_sum   'La2 Sm6'
_cell_volume   283.35181846
_cell_formula_units_Z   2
loop_
 _symmetry_equiv_pos_site_id
 _symmetry_equiv_pos_as_xyz
  1  'x, y, z'
loop_
 _atom_site_type_symbol
 _atom_site_label
 _atom_site_symmetry_multiplicity
 _atom_site_fract_x
 _atom_site_fract_y
 _atom_site_fract_z
 _atom_site_occupancy
  La  La0  1  0.33333300  0.66666700  0.75000000  1
  La  La1  1  0.66666700  0.33333300  0.25000000  1
  Sm  Sm0  1  0.83428825  0.16571175  0.75000000  1
  Sm  Sm1  1  0.33142450  0.16571175  0.75000000  1
  Sm  Sm2  1  0.83428825  0.66857550  0.75000000  1
  Sm  Sm3  1  0.16571175  0.83428825  0.25000000  1
  Sm  Sm4  1  0.16571175  0.33142450  0.25000000  1
  Sm  Sm5  1  0.66857550  0.83428825  0.25000000  1
loop_
_geom_bond_atom_site_label_1
_geom_bond_atom_site_label_2
_geom_bond_distance
_geom_bond_site_symmetry_2
La0 Sm5 3.639853 1_556
La0 Sm5 3.639853 1_555
La0 Sm3 3.639854 1_556
La0 Sm3 3.639854 1_555
La0 Sm4 3.639854 1_555
La0 Sm4 3.639854 1_556
La0 Sm2 3.742547 1_455
La0 Sm1 3.742548 1_565
La0 Sm0 3.742555 1_565
La0 Sm0 3.742555 1_455
La0 Sm2 3.742562 1_555
La0 Sm1 3.742563 1_555
La1 Sm1 3.639853 1_554
La1 Sm1 3.639853 1_555
La1 Sm0 3.639854 1_555
La1 Sm0 3.639854 1_554
La1 Sm2 3.639854 1_555
La1 Sm2 3.639854 1_554
La1 Sm4 3.742547 1_655
La1 Sm5 3.742548 1_545
La1 Sm3 3.742555 1_545
La1 Sm3 3.742555 1_655
La1 Sm4 3.742562 1_555
La1 Sm5 3.742563 1_555
Sm0 Sm4 3.625128 1_656
Sm0 Sm4 3.625128 1_655
Sm0 Sm5 3.625128 1_545
Sm0 Sm5 3.625128 1_546
Sm0 Sm1 3.721099 1_655
Sm0 Sm2 3.721100 1_545
Sm0 Sm1 3.763970 1_555
Sm0 Sm2 3.763970 1_555
Sm1 Sm3 3.625128 1_546
Sm1 Sm3 3.625128 1_545
Sm1 Sm4 3.625135 1_555
Sm1 Sm4 3.625135 1_556
Sm1 Sm2 3.721099 1_445
Sm1 Sm2 3.763970 1_555
Sm2 Sm3 3.625128 1_655
Sm2 Sm3 3.625128 1_656
Sm2 Sm5 3.625135 1_556
Sm2 Sm5 3.625135 1_555
Sm3 Sm5 3.721099 1_455
Sm3 Sm4 3.721100 1_565
Sm3 Sm5 3.763970 1_555
Sm3 Sm4 3.763970 1_555
Sm4 Sm5 3.721099 1_445
Sm4 Sm5 3.763970 1_555
