# generated using pymatgen
data_K2YTi(PO4)3
_symmetry_space_group_name_H-M   'P 1'
_cell_length_a   10.30627700
_cell_length_b   10.30627700
_cell_length_c   10.30627700
_cell_angle_alpha   90.00000000
_cell_angle_beta   90.00000000
_cell_angle_gamma   90.00000000
_symmetry_Int_Tables_number   1
_chemical_formula_structural   K2YTi(PO4)3
_chemical_formula_sum   'K8 Y4 Ti4 P12 O48'
_cell_volume   1094.72599852
_cell_formula_units_Z   4
loop_
 _symmetry_equiv_pos_site_id
 _symmetry_equiv_pos_as_xyz
  1  'x, y, z'
loop_
 _atom_site_type_symbol
 _atom_site_label
 _atom_site_symmetry_multiplicity
 _atom_site_fract_x
 _atom_site_fract_y
 _atom_site_fract_z
 _atom_site_occupancy
  K  K0  1  0.93062000  0.56938000  0.43062000  1
  K  K1  1  0.56938000  0.43062000  0.93062000  1
  K  K2  1  0.06938000  0.06938000  0.06938000  1
  K  K3  1  0.43062000  0.93062000  0.56938000  1
  K  K4  1  0.70448000  0.79552000  0.20448000  1
  K  K5  1  0.79552000  0.20448000  0.70448000  1
  K  K6  1  0.29552000  0.29552000  0.29552000  1
  K  K7  1  0.20448000  0.70448000  0.79552000  1
  Y  Y0  1  0.08334300  0.91665700  0.41665700  1
  Y  Y1  1  0.58334300  0.58334300  0.58334300  1
  Y  Y2  1  0.41665700  0.08334300  0.91665700  1
  Y  Y3  1  0.91665700  0.41665700  0.08334300  1
  Ti  Ti0  1  0.85596400  0.85596400  0.85596400  1
  Ti  Ti1  1  0.14403600  0.35596400  0.64403600  1
  Ti  Ti2  1  0.35596400  0.64403600  0.14403600  1
  Ti  Ti3  1  0.64403600  0.14403600  0.35596400  1
  P  P0  1  0.04510500  0.74006700  0.11589500  1
  P  P1  1  0.88410500  0.54510500  0.75993300  1
  P  P2  1  0.24006700  0.38410500  0.95489500  1
  P  P3  1  0.54510500  0.75993300  0.88410500  1
  P  P4  1  0.38410500  0.95489500  0.24006700  1
  P  P5  1  0.74006700  0.11589500  0.04510500  1
  P  P6  1  0.95489500  0.24006700  0.38410500  1
  P  P7  1  0.11589500  0.04510500  0.74006700  1
  P  P8  1  0.75993300  0.88410500  0.54510500  1
  P  P9  1  0.45489500  0.25993300  0.61589500  1
  P  P10  1  0.61589500  0.45489500  0.25993300  1
  P  P11  1  0.25993300  0.61589500  0.45489500  1
  O  O0  1  0.01819600  0.83674200  0.22587000  1
  O  O1  1  0.77413000  0.51819600  0.66325800  1
  O  O2  1  0.33674200  0.27413000  0.98180400  1
  O  O3  1  0.51819600  0.66325800  0.77413000  1
  O  O4  1  0.27413000  0.98180400  0.33674200  1
  O  O5  1  0.83674200  0.22587000  0.01819600  1
  O  O6  1  0.98180400  0.33674200  0.27413000  1
  O  O7  1  0.22587000  0.01819600  0.83674200  1
  O  O8  1  0.66325800  0.77413000  0.51819600  1
  O  O9  1  0.48180400  0.16325800  0.72587000  1
  O  O10  1  0.72587000  0.48180400  0.16325800  1
  O  O11  1  0.16325800  0.72587000  0.48180400  1
  O  O12  1  0.97217400  0.79341000  0.99356000  1
  O  O13  1  0.00644000  0.47217400  0.70659000  1
  O  O14  1  0.29341000  0.50644000  0.02782600  1
  O  O15  1  0.47217400  0.70659000  0.00644000  1
  O  O16  1  0.50644000  0.02782600  0.29341000  1
  O  O17  1  0.79341000  0.99356000  0.97217400  1
  O  O18  1  0.02782600  0.29341000  0.50644000  1
  O  O19  1  0.99356000  0.97217400  0.79341000  1
  O  O20  1  0.70659000  0.00644000  0.47217400  1
  O  O21  1  0.52782600  0.20659000  0.49356000  1
  O  O22  1  0.49356000  0.52782600  0.20659000  1
  O  O23  1  0.20659000  0.49356000  0.52782600  1
  O  O24  1  0.19358300  0.73505600  0.08432300  1
  O  O25  1  0.91567700  0.69358300  0.76494400  1
  O  O26  1  0.23505600  0.41567700  0.80641700  1
  O  O27  1  0.69358300  0.76494400  0.91567700  1
  O  O28  1  0.41567700  0.80641700  0.23505600  1
  O  O29  1  0.73505600  0.08432300  0.19358300  1
  O  O30  1  0.80641700  0.23505600  0.41567700  1
  O  O31  1  0.08432300  0.19358300  0.73505600  1
  O  O32  1  0.76494400  0.91567700  0.69358300  1
  O  O33  1  0.30641700  0.26494400  0.58432300  1
  O  O34  1  0.58432300  0.30641700  0.26494400  1
  O  O35  1  0.26494400  0.58432300  0.30641700  1
  O  O36  1  0.99237800  0.60634300  0.15247600  1
  O  O37  1  0.84752400  0.49237800  0.89365700  1
  O  O38  1  0.10634300  0.34752400  0.00762200  1
  O  O39  1  0.49237800  0.89365700  0.84752400  1
  O  O40  1  0.34752400  0.00762200  0.10634300  1
  O  O41  1  0.60634300  0.15247600  0.99237800  1
  O  O42  1  0.00762200  0.10634300  0.34752400  1
  O  O43  1  0.15247600  0.99237800  0.60634300  1
  O  O44  1  0.89365700  0.84752400  0.49237800  1
  O  O45  1  0.50762200  0.39365700  0.65247600  1
  O  O46  1  0.65247600  0.50762200  0.39365700  1
  O  O47  1  0.39365700  0.65247600  0.50762200  1
loop_
_geom_bond_atom_site_label_1
_geom_bond_atom_site_label_2
_geom_bond_distance
_geom_bond_site_symmetry_2
K0 O11 2.937368 1_655
K0 O1 2.937368 1_555
K0 O6 2.937368 1_555
K0 O44 2.961049 1_555
K0 O36 2.961049 1_555
K0 O46 2.961049 1_555
K0 O23 3.115107 1_655
K0 O18 3.115107 1_655
K0 O13 3.115107 1_655
K1 O10 2.937368 1_556
K1 O3 2.937368 1_555
K1 O2 2.937368 1_555
K1 O37 2.961049 1_555
K1 O41 2.961049 1_555
K1 O45 2.961049 1_555
K1 O14 3.115107 1_556
K1 O22 3.115107 1_556
K1 O15 3.115107 1_556
K2 O5 2.937368 1_455
K2 O7 2.937368 1_554
K2 O0 2.937368 1_545
K2 O40 2.961049 1_555
K2 O38 2.961049 1_555
K2 O42 2.961049 1_555
K2 O17 3.115107 1_444
K2 O19 3.115107 1_444
K2 O12 3.115107 1_444
K3 O9 2.937368 1_565
K3 O4 2.937368 1_555
K3 O8 2.937368 1_555
K3 O39 2.961049 1_555
K3 O43 2.961049 1_555
K3 O47 2.961049 1_555
K3 O21 3.115107 1_565
K3 O16 3.115107 1_565
K3 O20 3.115107 1_565
K4 O29 2.995225 1_565
K4 O27 2.995225 1_554
K4 O28 2.995225 1_555
K4 O0 3.268480 1_655
K4 O8 3.268480 1_555
K4 O10 3.268480 1_555
K4 O16 3.276917 1_565
K4 O17 3.276917 1_554
K4 O15 3.276917 1_555
K5 O31 2.995225 1_655
K5 O32 2.995225 1_545
K5 O30 2.995225 1_555
K5 O5 3.268480 1_556
K5 O1 3.268480 1_555
K5 O9 3.268480 1_555
K5 O18 3.276917 1_655
K5 O19 3.276917 1_545
K5 O20 3.276917 1_555
K6 O34 2.995225 1_555
K6 O33 2.995225 1_555
K6 O35 2.995225 1_555
K6 O4 3.268480 1_545
K6 O6 3.268480 1_455
K6 O2 3.268480 1_554
K6 O23 3.276917 1_555
K6 O21 3.276917 1_555
K6 O22 3.276917 1_555
K7 O24 2.995225 1_556
K7 O25 2.995225 1_455
K7 O26 2.995225 1_555
K7 O7 3.268480 1_565
K7 O3 3.268480 1_555
K7 O11 3.268480 1_555
K7 O14 3.276917 1_556
K7 O12 3.276917 1_455
K7 O13 3.276917 1_555
O0 P0 1.534378 1_555
O0 Y0 2.235066 1_555
O1 P1 1.534378 1_555
O1 Y1 2.235066 1_555
O2 P2 1.534378 1_555
O2 Y2 2.235066 1_555
O3 P3 1.534378 1_555
O3 Y1 2.235066 1_555
O4 P4 1.534378 1_555
O4 Y0 2.235066 1_555
O5 P5 1.534378 1_555
O5 Y3 2.235066 1_555
O6 P6 1.534378 1_555
O6 Y3 2.235066 1_555
O7 P7 1.534378 1_555
O7 Y2 2.235066 1_555
O8 P8 1.534378 1_555
O8 Y1 2.235066 1_555
O9 P9 1.534378 1_555
O9 Y2 2.235066 1_555
O10 P10 1.534378 1_555
O10 Y3 2.235066 1_555
O11 P11 1.534378 1_555
O11 Y0 2.235066 1_555
O12 P0 1.567444 1_656
O12 Ti0 1.964973 1_555
O13 P1 1.567444 1_455
O13 Ti1 1.964973 1_555
O14 P2 1.567444 1_554
O14 Ti2 1.964973 1_555
O15 P3 1.567444 1_554
O15 Ti2 1.964973 1_555
O16 P4 1.567444 1_545
O16 Ti3 1.964973 1_555
O17 P5 1.567444 1_566
O17 Ti0 1.964973 1_555
O18 P6 1.567444 1_455
O18 Ti1 1.964973 1_555
O19 P7 1.567444 1_665
O19 Ti0 1.964973 1_555
O20 P8 1.567444 1_545
O20 Ti3 1.964973 1_555
O21 P9 1.567444 1_555
O21 Ti3 1.964973 1_555
O22 P10 1.567444 1_555
O22 Ti2 1.964973 1_555
O23 P11 1.567444 1_555
O23 Ti1 1.964973 1_555
O24 P0 1.565320 1_555
O24 Ti2 2.014814 1_555
O25 P1 1.565320 1_555
O25 Ti0 2.014814 1_555
O26 P2 1.565320 1_555
O26 Ti1 2.014814 1_555
O27 P3 1.565320 1_555
O27 Ti0 2.014814 1_555
O28 P4 1.565320 1_555
O28 Ti2 2.014814 1_555
O29 P5 1.565320 1_555
O29 Ti3 2.014814 1_555
O30 P6 1.565320 1_555
O30 Ti3 2.014814 1_555
O31 P7 1.565320 1_555
O31 Ti1 2.014814 1_555
O32 P8 1.565320 1_555
O32 Ti0 2.014814 1_555
O33 P9 1.565320 1_555
O33 Ti1 2.014814 1_555
O34 P10 1.565320 1_555
O34 Ti3 2.014814 1_555
O35 P11 1.565320 1_555
O35 Ti2 2.014814 1_555
O36 P0 1.528682 1_655
O36 Y3 2.222283 1_555
O37 P1 1.528682 1_555
O37 Y3 2.222283 1_556
O38 P2 1.528682 1_554
O38 Y3 2.222283 1_455
O39 P3 1.528682 1_555
O39 Y2 2.222283 1_565
O40 P4 1.528682 1_545
O40 Y2 2.222283 1_554
O41 P5 1.528682 1_556
O41 Y2 2.222283 1_555
O42 P6 1.528682 1_455
O42 Y0 2.222283 1_545
O43 P7 1.528682 1_565
O43 Y0 2.222283 1_555
O44 P8 1.528682 1_555
O44 Y0 2.222283 1_655
O45 P9 1.528682 1_555
O45 Y1 2.222283 1_555
O46 P10 1.528682 1_555
O46 Y1 2.222283 1_555
O47 P11 1.528682 1_555
O47 Y1 2.222283 1_555
