# generated using pymatgen
data_Ba4Nd(IrO4)3
_symmetry_space_group_name_H-M   'P 1'
_cell_length_a   6.00502807
_cell_length_b   6.00502807
_cell_length_c   10.78968252
_cell_angle_alpha   71.20737848
_cell_angle_beta   71.20737848
_cell_angle_gamma   59.93844380
_symmetry_Int_Tables_number   1
_chemical_formula_structural   Ba4Nd(IrO4)3
_chemical_formula_sum   'Ba4 Nd1 Ir3 O12'
_cell_volume   312.59496179
_cell_formula_units_Z   1
loop_
 _symmetry_equiv_pos_site_id
 _symmetry_equiv_pos_as_xyz
  1  'x, y, z'
loop_
 _atom_site_type_symbol
 _atom_site_label
 _atom_site_symmetry_multiplicity
 _atom_site_fract_x
 _atom_site_fract_y
 _atom_site_fract_z
 _atom_site_occupancy
  Ba  Ba0  1  0.87126000  0.87126000  0.38735900  1
  Ba  Ba1  1  0.12874000  0.12874000  0.61264100  1
  Ba  Ba2  1  0.27639400  0.27639400  0.14825100  1
  Ba  Ba3  1  0.72360600  0.72360600  0.85174900  1
  Nd  Nd0  1  0.00000000  0.00000000  0.00000000  1
  Ir  Ir0  1  0.57151200  0.57151200  0.24538700  1
  Ir  Ir1  1  0.42848800  0.42848800  0.75461300  1
  Ir  Ir2  1  0.50000000  0.50000000  0.50000000  1
  O  O0  1  0.38179100  0.84960600  0.36645800  1
  O  O1  1  0.61820900  0.15039400  0.63354200  1
  O  O2  1  0.15039400  0.61820900  0.63354200  1
  O  O3  1  0.84960600  0.38179100  0.36645800  1
  O  O4  1  0.76149400  0.76149400  0.11188200  1
  O  O5  1  0.23850600  0.23850600  0.88811800  1
  O  O6  1  0.37496900  0.37496900  0.39208800  1
  O  O7  1  0.62503100  0.62503100  0.60791200  1
  O  O8  1  0.28293700  0.75426900  0.14662500  1
  O  O9  1  0.71706300  0.24573100  0.85337500  1
  O  O10  1  0.24573100  0.71706300  0.85337500  1
  O  O11  1  0.75426900  0.28293700  0.14662500  1
loop_
_geom_bond_atom_site_label_1
_geom_bond_atom_site_label_2
_geom_bond_distance
_geom_bond_site_symmetry_2
Ba0 O7 2.773421 1_555
Ba0 O3 2.939501 1_565
Ba0 O0 2.939501 1_655
Ba0 O11 2.941138 1_565
Ba0 O8 2.941138 1_655
Ba0 O6 3.000646 1_565
Ba0 O6 3.000646 1_655
Ba0 O0 3.088038 1_555
Ba0 O3 3.088038 1_555
Ba0 O2 3.144927 1_655
Ba0 O1 3.144927 1_565
Ba1 O6 2.773421 1_555
Ba1 O2 2.939501 1_545
Ba1 O1 2.939501 1_455
Ba1 O9 2.941138 1_455
Ba1 O10 2.941138 1_545
Ba1 O7 3.000646 1_545
Ba1 O7 3.000646 1_455
Ba1 O2 3.088038 1_555
Ba1 O1 3.088038 1_555
Ba1 O0 3.144927 1_545
Ba1 O3 3.144927 1_455
Ba2 O3 2.821236 1_455
Ba2 O0 2.821236 1_545
Ba2 O8 2.883893 1_555
Ba2 O11 2.883893 1_555
Ba2 O5 2.975923 1_554
Ba2 O4 3.036706 1_545
Ba2 O4 3.036706 1_455
Ba2 O8 3.121539 1_545
Ba2 O11 3.121539 1_455
Ba2 O6 3.159176 1_555
Ba2 O10 3.409395 1_554
Ba2 O9 3.409395 1_554
Ba3 O2 2.821236 1_655
Ba3 O1 2.821236 1_565
Ba3 O10 2.883893 1_555
Ba3 O9 2.883893 1_555
Ba3 O4 2.975923 1_556
Ba3 O5 3.036706 1_565
Ba3 O5 3.036706 1_655
Ba3 O10 3.121539 1_655
Ba3 O9 3.121539 1_565
Ba3 O7 3.159176 1_555
Ba3 O8 3.409395 1_556
Ba3 O11 3.409395 1_556
Nd0 O8 2.298472 1_545
Nd0 O11 2.298472 1_455
Nd0 O10 2.298472 1_544
Nd0 O9 2.298472 1_454
Nd0 O5 2.321010 1_554
Nd0 O4 2.321010 1_445
Ir0 O4 1.965806 1_555
Ir0 O11 1.968205 1_555
Ir0 O8 1.968205 1_555
Ir0 O6 2.068745 1_555
Ir0 O3 2.081766 1_555
Ir0 O0 2.081766 1_555
Ir1 O5 1.965806 1_555
Ir1 O9 1.968205 1_555
Ir1 O10 1.968205 1_555
Ir1 O7 2.068745 1_555
Ir1 O1 2.081766 1_555
Ir1 O2 2.081766 1_555
Ir2 O6 2.043127 1_555
Ir2 O7 2.043127 1_555
Ir2 O1 2.050481 1_555
Ir2 O2 2.050481 1_555
Ir2 O3 2.050481 1_555
Ir2 O0 2.050481 1_555
