# generated using pymatgen
data_La7SmMnFe7O24
_symmetry_space_group_name_H-M   'P 1'
_cell_length_a   7.88873502
_cell_length_b   7.88873502
_cell_length_c   7.88873433
_cell_angle_alpha   89.98833048
_cell_angle_beta   89.98833048
_cell_angle_gamma   89.98833167
_symmetry_Int_Tables_number   1
_chemical_formula_structural   La7SmMnFe7O24
_chemical_formula_sum   'La7 Sm1 Mn1 Fe7 O24'
_cell_volume   490.93279046
_cell_formula_units_Z   1
loop_
 _symmetry_equiv_pos_site_id
 _symmetry_equiv_pos_as_xyz
  1  'x, y, z'
loop_
 _atom_site_type_symbol
 _atom_site_label
 _atom_site_symmetry_multiplicity
 _atom_site_fract_x
 _atom_site_fract_y
 _atom_site_fract_z
 _atom_site_occupancy
  La  La0  1  0.74926900  0.25011300  0.74926900  1
  La  La1  1  0.25065300  0.25065300  0.74967000  1
  La  La2  1  0.74967000  0.25065300  0.25065300  1
  La  La3  1  0.25088400  0.25088400  0.25088400  1
  La  La4  1  0.25011300  0.74926900  0.74926900  1
  La  La5  1  0.74926900  0.74926900  0.25011300  1
  La  La6  1  0.25065300  0.74967000  0.25065300  1
  Sm  Sm0  1  0.75135600  0.75135600  0.75135600  1
  Mn  Mn0  1  0.50061000  0.50061000  0.50061000  1
  Fe  Fe0  1  0.50039400  0.99944400  0.99944400  1
  Fe  Fe1  1  0.99960000  0.99960000  0.99960000  1
  Fe  Fe2  1  0.50059500  0.99913300  0.50059500  1
  Fe  Fe3  1  0.99944400  0.99944400  0.50039400  1
  Fe  Fe4  1  0.50059500  0.50059500  0.99913300  1
  Fe  Fe5  1  0.99944400  0.50039400  0.99944400  1
  Fe  Fe6  1  0.99913300  0.50059500  0.50059500  1
  O  O0  1  0.50042800  0.25005500  0.99981100  1
  O  O1  1  0.99974500  0.24997700  0.99974500  1
  O  O2  1  0.50030900  0.24797900  0.50030900  1
  O  O3  1  0.99981100  0.25005500  0.50042800  1
  O  O4  1  0.50201100  0.74986100  0.99811400  1
  O  O5  1  0.99744600  0.74993700  0.99744600  1
  O  O6  1  0.50144100  0.75198200  0.50144100  1
  O  O7  1  0.99811400  0.74986100  0.50201100  1
  O  O8  1  0.50201100  0.99811400  0.74986100  1
  O  O9  1  0.99744600  0.99744600  0.74993700  1
  O  O10  1  0.50042800  0.99981100  0.25005500  1
  O  O11  1  0.99974500  0.99974500  0.24997700  1
  O  O12  1  0.50144100  0.50144100  0.75198200  1
  O  O13  1  0.99811400  0.50201100  0.74986100  1
  O  O14  1  0.50030900  0.50030900  0.24797900  1
  O  O15  1  0.99981100  0.50042800  0.25005500  1
  O  O16  1  0.74993700  0.99744600  0.99744600  1
  O  O17  1  0.24997700  0.99974500  0.99974500  1
  O  O18  1  0.74986100  0.99811400  0.50201100  1
  O  O19  1  0.25005500  0.99981100  0.50042800  1
  O  O20  1  0.74986100  0.50201100  0.99811400  1
  O  O21  1  0.25005500  0.50042800  0.99981100  1
  O  O22  1  0.75198200  0.50144100  0.50144100  1
  O  O23  1  0.24797900  0.50030900  0.50030900  1
loop_
_geom_bond_atom_site_label_1
_geom_bond_atom_site_label_2
_geom_bond_distance
_geom_bond_site_symmetry_2
La0 O2 2.777825 1_555
La0 O22 2.784248 1_555
La0 O12 2.784248 1_555
La0 O18 2.785356 1_545
La0 O8 2.785356 1_545
La0 O0 2.785380 1_555
La0 O3 2.785380 1_555
La0 O20 2.793575 1_555
La0 O13 2.793575 1_555
La0 O16 2.793630 1_545
La0 O9 2.793630 1_545
La0 O1 2.794684 1_555
La1 O2 2.783402 1_555
La1 O23 2.783402 1_555
La1 O21 2.788908 1_555
La1 O0 2.788908 1_555
La1 O19 2.789861 1_545
La1 O3 2.789861 1_455
La1 O17 2.794297 1_545
La1 O1 2.794297 1_455
La1 O12 2.798230 1_555
La1 O13 2.810549 1_455
La1 O8 2.810549 1_545
La1 O9 2.825155 1_445
La2 O2 2.783402 1_555
La2 O14 2.783403 1_555
La2 O3 2.788908 1_555
La2 O15 2.788908 1_555
La2 O0 2.789861 1_554
La2 O10 2.789861 1_545
La2 O1 2.794297 1_554
La2 O11 2.794297 1_545
La2 O22 2.798230 1_555
La2 O20 2.810549 1_554
La2 O18 2.810549 1_545
La2 O16 2.825155 1_544
La3 O2 2.783045 1_555
La3 O23 2.783045 1_555
La3 O14 2.783045 1_555
La3 O0 2.792267 1_554
La3 O21 2.792267 1_554
La3 O19 2.792267 1_545
La3 O3 2.792267 1_455
La3 O10 2.792267 1_545
La3 O15 2.792267 1_455
La3 O17 2.802092 1_544
La3 O1 2.802092 1_454
La3 O11 2.802093 1_445
La4 O23 2.777825 1_555
La4 O6 2.784248 1_555
La4 O12 2.784248 1_555
La4 O7 2.785356 1_455
La4 O13 2.785356 1_455
La4 O21 2.785380 1_555
La4 O19 2.785380 1_555
La4 O4 2.793575 1_555
La4 O8 2.793575 1_555
La4 O5 2.793630 1_455
La4 O9 2.793630 1_455
La4 O17 2.794684 1_555
La5 O14 2.777825 1_555
La5 O6 2.784248 1_555
La5 O22 2.784248 1_555
La5 O4 2.785356 1_554
La5 O20 2.785356 1_554
La5 O15 2.785380 1_555
La5 O10 2.785380 1_555
La5 O18 2.793575 1_555
La5 O7 2.793575 1_555
La5 O16 2.793630 1_554
La5 O5 2.793630 1_554
La5 O11 2.794684 1_555
La6 O23 2.783402 1_555
La6 O14 2.783403 1_555
La6 O19 2.788908 1_555
La6 O10 2.788908 1_555
La6 O21 2.789861 1_554
La6 O15 2.789861 1_455
La6 O17 2.794297 1_554
La6 O11 2.794297 1_455
La6 O6 2.798230 1_555
La6 O4 2.810549 1_554
La6 O7 2.810549 1_455
La6 O5 2.825155 1_454
Mn0 O12 1.983031 1_555
Mn0 O6 1.983031 1_555
Mn0 O22 1.983031 1_555
Mn0 O14 1.992943 1_555
Mn0 O2 1.992943 1_555
Mn0 O23 1.992943 1_555
Fe0 O16 1.968698 1_555
Fe0 O8 1.968963 1_555
Fe0 O4 1.968963 1_555
Fe0 O17 1.975475 1_555
Fe0 O10 1.977006 1_556
Fe0 O0 1.977007 1_565
Fe1 O9 1.969679 1_555
Fe1 O16 1.969679 1_555
Fe1 O5 1.969679 1_555
Fe1 O11 1.975159 1_556
Fe1 O1 1.975159 1_565
Fe1 O17 1.975159 1_655
Fe2 O6 1.949729 1_555
Fe2 O2 1.963082 1_565
Fe2 O8 1.966442 1_555
Fe2 O18 1.966442 1_555
Fe2 O10 1.976450 1_555
Fe2 O19 1.976451 1_555
Fe3 O9 1.968698 1_555
Fe3 O18 1.968963 1_555
Fe3 O7 1.968963 1_555
Fe3 O11 1.975475 1_555
Fe3 O19 1.977007 1_655
Fe3 O3 1.977007 1_565
Fe4 O12 1.949729 1_555
Fe4 O14 1.963082 1_556
Fe4 O20 1.966442 1_555
Fe4 O4 1.966442 1_555
Fe4 O0 1.976451 1_555
Fe4 O21 1.976451 1_555
Fe5 O5 1.968698 1_555
Fe5 O13 1.968963 1_555
Fe5 O20 1.968963 1_555
Fe5 O1 1.975475 1_555
Fe5 O15 1.977006 1_556
Fe5 O21 1.977007 1_655
Fe6 O22 1.949729 1_555
Fe6 O23 1.963082 1_655
Fe6 O13 1.966442 1_555
Fe6 O7 1.966442 1_555
Fe6 O15 1.976450 1_555
Fe6 O3 1.976451 1_555
O4 Sm0 2.767132 1_555
O5 Sm0 2.745767 1_555
O6 Sm0 2.788427 1_555
O7 Sm0 2.767132 1_555
O8 Sm0 2.767132 1_555
O9 Sm0 2.745767 1_555
O12 Sm0 2.788428 1_555
O13 Sm0 2.767132 1_555
O16 Sm0 2.745767 1_555
O18 Sm0 2.767132 1_555
O20 Sm0 2.767132 1_555
O22 Sm0 2.788427 1_555
