# generated using pymatgen
data_Mg(BH4)2
_symmetry_space_group_name_H-M   'P 1'
_cell_length_a   8.25306410
_cell_length_b   8.25306410
_cell_length_c   8.25306410
_cell_angle_alpha   124.12521509
_cell_angle_beta   124.12521509
_cell_angle_gamma   82.99206992
_symmetry_Int_Tables_number   1
_chemical_formula_structural   Mg(BH4)2
_chemical_formula_sum   'Mg4 B8 H32'
_cell_volume   369.67457134
_cell_formula_units_Z   4
loop_
 _symmetry_equiv_pos_site_id
 _symmetry_equiv_pos_as_xyz
  1  'x, y, z'
loop_
 _atom_site_type_symbol
 _atom_site_label
 _atom_site_symmetry_multiplicity
 _atom_site_fract_x
 _atom_site_fract_y
 _atom_site_fract_z
 _atom_site_occupancy
  Mg  Mg0  1  0.25000000  0.25000000  0.00000000  1
  Mg  Mg1  1  0.75000000  0.75000000  0.00000000  1
  Mg  Mg2  1  0.50000000  0.00000000  0.50000000  1
  Mg  Mg3  1  0.00000000  0.50000000  0.50000000  1
  B  B0  1  0.59206800  0.37500000  0.71706800  1
  B  B1  1  0.09206800  0.37500000  0.21706800  1
  B  B2  1  0.65793200  0.87500000  0.28293200  1
  B  B3  1  0.15793200  0.87500000  0.78293200  1
  B  B4  1  0.62500000  0.34206800  0.21706800  1
  B  B5  1  0.62500000  0.84206800  0.71706800  1
  B  B6  1  0.12500000  0.40793200  0.78293200  1
  B  B7  1  0.12500000  0.90793200  0.28293200  1
  H  H0  1  0.60624700  0.29698600  0.81346000  1
  H  H1  1  0.10624700  0.29278700  0.30926100  1
  H  H2  1  0.26647400  0.45721300  0.31346000  1
  H  H3  1  0.76647400  0.45301400  0.80926100  1
  H  H4  1  0.48352600  0.79278700  0.18654000  1
  H  H5  1  0.98352600  0.79698600  0.69073900  1
  H  H6  1  0.14375300  0.95301400  0.68654000  1
  H  H7  1  0.64375300  0.95721300  0.19073900  1
  H  H8  1  0.70301400  0.51647400  0.30926100  1
  H  H9  1  0.70721300  0.01647400  0.81346000  1
  H  H10  1  0.54278700  0.85624700  0.80926100  1
  H  H11  1  0.54698600  0.35624700  0.31346000  1
  H  H12  1  0.20721300  0.39375300  0.69073900  1
  H  H13  1  0.20301400  0.89375300  0.18654000  1
  H  H14  1  0.04698600  0.73352600  0.19073900  1
  H  H15  1  0.04278700  0.23352600  0.68654000  1
  H  H16  1  0.49250400  0.49575500  0.75015600  1
  H  H17  1  0.99250400  0.24234800  0.99674900  1
  H  H18  1  0.00440000  0.50765200  0.25015600  1
  H  H19  1  0.50440000  0.25424500  0.49674900  1
  H  H20  1  0.74560000  0.74234800  0.24984400  1
  H  H21  1  0.24560000  0.99575500  0.00325100  1
  H  H22  1  0.25749600  0.75424500  0.74984400  1
  H  H23  1  0.75749600  0.00765200  0.50325100  1
  H  H24  1  0.50424500  0.25440000  0.99674900  1
  H  H25  1  0.75765200  0.75440000  0.75015600  1
  H  H26  1  0.49234800  0.74250400  0.49674900  1
  H  H27  1  0.74575500  0.24250400  0.25015600  1
  H  H28  1  0.25765200  0.50749600  0.00325100  1
  H  H29  1  0.00424500  0.00749600  0.24984400  1
  H  H30  1  0.24575500  0.99560000  0.50325100  1
  H  H31  1  0.99234800  0.49560000  0.74984400  1
loop_
_geom_bond_atom_site_label_1
_geom_bond_atom_site_label_2
_geom_bond_distance
_geom_bond_site_symmetry_2
B0 H19 1.220479 1_555
B0 H16 1.220481 1_555
B0 H3 1.230029 1_555
B0 H0 1.230029 1_555
B1 H17 1.220481 1_454
B1 H18 1.220486 1_555
B1 H2 1.230029 1_555
B1 H1 1.230029 1_555
B2 H23 1.220481 1_565
B2 H20 1.220486 1_555
B2 H7 1.230029 1_555
B2 H4 1.230029 1_555
B3 H21 1.220479 1_556
B3 H22 1.220481 1_555
B3 H6 1.230029 1_555
B3 H5 1.230029 1_455
B4 H24 1.220479 1_554
B4 H27 1.220481 1_555
B4 H8 1.230029 1_555
B4 H11 1.230029 1_555
B5 H26 1.220481 1_555
B5 H25 1.220486 1_555
B5 H10 1.230029 1_555
B5 H9 1.230029 1_565
B6 H28 1.220481 1_556
B6 H31 1.220486 1_455
B6 H12 1.230029 1_555
B6 H15 1.230029 1_555
B7 H30 1.220479 1_555
B7 H29 1.220481 1_565
B7 H13 1.230029 1_555
B7 H14 1.230029 1_555
H0 Mg2 2.081787 1_555
H1 Mg3 2.081787 1_555
H2 Mg0 2.081787 1_555
H3 Mg1 2.081787 1_556
H4 Mg2 2.081787 1_565
H5 Mg3 2.081787 1_655
H6 Mg0 2.081787 1_566
H7 Mg1 2.081787 1_555
H8 Mg3 2.081787 1_655
H9 Mg2 2.081787 1_555
H10 Mg1 2.081787 1_556
H11 Mg0 2.081787 1_555
H12 Mg3 2.081787 1_555
H13 Mg2 2.081787 1_565
H14 Mg1 2.081787 1_455
H15 Mg0 2.081787 1_556
H16 Mg1 2.118434 1_556
H17 Mg0 2.118434 1_656
H18 Mg3 2.118429 1_555
H19 Mg2 2.118433 1_555
H20 Mg1 2.118429 1_555
H21 Mg0 2.118433 1_565
H22 Mg3 2.118434 1_555
H23 Mg2 2.118434 1_555
H24 Mg0 2.118433 1_556
H25 Mg1 2.118429 1_556
H26 Mg2 2.118434 1_565
H27 Mg3 2.118434 1_655
H28 Mg0 2.118434 1_555
H29 Mg1 2.118434 1_445
H30 Mg2 2.118433 1_565
H31 Mg3 2.118429 1_655
