# generated using pymatgen
data_Mg4As6Ir7
_symmetry_space_group_name_H-M   'P 1'
_cell_length_a   7.03444967
_cell_length_b   7.03445009
_cell_length_c   7.03444963
_cell_angle_alpha   109.47122515
_cell_angle_beta   109.47122636
_cell_angle_gamma   109.47121777
_symmetry_Int_Tables_number   1
_chemical_formula_structural   Mg4As6Ir7
_chemical_formula_sum   'Mg4 As6 Ir7'
_cell_volume   267.95907731
_cell_formula_units_Z   1
loop_
 _symmetry_equiv_pos_site_id
 _symmetry_equiv_pos_as_xyz
  1  'x, y, z'
loop_
 _atom_site_type_symbol
 _atom_site_label
 _atom_site_symmetry_multiplicity
 _atom_site_fract_x
 _atom_site_fract_y
 _atom_site_fract_z
 _atom_site_occupancy
  Mg  Mg0  1  0.50000000  0.50000000  0.50000000  1
  Mg  Mg1  1  0.50000000  -0.00000000  0.00000000  1
  Mg  Mg2  1  0.00000000  0.50000000  0.00000000  1
  Mg  Mg3  1  0.00000000  -0.00000000  0.50000000  1
  As  As0  1  0.31418514  0.31418514  -0.00000000  1
  As  As1  1  0.68581486  0.68581486  0.00000000  1
  As  As2  1  0.68581486  0.00000000  0.68581486  1
  As  As3  1  0.31418514  -0.00000000  0.31418514  1
  As  As4  1  0.00000000  0.68581486  0.68581486  1
  As  As5  1  -0.00000000  0.31418514  0.31418514  1
  Ir  Ir0  1  0.00000000  -0.00000000  0.00000000  1
  Ir  Ir1  1  0.50000000  0.25000000  0.75000000  1
  Ir  Ir2  1  0.75000000  0.25000000  0.50000000  1
  Ir  Ir3  1  0.25000000  0.50000000  0.75000000  1
  Ir  Ir4  1  0.75000000  0.50000000  0.25000000  1
  Ir  Ir5  1  0.50000000  0.75000000  0.25000000  1
  Ir  Ir6  1  0.25000000  0.75000000  0.50000000  1
loop_
_geom_bond_atom_site_label_1
_geom_bond_atom_site_label_2
_geom_bond_distance
_geom_bond_site_symmetry_2
As0 Ir4 2.530149 1_555
As0 Ir5 2.530149 1_555
As0 Ir1 2.530149 1_554
As0 Ir3 2.530149 1_554
As0 Ir0 2.552026 1_555
As0 Mg3 2.918742 1_554
As0 Mg0 2.918742 1_555
As0 Mg2 2.918743 1_555
As0 Mg1 2.918743 1_555
As1 Ir3 2.530149 1_554
As1 Ir1 2.530149 1_554
As1 Ir5 2.530149 1_555
As1 Ir4 2.530149 1_555
As1 Ir0 2.552026 1_665
As1 Mg3 2.918742 1_665
As1 Mg0 2.918742 1_554
As1 Mg2 2.918743 1_655
As1 Mg1 2.918743 1_565
As2 Ir5 2.530149 1_545
As2 Ir6 2.530149 1_545
As2 Ir1 2.530149 1_555
As2 Ir2 2.530150 1_555
As2 Ir0 2.552026 1_656
As2 Mg2 2.918743 1_656
As2 Mg1 2.918743 1_556
As2 Mg3 2.918743 1_655
As2 Mg0 2.918743 1_545
As3 Ir1 2.530149 1_555
As3 Ir2 2.530149 1_555
As3 Ir5 2.530149 1_545
As3 Ir6 2.530150 1_545
As3 Ir0 2.552026 1_555
As3 Mg2 2.918743 1_545
As3 Mg1 2.918743 1_555
As3 Mg3 2.918743 1_555
As3 Mg0 2.918743 1_555
As4 Ir4 2.530149 1_455
As4 Ir3 2.530149 1_555
As4 Ir2 2.530149 1_455
As4 Ir6 2.530149 1_555
As4 Ir0 2.552026 1_566
As4 Mg1 2.918742 1_566
As4 Mg0 2.918743 1_455
As4 Mg2 2.918743 1_556
As4 Mg3 2.918743 1_565
As5 Ir3 2.530149 1_555
As5 Ir4 2.530149 1_455
As5 Ir6 2.530149 1_555
As5 Ir2 2.530149 1_455
As5 Ir0 2.552026 1_555
As5 Mg1 2.918742 1_455
As5 Mg0 2.918743 1_555
As5 Mg2 2.918743 1_555
As5 Mg3 2.918743 1_555
Ir1 Mg3 2.871802 1_555
Ir1 Mg2 2.871802 1_656
Ir1 Mg0 2.871802 1_555
Ir1 Mg1 2.871802 1_556
Ir2 Mg1 2.871802 1_555
Ir2 Mg2 2.871802 1_656
Ir2 Mg0 2.871802 1_555
Ir2 Mg3 2.871802 1_655
Ir3 Mg1 2.871802 1_566
Ir3 Mg3 2.871802 1_555
Ir3 Mg0 2.871802 1_555
Ir3 Mg2 2.871802 1_556
Ir4 Mg3 2.871802 1_665
Ir4 Mg1 2.871802 1_555
Ir4 Mg0 2.871802 1_555
Ir4 Mg2 2.871802 1_655
Ir5 Mg3 2.871802 1_665
Ir5 Mg2 2.871802 1_555
Ir5 Mg1 2.871802 1_565
Ir5 Mg0 2.871802 1_555
Ir6 Mg1 2.871802 1_566
Ir6 Mg2 2.871802 1_555
Ir6 Mg3 2.871802 1_565
Ir6 Mg0 2.871802 1_555
