# generated using pymatgen
data_V4Te3N2
_symmetry_space_group_name_H-M   'P 1'
_cell_length_a   6.52613700
_cell_length_b   10.75463600
_cell_length_c   9.31177700
_cell_angle_alpha   90.00000000
_cell_angle_beta   90.00000000
_cell_angle_gamma   90.00000000
_symmetry_Int_Tables_number   1
_chemical_formula_structural   V4Te3N2
_chemical_formula_sum   'V16 Te12 N8'
_cell_volume   653.55850287
_cell_formula_units_Z   4
loop_
 _symmetry_equiv_pos_site_id
 _symmetry_equiv_pos_as_xyz
  1  'x, y, z'
loop_
 _atom_site_type_symbol
 _atom_site_label
 _atom_site_symmetry_multiplicity
 _atom_site_fract_x
 _atom_site_fract_y
 _atom_site_fract_z
 _atom_site_occupancy
  V  V0  1  0.60736000  0.25000000  0.91356400  1
  V  V1  1  0.10736000  0.25000000  0.58643600  1
  V  V2  1  0.39264000  0.75000000  0.08643600  1
  V  V3  1  0.89264000  0.75000000  0.41356400  1
  V  V4  1  0.75277100  0.25000000  0.43673800  1
  V  V5  1  0.25277100  0.25000000  0.06326200  1
  V  V6  1  0.24722900  0.75000000  0.56326200  1
  V  V7  1  0.74722900  0.75000000  0.93673800  1
  V  V8  1  0.67929700  0.47473300  0.05125900  1
  V  V9  1  0.17929700  0.02526700  0.44874100  1
  V  V10  1  0.32070300  0.97473300  0.94874100  1
  V  V11  1  0.82070300  0.52526700  0.55125900  1
  V  V12  1  0.32070300  0.52526700  0.94874100  1
  V  V13  1  0.82070300  0.97473300  0.55125900  1
  V  V14  1  0.67929700  0.02526700  0.05125900  1
  V  V15  1  0.17929700  0.47473300  0.44874100  1
  Te  Te0  1  0.85247500  0.25000000  0.15797800  1
  Te  Te1  1  0.35247500  0.25000000  0.34202200  1
  Te  Te2  1  0.14752500  0.75000000  0.84202200  1
  Te  Te3  1  0.64752500  0.75000000  0.65797800  1
  Te  Te4  1  0.55582500  0.57529100  0.32498700  1
  Te  Te5  1  0.05582500  0.92470900  0.17501300  1
  Te  Te6  1  0.44417500  0.07529100  0.67501300  1
  Te  Te7  1  0.94417500  0.42470900  0.82498700  1
  Te  Te8  1  0.44417500  0.42470900  0.67501300  1
  Te  Te9  1  0.94417500  0.07529100  0.82498700  1
  Te  Te10  1  0.55582500  0.92470900  0.32498700  1
  Te  Te11  1  0.05582500  0.57529100  0.17501300  1
  N  N0  1  0.56319300  0.62488300  0.97448000  1
  N  N1  1  0.06319300  0.87511700  0.52552000  1
  N  N2  1  0.43680700  0.12488300  0.02552000  1
  N  N3  1  0.93680700  0.37511700  0.47448000  1
  N  N4  1  0.43680700  0.37511700  0.02552000  1
  N  N5  1  0.93680700  0.12488300  0.47448000  1
  N  N6  1  0.56319300  0.87511700  0.97448000  1
  N  N7  1  0.06319300  0.62488300  0.52552000  1
loop_
_geom_bond_atom_site_label_1
_geom_bond_atom_site_label_2
_geom_bond_distance
_geom_bond_site_symmetry_2
Te0 V4 2.676062 1_555
Te0 V5 2.757253 1_655
Te0 V0 2.781860 1_554
Te0 V14 2.847165 1_555
Te0 V8 2.847165 1_555
Te1 V5 2.676062 1_555
Te1 V4 2.757253 1_555
Te1 V1 2.781860 1_555
Te1 V9 2.847165 1_555
Te1 V15 2.847165 1_555
Te2 V6 2.676062 1_555
Te2 V7 2.757253 1_455
Te2 V2 2.781860 1_556
Te2 V10 2.847165 1_555
Te2 V12 2.847165 1_555
Te3 V7 2.676062 1_555
Te3 V6 2.757253 1_555
Te3 V3 2.781860 1_555
Te3 V11 2.847165 1_555
Te3 V13 2.847165 1_555
Te4 V11 2.777953 1_555
Te4 V8 2.883701 1_555
Te4 V15 2.921594 1_555
Te4 V3 3.007049 1_555
Te4 V2 3.098203 1_555
Te5 V10 2.777953 1_554
Te5 V9 2.883701 1_565
Te5 V14 2.921594 1_465
Te5 V2 3.007049 1_555
Te5 V3 3.098203 1_455
Te6 V9 2.777953 1_555
Te6 V10 2.883701 1_545
Te6 V13 2.921594 1_545
Te6 V1 3.007049 1_555
Te6 V0 3.098203 1_555
Te7 V8 2.777953 1_556
Te7 V11 2.883701 1_555
Te7 V12 2.921594 1_655
Te7 V0 3.007049 1_555
Te7 V1 3.098203 1_655
Te8 V15 2.777953 1_555
Te8 V12 2.883701 1_555
Te8 V11 2.921594 1_555
Te8 V1 3.007049 1_555
Te8 V0 3.098203 1_555
Te9 V14 2.777953 1_556
Te9 V13 2.883701 1_545
Te9 V10 2.921594 1_645
Te9 V0 3.007049 1_555
Te9 V1 3.098203 1_655
Te10 V13 2.777953 1_555
Te10 V14 2.883701 1_565
Te10 V9 2.921594 1_565
Te10 V3 3.007049 1_555
Te10 V2 3.098203 1_555
Te11 V12 2.777953 1_554
Te11 V15 2.883701 1_555
Te11 V8 2.921594 1_455
Te11 V2 3.007049 1_555
Te11 V3 3.098203 1_455
N0 V7 1.837560 1_555
N0 V8 1.921688 1_556
N0 V12 1.926027 1_555
N0 V2 2.033794 1_556
N1 V6 1.837560 1_555
N1 V9 1.921688 1_565
N1 V13 1.926027 1_455
N1 V3 2.033794 1_455
N2 V5 1.837560 1_555
N2 V10 1.921688 1_544
N2 V14 1.926027 1_555
N2 V0 2.033794 1_554
N3 V4 1.837560 1_555
N3 V11 1.921688 1_555
N3 V15 1.926027 1_655
N3 V1 2.033794 1_655
N4 V5 1.837560 1_555
N4 V12 1.921688 1_554
N4 V8 1.926027 1_555
N4 V0 2.033794 1_554
N5 V4 1.837560 1_555
N5 V13 1.921688 1_545
N5 V9 1.926027 1_655
N5 V1 2.033794 1_655
N6 V7 1.837560 1_555
N6 V14 1.921688 1_566
N6 V10 1.926027 1_555
N6 V2 2.033794 1_556
N7 V6 1.837560 1_555
N7 V15 1.921688 1_555
N7 V11 1.926027 1_455
N7 V3 2.033794 1_455
