# generated using pymatgen
data_Na2GeN2
_symmetry_space_group_name_H-M   'P 1'
_cell_length_a   11.25750600
_cell_length_b   11.32068700
_cell_length_c   16.68070700
_cell_angle_alpha   90.00000000
_cell_angle_beta   90.00000000
_cell_angle_gamma   90.00000000
_symmetry_Int_Tables_number   1
_chemical_formula_structural   Na2GeN2
_chemical_formula_sum   'Na64 Ge32 N64'
_cell_volume   2125.83436846
_cell_formula_units_Z   32
loop_
 _symmetry_equiv_pos_site_id
 _symmetry_equiv_pos_as_xyz
  1  'x, y, z'
loop_
 _atom_site_type_symbol
 _atom_site_label
 _atom_site_symmetry_multiplicity
 _atom_site_fract_x
 _atom_site_fract_y
 _atom_site_fract_z
 _atom_site_occupancy
  Na  Na0  1  0.90123200  0.85019100  0.87881800  1
  Na  Na1  1  0.40123200  0.64980900  0.12118200  1
  Na  Na2  1  0.09876800  0.35019100  0.62118200  1
  Na  Na3  1  0.59876800  0.14980900  0.37881800  1
  Na  Na4  1  0.09876800  0.14980900  0.12118200  1
  Na  Na5  1  0.59876800  0.35019100  0.87881800  1
  Na  Na6  1  0.90123200  0.64980900  0.37881800  1
  Na  Na7  1  0.40123200  0.85019100  0.62118200  1
  Na  Na8  1  0.10272100  0.04556000  0.98011100  1
  Na  Na9  1  0.60272100  0.45444000  0.01988900  1
  Na  Na10  1  0.89727900  0.54556000  0.51988900  1
  Na  Na11  1  0.39727900  0.95444000  0.48011100  1
  Na  Na12  1  0.89727900  0.95444000  0.01988900  1
  Na  Na13  1  0.39727900  0.54556000  0.98011100  1
  Na  Na14  1  0.10272100  0.45444000  0.48011100  1
  Na  Na15  1  0.60272100  0.04556000  0.51988900  1
  Na  Na16  1  0.31783800  0.83110900  0.76507500  1
  Na  Na17  1  0.81783800  0.66889100  0.23492500  1
  Na  Na18  1  0.68216200  0.33110900  0.73492500  1
  Na  Na19  1  0.18216200  0.16889100  0.26507500  1
  Na  Na20  1  0.68216200  0.16889100  0.23492500  1
  Na  Na21  1  0.18216200  0.33110900  0.76507500  1
  Na  Na22  1  0.31783800  0.66889100  0.26507500  1
  Na  Na23  1  0.81783800  0.83110900  0.73492500  1
  Na  Na24  1  0.63011200  0.93020800  0.97056400  1
  Na  Na25  1  0.13011200  0.56979200  0.02943600  1
  Na  Na26  1  0.36988800  0.43020800  0.52943600  1
  Na  Na27  1  0.86988800  0.06979200  0.47056400  1
  Na  Na28  1  0.36988800  0.06979200  0.02943600  1
  Na  Na29  1  0.86988800  0.43020800  0.97056400  1
  Na  Na30  1  0.63011200  0.56979200  0.47056400  1
  Na  Na31  1  0.13011200  0.93020800  0.52943600  1
  Na  Na32  1  0.36138800  0.28657600  0.87801600  1
  Na  Na33  1  0.86138800  0.21342400  0.12198400  1
  Na  Na34  1  0.63861200  0.78657600  0.62198400  1
  Na  Na35  1  0.13861200  0.71342400  0.37801600  1
  Na  Na36  1  0.63861200  0.71342400  0.12198400  1
  Na  Na37  1  0.13861200  0.78657600  0.87801600  1
  Na  Na38  1  0.36138800  0.21342400  0.37801600  1
  Na  Na39  1  0.86138800  0.28657600  0.62198400  1
  Na  Na40  1  0.29579300  0.10837200  0.72010700  1
  Na  Na41  1  0.79579300  0.39162800  0.27989300  1
  Na  Na42  1  0.70420700  0.60837200  0.77989300  1
  Na  Na43  1  0.20420700  0.89162800  0.22010700  1
  Na  Na44  1  0.70420700  0.89162800  0.27989300  1
  Na  Na45  1  0.20420700  0.60837200  0.72010700  1
  Na  Na46  1  0.29579300  0.39162800  0.22010700  1
  Na  Na47  1  0.79579300  0.10837200  0.77989300  1
  Na  Na48  1  0.28141600  0.01394400  0.87343000  1
  Na  Na49  1  0.78141600  0.48605600  0.12657000  1
  Na  Na50  1  0.71858400  0.51394400  0.62657000  1
  Na  Na51  1  0.21858400  0.98605600  0.37343000  1
  Na  Na52  1  0.71858400  0.98605600  0.12657000  1
  Na  Na53  1  0.21858400  0.51394400  0.87343000  1
  Na  Na54  1  0.28141600  0.48605600  0.37343000  1
  Na  Na55  1  0.78141600  0.01394400  0.62657000  1
  Na  Na56  1  0.94309200  0.60936800  0.87172500  1
  Na  Na57  1  0.44309200  0.89063200  0.12827500  1
  Na  Na58  1  0.05690800  0.10936800  0.62827500  1
  Na  Na59  1  0.55690800  0.39063200  0.37172500  1
  Na  Na60  1  0.05690800  0.39063200  0.12827500  1
  Na  Na61  1  0.55690800  0.10936800  0.87172500  1
  Na  Na62  1  0.94309200  0.89063200  0.37172500  1
  Na  Na63  1  0.44309200  0.60936800  0.62827500  1
  Ge  Ge0  1  0.85762000  0.18153500  0.94004700  1
  Ge  Ge1  1  0.35762000  0.31846500  0.05995300  1
  Ge  Ge2  1  0.14238000  0.68153500  0.55995300  1
  Ge  Ge3  1  0.64238000  0.81846500  0.44004700  1
  Ge  Ge4  1  0.14238000  0.81846500  0.05995300  1
  Ge  Ge5  1  0.64238000  0.68153500  0.94004700  1
  Ge  Ge6  1  0.85762000  0.31846500  0.44004700  1
  Ge  Ge7  1  0.35762000  0.18153500  0.55995300  1
  Ge  Ge8  1  0.10749300  0.30315800  0.94157300  1
  Ge  Ge9  1  0.60749300  0.19684200  0.05842700  1
  Ge  Ge10  1  0.89250700  0.80315800  0.55842700  1
  Ge  Ge11  1  0.39250700  0.69684200  0.44157300  1
  Ge  Ge12  1  0.89250700  0.69684200  0.05842700  1
  Ge  Ge13  1  0.39250700  0.80315800  0.94157300  1
  Ge  Ge14  1  0.10749300  0.19684200  0.44157300  1
  Ge  Ge15  1  0.60749300  0.30315800  0.55842700  1
  Ge  Ge16  1  0.92808700  0.35505200  0.80219400  1
  Ge  Ge17  1  0.42808700  0.14494800  0.19780600  1
  Ge  Ge18  1  0.07191300  0.85505200  0.69780600  1
  Ge  Ge19  1  0.57191300  0.64494800  0.30219400  1
  Ge  Ge20  1  0.07191300  0.64494800  0.19780600  1
  Ge  Ge21  1  0.57191300  0.85505200  0.80219400  1
  Ge  Ge22  1  0.92808700  0.14494800  0.30219400  1
  Ge  Ge23  1  0.42808700  0.35505200  0.69780600  1
  Ge  Ge24  1  0.05034300  0.10611900  0.81442100  1
  Ge  Ge25  1  0.55034300  0.39388100  0.18557900  1
  Ge  Ge26  1  0.94965700  0.60611900  0.68557900  1
  Ge  Ge27  1  0.44965700  0.89388100  0.31442100  1
  Ge  Ge28  1  0.94965700  0.89388100  0.18557900  1
  Ge  Ge29  1  0.44965700  0.60611900  0.81442100  1
  Ge  Ge30  1  0.05034300  0.39388100  0.31442100  1
  Ge  Ge31  1  0.55034300  0.10611900  0.68557900  1
  N  N0  1  0.93065100  0.05251300  0.88586800  1
  N  N1  1  0.43065100  0.44748700  0.11413200  1
  N  N2  1  0.06934900  0.55251300  0.61413200  1
  N  N3  1  0.56934900  0.94748700  0.38586800  1
  N  N4  1  0.06934900  0.94748700  0.11413200  1
  N  N5  1  0.56934900  0.55251300  0.88586800  1
  N  N6  1  0.93065100  0.44748700  0.38586800  1
  N  N7  1  0.43065100  0.05251300  0.61413200  1
  N  N8  1  0.73378200  0.11595400  0.00437000  1
  N  N9  1  0.23378200  0.38404600  0.99563000  1
  N  N10  1  0.26621800  0.61595400  0.49563000  1
  N  N11  1  0.76621800  0.88404600  0.50437000  1
  N  N12  1  0.26621800  0.88404600  0.99563000  1
  N  N13  1  0.76621800  0.61595400  0.00437000  1
  N  N14  1  0.73378200  0.38404600  0.50437000  1
  N  N15  1  0.23378200  0.11595400  0.49563000  1
  N  N16  1  0.04165000  0.42104100  0.87261100  1
  N  N17  1  0.54165000  0.07895900  0.12738900  1
  N  N18  1  0.95835000  0.92104100  0.62738900  1
  N  N19  1  0.45835000  0.57895900  0.37261100  1
  N  N20  1  0.95835000  0.57895900  0.12738900  1
  N  N21  1  0.45835000  0.92104100  0.87261100  1
  N  N22  1  0.04165000  0.07895900  0.37261100  1
  N  N23  1  0.54165000  0.42104100  0.62738900  1
  N  N24  1  0.13395800  0.97519800  0.76648600  1
  N  N25  1  0.63395800  0.52480200  0.23351400  1
  N  N26  1  0.86604200  0.47519800  0.73351400  1
  N  N27  1  0.36604200  0.02480200  0.26648600  1
  N  N28  1  0.86604200  0.02480200  0.23351400  1
  N  N29  1  0.36604200  0.47519800  0.76648600  1
  N  N30  1  0.13395800  0.52480200  0.26648600  1
  N  N31  1  0.63395800  0.97519800  0.73351400  1
  N  N32  1  0.17339100  0.18239300  0.87560700  1
  N  N33  1  0.67339100  0.31760700  0.12439300  1
  N  N34  1  0.82660900  0.68239300  0.62439300  1
  N  N35  1  0.32660900  0.81760700  0.37560700  1
  N  N36  1  0.82660900  0.81760700  0.12439300  1
  N  N37  1  0.32660900  0.68239300  0.87560700  1
  N  N38  1  0.17339100  0.31760700  0.37560700  1
  N  N39  1  0.67339100  0.18239300  0.62439300  1
  N  N40  1  0.79896400  0.29281300  0.86404400  1
  N  N41  1  0.29896400  0.20718700  0.13595600  1
  N  N42  1  0.20103600  0.79281300  0.63595600  1
  N  N43  1  0.70103600  0.70718700  0.36404400  1
  N  N44  1  0.20103600  0.70718700  0.13595600  1
  N  N45  1  0.70103600  0.79281300  0.86404400  1
  N  N46  1  0.79896400  0.20718700  0.36404400  1
  N  N47  1  0.29896400  0.29281300  0.63595600  1
  N  N48  1  0.99161600  0.22464800  0.73977000  1
  N  N49  1  0.49161600  0.27535200  0.26023000  1
  N  N50  1  0.00838400  0.72464800  0.76023000  1
  N  N51  1  0.50838400  0.77535200  0.23977000  1
  N  N52  1  0.00838400  0.77535200  0.26023000  1
  N  N53  1  0.50838400  0.72464800  0.73977000  1
  N  N54  1  0.99161600  0.27535200  0.23977000  1
  N  N55  1  0.49161600  0.22464800  0.76023000  1
  N  N56  1  0.98295100  0.24712300  0.00931900  1
  N  N57  1  0.48295100  0.25287700  0.99068100  1
  N  N58  1  0.01704900  0.74712300  0.49068100  1
  N  N59  1  0.51704900  0.75287700  0.50931900  1
  N  N60  1  0.01704900  0.75287700  0.99068100  1
  N  N61  1  0.51704900  0.74712300  0.00931900  1
  N  N62  1  0.98295100  0.25287700  0.50931900  1
  N  N63  1  0.48295100  0.24712300  0.49068100  1
loop_
_geom_bond_atom_site_label_1
_geom_bond_atom_site_label_2
_geom_bond_distance
_geom_bond_site_symmetry_2
Ge0 N0 1.904228 1_555
Ge0 N40 1.905322 1_555
Ge0 N8 1.909438 1_556
Ge0 N56 1.969056 1_556
Ge1 N1 1.904228 1_555
Ge1 N41 1.905322 1_555
Ge1 N9 1.909438 1_554
Ge1 N57 1.969056 1_554
Ge2 N2 1.904228 1_555
Ge2 N42 1.905322 1_555
Ge2 N10 1.909438 1_555
Ge2 N58 1.969056 1_555
Ge3 N3 1.904228 1_555
Ge3 N43 1.905322 1_555
Ge3 N11 1.909438 1_555
Ge3 N59 1.969056 1_555
Ge4 N4 1.904228 1_555
Ge4 N44 1.905322 1_555
Ge4 N12 1.909438 1_554
Ge4 N60 1.969056 1_554
Ge5 N5 1.904228 1_555
Ge5 N45 1.905322 1_555
Ge5 N13 1.909438 1_556
Ge5 N61 1.969056 1_556
Ge6 N6 1.904228 1_555
Ge6 N46 1.905322 1_555
Ge6 N14 1.909438 1_555
Ge6 N62 1.969056 1_555
Ge7 N7 1.904228 1_555
Ge7 N47 1.905322 1_555
Ge7 N15 1.909438 1_555
Ge7 N63 1.969056 1_555
Ge8 N32 1.905310 1_555
Ge8 N56 1.909219 1_456
Ge8 N16 1.911445 1_555
Ge8 N9 1.916462 1_555
Ge9 N33 1.905310 1_555
Ge9 N57 1.909219 1_554
Ge9 N17 1.911445 1_555
Ge9 N8 1.916462 1_555
Ge10 N34 1.905310 1_555
Ge10 N58 1.909219 1_655
Ge10 N18 1.911445 1_555
Ge10 N11 1.916462 1_555
Ge11 N35 1.905310 1_555
Ge11 N59 1.909219 1_555
Ge11 N19 1.911445 1_555
Ge11 N10 1.916462 1_555
Ge12 N36 1.905310 1_555
Ge12 N60 1.909219 1_654
Ge12 N20 1.911445 1_555
Ge12 N13 1.916462 1_555
Ge13 N37 1.905310 1_555
Ge13 N61 1.909219 1_556
Ge13 N21 1.911445 1_555
Ge13 N12 1.916462 1_555
Ge14 N38 1.905310 1_555
Ge14 N62 1.909219 1_455
Ge14 N22 1.911445 1_555
Ge14 N15 1.916462 1_555
Ge15 N39 1.905310 1_555
Ge15 N63 1.909219 1_555
Ge15 N23 1.911445 1_555
Ge15 N14 1.916462 1_555
Ge16 N16 1.890018 1_655
Ge16 N26 1.910576 1_555
Ge16 N40 1.916720 1_555
Ge16 N48 1.942959 1_555
Ge17 N17 1.890018 1_555
Ge17 N27 1.910576 1_555
Ge17 N41 1.916720 1_555
Ge17 N49 1.942959 1_555
Ge18 N18 1.890018 1_455
Ge18 N24 1.910576 1_555
Ge18 N42 1.916720 1_555
Ge18 N50 1.942959 1_555
Ge19 N19 1.890018 1_555
Ge19 N25 1.910576 1_555
Ge19 N43 1.916720 1_555
Ge19 N51 1.942959 1_555
Ge20 N20 1.890018 1_455
Ge20 N30 1.910576 1_555
Ge20 N44 1.916720 1_555
Ge20 N52 1.942959 1_555
Ge21 N21 1.890018 1_555
Ge21 N31 1.910576 1_555
Ge21 N45 1.916720 1_555
Ge21 N53 1.942959 1_555
Ge22 N22 1.890018 1_655
Ge22 N28 1.910576 1_555
Ge22 N46 1.916720 1_555
Ge22 N54 1.942959 1_555
Ge23 N23 1.890018 1_555
Ge23 N29 1.910576 1_555
Ge23 N47 1.916720 1_555
Ge23 N55 1.942959 1_555
Ge24 N0 1.898475 1_455
Ge24 N32 1.925118 1_555
Ge24 N24 1.929261 1_545
Ge24 N48 1.946327 1_455
Ge25 N1 1.898475 1_555
Ge25 N33 1.925118 1_555
Ge25 N25 1.929261 1_555
Ge25 N49 1.946327 1_555
Ge26 N2 1.898475 1_655
Ge26 N34 1.925118 1_555
Ge26 N26 1.929261 1_555
Ge26 N50 1.946327 1_655
Ge27 N3 1.898475 1_555
Ge27 N35 1.925118 1_555
Ge27 N27 1.929261 1_565
Ge27 N51 1.946327 1_555
Ge28 N4 1.898475 1_655
Ge28 N36 1.925118 1_555
Ge28 N28 1.929261 1_565
Ge28 N52 1.946327 1_655
Ge29 N5 1.898475 1_555
Ge29 N37 1.925118 1_555
Ge29 N29 1.929261 1_555
Ge29 N53 1.946327 1_555
Ge30 N6 1.898475 1_455
Ge30 N38 1.925118 1_555
Ge30 N30 1.929261 1_555
Ge30 N54 1.946327 1_455
Ge31 N7 1.898475 1_555
Ge31 N39 1.925118 1_555
Ge31 N31 1.929261 1_545
Ge31 N55 1.946327 1_555
N0 Na0 2.317230 1_545
N0 Na47 2.414457 1_555
N0 Na8 2.495953 1_655
N0 Na12 2.524194 1_546
N1 Na1 2.317230 1_555
N1 Na46 2.414457 1_555
N1 Na9 2.495953 1_555
N1 Na13 2.524194 1_554
N2 Na2 2.317230 1_555
N2 Na45 2.414457 1_555
N2 Na10 2.495953 1_455
N2 Na14 2.524194 1_555
N3 Na3 2.317230 1_565
N3 Na44 2.414457 1_555
N3 Na11 2.495953 1_555
N3 Na15 2.524194 1_565
N4 Na4 2.317230 1_565
N4 Na43 2.414457 1_555
N4 Na12 2.495953 1_455
N4 Na8 2.524194 1_564
N5 Na5 2.317230 1_555
N5 Na42 2.414457 1_555
N5 Na13 2.495953 1_555
N5 Na9 2.524194 1_556
N6 Na6 2.317230 1_555
N6 Na41 2.414457 1_555
N6 Na14 2.495953 1_655
N6 Na10 2.524194 1_555
N7 Na7 2.317230 1_545
N7 Na40 2.414457 1_555
N7 Na15 2.495953 1_555
N7 Na11 2.524194 1_545
N8 Na24 2.470159 1_544
N8 Na52 2.519275 1_545
N8 Na12 2.607284 1_545
N8 Na33 2.670234 1_555
N8 Na61 2.977571 1_554
N9 Na25 2.470159 1_556
N9 Na53 2.519275 1_555
N9 Na13 2.607284 1_555
N9 Na32 2.670234 1_555
N9 Na60 2.977571 1_556
N10 Na26 2.470159 1_555
N10 Na54 2.519275 1_555
N10 Na14 2.607284 1_555
N10 Na35 2.670234 1_555
N10 Na63 2.977571 1_555
N11 Na27 2.470159 1_565
N11 Na55 2.519275 1_565
N11 Na15 2.607284 1_565
N11 Na34 2.670234 1_555
N11 Na62 2.977571 1_555
N12 Na28 2.470159 1_566
N12 Na48 2.519275 1_565
N12 Na8 2.607284 1_565
N12 Na37 2.670234 1_555
N12 Na57 2.977571 1_556
N13 Na29 2.470159 1_554
N13 Na49 2.519275 1_555
N13 Na9 2.607284 1_555
N13 Na36 2.670234 1_555
N13 Na56 2.977571 1_554
N14 Na30 2.470159 1_555
N14 Na50 2.519275 1_555
N14 Na10 2.607284 1_555
N14 Na39 2.670234 1_555
N14 Na59 2.977571 1_555
N15 Na31 2.470159 1_545
N15 Na51 2.519275 1_545
N15 Na11 2.607284 1_545
N15 Na38 2.670234 1_555
N15 Na58 2.977571 1_555
N16 Na53 2.252493 1_555
N16 Na56 2.403463 1_455
N16 Na29 2.533641 1_455
N16 Na21 2.599285 1_555
N17 Na52 2.252493 1_545
N17 Na57 2.403463 1_545
N17 Na28 2.533641 1_555
N17 Na20 2.599285 1_555
N18 Na55 2.252493 1_565
N18 Na58 2.403463 1_665
N18 Na31 2.533641 1_655
N18 Na23 2.599285 1_555
N19 Na54 2.252493 1_555
N19 Na59 2.403463 1_555
N19 Na30 2.533641 1_555
N19 Na22 2.599285 1_555
N20 Na49 2.252493 1_555
N20 Na60 2.403463 1_655
N20 Na25 2.533641 1_655
N20 Na17 2.599285 1_555
N21 Na48 2.252493 1_565
N21 Na61 2.403463 1_565
N21 Na24 2.533641 1_555
N21 Na16 2.599285 1_555
N22 Na51 2.252493 1_545
N22 Na62 2.403463 1_445
N22 Na27 2.533641 1_455
N22 Na19 2.599285 1_555
N23 Na50 2.252493 1_555
N23 Na63 2.403463 1_555
N23 Na26 2.533641 1_555
N23 Na18 2.599285 1_555
N24 Na48 2.475951 1_565
N24 Na40 2.488092 1_565
N24 Na16 2.635593 1_555
N24 Na37 2.832573 1_555
N24 Na58 2.893881 1_565
N25 Na49 2.475951 1_555
N25 Na41 2.488092 1_555
N25 Na17 2.635593 1_555
N25 Na36 2.832573 1_555
N25 Na59 2.893881 1_555
N26 Na50 2.475951 1_555
N26 Na42 2.488092 1_555
N26 Na18 2.635593 1_555
N26 Na39 2.832573 1_555
N26 Na56 2.893881 1_555
N27 Na51 2.475951 1_545
N27 Na43 2.488092 1_545
N27 Na19 2.635593 1_555
N27 Na38 2.832573 1_555
N27 Na57 2.893881 1_545
N28 Na52 2.475951 1_545
N28 Na44 2.488092 1_545
N28 Na20 2.635593 1_555
N28 Na33 2.832573 1_555
N28 Na62 2.893881 1_545
N29 Na53 2.475951 1_555
N29 Na45 2.488092 1_555
N29 Na21 2.635593 1_555
N29 Na32 2.832573 1_555
N29 Na63 2.893881 1_555
N30 Na54 2.475951 1_555
N30 Na46 2.488092 1_555
N30 Na22 2.635593 1_555
N30 Na35 2.832573 1_555
N30 Na60 2.893881 1_555
N31 Na55 2.475951 1_565
N31 Na47 2.488092 1_565
N31 Na23 2.635593 1_555
N31 Na34 2.832573 1_555
N31 Na61 2.893881 1_565
N32 Na48 2.262010 1_555
N32 Na32 2.423160 1_555
N32 Na8 2.463983 1_555
N32 Na21 2.498714 1_555
N33 Na49 2.262010 1_555
N33 Na33 2.423160 1_555
N33 Na9 2.463983 1_555
N33 Na20 2.498714 1_555
N34 Na50 2.262010 1_555
N34 Na34 2.423160 1_555
N34 Na10 2.463983 1_555
N34 Na23 2.498714 1_555
N35 Na51 2.262010 1_555
N35 Na35 2.423160 1_555
N35 Na11 2.463983 1_555
N35 Na22 2.498714 1_555
N36 Na52 2.262010 1_555
N36 Na36 2.423160 1_555
N36 Na12 2.463983 1_555
N36 Na17 2.498714 1_555
N37 Na53 2.262010 1_555
N37 Na37 2.423160 1_555
N37 Na13 2.463983 1_555
N37 Na16 2.498714 1_555
N38 Na54 2.262010 1_555
N38 Na38 2.423160 1_555
N38 Na14 2.463983 1_555
N38 Na19 2.498714 1_555
N39 Na55 2.262010 1_555
N39 Na39 2.423160 1_555
N39 Na15 2.463983 1_555
N39 Na18 2.498714 1_555
N40 Na5 2.358359 1_555
N40 Na29 2.492768 1_555
N40 Na47 2.516224 1_555
N40 Na18 2.560420 1_555
N41 Na4 2.358359 1_555
N41 Na28 2.492768 1_555
N41 Na46 2.516224 1_555
N41 Na19 2.560420 1_555
N42 Na7 2.358359 1_555
N42 Na31 2.492768 1_555
N42 Na45 2.516224 1_555
N42 Na16 2.560420 1_555
N43 Na6 2.358359 1_555
N43 Na30 2.492768 1_555
N43 Na44 2.516224 1_555
N43 Na17 2.560420 1_555
N44 Na1 2.358359 1_555
N44 Na25 2.492768 1_555
N44 Na43 2.516224 1_555
N44 Na22 2.560420 1_555
N45 Na0 2.358359 1_555
N45 Na24 2.492768 1_555
N45 Na42 2.516224 1_555
N45 Na23 2.560420 1_555
N46 Na3 2.358359 1_555
N46 Na27 2.492768 1_555
N46 Na41 2.516224 1_555
N46 Na20 2.560420 1_555
N47 Na2 2.358359 1_555
N47 Na26 2.492768 1_555
N47 Na40 2.516224 1_555
N47 Na21 2.560420 1_555
N48 Na58 2.387955 1_655
N48 Na21 2.496406 1_655
N48 Na39 2.549712 1_555
N48 Na47 2.653370 1_555
N48 Na2 2.718084 1_655
N49 Na59 2.387955 1_555
N49 Na20 2.496406 1_555
N49 Na38 2.549712 1_555
N49 Na46 2.653370 1_555
N49 Na3 2.718084 1_555
N50 Na56 2.387955 1_455
N50 Na23 2.496406 1_455
N50 Na37 2.549712 1_555
N50 Na45 2.653370 1_555
N50 Na0 2.718084 1_455
N51 Na57 2.387955 1_555
N51 Na22 2.496406 1_555
N51 Na36 2.549712 1_555
N51 Na44 2.653370 1_555
N51 Na1 2.718084 1_555
N52 Na62 2.387955 1_455
N52 Na17 2.496406 1_455
N52 Na35 2.549712 1_555
N52 Na43 2.653370 1_555
N52 Na6 2.718084 1_455
N53 Na63 2.387955 1_555
N53 Na16 2.496406 1_555
N53 Na34 2.549712 1_555
N53 Na42 2.653370 1_555
N53 Na7 2.718084 1_555
N54 Na60 2.387955 1_655
N54 Na19 2.496406 1_655
N54 Na33 2.549712 1_555
N54 Na41 2.653370 1_555
N54 Na4 2.718084 1_655
N55 Na61 2.387955 1_555
N55 Na18 2.496406 1_555
N55 Na32 2.549712 1_555
N55 Na40 2.653370 1_555
N55 Na5 2.718084 1_555
N56 Na33 2.355888 1_555
N56 Na29 2.516708 1_554
N56 Na4 2.528906 1_655
N56 Na8 2.694823 1_654
N56 Na60 2.696274 1_655
N57 Na32 2.355888 1_555
N57 Na28 2.516708 1_556
N57 Na5 2.528906 1_555
N57 Na9 2.694823 1_556
N57 Na61 2.696274 1_555
N58 Na35 2.355888 1_555
N58 Na31 2.516708 1_555
N58 Na6 2.528906 1_455
N58 Na10 2.694823 1_455
N58 Na62 2.696274 1_455
N59 Na34 2.355888 1_555
N59 Na30 2.516708 1_555
N59 Na7 2.528906 1_555
N59 Na11 2.694823 1_555
N59 Na63 2.696274 1_555
N60 Na37 2.355888 1_555
N60 Na25 2.516708 1_556
N60 Na0 2.528906 1_455
N60 Na12 2.694823 1_456
N60 Na56 2.696274 1_455
N61 Na36 2.355888 1_555
N61 Na24 2.516708 1_554
N61 Na1 2.528906 1_555
N61 Na13 2.694823 1_554
N61 Na57 2.696274 1_555
N62 Na39 2.355888 1_555
N62 Na27 2.516708 1_555
N62 Na2 2.528906 1_655
N62 Na14 2.694823 1_655
N62 Na58 2.696274 1_655
N63 Na38 2.355888 1_555
N63 Na26 2.516708 1_555
N63 Na3 2.528906 1_555
N63 Na15 2.694823 1_555
N63 Na59 2.696274 1_555
