# generated using pymatgen
data_VF4
_symmetry_space_group_name_H-M   'P 1'
_cell_length_a   5.56773723
_cell_length_b   5.57211500
_cell_length_c   6.58578742
_cell_angle_alpha   115.59165515
_cell_angle_beta   115.00034737
_cell_angle_gamma   90.00396400
_symmetry_Int_Tables_number   1
_chemical_formula_structural   VF4
_chemical_formula_sum   'V2 F8'
_cell_volume   162.78631266
_cell_formula_units_Z   2
loop_
 _symmetry_equiv_pos_site_id
 _symmetry_equiv_pos_as_xyz
  1  'x, y, z'
loop_
 _atom_site_type_symbol
 _atom_site_label
 _atom_site_symmetry_multiplicity
 _atom_site_fract_x
 _atom_site_fract_y
 _atom_site_fract_z
 _atom_site_occupancy
  V  V0  1  0.99545600  0.50371500  0.99885200  1
  V  V1  1  0.50791500  0.00953200  0.99927100  1
  F  F0  1  0.94814500  0.44043000  0.22876200  1
  F  F1  1  0.71004100  0.21770000  0.76109900  1
  F  F2  1  0.04953100  0.54709600  0.76540200  1
  F  F3  1  0.21185400  0.04722100  0.76732000  1
  F  F4  1  0.28151600  0.78295100  0.23879100  1
  F  F5  1  0.45553000  0.28437000  0.23853200  1
  F  F6  1  0.77655800  0.94043800  0.22927300  1
  F  F7  1  0.54810100  0.71918600  0.76016600  1
loop_
_geom_bond_atom_site_label_1
_geom_bond_atom_site_label_2
_geom_bond_distance
_geom_bond_site_symmetry_2
F0 V0 1.812383 1_554
F1 V0 1.804874 1_555
F2 V0 1.795868 1_455
F3 V1 1.801003 1_555
F4 V0 1.789674 1_454
F5 V1 1.793618 1_554
F6 V1 1.807967 1_564
F7 V1 1.801137 1_565
