# generated using pymatgen
data_Ca2Ti6N2O11
_symmetry_space_group_name_H-M   'P 1'
_cell_length_a   7.73896046
_cell_length_b   7.73896046
_cell_length_c   9.43948847
_cell_angle_alpha   80.66974217
_cell_angle_beta   80.66974217
_cell_angle_gamma   28.22540596
_symmetry_Int_Tables_number   1
_chemical_formula_structural   Ca2Ti6N2O11
_chemical_formula_sum   'Ca2 Ti6 N2 O11'
_cell_volume   263.61270961
_cell_formula_units_Z   1
loop_
 _symmetry_equiv_pos_site_id
 _symmetry_equiv_pos_as_xyz
  1  'x, y, z'
loop_
 _atom_site_type_symbol
 _atom_site_label
 _atom_site_symmetry_multiplicity
 _atom_site_fract_x
 _atom_site_fract_y
 _atom_site_fract_z
 _atom_site_occupancy
  Ca  Ca0  1  0.55301500  0.55301500  0.25352300  1
  Ca  Ca1  1  0.46355600  0.46355600  0.77245200  1
  Ti  Ti0  1  0.12235700  0.12235700  0.92353400  1
  Ti  Ti1  1  0.16289000  0.16289000  0.56288100  1
  Ti  Ti2  1  0.23821500  0.23821500  0.24980700  1
  Ti  Ti3  1  0.77284800  0.77284800  0.76265200  1
  Ti  Ti4  1  0.83674500  0.83674500  0.43256200  1
  Ti  Ti5  1  0.88873000  0.88873000  0.10696000  1
  N  N0  1  0.29397000  0.29397000  0.41867300  1
  N  N1  1  0.93680700  0.93680700  0.27923600  1
  O  O0  1  0.06110300  0.06110300  0.70043800  1
  O  O1  1  0.11963700  0.11963700  0.38767700  1
  O  O2  1  0.14558400  0.14558400  0.10692300  1
  O  O3  1  0.64171000  0.64171000  0.88643400  1
  O  O4  1  0.69750400  0.69750400  0.57507200  1
  O  O5  1  0.75332700  0.75332700  0.23215600  1
  O  O6  1  0.23863700  0.23863700  0.75767600  1
  O  O7  1  0.35526300  0.35526300  0.10740600  1
  O  O8  1  0.84314200  0.84314200  0.89452300  1
  O  O9  1  0.87657700  0.87657700  0.61085600  1
  O  O10  1  0.99838400  0.99838400  0.97855700  1
loop_
_geom_bond_atom_site_label_1
_geom_bond_atom_site_label_2
_geom_bond_distance
_geom_bond_site_symmetry_2
Ca0 N1 2.553609 1_455
Ca0 N1 2.553609 1_545
Ca0 O1 2.566685 1_565
Ca0 O1 2.566685 1_655
Ca0 O2 2.600696 1_655
Ca0 O2 2.600696 1_565
Ca0 O5 2.979762 1_555
Ca1 O0 2.415384 1_565
Ca1 O0 2.415384 1_655
Ca1 O8 2.731159 1_545
Ca1 O8 2.731159 1_455
Ca1 O10 2.821202 1_455
Ca1 O10 2.821202 1_545
Ca1 O9 2.873681 1_545
Ca1 O9 2.873681 1_455
Ca1 O3 3.044851 1_555
N0 Ti2 1.920245 1_555
N0 Ti4 2.004580 1_545
N0 Ti4 2.004580 1_455
N0 Ti1 2.197497 1_555
N1 Ti5 1.886188 1_555
N1 Ti4 1.903665 1_555
O0 Ti1 1.832264 1_555
O0 Ti0 2.434683 1_555
O1 Ti1 1.875025 1_555
O1 Ti2 2.021737 1_555
O2 Ti0 1.822102 1_554
O2 Ti2 2.092734 1_555
O3 Ti0 1.932293 1_655
O3 Ti0 1.932293 1_565
O3 Ti3 2.114514 1_555
O4 Ti1 1.965689 1_655
O4 Ti1 1.965689 1_565
O4 Ti3 2.254744 1_555
O4 Ti4 2.288699 1_555
O5 Ti2 1.904552 1_565
O5 Ti2 1.904552 1_655
O5 Ti5 2.173616 1_555
O5 Ti4 2.436913 1_555
O6 Ti3 1.958245 1_455
O6 Ti3 1.958245 1_545
O6 Ti0 2.141050 1_555
O6 Ti1 2.317948 1_555
O7 Ti5 1.952541 1_545
O7 Ti5 1.952541 1_455
O7 Ti2 2.025886 1_555
O8 Ti3 1.761260 1_555
O8 Ti5 2.224476 1_556
O9 Ti4 1.877882 1_555
O9 Ti3 1.931737 1_555
O10 Ti0 1.846529 1_665
O10 Ti5 1.873859 1_556
