# generated using pymatgen
data_HfMg14BO15
_symmetry_space_group_name_H-M   'P 1'
_cell_length_a   8.50789794
_cell_length_b   8.96947018
_cell_length_c   4.27315451
_cell_angle_alpha   90.00000000
_cell_angle_beta   90.00000000
_cell_angle_gamma   90.00000000
_symmetry_Int_Tables_number   1
_chemical_formula_structural   HfMg14BO15
_chemical_formula_sum   'Hf1 Mg14 B1 O15'
_cell_volume   326.09013330
_cell_formula_units_Z   1
loop_
 _symmetry_equiv_pos_site_id
 _symmetry_equiv_pos_as_xyz
  1  'x, y, z'
loop_
 _atom_site_type_symbol
 _atom_site_label
 _atom_site_symmetry_multiplicity
 _atom_site_fract_x
 _atom_site_fract_y
 _atom_site_fract_z
 _atom_site_occupancy
  Hf  Hf0  1  0.98960946  0.50000000  0.00000000  1
  Mg  Mg0  1  0.48927187  0.00000000  0.00000000  1
  Mg  Mg1  1  0.49899458  0.50000000  0.00000000  1
  Mg  Mg2  1  0.99918079  0.22224867  0.50000000  1
  Mg  Mg3  1  0.99918079  0.77775133  0.50000000  1
  Mg  Mg4  1  0.49260262  0.24675887  0.50000000  1
  Mg  Mg5  1  0.49260262  0.75324113  0.50000000  1
  Mg  Mg6  1  0.23937306  0.00000000  0.50000000  1
  Mg  Mg7  1  0.25693566  0.50000000  0.50000000  1
  Mg  Mg8  1  0.75163425  0.00000000  0.50000000  1
  Mg  Mg9  1  0.73488265  0.50000000  0.50000000  1
  Mg  Mg10  1  0.24495683  0.25318206  0.00000000  1
  Mg  Mg11  1  0.24495683  0.74681794  -0.00000000  1
  Mg  Mg12  1  0.74483817  0.22809940  -0.00000000  1
  Mg  Mg13  1  0.74483817  0.77190060  -0.00000000  1
  B  B0  1  0.20692821  0.00000000  0.00000000  1
  O  O0  1  0.23879683  0.50000000  0.00000000  1
  O  O1  1  0.72288750  0.00000000  0.00000000  1
  O  O2  1  0.74546020  0.50000000  0.00000000  1
  O  O3  1  0.24337444  0.27237484  0.50000000  1
  O  O4  1  0.24337444  0.72762516  0.50000000  1
  O  O5  1  0.74562616  0.24615237  0.50000000  1
  O  O6  1  0.74562616  0.75384763  0.50000000  1
  O  O7  1  0.99711587  0.00000000  0.50000000  1
  O  O8  1  0.98645112  0.50000000  0.50000000  1
  O  O9  1  0.48509475  0.00000000  0.50000000  1
  O  O10  1  0.49855859  0.50000000  0.50000000  1
  O  O11  1  0.98693832  0.27341204  0.00000000  1
  O  O12  1  0.98693832  0.72658796  0.00000000  1
  O  O13  1  0.49648538  0.25757999  0.00000000  1
  O  O14  1  0.49648538  0.74242001  0.00000000  1
loop_
_geom_bond_atom_site_label_1
_geom_bond_atom_site_label_2
_geom_bond_distance
_geom_bond_site_symmetry_2
Hf0 O11 2.032501 1_555
Hf0 O12 2.032501 1_555
Hf0 O2 2.077197 1_555
Hf0 O0 2.120061 1_655
Hf0 O8 2.136746 1_555
Hf0 O8 2.136746 1_554
Mg0 O1 1.987578 1_555
Mg0 O9 2.136873 1_555
Mg0 O9 2.136873 1_554
Mg0 O14 2.311171 1_545
Mg0 O13 2.311171 1_555
Mg1 O2 2.096904 1_555
Mg1 O10 2.136580 1_555
Mg1 O10 2.136580 1_554
Mg1 O14 2.174484 1_555
Mg1 O13 2.174484 1_555
Mg1 O0 2.213736 1_555
Mg2 O7 1.993530 1_555
Mg2 O3 2.125667 1_655
Mg2 O5 2.167845 1_555
Mg2 O11 2.187786 1_556
Mg2 O11 2.187786 1_555
Mg2 O8 2.493635 1_555
Mg3 O7 1.993530 1_565
Mg3 O4 2.125667 1_655
Mg3 O6 2.167845 1_555
Mg3 O12 2.187786 1_556
Mg3 O12 2.187786 1_555
Mg3 O8 2.493635 1_555
Mg4 O3 2.132820 1_555
Mg4 O13 2.139036 1_555
Mg4 O13 2.139036 1_556
Mg4 O5 2.152705 1_555
Mg4 O9 2.214218 1_555
Mg4 O10 2.272004 1_555
Mg5 O4 2.132820 1_555
Mg5 O14 2.139036 1_555
Mg5 O14 2.139036 1_556
Mg5 O6 2.152705 1_555
Mg5 O9 2.214218 1_565
Mg5 O10 2.272004 1_555
Mg6 O7 2.061099 1_455
Mg6 O9 2.090575 1_555
Mg6 O3 2.443295 1_555
Mg6 O4 2.443295 1_545
Mg7 O3 2.044935 1_555
Mg7 O4 2.044935 1_555
Mg7 O10 2.055703 1_555
Mg7 O0 2.142143 1_555
Mg7 O0 2.142143 1_556
Mg7 O8 2.301255 1_455
Mg8 O7 2.088533 1_555
Mg8 O1 2.150530 1_556
Mg8 O1 2.150530 1_555
Mg8 O6 2.208448 1_545
Mg8 O5 2.208448 1_555
Mg8 O9 2.267691 1_555
Mg9 O10 2.010621 1_555
Mg9 O2 2.138472 1_555
Mg9 O2 2.138472 1_556
Mg9 O8 2.140319 1_555
Mg9 O6 2.278713 1_555
Mg9 O5 2.278713 1_555
Mg10 O13 2.140343 1_555
Mg10 O3 2.143544 1_554
Mg10 O3 2.143544 1_555
Mg10 O11 2.202682 1_455
Mg10 O0 2.214446 1_555
Mg11 O14 2.140343 1_555
Mg11 O4 2.143544 1_554
Mg11 O4 2.143544 1_555
Mg11 O12 2.202682 1_455
Mg11 O0 2.214446 1_555
Mg12 O1 2.054437 1_555
Mg12 O11 2.099479 1_555
Mg12 O13 2.129442 1_555
Mg12 O5 2.142715 1_555
Mg12 O5 2.142715 1_554
Mg12 O2 2.438810 1_555
Mg13 O1 2.054437 1_565
Mg13 O12 2.099479 1_555
Mg13 O14 2.129442 1_555
Mg13 O6 2.142715 1_555
Mg13 O6 2.142715 1_554
Mg13 O2 2.438810 1_555
B0 Mg6 2.154335 1_554
B0 Mg6 2.154335 1_555
B0 Mg10 2.293841 1_555
B0 Mg11 2.293841 1_545
B0 Mg0 2.402151 1_555
