# generated using pymatgen
data_Sm4GdS5
_symmetry_space_group_name_H-M   'P 1'
_cell_length_a   10.84397840
_cell_length_b   10.84397840
_cell_length_c   10.84397840
_cell_angle_alpha   157.87609833
_cell_angle_beta   149.27644270
_cell_angle_gamma   38.18545171
_symmetry_Int_Tables_number   1
_chemical_formula_structural   Sm4GdS5
_chemical_formula_sum   'Sm4 Gd1 S5'
_cell_volume   244.99891274
_cell_formula_units_Z   1
loop_
 _symmetry_equiv_pos_site_id
 _symmetry_equiv_pos_as_xyz
  1  'x, y, z'
loop_
 _atom_site_type_symbol
 _atom_site_label
 _atom_site_symmetry_multiplicity
 _atom_site_fract_x
 _atom_site_fract_y
 _atom_site_fract_z
 _atom_site_occupancy
  Sm  Sm0  1  0.60058500  0.60058500  0.00000000  1
  Sm  Sm1  1  0.19970700  0.19970700  0.00000000  1
  Sm  Sm2  1  0.80029300  0.80029300  0.00000000  1
  Sm  Sm3  1  0.39941500  0.39941500  0.00000000  1
  Gd  Gd0  1  0.00000000  0.00000000  0.00000000  1
  S  S0  1  0.90283600  0.40283600  0.50000000  1
  S  S1  1  0.70005000  0.20005000  0.50000000  1
  S  S2  1  0.29995000  0.79995000  0.50000000  1
  S  S3  1  0.50000000  0.00000000  0.50000000  1
  S  S4  1  0.09716400  0.59716400  0.50000000  1
loop_
_geom_bond_atom_site_label_1
_geom_bond_atom_site_label_2
_geom_bond_distance
_geom_bond_site_symmetry_2
Gd0 S3 2.872710 1_555
Gd0 S3 2.872710 1_454
Gd0 S0 2.880034 1_455
Gd0 S4 2.880034 1_544
Gd0 S4 2.880034 1_555
Gd0 S0 2.880034 1_444
S0 Sm3 2.873565 1_555
S0 Sm3 2.873565 1_656
S0 Sm2 2.957332 1_556
S0 Sm2 2.957332 1_545
S1 Sm1 2.872719 1_555
S1 Sm1 2.872719 1_656
S1 Sm0 2.912841 1_556
S1 Sm0 2.912841 1_545
S1 Sm2 2.924022 1_545
S1 Sm2 2.924022 1_556
S2 Sm2 2.872719 1_455
S2 Sm2 2.872719 1_556
S2 Sm3 2.912841 1_555
S2 Sm3 2.912841 1_566
S2 Sm1 2.924022 1_566
S2 Sm1 2.924022 1_555
S3 Sm3 2.928951 1_545
S3 Sm3 2.928951 1_556
S3 Sm0 2.928951 1_556
S3 Sm0 2.928951 1_545
S4 Sm0 2.873565 1_455
S4 Sm0 2.873565 1_556
S4 Sm1 2.957332 1_555
S4 Sm1 2.957332 1_566
