# generated using pymatgen
data_NaMg3Si4HO12
_symmetry_space_group_name_H-M   'P 1'
_cell_length_a   5.33475482
_cell_length_b   9.91090337
_cell_length_c   18.16780000
_cell_angle_alpha   90.00000000
_cell_angle_beta   90.00000000
_cell_angle_gamma   101.94041015
_symmetry_Int_Tables_number   1
_chemical_formula_structural   NaMg3Si4HO12
_chemical_formula_sum   'Na4 Mg12 Si16 H4 O48'
_cell_volume   939.78866677
_cell_formula_units_Z   4
loop_
 _symmetry_equiv_pos_site_id
 _symmetry_equiv_pos_as_xyz
  1  'x, y, z'
loop_
 _atom_site_type_symbol
 _atom_site_label
 _atom_site_symmetry_multiplicity
 _atom_site_fract_x
 _atom_site_fract_y
 _atom_site_fract_z
 _atom_site_occupancy
  Na  Na0  1  0.04646800  0.26405400  0.24963600  1
  Na  Na1  1  0.95353200  0.73594600  0.74963600  1
  Na  Na2  1  0.47840400  0.74321600  0.97891100  1
  Na  Na3  1  0.52159600  0.25678400  0.47891100  1
  Mg  Mg0  1  0.98517200  0.75032400  0.06746600  1
  Mg  Mg1  1  0.01482800  0.24967600  0.56746600  1
  Mg  Mg2  1  0.01569200  0.24993800  0.92981500  1
  Mg  Mg3  1  0.98430800  0.75006200  0.42981500  1
  Mg  Mg4  1  0.98519400  0.75075100  0.24842700  1
  Mg  Mg5  1  0.01480600  0.24924900  0.74842700  1
  Mg  Mg6  1  0.48498300  0.74992700  0.15822500  1
  Mg  Mg7  1  0.51501700  0.25007300  0.65822500  1
  Mg  Mg8  1  0.51474500  0.24917600  0.83599800  1
  Mg  Mg9  1  0.48525500  0.75082400  0.33599800  1
  Mg  Mg10  1  0.51545300  0.24718200  0.00551900  1
  Mg  Mg11  1  0.48454700  0.75281800  0.50551900  1
  Si  Si0  1  0.29024400  0.52850100  0.66499000  1
  Si  Si1  1  0.70975600  0.47149900  0.16499000  1
  Si  Si2  1  0.70845700  0.47403600  0.33405600  1
  Si  Si3  1  0.29154300  0.52596400  0.83405600  1
  Si  Si4  1  0.76245000  0.04018600  0.07949700  1
  Si  Si5  1  0.23755000  0.95981400  0.57949700  1
  Si  Si6  1  0.23200800  0.96338500  0.92154300  1
  Si  Si7  1  0.76799200  0.03661500  0.42154300  1
  Si  Si8  1  0.79396600  0.54359000  0.58199600  1
  Si  Si9  1  0.20603400  0.45641000  0.08199600  1
  Si  Si10  1  0.20337500  0.46226100  0.42068800  1
  Si  Si11  1  0.79662500  0.53773900  0.92068800  1
  Si  Si12  1  0.25510300  0.02876700  0.16364200  1
  Si  Si13  1  0.74489700  0.97123300  0.66364200  1
  Si  Si14  1  0.73955300  0.97369600  0.83474300  1
  Si  Si15  1  0.26044700  0.02630400  0.33474300  1
  H  H0  1  0.24335300  0.54655100  0.24888900  1
  H  H1  1  0.75664700  0.45344900  0.74888900  1
  H  H2  1  0.73429200  0.95683300  0.24953600  1
  H  H3  1  0.26570800  0.04316700  0.74953600  1
  O  O0  1  0.69129800  0.85673100  0.24960800  1
  O  O1  1  0.30870200  0.14326900  0.74960800  1
  O  O2  1  0.22359700  0.36195100  0.66255900  1
  O  O3  1  0.77640300  0.63804900  0.16255900  1
  O  O4  1  0.77563300  0.64075200  0.33711300  1
  O  O5  1  0.22436700  0.35924800  0.83711300  1
  O  O6  1  0.19556700  0.86232700  0.16253400  1
  O  O7  1  0.80443300  0.13767300  0.66253400  1
  O  O8  1  0.80546100  0.14042700  0.83690100  1
  O  O9  1  0.19453900  0.85957300  0.33690100  1
  O  O10  1  0.70596500  0.87364200  0.07968100  1
  O  O11  1  0.29403500  0.12635800  0.57968100  1
  O  O12  1  0.29952000  0.13368500  0.92319900  1
  O  O13  1  0.70048000  0.86631500  0.42319900  1
  O  O14  1  0.29535200  0.08731700  0.24953200  1
  O  O15  1  0.70464800  0.91268300  0.74953200  1
  O  O16  1  0.73833000  0.37679200  0.57970800  1
  O  O17  1  0.26167000  0.62320800  0.07970800  1
  O  O18  1  0.26887900  0.63244000  0.42394500  1
  O  O19  1  0.73112100  0.36756000  0.92394500  1
  O  O20  1  0.01761300  0.09729600  0.13400000  1
  O  O21  1  0.98238700  0.90270300  0.63400000  1
  O  O22  1  0.98071700  0.91016100  0.86536500  1
  O  O23  1  0.01928300  0.08983900  0.36536500  1
  O  O24  1  0.25593700  0.58506400  0.75006000  1
  O  O25  1  0.74406300  0.41493600  0.25006000  1
  O  O26  1  0.71974000  0.35366100  0.74974700  1
  O  O27  1  0.28026000  0.64633900  0.24974700  1
  O  O28  1  0.51808700  0.09977300  0.11923300  1
  O  O29  1  0.48191300  0.90022700  0.61923300  1
  O  O30  1  0.47174700  0.90947700  0.87765200  1
  O  O31  1  0.52825300  0.09052300  0.37765200  1
  O  O32  1  0.59312100  0.59178500  0.64468900  1
  O  O33  1  0.40687900  0.40821500  0.14468900  1
  O  O34  1  0.40877900  0.41381500  0.35907700  1
  O  O35  1  0.59122100  0.58618500  0.85907700  1
  O  O36  1  0.75602200  0.63496200  0.51019800  1
  O  O37  1  0.24397800  0.36503800  0.01019800  1
  O  O38  1  0.21861800  0.38403300  0.49588100  1
  O  O39  1  0.78138200  0.61596700  0.99588100  1
  O  O40  1  0.09225600  0.60070900  0.61623200  1
  O  O41  1  0.90774400  0.39929100  0.11623200  1
  O  O42  1  0.91384000  0.40822400  0.38216700  1
  O  O43  1  0.08616000  0.59177600  0.88216700  1
  O  O44  1  0.78605600  0.12886700  0.00408500  1
  O  O45  1  0.21394400  0.87113300  0.50408500  1
  O  O46  1  0.19236200  0.88853700  0.99885500  1
  O  O47  1  0.80763800  0.11146300  0.49885500  1
loop_
_geom_bond_atom_site_label_1
_geom_bond_atom_site_label_2
_geom_bond_distance
_geom_bond_site_symmetry_2
Na0 O14 2.406951 1_555
Na0 O25 2.415997 1_455
Na0 O20 2.657723 1_555
Na0 O23 2.705428 1_555
Na0 O33 2.869980 1_555
Na0 O41 2.937466 1_455
Na0 O34 2.950452 1_555
Na0 O42 2.959400 1_455
Na1 O15 2.406951 1_555
Na1 O24 2.415997 1_655
Na1 O21 2.657717 1_555
Na1 O22 2.705428 1_555
Na1 O32 2.869980 1_555
Na1 O40 2.937466 1_655
Na1 O35 2.950452 1_555
Na1 O43 2.959400 1_655
Na2 O39 2.267488 1_555
Na2 O46 2.333159 1_555
Na2 O17 2.352863 1_556
Na2 O10 2.418068 1_556
Na2 O30 2.474881 1_555
Na2 O35 2.812790 1_555
Na2 O43 2.901905 1_555
Na3 O38 2.267488 1_555
Na3 O47 2.333159 1_555
Na3 O16 2.352863 1_555
Na3 O11 2.418068 1_555
Na3 O31 2.474881 1_555
Na3 O34 2.812790 1_555
Na3 O42 2.901905 1_555
Mg0 O46 2.006336 1_654
Mg0 O39 2.011833 1_554
Mg0 O10 2.124830 1_555
Mg0 O17 2.140413 1_655
Mg0 O3 2.224972 1_555
Mg0 O6 2.227015 1_655
Mg1 O47 2.006336 1_455
Mg1 O38 2.011833 1_555
Mg1 O11 2.124830 1_555
Mg1 O16 2.140413 1_455
Mg1 O2 2.224972 1_555
Mg1 O7 2.227015 1_455
Mg2 O44 2.037887 1_456
Mg2 O37 2.083822 1_556
Mg2 O12 2.087220 1_555
Mg2 O19 2.099356 1_455
Mg2 O5 2.179544 1_555
Mg2 O8 2.186693 1_455
Mg3 O45 2.037887 1_655
Mg3 O36 2.083822 1_555
Mg3 O13 2.087220 1_555
Mg3 O18 2.099356 1_655
Mg3 O4 2.179544 1_555
Mg3 O9 2.186693 1_655
Mg4 O27 2.055055 1_655
Mg4 O0 2.059937 1_555
Mg4 O6 2.098560 1_655
Mg4 O3 2.099331 1_555
Mg4 O9 2.120312 1_655
Mg4 O4 2.128399 1_555
Mg5 O26 2.055055 1_455
Mg5 O1 2.059937 1_555
Mg5 O7 2.098560 1_455
Mg5 O2 2.099331 1_555
Mg5 O8 2.120312 1_455
Mg5 O5 2.128399 1_555
Mg6 O10 2.081175 1_555
Mg6 O6 2.083893 1_555
Mg6 O3 2.089476 1_555
Mg6 O17 2.100542 1_555
Mg6 O27 2.132506 1_555
Mg6 O0 2.146195 1_555
Mg7 O11 2.081175 1_555
Mg7 O7 2.083893 1_555
Mg7 O2 2.089476 1_555
Mg7 O16 2.100542 1_555
Mg7 O26 2.132506 1_555
Mg7 O1 2.146195 1_555
Mg8 O26 2.062804 1_555
Mg8 O8 2.063706 1_555
Mg8 O5 2.071104 1_555
Mg8 O1 2.072661 1_555
Mg8 O12 2.143477 1_555
Mg8 O19 2.168321 1_555
Mg9 O27 2.062804 1_555
Mg9 O9 2.063706 1_555
Mg9 O4 2.071104 1_555
Mg9 O0 2.072661 1_555
Mg9 O13 2.143477 1_555
Mg9 O18 2.168321 1_555
Mg10 O44 2.039638 1_555
Mg10 O37 2.041815 1_555
Mg10 O12 2.071920 1_554
Mg10 O19 2.091772 1_554
Mg10 O28 2.532028 1_555
Mg11 O45 2.039638 1_555
Mg11 O36 2.041815 1_555
Mg11 O13 2.071920 1_555
Mg11 O18 2.091772 1_555
Mg11 O29 2.532028 1_555
H0 O27 0.967747 1_555
H1 O26 0.967747 1_555
H2 O0 0.970936 1_555
H3 O1 0.970936 1_555
O2 Si0 1.615611 1_555
O3 Si1 1.615611 1_555
O4 Si2 1.617594 1_555
O5 Si3 1.617594 1_555
O6 Si12 1.614179 1_565
O7 Si13 1.614179 1_545
O8 Si14 1.617206 1_545
O9 Si15 1.617206 1_565
O10 Si4 1.615391 1_565
O11 Si5 1.615391 1_545
O12 Si6 1.651618 1_545
O13 Si7 1.651618 1_565
O14 Si15 1.658415 1_555
O14 Si12 1.663197 1_555
O15 Si14 1.658415 1_555
O15 Si13 1.663197 1_555
O16 Si8 1.618517 1_555
O17 Si9 1.618517 1_555
O18 Si10 1.651195 1_555
O19 Si11 1.651195 1_555
O20 Si12 1.646977 1_555
O20 Si4 1.683747 1_455
O21 Si13 1.646982 1_555
O21 Si5 1.683749 1_655
O22 Si14 1.642087 1_555
O22 Si6 1.680617 1_655
O23 Si15 1.642087 1_555
O23 Si7 1.680617 1_455
O24 Si3 1.659502 1_555
O24 Si0 1.667000 1_555
O25 Si2 1.659502 1_555
O25 Si1 1.667000 1_555
O28 Si12 1.644973 1_555
O28 Si4 1.699383 1_555
O29 Si13 1.644973 1_555
O29 Si5 1.699383 1_555
O30 Si14 1.636359 1_555
O30 Si6 1.685159 1_555
O31 Si15 1.636359 1_555
O31 Si7 1.685159 1_555
O32 Si0 1.649485 1_555
O32 Si8 1.698605 1_555
O33 Si1 1.649485 1_555
O33 Si9 1.698605 1_555
O34 Si2 1.650425 1_555
O34 Si10 1.703494 1_555
O35 Si3 1.650425 1_555
O35 Si11 1.703494 1_555
O36 Si8 1.624312 1_555
O37 Si9 1.624312 1_555
O38 Si10 1.581143 1_555
O39 Si11 1.581143 1_555
O40 Si0 1.650820 1_555
O40 Si8 1.693174 1_455
O41 Si1 1.650820 1_555
O41 Si9 1.693174 1_655
O42 Si2 1.638793 1_555
O42 Si10 1.679312 1_655
O43 Si3 1.638793 1_555
O43 Si11 1.679312 1_455
O44 Si4 1.618528 1_555
O45 Si5 1.618528 1_555
O46 Si6 1.582076 1_555
O47 Si7 1.582076 1_555
