# generated using pymatgen
data_Bi2TeIClO8
_symmetry_space_group_name_H-M   'P 1'
_cell_length_a   11.44377964
_cell_length_b   11.44377964
_cell_length_c   15.36947223
_cell_angle_alpha   75.76928963
_cell_angle_beta   75.76928963
_cell_angle_gamma   27.06649552
_symmetry_Int_Tables_number   1
_chemical_formula_structural   Bi2TeIClO8
_chemical_formula_sum   'Bi8 Te4 I4 Cl4 O32'
_cell_volume   886.10711120
_cell_formula_units_Z   4
loop_
 _symmetry_equiv_pos_site_id
 _symmetry_equiv_pos_as_xyz
  1  'x, y, z'
loop_
 _atom_site_type_symbol
 _atom_site_label
 _atom_site_symmetry_multiplicity
 _atom_site_fract_x
 _atom_site_fract_y
 _atom_site_fract_z
 _atom_site_occupancy
  Bi  Bi0  1  0.44988200  0.71031300  0.94090700  1
  Bi  Bi1  1  0.71031300  0.44988200  0.44090700  1
  Bi  Bi2  1  0.33680700  0.75351000  0.20551500  1
  Bi  Bi3  1  0.75351000  0.33680700  0.70551500  1
  Bi  Bi4  1  0.11163600  0.38303100  0.85503900  1
  Bi  Bi5  1  0.38303100  0.11163600  0.35503900  1
  Bi  Bi6  1  0.47173200  0.08574900  0.09596700  1
  Bi  Bi7  1  0.08574900  0.47173200  0.59596700  1
  Te  Te0  1  0.95775300  0.32371100  0.06013900  1
  Te  Te1  1  0.32371100  0.95775300  0.56013900  1
  Te  Te2  1  0.49971900  0.86430200  0.73353700  1
  Te  Te3  1  0.86430200  0.49971900  0.23353700  1
  I  I0  1  0.10539500  0.70741300  0.96487900  1
  I  I1  1  0.70741300  0.10539500  0.46487900  1
  I  I2  1  0.68754600  0.18578000  0.16473600  1
  I  I3  1  0.18578000  0.68754600  0.66473600  1
  Cl  Cl0  1  0.73097800  0.87452600  0.89794100  1
  Cl  Cl1  1  0.87452600  0.73097800  0.39794100  1
  Cl  Cl2  1  0.90995400  0.13131600  0.88828000  1
  Cl  Cl3  1  0.13131600  0.90995400  0.38828100  1
  O  O0  1  0.37177200  0.13966700  0.69838200  1
  O  O1  1  0.13966700  0.37177200  0.19838200  1
  O  O2  1  0.82937700  0.48708000  0.94068400  1
  O  O3  1  0.48708000  0.82937700  0.44068400  1
  O  O4  1  0.58246700  0.62261000  0.78141600  1
  O  O5  1  0.62261000  0.58246700  0.28141600  1
  O  O6  1  0.33395500  0.00220700  0.85112400  1
  O  O7  1  0.00220700  0.33395500  0.35112400  1
  O  O8  1  0.18083700  0.99498800  0.05045300  1
  O  O9  1  0.99498800  0.18083700  0.55045300  1
  O  O10  1  0.66524900  0.47172500  0.08932900  1
  O  O11  1  0.47172500  0.66524900  0.58932900  1
  O  O12  1  0.84341700  0.61129700  0.74474600  1
  O  O13  1  0.61129700  0.84341700  0.24474600  1
  O  O14  1  0.21637300  0.21706600  0.01375000  1
  O  O15  1  0.21706600  0.21637300  0.51375000  1
  O  O16  1  0.18631600  0.08078800  0.68376600  1
  O  O17  1  0.08078800  0.18631600  0.18376600  1
  O  O18  1  0.63602700  0.73970000  0.60984700  1
  O  O19  1  0.73970000  0.63602700  0.10984700  1
  O  O20  1  0.27443500  0.41291400  0.99354000  1
  O  O21  1  0.41291400  0.27443500  0.49354000  1
  O  O22  1  0.54212300  0.38915800  0.25175600  1
  O  O23  1  0.38915800  0.54212300  0.75175600  1
  O  O24  1  0.84651100  0.91348100  0.05432600  1
  O  O25  1  0.91348100  0.84651100  0.55432600  1
  O  O26  1  0.53611000  0.17093100  0.20837600  1
  O  O27  1  0.17093100  0.53611000  0.70837600  1
  O  O28  1  0.32778300  0.60010300  0.01106800  1
  O  O29  1  0.60010300  0.32778300  0.51106800  1
  O  O30  1  0.00787600  0.88584500  0.20766900  1
  O  O31  1  0.88584500  0.00787600  0.70766900  1
loop_
_geom_bond_atom_site_label_1
_geom_bond_atom_site_label_2
_geom_bond_distance
_geom_bond_site_symmetry_2
Bi0 O8 2.282944 1_556
Bi0 O6 2.358761 1_565
Bi0 O2 2.371686 1_555
Bi0 O4 2.446874 1_555
Bi0 O28 2.536718 1_556
Bi0 O10 2.539743 1_556
Bi0 Cl2 3.093257 1_465
Bi1 O9 2.282944 1_555
Bi1 O7 2.358761 1_655
Bi1 O3 2.371686 1_555
Bi1 O5 2.446874 1_555
Bi1 O29 2.536718 1_555
Bi1 O11 2.539743 1_555
Bi1 Cl3 3.093251 1_645
Bi2 O5 2.289345 1_555
Bi2 O22 2.308109 1_555
Bi2 O10 2.379069 1_555
Bi2 O30 2.504945 1_555
Bi2 O8 2.563417 1_555
Bi2 O17 2.655334 1_565
Bi2 Cl3 2.890092 1_555
Bi3 O4 2.289345 1_555
Bi3 O23 2.308109 1_555
Bi3 O11 2.379069 1_555
Bi3 O31 2.504945 1_555
Bi3 O9 2.563417 1_555
Bi3 O16 2.655334 1_655
Bi3 Cl2 2.890078 1_555
Bi4 O12 2.284712 1_455
Bi4 O2 2.326898 1_455
Bi4 O6 2.403365 1_555
Bi4 O14 2.469711 1_556
Bi4 O0 2.724491 1_555
Bi4 Cl0 2.796724 1_455
Bi4 O27 2.834421 1_555
Bi5 O13 2.284712 1_545
Bi5 O3 2.326898 1_545
Bi5 O7 2.403365 1_555
Bi5 O15 2.469711 1_555
Bi5 O1 2.724491 1_555
Bi5 Cl1 2.796724 1_545
Bi5 O26 2.834421 1_555
Bi6 O1 2.252123 1_555
Bi6 O20 2.321279 1_554
Bi6 O14 2.335720 1_555
Bi6 O13 2.501978 1_545
Bi6 O24 2.627388 1_545
Bi6 O26 2.685268 1_555
Bi6 O19 2.758715 1_545
Bi7 O0 2.252123 1_555
Bi7 O21 2.321279 1_555
Bi7 O15 2.335720 1_555
Bi7 O12 2.501978 1_455
Bi7 O25 2.627388 1_455
Bi7 O27 2.685268 1_555
Bi7 O18 2.758715 1_455
I0 O20 1.836422 1_555
I0 O24 1.837677 1_456
I0 O28 1.839148 1_556
I1 O21 1.836422 1_555
I1 O25 1.837677 1_545
I1 O29 1.839148 1_555
I2 O30 1.822547 1_645
I2 O26 1.838202 1_555
I2 O22 1.874343 1_555
I2 O24 2.624026 1_545
I3 O31 1.822547 1_465
I3 O27 1.838202 1_555
I3 O23 1.874343 1_555
I3 O25 2.624026 1_455
Cl2 I0 3.014085 1_645
Cl3 I1 3.014082 1_465
O0 Te2 1.923663 1_545
O1 Te3 1.923663 1_455
O2 Te0 1.941973 1_556
O3 Te1 1.941973 1_555
O4 Te2 1.940517 1_555
O5 Te3 1.940517 1_555
O6 Te2 1.933976 1_545
O7 Te3 1.933976 1_455
O8 Te0 1.917215 1_465
O9 Te1 1.917215 1_645
O10 Te0 1.952587 1_555
O11 Te1 1.952587 1_555
O12 Te2 1.920729 1_555
O13 Te3 1.920729 1_555
O14 Te0 1.927321 1_455
O15 Te1 1.927321 1_545
O16 Te1 1.992163 1_545
O16 Te2 2.044169 1_545
O17 Te0 1.992163 1_455
O17 Te3 2.044169 1_455
O18 Te2 1.998483 1_555
O18 Te1 2.026339 1_555
O19 Te3 1.998483 1_555
O19 Te0 2.026339 1_555
