# generated using pymatgen
data_Y2O3
_symmetry_space_group_name_H-M   'P 1'
_cell_length_a   11.89100344
_cell_length_b   11.41407727
_cell_length_c   11.83928476
_cell_angle_alpha   94.37592895
_cell_angle_beta   83.46593527
_cell_angle_gamma   87.40771917
_symmetry_Int_Tables_number   1
_chemical_formula_structural   Y2O3
_chemical_formula_sum   'Y40 O60'
_cell_volume   1589.43440442
_cell_formula_units_Z   20
loop_
 _symmetry_equiv_pos_site_id
 _symmetry_equiv_pos_as_xyz
  1  'x, y, z'
loop_
 _atom_site_type_symbol
 _atom_site_label
 _atom_site_symmetry_multiplicity
 _atom_site_fract_x
 _atom_site_fract_y
 _atom_site_fract_z
 _atom_site_occupancy
  Y  Y0  1  0.91939590  0.46839022  0.81299752  1
  Y  Y1  1  0.94448137  0.15345662  0.89382893  1
  Y  Y2  1  0.60864524  0.10689068  0.96728462  1
  Y  Y3  1  0.16638848  0.53379449  0.90887574  1
  Y  Y4  1  0.29536243  0.86208809  0.34478509  1
  Y  Y5  1  0.79725440  0.07791932  0.45650041  1
  Y  Y6  1  0.59050842  0.78928196  0.57744022  1
  Y  Y7  1  0.46516816  0.52330398  0.82799244  1
  Y  Y8  1  0.10141727  0.56599646  0.21672864  1
  Y  Y9  1  0.49691427  0.62368287  0.34216621  1
  Y  Y10  1  0.33709798  0.06257304  0.13762609  1
  Y  Y11  1  0.06350462  0.14993434  0.20095586  1
  Y  Y12  1  0.43846831  0.81334384  0.88358878  1
  Y  Y13  1  0.61124995  0.47241408  0.08719195  1
  Y  Y14  1  0.75297840  0.88303052  0.79399324  1
  Y  Y15  1  0.35248396  0.65059578  0.09850187  1
  Y  Y16  1  0.12554666  0.54592126  0.52522164  1
  Y  Y17  1  0.71684545  0.27213757  0.69611665  1
  Y  Y18  1  0.81084476  0.60174759  0.31306085  1
  Y  Y19  1  0.52078273  0.04721157  0.69619197  1
  Y  Y20  1  0.24108931  0.03672710  0.80820722  1
  Y  Y21  1  0.88472383  0.38485866  0.07833303  1
  Y  Y22  1  0.23640059  0.33643054  0.67376926  1
  Y  Y23  1  0.34703614  0.09937167  0.49842202  1
  Y  Y24  1  0.34412502  0.32807596  0.00414863  1
  Y  Y25  1  0.33155234  0.36171602  0.30963814  1
  Y  Y26  1  0.89264411  0.76314354  0.53173069  1
  Y  Y27  1  0.63929771  0.75936244  0.09799210  1
  Y  Y28  1  0.69016916  0.29539157  0.33042767  1
  Y  Y29  1  0.00046529  0.85339915  0.26534029  1
  Y  Y30  1  0.90928549  0.67832616  0.02528685  1
  Y  Y31  1  0.48298917  0.41569153  0.54176261  1
  Y  Y32  1  0.72552600  0.54530723  0.59075069  1
  Y  Y33  1  0.32545548  0.71872468  0.64287723  1
  Y  Y34  1  0.16347651  0.88536115  0.04286958  1
  Y  Y35  1  0.56299258  0.97108027  0.30816489  1
  Y  Y36  1  0.02676758  0.03055538  0.58353551  1
  Y  Y37  1  0.80617658  0.97346849  0.10611980  1
  Y  Y38  1  0.93356027  0.34131248  0.49569961  1
  Y  Y39  1  0.04797549  0.80072004  0.76871062  1
  O  O0  1  0.49193729  0.79707949  0.25698149  1
  O  O1  1  0.39284328  0.04193320  0.31032714  1
  O  O2  1  0.45162691  0.18217344  0.05647415  1
  O  O3  1  0.98380598  0.21826183  0.05944933  1
  O  O4  1  0.52034147  0.38271733  0.35715020  1
  O  O5  1  0.49789279  0.41599245  0.96550895  1
  O  O6  1  0.83026138  0.41424269  0.66544102  1
  O  O7  1  0.79704037  0.05131214  0.93498859  1
  O  O8  1  0.56040443  0.58514720  0.50638333  1
  O  O9  1  0.79091236  0.81287979  0.96326985  1
  O  O10  1  0.00799399  0.50241619  0.00792152  1
  O  O11  1  0.97781399  0.69133550  0.34732386  1
  O  O12  1  0.50806967  0.98759809  0.50101358  1
  O  O13  1  0.23991771  0.23912592  0.20159833  1
  O  O14  1  0.57156226  0.94690012  0.86187760  1
  O  O15  1  0.65527627  0.61213177  0.22189646  1
  O  O16  1  0.88676853  0.17072255  0.59455109  1
  O  O17  1  0.77755097  0.54419527  0.00713650  1
  O  O18  1  0.49024823  0.69109070  0.72544557  1
  O  O19  1  0.38090741  0.75114317  0.47182991  1
  O  O20  1  0.07420373  0.07200462  0.75760347  1
  O  O21  1  0.20074677  0.99198116  0.49459808  1
  O  O22  1  0.34235972  0.29121992  0.48646907  1
  O  O23  1  0.93268023  0.19333267  0.35445974  1
  O  O24  1  0.71120233  0.33157848  0.14924107  1
  O  O25  1  0.09873229  0.36101039  0.55415260  1
  O  O26  1  0.71835058  0.08161336  0.29355770  1
  O  O27  1  0.93636364  0.93405204  0.44417382  1
  O  O28  1  0.31708567  0.39703166  0.83717892  1
  O  O29  1  0.93921006  0.57267827  0.54424780  1
  O  O30  1  0.33666049  0.15517870  0.68800579  1
  O  O31  1  0.82522754  0.79987541  0.18974118  1
  O  O32  1  0.98775502  0.98074242  0.12140705  1
  O  O33  1  0.61507301  0.96120762  0.11510276  1
  O  O34  1  0.34749812  0.86455921  0.05934519  1
  O  O35  1  0.52874230  0.66862799  0.98936334  1
  O  O36  1  0.09175114  0.40178528  0.79135917  1
  O  O37  1  0.00141176  0.64759612  0.84620936  1
  O  O38  1  0.74141278  0.72116713  0.68112438  1
  O  O39  1  0.30900885  0.51611081  0.61998043  1
  O  O40  1  0.77654577  0.43921773  0.42058334  1
  O  O41  1  0.43210120  0.51390673  0.20230551  1
  O  O42  1  0.16941989  0.97547317  0.23080787  1
  O  O43  1  0.58986947  0.42984228  0.68571378  1
  O  O44  1  0.59695168  0.17827890  0.80336098  1
  O  O45  1  0.94098575  0.47279546  0.23102124  1
  O  O46  1  0.14192497  0.72517439  0.61662842  1
  O  O47  1  0.38820354  0.91021891  0.73009605  1
  O  O48  1  0.23938482  0.49261505  0.07393181  1
  O  O49  1  0.31668898  0.65281595  0.90685598  1
  O  O50  1  0.19356422  0.49060849  0.35207685  1
  O  O51  1  0.18375799  0.86156407  0.85464105  1
  O  O52  1  0.23082909  0.71963809  0.24902574  1
  O  O53  1  0.22358156  0.07467443  0.99297445  1
  O  O54  1  0.92370597  0.89497199  0.68352351  1
  O  O55  1  0.68412597  0.95064574  0.63078492  1
  O  O56  1  0.06961187  0.72924078  0.09974554  1
  O  O57  1  0.66846457  0.22831400  0.51963121  1
  O  O58  1  0.84727073  0.31017843  0.87959465  1
  O  O59  1  0.73630619  0.72828298  0.45514657  1
loop_
_geom_bond_atom_site_label_1
_geom_bond_atom_site_label_2
_geom_bond_distance
_geom_bond_site_symmetry_2
O0 Y35 2.260571 1_555
O0 Y9 2.290261 1_555
O0 Y27 2.419987 1_555
O0 Y4 2.503473 1_555
O1 Y35 2.141320 1_545
O1 Y10 2.245741 1_555
O1 Y23 2.270348 1_555
O1 Y4 2.441169 1_545
O2 Y2 2.146432 1_554
O2 Y10 2.170686 1_555
O2 Y24 2.221779 1_555
O3 Y1 2.151575 1_554
O3 Y21 2.174055 1_555
O3 Y11 2.192485 1_655
O4 Y31 2.180488 1_555
O4 Y28 2.189989 1_555
O4 Y25 2.393514 1_555
O4 Y9 2.773115 1_555
O5 Y24 2.145963 1_556
O5 Y13 2.164715 1_556
O5 Y7 2.169745 1_555
O6 Y17 2.181255 1_555
O6 Y32 2.203391 1_555
O6 Y0 2.207519 1_555
O6 Y38 2.308836 1_555
O7 Y1 2.178920 1_555
O7 Y2 2.281809 1_555
O7 Y37 2.285234 1_546
O7 Y14 2.559534 1_545
O8 Y31 2.227294 1_555
O8 Y9 2.231124 1_555
O8 Y32 2.344047 1_555
O8 Y6 2.471775 1_555
O9 Y30 2.256283 1_556
O9 Y14 2.297611 1_555
O9 Y27 2.400278 1_556
O9 Y37 2.424856 1_556
O10 Y3 2.161770 1_554
O10 Y21 2.171285 1_455
O10 Y30 2.262810 1_455
O10 Y0 2.653312 1_454
O10 Y8 2.880335 1_555
O11 Y29 2.167028 1_655
O11 Y18 2.335759 1_555
O11 Y8 2.356389 1_655
O11 Y26 2.369101 1_555
O12 Y23 2.256901 1_565
O12 Y35 2.293216 1_555
O12 Y19 2.382096 1_565
O12 Y6 2.686493 1_555
O13 Y25 2.227852 1_555
O13 Y10 2.308076 1_555
O13 Y11 2.373300 1_555
O13 Y24 2.801365 1_555
O14 Y2 2.221918 1_565
O14 Y12 2.253901 1_555
O14 Y14 2.281391 1_555
O14 Y19 2.464381 1_565
O15 Y9 2.220260 1_555
O15 Y18 2.248349 1_555
O15 Y13 2.288694 1_555
O15 Y27 2.328699 1_555
O16 Y36 2.241824 1_655
O16 Y5 2.271580 1_555
O16 Y38 2.401687 1_555
O16 Y17 2.427256 1_555
O17 Y30 2.255482 1_555
O17 Y13 2.306199 1_555
O17 Y21 2.431243 1_555
O17 Y0 2.749306 1_554
O17 Y27 2.953049 1_555
O18 Y12 2.256770 1_555
O18 Y33 2.306953 1_555
O18 Y7 2.356848 1_555
O18 Y6 2.386006 1_555
O19 Y33 2.122537 1_555
O19 Y9 2.317700 1_555
O19 Y4 2.328746 1_555
O19 Y6 2.947726 1_555
O20 Y20 2.166604 1_555
O20 Y1 2.218145 1_455
O20 Y36 2.220129 1_555
O21 Y23 2.175508 1_565
O21 Y36 2.221159 1_565
O21 Y4 2.367178 1_555
O22 Y23 2.203697 1_555
O22 Y25 2.314276 1_555
O22 Y31 2.359126 1_555
O22 Y22 2.429361 1_555
O23 Y11 2.262236 1_655
O23 Y38 2.285557 1_555
O23 Y5 2.404177 1_555
O24 Y13 2.177717 1_555
O24 Y28 2.203893 1_555
O24 Y21 2.264770 1_555
O25 Y38 2.170840 1_455
O25 Y16 2.195427 1_555
O25 Y22 2.304514 1_555
O26 Y5 2.241511 1_555
O26 Y35 2.281619 1_545
O26 Y28 2.446843 1_555
O26 Y37 2.544957 1_545
O27 Y5 2.262039 1_565
O27 Y29 2.276633 1_655
O27 Y36 2.307522 1_665
O27 Y26 2.329802 1_555
O28 Y24 2.233783 1_556
O28 Y7 2.323708 1_555
O28 Y22 2.328111 1_555
O28 Y3 2.359440 1_555
O29 Y16 2.206393 1_655
O29 Y26 2.239135 1_555
O29 Y32 2.576171 1_555
O29 Y38 2.664968 1_555
O30 Y23 2.273896 1_555
O30 Y20 2.282361 1_555
O30 Y22 2.367613 1_555
O30 Y19 2.478707 1_555
O31 Y37 2.295039 1_555
O31 Y30 2.394619 1_555
O31 Y29 2.443874 1_655
O31 Y27 2.616141 1_555
O31 Y18 2.785147 1_555
O32 Y37 2.191903 1_555
O32 Y29 2.335825 1_655
O32 Y11 2.345337 1_665
O32 Y34 2.369268 1_655
O33 Y37 2.273938 1_555
O33 Y35 2.291931 1_555
O33 Y27 2.299419 1_555
O33 Y2 2.509304 1_564
O34 Y34 2.222580 1_555
O34 Y12 2.255353 1_554
O34 Y10 2.368855 1_565
O34 Y15 2.519657 1_555
O35 Y27 2.181625 1_556
O35 Y15 2.359651 1_556
O35 Y12 2.431086 1_555
O35 Y7 2.632773 1_555
O35 Y13 2.788465 1_556
O36 Y0 2.133961 1_455
O36 Y22 2.152580 1_555
O36 Y3 2.252964 1_555
O37 Y39 2.102322 1_555
O37 Y30 2.267443 1_456
O37 Y0 2.331235 1_455
O37 Y3 2.516729 1_555
O38 Y14 2.214944 1_555
O38 Y32 2.227606 1_555
O38 Y6 2.419084 1_555
O38 Y26 2.464780 1_555
O39 Y33 2.327529 1_555
O39 Y22 2.364624 1_555
O39 Y31 2.374609 1_555
O39 Y16 2.584889 1_555
O40 Y28 2.241399 1_555
O40 Y32 2.275153 1_555
O40 Y18 2.353508 1_555
O40 Y38 2.422071 1_555
O41 Y9 2.228672 1_555
O41 Y15 2.294468 1_555
O41 Y13 2.401914 1_555
O41 Y25 2.498165 1_555
O42 Y11 2.378711 1_565
O42 Y34 2.388911 1_555
O42 Y10 2.454989 1_565
O42 Y4 2.507923 1_555
O42 Y29 2.509594 1_555
O43 Y31 2.239507 1_555
O43 Y7 2.277823 1_555
O43 Y17 2.316329 1_555
O43 Y32 2.368270 1_555
O44 Y17 2.173958 1_555
O44 Y2 2.177667 1_555
O44 Y19 2.182363 1_555
O45 Y18 2.176765 1_555
O45 Y21 2.186772 1_555
O45 Y8 2.221976 1_655
O46 Y39 2.109899 1_555
O46 Y33 2.237858 1_555
O46 Y16 2.267454 1_555
O47 Y20 2.280352 1_565
O47 Y19 2.294821 1_565
O47 Y12 2.318691 1_555
O47 Y33 2.525642 1_555
O47 Y6 3.047670 1_555
O48 Y24 2.253516 1_555
O48 Y8 2.297733 1_555
O48 Y3 2.298331 1_554
O48 Y15 2.318010 1_555
O49 Y3 2.292417 1_555
O49 Y7 2.313517 1_555
O49 Y15 2.357443 1_556
O49 Y12 2.399229 1_555
O50 Y25 2.142508 1_555
O50 Y16 2.152641 1_555
O50 Y8 2.243553 1_555
O51 Y39 2.119354 1_555
O51 Y34 2.208507 1_556
O51 Y20 2.229348 1_565
O52 Y4 2.132464 1_555
O52 Y15 2.232799 1_555
O52 Y8 2.421840 1_555
O53 Y20 2.181689 1_555
O53 Y10 2.306371 1_556
O53 Y34 2.401536 1_546
O54 Y39 2.172336 1_655
O54 Y14 2.301843 1_555
O54 Y26 2.327847 1_555
O54 Y36 2.327896 1_665
O55 Y19 2.218309 1_565
O55 Y6 2.279992 1_555
O55 Y14 2.351606 1_555
O55 Y5 2.860082 1_565
O56 Y34 2.250910 1_555
O56 Y30 2.270216 1_455
O56 Y29 2.373136 1_555
O56 Y8 2.445884 1_555
O57 Y17 2.255468 1_555
O57 Y5 2.270820 1_555
O57 Y28 2.412170 1_555
O57 Y31 2.977135 1_555
O58 Y1 2.113718 1_555
O58 Y0 2.195851 1_555
O58 Y21 2.535337 1_556
O58 Y17 2.827747 1_555
O59 Y6 2.180009 1_555
O59 Y26 2.198145 1_555
O59 Y18 2.208042 1_555
O59 Y32 2.728516 1_555
