# generated using pymatgen
data_Ca33In4P28Pb3O112
_symmetry_space_group_name_H-M   'P 1'
_cell_length_a   10.53008908
_cell_length_b   10.57143528
_cell_length_c   25.97327591
_cell_angle_alpha   78.11568059
_cell_angle_beta   89.95777958
_cell_angle_gamma   119.91024564
_symmetry_Int_Tables_number   1
_chemical_formula_structural   Ca33In4P28Pb3O112
_chemical_formula_sum   'Ca33 In4 P28 Pb3 O112'
_cell_volume   2434.17985440
_cell_formula_units_Z   1
loop_
 _symmetry_equiv_pos_site_id
 _symmetry_equiv_pos_as_xyz
  1  'x, y, z'
loop_
 _atom_site_type_symbol
 _atom_site_label
 _atom_site_symmetry_multiplicity
 _atom_site_fract_x
 _atom_site_fract_y
 _atom_site_fract_z
 _atom_site_occupancy
  Ca  Ca0  1  0.80985426  0.64385633  0.10094395  1
  Ca  Ca1  1  0.30927989  0.64310918  0.60061145  1
  Ca  Ca2  1  0.83280022  0.09007480  0.10101138  1
  Ca  Ca3  1  0.33379362  0.08981533  0.60062013  1
  Ca  Ca4  1  0.25735726  0.06614376  0.10104547  1
  Ca  Ca5  1  0.75811622  0.06651877  0.60078801  1
  Ca  Ca6  1  0.50702270  0.59124403  0.34964449  1
  Ca  Ca7  1  0.00711192  0.59115201  0.84936077  1
  Ca  Ca8  1  0.08364057  0.14278950  0.35024910  1
  Ca  Ca9  1  0.58385161  0.14296657  0.85014593  1
  Ca  Ca10  1  0.05912086  0.56590977  0.35042021  1
  Ca  Ca11  1  0.55905657  0.56605572  0.84956896  1
  Ca  Ca12  1  0.68103842  0.34621890  0.40068241  1
  Ca  Ca13  1  0.18023379  0.34538771  0.90042199  1
  Ca  Ca14  1  0.66561867  0.91866990  0.40073650  1
  Ca  Ca15  1  0.16646035  0.91859345  0.90049247  1
  Ca  Ca16  1  0.25131925  0.93276440  0.40080208  1
  Ca  Ca17  1  0.75266788  0.93389466  0.90036027  1
  Ca  Ca18  1  0.00141591  0.41730161  0.15207598  1
  Ca  Ca19  1  0.50182846  0.41721264  0.65180314  1
  Ca  Ca20  1  0.41600652  0.84748043  0.15145468  1
  Ca  Ca21  1  0.91634675  0.84748195  0.65128100  1
  Ca  Ca22  1  0.43083038  0.43253626  0.15202331  1
  Ca  Ca23  1  0.93129156  0.43320468  0.65113142  1
  Ca  Ca24  1  0.30928108  0.04159943  0.24215845  1
  Ca  Ca25  1  0.80953009  0.04195626  0.74188642  1
  Ca  Ca26  1  0.73224266  0.44844928  0.24206336  1
  Ca  Ca27  1  0.23211531  0.44828388  0.74189255  1
  Ca  Ca28  1  0.71621167  0.02547154  0.24204002  1
  Ca  Ca29  1  0.21602648  0.02549272  0.74198519  1
  Ca  Ca30  1  0.96635490  0.94941707  0.49227846  1
  Ca  Ca31  1  0.46643060  0.94937719  0.99250960  1
  Ca  Ca32  1  0.98218421  0.54143879  0.49222923  1
  In  In0  1  0.24912455  0.49855405  0.25214705  1
  In  In1  1  0.74934236  0.49871819  0.75198849  1
  In  In2  1  0.99955617  0.99880574  0.00222188  1
  In  In3  1  0.49931790  0.99844319  0.50217148  1
  P  P0  1  0.38972543  0.81227099  0.29981889  1
  P  P1  1  0.88974659  0.81267743  0.79956801  1
  P  P2  1  0.42290408  0.31059514  0.29988236  1
  P  P3  1  0.92292377  0.31070888  0.79974407  1
  P  P4  1  0.88765676  0.27730773  0.30005562  1
  P  P5  1  0.38757583  0.27741225  0.79985394  1
  P  P6  1  0.63958347  0.81398195  0.05126236  1
  P  P7  1  0.13785803  0.81041427  0.55006493  1
  P  P8  1  0.16742780  0.30369796  0.05275867  1
  P  P9  1  0.67439138  0.30896552  0.55113391  1
  P  P10  1  0.14142837  0.78255029  0.05159490  1
  P  P11  1  0.64156011  0.78260529  0.55153082  1
  P  P12  1  0.32148929  0.67969585  0.45395945  1
  P  P13  1  0.82841359  0.68289965  0.95273977  1
  P  P14  1  0.35080078  0.21629880  0.45378036  1
  P  P15  1  0.85072518  0.21629318  0.95367086  1
  P  P16  1  0.86732828  0.19059686  0.45473365  1
  P  P17  1  0.36679617  0.18835559  0.95375499  1
  P  P18  1  0.61744456  0.72198455  0.20498740  1
  P  P19  1  0.11741503  0.72209800  0.70476959  1
  P  P20  1  0.10424943  0.17725301  0.20543884  1
  P  P21  1  0.60460629  0.17781721  0.70509786  1
  P  P22  1  0.07292583  0.69032769  0.20520718  1
  P  P23  1  0.57291167  0.69044352  0.70506583  1
  P  P24  1  0.61492936  0.23004185  0.15530438  1
  P  P25  1  0.11512285  0.22996775  0.65530165  1
  P  P26  1  0.86674757  0.73117418  0.40454500  1
  P  P27  1  0.36622705  0.73262572  0.90376554  1
  Pb  Pb0  1  0.48428307  0.53939886  0.99256207  1
  Pb  Pb1  1  0.55551957  0.52380079  0.49223996  1
  Pb  Pb2  1  0.05373541  0.52278483  0.99261542  1
  O  O0  1  0.42913146  0.88055169  0.23965058  1
  O  O1  1  0.92973705  0.88062224  0.73939217  1
  O  O2  1  0.45114957  0.33107629  0.23972043  1
  O  O3  1  0.95109142  0.33118041  0.73960239  1
  O  O4  1  0.87974629  0.30914371  0.23992969  1
  O  O5  1  0.37990010  0.30908158  0.73972041  1
  O  O6  1  0.13102823  0.83198760  0.48993760  1
  O  O7  1  0.63300363  0.83642377  0.99089278  1
  O  O8  1  0.70402444  0.37715244  0.49072220  1
  O  O9  1  0.19552853  0.36981291  0.99208186  1
  O  O10  1  0.68113698  0.81595565  0.49109927  1
  O  O11  1  0.18029650  0.81592099  0.99119701  1
  O  O12  1  0.18665028  0.66010180  0.42405009  1
  O  O13  1  0.69817793  0.66486354  0.92036706  1
  O  O14  1  0.46022052  0.37813298  0.42019248  1
  O  O15  1  0.96028012  0.37814128  0.92010142  1
  O  O16  1  0.91882420  0.10933816  0.42356201  1
  O  O17  1  0.41641345  0.10353507  0.92379356  1
  O  O18  1  0.66878200  0.88586140  0.17379227  1
  O  O19  1  0.16885929  0.88613706  0.67365494  1
  O  O20  1  0.21682262  0.15578578  0.17478209  1
  O  O21  1  0.71745993  0.15781135  0.67382746  1
  O  O22  1  0.93896051  0.60886255  0.17464064  1
  O  O23  1  0.43897512  0.60889437  0.67453857  1
  O  O24  1  0.41677129  0.63067011  0.42836281  1
  O  O25  1  0.92444273  0.63338011  0.92812752  1
  O  O26  1  0.20098096  0.13969061  0.43220815  1
  O  O27  1  0.70096914  0.14011509  0.93200434  1
  O  O28  1  0.94110933  0.36172290  0.43196803  1
  O  O29  1  0.44184665  0.35805906  0.92816333  1
  O  O30  1  0.69143230  0.64692037  0.18264266  1
  O  O31  1  0.19106506  0.64709796  0.68219181  1
  O  O32  1  0.95528348  0.12631526  0.18297561  1
  O  O33  1  0.45535474  0.12652877  0.68279784  1
  O  O34  1  0.17083494  0.86122096  0.18231340  1
  O  O35  1  0.67078818  0.86141201  0.68227507  1
  O  O36  1  0.59404391  0.18838356  0.21707183  1
  O  O37  1  0.09415788  0.18827424  0.71708516  1
  O  O38  1  0.84979084  0.69216322  0.46650986  1
  O  O39  1  0.34697743  0.69562845  0.96585884  1
  O  O40  1  0.75706444  0.23333120  0.13593574  1
  O  O41  1  0.25723322  0.23311352  0.63586161  1
  O  O42  1  0.47647442  0.10796968  0.13604354  1
  O  O43  1  0.97661237  0.10790183  0.63607389  1
  O  O44  1  0.63136314  0.38805704  0.13580275  1
  O  O45  1  0.13147174  0.38787134  0.63592978  1
  O  O46  1  0.88060644  0.60723784  0.38574071  1
  O  O47  1  0.37942013  0.60717762  0.88576700  1
  O  O48  1  0.72717191  0.73433027  0.38589345  1
  O  O49  1  0.22783403  0.73636363  0.88449089  1
  O  O50  1  0.00804170  0.88833551  0.38452364  1
  O  O51  1  0.50895393  0.88855082  0.88403214  1
  O  O52  1  0.42539929  0.85832300  0.44530365  1
  O  O53  1  0.92948641  0.86096142  0.94477770  1
  O  O54  1  0.43069806  0.12556168  0.44495506  1
  O  O55  1  0.93048222  0.12536778  0.94474992  1
  O  O56  1  0.69669033  0.12322675  0.44524581  1
  O  O57  1  0.19622982  0.12232776  0.94502600  1
  O  O58  1  0.44691366  0.62893983  0.19564840  1
  O  O59  1  0.94692008  0.62909109  0.69541429  1
  O  O60  1  0.18179301  0.35704868  0.19572665  1
  O  O61  1  0.68173875  0.35737590  0.69563388  1
  O  O62  1  0.17567917  0.62259652  0.19554932  1
  O  O63  1  0.67569671  0.62272441  0.69548551  1
  O  O64  1  0.30767220  0.63472296  0.31128096  1
  O  O65  1  0.80766727  0.63504263  0.81107355  1
  O  O66  1  0.32691474  0.38116843  0.31126026  1
  O  O67  1  0.82683767  0.38115066  0.81118862  1
  O  O68  1  0.05417432  0.36160271  0.31141618  1
  O  O69  1  0.55410394  0.36163060  0.81123869  1
  O  O70  1  0.80590438  0.88287172  0.06215115  1
  O  O71  1  0.30431546  0.88067477  0.56167054  1
  O  O72  1  0.07142456  0.12747862  0.06328502  1
  O  O73  1  0.57742941  0.13224614  0.56194636  1
  O  O74  1  0.05866257  0.86602807  0.06273603  1
  O  O75  1  0.55863126  0.86604093  0.56254177  1
  O  O76  1  0.53270122  0.86570876  0.32651141  1
  O  O77  1  0.03228705  0.86579169  0.82648813  1
  O  O78  1  0.33357230  0.14163447  0.32714002  1
  O  O79  1  0.83364268  0.14178714  0.82709969  1
  O  O80  1  0.80741844  0.33942808  0.32706633  1
  O  O81  1  0.30685904  0.33947494  0.82661660  1
  O  O82  1  0.56069286  0.64568740  0.07976189  1
  O  O83  1  0.05799989  0.64103947  0.57702928  1
  O  O84  1  0.07880236  0.35617404  0.08039167  1
  O  O85  1  0.58461013  0.35910933  0.57965088  1
  O  O86  1  0.28517037  0.84467838  0.07761372  1
  O  O87  1  0.78492640  0.84446103  0.57771445  1
  O  O88  1  0.77266069  0.60721308  0.01166624  1
  O  O89  1  0.26654844  0.60397410  0.51287834  1
  O  O90  1  0.83598176  0.21612354  0.01239358  1
  O  O91  1  0.33634386  0.21635076  0.51253289  1
  O  O92  1  0.38309663  0.14994411  0.01263071  1
  O  O93  1  0.88222930  0.14715664  0.51345759  1
  O  O94  1  0.63229058  0.72169974  0.26367127  1
  O  O95  1  0.13238343  0.72152577  0.76347233  1
  O  O96  1  0.08875238  0.10395616  0.26424702  1
  O  O97  1  0.58961541  0.10398176  0.76382659  1
  O  O98  1  0.01522504  0.64698151  0.26405000  1
  O  O99  1  0.51508511  0.64710627  0.76390811  1
  O  O100  1  0.28115528  0.85361148  0.32111376  1
  O  O101  1  0.78142847  0.85509477  0.82030334  1
  O  O102  1  0.57373805  0.39790772  0.32041905  1
  O  O103  1  0.07368476  0.39788153  0.82035851  1
  O  O104  1  0.82486419  0.10645434  0.32119683  1
  O  O105  1  0.32498393  0.10665408  0.82113610  1
  O  O106  1  0.57603898  0.90087998  0.07189600  1
  O  O107  1  0.07447131  0.89687132  0.57128552  1
  O  O108  1  0.31495781  0.34219813  0.07537479  1
  O  O109  1  0.82519389  0.35151344  0.57168893  1
  O  O110  1  0.03275576  0.61285782  0.07498423  1
  O  O111  1  0.53263612  0.61285126  0.57476287  1
loop_
_geom_bond_atom_site_label_1
_geom_bond_atom_site_label_2
_geom_bond_distance
_geom_bond_site_symmetry_2
Ca0 O44 2.363305 1_555
Ca0 O22 2.421319 1_555
Ca0 O88 2.429083 1_555
Ca0 O30 2.474580 1_555
Ca0 O74 2.502954 1_655
Ca0 O70 2.541186 1_555
Ca0 O110 2.631916 1_655
Ca0 O82 2.689834 1_555
Ca1 O45 2.359517 1_555
Ca1 O89 2.402150 1_555
Ca1 O23 2.427615 1_555
Ca1 O31 2.475151 1_555
Ca1 O75 2.508235 1_555
Ca1 O71 2.533317 1_555
Ca1 O111 2.630814 1_555
Ca1 O83 2.706868 1_555
Ca2 O40 2.349798 1_555
Ca2 O90 2.401386 1_555
Ca2 O18 2.410988 1_545
Ca2 O70 2.487828 1_545
Ca2 O32 2.487885 1_555
Ca2 O72 2.505249 1_655
Ca2 O84 2.649643 1_655
Ca2 O106 2.667443 1_545
Ca3 O41 2.360207 1_555
Ca3 O91 2.393361 1_555
Ca3 O19 2.415451 1_545
Ca3 O33 2.488914 1_555
Ca3 O71 2.499039 1_545
Ca3 O73 2.540668 1_555
Ca3 O85 2.690248 1_555
Ca3 O107 2.699263 1_545
Ca4 O42 2.344515 1_555
Ca4 O92 2.408171 1_555
Ca4 O20 2.428546 1_555
Ca4 O34 2.474664 1_545
Ca4 O72 2.494513 1_555
Ca4 O74 2.509761 1_545
Ca4 O108 2.600309 1_555
Ca4 O86 2.684741 1_545
Ca5 O43 2.342943 1_555
Ca5 O93 2.380732 1_555
Ca5 O21 2.424563 1_555
Ca5 O35 2.478923 1_545
Ca5 O73 2.480560 1_555
Ca5 O75 2.514221 1_545
Ca5 O109 2.661992 1_555
Ca5 O87 2.681338 1_545
Ca6 O94 2.353994 1_555
Ca6 O48 2.375126 1_555
Ca6 O14 2.422205 1_555
Ca6 O24 2.449552 1_555
Ca6 O66 2.497413 1_555
Ca6 O64 2.527324 1_555
Ca6 O102 2.705028 1_555
Ca6 O76 2.711467 1_555
Ca7 O95 2.352086 1_555
Ca7 O49 2.369156 1_555
Ca7 O15 2.424242 1_455
Ca7 O25 2.429729 1_455
Ca7 O67 2.494296 1_455
Ca7 O65 2.529775 1_455
Ca7 O103 2.700894 1_555
Ca7 O77 2.715576 1_555
Ca8 O50 2.353534 1_545
Ca8 O96 2.358102 1_555
Ca8 O16 2.422546 1_455
Ca8 O26 2.464725 1_555
Ca8 O68 2.493922 1_555
Ca8 O66 2.538772 1_555
Ca8 O104 2.687153 1_455
Ca8 O78 2.705465 1_555
Ca9 O51 2.353478 1_545
Ca9 O97 2.367570 1_555
Ca9 O17 2.423869 1_555
Ca9 O27 2.461059 1_555
Ca9 O69 2.494647 1_555
Ca9 O67 2.536216 1_555
Ca9 O105 2.687790 1_555
Ca9 O79 2.703797 1_555
Ca10 O46 2.355335 1_455
Ca10 O98 2.363340 1_555
Ca10 O12 2.430378 1_555
Ca10 O28 2.475426 1_455
Ca10 O64 2.491069 1_555
Ca10 O68 2.546154 1_555
Ca10 O100 2.692261 1_555
Ca10 O80 2.719767 1_455
Ca11 O99 2.347484 1_555
Ca11 O47 2.374198 1_555
Ca11 O13 2.426437 1_555
Ca11 O29 2.442611 1_555
Ca11 O65 2.485301 1_555
Ca11 O69 2.537300 1_555
Ca11 O101 2.702331 1_555
Ca11 O81 2.718821 1_555
Ca12 O80 2.362237 1_555
Ca12 O8 2.423136 1_555
Ca12 O46 2.440403 1_555
Ca12 O102 2.463983 1_555
Ca12 O56 2.487550 1_555
Ca12 O54 2.543806 1_555
Ca12 O14 2.574557 1_555
Ca12 O28 2.792388 1_555
Ca13 O81 2.363316 1_555
Ca13 O9 2.443902 1_555
Ca13 O47 2.445248 1_555
Ca13 O103 2.457683 1_555
Ca13 O57 2.490425 1_555
Ca13 O55 2.538530 1_455
Ca13 O15 2.572267 1_455
Ca13 O29 2.792979 1_555
Ca14 O76 2.378267 1_555
Ca14 O10 2.417045 1_555
Ca14 O48 2.436193 1_555
Ca14 O104 2.450842 1_565
Ca14 O52 2.495523 1_555
Ca14 O56 2.538570 1_565
Ca14 O16 2.580339 1_565
Ca14 O24 2.791389 1_555
Ca15 O77 2.379443 1_555
Ca15 O11 2.419622 1_555
Ca15 O49 2.423329 1_555
Ca15 O105 2.446381 1_565
Ca15 O53 2.472244 1_455
Ca15 O57 2.535382 1_565
Ca15 O17 2.544414 1_565
Ca15 O25 2.746576 1_455
Ca16 O78 2.374133 1_565
Ca16 O6 2.394441 1_555
Ca16 O50 2.417707 1_555
Ca16 O100 2.461168 1_555
Ca16 O54 2.482650 1_565
Ca16 O52 2.526376 1_555
Ca16 O12 2.542001 1_555
Ca16 O26 2.760840 1_565
Ca17 O79 2.363072 1_565
Ca17 O51 2.419542 1_555
Ca17 O7 2.425193 1_555
Ca17 O101 2.464429 1_555
Ca17 O55 2.473255 1_565
Ca17 O13 2.539935 1_555
Ca17 O53 2.541770 1_555
Ca17 O27 2.765029 1_565
Ca18 O84 2.359380 1_555
Ca18 O4 2.369768 1_455
Ca18 O40 2.434235 1_455
Ca18 O110 2.450655 1_555
Ca18 O60 2.492201 1_555
Ca18 O62 2.528435 1_555
Ca18 O22 2.587159 1_455
Ca18 O32 2.799120 1_455
Ca19 O5 2.372005 1_555
Ca19 O85 2.377984 1_555
Ca19 O41 2.434608 1_555
Ca19 O111 2.451938 1_555
Ca19 O61 2.487341 1_555
Ca19 O63 2.531942 1_555
Ca19 O23 2.592802 1_555
Ca19 O33 2.794878 1_555
Ca20 O86 2.358788 1_555
Ca20 O0 2.381373 1_555
Ca20 O42 2.438392 1_565
Ca20 O106 2.448294 1_555
Ca20 O62 2.498418 1_555
Ca20 O58 2.533593 1_555
Ca20 O18 2.570665 1_555
Ca20 O34 2.783426 1_555
Ca21 O87 2.356287 1_555
Ca21 O1 2.379381 1_555
Ca21 O43 2.438698 1_565
Ca21 O107 2.458285 1_655
Ca21 O63 2.500528 1_555
Ca21 O59 2.529729 1_555
Ca21 O19 2.567359 1_655
Ca21 O35 2.789510 1_555
Ca22 O2 2.368086 1_555
Ca22 O82 2.377264 1_555
Ca22 O44 2.434760 1_555
Ca22 O108 2.447181 1_555
Ca22 O58 2.498405 1_555
Ca22 O60 2.517485 1_555
Ca22 O20 2.588017 1_555
Ca22 O30 2.800440 1_555
Ca23 O83 2.375474 1_655
Ca23 O3 2.385619 1_555
Ca23 O45 2.431673 1_655
Ca23 O109 2.454920 1_555
Ca23 O59 2.505912 1_555
Ca23 O61 2.529259 1_555
Ca23 O21 2.578156 1_555
Ca23 O31 2.798642 1_655
Ca24 O20 2.402492 1_555
Ca24 O100 2.444616 1_545
Ca24 O34 2.574735 1_545
Ca24 O0 2.585313 1_545
Ca24 O78 2.597725 1_555
Ca24 O36 2.600813 1_555
Ca24 O2 2.638433 1_555
Ca24 O96 2.799406 1_555
Ca24 O42 3.025342 1_555
Ca25 O21 2.420698 1_555
Ca25 O101 2.428397 1_545
Ca25 O35 2.571784 1_545
Ca25 O1 2.591068 1_545
Ca25 O37 2.598815 1_655
Ca25 O79 2.602391 1_555
Ca25 O3 2.637006 1_555
Ca25 O97 2.789891 1_555
Ca25 O43 3.019129 1_555
Ca26 O22 2.402208 1_555
Ca26 O102 2.422992 1_555
Ca26 O30 2.556403 1_555
Ca26 O2 2.583244 1_555
Ca26 O80 2.587227 1_555
Ca26 O36 2.616099 1_555
Ca26 O4 2.626588 1_555
Ca26 O98 2.805261 1_655
Ca26 O44 3.034299 1_555
Ca27 O23 2.402214 1_555
Ca27 O103 2.425252 1_555
Ca27 O31 2.563858 1_555
Ca27 O81 2.578356 1_555
Ca27 O3 2.582662 1_455
Ca27 O37 2.613308 1_555
Ca27 O5 2.628364 1_555
Ca27 O99 2.806239 1_555
Ca27 O45 3.026363 1_555
Ca28 O18 2.431780 1_545
Ca28 O104 2.453668 1_555
Ca28 O32 2.543958 1_555
Ca28 O76 2.571568 1_545
Ca28 O4 2.596814 1_555
Ca28 O36 2.606191 1_555
Ca28 O0 2.628705 1_545
Ca28 O94 2.799124 1_545
Ca28 O40 3.028157 1_555
Ca29 O19 2.432119 1_545
Ca29 O105 2.455016 1_555
Ca29 O33 2.547310 1_555
Ca29 O77 2.573109 1_545
Ca29 O5 2.595539 1_555
Ca29 O37 2.602217 1_555
Ca29 O1 2.622315 1_445
Ca29 O95 2.801970 1_545
Ca29 O41 3.026541 1_555
Ca30 O16 2.428270 1_565
Ca30 O107 2.445471 1_655
Ca30 O26 2.515937 1_665
Ca30 O87 2.582793 1_555
Ca30 O6 2.594092 1_655
Ca30 O38 2.602375 1_555
Ca30 O10 2.608408 1_555
Ca30 O93 2.788675 1_565
Ca31 O17 2.403761 1_565
Ca31 O106 2.450462 1_556
Ca31 O27 2.521452 1_565
Ca31 O7 2.571676 1_555
Ca31 O86 2.575544 1_556
Ca31 O39 2.580337 1_555
Ca31 O11 2.617351 1_555
Ca31 O92 2.801782 1_566
Ca32 O12 2.393950 1_655
Ca32 O109 2.449812 1_555
Ca32 O8 2.559707 1_555
Ca32 O28 2.579257 1_555
Ca32 O38 2.589774 1_555
Ca32 O83 2.591643 1_655
Ca32 O6 2.649120 1_655
Ca32 O89 2.804500 1_655
Ca32 O46 3.038397 1_555
In0 O58 2.165764 1_555
In0 O62 2.167431 1_555
In0 O60 2.175913 1_555
In0 O68 2.189387 1_555
In0 O66 2.190685 1_555
In0 O64 2.199591 1_555
In1 O59 2.165402 1_555
In1 O63 2.167213 1_555
In1 O61 2.173332 1_555
In1 O69 2.191023 1_555
In1 O67 2.191138 1_555
In1 O65 2.199726 1_555
In2 O55 2.167238 1_564
In2 O57 2.168076 1_664
In2 O53 2.172284 1_554
In2 O74 2.189073 1_655
In2 O70 2.190971 1_555
In2 O72 2.191382 1_665
In3 O54 2.164230 1_565
In3 O56 2.168807 1_565
In3 O52 2.175929 1_555
In3 O75 2.185681 1_555
In3 O71 2.192718 1_555
In3 O73 2.198596 1_565
O0 P0 1.539865 1_555
O1 P1 1.539838 1_555
O2 P2 1.540394 1_555
O3 P3 1.539792 1_555
O4 P4 1.539704 1_555
O5 P5 1.539430 1_555
O6 P7 1.538158 1_555
O7 P6 1.543708 1_556
O7 Pb0 2.711766 1_555
O8 P9 1.545356 1_555
O8 Pb1 2.700573 1_555
O9 P8 1.548917 1_556
O9 Pb0 2.651875 1_555
O9 Pb2 2.694776 1_555
O10 P11 1.544740 1_555
O10 Pb1 2.679064 1_555
O11 P10 1.542727 1_556
O11 Pb2 2.686018 1_555
O12 P12 1.561092 1_555
O13 P13 1.559173 1_555
O13 Pb0 2.517637 1_555
O14 P14 1.559959 1_555
O14 Pb1 2.555131 1_555
O15 P15 1.560163 1_555
O15 Pb2 2.557746 1_655
O16 P16 1.561349 1_555
O17 P17 1.560966 1_555
O18 P18 1.561160 1_555
O19 P19 1.561746 1_555
O20 P20 1.559497 1_555
O21 P21 1.560947 1_555
O22 P22 1.560011 1_655
O23 P23 1.559368 1_555
O24 P12 1.541684 1_555
O24 Pb1 2.653542 1_555
O25 P13 1.539484 1_555
O25 Pb2 2.609641 1_655
O26 P14 1.540357 1_555
O27 P15 1.540600 1_555
O28 P16 1.543687 1_555
O29 P17 1.542398 1_555
O29 Pb0 2.672052 1_555
O30 P18 1.542433 1_555
O31 P19 1.542086 1_555
O32 P20 1.542504 1_655
O33 P21 1.542838 1_555
O34 P22 1.542532 1_555
O35 P23 1.542725 1_555
O36 P24 1.558202 1_555
O37 P25 1.558607 1_555
O38 P26 1.563646 1_555
O38 Pb1 2.687606 1_555
O39 P27 1.567076 1_555
O39 Pb2 2.683940 1_555
O39 Pb0 2.685199 1_555
O40 P24 1.560181 1_555
O41 P25 1.561317 1_555
O42 P24 1.559434 1_555
O43 P25 1.559289 1_655
O44 P24 1.562049 1_555
O45 P25 1.560962 1_555
O46 P26 1.559026 1_555
O47 P27 1.560622 1_555
O48 P26 1.561807 1_555
O49 P27 1.557639 1_555
O50 P26 1.556343 1_455
O51 P27 1.555255 1_555
O52 P12 1.605560 1_555
O53 P13 1.600060 1_555
O54 P14 1.604861 1_555
O55 P15 1.606079 1_555
O56 P16 1.610365 1_555
O57 P17 1.606245 1_555
O58 P18 1.608825 1_555
O59 P19 1.608601 1_655
O60 P20 1.611664 1_555
O61 P21 1.610350 1_555
O62 P22 1.610135 1_555
O63 P23 1.609834 1_555
O64 P0 1.584367 1_555
O65 P1 1.585093 1_555
O66 P2 1.583676 1_555
O67 P3 1.583906 1_555
O68 P4 1.583194 1_455
O69 P5 1.583437 1_555
O70 P6 1.578362 1_555
O71 P7 1.584145 1_555
O72 P8 1.574410 1_555
O73 P9 1.578815 1_555
O74 P10 1.579209 1_555
O75 P11 1.579244 1_555
O76 P0 1.543084 1_555
O77 P1 1.542662 1_455
O78 P2 1.542401 1_555
O79 P3 1.542634 1_555
O80 P4 1.542581 1_555
O81 P5 1.542454 1_555
O82 P6 1.544676 1_555
O82 Pb0 2.681185 1_554
O83 P7 1.544243 1_555
O84 P8 1.540486 1_555
O84 Pb2 2.679593 1_554
O85 P9 1.543977 1_555
O85 Pb1 2.680366 1_555
O86 P10 1.540128 1_555
O87 P11 1.539268 1_555
O88 P13 1.534003 1_554
O88 Pb0 2.821176 1_554
O89 P12 1.532857 1_555
O90 P15 1.532531 1_554
O90 Pb2 2.816070 1_654
O91 P14 1.533598 1_555
O91 Pb1 2.824867 1_555
O92 P17 1.531970 1_554
O93 P16 1.531545 1_555
O94 P18 1.531862 1_555
O95 P19 1.532026 1_555
O96 P20 1.531720 1_555
O97 P21 1.532099 1_555
O98 P22 1.532153 1_555
O99 P23 1.532477 1_555
O100 P0 1.549465 1_555
O101 P1 1.549427 1_555
O102 P2 1.549565 1_555
O103 P3 1.549721 1_455
O104 P4 1.549489 1_555
O105 P5 1.549354 1_555
O106 P6 1.547289 1_555
O107 P7 1.549188 1_555
O108 P8 1.547040 1_555
O108 Pb0 2.567506 1_554
O109 P9 1.548164 1_555
O110 P10 1.549028 1_555
O110 Pb2 2.565268 1_554
O111 P11 1.549297 1_555
O111 Pb1 2.568060 1_555
