# generated using pymatgen
data_Lu4NiB13
_symmetry_space_group_name_H-M   'P 1'
_cell_length_a   7.21999500
_cell_length_b   7.21999500
_cell_length_c   6.75411600
_cell_angle_alpha   90.00000000
_cell_angle_beta   90.00000000
_cell_angle_gamma   90.00000000
_symmetry_Int_Tables_number   1
_chemical_formula_structural   Lu4NiB13
_chemical_formula_sum   'Lu8 Ni2 B26'
_cell_volume   352.08077285
_cell_formula_units_Z   2
loop_
 _symmetry_equiv_pos_site_id
 _symmetry_equiv_pos_as_xyz
  1  'x, y, z'
loop_
 _atom_site_type_symbol
 _atom_site_label
 _atom_site_symmetry_multiplicity
 _atom_site_fract_x
 _atom_site_fract_y
 _atom_site_fract_z
 _atom_site_occupancy
  Lu  Lu0  1  0.68486700  0.17986800  0.50000000  1
  Lu  Lu1  1  0.31513300  0.82013200  0.50000000  1
  Lu  Lu2  1  0.18486700  0.32013200  0.00000000  1
  Lu  Lu3  1  0.81513300  0.67986800  0.00000000  1
  Lu  Lu4  1  0.82013200  0.68486700  0.50000000  1
  Lu  Lu5  1  0.17986800  0.31513300  0.50000000  1
  Lu  Lu6  1  0.67986800  0.18486700  0.00000000  1
  Lu  Lu7  1  0.32013200  0.81513300  0.00000000  1
  Ni  Ni0  1  0.50000000  0.50000000  0.50000000  1
  Ni  Ni1  1  0.00000000  0.00000000  0.00000000  1
  B  B0  1  0.50000000  0.50000000  0.00000000  1
  B  B1  1  0.00000000  0.00000000  0.50000000  1
  B  B2  1  0.90916200  0.40916200  0.25000000  1
  B  B3  1  0.09083800  0.59083800  0.25000000  1
  B  B4  1  0.40916200  0.09083800  0.75000000  1
  B  B5  1  0.59083800  0.90916200  0.75000000  1
  B  B6  1  0.59083800  0.90916200  0.25000000  1
  B  B7  1  0.40916200  0.09083800  0.25000000  1
  B  B8  1  0.90916200  0.40916200  0.75000000  1
  B  B9  1  0.09083800  0.59083800  0.75000000  1
  B  B10  1  0.53955900  0.67145900  0.24341000  1
  B  B11  1  0.46044100  0.32854100  0.24341000  1
  B  B12  1  0.03955900  0.82854100  0.74341000  1
  B  B13  1  0.96044100  0.17145900  0.74341000  1
  B  B14  1  0.32854100  0.53955900  0.24341000  1
  B  B15  1  0.67145900  0.46044100  0.24341000  1
  B  B16  1  0.17145900  0.03955900  0.74341000  1
  B  B17  1  0.82854100  0.96044100  0.74341000  1
  B  B18  1  0.46044100  0.32854100  0.75659000  1
  B  B19  1  0.53955900  0.67145900  0.75659000  1
  B  B20  1  0.96044100  0.17145900  0.25659000  1
  B  B21  1  0.03955900  0.82854100  0.25659000  1
  B  B22  1  0.67145900  0.46044100  0.75659000  1
  B  B23  1  0.32854100  0.53955900  0.75659000  1
  B  B24  1  0.82854100  0.96044100  0.25659000  1
  B  B25  1  0.17145900  0.03955900  0.25659000  1
loop_
_geom_bond_atom_site_label_1
_geom_bond_atom_site_label_2
_geom_bond_distance
_geom_bond_site_symmetry_2
Lu0 Ni0 2.669058 1_555
Lu1 Ni0 2.669058 1_555
Lu2 Ni1 2.669058 1_555
Lu3 Ni1 2.669058 1_665
Lu4 Ni0 2.669058 1_555
Lu5 Ni0 2.669058 1_555
Lu6 Ni1 2.669058 1_655
Lu7 Ni1 2.669058 1_565
B0 B23 2.077704 1_554
B0 B14 2.077704 1_555
B0 B11 2.077704 1_555
B0 B18 2.077704 1_554
B0 B10 2.077704 1_555
B0 B22 2.077704 1_554
B0 B15 2.077704 1_555
B0 B19 2.077704 1_554
B0 Lu2 2.619787 1_555
B0 Lu6 2.619787 1_555
B0 Lu3 2.619787 1_555
B0 Lu7 2.619787 1_555
B1 B20 2.077704 1_455
B1 B17 2.077704 1_445
B1 B13 2.077704 1_455
B1 B24 2.077704 1_445
B1 B25 2.077704 1_555
B1 B16 2.077704 1_555
B1 B12 2.077704 1_545
B1 B21 2.077704 1_545
B1 Lu0 2.619787 1_455
B1 Lu4 2.619787 1_445
B1 Lu5 2.619787 1_555
B1 Lu1 2.619787 1_545
B2 B20 1.756259 1_555
B2 B3 1.855024 1_655
B2 Lu5 2.670594 1_655
B2 Lu3 2.670594 1_555
B2 Lu4 2.688263 1_555
B2 Lu2 2.688263 1_655
B2 Lu0 2.866060 1_555
B2 Lu6 2.866060 1_555
B3 Lu2 2.670594 1_555
B3 Lu4 2.670594 1_455
B3 Lu5 2.688263 1_555
B3 Lu3 2.688263 1_455
B3 Lu7 2.866060 1_555
B3 Lu1 2.866060 1_555
B4 B5 1.855024 1_545
B4 Lu1 2.670594 1_545
B4 Lu6 2.670594 1_556
B4 Lu7 2.688263 1_546
B4 Lu0 2.688263 1_555
B4 Lu2 2.866060 1_556
B4 Lu5 2.866060 1_555
B5 Lu0 2.670594 1_565
B5 Lu7 2.670594 1_556
B5 Lu1 2.688263 1_555
B5 Lu6 2.688263 1_566
B5 Lu4 2.866060 1_555
B5 Lu3 2.866060 1_556
B6 B7 1.855024 1_565
B6 Lu0 2.670594 1_565
B6 Lu7 2.670594 1_555
B6 Lu1 2.688263 1_555
B6 Lu6 2.688263 1_565
B6 Lu3 2.866060 1_555
B6 Lu4 2.866060 1_555
B7 Lu6 2.670594 1_555
B7 Lu1 2.670594 1_545
B7 Lu7 2.688263 1_545
B7 Lu0 2.688263 1_555
B7 Lu5 2.866060 1_555
B7 Lu2 2.866060 1_555
B8 B9 1.855024 1_655
B8 Lu5 2.670594 1_655
B8 Lu3 2.670594 1_556
B8 Lu4 2.688263 1_555
B8 Lu2 2.688263 1_656
B8 Lu0 2.866060 1_555
B8 Lu6 2.866060 1_556
B9 Lu2 2.670594 1_556
B9 Lu4 2.670594 1_455
B9 Lu3 2.688263 1_456
B9 Lu5 2.688263 1_555
B9 Lu7 2.866060 1_556
B9 Lu1 2.866060 1_555
B10 B6 1.756259 1_555
B10 B14 1.796694 1_555
B10 B15 1.796694 1_555
B10 Ni0 2.148832 1_555
B10 Lu7 2.507734 1_555
B10 Lu3 2.581698 1_555
B10 Lu1 2.604073 1_555
B10 Lu4 2.667658 1_555
B11 B7 1.756259 1_555
B11 B14 1.796694 1_555
B11 B15 1.796694 1_555
B11 Ni0 2.148832 1_555
B11 Lu6 2.507734 1_555
B11 Lu2 2.581698 1_555
B11 Lu0 2.604073 1_555
B11 Lu5 2.667658 1_555
B12 B9 1.756259 1_555
B12 B16 1.796694 1_565
B12 B17 1.796694 1_455
B12 Ni1 2.148832 1_566
B12 Lu4 2.507734 1_455
B12 Lu1 2.581698 1_555
B12 Lu3 2.604073 1_456
B12 Lu7 2.667658 1_556
B13 B8 1.756259 1_555
B13 B17 1.796694 1_545
B13 B16 1.796694 1_655
B13 Ni1 2.148832 1_656
B13 Lu5 2.507734 1_655
B13 Lu0 2.581698 1_555
B13 Lu2 2.604073 1_656
B13 Lu6 2.667658 1_556
B14 B3 1.756259 1_555
B14 Ni0 2.148832 1_555
B14 Lu2 2.507734 1_555
B14 Lu7 2.581698 1_555
B14 Lu5 2.604073 1_555
B14 Lu1 2.667658 1_555
B15 B2 1.756259 1_555
B15 Ni0 2.148832 1_555
B15 Lu3 2.507734 1_555
B15 Lu6 2.581698 1_555
B15 Lu4 2.604073 1_555
B15 Lu0 2.667658 1_555
B16 B4 1.756259 1_555
B16 Ni1 2.148832 1_556
B16 Lu1 2.507734 1_545
B16 Lu5 2.581698 1_555
B16 Lu7 2.604073 1_546
B16 Lu2 2.667658 1_556
B17 B5 1.756259 1_555
B17 Ni1 2.148832 1_666
B17 Lu0 2.507734 1_565
B17 Lu4 2.581698 1_555
B17 Lu6 2.604073 1_566
B17 Lu3 2.667658 1_556
B18 B4 1.756259 1_555
B18 B22 1.796694 1_555
B18 B23 1.796694 1_555
B18 Ni0 2.148832 1_555
B18 Lu6 2.507734 1_556
B18 Lu2 2.581698 1_556
B18 Lu0 2.604073 1_555
B18 Lu5 2.667658 1_555
B19 B5 1.756259 1_555
B19 B23 1.796694 1_555
B19 B22 1.796694 1_555
B19 Ni0 2.148832 1_555
B19 Lu7 2.507734 1_556
B19 Lu3 2.581698 1_556
B19 Lu1 2.604073 1_555
B19 Lu4 2.667658 1_555
B20 B24 1.796694 1_545
B20 B25 1.796694 1_655
B20 Ni1 2.148832 1_655
B20 Lu5 2.507734 1_655
B20 Lu0 2.581698 1_555
B20 Lu2 2.604073 1_655
B20 Lu6 2.667658 1_555
B21 B3 1.756259 1_555
B21 B25 1.796694 1_565
B21 B24 1.796694 1_455
B21 Ni1 2.148832 1_565
B21 Lu4 2.507734 1_455
B21 Lu1 2.581698 1_555
B21 Lu3 2.604073 1_455
B21 Lu7 2.667658 1_555
B22 B8 1.756259 1_555
B22 Ni0 2.148832 1_555
B22 Lu3 2.507734 1_556
B22 Lu6 2.581698 1_556
B22 Lu4 2.604073 1_555
B22 Lu0 2.667658 1_555
B23 B9 1.756259 1_555
B23 Ni0 2.148832 1_555
B23 Lu2 2.507734 1_556
B23 Lu7 2.581698 1_556
B23 Lu5 2.604073 1_555
B23 Lu1 2.667658 1_555
B24 B6 1.756259 1_555
B24 Ni1 2.148832 1_665
B24 Lu0 2.507734 1_565
B24 Lu4 2.581698 1_555
B24 Lu6 2.604073 1_565
B24 Lu3 2.667658 1_555
B25 B7 1.756259 1_555
B25 Ni1 2.148832 1_555
B25 Lu1 2.507734 1_545
B25 Lu5 2.581698 1_555
B25 Lu7 2.604073 1_545
B25 Lu2 2.667658 1_555
