# generated using pymatgen
data_Tb2MgS4
_symmetry_space_group_name_H-M   'P 1'
_cell_length_a   7.96763300
_cell_length_b   7.28631800
_cell_length_c   11.48953400
_cell_angle_alpha   90.00000000
_cell_angle_beta   90.00000000
_cell_angle_gamma   90.00000000
_symmetry_Int_Tables_number   1
_chemical_formula_structural   Tb2MgS4
_chemical_formula_sum   'Tb8 Mg4 S16'
_cell_volume   667.02153850
_cell_formula_units_Z   4
loop_
 _symmetry_equiv_pos_site_id
 _symmetry_equiv_pos_as_xyz
  1  'x, y, z'
loop_
 _atom_site_type_symbol
 _atom_site_label
 _atom_site_symmetry_multiplicity
 _atom_site_fract_x
 _atom_site_fract_y
 _atom_site_fract_z
 _atom_site_occupancy
  Tb  Tb0  1  0.04106200  0.75000000  0.30873300  1
  Tb  Tb1  1  0.95893800  0.25000000  0.69126700  1
  Tb  Tb2  1  0.45893800  0.25000000  0.80873300  1
  Tb  Tb3  1  0.54106200  0.75000000  0.19126700  1
  Tb  Tb4  1  0.07311300  0.25000000  0.02160300  1
  Tb  Tb5  1  0.92688700  0.75000000  0.97839700  1
  Tb  Tb6  1  0.42688700  0.75000000  0.52160300  1
  Tb  Tb7  1  0.57311300  0.25000000  0.47839700  1
  Mg  Mg0  1  0.18157800  0.25000000  0.40862200  1
  Mg  Mg1  1  0.81842200  0.75000000  0.59137800  1
  Mg  Mg2  1  0.31842200  0.75000000  0.90862200  1
  Mg  Mg3  1  0.68157800  0.25000000  0.09137800  1
  S  S0  1  0.13059000  0.50117700  0.84311400  1
  S  S1  1  0.86941000  0.49882300  0.15688600  1
  S  S2  1  0.36941000  0.49882300  0.34311400  1
  S  S3  1  0.63059000  0.50117700  0.65688600  1
  S  S4  1  0.63059000  0.99882300  0.65688600  1
  S  S5  1  0.36941000  0.00117700  0.34311400  1
  S  S6  1  0.86941000  0.00117700  0.15688600  1
  S  S7  1  0.13059000  0.99882300  0.84311400  1
  S  S8  1  0.89683200  0.25000000  0.45586400  1
  S  S9  1  0.10316800  0.75000000  0.54413600  1
  S  S10  1  0.60316800  0.75000000  0.95586400  1
  S  S11  1  0.39683200  0.25000000  0.04413600  1
  S  S12  1  0.22030200  0.75000000  0.10947000  1
  S  S13  1  0.77969800  0.25000000  0.89053000  1
  S  S14  1  0.27969800  0.25000000  0.60947000  1
  S  S15  1  0.72030200  0.75000000  0.39053000  1
loop_
_geom_bond_atom_site_label_1
_geom_bond_atom_site_label_2
_geom_bond_distance
_geom_bond_site_symmetry_2
Mg0 S8 2.332778 1_455
Mg0 S14 2.436480 1_555
Mg0 S2 2.468444 1_555
Mg0 S5 2.468444 1_555
Mg1 S9 2.332778 1_655
Mg1 S15 2.436480 1_555
Mg1 S3 2.468444 1_555
Mg1 S4 2.468444 1_555
Mg2 S10 2.332778 1_555
Mg2 S12 2.436480 1_556
Mg2 S7 2.468444 1_555
Mg2 S0 2.468444 1_555
Mg3 S11 2.332778 1_555
Mg3 S13 2.436480 1_554
Mg3 S6 2.468444 1_555
Mg3 S1 2.468444 1_555
S0 Tb4 2.786537 1_556
S0 Tb1 2.874678 1_455
S0 Tb5 2.887417 1_455
S0 Tb2 3.217108 1_555
S1 Tb5 2.786537 1_554
S1 Tb0 2.874678 1_655
S1 Tb4 2.887417 1_655
S1 Tb3 3.217108 1_555
S2 Tb6 2.786537 1_555
S2 Tb3 2.874678 1_555
S2 Tb7 2.887417 1_555
S2 Tb0 3.217108 1_555
S3 Tb7 2.786537 1_555
S3 Tb2 2.874678 1_555
S3 Tb6 2.887417 1_555
S3 Tb1 3.217108 1_555
S4 Tb7 2.786537 1_565
S4 Tb2 2.874678 1_565
S4 Tb6 2.887417 1_555
S4 Tb1 3.217108 1_565
S5 Tb6 2.786537 1_545
S5 Tb3 2.874678 1_545
S5 Tb7 2.887417 1_555
S5 Tb0 3.217108 1_545
S6 Tb5 2.786537 1_544
S6 Tb0 2.874678 1_645
S6 Tb4 2.887417 1_655
S6 Tb3 3.217108 1_545
S7 Tb4 2.786537 1_566
S7 Tb1 2.874678 1_465
S7 Tb5 2.887417 1_455
S7 Tb2 3.217108 1_565
S8 Tb7 2.592235 1_555
S8 Tb1 2.749565 1_555
S9 Tb6 2.592235 1_555
S9 Tb0 2.749565 1_555
S10 Tb5 2.592235 1_555
S10 Tb3 2.749565 1_556
S11 Tb4 2.592235 1_555
S11 Tb2 2.749565 1_554
S12 Tb0 2.698343 1_555
S12 Tb3 2.723019 1_555
S12 Tb5 2.780891 1_454
S13 Tb1 2.698343 1_555
S13 Tb2 2.723019 1_555
S13 Tb4 2.780891 1_656
S14 Tb2 2.698343 1_555
S14 Tb1 2.723019 1_455
S14 Tb7 2.780891 1_555
S15 Tb3 2.698343 1_555
S15 Tb0 2.723019 1_655
S15 Tb6 2.780891 1_555
