# generated using pymatgen
data_Ca4Si6W3O19
_symmetry_space_group_name_H-M   'P 1'
_cell_length_a   23.58011588
_cell_length_b   23.21259559
_cell_length_c   6.71467724
_cell_angle_alpha   84.86704492
_cell_angle_beta   78.65668607
_cell_angle_gamma   16.47626901
_symmetry_Int_Tables_number   1
_chemical_formula_structural   Ca4Si6W3O19
_chemical_formula_sum   'Ca8 Si12 W6 O38'
_cell_volume   954.86072134
_cell_formula_units_Z   2
loop_
 _symmetry_equiv_pos_site_id
 _symmetry_equiv_pos_as_xyz
  1  'x, y, z'
loop_
 _atom_site_type_symbol
 _atom_site_label
 _atom_site_symmetry_multiplicity
 _atom_site_fract_x
 _atom_site_fract_y
 _atom_site_fract_z
 _atom_site_occupancy
  Ca  Ca0  1  0.96772300  0.32433700  0.16491400  1
  Ca  Ca1  1  0.16491400  0.54302600  0.96772300  1
  Ca  Ca2  1  0.92566300  0.28227700  0.70697400  1
  Ca  Ca3  1  0.70697400  0.08508600  0.92566300  1
  Ca  Ca4  1  0.41612400  0.79244200  0.20652300  1
  Ca  Ca5  1  0.20652300  0.58491100  0.41612400  1
  Ca  Ca6  1  0.45755800  0.83387600  0.66508900  1
  Ca  Ca7  1  0.66508900  0.04347700  0.45755800  1
  Si  Si0  1  0.43855100  0.71908900  0.69324600  1
  Si  Si1  1  0.69324600  0.14911500  0.43855100  1
  Si  Si2  1  0.53091100  0.81144900  0.10088500  1
  Si  Si3  1  0.10088500  0.55675400  0.53091100  1
  Si  Si4  1  0.85400700  0.30472600  0.26683100  1
  Si  Si5  1  0.26683100  0.57443500  0.85400700  1
  Si  Si6  1  0.94527400  0.39599300  0.67556500  1
  Si  Si7  1  0.67556500  0.98316900  0.94527400  1
  Si  Si8  1  0.23048900  0.20356800  0.27117200  1
  Si  Si9  1  0.27117200  0.29477200  0.23048900  1
  Si  Si10  1  0.04643200  0.01951100  0.95522800  1
  Si  Si11  1  0.95522800  0.97882800  0.04643200  1
  W  W0  1  0.45441000  0.54559000  0.45441000  1
  W  W1  1  0.70441000  0.79559000  0.70441000  1
  W  W2  1  0.95571000  0.07594600  0.51180500  1
  W  W3  1  0.51180500  0.45653900  0.95571000  1
  W  W4  1  0.17405400  0.29429000  0.79346100  1
  W  W5  1  0.79346100  0.73819500  0.17405400  1
  O  O0  1  0.03526300  0.15992000  0.32818700  1
  O  O1  1  0.32818700  0.47663000  0.03526300  1
  O  O2  1  0.09008000  0.21473700  0.77337000  1
  O  O3  1  0.77337000  0.92181300  0.09008000  1
  O  O4  1  0.28798200  0.77052400  0.40093100  1
  O  O5  1  0.40093100  0.54056300  0.28798200  1
  O  O6  1  0.47947600  0.96201800  0.70943700  1
  O  O7  1  0.70943700  0.84906900  0.47947600  1
  O  O8  1  0.92570400  0.17100900  0.17416500  1
  O  O9  1  0.17416500  0.72912100  0.92570400  1
  O  O10  1  0.07899100  0.32429600  0.52087900  1
  O  O11  1  0.52087900  0.07583500  0.07899100  1
  O  O12  1  0.84679700  0.45279900  0.54427900  1
  O  O13  1  0.54427900  0.15612500  0.84679700  1
  O  O14  1  0.79720100  0.40320300  0.09387500  1
  O  O15  1  0.09387500  0.70572100  0.79720100  1
  O  O16  1  0.59099500  0.71218100  0.27746700  1
  O  O17  1  0.27746700  0.41935600  0.59099500  1
  O  O18  1  0.53781900  0.65900500  0.83064400  1
  O  O19  1  0.83064400  0.97253300  0.53781900  1
  O  O20  1  0.45464300  0.94992100  0.18524200  1
  O  O21  1  0.18524200  0.41019400  0.45464300  1
  O  O22  1  0.30007900  0.79535700  0.83980600  1
  O  O23  1  0.83980600  0.06475800  0.30007900  1
  O  O24  1  0.09271200  0.34006500  0.12194600  1
  O  O25  1  0.12194600  0.44527700  0.09271200  1
  O  O26  1  0.90993500  0.15728800  0.80472300  1
  O  O27  1  0.80472300  0.12805400  0.90993500  1
  O  O28  1  0.49106600  0.37374300  0.63667300  1
  O  O29  1  0.63667300  0.49851900  0.49106600  1
  O  O30  1  0.87625700  0.75893400  0.75148100  1
  O  O31  1  0.75148100  0.61332700  0.87625700  1
  O  O32  1  0.06441300  0.93558700  0.06441300  1
  O  O33  1  0.31441300  0.18558700  0.31441300  1
  O  O34  1  0.35108800  0.95128300  0.04594300  1
  O  O35  1  0.04594300  0.65168600  0.35108800  1
  O  O36  1  0.29871700  0.89891200  0.59831400  1
  O  O37  1  0.59831400  0.20405700  0.29871700  1
loop_
_geom_bond_atom_site_label_1
_geom_bond_atom_site_label_2
_geom_bond_distance
_geom_bond_site_symmetry_2
Ca0 O34 2.368258 1_645
Ca0 O12 2.388726 1_555
Ca0 O16 2.393732 1_555
Ca0 O2 2.417478 1_654
Ca0 O14 2.495490 1_555
Ca0 O0 2.566160 1_655
Ca1 O35 2.368258 1_556
Ca1 O13 2.388726 1_555
Ca1 O17 2.393738 1_555
Ca1 O3 2.417478 1_456
Ca1 O15 2.495490 1_555
Ca1 O1 2.566160 1_556
Ca2 O36 2.368258 1_645
Ca2 O14 2.388726 1_556
Ca2 O18 2.393732 1_555
Ca2 O0 2.417478 1_655
Ca2 O12 2.495490 1_555
Ca2 O2 2.566160 1_655
Ca3 O37 2.368258 1_556
Ca3 O15 2.388726 1_645
Ca3 O19 2.393731 1_545
Ca3 O1 2.417478 1_556
Ca3 O13 2.495490 1_555
Ca3 O3 2.566160 1_546
Ca4 O0 2.350035 1_565
Ca4 O18 2.387837 1_554
Ca4 O14 2.406543 1_555
Ca4 O36 2.422676 1_555
Ca4 O34 2.490757 1_555
Ca4 O16 2.565384 1_555
Ca5 O1 2.350035 1_555
Ca5 O19 2.387842 1_455
Ca5 O15 2.406543 1_555
Ca5 O37 2.422676 1_555
Ca5 O35 2.490757 1_555
Ca5 O17 2.565404 1_555
Ca6 O2 2.350035 1_565
Ca6 O16 2.387843 1_555
Ca6 O12 2.406543 1_555
Ca6 O34 2.422676 1_556
Ca6 O36 2.490757 1_555
Ca6 O18 2.565387 1_555
Ca7 O3 2.350035 1_545
Ca7 O17 2.387843 1_555
Ca7 O13 2.406543 1_555
Ca7 O35 2.422676 1_645
Ca7 O37 2.490757 1_555
Ca7 O19 2.565407 1_545
O0 Si4 1.620959 1_455
O1 Si5 1.620948 1_554
O2 Si6 1.620955 1_455
O3 Si7 1.620942 1_554
O4 W0 1.926804 1_555
O4 W2 2.078836 1_465
O5 W0 1.926804 1_555
O5 W3 2.078836 1_554
O6 W1 1.926804 1_555
O6 W4 2.078836 1_565
O7 W1 1.926804 1_555
O7 W5 2.078836 1_555
O8 Si10 1.646467 1_654
O8 Si4 1.657496 1_555
O8 W2 2.692832 1_555
O9 Si11 1.646467 1_456
O9 Si5 1.657496 1_555
O9 W3 2.692844 1_555
O10 Si8 1.646467 1_555
O10 Si6 1.657496 1_455
O10 W4 2.692827 1_555
O11 Si9 1.646467 1_555
O11 Si7 1.657496 1_544
O11 W5 2.692841 1_545
O12 Si6 1.622596 1_555
O13 Si7 1.622582 1_545
O14 Si4 1.622591 1_555
O15 Si5 1.622578 1_555
O16 Si2 1.622819 1_555
O17 Si3 1.622819 1_555
O18 Si0 1.622819 1_555
O19 Si1 1.622819 1_565
O20 Si8 1.630818 1_565
O20 Si2 1.650870 1_555
O21 Si9 1.630806 1_555
O21 Si3 1.650849 1_555
O22 Si10 1.630818 1_565
O22 Si0 1.650868 1_555
O23 Si11 1.630811 1_545
O23 Si1 1.650850 1_555
O24 Si8 1.602596 1_555
O24 W4 2.125884 1_554
O25 Si9 1.602596 1_555
O25 W5 2.125884 1_455
O26 Si10 1.602591 1_655
O26 W2 2.125884 1_555
O27 Si11 1.602590 1_546
O27 W3 2.125884 1_555
O28 Si5 1.652031 1_555
O28 Si1 1.660478 1_555
O29 Si4 1.652023 1_555
O29 Si0 1.660478 1_555
O30 Si7 1.652038 1_555
O30 Si3 1.660478 1_655
O31 Si6 1.652016 1_555
O31 Si2 1.660478 1_556
O32 Si10 1.671805 1_564
O32 Si11 1.671825 1_455
O33 Si8 1.671802 1_555
O33 Si9 1.671823 1_555
O34 Si2 1.629793 1_555
O35 Si3 1.629805 1_555
O36 Si0 1.629797 1_555
O37 Si1 1.629810 1_555
