# generated using pymatgen
data_Cu(RhO2)2
_symmetry_space_group_name_H-M   'P 1'
_cell_length_a   6.05215724
_cell_length_b   6.05215724
_cell_length_c   6.05215724
_cell_angle_alpha   118.48916353
_cell_angle_beta   118.48916353
_cell_angle_gamma   92.63739208
_symmetry_Int_Tables_number   1
_chemical_formula_structural   Cu(RhO2)2
_chemical_formula_sum   'Cu2 Rh4 O8'
_cell_volume   160.14901828
_cell_formula_units_Z   2
loop_
 _symmetry_equiv_pos_site_id
 _symmetry_equiv_pos_as_xyz
  1  'x, y, z'
loop_
 _atom_site_type_symbol
 _atom_site_label
 _atom_site_symmetry_multiplicity
 _atom_site_fract_x
 _atom_site_fract_y
 _atom_site_fract_z
 _atom_site_occupancy
  Cu  Cu0  1  0.75000000  0.25000000  0.50000000  1
  Cu  Cu1  1  0.00000000  0.00000000  0.00000000  1
  Rh  Rh0  1  0.37500000  0.12500000  0.75000000  1
  Rh  Rh1  1  0.87500000  0.62500000  0.25000000  1
  Rh  Rh2  1  0.37500000  0.62500000  0.75000000  1
  Rh  Rh3  1  0.37500000  0.62500000  0.25000000  1
  O  O0  1  0.62196000  0.40066900  0.77870900  1
  O  O1  1  0.15066900  0.87196000  0.27870900  1
  O  O2  1  0.59325200  0.87196000  0.72129100  1
  O  O3  1  0.62196000  0.84325200  0.22129100  1
  O  O4  1  0.12804000  0.84933100  0.72129100  1
  O  O5  1  0.59933100  0.37804000  0.22129100  1
  O  O6  1  0.15674800  0.37804000  0.77870900  1
  O  O7  1  0.12804000  0.40674800  0.27870900  1
loop_
_geom_bond_atom_site_label_1
_geom_bond_atom_site_label_2
_geom_bond_distance
_geom_bond_site_symmetry_2
Cu0 O6 2.030246 1_655
Cu0 O3 2.030246 1_545
Cu0 O0 2.030251 1_555
Cu0 O5 2.030251 1_555
Cu1 O2 2.030246 1_444
Cu1 O7 2.030246 1_555
Cu1 O1 2.030251 1_545
Cu1 O4 2.030251 1_544
O0 Rh1 2.066762 1_556
O0 Rh2 2.066762 1_555
O0 Rh0 2.072170 1_555
O1 Rh0 2.066762 1_565
O1 Rh3 2.066762 1_555
O1 Rh1 2.072170 1_455
O2 Rh3 2.066761 1_555
O2 Rh0 2.066766 1_565
O2 Rh2 2.072174 1_555
O3 Rh2 2.066761 1_554
O3 Rh1 2.066766 1_555
O3 Rh3 2.072174 1_555
O4 Rh2 2.066762 1_555
O4 Rh1 2.066762 1_455
O4 Rh0 2.072170 1_565
O5 Rh3 2.066762 1_555
O5 Rh0 2.066762 1_554
O5 Rh1 2.072170 1_555
O6 Rh3 2.066761 1_556
O6 Rh0 2.066766 1_555
O6 Rh2 2.072174 1_555
O7 Rh2 2.066761 1_555
O7 Rh1 2.066766 1_455
O7 Rh3 2.072174 1_555
