# generated using pymatgen
data_Li4Mn3CoO8
_symmetry_space_group_name_H-M   'P 1'
_cell_length_a   5.09427400
_cell_length_b   5.79426964
_cell_length_c   6.04525728
_cell_angle_alpha   61.64371770
_cell_angle_beta   76.87125734
_cell_angle_gamma   73.98660775
_symmetry_Int_Tables_number   1
_chemical_formula_structural   Li4Mn3CoO8
_chemical_formula_sum   'Li4 Mn3 Co1 O8'
_cell_volume   149.95962175
_cell_formula_units_Z   1
loop_
 _symmetry_equiv_pos_site_id
 _symmetry_equiv_pos_as_xyz
  1  'x, y, z'
loop_
 _atom_site_type_symbol
 _atom_site_label
 _atom_site_symmetry_multiplicity
 _atom_site_fract_x
 _atom_site_fract_y
 _atom_site_fract_z
 _atom_site_occupancy
  Li  Li0  1  0.49689200  0.75839700  0.23707000  1
  Li  Li1  1  0.48613500  0.73941000  0.77983600  1
  Li  Li2  1  0.50310800  0.24160300  0.76293000  1
  Li  Li3  1  0.51386500  0.26059000  0.22016400  1
  Mn  Mn0  1  0.00000000  0.00000000  0.50000000  1
  Mn  Mn1  1  0.00000000  0.50000000  0.50000000  1
  Mn  Mn2  1  0.00000000  0.50000000  0.00000000  1
  Co  Co0  1  0.00000000  0.00000000  0.00000000  1
  O  O0  1  0.76550600  0.85700400  0.88618400  1
  O  O1  1  0.79307800  0.88204300  0.33971500  1
  O  O2  1  0.76950000  0.35593700  0.39937600  1
  O  O3  1  0.76469700  0.37849600  0.88164000  1
  O  O4  1  0.23050000  0.64406300  0.60062400  1
  O  O5  1  0.23530300  0.62150400  0.11836000  1
  O  O6  1  0.23449400  0.14299600  0.11381600  1
  O  O7  1  0.20692200  0.11795700  0.66028500  1
loop_
_geom_bond_atom_site_label_1
_geom_bond_atom_site_label_2
_geom_bond_distance
_geom_bond_site_symmetry_2
Li0 O5 2.116204 1_555
Li0 O6 2.130679 1_565
Li0 O1 2.149184 1_555
Li0 O0 2.158687 1_554
Li0 O4 2.206539 1_555
Li0 O2 2.233418 1_555
Li1 O5 2.062324 1_556
Li1 O0 2.066361 1_555
Li1 O3 2.074289 1_555
Li1 O7 2.143924 1_565
Li1 O4 2.186613 1_555
Li2 O3 2.116204 1_555
Li2 O0 2.130679 1_545
Li2 O7 2.149184 1_555
Li2 O6 2.158687 1_556
Li2 O2 2.206539 1_555
Li2 O4 2.233418 1_555
Li3 O3 2.062324 1_554
Li3 O6 2.066361 1_555
Li3 O5 2.074289 1_555
Li3 O1 2.143924 1_545
Li3 O2 2.186613 1_555
Mn0 O2 1.949095 1_455
Mn0 O4 1.949095 1_545
Mn0 O7 2.001944 1_555
Mn0 O1 2.001944 1_445
Mn0 O6 2.237304 1_555
Mn0 O0 2.237304 1_445
Mn1 O4 1.947624 1_555
Mn1 O2 1.947624 1_455
Mn1 O1 2.022231 1_455
Mn1 O7 2.022231 1_555
Mn1 O5 2.218486 1_555
Mn1 O3 2.218486 1_455
Mn2 O5 1.943770 1_555
Mn2 O3 1.943770 1_454
Mn2 O0 1.958950 1_454
Mn2 O6 1.958950 1_555
Mn2 O2 2.289789 1_455
Mn2 O4 2.289789 1_554
Co0 O7 1.968907 1_554
Co0 O1 1.968907 1_445
Co0 O6 2.011945 1_555
Co0 O0 2.011945 1_444
Co0 O5 2.051142 1_545
Co0 O3 2.051142 1_454
