# generated using pymatgen
data_BaNa2Ca
_symmetry_space_group_name_H-M   'P 1'
_cell_length_a   15.23162862
_cell_length_b   14.99206191
_cell_length_c   14.99206204
_cell_angle_alpha   59.59545940
_cell_angle_beta   59.46997658
_cell_angle_gamma   59.46997847
_symmetry_Int_Tables_number   1
_chemical_formula_structural   BaNa2Ca
_chemical_formula_sum   'Ba1 Na2 Ca1'
_cell_volume   2393.88971162
_cell_formula_units_Z   1
loop_
 _symmetry_equiv_pos_site_id
 _symmetry_equiv_pos_as_xyz
  1  'x, y, z'
loop_
 _atom_site_type_symbol
 _atom_site_label
 _atom_site_symmetry_multiplicity
 _atom_site_fract_x
 _atom_site_fract_y
 _atom_site_fract_z
 _atom_site_occupancy
  Ba  Ba0  1  0.50000000  0.00000000  0.00000000  1
  Na  Na0  1  0.76158077  1.00000000  0.00000000  1
  Na  Na1  1  0.23841923  0.00000000  1.00000000  1
  Ca  Ca0  1  0.00000000  0.00000000  0.00000000  1
loop_
_geom_bond_atom_site_label_1
_geom_bond_atom_site_label_2
_geom_bond_distance
_geom_bond_site_symmetry_2
Ba0 Na1 3.984301 1_554
Ba0 Na0 3.984301 1_545
Ca0 Na0 3.631513 1_445
Ca0 Na1 3.631513 1_554
