# generated using pymatgen
data_HfMg3
_symmetry_space_group_name_H-M   'P 1'
_cell_length_a   5.47951749
_cell_length_b   5.47951749
_cell_length_c   5.47951749
_cell_angle_alpha   132.05419178
_cell_angle_beta   132.05419178
_cell_angle_gamma   70.14345032
_symmetry_Int_Tables_number   1
_chemical_formula_structural   HfMg3
_chemical_formula_sum   'Hf1 Mg3'
_cell_volume   88.91472529
_cell_formula_units_Z   1
loop_
 _symmetry_equiv_pos_site_id
 _symmetry_equiv_pos_as_xyz
  1  'x, y, z'
loop_
 _atom_site_type_symbol
 _atom_site_label
 _atom_site_symmetry_multiplicity
 _atom_site_fract_x
 _atom_site_fract_y
 _atom_site_fract_z
 _atom_site_occupancy
  Hf  Hf0  1  0.00000000  0.00000000  0.00000000  1
  Mg  Mg0  1  0.50000000  0.50000000  0.00000000  1
  Mg  Mg1  1  0.25000000  0.75000000  0.50000000  1
  Mg  Mg2  1  0.75000000  0.25000000  0.50000000  1
loop_
_geom_bond_atom_site_label_1
_geom_bond_atom_site_label_2
_geom_bond_distance
_geom_bond_site_symmetry_2
Hf0 Mg0 3.148539 1_444
Hf0 Mg0 3.148539 1_455
Hf0 Mg0 3.148539 1_545
Hf0 Mg0 3.148539 1_556
Hf0 Mg1 3.159842 1_444
Hf0 Mg1 3.159842 1_555
Hf0 Mg2 3.159842 1_455
Hf0 Mg2 3.159842 1_454
Hf0 Mg1 3.159842 1_544
Hf0 Mg1 3.159842 1_545
Hf0 Mg2 3.159842 1_444
Hf0 Mg2 3.159842 1_555
Mg0 Mg1 3.159842 1_555
Mg0 Mg2 3.159842 1_554
Mg0 Mg2 3.159842 1_454
Mg0 Mg1 3.159842 1_544
Mg0 Mg2 3.159842 1_565
Mg0 Mg1 3.159842 1_655
Mg0 Mg1 3.159842 1_554
Mg0 Mg2 3.159842 1_555
Mg1 Mg2 3.148539 1_454
Mg1 Mg2 3.148539 1_555
Mg1 Mg2 3.148539 1_465
Mg1 Mg2 3.148539 1_566
