# generated using pymatgen
data_Fe2(WO4)3
_symmetry_space_group_name_H-M   'P 1'
_cell_length_a   6.98593800
_cell_length_b   8.70285898
_cell_length_c   10.40406948
_cell_angle_alpha   108.21124125
_cell_angle_beta   103.56792806
_cell_angle_gamma   103.98079800
_symmetry_Int_Tables_number   1
_chemical_formula_structural   Fe2(WO4)3
_chemical_formula_sum   'Fe4 W6 O24'
_cell_volume   549.07448468
_cell_formula_units_Z   2
loop_
 _symmetry_equiv_pos_site_id
 _symmetry_equiv_pos_as_xyz
  1  'x, y, z'
loop_
 _atom_site_type_symbol
 _atom_site_label
 _atom_site_symmetry_multiplicity
 _atom_site_fract_x
 _atom_site_fract_y
 _atom_site_fract_z
 _atom_site_occupancy
  Fe  Fe0  1  0.37632100  0.95912500  0.60808500  1
  Fe  Fe1  1  0.62367900  0.04087500  0.39191500  1
  Fe  Fe2  1  0.04785200  0.20423700  0.01537600  1
  Fe  Fe3  1  0.95214800  0.79576300  0.98462400  1
  W  W0  1  0.88313900  0.90253500  0.66545100  1
  W  W1  1  0.11686100  0.09746500  0.33454900  1
  W  W2  1  0.21118700  0.66952700  0.26177900  1
  W  W3  1  0.78881300  0.33047300  0.73822100  1
  W  W4  1  0.59752700  0.25763700  0.13329400  1
  W  W5  1  0.40247300  0.74236300  0.86670600  1
  O  O0  1  0.06813000  0.05563700  0.13974900  1
  O  O1  1  0.93187000  0.94436300  0.86025100  1
  O  O2  1  0.56802200  0.13340800  0.24645600  1
  O  O3  1  0.43197800  0.86659200  0.75354400  1
  O  O4  1  0.16098200  0.44199200  0.16735500  1
  O  O5  1  0.83901800  0.55800800  0.83264500  1
  O  O6  1  0.97593100  0.25585300  0.83689400  1
  O  O7  1  0.02406900  0.74414700  0.16310600  1
  O  O8  1  0.23410400  0.80689600  0.96960600  1
  O  O9  1  0.76589600  0.19310400  0.03039400  1
  O  O10  1  0.87841500  0.00282100  0.36422200  1
  O  O11  1  0.12158500  0.99717900  0.63577800  1
  O  O12  1  0.53406000  0.21239100  0.73317300  1
  O  O13  1  0.46594000  0.78760900  0.26682700  1
  O  O14  1  0.33455800  0.22181200  0.01708900  1
  O  O15  1  0.66544200  0.77818800  0.98291100  1
  O  O16  1  0.33976500  0.04031800  0.42804200  1
  O  O17  1  0.66023500  0.95968200  0.57195800  1
  O  O18  1  0.22498400  0.72558100  0.44804900  1
  O  O19  1  0.77501600  0.27441900  0.55195100  1
  O  O20  1  0.72080900  0.47671900  0.24418300  1
  O  O21  1  0.27919100  0.52328100  0.75581700  1
  O  O22  1  0.18038600  0.31861700  0.41587500  1
  O  O23  1  0.81961400  0.68138300  0.58412500  1
loop_
_geom_bond_atom_site_label_1
_geom_bond_atom_site_label_2
_geom_bond_distance
_geom_bond_site_symmetry_2
Fe0 O3 1.930524 1_555
Fe0 O11 1.955828 1_555
Fe0 O18 2.010380 1_555
Fe0 O12 2.031453 1_565
Fe0 O17 2.102731 1_555
Fe0 O16 2.182516 1_565
Fe1 O2 1.930524 1_555
Fe1 O10 1.955828 1_555
Fe1 O19 2.010380 1_555
Fe1 O13 2.031453 1_545
Fe1 O16 2.102731 1_555
Fe1 O17 2.182516 1_545
Fe2 O14 1.966948 1_555
Fe2 O9 1.993809 1_455
Fe2 O4 1.996173 1_555
Fe2 O6 2.023643 1_454
Fe2 O0 2.101294 1_555
Fe2 O1 2.143786 1_444
Fe3 O15 1.966948 1_555
Fe3 O8 1.993809 1_655
Fe3 O5 1.996173 1_555
Fe3 O7 2.023643 1_656
Fe3 O1 2.101294 1_555
Fe3 O0 2.143786 1_666
O0 W1 1.873827 1_555
O1 W0 1.873827 1_555
O2 W4 1.843719 1_555
O3 W5 1.843719 1_555
O4 W2 1.815530 1_555
O5 W3 1.815530 1_555
O6 W3 1.838924 1_555
O7 W2 1.838924 1_555
O8 W5 1.838272 1_555
O9 W4 1.838272 1_555
O10 W1 1.812675 1_655
O11 W0 1.812675 1_455
O12 W3 1.806880 1_555
O13 W2 1.806880 1_555
O14 W4 1.838291 1_555
O15 W5 1.838291 1_555
O16 W1 1.893215 1_555
O17 W0 1.893215 1_555
O18 W2 1.817060 1_555
O19 W3 1.817060 1_555
O20 W4 1.753138 1_555
O21 W5 1.753138 1_555
O22 W1 1.735049 1_555
O23 W0 1.735049 1_555
