# generated using pymatgen
data_Tb2FeC4
_symmetry_space_group_name_H-M   'P 1'
_cell_length_a   5.04999500
_cell_length_b   6.62853580
_cell_length_c   6.62853580
_cell_angle_alpha   68.83048753
_cell_angle_beta   67.60880325
_cell_angle_gamma   67.60880325
_symmetry_Int_Tables_number   1
_chemical_formula_structural   Tb2FeC4
_chemical_formula_sum   'Tb4 Fe2 C8'
_cell_volume   183.53148434
_cell_formula_units_Z   2
loop_
 _symmetry_equiv_pos_site_id
 _symmetry_equiv_pos_as_xyz
  1  'x, y, z'
loop_
 _atom_site_type_symbol
 _atom_site_label
 _atom_site_symmetry_multiplicity
 _atom_site_fract_x
 _atom_site_fract_y
 _atom_site_fract_z
 _atom_site_occupancy
  Tb  Tb0  1  0.64436500  0.19777300  0.51349800  1
  Tb  Tb1  1  0.35563500  0.80222700  0.48650200  1
  Tb  Tb2  1  0.14436500  0.51349800  0.19777300  1
  Tb  Tb3  1  0.85563500  0.48650200  0.80222700  1
  Fe  Fe0  1  0.25000000  0.00000000  0.00000000  1
  Fe  Fe1  1  0.75000000  0.00000000  0.00000000  1
  C  C0  1  0.87218800  0.79157000  0.46405500  1
  C  C1  1  0.12781200  0.20843000  0.53594500  1
  C  C2  1  0.37218800  0.46405500  0.79157000  1
  C  C3  1  0.62781200  0.53594500  0.20843000  1
  C  C4  1  0.92238800  0.91333200  0.24189300  1
  C  C5  1  0.07761200  0.08666800  0.75810700  1
  C  C6  1  0.42238800  0.24189300  0.91333200  1
  C  C7  1  0.57761200  0.75810700  0.08666800  1
loop_
_geom_bond_atom_site_label_1
_geom_bond_atom_site_label_2
_geom_bond_distance
_geom_bond_site_symmetry_2
C0 C4 1.377421 1_555
C0 Tb3 2.415151 1_555
C0 Tb1 2.530478 1_655
C0 Tb1 2.530488 1_555
C0 Tb0 2.582793 1_565
C0 Tb2 2.640720 1_655
C1 C5 1.377421 1_555
C1 Tb2 2.415151 1_555
C1 Tb0 2.530478 1_455
C1 Tb0 2.530488 1_555
C1 Tb1 2.582793 1_545
C1 Tb3 2.640720 1_455
C2 C6 1.377421 1_555
C2 Tb1 2.415151 1_555
C2 Tb3 2.530478 1_555
C2 Tb3 2.530488 1_455
C2 Tb2 2.582793 1_556
C2 Tb0 2.640720 1_555
C3 C7 1.377421 1_555
C3 Tb0 2.415151 1_555
C3 Tb2 2.530478 1_555
C3 Tb2 2.530488 1_655
C3 Tb3 2.582793 1_554
C3 Tb1 2.640720 1_555
C4 Fe0 1.917264 1_665
C4 Fe1 1.917267 1_565
C4 Tb2 2.532371 1_655
C4 Tb0 2.697491 1_565
C5 Fe1 1.917264 1_456
C5 Fe0 1.917267 1_556
C5 Tb3 2.532371 1_455
C5 Tb1 2.697491 1_545
C6 Fe1 1.917264 1_556
C6 Fe0 1.917267 1_556
C6 Tb0 2.532371 1_555
C6 Tb2 2.697491 1_556
C7 Fe0 1.917264 1_565
C7 Fe1 1.917267 1_565
C7 Tb1 2.532371 1_555
C7 Tb3 2.697491 1_554
