# generated using pymatgen
data_CeB2Ir3
_symmetry_space_group_name_H-M   'P 1'
_cell_length_a   11.13817578
_cell_length_b   11.13834418
_cell_length_c   6.09865724
_cell_angle_alpha   90.00000000
_cell_angle_beta   90.00000000
_cell_angle_gamma   119.99992078
_symmetry_Int_Tables_number   1
_chemical_formula_structural   CeB2Ir3
_chemical_formula_sum   'Ce8 B16 Ir24'
_cell_volume   655.23925120
_cell_formula_units_Z   8
loop_
 _symmetry_equiv_pos_site_id
 _symmetry_equiv_pos_as_xyz
  1  'x, y, z'
loop_
 _atom_site_type_symbol
 _atom_site_label
 _atom_site_symmetry_multiplicity
 _atom_site_fract_x
 _atom_site_fract_y
 _atom_site_fract_z
 _atom_site_occupancy
  Ce  Ce0_0  1  0.00000000  0.00000000  0.00000000  1
  Ce  Ce0_1  1  0.00000000  0.00000000  0.50000000  1
  Ce  Ce0_2  1  0.00000000  0.50000000  0.00000000  1
  Ce  Ce0_3  1  0.00000000  0.50000000  0.50000000  1
  Ce  Ce0_4  1  0.50000000  0.00000000  0.00000000  1
  Ce  Ce0_5  1  0.50000000  0.00000000  0.50000000  1
  Ce  Ce0_6  1  0.50000000  0.50000000  0.00000000  1
  Ce  Ce0_7  1  0.50000000  0.50000000  0.50000000  1
  B  B0_0  1  0.33335607  0.16669197  0.00000000  1
  B  B0_1  1  0.33335607  0.16669197  0.50000000  1
  B  B0_2  1  0.33335607  0.66669198  0.00000000  1
  B  B0_3  1  0.33335607  0.66669198  0.50000000  1
  B  B0_4  1  0.83335607  0.16669197  0.00000000  1
  B  B0_5  1  0.83335607  0.16669197  0.50000000  1
  B  B0_6  1  0.83335607  0.66669197  0.00000000  1
  B  B0_7  1  0.83335607  0.66669197  0.50000000  1
  B  B1_0  1  0.16664393  0.33330803  0.00000000  1
  B  B1_1  1  0.16664393  0.33330803  0.50000000  1
  B  B1_2  1  0.16664393  0.83330803  0.00000000  1
  B  B1_3  1  0.16664393  0.83330803  0.50000000  1
  B  B1_4  1  0.66664393  0.33330803  0.00000000  1
  B  B1_5  1  0.66664393  0.33330803  0.50000000  1
  B  B1_6  1  0.66664393  0.83330803  0.00000000  1
  B  B1_7  1  0.66664393  0.83330803  0.50000000  1
  Ir  Ir0_0  1  0.25000000  0.25000000  0.25000000  1
  Ir  Ir0_1  1  0.25000000  0.25000000  0.75000000  1
  Ir  Ir0_2  1  0.25000000  0.75000000  0.25000000  1
  Ir  Ir0_3  1  0.25000000  0.75000000  0.75000000  1
  Ir  Ir0_4  1  0.75000000  0.25000000  0.25000000  1
  Ir  Ir0_5  1  0.75000000  0.25000000  0.75000000  1
  Ir  Ir0_6  1  0.75000000  0.75000000  0.25000000  1
  Ir  Ir0_7  1  0.75000000  0.75000000  0.75000000  1
  Ir  Ir1_0  1  0.25000000  0.00000000  0.25000000  1
  Ir  Ir1_1  1  0.25000000  0.00000000  0.75000000  1
  Ir  Ir1_2  1  0.25000000  0.50000000  0.25000000  1
  Ir  Ir1_3  1  0.25000000  0.50000000  0.75000000  1
  Ir  Ir1_4  1  0.75000000  0.00000000  0.25000000  1
  Ir  Ir1_5  1  0.75000000  0.00000000  0.75000000  1
  Ir  Ir1_6  1  0.75000000  0.50000000  0.25000000  1
  Ir  Ir1_7  1  0.75000000  0.50000000  0.75000000  1
  Ir  Ir2_0  1  0.00000000  0.25000000  0.25000000  1
  Ir  Ir2_1  1  0.00000000  0.25000000  0.75000000  1
  Ir  Ir2_2  1  0.00000000  0.75000000  0.25000000  1
  Ir  Ir2_3  1  0.00000000  0.75000000  0.75000000  1
  Ir  Ir2_4  1  0.50000000  0.25000000  0.25000000  1
  Ir  Ir2_5  1  0.50000000  0.25000000  0.75000000  1
  Ir  Ir2_6  1  0.50000000  0.75000000  0.25000000  1
  Ir  Ir2_7  1  0.50000000  0.75000000  0.75000000  1
loop_
_geom_bond_atom_site_label_1
_geom_bond_atom_site_label_2
_geom_bond_distance
_geom_bond_site_symmetry_2
Ce0_0 Ce0_1 3.049329 1_555
Ce0_0 Ce0_1 3.049329 1_554
Ce0_0 Ir1_0 3.174632 1_555
Ce0_0 Ir1_4 3.174632 1_455
Ce0_0 Ir1_1 3.174632 1_554
Ce0_0 Ir1_5 3.174632 1_454
Ce0_0 Ir0_6 3.174653 1_445
Ce0_0 Ir0_7 3.174653 1_444
Ce0_0 Ir0_0 3.174653 1_555
Ce0_0 Ir0_1 3.174653 1_554
Ce0_0 Ir2_2 3.174669 1_545
Ce0_0 Ir2_0 3.174669 1_555
Ce0_0 Ir2_1 3.174669 1_554
Ce0_0 Ir2_3 3.174669 1_544
Ce0_1 Ir1_0 3.174632 1_555
Ce0_1 Ir1_5 3.174632 1_455
Ce0_1 Ir1_1 3.174632 1_555
Ce0_1 Ir1_4 3.174632 1_455
Ce0_1 Ir0_7 3.174653 1_445
Ce0_1 Ir0_6 3.174653 1_445
Ce0_1 Ir0_0 3.174653 1_555
Ce0_1 Ir0_1 3.174653 1_555
Ce0_1 Ir2_2 3.174669 1_545
Ce0_1 Ir2_3 3.174669 1_545
Ce0_1 Ir2_0 3.174669 1_555
Ce0_1 Ir2_1 3.174669 1_555
Ce0_2 Ce0_3 3.049329 1_555
Ce0_2 Ce0_3 3.049329 1_554
Ce0_2 Ir1_7 3.174632 1_454
Ce0_2 Ir1_6 3.174632 1_455
Ce0_2 Ir1_2 3.174632 1_555
Ce0_2 Ir1_3 3.174632 1_554
Ce0_2 Ir0_4 3.174653 1_455
Ce0_2 Ir0_2 3.174653 1_555
Ce0_2 Ir0_3 3.174653 1_554
Ce0_2 Ir0_5 3.174653 1_454
Ce0_2 Ir2_0 3.174669 1_555
Ce0_2 Ir2_2 3.174669 1_555
Ce0_2 Ir2_3 3.174669 1_554
Ce0_2 Ir2_1 3.174669 1_554
Ce0_3 Ir1_7 3.174632 1_455
Ce0_3 Ir1_6 3.174632 1_455
Ce0_3 Ir1_2 3.174632 1_555
Ce0_3 Ir1_3 3.174632 1_555
Ce0_3 Ir0_4 3.174653 1_455
Ce0_3 Ir0_3 3.174653 1_555
Ce0_3 Ir0_2 3.174653 1_555
Ce0_3 Ir0_5 3.174653 1_455
Ce0_3 Ir2_3 3.174669 1_555
Ce0_3 Ir2_0 3.174669 1_555
Ce0_3 Ir2_2 3.174669 1_555
Ce0_3 Ir2_1 3.174669 1_555
Ce0_4 Ce0_5 3.049329 1_555
Ce0_4 Ce0_5 3.049329 1_554
Ce0_4 Ir1_4 3.174632 1_555
Ce0_4 Ir1_0 3.174632 1_555
Ce0_4 Ir1_5 3.174632 1_554
Ce0_4 Ir1_1 3.174632 1_554
Ce0_4 Ir0_4 3.174653 1_555
Ce0_4 Ir0_2 3.174653 1_545
Ce0_4 Ir0_5 3.174653 1_554
Ce0_4 Ir0_3 3.174653 1_544
Ce0_4 Ir2_6 3.174669 1_545
Ce0_4 Ir2_4 3.174669 1_555
Ce0_4 Ir2_7 3.174669 1_544
Ce0_4 Ir2_5 3.174669 1_554
Ce0_5 Ir1_4 3.174632 1_555
Ce0_5 Ir1_0 3.174632 1_555
Ce0_5 Ir1_5 3.174632 1_555
Ce0_5 Ir1_1 3.174632 1_555
Ce0_5 Ir0_4 3.174653 1_555
Ce0_5 Ir0_5 3.174653 1_555
Ce0_5 Ir0_3 3.174653 1_545
Ce0_5 Ir0_2 3.174653 1_545
Ce0_5 Ir2_7 3.174669 1_545
Ce0_5 Ir2_6 3.174669 1_545
Ce0_5 Ir2_4 3.174669 1_555
Ce0_5 Ir2_5 3.174669 1_555
Ce0_6 Ce0_7 3.049329 1_554
Ce0_6 Ce0_7 3.049329 1_555
Ce0_6 Ir1_2 3.174632 1_555
Ce0_6 Ir1_3 3.174632 1_554
Ce0_6 Ir1_6 3.174632 1_555
Ce0_6 Ir1_7 3.174632 1_554
Ce0_6 Ir0_0 3.174653 1_555
Ce0_6 Ir0_1 3.174653 1_554
Ce0_6 Ir0_6 3.174653 1_555
Ce0_6 Ir0_7 3.174653 1_554
Ce0_6 Ir2_6 3.174669 1_555
Ce0_6 Ir2_4 3.174669 1_555
Ce0_6 Ir2_7 3.174669 1_554
Ce0_6 Ir2_5 3.174669 1_554
Ce0_7 Ir1_3 3.174632 1_555
Ce0_7 Ir1_2 3.174632 1_555
Ce0_7 Ir1_7 3.174632 1_555
Ce0_7 Ir1_6 3.174632 1_555
Ce0_7 Ir0_0 3.174653 1_555
Ce0_7 Ir0_1 3.174653 1_555
Ce0_7 Ir0_7 3.174653 1_555
Ce0_7 Ir0_6 3.174653 1_555
Ce0_7 Ir2_7 3.174669 1_555
Ce0_7 Ir2_6 3.174669 1_555
Ce0_7 Ir2_4 3.174669 1_555
Ce0_7 Ir2_5 3.174669 1_555
B0_0 Ir2_4 2.215505 1_555
B0_0 Ir2_5 2.215505 1_554
B0_0 Ir0_0 2.215653 1_555
B0_0 Ir0_1 2.215653 1_554
B0_0 Ir1_0 2.215859 1_555
B0_0 Ir1_1 2.215859 1_554
B0_0 Ce0_6 3.215121 1_555
B0_0 Ce0_4 3.215362 1_555
B0_0 Ce0_0 3.215536 1_555
B0_1 Ir2_5 2.215505 1_555
B0_1 Ir2_4 2.215505 1_555
B0_1 Ir0_1 2.215653 1_555
B0_1 Ir0_0 2.215653 1_555
B0_1 Ir1_1 2.215859 1_555
B0_1 Ir1_0 2.215859 1_555
B0_1 Ce0_7 3.215121 1_555
B0_1 Ce0_5 3.215362 1_555
B0_1 Ce0_1 3.215536 1_555
B0_2 Ir2_6 2.215505 1_555
B0_2 Ir2_7 2.215505 1_554
B0_2 Ir0_2 2.215653 1_555
B0_2 Ir0_3 2.215653 1_554
B0_2 Ir1_2 2.215859 1_555
B0_2 Ir1_3 2.215859 1_554
B0_2 Ce0_4 3.215121 1_565
B0_2 Ce0_6 3.215362 1_555
B0_2 Ce0_2 3.215536 1_555
B0_3 Ir2_7 2.215505 1_555
B0_3 Ir2_6 2.215505 1_555
B0_3 Ir0_3 2.215653 1_555
B0_3 Ir0_2 2.215653 1_555
B0_3 Ir1_3 2.215859 1_555
B0_3 Ir1_2 2.215859 1_555
B0_3 Ce0_5 3.215121 1_565
B0_3 Ce0_7 3.215362 1_555
B0_3 Ce0_3 3.215536 1_555
B0_4 Ir2_0 2.215505 1_655
B0_4 Ir2_1 2.215505 1_654
B0_4 Ir0_4 2.215653 1_555
B0_4 Ir0_5 2.215653 1_554
B0_4 Ir1_4 2.215859 1_555
B0_4 Ir1_5 2.215859 1_554
B0_4 Ce0_2 3.215121 1_655
B0_4 Ce0_0 3.215362 1_655
B0_4 Ce0_4 3.215536 1_555
B0_5 Ir2_1 2.215505 1_655
B0_5 Ir2_0 2.215505 1_655
B0_5 Ir0_5 2.215653 1_555
B0_5 Ir0_4 2.215653 1_555
B0_5 Ir1_5 2.215859 1_555
B0_5 Ir1_4 2.215859 1_555
B0_5 Ce0_3 3.215121 1_655
B0_5 Ce0_1 3.215362 1_655
B0_5 Ce0_5 3.215536 1_555
B0_6 Ir2_2 2.215505 1_655
B0_6 Ir2_3 2.215505 1_654
B0_6 Ir0_6 2.215653 1_555
B0_6 Ir0_7 2.215653 1_554
B0_6 Ir1_6 2.215859 1_555
B0_6 Ir1_7 2.215859 1_554
B0_6 Ce0_0 3.215121 1_665
B0_6 Ce0_2 3.215362 1_655
B0_6 Ce0_6 3.215536 1_555
B0_7 Ir2_3 2.215505 1_655
B0_7 Ir2_2 2.215505 1_655
B0_7 Ir0_7 2.215653 1_555
B0_7 Ir0_6 2.215653 1_555
B0_7 Ir1_7 2.215859 1_555
B0_7 Ir1_6 2.215859 1_555
B0_7 Ce0_1 3.215121 1_665
B0_7 Ce0_3 3.215362 1_655
B0_7 Ce0_7 3.215536 1_555
B1_0 Ir2_0 2.215505 1_555
B1_0 Ir2_1 2.215505 1_554
B1_0 Ir0_0 2.215653 1_555
B1_0 Ir0_1 2.215653 1_554
B1_0 Ir1_2 2.215859 1_555
B1_0 Ir1_3 2.215859 1_554
B1_0 Ce0_0 3.215121 1_555
B1_0 Ce0_2 3.215362 1_555
B1_0 Ce0_6 3.215536 1_555
B1_1 Ir2_1 2.215505 1_555
B1_1 Ir2_0 2.215505 1_555
B1_1 Ir0_1 2.215653 1_555
B1_1 Ir0_0 2.215653 1_555
B1_1 Ir1_3 2.215859 1_555
B1_1 Ir1_2 2.215859 1_555
B1_1 Ce0_1 3.215121 1_555
B1_1 Ce0_3 3.215362 1_555
B1_1 Ce0_7 3.215536 1_555
B1_2 Ir2_2 2.215505 1_555
B1_2 Ir2_3 2.215505 1_554
B1_2 Ir0_2 2.215653 1_555
B1_2 Ir0_3 2.215653 1_554
B1_2 Ir1_0 2.215859 1_565
B1_2 Ir1_1 2.215859 1_564
B1_2 Ce0_2 3.215121 1_555
B1_2 Ce0_0 3.215362 1_565
B1_2 Ce0_4 3.215536 1_565
B1_3 Ir2_3 2.215505 1_555
B1_3 Ir2_2 2.215505 1_555
B1_3 Ir0_3 2.215653 1_555
B1_3 Ir0_2 2.215653 1_555
B1_3 Ir1_1 2.215859 1_565
B1_3 Ir1_0 2.215859 1_565
B1_3 Ce0_3 3.215121 1_555
B1_3 Ce0_1 3.215362 1_565
B1_3 Ce0_5 3.215536 1_565
B1_4 Ir2_4 2.215505 1_555
B1_4 Ir2_5 2.215505 1_554
B1_4 Ir0_4 2.215653 1_555
B1_4 Ir0_5 2.215653 1_554
B1_4 Ir1_6 2.215859 1_555
B1_4 Ir1_7 2.215859 1_554
B1_4 Ce0_4 3.215121 1_555
B1_4 Ce0_6 3.215362 1_555
B1_4 Ce0_2 3.215536 1_655
B1_5 Ir2_5 2.215505 1_555
B1_5 Ir2_4 2.215505 1_555
B1_5 Ir0_5 2.215653 1_555
B1_5 Ir0_4 2.215653 1_555
B1_5 Ir1_7 2.215859 1_555
B1_5 Ir1_6 2.215859 1_555
B1_5 Ce0_5 3.215121 1_555
B1_5 Ce0_7 3.215362 1_555
B1_5 Ce0_3 3.215536 1_655
B1_6 Ir2_6 2.215505 1_555
B1_6 Ir2_7 2.215505 1_554
B1_6 Ir0_6 2.215653 1_555
B1_6 Ir0_7 2.215653 1_554
B1_6 Ir1_4 2.215859 1_565
B1_6 Ir1_5 2.215859 1_564
B1_6 Ce0_6 3.215121 1_555
B1_6 Ce0_4 3.215362 1_565
B1_6 Ce0_0 3.215536 1_665
B1_7 Ir2_7 2.215505 1_555
B1_7 Ir2_6 2.215505 1_555
B1_7 Ir0_7 2.215653 1_555
B1_7 Ir0_6 2.215653 1_555
B1_7 Ir1_5 2.215859 1_565
B1_7 Ir1_4 2.215859 1_565
B1_7 Ce0_7 3.215121 1_555
B1_7 Ce0_5 3.215362 1_565
B1_7 Ce0_1 3.215536 1_665
