# generated using pymatgen
data_SrEuTl2
_symmetry_space_group_name_H-M   'P 1'
_cell_length_a   5.68570076
_cell_length_b   5.68570076
_cell_length_c   5.68570076
_cell_angle_alpha   60.00000000
_cell_angle_beta   60.00000000
_cell_angle_gamma   60.00000000
_symmetry_Int_Tables_number   1
_chemical_formula_structural   SrEuTl2
_chemical_formula_sum   'Sr1 Eu1 Tl2'
_cell_volume   129.96816818
_cell_formula_units_Z   1
loop_
 _symmetry_equiv_pos_site_id
 _symmetry_equiv_pos_as_xyz
  1  'x, y, z'
loop_
 _atom_site_type_symbol
 _atom_site_label
 _atom_site_symmetry_multiplicity
 _atom_site_fract_x
 _atom_site_fract_y
 _atom_site_fract_z
 _atom_site_occupancy
  Sr  Sr0  1  0.00000000  -0.00000000  0.00000000  1
  Eu  Eu0  1  0.50000000  0.50000000  0.50000000  1
  Tl  Tl0  1  0.25000000  0.25000000  0.25000000  1
  Tl  Tl1  1  0.75000000  0.75000000  0.75000000  1
loop_
_geom_bond_atom_site_label_1
_geom_bond_atom_site_label_2
_geom_bond_distance
_geom_bond_site_symmetry_2
Sr0 Tl0 3.481766 1_555
Sr0 Tl1 3.481766 1_445
Sr0 Tl0 3.481766 1_554
Sr0 Tl1 3.481766 1_444
Sr0 Tl0 3.481766 1_455
Sr0 Tl0 3.481766 1_545
Sr0 Tl1 3.481766 1_454
Sr0 Tl1 3.481766 1_544
Eu0 Tl1 3.481766 1_555
Eu0 Tl1 3.481766 1_554
Eu0 Tl0 3.481766 1_556
Eu0 Tl0 3.481766 1_555
Eu0 Tl0 3.481766 1_565
Eu0 Tl1 3.481766 1_455
Eu0 Tl1 3.481766 1_545
Eu0 Tl0 3.481766 1_655
