# generated using pymatgen
data_Y5Mg24
_symmetry_space_group_name_H-M   'P 1'
_cell_length_a   9.73093289
_cell_length_b   9.73094288
_cell_length_c   9.73094347
_cell_angle_alpha   109.47126470
_cell_angle_beta   109.47122304
_cell_angle_gamma   109.47122066
_symmetry_Int_Tables_number   1
_chemical_formula_structural   Y5Mg24
_chemical_formula_sum   'Y5 Mg24'
_cell_volume   709.32000777
_cell_formula_units_Z   1
loop_
 _symmetry_equiv_pos_site_id
 _symmetry_equiv_pos_as_xyz
  1  'x, y, z'
loop_
 _atom_site_type_symbol
 _atom_site_label
 _atom_site_symmetry_multiplicity
 _atom_site_fract_x
 _atom_site_fract_y
 _atom_site_fract_z
 _atom_site_occupancy
  Y  Y0  1  -0.00000000  0.37627332  -0.00000000  1
  Y  Y1  1  0.37627232  -0.00000000  -0.00000000  1
  Y  Y2  1  -0.00000000  -0.00000000  0.37627332  1
  Y  Y3  1  0.62372768  0.62372768  0.62372668  1
  Y  Y4  1  0.00000000  -0.00000000  0.00000000  1
  Mg  Mg0  1  0.19035541  0.82114957  0.19035541  1
  Mg  Mg1  1  0.17884943  0.36920484  0.36920384  1
  Mg  Mg2  1  0.36920384  0.36920384  0.17884943  1
  Mg  Mg3  1  0.63079516  0.80964459  0.00000000  1
  Mg  Mg4  1  0.00000000  0.80964459  0.63079616  1
  Mg  Mg5  1  0.38694310  0.71353625  0.38694310  1
  Mg  Mg6  1  0.32659515  0.00000000  0.61305790  1
  Mg  Mg7  1  0.61305690  0.00000000  0.32659515  1
  Mg  Mg8  1  0.32659415  0.61305690  0.00000000  1
  Mg  Mg9  1  0.67340485  0.67340485  0.28646375  1
  Mg  Mg10  1  0.28646375  0.67340485  0.67340485  1
  Mg  Mg11  1  0.00000000  0.61305690  0.32659415  1
  Mg  Mg12  1  0.00000000  0.32659515  0.61305790  1
  Mg  Mg13  1  0.61305690  0.32659515  0.00000000  1
  Mg  Mg14  1  0.38694310  0.38694310  0.71353725  1
  Mg  Mg15  1  0.71353625  0.38694310  0.38694310  1
  Mg  Mg16  1  0.67340585  0.28646375  0.67340585  1
  Mg  Mg17  1  0.36920484  0.17885043  0.36920384  1
  Mg  Mg18  1  0.80964459  0.00000000  0.63079616  1
  Mg  Mg19  1  0.63079616  0.00000000  0.80964459  1
  Mg  Mg20  1  0.80964459  0.63079516  0.00000000  1
  Mg  Mg21  1  0.19035541  0.19035541  0.82115057  1
  Mg  Mg22  1  0.82115057  0.19035541  0.19035541  1
  Mg  Mg23  1  0.00000000  0.63079516  0.80964459  1
loop_
_geom_bond_atom_site_label_1
_geom_bond_atom_site_label_2
_geom_bond_distance
_geom_bond_site_symmetry_2
Y0 Y4 3.661494 1_555
Y1 Y4 3.661481 1_555
Y2 Y4 3.661494 1_555
Y3 Y4 3.661484 1_666
Mg0 Mg17 2.842032 1_565
Mg0 Mg5 2.940562 1_555
Mg0 Mg20 3.024851 1_455
Mg0 Mg23 3.024853 1_554
Mg0 Mg8 3.196141 1_555
Mg0 Mg11 3.196143 1_555
Mg0 Mg7 3.429214 1_565
Mg0 Mg6 3.429226 1_565
Mg0 Y4 3.449953 1_565
Mg0 Y1 3.466600 1_565
Mg0 Y2 3.466603 1_565
Mg0 Y0 3.553001 1_555
Mg1 Mg22 2.842014 1_455
Mg1 Mg10 2.940552 1_555
Mg1 Mg2 3.024837 1_555
Mg1 Mg17 3.024845 1_555
Mg1 Mg5 3.196135 1_555
Mg1 Mg14 3.196156 1_555
Mg1 Mg11 3.429217 1_555
Mg1 Mg12 3.429235 1_555
Mg1 Y4 3.449937 1_555
Mg1 Y0 3.466591 1_555
Mg1 Y2 3.466605 1_555
Mg1 Y3 3.553015 1_555
Mg2 Mg21 2.842017 1_554
Mg2 Mg9 2.940557 1_555
Mg2 Mg5 3.196142 1_555
Mg2 Mg8 3.429228 1_555
Mg2 Y4 3.449931 1_555
Mg2 Y1 3.466590 1_555
Mg2 Y0 3.466593 1_555
Mg2 Y3 3.553011 1_555
Mg3 Mg8 2.940560 1_555
Mg3 Mg7 3.196155 1_565
Mg3 Mg9 3.429237 1_555
Mg3 Y4 3.449942 1_665
Mg3 Y2 3.466597 1_665
Mg3 Y3 3.466602 1_554
Mg3 Y1 3.553017 1_565
Mg4 Mg9 3.196148 1_455
Mg4 Mg6 3.196154 1_565
Mg4 Y4 3.449935 1_566
Mg4 Y3 3.466582 1_455
Mg4 Y1 3.466586 1_566
Mg4 Y2 3.553020 1_565
Mg5 Y3 3.244577 1_555
Mg5 Mg7 3.289440 1_565
Mg5 Mg6 3.289443 1_565
Mg5 Mg9 3.341719 1_555
Mg5 Mg8 3.341738 1_555
Mg5 Y0 3.632877 1_555
Mg6 Y2 3.244595 1_555
Mg6 Y1 3.632878 1_556
Mg7 Y1 3.244597 1_555
Mg7 Mg8 3.341737 1_545
Mg7 Mg9 3.341741 1_545
Mg7 Y2 3.632882 1_655
Mg8 Y0 3.244584 1_555
Mg8 Mg9 3.289440 1_555
Mg8 Y1 3.632886 1_565
Mg9 Y2 3.244599 1_665
Mg9 Y3 3.632859 1_555
Mg10 Mg3 3.196142 1_556
Mg10 Mg19 3.196148 1_565
Mg10 Y1 3.244603 1_566
Mg10 Mg12 3.289439 1_555
Mg10 Mg11 3.289441 1_555
Mg10 Mg5 3.341722 1_555
Mg10 Mg14 3.341725 1_555
Mg10 Mg6 3.341736 1_565
Mg10 Mg8 3.341743 1_556
Mg10 Mg23 3.429234 1_555
Mg10 Mg4 3.429234 1_555
Mg10 Y3 3.632869 1_555
Mg11 Mg4 2.940569 1_555
Mg11 Mg20 3.196148 1_455
Mg11 Y0 3.244585 1_555
Mg11 Mg15 3.289446 1_455
Mg11 Mg13 3.341731 1_455
Mg11 Mg5 3.341734 1_555
Mg11 Mg6 3.341738 1_565
Mg11 Mg9 3.341739 1_455
Mg11 Mg22 3.429219 1_455
Mg11 Y2 3.632883 1_565
Mg12 Mg23 2.940550 1_555
Mg12 Mg21 3.196151 1_555
Mg12 Mg18 3.196156 1_455
Mg12 Y2 3.244596 1_555
Mg12 Mg15 3.289443 1_455
Mg12 Mg8 3.341727 1_556
Mg12 Mg16 3.341729 1_455
Mg12 Mg7 3.341736 1_455
Mg12 Mg14 3.341737 1_555
Mg12 Mg22 3.429226 1_455
Mg12 Y0 3.632876 1_556
Mg13 Mg20 2.940554 1_555
Mg13 Mg22 3.196156 1_555
Mg13 Mg19 3.196161 1_554
Mg13 Y1 3.244597 1_555
Mg13 Mg14 3.289433 1_554
Mg13 Mg9 3.289434 1_555
Mg13 Mg6 3.341730 1_554
Mg13 Mg16 3.341736 1_554
Mg13 Mg15 3.341741 1_555
Mg13 Mg21 3.429214 1_554
Mg13 Mg2 3.429223 1_555
Mg13 Y0 3.632882 1_655
Mg14 Mg21 2.940562 1_555
Mg14 Mg17 3.196153 1_555
Mg14 Y3 3.244597 1_555
Mg14 Mg8 3.289439 1_556
Mg14 Mg16 3.341729 1_555
Mg14 Mg6 3.341740 1_555
Mg14 Mg20 3.429216 1_556
Mg14 Mg3 3.429218 1_556
Mg14 Y2 3.632879 1_555
Mg15 Mg22 2.940568 1_555
Mg15 Mg17 3.196130 1_555
Mg15 Mg2 3.196141 1_555
Mg15 Y3 3.244576 1_555
Mg15 Mg9 3.341723 1_555
Mg15 Mg16 3.341729 1_555
Mg15 Mg7 3.341741 1_555
Mg15 Mg23 3.429219 1_655
Mg15 Mg4 3.429219 1_655
Mg15 Y1 3.632880 1_555
Mg16 Mg17 2.940565 1_555
Mg16 Mg23 3.196140 1_655
Mg16 Mg20 3.196141 1_556
Mg16 Y0 3.244588 1_656
Mg16 Mg7 3.289437 1_555
Mg16 Mg6 3.289440 1_555
Mg16 Mg18 3.429228 1_555
Mg16 Mg19 3.429230 1_555
Mg16 Y3 3.632880 1_555
Mg17 Mg2 3.024832 1_555
Mg17 Mg7 3.429221 1_555
Mg17 Mg6 3.429244 1_555
Mg17 Y4 3.449935 1_555
Mg17 Y1 3.466587 1_555
Mg17 Y2 3.466604 1_555
Mg17 Y3 3.553010 1_555
Mg18 Mg19 2.842001 1_555
Mg18 Mg7 2.940562 1_555
Mg18 Mg21 3.024851 1_655
Mg18 Mg4 3.024853 1_645
Mg18 Mg9 3.196149 1_545
Mg18 Mg5 3.429218 1_545
Mg18 Y4 3.449936 1_656
Mg18 Y3 3.466585 1_545
Mg18 Y0 3.466593 1_656
Mg18 Y2 3.553018 1_655
Mg19 Mg6 2.940557 1_555
Mg19 Mg22 3.024853 1_556
Mg19 Mg3 3.024856 1_546
Mg19 Mg5 3.429220 1_545
Mg19 Y4 3.449933 1_656
Mg19 Y3 3.466590 1_545
Mg19 Y0 3.466592 1_656
Mg19 Y1 3.553026 1_556
Mg20 Mg3 2.842017 1_555
Mg20 Mg23 3.024853 1_654
Mg20 Mg9 3.429235 1_555
Mg20 Y4 3.449944 1_665
Mg20 Y2 3.466598 1_665
Mg20 Y3 3.466603 1_554
Mg20 Y0 3.553009 1_655
Mg21 Mg4 3.024853 1_545
Mg21 Mg6 3.196149 1_555
Mg21 Mg8 3.429219 1_556
Mg21 Y4 3.449945 1_556
Mg21 Y1 3.466595 1_556
Mg21 Y0 3.466598 1_556
Mg21 Y2 3.553009 1_555
Mg22 Mg3 3.024853 1_545
Mg22 Mg7 3.196156 1_555
Mg22 Y4 3.449943 1_655
Mg22 Y2 3.466600 1_655
Mg22 Y0 3.466600 1_655
Mg22 Y1 3.553015 1_555
Mg23 Mg4 2.842011 1_555
Mg23 Mg8 3.196146 1_556
Mg23 Y4 3.449943 1_566
Mg23 Y1 3.466591 1_566
Mg23 Y3 3.466593 1_455
Mg23 Y0 3.553012 1_556
