# generated using pymatgen
data_SrLaCuO4
_symmetry_space_group_name_H-M   'P 1'
_cell_length_a   6.85344872
_cell_length_b   6.85344872
_cell_length_c   6.85344872
_cell_angle_alpha   147.20173762
_cell_angle_beta   147.20173762
_cell_angle_gamma   47.06516933
_symmetry_Int_Tables_number   1
_chemical_formula_structural   SrLaCuO4
_chemical_formula_sum   'Sr1 La1 Cu1 O4'
_cell_volume   94.09842473
_cell_formula_units_Z   1
loop_
 _symmetry_equiv_pos_site_id
 _symmetry_equiv_pos_as_xyz
  1  'x, y, z'
loop_
 _atom_site_type_symbol
 _atom_site_label
 _atom_site_symmetry_multiplicity
 _atom_site_fract_x
 _atom_site_fract_y
 _atom_site_fract_z
 _atom_site_occupancy
  Sr  Sr0  1  0.63961800  0.63961800  0.00000000  1
  La  La0  1  0.36023300  0.36023300  0.00000000  1
  Cu  Cu0  1  0.00191500  0.00191500  0.00000000  1
  O  O0  1  0.99444300  0.49444300  0.50000000  1
  O  O1  1  0.49444300  0.99444300  0.50000000  1
  O  O2  1  0.83549700  0.83549700  0.00000000  1
  O  O3  1  0.17385100  0.17385100  0.00000000  1
loop_
_geom_bond_atom_site_label_1
_geom_bond_atom_site_label_2
_geom_bond_distance
_geom_bond_site_symmetry_2
La0 O3 2.342251 1_555
La0 O0 2.566815 1_555
La0 O1 2.566815 1_555
La0 O1 2.566815 1_544
La0 O0 2.566815 1_454
La0 O2 2.753980 1_455
La0 O2 2.753980 1_556
La0 O2 2.753980 1_444
La0 O2 2.753980 1_545
Cu0 O0 1.937190 1_444
Cu0 O1 1.937190 1_444
Cu0 O1 1.937190 1_545
Cu0 O0 1.937190 1_455
Cu0 O2 2.091365 1_445
Cu0 O3 2.160709 1_555
O0 Sr0 2.659388 1_555
O0 Sr0 2.659388 1_656
O1 Sr0 2.659388 1_555
O1 Sr0 2.659388 1_566
O2 Sr0 2.461599 1_555
O3 Sr0 2.769991 1_444
O3 Sr0 2.769991 1_545
O3 Sr0 2.769991 1_455
O3 Sr0 2.769991 1_556
