# generated using pymatgen
data_VOF2
_symmetry_space_group_name_H-M   'P 1'
_cell_length_a   3.10288284
_cell_length_b   3.63321200
_cell_length_c   9.40799966
_cell_angle_alpha   90.00006237
_cell_angle_beta   89.24870025
_cell_angle_gamma   90.00003387
_symmetry_Int_Tables_number   1
_chemical_formula_structural   VOF2
_chemical_formula_sum   'V2 O2 F4'
_cell_volume   106.05131875
_cell_formula_units_Z   2
loop_
 _symmetry_equiv_pos_site_id
 _symmetry_equiv_pos_as_xyz
  1  'x, y, z'
loop_
 _atom_site_type_symbol
 _atom_site_label
 _atom_site_symmetry_multiplicity
 _atom_site_fract_x
 _atom_site_fract_y
 _atom_site_fract_z
 _atom_site_occupancy
  V  V0  1  0.50000000  0.50000000  0.50000000  1
  V  V1  1  0.00000000  0.00000000  0.00000000  1
  O  O0  1  0.00000000  0.50000000  0.00000000  1
  O  O1  1  0.50000000  0.00000000  0.50000000  1
  F  F0  1  0.49466200  0.00000100  0.13330000  1
  F  F1  1  0.99466600  0.50000100  0.63339600  1
  F  F2  1  0.00533400  0.49999900  0.36660400  1
  F  F3  1  0.50533800  0.99999900  0.86670000  1
loop_
_geom_bond_atom_site_label_1
_geom_bond_atom_site_label_2
_geom_bond_distance
_geom_bond_site_symmetry_2
O0 V1 1.816606 1_565
O0 V1 1.816606 1_555
O1 V0 1.816606 1_545
O1 V0 1.816606 1_555
F0 V1 1.994759 1_555
F0 V1 1.994944 1_655
F1 V0 1.995345 1_555
F1 V0 1.995493 1_655
F2 V0 1.995345 1_555
F2 V0 1.995493 1_455
F3 V1 1.994759 1_666
F3 V1 1.994944 1_566
