# generated using pymatgen
data_Ti45Se16
_symmetry_space_group_name_H-M   'P 1'
_cell_length_a   3.46536300
_cell_length_b   16.45968208
_cell_length_c   17.78672214
_cell_angle_alpha   91.56943562
_cell_angle_beta   95.59051028
_cell_angle_gamma   89.99422158
_symmetry_Int_Tables_number   1
_chemical_formula_structural   Ti45Se16
_chemical_formula_sum   'Ti45 Se16'
_cell_volume   1009.32510146
_cell_formula_units_Z   1
loop_
 _symmetry_equiv_pos_site_id
 _symmetry_equiv_pos_as_xyz
  1  'x, y, z'
loop_
 _atom_site_type_symbol
 _atom_site_label
 _atom_site_symmetry_multiplicity
 _atom_site_fract_x
 _atom_site_fract_y
 _atom_site_fract_z
 _atom_site_occupancy
  Ti  Ti0  1  0.27208200  0.65635800  0.45596200  1
  Ti  Ti1  1  0.65862400  0.06753500  0.68499300  1
  Ti  Ti2  1  0.64801100  0.46970700  0.71233200  1
  Ti  Ti3  1  0.62268100  0.66725900  0.75689100  1
  Ti  Ti4  1  0.44085300  0.55934300  0.11906600  1
  Ti  Ti5  1  0.35854800  0.52993200  0.28692200  1
  Ti  Ti6  1  0.38116900  0.33210400  0.24348900  1
  Ti  Ti7  1  0.47338300  0.36827900  0.05773000  1
  Ti  Ti8  1  0.56785100  0.83427500  0.86582500  1
  Ti  Ti9  1  0.96564800  0.04479200  0.07351300  1
  Ti  Ti10  1  0.73343600  0.34203600  0.54394700  1
  Ti  Ti11  1  0.56169200  0.44112800  0.88115800  1
  Ti  Ti12  1  0.69781800  0.90011800  0.59900300  1
  Ti  Ti13  1  0.13437800  0.93378000  0.73153800  1
  Ti  Ti14  1  0.74024600  0.13911800  0.52651400  1
  Ti  Ti15  1  0.30271700  0.09919600  0.40101400  1
  Ti  Ti16  1  0.78208700  0.98029800  0.43803300  1
  Ti  Ti17  1  0.18493800  0.74863500  0.62721200  1
  Ti  Ti18  1  0.78202400  0.51437800  0.44099300  1
  Ti  Ti19  1  0.18394700  0.20447000  0.64020100  1
  Ti  Ti20  1  0.26202800  0.86023300  0.47346700  1
  Ti  Ti21  1  0.99481900  0.20373500  0.01385000  1
  Ti  Ti22  1  0.09235700  0.12494400  0.82136700  1
  Ti  Ti23  1  0.00076900  0.49987900  0.00033100  1
  Ti  Ti24  1  0.89765300  0.66361200  0.20609400  1
  Ti  Ti25  1  0.91276100  0.87473700  0.17891900  1
  Ti  Ti26  1  0.91565800  0.44933600  0.17249600  1
  Ti  Ti27  1  0.08822300  0.55057000  0.82703300  1
  Ti  Ti28  1  0.52320100  0.09117800  0.95761000  1
  Ti  Ti29  1  0.43500200  0.16552500  0.13426200  1
  Ti  Ti30  1  0.52890400  0.63129100  0.94224400  1
  Ti  Ti31  1  0.55473100  0.24612400  0.89528200  1
  Ti  Ti32  1  0.29322100  0.38535100  0.42038600  1
  Ti  Ti33  1  0.10667200  0.33667700  0.79388400  1
  Ti  Ti34  1  0.82145800  0.79429400  0.36002500  1
  Ti  Ti35  1  0.44731500  0.75389000  0.10487400  1
  Ti  Ti36  1  0.00737300  0.79647000  0.98648300  1
  Ti  Ti37  1  0.86831300  0.06530800  0.26983100  1
  Ti  Ti38  1  0.71170600  0.61371000  0.57935100  1
  Ti  Ti39  1  0.22361700  0.48452400  0.55909600  1
  Ti  Ti40  1  0.34497400  0.93123500  0.31614700  1
  Ti  Ti41  1  0.21880900  0.01939300  0.56280000  1
  Ti  Ti42  1  0.48025000  0.90866500  0.04356000  1
  Ti  Ti43  1  0.81795800  0.25055000  0.37225000  1
  Ti  Ti44  1  0.03841700  0.95495800  0.92760500  1
  Se  Se0  1  0.02939500  0.34975900  0.94599500  1
  Se  Se1  1  0.17961600  0.36360600  0.65283000  1
  Se  Se2  1  0.37648100  0.78149800  0.25010900  1
  Se  Se3  1  0.63873600  0.81564800  0.72102100  1
  Se  Se4  1  0.97262300  0.65042000  0.05382800  1
  Se  Se5  1  0.26359900  0.24167700  0.48147900  1
  Se  Se6  1  0.58943700  0.00211900  0.82513900  1
  Se  Se7  1  0.07087300  0.71112700  0.85949300  1
  Se  Se8  1  0.36423900  0.18345500  0.27890400  1
  Se  Se9  1  0.16150500  0.58461900  0.68145600  1
  Se  Se10  1  0.84372000  0.41526600  0.31824800  1
  Se  Se11  1  0.62898100  0.21812100  0.75008100  1
  Se  Se12  1  0.82739400  0.63532000  0.34698800  1
  Se  Se13  1  0.73946300  0.75735400  0.51792700  1
  Se  Se14  1  0.41465500  0.99728700  0.17619300  1
  Se  Se15  1  0.93200900  0.28877200  0.14084700  1
loop_
_geom_bond_atom_site_label_1
_geom_bond_atom_site_label_2
_geom_bond_distance
_geom_bond_site_symmetry_2
Ti1 Ti41 2.633451 1_555
Ti12 Ti41 2.623862 1_565
Ti12 Ti41 2.797310 1_665
Ti14 Ti41 2.628821 1_655
Ti14 Ti41 2.804051 1_555
Ti15 Ti16 2.622950 1_545
Ti15 Ti16 2.796655 1_445
Ti16 Ti41 2.626195 1_665
Ti16 Ti40 2.628912 1_555
Ti16 Ti20 2.632903 1_655
Ti16 Ti20 2.800154 1_555
Se0 Ti7 2.404382 1_556
Se0 Ti11 2.439035 1_455
Se0 Ti31 2.460941 1_455
Se0 Ti23 2.633854 1_556
Se0 Ti31 2.696770 1_555
Se0 Ti21 2.726718 1_456
Se0 Ti11 2.739393 1_555
Se0 Ti33 2.747245 1_555
Se0 Ti7 2.909975 1_456
Se1 Ti10 2.376222 1_455
Se1 Ti2 2.523735 1_555
Se1 Ti33 2.596032 1_555
Se1 Ti19 2.622972 1_555
Se1 Ti39 2.644884 1_555
Se1 Ti2 2.800297 1_455
Se1 Ti10 2.871655 1_555
Se2 Ti34 2.373707 1_555
Se2 Ti25 2.500085 1_455
Se2 Ti24 2.606834 1_455
Se2 Ti35 2.645596 1_555
Se2 Ti40 2.707828 1_555
Se2 Ti24 2.798448 1_555
Se2 Ti25 2.824498 1_555
Se2 Ti34 2.876779 1_455
Se3 Ti17 2.421158 1_555
Se3 Ti3 2.543216 1_555
Se3 Ti13 2.585338 1_655
Se3 Ti8 2.620686 1_555
Se3 Ti13 2.629369 1_555
Se3 Ti12 2.633840 1_555
Se3 Ti17 2.845604 1_655
Se4 Ti30 2.402884 1_554
Se4 Ti4 2.440184 1_655
Se4 Ti35 2.460828 1_655
Se4 Ti23 2.635070 1_655
Se4 Ti35 2.697284 1_555
Se4 Ti36 2.722893 1_654
Se4 Ti4 2.738985 1_555
Se4 Ti24 2.748539 1_555
Se4 Ti30 2.909535 1_654
Se5 Ti43 2.368906 1_455
Se5 Ti14 2.456684 1_555
Se5 Ti10 2.482272 1_555
Se5 Ti32 2.635581 1_555
Se5 Ti14 2.671740 1_455
Se5 Ti15 2.724067 1_555
Se5 Ti10 2.763177 1_455
Se5 Ti43 2.868647 1_555
Se5 Ti19 2.944138 1_555
Se6 Ti44 2.422752 1_645
Se6 Ti13 2.431052 1_545
Se6 Ti22 2.653873 1_555
Se6 Ti22 2.675797 1_655
Se6 Ti28 2.769368 1_555
Se6 Ti1 2.773821 1_555
Se6 Ti13 2.848275 1_645
Se6 Ti8 2.877791 1_545
Se6 Ti44 2.885512 1_545
Se7 Ti3 2.374844 1_455
Se7 Ti30 2.462292 1_555
Se7 Ti8 2.652872 1_555
Se7 Ti36 2.654529 1_555
Se7 Ti8 2.680474 1_455
Se7 Ti27 2.691480 1_555
Se7 Ti30 2.839993 1_455
Se7 Ti3 2.848832 1_555
Se8 Ti43 2.416546 1_555
Se8 Ti6 2.545252 1_555
Se8 Ti37 2.586631 1_455
Se8 Ti29 2.616747 1_555
Se8 Ti37 2.626045 1_555
Se8 Ti15 2.634666 1_555
Se8 Ti43 2.841036 1_455
Se9 Ti38 2.335184 1_455
Se9 Ti3 2.384791 1_555
Se9 Ti2 2.568509 1_555
Se9 Ti27 2.700163 1_555
Se9 Ti2 2.700639 1_455
Se9 Ti39 2.718846 1_555
Se9 Ti3 2.743109 1_455
Se9 Ti38 2.808081 1_555
Se9 Ti17 2.895441 1_555
Se10 Ti32 2.338101 1_655
Se10 Ti6 2.386754 1_555
Se10 Ti5 2.563944 1_555
Se10 Ti26 2.702407 1_555
Se10 Ti5 2.703231 1_655
Se10 Ti18 2.714645 1_555
Se10 Ti6 2.737309 1_655
Se10 Ti32 2.811853 1_555
Se10 Ti43 2.905241 1_555
Se11 Ti19 2.374308 1_555
Se11 Ti22 2.499525 1_655
Se11 Ti33 2.611762 1_655
Se11 Ti31 2.648202 1_555
Se11 Ti1 2.712971 1_555
Se11 Ti33 2.807451 1_555
Se11 Ti22 2.825668 1_555
Se11 Ti19 2.876960 1_655
Se12 Ti0 2.373385 1_655
Se12 Ti5 2.520124 1_555
Se12 Ti24 2.595999 1_555
Se12 Ti34 2.620838 1_555
Se12 Ti18 2.648924 1_555
Se12 Ti5 2.796318 1_655
Se12 Ti0 2.875737 1_555
Se13 Ti17 2.369121 1_655
Se13 Ti20 2.459270 1_555
Se13 Ti0 2.480690 1_555
Se13 Ti38 2.637228 1_555
Se13 Ti20 2.669283 1_655
Se13 Ti12 2.734422 1_555
Se13 Ti0 2.771324 1_655
Se13 Ti17 2.869636 1_555
Se13 Ti34 2.930442 1_555
Se14 Ti37 2.426310 1_565
Se14 Ti9 2.427400 1_465
Se14 Ti25 2.653114 1_555
Se14 Ti25 2.668080 1_455
Se14 Ti42 2.767805 1_555
Se14 Ti40 2.775328 1_555
Se14 Ti37 2.850216 1_465
Se14 Ti9 2.889748 1_565
Se14 Ti29 2.890118 1_565
Se15 Ti6 2.374803 1_655
Se15 Ti7 2.464114 1_555
Se15 Ti21 2.651694 1_555
Se15 Ti29 2.653997 1_555
Se15 Ti29 2.682023 1_655
Se15 Ti26 2.688746 1_555
Se15 Ti7 2.839831 1_655
Se15 Ti6 2.844801 1_555
