# generated using pymatgen
data_K2NdAgF6
_symmetry_space_group_name_H-M   'P 1'
_cell_length_a   6.65680506
_cell_length_b   6.65680506
_cell_length_c   6.65680506
_cell_angle_alpha   60.00000000
_cell_angle_beta   60.00000000
_cell_angle_gamma   60.00000000
_symmetry_Int_Tables_number   1
_chemical_formula_structural   K2NdAgF6
_chemical_formula_sum   'K2 Nd1 Ag1 F6'
_cell_volume   208.58473396
_cell_formula_units_Z   1
loop_
 _symmetry_equiv_pos_site_id
 _symmetry_equiv_pos_as_xyz
  1  'x, y, z'
loop_
 _atom_site_type_symbol
 _atom_site_label
 _atom_site_symmetry_multiplicity
 _atom_site_fract_x
 _atom_site_fract_y
 _atom_site_fract_z
 _atom_site_occupancy
  K  K0  1  0.75000000  0.75000000  0.75000000  1
  K  K1  1  0.25000000  0.25000000  0.25000000  1
  Nd  Nd0  1  0.50000000  0.50000000  0.50000000  1
  Ag  Ag0  1  0.00000000  0.00000000  0.00000000  1
  F  F0  1  0.74080800  0.25919200  0.25919200  1
  F  F1  1  0.25919200  0.25919200  0.74080800  1
  F  F2  1  0.25919200  0.74080800  0.74080800  1
  F  F3  1  0.25919200  0.74080800  0.25919200  1
  F  F4  1  0.74080800  0.25919200  0.74080800  1
  F  F5  1  0.74080800  0.74080800  0.25919200  1
loop_
_geom_bond_atom_site_label_1
_geom_bond_atom_site_label_2
_geom_bond_distance
_geom_bond_site_symmetry_2
Ag0 F3 2.440071 1_545
Ag0 F1 2.440071 1_554
Ag0 F0 2.440071 1_455
Ag0 F2 2.440071 1_544
Ag0 F5 2.440071 1_445
Ag0 F4 2.440071 1_454
F0 Nd0 2.267001 1_555
F0 K1 3.329527 1_555
F0 K0 3.329527 1_545
F0 K0 3.329527 1_554
F0 K1 3.329527 1_655
F1 Nd0 2.267001 1_555
F1 K1 3.329527 1_555
F1 K0 3.329527 1_545
F1 K0 3.329527 1_455
F1 K1 3.329527 1_556
F2 Nd0 2.267001 1_555
F2 K0 3.329527 1_455
F2 K1 3.329527 1_556
F2 K1 3.329527 1_565
F2 K0 3.329527 1_555
F3 Nd0 2.267001 1_555
F3 K1 3.329527 1_555
F3 K0 3.329527 1_554
F3 K0 3.329527 1_455
F3 K1 3.329527 1_565
F4 Nd0 2.267001 1_555
F4 K0 3.329527 1_545
F4 K1 3.329527 1_556
F4 K1 3.329527 1_655
F4 K0 3.329527 1_555
F5 Nd0 2.267001 1_555
F5 K0 3.329527 1_554
F5 K1 3.329527 1_565
F5 K1 3.329527 1_655
F5 K0 3.329527 1_555
