# generated using pymatgen
data_Li9Mn2Co5O16
_symmetry_space_group_name_H-M   'P 1'
_cell_length_a   4.98758500
_cell_length_b   7.74624403
_cell_length_c   7.99023132
_cell_angle_alpha   100.19769834
_cell_angle_beta   97.89841661
_cell_angle_gamma   103.32146154
_symmetry_Int_Tables_number   1
_chemical_formula_structural   Li9Mn2Co5O16
_chemical_formula_sum   'Li9 Mn2 Co5 O16'
_cell_volume   290.48759027
_cell_formula_units_Z   1
loop_
 _symmetry_equiv_pos_site_id
 _symmetry_equiv_pos_as_xyz
  1  'x, y, z'
loop_
 _atom_site_type_symbol
 _atom_site_label
 _atom_site_symmetry_multiplicity
 _atom_site_fract_x
 _atom_site_fract_y
 _atom_site_fract_z
 _atom_site_occupancy
  Li  Li0  1  0.49118300  0.74754400  0.74468300  1
  Li  Li1  1  0.00932900  0.38037500  0.12874000  1
  Li  Li2  1  0.49626200  0.99258900  0.49890300  1
  Li  Li3  1  0.98823900  0.87088800  0.62138800  1
  Li  Li4  1  0.50767100  0.50334200  0.00425400  1
  Li  Li5  1  0.00009000  0.12506800  0.37572800  1
  Li  Li6  1  0.00078100  0.62396700  0.87431800  1
  Li  Li7  1  0.50752700  0.25835600  0.25329800  1
  Li  Li8  1  0.50085000  0.62476700  0.37523500  1
  Mn  Mn0  1  0.99528300  0.99720400  0.00214500  1
  Mn  Mn1  1  0.49775100  0.12304300  0.87289900  1
  Co  Co0  1  0.99964000  0.25401400  0.74503400  1
  Co  Co1  1  0.50261400  0.87317000  0.12993000  1
  Co  Co2  1  0.00395000  0.50248800  0.49223400  1
  Co  Co3  1  0.00156400  0.74683400  0.26083800  1
  Co  Co4  1  0.49890500  0.37812600  0.62200200  1
  O  O0  1  0.74467800  0.76326300  0.00624100  1
  O  O1  1  0.22812000  0.38472200  0.38615900  1
  O  O2  1  0.73915100  0.00706400  0.74882700  1
  O  O3  1  0.24643600  0.88975900  0.87924300  1
  O  O4  1  0.77481300  0.51467400  0.25632800  1
  O  O5  1  0.24939000  0.14764300  0.62531200  1
  O  O6  1  0.23898300  0.65016000  0.13189300  1
  O  O7  1  0.75552400  0.27001000  0.51209200  1
  O  O8  1  0.22272300  0.73407000  0.49306200  1
  O  O9  1  0.75360300  0.35816200  0.87123400  1
  O  O10  1  0.25851300  0.98060800  0.24851400  1
  O  O11  1  0.77406400  0.86390200  0.36236600  1
  O  O12  1  0.26136400  0.49246300  0.74078400  1
  O  O13  1  0.74618500  0.10580700  0.12535600  1
  O  O14  1  0.76158900  0.59933700  0.61820400  1
  O  O15  1  0.24322200  0.23657900  0.99275500  1
loop_
_geom_bond_atom_site_label_1
_geom_bond_atom_site_label_2
_geom_bond_distance
_geom_bond_site_symmetry_2
Li0 O12 2.035624 1_555
Li0 O2 2.095575 1_565
Li0 O3 2.102543 1_555
Li0 O14 2.198983 1_555
Li0 O8 2.228748 1_555
Li0 O0 2.256949 1_556
Li1 O4 2.000651 1_455
Li1 O15 2.073837 1_554
Li1 O6 2.133143 1_555
Li1 O1 2.182703 1_555
Li1 O13 2.220442 1_455
Li1 O9 2.223082 1_454
Li2 O8 2.136373 1_555
Li2 O5 2.138369 1_565
Li2 O10 2.156134 1_555
Li2 O2 2.158980 1_565
Li2 O11 2.184152 1_555
Li2 O7 2.214287 1_565
Li3 O8 2.014522 1_655
Li3 O2 2.065009 1_565
Li3 O14 2.140234 1_555
Li3 O11 2.180261 1_555
Li3 O5 2.229717 1_665
Li3 O3 2.236531 1_655
Li4 O0 2.082824 1_555
Li4 O9 2.114169 1_554
Li4 O15 2.159080 1_554
Li4 O6 2.190135 1_555
Li4 O4 2.232856 1_555
Li4 O12 2.264238 1_554
Li5 O1 2.050943 1_555
Li5 O11 2.052917 1_445
Li5 O7 2.121057 1_455
Li5 O10 2.137445 1_545
Li5 O5 2.156022 1_555
Li5 O13 2.176936 1_455
Li6 O12 2.114623 1_555
Li6 O0 2.123545 1_456
Li6 O3 2.130100 1_555
Li6 O9 2.136312 1_455
Li6 O14 2.175619 1_455
Li6 O6 2.181146 1_556
Li7 O13 2.100762 1_555
Li7 O4 2.115262 1_555
Li7 O1 2.166663 1_555
Li7 O10 2.213455 1_545
Li7 O7 2.234610 1_555
Li7 O15 2.262532 1_554
Li8 O4 2.025818 1_555
Li8 O8 2.036033 1_555
Li8 O1 2.059124 1_555
Li8 O11 2.059506 1_555
Li8 O14 2.249120 1_555
Li8 O6 2.254097 1_555
Mn0 O13 1.935209 1_565
Mn0 O3 1.937863 1_654
Mn0 O0 1.958504 1_555
Mn0 O15 1.997799 1_664
Mn0 O10 2.252209 1_655
Mn0 O2 2.263561 1_564
Mn1 O2 1.936671 1_555
Mn1 O3 1.960948 1_545
Mn1 O15 1.962810 1_555
Mn1 O9 1.971772 1_555
Mn1 O5 2.247909 1_555
Mn1 O13 2.259840 1_556
Co0 O5 1.914955 1_655
Co0 O9 1.918789 1_555
Co0 O12 2.010010 1_655
Co0 O2 2.057726 1_555
Co0 O7 2.119064 1_555
Co0 O15 2.218420 1_655
Co1 O10 1.891401 1_555
Co1 O0 1.913856 1_555
Co1 O6 1.918827 1_555
Co1 O13 1.936816 1_565
Co1 O11 2.165259 1_555
Co1 O3 2.263773 1_554
Co2 O1 1.804803 1_555
Co2 O8 1.870957 1_555
Co2 O14 1.876707 1_455
Co2 O7 1.982514 1_455
Co2 O4 2.094917 1_455
Co2 O12 2.235676 1_555
Co3 O11 1.798502 1_455
Co3 O6 1.869563 1_555
Co3 O4 1.882299 1_455
Co3 O10 1.989899 1_555
Co3 O8 2.054792 1_555
Co3 O0 2.290542 1_455
Co4 O12 1.893095 1_555
Co4 O14 1.910098 1_555
Co4 O7 1.911352 1_555
Co4 O5 1.933614 1_555
Co4 O1 2.178112 1_555
Co4 O9 2.260027 1_555
