# generated using pymatgen
data_Cr2AgS4
_symmetry_space_group_name_H-M   'P 1'
_cell_length_a   5.91204500
_cell_length_b   6.88565300
_cell_length_c   13.14742400
_cell_angle_alpha   90.00000000
_cell_angle_beta   90.00000000
_cell_angle_gamma   90.00000000
_symmetry_Int_Tables_number   1
_chemical_formula_structural   Cr2AgS4
_chemical_formula_sum   'Cr8 Ag4 S16'
_cell_volume   535.20915408
_cell_formula_units_Z   4
loop_
 _symmetry_equiv_pos_site_id
 _symmetry_equiv_pos_as_xyz
  1  'x, y, z'
loop_
 _atom_site_type_symbol
 _atom_site_label
 _atom_site_symmetry_multiplicity
 _atom_site_fract_x
 _atom_site_fract_y
 _atom_site_fract_z
 _atom_site_occupancy
  Cr  Cr0  1  0.99257100  0.00000000  0.24539500  1
  Cr  Cr1  1  0.99257100  0.00000000  0.75460500  1
  Cr  Cr2  1  0.00742900  0.50000000  0.25460500  1
  Cr  Cr3  1  0.00742900  0.50000000  0.74539500  1
  Cr  Cr4  1  0.50000000  0.25000000  0.25000000  1
  Cr  Cr5  1  0.50000000  0.75000000  0.75000000  1
  Cr  Cr6  1  0.50000000  0.75000000  0.25000000  1
  Cr  Cr7  1  0.50000000  0.25000000  0.75000000  1
  Ag  Ag0  1  0.35122800  0.00000000  0.00000000  1
  Ag  Ag1  1  0.64877200  0.50000000  0.50000000  1
  Ag  Ag2  1  0.03590400  0.00000000  0.50000000  1
  Ag  Ag3  1  0.96409600  0.50000000  0.00000000  1
  S  S0  1  0.83325900  0.25100700  0.35251000  1
  S  S1  1  0.83325900  0.74899300  0.64749000  1
  S  S2  1  0.16674100  0.75100700  0.14749000  1
  S  S3  1  0.16674100  0.24899300  0.85251000  1
  S  S4  1  0.16674100  0.24899300  0.14749000  1
  S  S5  1  0.16674100  0.75100700  0.85251000  1
  S  S6  1  0.83325900  0.74899300  0.35251000  1
  S  S7  1  0.83325900  0.25100700  0.64749000  1
  S  S8  1  0.65917400  0.00000000  0.14890800  1
  S  S9  1  0.65917400  0.00000000  0.85109200  1
  S  S10  1  0.34082600  0.50000000  0.35109200  1
  S  S11  1  0.34082600  0.50000000  0.64890800  1
  S  S12  1  0.32601200  0.00000000  0.34800200  1
  S  S13  1  0.32601200  0.00000000  0.65199800  1
  S  S14  1  0.67398800  0.50000000  0.15199800  1
  S  S15  1  0.67398800  0.50000000  0.84800200  1
loop_
_geom_bond_atom_site_label_1
_geom_bond_atom_site_label_2
_geom_bond_distance
_geom_bond_site_symmetry_2
Cr0 S8 2.343993 1_555
Cr0 S4 2.378362 1_655
Cr0 S2 2.378362 1_645
Cr0 S12 2.388712 1_655
Cr0 S6 2.420238 1_545
Cr0 S0 2.420238 1_555
Cr1 S9 2.343993 1_555
Cr1 S3 2.378362 1_655
Cr1 S5 2.378362 1_645
Cr1 S13 2.388712 1_655
Cr1 S7 2.420238 1_555
Cr1 S1 2.420238 1_545
Cr2 S10 2.343993 1_555
Cr2 S6 2.378362 1_455
Cr2 S0 2.378362 1_455
Cr2 S14 2.388712 1_455
Cr2 S2 2.420238 1_555
Cr2 S4 2.420238 1_555
Cr3 S11 2.343993 1_555
Cr3 S7 2.378362 1_455
Cr3 S1 2.378362 1_455
Cr3 S15 2.388712 1_455
Cr3 S3 2.420238 1_555
Cr3 S5 2.420238 1_555
Cr4 S10 2.369669 1_555
Cr4 S8 2.369669 1_555
Cr4 S14 2.383589 1_555
Cr4 S12 2.383589 1_555
Cr4 S4 2.387114 1_555
Cr4 S0 2.387114 1_555
Cr5 S9 2.369669 1_565
Cr5 S11 2.369669 1_555
Cr5 S15 2.383589 1_555
Cr5 S13 2.383589 1_565
Cr5 S1 2.387114 1_555
Cr5 S5 2.387114 1_555
Cr6 S10 2.369669 1_555
Cr6 S8 2.369669 1_565
Cr6 S14 2.383589 1_555
Cr6 S12 2.383589 1_565
Cr6 S2 2.387114 1_555
Cr6 S6 2.387114 1_555
Cr7 S9 2.369669 1_555
Cr7 S11 2.369669 1_555
Cr7 S15 2.383589 1_555
Cr7 S13 2.383589 1_555
Cr7 S7 2.387114 1_555
Cr7 S3 2.387114 1_555
Ag0 S8 2.673455 1_555
Ag0 S9 2.673455 1_554
Ag0 S3 2.808775 1_554
Ag0 S5 2.808775 1_544
Ag0 S2 2.808775 1_545
Ag0 S4 2.808775 1_555
Ag1 S11 2.673455 1_555
Ag1 S10 2.673455 1_555
Ag1 S0 2.808775 1_555
Ag1 S6 2.808775 1_555
Ag1 S1 2.808775 1_555
Ag1 S7 2.808775 1_555
Ag2 S13 2.633478 1_555
Ag2 S12 2.633478 1_555
Ag2 S0 2.860535 1_455
Ag2 S6 2.860535 1_445
Ag2 S1 2.860535 1_445
Ag2 S7 2.860535 1_455
Ag3 S14 2.633478 1_555
Ag3 S15 2.633478 1_554
Ag3 S5 2.860535 1_654
Ag3 S3 2.860535 1_654
Ag3 S4 2.860535 1_655
Ag3 S2 2.860535 1_655
