# generated using pymatgen
data_Mg3Bi
_symmetry_space_group_name_H-M   'P 1'
_cell_length_a   6.79244800
_cell_length_b   10.62501000
_cell_length_c   11.22196200
_cell_angle_alpha   90.00000000
_cell_angle_beta   90.00000000
_cell_angle_gamma   90.00000000
_symmetry_Int_Tables_number   1
_chemical_formula_structural   Mg3Bi
_chemical_formula_sum   'Mg24 Bi8'
_cell_volume   809.88706652
_cell_formula_units_Z   8
loop_
 _symmetry_equiv_pos_site_id
 _symmetry_equiv_pos_as_xyz
  1  'x, y, z'
loop_
 _atom_site_type_symbol
 _atom_site_label
 _atom_site_symmetry_multiplicity
 _atom_site_fract_x
 _atom_site_fract_y
 _atom_site_fract_z
 _atom_site_occupancy
  Mg  Mg0_0  1  0.00000000  0.00000000  0.33387750  1
  Mg  Mg0_1  1  0.00000000  0.00000000  0.83387750  1
  Mg  Mg0_2  1  0.00000000  0.50000000  0.33387750  1
  Mg  Mg0_3  1  0.00000000  0.50000000  0.83387750  1
  Mg  Mg0_4  1  0.50000000  0.00000000  0.33387750  1
  Mg  Mg0_5  1  0.50000000  0.00000000  0.83387750  1
  Mg  Mg0_6  1  0.50000000  0.50000000  0.33387750  1
  Mg  Mg0_7  1  0.50000000  0.50000000  0.83387750  1
  Mg  Mg1_0  1  0.00000000  0.25000000  0.16941950  1
  Mg  Mg1_1  1  0.00000000  0.25000000  0.66941950  1
  Mg  Mg1_2  1  0.00000000  0.75000000  0.16941950  1
  Mg  Mg1_3  1  0.00000000  0.75000000  0.66941950  1
  Mg  Mg1_4  1  0.50000000  0.25000000  0.16941950  1
  Mg  Mg1_5  1  0.50000000  0.25000000  0.66941950  1
  Mg  Mg1_6  1  0.50000000  0.75000000  0.16941950  1
  Mg  Mg1_7  1  0.50000000  0.75000000  0.66941950  1
  Mg  Mg2_0  1  0.25000000  0.25000000  0.41378250  1
  Mg  Mg2_1  1  0.25000000  0.25000000  0.91378250  1
  Mg  Mg2_2  1  0.25000000  0.75000000  0.41378250  1
  Mg  Mg2_3  1  0.25000000  0.75000000  0.91378250  1
  Mg  Mg2_4  1  0.75000000  0.25000000  0.41378250  1
  Mg  Mg2_5  1  0.75000000  0.25000000  0.91378250  1
  Mg  Mg2_6  1  0.75000000  0.75000000  0.41378250  1
  Mg  Mg2_7  1  0.75000000  0.75000000  0.91378250  1
  Bi  Bi0_0  1  0.25000000  0.00000000  0.08292100  1
  Bi  Bi0_1  1  0.25000000  0.00000000  0.58292100  1
  Bi  Bi0_2  1  0.25000000  0.50000000  0.08292100  1
  Bi  Bi0_3  1  0.25000000  0.50000000  0.58292100  1
  Bi  Bi0_4  1  0.75000000  0.00000000  0.08292100  1
  Bi  Bi0_5  1  0.75000000  0.00000000  0.58292100  1
  Bi  Bi0_6  1  0.75000000  0.50000000  0.08292100  1
  Bi  Bi0_7  1  0.75000000  0.50000000  0.58292100  1
loop_
_geom_bond_atom_site_label_1
_geom_bond_atom_site_label_2
_geom_bond_distance
_geom_bond_site_symmetry_2
Mg0_0 Mg1_2 3.234455 1_545
Mg0_0 Mg1_0 3.234455 1_555
Mg0_0 Mg2_2 3.277700 1_545
Mg0_0 Mg2_6 3.277700 1_445
Mg0_0 Mg2_0 3.277700 1_555
Mg0_0 Mg2_4 3.277700 1_455
Mg0_0 Mg0_4 3.396224 1_455
Mg0_0 Mg0_4 3.396224 1_555
Mg0_1 Mg1_1 3.234455 1_555
Mg0_1 Mg1_3 3.234455 1_545
Mg0_1 Mg2_3 3.277700 1_545
Mg0_1 Mg2_7 3.277700 1_445
Mg0_1 Mg2_5 3.277700 1_455
Mg0_1 Mg2_1 3.277700 1_555
Mg0_1 Mg0_5 3.396224 1_555
Mg0_1 Mg0_5 3.396224 1_455
Mg0_2 Mg1_2 3.234455 1_555
Mg0_2 Mg1_0 3.234455 1_555
Mg0_2 Mg2_2 3.277700 1_555
Mg0_2 Mg2_6 3.277700 1_455
Mg0_2 Mg2_0 3.277700 1_555
Mg0_2 Mg2_4 3.277700 1_455
Mg0_2 Mg0_6 3.396224 1_455
Mg0_2 Mg0_6 3.396224 1_555
Mg0_3 Mg1_3 3.234455 1_555
Mg0_3 Mg1_1 3.234455 1_555
Mg0_3 Mg2_3 3.277700 1_555
Mg0_3 Mg2_7 3.277700 1_455
Mg0_3 Mg2_5 3.277700 1_455
Mg0_3 Mg2_1 3.277700 1_555
Mg0_3 Mg0_7 3.396224 1_455
Mg0_3 Mg0_7 3.396224 1_555
Mg0_4 Mg1_6 3.234455 1_545
Mg0_4 Mg1_4 3.234455 1_555
Mg0_4 Mg2_4 3.277700 1_555
Mg0_4 Mg2_6 3.277700 1_545
Mg0_4 Mg2_2 3.277700 1_545
Mg0_4 Mg2_0 3.277700 1_555
Mg0_5 Mg1_5 3.234455 1_555
Mg0_5 Mg1_7 3.234455 1_545
Mg0_5 Mg2_5 3.277700 1_555
Mg0_5 Mg2_3 3.277700 1_545
Mg0_5 Mg2_1 3.277700 1_555
Mg0_5 Mg2_7 3.277700 1_545
Mg0_6 Mg1_6 3.234455 1_555
Mg0_6 Mg1_4 3.234455 1_555
Mg0_6 Mg2_4 3.277700 1_555
Mg0_6 Mg2_2 3.277700 1_555
Mg0_6 Mg2_0 3.277700 1_555
Mg0_6 Mg2_6 3.277700 1_555
Mg0_7 Mg1_5 3.234455 1_555
Mg0_7 Mg1_7 3.234455 1_555
Mg0_7 Mg2_3 3.277700 1_555
Mg0_7 Mg2_1 3.277700 1_555
Mg0_7 Mg2_7 3.277700 1_555
Mg0_7 Mg2_5 3.277700 1_555
Mg1_0 Mg2_0 3.225434 1_555
Mg1_0 Mg2_4 3.225434 1_455
Mg1_0 Mg2_1 3.333662 1_554
Mg1_0 Mg2_5 3.333662 1_454
Mg1_0 Mg1_4 3.396224 1_555
Mg1_0 Mg1_4 3.396224 1_455
Mg1_1 Mg2_5 3.225434 1_455
Mg1_1 Mg2_1 3.225434 1_555
Mg1_1 Mg2_4 3.333662 1_455
Mg1_1 Mg2_0 3.333662 1_555
Mg1_1 Mg1_5 3.396224 1_455
Mg1_1 Mg1_5 3.396224 1_555
Mg1_2 Mg2_2 3.225434 1_555
Mg1_2 Mg2_6 3.225434 1_455
Mg1_2 Mg2_7 3.333662 1_454
Mg1_2 Mg2_3 3.333662 1_554
Mg1_2 Mg1_6 3.396224 1_555
Mg1_2 Mg1_6 3.396224 1_455
Mg1_3 Mg2_3 3.225434 1_555
Mg1_3 Mg2_7 3.225434 1_455
Mg1_3 Mg2_2 3.333662 1_555
Mg1_3 Mg2_6 3.333662 1_455
Mg1_3 Mg1_7 3.396224 1_455
Mg1_3 Mg1_7 3.396224 1_555
Mg1_4 Mg2_0 3.225434 1_555
Mg1_4 Mg2_4 3.225434 1_555
Mg1_4 Mg2_1 3.333662 1_554
Mg1_4 Mg2_5 3.333662 1_554
Mg1_5 Mg2_1 3.225434 1_555
Mg1_5 Mg2_5 3.225434 1_555
Mg1_5 Mg2_0 3.333662 1_555
Mg1_5 Mg2_4 3.333662 1_555
Mg1_6 Mg2_2 3.225434 1_555
Mg1_6 Mg2_6 3.225434 1_555
Mg1_6 Mg2_3 3.333662 1_554
Mg1_6 Mg2_7 3.333662 1_554
Mg1_7 Mg2_7 3.225434 1_555
Mg1_7 Mg2_3 3.225434 1_555
Mg1_7 Mg2_2 3.333662 1_555
Mg1_7 Mg2_6 3.333662 1_555
Mg2_0 Mg2_4 3.396224 1_455
Mg2_0 Mg2_4 3.396224 1_555
Mg2_1 Mg2_5 3.396224 1_555
Mg2_1 Mg2_5 3.396224 1_455
Mg2_2 Mg2_6 3.396224 1_555
Mg2_2 Mg2_6 3.396224 1_455
Mg2_3 Mg2_7 3.396224 1_555
Mg2_3 Mg2_7 3.396224 1_455
Bi0_0 Mg2_3 3.264710 1_544
Bi0_0 Mg2_1 3.264710 1_554
Bi0_0 Mg0_1 3.270206 1_554
Bi0_0 Mg0_5 3.270206 1_554
Bi0_0 Mg0_0 3.288572 1_555
Bi0_0 Mg0_4 3.288572 1_555
Bi0_0 Mg1_4 3.298710 1_555
Bi0_0 Mg1_2 3.298710 1_545
Bi0_0 Mg1_6 3.298710 1_545
Bi0_0 Mg1_0 3.298710 1_555
Bi0_0 Bi0_4 3.396224 1_455
Bi0_0 Bi0_4 3.396224 1_555
Bi0_1 Mg2_0 3.264710 1_555
Bi0_1 Mg2_2 3.264710 1_545
Bi0_1 Mg0_0 3.270206 1_555
Bi0_1 Mg0_4 3.270206 1_555
Bi0_1 Mg0_5 3.288572 1_555
Bi0_1 Mg0_1 3.288572 1_555
Bi0_1 Mg1_1 3.298710 1_555
Bi0_1 Mg1_7 3.298710 1_545
Bi0_1 Mg1_5 3.298710 1_555
Bi0_1 Mg1_3 3.298710 1_545
Bi0_1 Bi0_5 3.396224 1_555
Bi0_1 Bi0_5 3.396224 1_455
Bi0_2 Mg2_3 3.264710 1_554
Bi0_2 Mg2_1 3.264710 1_554
Bi0_2 Mg0_3 3.270206 1_554
Bi0_2 Mg0_7 3.270206 1_554
Bi0_2 Mg0_6 3.288572 1_555
Bi0_2 Mg0_2 3.288572 1_555
Bi0_2 Mg1_6 3.298710 1_555
Bi0_2 Mg1_4 3.298710 1_555
Bi0_2 Mg1_2 3.298710 1_555
Bi0_2 Mg1_0 3.298710 1_555
Bi0_2 Bi0_6 3.396224 1_455
Bi0_2 Bi0_6 3.396224 1_555
Bi0_3 Mg2_0 3.264710 1_555
Bi0_3 Mg2_2 3.264710 1_555
Bi0_3 Mg0_2 3.270206 1_555
Bi0_3 Mg0_6 3.270206 1_555
Bi0_3 Mg0_3 3.288572 1_555
Bi0_3 Mg0_7 3.288572 1_555
Bi0_3 Mg1_7 3.298710 1_555
Bi0_3 Mg1_1 3.298710 1_555
Bi0_3 Mg1_5 3.298710 1_555
Bi0_3 Mg1_3 3.298710 1_555
Bi0_3 Bi0_7 3.396224 1_455
Bi0_3 Bi0_7 3.396224 1_555
Bi0_4 Mg2_5 3.264710 1_554
Bi0_4 Mg2_7 3.264710 1_544
Bi0_4 Mg0_1 3.270206 1_654
Bi0_4 Mg0_5 3.270206 1_554
Bi0_4 Mg0_4 3.288572 1_555
Bi0_4 Mg0_0 3.288572 1_655
Bi0_4 Mg1_0 3.298710 1_655
Bi0_4 Mg1_2 3.298710 1_645
Bi0_4 Mg1_4 3.298710 1_555
Bi0_4 Mg1_6 3.298710 1_545
Bi0_5 Mg2_4 3.264710 1_555
Bi0_5 Mg2_6 3.264710 1_545
Bi0_5 Mg0_0 3.270206 1_655
Bi0_5 Mg0_4 3.270206 1_555
Bi0_5 Mg0_5 3.288572 1_555
Bi0_5 Mg0_1 3.288572 1_655
Bi0_5 Mg1_7 3.298710 1_545
Bi0_5 Mg1_1 3.298710 1_655
Bi0_5 Mg1_5 3.298710 1_555
Bi0_5 Mg1_3 3.298710 1_645
Bi0_6 Mg2_5 3.264710 1_554
Bi0_6 Mg2_7 3.264710 1_554
Bi0_6 Mg0_3 3.270206 1_654
Bi0_6 Mg0_7 3.270206 1_554
Bi0_6 Mg0_6 3.288572 1_555
Bi0_6 Mg0_2 3.288572 1_655
Bi0_6 Mg1_0 3.298710 1_655
Bi0_6 Mg1_2 3.298710 1_655
Bi0_6 Mg1_6 3.298710 1_555
Bi0_6 Mg1_4 3.298710 1_555
Bi0_7 Mg2_4 3.264710 1_555
Bi0_7 Mg2_6 3.264710 1_555
Bi0_7 Mg0_6 3.270206 1_555
Bi0_7 Mg0_2 3.270206 1_655
Bi0_7 Mg0_3 3.288572 1_655
Bi0_7 Mg0_7 3.288572 1_555
Bi0_7 Mg1_7 3.298710 1_555
Bi0_7 Mg1_3 3.298710 1_655
Bi0_7 Mg1_1 3.298710 1_655
Bi0_7 Mg1_5 3.298710 1_555
