# generated using pymatgen
data_SmVSb3
_symmetry_space_group_name_H-M   'P 1'
_cell_length_a   10.53032300
_cell_length_b   6.91945200
_cell_length_c   8.41967700
_cell_angle_alpha   90.00000000
_cell_angle_beta   90.00000000
_cell_angle_gamma   90.00000000
_symmetry_Int_Tables_number   1
_chemical_formula_structural   SmVSb3
_chemical_formula_sum   'Sm4 V4 Sb12'
_cell_volume   613.49188836
_cell_formula_units_Z   4
loop_
 _symmetry_equiv_pos_site_id
 _symmetry_equiv_pos_as_xyz
  1  'x, y, z'
loop_
 _atom_site_type_symbol
 _atom_site_label
 _atom_site_symmetry_multiplicity
 _atom_site_fract_x
 _atom_site_fract_y
 _atom_site_fract_z
 _atom_site_occupancy
  Sm  Sm0  1  0.75000000  0.16646600  0.20686300  1
  Sm  Sm1  1  0.25000000  0.33353400  0.20686300  1
  Sm  Sm2  1  0.25000000  0.83353400  0.79313700  1
  Sm  Sm3  1  0.75000000  0.66646600  0.79313700  1
  V  V0  1  0.00000000  0.75000000  0.29386200  1
  V  V1  1  0.00000000  0.25000000  0.70613800  1
  V  V2  1  0.50000000  0.25000000  0.70613800  1
  V  V3  1  0.50000000  0.75000000  0.29386200  1
  Sb  Sb0  1  0.50000000  0.75000000  0.61545300  1
  Sb  Sb1  1  0.75000000  0.51442700  0.44249400  1
  Sb  Sb2  1  0.75000000  0.72645800  0.15550900  1
  Sb  Sb3  1  0.00000000  0.75000000  0.61545300  1
  Sb  Sb4  1  0.00000000  0.25000000  0.38454700  1
  Sb  Sb5  1  0.25000000  0.27354200  0.84449100  1
  Sb  Sb6  1  0.25000000  0.48557300  0.55750600  1
  Sb  Sb7  1  0.25000000  0.77354200  0.15550900  1
  Sb  Sb8  1  0.25000000  0.98557300  0.44249400  1
  Sb  Sb9  1  0.50000000  0.25000000  0.38454700  1
  Sb  Sb10  1  0.75000000  0.01442700  0.55750600  1
  Sb  Sb11  1  0.75000000  0.22645800  0.84449100  1
loop_
_geom_bond_atom_site_label_1
_geom_bond_atom_site_label_2
_geom_bond_distance
_geom_bond_site_symmetry_2
Sb0 V3 2.707692 1_555
Sb0 Sm2 3.082648 1_555
Sb0 Sm3 3.082648 1_555
Sb1 Sb2 2.826854 1_555
Sb1 Sm0 3.119779 1_555
Sb1 Sm3 3.134141 1_555
Sb2 V3 2.883397 1_555
Sb2 V0 2.883397 1_655
Sb2 Sm0 3.075164 1_565
Sb2 Sm3 3.079165 1_554
Sb2 Sm0 3.898887 1_555
Sb3 V0 2.707692 1_555
Sb3 Sm2 3.082648 1_555
Sb3 Sm3 3.082648 1_455
Sb4 V1 2.707692 1_555
Sb4 Sm0 3.082648 1_455
Sb4 Sm1 3.082648 1_555
Sb5 Sb6 2.826854 1_555
Sb5 V2 2.883397 1_555
Sb5 V1 2.883397 1_555
Sb5 Sm2 3.075164 1_545
Sb5 Sm1 3.079165 1_556
Sb5 Sm2 3.898887 1_555
Sb6 Sm2 3.119779 1_555
Sb6 Sm1 3.134141 1_555
Sb7 Sb8 2.826854 1_555
Sb7 V3 2.883397 1_555
Sb7 V0 2.883397 1_555
Sb7 Sm1 3.075164 1_555
Sb7 Sm2 3.079165 1_554
Sb7 Sm1 3.898887 1_565
Sb8 Sm1 3.119779 1_565
Sb8 Sm2 3.134141 1_555
Sb9 V2 2.707692 1_555
Sb9 Sm0 3.082648 1_555
Sb9 Sm1 3.082648 1_555
Sb10 Sb11 2.826854 1_555
Sb10 Sm3 3.119779 1_545
Sb10 Sm0 3.134141 1_555
Sb11 V2 2.883397 1_555
Sb11 V1 2.883397 1_655
Sb11 Sm3 3.075164 1_555
Sb11 Sm0 3.079165 1_556
Sb11 Sm3 3.898887 1_545
