# generated using pymatgen
data_KPO4
_symmetry_space_group_name_H-M   'P 1'
_cell_length_a   7.68459700
_cell_length_b   7.40539000
_cell_length_c   9.66213716
_cell_angle_alpha   50.36143974
_cell_angle_beta   90.00000000
_cell_angle_gamma   90.00000000
_symmetry_Int_Tables_number   1
_chemical_formula_structural   KPO4
_chemical_formula_sum   'K4 P4 O16'
_cell_volume   423.42878216
_cell_formula_units_Z   4
loop_
 _symmetry_equiv_pos_site_id
 _symmetry_equiv_pos_as_xyz
  1  'x, y, z'
loop_
 _atom_site_type_symbol
 _atom_site_label
 _atom_site_symmetry_multiplicity
 _atom_site_fract_x
 _atom_site_fract_y
 _atom_site_fract_z
 _atom_site_occupancy
  K  K0  1  0.80409800  0.38298700  0.21586200  1
  K  K1  1  0.19590200  0.61701300  0.78413800  1
  K  K2  1  0.30409800  0.61701300  0.28413800  1
  K  K3  1  0.69590200  0.38298700  0.71586200  1
  P  P0  1  0.79955700  0.84922300  0.24537100  1
  P  P1  1  0.20044300  0.15077700  0.75462900  1
  P  P2  1  0.29955700  0.15077700  0.25462900  1
  P  P3  1  0.70044300  0.84922300  0.74537100  1
  O  O0  1  0.21980800  0.90545200  0.39731800  1
  O  O1  1  0.78019200  0.09454800  0.60268200  1
  O  O2  1  0.71980800  0.09454800  0.10268200  1
  O  O3  1  0.28019200  0.90545200  0.89731800  1
  O  O4  1  0.87378900  0.84306200  0.39820900  1
  O  O5  1  0.12621100  0.15693800  0.60179100  1
  O  O6  1  0.37378900  0.15693800  0.10179100  1
  O  O7  1  0.62621100  0.84306200  0.89820900  1
  O  O8  1  0.95074200  0.80189400  0.16697300  1
  O  O9  1  0.04925800  0.19810600  0.83302700  1
  O  O10  1  0.45074200  0.19810600  0.33302700  1
  O  O11  1  0.54925800  0.80189400  0.66697300  1
  O  O12  1  0.66374700  0.65331700  0.32598100  1
  O  O13  1  0.33625300  0.34668300  0.67401900  1
  O  O14  1  0.16374700  0.34668300  0.17401900  1
  O  O15  1  0.83625300  0.65331700  0.82598100  1
loop_
_geom_bond_atom_site_label_1
_geom_bond_atom_site_label_2
_geom_bond_distance
_geom_bond_site_symmetry_2
K0 O14 2.830683 1_655
K0 O1 2.894722 1_555
K0 O10 2.924365 1_555
K0 O15 2.939000 1_554
K0 O12 3.003421 1_555
K0 O2 3.026255 1_555
K0 O8 3.040862 1_555
K0 O7 3.091082 1_554
K0 O4 3.223318 1_545
K1 O15 2.830683 1_455
K1 O0 2.894722 1_555
K1 O11 2.924365 1_555
K1 O14 2.939000 1_556
K1 O13 3.003421 1_555
K1 O3 3.026255 1_555
K1 O9 3.040862 1_555
K1 O6 3.091082 1_556
K1 O5 3.223318 1_565
K2 O12 2.830683 1_555
K2 O3 2.894722 1_554
K2 O8 2.924365 1_455
K2 O13 2.939000 1_555
K2 O14 3.003421 1_555
K2 O0 3.026255 1_555
K2 O10 3.040862 1_555
K2 O5 3.091082 1_555
K2 O6 3.223318 1_565
K3 O13 2.830683 1_555
K3 O2 2.894722 1_556
K3 O9 2.924365 1_655
K3 O12 2.939000 1_555
K3 O15 3.003421 1_555
K3 O1 3.026255 1_555
K3 O11 3.040862 1_555
K3 O4 3.091082 1_555
K3 O7 3.223318 1_545
O0 P2 1.543094 1_565
O1 P3 1.543094 1_545
O2 P0 1.543094 1_545
O3 P1 1.543094 1_565
O4 P0 1.556371 1_555
O5 P1 1.556371 1_555
O6 P2 1.556371 1_555
O7 P3 1.556371 1_555
O8 P0 1.544392 1_555
O9 P1 1.544392 1_555
O10 P2 1.544392 1_555
O11 P3 1.544392 1_555
O12 P0 1.535855 1_555
O13 P1 1.535855 1_555
O14 P2 1.535855 1_555
O15 P3 1.535855 1_555
