# generated using pymatgen
data_Pr4(LuS2)11
_symmetry_space_group_name_H-M   'P 1'
_cell_length_a   19.52539541
_cell_length_b   19.52539541
_cell_length_c   11.26918258
_cell_angle_alpha   88.65369094
_cell_angle_beta   88.65369094
_cell_angle_gamma   11.52356769
_symmetry_Int_Tables_number   1
_chemical_formula_structural   Pr4(LuS2)11
_chemical_formula_sum   'Pr4 Lu11 S22'
_cell_volume   858.03182013
_cell_formula_units_Z   1
loop_
 _symmetry_equiv_pos_site_id
 _symmetry_equiv_pos_as_xyz
  1  'x, y, z'
loop_
 _atom_site_type_symbol
 _atom_site_label
 _atom_site_symmetry_multiplicity
 _atom_site_fract_x
 _atom_site_fract_y
 _atom_site_fract_z
 _atom_site_occupancy
  Pr  Pr0  1  0.10424600  0.10424600  0.98693900  1
  Pr  Pr1  1  0.89575400  0.89575400  0.01306100  1
  Pr  Pr2  1  0.36683400  0.36683400  0.65165500  1
  Pr  Pr3  1  0.63316600  0.63316600  0.34834500  1
  Lu  Lu0  1  0.79762800  0.79762800  0.94185800  1
  Lu  Lu1  1  0.20237200  0.20237200  0.05814200  1
  Lu  Lu2  1  0.46189800  0.46189800  0.72922900  1
  Lu  Lu3  1  0.53810200  0.53810200  0.27077100  1
  Lu  Lu4  1  0.65780700  0.65780700  0.69901200  1
  Lu  Lu5  1  0.34219300  0.34219300  0.30098800  1
  Lu  Lu6  1  0.26327000  0.26327000  0.64813700  1
  Lu  Lu7  1  0.73673000  0.73673000  0.35186300  1
  Lu  Lu8  1  0.06957800  0.06957800  0.63846700  1
  Lu  Lu9  1  0.93042200  0.93042200  0.36153300  1
  Lu  Lu10  1  0.00000000  0.00000000  0.00000000  1
  S  S0  1  0.08685900  0.08685900  0.24724100  1
  S  S1  1  0.91314100  0.91314100  0.75275900  1
  S  S2  1  0.18991000  0.18991000  0.30849700  1
  S  S3  1  0.81009000  0.81009000  0.69150300  1
  S  S4  1  0.28021200  0.28021200  0.41077400  1
  S  S5  1  0.71978800  0.71978800  0.58922600  1
  S  S6  1  0.44498800  0.44498800  0.50637400  1
  S  S7  1  0.55501200  0.55501200  0.49362600  1
  S  S8  1  0.13485600  0.13485600  0.54892500  1
  S  S9  1  0.86514400  0.86514400  0.45107500  1
  S  S10  1  0.59284900  0.59284900  0.78550200  1
  S  S11  1  0.40715100  0.40715100  0.21449800  1
  S  S12  1  0.45359400  0.45359400  0.96837700  1
  S  S13  1  0.54640600  0.54640600  0.03162300  1
  S  S14  1  0.34975900  0.34975900  0.90826100  1
  S  S15  1  0.65024100  0.65024100  0.09173900  1
  S  S16  1  0.16909600  0.16909600  0.84744700  1
  S  S17  1  0.83090400  0.83090400  0.15255300  1
  S  S18  1  0.00786400  0.00786400  0.75957600  1
  S  S19  1  0.99213600  0.99213600  0.24042400  1
  S  S20  1  0.25512900  0.25512900  0.88067200  1
  S  S21  1  0.74487100  0.74487100  0.11932800  1
loop_
_geom_bond_atom_site_label_1
_geom_bond_atom_site_label_2
_geom_bond_distance
_geom_bond_site_symmetry_2
Pr0 S15 2.920699 1_456
Pr0 S15 2.920699 1_546
Pr0 S16 2.938134 1_555
Pr0 S0 2.994587 1_556
Pr0 S13 3.015432 1_456
Pr0 S13 3.015432 1_546
Pr0 S10 3.039574 1_545
Pr0 S10 3.039574 1_455
Pr1 S14 2.920699 1_654
Pr1 S14 2.920699 1_564
Pr1 S17 2.938134 1_555
Pr1 S1 2.994587 1_554
Pr1 S12 3.015432 1_654
Pr1 S12 3.015432 1_564
Pr1 S11 3.039574 1_565
Pr1 S11 3.039574 1_655
Pr2 S1 2.911091 1_455
Pr2 S1 2.911091 1_545
Pr2 S14 2.951556 1_555
Pr2 S3 2.976242 1_545
Pr2 S3 2.976242 1_455
Pr2 S9 2.993830 1_545
Pr2 S9 2.993830 1_455
Pr2 S6 3.415596 1_555
Pr3 S0 2.911091 1_655
Pr3 S0 2.911091 1_565
Pr3 S15 2.951556 1_555
Pr3 S2 2.976242 1_655
Pr3 S2 2.976242 1_565
Pr3 S8 2.993830 1_655
Pr3 S8 2.993830 1_565
Pr3 S7 3.415596 1_555
Lu0 S20 2.664244 1_565
Lu0 S20 2.664244 1_655
Lu0 S17 2.730226 1_556
Lu0 S21 2.829807 1_556
Lu0 S14 2.837618 1_655
Lu0 S14 2.837618 1_565
Lu0 S3 2.851252 1_555
Lu1 S21 2.664244 1_545
Lu1 S21 2.664244 1_455
Lu1 S16 2.730226 1_554
Lu1 S20 2.829807 1_554
Lu1 S15 2.837618 1_455
Lu1 S15 2.837618 1_545
Lu1 S2 2.851252 1_555
Lu2 S6 2.610880 1_555
Lu2 S18 2.679141 1_565
Lu2 S18 2.679141 1_655
Lu2 S12 2.706671 1_555
Lu2 S1 2.734534 1_455
Lu2 S1 2.734534 1_545
Lu3 S7 2.610880 1_555
Lu3 S19 2.679141 1_545
Lu3 S19 2.679141 1_455
Lu3 S13 2.706671 1_555
Lu3 S0 2.734534 1_565
Lu3 S0 2.734534 1_655
Lu4 S16 2.620594 1_655
Lu4 S16 2.620594 1_565
Lu4 S5 2.681282 1_555
Lu4 S10 2.683953 1_555
Lu4 S8 2.751275 1_565
Lu4 S8 2.751275 1_655
Lu5 S17 2.620594 1_545
Lu5 S17 2.620594 1_455
Lu5 S4 2.681282 1_555
Lu5 S11 2.683953 1_555
Lu5 S9 2.751275 1_455
Lu5 S9 2.751275 1_545
Lu6 S20 2.632074 1_555
Lu6 S5 2.681471 1_545
Lu6 S5 2.681471 1_455
Lu6 S3 2.726248 1_545
Lu6 S3 2.726248 1_455
Lu6 S4 2.739555 1_555
Lu7 S21 2.632074 1_555
Lu7 S4 2.681471 1_565
Lu7 S4 2.681471 1_655
Lu7 S2 2.726248 1_655
Lu7 S2 2.726248 1_565
Lu7 S5 2.739555 1_555
Lu8 S7 2.621170 1_545
Lu8 S7 2.621170 1_455
Lu8 S8 2.707407 1_555
Lu8 S18 2.730858 1_555
Lu8 S10 2.734265 1_545
Lu8 S10 2.734265 1_455
Lu9 S6 2.621170 1_565
Lu9 S6 2.621170 1_655
Lu9 S9 2.707407 1_555
Lu9 S19 2.730858 1_555
Lu9 S11 2.734265 1_565
Lu9 S11 2.734265 1_655
Lu10 S13 2.692711 1_455
Lu10 S13 2.692711 1_545
Lu10 S12 2.692711 1_454
Lu10 S12 2.692711 1_544
Lu10 S19 2.719377 1_445
Lu10 S18 2.719377 1_554
