# generated using pymatgen
data_LiY(MoO4)2
_symmetry_space_group_name_H-M   'P 1'
_cell_length_a   6.71831398
_cell_length_b   6.71831398
_cell_length_c   6.71831398
_cell_angle_alpha   134.42465103
_cell_angle_beta   134.42465103
_cell_angle_gamma   66.42548838
_symmetry_Int_Tables_number   1
_chemical_formula_structural   LiY(MoO4)2
_chemical_formula_sum   'Li1 Y1 Mo2 O8'
_cell_volume   152.23500211
_cell_formula_units_Z   1
loop_
 _symmetry_equiv_pos_site_id
 _symmetry_equiv_pos_as_xyz
  1  'x, y, z'
loop_
 _atom_site_type_symbol
 _atom_site_label
 _atom_site_symmetry_multiplicity
 _atom_site_fract_x
 _atom_site_fract_y
 _atom_site_fract_z
 _atom_site_occupancy
  Li  Li0  1  0.75000000  0.25000000  0.50000000  1
  Y  Y0  1  0.50000000  0.50000000  0.00000000  1
  Mo  Mo0  1  0.25000000  0.75000000  0.50000000  1
  Mo  Mo1  1  0.00000000  0.00000000  0.00000000  1
  O  O0  1  0.49192200  0.08554500  0.89999400  1
  O  O1  1  0.18555100  0.59192800  0.10000600  1
  O  O2  1  0.83476500  0.24465800  0.91054100  1
  O  O3  1  0.33411700  0.92422300  0.08945900  1
  O  O4  1  0.75534200  0.66588300  0.59010700  1
  O  O5  1  0.07577700  0.16523500  0.40989300  1
  O  O6  1  0.40807200  0.50807800  0.59362300  1
  O  O7  1  0.91445500  0.81444900  0.40637700  1
loop_
_geom_bond_atom_site_label_1
_geom_bond_atom_site_label_2
_geom_bond_distance
_geom_bond_site_symmetry_2
Li0 O4 2.419977 1_555
Li0 O2 2.419977 1_555
Li0 O3 2.419980 1_545
Li0 O5 2.419983 1_655
Li0 O1 2.447249 1_656
Li0 O0 2.447249 1_554
Li0 O6 2.447249 1_555
Li0 O7 2.447249 1_545
Mo0 O7 1.811204 1_455
Mo0 O0 1.811204 1_565
Mo0 O6 1.811204 1_555
Mo0 O1 1.811204 1_555
Mo1 O5 1.812369 1_555
Mo1 O2 1.812372 1_454
Mo1 O4 1.812372 1_444
Mo1 O3 1.812373 1_545
O0 Y0 2.378717 1_556
O1 Y0 2.378717 1_555
O2 Y0 2.392731 1_556
O3 Y0 2.392725 1_555
O4 Y0 2.392731 1_555
O5 Y0 2.392728 1_556
O6 Y0 2.378717 1_556
O7 Y0 2.378717 1_555
