# generated using pymatgen
data_Nd3(Co2Sn)4
_symmetry_space_group_name_H-M   'P 1'
_cell_length_a   9.01542245
_cell_length_b   9.01542245
_cell_length_c   7.59124200
_cell_angle_alpha   90.00000000
_cell_angle_beta   90.00000000
_cell_angle_gamma   120.00000332
_symmetry_Int_Tables_number   1
_chemical_formula_structural   Nd3(Co2Sn)4
_chemical_formula_sum   'Nd6 Co16 Sn8'
_cell_volume   534.33745517
_cell_formula_units_Z   2
loop_
 _symmetry_equiv_pos_site_id
 _symmetry_equiv_pos_as_xyz
  1  'x, y, z'
loop_
 _atom_site_type_symbol
 _atom_site_label
 _atom_site_symmetry_multiplicity
 _atom_site_fract_x
 _atom_site_fract_y
 _atom_site_fract_z
 _atom_site_occupancy
  Nd  Nd0  1  0.47258500  0.94517000  0.77777400  1
  Nd  Nd1  1  0.47258500  0.52741500  0.77777400  1
  Nd  Nd2  1  0.52741500  0.05483000  0.27777400  1
  Nd  Nd3  1  0.05483000  0.52741500  0.77777400  1
  Nd  Nd4  1  0.52741500  0.47258500  0.27777400  1
  Nd  Nd5  1  0.94517000  0.47258500  0.27777400  1
  Co  Co0  1  0.09504000  0.19008000  0.75318300  1
  Co  Co1  1  0.09504000  0.90496000  0.75318300  1
  Co  Co2  1  0.90496000  0.80992000  0.25318300  1
  Co  Co3  1  0.80992000  0.90496000  0.75318300  1
  Co  Co4  1  0.90496000  0.09504000  0.25318300  1
  Co  Co5  1  0.19008000  0.09504000  0.25318300  1
  Co  Co6  1  0.84402900  0.68805900  0.94433600  1
  Co  Co7  1  0.84402900  0.15597100  0.94433600  1
  Co  Co8  1  0.15597100  0.31194100  0.44433600  1
  Co  Co9  1  0.31194100  0.15597100  0.94433600  1
  Co  Co10  1  0.15597100  0.84402900  0.44433600  1
  Co  Co11  1  0.68805900  0.84402900  0.44433600  1
  Co  Co12  1  0.00000000  0.00000000  0.99721900  1
  Co  Co13  1  0.00000000  0.00000000  0.49721900  1
  Co  Co14  1  0.66666700  0.33333300  0.58248500  1
  Co  Co15  1  0.33333300  0.66666700  0.08248500  1
  Sn  Sn0  1  0.66666700  0.33333300  0.94563900  1
  Sn  Sn1  1  0.33333300  0.66666700  0.44563900  1
  Sn  Sn2  1  0.83044400  0.66088900  0.57142600  1
  Sn  Sn3  1  0.83044400  0.16955600  0.57142600  1
  Sn  Sn4  1  0.16955600  0.33911100  0.07142600  1
  Sn  Sn5  1  0.33911100  0.16955600  0.57142600  1
  Sn  Sn6  1  0.16955600  0.83044400  0.07142600  1
  Sn  Sn7  1  0.66088900  0.83044400  0.07142600  1
loop_
_geom_bond_atom_site_label_1
_geom_bond_atom_site_label_2
_geom_bond_distance
_geom_bond_site_symmetry_2
Nd0 Sn3 3.229270 1_565
Nd0 Sn5 3.229277 1_565
Nd0 Sn6 3.267546 1_556
Nd0 Sn7 3.267552 1_556
Nd0 Sn0 3.287625 1_565
Nd0 Sn1 3.329446 1_555
Nd1 Sn2 3.229269 1_555
Nd1 Sn5 3.229269 1_555
Nd1 Sn7 3.267547 1_556
Nd1 Sn4 3.267547 1_556
Nd1 Sn0 3.287633 1_555
Nd1 Sn1 3.329451 1_555
Nd2 Sn6 3.229270 1_545
Nd2 Sn7 3.229277 1_545
Nd2 Sn3 3.267546 1_555
Nd2 Sn5 3.267552 1_555
Nd2 Sn1 3.287625 1_545
Nd2 Sn0 3.329446 1_554
Nd3 Sn3 3.229270 1_455
Nd3 Sn2 3.229277 1_455
Nd3 Sn6 3.267546 1_556
Nd3 Sn4 3.267552 1_556
Nd3 Sn0 3.287625 1_455
Nd3 Sn1 3.329446 1_555
Nd4 Sn7 3.229269 1_555
Nd4 Sn4 3.229269 1_555
Nd4 Sn2 3.267547 1_555
Nd4 Sn5 3.267547 1_555
Nd4 Sn1 3.287633 1_555
Nd4 Sn0 3.329451 1_554
Nd5 Sn6 3.229270 1_655
Nd5 Sn4 3.229277 1_655
Nd5 Sn3 3.267546 1_555
Nd5 Sn2 3.267552 1_555
Nd5 Sn1 3.287625 1_655
Nd5 Sn0 3.329446 1_554
Co0 Co12 2.373677 1_555
Co0 Co13 2.445001 1_555
Co0 Co8 2.530231 1_555
Co0 Co3 2.570477 1_445
Co0 Co1 2.570477 1_545
Co0 Co9 2.573973 1_555
Co0 Co7 2.573980 1_455
Co0 Sn5 2.680839 1_555
Co0 Sn3 2.680847 1_455
Co0 Sn4 2.681469 1_556
Co0 Nd1 3.243106 1_555
Co0 Nd3 3.243106 1_555
Co1 Co12 2.373677 1_565
Co1 Co13 2.445001 1_565
Co1 Co10 2.530234 1_555
Co1 Co3 2.570477 1_455
Co1 Co9 2.573977 1_565
Co1 Co6 2.573977 1_455
Co1 Sn5 2.680843 1_565
Co1 Sn2 2.680843 1_455
Co1 Sn6 2.681473 1_556
Co1 Nd0 3.243106 1_555
Co1 Nd3 3.243106 1_555
Co2 Co6 2.530231 1_554
Co2 Co5 2.570477 1_665
Co2 Co4 2.570477 1_565
Co2 Sn7 2.680839 1_555
Co2 Sn6 2.680847 1_655
Co2 Sn2 2.681469 1_555
Co2 Nd4 3.243106 1_555
Co2 Nd5 3.243106 1_555
Co3 Co6 2.573973 1_555
Co3 Co7 2.573980 1_565
Co3 Sn2 2.680839 1_555
Co3 Sn3 2.680847 1_565
Co3 Sn7 2.681469 1_556
Co3 Nd1 3.243106 1_555
Co3 Nd0 3.243106 1_555
Co4 Co7 2.530234 1_554
Co4 Co5 2.570477 1_655
Co4 Co8 2.573977 1_655
Co4 Sn4 2.680843 1_655
Co4 Sn7 2.680843 1_545
Co4 Sn3 2.681473 1_555
Co4 Nd5 3.243106 1_555
Co4 Nd2 3.243106 1_555
Co5 Co9 2.530231 1_554
Co5 Co8 2.573973 1_555
Co5 Sn4 2.680839 1_555
Co5 Sn6 2.680847 1_545
Co5 Sn5 2.681469 1_555
Co5 Nd4 3.243106 1_555
Co5 Nd2 3.243106 1_555
Co6 Sn7 2.724717 1_556
Co6 Sn6 2.724732 1_656
Co6 Sn0 2.769571 1_555
Co6 Sn2 2.838787 1_555
Co6 Nd1 3.171801 1_555
Co6 Nd3 3.171809 1_655
Co6 Nd4 3.575385 1_556
Co6 Nd5 3.575390 1_556
Co7 Sn4 2.724731 1_656
Co7 Sn7 2.724731 1_546
Co7 Sn0 2.769555 1_555
Co7 Sn3 2.838787 1_555
Co7 Nd0 3.171802 1_545
Co7 Nd3 3.171802 1_655
Co7 Nd2 3.575383 1_556
Co7 Nd5 3.575383 1_556
Co8 Sn5 2.724717 1_555
Co8 Sn3 2.724732 1_455
Co8 Sn1 2.769571 1_555
Co8 Sn4 2.838787 1_555
Co8 Nd4 3.171801 1_555
Co8 Nd5 3.171809 1_455
Co8 Nd1 3.575385 1_555
Co8 Nd3 3.575390 1_555
Co9 Sn4 2.724717 1_556
Co9 Sn6 2.724732 1_546
Co9 Sn0 2.769571 1_555
Co9 Sn5 2.838787 1_555
Co9 Nd1 3.171801 1_555
Co9 Nd0 3.171809 1_545
Co9 Nd4 3.575385 1_556
Co9 Nd2 3.575390 1_556
Co10 Co13 2.468377 1_565
Co10 Co2 2.573980 1_455
Co10 Co5 2.573980 1_565
Co10 Sn5 2.724731 1_565
Co10 Sn2 2.724731 1_455
Co10 Sn1 2.769555 1_555
Co10 Sn6 2.838787 1_555
Co10 Nd5 3.171802 1_455
Co10 Nd2 3.171802 1_565
Co10 Nd3 3.575383 1_555
Co10 Nd0 3.575383 1_555
Co11 Co13 2.468370 1_665
Co11 Co3 2.530231 1_555
Co11 Co2 2.573973 1_555
Co11 Co4 2.573977 1_565
Co11 Sn2 2.724717 1_555
Co11 Sn3 2.724732 1_565
Co11 Sn1 2.769571 1_555
Co11 Sn7 2.838787 1_555
Co11 Nd4 3.171801 1_555
Co11 Nd2 3.171809 1_565
Co11 Nd1 3.575385 1_555
Co11 Nd0 3.575390 1_555
Co12 Co3 2.373677 1_445
Co12 Co2 2.445001 1_446
Co12 Co5 2.445001 1_556
Co12 Co4 2.445001 1_456
Co12 Co9 2.468370 1_555
Co12 Co6 2.468370 1_445
Co12 Co7 2.468377 1_455
Co12 Sn4 2.706902 1_556
Co12 Sn7 2.706902 1_446
Co12 Sn6 2.706910 1_546
Co13 Co2 2.373677 1_445
Co13 Co5 2.373677 1_555
Co13 Co4 2.373677 1_455
Co13 Co3 2.445001 1_445
Co13 Co8 2.468370 1_555
Co13 Sn5 2.706902 1_555
Co13 Sn2 2.706902 1_445
Co13 Sn3 2.706910 1_455
Co14 Sn3 2.558783 1_555
Co14 Sn5 2.558799 1_555
Co14 Sn2 2.558799 1_555
Co14 Sn0 2.756790 1_555
Co14 Nd2 3.174707 1_555
Co14 Nd5 3.174707 1_555
Co14 Nd4 3.174712 1_555
Co14 Nd0 3.373781 1_545
Co14 Nd3 3.373781 1_655
Co14 Nd1 3.373788 1_555
Co15 Sn6 2.558783 1_555
Co15 Sn7 2.558799 1_555
Co15 Sn4 2.558799 1_555
Co15 Sn1 2.756790 1_555
Co15 Nd3 3.174707 1_554
Co15 Nd0 3.174707 1_554
Co15 Nd1 3.174712 1_554
Co15 Nd5 3.373781 1_455
Co15 Nd2 3.373781 1_565
Co15 Nd4 3.373788 1_555
