# generated using pymatgen
data_KMg14Fe
_symmetry_space_group_name_H-M   'P 1'
_cell_length_a   6.45812142
_cell_length_b   6.48336180
_cell_length_c   10.34013204
_cell_angle_alpha   90.00000000
_cell_angle_beta   90.00000000
_cell_angle_gamma   120.12937606
_symmetry_Int_Tables_number   1
_chemical_formula_structural   KMg14Fe
_chemical_formula_sum   'K1 Mg14 Fe1'
_cell_volume   374.45145453
_cell_formula_units_Z   1
loop_
 _symmetry_equiv_pos_site_id
 _symmetry_equiv_pos_as_xyz
  1  'x, y, z'
loop_
 _atom_site_type_symbol
 _atom_site_label
 _atom_site_symmetry_multiplicity
 _atom_site_fract_x
 _atom_site_fract_y
 _atom_site_fract_z
 _atom_site_occupancy
  K  K0  1  0.16506099  0.83252999  0.12500000  1
  Mg  Mg0  1  0.16522566  0.33261233  0.62500000  1
  Mg  Mg1  1  0.16865779  0.83432839  0.62500000  1
  Mg  Mg2  1  0.66196538  0.33749999  0.12500000  1
  Mg  Mg3  1  0.66568316  0.33012476  0.62500000  1
  Mg  Mg4  1  0.66196538  0.82446439  0.12500000  1
  Mg  Mg5  1  0.66568316  0.83555740  0.62500000  1
  Mg  Mg6  1  0.33330277  0.17977144  0.37889062  1
  Mg  Mg7  1  0.33330277  0.17977144  0.87110938  1
  Mg  Mg8  1  0.33330277  0.65353233  0.37889062  1
  Mg  Mg9  1  0.33330277  0.65353233  0.87110938  1
  Mg  Mg10  1  0.84166137  0.17083118  0.36314005  1
  Mg  Mg11  1  0.84166137  0.17083118  0.88685995  1
  Mg  Mg12  1  0.82339725  0.66169912  0.38884841  1
  Mg  Mg13  1  0.82339725  0.66169912  0.86115159  1
  Fe  Fe0  1  0.18243015  0.34121457  0.12500000  1
loop_
_geom_bond_atom_site_label_1
_geom_bond_atom_site_label_2
_geom_bond_distance
_geom_bond_site_symmetry_2
K0 Mg2 3.223121 1_455
K0 Mg4 3.223122 1_455
K0 Mg2 3.235633 1_565
K0 Mg4 3.235633 1_555
K0 Mg9 3.268817 1_554
K0 Mg8 3.268817 1_555
K0 Mg7 3.268824 1_564
K0 Mg6 3.268824 1_565
K0 Mg12 3.329443 1_455
K0 Mg13 3.329443 1_454
Mg0 Mg6 3.117049 1_555
Mg0 Mg7 3.117049 1_555
Mg0 Mg8 3.117055 1_555
Mg0 Mg9 3.117055 1_555
Mg0 Mg5 3.218041 1_445
Mg0 Mg3 3.218041 1_455
Mg0 Mg5 3.240140 1_555
Mg0 Mg3 3.240141 1_555
Mg0 Mg1 3.241738 1_555
Mg0 Mg1 3.241738 1_545
Mg0 Mg10 3.255424 1_455
Mg0 Mg11 3.255424 1_455
Mg1 Mg12 3.111531 1_455
Mg1 Mg13 3.111531 1_455
Mg1 Mg8 3.198724 1_555
Mg1 Mg9 3.198724 1_555
Mg1 Mg6 3.198730 1_565
Mg1 Mg7 3.198730 1_565
Mg1 Mg3 3.205858 1_565
Mg1 Mg5 3.205858 1_555
Mg1 Mg3 3.252278 1_455
Mg1 Mg5 3.252278 1_455
Mg2 Mg4 3.157166 1_555
Mg2 Mg7 3.203733 1_554
Mg2 Mg6 3.203733 1_555
Mg2 Mg4 3.326195 1_545
Mg3 Mg6 3.151716 1_555
Mg3 Mg7 3.151716 1_555
Mg3 Mg5 3.206459 1_545
Mg3 Mg5 3.276903 1_555
Mg4 Mg9 3.203733 1_554
Mg4 Mg8 3.203733 1_555
Mg5 Mg8 3.151715 1_555
Mg5 Mg9 3.151715 1_555
Mg6 Mg8 3.071563 1_555
Mg6 Mg8 3.411799 1_545
Mg7 Mg9 3.071563 1_555
Mg7 Mg9 3.411799 1_545
Mg10 Mg2 3.136354 1_555
Mg10 Mg4 3.136361 1_545
Mg10 Mg8 3.150597 1_655
Mg10 Mg6 3.150597 1_655
Mg10 Mg12 3.254161 1_545
Mg10 Mg12 3.254161 1_555
Mg10 Mg3 3.296659 1_555
Mg10 Mg5 3.296665 1_545
Mg10 Mg8 3.316517 1_545
Mg10 Mg6 3.316517 1_555
Mg11 Mg2 3.136354 1_556
Mg11 Mg4 3.136361 1_546
Mg11 Mg9 3.150597 1_655
Mg11 Mg7 3.150597 1_655
Mg11 Mg13 3.254161 1_545
Mg11 Mg13 3.254161 1_555
Mg11 Mg3 3.296659 1_555
Mg11 Mg5 3.296665 1_545
Mg11 Mg9 3.316517 1_545
Mg11 Mg7 3.316517 1_555
Mg12 Mg5 3.069708 1_555
Mg12 Mg3 3.069715 1_555
Mg12 Mg6 3.140534 1_555
Mg12 Mg8 3.140534 1_555
Mg12 Mg4 3.278442 1_555
Mg12 Mg2 3.278448 1_555
Mg12 Mg6 3.321521 1_665
Mg12 Mg8 3.321522 1_655
Mg13 Mg5 3.069708 1_555
Mg13 Mg3 3.069715 1_555
Mg13 Mg7 3.140534 1_555
Mg13 Mg9 3.140534 1_555
Mg13 Mg4 3.278442 1_556
Mg13 Mg2 3.278448 1_556
Mg13 Mg7 3.321521 1_665
Mg13 Mg9 3.321522 1_655
Fe0 Mg4 3.109055 1_555
Fe0 Mg2 3.109055 1_555
Fe0 Mg10 3.112286 1_455
Fe0 Mg11 3.112286 1_454
Fe0 Mg7 3.156069 1_554
Fe0 Mg6 3.156069 1_555
Fe0 Mg9 3.156076 1_554
Fe0 Mg8 3.156076 1_555
Fe0 K0 3.243132 1_545
Fe0 K0 3.243132 1_555
Fe0 Mg4 3.349201 1_445
Fe0 Mg2 3.349201 1_455
