# generated using pymatgen
data_Ru(C4N3)2
_symmetry_space_group_name_H-M   'P 1'
_cell_length_a   5.74464800
_cell_length_b   7.37581664
_cell_length_c   7.37608151
_cell_angle_alpha   119.99865528
_cell_angle_beta   90.00063601
_cell_angle_gamma   90.00002025
_symmetry_Int_Tables_number   1
_chemical_formula_structural   Ru(C4N3)2
_chemical_formula_sum   'Ru1 C8 N6'
_cell_volume   270.66727997
_cell_formula_units_Z   1
loop_
 _symmetry_equiv_pos_site_id
 _symmetry_equiv_pos_as_xyz
  1  'x, y, z'
loop_
 _atom_site_type_symbol
 _atom_site_label
 _atom_site_symmetry_multiplicity
 _atom_site_fract_x
 _atom_site_fract_y
 _atom_site_fract_z
 _atom_site_occupancy
  Ru  Ru0  1  0.98008000  0.00000000  0.00000000  1
  C  C0  1  0.22720300  0.66667500  0.33335000  1
  C  C1  1  0.20164300  0.77586700  0.55173500  1
  C  C2  1  0.20164700  0.77587200  0.22415200  1
  C  C3  1  0.20164700  0.44828300  0.22415300  1
  C  C4  1  0.73286800  0.33332800  0.66665400  1
  C  C5  1  0.75846100  0.55173000  0.77585200  1
  C  C6  1  0.75846500  0.22412800  0.44825600  1
  C  C7  1  0.75846300  0.22412200  0.77585400  1
  N  N0  1  0.16826100  0.86636300  0.73272500  1
  N  N1  1  0.16826700  0.86635900  0.13364100  1
  N  N2  1  0.16826800  0.26728100  0.13364200  1
  N  N3  1  0.79185800  0.73271400  0.86635500  1
  N  N4  1  0.79186300  0.13363800  0.26727700  1
  N  N5  1  0.79185900  0.13364000  0.86635400  1
loop_
_geom_bond_atom_site_label_1
_geom_bond_atom_site_label_2
_geom_bond_distance
_geom_bond_site_symmetry_2
C0 C3 1.402732 1_555
C0 C1 1.402743 1_555
C0 C2 1.402748 1_555
C1 N0 1.171955 1_555
C2 N1 1.171957 1_555
C3 N2 1.171984 1_555
C4 C5 1.402818 1_555
C4 C7 1.402841 1_555
C4 C6 1.402848 1_555
C5 N3 1.171887 1_555
C6 N4 1.171901 1_555
C7 N5 1.171871 1_555
N0 Ru0 2.020816 1_466
N1 Ru0 2.020800 1_465
N2 Ru0 2.020800 1_455
N3 Ru0 2.020932 1_566
N4 Ru0 2.020938 1_555
N5 Ru0 2.020926 1_556
