# generated using pymatgen
data_Li7Mn4CoO12
_symmetry_space_group_name_H-M   'P 1'
_cell_length_a   2.87554100
_cell_length_b   5.35999700
_cell_length_c   14.56966582
_cell_angle_alpha   87.05615902
_cell_angle_beta   90.00000000
_cell_angle_gamma   90.00000000
_symmetry_Int_Tables_number   1
_chemical_formula_structural   Li7Mn4CoO12
_chemical_formula_sum   'Li7 Mn4 Co1 O12'
_cell_volume   224.26433225
_cell_formula_units_Z   1
loop_
 _symmetry_equiv_pos_site_id
 _symmetry_equiv_pos_as_xyz
  1  'x, y, z'
loop_
 _atom_site_type_symbol
 _atom_site_label
 _atom_site_symmetry_multiplicity
 _atom_site_fract_x
 _atom_site_fract_y
 _atom_site_fract_z
 _atom_site_occupancy
  Li  Li0  1  0.50000000  0.00000000  0.50000000  1
  Li  Li1  1  0.50000000  0.35147300  0.84419000  1
  Li  Li2  1  0.50000000  0.64852700  0.15581000  1
  Li  Li3  1  0.00000000  0.50000000  0.50000000  1
  Li  Li4  1  0.00000000  0.83598300  0.84339700  1
  Li  Li5  1  0.00000000  0.16401700  0.15660300  1
  Li  Li6  1  0.50000000  0.00000000  0.00000000  1
  Mn  Mn0  1  0.00000000  0.82943000  0.32960400  1
  Mn  Mn1  1  0.00000000  0.17057000  0.67039600  1
  Mn  Mn2  1  0.50000000  0.32990200  0.33167800  1
  Mn  Mn3  1  0.50000000  0.67009800  0.66832200  1
  Co  Co0  1  0.00000000  0.50000000  0.00000000  1
  O  O0  1  0.50000000  0.68942700  0.40878000  1
  O  O1  1  0.50000000  0.02274100  0.74774800  1
  O  O2  1  0.50000000  0.35063000  0.07388900  1
  O  O3  1  0.00000000  0.18593300  0.41003300  1
  O  O4  1  0.00000000  0.52529400  0.74429000  1
  O  O5  1  0.00000000  0.77765100  0.06972200  1
  O  O6  1  0.50000000  0.31057300  0.59122000  1
  O  O7  1  0.50000000  0.64937000  0.92611100  1
  O  O8  1  0.50000000  0.97725900  0.25225200  1
  O  O9  1  0.00000000  0.81406700  0.58996700  1
  O  O10  1  0.00000000  0.22234900  0.93027800  1
  O  O11  1  0.00000000  0.47470600  0.25571000  1
loop_
_geom_bond_atom_site_label_1
_geom_bond_atom_site_label_2
_geom_bond_distance
_geom_bond_site_symmetry_2
Li0 O3 2.155084 1_555
Li0 O9 2.155084 1_545
Li0 O3 2.155084 1_655
Li0 O9 2.155084 1_645
Li0 O0 2.182827 1_545
Li0 O6 2.182827 1_555
Li1 O10 2.007543 1_555
Li1 O10 2.007543 1_655
Li1 O7 2.042028 1_555
Li1 O4 2.216852 1_555
Li1 O4 2.216852 1_655
Li1 O1 2.309403 1_555
Li2 O5 2.007543 1_655
Li2 O5 2.007543 1_555
Li2 O2 2.042028 1_555
Li2 O11 2.216852 1_655
Li2 O11 2.216852 1_555
Li2 O8 2.309403 1_555
Li3 O0 2.173898 1_455
Li3 O0 2.173898 1_555
Li3 O6 2.173898 1_555
Li3 O6 2.173898 1_455
Li3 O9 2.186011 1_555
Li3 O3 2.186011 1_555
Li4 O7 2.096703 1_455
Li4 O7 2.096703 1_555
Li4 O1 2.206353 1_465
Li4 O1 2.206353 1_565
Li4 O4 2.259468 1_555
Li4 O10 2.481993 1_565
Li5 O2 2.096703 1_455
Li5 O2 2.096703 1_555
Li5 O8 2.206353 1_445
Li5 O8 2.206353 1_545
Li5 O11 2.259468 1_555
Li5 O5 2.481993 1_545
Li6 O5 2.096449 1_545
Li6 O5 2.096449 1_645
Li6 O10 2.096449 1_554
Li6 O10 2.096449 1_654
Li6 O2 2.213323 1_555
Li6 O7 2.213323 1_544
Mn0 O0 1.967768 1_555
Mn0 O0 1.967768 1_455
Mn0 O8 1.968099 1_555
Mn0 O8 1.968099 1_455
Mn0 O11 2.232568 1_555
Mn0 O3 2.292277 1_565
Mn1 O6 1.967768 1_555
Mn1 O6 1.967768 1_455
Mn1 O1 1.968099 1_455
Mn1 O1 1.968099 1_555
Mn1 O4 2.232568 1_555
Mn1 O9 2.292277 1_545
Mn2 O11 1.951005 1_655
Mn2 O11 1.951005 1_555
Mn2 O3 1.968614 1_555
Mn2 O3 1.968614 1_655
Mn2 O8 2.266391 1_545
Mn2 O0 2.279868 1_555
Mn3 O4 1.951005 1_655
Mn3 O4 1.951005 1_555
Mn3 O9 1.968614 1_555
Mn3 O9 1.968614 1_655
Mn3 O1 2.266391 1_565
Mn3 O6 2.279868 1_555
Co0 O5 1.844437 1_555
Co0 O10 1.844437 1_554
Co0 O2 1.943858 1_455
Co0 O2 1.943858 1_555
Co0 O7 1.943858 1_454
Co0 O7 1.943858 1_554
