# generated using pymatgen
data_NdCu6
_symmetry_space_group_name_H-M   'P 1'
_cell_length_a   5.05180098
_cell_length_b   7.99540901
_cell_length_c   10.03137402
_cell_angle_alpha   89.99959087
_cell_angle_beta   90.00000000
_cell_angle_gamma   90.00000000
_symmetry_Int_Tables_number   1
_chemical_formula_structural   NdCu6
_chemical_formula_sum   'Nd4 Cu24'
_cell_volume   405.17938551
_cell_formula_units_Z   4
loop_
 _symmetry_equiv_pos_site_id
 _symmetry_equiv_pos_as_xyz
  1  'x, y, z'
loop_
 _atom_site_type_symbol
 _atom_site_label
 _atom_site_symmetry_multiplicity
 _atom_site_fract_x
 _atom_site_fract_y
 _atom_site_fract_z
 _atom_site_occupancy
  Nd  Nd0  1  0.25000000  0.26097832  0.56348768  1
  Nd  Nd1  1  0.25000000  0.76099368  0.93648082  1
  Nd  Nd2  1  0.75000000  0.73902312  0.43662598  1
  Nd  Nd3  1  0.75000000  0.23899974  0.06340853  1
  Cu  Cu0  1  0.25000000  0.14856116  0.85700108  1
  Cu  Cu1  1  0.25000000  0.64859854  0.64294274  1
  Cu  Cu2  1  0.75000000  0.85144648  0.14294586  1
  Cu  Cu3  1  0.75000000  0.35140884  0.35710941  1
  Cu  Cu4  1  0.25000000  0.81908653  0.24491025  1
  Cu  Cu5  1  0.25000000  0.31907228  0.25515135  1
  Cu  Cu6  1  0.75000000  0.18092178  0.75512499  1
  Cu  Cu7  1  0.75000000  0.68093820  0.74480845  1
  Cu  Cu8  1  0.25000000  0.56449415  0.40213190  1
  Cu  Cu9  1  0.25000000  0.06449720  0.09792205  1
  Cu  Cu10  1  0.75000000  0.43550224  0.59792993  1
  Cu  Cu11  1  0.75000000  0.93549995  0.90201666  1
  Cu  Cu12  1  0.25000000  0.90218704  0.48354212  1
  Cu  Cu13  1  0.25000000  0.40218042  0.01645670  1
  Cu  Cu14  1  0.75000000  0.09782145  0.51651906  1
  Cu  Cu15  1  0.75000000  0.59782347  0.98348298  1
  Cu  Cu16  1  0.00449995  0.43369809  0.80972870  1
  Cu  Cu17  1  0.49549862  0.93368876  0.69019370  1
  Cu  Cu18  1  0.50447178  0.56629325  0.19022048  1
  Cu  Cu19  1  0.99552442  0.06630259  0.30985736  1
  Cu  Cu20  1  0.99552922  0.56629325  0.19022048  1
  Cu  Cu21  1  0.50447558  0.06630259  0.30985836  1
  Cu  Cu22  1  0.49550005  0.43369809  0.80972870  1
  Cu  Cu23  1  0.00450238  0.93368876  0.69019370  1
loop_
_geom_bond_atom_site_label_1
_geom_bond_atom_site_label_2
_geom_bond_distance
_geom_bond_site_symmetry_2
Cu0 Cu9 2.508485 1_556
Cu0 Cu13 2.582744 1_556
Cu0 Cu16 2.638261 1_555
Cu0 Cu22 2.638261 1_555
Cu0 Cu23 2.699927 1_545
Cu0 Cu17 2.699929 1_545
Cu0 Cu6 2.737062 1_555
Cu0 Cu6 2.737062 1_455
Cu0 Nd0 3.078473 1_555
Cu0 Cu11 3.079940 1_445
Cu0 Cu11 3.079940 1_545
Cu0 Nd1 3.199680 1_545
Cu0 Nd3 3.345181 1_456
Cu0 Nd3 3.345181 1_556
Cu1 Cu8 2.507517 1_555
Cu1 Cu12 2.582191 1_555
Cu1 Cu23 2.637900 1_555
Cu1 Cu17 2.637902 1_555
Cu1 Cu22 2.699927 1_555
Cu1 Cu16 2.699927 1_555
Cu1 Cu7 2.737009 1_455
Cu1 Cu7 2.737009 1_555
Cu1 Nd1 3.078671 1_555
Cu1 Cu10 3.080094 1_455
Cu1 Cu10 3.080094 1_555
Cu1 Nd0 3.200038 1_555
Cu1 Nd2 3.344588 1_555
Cu1 Nd2 3.344588 1_455
Cu2 Cu20 2.638447 1_555
Cu2 Cu21 2.700560 1_565
Cu2 Cu4 2.737393 1_655
Cu2 Cu4 2.737393 1_555
Cu2 Cu9 3.079905 1_565
Cu2 Cu9 3.079905 1_665
Cu2 Nd2 3.080087 1_555
Cu2 Nd3 3.199714 1_565
Cu2 Nd1 3.345563 1_654
Cu2 Nd1 3.345563 1_554
Cu3 Cu5 2.737353 1_555
Cu3 Cu5 2.737353 1_655
Cu3 Cu8 3.080060 1_555
Cu3 Cu8 3.080060 1_655
Cu3 Nd3 3.080265 1_555
Cu3 Nd2 3.200146 1_555
Cu3 Nd0 3.344980 1_555
Cu3 Nd0 3.344980 1_655
Cu4 Cu9 2.454416 1_565
Cu4 Cu8 2.575053 1_555
Cu4 Nd1 3.128644 1_554
Cu4 Nd2 3.238599 1_455
Cu4 Nd2 3.238599 1_555
Cu5 Cu8 2.454458 1_555
Cu5 Cu9 2.575009 1_555
Cu5 Nd0 3.127715 1_555
Cu5 Nd3 3.238781 1_455
Cu5 Nd3 3.238781 1_555
Cu6 Nd3 3.127179 1_556
Cu6 Nd0 3.238121 1_655
Cu6 Nd0 3.238121 1_555
Cu7 Nd2 3.126178 1_555
Cu7 Nd1 3.238334 1_655
Cu7 Nd1 3.238334 1_555
Cu8 Nd2 2.906396 1_555
Cu8 Nd2 2.906396 1_455
Cu8 Nd0 2.917003 1_555
Cu9 Nd3 2.906316 1_455
Cu9 Nd3 2.906316 1_555
Cu9 Nd1 2.917417 1_544
Cu10 Cu7 2.453933 1_555
Cu10 Cu16 2.483395 1_655
Cu10 Cu22 2.483395 1_555
Cu10 Cu3 2.507587 1_555
Cu10 Cu6 2.574815 1_555
Cu10 Cu14 2.820711 1_555
Cu10 Nd0 2.906315 1_555
Cu10 Nd0 2.906315 1_655
Cu10 Nd2 2.916749 1_555
Cu11 Cu6 2.453906 1_565
Cu11 Cu17 2.483607 1_555
Cu11 Cu23 2.483610 1_655
Cu11 Cu2 2.508542 1_556
Cu11 Cu7 2.574795 1_555
Cu11 Cu15 2.820828 1_555
Cu11 Nd1 2.906271 1_555
Cu11 Nd1 2.906271 1_655
Cu11 Nd3 2.917117 1_566
Cu12 Cu23 2.428761 1_555
Cu12 Cu17 2.428764 1_555
Cu12 Cu4 2.484308 1_555
Cu12 Cu21 2.531795 1_565
Cu12 Cu19 2.531802 1_465
Cu12 Cu8 2.820801 1_555
Cu12 Nd2 2.881590 1_555
Cu12 Nd2 2.881590 1_455
Cu12 Nd0 2.978678 1_565
Cu12 Cu14 2.989358 1_465
Cu12 Cu14 2.989358 1_565
Cu13 Cu16 2.429432 1_554
Cu13 Cu22 2.429432 1_554
Cu13 Cu5 2.484922 1_555
Cu13 Cu20 2.532337 1_455
Cu13 Cu18 2.532340 1_555
Cu13 Cu9 2.820876 1_555
Cu13 Nd3 2.881706 1_455
Cu13 Nd3 2.881706 1_555
Cu13 Nd1 2.978918 1_554
Cu13 Cu15 2.989388 1_554
Cu13 Cu15 2.989388 1_454
Cu14 Cu21 2.428923 1_555
Cu14 Cu19 2.428931 1_555
Cu14 Cu6 2.484057 1_555
Cu14 Cu17 2.531870 1_545
Cu14 Cu23 2.531872 1_645
Cu14 Cu3 2.582240 1_555
Cu14 Nd0 2.881650 1_555
Cu14 Nd0 2.881650 1_655
Cu14 Nd2 2.978590 1_545
Cu15 Cu18 2.429596 1_556
Cu15 Cu20 2.429599 1_556
Cu15 Cu7 2.484741 1_555
Cu15 Cu16 2.532398 1_655
Cu15 Cu22 2.532398 1_555
Cu15 Cu2 2.582813 1_556
Cu15 Nd1 2.881751 1_655
Cu15 Nd1 2.881751 1_555
Cu15 Nd3 2.978863 1_556
Cu16 Cu7 2.446376 1_455
Cu16 Cu6 2.457167 1_455
Cu16 Cu22 2.480435 1_555
Cu16 Cu22 2.571366 1_455
Cu16 Nd0 3.089793 1_555
Cu16 Nd1 3.162730 1_555
Cu16 Nd3 3.248385 1_456
Cu17 Cu6 2.446371 1_565
Cu17 Cu7 2.457020 1_555
Cu17 Cu23 2.480415 1_555
Cu17 Cu23 2.571386 1_655
Cu17 Nd1 3.090056 1_555
Cu17 Nd0 3.162486 1_565
Cu17 Nd2 3.247399 1_555
Cu18 Cu5 2.446206 1_555
Cu18 Cu4 2.457397 1_555
Cu18 Cu20 2.480724 1_555
Cu18 Cu8 2.484288 1_555
Cu18 Cu20 2.571077 1_455
Cu18 Cu2 2.638445 1_555
Cu18 Cu3 2.700551 1_555
Cu18 Nd2 3.091206 1_555
Cu18 Nd3 3.163013 1_555
Cu18 Nd1 3.248807 1_554
Cu19 Cu4 2.446236 1_645
Cu19 Cu5 2.457282 1_655
Cu19 Cu21 2.480681 1_555
Cu19 Cu9 2.484504 1_655
Cu19 Cu21 2.571120 1_655
Cu19 Cu3 2.638076 1_555
Cu19 Cu2 2.700554 1_545
Cu19 Nd3 3.091413 1_555
Cu19 Nd2 3.162723 1_545
Cu19 Nd0 3.247878 1_655
Cu20 Cu5 2.446204 1_655
Cu20 Cu4 2.457394 1_655
Cu20 Cu8 2.484286 1_655
Cu20 Cu3 2.700553 1_555
Cu20 Nd2 3.091208 1_555
Cu20 Nd3 3.163015 1_555
Cu20 Nd1 3.248805 1_654
Cu21 Cu4 2.446238 1_545
Cu21 Cu5 2.457284 1_555
Cu21 Cu9 2.484512 1_555
Cu21 Cu3 2.638074 1_555
Cu21 Nd3 3.091421 1_555
Cu21 Nd2 3.162719 1_545
Cu21 Nd0 3.247870 1_555
Cu22 Cu7 2.446376 1_555
Cu22 Cu6 2.457167 1_555
Cu22 Nd0 3.089793 1_555
Cu22 Nd1 3.162730 1_555
Cu22 Nd3 3.248385 1_556
Cu23 Cu6 2.446374 1_465
Cu23 Cu7 2.457022 1_455
Cu23 Nd1 3.090054 1_555
Cu23 Nd0 3.162484 1_565
Cu23 Nd2 3.247401 1_455
