# generated using pymatgen
data_Li4Mn3O7
_symmetry_space_group_name_H-M   'P 1'
_cell_length_a   5.09128900
_cell_length_b   5.98737951
_cell_length_c   8.78272999
_cell_angle_alpha   89.38282961
_cell_angle_beta   93.96479620
_cell_angle_gamma   103.38530706
_symmetry_Int_Tables_number   1
_chemical_formula_structural   Li4Mn3O7
_chemical_formula_sum   'Li8 Mn6 O14'
_cell_volume   259.82828479
_cell_formula_units_Z   2
loop_
 _symmetry_equiv_pos_site_id
 _symmetry_equiv_pos_as_xyz
  1  'x, y, z'
loop_
 _atom_site_type_symbol
 _atom_site_label
 _atom_site_symmetry_multiplicity
 _atom_site_fract_x
 _atom_site_fract_y
 _atom_site_fract_z
 _atom_site_occupancy
  Li  Li0  1  0.50000000  0.00000000  0.50000000  1
  Li  Li1  1  0.08050700  0.14767700  0.63870000  1
  Li  Li2  1  0.91949300  0.85232300  0.36130000  1
  Li  Li3  1  0.35818200  0.70407300  0.21881100  1
  Li  Li4  1  0.64181800  0.29592700  0.78118900  1
  Li  Li5  1  0.21493200  0.42974600  0.92416900  1
  Li  Li6  1  0.78506800  0.57025400  0.07583100  1
  Li  Li7  1  0.50000000  0.50000000  0.50000000  1
  Mn  Mn0  1  0.93522200  0.37128900  0.36078600  1
  Mn  Mn1  1  0.06477800  0.62871100  0.63921400  1
  Mn  Mn2  1  0.63422700  0.77301300  0.78001600  1
  Mn  Mn3  1  0.20976100  0.92596800  0.92652900  1
  Mn  Mn4  1  0.79023900  0.07403200  0.07347100  1
  Mn  Mn5  1  0.36577300  0.22698700  0.21998400  1
  O  O0  1  0.81755700  0.34672900  0.56677100  1
  O  O1  1  0.33207400  0.46896700  0.70731600  1
  O  O2  1  0.20493400  0.18578900  0.41313700  1
  O  O3  1  0.66696300  0.07306000  0.28765700  1
  O  O4  1  0.91479600  0.60367800  0.83948300  1
  O  O5  1  0.48802000  0.75743600  0.98569700  1
  O  O6  1  0.06459800  0.90037300  0.12874000  1
  O  O7  1  0.18244300  0.65327100  0.43322900  1
  O  O8  1  0.79506600  0.81421100  0.58686300  1
  O  O9  1  0.66792600  0.53103300  0.29268400  1
  O  O10  1  0.08520400  0.39632200  0.16051700  1
  O  O11  1  0.33303700  0.92694000  0.71234300  1
  O  O12  1  0.93540200  0.09962700  0.87126000  1
  O  O13  1  0.51198000  0.24256400  0.01430300  1
loop_
_geom_bond_atom_site_label_1
_geom_bond_atom_site_label_2
_geom_bond_distance
_geom_bond_site_symmetry_2
Li0 O3 2.102732 1_555
Li0 O11 2.102732 1_545
Li0 O8 2.161751 1_545
Li0 O2 2.161751 1_555
Li0 O0 2.368276 1_555
Li0 O7 2.368276 1_545
Li1 O0 2.053603 1_455
Li1 O11 2.114572 1_545
Li1 O2 2.115387 1_555
Li1 O1 2.116994 1_555
Li1 O8 2.211397 1_445
Li1 O12 2.213145 1_455
Li2 O7 2.053603 1_655
Li2 O3 2.114572 1_565
Li2 O8 2.115387 1_555
Li2 O9 2.116994 1_555
Li2 O2 2.211397 1_665
Li2 O6 2.213145 1_655
Li3 O10 2.079709 1_555
Li3 O7 2.129339 1_555
Li3 O9 2.140509 1_555
Li3 O5 2.192280 1_554
Li3 O6 2.207080 1_555
Li3 O3 2.450958 1_565
Li4 O4 2.079709 1_555
Li4 O0 2.129339 1_555
Li4 O1 2.140509 1_555
Li4 O13 2.192280 1_556
Li4 O12 2.207080 1_555
Li4 O11 2.450958 1_545
Li5 O1 2.029974 1_555
Li5 O4 2.129709 1_455
Li5 O5 2.174978 1_555
Li5 O13 2.184035 1_556
Li5 O12 2.184954 1_455
Li5 O10 2.214633 1_556
Li6 O9 2.029974 1_555
Li6 O10 2.129709 1_655
Li6 O13 2.174978 1_555
Li6 O5 2.184035 1_554
Li6 O6 2.184954 1_655
Li6 O4 2.214633 1_554
Li7 O1 2.053102 1_555
Li7 O9 2.053102 1_555
Li7 O7 2.084289 1_555
Li7 O0 2.084289 1_555
Li7 O8 2.223063 1_555
Li7 O2 2.223063 1_555
Mn0 O9 1.897972 1_555
Mn0 O0 1.938231 1_555
Mn0 O7 1.941144 1_655
Mn0 O10 1.956113 1_655
Mn0 O2 1.984544 1_655
Mn0 O3 2.059259 1_555
Mn1 O1 1.897972 1_555
Mn1 O7 1.938231 1_555
Mn1 O0 1.941144 1_455
Mn1 O4 1.956113 1_455
Mn1 O8 1.984544 1_455
Mn1 O11 2.059259 1_555
Mn2 O8 1.923222 1_555
Mn2 O4 1.974127 1_555
Mn2 O5 1.994044 1_555
Mn2 O11 2.017570 1_555
Mn2 O1 2.163516 1_555
Mn2 O12 2.300681 1_565
Mn3 O12 1.958496 1_465
Mn3 O5 1.960626 1_555
Mn3 O6 1.961367 1_556
Mn3 O11 2.023359 1_555
Mn3 O13 2.252128 1_566
Mn3 O4 2.257135 1_455
Mn4 O6 1.958496 1_645
Mn4 O13 1.960626 1_555
Mn4 O12 1.961367 1_554
Mn4 O3 2.023359 1_555
Mn4 O5 2.252128 1_544
Mn4 O10 2.257135 1_655
Mn5 O2 1.923222 1_555
Mn5 O10 1.974127 1_555
Mn5 O13 1.994044 1_555
Mn5 O3 2.017570 1_555
Mn5 O9 2.163516 1_555
Mn5 O6 2.300681 1_545
