# generated using pymatgen
data_MgIn5
_symmetry_space_group_name_H-M   'P 1'
_cell_length_a   12.28243603
_cell_length_b   12.28243603
_cell_length_c   16.23743274
_cell_angle_alpha   71.51231233
_cell_angle_beta   71.51231233
_cell_angle_gamma   33.35144452
_symmetry_Int_Tables_number   1
_chemical_formula_structural   MgIn5
_chemical_formula_sum   'Mg8 In40'
_cell_volume   1270.77400365
_cell_formula_units_Z   8
loop_
 _symmetry_equiv_pos_site_id
 _symmetry_equiv_pos_as_xyz
  1  'x, y, z'
loop_
 _atom_site_type_symbol
 _atom_site_label
 _atom_site_symmetry_multiplicity
 _atom_site_fract_x
 _atom_site_fract_y
 _atom_site_fract_z
 _atom_site_occupancy
  Mg  Mg0_0  1  0.30515750  0.30515750  0.13896450  1
  Mg  Mg0_1  1  0.30515750  0.30515750  0.63896450  1
  Mg  Mg0_2  1  0.30515750  0.80515750  0.13896450  1
  Mg  Mg0_3  1  0.30515750  0.80515750  0.63896450  1
  Mg  Mg0_4  1  0.80515750  0.30515750  0.13896450  1
  Mg  Mg0_5  1  0.80515750  0.30515750  0.63896450  1
  Mg  Mg0_6  1  0.80515750  0.80515750  0.13896450  1
  Mg  Mg0_7  1  0.80515750  0.80515750  0.63896450  1
  In  In0_0  1  0.00125100  0.00125100  0.00423750  1
  In  In0_1  1  0.00125100  0.00125100  0.50423750  1
  In  In0_2  1  0.00125100  0.50125100  0.00423750  1
  In  In0_3  1  0.00125100  0.50125100  0.50423750  1
  In  In0_4  1  0.50125100  0.00125100  0.00423750  1
  In  In0_5  1  0.50125100  0.00125100  0.50423750  1
  In  In0_6  1  0.50125100  0.50125100  0.00423750  1
  In  In0_7  1  0.50125100  0.50125100  0.50423750  1
  In  In1_0  1  0.14200400  0.14200400  0.47213800  1
  In  In1_1  1  0.14200400  0.14200400  0.97213800  1
  In  In1_2  1  0.14200400  0.64200400  0.47213800  1
  In  In1_3  1  0.14200400  0.64200400  0.97213800  1
  In  In1_4  1  0.64200400  0.14200400  0.47213800  1
  In  In1_5  1  0.64200400  0.14200400  0.97213800  1
  In  In1_6  1  0.64200400  0.64200400  0.47213800  1
  In  In1_7  1  0.64200400  0.64200400  0.97213800  1
  In  In2_0  1  0.33176400  0.33176400  0.33541600  1
  In  In2_1  1  0.33176400  0.33176400  0.83541600  1
  In  In2_2  1  0.33176400  0.83176400  0.33541600  1
  In  In2_3  1  0.33176400  0.83176400  0.83541600  1
  In  In2_4  1  0.83176400  0.33176400  0.33541600  1
  In  In2_5  1  0.83176400  0.33176400  0.83541600  1
  In  In2_6  1  0.83176400  0.83176400  0.33541600  1
  In  In2_7  1  0.83176400  0.83176400  0.83541600  1
  In  In3_0  1  0.47316850  0.47316850  0.30016300  1
  In  In3_1  1  0.47316850  0.47316850  0.80016300  1
  In  In3_2  1  0.47316850  0.97316850  0.30016300  1
  In  In3_3  1  0.47316850  0.97316850  0.80016300  1
  In  In3_4  1  0.97316850  0.47316850  0.30016300  1
  In  In3_5  1  0.97316850  0.47316850  0.80016300  1
  In  In3_6  1  0.97316850  0.97316850  0.30016300  1
  In  In3_7  1  0.97316850  0.97316850  0.80016300  1
  In  In4_0  1  0.16332050  0.16332050  0.16574750  1
  In  In4_1  1  0.16332050  0.16332050  0.66574750  1
  In  In4_2  1  0.16332050  0.66332050  0.16574750  1
  In  In4_3  1  0.16332050  0.66332050  0.66574750  1
  In  In4_4  1  0.66332050  0.16332050  0.16574750  1
  In  In4_5  1  0.66332050  0.16332050  0.66574750  1
  In  In4_6  1  0.66332050  0.66332050  0.16574750  1
  In  In4_7  1  0.66332050  0.66332050  0.66574750  1
loop_
_geom_bond_atom_site_label_1
_geom_bond_atom_site_label_2
_geom_bond_distance
_geom_bond_site_symmetry_2
Mg0_0 Mg0_6 3.524502 1_455
Mg0_0 Mg0_6 3.524502 1_545
Mg0_1 Mg0_7 3.524502 1_455
Mg0_1 Mg0_7 3.524502 1_545
Mg0_2 Mg0_4 3.524502 1_555
Mg0_2 Mg0_4 3.524502 1_465
Mg0_3 Mg0_5 3.524502 1_465
Mg0_3 Mg0_5 3.524502 1_555
In0_0 In1_1 3.177924 1_554
In0_0 In4_2 3.266801 1_545
In0_0 In4_4 3.266801 1_455
In0_0 In2_3 3.281927 1_544
In0_0 In2_5 3.281927 1_454
In0_0 In1_5 3.297449 1_454
In0_0 In1_3 3.297449 1_544
In0_0 Mg0_2 3.367126 1_545
In0_0 Mg0_4 3.367126 1_455
In0_0 In3_7 3.587014 1_444
In0_1 In1_0 3.177924 1_555
In0_1 In4_5 3.266801 1_455
In0_1 In4_3 3.266801 1_545
In0_1 In2_2 3.281927 1_545
In0_1 In2_4 3.281927 1_455
In0_1 In1_4 3.297449 1_455
In0_1 In1_2 3.297449 1_545
In0_1 Mg0_3 3.367126 1_545
In0_1 Mg0_5 3.367126 1_455
In0_1 In3_6 3.587014 1_445
In0_2 In1_3 3.177924 1_554
In0_2 In4_0 3.266801 1_555
In0_2 In4_6 3.266801 1_455
In0_2 In2_7 3.281927 1_454
In0_2 In2_1 3.281927 1_554
In0_2 In1_1 3.297449 1_554
In0_2 In1_7 3.297449 1_454
In0_2 Mg0_6 3.367126 1_455
In0_2 Mg0_0 3.367126 1_555
In0_2 In3_5 3.587014 1_454
In0_3 In1_2 3.177924 1_555
In0_3 In4_1 3.266801 1_555
In0_3 In4_7 3.266801 1_455
In0_3 In2_6 3.281927 1_455
In0_3 In2_0 3.281927 1_555
In0_3 In1_6 3.297449 1_455
In0_3 In1_0 3.297449 1_555
In0_3 Mg0_7 3.367126 1_455
In0_3 Mg0_1 3.367126 1_555
In0_3 In3_4 3.587014 1_455
In0_4 In1_5 3.177924 1_554
In0_4 In4_0 3.266801 1_555
In0_4 In4_6 3.266801 1_545
In0_4 In2_7 3.281927 1_544
In0_4 In2_1 3.281927 1_554
In0_4 In1_1 3.297449 1_554
In0_4 In1_7 3.297449 1_544
In0_4 Mg0_0 3.367126 1_555
In0_4 Mg0_6 3.367126 1_545
In0_4 In3_3 3.587014 1_544
In0_5 In1_4 3.177924 1_555
In0_5 In4_1 3.266801 1_555
In0_5 In4_7 3.266801 1_545
In0_5 In2_0 3.281927 1_555
In0_5 In2_6 3.281927 1_545
In0_5 In1_6 3.297449 1_545
In0_5 In1_0 3.297449 1_555
In0_5 Mg0_1 3.367126 1_555
In0_5 Mg0_7 3.367126 1_545
In0_5 In3_2 3.587014 1_545
In0_6 In1_7 3.177924 1_554
In0_6 In4_4 3.266801 1_555
In0_6 In4_2 3.266801 1_555
In0_6 In2_3 3.281927 1_554
In0_6 In2_5 3.281927 1_554
In0_6 In1_5 3.297449 1_554
In0_6 In1_3 3.297449 1_554
In0_6 Mg0_2 3.367126 1_555
In0_6 Mg0_4 3.367126 1_555
In0_6 In3_1 3.587014 1_554
In0_7 In1_6 3.177924 1_555
In0_7 In4_5 3.266801 1_555
In0_7 In4_3 3.266801 1_555
In0_7 In2_2 3.281927 1_555
In0_7 In2_4 3.281927 1_555
In0_7 In1_4 3.297449 1_555
In0_7 In1_2 3.297449 1_555
In0_7 Mg0_3 3.367126 1_555
In0_7 Mg0_5 3.367126 1_555
In0_7 In3_0 3.587014 1_555
In1_0 Mg0_5 3.309804 1_455
In1_0 Mg0_3 3.309804 1_545
In1_0 In3_2 3.319662 1_545
In1_0 In3_4 3.319662 1_455
In1_0 In4_1 3.343442 1_555
In1_0 In2_4 3.482370 1_455
In1_0 In2_2 3.482370 1_545
In1_0 In1_6 3.524502 1_455
In1_0 In1_6 3.524502 1_545
In1_1 Mg0_4 3.309804 1_456
In1_1 Mg0_2 3.309804 1_546
In1_1 In3_3 3.319662 1_545
In1_1 In3_5 3.319662 1_455
In1_1 In4_0 3.343442 1_556
In1_1 In2_5 3.482370 1_455
In1_1 In2_3 3.482370 1_545
In1_1 In1_7 3.524502 1_545
In1_1 In1_7 3.524502 1_455
In1_2 Mg0_1 3.309804 1_555
In1_2 Mg0_7 3.309804 1_455
In1_2 In3_0 3.319662 1_555
In1_2 In3_6 3.319662 1_455
In1_2 In4_3 3.343442 1_555
In1_2 In2_6 3.482370 1_455
In1_2 In2_0 3.482370 1_555
In1_2 In1_4 3.524502 1_555
In1_2 In1_4 3.524502 1_465
In1_3 Mg0_0 3.309804 1_556
In1_3 Mg0_6 3.309804 1_456
In1_3 In3_1 3.319662 1_555
In1_3 In3_7 3.319662 1_455
In1_3 In4_2 3.343442 1_556
In1_3 In2_1 3.482370 1_555
In1_3 In2_7 3.482370 1_455
In1_3 In1_5 3.524502 1_555
In1_3 In1_5 3.524502 1_465
In1_4 Mg0_1 3.309804 1_555
In1_4 Mg0_7 3.309804 1_545
In1_4 In3_0 3.319662 1_555
In1_4 In3_6 3.319662 1_545
In1_4 In4_5 3.343442 1_555
In1_4 In2_0 3.482370 1_555
In1_4 In2_6 3.482370 1_545
In1_5 Mg0_0 3.309804 1_556
In1_5 Mg0_6 3.309804 1_546
In1_5 In3_1 3.319662 1_555
In1_5 In3_7 3.319662 1_545
In1_5 In4_4 3.343442 1_556
In1_5 In2_1 3.482370 1_555
In1_5 In2_7 3.482370 1_545
In1_6 Mg0_5 3.309804 1_555
In1_6 Mg0_3 3.309804 1_555
In1_6 In3_4 3.319662 1_555
In1_6 In3_2 3.319662 1_555
In1_6 In4_7 3.343442 1_555
In1_6 In2_4 3.482370 1_555
In1_6 In2_2 3.482370 1_555
In1_7 Mg0_4 3.309804 1_556
In1_7 Mg0_2 3.309804 1_556
In1_7 In3_3 3.319662 1_555
In1_7 In3_5 3.319662 1_555
In1_7 In4_6 3.343442 1_556
In1_7 In2_5 3.482370 1_555
In1_7 In2_3 3.482370 1_555
In2_0 In3_0 3.184164 1_555
In2_0 In4_2 3.298219 1_555
In2_0 In4_4 3.298219 1_555
In2_0 In3_2 3.306345 1_545
In2_0 In3_4 3.306345 1_455
In2_0 Mg0_0 3.448111 1_555
In2_0 In2_6 3.524502 1_455
In2_0 In2_6 3.524502 1_545
In2_1 In3_1 3.184164 1_555
In2_1 In4_3 3.298219 1_555
In2_1 In4_5 3.298219 1_555
In2_1 In3_5 3.306345 1_455
In2_1 In3_3 3.306345 1_545
In2_1 Mg0_1 3.448111 1_555
In2_1 In2_7 3.524502 1_455
In2_1 In2_7 3.524502 1_545
In2_2 In3_2 3.184164 1_555
In2_2 In4_6 3.298219 1_555
In2_2 In4_0 3.298219 1_565
In2_2 In3_6 3.306345 1_455
In2_2 In3_0 3.306345 1_555
In2_2 Mg0_2 3.448111 1_555
In2_2 In2_4 3.524502 1_555
In2_2 In2_4 3.524502 1_465
In2_3 In3_3 3.184164 1_555
In2_3 In4_7 3.298219 1_555
In2_3 In4_1 3.298219 1_565
In2_3 In3_1 3.306345 1_555
In2_3 In3_7 3.306345 1_455
In2_3 Mg0_3 3.448111 1_555
In2_3 In2_5 3.524502 1_555
In2_3 In2_5 3.524502 1_465
In2_4 In3_4 3.184164 1_555
In2_4 In4_6 3.298219 1_555
In2_4 In4_0 3.298219 1_655
In2_4 In3_6 3.306345 1_545
In2_4 In3_0 3.306345 1_555
In2_4 Mg0_4 3.448111 1_555
In2_5 In3_5 3.184164 1_555
In2_5 In4_7 3.298219 1_555
In2_5 In4_1 3.298219 1_655
In2_5 In3_1 3.306345 1_555
In2_5 In3_7 3.306345 1_545
In2_5 Mg0_5 3.448111 1_555
In2_6 In3_6 3.184164 1_555
In2_6 In4_4 3.298219 1_565
In2_6 In4_2 3.298219 1_655
In2_6 In3_4 3.306345 1_555
In2_6 In3_2 3.306345 1_555
In2_6 Mg0_6 3.448111 1_555
In2_7 In3_7 3.184164 1_555
In2_7 In4_3 3.298219 1_655
In2_7 In4_5 3.298219 1_565
In2_7 In3_5 3.306345 1_555
In2_7 In3_3 3.306345 1_555
In2_7 Mg0_7 3.448111 1_555
In3_0 Mg0_2 3.214910 1_555
In3_0 Mg0_4 3.214910 1_555
In3_0 In4_4 3.447821 1_555
In3_0 In4_2 3.447821 1_555
In3_0 In3_6 3.524502 1_545
In3_0 In3_6 3.524502 1_455
In3_1 Mg0_3 3.214910 1_555
In3_1 Mg0_5 3.214910 1_555
In3_1 In4_5 3.447821 1_555
In3_1 In4_3 3.447821 1_555
In3_1 In3_7 3.524502 1_455
In3_1 In3_7 3.524502 1_545
In3_2 Mg0_6 3.214910 1_555
In3_2 Mg0_0 3.214910 1_565
In3_2 In4_0 3.447821 1_565
In3_2 In4_6 3.447821 1_555
In3_2 In3_4 3.524502 1_555
In3_2 In3_4 3.524502 1_465
In3_3 Mg0_1 3.214910 1_565
In3_3 Mg0_7 3.214910 1_555
In3_3 In4_1 3.447821 1_565
In3_3 In4_7 3.447821 1_555
In3_3 In3_5 3.524502 1_555
In3_3 In3_5 3.524502 1_465
In3_4 Mg0_0 3.214910 1_655
In3_4 Mg0_6 3.214910 1_555
In3_4 In4_0 3.447821 1_655
In3_4 In4_6 3.447821 1_555
In3_5 Mg0_7 3.214910 1_555
In3_5 Mg0_1 3.214910 1_655
In3_5 In4_1 3.447821 1_655
In3_5 In4_7 3.447821 1_555
In3_6 Mg0_2 3.214910 1_655
In3_6 Mg0_4 3.214910 1_565
In3_6 In4_4 3.447821 1_565
In3_6 In4_2 3.447821 1_655
In3_7 Mg0_3 3.214910 1_655
In3_7 Mg0_5 3.214910 1_565
In3_7 In4_5 3.447821 1_565
In3_7 In4_3 3.447821 1_655
In4_0 Mg0_0 3.219976 1_555
In4_0 Mg0_4 3.241275 1_455
In4_0 Mg0_2 3.241275 1_545
In4_0 In4_6 3.524502 1_455
In4_0 In4_6 3.524502 1_545
In4_1 Mg0_1 3.219976 1_555
In4_1 Mg0_5 3.241275 1_455
In4_1 Mg0_3 3.241275 1_545
In4_1 In4_7 3.524502 1_455
In4_1 In4_7 3.524502 1_545
In4_2 Mg0_2 3.219976 1_555
In4_2 Mg0_0 3.241275 1_555
In4_2 Mg0_6 3.241275 1_455
In4_2 In4_4 3.524502 1_555
In4_2 In4_4 3.524502 1_465
In4_3 Mg0_3 3.219976 1_555
In4_3 Mg0_1 3.241275 1_555
In4_3 Mg0_7 3.241275 1_455
In4_3 In4_5 3.524502 1_555
In4_3 In4_5 3.524502 1_465
In4_4 Mg0_4 3.219976 1_555
In4_4 Mg0_0 3.241275 1_555
In4_4 Mg0_6 3.241275 1_545
In4_5 Mg0_5 3.219976 1_555
In4_5 Mg0_7 3.241275 1_545
In4_5 Mg0_1 3.241275 1_555
In4_6 Mg0_6 3.219976 1_555
In4_6 Mg0_4 3.241275 1_555
In4_6 Mg0_2 3.241275 1_555
In4_7 Mg0_7 3.219976 1_555
In4_7 Mg0_5 3.241275 1_555
In4_7 Mg0_3 3.241275 1_555
