# generated using pymatgen
data_TiV3O8
_symmetry_space_group_name_H-M   'P 1'
_cell_length_a   3.79201173
_cell_length_b   7.80146861
_cell_length_c   10.34723811
_cell_angle_alpha   89.26845148
_cell_angle_beta   100.57458084
_cell_angle_gamma   75.94123698
_symmetry_Int_Tables_number   1
_chemical_formula_structural   TiV3O8
_chemical_formula_sum   'Ti2 V6 O16'
_cell_volume   291.36507940
_cell_formula_units_Z   2
loop_
 _symmetry_equiv_pos_site_id
 _symmetry_equiv_pos_as_xyz
  1  'x, y, z'
loop_
 _atom_site_type_symbol
 _atom_site_label
 _atom_site_symmetry_multiplicity
 _atom_site_fract_x
 _atom_site_fract_y
 _atom_site_fract_z
 _atom_site_occupancy
  Ti  Ti0  1  0.31200600  0.33317600  0.94959200  1
  Ti  Ti1  1  0.30550700  0.83258000  0.44975000  1
  V  V0  1  0.64583500  0.55104000  0.75456600  1
  V  V1  1  0.70013100  0.16121200  0.56336900  1
  V  V2  1  0.70152800  0.66194200  0.06310500  1
  V  V3  1  0.55801100  0.05169800  0.25490500  1
  V  V4  1  0.40294800  0.45047000  0.25110100  1
  V  V5  1  0.39742200  0.95035500  0.75138900  1
  O  O0  1  0.85913100  0.99258200  0.71357600  1
  O  O1  1  0.86137000  0.49341700  0.21351900  1
  O  O2  1  0.75938800  0.91153300  0.43429200  1
  O  O3  1  0.76340500  0.41215200  0.93366900  1
  O  O4  1  0.63197700  0.36165400  0.63188900  1
  O  O5  1  0.63545200  0.86344200  0.12934100  1
  O  O6  1  0.55567100  0.25776000  0.36818800  1
  O  O7  1  0.55670700  0.75765700  0.86809000  1
  O  O8  1  0.44376800  0.24027800  0.12402800  1
  O  O9  1  0.43668600  0.73925500  0.62382800  1
  O  O10  1  0.36248500  0.13863800  0.86422700  1
  O  O11  1  0.36381600  0.63837700  0.36411500  1
  O  O12  1  0.24305600  0.58312600  0.06724700  1
  O  O13  1  0.24117100  0.08291100  0.56765900  1
  O  O14  1  0.13262700  0.51741300  0.77915200  1
  O  O15  1  0.12990300  0.01733100  0.27939800  1
loop_
_geom_bond_atom_site_label_1
_geom_bond_atom_site_label_2
_geom_bond_distance
_geom_bond_site_symmetry_2
O0 V1 1.930891 1_565
O0 V5 1.950646 1_655
O0 V5 1.963487 1_555
O1 V2 1.931986 1_555
O1 V4 1.952705 1_555
O1 V4 1.962219 1_655
O2 Ti1 1.987400 1_655
O2 Ti1 1.995196 1_555
O2 V3 2.060689 1_565
O2 V1 2.364825 1_565
O3 Ti0 1.987462 1_555
O3 Ti0 1.995824 1_655
O3 V0 2.053781 1_555
O3 V2 2.367737 1_556
O4 V1 1.707036 1_555
O4 V0 1.964220 1_555
O5 V2 1.703775 1_555
O5 V3 1.977495 1_565
O6 V4 1.826590 1_555
O6 V3 2.000847 1_555
O6 V1 2.073832 1_555
O7 V5 1.824214 1_555
O7 V0 2.005421 1_555
O7 V2 2.070394 1_556
O8 Ti0 1.868781 1_554
O8 V3 1.900044 1_555
O8 V4 2.109077 1_555
O9 Ti1 1.866454 1_555
O9 V0 1.898629 1_555
O9 V5 2.117798 1_555
O10 Ti0 1.753668 1_555
O10 V5 1.882656 1_545
O11 Ti1 1.752971 1_555
O11 V4 1.881559 1_555
O12 V2 1.987066 1_555
O12 V2 1.987533 1_455
O12 V4 2.068632 1_555
O12 Ti0 2.298389 1_554
O13 V1 1.985274 1_455
O13 V1 1.987013 1_555
O13 V5 2.067209 1_545
O13 Ti1 2.302308 1_545
O14 V0 1.769642 1_455
O14 V0 2.085390 1_555
O14 Ti0 2.158423 1_555
O15 V3 1.769814 1_555
O15 V3 2.086407 1_455
O15 Ti1 2.160068 1_545
