# generated using pymatgen
data_Al2O3
_symmetry_space_group_name_H-M   'P 1'
_cell_length_a   9.82270304
_cell_length_b   11.22571823
_cell_length_c   10.22962073
_cell_angle_alpha   91.04325916
_cell_angle_beta   86.25696619
_cell_angle_gamma   88.85676769
_symmetry_Int_Tables_number   1
_chemical_formula_structural   Al2O3
_chemical_formula_sum   'Al40 O60'
_cell_volume   1125.14312991
_cell_formula_units_Z   20
loop_
 _symmetry_equiv_pos_site_id
 _symmetry_equiv_pos_as_xyz
  1  'x, y, z'
loop_
 _atom_site_type_symbol
 _atom_site_label
 _atom_site_symmetry_multiplicity
 _atom_site_fract_x
 _atom_site_fract_y
 _atom_site_fract_z
 _atom_site_occupancy
  Al  Al0  1  0.21630900  0.55770700  0.60533200  1
  Al  Al1  1  0.57642500  0.13277600  0.77690800  1
  Al  Al2  1  0.98360500  0.70579300  0.40042400  1
  Al  Al3  1  0.30931100  0.58452200  0.89295100  1
  Al  Al4  1  0.34072400  0.05530900  0.57818500  1
  Al  Al5  1  0.75585100  0.35051600  0.77144600  1
  Al  Al6  1  0.18487900  0.27381500  0.59851000  1
  Al  Al7  1  0.41519400  0.00623900  0.97046400  1
  Al  Al8  1  0.29405000  0.07128600  0.26314900  1
  Al  Al9  1  0.89451500  0.55089900  0.58079900  1
  Al  Al10  1  0.81213600  0.58228200  0.90383300  1
  Al  Al11  1  0.79585200  0.10548800  0.97834900  1
  Al  Al12  1  0.69785700  0.04886400  0.49685800  1
  Al  Al13  1  0.69555000  0.88506700  0.89597900  1
  Al  Al14  1  0.04509100  0.70947300  0.79599200  1
  Al  Al15  1  0.84205000  0.34196300  0.04176500  1
  Al  Al16  1  0.09039700  0.42946100  0.85132500  1
  Al  Al17  1  0.12118500  0.87431500  0.25729600  1
  Al  Al18  1  0.59501600  0.95773900  0.19896700  1
  Al  Al19  1  0.40929500  0.81335800  0.75592900  1
  Al  Al20  1  0.47841200  0.21784100  0.43973900  1
  Al  Al21  1  0.18616600  0.84144900  0.99476000  1
  Al  Al22  1  0.58129400  0.71387800  0.33427500  1
  Al  Al23  1  0.77490600  0.20721200  0.29137400  1
  Al  Al24  1  0.21502300  0.80362000  0.56102000  1
  Al  Al25  1  0.04050800  0.11106400  0.45915400  1
  Al  Al26  1  0.91227400  0.89618900  0.62944000  1
  Al  Al27  1  0.55877100  0.47976600  0.00407400  1
  Al  Al28  1  0.70541900  0.37820100  0.49168500  1
  Al  Al29  1  0.57643800  0.56157800  0.69424800  1
  Al  Al30  1  0.38161800  0.44185600  0.25435400  1
  Al  Al31  1  0.69544200  0.75992900  0.59820400  1
  Al  Al32  1  0.40503900  0.70324700  0.15456900  1
  Al  Al33  1  0.09186000  0.28680900  0.27500200  1
  Al  Al34  1  0.12126300  0.07844700  0.97635400  1
  Al  Al35  1  0.80899600  0.52406900  0.24916900  1
  Al  Al36  1  0.33497000  0.25281100  0.03411300  1
  Al  Al37  1  0.09009100  0.48605700  0.12999400  1
  Al  Al38  1  0.88541200  0.73507300  0.10850000  1
  Al  Al39  1  0.43546400  0.36664700  0.67017500  1
  O  O0  1  0.43293300  0.02250400  0.14460200  1
  O  O1  1  0.33480200  0.90602600  0.63090100  1
  O  O2  1  0.86848300  0.78879500  0.51156000  1
  O  O3  1  0.54925400  0.71566200  0.72055200  1
  O  O4  1  0.92338900  0.45359200  0.92217400  1
  O  O5  1  0.82964500  0.39418300  0.61406800  1
  O  O6  1  0.11754300  0.26601900  0.44302300  1
  O  O7  1  0.80410000  0.25966700  0.89571200  1
  O  O8  1  0.96300100  0.79947700  0.24655800  1
  O  O9  1  0.72678600  0.66589500  0.24094200  1
  O  O10  1  0.45186400  0.15392400  0.92079700  1
  O  O11  1  0.87950200  0.03490500  0.54284100  1
  O  O12  1  0.59317700  0.28554800  0.73865600  1
  O  O13  1  0.42414100  0.49009200  0.79027700  1
  O  O14  1  0.76826700  0.85290300  0.73028400  1
  O  O15  1  0.43688400  0.37840600  0.07903600  1
  O  O16  1  0.28613300  0.74447100  0.86998700  1
  O  O17  1  0.71148000  0.95578600  0.05989900  1
  O  O18  1  0.67021500  0.49637700  0.84139200  1
  O  O19  1  0.24893600  0.20920600  0.19577100  1
  O  O20  1  0.45747500  0.33461400  0.34234300  1
  O  O21  1  0.06894300  0.83169800  0.68221300  1
  O  O22  1  0.14614900  0.78724300  0.40604700  1
  O  O23  1  0.76559300  0.20760300  0.12114500  1
  O  O24  1  0.70251500  0.05056500  0.84706100  1
  O  O25  1  0.59619200  0.80513700  0.47023700  1
  O  O26  1  0.72094800  0.60204200  0.58627100  1
  O  O27  1  0.19832200  0.44334300  0.25359700  1
  O  O28  1  0.15741200  0.57200800  0.77973900  1
  O  O29  1  0.44598900  0.60938300  0.01295200  1
  O  O30  1  0.68103500  0.03938200  0.32190100  1
  O  O31  1  0.44421300  0.59637100  0.27905600  1
  O  O32  1  0.95074200  0.58541600  0.13462500  1
  O  O33  1  0.90211800  0.62343500  0.75529400  1
  O  O34  1  0.02882100  0.76753300  0.96275400  1
  O  O35  1  0.90340200  0.56112900  0.39062500  1
  O  O36  1  0.94599700  0.17497600  0.32401600  1
  O  O37  1  0.31837100  0.68167700  0.59549600  1
  O  O38  1  0.18685500  0.22275700  0.95560000  1
  O  O39  1  0.76552100  0.72668700  0.97608200  1
  O  O40  1  0.24364500  0.76976700  0.14271900  1
  O  O41  1  0.98848600  0.35418900  0.14915300  1
  O  O42  1  0.16166600  0.10470900  0.59611000  1
  O  O43  1  0.39695800  0.08168400  0.40475800  1
  O  O44  1  0.55857600  0.05073400  0.62217100  1
  O  O45  1  0.14202600  0.97157700  0.11612300  1
  O  O46  1  0.51397300  0.81433900  0.21829600  1
  O  O47  1  0.66624500  0.21702300  0.46320700  1
  O  O48  1  0.19638100  0.48162700  0.98409800  1
  O  O49  1  0.15175500  0.00852000  0.35586500  1
  O  O50  1  0.06398200  0.60379000  0.54390000  1
  O  O51  1  0.25620300  0.97367000  0.90459500  1
  O  O52  1  0.75858000  0.38091800  0.32428300  1
  O  O53  1  0.50848600  0.89132800  0.88337200  1
  O  O54  1  0.38176200  0.22036500  0.60619200  1
  O  O55  1  0.08242400  0.32573200  0.73103200  1
  O  O56  1  0.71588000  0.46628300  0.08470300  1
  O  O57  1  0.55490400  0.44431000  0.56762000  1
  O  O58  1  0.28435800  0.41500800  0.58665800  1
  O  O59  1  0.95891100  0.05087600  0.94316000  1
loop_
_geom_bond_atom_site_label_1
_geom_bond_atom_site_label_2
_geom_bond_distance
_geom_bond_site_symmetry_2
Al0 O58 1.725926 1_555
Al0 O37 1.731900 1_555
Al0 O50 1.733510 1_555
Al0 O28 1.842456 1_555
Al1 O24 1.730681 1_555
Al1 O12 1.774437 1_555
Al1 O44 1.836875 1_555
Al1 O10 1.860242 1_555
Al2 O2 1.786316 1_555
Al2 O35 1.823010 1_555
Al2 O22 1.859259 1_655
Al2 O8 1.928158 1_555
Al2 O50 2.065205 1_655
Al3 O13 1.804488 1_555
Al3 O16 1.826751 1_555
Al3 O48 1.841021 1_555
Al3 O29 1.898654 1_556
Al3 O28 1.953268 1_555
Al4 O1 1.770657 1_545
Al4 O42 1.830277 1_555
Al4 O43 1.854154 1_555
Al4 O54 1.924386 1_555
Al4 O44 2.215045 1_555
Al5 O7 1.728356 1_555
Al5 O5 1.802247 1_555
Al5 O12 1.818038 1_555
Al5 O18 1.929871 1_555
Al6 O55 1.720452 1_555
Al6 O6 1.763423 1_555
Al6 O58 1.880176 1_555
Al6 O42 1.916398 1_555
Al6 O54 2.020274 1_555
Al7 O53 1.761211 1_545
Al7 O10 1.779613 1_555
Al7 O51 1.782660 1_545
Al7 O0 1.807461 1_556
Al8 O19 1.766319 1_555
Al8 O49 1.800051 1_555
Al8 O43 1.823076 1_555
Al8 O0 1.833457 1_555
Al8 O45 2.458344 1_545
Al9 O26 1.785141 1_555
Al9 O50 1.797649 1_655
Al9 O5 1.911812 1_555
Al9 O35 1.947250 1_555
Al9 O33 1.954943 1_555
Al10 O33 1.780454 1_555
Al10 O39 1.807282 1_555
Al10 O4 1.813849 1_555
Al10 O18 1.851703 1_555
Al10 O56 2.433398 1_556
Al11 O59 1.717062 1_555
Al11 O24 1.782578 1_555
Al11 O23 1.845239 1_556
Al11 O7 1.940791 1_555
Al11 O17 2.055057 1_546
Al12 O30 1.809473 1_555
Al12 O44 1.812278 1_555
Al12 O11 1.878951 1_555
Al12 O47 1.947455 1_555
Al13 O14 1.822889 1_555
Al13 O53 1.850405 1_555
Al13 O17 1.859367 1_556
Al13 O24 1.934191 1_565
Al13 O39 2.093489 1_555
Al14 O33 1.787254 1_455
Al14 O34 1.811142 1_555
Al14 O21 1.824151 1_555
Al14 O28 1.877489 1_555
Al15 O7 1.805784 1_554
Al15 O41 1.871712 1_555
Al15 O23 1.873104 1_555
Al15 O56 1.874595 1_555
Al15 O4 1.916623 1_554
Al16 O55 1.685330 1_555
Al16 O4 1.763429 1_455
Al16 O48 1.857806 1_555
Al16 O28 1.884664 1_555
Al17 O8 1.789732 1_455
Al17 O45 1.829565 1_555
Al17 O49 1.838161 1_565
Al17 O22 1.850490 1_555
Al17 O40 1.976766 1_555
Al18 O17 1.765899 1_555
Al18 O30 1.806388 1_565
Al18 O46 1.818334 1_555
Al18 O0 1.859237 1_565
Al19 O3 1.756180 1_555
Al19 O16 1.819017 1_555
Al19 O1 1.842185 1_555
Al19 O53 1.890329 1_555
Al20 O20 1.678353 1_555
Al20 O43 1.780635 1_555
Al20 O47 1.875921 1_555
Al20 O54 1.894087 1_555
Al21 O34 1.814327 1_555
Al21 O40 1.842541 1_556
Al21 O16 1.876599 1_555
Al21 O51 1.880117 1_555
Al21 O45 1.923951 1_556
Al22 O25 1.728009 1_555
Al22 O9 1.736810 1_555
Al22 O46 1.799469 1_555
Al22 O31 2.003804 1_555
Al23 O23 1.749813 1_555
Al23 O36 1.766405 1_555
Al23 O52 1.974340 1_555
Al23 O47 1.996113 1_555
Al23 O30 2.133161 1_555
Al24 O37 1.742893 1_555
Al24 O22 1.771749 1_555
Al24 O1 1.830490 1_555
Al24 O21 1.852228 1_555
Al25 O49 1.841298 1_555
Al25 O36 1.861382 1_455
Al25 O42 1.897945 1_555
Al25 O6 1.916319 1_555
Al25 O11 1.966933 1_455
Al26 O2 1.768624 1_555
Al26 O14 1.776621 1_555
Al26 O21 1.806114 1_655
Al26 O11 1.838666 1_565
Al27 O56 1.801721 1_555
Al27 O29 1.808426 1_555
Al27 O15 1.811741 1_555
Al27 O18 1.945294 1_554
Al28 O52 1.758382 1_555
Al28 O57 1.767845 1_555
Al28 O5 1.813424 1_555
Al28 O47 1.878793 1_555
Al29 O3 1.758072 1_555
Al29 O26 1.811243 1_555
Al29 O57 1.854841 1_555
Al29 O13 1.931743 1_555
Al29 O18 1.960658 1_555
Al30 O20 1.704671 1_555
Al30 O27 1.800730 1_555
Al30 O31 1.870137 1_555
Al30 O15 1.956881 1_555
Al31 O25 1.758602 1_555
Al31 O26 1.785907 1_555
Al31 O14 1.879148 1_555
Al31 O2 1.901425 1_555
Al31 O3 1.921414 1_555
Al32 O40 1.751203 1_555
Al32 O29 1.795043 1_555
Al32 O46 1.799967 1_555
Al32 O31 1.819442 1_555
Al33 O6 1.772350 1_555
Al33 O41 1.853656 1_455
Al33 O19 1.885145 1_555
Al33 O36 1.970068 1_455
Al33 O27 2.070445 1_555
Al34 O59 1.685481 1_455
Al34 O38 1.766591 1_555
Al34 O51 1.859702 1_545
Al34 O45 1.901555 1_546
Al35 O9 1.776628 1_555
Al35 O35 1.815380 1_555
Al35 O52 1.856088 1_555
Al35 O32 1.907997 1_555
Al35 O56 2.067072 1_555
Al36 O38 1.742950 1_554
Al36 O15 1.814915 1_555
Al36 O19 1.884681 1_555
Al36 O10 1.903384 1_554
Al37 O32 1.746014 1_455
Al37 O48 1.764013 1_554
Al37 O27 1.770910 1_555
Al37 O41 1.808257 1_455
Al38 O8 1.795390 1_555
Al38 O32 1.816967 1_555
Al38 O39 1.854371 1_554
Al38 O34 2.026333 1_654
Al38 O9 2.162729 1_555
Al39 O57 1.774981 1_555
Al39 O13 1.831983 1_555
Al39 O58 1.837931 1_555
Al39 O54 1.855726 1_555
Al39 O12 1.956560 1_555
