# generated using pymatgen
data_LiMg17Al11
_symmetry_space_group_name_H-M   'P 1'
_cell_length_a   9.05717157
_cell_length_b   9.05717157
_cell_length_c   9.12874036
_cell_angle_alpha   70.75710326
_cell_angle_beta   70.75710326
_cell_angle_gamma   108.77235664
_symmetry_Int_Tables_number   1
_chemical_formula_structural   LiMg17Al11
_chemical_formula_sum   'Li1 Mg17 Al11'
_cell_volume   584.53291223
_cell_formula_units_Z   1
loop_
 _symmetry_equiv_pos_site_id
 _symmetry_equiv_pos_as_xyz
  1  'x, y, z'
loop_
 _atom_site_type_symbol
 _atom_site_label
 _atom_site_symmetry_multiplicity
 _atom_site_fract_x
 _atom_site_fract_y
 _atom_site_fract_z
 _atom_site_occupancy
  Li  Li0  1  0.36587400  0.36587400  0.81815700  1
  Mg  Mg0  1  0.99791100  0.99791100  0.65515200  1
  Mg  Mg1  1  0.68444800  0.68444800  0.71335300  1
  Mg  Mg2  1  0.00130800  0.00130800  0.99913900  1
  Mg  Mg3  1  0.65557600  0.65557600  0.34512800  1
  Mg  Mg4  1  0.39700800  0.39700800  0.28588400  1
  Mg  Mg5  1  0.60163400  0.31564400  0.00004600  1
  Mg  Mg6  1  0.71232100  0.39711400  0.60289600  1
  Mg  Mg7  1  0.31716300  0.00143000  0.40000800  1
  Mg  Mg8  1  0.34426500  0.00056600  0.99962100  1
  Mg  Mg9  1  0.68471300  0.28666500  0.31546500  1
  Mg  Mg10  1  0.00019500  0.60102300  0.68401000  1
  Mg  Mg11  1  0.60102300  0.00019500  0.68401000  1
  Mg  Mg12  1  0.28666500  0.68471300  0.31546500  1
  Mg  Mg13  1  0.00056600  0.34426500  0.99962100  1
  Mg  Mg14  1  0.00143000  0.31716300  0.40000800  1
  Mg  Mg15  1  0.39711400  0.71232100  0.60289600  1
  Mg  Mg16  1  0.31564400  0.60163400  0.00004600  1
  Al  Al0  1  0.18480700  0.18480700  0.17872000  1
  Al  Al1  1  0.81492000  0.63293500  0.00243800  1
  Al  Al2  1  0.36628600  0.18090100  0.63111500  1
  Al  Al3  1  0.00188300  0.81631900  0.36678300  1
  Al  Al4  1  0.18249900  0.81957500  0.81537200  1
  Al  Al5  1  0.00004600  0.63496900  0.18448300  1
  Al  Al6  1  0.63496900  0.00004600  0.18448300  1
  Al  Al7  1  0.81957500  0.18249900  0.81537200  1
  Al  Al8  1  0.81631900  0.00188300  0.36678300  1
  Al  Al9  1  0.18090100  0.36628600  0.63111500  1
  Al  Al10  1  0.63293500  0.81492000  0.00243800  1
loop_
_geom_bond_atom_site_label_1
_geom_bond_atom_site_label_2
_geom_bond_distance
_geom_bond_site_symmetry_2
Li0 Mg1 2.927215 1_555
Li0 Mg15 2.963995 1_555
Li0 Mg6 2.963995 1_555
Li0 Mg13 3.080003 1_555
Li0 Mg8 3.080003 1_555
Li0 Mg5 3.160362 1_556
Li0 Mg16 3.160362 1_556
Li0 Mg2 3.213452 1_555
Mg0 Mg1 3.037558 1_555
Mg0 Mg14 3.039632 1_665
Mg0 Mg7 3.039632 1_665
Mg0 Mg2 3.160586 1_665
Mg1 Mg15 3.136537 1_555
Mg1 Mg6 3.136537 1_555
Mg1 Mg10 3.136912 1_655
Mg1 Mg11 3.136912 1_565
Mg1 Mg16 3.146583 1_556
Mg1 Mg5 3.146583 1_556
Mg2 Mg8 3.109838 1_555
Mg2 Mg3 3.199594 1_446
Mg3 Mg6 3.036744 1_555
Mg3 Mg4 3.066140 1_555
Mg4 Mg5 3.121770 1_555
Mg4 Mg7 3.133748 1_555
Mg4 Mg9 3.134314 1_555
Mg5 Mg8 3.051110 1_554
Mg5 Mg9 3.159587 1_555
Mg5 Mg6 3.171502 1_554
Mg5 Mg7 3.209250 1_555
Mg6 Mg9 3.154301 1_555
Mg7 Mg9 3.131903 1_555
Mg10 Mg13 3.050239 1_555
Mg10 Mg6 3.135603 1_455
Mg10 Mg15 3.147886 1_555
Mg10 Mg12 3.150375 1_555
Mg10 Mg5 3.201547 1_456
Mg10 Mg7 3.211054 1_565
Mg11 Mg8 3.050239 1_555
Mg11 Mg15 3.135603 1_545
Mg11 Mg6 3.147886 1_555
Mg11 Mg9 3.150375 1_555
Mg11 Mg16 3.201547 1_546
Mg11 Mg14 3.211054 1_655
Mg12 Mg8 3.062730 1_564
Mg12 Mg14 3.131903 1_555
Mg12 Mg4 3.134314 1_555
Mg12 Mg15 3.154301 1_555
Mg12 Mg16 3.159587 1_555
Mg12 Mg7 3.160755 1_565
Mg13 Mg16 3.051110 1_556
Mg13 Mg9 3.062730 1_456
Mg13 Mg2 3.109838 1_555
Mg14 Mg6 3.117528 1_455
Mg14 Mg4 3.133748 1_555
Mg14 Mg9 3.160755 1_455
Mg14 Mg16 3.209250 1_555
Mg15 Mg3 3.036744 1_555
Mg15 Mg7 3.117528 1_565
Mg15 Mg16 3.171502 1_556
Mg16 Mg4 3.121770 1_555
Al0 Li0 2.714000 1_554
Al0 Al3 2.760527 1_545
Al0 Al8 2.760527 1_455
Al0 Mg4 2.906188 1_555
Al0 Mg14 2.990390 1_555
Al0 Mg7 2.990390 1_555
Al0 Mg8 3.055563 1_554
Al0 Mg13 3.055563 1_554
Al0 Mg2 3.166358 1_554
Al0 Mg5 3.178848 1_555
Al0 Mg16 3.178848 1_555
Al1 Al10 2.679955 1_555
Al1 Al5 2.722207 1_655
Al1 Al4 2.754109 1_654
Al1 Mg5 2.913221 1_555
Al1 Mg9 2.980483 1_555
Al1 Mg10 2.999988 1_654
Al1 Mg3 3.090101 1_555
Al1 Mg0 3.134895 1_554
Al1 Mg1 3.190168 1_554
Al1 Mg2 3.202749 1_664
Al1 Mg4 3.206622 1_555
Al2 Al4 2.707386 1_545
Al2 Al9 2.730024 1_555
Al2 Li0 2.758173 1_555
Al2 Mg9 2.909132 1_555
Al2 Mg4 2.974238 1_555
Al2 Mg6 2.984785 1_555
Al2 Mg0 3.105725 1_445
Al2 Mg7 3.115249 1_555
Al2 Mg8 3.122563 1_555
Al2 Mg11 3.134859 1_555
Al2 Mg2 3.236829 1_555
Al3 Al5 2.696293 1_555
Al3 Al8 2.732660 1_465
Al3 Mg10 2.901424 1_555
Al3 Mg7 2.980230 1_565
Al3 Mg1 3.000898 1_455
Al3 Mg3 3.107416 1_455
Al3 Mg8 3.125175 1_564
Al3 Mg12 3.137446 1_555
Al3 Mg2 3.222036 1_564
Al3 Mg6 3.226533 1_455
Al4 Al5 2.778120 1_556
Al4 Mg15 2.907977 1_555
Al4 Mg10 2.974685 1_555
Al4 Mg16 2.978477 1_556
Al4 Mg0 3.055460 1_455
Al4 Mg8 3.091723 1_565
Al4 Mg2 3.156040 1_565
Al4 Mg7 3.181185 1_565
Al4 Mg11 3.194168 1_565
Al5 Mg14 2.909125 1_555
Al5 Mg16 2.968971 1_555
Al5 Mg9 3.000380 1_455
Al5 Mg3 3.075504 1_455
Al5 Mg8 3.120353 1_564
Al5 Mg12 3.165437 1_555
Al5 Mg2 3.183456 1_564
Al5 Mg6 3.228504 1_455
Al6 Al8 2.696293 1_555
Al6 Al7 2.778120 1_554
Al6 Mg7 2.909125 1_555
Al6 Mg5 2.968971 1_555
Al6 Mg12 3.000380 1_545
Al6 Mg3 3.075504 1_545
Al6 Mg13 3.120353 1_654
Al6 Mg9 3.165437 1_555
Al6 Mg2 3.183456 1_654
Al6 Mg15 3.228504 1_545
Al7 Al9 2.707386 1_655
Al7 Mg6 2.907977 1_555
Al7 Mg11 2.974685 1_555
Al7 Mg5 2.978477 1_556
Al7 Mg0 3.055460 1_545
Al7 Mg13 3.091723 1_655
Al7 Mg2 3.156040 1_655
Al7 Mg14 3.181185 1_655
Al7 Mg10 3.194168 1_655
Al8 Mg11 2.901424 1_555
Al8 Mg14 2.980230 1_655
Al8 Mg1 3.000898 1_545
Al8 Mg3 3.107416 1_545
Al8 Mg13 3.125175 1_654
Al8 Mg9 3.137446 1_555
Al8 Mg2 3.222036 1_654
Al8 Mg15 3.226533 1_545
Al9 Li0 2.758173 1_555
Al9 Mg12 2.909132 1_555
Al9 Mg4 2.974238 1_555
Al9 Mg15 2.984785 1_555
Al9 Mg0 3.105725 1_445
Al9 Mg14 3.115249 1_555
Al9 Mg13 3.122563 1_555
Al9 Mg10 3.134859 1_555
Al9 Mg2 3.236829 1_555
Al10 Al6 2.722207 1_565
Al10 Al7 2.754109 1_564
Al10 Mg16 2.913221 1_555
Al10 Mg12 2.980483 1_555
Al10 Mg11 2.999988 1_564
Al10 Mg3 3.090101 1_555
Al10 Mg0 3.134895 1_554
Al10 Mg1 3.190168 1_554
Al10 Mg2 3.202749 1_664
Al10 Mg4 3.206622 1_555
