# generated using pymatgen
data_Ba2Zn(P3O14)2
_symmetry_space_group_name_H-M   'P 1'
_cell_length_a   13.81370258
_cell_length_b   13.81370258
_cell_length_c   13.91156991
_cell_angle_alpha   77.97002108
_cell_angle_beta   77.97002108
_cell_angle_gamma   31.47475851
_symmetry_Int_Tables_number   1
_chemical_formula_structural   Ba2Zn(P3O14)2
_chemical_formula_sum   'Ba4 Zn2 P12 O56'
_cell_volume   1353.13347475
_cell_formula_units_Z   2
loop_
 _symmetry_equiv_pos_site_id
 _symmetry_equiv_pos_as_xyz
  1  'x, y, z'
loop_
 _atom_site_type_symbol
 _atom_site_label
 _atom_site_symmetry_multiplicity
 _atom_site_fract_x
 _atom_site_fract_y
 _atom_site_fract_z
 _atom_site_occupancy
  Ba  Ba0  1  0.10390100  0.46736700  0.28038300  1
  Ba  Ba1  1  0.53263300  0.89609900  0.21961700  1
  Ba  Ba2  1  0.89609900  0.53263300  0.71961700  1
  Ba  Ba3  1  0.46736700  0.10390100  0.78038300  1
  Zn  Zn0  1  0.17621900  0.82378100  0.25000000  1
  Zn  Zn1  1  0.82378100  0.17621900  0.75000000  1
  P  P0  1  0.99473400  0.36429200  0.16026700  1
  P  P1  1  0.63570800  0.00526600  0.33973300  1
  P  P2  1  0.00526600  0.63570800  0.83973300  1
  P  P3  1  0.36429200  0.99473400  0.66026700  1
  P  P4  1  0.95907400  0.82945400  0.37918900  1
  P  P5  1  0.17054600  0.04092600  0.12081100  1
  P  P6  1  0.04092600  0.17054600  0.62081100  1
  P  P7  1  0.82945400  0.95907400  0.87918900  1
  P  P8  1  0.02892500  0.30517200  0.95458800  1
  P  P9  1  0.69482800  0.97107500  0.54541200  1
  P  P10  1  0.97107500  0.69482800  0.04541200  1
  P  P11  1  0.30517200  0.02892500  0.45458800  1
  O  O0  1  0.09942900  0.13554700  0.01203000  1
  O  O1  1  0.86445300  0.90057100  0.48797000  1
  O  O2  1  0.90057100  0.86445300  0.98797000  1
  O  O3  1  0.13554700  0.09942900  0.51203000  1
  O  O4  1  0.94286300  0.42355600  0.04684500  1
  O  O5  1  0.57644400  0.05713700  0.45315500  1
  O  O6  1  0.05713700  0.57644400  0.95315500  1
  O  O7  1  0.42355600  0.94286300  0.54684500  1
  O  O8  1  0.02644400  0.21712400  0.18651300  1
  O  O9  1  0.78287600  0.97355600  0.31348700  1
  O  O10  1  0.97355600  0.78287600  0.81348700  1
  O  O11  1  0.21712400  0.02644400  0.68651300  1
  O  O12  1  0.82972600  0.52759500  0.22124900  1
  O  O13  1  0.47240500  0.17027400  0.27875100  1
  O  O14  1  0.17027400  0.47240500  0.77875100  1
  O  O15  1  0.52759500  0.82972600  0.72124900  1
  O  O16  1  0.17482700  0.26310000  0.16788100  1
  O  O17  1  0.73690000  0.82517300  0.33211900  1
  O  O18  1  0.82517300  0.73690000  0.83211900  1
  O  O19  1  0.26310000  0.17482700  0.66788100  1
  O  O20  1  0.09879900  0.63397600  0.36794800  1
  O  O21  1  0.36602400  0.90120100  0.13205200  1
  O  O22  1  0.90120100  0.36602400  0.63205200  1
  O  O23  1  0.63397600  0.09879900  0.86794800  1
  O  O24  1  0.02507900  0.88186800  0.35226100  1
  O  O25  1  0.11813200  0.97492100  0.14773900  1
  O  O26  1  0.97492100  0.11813200  0.64773900  1
  O  O27  1  0.88186800  0.02507900  0.85226100  1
  O  O28  1  0.12859500  0.57616500  0.10592900  1
  O  O29  1  0.42383500  0.87140500  0.39407100  1
  O  O30  1  0.87140500  0.42383500  0.89407100  1
  O  O31  1  0.57616500  0.12859500  0.60592900  1
  O  O32  1  0.80860000  0.77321000  0.09737300  1
  O  O33  1  0.22679000  0.19140000  0.40262700  1
  O  O34  1  0.19140000  0.22679000  0.90262700  1
  O  O35  1  0.77321000  0.80860000  0.59737300  1
  O  O36  1  0.93052300  0.53486000  0.49500300  1
  O  O37  1  0.46514000  0.06947700  0.00499700  1
  O  O38  1  0.06947700  0.46514000  0.50499700  1
  O  O39  1  0.53486000  0.93052300  0.99500300  1
  O  O40  1  0.47677700  0.46584000  0.35186600  1
  O  O41  1  0.53416000  0.52322300  0.14813400  1
  O  O42  1  0.52322300  0.53416000  0.64813400  1
  O  O43  1  0.46584000  0.47677700  0.85186600  1
  O  O44  1  0.52958300  0.59414800  0.37852400  1
  O  O45  1  0.40585200  0.47041700  0.12147600  1
  O  O46  1  0.47041700  0.40585200  0.62147600  1
  O  O47  1  0.59414800  0.52958300  0.87852400  1
  O  O48  1  0.28127700  0.63142700  0.14082100  1
  O  O49  1  0.36857300  0.71872300  0.35917900  1
  O  O50  1  0.71872300  0.36857300  0.85917900  1
  O  O51  1  0.63142700  0.28127700  0.64082100  1
  O  O52  1  0.62538200  0.37805400  0.12433400  1
  O  O53  1  0.62194600  0.37461800  0.37566600  1
  O  O54  1  0.37461800  0.62194600  0.87566600  1
  O  O55  1  0.37805400  0.62538200  0.62433400  1
loop_
_geom_bond_atom_site_label_1
_geom_bond_atom_site_label_2
_geom_bond_distance
_geom_bond_site_symmetry_2
Ba0 O13 2.666754 1_555
Ba0 O28 2.697039 1_555
Ba0 O20 2.764407 1_555
Ba0 O33 2.787241 1_555
Ba0 O16 2.803098 1_555
Ba0 O17 2.805245 1_455
Ba1 O12 2.666754 1_555
Ba1 O29 2.697039 1_555
Ba1 O21 2.764407 1_555
Ba1 O32 2.787241 1_555
Ba1 O17 2.803098 1_555
Ba1 O16 2.805245 1_565
Ba2 O15 2.666754 1_555
Ba2 O30 2.697039 1_555
Ba2 O22 2.764407 1_555
Ba2 O35 2.787241 1_555
Ba2 O18 2.803098 1_555
Ba2 O19 2.805245 1_655
Ba3 O14 2.666754 1_555
Ba3 O31 2.697039 1_555
Ba3 O23 2.764407 1_555
Ba3 O34 2.787241 1_555
Ba3 O19 2.803098 1_555
Ba3 O18 2.805245 1_545
O0 P5 1.602675 1_555
O0 P8 1.651900 1_554
O1 P4 1.602675 1_555
O1 P9 1.651900 1_555
O2 P7 1.602675 1_555
O2 P10 1.651900 1_556
O3 P6 1.602675 1_555
O3 P11 1.651900 1_555
O4 P0 1.614177 1_555
O4 P8 1.630189 1_654
O5 P1 1.614177 1_555
O5 P9 1.630189 1_545
O6 P2 1.614177 1_555
O6 P10 1.630189 1_456
O7 P3 1.614177 1_555
O7 P11 1.630189 1_565
O8 P5 1.620680 1_555
O8 P0 1.642047 1_455
O9 P4 1.620680 1_555
O9 P1 1.642047 1_565
O10 P7 1.620680 1_555
O10 P2 1.642047 1_655
O11 P6 1.620680 1_555
O11 P3 1.642047 1_545
O12 P0 1.491634 1_555
O13 P1 1.491634 1_555
O14 P2 1.491634 1_555
O15 P3 1.491634 1_555
O16 P0 1.506830 1_455
O17 P1 1.506830 1_565
O18 P2 1.506830 1_655
O19 P3 1.506830 1_545
O20 P4 1.483723 1_455
O21 P5 1.483723 1_565
O22 P6 1.483723 1_655
O23 P7 1.483723 1_545
O24 P4 1.538342 1_455
O24 Zn0 1.845749 1_555
O25 P5 1.538342 1_565
O25 Zn0 1.845749 1_555
O26 P6 1.538342 1_655
O26 Zn1 1.845749 1_555
O27 P7 1.538342 1_545
O27 Zn1 1.845749 1_555
O28 P10 1.494924 1_455
O29 P11 1.494924 1_565
O30 P8 1.494924 1_655
O31 P9 1.494924 1_545
O32 P10 1.495652 1_555
O33 P11 1.495652 1_555
O34 P8 1.495652 1_555
O35 P9 1.495652 1_555
O36 O38 1.238302 1_655
O37 O39 1.238302 1_544
O40 O53 1.229383 1_555
O41 O52 1.229383 1_555
O42 O55 1.229383 1_555
O43 O54 1.229383 1_555
O44 O49 1.228189 1_555
O45 O48 1.228189 1_555
O46 O51 1.228189 1_555
O47 O50 1.228189 1_555
O48 Zn0 2.378915 1_555
O49 Zn0 2.378915 1_555
O50 Zn1 2.378915 1_555
O51 Zn1 2.378915 1_555
