# generated using pymatgen
data_PrCuSn2
_symmetry_space_group_name_H-M   'P 1'
_cell_length_a   4.49120400
_cell_length_b   4.71245400
_cell_length_c   9.56721355
_cell_angle_alpha   90.00000000
_cell_angle_beta   103.57502981
_cell_angle_gamma   90.00000000
_symmetry_Int_Tables_number   1
_chemical_formula_structural   PrCuSn2
_chemical_formula_sum   'Pr2 Cu2 Sn4'
_cell_volume   196.82939576
_cell_formula_units_Z   2
loop_
 _symmetry_equiv_pos_site_id
 _symmetry_equiv_pos_as_xyz
  1  'x, y, z'
loop_
 _atom_site_type_symbol
 _atom_site_label
 _atom_site_symmetry_multiplicity
 _atom_site_fract_x
 _atom_site_fract_y
 _atom_site_fract_z
 _atom_site_occupancy
  Pr  Pr0  1  0.89547600  0.75000000  0.79095200  1
  Pr  Pr1  1  0.10452400  0.25000000  0.20904800  1
  Cu  Cu0  1  0.67613300  0.75000000  0.35226600  1
  Cu  Cu1  1  0.32386700  0.25000000  0.64773400  1
  Sn  Sn0  1  0.54083700  0.75000000  0.08167400  1
  Sn  Sn1  1  0.45916300  0.25000000  0.91832600  1
  Sn  Sn2  1  0.24931200  0.75000000  0.49862400  1
  Sn  Sn3  1  0.75068800  0.25000000  0.50137600  1
loop_
_geom_bond_atom_site_label_1
_geom_bond_atom_site_label_2
_geom_bond_distance
_geom_bond_site_symmetry_2
Pr0 Sn1 3.463776 1_665
Pr0 Sn1 3.463776 1_655
Pr0 Sn1 3.463776 1_565
Pr0 Sn1 3.463776 1_555
Pr0 Sn0 3.514641 1_656
Pr0 Sn0 3.514641 1_556
Pr0 Sn2 3.526144 1_655
Pr0 Sn2 3.526144 1_555
Pr0 Sn3 3.578305 1_565
Pr0 Sn3 3.578305 1_555
Pr1 Sn0 3.463776 1_545
Pr1 Sn0 3.463776 1_455
Pr1 Sn0 3.463776 1_445
Pr1 Sn0 3.463776 1_555
Pr1 Sn1 3.514641 1_554
Pr1 Sn1 3.514641 1_454
Pr1 Sn3 3.526144 1_555
Pr1 Sn3 3.526144 1_455
Pr1 Sn2 3.578305 1_545
Pr1 Sn2 3.578305 1_555
Cu0 Sn0 2.516489 1_555
Cu0 Sn2 2.625905 1_555
Cu0 Sn2 2.625905 1_655
Cu0 Sn3 2.734005 1_565
Cu0 Sn3 2.734005 1_555
Cu0 Pr1 3.516894 1_555
Cu0 Pr1 3.516894 1_665
Cu0 Pr1 3.516894 1_655
Cu0 Pr1 3.516894 1_565
Cu1 Sn1 2.516489 1_555
Cu1 Sn3 2.625905 1_455
Cu1 Sn3 2.625905 1_555
Cu1 Sn2 2.734005 1_545
Cu1 Sn2 2.734005 1_555
Cu1 Pr0 3.516894 1_455
Cu1 Pr0 3.516894 1_445
Cu1 Pr0 3.516894 1_555
Cu1 Pr0 3.516894 1_545
Sn0 Sn1 2.803489 1_564
Sn0 Sn1 2.803489 1_554
