# generated using pymatgen
data_U(Fe5Re)2
_symmetry_space_group_name_H-M   'P 1'
_cell_length_a   4.60300000
_cell_length_b   6.43334474
_cell_length_c   6.43334474
_cell_angle_alpha   96.35266187
_cell_angle_beta   110.96180260
_cell_angle_gamma   69.03819740
_symmetry_Int_Tables_number   1
_chemical_formula_structural   U(Fe5Re)2
_chemical_formula_sum   'U1 Fe10 Re2'
_cell_volume   166.09415117
_cell_formula_units_Z   1
loop_
 _symmetry_equiv_pos_site_id
 _symmetry_equiv_pos_as_xyz
  1  'x, y, z'
loop_
 _atom_site_type_symbol
 _atom_site_label
 _atom_site_symmetry_multiplicity
 _atom_site_fract_x
 _atom_site_fract_y
 _atom_site_fract_z
 _atom_site_occupancy
  U  U0  1  0.00000000  0.00000000  0.00000000  1
  Fe  Fe0  1  0.71372200  0.78627800  0.21372200  1
  Fe  Fe1  1  0.28627800  0.21372200  0.78627800  1
  Fe  Fe2  1  0.50000000  0.77755200  0.77755200  1
  Fe  Fe3  1  0.50000000  0.22244800  0.22244800  1
  Fe  Fe4  1  0.50000000  0.00000000  0.50000000  1
  Fe  Fe5  1  0.00000000  0.00000000  0.50000000  1
  Fe  Fe6  1  0.50000000  0.50000000  0.00000000  1
  Fe  Fe7  1  0.00000000  0.50000000  0.00000000  1
  Fe  Fe8  1  0.64462400  0.35537600  0.64462400  1
  Fe  Fe9  1  0.35537600  0.64462400  0.35537600  1
  Re  Re0  1  0.00000000  0.35593700  0.35593700  1
  Re  Re1  1  0.00000000  0.64406300  0.64406300  1
loop_
_geom_bond_atom_site_label_1
_geom_bond_atom_site_label_2
_geom_bond_distance
_geom_bond_site_symmetry_2
Fe0 Fe6 2.453241 1_555
Fe0 Fe7 2.453241 1_655
Fe0 Fe4 2.453241 1_565
Fe0 Fe5 2.453241 1_665
Fe0 Fe9 2.591622 1_655
Fe0 Fe9 2.591622 1_555
Fe0 Fe3 2.621892 1_565
Fe0 Fe2 2.621892 1_554
Fe0 Re0 2.706649 1_655
Fe0 Re1 2.706649 1_655
Fe0 U0 2.920347 1_565
Fe0 U0 2.920347 1_665
Fe1 Fe4 2.453241 1_555
Fe1 Fe5 2.453241 1_555
Fe1 Fe6 2.453241 1_556
Fe1 Fe7 2.453241 1_556
Fe1 Fe8 2.591622 1_555
Fe1 Fe8 2.591622 1_455
Fe1 Fe3 2.621892 1_556
Fe1 Fe2 2.621892 1_545
Fe1 Re0 2.706649 1_555
Fe1 Re1 2.706649 1_555
Fe1 U0 2.920347 1_656
Fe1 U0 2.920347 1_556
Fe2 Fe4 2.408695 1_565
Fe2 Fe7 2.408695 1_656
Fe2 Fe5 2.408695 1_565
Fe2 Fe6 2.408695 1_556
Fe2 Re1 2.570740 1_555
Fe2 Re1 2.570740 1_655
Fe2 Fe8 2.674106 1_555
Fe2 Fe9 2.674106 1_555
Fe2 U0 2.989932 1_666
Fe2 U0 2.989932 1_566
Fe3 Fe4 2.408695 1_555
Fe3 Fe5 2.408695 1_655
Fe3 Fe7 2.408695 1_555
Fe3 Fe6 2.408695 1_555
Fe3 Re0 2.570740 1_555
Fe3 Re0 2.570740 1_655
Fe3 Fe9 2.674106 1_555
Fe3 Fe8 2.674106 1_555
Fe3 U0 2.989932 1_555
Fe3 U0 2.989932 1_655
Fe4 Fe5 2.301500 1_655
Fe4 Fe5 2.301500 1_555
Fe4 Re0 2.563611 1_555
Fe4 Re1 2.563611 1_645
Fe4 Fe8 2.590534 1_555
Fe4 Fe9 2.590534 1_545
Fe4 U0 3.216672 1_555
Fe4 U0 3.216672 1_656
Fe5 Re0 2.563611 1_555
Fe5 Re1 2.563611 1_545
Fe5 Fe8 2.590534 1_455
Fe5 Fe9 2.590534 1_545
Fe5 U0 3.216672 1_555
Fe5 U0 3.216672 1_556
Fe6 Fe7 2.301500 1_555
Fe6 Fe7 2.301500 1_655
Fe6 Re0 2.563611 1_655
Fe6 Re1 2.563611 1_554
Fe6 Fe9 2.590534 1_555
Fe6 Fe8 2.590534 1_554
Fe6 U0 3.216672 1_655
Fe6 U0 3.216672 1_565
Fe7 Re0 2.563611 1_555
Fe7 Re1 2.563611 1_554
Fe7 Fe9 2.590534 1_555
Fe7 Fe8 2.590534 1_454
Fe7 U0 3.216672 1_555
Fe7 U0 3.216672 1_565
Fe8 Fe9 2.432904 1_555
Fe8 Re1 2.881755 1_555
Fe8 Re0 2.881755 1_555
Fe8 Re0 2.881755 1_655
Fe8 Re1 2.881755 1_655
Fe8 U0 2.989116 1_656
Fe9 Re1 2.881755 1_555
Fe9 Re0 2.881755 1_555
Fe9 Re0 2.881755 1_655
Fe9 Re1 2.881755 1_655
Fe9 U0 2.989116 1_565
Re0 Re1 2.472129 1_555
Re0 U0 3.053949 1_555
Re1 U0 3.053949 1_566
