# generated using pymatgen
data_HfGa2
_symmetry_space_group_name_H-M   'P 1'
_cell_length_a   4.02760289
_cell_length_b   4.02755753
_cell_length_c   12.98709167
_cell_angle_alpha   98.94580792
_cell_angle_beta   98.94562024
_cell_angle_gamma   89.98607919
_symmetry_Int_Tables_number   1
_chemical_formula_structural   HfGa2
_chemical_formula_sum   'Hf4 Ga8'
_cell_volume   205.51304795
_cell_formula_units_Z   4
loop_
 _symmetry_equiv_pos_site_id
 _symmetry_equiv_pos_as_xyz
  1  'x, y, z'
loop_
 _atom_site_type_symbol
 _atom_site_label
 _atom_site_symmetry_multiplicity
 _atom_site_fract_x
 _atom_site_fract_y
 _atom_site_fract_z
 _atom_site_occupancy
  Hf  Hf0  1  0.20040035  0.45029757  0.90070641  1
  Hf  Hf1  1  0.95023906  0.70034170  0.40058835  1
  Hf  Hf2  1  0.79964266  0.54974442  0.09937686  1
  Hf  Hf3  1  0.04971828  0.29961598  0.59932570  1
  Ga  Ga0  1  0.37571650  0.62565647  0.25136400  1
  Ga  Ga1  1  0.12567669  0.87572878  0.75140095  1
  Ga  Ga2  1  0.62428248  0.37434199  0.74862978  1
  Ga  Ga3  1  0.87432690  0.12427477  0.24860249  1
  Ga  Ga4  1  0.53642750  0.78641113  0.57327837  1
  Ga  Ga5  1  0.28644311  0.03646223  0.07334563  1
  Ga  Ga6  1  0.46351418  0.21353413  0.42662111  1
  Ga  Ga7  1  0.71361329  0.96359280  0.92676033  1
loop_
_geom_bond_atom_site_label_1
_geom_bond_atom_site_label_2
_geom_bond_distance
_geom_bond_site_symmetry_2
Ga0 Hf1 2.761352 1_555
Ga0 Hf1 2.763001 1_455
Ga0 Hf2 2.785917 1_455
Ga0 Hf2 2.786584 1_555
Ga0 Ga6 2.997503 1_555
Ga0 Ga6 2.997621 1_565
Ga0 Ga5 3.023443 1_555
Ga0 Ga5 3.023689 1_565
Ga1 Hf0 2.762048 1_565
Ga1 Hf0 2.763679 1_555
Ga1 Hf3 2.786650 1_555
Ga1 Hf3 2.787362 1_565
Ga1 Ga7 2.998450 1_455
Ga1 Ga7 2.998624 1_555
Ga1 Ga4 3.024458 1_455
Ga1 Ga4 3.024675 1_555
Ga2 Hf3 2.762048 1_555
Ga2 Hf3 2.763687 1_655
Ga2 Hf0 2.786698 1_655
Ga2 Hf0 2.787370 1_555
Ga2 Ga4 2.998372 1_555
Ga2 Ga4 2.998522 1_545
Ga2 Ga7 3.024504 1_555
Ga2 Ga7 3.024749 1_545
Ga3 Hf2 2.761360 1_545
Ga3 Hf2 2.762982 1_555
Ga3 Hf1 2.785864 1_555
Ga3 Hf1 2.786582 1_545
Ga3 Ga5 2.997492 1_655
Ga3 Ga5 2.997658 1_555
Ga3 Ga6 3.023449 1_655
Ga3 Ga6 3.023718 1_555
Ga4 Ga6 2.738103 1_555
Ga4 Ga6 2.741904 1_565
Ga4 Hf3 2.866250 1_555
Ga4 Hf3 2.866397 1_565
Ga4 Hf3 2.866885 1_655
Ga4 Hf3 2.868407 1_665
Ga4 Hf1 2.972537 1_455
Ga4 Hf1 2.974599 1_555
Ga5 Ga7 2.737475 1_444
Ga5 Ga7 2.741329 1_544
Ga5 Hf2 2.866220 1_445
Ga5 Hf2 2.866385 1_545
Ga5 Hf2 2.866850 1_455
Ga5 Hf2 2.868390 1_555
Ga5 Hf0 2.972045 1_544
Ga5 Hf0 2.974113 1_554
Ga6 Hf1 2.866267 1_555
Ga6 Hf1 2.866385 1_545
Ga6 Hf1 2.866855 1_455
Ga6 Hf1 2.868347 1_445
Ga6 Hf3 2.972695 1_655
Ga6 Hf3 2.974712 1_555
Ga7 Hf0 2.866243 1_665
Ga7 Hf0 2.866419 1_565
Ga7 Hf0 2.866882 1_655
Ga7 Hf0 2.868433 1_555
Ga7 Hf2 2.971829 1_566
Ga7 Hf2 2.973906 1_556
