# generated using pymatgen
data_Sr3Co2Cu2S2O5
_symmetry_space_group_name_H-M   'P 1'
_cell_length_a   13.88033988
_cell_length_b   13.88033988
_cell_length_c   13.88033988
_cell_angle_alpha   163.72873281
_cell_angle_beta   163.72873281
_cell_angle_gamma   23.08972502
_symmetry_Int_Tables_number   1
_chemical_formula_structural   Sr3Co2Cu2S2O5
_chemical_formula_sum   'Sr3 Co2 Cu2 S2 O5'
_cell_volume   209.89419881
_cell_formula_units_Z   1
loop_
 _symmetry_equiv_pos_site_id
 _symmetry_equiv_pos_as_xyz
  1  'x, y, z'
loop_
 _atom_site_type_symbol
 _atom_site_label
 _atom_site_symmetry_multiplicity
 _atom_site_fract_x
 _atom_site_fract_y
 _atom_site_fract_z
 _atom_site_occupancy
  Sr  Sr0  1  0.50000000  0.50000000  0.00000000  1
  Sr  Sr1  1  0.63692100  0.63692100  0.00000000  1
  Sr  Sr2  1  0.36307900  0.36307900  0.00000000  1
  Co  Co0  1  0.07050800  0.07050800  0.00000000  1
  Co  Co1  1  0.92949200  0.92949200  0.00000000  1
  Cu  Cu0  1  0.75000000  0.25000000  0.50000000  1
  Cu  Cu1  1  0.25000000  0.75000000  0.50000000  1
  S  S0  1  0.19953000  0.19953000  0.00000000  1
  S  S1  1  0.80047000  0.80047000  0.00000000  1
  O  O0  1  0.58118000  0.08118000  0.50000000  1
  O  O1  1  0.08118000  0.58118000  0.50000000  1
  O  O2  1  0.41882000  0.91882000  0.50000000  1
  O  O3  1  0.91882000  0.41882000  0.50000000  1
  O  O4  1  0.00000000  0.00000000  0.00000000  1
loop_
_geom_bond_atom_site_label_1
_geom_bond_atom_site_label_2
_geom_bond_distance
_geom_bond_site_symmetry_2
Co0 O4 1.917749 1_555
Co0 O0 1.985634 1_555
Co0 O0 1.985634 1_454
Co0 O1 1.985634 1_555
Co0 O1 1.985634 1_544
Co1 O4 1.917749 1_665
Co1 O2 1.985634 1_554
Co1 O3 1.985634 1_565
Co1 O2 1.985634 1_655
Co1 O3 1.985634 1_554
Cu0 S0 2.396432 1_555
Cu0 S1 2.396432 1_556
Cu0 S1 2.396432 1_545
Cu0 S0 2.396432 1_656
Cu1 S1 2.396432 1_556
Cu1 S0 2.396432 1_566
Cu1 S0 2.396432 1_555
Cu1 S1 2.396432 1_455
S0 Sr1 3.258352 1_455
S0 Sr1 3.258352 1_556
S0 Sr1 3.258352 1_545
S0 Sr1 3.258352 1_444
S1 Sr2 3.258352 1_666
S1 Sr2 3.258352 1_565
S1 Sr2 3.258352 1_655
S1 Sr2 3.258352 1_554
O0 Sr1 2.481340 1_556
O0 Sr1 2.481340 1_545
O0 Sr0 2.955305 1_556
O0 Sr0 2.955305 1_545
O1 Sr1 2.481340 1_556
O1 Sr1 2.481340 1_455
O1 Sr0 2.955305 1_455
O1 Sr0 2.955305 1_556
O2 Sr2 2.481340 1_555
O2 Sr2 2.481340 1_566
O2 Sr0 2.955305 1_555
O2 Sr0 2.955305 1_566
O3 Sr2 2.481340 1_555
O3 Sr2 2.481340 1_656
O3 Sr0 2.955305 1_555
O3 Sr0 2.955305 1_656
O4 Sr0 2.777944 1_455
O4 Sr0 2.777944 1_556
O4 Sr0 2.777944 1_444
O4 Sr0 2.777944 1_545
