# generated using pymatgen
data_NdCo3
_symmetry_space_group_name_H-M   'P 1'
_cell_length_a   5.08442816
_cell_length_b   5.08442816
_cell_length_c   8.77562108
_cell_angle_alpha   73.16057186
_cell_angle_beta   73.16057186
_cell_angle_gamma   59.99999788
_symmetry_Int_Tables_number   1
_chemical_formula_structural   NdCo3
_chemical_formula_sum   'Nd3 Co9'
_cell_volume   185.15058541
_cell_formula_units_Z   3
loop_
 _symmetry_equiv_pos_site_id
 _symmetry_equiv_pos_as_xyz
  1  'x, y, z'
loop_
 _atom_site_type_symbol
 _atom_site_label
 _atom_site_symmetry_multiplicity
 _atom_site_fract_x
 _atom_site_fract_y
 _atom_site_fract_z
 _atom_site_occupancy
  Nd  Nd0  1  0.13941100  0.13941100  0.58176700  1
  Nd  Nd1  1  0.86058900  0.86058900  0.41823300  1
  Nd  Nd2  1  0.00000000  0.00000000  0.00000000  1
  Co  Co0  1  0.08185000  0.57820200  0.76174600  1
  Co  Co1  1  0.57820200  0.57820200  0.76174600  1
  Co  Co2  1  0.57820200  0.08185000  0.76174600  1
  Co  Co3  1  0.91815000  0.42179800  0.23825400  1
  Co  Co4  1  0.42179800  0.42179800  0.23825400  1
  Co  Co5  1  0.42179800  0.91815000  0.23825400  1
  Co  Co6  1  0.33408200  0.33408200  0.99775400  1
  Co  Co7  1  0.66591800  0.66591800  0.00224600  1
  Co  Co8  1  0.50000000  0.50000000  0.50000000  1
loop_
_geom_bond_atom_site_label_1
_geom_bond_atom_site_label_2
_geom_bond_distance
_geom_bond_site_symmetry_2
Co0 Co6 2.435676 1_555
Co0 Co7 2.478262 1_456
Co0 Co2 2.523666 1_555
Co0 Co1 2.523666 1_555
Co0 Co2 2.560762 1_465
Co0 Co1 2.560762 1_455
Co0 Co8 2.609354 1_555
Co0 Nd0 2.945917 1_565
Co0 Nd0 2.945917 1_555
Co0 Nd1 3.202570 1_455
Co0 Nd2 3.216422 1_566
Co0 Nd2 3.216422 1_556
Co1 Co6 2.435676 1_555
Co1 Co7 2.478262 1_556
Co1 Co2 2.523666 1_555
Co1 Co2 2.560762 1_565
Co1 Co8 2.609354 1_555
Co1 Nd0 2.945917 1_565
Co1 Nd0 2.945917 1_655
Co1 Nd1 3.202570 1_555
Co1 Nd2 3.216422 1_566
Co1 Nd2 3.216422 1_656
Co2 Co6 2.435676 1_555
Co2 Co7 2.478262 1_546
Co2 Co8 2.609354 1_555
Co2 Nd0 2.945917 1_655
Co2 Nd0 2.945917 1_555
Co2 Nd1 3.202570 1_545
Co2 Nd2 3.216422 1_656
Co2 Nd2 3.216422 1_556
Co3 Co7 2.435676 1_555
Co3 Co6 2.478262 1_654
Co3 Co5 2.523666 1_555
Co3 Co4 2.523666 1_555
Co3 Co5 2.560762 1_645
Co3 Co4 2.560762 1_655
Co3 Co8 2.609354 1_555
Co3 Nd1 2.945917 1_545
Co3 Nd1 2.945917 1_555
Co3 Nd0 3.202570 1_655
Co3 Nd2 3.216422 1_655
Co3 Nd2 3.216422 1_665
Co4 Co7 2.435676 1_555
Co4 Co6 2.478262 1_554
Co4 Co5 2.523666 1_555
Co4 Co5 2.560762 1_545
Co4 Co8 2.609354 1_555
Co4 Nd1 2.945917 1_455
Co4 Nd1 2.945917 1_545
Co4 Nd0 3.202570 1_555
Co4 Nd2 3.216422 1_655
Co4 Nd2 3.216422 1_565
Co5 Co7 2.435676 1_555
Co5 Co6 2.478262 1_564
Co5 Co8 2.609354 1_555
Co5 Nd1 2.945917 1_455
Co5 Nd1 2.945917 1_555
Co5 Nd0 3.202570 1_565
Co5 Nd2 3.216422 1_565
Co5 Nd2 3.216422 1_665
Co6 Nd2 2.935555 1_566
Co6 Nd2 2.935555 1_656
Co6 Nd2 2.935555 1_556
Co7 Nd2 2.935555 1_655
Co7 Nd2 2.935555 1_565
Co7 Nd2 2.935555 1_665
Co8 Nd0 3.012376 1_655
Co8 Nd0 3.012376 1_565
Co8 Nd1 3.012376 1_455
Co8 Nd1 3.012376 1_545
Co8 Nd1 3.012376 1_555
Co8 Nd0 3.012376 1_555
