# generated using pymatgen
data_Ba4PrNd(Cu3O7)2
_symmetry_space_group_name_H-M   'P 1'
_cell_length_a   3.88956700
_cell_length_b   3.95935100
_cell_length_c   23.80218100
_cell_angle_alpha   90.00000000
_cell_angle_beta   90.00000000
_cell_angle_gamma   90.00000000
_symmetry_Int_Tables_number   1
_chemical_formula_structural   Ba4PrNd(Cu3O7)2
_chemical_formula_sum   'Ba4 Pr1 Nd1 Cu6 O14'
_cell_volume   366.55741934
_cell_formula_units_Z   1
loop_
 _symmetry_equiv_pos_site_id
 _symmetry_equiv_pos_as_xyz
  1  'x, y, z'
loop_
 _atom_site_type_symbol
 _atom_site_label
 _atom_site_symmetry_multiplicity
 _atom_site_fract_x
 _atom_site_fract_y
 _atom_site_fract_z
 _atom_site_occupancy
  Ba  Ba0  1  0.50000000  0.50000000  0.83976900  1
  Ba  Ba1  1  0.50000000  0.50000000  0.33963700  1
  Ba  Ba2  1  0.50000000  0.50000000  0.16023100  1
  Ba  Ba3  1  0.50000000  0.50000000  0.66036300  1
  Pr  Pr0  1  0.50000000  0.50000000  0.50000000  1
  Nd  Nd0  1  0.50000000  0.50000000  0.00000000  1
  Cu  Cu0  1  0.00000000  0.00000000  0.92305500  1
  Cu  Cu1  1  0.00000000  0.00000000  0.42255300  1
  Cu  Cu2  1  0.00000000  0.00000000  0.07694500  1
  Cu  Cu3  1  0.00000000  0.00000000  0.57744700  1
  Cu  Cu4  1  0.00000000  0.00000000  0.75002800  1
  Cu  Cu5  1  0.00000000  0.00000000  0.24997200  1
  O  O0  1  0.00000000  0.50000000  0.93585400  1
  O  O1  1  0.00000000  0.50000000  0.43493900  1
  O  O2  1  0.00000000  0.50000000  0.06414600  1
  O  O3  1  0.00000000  0.50000000  0.56506100  1
  O  O4  1  0.00000000  0.00000000  0.82902100  1
  O  O5  1  0.00000000  0.00000000  0.32887900  1
  O  O6  1  0.00000000  0.00000000  0.17097900  1
  O  O7  1  0.00000000  0.00000000  0.67112100  1
  O  O8  1  0.00000000  0.50000000  0.75006200  1
  O  O9  1  0.00000000  0.50000000  0.24993800  1
  O  O10  1  0.50000000  0.00000000  0.93633700  1
  O  O11  1  0.50000000  0.00000000  0.43544300  1
  O  O12  1  0.50000000  0.00000000  0.06366300  1
  O  O13  1  0.50000000  0.00000000  0.56455700  1
loop_
_geom_bond_atom_site_label_1
_geom_bond_atom_site_label_2
_geom_bond_distance
_geom_bond_site_symmetry_2
Ba0 O4 2.786888 1_555
Ba0 O4 2.786888 1_565
Ba0 O4 2.786888 1_655
Ba0 O4 2.786888 1_665
Ba0 O8 2.888141 1_555
Ba0 O8 2.888141 1_655
Ba0 O0 3.002116 1_555
Ba0 O0 3.002116 1_655
Ba0 O10 3.033538 1_565
Ba0 O10 3.033538 1_555
Ba1 O5 2.786910 1_665
Ba1 O5 2.786910 1_655
Ba1 O5 2.786910 1_555
Ba1 O5 2.786910 1_565
Ba1 O9 2.888000 1_555
Ba1 O9 2.888000 1_655
Ba1 O1 2.987943 1_655
Ba1 O1 2.987943 1_555
Ba1 O11 3.019818 1_555
Ba1 O11 3.019818 1_565
Ba2 O6 2.786888 1_565
Ba2 O6 2.786888 1_665
Ba2 O6 2.786888 1_555
Ba2 O6 2.786888 1_655
Ba2 O9 2.888141 1_555
Ba2 O9 2.888141 1_655
Ba2 O2 3.002116 1_555
Ba2 O2 3.002116 1_655
Ba2 O12 3.033538 1_555
Ba2 O12 3.033538 1_565
Ba3 O7 2.786910 1_565
Ba3 O7 2.786910 1_665
Ba3 O7 2.786910 1_655
Ba3 O7 2.786910 1_555
Ba3 O8 2.888000 1_555
Ba3 O8 2.888000 1_655
Ba3 O3 2.987943 1_555
Ba3 O3 2.987943 1_655
Ba3 O13 3.019818 1_555
Ba3 O13 3.019818 1_565
Nd0 O2 2.472518 1_655
Nd0 O2 2.472518 1_555
Nd0 O0 2.472518 1_654
Nd0 O0 2.472518 1_554
Nd0 O12 2.493051 1_555
Nd0 O12 2.493051 1_565
Nd0 O10 2.493051 1_564
Nd0 O10 2.493051 1_554
Cu0 O10 1.970312 1_455
Cu0 O10 1.970312 1_555
Cu0 O0 2.002979 1_545
Cu0 O0 2.002979 1_555
Cu0 O4 2.238214 1_555
Cu1 O11 1.968836 1_455
Cu1 O11 1.968836 1_555
Cu1 O1 2.001507 1_545
Cu1 O1 2.001507 1_555
Cu1 O5 2.229646 1_555
Cu2 O12 1.970312 1_455
Cu2 O12 1.970312 1_555
Cu2 O2 2.002979 1_555
Cu2 O2 2.002979 1_545
Cu2 O6 2.238214 1_555
Cu3 O13 1.968836 1_455
Cu3 O13 1.968836 1_555
Cu3 O3 2.001507 1_555
Cu3 O3 2.001507 1_545
Cu3 O7 2.229646 1_555
Cu4 O7 1.878159 1_555
Cu4 O4 1.880206 1_555
Cu4 O8 1.979676 1_545
Cu4 O8 1.979676 1_555
Cu5 O5 1.878159 1_555
Cu5 O6 1.880206 1_555
Cu5 O9 1.979676 1_555
Cu5 O9 1.979676 1_545
O1 Pr0 2.486026 1_455
O1 Pr0 2.486026 1_555
O3 Pr0 2.486026 1_555
O3 Pr0 2.486026 1_455
O11 Pr0 2.506042 1_545
O11 Pr0 2.506042 1_555
O13 Pr0 2.506042 1_545
O13 Pr0 2.506042 1_555
