# generated using pymatgen
data_Cr2SbAs
_symmetry_space_group_name_H-M   'P 1'
_cell_length_a   3.78806500
_cell_length_b   5.82019400
_cell_length_c   6.59297400
_cell_angle_alpha   90.00000000
_cell_angle_beta   90.00000000
_cell_angle_gamma   90.00000000
_symmetry_Int_Tables_number   1
_chemical_formula_structural   Cr2SbAs
_chemical_formula_sum   'Cr4 Sb2 As2'
_cell_volume   145.35709888
_cell_formula_units_Z   2
loop_
 _symmetry_equiv_pos_site_id
 _symmetry_equiv_pos_as_xyz
  1  'x, y, z'
loop_
 _atom_site_type_symbol
 _atom_site_label
 _atom_site_symmetry_multiplicity
 _atom_site_fract_x
 _atom_site_fract_y
 _atom_site_fract_z
 _atom_site_occupancy
  Cr  Cr0  1  0.50000000  0.50342100  0.04189200  1
  Cr  Cr1  1  0.50000000  0.00342100  0.95810800  1
  Cr  Cr2  1  0.00000000  0.50627300  0.47055500  1
  Cr  Cr3  1  0.00000000  0.00627300  0.52944500  1
  Sb  Sb0  1  0.00000000  0.71128700  0.83296900  1
  Sb  Sb1  1  0.00000000  0.21128700  0.16703100  1
  As  As0  1  0.50000000  0.27901900  0.66563000  1
  As  As1  1  0.50000000  0.77901900  0.33437000  1
loop_
_geom_bond_atom_site_label_1
_geom_bond_atom_site_label_2
_geom_bond_distance
_geom_bond_site_symmetry_2
Cr0 Sb0 2.635967 1_654
Cr0 Sb0 2.635967 1_554
Cr0 Sb1 2.675628 1_655
Cr0 Sb1 2.675628 1_555
Cr1 Sb1 2.635967 1_556
Cr1 Sb1 2.635967 1_656
Cr1 Sb0 2.675628 1_545
Cr1 Sb0 2.675628 1_645
Cr2 Sb1 2.636696 1_555
Cr2 Sb0 2.670757 1_555
Cr3 Sb0 2.636696 1_545
Cr3 Sb1 2.670757 1_555
As0 Cr1 2.508239 1_555
As0 Cr3 2.629347 1_655
As0 Cr3 2.629347 1_555
As0 Cr2 2.644033 1_555
As0 Cr2 2.644033 1_655
As0 Cr0 2.803498 1_556
As1 Cr0 2.508239 1_555
As1 Cr2 2.629347 1_655
As1 Cr2 2.629347 1_555
As1 Cr3 2.644033 1_565
As1 Cr3 2.644033 1_665
As1 Cr1 2.803498 1_564
