# generated using pymatgen
data_CeGa6Ni
_symmetry_space_group_name_H-M   'P 1'
_cell_length_a   4.22803065
_cell_length_b   4.22802656
_cell_length_c   7.79217231
_cell_angle_alpha   90.00000000
_cell_angle_beta   90.00000000
_cell_angle_gamma   90.00000000
_symmetry_Int_Tables_number   1
_chemical_formula_structural   CeGa6Ni
_chemical_formula_sum   'Ce1 Ga6 Ni1'
_cell_volume   139.29463235
_cell_formula_units_Z   1
loop_
 _symmetry_equiv_pos_site_id
 _symmetry_equiv_pos_as_xyz
  1  'x, y, z'
loop_
 _atom_site_type_symbol
 _atom_site_label
 _atom_site_symmetry_multiplicity
 _atom_site_fract_x
 _atom_site_fract_y
 _atom_site_fract_z
 _atom_site_occupancy
  Ce  Ce0  1  -0.00000000  -0.00000000  0.50000000  1
  Ga  Ga0  1  0.50000000  0.50000000  0.34877472  1
  Ga  Ga1  1  0.50000000  0.50000000  0.65122528  1
  Ga  Ga2  1  0.50000000  0.00000000  0.16455988  1
  Ga  Ga3  1  0.00000000  0.50000000  0.16456088  1
  Ga  Ga4  1  0.50000000  -0.00000000  0.83544012  1
  Ga  Ga5  1  -0.00000000  0.50000000  0.83543912  1
  Ni  Ni0  1  -0.00000000  -0.00000000  0.00000000  1
loop_
_geom_bond_atom_site_label_1
_geom_bond_atom_site_label_2
_geom_bond_distance
_geom_bond_site_symmetry_2
Ce0 Ga0 3.213515 1_555
Ce0 Ga1 3.213515 1_455
Ce0 Ga0 3.213515 1_455
Ce0 Ga0 3.213515 1_445
Ce0 Ga0 3.213515 1_545
Ce0 Ga1 3.213515 1_545
Ce0 Ga1 3.213515 1_555
Ce0 Ga1 3.213515 1_445
Ce0 Ga3 3.361696 1_545
Ce0 Ga3 3.361696 1_555
Ce0 Ga5 3.361696 1_545
Ce0 Ga5 3.361696 1_555
Ce0 Ga4 3.361703 1_555
Ce0 Ga4 3.361703 1_455
Ce0 Ga2 3.361703 1_455
Ce0 Ga2 3.361703 1_555
Ga0 Ga1 2.356747 1_555
Ga0 Ga3 2.555290 1_655
Ga0 Ga3 2.555290 1_555
Ga0 Ga2 2.555293 1_565
Ga0 Ga2 2.555293 1_555
Ga1 Ga5 2.555290 1_555
Ga1 Ga5 2.555290 1_655
Ga1 Ga4 2.555293 1_565
Ga1 Ga4 2.555293 1_555
Ga2 Ni0 2.472509 1_655
Ga2 Ni0 2.472509 1_555
Ga2 Ga4 2.564558 1_554
Ga3 Ni0 2.472511 1_555
Ga3 Ni0 2.472511 1_565
Ga3 Ga5 2.564573 1_554
Ga4 Ni0 2.472509 1_556
Ga4 Ni0 2.472509 1_656
Ga5 Ni0 2.472511 1_556
Ga5 Ni0 2.472511 1_566
