# generated using pymatgen
data_Mn4Si3Ni5
_symmetry_space_group_name_H-M   'P 1'
_cell_length_a   4.71323062
_cell_length_b   4.71323062
_cell_length_c   7.50547000
_cell_angle_alpha   90.00000000
_cell_angle_beta   90.00000000
_cell_angle_gamma   119.65268230
_symmetry_Int_Tables_number   1
_chemical_formula_structural   Mn4Si3Ni5
_chemical_formula_sum   'Mn4 Si3 Ni5'
_cell_volume   144.89561288
_cell_formula_units_Z   1
loop_
 _symmetry_equiv_pos_site_id
 _symmetry_equiv_pos_as_xyz
  1  'x, y, z'
loop_
 _atom_site_type_symbol
 _atom_site_label
 _atom_site_symmetry_multiplicity
 _atom_site_fract_x
 _atom_site_fract_y
 _atom_site_fract_z
 _atom_site_occupancy
  Mn  Mn0  1  0.33273700  0.66726300  0.81573000  1
  Mn  Mn1  1  0.66643200  0.33356800  0.68973800  1
  Mn  Mn2  1  0.66643200  0.33356800  0.31026200  1
  Mn  Mn3  1  0.33273700  0.66726300  0.18427000  1
  Si  Si0  1  0.98963100  0.01036900  0.24298300  1
  Si  Si1  1  0.98963100  0.01036900  0.75701700  1
  Si  Si2  1  0.18367000  0.81633000  0.50000000  1
  Ni  Ni0  1  0.67247200  0.82519100  0.50000000  1
  Ni  Ni1  1  0.17480900  0.32752800  0.50000000  1
  Ni  Ni2  1  0.82585700  0.17414300  0.00000000  1
  Ni  Ni3  1  0.33666000  0.17104400  0.00000000  1
  Ni  Ni4  1  0.82895600  0.66334000  0.00000000  1
loop_
_geom_bond_atom_site_label_1
_geom_bond_atom_site_label_2
_geom_bond_distance
_geom_bond_site_symmetry_2
Mn0 Si2 2.662927 1_555
Mn0 Ni4 2.725045 1_556
Mn0 Ni3 2.725045 1_556
Mn0 Si1 2.727813 1_565
Mn0 Si1 2.727813 1_455
Mn0 Ni3 2.740005 1_566
Mn0 Ni4 2.740005 1_456
Mn0 Ni2 2.743715 1_456
Mn0 Ni2 2.743715 1_566
Mn0 Ni1 2.748489 1_555
Mn0 Ni0 2.748489 1_555
Mn0 Mn3 2.766066 1_556
Mn0 Si1 2.830563 1_465
Mn0 Mn1 2.879084 1_555
Mn0 Mn1 2.888423 1_455
Mn0 Mn1 2.888423 1_565
Mn1 Ni2 2.666564 1_556
Mn1 Si1 2.681793 1_555
Mn1 Ni4 2.692059 1_556
Mn1 Ni3 2.692059 1_556
Mn1 Ni1 2.707882 1_555
Mn1 Ni0 2.707882 1_555
Mn1 Si2 2.767628 1_545
Mn1 Si2 2.767628 1_655
Mn1 Ni1 2.799567 1_655
Mn1 Ni0 2.799567 1_545
Mn1 Si1 2.818318 1_565
Mn1 Si1 2.818318 1_455
Mn1 Mn2 2.848146 1_555
Mn2 Ni2 2.666564 1_555
Mn2 Si0 2.681793 1_555
Mn2 Ni3 2.692059 1_555
Mn2 Ni4 2.692059 1_555
Mn2 Ni0 2.707882 1_555
Mn2 Ni1 2.707882 1_555
Mn2 Si2 2.767628 1_545
Mn2 Si2 2.767628 1_655
Mn2 Ni1 2.799567 1_655
Mn2 Ni0 2.799567 1_545
Mn2 Si0 2.818318 1_565
Mn2 Si0 2.818318 1_455
Mn2 Mn3 2.879084 1_555
Mn2 Mn3 2.888423 1_655
Mn2 Mn3 2.888423 1_545
Mn3 Si2 2.662927 1_555
Mn3 Ni4 2.725045 1_555
Mn3 Ni3 2.725045 1_555
Mn3 Si0 2.727813 1_455
Mn3 Si0 2.727813 1_565
Mn3 Ni3 2.740005 1_565
Mn3 Ni4 2.740005 1_455
Mn3 Ni2 2.743715 1_455
Mn3 Ni2 2.743715 1_565
Mn3 Ni1 2.748489 1_555
Mn3 Ni0 2.748489 1_555
Mn3 Si0 2.830563 1_465
Si0 Si2 2.494310 1_645
Si1 Si2 2.494310 1_645
Ni0 Si2 2.283463 1_555
Ni0 Si1 2.329491 1_565
Ni0 Si0 2.329491 1_565
Ni0 Ni1 2.357903 1_555
Ni0 Ni1 2.380049 1_665
Ni0 Si2 2.430327 1_655
Ni1 Si2 2.283463 1_555
Ni1 Si1 2.329491 1_455
Ni1 Si0 2.329491 1_455
Ni1 Si2 2.430327 1_545
Ni2 Si0 2.259896 1_555
Ni2 Si1 2.259896 1_554
Ni2 Ni3 2.298507 1_555
Ni2 Ni4 2.298507 1_555
Ni2 Ni4 2.414792 1_545
Ni2 Ni3 2.414792 1_655
Ni3 Si0 2.312798 1_455
Ni3 Si1 2.312798 1_454
Ni3 Ni4 2.332475 1_555
Ni3 Ni4 2.405477 1_445
Ni4 Si0 2.312798 1_565
Ni4 Si1 2.312798 1_564
