# generated using pymatgen
data_NaSrCrF6
_symmetry_space_group_name_H-M   'P 1'
_cell_length_a   9.36479900
_cell_length_b   5.68165100
_cell_length_c   9.84491034
_cell_angle_alpha   86.29776511
_cell_angle_beta   90.00000000
_cell_angle_gamma   90.00000000
_symmetry_Int_Tables_number   1
_chemical_formula_structural   NaSrCrF6
_chemical_formula_sum   'Na4 Sr4 Cr4 F24'
_cell_volume   522.73009333
_cell_formula_units_Z   4
loop_
 _symmetry_equiv_pos_site_id
 _symmetry_equiv_pos_as_xyz
  1  'x, y, z'
loop_
 _atom_site_type_symbol
 _atom_site_label
 _atom_site_symmetry_multiplicity
 _atom_site_fract_x
 _atom_site_fract_y
 _atom_site_fract_z
 _atom_site_occupancy
  Na  Na0  1  0.04704700  0.27739000  0.39761900  1
  Na  Na1  1  0.54704700  0.72261000  0.10238100  1
  Na  Na2  1  0.95295300  0.72261000  0.60238100  1
  Na  Na3  1  0.45295300  0.27739000  0.89761900  1
  Sr  Sr0  1  0.32695900  0.76511900  0.49064200  1
  Sr  Sr1  1  0.82695900  0.23488100  0.00935800  1
  Sr  Sr2  1  0.67304100  0.23488100  0.50935800  1
  Sr  Sr3  1  0.17304100  0.76511900  0.99064200  1
  Cr  Cr0  1  0.91814000  0.76856800  0.26424200  1
  Cr  Cr1  1  0.41814000  0.23143200  0.23575800  1
  Cr  Cr2  1  0.08186000  0.23143200  0.73575800  1
  Cr  Cr3  1  0.58186000  0.76856800  0.76424200  1
  F  F0  1  0.02499400  0.00110300  0.14857500  1
  F  F1  1  0.52499400  0.99889700  0.35142500  1
  F  F2  1  0.97500600  0.99889700  0.85142500  1
  F  F3  1  0.47500600  0.00110300  0.64857500  1
  F  F4  1  0.68298700  0.52671800  0.87368400  1
  F  F5  1  0.18298700  0.47328200  0.62631600  1
  F  F6  1  0.31701300  0.47328200  0.12631600  1
  F  F7  1  0.81701300  0.52671800  0.37368400  1
  F  F8  1  0.91231400  0.31998500  0.62574800  1
  F  F9  1  0.41231400  0.68001500  0.87425200  1
  F  F10  1  0.08768600  0.68001500  0.37425200  1
  F  F11  1  0.58768600  0.31998500  0.12574800  1
  F  F12  1  0.52861000  0.53336500  0.63691100  1
  F  F13  1  0.02861000  0.46663500  0.86308900  1
  F  F14  1  0.47139000  0.46663500  0.36308900  1
  F  F15  1  0.97139000  0.53336500  0.13691100  1
  F  F16  1  0.24103000  0.13588800  0.85013200  1
  F  F17  1  0.74103000  0.86411200  0.64986800  1
  F  F18  1  0.75897000  0.86411200  0.14986800  1
  F  F19  1  0.25897000  0.13588800  0.35013200  1
  F  F20  1  0.62833100  0.00462500  0.89230100  1
  F  F21  1  0.12833100  0.99537500  0.60769900  1
  F  F22  1  0.37166900  0.99537500  0.10769900  1
  F  F23  1  0.87166900  0.00462500  0.39230100  1
loop_
_geom_bond_atom_site_label_1
_geom_bond_atom_site_label_2
_geom_bond_distance
_geom_bond_site_symmetry_2
Cr0 F18 1.924967 1_555
Cr0 F7 1.937714 1_555
Cr0 F23 1.948331 1_565
Cr0 F15 1.955055 1_555
Cr0 F0 1.961957 1_665
Cr0 F10 1.968942 1_655
Cr1 F19 1.924967 1_555
Cr1 F6 1.937714 1_555
Cr1 F22 1.948331 1_545
Cr1 F14 1.955055 1_555
Cr1 F1 1.961957 1_545
Cr1 F11 1.968942 1_555
Cr2 F16 1.924967 1_555
Cr2 F5 1.937714 1_555
Cr2 F21 1.948331 1_545
Cr2 F13 1.955055 1_555
Cr2 F2 1.961957 1_445
Cr2 F8 1.968942 1_455
Cr3 F17 1.924967 1_555
Cr3 F4 1.937714 1_555
Cr3 F20 1.948331 1_565
Cr3 F12 1.955055 1_555
Cr3 F3 1.961957 1_565
Cr3 F9 1.968942 1_555
F0 Sr3 2.531129 1_544
F0 Sr1 2.616679 1_455
F1 Sr2 2.531129 1_565
F1 Sr0 2.616679 1_555
F2 Sr1 2.531129 1_566
F2 Sr3 2.616679 1_655
F3 Sr0 2.531129 1_545
F3 Sr2 2.616679 1_555
F4 Sr1 2.462773 1_556
F4 Na3 2.580665 1_555
F4 Na1 2.872678 1_556
F5 Sr0 2.462773 1_555
F5 Na2 2.580665 1_455
F5 Na0 2.872678 1_555
F6 Sr3 2.462773 1_554
F6 Na1 2.580665 1_555
F6 Na3 2.872678 1_554
F7 Sr2 2.462773 1_555
F7 Na0 2.580665 1_655
F7 Na2 2.872678 1_555
F8 Na2 2.315771 1_555
F8 Sr2 2.576675 1_555
F8 Na0 2.600938 1_655
F9 Na3 2.315771 1_555
F9 Sr3 2.576675 1_555
F9 Na1 2.600938 1_556
F10 Na0 2.315771 1_555
F10 Sr0 2.576675 1_555
F10 Na2 2.600938 1_455
F11 Na1 2.315771 1_555
F11 Sr1 2.576675 1_555
F11 Na3 2.600938 1_554
F12 Sr2 2.560738 1_555
F12 Sr0 2.669962 1_555
F13 Sr3 2.560738 1_555
F13 Sr1 2.669962 1_456
F14 Sr0 2.560738 1_555
F14 Sr2 2.669962 1_555
F15 Sr1 2.560738 1_555
F15 Sr3 2.669962 1_654
F16 Na3 2.202762 1_555
F16 Sr3 2.525923 1_545
F17 Na2 2.202762 1_555
F17 Sr2 2.525923 1_565
F18 Na1 2.202762 1_555
F18 Sr1 2.525923 1_565
F19 Na0 2.202762 1_555
F19 Sr0 2.525923 1_545
F20 Na3 2.261056 1_555
F20 Sr1 2.587325 1_556
F20 Na1 2.645070 1_546
F21 Na2 2.261056 1_455
F21 Sr0 2.587325 1_555
F21 Na0 2.645070 1_565
F22 Na1 2.261056 1_555
F22 Sr3 2.587325 1_554
F22 Na3 2.645070 1_564
F23 Na0 2.261056 1_655
F23 Sr2 2.587325 1_555
F23 Na2 2.645070 1_545
