# generated using pymatgen
data_Zn(BrN)2
_symmetry_space_group_name_H-M   'P 1'
_cell_length_a   7.10416422
_cell_length_b   7.10416422
_cell_length_c   7.10416422
_cell_angle_alpha   112.96931832
_cell_angle_beta   108.21134028
_cell_angle_gamma   107.29184141
_symmetry_Int_Tables_number   1
_chemical_formula_structural   Zn(BrN)2
_chemical_formula_sum   'Zn2 Br4 N4'
_cell_volume   275.21180490
_cell_formula_units_Z   2
loop_
 _symmetry_equiv_pos_site_id
 _symmetry_equiv_pos_as_xyz
  1  'x, y, z'
loop_
 _atom_site_type_symbol
 _atom_site_label
 _atom_site_symmetry_multiplicity
 _atom_site_fract_x
 _atom_site_fract_y
 _atom_site_fract_z
 _atom_site_occupancy
  Zn  Zn0  1  0.75000000  0.11771800  0.36771800  1
  Zn  Zn1  1  0.25000000  0.88228200  0.63228200  1
  Br  Br0  1  0.49845400  0.74240900  0.24395500  1
  Br  Br1  1  0.50154600  0.25759100  0.75604500  1
  Br  Br2  1  0.99845400  0.75449900  0.75604500  1
  Br  Br3  1  0.00154600  0.24550100  0.24395500  1
  N  N0  1  0.54068100  0.26631200  0.30699300  1
  N  N1  1  0.04068100  0.73368800  0.27436900  1
  N  N2  1  0.45931900  0.73368800  0.69300700  1
  N  N3  1  0.95931900  0.26631200  0.72563100  1
loop_
_geom_bond_atom_site_label_1
_geom_bond_atom_site_label_2
_geom_bond_distance
_geom_bond_site_symmetry_2
Br0 Zn0 2.330499 1_565
Br1 Zn1 2.330499 1_545
Br2 Zn1 2.330499 1_655
Br3 Zn0 2.330499 1_455
N0 Zn0 2.097475 1_555
N1 Zn1 2.097475 1_555
N2 Zn1 2.097475 1_555
N3 Zn0 2.097475 1_555
