# generated using pymatgen
data_MgU2(SiO9)2
_symmetry_space_group_name_H-M   'P 1'
_cell_length_a   6.94475114
_cell_length_b   7.14851800
_cell_length_c   8.72499896
_cell_angle_alpha   114.18330503
_cell_angle_beta   111.51598328
_cell_angle_gamma   90.00000000
_symmetry_Int_Tables_number   1
_chemical_formula_structural   MgU2(SiO9)2
_chemical_formula_sum   'Mg1 U2 Si2 O18'
_cell_volume   361.79480720
_cell_formula_units_Z   1
loop_
 _symmetry_equiv_pos_site_id
 _symmetry_equiv_pos_as_xyz
  1  'x, y, z'
loop_
 _atom_site_type_symbol
 _atom_site_label
 _atom_site_symmetry_multiplicity
 _atom_site_fract_x
 _atom_site_fract_y
 _atom_site_fract_z
 _atom_site_occupancy
  Mg  Mg0  1  0.00000000  0.00000000  0.00000000  1
  U  U0  1  0.64046700  0.75345300  0.50690500  1
  U  U1  1  0.35953300  0.24654700  0.49309500  1
  Si  Si0  1  0.83541600  0.26382600  0.52765200  1
  Si  Si1  1  0.16458400  0.73617400  0.47234800  1
  O  O0  1  0.97376500  0.59662400  0.19324900  1
  O  O1  1  0.02623500  0.40337600  0.80675100  1
  O  O2  1  0.73944900  0.88036500  0.76073000  1
  O  O3  1  0.26055100  0.11963500  0.23927000  1
  O  O4  1  0.69027900  0.43583700  0.51770100  1
  O  O5  1  0.30972100  0.56416300  0.48229900  1
  O  O6  1  0.30972100  0.91813600  0.48229900  1
  O  O7  1  0.69027900  0.08186400  0.51770100  1
  O  O8  1  0.97106300  0.76441800  0.52883700  1
  O  O9  1  0.02893700  0.23558200  0.47116300  1
  O  O10  1  0.20560400  0.93408900  0.86817800  1
  O  O11  1  0.79439600  0.06591100  0.13182200  1
  O  O12  1  0.54227100  0.63081300  0.26162600  1
  O  O13  1  0.45772900  0.36918700  0.73837400  1
  O  O14  1  0.90408200  0.71178200  0.10290900  1
  O  O15  1  0.09591800  0.28821800  0.89709100  1
  O  O16  1  0.09591800  0.60887300  0.89709100  1
  O  O17  1  0.90408200  0.39112700  0.10290900  1
loop_
_geom_bond_atom_site_label_1
_geom_bond_atom_site_label_2
_geom_bond_distance
_geom_bond_site_symmetry_2
Mg0 O3 2.032264 1_555
Mg0 O2 2.032264 1_444
Mg0 O10 2.084294 1_544
Mg0 O11 2.084294 1_455
Mg0 O15 2.729337 1_554
Mg0 O16 2.729337 1_544
Mg0 O17 2.729337 1_455
Mg0 O14 2.729337 1_445
O0 O17 1.336024 1_555
O0 O14 1.336030 1_555
O0 Si1 2.079372 1_655
O1 O16 1.336024 1_555
O1 O15 1.336030 1_555
O1 Si0 2.079372 1_455
O2 U0 1.854004 1_555
O3 U1 1.854004 1_555
O4 Si0 1.599604 1_555
O4 U0 2.331300 1_555
O4 U1 2.559947 1_555
O5 Si1 1.599604 1_555
O5 U1 2.331300 1_555
O5 U0 2.559947 1_555
O6 Si1 1.599604 1_555
O6 U1 2.331293 1_565
O6 U0 2.559943 1_555
O7 Si0 1.599604 1_555
O7 U0 2.331293 1_545
O7 U1 2.559943 1_555
O8 Si1 1.579318 1_655
O8 U0 2.231456 1_555
O9 Si0 1.579318 1_455
O9 U1 2.231456 1_555
O12 U0 1.790478 1_555
O13 U1 1.790478 1_555
