# generated using pymatgen
data_PrCr2O2
_symmetry_space_group_name_H-M   'P 1'
_cell_length_a   11.70430257
_cell_length_b   11.70430257
_cell_length_c   11.70430257
_cell_angle_alpha   91.76832436
_cell_angle_beta   91.76832436
_cell_angle_gamma   159.76528448
_symmetry_Int_Tables_number   1
_chemical_formula_structural   PrCr2O2
_chemical_formula_sum   'Pr4 Cr8 O8'
_cell_volume   545.93272034
_cell_formula_units_Z   4
loop_
 _symmetry_equiv_pos_site_id
 _symmetry_equiv_pos_as_xyz
  1  'x, y, z'
loop_
 _atom_site_type_symbol
 _atom_site_label
 _atom_site_symmetry_multiplicity
 _atom_site_fract_x
 _atom_site_fract_y
 _atom_site_fract_z
 _atom_site_occupancy
  Pr  Pr0  1  0.87500000  0.12500000  0.25000000  1
  Pr  Pr1  1  0.87500000  0.62500000  0.75000000  1
  Pr  Pr2  1  0.37500000  0.12500000  0.25000000  1
  Pr  Pr3  1  0.87500000  0.12500000  0.75000000  1
  Cr  Cr0  1  0.47804600  0.07702100  0.59897500  1
  Cr  Cr1  1  0.47804600  0.87907100  0.40102500  1
  Cr  Cr2  1  0.62907100  0.72804600  0.90102500  1
  Cr  Cr3  1  0.27195400  0.37092900  0.09897500  1
  Cr  Cr4  1  0.27195400  0.17297900  0.90102500  1
  Cr  Cr5  1  0.82702100  0.72804600  0.09897500  1
  Cr  Cr6  1  0.12092900  0.52195400  0.59897500  1
  Cr  Cr7  1  0.92297900  0.52195400  0.40102500  1
  O  O0  1  0.76903400  0.66345300  0.89441800  1
  O  O1  1  0.76903400  0.87461600  0.10558200  1
  O  O2  1  0.62461600  0.01903400  0.60558200  1
  O  O3  1  0.98096600  0.37538400  0.39441800  1
  O  O4  1  0.98096600  0.58654700  0.60558200  1
  O  O5  1  0.41345300  0.01903400  0.39441800  1
  O  O6  1  0.12538400  0.23096600  0.89441800  1
  O  O7  1  0.33654700  0.23096600  0.10558200  1
loop_
_geom_bond_atom_site_label_1
_geom_bond_atom_site_label_2
_geom_bond_distance
_geom_bond_site_symmetry_2
Cr0 O4 2.046864 1_445
Cr0 O4 2.070841 1_555
Cr0 O5 2.364212 1_555
Cr0 O2 2.364212 1_555
Cr1 O3 2.046862 1_455
Cr1 O3 2.070844 1_565
Cr1 O5 2.364201 1_565
Cr1 O2 2.364212 1_565
Cr2 O6 2.046862 1_555
Cr2 O6 2.070844 1_665
Cr2 O0 2.364201 1_555
Cr2 O1 2.364212 1_556
Cr3 O1 2.046862 1_555
Cr3 O1 2.070844 1_445
Cr3 O7 2.364201 1_555
Cr3 O6 2.364212 1_554
Cr4 O0 2.046864 1_555
Cr4 O0 2.070841 1_445
Cr4 O7 2.364212 1_556
Cr4 O6 2.364212 1_555
Cr5 O7 2.046864 1_555
Cr5 O7 2.070841 1_665
Cr5 O0 2.364212 1_554
Cr5 O1 2.364212 1_555
Cr6 O2 2.046862 1_565
Cr6 O2 2.070844 1_455
Cr6 O4 2.364201 1_455
Cr6 O3 2.364212 1_455
Cr7 O5 2.046864 1_665
Cr7 O5 2.070841 1_555
Cr7 O4 2.364212 1_555
Cr7 O3 2.364212 1_555
O0 Pr1 2.393299 1_555
O1 Pr0 2.393292 1_565
O2 Pr3 2.393292 1_555
O3 Pr0 2.393292 1_555
O4 Pr1 2.393299 1_555
O5 Pr2 2.393299 1_555
O6 Pr3 2.393292 1_455
O7 Pr2 2.393299 1_555
