# generated using pymatgen
data_CsH2CN5
_symmetry_space_group_name_H-M   'P 1'
_cell_length_a   6.90210300
_cell_length_b   8.50640900
_cell_length_c   9.17157400
_cell_angle_alpha   90.00000000
_cell_angle_beta   90.00000000
_cell_angle_gamma   90.00000000
_symmetry_Int_Tables_number   1
_chemical_formula_structural   CsH2CN5
_chemical_formula_sum   'Cs4 H8 C4 N20'
_cell_volume   538.48247145
_cell_formula_units_Z   4
loop_
 _symmetry_equiv_pos_site_id
 _symmetry_equiv_pos_as_xyz
  1  'x, y, z'
loop_
 _atom_site_type_symbol
 _atom_site_label
 _atom_site_symmetry_multiplicity
 _atom_site_fract_x
 _atom_site_fract_y
 _atom_site_fract_z
 _atom_site_occupancy
  Cs  Cs0  1  0.25000000  0.51564700  0.20320700  1
  Cs  Cs1  1  0.75000000  0.48435300  0.79679300  1
  Cs  Cs2  1  0.75000000  0.98435300  0.70320700  1
  Cs  Cs3  1  0.25000000  0.01564700  0.29679300  1
  H  H0  1  0.12560300  0.79963500  0.92432700  1
  H  H1  1  0.87439700  0.20036500  0.07567300  1
  H  H2  1  0.87439700  0.70036500  0.42432700  1
  H  H3  1  0.62560300  0.20036500  0.07567300  1
  H  H4  1  0.12560300  0.29963500  0.57567300  1
  H  H5  1  0.37439700  0.79963500  0.92432700  1
  H  H6  1  0.37439700  0.29963500  0.57567300  1
  H  H7  1  0.62560300  0.70036500  0.42432700  1
  C  C0  1  0.25000000  0.72468000  0.73696400  1
  C  C1  1  0.75000000  0.27532000  0.26303600  1
  C  C2  1  0.75000000  0.77532000  0.23696400  1
  C  C3  1  0.25000000  0.22468000  0.76303600  1
  N  N0  1  0.25000000  0.74842200  0.88617200  1
  N  N1  1  0.75000000  0.25157800  0.11382800  1
  N  N2  1  0.75000000  0.75157800  0.38617200  1
  N  N3  1  0.25000000  0.24842200  0.61382800  1
  N  N4  1  0.15475300  0.68393900  0.51830400  1
  N  N5  1  0.84524700  0.31606100  0.48169600  1
  N  N6  1  0.84524700  0.81606100  0.01830400  1
  N  N7  1  0.65475300  0.31606100  0.48169600  1
  N  N8  1  0.15475300  0.18393900  0.98169600  1
  N  N9  1  0.34524700  0.68393900  0.51830400  1
  N  N10  1  0.34524700  0.18393900  0.98169600  1
  N  N11  1  0.65475300  0.81606100  0.01830400  1
  N  N12  1  0.08812600  0.70849900  0.65562400  1
  N  N13  1  0.91187400  0.29150100  0.34437600  1
  N  N14  1  0.91187400  0.79150100  0.15562400  1
  N  N15  1  0.58812600  0.29150100  0.34437600  1
  N  N16  1  0.08812600  0.20849900  0.84437600  1
  N  N17  1  0.41187400  0.70849900  0.65562400  1
  N  N18  1  0.41187400  0.20849900  0.84437600  1
  N  N19  1  0.58812600  0.79150100  0.15562400  1
loop_
_geom_bond_atom_site_label_1
_geom_bond_atom_site_label_2
_geom_bond_distance
_geom_bond_site_symmetry_2
Cs0 N13 3.279986 1_455
Cs0 N15 3.279986 1_555
Cs0 N4 3.291394 1_555
Cs0 N9 3.291394 1_555
Cs0 N14 3.338139 1_455
Cs0 N19 3.338139 1_555
Cs0 N0 3.517882 1_554
Cs0 N10 3.538541 1_554
Cs0 N8 3.538541 1_554
Cs1 N12 3.279986 1_655
Cs1 N17 3.279986 1_555
Cs1 N5 3.291394 1_555
Cs1 N7 3.291394 1_555
Cs1 N16 3.338139 1_655
Cs1 N18 3.338139 1_555
Cs1 N1 3.517882 1_556
Cs1 N6 3.538541 1_556
Cs1 N11 3.538541 1_556
Cs2 N16 3.279986 1_665
Cs2 N18 3.279986 1_565
Cs2 N6 3.291394 1_556
Cs2 N11 3.291394 1_556
Cs2 N12 3.338139 1_655
Cs2 N17 3.338139 1_555
Cs2 N2 3.517882 1_555
Cs2 N5 3.538541 1_565
Cs2 N7 3.538541 1_565
Cs3 N19 3.279986 1_545
Cs3 N14 3.279986 1_445
Cs3 N8 3.291394 1_554
Cs3 N10 3.291394 1_554
Cs3 N15 3.338139 1_555
Cs3 N13 3.338139 1_455
Cs3 N3 3.517882 1_555
Cs3 N4 3.538541 1_545
Cs3 N9 3.538541 1_545
H0 N0 1.024420 1_555
H1 N1 1.024420 1_555
H2 N2 1.024420 1_555
H3 N1 1.024420 1_555
H4 N3 1.024420 1_555
H5 N0 1.024420 1_555
H6 N3 1.024420 1_555
H7 N2 1.024420 1_555
C0 N17 1.350474 1_555
C0 N12 1.350474 1_555
C0 N0 1.383295 1_555
C1 N15 1.350474 1_555
C1 N13 1.350474 1_555
C1 N1 1.383295 1_555
C2 N19 1.350474 1_555
C2 N14 1.350474 1_555
C2 N2 1.383295 1_555
C3 N16 1.350474 1_555
C3 N18 1.350474 1_555
C3 N3 1.383295 1_555
N4 N9 1.314809 1_555
N5 N7 1.314809 1_555
N10 N8 1.314809 1_555
N10 N18 1.356950 1_555
N11 N6 1.314809 1_555
N11 N19 1.356950 1_555
N12 N4 1.356950 1_555
N13 N5 1.356950 1_555
N14 N6 1.356950 1_555
N15 N7 1.356950 1_555
N16 N8 1.356950 1_555
N17 N9 1.356950 1_555
