# generated using pymatgen
data_BaTiAlCuO5
_symmetry_space_group_name_H-M   'P 1'
_cell_length_a   3.83464800
_cell_length_b   3.83464800
_cell_length_c   7.74417900
_cell_angle_alpha   90.00000000
_cell_angle_beta   90.00000000
_cell_angle_gamma   90.00000000
_symmetry_Int_Tables_number   1
_chemical_formula_structural   BaTiAlCuO5
_chemical_formula_sum   'Ba1 Ti1 Al1 Cu1 O5'
_cell_volume   113.87447591
_cell_formula_units_Z   1
loop_
 _symmetry_equiv_pos_site_id
 _symmetry_equiv_pos_as_xyz
  1  'x, y, z'
loop_
 _atom_site_type_symbol
 _atom_site_label
 _atom_site_symmetry_multiplicity
 _atom_site_fract_x
 _atom_site_fract_y
 _atom_site_fract_z
 _atom_site_occupancy
  Ba  Ba0  1  0.00000000  0.00000000  0.00558200  1
  Ti  Ti0  1  0.50000000  0.50000000  0.68466500  1
  Al  Al0  1  0.00000000  0.00000000  0.43662000  1
  Cu  Cu0  1  0.50000000  0.50000000  0.27391700  1
  O  O0  1  0.00000000  0.50000000  0.63030200  1
  O  O1  1  0.50000000  0.00000000  0.63030200  1
  O  O2  1  0.00000000  0.50000000  0.30250300  1
  O  O3  1  0.50000000  0.00000000  0.30250300  1
  O  O4  1  0.50000000  0.50000000  0.92152300  1
loop_
_geom_bond_atom_site_label_1
_geom_bond_atom_site_label_2
_geom_bond_distance
_geom_bond_site_symmetry_2
Ba0 O4 2.788552 1_554
Ba0 O4 2.788552 1_454
Ba0 O4 2.788552 1_544
Ba0 O4 2.788552 1_444
Ba0 O2 2.993896 1_545
Ba0 O2 2.993896 1_555
Ba0 O3 2.993896 1_455
Ba0 O3 2.993896 1_555
Al0 O2 2.180568 1_545
Al0 O2 2.180568 1_555
Al0 O3 2.180568 1_555
Al0 O3 2.180568 1_455
Al0 O1 2.434308 1_555
Al0 O1 2.434308 1_455
Al0 O0 2.434308 1_545
Al0 O0 2.434308 1_555
Cu0 O2 1.930062 1_655
Cu0 O3 1.930062 1_565
Cu0 O3 1.930062 1_555
Cu0 O2 1.930062 1_555
O0 Ti0 1.963000 1_555
O0 Ti0 1.963000 1_455
O1 Ti0 1.963000 1_555
O1 Ti0 1.963000 1_545
O4 Ti0 1.834271 1_555
