# generated using pymatgen
data_Ce3NbSb5
_symmetry_space_group_name_H-M   'P 1'
_cell_length_a   9.47052738
_cell_length_b   9.46743564
_cell_length_c   6.27846642
_cell_angle_alpha   90.00000000
_cell_angle_beta   90.00000000
_cell_angle_gamma   120.00450683
_symmetry_Int_Tables_number   1
_chemical_formula_structural   Ce3NbSb5
_chemical_formula_sum   'Ce6 Nb2 Sb10'
_cell_volume   487.49594570
_cell_formula_units_Z   2
loop_
 _symmetry_equiv_pos_site_id
 _symmetry_equiv_pos_as_xyz
  1  'x, y, z'
loop_
 _atom_site_type_symbol
 _atom_site_label
 _atom_site_symmetry_multiplicity
 _atom_site_fract_x
 _atom_site_fract_y
 _atom_site_fract_z
 _atom_site_occupancy
  Ce  Ce0  1  0.61646869  0.00000302  0.25000000  1
  Ce  Ce1  1  0.38355688  0.99999908  0.75000000  1
  Ce  Ce2  1  0.00003027  0.61677377  0.25000000  1
  Ce  Ce3  1  -0.00000954  0.38322738  0.75000000  1
  Ce  Ce4  1  0.38321135  0.38323803  0.25000000  1
  Ce  Ce5  1  0.61679362  0.61674943  0.75000000  1
  Nb  Nb0  1  0.99997950  0.99998431  -0.00000934  1
  Nb  Nb1  1  0.99997950  0.99998431  0.50000934  1
  Sb  Sb0  1  0.25697617  0.00001757  0.25000000  1
  Sb  Sb1  1  0.74299119  0.99998105  0.75000000  1
  Sb  Sb2  1  -0.00000536  0.25705210  0.25000000  1
  Sb  Sb3  1  0.00000306  0.74293584  0.75000000  1
  Sb  Sb4  1  0.74300999  0.74294949  0.25000000  1
  Sb  Sb5  1  0.25696936  0.25703845  0.75000000  1
  Sb  Sb6  1  0.33323619  0.66648423  -0.00000172  1
  Sb  Sb7  1  0.66678597  0.33354886  0.00000174  1
  Sb  Sb8  1  0.66678597  0.33354886  0.49999826  1
  Sb  Sb9  1  0.33323619  0.66648423  0.50000172  1
loop_
_geom_bond_atom_site_label_1
_geom_bond_atom_site_label_2
_geom_bond_distance
_geom_bond_site_symmetry_2
Ce0 Sb2 3.205420 1_655
Ce0 Sb4 3.205571 1_545
Ce0 Sb7 3.340298 1_555
Ce0 Sb8 3.340298 1_555
Ce0 Sb6 3.340379 1_545
Ce0 Sb9 3.340379 1_545
Ce0 Sb1 3.360179 1_544
Ce0 Sb1 3.360179 1_545
Ce0 Sb0 3.404653 1_555
Ce1 Sb3 3.205645 1_555
Ce1 Sb5 3.205774 1_565
Ce1 Sb6 3.340031 1_556
Ce1 Sb9 3.340031 1_555
Ce1 Sb8 3.340528 1_565
Ce1 Sb7 3.340528 1_566
Ce1 Sb0 3.360369 1_565
Ce1 Sb0 3.360369 1_566
Ce1 Sb1 3.404118 1_555
Ce2 Sb0 3.202480 1_565
Ce2 Sb4 3.203124 1_455
Ce2 Sb7 3.339203 1_455
Ce2 Sb8 3.339203 1_455
Ce2 Sb9 3.340347 1_555
Ce2 Sb6 3.340347 1_555
Ce2 Sb3 3.358833 1_554
Ce2 Sb3 3.358833 1_555
Ce2 Sb2 3.405473 1_555
Ce3 Sb1 3.202596 1_445
Ce3 Sb5 3.202847 1_555
Ce3 Sb6 3.339311 1_556
Ce3 Sb9 3.339311 1_555
Ce3 Sb7 3.340436 1_456
Ce3 Sb8 3.340436 1_455
Ce3 Sb2 3.358839 1_556
Ce3 Sb2 3.358839 1_555
Ce3 Sb3 3.405457 1_555
Ce4 Sb0 3.202252 1_555
Ce4 Sb2 3.203506 1_555
Ce4 Sb9 3.338885 1_555
Ce4 Sb6 3.338885 1_555
Ce4 Sb7 3.340805 1_555
Ce4 Sb8 3.340805 1_555
Ce4 Sb5 3.359025 1_555
Ce4 Sb5 3.359025 1_554
Ce4 Sb4 3.406282 1_555
Ce5 Sb1 3.202421 1_555
Ce5 Sb3 3.203440 1_655
Ce5 Sb8 3.338596 1_555
Ce5 Sb7 3.338596 1_556
Ce5 Sb6 3.340897 1_556
Ce5 Sb9 3.340897 1_555
Ce5 Sb4 3.358983 1_555
Ce5 Sb4 3.358983 1_556
Ce5 Sb5 3.406401 1_555
Nb0 Sb4 2.895727 1_555
Nb0 Sb5 2.895821 1_664
Nb0 Sb3 2.895931 1_654
Nb0 Sb2 2.895994 1_665
Nb0 Sb1 2.896013 1_554
Nb0 Sb0 2.896024 1_665
Nb1 Sb4 2.895727 1_555
Nb1 Sb5 2.895821 1_665
Nb1 Sb3 2.895931 1_655
Nb1 Sb2 2.895994 1_665
Nb1 Sb1 2.896013 1_555
Nb1 Sb0 2.896024 1_665
Sb6 Sb9 3.139212 1_554
Sb6 Sb9 3.139255 1_555
Sb7 Sb8 3.139211 1_555
Sb7 Sb8 3.139255 1_554
