# generated using pymatgen
data_Li4TiCo5O12
_symmetry_space_group_name_H-M   'P 1'
_cell_length_a   4.96007702
_cell_length_b   10.81193710
_cell_length_c   8.53754573
_cell_angle_alpha   113.24798450
_cell_angle_beta   90.02200205
_cell_angle_gamma   85.43653006
_symmetry_Int_Tables_number   1
_chemical_formula_structural   Li4TiCo5O12
_chemical_formula_sum   'Li8 Ti2 Co10 O24'
_cell_volume   419.10239867
_cell_formula_units_Z   2
loop_
 _symmetry_equiv_pos_site_id
 _symmetry_equiv_pos_as_xyz
  1  'x, y, z'
loop_
 _atom_site_type_symbol
 _atom_site_label
 _atom_site_symmetry_multiplicity
 _atom_site_fract_x
 _atom_site_fract_y
 _atom_site_fract_z
 _atom_site_occupancy
  Li  Li0  1  0.03986500  0.74539100  0.20130800  1
  Li  Li1  1  0.53216800  0.74674600  0.70552200  1
  Li  Li2  1  0.46062400  0.25480800  0.95611400  1
  Li  Li3  1  0.96781500  0.25327600  0.45867100  1
  Li  Li4  1  0.53217300  0.74672400  0.04135000  1
  Li  Li5  1  0.03938600  0.74518400  0.54386000  1
  Li  Li6  1  0.96781600  0.25324900  0.79446600  1
  Li  Li7  1  0.46018400  0.25461200  0.29872300  1
  Ti  Ti0  1  0.99688500  0.00098700  0.00047100  1
  Ti  Ti1  1  0.50311200  0.99901300  0.49952600  1
  Co  Co0  1  0.75002700  0.49999100  0.74999500  1
  Co  Co1  1  0.24996800  0.49998000  0.24999300  1
  Co  Co2  1  0.25025200  0.50003600  0.91454700  1
  Co  Co3  1  0.74959000  0.49993900  0.41585700  1
  Co  Co4  1  0.75041900  0.50010200  0.08414500  1
  Co  Co5  1  0.24980600  0.49995900  0.58544500  1
  Co  Co6  1  0.00039900  0.99990100  0.66640300  1
  Co  Co7  1  0.49959900  0.00007500  0.16650400  1
  Co  Co8  1  0.49959400  0.00009900  0.83359600  1
  Co  Co9  1  0.00039500  0.99992000  0.33349100  1
  O  O0  1  0.40350700  0.60132100  0.80064600  1
  O  O1  1  0.90993500  0.59877200  0.29965900  1
  O  O2  1  0.58996700  0.40130000  0.20038000  1
  O  O3  1  0.09652900  0.39866800  0.69935900  1
  O  O4  1  0.82420900  0.10661200  0.55325500  1
  O  O5  1  0.32287300  0.10583400  0.05288800  1
  O  O6  1  0.17712200  0.89416800  0.44711300  1
  O  O7  1  0.67578700  0.89338700  0.94674200  1
  O  O8  1  0.31068700  0.10527400  0.72314500  1
  O  O9  1  0.80877100  0.10706300  0.22512000  1
  O  O10  1  0.18927500  0.89471300  0.11794000  1
  O  O11  1  0.69119000  0.89293700  0.61814400  1
  O  O12  1  0.80880000  0.10706700  0.88185800  1
  O  O13  1  0.31071900  0.10528400  0.38205600  1
  O  O14  1  0.69122100  0.89293400  0.27487700  1
  O  O15  1  0.18930500  0.89472700  0.77685400  1
  O  O16  1  0.12533800  0.38860000  0.01055400  1
  O  O17  1  0.59951000  0.40009500  0.53121700  1
  O  O18  1  0.60001600  0.40000800  0.86858500  1
  O  O19  1  0.12544000  0.38847900  0.37778200  1
  O  O20  1  0.37455500  0.61150600  0.12223800  1
  O  O21  1  0.90003000  0.59996900  0.63136500  1
  O  O22  1  0.90055800  0.59988300  0.96878900  1
  O  O23  1  0.37458300  0.61140900  0.48944500  1
loop_
_geom_bond_atom_site_label_1
_geom_bond_atom_site_label_2
_geom_bond_distance
_geom_bond_site_symmetry_2
Li0 O20 2.038154 1_555
Li0 O22 2.144706 1_454
Li0 O14 2.168093 1_455
Li0 O10 2.181791 1_555
Li0 O1 2.201620 1_455
Li0 O6 2.227847 1_555
Li1 O23 2.050654 1_555
Li1 O15 2.149771 1_555
Li1 O0 2.169589 1_555
Li1 O11 2.192405 1_555
Li1 O7 2.205317 1_555
Li1 O21 2.235051 1_555
Li2 O16 2.039922 1_556
Li2 O18 2.144820 1_555
Li2 O12 2.167578 1_555
Li2 O8 2.185105 1_555
Li2 O2 2.195998 1_556
Li2 O5 2.229330 1_556
Li3 O19 2.050432 1_655
Li3 O13 2.150001 1_655
Li3 O3 2.170234 1_655
Li3 O9 2.192284 1_555
Li3 O4 2.205672 1_555
Li3 O17 2.236961 1_555
Li4 O20 2.050554 1_555
Li4 O10 2.149959 1_555
Li4 O0 2.170286 1_554
Li4 O14 2.192151 1_555
Li4 O7 2.205811 1_554
Li4 O22 2.237390 1_554
Li5 O23 2.039496 1_555
Li5 O21 2.144767 1_455
Li5 O11 2.167724 1_455
Li5 O15 2.185241 1_555
Li5 O1 2.195496 1_455
Li5 O6 2.229249 1_555
Li6 O16 2.050634 1_656
Li6 O8 2.149764 1_655
Li6 O3 2.169526 1_655
Li6 O12 2.192381 1_555
Li6 O4 2.205228 1_555
Li6 O18 2.234713 1_555
Li7 O19 2.038252 1_555
Li7 O17 2.144500 1_555
Li7 O9 2.167920 1_555
Li7 O13 2.181773 1_555
Li7 O2 2.201987 1_555
Li7 O5 2.228117 1_555
Co0 O3 1.915191 1_655
Co0 O0 1.915298 1_555
Co0 O18 1.933880 1_555
Co0 O21 1.934074 1_555
Co0 O17 1.935814 1_555
Co0 O22 1.935937 1_555
Co1 O2 1.875962 1_555
Co1 O1 1.876601 1_455
Co1 O19 2.045100 1_555
Co1 O20 2.045202 1_555
Co1 O16 2.045803 1_555
Co1 O23 2.045977 1_555
Co2 O16 1.845577 1_556
Co2 O20 1.845853 1_556
Co2 O0 1.922595 1_555
Co2 O22 1.922599 1_455
Co2 O3 1.923580 1_555
Co2 O18 1.923613 1_555
Co3 O17 1.912391 1_555
Co3 O21 1.915267 1_555
Co3 O1 1.931642 1_555
Co3 O2 1.932089 1_555
Co3 O23 2.086506 1_555
Co3 O19 2.089752 1_655
Co4 O22 1.911949 1_554
Co4 O18 1.915665 1_554
Co4 O2 1.931851 1_555
Co4 O1 1.932150 1_555
Co4 O16 2.086273 1_655
Co4 O20 2.089531 1_555
Co5 O23 1.845401 1_555
Co5 O19 1.845838 1_555
Co5 O17 1.922711 1_555
Co5 O3 1.922776 1_555
Co5 O21 1.923590 1_455
Co5 O0 1.923598 1_555
Co6 O6 1.931988 1_555
Co6 O15 1.933004 1_555
Co6 O8 1.934964 1_565
Co6 O4 1.935662 1_465
Co6 O11 1.940377 1_455
Co6 O12 1.942391 1_465
Co7 O5 1.931898 1_555
Co7 O13 1.933261 1_555
Co7 O10 1.935074 1_545
Co7 O7 1.935683 1_544
Co7 O9 1.940330 1_555
Co7 O14 1.942051 1_545
Co8 O5 1.932000 1_556
Co8 O8 1.933014 1_555
Co8 O15 1.934962 1_545
Co8 O7 1.935663 1_545
Co8 O12 1.940389 1_555
Co8 O11 1.942358 1_545
Co9 O6 1.931881 1_555
Co9 O10 1.933251 1_555
Co9 O13 1.935086 1_565
Co9 O4 1.935699 1_465
Co9 O14 1.940326 1_455
Co9 O9 1.942060 1_465
O4 Ti1 1.993338 1_545
O5 Ti0 1.997599 1_455
O6 Ti1 1.997596 1_555
O7 Ti0 1.993348 1_566
O8 Ti1 1.992779 1_545
O9 Ti0 1.989750 1_555
O10 Ti0 1.992782 1_465
O11 Ti1 1.989246 1_555
O12 Ti0 1.989261 1_556
O13 Ti1 1.992771 1_545
O14 Ti1 1.989745 1_555
O15 Ti0 1.992754 1_466
