# generated using pymatgen
data_MgCd3
_symmetry_space_group_name_H-M   'P 1'
_cell_length_a   5.39485956
_cell_length_b   5.39485956
_cell_length_c   5.39485956
_cell_angle_alpha   131.95698472
_cell_angle_beta   131.95698472
_cell_angle_gamma   70.29697333
_symmetry_Int_Tables_number   1
_chemical_formula_structural   MgCd3
_chemical_formula_sum   'Mg1 Cd3'
_cell_volume   85.10071835
_cell_formula_units_Z   1
loop_
 _symmetry_equiv_pos_site_id
 _symmetry_equiv_pos_as_xyz
  1  'x, y, z'
loop_
 _atom_site_type_symbol
 _atom_site_label
 _atom_site_symmetry_multiplicity
 _atom_site_fract_x
 _atom_site_fract_y
 _atom_site_fract_z
 _atom_site_occupancy
  Mg  Mg0  1  0.00000000  0.00000000  0.00000000  1
  Cd  Cd0  1  0.50000000  0.50000000  0.00000000  1
  Cd  Cd1  1  0.25000000  0.75000000  0.50000000  1
  Cd  Cd2  1  0.75000000  0.25000000  0.50000000  1
loop_
_geom_bond_atom_site_label_1
_geom_bond_atom_site_label_2
_geom_bond_distance
_geom_bond_site_symmetry_2
Cd0 Mg0 3.105807 1_554
Cd0 Mg0 3.105807 1_565
Cd0 Mg0 3.105807 1_666
Cd0 Mg0 3.105807 1_655
Cd0 Cd2 3.112497 1_565
Cd0 Cd1 3.112497 1_555
Cd0 Cd1 3.112497 1_554
Cd0 Cd2 3.112497 1_555
Cd0 Cd2 3.112497 1_554
Cd0 Cd1 3.112497 1_544
Cd0 Cd1 3.112497 1_655
Cd0 Cd2 3.112497 1_454
Cd1 Cd2 3.105807 1_566
Cd1 Cd2 3.105807 1_555
Cd1 Cd2 3.105807 1_454
Cd1 Cd2 3.105807 1_465
Cd1 Mg0 3.112497 1_566
Cd1 Mg0 3.112497 1_555
Cd1 Mg0 3.112497 1_565
Cd1 Mg0 3.112497 1_666
Cd2 Mg0 3.112497 1_655
Cd2 Mg0 3.112497 1_666
Cd2 Mg0 3.112497 1_656
Cd2 Mg0 3.112497 1_555
