# generated using pymatgen
data_Te6MoW3Se2
_symmetry_space_group_name_H-M   'P 1'
_cell_length_a   3.49796564
_cell_length_b   3.49796564
_cell_length_c   39.67822300
_cell_angle_alpha   90.00000000
_cell_angle_beta   90.00000000
_cell_angle_gamma   119.99999316
_symmetry_Int_Tables_number   1
_chemical_formula_structural   Te6MoW3Se2
_chemical_formula_sum   'Te6 Mo1 W3 Se2'
_cell_volume   420.44960949
_cell_formula_units_Z   1
loop_
 _symmetry_equiv_pos_site_id
 _symmetry_equiv_pos_as_xyz
  1  'x, y, z'
loop_
 _atom_site_type_symbol
 _atom_site_label
 _atom_site_symmetry_multiplicity
 _atom_site_fract_x
 _atom_site_fract_y
 _atom_site_fract_z
 _atom_site_occupancy
  Te  Te0  1  0.33333300  0.66666700  0.32796300  1
  Te  Te1  1  0.33333300  0.66666700  0.70398500  1
  Te  Te2  1  0.66666700  0.33333300  0.42320900  1
  Te  Te3  1  0.66666700  0.33333300  0.51611200  1
  Te  Te4  1  0.33333300  0.66666700  0.23561600  1
  Te  Te5  1  0.33333300  0.66666700  0.61108000  1
  Mo  Mo0  1  0.66666700  0.33333300  0.28177600  1
  W  W0  1  0.33333300  0.66666700  0.09391500  1
  W  W1  1  0.33333300  0.66666700  0.46965900  1
  W  W2  1  0.66666700  0.33333300  0.65755000  1
  Se  Se0  1  0.66666700  0.33333300  0.05302900  1
  Se  Se1  1  0.66666700  0.33333300  0.13485300  1
loop_
_geom_bond_atom_site_label_1
_geom_bond_atom_site_label_2
_geom_bond_distance
_geom_bond_site_symmetry_2
Te1 W2 2.733721 1_455
Te1 W2 2.733721 1_565
Te1 W2 2.733726 1_555
Te2 W1 2.734123 1_545
Te2 W1 2.734123 1_655
Te2 W1 2.734127 1_555
Te3 W1 2.734203 1_545
Te3 W1 2.734203 1_655
Te3 W1 2.734207 1_555
Te5 W2 2.734658 1_455
Te5 W2 2.734658 1_565
Te5 W2 2.734662 1_555
Mo0 Te4 2.726379 1_545
Mo0 Te4 2.726379 1_655
Mo0 Te4 2.726384 1_555
Mo0 Te0 2.727099 1_545
Mo0 Te0 2.727099 1_655
Mo0 Te0 2.727103 1_555
Se0 W0 2.590441 1_545
Se0 W0 2.590441 1_655
Se0 W0 2.590446 1_555
Se1 W0 2.591734 1_545
Se1 W0 2.591734 1_655
Se1 W0 2.591738 1_555
