# generated using pymatgen
data_CrS2
_symmetry_space_group_name_H-M   'P 1'
_cell_length_a   6.75963112
_cell_length_b   6.75963112
_cell_length_c   6.75963112
_cell_angle_alpha   60.00000000
_cell_angle_beta   60.00000000
_cell_angle_gamma   60.00000000
_symmetry_Int_Tables_number   1
_chemical_formula_structural   CrS2
_chemical_formula_sum   'Cr4 S8'
_cell_volume   218.40068258
_cell_formula_units_Z   4
loop_
 _symmetry_equiv_pos_site_id
 _symmetry_equiv_pos_as_xyz
  1  'x, y, z'
loop_
 _atom_site_type_symbol
 _atom_site_label
 _atom_site_symmetry_multiplicity
 _atom_site_fract_x
 _atom_site_fract_y
 _atom_site_fract_z
 _atom_site_occupancy
  Cr  Cr0  1  0.62500000  0.62500000  0.62500000  1
  Cr  Cr1  1  0.62500000  0.62500000  0.12500000  1
  Cr  Cr2  1  0.62500000  0.12500000  0.62500000  1
  Cr  Cr3  1  0.12500000  0.62500000  0.62500000  1
  S  S0  1  0.87123400  0.87123400  0.38629700  1
  S  S1  1  0.87123400  0.87123400  0.87123400  1
  S  S2  1  0.86370300  0.37876600  0.37876600  1
  S  S3  1  0.37876600  0.37876600  0.86370300  1
  S  S4  1  0.37876600  0.37876600  0.37876600  1
  S  S5  1  0.38629700  0.87123400  0.87123400  1
  S  S6  1  0.87123400  0.38629700  0.87123400  1
  S  S7  1  0.37876600  0.86370300  0.37876600  1
loop_
_geom_bond_atom_site_label_1
_geom_bond_atom_site_label_2
_geom_bond_distance
_geom_bond_site_symmetry_2
Cr0 S5 2.354440 1_555
Cr0 S6 2.354440 1_555
Cr0 S0 2.354440 1_555
Cr0 S7 2.354440 1_555
Cr0 S2 2.354440 1_555
Cr0 S3 2.354440 1_555
Cr1 S1 2.354440 1_554
Cr1 S4 2.354440 1_555
Cr1 S5 2.354444 1_554
Cr1 S2 2.354444 1_555
Cr1 S6 2.354444 1_554
Cr1 S7 2.354444 1_555
Cr2 S1 2.354440 1_545
Cr2 S4 2.354440 1_555
Cr2 S0 2.354444 1_545
Cr2 S2 2.354444 1_555
Cr2 S3 2.354444 1_555
Cr2 S5 2.354444 1_545
Cr3 S1 2.354440 1_455
Cr3 S4 2.354440 1_555
Cr3 S6 2.354444 1_455
Cr3 S0 2.354444 1_455
Cr3 S3 2.354444 1_555
Cr3 S7 2.354444 1_555
