# generated using pymatgen
data_Dy2FeGe4
_symmetry_space_group_name_H-M   'P 1'
_cell_length_a   4.16875300
_cell_length_b   4.22134600
_cell_length_c   7.98400429
_cell_angle_alpha   74.67091171
_cell_angle_beta   90.00000000
_cell_angle_gamma   90.00000000
_symmetry_Int_Tables_number   1
_chemical_formula_structural   Dy2FeGe4
_chemical_formula_sum   'Dy2 Fe1 Ge4'
_cell_volume   135.50196186
_cell_formula_units_Z   1
loop_
 _symmetry_equiv_pos_site_id
 _symmetry_equiv_pos_as_xyz
  1  'x, y, z'
loop_
 _atom_site_type_symbol
 _atom_site_label
 _atom_site_symmetry_multiplicity
 _atom_site_fract_x
 _atom_site_fract_y
 _atom_site_fract_z
 _atom_site_occupancy
  Dy  Dy0  1  0.25000000  0.90274900  0.19450200  1
  Dy  Dy1  1  0.75000000  0.10456900  0.79086300  1
  Fe  Fe0  1  0.25000000  0.70075300  0.59849300  1
  Ge  Ge0  1  0.25000000  0.55144600  0.89710900  1
  Ge  Ge1  1  0.75000000  0.44070000  0.11860000  1
  Ge  Ge2  1  0.25000000  0.26069700  0.47860600  1
  Ge  Ge3  1  0.75000000  0.76308600  0.47382800  1
loop_
_geom_bond_atom_site_label_1
_geom_bond_atom_site_label_2
_geom_bond_distance
_geom_bond_site_symmetry_2
Dy0 Ge3 2.995090 1_455
Dy0 Ge3 2.995090 1_555
Dy0 Ge1 3.023432 1_465
Dy0 Ge1 3.023432 1_555
Dy0 Ge1 3.023432 1_565
Dy0 Ge1 3.023432 1_455
Dy0 Ge2 3.039817 1_565
Dy0 Ge2 3.039817 1_555
Dy0 Fe0 3.110715 1_555
Dy0 Ge0 3.114264 1_554
Dy0 Ge0 3.114267 1_564
Dy1 Ge0 3.077148 1_655
Dy1 Ge0 3.077148 1_545
Dy1 Ge0 3.077148 1_645
Dy1 Ge0 3.077148 1_555
Dy1 Ge2 3.182075 1_555
Dy1 Ge2 3.182075 1_655
Dy1 Ge3 3.227101 1_555
Dy1 Ge3 3.227103 1_545
Dy1 Ge1 3.289878 1_556
Dy1 Ge1 3.289880 1_546
Dy1 Fe0 3.315663 1_555
Dy1 Fe0 3.315663 1_655
Dy1 Fe0 3.315669 1_645
Dy1 Fe0 3.315669 1_545
Fe0 Ge3 2.294790 1_455
Fe0 Ge3 2.294790 1_555
Fe0 Ge0 2.299331 1_555
Fe0 Ge2 2.303713 1_555
Fe0 Ge2 2.303716 1_565
Ge0 Ge1 2.693188 1_456
Ge0 Ge1 2.693188 1_556
