# generated using pymatgen
data_Rb2MgCu4H5(SO5)4
_symmetry_space_group_name_H-M   'P 1'
_cell_length_a   11.70985681
_cell_length_b   6.18195034
_cell_length_c   8.36821664
_cell_angle_alpha   90.34318557
_cell_angle_beta   63.54469781
_cell_angle_gamma   58.46553950
_symmetry_Int_Tables_number   1
_chemical_formula_structural   Rb2MgCu4H5(SO5)4
_chemical_formula_sum   'Rb2 Mg1 Cu4 H5 S4 O20'
_cell_volume   438.99217265
_cell_formula_units_Z   1
loop_
 _symmetry_equiv_pos_site_id
 _symmetry_equiv_pos_as_xyz
  1  'x, y, z'
loop_
 _atom_site_type_symbol
 _atom_site_label
 _atom_site_symmetry_multiplicity
 _atom_site_fract_x
 _atom_site_fract_y
 _atom_site_fract_z
 _atom_site_occupancy
  Rb  Rb0  1  0.01868472  0.46629941  0.53617381  1
  Rb  Rb1  1  0.47319637  0.52511583  0.50131970  1
  Mg  Mg0  1  0.94409075  0.55304870  0.19376766  1
  Cu  Cu0  1  0.28015778  0.96933371  0.98821061  1
  Cu  Cu1  1  0.28168438  0.46235145  0.98847506  1
  Cu  Cu2  1  0.73741353  0.01029948  0.99270879  1
  Cu  Cu3  1  0.73562072  0.51813836  0.99759278  1
  H  H0  1  0.18889992  0.30851969  0.83360947  1
  H  H1  1  0.31256145  0.68678391  0.18671019  1
  H  H2  1  0.54091237  0.45886158  0.95911347  1
  H  H3  1  0.71565855  0.28492299  0.76166264  1
  H  H4  1  0.69655258  0.81133064  0.23379033  1
  S  S0  1  0.41487631  0.08792066  0.27172384  1
  S  S1  1  0.06444599  0.93598857  0.74915765  1
  S  S2  1  0.90818731  0.08912835  0.31755173  1
  S  S3  1  0.60543722  0.89230631  0.68657679  1
  O  O0  1  0.01498199  0.18242360  0.23909749  1
  O  O1  1  0.01336892  0.78347278  0.24399378  1
  O  O2  1  0.31340580  0.18702149  0.18994966  1
  O  O3  1  0.32297776  0.18477897  0.47719048  1
  O  O4  1  0.17271433  0.32434070  0.95935690  1
  O  O5  1  0.35760098  0.64102258  0.05057904  1
  O  O6  1  0.15761511  0.85314663  0.54323959  1
  O  O7  1  0.51832954  0.18448571  0.20315479  1
  O  O8  1  0.16482166  0.82628513  0.83034223  1
  O  O9  1  0.50436219  0.19078231  0.73722548  1
  O  O10  1  0.51578479  0.78565987  0.20779726  1
  O  O11  1  0.80135418  0.19323692  0.24641061  1
  O  O12  1  0.50266792  0.79790285  0.73882011  1
  O  O13  1  0.82728678  0.17532407  0.52260088  1
  O  O14  1  0.66240958  0.33820829  0.90224172  1
  O  O15  1  0.79166837  0.71256390  0.10703008  1
  O  O16  1  0.72136899  0.77438864  0.47840823  1
  O  O17  1  0.69137440  0.80732463  0.78756346  1
  O  O18  1  0.96077543  0.23910782  0.82528454  1
  O  O19  1  0.95960931  0.84150645  0.80844414  1
loop_
_geom_bond_atom_site_label_1
_geom_bond_atom_site_label_2
_geom_bond_distance
_geom_bond_site_symmetry_2
Mg0 O15 2.001685 1_555
Mg0 O4 2.083839 1_654
Mg0 O1 2.090280 1_655
Mg0 O0 2.093802 1_655
Mg0 O16 2.245177 1_555
Cu0 O5 1.929560 1_556
Cu0 O4 1.961231 1_565
Cu0 O12 2.123108 1_555
Cu0 O0 2.380064 1_566
Cu0 O2 2.432908 1_566
Cu0 O8 2.678868 1_555
Cu1 O5 1.926711 1_556
Cu1 O4 1.956742 1_555
Cu1 O9 2.128872 1_555
Cu1 O2 2.410107 1_556
Cu1 O1 2.413216 1_556
Cu1 O8 2.667229 1_555
Cu2 O19 1.949965 1_545
Cu2 O7 1.975994 1_556
Cu2 O15 2.011480 1_546
Cu2 O14 2.049926 1_555
Cu2 O17 2.513679 1_545
Cu3 O18 1.957450 1_555
Cu3 O10 1.983262 1_556
Cu3 O15 2.015327 1_556
Cu3 O14 2.050658 1_555
Cu3 O17 2.536459 1_555
H0 O4 0.976965 1_555
H1 O5 0.980132 1_555
H2 O14 1.043742 1_555
H2 O5 1.568097 1_556
H3 O14 1.004067 1_555
H3 O13 1.702115 1_555
H4 O15 0.983233 1_555
O0 S2 1.534598 1_455
O0 Rb0 3.063517 1_555
O1 S2 1.530506 1_465
O1 Rb0 3.145145 1_555
O2 S0 1.491132 1_555
O2 Rb0 2.843210 1_555
O3 S0 1.462168 1_555
O3 Rb0 2.811590 1_555
O6 S1 1.466897 1_555
O6 Rb1 2.981464 1_555
O6 Rb0 3.264341 1_565
O7 S0 1.514716 1_555
O7 Rb1 2.921833 1_555
O8 S1 1.478578 1_555
O8 Rb1 2.852049 1_555
O9 S3 1.498128 1_545
O9 Rb1 2.864244 1_555
O10 S0 1.513008 1_565
O10 Rb1 2.944887 1_555
O11 S2 1.469557 1_555
O11 Rb1 2.814809 1_555
O12 S3 1.499614 1_555
O12 Rb1 2.844750 1_555
O13 S2 1.462312 1_555
O16 S3 1.500483 1_555
O16 Rb0 3.249098 1_655
O17 S3 1.487566 1_555
O17 Rb0 2.805487 1_655
O18 S1 1.519231 1_645
O18 Rb0 2.803713 1_655
O19 S1 1.518285 1_655
O19 Rb0 2.811373 1_655
