# generated using pymatgen
data_BiO2
_symmetry_space_group_name_H-M   'P 1'
_cell_length_a   7.19961431
_cell_length_b   7.19961431
_cell_length_c   15.25134177
_cell_angle_alpha   87.77906003
_cell_angle_beta   87.77906003
_cell_angle_gamma   57.83700483
_symmetry_Int_Tables_number   1
_chemical_formula_structural   BiO2
_chemical_formula_sum   'Bi12 O24'
_cell_volume   668.56937753
_cell_formula_units_Z   12
loop_
 _symmetry_equiv_pos_site_id
 _symmetry_equiv_pos_as_xyz
  1  'x, y, z'
loop_
 _atom_site_type_symbol
 _atom_site_label
 _atom_site_symmetry_multiplicity
 _atom_site_fract_x
 _atom_site_fract_y
 _atom_site_fract_z
 _atom_site_occupancy
  Bi  Bi0  1  0.33877200  0.84199100  0.21179800  1
  Bi  Bi1  1  0.34773000  0.34773000  0.16761900  1
  Bi  Bi2  1  0.00860300  0.49580400  0.47328600  1
  Bi  Bi3  1  0.84199100  0.33877200  0.21179800  1
  Bi  Bi4  1  0.02257700  0.02257700  0.45277400  1
  Bi  Bi5  1  0.82411500  0.82411500  0.64911100  1
  Bi  Bi6  1  0.83872700  0.83872700  0.23477400  1
  Bi  Bi7  1  0.65833500  0.15348100  0.83518000  1
  Bi  Bi8  1  0.49580400  0.00860300  0.47328600  1
  Bi  Bi9  1  0.65878900  0.65878900  0.83069400  1
  Bi  Bi10  1  0.15348100  0.65833500  0.83518000  1
  Bi  Bi11  1  0.15127500  0.15127500  0.96171800  1
  O  O0  1  0.72623500  0.17013400  0.14476100  1
  O  O1  1  0.49605400  0.49605400  0.26174100  1
  O  O2  1  0.67087000  0.67087000  0.15100600  1
  O  O3  1  0.17013400  0.72623500  0.14476100  1
  O  O4  1  0.36500200  0.85866900  0.40652200  1
  O  O5  1  0.46095600  0.03546200  0.25306400  1
  O  O6  1  0.16552900  0.16552900  0.54125100  1
  O  O7  1  0.02335100  0.02335100  0.28836400  1
  O  O8  1  0.14893100  0.14893100  0.12521800  1
  O  O9  1  0.33094200  0.33094200  0.41421600  1
  O  O10  1  0.85866900  0.36500200  0.40652200  1
  O  O11  1  0.03546200  0.46095600  0.25306400  1
  O  O12  1  0.95708100  0.55049600  0.74516300  1
  O  O13  1  0.10135700  0.66136000  0.56046200  1
  O  O14  1  0.69402800  0.69402800  0.55889000  1
  O  O15  1  0.79789300  0.79789300  0.90579500  1
  O  O16  1  0.81563300  0.81563300  0.39548700  1
  O  O17  1  0.95257500  0.95257500  0.73575200  1
  O  O18  1  0.55049600  0.95708100  0.74516300  1
  O  O19  1  0.66136000  0.10135700  0.56046200  1
  O  O20  1  0.83171200  0.33621700  0.89707000  1
  O  O21  1  0.31237000  0.31237000  0.91068700  1
  O  O22  1  0.50668300  0.50668300  0.77108300  1
  O  O23  1  0.33621700  0.83171200  0.89707000  1
loop_
_geom_bond_atom_site_label_1
_geom_bond_atom_site_label_2
_geom_bond_distance
_geom_bond_site_symmetry_2
Bi0 O3 2.110332 1_555
Bi0 O5 2.127333 1_565
Bi0 O2 2.207892 1_555
Bi0 O7 2.231879 1_565
Bi0 O1 2.232209 1_555
Bi0 O8 2.278856 1_565
Bi1 O11 2.306779 1_555
Bi1 O5 2.306779 1_555
Bi1 O3 2.331048 1_555
Bi1 O0 2.331048 1_555
Bi1 O1 2.406876 1_555
Bi1 O8 2.615296 1_555
Bi2 O10 2.081035 1_455
Bi2 O9 2.143442 1_555
Bi2 O13 2.161816 1_555
Bi2 O6 2.246021 1_555
Bi2 O16 2.269427 1_455
Bi2 O14 2.311858 1_455
Bi3 O0 2.110332 1_555
Bi3 O11 2.127333 1_655
Bi3 O2 2.207892 1_555
Bi3 O7 2.231879 1_655
Bi3 O1 2.232209 1_555
Bi3 O8 2.278856 1_655
Bi4 O4 2.190973 1_545
Bi4 O10 2.190973 1_455
Bi4 O6 2.298344 1_555
Bi4 O7 2.507060 1_555
Bi4 O16 2.787156 1_445
Bi4 O19 2.820127 1_455
Bi4 O13 2.820127 1_545
Bi5 O17 2.134698 1_555
Bi5 O19 2.146777 1_565
Bi5 O13 2.146777 1_655
Bi5 O14 2.186633 1_555
Bi5 O12 2.195536 1_555
Bi5 O18 2.195536 1_555
Bi6 O5 2.313383 1_565
Bi6 O11 2.313383 1_655
Bi6 O0 2.451226 1_565
Bi6 O3 2.451226 1_655
Bi6 O16 2.455481 1_555
Bi6 O7 2.500230 1_665
Bi6 O2 2.519409 1_555
Bi7 O17 2.353319 1_545
Bi7 O22 2.355473 1_555
Bi7 O21 2.384346 1_555
Bi7 O15 2.419726 1_545
Bi7 O18 2.426704 1_545
Bi7 O20 2.473043 1_555
Bi8 O4 2.081035 1_545
Bi8 O9 2.143442 1_555
Bi8 O19 2.161816 1_555
Bi8 O6 2.246021 1_555
Bi8 O16 2.269427 1_545
Bi8 O14 2.311858 1_545
Bi9 O15 2.136250 1_555
Bi9 O22 2.157820 1_555
Bi9 O20 2.192137 1_555
Bi9 O23 2.192137 1_555
Bi9 O18 2.236216 1_555
Bi9 O12 2.236216 1_555
Bi10 O17 2.353319 1_455
Bi10 O22 2.355473 1_555
Bi10 O21 2.384346 1_555
Bi10 O15 2.419726 1_455
Bi10 O12 2.426704 1_455
Bi10 O23 2.473043 1_555
Bi11 O21 2.142043 1_555
Bi11 O20 2.202488 1_455
Bi11 O23 2.202488 1_545
Bi11 O8 2.492461 1_556
