# generated using pymatgen
data_Mg(CoS2)4
_symmetry_space_group_name_H-M   'P 1'
_cell_length_a   7.05673081
_cell_length_b   7.05673081
_cell_length_c   7.05673134
_cell_angle_alpha   56.43442730
_cell_angle_beta   56.43442730
_cell_angle_gamma   56.43443042
_symmetry_Int_Tables_number   1
_chemical_formula_structural   Mg(CoS2)4
_chemical_formula_sum   'Mg1 Co4 S8'
_cell_volume   227.99789336
_cell_formula_units_Z   1
loop_
 _symmetry_equiv_pos_site_id
 _symmetry_equiv_pos_as_xyz
  1  'x, y, z'
loop_
 _atom_site_type_symbol
 _atom_site_label
 _atom_site_symmetry_multiplicity
 _atom_site_fract_x
 _atom_site_fract_y
 _atom_site_fract_z
 _atom_site_occupancy
  Mg  Mg0  1  0.50000000  0.50000000  0.50000000  1
  Co  Co0  1  0.00000000  0.50000000  0.50000000  1
  Co  Co1  1  0.50000000  0.00000000  0.50000000  1
  Co  Co2  1  0.50000000  0.50000000  0.00000000  1
  Co  Co3  1  0.00000000  0.00000000  0.00000000  1
  S  S0  1  0.27076800  0.76429600  0.76429600  1
  S  S1  1  0.23570400  0.23570400  0.72923200  1
  S  S2  1  0.72923200  0.23570400  0.23570400  1
  S  S3  1  0.23570400  0.72923200  0.23570400  1
  S  S4  1  0.26629600  0.26629600  0.26629600  1
  S  S5  1  0.73370400  0.73370400  0.73370400  1
  S  S6  1  0.76429600  0.27076800  0.76429600  1
  S  S7  1  0.76429600  0.76429600  0.27076800  1
loop_
_geom_bond_atom_site_label_1
_geom_bond_atom_site_label_2
_geom_bond_distance
_geom_bond_site_symmetry_2
Mg0 S7 2.597660 1_555
Mg0 S1 2.597660 1_555
Mg0 S6 2.597661 1_555
Mg0 S3 2.597661 1_555
Mg0 S2 2.597661 1_555
Mg0 S0 2.597661 1_555
Co0 S3 2.251785 1_555
Co0 S6 2.251785 1_455
Co0 S1 2.251785 1_555
Co0 S7 2.251785 1_455
Co0 S5 2.263752 1_455
Co0 S4 2.263752 1_555
Co1 S0 2.251785 1_545
Co1 S2 2.251785 1_555
Co1 S1 2.251785 1_555
Co1 S7 2.251785 1_545
Co1 S5 2.263752 1_545
Co1 S4 2.263752 1_555
Co2 S0 2.251785 1_554
Co2 S3 2.251785 1_555
Co2 S6 2.251785 1_554
Co2 S2 2.251785 1_555
Co2 S5 2.263752 1_554
Co2 S4 2.263752 1_555
Co3 S1 2.283557 1_554
Co3 S7 2.283557 1_445
Co3 S0 2.283557 1_544
Co3 S3 2.283557 1_545
Co3 S2 2.283557 1_455
Co3 S6 2.283557 1_454
