# generated using pymatgen
data_Rb2ZnBr4
_symmetry_space_group_name_H-M   'P 1'
_cell_length_a   7.63822416
_cell_length_b   9.74048118
_cell_length_c   13.43397976
_cell_angle_alpha   90.00000000
_cell_angle_beta   90.00000000
_cell_angle_gamma   90.00000000
_symmetry_Int_Tables_number   1
_chemical_formula_structural   Rb2ZnBr4
_chemical_formula_sum   'Rb8 Zn4 Br16'
_cell_volume   999.48780772
_cell_formula_units_Z   4
loop_
 _symmetry_equiv_pos_site_id
 _symmetry_equiv_pos_as_xyz
  1  'x, y, z'
loop_
 _atom_site_type_symbol
 _atom_site_label
 _atom_site_symmetry_multiplicity
 _atom_site_fract_x
 _atom_site_fract_y
 _atom_site_fract_z
 _atom_site_occupancy
  Rb  Rb0  1  0.25576838  0.01684033  0.17470461  1
  Rb  Rb1  1  0.75576838  0.98315967  0.82529539  1
  Rb  Rb2  1  0.75576838  0.48315967  0.67470461  1
  Rb  Rb3  1  0.25576838  0.51684033  0.32529539  1
  Rb  Rb4  1  0.25686057  0.37824040  0.91594075  1
  Rb  Rb5  1  0.75686057  0.62175960  0.08405925  1
  Rb  Rb6  1  0.75686057  0.12175960  0.41594075  1
  Rb  Rb7  1  0.25686057  0.87824040  0.58405925  1
  Zn  Zn0  1  0.24918037  0.77676086  0.92222554  1
  Zn  Zn1  1  0.74918037  0.22323914  0.07777446  1
  Zn  Zn2  1  0.74918037  0.72323914  0.42222554  1
  Zn  Zn3  1  0.24918037  0.27676086  0.57777446  1
  Br  Br0  1  0.23618583  0.02195850  0.91521040  1
  Br  Br1  1  0.73618583  0.97804150  0.08478960  1
  Br  Br2  1  0.73618583  0.47804150  0.41521040  1
  Br  Br3  1  0.23618583  0.52195850  0.58478960  1
  Br  Br4  1  0.26597245  0.68303491  0.08893492  1
  Br  Br5  1  0.76597245  0.31696509  0.91106508  1
  Br  Br6  1  0.76597245  0.81696509  0.58893492  1
  Br  Br7  1  0.26597245  0.18303491  0.41106508  1
  Br  Br8  1  0.49660042  0.68721535  0.83355579  1
  Br  Br9  1  -0.00339958  0.31278465  0.16644421  1
  Br  Br10  1  -0.00339958  0.81278465  0.33355579  1
  Br  Br11  1  0.49660042  0.18721535  0.66644421  1
  Br  Br12  1  0.98923298  0.67680456  0.85137751  1
  Br  Br13  1  0.48923298  0.32319544  0.14862249  1
  Br  Br14  1  0.48923298  0.82319544  0.35137751  1
  Br  Br15  1  0.98923298  0.17680456  0.64862249  1
loop_
_geom_bond_atom_site_label_1
_geom_bond_atom_site_label_2
_geom_bond_distance
_geom_bond_site_symmetry_2
Br0 Zn0 2.392262 1_545
Br0 Rb4 3.473962 1_555
Br0 Rb0 3.489604 1_556
Br0 Rb1 3.881672 1_445
Br1 Zn1 2.392262 1_565
Br1 Rb5 3.473962 1_555
Br1 Rb1 3.489604 1_554
Br1 Rb0 3.881672 1_565
Br2 Zn2 2.392262 1_555
Br2 Rb6 3.473962 1_555
Br2 Rb2 3.489604 1_555
Br2 Rb3 3.881672 1_555
Br3 Zn3 2.392262 1_555
Br3 Rb7 3.473962 1_555
Br3 Rb3 3.489604 1_555
Br3 Rb2 3.881672 1_455
Br4 Zn0 2.421896 1_554
Br4 Rb0 3.450431 1_565
Br4 Rb3 3.564958 1_555
Br4 Rb4 3.770923 1_554
Br4 Rb5 3.797285 1_555
Br4 Rb5 3.934792 1_455
Br5 Zn1 2.421896 1_556
Br5 Rb1 3.450431 1_545
Br5 Rb2 3.564958 1_555
Br5 Rb5 3.770923 1_556
Br5 Rb4 3.797285 1_655
Br5 Rb4 3.934792 1_555
Br6 Zn2 2.421896 1_555
Br6 Rb2 3.450431 1_555
Br6 Rb1 3.564958 1_555
Br6 Rb6 3.770923 1_565
Br6 Rb7 3.797285 1_655
Br6 Rb7 3.934792 1_555
Br7 Zn3 2.421896 1_555
Br7 Rb3 3.450431 1_555
Br7 Rb0 3.564958 1_555
Br7 Rb7 3.770923 1_545
Br7 Rb6 3.797285 1_555
Br7 Rb6 3.934792 1_455
Br8 Zn0 2.398170 1_555
Br8 Rb1 3.498668 1_555
Br8 Rb2 3.524667 1_555
Br8 Rb4 3.692646 1_555
Br8 Rb5 3.960216 1_556
Br9 Zn1 2.398170 1_455
Br9 Rb0 3.498668 1_555
Br9 Rb3 3.524667 1_555
Br9 Rb5 3.692646 1_455
Br9 Rb4 3.960216 1_554
Br10 Zn2 2.398170 1_455
Br10 Rb3 3.498668 1_555
Br10 Rb0 3.524667 1_565
Br10 Rb6 3.692646 1_465
Br10 Rb7 3.960216 1_555
Br11 Zn3 2.398170 1_555
Br11 Rb2 3.498668 1_555
Br11 Rb1 3.524667 1_545
Br11 Rb7 3.692646 1_545
Br11 Rb6 3.960216 1_555
Br12 Zn0 2.407522 1_655
Br12 Rb1 3.493895 1_555
Br12 Rb2 3.517222 1_555
Br12 Rb5 3.634374 1_556
Br12 Rb4 3.659019 1_655
Br13 Zn1 2.407522 1_555
Br13 Rb0 3.493895 1_555
Br13 Rb3 3.517222 1_555
Br13 Rb4 3.634374 1_554
Br13 Rb5 3.659019 1_555
Br14 Zn2 2.407522 1_555
Br14 Rb3 3.493895 1_555
Br14 Rb0 3.517222 1_565
Br14 Rb7 3.634374 1_555
Br14 Rb6 3.659019 1_565
Br15 Zn3 2.407522 1_655
Br15 Rb2 3.493895 1_555
Br15 Rb1 3.517222 1_545
Br15 Rb6 3.634374 1_555
Br15 Rb7 3.659019 1_645
