# generated using pymatgen
data_MgSiO3
_symmetry_space_group_name_H-M   'P 1'
_cell_length_a   8.99049200
_cell_length_b   5.19804500
_cell_length_c   18.80092451
_cell_angle_alpha   83.89327501
_cell_angle_beta   90.00000000
_cell_angle_gamma   90.00000000
_symmetry_Int_Tables_number   1
_chemical_formula_structural   MgSiO3
_chemical_formula_sum   'Mg16 Si16 O48'
_cell_volume   873.63748774
_cell_formula_units_Z   16
loop_
 _symmetry_equiv_pos_site_id
 _symmetry_equiv_pos_as_xyz
  1  'x, y, z'
loop_
 _atom_site_type_symbol
 _atom_site_label
 _atom_site_symmetry_multiplicity
 _atom_site_fract_x
 _atom_site_fract_y
 _atom_site_fract_z
 _atom_site_occupancy
  Mg  Mg0  1  0.59870100  0.75000000  0.50000000  1
  Mg  Mg1  1  0.40129900  0.25000000  0.50000000  1
  Mg  Mg2  1  0.76068200  0.25000000  0.50000000  1
  Mg  Mg3  1  0.23931800  0.75000000  0.50000000  1
  Mg  Mg4  1  0.09921000  0.60588000  0.75085900  1
  Mg  Mg5  1  0.09921000  0.89412000  0.24914100  1
  Mg  Mg6  1  0.90079000  0.39412000  0.24914100  1
  Mg  Mg7  1  0.90079000  0.10588000  0.75085900  1
  Mg  Mg8  1  0.73934100  0.60875700  0.75372600  1
  Mg  Mg9  1  0.73934100  0.89124300  0.24627400  1
  Mg  Mg10  1  0.26065900  0.39124300  0.24627400  1
  Mg  Mg11  1  0.26065900  0.10875700  0.75372600  1
  Mg  Mg12  1  0.40154500  0.25000000  0.00000000  1
  Mg  Mg13  1  0.59845500  0.75000000  0.00000000  1
  Mg  Mg14  1  0.76158400  0.25000000  0.00000000  1
  Mg  Mg15  1  0.23841600  0.75000000  0.00000000  1
  Si  Si0  1  0.09048600  0.49794900  0.39456500  1
  Si  Si1  1  0.09048600  0.00205100  0.60543500  1
  Si  Si2  1  0.90951400  0.50205100  0.60543500  1
  Si  Si3  1  0.90951400  0.99794900  0.39456500  1
  Si  Si4  1  0.59052800  0.46311000  0.35219800  1
  Si  Si5  1  0.59052800  0.03689000  0.64780200  1
  Si  Si6  1  0.40947200  0.53689000  0.64780200  1
  Si  Si7  1  0.40947200  0.96311000  0.35219800  1
  Si  Si8  1  0.08875400  0.21359800  0.89980900  1
  Si  Si9  1  0.08875400  0.28640200  0.10019100  1
  Si  Si10  1  0.91124600  0.78640200  0.10019100  1
  Si  Si11  1  0.91124600  0.71359800  0.89980900  1
  Si  Si12  1  0.41125900  0.64244300  0.85201500  1
  Si  Si13  1  0.41125900  0.85755700  0.14798500  1
  Si  Si14  1  0.58874100  0.35755700  0.14798500  1
  Si  Si15  1  0.58874100  0.14244300  0.85201500  1
  O  O0  1  0.09213400  0.53316600  0.30701200  1
  O  O1  1  0.09213400  0.96683400  0.69298800  1
  O  O2  1  0.90786600  0.46683400  0.69298800  1
  O  O3  1  0.90786600  0.03316600  0.30701200  1
  O  O4  1  0.24202900  0.45004600  0.43877600  1
  O  O5  1  0.24202900  0.04995400  0.56122400  1
  O  O6  1  0.75797100  0.54995400  0.56122400  1
  O  O7  1  0.75797100  0.95004600  0.43877600  1
  O  O8  1  0.96204900  0.28046500  0.42221200  1
  O  O9  1  0.96204900  0.21953500  0.57778800  1
  O  O10  1  0.03795100  0.71953500  0.57778800  1
  O  O11  1  0.03795100  0.78046500  0.42221200  1
  O  O12  1  0.59260000  0.43792300  0.43973300  1
  O  O13  1  0.59260000  0.06207700  0.56026700  1
  O  O14  1  0.40740000  0.56207700  0.56026700  1
  O  O15  1  0.40740000  0.93792300  0.43973300  1
  O  O16  1  0.74160100  0.55837800  0.31073300  1
  O  O17  1  0.74160100  0.94162200  0.68926700  1
  O  O18  1  0.25839900  0.44162200  0.68926700  1
  O  O19  1  0.25839900  0.05837800  0.31073300  1
  O  O20  1  0.46105500  0.68265700  0.32441100  1
  O  O21  1  0.46105500  0.81734300  0.67558900  1
  O  O22  1  0.53894500  0.31734300  0.67558900  1
  O  O23  1  0.53894500  0.18265700  0.32441100  1
  O  O24  1  0.09105600  0.24941800  0.81220700  1
  O  O25  1  0.09105600  0.25058200  0.18779300  1
  O  O26  1  0.90894400  0.75058200  0.18779300  1
  O  O27  1  0.90894400  0.74941800  0.81220700  1
  O  O28  1  0.23548000  0.09563400  0.94022900  1
  O  O29  1  0.23548000  0.40436600  0.05977100  1
  O  O30  1  0.76452000  0.90436600  0.05977100  1
  O  O31  1  0.76452000  0.59563400  0.94022900  1
  O  O32  1  0.05026100  0.50668300  0.92594100  1
  O  O33  1  0.05026100  0.99331700  0.07405900  1
  O  O34  1  0.94973900  0.49331700  0.07405900  1
  O  O35  1  0.94973900  0.00668300  0.92594100  1
  O  O36  1  0.40860700  0.60845600  0.93985700  1
  O  O37  1  0.40860700  0.89154400  0.06014300  1
  O  O38  1  0.59139300  0.39154400  0.06014300  1
  O  O39  1  0.59139300  0.10845600  0.93985700  1
  O  O40  1  0.26533900  0.75962000  0.81091900  1
  O  O41  1  0.26533900  0.74038000  0.18908100  1
  O  O42  1  0.73466100  0.24038000  0.18908100  1
  O  O43  1  0.73466100  0.25962000  0.81091900  1
  O  O44  1  0.44918900  0.34877700  0.82610800  1
  O  O45  1  0.44918900  0.15122300  0.17389200  1
  O  O46  1  0.55081100  0.65122300  0.17389200  1
  O  O47  1  0.55081100  0.84877700  0.82610800  1
loop_
_geom_bond_atom_site_label_1
_geom_bond_atom_site_label_2
_geom_bond_distance
_geom_bond_site_symmetry_2
Mg0 O6 2.049869 1_555
Mg0 O7 2.049869 1_555
Mg0 O13 2.075919 1_565
Mg0 O12 2.075919 1_555
Mg0 O14 2.227239 1_555
Mg0 O15 2.227239 1_555
Mg1 O5 2.049869 1_555
Mg1 O4 2.049869 1_555
Mg1 O14 2.075919 1_555
Mg1 O15 2.075919 1_545
Mg1 O13 2.227239 1_555
Mg1 O12 2.227239 1_555
Mg2 O6 2.034311 1_555
Mg2 O7 2.034311 1_545
Mg2 O13 2.070293 1_555
Mg2 O12 2.070293 1_555
Mg2 O9 2.322106 1_555
Mg2 O8 2.322106 1_555
Mg3 O5 2.034311 1_565
Mg3 O4 2.034311 1_555
Mg3 O14 2.070293 1_555
Mg3 O15 2.070293 1_555
Mg3 O10 2.322106 1_555
Mg3 O11 2.322106 1_555
Mg4 O1 2.067329 1_555
Mg4 O24 2.077080 1_555
Mg4 O18 2.080529 1_555
Mg4 O40 2.082419 1_555
Mg4 O2 2.198378 1_455
Mg4 O27 2.235222 1_455
Mg5 O0 2.067329 1_555
Mg5 O25 2.077080 1_565
Mg5 O19 2.080529 1_565
Mg5 O41 2.082419 1_555
Mg5 O3 2.198378 1_465
Mg5 O26 2.235222 1_455
Mg6 O3 2.067329 1_555
Mg6 O26 2.077080 1_555
Mg6 O16 2.080529 1_555
Mg6 O42 2.082419 1_555
Mg6 O0 2.198378 1_655
Mg6 O25 2.235222 1_655
Mg7 O2 2.067329 1_555
Mg7 O27 2.077080 1_545
Mg7 O17 2.080529 1_545
Mg7 O43 2.082419 1_555
Mg7 O1 2.198378 1_645
Mg7 O24 2.235222 1_655
Mg8 O17 2.004173 1_555
Mg8 O43 2.009083 1_555
Mg8 O27 2.059027 1_555
Mg8 O2 2.079200 1_555
Mg8 O47 2.577341 1_555
Mg9 O16 2.004173 1_555
Mg9 O42 2.009083 1_565
Mg9 O26 2.059027 1_555
Mg9 O3 2.079200 1_565
Mg9 O46 2.577341 1_555
Mg10 O19 2.004173 1_555
Mg10 O41 2.009083 1_555
Mg10 O25 2.059027 1_555
Mg10 O0 2.079200 1_555
Mg10 O45 2.577341 1_555
Mg11 O18 2.004173 1_555
Mg11 O40 2.009083 1_545
Mg11 O24 2.059027 1_555
Mg11 O1 2.079200 1_545
Mg11 O44 2.577341 1_555
Mg12 O37 2.075121 1_545
Mg12 O36 2.075121 1_554
Mg12 O28 2.080283 1_554
Mg12 O29 2.080283 1_555
Mg12 O39 2.215892 1_554
Mg12 O38 2.215892 1_555
Mg13 O39 2.075121 1_564
Mg13 O38 2.075121 1_555
Mg13 O30 2.080283 1_555
Mg13 O31 2.080283 1_554
Mg13 O36 2.215892 1_554
Mg13 O37 2.215892 1_555
Mg14 O31 2.015391 1_554
Mg14 O30 2.015391 1_545
Mg14 O39 2.082817 1_554
Mg14 O38 2.082817 1_555
Mg14 O34 2.602802 1_555
Mg14 O35 2.602802 1_554
Mg15 O29 2.015391 1_555
Mg15 O28 2.015391 1_564
Mg15 O36 2.082817 1_554
Mg15 O37 2.082817 1_555
Mg15 O32 2.602802 1_554
Mg15 O33 2.602802 1_555
O0 Si0 1.636823 1_555
O1 Si1 1.636823 1_565
O2 Si2 1.636823 1_555
O3 Si3 1.636823 1_545
O4 Si0 1.601603 1_555
O5 Si1 1.601603 1_555
O6 Si2 1.601603 1_555
O7 Si3 1.601603 1_555
O8 Si0 1.660280 1_655
O8 Si3 1.676977 1_545
O9 Si1 1.660280 1_655
O9 Si2 1.676977 1_555
O10 Si2 1.660280 1_455
O10 Si1 1.676977 1_565
O11 Si3 1.660280 1_455
O11 Si0 1.676977 1_555
O12 Si4 1.637102 1_555
O13 Si5 1.637102 1_555
O14 Si6 1.637102 1_555
O15 Si7 1.637102 1_555
O16 Si4 1.617282 1_555
O17 Si5 1.617282 1_565
O18 Si6 1.617282 1_555
O19 Si7 1.617282 1_545
O20 Si7 1.665903 1_555
O20 Si4 1.674337 1_555
O21 Si6 1.665903 1_555
O21 Si5 1.674337 1_565
O22 Si5 1.665903 1_555
O22 Si6 1.674337 1_555
O23 Si4 1.665903 1_555
O23 Si7 1.674337 1_545
O24 Si8 1.637820 1_555
O25 Si9 1.637820 1_555
O26 Si10 1.637820 1_555
O27 Si11 1.637820 1_555
O28 Si8 1.610738 1_555
O29 Si9 1.610738 1_555
O30 Si10 1.610738 1_555
O31 Si11 1.610738 1_555
O32 Si8 1.685632 1_555
O32 Si11 1.687543 1_455
O33 Si9 1.685632 1_565
O33 Si10 1.687543 1_455
O34 Si10 1.685632 1_555
O34 Si9 1.687543 1_655
O35 Si11 1.685632 1_545
O35 Si8 1.687543 1_655
O36 Si12 1.642313 1_555
O37 Si13 1.642313 1_555
O38 Si14 1.642313 1_555
O39 Si15 1.642313 1_555
O40 Si12 1.609007 1_555
O41 Si13 1.609007 1_555
O42 Si14 1.609007 1_555
O43 Si15 1.609007 1_555
O44 Si12 1.685791 1_555
O44 Si15 1.688356 1_555
O45 Si13 1.685791 1_545
O45 Si14 1.688356 1_555
O46 Si14 1.685791 1_555
O46 Si13 1.688356 1_555
O47 Si15 1.685791 1_565
O47 Si12 1.688356 1_555
