# generated using pymatgen
data_Al8SiO14
_symmetry_space_group_name_H-M   'P 1'
_cell_length_a   2.96633400
_cell_length_b   7.79570900
_cell_length_c   23.30765200
_cell_angle_alpha   90.00000000
_cell_angle_beta   90.00000000
_cell_angle_gamma   90.00000000
_symmetry_Int_Tables_number   1
_chemical_formula_structural   Al8SiO14
_chemical_formula_sum   'Al16 Si2 O28'
_cell_volume   538.98191622
_cell_formula_units_Z   2
loop_
 _symmetry_equiv_pos_site_id
 _symmetry_equiv_pos_as_xyz
  1  'x, y, z'
loop_
 _atom_site_type_symbol
 _atom_site_label
 _atom_site_symmetry_multiplicity
 _atom_site_fract_x
 _atom_site_fract_y
 _atom_site_fract_z
 _atom_site_occupancy
  Al  Al0  1  0.00000000  0.25526200  0.32603200  1
  Al  Al1  1  0.00000000  0.25380000  0.66875400  1
  Al  Al2  1  0.00000000  0.74473800  0.82603200  1
  Al  Al3  1  0.00000000  0.74620000  0.16875400  1
  Al  Al4  1  0.50000000  0.48270900  0.91105400  1
  Al  Al5  1  0.50000000  0.03259200  0.09025600  1
  Al  Al6  1  0.50000000  0.51729100  0.41105400  1
  Al  Al7  1  0.50000000  0.96740800  0.59025600  1
  Al  Al8  1  0.00000000  0.25226100  0.00286100  1
  Al  Al9  1  0.00000000  0.74773900  0.50286100  1
  Al  Al10  1  0.50000000  0.58529400  0.28221500  1
  Al  Al11  1  0.50000000  0.92604100  0.71526200  1
  Al  Al12  1  0.50000000  0.41470600  0.78221500  1
  Al  Al13  1  0.50000000  0.07395900  0.21526200  1
  Al  Al14  1  0.50000000  0.59008400  0.61557900  1
  Al  Al15  1  0.50000000  0.40991600  0.11557900  1
  Si  Si0  1  0.50000000  0.89118100  0.38623400  1
  Si  Si1  1  0.50000000  0.10881900  0.88623400  1
  O  O0  1  0.50000000  0.70210400  0.35284300  1
  O  O1  1  0.50000000  0.80289500  0.64868900  1
  O  O2  1  0.50000000  0.29789600  0.85284300  1
  O  O3  1  0.50000000  0.19710500  0.14868900  1
  O  O4  1  0.00000000  0.47082000  0.29275900  1
  O  O5  1  0.00000000  0.04417700  0.71446900  1
  O  O6  1  0.00000000  0.52918000  0.79275900  1
  O  O7  1  0.00000000  0.95582300  0.21446900  1
  O  O8  1  0.00000000  0.43724500  0.94741700  1
  O  O9  1  0.00000000  0.05803500  0.04998700  1
  O  O10  1  0.00000000  0.56275500  0.44741700  1
  O  O11  1  0.00000000  0.94196500  0.54998700  1
  O  O12  1  0.50000000  0.32857000  0.71528400  1
  O  O13  1  0.50000000  0.17647300  0.28329800  1
  O  O14  1  0.50000000  0.67143000  0.21528400  1
  O  O15  1  0.50000000  0.82352700  0.78329800  1
  O  O16  1  0.00000000  0.47636000  0.63019200  1
  O  O17  1  0.00000000  0.98861800  0.36911900  1
  O  O18  1  0.00000000  0.52364000  0.13019200  1
  O  O19  1  0.00000000  0.01138200  0.86911900  1
  O  O20  1  0.50000000  0.34105500  0.04214400  1
  O  O21  1  0.50000000  0.14828100  0.95418500  1
  O  O22  1  0.50000000  0.65894500  0.54214400  1
  O  O23  1  0.50000000  0.85171900  0.45418500  1
  O  O24  1  0.50000000  0.31934300  0.37598900  1
  O  O25  1  0.50000000  0.16494000  0.62537800  1
  O  O26  1  0.50000000  0.68065700  0.87598900  1
  O  O27  1  0.50000000  0.83506000  0.12537800  1
loop_
_geom_bond_atom_site_label_1
_geom_bond_atom_site_label_2
_geom_bond_distance
_geom_bond_site_symmetry_2
Al0 O4 1.850746 1_555
Al0 O13 1.889211 1_455
Al0 O13 1.889211 1_555
Al0 O24 1.950672 1_555
Al0 O24 1.950672 1_455
Al0 O17 2.308558 1_545
Al1 O25 1.923996 1_555
Al1 O25 1.923996 1_455
Al1 O12 1.927613 1_455
Al1 O12 1.927613 1_555
Al1 O5 1.950843 1_555
Al1 O16 1.953994 1_555
Al2 O6 1.850746 1_555
Al2 O15 1.889211 1_455
Al2 O15 1.889211 1_555
Al2 O26 1.950672 1_455
Al2 O26 1.950672 1_555
Al2 O19 2.308558 1_565
Al3 O27 1.923996 1_555
Al3 O27 1.923996 1_455
Al3 O14 1.927613 1_555
Al3 O14 1.927613 1_455
Al3 O7 1.950843 1_555
Al3 O18 1.953994 1_555
Al4 O8 1.744626 1_555
Al4 O8 1.744626 1_655
Al4 O26 1.746210 1_555
Al4 O2 1.979030 1_555
Al5 O27 1.743968 1_545
Al5 O9 1.766366 1_555
Al5 O9 1.766366 1_655
Al5 O3 1.870739 1_555
Al6 O10 1.744626 1_655
Al6 O10 1.744626 1_555
Al6 O24 1.746210 1_555
Al6 O0 1.979030 1_555
Al7 O25 1.743968 1_565
Al7 O11 1.766366 1_555
Al7 O11 1.766366 1_655
Al7 O1 1.870739 1_555
Al8 O9 1.870578 1_555
Al8 O20 1.875435 1_455
Al8 O20 1.875435 1_555
Al8 O8 1.936378 1_554
Al8 O21 2.035681 1_454
Al8 O21 2.035681 1_554
Al9 O11 1.870578 1_555
Al9 O22 1.875435 1_455
Al9 O22 1.875435 1_555
Al9 O10 1.936378 1_555
Al9 O23 2.035681 1_555
Al9 O23 2.035681 1_455
Al10 O14 1.698386 1_555
Al10 O4 1.748305 1_655
Al10 O4 1.748305 1_555
Al10 O0 1.881252 1_555
Al11 O5 1.745933 1_665
Al11 O5 1.745933 1_565
Al11 O15 1.775755 1_555
Al11 O1 1.824629 1_555
Al12 O12 1.698386 1_555
Al12 O6 1.748305 1_555
Al12 O6 1.748305 1_655
Al12 O2 1.881252 1_555
Al13 O7 1.745933 1_645
Al13 O7 1.745933 1_545
Al13 O13 1.775755 1_555
Al13 O3 1.824629 1_555
Al14 O16 1.761186 1_655
Al14 O16 1.761186 1_555
Al14 O22 1.793807 1_555
Al14 O1 1.829718 1_555
Al15 O18 1.761186 1_655
Al15 O18 1.761186 1_555
Al15 O20 1.793807 1_555
Al15 O3 1.829718 1_555
O0 Si0 1.666836 1_555
O2 Si1 1.666836 1_555
O17 Si0 1.713444 1_555
O17 Si0 1.713444 1_455
O19 Si1 1.713444 1_455
O19 Si1 1.713444 1_555
O21 Si1 1.613379 1_555
O23 Si0 1.613379 1_555
