# generated using pymatgen
data_SrLaCoO4
_symmetry_space_group_name_H-M   'P 1'
_cell_length_a   3.86865709
_cell_length_b   7.70154707
_cell_length_c   6.94108757
_cell_angle_alpha   106.11235543
_cell_angle_beta   106.19921996
_cell_angle_gamma   90.01056084
_symmetry_Int_Tables_number   1
_chemical_formula_structural   SrLaCoO4
_chemical_formula_sum   'Sr2 La2 Co2 O8'
_cell_volume   190.11922376
_cell_formula_units_Z   2
loop_
 _symmetry_equiv_pos_site_id
 _symmetry_equiv_pos_as_xyz
  1  'x, y, z'
loop_
 _atom_site_type_symbol
 _atom_site_label
 _atom_site_symmetry_multiplicity
 _atom_site_fract_x
 _atom_site_fract_y
 _atom_site_fract_z
 _atom_site_occupancy
  Sr  Sr0  1  0.64114900  0.32244700  0.28252100  1
  Sr  Sr1  1  0.64350000  0.81990700  0.28694400  1
  La  La0  1  0.35833800  0.67378700  0.71648500  1
  La  La1  1  0.35718000  0.18422800  0.71455900  1
  Co  Co0  1  0.00255900  0.00132000  0.00512300  1
  Co  Co1  1  0.00667400  0.50318000  0.01326400  1
  O  O0  1  0.83052300  0.41492400  0.66109300  1
  O  O1  1  0.83604700  0.91806500  0.67146500  1
  O  O2  1  0.17446900  0.58731100  0.34896100  1
  O  O3  1  0.17183300  0.08605200  0.34449300  1
  O  O4  1  0.49039600  0.49523800  0.98069600  1
  O  O5  1  0.49667400  0.99817300  0.99326300  1
  O  O6  1  0.99576900  0.74300000  0.99121400  1
  O  O7  1  0.99489000  0.25236700  0.98992000  1
loop_
_geom_bond_atom_site_label_1
_geom_bond_atom_site_label_2
_geom_bond_distance
_geom_bond_site_symmetry_2
La0 O2 2.345544 1_555
La0 O4 2.528313 1_555
La0 O6 2.610211 1_555
La0 O6 2.610823 1_455
La0 O5 2.642056 1_555
La0 O0 2.725244 1_455
La0 O0 2.725276 1_555
La0 O1 2.774004 1_455
La0 O1 2.774833 1_555
La1 O3 2.361780 1_555
La1 O4 2.535302 1_555
La1 O7 2.612819 1_555
La1 O7 2.613642 1_455
La1 O5 2.653894 1_545
La1 O0 2.718656 1_455
La1 O0 2.718767 1_555
La1 O1 2.770866 1_445
La1 O1 2.773753 1_545
Co0 O5 1.935606 1_444
Co0 O5 1.936012 1_544
Co0 O6 1.964672 1_444
Co0 O7 1.965137 1_454
Co0 O1 2.129069 1_444
Co0 O3 2.165517 1_555
Co1 O7 1.892543 1_454
Co1 O6 1.894699 1_454
Co1 O4 1.945359 1_454
Co1 O4 1.945562 1_554
Co1 O2 2.142079 1_555
Co1 O0 2.247199 1_454
O0 Sr0 2.415724 1_555
O1 Sr1 2.453670 1_555
O2 Sr1 2.747605 1_555
O2 Sr1 2.747673 1_455
O2 Sr0 2.752464 1_455
O2 Sr0 2.752644 1_555
O3 Sr1 2.761719 1_445
O3 Sr1 2.764807 1_545
O3 Sr0 2.767292 1_455
O3 Sr0 2.768636 1_555
O4 Sr0 2.714044 1_556
O4 Sr1 2.732848 1_556
O5 Sr0 2.677840 1_566
O5 Sr1 2.696391 1_556
O6 Sr1 2.701533 1_656
O6 Sr1 2.703313 1_556
O7 Sr0 2.687906 1_656
O7 Sr0 2.689157 1_556
