# generated using pymatgen
data_BaCO4
_symmetry_space_group_name_H-M   'P 1'
_cell_length_a   5.41688300
_cell_length_b   7.14174000
_cell_length_c   8.82994100
_cell_angle_alpha   90.00000000
_cell_angle_beta   90.00000000
_cell_angle_gamma   90.00000000
_symmetry_Int_Tables_number   1
_chemical_formula_structural   BaCO4
_chemical_formula_sum   'Ba4 C4 O16'
_cell_volume   341.59483260
_cell_formula_units_Z   4
loop_
 _symmetry_equiv_pos_site_id
 _symmetry_equiv_pos_as_xyz
  1  'x, y, z'
loop_
 _atom_site_type_symbol
 _atom_site_label
 _atom_site_symmetry_multiplicity
 _atom_site_fract_x
 _atom_site_fract_y
 _atom_site_fract_z
 _atom_site_occupancy
  Ba  Ba0  1  0.25000000  0.65808200  0.18587800  1
  Ba  Ba1  1  0.75000000  0.34191800  0.81412200  1
  Ba  Ba2  1  0.75000000  0.15808200  0.31412200  1
  Ba  Ba3  1  0.25000000  0.84191800  0.68587800  1
  C  C0  1  0.25000000  0.20168400  0.06042200  1
  C  C1  1  0.75000000  0.79831600  0.93957800  1
  C  C2  1  0.75000000  0.70168400  0.43957800  1
  C  C3  1  0.25000000  0.29831600  0.56042200  1
  O  O0  1  0.25000000  0.37159300  0.41555300  1
  O  O1  1  0.75000000  0.62840700  0.58444700  1
  O  O2  1  0.75000000  0.87159300  0.08444700  1
  O  O3  1  0.25000000  0.12840700  0.91555300  1
  O  O4  1  0.03929000  0.30752400  0.07963200  1
  O  O5  1  0.96071000  0.69247600  0.92036800  1
  O  O6  1  0.96071000  0.80752400  0.42036800  1
  O  O7  1  0.53929000  0.69247600  0.92036800  1
  O  O8  1  0.03929000  0.19247600  0.57963200  1
  O  O9  1  0.46071000  0.30752400  0.07963200  1
  O  O10  1  0.46071000  0.19247600  0.57963200  1
  O  O11  1  0.53929000  0.80752400  0.42036800  1
  O  O12  1  0.25000000  0.05465200  0.16179300  1
  O  O13  1  0.75000000  0.94534800  0.83820700  1
  O  O14  1  0.75000000  0.55465200  0.33820700  1
  O  O15  1  0.25000000  0.44534800  0.66179300  1
loop_
_geom_bond_atom_site_label_1
_geom_bond_atom_site_label_2
_geom_bond_distance
_geom_bond_site_symmetry_2
Ba0 O11 2.807460 1_555
Ba0 O6 2.807460 1_455
Ba0 O5 2.830613 1_454
Ba0 O7 2.830613 1_554
Ba0 O12 2.840173 1_565
Ba0 O0 2.880814 1_555
Ba0 O9 2.907039 1_555
Ba0 O4 2.907039 1_555
Ba0 O14 3.112951 1_455
Ba0 O14 3.112951 1_555
Ba0 O2 3.234648 1_455
Ba0 O2 3.234648 1_555
Ba1 O10 2.807460 1_555
Ba1 O8 2.807460 1_655
Ba1 O4 2.830613 1_656
Ba1 O9 2.830613 1_556
Ba1 O13 2.840173 1_545
Ba1 O1 2.880814 1_555
Ba1 O7 2.907039 1_555
Ba1 O5 2.907039 1_555
Ba1 O15 3.112951 1_555
Ba1 O15 3.112951 1_655
Ba1 O3 3.234648 1_655
Ba1 O3 3.234648 1_555
Ba2 O9 2.807460 1_555
Ba2 O4 2.807460 1_655
Ba2 O10 2.830613 1_555
Ba2 O8 2.830613 1_655
Ba2 O14 2.840173 1_555
Ba2 O2 2.880814 1_545
Ba2 O6 2.907039 1_545
Ba2 O11 2.907039 1_545
Ba2 O12 3.112951 1_555
Ba2 O12 3.112951 1_655
Ba2 O0 3.234648 1_555
Ba2 O0 3.234648 1_655
Ba3 O5 2.807460 1_455
Ba3 O7 2.807460 1_555
Ba3 O6 2.830613 1_455
Ba3 O11 2.830613 1_555
Ba3 O15 2.840173 1_555
Ba3 O3 2.880814 1_565
Ba3 O8 2.907039 1_565
Ba3 O10 2.907039 1_565
Ba3 O13 3.112951 1_455
Ba3 O13 3.112951 1_555
Ba3 O1 3.234648 1_555
Ba3 O1 3.234648 1_455
C0 O4 1.379458 1_555
C0 O9 1.379458 1_555
C0 O12 1.379797 1_555
C0 O3 1.382094 1_554
C1 O5 1.379458 1_555
C1 O7 1.379458 1_555
C1 O13 1.379797 1_555
C1 O2 1.382094 1_556
C2 O6 1.379458 1_555
C2 O11 1.379458 1_555
C2 O14 1.379797 1_555
C2 O1 1.382094 1_555
C3 O10 1.379458 1_555
C3 O8 1.379458 1_555
C3 O15 1.379797 1_555
C3 O0 1.382094 1_555
