# generated using pymatgen
data_NiSe2
_symmetry_space_group_name_H-M   'P 1'
_cell_length_a   3.64990617
_cell_length_b   4.89218248
_cell_length_c   5.98867822
_cell_angle_alpha   90.00000000
_cell_angle_beta   90.00000000
_cell_angle_gamma   90.00000000
_symmetry_Int_Tables_number   1
_chemical_formula_structural   NiSe2
_chemical_formula_sum   'Ni2 Se4'
_cell_volume   106.93388033
_cell_formula_units_Z   2
loop_
 _symmetry_equiv_pos_site_id
 _symmetry_equiv_pos_as_xyz
  1  'x, y, z'
loop_
 _atom_site_type_symbol
 _atom_site_label
 _atom_site_symmetry_multiplicity
 _atom_site_fract_x
 _atom_site_fract_y
 _atom_site_fract_z
 _atom_site_occupancy
  Ni  Ni0  1  0.50000000  0.50000000  0.50000000  1
  Ni  Ni1  1  0.00000000  -0.00000000  0.00000000  1
  Se  Se0  1  0.50000000  0.29386020  0.87689846  1
  Se  Se1  1  0.50000000  0.70613980  0.12310154  1
  Se  Se2  1  0.00000000  0.20613980  0.37689846  1
  Se  Se3  1  -0.00000000  0.79386020  0.62310154  1
loop_
_geom_bond_atom_site_label_1
_geom_bond_atom_site_label_2
_geom_bond_distance
_geom_bond_site_symmetry_2
Ni0 Se3 2.437352 1_555
Ni0 Se3 2.437352 1_655
Ni0 Se2 2.437352 1_655
Ni0 Se2 2.437352 1_555
Ni0 Se1 2.472170 1_555
Ni0 Se0 2.472170 1_555
Ni1 Se0 2.437352 1_454
Ni1 Se0 2.437352 1_554
Ni1 Se1 2.437352 1_445
Ni1 Se1 2.437352 1_545
Ni1 Se2 2.472170 1_555
Ni1 Se3 2.472170 1_544
Se0 Se1 2.498404 1_556
Se2 Se3 2.498404 1_545
