# generated using pymatgen
data_Tm2Ni17
_symmetry_space_group_name_H-M   'P 1'
_cell_length_a   8.23694558
_cell_length_b   8.23694558
_cell_length_c   7.98161100
_cell_angle_alpha   90.00000000
_cell_angle_beta   90.00000000
_cell_angle_gamma   119.99999662
_symmetry_Int_Tables_number   1
_chemical_formula_structural   Tm2Ni17
_chemical_formula_sum   'Tm4 Ni34'
_cell_volume   468.97921736
_cell_formula_units_Z   2
loop_
 _symmetry_equiv_pos_site_id
 _symmetry_equiv_pos_as_xyz
  1  'x, y, z'
loop_
 _atom_site_type_symbol
 _atom_site_label
 _atom_site_symmetry_multiplicity
 _atom_site_fract_x
 _atom_site_fract_y
 _atom_site_fract_z
 _atom_site_occupancy
  Tm  Tm0  1  0.00000000  0.00000000  0.25000000  1
  Tm  Tm1  1  0.00000000  0.00000000  0.75000000  1
  Tm  Tm2  1  0.33333300  0.66666700  0.75000000  1
  Tm  Tm3  1  0.66666700  0.33333300  0.25000000  1
  Ni  Ni0  1  0.33333300  0.66666700  0.10109500  1
  Ni  Ni1  1  0.66666700  0.33333300  0.60109500  1
  Ni  Ni2  1  0.66666700  0.33333300  0.89890500  1
  Ni  Ni3  1  0.33333300  0.66666700  0.39890500  1
  Ni  Ni4  1  0.50000000  0.00000000  0.00000000  1
  Ni  Ni5  1  0.50000000  0.50000000  0.50000000  1
  Ni  Ni6  1  0.00000000  0.50000000  0.50000000  1
  Ni  Ni7  1  0.00000000  0.50000000  0.00000000  1
  Ni  Ni8  1  0.50000000  0.50000000  0.00000000  1
  Ni  Ni9  1  0.50000000  0.00000000  0.50000000  1
  Ni  Ni10  1  0.32749900  0.95800200  0.25000000  1
  Ni  Ni11  1  0.36949700  0.32749900  0.75000000  1
  Ni  Ni12  1  0.95800200  0.63050300  0.75000000  1
  Ni  Ni13  1  0.04199800  0.36949700  0.25000000  1
  Ni  Ni14  1  0.63050300  0.67250100  0.25000000  1
  Ni  Ni15  1  0.36949700  0.04199800  0.75000000  1
  Ni  Ni16  1  0.67250100  0.63050300  0.75000000  1
  Ni  Ni17  1  0.67250100  0.04199800  0.75000000  1
  Ni  Ni18  1  0.95800200  0.32749900  0.75000000  1
  Ni  Ni19  1  0.04199800  0.67250100  0.25000000  1
  Ni  Ni20  1  0.63050300  0.95800200  0.25000000  1
  Ni  Ni21  1  0.32749900  0.36949700  0.25000000  1
  Ni  Ni22  1  0.16530000  0.33060100  0.97805500  1
  Ni  Ni23  1  0.83470000  0.16530000  0.47805500  1
  Ni  Ni24  1  0.33060100  0.16530000  0.47805500  1
  Ni  Ni25  1  0.66939900  0.83470000  0.97805500  1
  Ni  Ni26  1  0.16530000  0.83470000  0.97805500  1
  Ni  Ni27  1  0.83470000  0.66939900  0.02194500  1
  Ni  Ni28  1  0.83470000  0.16530000  0.02194500  1
  Ni  Ni29  1  0.83470000  0.66939900  0.47805500  1
  Ni  Ni30  1  0.33060100  0.16530000  0.02194500  1
  Ni  Ni31  1  0.66939900  0.83470000  0.52194500  1
  Ni  Ni32  1  0.16530000  0.33060100  0.52194500  1
  Ni  Ni33  1  0.16530000  0.83470000  0.52194500  1
loop_
_geom_bond_atom_site_label_1
_geom_bond_atom_site_label_2
_geom_bond_distance
_geom_bond_site_symmetry_2
Ni0 Ni3 2.377004 1_555
Ni0 Ni7 2.510979 1_555
Ni0 Ni4 2.510979 1_565
Ni0 Ni8 2.510986 1_555
Ni0 Ni26 2.590648 1_554
Ni0 Ni25 2.590648 1_554
Ni0 Ni22 2.590648 1_554
Ni0 Ni10 2.699773 1_555
Ni0 Ni19 2.699773 1_555
Ni0 Ni20 2.699777 1_555
Ni0 Ni13 2.699777 1_555
Ni0 Ni14 2.699780 1_555
Ni0 Ni21 2.699780 1_555
Ni0 Tm2 2.802304 1_554
Ni1 Ni2 2.377004 1_555
Ni1 Ni6 2.510979 1_655
Ni1 Ni9 2.510979 1_555
Ni1 Ni5 2.510986 1_555
Ni1 Ni23 2.590648 1_555
Ni1 Ni29 2.590648 1_555
Ni1 Ni24 2.590648 1_555
Ni1 Ni18 2.699773 1_555
Ni1 Ni17 2.699773 1_555
Ni1 Ni12 2.699777 1_555
Ni1 Ni15 2.699777 1_555
Ni1 Ni16 2.699780 1_555
Ni1 Ni11 2.699780 1_555
Ni1 Tm3 2.802304 1_555
Ni2 Ni7 2.510979 1_656
Ni2 Ni4 2.510979 1_556
Ni2 Ni8 2.510986 1_556
Ni2 Ni28 2.590648 1_556
Ni2 Ni27 2.590648 1_556
Ni2 Ni30 2.590648 1_556
Ni2 Tm3 2.802304 1_556
Ni3 Ni9 2.510979 1_565
Ni3 Ni6 2.510979 1_555
Ni3 Ni5 2.510986 1_555
Ni3 Ni33 2.590648 1_555
Ni3 Ni31 2.590648 1_555
Ni3 Ni32 2.590648 1_555
Ni3 Tm2 2.802304 1_555
Ni4 Tm3 3.104120 1_555
Ni4 Tm2 3.104120 1_544
Ni5 Tm2 3.104125 1_555
Ni5 Tm3 3.104125 1_555
Ni6 Tm3 3.104120 1_455
Ni6 Tm2 3.104120 1_555
Ni7 Tm3 3.104120 1_455
Ni7 Tm2 3.104120 1_554
Ni8 Tm2 3.104125 1_554
Ni8 Tm3 3.104125 1_555
Ni9 Tm3 3.104120 1_555
Ni9 Tm2 3.104120 1_545
Ni10 Ni19 2.351656 1_555
Ni10 Ni9 2.372483 1_565
Ni10 Ni4 2.372483 1_565
Ni10 Ni33 2.484127 1_555
Ni10 Ni26 2.484127 1_554
Ni10 Ni24 2.487144 1_565
Ni10 Ni30 2.487144 1_565
Ni10 Ni20 2.495827 1_555
Ni10 Ni3 2.699773 1_555
Ni10 Tm0 2.886150 1_565
Ni10 Tm3 2.953930 1_565
Ni11 Ni15 2.351656 1_555
Ni11 Ni5 2.372483 1_555
Ni11 Ni8 2.372483 1_556
Ni11 Ni30 2.484128 1_556
Ni11 Ni24 2.484128 1_555
Ni11 Ni32 2.487150 1_555
Ni11 Ni22 2.487150 1_555
Ni11 Ni16 2.495828 1_555
Ni11 Ni2 2.699780 1_555
Ni11 Tm1 2.886150 1_555
Ni11 Tm2 2.953935 1_555
Ni12 Ni16 2.351656 1_555
Ni12 Ni7 2.372483 1_656
Ni12 Ni6 2.372483 1_655
Ni12 Ni27 2.484124 1_556
Ni12 Ni29 2.484124 1_555
Ni12 Ni26 2.487147 1_655
Ni12 Ni33 2.487147 1_655
Ni12 Ni18 2.495827 1_555
Ni12 Ni2 2.699777 1_555
Ni12 Tm1 2.886150 1_665
Ni12 Tm2 2.953927 1_655
Ni13 Ni21 2.351656 1_555
Ni13 Ni6 2.372483 1_555
Ni13 Ni7 2.372483 1_555
Ni13 Ni22 2.484124 1_554
Ni13 Ni32 2.484124 1_555
Ni13 Ni23 2.487147 1_455
Ni13 Ni28 2.487147 1_455
Ni13 Ni19 2.495827 1_555
Ni13 Ni3 2.699777 1_555
Ni13 Tm0 2.886150 1_555
Ni13 Tm3 2.953927 1_455
Ni14 Ni20 2.351656 1_555
Ni14 Ni8 2.372483 1_555
Ni14 Ni5 2.372483 1_555
Ni14 Ni25 2.484128 1_554
Ni14 Ni31 2.484128 1_555
Ni14 Ni29 2.487150 1_555
Ni14 Ni27 2.487150 1_555
Ni14 Ni21 2.495828 1_555
Ni14 Ni3 2.699780 1_555
Ni14 Tm0 2.886150 1_665
Ni14 Tm3 2.953935 1_555
Ni15 Ni4 2.372483 1_556
Ni15 Ni9 2.372483 1_555
Ni15 Ni30 2.484124 1_556
Ni15 Ni24 2.484124 1_555
Ni15 Ni26 2.487147 1_545
Ni15 Ni33 2.487147 1_545
Ni15 Ni17 2.495827 1_555
Ni15 Ni2 2.699777 1_555
Ni15 Tm1 2.886150 1_555
Ni15 Tm2 2.953927 1_545
Ni16 Ni8 2.372483 1_556
Ni16 Ni5 2.372483 1_555
Ni16 Ni27 2.484128 1_556
Ni16 Ni29 2.484128 1_555
Ni16 Ni31 2.487150 1_555
Ni16 Ni25 2.487150 1_555
Ni16 Ni2 2.699780 1_555
Ni16 Tm1 2.886150 1_665
Ni16 Tm2 2.953935 1_555
Ni17 Ni18 2.351656 1_555
Ni17 Ni9 2.372483 1_555
Ni17 Ni4 2.372483 1_556
Ni17 Ni28 2.484127 1_556
Ni17 Ni23 2.484127 1_555
Ni17 Ni31 2.487144 1_545
Ni17 Ni25 2.487144 1_545
Ni17 Ni2 2.699773 1_555
Ni17 Tm1 2.886150 1_655
Ni17 Tm2 2.953930 1_545
Ni18 Ni6 2.372483 1_655
Ni18 Ni7 2.372483 1_656
Ni18 Ni28 2.484127 1_556
Ni18 Ni23 2.484127 1_555
Ni18 Ni32 2.487144 1_655
Ni18 Ni22 2.487144 1_655
Ni18 Ni2 2.699773 1_555
Ni18 Tm1 2.886150 1_655
Ni18 Tm2 2.953930 1_655
Ni19 Ni6 2.372483 1_555
Ni19 Ni7 2.372483 1_555
Ni19 Ni33 2.484127 1_555
Ni19 Ni26 2.484127 1_554
Ni19 Ni29 2.487144 1_455
Ni19 Ni27 2.487144 1_455
Ni19 Ni3 2.699773 1_555
Ni19 Tm0 2.886150 1_565
Ni19 Tm3 2.953930 1_455
Ni20 Ni4 2.372483 1_565
Ni20 Ni9 2.372483 1_565
Ni20 Ni31 2.484124 1_555
Ni20 Ni25 2.484124 1_554
Ni20 Ni23 2.487147 1_565
Ni20 Ni28 2.487147 1_565
Ni20 Ni3 2.699777 1_555
Ni20 Tm0 2.886150 1_665
Ni20 Tm3 2.953927 1_565
Ni21 Ni8 2.372483 1_555
Ni21 Ni5 2.372483 1_555
Ni21 Ni22 2.484128 1_554
Ni21 Ni32 2.484128 1_555
Ni21 Ni24 2.487150 1_555
Ni21 Ni30 2.487150 1_555
Ni21 Ni3 2.699780 1_555
Ni21 Tm0 2.886150 1_555
Ni21 Tm3 2.953935 1_555
Ni22 Ni28 2.384180 1_456
Ni22 Ni30 2.384194 1_556
Ni22 Ni7 2.394019 1_556
Ni22 Ni8 2.394026 1_556
Ni22 Tm1 2.979081 1_555
Ni22 Tm2 3.010036 1_555
Ni22 Tm0 3.205145 1_556
Ni23 Ni32 2.384180 1_655
Ni23 Ni31 2.384180 1_545
Ni23 Ni6 2.394026 1_655
Ni23 Ni9 2.394026 1_555
Ni23 Tm0 2.979076 1_655
Ni23 Tm3 3.010036 1_555
Ni23 Tm1 3.205140 1_655
Ni24 Ni33 2.384180 1_545
Ni24 Ni32 2.384194 1_555
Ni24 Ni9 2.394019 1_555
Ni24 Ni5 2.394026 1_555
Ni24 Tm0 2.979081 1_555
Ni24 Tm3 3.010036 1_555
Ni24 Tm1 3.205145 1_555
Ni25 Ni28 2.384180 1_566
Ni25 Ni27 2.384194 1_556
Ni25 Ni4 2.394019 1_566
Ni25 Ni8 2.394026 1_556
Ni25 Tm1 2.979081 1_665
Ni25 Tm2 3.010036 1_555
Ni25 Tm0 3.205145 1_666
Ni26 Ni30 2.384180 1_566
Ni26 Ni27 2.384180 1_456
Ni26 Ni7 2.394026 1_556
Ni26 Ni4 2.394026 1_566
Ni26 Tm1 2.979076 1_565
Ni26 Tm2 3.010036 1_555
Ni26 Tm0 3.205140 1_566
Ni27 Ni7 2.394019 1_655
Ni27 Ni8 2.394026 1_555
Ni27 Tm0 2.979081 1_665
Ni27 Tm3 3.010036 1_555
Ni27 Tm1 3.205145 1_664
Ni28 Ni7 2.394026 1_655
Ni28 Ni4 2.394026 1_555
Ni28 Tm0 2.979076 1_655
Ni28 Tm3 3.010036 1_555
Ni28 Tm1 3.205140 1_654
Ni29 Ni33 2.384180 1_655
Ni29 Ni31 2.384194 1_555
Ni29 Ni6 2.394019 1_655
Ni29 Ni5 2.394026 1_555
Ni29 Tm0 2.979081 1_665
Ni29 Tm3 3.010036 1_555
Ni29 Tm1 3.205145 1_665
Ni30 Ni4 2.394019 1_555
Ni30 Ni8 2.394026 1_555
Ni30 Tm0 2.979081 1_555
Ni30 Tm3 3.010036 1_555
Ni30 Tm1 3.205145 1_554
Ni31 Ni9 2.394019 1_565
Ni31 Ni5 2.394026 1_555
Ni31 Tm1 2.979081 1_665
Ni31 Tm2 3.010036 1_555
Ni31 Tm0 3.205145 1_665
Ni32 Ni6 2.394019 1_555
Ni32 Ni5 2.394026 1_555
Ni32 Tm1 2.979081 1_555
Ni32 Tm2 3.010036 1_555
Ni32 Tm0 3.205145 1_555
Ni33 Ni9 2.394026 1_565
Ni33 Ni6 2.394026 1_555
Ni33 Tm1 2.979076 1_565
Ni33 Tm2 3.010036 1_555
Ni33 Tm0 3.205140 1_565
