# generated using pymatgen
data_MgTiSn(PO4)3
_symmetry_space_group_name_H-M   'P 1'
_cell_length_a   8.63873469
_cell_length_b   8.64951763
_cell_length_c   8.64931490
_cell_angle_alpha   60.88360312
_cell_angle_beta   60.93373918
_cell_angle_gamma   60.88499828
_symmetry_Int_Tables_number   1
_chemical_formula_structural   MgTiSn(PO4)3
_chemical_formula_sum   'Mg2 Ti2 Sn2 P6 O24'
_cell_volume   466.27048026
_cell_formula_units_Z   2
loop_
 _symmetry_equiv_pos_site_id
 _symmetry_equiv_pos_as_xyz
  1  'x, y, z'
loop_
 _atom_site_type_symbol
 _atom_site_label
 _atom_site_symmetry_multiplicity
 _atom_site_fract_x
 _atom_site_fract_y
 _atom_site_fract_z
 _atom_site_occupancy
  Mg  Mg0  1  0.00437600  0.00436500  0.00432300  1
  Mg  Mg1  1  0.50432300  0.50435700  0.50434500  1
  Ti  Ti0  1  0.14412300  0.14432300  0.14401900  1
  Ti  Ti1  1  0.64383300  0.64440800  0.64421600  1
  Sn  Sn0  1  0.35468600  0.35463700  0.35463300  1
  Sn  Sn1  1  0.85468200  0.85462500  0.85466200  1
  P  P0  1  0.04654900  0.45042800  0.74924600  1
  P  P1  1  0.45038100  0.74920900  0.04657300  1
  P  P2  1  0.74921500  0.04637200  0.45052200  1
  P  P3  1  0.24914600  0.95057900  0.54643800  1
  P  P4  1  0.54658300  0.24929300  0.95035700  1
  P  P5  1  0.95037500  0.54649600  0.24925500  1
  O  O0  1  0.10563000  0.51642000  0.31071600  1
  O  O1  1  0.31075200  0.10560700  0.51641800  1
  O  O2  1  0.05981700  0.25823900  0.90879800  1
  O  O3  1  0.51640500  0.31069600  0.10562200  1
  O  O4  1  0.01645100  0.60561700  0.81071400  1
  O  O5  1  0.24419400  0.43671900  0.59084700  1
  O  O6  1  0.25821100  0.90878200  0.05982400  1
  O  O7  1  0.43676200  0.59081300  0.24413000  1
  O  O8  1  0.18263900  0.99566300  0.39111200  1
  O  O9  1  0.59090000  0.24411400  0.43670500  1
  O  O10  1  0.09091100  0.93669800  0.74412000  1
  O  O11  1  0.39081000  0.18257700  0.99581500  1
  O  O12  1  0.60563500  0.81068700  0.01641100  1
  O  O13  1  0.90890800  0.05987300  0.25816800  1
  O  O14  1  0.40886700  0.75816500  0.55987200  1
  O  O15  1  0.81075000  0.01639300  0.60562800  1
  O  O16  1  0.55975400  0.40875400  0.75831200  1
  O  O17  1  0.74420800  0.09080100  0.93673300  1
  O  O18  1  0.75814700  0.55984300  0.40880800  1
  O  O19  1  0.99575200  0.39099400  0.18260000  1
  O  O20  1  0.49578200  0.68257300  0.89091500  1
  O  O21  1  0.93674800  0.74408500  0.09086600  1
  O  O22  1  0.68267600  0.89107800  0.49569500  1
  O  O23  1  0.89101700  0.49571800  0.68258300  1
loop_
_geom_bond_atom_site_label_1
_geom_bond_atom_site_label_2
_geom_bond_distance
_geom_bond_site_symmetry_2
Mg0 O6 2.143541 1_545
Mg0 O2 2.146457 1_554
Mg0 O13 2.147652 1_455
Mg0 O17 2.273373 1_454
Mg0 O21 2.277057 1_445
Mg0 O10 2.277696 1_544
Mg1 O18 2.144474 1_555
Mg1 O16 2.146467 1_555
Mg1 O14 2.147014 1_555
Mg1 O5 2.274125 1_555
Mg1 O7 2.275768 1_555
Mg1 O9 2.277426 1_555
O0 P5 1.538751 1_455
O0 Sn0 2.019531 1_555
O1 P3 1.539504 1_545
O1 Sn0 2.021900 1_555
O2 P0 1.554582 1_555
O2 Ti0 2.104993 1_556
O3 P4 1.540360 1_554
O3 Sn0 2.022685 1_555
O4 P0 1.540328 1_555
O4 Sn1 2.021849 1_455
O5 P0 1.579399 1_555
O5 Sn0 2.108712 1_555
O6 P1 1.553525 1_555
O6 Ti0 2.108274 1_565
O7 P1 1.579217 1_555
O7 Sn0 2.107192 1_555
O8 P3 1.519596 1_555
O8 Ti0 1.982903 1_565
O9 P2 1.579136 1_555
O9 Sn0 2.104884 1_555
O10 P3 1.579688 1_555
O10 Sn1 2.106192 1_455
O11 P4 1.522902 1_555
O11 Ti0 1.978190 1_556
O12 P1 1.539054 1_555
O12 Sn1 2.020919 1_554
O13 P2 1.556398 1_555
O13 Ti0 2.104863 1_655
O14 P3 1.555666 1_555
O14 Ti1 2.101704 1_555
O15 P2 1.539434 1_555
O15 Sn1 2.021375 1_545
O16 P4 1.553684 1_555
O16 Ti1 2.107794 1_555
O17 P4 1.578623 1_555
O17 Sn1 2.107969 1_545
O18 P5 1.554736 1_555
O18 Ti1 2.109204 1_555
O19 P5 1.522193 1_555
O19 Ti0 1.980523 1_655
O20 P1 1.523405 1_556
O20 Ti1 1.980082 1_555
O21 P5 1.579207 1_555
O21 Sn1 2.106506 1_554
O22 P2 1.519770 1_565
O22 Ti1 1.981300 1_555
O23 P0 1.520495 1_655
O23 Ti1 1.981065 1_555
