# generated using pymatgen
data_Nd2Fe17N2
_symmetry_space_group_name_H-M   'P 1'
_cell_length_a   6.51223453
_cell_length_b   6.51223453
_cell_length_c   6.54426950
_cell_angle_alpha   83.80299066
_cell_angle_beta   83.80299066
_cell_angle_gamma   83.75744772
_symmetry_Int_Tables_number   1
_chemical_formula_structural   Nd2Fe17N2
_chemical_formula_sum   'Nd2 Fe17 N2'
_cell_volume   272.97658711
_cell_formula_units_Z   1
loop_
 _symmetry_equiv_pos_site_id
 _symmetry_equiv_pos_as_xyz
  1  'x, y, z'
loop_
 _atom_site_type_symbol
 _atom_site_label
 _atom_site_symmetry_multiplicity
 _atom_site_fract_x
 _atom_site_fract_y
 _atom_site_fract_z
 _atom_site_occupancy
  Nd  Nd0  1  0.34355300  0.34355300  0.34142400  1
  Nd  Nd1  1  0.65644700  0.65644700  0.65857600  1
  Fe  Fe0  1  0.71760200  0.28239800  0.00000000  1
  Fe  Fe1  1  0.28370600  0.00001300  0.71677500  1
  Fe  Fe2  1  0.99998700  0.71629400  0.28322500  1
  Fe  Fe3  1  0.71629400  0.99998700  0.28322500  1
  Fe  Fe4  1  0.00001300  0.28370600  0.71677500  1
  Fe  Fe5  1  0.28239800  0.71760200  0.00000000  1
  Fe  Fe6  1  0.00000000  0.00000000  0.50000000  1
  Fe  Fe7  1  0.00000000  0.50000000  0.00000000  1
  Fe  Fe8  1  0.50000000  0.00000000  0.00000000  1
  Fe  Fe9  1  0.65615400  0.65615400  0.14241400  1
  Fe  Fe10  1  0.65668100  0.14497700  0.66147400  1
  Fe  Fe11  1  0.14497700  0.65668100  0.66147400  1
  Fe  Fe12  1  0.34384600  0.34384600  0.85758600  1
  Fe  Fe13  1  0.34331900  0.85502300  0.33852600  1
  Fe  Fe14  1  0.85502300  0.34331900  0.33852600  1
  Fe  Fe15  1  0.09549000  0.09549000  0.09350800  1
  Fe  Fe16  1  0.90451000  0.90451000  0.90649200  1
  N  N0  1  0.50000000  0.00000000  0.50000000  1
  N  N1  1  0.00000000  0.50000000  0.50000000  1
loop_
_geom_bond_atom_site_label_1
_geom_bond_atom_site_label_2
_geom_bond_distance
_geom_bond_site_symmetry_2
Fe0 Fe8 2.440683 1_555
Fe0 Fe7 2.440683 1_655
Fe0 Fe3 2.466166 1_545
Fe0 Fe4 2.466166 1_654
Fe0 Fe10 2.561503 1_554
Fe0 Fe14 2.561503 1_555
Fe0 Fe9 2.674033 1_555
Fe0 Fe12 2.674033 1_554
Fe0 Fe16 2.724870 1_544
Fe0 Fe15 2.724870 1_655
Fe0 Nd0 3.144947 1_555
Fe0 Nd1 3.144947 1_554
Fe1 N0 1.888160 1_555
Fe1 Fe8 2.446035 1_556
Fe1 Fe6 2.447841 1_555
Fe1 Fe5 2.466166 1_546
Fe1 Fe12 2.594286 1_555
Fe1 Fe15 2.734988 1_556
Fe1 Fe16 2.744386 1_445
Fe2 N1 1.888160 1_655
Fe2 Fe7 2.446035 1_655
Fe2 Fe6 2.447841 1_665
Fe2 Fe5 2.466166 1_655
Fe2 Fe9 2.594286 1_555
Fe3 N0 1.888160 1_565
Fe3 Fe8 2.446035 1_565
Fe3 Fe6 2.447841 1_665
Fe3 Fe9 2.594286 1_555
Fe4 N1 1.888160 1_555
Fe4 Fe7 2.446035 1_556
Fe4 Fe6 2.447841 1_555
Fe5 Fe8 2.440683 1_565
Fe5 Fe7 2.440683 1_555
Fe5 Fe9 2.674033 1_555
Fe5 Nd0 3.144947 1_555
Fe5 Nd1 3.144947 1_554
Fe6 Nd1 3.342754 1_445
Fe6 Nd0 3.342754 1_555
Fe7 Fe9 2.485079 1_455
Fe7 Nd0 3.335862 1_555
Fe7 Nd1 3.335862 1_454
Fe8 Fe9 2.485079 1_545
Fe8 Nd0 3.335862 1_555
Fe8 Nd1 3.335862 1_544
Fe9 Nd0 3.121065 1_555
Fe9 Nd1 3.165956 1_554
Fe9 Nd1 3.378316 1_555
Fe10 N0 1.925312 1_555
Fe10 Fe8 2.471922 1_556
Fe10 Fe6 2.500599 1_655
Fe10 Fe12 2.587538 1_555
Fe10 Fe16 2.663659 1_545
Fe11 N1 1.925312 1_555
Fe11 Fe7 2.471922 1_556
Fe11 Fe6 2.500599 1_565
Fe11 Fe5 2.561503 1_556
Fe11 Fe12 2.587538 1_555
Fe11 Fe16 2.663659 1_455
Fe12 Fe7 2.485079 1_556
Fe12 Fe8 2.485079 1_556
Fe12 Fe4 2.594286 1_555
Fe12 Fe15 2.665719 1_556
Fe12 Fe5 2.674033 1_556
Fe12 Nd1 3.121065 1_555
Fe12 Nd0 3.165956 1_556
Fe12 Nd0 3.378316 1_555
Fe13 N0 1.925312 1_565
Fe13 Fe8 2.471922 1_565
Fe13 Fe6 2.500599 1_565
Fe13 Fe5 2.561503 1_555
Fe13 Fe9 2.587538 1_555
Fe13 Fe15 2.663659 1_565
Fe14 N1 1.925312 1_655
Fe14 Fe7 2.471922 1_655
Fe14 Fe6 2.500599 1_655
Fe14 Fe9 2.587538 1_555
Fe14 Fe15 2.663659 1_655
Fe15 Fe16 2.363291 1_444
Fe15 Fe8 2.660526 1_555
Fe15 Fe7 2.660526 1_555
Fe15 Fe6 2.686976 1_555
Fe15 Fe5 2.724870 1_545
Fe15 Fe4 2.734988 1_554
Fe15 Fe2 2.744386 1_445
Fe15 Fe3 2.744386 1_445
Fe15 Nd0 3.090442 1_555
Fe16 Fe8 2.660526 1_566
Fe16 Fe7 2.660526 1_656
Fe16 Fe9 2.665719 1_556
Fe16 Fe6 2.686976 1_665
Fe16 Fe5 2.724870 1_656
Fe16 Fe2 2.734988 1_556
Fe16 Fe3 2.734988 1_556
Fe16 Fe4 2.744386 1_665
Fe16 Nd1 3.090442 1_555
N0 Nd1 2.520265 1_545
N0 Nd0 2.520265 1_555
N1 Nd1 2.520265 1_455
N1 Nd0 2.520265 1_555
