# generated using pymatgen
data_Li4(AlCu2)3
_symmetry_space_group_name_H-M   'P 1'
_cell_length_a   4.90362627
_cell_length_b   4.90362627
_cell_length_c   17.42854500
_cell_angle_alpha   90.00000000
_cell_angle_beta   90.00000000
_cell_angle_gamma   120.00000366
_symmetry_Int_Tables_number   1
_chemical_formula_structural   Li4(AlCu2)3
_chemical_formula_sum   'Li8 Al6 Cu12'
_cell_volume   362.93301289
_cell_formula_units_Z   2
loop_
 _symmetry_equiv_pos_site_id
 _symmetry_equiv_pos_as_xyz
  1  'x, y, z'
loop_
 _atom_site_type_symbol
 _atom_site_label
 _atom_site_symmetry_multiplicity
 _atom_site_fract_x
 _atom_site_fract_y
 _atom_site_fract_z
 _atom_site_occupancy
  Li  Li0  1  0.33333300  0.66666700  0.52132400  1
  Li  Li1  1  0.66666700  0.33333300  0.47867600  1
  Li  Li2  1  0.66666700  0.33333300  0.02132400  1
  Li  Li3  1  0.33333300  0.66666700  0.97867600  1
  Li  Li4  1  0.33333300  0.66666700  0.25000000  1
  Li  Li5  1  0.66666700  0.33333300  0.75000000  1
  Li  Li6  1  0.00000000  0.00000000  0.25000000  1
  Li  Li7  1  0.00000000  0.00000000  0.75000000  1
  Al  Al0  1  0.00000000  0.00000000  0.00000000  1
  Al  Al1  1  0.00000000  0.00000000  0.50000000  1
  Al  Al2  1  0.33333300  0.66666700  0.67139200  1
  Al  Al3  1  0.66666700  0.33333300  0.32860800  1
  Al  Al4  1  0.66666700  0.33333300  0.17139200  1
  Al  Al5  1  0.33333300  0.66666700  0.82860800  1
  Cu  Cu0  1  0.16852700  0.33705400  0.11705900  1
  Cu  Cu1  1  0.83147300  0.66294600  0.88294200  1
  Cu  Cu2  1  0.66294600  0.83147300  0.11705900  1
  Cu  Cu3  1  0.83147300  0.66294600  0.61705800  1
  Cu  Cu4  1  0.33705400  0.16852700  0.88294200  1
  Cu  Cu5  1  0.16852700  0.33705400  0.38294100  1
  Cu  Cu6  1  0.16852700  0.83147300  0.11705900  1
  Cu  Cu7  1  0.33705400  0.16852700  0.61705800  1
  Cu  Cu8  1  0.83147300  0.16852700  0.88294200  1
  Cu  Cu9  1  0.66294600  0.83147300  0.38294100  1
  Cu  Cu10  1  0.83147300  0.16852700  0.61705800  1
  Cu  Cu11  1  0.16852700  0.83147300  0.38294100  1
loop_
_geom_bond_atom_site_label_1
_geom_bond_atom_site_label_2
_geom_bond_distance
_geom_bond_site_symmetry_2
Li0 Li1 2.927055 1_455
Li0 Li1 2.927055 1_565
Li0 Li1 2.927063 1_555
Li2 Li3 2.927055 1_544
Li2 Li3 2.927055 1_654
Li2 Li3 2.927063 1_554
Al0 Cu1 2.492186 1_444
Al0 Cu4 2.492186 1_554
Al0 Cu8 2.492186 1_454
Al0 Cu2 2.492201 1_445
Al0 Cu0 2.492201 1_555
Al0 Cu6 2.492201 1_545
Al0 Li2 2.855396 1_455
Al0 Li3 2.855396 1_544
Al0 Li3 2.855400 1_444
Al0 Li2 2.855400 1_445
Al0 Li3 2.855400 1_554
Al0 Li2 2.855400 1_555
Al1 Cu3 2.492186 1_445
Al1 Cu7 2.492186 1_555
Al1 Cu10 2.492186 1_455
Al1 Cu9 2.492201 1_445
Al1 Cu5 2.492201 1_555
Al1 Cu11 2.492201 1_545
Al1 Li0 2.855396 1_545
Al1 Li1 2.855396 1_455
Al1 Li1 2.855400 1_555
Al1 Li0 2.855400 1_445
Al1 Li1 2.855400 1_445
Al1 Li0 2.855400 1_555
Al2 Li0 2.615467 1_555
Al2 Cu3 2.628377 1_455
Al2 Cu7 2.628377 1_565
Al2 Cu10 2.628379 1_455
Al2 Cu10 2.628379 1_565
Al2 Cu3 2.628381 1_555
Al2 Cu7 2.628381 1_555
Al2 Al5 2.740046 1_555
Al2 Li5 3.145176 1_455
Al2 Li5 3.145176 1_565
Al2 Li7 3.145176 1_565
Al2 Li7 3.145180 1_665
Al2 Li7 3.145180 1_555
Al2 Li5 3.145183 1_555
Al3 Li1 2.615467 1_555
Al3 Cu9 2.628370 1_545
Al3 Cu5 2.628370 1_655
Al3 Cu11 2.628372 1_545
Al3 Cu11 2.628372 1_655
Al3 Cu5 2.628375 1_555
Al3 Cu9 2.628375 1_555
Al3 Al4 2.740046 1_555
Al3 Li4 3.145176 1_545
Al3 Li4 3.145176 1_655
Al3 Li6 3.145176 1_655
Al3 Li6 3.145180 1_555
Al3 Li6 3.145180 1_665
Al3 Li4 3.145183 1_555
Al4 Li2 2.615467 1_555
Al4 Cu2 2.628370 1_545
Al4 Cu0 2.628370 1_655
Al4 Cu6 2.628372 1_545
Al4 Cu6 2.628372 1_655
Al4 Cu2 2.628375 1_555
Al4 Cu0 2.628375 1_555
Al4 Li4 3.145176 1_545
Al4 Li4 3.145176 1_655
Al4 Li6 3.145176 1_655
Al4 Li6 3.145180 1_555
Al4 Li6 3.145180 1_665
Al4 Li4 3.145183 1_555
Al5 Li3 2.615467 1_555
Al5 Cu1 2.628377 1_455
Al5 Cu4 2.628377 1_565
Al5 Cu8 2.628379 1_455
Al5 Cu8 2.628379 1_565
Al5 Cu4 2.628381 1_555
Al5 Cu1 2.628381 1_555
Al5 Li5 3.145176 1_455
Al5 Li5 3.145176 1_565
Al5 Li7 3.145176 1_565
Al5 Li7 3.145180 1_665
Al5 Li7 3.145180 1_555
Al5 Li5 3.145183 1_555
Cu0 Cu2 2.424446 1_555
Cu0 Cu6 2.424446 1_555
Cu0 Cu2 2.479180 1_445
Cu0 Cu6 2.479180 1_545
Cu0 Li4 2.706965 1_555
Cu0 Li6 2.723439 1_555
Cu0 Li3 2.788578 1_554
Cu0 Li2 2.965736 1_455
Cu0 Li2 2.965740 1_555
Cu1 Cu4 2.424446 1_555
Cu1 Cu8 2.424446 1_555
Cu1 Cu4 2.479180 1_665
Cu1 Cu8 2.479180 1_565
Cu1 Li5 2.706980 1_555
Cu1 Li7 2.723454 1_665
Cu1 Li2 2.788563 1_556
Cu1 Li3 2.965726 1_655
Cu1 Li3 2.965730 1_555
Cu2 Cu6 2.424446 1_555
Cu2 Cu6 2.479180 1_655
Cu2 Li4 2.706965 1_555
Cu2 Li6 2.723439 1_665
Cu2 Li3 2.788578 1_554
Cu2 Li2 2.965736 1_565
Cu2 Li2 2.965740 1_555
Cu3 Cu7 2.424446 1_555
Cu3 Cu7 2.479180 1_665
Cu3 Li5 2.706980 1_555
Cu3 Li7 2.723454 1_665
Cu3 Li1 2.788563 1_555
Cu3 Li0 2.965726 1_655
Cu3 Li0 2.965730 1_555
Cu4 Cu8 2.424446 1_555
Cu4 Cu8 2.479180 1_455
Cu4 Li5 2.706980 1_555
Cu4 Li7 2.723454 1_555
Cu4 Li2 2.788563 1_556
Cu4 Li3 2.965726 1_545
Cu4 Li3 2.965730 1_555
Cu5 Cu9 2.424446 1_555
Cu5 Cu9 2.479180 1_445
Cu5 Li4 2.706965 1_555
Cu5 Li6 2.723439 1_555
Cu5 Li0 2.788578 1_555
Cu5 Li1 2.965736 1_455
Cu5 Li1 2.965740 1_555
Cu6 Li4 2.706963 1_555
Cu6 Li6 2.723439 1_565
Cu6 Li3 2.788576 1_554
Cu6 Li2 2.965738 1_455
Cu6 Li2 2.965738 1_565
Cu7 Li5 2.706980 1_555
Cu7 Li7 2.723454 1_555
Cu7 Li1 2.788563 1_555
Cu7 Li0 2.965726 1_545
Cu7 Li0 2.965730 1_555
Cu8 Li5 2.706978 1_555
Cu8 Li7 2.723454 1_655
Cu8 Li2 2.788560 1_556
Cu8 Li3 2.965728 1_545
Cu8 Li3 2.965728 1_655
Cu9 Li4 2.706965 1_555
Cu9 Li6 2.723439 1_665
Cu9 Li0 2.788578 1_555
Cu9 Li1 2.965736 1_565
Cu9 Li1 2.965740 1_555
Cu10 Cu7 2.424446 1_555
Cu10 Cu3 2.424446 1_555
Cu10 Cu7 2.479180 1_655
Cu10 Cu3 2.479180 1_545
Cu10 Li5 2.706978 1_555
Cu10 Li7 2.723454 1_655
Cu10 Li1 2.788560 1_555
Cu10 Li0 2.965728 1_545
Cu10 Li0 2.965728 1_655
Cu11 Cu5 2.424446 1_555
Cu11 Cu9 2.424446 1_555
Cu11 Cu9 2.479180 1_455
Cu11 Cu5 2.479180 1_565
Cu11 Li4 2.706963 1_555
Cu11 Li6 2.723439 1_565
Cu11 Li0 2.788576 1_555
Cu11 Li1 2.965738 1_455
Cu11 Li1 2.965738 1_565
