# generated using pymatgen
data_Ca8Zn4Si3Ge5O28
_symmetry_space_group_name_H-M   'P 1'
_cell_length_a   8.02418100
_cell_length_b   9.20778932
_cell_length_c   9.49827829
_cell_angle_alpha   66.22972714
_cell_angle_beta   89.90461837
_cell_angle_gamma   89.95135845
_symmetry_Int_Tables_number   1
_chemical_formula_structural   Ca8Zn4Si3Ge5O28
_chemical_formula_sum   'Ca8 Zn4 Si3 Ge5 O28'
_cell_volume   642.24633146
_cell_formula_units_Z   1
loop_
 _symmetry_equiv_pos_site_id
 _symmetry_equiv_pos_as_xyz
  1  'x, y, z'
loop_
 _atom_site_type_symbol
 _atom_site_label
 _atom_site_symmetry_multiplicity
 _atom_site_fract_x
 _atom_site_fract_y
 _atom_site_fract_z
 _atom_site_occupancy
  Ca  Ca0  1  0.06899700  0.21233100  0.70168300  1
  Ca  Ca1  1  0.43204100  0.71050800  0.20322000  1
  Ca  Ca2  1  0.93333700  0.78738000  0.29993300  1
  Ca  Ca3  1  0.56691600  0.29070100  0.79644200  1
  Ca  Ca4  1  0.78315000  0.04199200  0.52856800  1
  Ca  Ca5  1  0.71673400  0.54003700  0.03042300  1
  Ca  Ca6  1  0.21647300  0.95860200  0.47017300  1
  Ca  Ca7  1  0.28297600  0.45818600  0.97028200  1
  Zn  Zn0  1  0.59607500  0.66837900  0.61390400  1
  Zn  Zn1  1  0.90570400  0.16935100  0.11627600  1
  Zn  Zn2  1  0.40417900  0.33146900  0.38603100  1
  Zn  Zn3  1  0.09850000  0.83024200  0.88592800  1
  Si  Si0  1  0.27035100  0.53021400  0.57833900  1
  Si  Si1  1  0.22994300  0.03031300  0.07809300  1
  Si  Si2  1  0.72960800  0.46974000  0.42174700  1
  Ge  Ge0  1  0.77057600  0.96787800  0.92484800  1
  Ge  Ge1  1  0.95742400  0.62957600  0.70745000  1
  Ge  Ge2  1  0.54230500  0.12973400  0.20737900  1
  Ge  Ge3  1  0.04268400  0.37074900  0.29278400  1
  Ge  Ge4  1  0.45502500  0.86969100  0.79120600  1
  O  O0  1  0.95640800  0.81271000  0.54523300  1
  O  O1  1  0.54314600  0.31301800  0.04569700  1
  O  O2  1  0.04383700  0.18718100  0.45403700  1
  O  O3  1  0.45666600  0.68702800  0.95440900  1
  O  O4  1  0.07684900  0.48994600  0.65556400  1
  O  O5  1  0.42360200  0.98956700  0.15553600  1
  O  O6  1  0.92344500  0.50993100  0.34495400  1
  O  O7  1  0.56420000  0.01552000  0.84027300  1
  O  O8  1  0.39808100  0.53202700  0.71500600  1
  O  O9  1  0.10201800  0.03146600  0.21534400  1
  O  O10  1  0.60160400  0.46773300  0.28530500  1
  O  O11  1  0.90630200  0.96917600  0.77616600  1
  O  O12  1  0.56572800  0.86746600  0.63134000  1
  O  O13  1  0.93504400  0.36867100  0.13184000  1
  O  O14  1  0.43469500  0.13199000  0.36869600  1
  O  O15  1  0.06526300  0.63154600  0.86866400  1
  O  O16  1  0.22801600  0.19566500  0.92709600  1
  O  O17  1  0.27216100  0.69560900  0.42692500  1
  O  O18  1  0.77122000  0.78863600  0.08602300  1
  O  O19  1  0.72785000  0.30438700  0.57300200  1
  O  O20  1  0.68420800  0.63767900  0.43713300  1
  O  O21  1  0.81902500  0.15176900  0.93283400  1
  O  O22  1  0.31571200  0.36224000  0.56308900  1
  O  O23  1  0.18359600  0.86225100  0.06307800  1
  O  O24  1  0.76103000  0.54492000  0.77817500  1
  O  O25  1  0.73866800  0.04405600  0.27783600  1
  O  O26  1  0.23905100  0.45562900  0.22172200  1
  O  O27  1  0.25957400  0.95511100  0.72031400  1
loop_
_geom_bond_atom_site_label_1
_geom_bond_atom_site_label_2
_geom_bond_distance
_geom_bond_site_symmetry_2
Ca0 O4 2.414047 1_555
Ca0 O11 2.437741 1_445
Ca0 O16 2.445332 1_555
Ca0 O2 2.463343 1_555
Ca0 O22 2.467496 1_555
Ca0 O27 2.763362 1_545
Ca0 O21 2.855682 1_455
Ca0 O19 2.979579 1_455
Ca1 O5 2.423587 1_555
Ca1 O17 2.436336 1_555
Ca1 O10 2.459591 1_555
Ca1 O3 2.465993 1_554
Ca1 O23 2.490619 1_555
Ca1 O26 2.758550 1_555
Ca1 O20 2.879555 1_555
Ca1 O18 2.917470 1_555
Ca2 O18 2.410458 1_555
Ca2 O6 2.415612 1_555
Ca2 O0 2.440658 1_555
Ca2 O9 2.464680 1_665
Ca2 O20 2.478391 1_555
Ca2 O25 2.768532 1_565
Ca2 O23 2.882026 1_655
Ca2 O17 2.957384 1_655
Ca3 O7 2.396596 1_555
Ca3 O19 2.441964 1_555
Ca3 O8 2.446246 1_555
Ca3 O1 2.464599 1_556
Ca3 O21 2.464860 1_555
Ca3 O24 2.759247 1_555
Ca3 O22 2.871460 1_555
Ca3 O16 2.969559 1_555
Ca4 O12 2.305121 1_545
Ca4 O11 2.385856 1_545
Ca4 O25 2.401196 1_555
Ca4 O2 2.429174 1_655
Ca4 O0 2.478164 1_545
Ca4 O19 2.651798 1_555
Ca5 O13 2.293898 1_555
Ca5 O24 2.403986 1_554
Ca5 O10 2.419075 1_555
Ca5 O3 2.433203 1_554
Ca5 O1 2.467905 1_555
Ca5 O18 2.585876 1_555
Ca6 O14 2.302761 1_565
Ca6 O27 2.388878 1_555
Ca6 O9 2.418547 1_565
Ca6 O0 2.428038 1_455
Ca6 O2 2.471427 1_565
Ca6 O17 2.651781 1_555
Ca7 O15 2.300089 1_555
Ca7 O26 2.404244 1_556
Ca7 O8 2.420553 1_555
Ca7 O1 2.426206 1_556
Ca7 O3 2.480598 1_555
Ca7 O16 2.647171 1_555
Ge0 O18 1.740902 1_556
Ge0 O21 1.768805 1_565
Ge0 O11 1.778181 1_555
Ge0 O7 1.816370 1_565
Ge1 O24 1.766007 1_555
Ge1 O15 1.766545 1_655
Ge1 O0 1.767225 1_555
Ge1 O4 1.822443 1_655
Ge2 O14 1.764935 1_555
Ge2 O1 1.765574 1_555
Ge2 O25 1.768814 1_555
Ge2 O5 1.825218 1_545
Ge3 O13 1.763883 1_455
Ge3 O2 1.765213 1_555
Ge3 O26 1.767055 1_555
Ge3 O6 1.819799 1_455
Ge4 O27 1.762437 1_555
Ge4 O12 1.765149 1_555
Ge4 O3 1.769246 1_555
Ge4 O7 1.815351 1_565
O4 Si0 1.692427 1_555
O5 Si1 1.696157 1_565
O6 Si2 1.693456 1_555
O8 Si0 1.660648 1_555
O8 Zn0 2.012194 1_555
O9 Si1 1.661320 1_555
O9 Zn1 2.004311 1_455
O10 Si2 1.660911 1_555
O10 Zn2 2.007441 1_555
O11 Zn3 2.007182 1_655
O12 Zn0 1.921201 1_555
O13 Zn1 1.914461 1_555
O14 Zn2 1.924490 1_555
O15 Zn3 1.920442 1_555
O16 Si1 1.617100 1_556
O17 Si0 1.619315 1_555
O19 Si2 1.618318 1_555
O20 Si2 1.651151 1_555
O20 Zn0 1.943569 1_555
O21 Zn1 1.943576 1_556
O22 Si0 1.650795 1_555
O22 Zn2 1.947377 1_555
O23 Si1 1.652999 1_565
O23 Zn3 1.946350 1_554
O24 Zn0 2.013266 1_555
O25 Zn1 2.012683 1_555
O26 Zn2 2.016011 1_555
O27 Zn3 2.001175 1_555
