# generated using pymatgen
data_KC10
_symmetry_space_group_name_H-M   'P 1'
_cell_length_a   9.99436617
_cell_length_b   9.99436617
_cell_length_c   9.99436617
_cell_angle_alpha   109.47122063
_cell_angle_beta   109.47122063
_cell_angle_gamma   109.47122063
_symmetry_Int_Tables_number   1
_chemical_formula_structural   KC10
_chemical_formula_sum   'K6 C60'
_cell_volume   768.50001503
_cell_formula_units_Z   6
loop_
 _symmetry_equiv_pos_site_id
 _symmetry_equiv_pos_as_xyz
  1  'x, y, z'
loop_
 _atom_site_type_symbol
 _atom_site_label
 _atom_site_symmetry_multiplicity
 _atom_site_fract_x
 _atom_site_fract_y
 _atom_site_fract_z
 _atom_site_occupancy
  K  K0  1  0.27951600  0.50000000  0.77951600  1
  K  K1  1  0.50000000  0.77951600  0.27951600  1
  K  K2  1  0.22048400  0.72048400  0.50000000  1
  K  K3  1  0.50000000  0.22048400  0.72048400  1
  K  K4  1  0.77951600  0.27951600  0.50000000  1
  K  K5  1  0.72048400  0.50000000  0.22048400  1
  C  C0  1  0.36554400  0.06203200  0.30351200  1
  C  C1  1  0.93796800  0.30351200  0.24148000  1
  C  C2  1  0.69648800  0.63445600  0.93796800  1
  C  C3  1  0.06203200  0.69648800  0.75852000  1
  C  C4  1  0.30351200  0.24148000  0.93796800  1
  C  C5  1  0.93796800  0.69648800  0.63445600  1
  C  C6  1  0.69648800  0.75852000  0.06203200  1
  C  C7  1  0.30351200  0.36554400  0.06203200  1
  C  C8  1  0.06203200  0.30351200  0.36554400  1
  C  C9  1  0.24148000  0.93796800  0.30351200  1
  C  C10  1  0.63445600  0.93796800  0.69648800  1
  C  C11  1  0.75852000  0.06203200  0.69648800  1
  C  C12  1  0.38881100  0.22611700  0.36575500  1
  C  C13  1  0.77388300  0.16269400  0.13963800  1
  C  C14  1  0.83730600  0.61118900  0.97694400  1
  C  C15  1  0.02305600  0.63424500  0.86036200  1
  C  C16  1  0.16269400  0.13963800  0.77388300  1
  C  C17  1  0.97694400  0.83730600  0.61118900  1
  C  C18  1  0.63424500  0.86036200  0.02305600  1
  C  C19  1  0.36575500  0.38881100  0.22611700  1
  C  C20  1  0.22611700  0.36575500  0.38881100  1
  C  C21  1  0.13963800  0.77388300  0.16269400  1
  C  C22  1  0.61118900  0.97694400  0.83730600  1
  C  C23  1  0.86036200  0.02305600  0.63424500  1
  C  C24  1  0.61118900  0.77388300  0.63424500  1
  C  C25  1  0.22611700  0.83730600  0.86036200  1
  C  C26  1  0.16269400  0.38881100  0.02305600  1
  C  C27  1  0.97694400  0.36575500  0.13963800  1
  C  C28  1  0.83730600  0.86036200  0.22611700  1
  C  C29  1  0.02305600  0.16269400  0.38881100  1
  C  C30  1  0.36575500  0.13963800  0.97694400  1
  C  C31  1  0.63424500  0.61118900  0.77388300  1
  C  C32  1  0.77388300  0.63424500  0.61118900  1
  C  C33  1  0.86036200  0.22611700  0.83730600  1
  C  C34  1  0.38881100  0.02305600  0.16269400  1
  C  C35  1  0.13963800  0.97694400  0.36575500  1
  C  C36  1  0.28816800  0.26379000  0.42669800  1
  C  C37  1  0.73621000  0.02437800  0.16290900  1
  C  C38  1  0.97562200  0.71183200  0.13853100  1
  C  C39  1  0.86146900  0.57330200  0.83709100  1
  C  C40  1  0.02437800  0.16290900  0.73621000  1
  C  C41  1  0.13853100  0.97562200  0.71183200  1
  C  C42  1  0.57330200  0.83709100  0.86146900  1
  C  C43  1  0.42669800  0.28816800  0.26379000  1
  C  C44  1  0.26379000  0.42669800  0.28816800  1
  C  C45  1  0.16290900  0.73621000  0.02437800  1
  C  C46  1  0.71183200  0.13853100  0.97562200  1
  C  C47  1  0.83709100  0.86146900  0.57330200  1
  C  C48  1  0.71183200  0.73621000  0.57330200  1
  C  C49  1  0.26379000  0.97562200  0.83709100  1
  C  C50  1  0.02437800  0.28816800  0.86146900  1
  C  C51  1  0.13853100  0.42669800  0.16290900  1
  C  C52  1  0.97562200  0.83709100  0.26379000  1
  C  C53  1  0.86146900  0.02437800  0.28816800  1
  C  C54  1  0.42669800  0.16290900  0.13853100  1
  C  C55  1  0.57330200  0.71183200  0.73621000  1
  C  C56  1  0.73621000  0.57330200  0.71183200  1
  C  C57  1  0.83709100  0.26379000  0.97562200  1
  C  C58  1  0.28816800  0.86146900  0.02437800  1
  C  C59  1  0.16290900  0.13853100  0.42669800  1
loop_
_geom_bond_atom_site_label_1
_geom_bond_atom_site_label_2
_geom_bond_distance
_geom_bond_site_symmetry_2
C0 C9 1.431761 1_545
C0 C12 1.449011 1_555
C0 C34 1.449011 1_555
C0 K4 3.382505 1_555
C0 K1 3.482645 1_545
C0 K3 3.482645 1_555
C1 C8 1.431761 1_655
C1 C27 1.449011 1_555
C1 C13 1.449011 1_555
C1 K5 3.382505 1_555
C1 K2 3.482645 1_655
C1 K4 3.482645 1_555
C2 C6 1.431761 1_556
C2 C31 1.449011 1_555
C2 K3 3.382505 1_555
C2 K5 3.482645 1_556
C2 K0 3.482645 1_555
C3 C5 1.431761 1_455
C3 K0 3.382505 1_555
C3 K2 3.482645 1_555
C3 K4 3.482645 1_455
C4 C7 1.431761 1_556
C4 K3 3.382505 1_555
C4 K5 3.482645 1_556
C4 K0 3.482645 1_555
C5 K5 3.382505 1_555
C5 K2 3.482645 1_655
C5 K4 3.482645 1_555
C6 K1 3.382505 1_555
C6 K5 3.482645 1_555
C6 K0 3.482645 1_554
C7 K1 3.382505 1_555
C7 K5 3.482645 1_555
C7 K0 3.482645 1_554
C8 K0 3.382505 1_555
C8 K4 3.482645 1_455
C8 K2 3.482645 1_555
C9 K2 3.382505 1_555
C9 K1 3.482645 1_555
C9 K3 3.482645 1_565
C10 C11 1.431761 1_565
C10 C24 1.449011 1_555
C10 C22 1.449011 1_555
C10 K2 3.382505 1_555
C10 K3 3.482645 1_565
C10 K1 3.482645 1_555
C11 C33 1.449011 1_555
C11 C23 1.449011 1_555
C11 K4 3.382505 1_555
C11 K3 3.482645 1_555
C11 K1 3.482645 1_545
C12 C36 1.425674 1_555
C12 C43 1.445172 1_555
C12 K3 3.369783 1_555
C12 K4 3.460258 1_555
C13 C37 1.425680 1_555
C13 C46 1.445176 1_554
C13 K4 3.369783 1_555
C13 K5 3.460258 1_555
C14 C38 1.425680 1_556
C14 C39 1.445176 1_555
C14 C2 1.449011 1_555
C14 K5 3.369783 1_556
C14 K3 3.460258 1_555
C15 C39 1.425680 1_455
C15 C45 1.445176 1_556
C15 C3 1.449011 1_555
C15 K4 3.369783 1_455
C15 K0 3.460258 1_555
C16 C40 1.425680 1_555
C16 C41 1.445176 1_545
C16 C4 1.449011 1_555
C16 K0 3.369783 1_555
C16 K3 3.460258 1_555
C17 C41 1.425680 1_655
C17 C47 1.445176 1_555
C17 C5 1.449011 1_555
C17 K2 3.369783 1_655
C17 K5 3.460258 1_555
C18 C42 1.425680 1_554
C18 C37 1.445176 1_565
C18 C6 1.449011 1_555
C18 K0 3.369783 1_554
C18 K1 3.460258 1_555
C19 C43 1.425674 1_555
C19 C44 1.445172 1_555
C19 C7 1.449011 1_555
C19 K5 3.369783 1_555
C19 K1 3.460258 1_555
C20 C44 1.425674 1_555
C20 C36 1.445172 1_555
C20 C8 1.449011 1_555
C20 K2 3.369783 1_555
C20 K0 3.460258 1_555
C21 C45 1.425680 1_555
C21 C38 1.445176 1_455
C21 C9 1.449011 1_555
C21 K1 3.369783 1_555
C21 K2 3.460258 1_555
C22 C46 1.425680 1_565
C22 C42 1.445176 1_555
C22 K3 3.369783 1_565
C22 K2 3.460258 1_555
C23 C47 1.425680 1_545
C23 C40 1.445176 1_655
C23 K1 3.369783 1_545
C23 K4 3.460258 1_555
C24 C48 1.425674 1_555
C24 C55 1.445172 1_555
C24 K1 3.369783 1_555
C24 K2 3.460258 1_555
C25 C49 1.425680 1_555
C25 C58 1.445176 1_556
C25 C3 1.449011 1_555
C25 K2 3.369783 1_555
C25 K0 3.460258 1_555
C26 C50 1.425680 1_554
C26 C51 1.445176 1_555
C26 C7 1.449011 1_555
C26 K0 3.369783 1_554
C26 K1 3.460258 1_555
C27 C51 1.425680 1_655
C27 C57 1.445176 1_554
C27 K2 3.369783 1_655
C27 K5 3.460258 1_555
C28 C52 1.425680 1_555
C28 C53 1.445176 1_565
C28 C6 1.449011 1_555
C28 K5 3.369783 1_555
C28 K1 3.460258 1_555
C29 C53 1.425680 1_455
C29 C59 1.445176 1_555
C29 C8 1.449011 1_555
C29 K4 3.369783 1_455
C29 K0 3.460258 1_555
C30 C54 1.425680 1_556
C30 C49 1.445176 1_545
C30 C4 1.449011 1_555
C30 K5 3.369783 1_556
C30 K3 3.460258 1_555
C31 C55 1.425674 1_555
C31 C56 1.445172 1_555
C31 K0 3.369783 1_555
C31 K3 3.460258 1_555
C32 C56 1.425674 1_555
C32 C48 1.445172 1_555
C32 C5 1.449011 1_555
C32 K4 3.369783 1_555
C32 K5 3.460258 1_555
C33 C57 1.425680 1_555
C33 C50 1.445176 1_655
C33 K3 3.369783 1_555
C33 K4 3.460258 1_555
C34 C58 1.425680 1_545
C34 C54 1.445176 1_555
C34 K1 3.369783 1_545
C34 K4 3.460258 1_555
C35 C59 1.425680 1_565
C35 C52 1.445176 1_455
C35 C9 1.449011 1_555
C35 K3 3.369783 1_565
C35 K2 3.460258 1_555
C36 C59 1.445551 1_555
C36 K3 3.256494 1_555
C37 C53 1.445551 1_555
C37 K4 3.256486 1_555
C38 C52 1.445551 1_555
C38 K5 3.256486 1_555
C39 C56 1.445551 1_555
C39 K4 3.256491 1_555
C40 C50 1.445551 1_555
C40 K0 3.256486 1_555
C41 C49 1.445551 1_555
C41 K2 3.256486 1_555
C42 C55 1.445551 1_555
C42 K0 3.256491 1_555
C43 C54 1.445551 1_555
C43 K5 3.256494 1_555
C44 C51 1.445551 1_555
C44 K2 3.256494 1_555
C45 C58 1.445551 1_555
C45 K1 3.256486 1_555
C46 C57 1.445551 1_555
C46 K3 3.256486 1_555
C47 C48 1.445551 1_555
C47 K1 3.256491 1_555
C48 K1 3.256494 1_555
C49 K2 3.256486 1_555
C50 K0 3.256486 1_555
C51 K2 3.256491 1_555
C52 K5 3.256486 1_555
C53 K4 3.256486 1_555
C54 K5 3.256491 1_555
C55 K0 3.256494 1_555
C56 K4 3.256494 1_555
C57 K3 3.256486 1_555
C58 K1 3.256486 1_555
C59 K3 3.256491 1_555
