# generated using pymatgen
data_Ba10Nd4Y(MoO6)5
_symmetry_space_group_name_H-M   'P 1'
_cell_length_a   6.06181600
_cell_length_b   6.11254006
_cell_length_c   25.08468801
_cell_angle_alpha   84.00584713
_cell_angle_beta   83.12170283
_cell_angle_gamma   60.31099506
_symmetry_Int_Tables_number   1
_chemical_formula_structural   Ba10Nd4Y(MoO6)5
_chemical_formula_sum   'Ba10 Nd4 Y1 Mo5 O30'
_cell_volume   800.54252918
_cell_formula_units_Z   1
loop_
 _symmetry_equiv_pos_site_id
 _symmetry_equiv_pos_as_xyz
  1  'x, y, z'
loop_
 _atom_site_type_symbol
 _atom_site_label
 _atom_site_symmetry_multiplicity
 _atom_site_fract_x
 _atom_site_fract_y
 _atom_site_fract_z
 _atom_site_occupancy
  Ba  Ba0  1  0.25116300  0.24752700  0.75104400  1
  Ba  Ba1  1  0.45094400  0.45047000  0.14748100  1
  Ba  Ba2  1  0.65230400  0.65075100  0.54996200  1
  Ba  Ba3  1  0.84832900  0.85136700  0.95168600  1
  Ba  Ba4  1  0.04821000  0.04744800  0.34994600  1
  Ba  Ba5  1  0.54905600  0.54953000  0.85251900  1
  Ba  Ba6  1  0.74883700  0.75247300  0.24895600  1
  Ba  Ba7  1  0.95179000  0.95255200  0.65005400  1
  Ba  Ba8  1  0.15167100  0.14863300  0.04831400  1
  Ba  Ba9  1  0.34769600  0.34924900  0.45003800  1
  Nd  Nd0  1  0.90153800  0.90028100  0.80130500  1
  Nd  Nd1  1  0.29781600  0.30010700  0.59992800  1
  Nd  Nd2  1  0.70218400  0.69989300  0.40007200  1
  Nd  Nd3  1  0.09846200  0.09971900  0.19869500  1
  Y  Y0  1  0.50000000  0.50000000  0.00000000  1
  Mo  Mo0  1  0.19845000  0.19988700  0.90202100  1
  Mo  Mo1  1  0.39945400  0.39971400  0.29947000  1
  Mo  Mo2  1  0.60054600  0.60028600  0.70053000  1
  Mo  Mo3  1  0.80155000  0.80011300  0.09797900  1
  Mo  Mo4  1  0.00000000  0.00000000  0.50000000  1
  O  O0  1  0.74109600  0.27065000  0.74698500  1
  O  O1  1  0.93939400  0.47489200  0.14524000  1
  O  O2  1  0.14312600  0.67268000  0.54690300  1
  O  O3  1  0.34269200  0.86678000  0.94870500  1
  O  O4  1  0.53738200  0.07284700  0.34656000  1
  O  O5  1  0.06060600  0.52510800  0.85476000  1
  O  O6  1  0.25890400  0.72935000  0.25301500  1
  O  O7  1  0.46261800  0.92715300  0.65344000  1
  O  O8  1  0.65730800  0.13322000  0.05129500  1
  O  O9  1  0.85687400  0.32732000  0.45309700  1
  O  O10  1  0.90076200  0.43645300  0.64548000  1
  O  O11  1  0.29032900  0.84090300  0.44682500  1
  O  O12  1  0.70079800  0.23438800  0.24474400  1
  O  O13  1  0.11242500  0.64252500  0.04613500  1
  O  O14  1  0.50110000  0.04369900  0.84962800  1
  O  O15  1  0.29920200  0.76561200  0.75525600  1
  O  O16  1  0.70967100  0.15909700  0.55317500  1
  O  O17  1  0.09923800  0.56354700  0.35452000  1
  O  O18  1  0.49890000  0.95630100  0.15037200  1
  O  O19  1  0.88757500  0.35747500  0.95386500  1
  O  O20  1  0.41804800  0.48345300  0.66172300  1
  O  O21  1  0.80512900  0.88360900  0.46091400  1
  O  O22  1  0.21657400  0.28234300  0.26069600  1
  O  O23  1  0.61310800  0.68151500  0.05904200  1
  O  O24  1  0.00642000  0.08761300  0.86374500  1
  O  O25  1  0.38689200  0.31848500  0.94095800  1
  O  O26  1  0.78342600  0.71765700  0.73930400  1
  O  O27  1  0.19487100  0.11639100  0.53908600  1
  O  O28  1  0.58195200  0.51654700  0.33827700  1
  O  O29  1  0.99358000  0.91238700  0.13625500  1
loop_
_geom_bond_atom_site_label_1
_geom_bond_atom_site_label_2
_geom_bond_distance
_geom_bond_site_symmetry_2
Ba0 O15 2.804620 1_545
Ba0 O26 2.887220 1_455
Ba0 O14 2.889163 1_555
Ba0 O20 2.889755 1_555
Ba0 O0 3.031655 1_555
Ba0 O0 3.038073 1_455
Ba0 O7 3.039015 1_545
Ba0 O5 3.040164 1_555
Ba0 O26 3.256838 1_545
Ba0 O24 3.317166 1_555
Ba0 O15 3.333982 1_555
Ba0 O10 3.337080 1_455
Ba1 O29 2.829231 1_455
Ba1 O23 2.842694 1_555
Ba1 O12 2.867329 1_555
Ba1 O18 2.881567 1_545
Ba1 O8 2.999704 1_555
Ba1 O1 3.031264 1_555
Ba1 O1 3.036876 1_455
Ba1 O6 3.083471 1_555
Ba1 O13 3.208096 1_555
Ba1 O18 3.254524 1_555
Ba1 O29 3.312345 1_545
Ba1 O22 3.318170 1_555
Ba2 O10 2.824852 1_555
Ba2 O21 2.832003 1_555
Ba2 O27 2.839969 1_565
Ba2 O16 2.842512 1_555
Ba2 O7 3.031664 1_555
Ba2 O2 3.032384 1_555
Ba2 O9 3.033703 1_555
Ba2 O2 3.035511 1_655
Ba2 O20 3.287538 1_555
Ba2 O27 3.299992 1_655
Ba2 O16 3.303338 1_565
Ba2 O11 3.326305 1_555
Ba3 O13 2.838682 1_656
Ba3 O24 2.840630 1_665
Ba3 O25 2.856125 1_565
Ba3 O19 2.903576 1_555
Ba3 O8 2.963479 1_566
Ba3 O3 3.029282 1_555
Ba3 O3 3.036351 1_655
Ba3 O5 3.043964 1_655
Ba3 O23 3.213406 1_556
Ba3 O19 3.224509 1_565
Ba3 O14 3.252292 1_565
Ba3 O25 3.283159 1_655
Ba4 O17 2.808756 1_545
Ba4 O11 2.834043 1_545
Ba4 O28 2.879381 1_455
Ba4 O22 2.889348 1_555
Ba4 O6 3.017877 1_545
Ba4 O4 3.033799 1_455
Ba4 O9 3.034339 1_455
Ba4 O4 3.035967 1_555
Ba4 O28 3.264308 1_545
Ba4 O21 3.289336 1_445
Ba4 O12 3.320003 1_455
Ba4 O17 3.333398 1_555
Ba5 O24 2.829231 1_655
Ba5 O25 2.842694 1_555
Ba5 O15 2.867329 1_555
Ba5 O14 2.881567 1_565
Ba5 O3 2.999704 1_555
Ba5 O5 3.031264 1_555
Ba5 O5 3.036876 1_655
Ba5 O0 3.083471 1_555
Ba5 O19 3.208096 1_555
Ba5 O14 3.254524 1_555
Ba5 O24 3.312345 1_565
Ba5 O26 3.318170 1_555
Ba6 O12 2.804620 1_565
Ba6 O22 2.887220 1_655
Ba6 O18 2.889163 1_555
Ba6 O28 2.889755 1_555
Ba6 O6 3.031655 1_555
Ba6 O6 3.038073 1_655
Ba6 O4 3.039015 1_565
Ba6 O1 3.040164 1_555
Ba6 O22 3.256838 1_565
Ba6 O29 3.317166 1_555
Ba6 O12 3.333982 1_555
Ba6 O17 3.337080 1_655
Ba7 O10 2.808756 1_565
Ba7 O16 2.834043 1_565
Ba7 O20 2.879381 1_655
Ba7 O26 2.889348 1_555
Ba7 O0 3.017877 1_565
Ba7 O7 3.033799 1_655
Ba7 O2 3.034339 1_655
Ba7 O7 3.035967 1_555
Ba7 O20 3.264308 1_565
Ba7 O27 3.289336 1_665
Ba7 O15 3.320003 1_655
Ba7 O10 3.333398 1_555
Ba8 O19 2.838682 1_454
Ba8 O29 2.840630 1_445
Ba8 O23 2.856125 1_545
Ba8 O13 2.903576 1_555
Ba8 O3 2.963479 1_544
Ba8 O8 3.029282 1_555
Ba8 O8 3.036351 1_455
Ba8 O1 3.043964 1_455
Ba8 O25 3.213406 1_554
Ba8 O13 3.224509 1_545
Ba8 O18 3.252292 1_545
Ba8 O23 3.283159 1_455
Ba9 O17 2.824852 1_555
Ba9 O27 2.832003 1_555
Ba9 O21 2.839969 1_545
Ba9 O11 2.842512 1_555
Ba9 O4 3.031664 1_555
Ba9 O9 3.032384 1_555
Ba9 O2 3.033703 1_555
Ba9 O9 3.035511 1_455
Ba9 O28 3.287538 1_555
Ba9 O21 3.299992 1_455
Ba9 O11 3.303338 1_545
Ba9 O16 3.326305 1_555
Nd0 O15 2.321373 1_655
Nd0 O0 2.328064 1_565
Nd0 O5 2.337486 1_655
Nd0 O24 2.345830 1_665
Nd0 O14 2.353570 1_565
Nd0 O26 2.366146 1_555
Nd1 O27 2.293474 1_555
Nd1 O10 2.312224 1_455
Nd1 O2 2.320690 1_555
Nd1 O7 2.328729 1_545
Nd1 O20 2.373299 1_555
Nd1 O16 2.393636 1_555
Nd2 O21 2.293474 1_555
Nd2 O17 2.312224 1_655
Nd2 O9 2.320690 1_555
Nd2 O4 2.328729 1_565
Nd2 O28 2.373299 1_555
Nd2 O11 2.393636 1_555
Nd3 O12 2.321373 1_455
Nd3 O6 2.328064 1_545
Nd3 O1 2.337486 1_455
Nd3 O29 2.345830 1_445
Nd3 O18 2.353570 1_545
Nd3 O22 2.366146 1_555
Mo0 O24 1.986083 1_555
Mo0 O14 1.988479 1_555
Mo0 O25 2.004940 1_555
Mo0 O19 2.011679 1_455
Mo0 O5 2.038417 1_555
Mo0 O3 2.065286 1_545
Mo1 O28 1.966520 1_555
Mo1 O22 1.970163 1_555
Mo1 O12 2.025605 1_555
Mo1 O17 2.025647 1_555
Mo1 O4 2.043330 1_555
Mo1 O6 2.047096 1_555
Mo2 O20 1.966520 1_555
Mo2 O26 1.970163 1_555
Mo2 O15 2.025605 1_555
Mo2 O10 2.025647 1_555
Mo2 O7 2.043330 1_555
Mo2 O0 2.047096 1_555
Mo3 O29 1.986083 1_555
Mo3 O18 1.988479 1_555
Mo3 O23 2.004940 1_555
Mo3 O13 2.011679 1_655
Mo3 O1 2.038417 1_555
Mo3 O8 2.065286 1_565
Mo4 O16 1.958453 1_455
Mo4 O11 1.958453 1_545
Mo4 O27 2.029397 1_555
Mo4 O21 2.029397 1_445
Mo4 O2 2.042882 1_545
Mo4 O9 2.042882 1_455
O3 Y0 2.272658 1_556
O8 Y0 2.272658 1_555
O13 Y0 2.269320 1_555
O19 Y0 2.269320 1_556
O23 Y0 2.287932 1_555
O25 Y0 2.287932 1_556
