# generated using pymatgen
data_Fe2Ni(PO4)2
_symmetry_space_group_name_H-M   'P 1'
_cell_length_a   4.77169500
_cell_length_b   6.10731300
_cell_length_c   10.52598407
_cell_angle_alpha   89.72068835
_cell_angle_beta   90.00000000
_cell_angle_gamma   90.00000000
_symmetry_Int_Tables_number   1
_chemical_formula_structural   Fe2Ni(PO4)2
_chemical_formula_sum   'Fe4 Ni2 P4 O16'
_cell_volume   306.74705556
_cell_formula_units_Z   2
loop_
 _symmetry_equiv_pos_site_id
 _symmetry_equiv_pos_as_xyz
  1  'x, y, z'
loop_
 _atom_site_type_symbol
 _atom_site_label
 _atom_site_symmetry_multiplicity
 _atom_site_fract_x
 _atom_site_fract_y
 _atom_site_fract_z
 _atom_site_occupancy
  Fe  Fe0  1  0.52161700  0.76312600  0.78217300  1
  Fe  Fe1  1  0.02161700  0.23687400  0.71782700  1
  Fe  Fe2  1  0.47838300  0.23687400  0.21782700  1
  Fe  Fe3  1  0.97838300  0.76312600  0.28217300  1
  Ni  Ni0  1  0.50000000  0.50000000  0.50000000  1
  Ni  Ni1  1  0.00000000  0.50000000  0.00000000  1
  P  P0  1  0.07442600  0.73646200  0.59785200  1
  P  P1  1  0.57442600  0.26353800  0.90214800  1
  P  P2  1  0.92557400  0.26353800  0.40214800  1
  P  P3  1  0.42557400  0.73646200  0.09785200  1
  O  O0  1  0.22832000  0.52801300  0.65849400  1
  O  O1  1  0.72832000  0.47198700  0.84150600  1
  O  O2  1  0.77168000  0.47198700  0.34150600  1
  O  O3  1  0.27168000  0.52801300  0.15849400  1
  O  O4  1  0.18181200  0.92832400  0.68013900  1
  O  O5  1  0.68181200  0.07167600  0.81986100  1
  O  O6  1  0.81818800  0.07167600  0.31986100  1
  O  O7  1  0.31818800  0.92832400  0.18013900  1
  O  O8  1  0.30706200  0.74235500  0.96055200  1
  O  O9  1  0.80706200  0.25764500  0.53944800  1
  O  O10  1  0.74740800  0.71853200  0.10255400  1
  O  O11  1  0.24740800  0.28146800  0.39744600  1
  O  O12  1  0.25259200  0.28146800  0.89744600  1
  O  O13  1  0.75259200  0.71853200  0.60255400  1
  O  O14  1  0.19293800  0.74235500  0.46055200  1
  O  O15  1  0.69293800  0.25764500  0.03944800  1
loop_
_geom_bond_atom_site_label_1
_geom_bond_atom_site_label_2
_geom_bond_distance
_geom_bond_site_symmetry_2
Fe0 O5 2.073639 1_565
Fe0 O1 2.124527 1_555
Fe0 O8 2.141811 1_555
Fe0 O4 2.188590 1_555
Fe0 O13 2.206475 1_555
Fe0 O0 2.394477 1_555
Fe1 O4 2.073639 1_545
Fe1 O0 2.124527 1_555
Fe1 O9 2.141811 1_455
Fe1 O5 2.188590 1_455
Fe1 O12 2.206475 1_555
Fe1 O1 2.394477 1_455
Fe2 O7 2.073639 1_545
Fe2 O3 2.124527 1_555
Fe2 O15 2.141811 1_555
Fe2 O6 2.188590 1_555
Fe2 O11 2.206475 1_555
Fe2 O2 2.394477 1_555
Fe3 O6 2.073639 1_565
Fe3 O2 2.124527 1_555
Fe3 O14 2.141811 1_655
Fe3 O7 2.188590 1_655
Fe3 O10 2.206475 1_555
Fe3 O3 2.394477 1_655
Ni0 O13 2.100793 1_555
Ni0 O11 2.100793 1_555
Ni0 O2 2.120349 1_555
Ni0 O0 2.120349 1_555
Ni0 O9 2.122277 1_555
Ni0 O14 2.122277 1_555
Ni1 O10 2.100793 1_455
Ni1 O12 2.100793 1_554
Ni1 O1 2.120349 1_454
Ni1 O3 2.120349 1_555
Ni1 O8 2.122277 1_554
Ni1 O15 2.122277 1_455
O0 P0 1.599832 1_555
O1 P1 1.599832 1_555
O2 P2 1.599832 1_555
O3 P3 1.599832 1_555
O4 P0 1.547807 1_555
O5 P1 1.547807 1_555
O6 P2 1.547807 1_555
O7 P3 1.547807 1_555
O8 P3 1.552171 1_556
O9 P2 1.552171 1_555
O10 P3 1.540371 1_555
O11 P2 1.540371 1_455
O12 P1 1.540371 1_555
O13 P0 1.540371 1_655
O14 P0 1.552171 1_555
O15 P1 1.552171 1_554
