# generated using pymatgen
data_USnRu
_symmetry_space_group_name_H-M   'P 1'
_cell_length_a   7.31796147
_cell_length_b   7.31789504
_cell_length_c   4.05350309
_cell_angle_alpha   90.00000000
_cell_angle_beta   90.00000000
_cell_angle_gamma   120.00119603
_symmetry_Int_Tables_number   1
_chemical_formula_structural   USnRu
_chemical_formula_sum   'U3 Sn3 Ru3'
_cell_volume   187.98889729
_cell_formula_units_Z   3
loop_
 _symmetry_equiv_pos_site_id
 _symmetry_equiv_pos_as_xyz
  1  'x, y, z'
loop_
 _atom_site_type_symbol
 _atom_site_label
 _atom_site_symmetry_multiplicity
 _atom_site_fract_x
 _atom_site_fract_y
 _atom_site_fract_z
 _atom_site_occupancy
  U  U0  1  0.00003847  0.42255785  0.50000000  1
  U  U1  1  0.57748905  0.57745272  0.50000000  1
  U  U2  1  0.42255434  -0.00000007  0.50000000  1
  Sn  Sn0  1  0.00002581  0.75082155  -0.00000000  1
  Sn  Sn1  1  0.24921572  0.24918484  0.00000000  1
  Sn  Sn2  1  0.75075486  -0.00000862  -0.00000000  1
  Ru  Ru0  1  0.33331149  0.66661852  0.00000000  1
  Ru  Ru1  1  0.66669297  0.33338106  0.00000000  1
  Ru  Ru2  1  0.99991728  0.99999415  0.50000000  1
loop_
_geom_bond_atom_site_label_1
_geom_bond_atom_site_label_2
_geom_bond_distance
_geom_bond_site_symmetry_2
Sn0 U0 3.143009 1_555
Sn0 U0 3.143009 1_554
Sn0 Sn1 3.158331 1_565
Sn0 Sn2 3.158893 1_465
Sn0 U2 3.369727 1_564
Sn0 U2 3.369727 1_565
Sn0 U1 3.369771 1_454
Sn0 U1 3.369771 1_455
Sn1 U1 3.142987 1_554
Sn1 U1 3.142987 1_555
Sn1 Sn2 3.158978 1_455
Sn1 U2 3.369739 1_554
Sn1 U2 3.369739 1_555
Sn1 U0 3.369865 1_555
Sn1 U0 3.369865 1_554
Sn2 U2 3.142661 1_555
Sn2 U2 3.142661 1_554
Sn2 U1 3.369822 1_544
Sn2 U1 3.369822 1_545
Sn2 U0 3.369953 1_655
Sn2 U0 3.369953 1_654
Ru0 Sn1 2.798242 1_555
Ru0 Sn2 2.798356 1_565
Ru0 Sn0 2.798427 1_555
Ru0 U0 2.981554 1_555
Ru0 U0 2.981554 1_554
Ru0 U1 2.982017 1_554
Ru0 U1 2.982017 1_555
Ru0 U2 2.982078 1_564
Ru0 U2 2.982078 1_565
Ru1 Sn0 2.798236 1_655
Ru1 Sn1 2.798345 1_555
Ru1 Sn2 2.798479 1_555
Ru1 U1 2.981604 1_554
Ru1 U1 2.981604 1_555
Ru1 U0 2.982000 1_655
Ru1 U0 2.982000 1_654
Ru1 U2 2.982064 1_554
Ru1 U2 2.982064 1_555
Ru2 Sn2 2.726230 1_565
Ru2 Sn2 2.726230 1_566
Ru2 Sn0 2.726541 1_655
Ru2 Sn0 2.726541 1_656
Ru2 Sn1 2.726611 1_665
Ru2 Sn1 2.726611 1_666
Ru2 U1 3.091658 1_555
Ru2 U0 3.091833 1_665
Ru2 U2 3.092821 1_665
