# generated using pymatgen
data_Cd4MoW3O16
_symmetry_space_group_name_H-M   'P 1'
_cell_length_a   7.85905157
_cell_length_b   7.85905157
_cell_length_c   5.18717828
_cell_angle_alpha   88.54541935
_cell_angle_beta   88.54541935
_cell_angle_gamma   98.75763247
_symmetry_Int_Tables_number   1
_chemical_formula_structural   Cd4MoW3O16
_chemical_formula_sum   'Cd4 Mo1 W3 O16'
_cell_volume   316.40840334
_cell_formula_units_Z   1
loop_
 _symmetry_equiv_pos_site_id
 _symmetry_equiv_pos_as_xyz
  1  'x, y, z'
loop_
 _atom_site_type_symbol
 _atom_site_label
 _atom_site_symmetry_multiplicity
 _atom_site_fract_x
 _atom_site_fract_y
 _atom_site_fract_z
 _atom_site_occupancy
  Cd  Cd0  1  0.59547900  0.89965600  0.49869300  1
  Cd  Cd1  1  0.10034400  0.40452100  0.50130700  1
  Cd  Cd2  1  0.40396000  0.09598800  0.00193300  1
  Cd  Cd3  1  0.90401200  0.59604000  0.99806700  1
  Mo  Mo0  1  0.58914400  0.41085600  0.50000000  1
  W  W0  1  0.41340000  0.58660000  0.00000000  1
  W  W1  1  0.91351300  0.08648700  0.00000000  1
  W  W2  1  0.08571800  0.91428200  0.50000000  1
  O  O0  1  0.43531000  0.80675300  0.86188600  1
  O  O1  1  0.93551700  0.30623600  0.86220500  1
  O  O2  1  0.69376400  0.06448300  0.13779500  1
  O  O3  1  0.19324700  0.56469000  0.13811400  1
  O  O4  1  0.56444900  0.19534400  0.63657300  1
  O  O5  1  0.06304200  0.69410000  0.63600000  1
  O  O6  1  0.30590000  0.93695800  0.36400000  1
  O  O7  1  0.80465600  0.43555100  0.36342700  1
  O  O8  1  0.14858300  0.05317400  0.80145600  1
  O  O9  1  0.64817200  0.55281100  0.79807800  1
  O  O10  1  0.44718900  0.35182800  0.20192200  1
  O  O11  1  0.94682600  0.85141700  0.19854400  1
  O  O12  1  0.85079400  0.94756100  0.69881000  1
  O  O13  1  0.35038700  0.44584400  0.70354600  1
  O  O14  1  0.55415600  0.64961300  0.29645400  1
  O  O15  1  0.05243900  0.14920600  0.30119000  1
loop_
_geom_bond_atom_site_label_1
_geom_bond_atom_site_label_2
_geom_bond_distance
_geom_bond_site_symmetry_2
Cd0 O14 2.234998 1_555
Cd0 O12 2.267378 1_555
Cd0 O0 2.279642 1_555
Cd0 O2 2.297387 1_565
Cd0 O6 2.454978 1_555
Cd0 O4 2.493844 1_565
Cd1 O13 2.234998 1_555
Cd1 O15 2.267378 1_555
Cd1 O3 2.279642 1_555
Cd1 O1 2.297387 1_455
Cd1 O5 2.454978 1_555
Cd1 O7 2.493844 1_455
Cd2 O8 2.267344 1_554
Cd2 O10 2.269385 1_555
Cd2 O6 2.279760 1_545
Cd2 O4 2.301286 1_554
Cd2 O2 2.447388 1_555
Cd2 O0 2.449645 1_544
Cd3 O11 2.267344 1_556
Cd3 O9 2.269385 1_555
Cd3 O5 2.279760 1_655
Cd3 O7 2.301286 1_556
Cd3 O1 2.447388 1_555
Cd3 O3 2.449645 1_656
Mo0 O7 1.800064 1_555
Mo0 O4 1.800064 1_555
Mo0 O9 1.953693 1_555
Mo0 O10 1.953693 1_555
Mo0 O13 2.186904 1_555
Mo0 O14 2.186904 1_555
O0 W0 1.837543 1_556
O1 W1 1.833985 1_556
O2 W1 1.833985 1_555
O3 W0 1.837543 1_555
O5 W2 1.833446 1_555
O6 W2 1.833446 1_555
O8 W2 1.960212 1_545
O8 W1 2.146292 1_456
O9 W0 2.153397 1_556
O10 W0 2.153397 1_555
O11 W2 1.960212 1_655
O11 W1 2.146292 1_565
O12 W1 1.959012 1_566
O12 W2 2.145863 1_655
O13 W0 1.947269 1_556
O14 W0 1.947269 1_555
O15 W1 1.959012 1_455
O15 W2 2.145863 1_545
