# generated using pymatgen
data_CsIn3H6(Se3O10)2
_symmetry_space_group_name_H-M   'P 1'
_cell_length_a   9.80271053
_cell_length_b   13.43158512
_cell_length_c   16.96391746
_cell_angle_alpha   90.00000000
_cell_angle_beta   90.00000000
_cell_angle_gamma   90.00000000
_symmetry_Int_Tables_number   1
_chemical_formula_structural   CsIn3H6(Se3O10)2
_chemical_formula_sum   'Cs4 In12 H24 Se24 O80'
_cell_volume   2233.57015356
_cell_formula_units_Z   4
loop_
 _symmetry_equiv_pos_site_id
 _symmetry_equiv_pos_as_xyz
  1  'x, y, z'
loop_
 _atom_site_type_symbol
 _atom_site_label
 _atom_site_symmetry_multiplicity
 _atom_site_fract_x
 _atom_site_fract_y
 _atom_site_fract_z
 _atom_site_occupancy
  Cs  Cs0  1  0.96600155  0.75000000  0.22868413  1
  Cs  Cs1  1  0.53399845  0.75000000  0.72868413  1
  Cs  Cs2  1  0.03399845  0.25000000  0.77131587  1
  Cs  Cs3  1  0.46600155  0.25000000  0.27131587  1
  In  In0  1  0.55648125  0.75000000  0.44451291  1
  In  In1  1  0.94351875  0.75000000  0.94451291  1
  In  In2  1  0.44351875  0.25000000  0.55548709  1
  In  In3  1  0.05648125  0.25000000  0.05548709  1
  In  In4  1  0.17967097  0.00025648  0.37630650  1
  In  In5  1  0.32032903  0.49974352  0.87630650  1
  In  In6  1  0.82032903  0.50025648  0.62369350  1
  In  In7  1  0.67967097  0.99974352  0.12369350  1
  In  In8  1  0.82032903  0.99974352  0.62369350  1
  In  In9  1  0.67967097  0.50025648  0.12369350  1
  In  In10  1  0.17967097  0.49974352  0.37630650  1
  In  In11  1  0.32032903  0.00025648  0.87630650  1
  H  H0  1  0.10521127  0.89986743  0.02059226  1
  H  H1  1  0.39478873  0.60013257  0.52059226  1
  H  H2  1  0.89478873  0.39986743  0.97940774  1
  H  H3  1  0.60521127  0.10013257  0.47940774  1
  H  H4  1  0.89478873  0.10013257  0.97940774  1
  H  H5  1  0.60521127  0.39986743  0.47940774  1
  H  H6  1  0.10521127  0.60013257  0.02059226  1
  H  H7  1  0.39478873  0.89986743  0.52059226  1
  H  H8  1  0.19418557  0.95479839  0.18802338  1
  H  H9  1  0.30581443  0.54520161  0.68802338  1
  H  H10  1  0.80581443  0.45479839  0.81197662  1
  H  H11  1  0.69418557  0.04520161  0.31197662  1
  H  H12  1  0.80581443  0.04520161  0.81197662  1
  H  H13  1  0.69418557  0.45479839  0.31197662  1
  H  H14  1  0.19418557  0.54520161  0.18802338  1
  H  H15  1  0.30581443  0.95479839  0.68802338  1
  H  H16  1  0.96306463  0.90122291  0.06764659  1
  H  H17  1  0.53693537  0.59877709  0.56764659  1
  H  H18  1  0.03693537  0.40122291  0.93235341  1
  H  H19  1  0.46306463  0.09877709  0.43235341  1
  H  H20  1  0.03693537  0.09877709  0.93235341  1
  H  H21  1  0.46306463  0.40122291  0.43235341  1
  H  H22  1  0.96306463  0.59877709  0.06764659  1
  H  H23  1  0.53693537  0.90122291  0.56764659  1
  Se  Se0  1  0.49155084  0.90919400  0.29139516  1
  Se  Se1  1  0.00844916  0.59080600  0.79139516  1
  Se  Se2  1  0.50844916  0.40919400  0.70860484  1
  Se  Se3  1  0.99155084  0.09080600  0.20860484  1
  Se  Se4  1  0.50844916  0.09080600  0.70860484  1
  Se  Se5  1  0.99155084  0.40919400  0.20860484  1
  Se  Se6  1  0.49155084  0.59080600  0.29139516  1
  Se  Se7  1  0.00844916  0.90919400  0.79139516  1
  Se  Se8  1  0.18757352  0.75000000  0.42396351  1
  Se  Se9  1  0.31242648  0.75000000  0.92396351  1
  Se  Se10  1  0.81242648  0.25000000  0.57603649  1
  Se  Se11  1  0.68757352  0.25000000  0.07603649  1
  Se  Se12  1  0.65844473  0.75000000  0.07114008  1
  Se  Se13  1  0.84155527  0.75000000  0.57114008  1
  Se  Se14  1  0.34155527  0.25000000  0.92885992  1
  Se  Se15  1  0.15844473  0.25000000  0.42885992  1
  Se  Se16  1  0.83588259  0.99836823  0.41587055  1
  Se  Se17  1  0.66411741  0.50163177  0.91587055  1
  Se  Se18  1  0.16411741  0.49836823  0.58412945  1
  Se  Se19  1  0.33588259  0.00163177  0.08412945  1
  Se  Se20  1  0.16411741  0.00163177  0.58412945  1
  Se  Se21  1  0.33588259  0.49836823  0.08412945  1
  Se  Se22  1  0.83588259  0.50163177  0.41587055  1
  Se  Se23  1  0.66411741  0.99836823  0.91587055  1
  O  O0  1  0.60676919  0.86840653  0.36136022  1
  O  O1  1  0.89323081  0.63159347  0.86136022  1
  O  O2  1  0.39323081  0.36840653  0.63863978  1
  O  O3  1  0.10676919  0.13159347  0.13863978  1
  O  O4  1  0.39323081  0.13159347  0.63863978  1
  O  O5  1  0.10676919  0.36840653  0.13863978  1
  O  O6  1  0.60676919  0.63159347  0.36136022  1
  O  O7  1  0.89323081  0.86840653  0.86136022  1
  O  O8  1  0.25784418  0.91637577  0.15111242  1
  O  O9  1  0.24215582  0.58362423  0.65111242  1
  O  O10  1  0.74215582  0.41637577  0.84888758  1
  O  O11  1  0.75784418  0.08362423  0.34888758  1
  O  O12  1  0.74215582  0.08362423  0.84888758  1
  O  O13  1  0.75784418  0.41637577  0.34888758  1
  O  O14  1  0.25784418  0.58362423  0.15111242  1
  O  O15  1  0.24215582  0.91637577  0.65111242  1
  O  O16  1  0.74254560  0.65458698  0.11976473  1
  O  O17  1  0.75745440  0.84541302  0.61976473  1
  O  O18  1  0.25745440  0.15458698  0.88023527  1
  O  O19  1  0.24254560  0.34541302  0.38023527  1
  O  O20  1  0.25745440  0.34541302  0.88023527  1
  O  O21  1  0.24254560  0.15458698  0.38023527  1
  O  O22  1  0.74254560  0.84541302  0.11976473  1
  O  O23  1  0.75745440  0.65458698  0.61976473  1
  O  O24  1  0.25135830  0.96370231  0.99970405  1
  O  O25  1  0.24864170  0.53629769  0.49970405  1
  O  O26  1  0.74864170  0.46370231  0.00029595  1
  O  O27  1  0.75135830  0.03629769  0.50029595  1
  O  O28  1  0.74864170  0.03629769  0.00029595  1
  O  O29  1  0.75135830  0.46370231  0.50029595  1
  O  O30  1  0.25135830  0.53629769  0.99970405  1
  O  O31  1  0.24864170  0.96370231  0.49970405  1
  O  O32  1  0.35537422  0.75000000  0.39101942  1
  O  O33  1  0.14462578  0.75000000  0.89101942  1
  O  O34  1  0.64462578  0.25000000  0.60898058  1
  O  O35  1  0.85537422  0.25000000  0.10898058  1
  O  O36  1  0.11868907  0.65396271  0.36830894  1
  O  O37  1  0.38131093  0.84603729  0.86830894  1
  O  O38  1  0.88131093  0.15396271  0.63169106  1
  O  O39  1  0.61868907  0.34603729  0.13169106  1
  O  O40  1  0.88131093  0.34603729  0.63169106  1
  O  O41  1  0.61868907  0.15396271  0.13169106  1
  O  O42  1  0.11868907  0.84603729  0.36830894  1
  O  O43  1  0.38131093  0.65396271  0.86830894  1
  O  O44  1  0.48821473  0.93984320  0.07638649  1
  O  O45  1  0.01178527  0.56015680  0.57638649  1
  O  O46  1  0.51178527  0.43984320  0.92361351  1
  O  O47  1  0.98821473  0.06015680  0.42361351  1
  O  O48  1  0.51178527  0.06015680  0.92361351  1
  O  O49  1  0.98821473  0.43984320  0.42361351  1
  O  O50  1  0.48821473  0.56015680  0.07638649  1
  O  O51  1  0.01178527  0.93984320  0.57638649  1
  O  O52  1  0.02189938  0.86000280  0.03371406  1
  O  O53  1  0.47810062  0.63999720  0.53371406  1
  O  O54  1  0.97810062  0.36000280  0.96628594  1
  O  O55  1  0.52189938  0.13999720  0.46628594  1
  O  O56  1  0.97810062  0.13999720  0.96628594  1
  O  O57  1  0.52189938  0.36000280  0.46628594  1
  O  O58  1  0.02189938  0.63999720  0.03371406  1
  O  O59  1  0.47810062  0.86000280  0.53371406  1
  O  O60  1  0.59910036  0.99614048  0.24563335  1
  O  O61  1  0.90089964  0.50385952  0.74563335  1
  O  O62  1  0.40089964  0.49614048  0.75436665  1
  O  O63  1  0.09910036  0.00385952  0.25436665  1
  O  O64  1  0.40089964  0.00385952  0.75436665  1
  O  O65  1  0.09910036  0.49614048  0.25436665  1
  O  O66  1  0.59910036  0.50385952  0.24563335  1
  O  O67  1  0.90089964  0.99614048  0.74563335  1
  O  O68  1  0.39430022  0.99346356  0.34424650  1
  O  O69  1  0.10569978  0.50653644  0.84424650  1
  O  O70  1  0.60569978  0.49346356  0.65575350  1
  O  O71  1  0.89430022  0.00653644  0.15575350  1
  O  O72  1  0.60569978  0.00653644  0.65575350  1
  O  O73  1  0.89430022  0.49346356  0.15575350  1
  O  O74  1  0.39430022  0.50653644  0.34424650  1
  O  O75  1  0.10569978  0.99346356  0.84424650  1
  O  O76  1  0.76463876  0.75000000  0.47942541  1
  O  O77  1  0.73536124  0.75000000  0.97942541  1
  O  O78  1  0.23536124  0.25000000  0.52057459  1
  O  O79  1  0.26463876  0.25000000  0.02057459  1
loop_
_geom_bond_atom_site_label_1
_geom_bond_atom_site_label_2
_geom_bond_distance
_geom_bond_site_symmetry_2
Cs0 O42 3.084539 1_655
Cs0 O36 3.084539 1_655
Cs0 O16 3.139194 1_555
Cs0 O22 3.139194 1_555
Cs1 O37 3.084539 1_555
Cs1 O43 3.084539 1_555
Cs1 O17 3.139194 1_555
Cs1 O23 3.139194 1_555
Cs2 O40 3.084539 1_455
Cs2 O38 3.084539 1_455
Cs2 O20 3.139194 1_555
Cs2 O18 3.139194 1_555
Cs3 O41 3.084539 1_555
Cs3 O39 3.084539 1_555
Cs3 O19 3.139194 1_555
Cs3 O21 3.139194 1_555
In0 O76 2.124720 1_555
In0 O32 2.170225 1_555
In0 O6 2.182228 1_555
In0 O0 2.182228 1_555
In0 O59 2.250149 1_555
In0 O53 2.250149 1_555
In1 O77 2.124720 1_555
In1 O33 2.170225 1_655
In1 O7 2.182228 1_555
In1 O1 2.182228 1_555
In1 O52 2.250149 1_656
In1 O58 2.250149 1_656
In2 O78 2.124720 1_555
In2 O34 2.170225 1_555
In2 O4 2.182228 1_555
In2 O2 2.182228 1_555
In2 O57 2.250149 1_555
In2 O55 2.250149 1_555
In3 O79 2.124720 1_555
In3 O35 2.170225 1_455
In3 O5 2.182228 1_555
In3 O3 2.182228 1_555
In3 O54 2.250149 1_454
In3 O56 2.250149 1_454
In4 O42 2.160206 1_545
In4 O21 2.163619 1_555
In4 O68 2.175020 1_545
In4 O47 2.194009 1_455
In4 O63 2.214759 1_555
In4 O31 2.253908 1_545
In5 O43 2.160206 1_555
In5 O20 2.163619 1_555
In5 O69 2.175020 1_555
In5 O46 2.194009 1_555
In5 O62 2.214759 1_555
In5 O30 2.253908 1_555
In6 O40 2.160206 1_555
In6 O23 2.163619 1_555
In6 O70 2.175020 1_555
In6 O45 2.194009 1_655
In6 O61 2.214759 1_555
In6 O29 2.253908 1_555
In7 O41 2.160206 1_565
In7 O22 2.163619 1_555
In7 O71 2.175020 1_565
In7 O44 2.194009 1_555
In7 O60 2.214759 1_555
In7 O28 2.253908 1_565
In8 O38 2.160206 1_565
In8 O17 2.163619 1_555
In8 O72 2.175020 1_565
In8 O51 2.194009 1_655
In8 O67 2.214759 1_555
In8 O27 2.253908 1_565
In9 O39 2.160206 1_555
In9 O16 2.163619 1_555
In9 O73 2.175020 1_555
In9 O50 2.194009 1_555
In9 O66 2.214759 1_555
In9 O26 2.253908 1_555
In10 O36 2.160206 1_555
In10 O19 2.163619 1_555
In10 O74 2.175020 1_555
In10 O49 2.194009 1_455
In10 O65 2.214759 1_555
In10 O25 2.253908 1_555
In11 O37 2.160206 1_545
In11 O18 2.163619 1_555
In11 O75 2.175020 1_545
In11 O48 2.194009 1_555
In11 O64 2.214759 1_555
In11 O24 2.253908 1_545
H0 O52 1.001609 1_555
H0 O24 1.706795 1_554
H1 O53 1.001609 1_555
H1 O25 1.706795 1_555
H2 O54 1.001609 1_555
H2 O26 1.706795 1_556
H3 O55 1.001609 1_555
H3 O27 1.706795 1_555
H4 O56 1.001609 1_555
H4 O28 1.706795 1_556
H5 O57 1.001609 1_555
H5 O29 1.706795 1_555
H6 O58 1.001609 1_555
H6 O30 1.706795 1_554
H7 O59 1.001609 1_555
H7 O31 1.706795 1_555
H8 O8 1.023628 1_555
H8 O63 1.603015 1_565
H9 O9 1.023628 1_555
H9 O62 1.603015 1_555
H10 O10 1.023628 1_555
H10 O61 1.603015 1_555
H11 O11 1.023628 1_555
H11 O60 1.603015 1_545
H12 O12 1.023628 1_555
H12 O67 1.603015 1_545
H13 O13 1.023628 1_555
H13 O66 1.603015 1_555
H14 O14 1.023628 1_555
H14 O65 1.603015 1_555
H15 O15 1.023628 1_555
H15 O64 1.603015 1_565
H16 O52 0.985143 1_655
H17 O53 0.985143 1_555
H18 O54 0.985143 1_455
H19 O55 0.985143 1_555
H20 O56 0.985143 1_455
H21 O57 0.985143 1_555
H22 O58 0.985143 1_655
H23 O59 0.985143 1_555
O0 Se0 1.727564 1_555
O1 Se1 1.727564 1_655
O2 Se2 1.727564 1_555
O3 Se3 1.727564 1_455
O4 Se4 1.727564 1_555
O5 Se5 1.727564 1_455
O6 Se6 1.727564 1_555
O7 Se7 1.727564 1_655
O8 Se19 1.785407 1_565
O9 Se18 1.785407 1_555
O10 Se17 1.785407 1_555
O11 Se16 1.785407 1_545
O12 Se23 1.785407 1_545
O13 Se22 1.785407 1_555
O14 Se21 1.785407 1_555
O15 Se20 1.785407 1_565
O16 Se12 1.732752 1_555
O17 Se13 1.732752 1_555
O18 Se14 1.732752 1_555
O19 Se15 1.732752 1_555
O20 Se14 1.732752 1_555
O21 Se15 1.732752 1_555
O22 Se12 1.732752 1_555
O23 Se13 1.732752 1_555
O24 Se19 1.731248 1_566
O25 Se18 1.731248 1_555
O26 Se17 1.731248 1_554
O27 Se16 1.731248 1_545
O28 Se23 1.731248 1_544
O29 Se22 1.731248 1_555
O30 Se21 1.731248 1_556
O31 Se20 1.731248 1_565
O32 Se8 1.737247 1_555
O33 Se9 1.737247 1_555
O34 Se10 1.737247 1_555
O35 Se11 1.737247 1_555
O36 Se8 1.735297 1_555
O37 Se9 1.735297 1_555
O38 Se10 1.735297 1_555
O39 Se11 1.735297 1_555
O40 Se10 1.735297 1_555
O41 Se11 1.735297 1_555
O42 Se8 1.735297 1_555
O43 Se9 1.735297 1_555
O44 Se19 1.713437 1_565
O45 Se18 1.713437 1_555
O46 Se17 1.713437 1_555
O47 Se16 1.713437 1_545
O48 Se23 1.713437 1_545
O49 Se22 1.713437 1_555
O50 Se21 1.713437 1_555
O51 Se20 1.713437 1_565
O60 Se0 1.754413 1_555
O61 Se1 1.754413 1_655
O62 Se2 1.754413 1_555
O63 Se3 1.754413 1_455
O64 Se4 1.754413 1_555
O65 Se5 1.754413 1_455
O66 Se6 1.754413 1_555
O67 Se7 1.754413 1_655
O68 Se0 1.730256 1_555
O69 Se1 1.730256 1_555
O70 Se2 1.730256 1_555
O71 Se3 1.730256 1_555
O72 Se4 1.730256 1_555
O73 Se5 1.730256 1_555
O74 Se6 1.730256 1_555
O75 Se7 1.730256 1_555
O76 Se13 1.728913 1_555
O77 Se12 1.728913 1_556
O78 Se15 1.728913 1_555
O79 Se14 1.728913 1_554
