# generated using pymatgen
data_CsNd(MoO4)2
_symmetry_space_group_name_H-M   'P 1'
_cell_length_a   7.75623006
_cell_length_b   7.75623006
_cell_length_c   8.05267915
_cell_angle_alpha   61.59405211
_cell_angle_beta   61.59405211
_cell_angle_gamma   88.40785346
_symmetry_Int_Tables_number   1
_chemical_formula_structural   CsNd(MoO4)2
_chemical_formula_sum   'Cs2 Nd2 Mo4 O16'
_cell_volume   362.26190423
_cell_formula_units_Z   2
loop_
 _symmetry_equiv_pos_site_id
 _symmetry_equiv_pos_as_xyz
  1  'x, y, z'
loop_
 _atom_site_type_symbol
 _atom_site_label
 _atom_site_symmetry_multiplicity
 _atom_site_fract_x
 _atom_site_fract_y
 _atom_site_fract_z
 _atom_site_occupancy
  Cs  Cs0  1  0.19604200  0.80395800  0.75000000  1
  Cs  Cs1  1  0.80395800  0.19604200  0.25000000  1
  Nd  Nd0  1  0.77020500  0.22979500  0.75000000  1
  Nd  Nd1  1  0.22979500  0.77020500  0.25000000  1
  Mo  Mo0  1  0.69155900  0.69046700  0.76617000  1
  Mo  Mo1  1  0.30844100  0.30953300  0.23383000  1
  Mo  Mo2  1  0.30953300  0.30844100  0.73383000  1
  Mo  Mo3  1  0.69046700  0.69155900  0.26617000  1
  O  O0  1  0.61361900  0.75679100  0.57393100  1
  O  O1  1  0.38638100  0.24320900  0.42606900  1
  O  O2  1  0.24320900  0.38638100  0.92606900  1
  O  O3  1  0.75679100  0.61361900  0.07393100  1
  O  O4  1  0.38395000  0.07497100  0.87060600  1
  O  O5  1  0.61605000  0.92502900  0.12939400  1
  O  O6  1  0.92502900  0.61605000  0.62939400  1
  O  O7  1  0.07497100  0.38395000  0.37060600  1
  O  O8  1  0.58172900  0.37148900  0.96956400  1
  O  O9  1  0.41827100  0.62851100  0.03043600  1
  O  O10  1  0.62851100  0.41827100  0.53043600  1
  O  O11  1  0.37148900  0.58172900  0.46956400  1
  O  O12  1  0.78393300  0.93837500  0.70332800  1
  O  O13  1  0.21606700  0.06162500  0.29667200  1
  O  O14  1  0.06162500  0.21606700  0.79667200  1
  O  O15  1  0.93837500  0.78393300  0.20332800  1
loop_
_geom_bond_atom_site_label_1
_geom_bond_atom_site_label_2
_geom_bond_distance
_geom_bond_site_symmetry_2
Cs0 O0 2.948330 1_555
Cs0 O2 2.948330 1_555
Cs0 O3 2.958240 1_456
Cs0 O1 2.958240 1_565
Cs0 O13 3.143394 1_565
Cs0 O15 3.143394 1_456
Cs0 O11 3.251433 1_555
Cs0 O9 3.251433 1_556
Cs0 O4 3.308370 1_565
Cs0 O6 3.308370 1_455
Cs0 O12 3.468464 1_455
Cs0 O14 3.468464 1_565
Cs1 O1 2.948330 1_555
Cs1 O3 2.948330 1_555
Cs1 O2 2.958240 1_654
Cs1 O0 2.958240 1_545
Cs1 O14 3.143394 1_654
Cs1 O12 3.143394 1_545
Cs1 O8 3.251433 1_554
Cs1 O10 3.251433 1_555
Cs1 O7 3.308370 1_655
Cs1 O5 3.308370 1_545
Cs1 O15 3.468464 1_545
Cs1 O13 3.468464 1_655
Nd0 O8 2.402353 1_555
Nd0 O10 2.402353 1_555
Nd0 O12 2.453250 1_545
Nd0 O14 2.453250 1_655
Nd0 O7 2.482271 1_655
Nd0 O5 2.482271 1_546
Nd0 O6 2.771749 1_555
Nd0 O4 2.771749 1_555
Nd1 O9 2.402353 1_555
Nd1 O11 2.402353 1_555
Nd1 O13 2.453250 1_565
Nd1 O15 2.453250 1_455
Nd1 O4 2.482271 1_564
Nd1 O6 2.482271 1_455
Nd1 O5 2.771749 1_555
Nd1 O7 2.771749 1_555
Mo0 O0 1.772546 1_555
Mo0 O12 1.809009 1_555
Mo0 O6 1.864024 1_555
Mo0 O9 2.011099 1_556
Mo0 O8 2.112711 1_555
Mo0 O3 2.554220 1_556
Mo1 O1 1.772546 1_555
Mo1 O13 1.809009 1_555
Mo1 O7 1.864024 1_555
Mo1 O8 2.011099 1_554
Mo1 O9 2.112711 1_555
Mo1 O2 2.554220 1_554
Mo2 O2 1.772546 1_555
Mo2 O14 1.809009 1_555
Mo2 O4 1.864024 1_555
Mo2 O11 2.011099 1_555
Mo2 O10 2.112711 1_555
Mo2 O1 2.554220 1_555
Mo3 O3 1.772546 1_555
Mo3 O15 1.809009 1_555
Mo3 O5 1.864024 1_555
Mo3 O10 2.011099 1_555
Mo3 O11 2.112711 1_555
Mo3 O0 2.554220 1_555
