# generated using pymatgen
data_Ca5Ni9P7
_symmetry_space_group_name_H-M   'P 1'
_cell_length_a   3.84311000
_cell_length_b   9.62451433
_cell_length_c   9.62451433
_cell_angle_alpha   120.00000224
_cell_angle_beta   90.00000000
_cell_angle_gamma   90.00000000
_symmetry_Int_Tables_number   1
_chemical_formula_structural   Ca5Ni9P7
_chemical_formula_sum   'Ca5 Ni9 P7'
_cell_volume   308.29826721
_cell_formula_units_Z   1
loop_
 _symmetry_equiv_pos_site_id
 _symmetry_equiv_pos_as_xyz
  1  'x, y, z'
loop_
 _atom_site_type_symbol
 _atom_site_label
 _atom_site_symmetry_multiplicity
 _atom_site_fract_x
 _atom_site_fract_y
 _atom_site_fract_z
 _atom_site_occupancy
  Ca  Ca0  1  0.00000000  0.66666700  0.33333300  1
  Ca  Ca1  1  0.50000000  0.33333300  0.66666700  1
  Ca  Ca2  1  0.50000000  0.76866600  0.88949700  1
  Ca  Ca3  1  0.50000000  0.12083100  0.23133400  1
  Ca  Ca4  1  0.50000000  0.11050300  0.87916900  1
  Ni  Ni0  1  0.50000000  0.94198400  0.39530600  1
  Ni  Ni1  1  0.50000000  0.45332100  0.05801600  1
  Ni  Ni2  1  0.50000000  0.60469400  0.54667900  1
  Ni  Ni3  1  0.00000000  0.57306800  0.95075800  1
  Ni  Ni4  1  0.00000000  0.37769000  0.42693200  1
  Ni  Ni5  1  0.00000000  0.04924200  0.62231000  1
  Ni  Ni6  1  0.00000000  0.86604900  0.17034600  1
  Ni  Ni7  1  0.00000000  0.30429700  0.13395100  1
  Ni  Ni8  1  0.00000000  0.82965400  0.69570300  1
  P  P0  1  0.50000000  0.71527300  0.14027300  1
  P  P1  1  0.50000000  0.42500000  0.28472700  1
  P  P2  1  0.50000000  0.85972700  0.57500000  1
  P  P3  1  0.00000000  0.57760900  0.67153600  1
  P  P4  1  0.00000000  0.09392700  0.42239100  1
  P  P5  1  0.00000000  0.32846400  0.90607300  1
  P  P6  1  0.00000000  0.00000000  0.00000000  1
loop_
_geom_bond_atom_site_label_1
_geom_bond_atom_site_label_2
_geom_bond_distance
_geom_bond_site_symmetry_2
Ca0 P0 2.869325 1_555
Ca0 P0 2.869325 1_455
Ca0 P2 2.869330 1_455
Ca0 P2 2.869330 1_555
Ca0 P1 2.869332 1_455
Ca0 P1 2.869332 1_555
Ca0 Ni6 3.025446 1_555
Ca0 Ni7 3.025454 1_555
Ca0 Ni8 3.025455 1_555
Ca0 Ni0 3.080429 1_455
Ca0 Ni0 3.080429 1_555
Ca0 Ni1 3.080433 1_555
Ca0 Ni1 3.080433 1_455
Ca0 Ni2 3.080444 1_455
Ca0 Ni2 3.080444 1_555
Ca0 Ni3 3.324511 1_554
Ca0 Ni5 3.324513 1_565
Ca0 Ni4 3.324520 1_555
Ca1 P5 3.018564 1_555
Ca1 P5 3.018564 1_655
Ca1 P4 3.018568 1_655
Ca1 P4 3.018568 1_555
Ca1 P3 3.018572 1_555
Ca1 P3 3.018572 1_655
Ca1 Ni5 3.191144 1_655
Ca1 Ni5 3.191144 1_555
Ca1 Ni3 3.191147 1_655
Ca1 Ni3 3.191147 1_555
Ca1 Ni4 3.191152 1_655
Ca1 Ni4 3.191152 1_555
Ca1 Ni0 3.342271 1_545
Ca1 Ni1 3.342271 1_556
Ca1 Ni2 3.342271 1_555
Ca2 P0 2.707366 1_556
Ca2 P6 2.722636 1_566
Ca2 P6 2.722636 1_666
Ca2 P3 2.759867 1_555
Ca2 P3 2.759867 1_655
Ca2 Ni2 2.858310 1_555
Ca2 Ni8 2.934384 1_555
Ca2 Ni8 2.934384 1_655
Ca2 Ni3 2.948543 1_555
Ca2 Ni3 2.948543 1_655
Ca2 Ni6 3.056760 1_556
Ca2 Ni6 3.056760 1_656
Ca3 P1 2.707366 1_555
Ca3 P6 2.722636 1_555
Ca3 P6 2.722636 1_655
Ca3 P4 2.759867 1_655
Ca3 P4 2.759867 1_555
Ca3 Ni0 2.858318 1_545
Ca3 Ni6 2.934384 1_545
Ca3 Ni6 2.934384 1_645
Ca3 Ni4 2.948543 1_555
Ca3 Ni4 2.948543 1_655
Ca3 Ni7 3.056760 1_555
Ca3 Ni7 3.056760 1_655
Ca4 P2 2.707366 1_545
Ca4 P6 2.722636 1_656
Ca4 P6 2.722636 1_556
Ca4 P5 2.759867 1_655
Ca4 P5 2.759867 1_555
Ca4 Ni1 2.858310 1_556
Ca4 Ni7 2.934384 1_556
Ca4 Ni7 2.934384 1_656
Ca4 Ni5 2.948543 1_555
Ca4 Ni5 2.948543 1_655
Ca4 Ni8 3.056760 1_645
Ca4 Ni8 3.056760 1_545
Ni0 P2 2.233162 1_555
Ni0 P0 2.330264 1_555
Ni0 P4 2.348971 1_665
Ni0 P4 2.348971 1_565
Ni0 Ni6 2.707754 1_555
Ni0 Ni6 2.707754 1_655
Ni1 P0 2.233171 1_555
Ni1 P1 2.330258 1_555
Ni1 P5 2.348969 1_554
Ni1 P5 2.348969 1_654
Ni1 Ni7 2.707747 1_655
Ni1 Ni7 2.707747 1_555
Ni2 P1 2.233169 1_555
Ni2 P2 2.330268 1_555
Ni2 P3 2.348965 1_555
Ni2 P3 2.348965 1_655
Ni2 Ni8 2.707752 1_655
Ni2 Ni8 2.707752 1_555
Ni3 P5 2.171341 1_555
Ni3 P0 2.529054 1_456
Ni3 P0 2.529054 1_556
Ni3 Ni6 2.541339 1_556
Ni3 P3 2.709493 1_555
Ni4 P3 2.171341 1_555
Ni4 P1 2.529054 1_455
Ni4 P1 2.529054 1_555
Ni4 Ni7 2.541339 1_555
Ni4 P4 2.709493 1_555
Ni5 P4 2.171341 1_555
Ni5 P2 2.529054 1_545
Ni5 P2 2.529054 1_445
Ni5 Ni8 2.541339 1_545
Ni5 P5 2.709493 1_555
Ni6 P4 2.318281 1_565
Ni6 P0 2.337083 1_555
Ni6 P0 2.337083 1_455
Ni6 P6 2.542378 1_565
Ni7 P5 2.318281 1_554
Ni7 P1 2.337083 1_455
Ni7 P1 2.337083 1_555
Ni7 P6 2.542378 1_555
Ni8 P3 2.318281 1_555
Ni8 P2 2.337083 1_555
Ni8 P2 2.337083 1_455
Ni8 P6 2.542378 1_566
