# generated using pymatgen
data_SrMg6Nb
_symmetry_space_group_name_H-M   'P 1'
_cell_length_a   5.18743400
_cell_length_b   6.69662500
_cell_length_c   11.33330400
_cell_angle_alpha   90.00000000
_cell_angle_beta   90.00000000
_cell_angle_gamma   90.00000000
_symmetry_Int_Tables_number   1
_chemical_formula_structural   SrMg6Nb
_chemical_formula_sum   'Sr2 Mg12 Nb2'
_cell_volume   393.69971673
_cell_formula_units_Z   2
loop_
 _symmetry_equiv_pos_site_id
 _symmetry_equiv_pos_as_xyz
  1  'x, y, z'
loop_
 _atom_site_type_symbol
 _atom_site_label
 _atom_site_symmetry_multiplicity
 _atom_site_fract_x
 _atom_site_fract_y
 _atom_site_fract_z
 _atom_site_occupancy
  Sr  Sr0  1  0.00000000  0.50000000  0.34219600  1
  Sr  Sr1  1  0.00000000  0.00000000  0.84219600  1
  Mg  Mg0  1  0.00000000  0.27441900  0.08996500  1
  Mg  Mg1  1  0.00000000  0.72558100  0.08996500  1
  Mg  Mg2  1  0.00000000  0.50000000  0.83044400  1
  Mg  Mg3  1  0.50000000  0.26903200  0.91927400  1
  Mg  Mg4  1  0.50000000  0.73096800  0.91927400  1
  Mg  Mg5  1  0.50000000  0.50000000  0.65787000  1
  Mg  Mg6  1  0.00000000  0.77441900  0.58996500  1
  Mg  Mg7  1  0.00000000  0.22558100  0.58996500  1
  Mg  Mg8  1  0.00000000  0.00000000  0.33044400  1
  Mg  Mg9  1  0.50000000  0.76903200  0.41927400  1
  Mg  Mg10  1  0.50000000  0.23096800  0.41927400  1
  Mg  Mg11  1  0.50000000  0.00000000  0.15787000  1
  Nb  Nb0  1  0.50000000  0.50000000  0.15101200  1
  Nb  Nb1  1  0.50000000  0.00000000  0.65101200  1
loop_
_geom_bond_atom_site_label_1
_geom_bond_atom_site_label_2
_geom_bond_distance
_geom_bond_site_symmetry_2
Mg0 Mg1 3.021263 1_555
Mg0 Nb0 3.080268 1_555
Mg0 Nb0 3.080268 1_455
Mg0 Sr0 3.233212 1_555
Mg0 Mg3 3.235882 1_454
Mg0 Mg3 3.235882 1_554
Mg0 Mg11 3.270582 1_455
Mg0 Mg11 3.270582 1_555
Mg0 Mg8 3.287095 1_555
Mg0 Mg2 3.306485 1_554
Mg0 Sr1 3.355915 1_554
Mg1 Nb0 3.080268 1_555
Mg1 Nb0 3.080268 1_455
Mg1 Sr0 3.233212 1_555
Mg1 Mg4 3.235882 1_554
Mg1 Mg4 3.235882 1_454
Mg1 Mg11 3.270582 1_465
Mg1 Mg11 3.270582 1_565
Mg1 Mg8 3.287095 1_565
Mg1 Mg2 3.306485 1_554
Mg1 Sr1 3.355915 1_564
Mg2 Mg3 3.183267 1_455
Mg2 Mg4 3.183267 1_455
Mg2 Mg3 3.183267 1_555
Mg2 Mg4 3.183267 1_555
Mg2 Mg5 3.248485 1_455
Mg2 Mg5 3.248485 1_555
Mg2 Mg6 3.287095 1_555
Mg2 Mg7 3.287095 1_555
Mg2 Sr1 3.350960 1_555
Mg2 Sr1 3.350960 1_565
Mg3 Nb0 3.047959 1_556
Mg3 Mg4 3.093412 1_555
Mg3 Sr1 3.276620 1_655
Mg3 Sr1 3.276620 1_555
Mg3 Mg5 3.342024 1_555
Mg3 Nb1 3.534003 1_555
Mg4 Nb0 3.047959 1_556
Mg4 Sr1 3.276620 1_565
Mg4 Sr1 3.276620 1_665
Mg4 Mg5 3.342024 1_555
Mg4 Nb1 3.534003 1_565
Mg5 Mg9 3.249283 1_555
Mg5 Mg6 3.270582 1_555
Mg5 Mg6 3.270582 1_655
Mg5 Mg7 3.270582 1_555
Mg5 Mg7 3.270582 1_655
Mg5 Nb1 3.349214 1_555
Mg5 Nb1 3.349214 1_565
Mg6 Mg7 3.021263 1_565
Mg6 Nb1 3.080268 1_465
Mg6 Nb1 3.080268 1_565
Mg6 Sr1 3.233212 1_565
Mg6 Mg9 3.235882 1_555
Mg6 Mg9 3.235882 1_455
Mg6 Mg8 3.306485 1_565
Mg6 Sr0 3.355915 1_555
Mg7 Nb1 3.080268 1_555
Mg7 Nb1 3.080268 1_455
Mg7 Sr1 3.233212 1_555
Mg7 Mg8 3.306485 1_555
Mg7 Sr0 3.355915 1_555
Mg8 Mg9 3.183267 1_445
Mg8 Mg9 3.183267 1_545
Mg8 Sr0 3.350960 1_555
Mg8 Sr0 3.350960 1_545
Mg9 Nb1 3.047959 1_565
Mg9 Sr0 3.276620 1_655
Mg9 Sr0 3.276620 1_555
Mg9 Nb0 3.534003 1_555
Mg10 Nb1 3.047959 1_555
Mg10 Mg9 3.093412 1_545
Mg10 Mg8 3.183267 1_555
Mg10 Mg8 3.183267 1_655
Mg10 Mg7 3.235882 1_555
Mg10 Mg7 3.235882 1_655
Mg10 Mg5 3.249283 1_555
Mg10 Sr0 3.276620 1_655
Mg10 Sr0 3.276620 1_555
Mg10 Mg11 3.342024 1_555
Mg10 Nb0 3.534003 1_555
Mg11 Mg8 3.248485 1_555
Mg11 Mg8 3.248485 1_655
Mg11 Mg4 3.249283 1_544
Mg11 Mg3 3.249283 1_554
Mg11 Mg9 3.342024 1_545
Mg11 Nb0 3.349214 1_555
Mg11 Nb0 3.349214 1_545
Nb0 Sr0 3.379668 1_655
Nb0 Sr0 3.379668 1_555
Nb1 Sr1 3.379668 1_655
Nb1 Sr1 3.379668 1_555
