# generated using pymatgen
data_Li9Mn2Co5O16
_symmetry_space_group_name_H-M   'P 1'
_cell_length_a   3.01193000
_cell_length_b   9.89892242
_cell_length_c   10.24178953
_cell_angle_alpha   73.25185728
_cell_angle_beta   82.89928578
_cell_angle_gamma   86.87261073
_symmetry_Int_Tables_number   1
_chemical_formula_structural   Li9Mn2Co5O16
_chemical_formula_sum   'Li9 Mn2 Co5 O16'
_cell_volume   290.10424422
_cell_formula_units_Z   1
loop_
 _symmetry_equiv_pos_site_id
 _symmetry_equiv_pos_as_xyz
  1  'x, y, z'
loop_
 _atom_site_type_symbol
 _atom_site_label
 _atom_site_symmetry_multiplicity
 _atom_site_fract_x
 _atom_site_fract_y
 _atom_site_fract_z
 _atom_site_occupancy
  Li  Li0  1  0.93516900  0.68243800  0.12471800  1
  Li  Li1  1  0.44102900  0.19103100  0.12881000  1
  Li  Li2  1  0.31605400  0.55951900  0.37262400  1
  Li  Li3  1  0.81796400  0.06208500  0.37341800  1
  Li  Li4  1  0.68174800  0.43838500  0.62668300  1
  Li  Li5  1  0.18295800  0.93848500  0.62732700  1
  Li  Li6  1  0.06486000  0.31747300  0.87567000  1
  Li  Li7  1  0.55964500  0.80902900  0.87130400  1
  Li  Li8  1  0.49950900  0.49921600  0.00073600  1
  Mn  Mn0  1  0.00087600  0.00012300  0.99969900  1
  Mn  Mn1  1  0.74833300  0.74992000  0.50184900  1
  Co  Co0  1  0.37537500  0.87347800  0.25009100  1
  Co  Co1  1  0.87831900  0.38152500  0.24109400  1
  Co  Co2  1  0.25614700  0.24874400  0.49842700  1
  Co  Co3  1  0.11039500  0.61852300  0.76131400  1
  Co  Co4  1  0.63390200  0.12731200  0.74732600  1
  O  O0  1  0.43614800  0.84854700  0.06799000  1
  O  O1  1  0.95353500  0.34253300  0.08365600  1
  O  O2  1  0.81383900  0.72769900  0.31647800  1
  O  O3  1  0.30807800  0.22751000  0.31787300  1
  O  O4  1  0.18415500  0.59964600  0.57492100  1
  O  O5  1  0.73629100  0.10272100  0.56783700  1
  O  O6  1  0.56872100  0.48063300  0.80895700  1
  O  O7  1  0.06913200  0.98102600  0.81342300  1
  O  O8  1  0.42242300  0.51872400  0.19150500  1
  O  O9  1  0.93551100  0.02014800  0.18536300  1
  O  O10  1  0.77383500  0.39766400  0.42593700  1
  O  O11  1  0.31245300  0.90138500  0.43109500  1
  O  O12  1  0.19537600  0.27357400  0.68060000  1
  O  O13  1  0.67907800  0.77165900  0.68495100  1
  O  O14  1  0.56273900  0.15286300  0.93019800  1
  O  O15  1  0.04640400  0.65638000  0.91812800  1
loop_
_geom_bond_atom_site_label_1
_geom_bond_atom_site_label_2
_geom_bond_distance
_geom_bond_site_symmetry_2
Li0 O2 2.122090 1_555
Li0 O8 2.144243 1_655
Li0 O0 2.167021 1_555
Li0 O15 2.187572 1_654
Li0 O0 2.195790 1_655
Li0 O8 2.202789 1_555
Li1 O1 2.036364 1_455
Li1 O3 2.058077 1_555
Li1 O1 2.126542 1_555
Li1 O14 2.158318 1_554
Li1 O9 2.188312 1_555
Li1 O9 2.239071 1_455
Li2 O8 1.994332 1_555
Li2 O10 2.051133 1_555
Li2 O2 2.186055 1_455
Li2 O2 2.203991 1_555
Li2 O4 2.204972 1_555
Li2 O10 2.256791 1_455
Li3 O9 2.069642 1_555
Li3 O11 2.124875 1_645
Li3 O5 2.125304 1_555
Li3 O11 2.167487 1_545
Li3 O3 2.168759 1_655
Li3 O3 2.183652 1_555
Li4 O6 2.013226 1_555
Li4 O4 2.126748 1_555
Li4 O12 2.157340 1_555
Li4 O4 2.167160 1_655
Li4 O12 2.185500 1_655
Li4 O10 2.188836 1_555
Li5 O7 2.052514 1_555
Li5 O5 2.053619 1_465
Li5 O11 2.131224 1_555
Li5 O13 2.166879 1_555
Li5 O13 2.206584 1_455
Li5 O5 2.294687 1_565
Li6 O12 2.149974 1_555
Li6 O14 2.152145 1_555
Li6 O6 2.159059 1_455
Li6 O6 2.180275 1_555
Li6 O14 2.188575 1_455
Li6 O1 2.197814 1_456
Li7 O13 2.032634 1_555
Li7 O15 2.043808 1_655
Li7 O15 2.134686 1_555
Li7 O0 2.145295 1_556
Li7 O7 2.189354 1_555
Li7 O7 2.254664 1_655
Li8 O8 2.002249 1_555
Li8 O6 2.009488 1_554
Li8 O1 2.072053 1_555
Li8 O15 2.072157 1_554
Li8 O1 2.237157 1_455
Li8 O15 2.241864 1_654
Mn0 O9 1.953024 1_456
Mn0 O7 1.955594 1_545
Mn0 O0 1.966339 1_546
Mn0 O14 1.982021 1_455
Mn0 O0 2.239011 1_446
Mn0 O14 2.240015 1_555
Mn1 O13 1.933264 1_555
Mn1 O2 1.958333 1_555
Mn1 O4 1.970834 1_655
Mn1 O11 1.972544 1_555
Mn1 O4 2.231634 1_555
Mn1 O11 2.237729 1_655
Co0 O2 1.933216 1_555
Co0 O0 1.936163 1_555
Co0 O11 1.936853 1_555
Co0 O9 1.937824 1_465
Co0 O2 2.195848 1_455
Co0 O9 2.197666 1_565
Co1 O1 1.749036 1_555
Co1 O8 1.886615 1_555
Co1 O10 1.931322 1_555
Co1 O3 1.990870 1_655
Co1 O8 2.104201 1_655
Co1 O3 2.270125 1_555
Co2 O3 1.907116 1_555
Co2 O12 1.936492 1_555
Co2 O5 2.029773 1_555
Co2 O10 2.058357 1_455
Co2 O5 2.103789 1_455
Co2 O10 2.118815 1_555
Co3 O15 1.737658 1_555
Co3 O6 1.893126 1_555
Co3 O4 1.955698 1_555
Co3 O13 1.987526 1_455
Co3 O6 2.103633 1_455
Co3 O13 2.261020 1_555
Co4 O5 1.908721 1_555
Co4 O7 1.928963 1_645
Co4 O12 1.937020 1_555
Co4 O14 1.945677 1_555
Co4 O12 2.198712 1_655
Co4 O7 2.206323 1_545
