# generated using pymatgen
data_Ta12Co3Pt3Se32
_symmetry_space_group_name_H-M   'P 1'
_cell_length_a   7.35083233
_cell_length_b   7.35083233
_cell_length_c   47.82144569
_cell_angle_alpha   89.45656044
_cell_angle_beta   89.45656044
_cell_angle_gamma   27.07071020
_symmetry_Int_Tables_number   1
_chemical_formula_structural   Ta12Co3Pt3Se32
_chemical_formula_sum   'Ta12 Co3 Pt3 Se32'
_cell_volume   1175.90473423
_cell_formula_units_Z   1
loop_
 _symmetry_equiv_pos_site_id
 _symmetry_equiv_pos_as_xyz
  1  'x, y, z'
loop_
 _atom_site_type_symbol
 _atom_site_label
 _atom_site_symmetry_multiplicity
 _atom_site_fract_x
 _atom_site_fract_y
 _atom_site_fract_z
 _atom_site_occupancy
  Ta  Ta0  1  0.41453000  0.41453000  0.61716100  1
  Ta  Ta1  1  0.91678200  0.91678200  0.11801100  1
  Ta  Ta2  1  0.08351200  0.08351200  0.88237800  1
  Ta  Ta3  1  0.58327700  0.58327700  0.38203400  1
  Ta  Ta4  1  0.53981000  0.53981000  0.94401100  1
  Ta  Ta5  1  0.04006700  0.04006700  0.44403300  1
  Ta  Ta6  1  0.96011400  0.96011400  0.55608800  1
  Ta  Ta7  1  0.46045700  0.46045700  0.05563800  1
  Ta  Ta8  1  0.44596200  0.44596200  0.71690400  1
  Ta  Ta9  1  0.94679100  0.94679100  0.21553800  1
  Ta  Ta10  1  0.05567700  0.05567700  0.78489700  1
  Ta  Ta11  1  0.55341500  0.55341500  0.28438900  1
  Co  Co0  1  0.38925300  0.38925300  0.16994400  1
  Co  Co1  1  0.61127100  0.61127100  0.83009700  1
  Co  Co2  1  0.11067600  0.11067600  0.32986000  1
  Pt  Pt0  1  0.99989800  0.99989800  0.00003700  1
  Pt  Pt1  1  0.50098900  0.50098900  0.49960800  1
  Pt  Pt2  1  0.88577300  0.88577300  0.66910000  1
  Se  Se0  1  0.04544800  0.04544800  0.60405900  1
  Se  Se1  1  0.54670300  0.54670300  0.10371600  1
  Se  Se2  1  0.45317900  0.45317900  0.89608200  1
  Se  Se3  1  0.95362600  0.95362600  0.39618800  1
  Se  Se4  1  0.68902600  0.68902600  0.78566200  1
  Se  Se5  1  0.18674600  0.18674600  0.28525900  1
  Se  Se6  1  0.81111000  0.81111000  0.71811200  1
  Se  Se7  1  0.31335000  0.31335000  0.21458700  1
  Se  Se8  1  0.51871400  0.51871400  0.66649900  1
  Se  Se9  1  0.00826100  0.00826100  0.16564500  1
  Se  Se10  1  0.99172400  0.99172400  0.83449400  1
  Se  Se11  1  0.49160100  0.49160100  0.33420300  1
  Se  Se12  1  0.42203700  0.42203700  0.77264100  1
  Se  Se13  1  0.92039700  0.92039700  0.27160200  1
  Se  Se14  1  0.07986800  0.07986800  0.72862900  1
  Se  Se15  1  0.57967000  0.57967000  0.22830900  1
  Se  Se16  1  0.21446000  0.21446000  0.84624800  1
  Se  Se17  1  0.71432000  0.71432000  0.34574400  1
  Se  Se18  1  0.27455300  0.27455300  0.65111000  1
  Se  Se19  1  0.78546100  0.78546100  0.15405700  1
  Se  Se20  1  0.81391900  0.81391900  0.58894900  1
  Se  Se21  1  0.31504200  0.31504200  0.09026800  1
  Se  Se22  1  0.68577300  0.68577300  0.90982200  1
  Se  Se23  1  0.18485600  0.18485600  0.40954300  1
  Se  Se24  1  0.35672600  0.35672600  0.52875900  1
  Se  Se25  1  0.85517200  0.85517200  0.02922600  1
  Se  Se26  1  0.14442200  0.14442200  0.97076000  1
  Se  Se27  1  0.64540200  0.64540200  0.47050600  1
  Se  Se28  1  0.59212600  0.59212600  0.54326600  1
  Se  Se29  1  0.09300700  0.09300700  0.04340500  1
  Se  Se30  1  0.90743900  0.90743900  0.95653800  1
  Se  Se31  1  0.40760700  0.40760700  0.45638400  1
loop_
_geom_bond_atom_site_label_1
_geom_bond_atom_site_label_2
_geom_bond_distance
_geom_bond_site_symmetry_2
Co0 Se7 2.385288 1_555
Co0 Se19 2.399988 1_545
Co0 Se19 2.399988 1_455
Co0 Se9 2.426682 1_655
Co0 Se9 2.426682 1_565
Co1 Se4 2.388405 1_555
Co1 Se16 2.398754 1_655
Co1 Se16 2.398754 1_565
Co1 Se10 2.432451 1_545
Co1 Se10 2.432451 1_455
Co2 Se5 2.384566 1_555
Co2 Se17 2.398628 1_455
Co2 Se17 2.398628 1_545
Co2 Se11 2.427518 1_455
Co2 Se11 2.427518 1_545
Pt0 Se29 2.475102 1_665
Pt0 Se30 2.475337 1_554
Pt0 Se26 2.484150 1_664
Pt0 Se25 2.484203 1_555
Pt1 Se31 2.471435 1_555
Pt1 Se28 2.471604 1_555
Pt1 Se24 2.477723 1_555
Pt1 Se27 2.478198 1_555
Pt2 Se18 2.500769 1_655
Pt2 Se18 2.500769 1_565
Pt2 Se8 2.565420 1_565
Pt2 Se8 2.565420 1_655
Pt2 Se6 2.565851 1_555
Pt2 Ta8 2.994064 1_655
Pt2 Ta8 2.994064 1_565
Pt2 Ta0 3.046006 1_655
Pt2 Ta0 3.046006 1_565
Se0 Ta6 2.608623 1_445
Se0 Ta0 2.613650 1_455
Se0 Ta0 2.613650 1_545
Se1 Ta1 2.617420 1_455
Se1 Ta1 2.617420 1_545
Se1 Ta7 2.619368 1_555
Se2 Ta2 2.614556 1_565
Se2 Ta2 2.614556 1_655
Se2 Ta4 2.615731 1_555
Se3 Ta5 2.610884 1_665
Se3 Ta3 2.612985 1_565
Se3 Ta3 2.612985 1_655
Se4 Ta10 2.568154 1_565
Se4 Ta10 2.568154 1_655
Se5 Ta11 2.568076 1_455
Se5 Ta11 2.568076 1_545
Se6 Ta8 2.583841 1_565
Se6 Ta8 2.583841 1_655
Se7 Ta9 2.569337 1_455
Se7 Ta9 2.569337 1_545
Se8 Ta8 2.615844 1_555
Se8 Ta0 2.802306 1_555
Se9 Ta9 2.534529 1_445
Se9 Ta1 2.637560 1_445
Se10 Ta10 2.533519 1_665
Se10 Ta2 2.650171 1_665
Se11 Ta11 2.532652 1_555
Se11 Ta3 2.647163 1_555
Se12 Ta10 2.640823 1_565
Se12 Ta10 2.640823 1_655
Se12 Ta8 2.683960 1_555
Se13 Ta11 2.640324 1_655
Se13 Ta11 2.640324 1_565
Se13 Ta9 2.703827 1_555
Se14 Ta8 2.637889 1_455
Se14 Ta8 2.637889 1_545
Se14 Ta10 2.709594 1_555
Se15 Ta9 2.638707 1_545
Se15 Ta9 2.638707 1_455
Se15 Ta11 2.704327 1_555
Se16 Ta2 2.534829 1_555
Se17 Ta3 2.540987 1_555
Se18 Ta0 2.564234 1_555
Se19 Ta1 2.536030 1_555
Se20 Ta6 2.602289 1_555
Se20 Ta0 2.624107 1_655
Se20 Ta0 2.624107 1_565
Se21 Ta1 2.621523 1_455
Se21 Ta1 2.621523 1_545
Se21 Ta7 2.644879 1_555
Se22 Ta2 2.618425 1_655
Se22 Ta2 2.618425 1_565
Se22 Ta4 2.638031 1_555
Se23 Ta3 2.614528 1_545
Se23 Ta3 2.614528 1_455
Se23 Ta5 2.633761 1_555
Se24 Ta6 2.624757 1_455
Se24 Ta6 2.624757 1_545
Se25 Ta7 2.618573 1_565
Se25 Ta7 2.618573 1_655
Se26 Ta4 2.620929 1_545
Se26 Ta4 2.620929 1_455
Se27 Ta5 2.620412 1_565
Se27 Ta5 2.620412 1_655
Se28 Ta6 2.621761 1_455
Se28 Ta6 2.621761 1_545
Se29 Ta7 2.621052 1_545
Se29 Ta7 2.621052 1_455
Se30 Ta4 2.622286 1_565
Se30 Ta4 2.622286 1_655
Se31 Ta5 2.621351 1_655
Se31 Ta5 2.621351 1_565
