# generated using pymatgen
data_PrCo4B
_symmetry_space_group_name_H-M   'P 1'
_cell_length_a   5.12162444
_cell_length_b   5.12162444
_cell_length_c   6.83648100
_cell_angle_alpha   90.00000000
_cell_angle_beta   90.00000000
_cell_angle_gamma   120.00000568
_symmetry_Int_Tables_number   1
_chemical_formula_structural   PrCo4B
_chemical_formula_sum   'Pr2 Co8 B2'
_cell_volume   155.30258205
_cell_formula_units_Z   2
loop_
 _symmetry_equiv_pos_site_id
 _symmetry_equiv_pos_as_xyz
  1  'x, y, z'
loop_
 _atom_site_type_symbol
 _atom_site_label
 _atom_site_symmetry_multiplicity
 _atom_site_fract_x
 _atom_site_fract_y
 _atom_site_fract_z
 _atom_site_occupancy
  Pr  Pr0  1  0.00000000  0.00000000  0.50000000  1
  Pr  Pr1  1  0.00000000  0.00000000  0.00000000  1
  Co  Co0  1  0.50000000  0.00000000  0.28979500  1
  Co  Co1  1  0.50000000  0.50000000  0.28979500  1
  Co  Co2  1  0.00000000  0.50000000  0.28979500  1
  Co  Co3  1  0.50000000  0.00000000  0.71020500  1
  Co  Co4  1  0.50000000  0.50000000  0.71020500  1
  Co  Co5  1  0.00000000  0.50000000  0.71020500  1
  Co  Co6  1  0.33333300  0.66666700  0.00000000  1
  Co  Co7  1  0.66666700  0.33333300  0.00000000  1
  B  B0  1  0.66666700  0.33333300  0.50000000  1
  B  B1  1  0.33333300  0.66666700  0.50000000  1
loop_
_geom_bond_atom_site_label_1
_geom_bond_atom_site_label_2
_geom_bond_distance
_geom_bond_site_symmetry_2
Co0 Co7 2.472040 1_555
Co0 Co6 2.472040 1_545
Co0 Pr0 2.936479 1_655
Co0 Pr0 2.936479 1_555
Co0 Pr1 3.237719 1_655
Co0 Pr1 3.237719 1_555
Co1 Co6 2.472043 1_555
Co1 Co7 2.472043 1_555
Co1 Pr0 2.936479 1_665
Co1 Pr0 2.936479 1_555
Co1 Pr1 3.237719 1_555
Co1 Pr1 3.237719 1_665
Co2 Co6 2.472040 1_555
Co2 Co7 2.472040 1_455
Co2 Pr0 2.936479 1_555
Co2 Pr0 2.936479 1_565
Co2 Pr1 3.237719 1_565
Co2 Pr1 3.237719 1_555
Co3 Co7 2.472040 1_556
Co3 Co6 2.472040 1_546
Co3 Pr0 2.936479 1_655
Co3 Pr0 2.936479 1_555
Co3 Pr1 3.237719 1_556
Co3 Pr1 3.237719 1_656
Co4 Co6 2.472043 1_556
Co4 Co7 2.472043 1_556
Co4 Pr0 2.936479 1_665
Co4 Pr0 2.936479 1_555
Co4 Pr1 3.237719 1_556
Co4 Pr1 3.237719 1_666
Co5 Co7 2.472040 1_456
Co5 Co6 2.472040 1_556
Co5 Pr0 2.936479 1_555
Co5 Pr0 2.936479 1_565
Co5 Pr1 3.237719 1_556
Co5 Pr1 3.237719 1_566
Co6 Pr1 2.956968 1_565
Co6 Pr1 2.956973 1_555
Co6 Pr1 2.956973 1_665
Co7 Pr1 2.956968 1_655
Co7 Pr1 2.956973 1_555
Co7 Pr1 2.956973 1_665
B0 Co3 2.061811 1_555
B0 Co5 2.061811 1_655
B0 Co2 2.061811 1_655
B0 Co0 2.061811 1_555
B0 Co4 2.061814 1_555
B0 Co1 2.061814 1_555
B0 Pr0 2.956968 1_655
B0 Pr0 2.956973 1_555
B0 Pr0 2.956973 1_665
B1 Co5 2.061811 1_555
B1 Co3 2.061811 1_565
B1 Co0 2.061811 1_565
B1 Co2 2.061811 1_555
B1 Co4 2.061814 1_555
B1 Co1 2.061814 1_555
B1 Pr0 2.956968 1_565
B1 Pr0 2.956973 1_555
B1 Pr0 2.956973 1_665
