# generated using pymatgen
data_Sr2FeO3
_symmetry_space_group_name_H-M   'P 1'
_cell_length_a   5.29216265
_cell_length_b   13.36544521
_cell_length_c   5.29216254
_cell_angle_alpha   79.67474282
_cell_angle_beta   84.52266892
_cell_angle_gamma   100.32525950
_symmetry_Int_Tables_number   1
_chemical_formula_structural   Sr2FeO3
_chemical_formula_sum   'Sr8 Fe4 O12'
_cell_volume   359.13924492
_cell_formula_units_Z   4
loop_
 _symmetry_equiv_pos_site_id
 _symmetry_equiv_pos_as_xyz
  1  'x, y, z'
loop_
 _atom_site_type_symbol
 _atom_site_label
 _atom_site_symmetry_multiplicity
 _atom_site_fract_x
 _atom_site_fract_y
 _atom_site_fract_z
 _atom_site_occupancy
  Sr  Sr0  1  0.57429314  0.14862368  0.92570707  1
  Sr  Sr1  1  0.82428190  0.64860192  0.17571794  1
  Sr  Sr2  1  0.07429308  0.14862353  0.42570750  1
  Sr  Sr3  1  0.32428237  0.64860283  0.67571776  1
  Sr  Sr4  1  0.67571641  0.35139704  0.32428423  1
  Sr  Sr5  1  0.92570660  0.85137634  0.57429350  1
  Sr  Sr6  1  0.17571672  0.35139803  0.82428340  1
  Sr  Sr7  1  0.42570666  0.85137609  0.07429358  1
  Fe  Fe0  1  0.49999291  -0.00000020  0.50000724  1
  Fe  Fe1  1  0.74999237  0.50000003  0.75000749  1
  Fe  Fe2  1  -0.00000667  0.00000000  0.00000705  1
  Fe  Fe3  1  0.24999213  0.49999988  0.25000772  1
  O  O0  1  0.25000806  -0.00000004  0.24998925  1
  O  O1  1  0.50001144  0.50000003  0.49999078  1
  O  O2  1  0.75001084  -0.00000006  0.74999203  1
  O  O3  1  0.00000946  0.50000002  -0.00001153  1
  O  O4  1  0.67194556  0.34382610  0.82805500  1
  O  O5  1  0.92193492  0.84380874  0.07806529  1
  O  O6  1  0.17194266  0.34382818  0.32805792  1
  O  O7  1  0.42193507  0.84380808  0.57806485  1
  O  O8  1  0.57806428  0.15619158  0.42193577  1
  O  O9  1  0.82805319  0.65617401  0.67194741  1
  O  O10  1  0.07806512  0.15619146  0.92193506  1
  O  O11  1  0.32805577  0.65617176  0.17194468  1
loop_
_geom_bond_atom_site_label_1
_geom_bond_atom_site_label_2
_geom_bond_distance
_geom_bond_site_symmetry_2
Fe0 O2 1.958336 1_555
Fe0 O0 1.958336 1_555
Fe0 O7 2.012065 1_545
Fe0 O8 2.012066 1_555
Fe1 O1 1.958316 1_555
Fe1 O3 1.958318 1_656
Fe1 O4 2.011836 1_555
Fe1 O9 2.011837 1_555
Fe2 O0 1.958313 1_555
Fe2 O2 1.958316 1_454
Fe2 O5 2.012059 1_445
Fe2 O10 2.012062 1_554
Fe3 O3 1.958333 1_555
Fe3 O1 1.958335 1_555
Fe3 O6 2.011807 1_555
Fe3 O11 2.011810 1_555
O0 Sr0 2.613420 1_554
O0 Sr5 2.613513 1_445
O0 Sr7 2.614223 1_545
O0 Sr2 2.614313 1_555
O1 Sr1 2.613209 1_555
O1 Sr6 2.613317 1_555
O1 Sr4 2.614017 1_555
O1 Sr3 2.614122 1_555
O2 Sr2 2.613418 1_655
O2 Sr7 2.613515 1_546
O2 Sr5 2.614219 1_545
O2 Sr0 2.614314 1_555
O3 Sr3 2.613217 1_554
O3 Sr4 2.613327 1_455
O3 Sr6 2.614007 1_554
O3 Sr1 2.614114 1_455
O4 Sr0 2.514602 1_555
O4 Sr6 2.647792 1_655
O4 Sr4 2.647792 1_555
O4 Sr4 2.647964 1_556
O4 Sr6 2.647965 1_555
O5 Sr1 2.514658 1_555
O5 Sr5 2.647803 1_554
O5 Sr7 2.647804 1_655
O5 Sr7 2.647949 1_555
O5 Sr5 2.647949 1_555
O6 Sr2 2.514631 1_555
O6 Sr4 2.647810 1_555
O6 Sr6 2.647812 1_554
O6 Sr6 2.647943 1_555
O6 Sr4 2.647944 1_455
O7 Sr3 2.514638 1_555
O7 Sr7 2.647800 1_555
O7 Sr5 2.647801 1_555
O7 Sr5 2.647953 1_455
O7 Sr7 2.647953 1_556
O8 Sr4 2.514641 1_555
O8 Sr2 2.647799 1_555
O8 Sr0 2.647801 1_555
O8 Sr0 2.647953 1_554
O8 Sr2 2.647954 1_655
O9 Sr5 2.514601 1_555
O9 Sr1 2.647788 1_556
O9 Sr3 2.647792 1_555
O9 Sr3 2.647964 1_655
O9 Sr1 2.647969 1_555
O10 Sr6 2.514655 1_555
O10 Sr0 2.647804 1_455
O10 Sr2 2.647806 1_556
O10 Sr2 2.647947 1_555
O10 Sr0 2.647949 1_555
O11 Sr7 2.514626 1_555
O11 Sr3 2.647807 1_555
O11 Sr1 2.647809 1_455
O11 Sr1 2.647946 1_555
O11 Sr3 2.647947 1_554
