# generated using pymatgen
data_Li7Mn2(CoO4)3
_symmetry_space_group_name_H-M   'P 1'
_cell_length_a   2.93052700
_cell_length_b   5.06187746
_cell_length_c   14.99530550
_cell_angle_alpha   96.32472263
_cell_angle_beta   94.33419136
_cell_angle_gamma   104.58563445
_symmetry_Int_Tables_number   1
_chemical_formula_structural   Li7Mn2(CoO4)3
_chemical_formula_sum   'Li7 Mn2 Co3 O12'
_cell_volume   212.72312251
_cell_formula_units_Z   1
loop_
 _symmetry_equiv_pos_site_id
 _symmetry_equiv_pos_as_xyz
  1  'x, y, z'
loop_
 _atom_site_type_symbol
 _atom_site_label
 _atom_site_symmetry_multiplicity
 _atom_site_fract_x
 _atom_site_fract_y
 _atom_site_fract_z
 _atom_site_occupancy
  Li  Li0  1  0.33439800  0.57837200  0.08628600  1
  Li  Li1  1  0.00151700  0.75404800  0.25081500  1
  Li  Li2  1  0.66500000  0.90914500  0.41801500  1
  Li  Li3  1  0.34822500  0.08658700  0.58774800  1
  Li  Li4  1  0.97122700  0.24056900  0.73939200  1
  Li  Li5  1  0.67837500  0.43025600  0.91672100  1
  Li  Li6  1  0.67235200  0.67112800  0.66396600  1
  Mn  Mn0  1  0.99184200  0.99652000  0.00132000  1
  Mn  Mn1  1  0.32359100  0.83312500  0.82638800  1
  Co  Co0  1  0.67483700  0.16640500  0.16843600  1
  Co  Co1  1  0.34306000  0.33907000  0.33398500  1
  Co  Co2  1  0.99225400  0.49894200  0.50472200  1
  O  O0  1  0.69372700  0.27918500  0.04740400  1
  O  O1  1  0.36906000  0.43918600  0.21172300  1
  O  O2  1  0.99466500  0.60373300  0.37998700  1
  O  O3  1  0.63230800  0.74459300  0.53453000  1
  O  O4  1  0.33993400  0.96175300  0.71790900  1
  O  O5  1  0.96432300  0.09291600  0.87562100  1
  O  O6  1  0.98001300  0.89236000  0.12480400  1
  O  O7  1  0.68234400  0.06108000  0.28916700  1
  O  O8  1  0.35812100  0.24641100  0.45902200  1
  O  O9  1  0.99695700  0.37421800  0.61185500  1
  O  O10  1  0.69547600  0.58006400  0.79564600  1
  O  O11  1  0.29639400  0.72033600  0.95453900  1
loop_
_geom_bond_atom_site_label_1
_geom_bond_atom_site_label_2
_geom_bond_distance
_geom_bond_site_symmetry_2
Li0 O1 2.084197 1_555
Li0 O0 2.089601 1_455
Li0 O0 2.108034 1_555
Li0 O6 2.134802 1_555
Li0 O6 2.158240 1_455
Li0 O11 2.179812 1_554
Li1 O7 2.058530 1_465
Li1 O6 2.088139 1_455
Li1 O1 2.112147 1_455
Li1 O2 2.157337 1_455
Li1 O7 2.189703 1_565
Li1 O1 2.190463 1_555
Li2 O3 2.015279 1_555
Li2 O2 2.071173 1_555
Li2 O7 2.156311 1_565
Li2 O2 2.163575 1_455
Li2 O8 2.174161 1_565
Li2 O8 2.291696 1_665
Li3 O9 2.001319 1_455
Li3 O9 2.061755 1_555
Li3 O4 2.116741 1_545
Li3 O8 2.173028 1_555
Li3 O3 2.201961 1_545
Li3 O3 2.376687 1_445
Li4 O4 1.995900 1_645
Li4 O4 2.003229 1_545
Li4 O9 2.098097 1_555
Li4 O10 2.191081 1_555
Li4 O5 2.251012 1_555
Li4 O10 2.396343 1_655
Li5 O11 2.019828 1_655
Li5 O10 2.042483 1_555
Li5 O11 2.114484 1_555
Li5 O5 2.136521 1_555
Li5 O0 2.181999 1_556
Li5 O5 2.334087 1_455
Li6 O3 2.016397 1_555
Li6 O10 2.076558 1_555
Li6 O4 2.084744 1_555
Li6 O9 2.085175 1_555
Li6 O4 2.166781 1_655
Li6 O9 2.190010 1_455
Mn0 O11 1.936506 1_654
Mn0 O0 1.947045 1_565
Mn0 O6 1.980785 1_555
Mn0 O5 1.999226 1_564
Mn0 O11 2.175528 1_554
Mn0 O0 2.200142 1_665
Mn1 O4 1.817064 1_555
Mn1 O10 1.920943 1_555
Mn1 O10 1.948248 1_455
Mn1 O5 1.995926 1_465
Mn1 O5 2.032973 1_565
Mn1 O11 2.065685 1_555
Co0 O1 1.909054 1_555
Co0 O6 1.914543 1_545
Co0 O7 1.942888 1_555
Co0 O0 1.962249 1_555
Co0 O1 2.157532 1_655
Co0 O6 2.162064 1_445
Co1 O1 1.957088 1_555
Co1 O2 1.976045 1_455
Co1 O8 1.982200 1_555
Co1 O7 2.004404 1_555
Co1 O2 2.055682 1_555
Co1 O7 2.098450 1_455
Co2 O9 1.789998 1_555
Co2 O3 1.862272 1_555
Co2 O3 1.959677 1_655
Co2 O8 1.965078 1_655
Co2 O8 1.993778 1_555
Co2 O2 1.999667 1_555
