# generated using pymatgen
data_CrAsO4
_symmetry_space_group_name_H-M   'P 1'
_cell_length_a   4.76870641
_cell_length_b   6.26397237
_cell_length_c   9.01171518
_cell_angle_alpha   90.00149926
_cell_angle_beta   90.00031089
_cell_angle_gamma   89.99976053
_symmetry_Int_Tables_number   1
_chemical_formula_structural   CrAsO4
_chemical_formula_sum   'Cr4 As4 O16'
_cell_volume   269.18935136
_cell_formula_units_Z   4
loop_
 _symmetry_equiv_pos_site_id
 _symmetry_equiv_pos_as_xyz
  1  'x, y, z'
loop_
 _atom_site_type_symbol
 _atom_site_label
 _atom_site_symmetry_multiplicity
 _atom_site_fract_x
 _atom_site_fract_y
 _atom_site_fract_z
 _atom_site_occupancy
  Cr  Cr0  1  0.99999289  0.00000249  0.99999962  1
  Cr  Cr1  1  0.50000899  0.99999691  0.49999909  1
  Cr  Cr2  1  0.99999246  0.49999971  0.99999875  1
  Cr  Cr3  1  0.50000838  0.50000281  0.49999938  1
  As  As0  1  0.52241454  0.75000123  0.81811659  1
  As  As1  1  0.02242528  0.24999010  0.68188552  1
  As  As2  1  0.47757287  0.24999474  0.18188733  1
  As  As3  1  0.97759403  0.75001193  0.31811365  1
  O  O0  1  0.17414302  0.47755073  0.62618869  1
  O  O1  1  0.67410372  0.52246330  0.87381356  1
  O  O2  1  0.82591040  0.97749054  0.37379664  1
  O  O3  1  0.32588265  0.02248709  0.12619564  1
  O  O4  1  0.82587498  0.52245004  0.37380919  1
  O  O5  1  0.32586938  0.47753791  0.12619327  1
  O  O6  1  0.17410876  0.02250340  0.62620137  1
  O  O7  1  0.67409558  0.97751418  0.87380768  1
  O  O8  1  0.18250536  0.75000176  0.88607724  1
  O  O9  1  0.68252474  0.24999625  0.61392034  1
  O  O10  1  0.81747394  0.25000068  0.11391865  1
  O  O11  1  0.31749338  0.75000224  0.38607715  1
  O  O12  1  0.59128475  0.75000175  0.62818236  1
  O  O13  1  0.09127900  0.25000317  0.87182052  1
  O  O14  1  0.40873030  0.24999882  0.37181919  1
  O  O15  1  0.90871059  0.74999821  0.12817560  1
loop_
_geom_bond_atom_site_label_1
_geom_bond_atom_site_label_2
_geom_bond_distance
_geom_bond_site_symmetry_2
Cr0 O3 1.930874 1_656
Cr0 O7 1.930883 1_545
Cr0 O15 1.994049 1_546
Cr0 O13 1.994052 1_655
Cr0 O10 2.064871 1_556
Cr0 O8 2.064885 1_645
Cr1 O6 1.930966 1_565
Cr1 O2 1.930971 1_555
Cr1 O12 1.994030 1_555
Cr1 O14 1.994048 1_565
Cr1 O11 2.064862 1_555
Cr1 O9 2.064881 1_565
Cr2 O1 1.930806 1_555
Cr2 O5 1.930809 1_656
Cr2 O15 1.993974 1_556
Cr2 O13 1.993977 1_655
Cr2 O10 2.064924 1_556
Cr2 O8 2.064935 1_655
Cr3 O0 1.930744 1_555
Cr3 O4 1.930751 1_555
Cr3 O12 1.994003 1_555
Cr3 O14 1.994015 1_555
Cr3 O11 2.064919 1_555
Cr3 O9 2.064950 1_555
As0 O7 1.675126 1_555
As0 O1 1.675309 1_555
As0 O8 1.732773 1_555
As0 O12 1.742858 1_555
As1 O6 1.674970 1_555
As1 O0 1.675496 1_555
As1 O9 1.732742 1_455
As1 O13 1.742847 1_555
As2 O3 1.675118 1_555
As2 O5 1.675359 1_555
As2 O10 1.732762 1_555
As2 O14 1.742813 1_555
As3 O2 1.674924 1_555
As3 O4 1.675502 1_555
As3 O11 1.732732 1_655
As3 O15 1.742901 1_555
