# generated using pymatgen
data_Sr2CdWO6
_symmetry_space_group_name_H-M   'P 1'
_cell_length_a   5.73053911
_cell_length_b   5.86024456
_cell_length_c   8.13825939
_cell_angle_alpha   90.00000000
_cell_angle_beta   89.99937917
_cell_angle_gamma   90.00000000
_symmetry_Int_Tables_number   1
_chemical_formula_structural   Sr2CdWO6
_chemical_formula_sum   'Sr4 Cd2 W2 O12'
_cell_volume   273.30196180
_cell_formula_units_Z   2
loop_
 _symmetry_equiv_pos_site_id
 _symmetry_equiv_pos_as_xyz
  1  'x, y, z'
loop_
 _atom_site_type_symbol
 _atom_site_label
 _atom_site_symmetry_multiplicity
 _atom_site_fract_x
 _atom_site_fract_y
 _atom_site_fract_z
 _atom_site_occupancy
  Sr  Sr0  1  0.50960225  0.95552856  0.75157827  1
  Sr  Sr1  1  0.99039775  0.45552856  0.74842173  1
  Sr  Sr2  1  0.49039775  0.04447144  0.24842173  1
  Sr  Sr3  1  0.00960225  0.54447144  0.25157827  1
  Cd  Cd0  1  -0.00000000  0.00000000  0.50000000  1
  Cd  Cd1  1  0.50000000  0.50000000  -0.00000000  1
  W  W0  1  0.50000000  0.50000000  0.50000000  1
  W  W1  1  -0.00000000  0.00000000  -0.00000000  1
  O  O0  1  0.68269456  0.23154942  0.54773803  1
  O  O1  1  0.81730544  0.73154942  0.95226197  1
  O  O2  1  0.31730544  0.76845058  0.45226197  1
  O  O3  1  0.18269456  0.26845058  0.04773803  1
  O  O4  1  0.77080943  0.68669109  0.53915366  1
  O  O5  1  0.72919057  0.18669109  0.96084634  1
  O  O6  1  0.22919057  0.31330891  0.46084634  1
  O  O7  1  0.27080943  0.81330891  0.03915366  1
  O  O8  1  0.08266968  0.02755582  0.77178184  1
  O  O9  1  0.41733132  0.52755582  0.72821816  1
  O  O10  1  0.91733132  0.97244418  0.22821816  1
  O  O11  1  0.58266868  0.47244418  0.27178184  1
loop_
_geom_bond_atom_site_label_1
_geom_bond_atom_site_label_2
_geom_bond_distance
_geom_bond_site_symmetry_2
Cd0 O10 2.267757 1_445
Cd0 O8 2.267758 1_555
Cd0 O6 2.279835 1_555
Cd0 O4 2.279835 1_445
Cd0 O2 2.301852 1_545
Cd0 O0 2.301852 1_455
Cd1 O11 2.267757 1_555
Cd1 O9 2.267757 1_554
Cd1 O5 2.279835 1_554
Cd1 O7 2.279835 1_555
Cd1 O3 2.301852 1_555
Cd1 O1 2.301852 1_554
O0 W0 1.929233 1_555
O0 Sr0 2.520374 1_545
O0 Sr1 2.738530 1_555
O0 Sr2 2.889634 1_555
O1 W1 1.929233 1_666
O1 Sr1 2.520374 1_555
O1 Sr0 2.738530 1_555
O1 Sr3 2.889634 1_656
O2 W0 1.929233 1_555
O2 Sr2 2.520374 1_565
O2 Sr3 2.738530 1_555
O2 Sr0 2.889634 1_555
O3 W1 1.929233 1_555
O3 Sr3 2.520374 1_555
O3 Sr2 2.738530 1_555
O3 Sr1 2.889634 1_454
O4 W0 1.925317 1_555
O4 Sr1 2.513785 1_555
O4 Sr0 2.776907 1_555
O4 Sr3 2.836266 1_655
O5 W1 1.925317 1_656
O5 Sr0 2.513785 1_545
O5 Sr1 2.776907 1_555
O5 Sr2 2.836266 1_556
O6 W0 1.925317 1_555
O6 Sr3 2.513785 1_555
O6 Sr2 2.776907 1_555
O6 Sr1 2.836266 1_455
O7 W1 1.925317 1_565
O7 Sr2 2.513785 1_565
O7 Sr3 2.776907 1_555
O7 Sr0 2.836266 1_554
O8 W1 1.923551 1_556
O8 Sr0 2.488135 1_545
O8 Sr1 2.570200 1_455
O9 W0 1.923549 1_555
O9 Sr1 2.488141 1_455
O9 Sr0 2.570199 1_555
O10 W1 1.923549 1_665
O10 Sr2 2.488141 1_565
O10 Sr3 2.570199 1_655
O11 W0 1.923549 1_555
O11 Sr3 2.488141 1_655
O11 Sr2 2.570199 1_555
