# generated using pymatgen
data_Tb3(Al2Fe)2
_symmetry_space_group_name_H-M   'P 1'
_cell_length_a   5.41548454
_cell_length_b   5.42113991
_cell_length_c   13.43452047
_cell_angle_alpha   90.33912397
_cell_angle_beta   89.20829155
_cell_angle_gamma   119.18295097
_symmetry_Int_Tables_number   1
_chemical_formula_structural   Tb3(Al2Fe)2
_chemical_formula_sum   'Tb6 Al8 Fe4'
_cell_volume   344.31514714
_cell_formula_units_Z   2
loop_
 _symmetry_equiv_pos_site_id
 _symmetry_equiv_pos_as_xyz
  1  'x, y, z'
loop_
 _atom_site_type_symbol
 _atom_site_label
 _atom_site_symmetry_multiplicity
 _atom_site_fract_x
 _atom_site_fract_y
 _atom_site_fract_z
 _atom_site_occupancy
  Tb  Tb0  1  0.33767300  0.66861400  0.91933000  1
  Tb  Tb1  1  0.01184600  0.00255100  0.24616900  1
  Tb  Tb2  1  0.66814300  0.33068700  0.58300000  1
  Tb  Tb3  1  0.33185700  0.66931300  0.66700000  1
  Tb  Tb4  1  0.98815500  0.99744900  0.00383100  1
  Tb  Tb5  1  0.66232700  0.33138600  0.33067000  1
  Al  Al0  1  0.16816600  0.33552400  0.45642800  1
  Al  Al1  1  0.83183400  0.66447600  0.79357200  1
  Al  Al2  1  0.34340400  0.67922500  0.28619100  1
  Al  Al3  1  0.00000000  0.00000000  0.62500000  1
  Al  Al4  1  0.65659600  0.32077500  0.96380900  1
  Al  Al5  1  0.00000000  0.50000000  0.12500000  1
  Al  Al6  1  0.66697200  0.83278200  0.45697800  1
  Al  Al7  1  0.33302800  0.16721800  0.79302200  1
  Fe  Fe0  1  0.50000000  0.50000000  0.12500000  1
  Fe  Fe1  1  0.16620400  0.83298700  0.45791500  1
  Fe  Fe2  1  0.83379600  0.16701300  0.79208500  1
  Fe  Fe3  1  0.50000000  0.00000000  0.12500000  1
loop_
_geom_bond_atom_site_label_1
_geom_bond_atom_site_label_2
_geom_bond_distance
_geom_bond_site_symmetry_2
Al0 Fe1 2.701968 1_555
Al0 Fe1 2.719349 1_545
Al0 Al6 2.731819 1_555
Al0 Al6 2.753311 1_445
Al0 Al3 2.764598 1_555
Al0 Al2 2.805175 1_555
Al0 Tb5 3.154312 1_555
Al0 Tb2 3.166819 1_455
Al0 Tb2 3.228058 1_555
Al0 Tb5 3.229016 1_455
Al0 Tb1 3.235679 1_555
Al0 Tb3 3.241520 1_555
Al1 Fe2 2.701968 1_555
Al1 Fe2 2.719349 1_565
Al1 Al7 2.731819 1_555
Al1 Al7 2.753311 1_665
Al1 Al3 2.764598 1_665
Al1 Al4 2.805175 1_555
Al1 Tb0 3.154312 1_555
Al1 Tb3 3.166819 1_655
Al1 Tb3 3.228058 1_555
Al1 Tb0 3.229016 1_655
Al1 Tb4 3.235679 1_556
Al1 Tb2 3.241520 1_555
Al2 Fe3 2.643550 1_565
Al2 Fe0 2.660931 1_555
Al2 Al5 2.723287 1_555
Al2 Fe1 2.763009 1_555
Al2 Al6 2.773788 1_555
Al2 Tb1 3.113260 1_565
Al2 Tb5 3.144559 1_565
Al2 Tb5 3.180208 1_555
Al2 Tb1 3.199227 1_665
Al2 Tb1 3.248051 1_555
Al2 Tb5 3.269055 1_455
Al3 Fe2 2.717245 1_455
Al3 Fe1 2.717245 1_545
Al3 Al7 2.768341 1_555
Al3 Al6 2.768341 1_445
Al3 Tb3 3.153385 1_545
Al3 Tb2 3.153385 1_455
Al3 Tb2 3.202224 1_555
Al3 Tb3 3.202224 1_445
Al3 Tb3 3.218440 1_555
Al3 Tb2 3.218440 1_445
Al4 Fe3 2.643550 1_556
Al4 Fe0 2.660931 1_556
Al4 Al5 2.723287 1_656
Al4 Fe2 2.763009 1_555
Al4 Al7 2.773788 1_555
Al4 Tb4 3.113265 1_546
Al4 Tb0 3.144559 1_545
Al4 Tb0 3.180208 1_555
Al4 Tb4 3.199222 1_446
Al4 Tb4 3.248051 1_556
Al4 Tb0 3.269055 1_655
Al5 Fe0 2.707742 1_455
Al5 Fe0 2.707742 1_555
Al5 Fe3 2.742545 1_565
Al5 Fe3 2.742545 1_455
Al5 Tb1 3.139475 1_565
Al5 Tb4 3.139477 1_445
Al5 Tb0 3.174008 1_554
Al5 Tb5 3.174008 1_455
Al5 Tb4 3.185900 1_455
Al5 Tb1 3.185902 1_555
Al6 Fe1 2.703245 1_655
Al6 Fe1 2.712299 1_555
Al6 Tb2 3.175169 1_565
Al6 Tb5 3.185629 1_555
Al6 Tb5 3.210617 1_565
Al6 Tb2 3.216677 1_555
Al6 Tb3 3.218648 1_555
Al6 Tb1 3.250307 1_665
Al7 Fe2 2.703245 1_455
Al7 Fe2 2.712299 1_555
Al7 Tb3 3.175169 1_545
Al7 Tb0 3.185629 1_555
Al7 Tb0 3.210617 1_545
Al7 Tb3 3.216677 1_555
Al7 Tb2 3.218648 1_555
Al7 Tb4 3.250305 1_446
Fe0 Fe3 2.710570 1_565
Fe0 Fe3 2.710570 1_555
Fe0 Tb1 3.145097 1_555
Fe0 Tb4 3.145099 1_555
Fe0 Tb0 3.181755 1_554
Fe0 Tb5 3.181755 1_555
Fe0 Tb4 3.234711 1_445
Fe0 Tb1 3.234713 1_665
Fe1 Tb2 3.206299 1_455
Fe1 Tb5 3.207743 1_565
Fe1 Tb3 3.218338 1_555
Fe1 Tb2 3.226900 1_565
Fe1 Tb1 3.237611 1_565
Fe1 Tb5 3.255828 1_455
Fe2 Tb3 3.206299 1_655
Fe2 Tb0 3.207743 1_545
Fe2 Tb2 3.218338 1_555
Fe2 Tb3 3.226900 1_545
Fe2 Tb4 3.237613 1_546
Fe2 Tb0 3.255828 1_655
Fe3 Tb1 3.091134 1_555
Fe3 Tb4 3.091139 1_545
Fe3 Tb5 3.178526 1_555
Fe3 Tb0 3.178526 1_544
Fe3 Tb4 3.228079 1_445
Fe3 Tb1 3.228083 1_655
