# generated using pymatgen
data_Rb3Pd
_symmetry_space_group_name_H-M   'P 1'
_cell_length_a   10.25723886
_cell_length_b   10.25723886
_cell_length_c   10.25723886
_cell_angle_alpha   110.67101302
_cell_angle_beta   110.67101302
_cell_angle_gamma   107.09739801
_symmetry_Int_Tables_number   1
_chemical_formula_structural   Rb3Pd
_chemical_formula_sum   'Rb12 Pd4'
_cell_volume   829.68444950
_cell_formula_units_Z   4
loop_
 _symmetry_equiv_pos_site_id
 _symmetry_equiv_pos_as_xyz
  1  'x, y, z'
loop_
 _atom_site_type_symbol
 _atom_site_label
 _atom_site_symmetry_multiplicity
 _atom_site_fract_x
 _atom_site_fract_y
 _atom_site_fract_z
 _atom_site_occupancy
  Rb  Rb0  1  0.30858900  0.30858900  0.61717800  1
  Rb  Rb1  1  0.69141100  0.69141100  0.38282200  1
  Rb  Rb2  1  0.30858900  0.69141100  0.00000000  1
  Rb  Rb3  1  0.69141100  0.30858900  0.00000000  1
  Rb  Rb4  1  0.82182300  0.08040700  0.25858500  1
  Rb  Rb5  1  0.82182300  0.56323800  0.74141500  1
  Rb  Rb6  1  0.08040700  0.82182300  0.25858500  1
  Rb  Rb7  1  0.56323800  0.82182300  0.74141500  1
  Rb  Rb8  1  0.17817700  0.91959300  0.74141500  1
  Rb  Rb9  1  0.17817700  0.43676200  0.25858500  1
  Rb  Rb10  1  0.91959300  0.17817700  0.74141500  1
  Rb  Rb11  1  0.43676200  0.17817700  0.25858500  1
  Pd  Pd0  1  0.00000000  0.00000000  0.00000000  1
  Pd  Pd1  1  0.50000000  0.50000000  0.00000000  1
  Pd  Pd2  1  0.00000000  0.50000000  0.50000000  1
  Pd  Pd3  1  0.50000000  0.00000000  0.50000000  1
loop_
_geom_bond_atom_site_label_1
_geom_bond_atom_site_label_2
_geom_bond_distance
_geom_bond_site_symmetry_2
Rb0 Rb4 4.245135 1_455
Rb0 Rb6 4.245135 1_545
Rb0 Rb11 4.245136 1_555
Rb0 Rb9 4.245136 1_555
Rb0 Rb8 4.581317 1_545
Rb0 Rb10 4.581317 1_455
Rb0 Rb5 4.581326 1_555
Rb0 Rb7 4.581326 1_555
Rb1 Rb10 4.245135 1_565
Rb1 Rb8 4.245135 1_655
Rb1 Rb5 4.245136 1_555
Rb1 Rb7 4.245136 1_555
Rb1 Rb4 4.581317 1_565
Rb1 Rb6 4.581317 1_655
Rb1 Rb11 4.581326 1_555
Rb1 Rb9 4.581326 1_555
Rb2 Rb5 4.245136 1_454
Rb2 Rb8 4.245145 1_554
Rb2 Rb6 4.245145 1_555
Rb2 Rb4 4.581323 1_565
Rb2 Rb9 4.581326 1_555
Rb2 Rb7 4.581326 1_554
Rb3 Rb9 4.245136 1_655
Rb3 Rb7 4.245136 1_544
Rb3 Rb4 4.245145 1_555
Rb3 Rb6 4.581323 1_655
Rb3 Rb8 4.581323 1_544
Rb3 Rb5 4.581326 1_554
Rb4 Rb6 4.266913 1_645
Rb4 Rb7 4.266929 1_544
Rb4 Rb9 4.343412 1_655
Rb5 Rb7 4.266929 1_555
Rb5 Rb6 4.266929 1_656
Rb5 Rb8 4.343412 1_655
Rb6 Rb8 4.351374 1_555
Rb6 Rb9 4.351384 1_555
Rb7 Rb9 4.351379 1_555
Rb7 Rb8 4.351384 1_555
Rb10 Rb3 4.245145 1_556
Rb10 Rb8 4.266913 1_645
Rb10 Rb9 4.266929 1_656
Rb10 Rb7 4.343412 1_545
Rb10 Rb4 4.351374 1_555
Rb10 Rb5 4.351384 1_555
Rb10 Rb2 4.581323 1_656
Rb11 Rb2 4.245136 1_545
Rb11 Rb9 4.266929 1_555
Rb11 Rb8 4.266929 1_544
Rb11 Rb6 4.343412 1_545
Rb11 Rb5 4.351379 1_555
Rb11 Rb4 4.351384 1_555
Rb11 Rb3 4.581326 1_555
Pd0 Rb4 3.717476 1_455
Pd0 Rb6 3.717476 1_545
Pd0 Rb8 3.717476 1_544
Pd0 Rb10 3.717476 1_454
Pd0 Rb9 3.717477 1_555
Pd0 Rb11 3.717477 1_555
Pd0 Rb7 3.717477 1_444
Pd0 Rb5 3.717477 1_444
Pd1 Rb0 3.158486 1_554
Pd1 Rb1 3.158486 1_555
Pd1 Rb2 3.158486 1_555
Pd1 Rb3 3.158486 1_555
Pd2 Rb5 3.556803 1_455
Pd2 Rb9 3.556803 1_555
Pd2 Rb8 3.556812 1_555
Pd2 Rb4 3.556812 1_455
Pd3 Rb7 3.556803 1_545
Pd3 Rb11 3.556803 1_555
Pd3 Rb10 3.556812 1_555
Pd3 Rb6 3.556812 1_545
