# generated using pymatgen
data_LaTa2CuBrO7
_symmetry_space_group_name_H-M   'P 1'
_cell_length_a   3.92948400
_cell_length_b   3.92948400
_cell_length_c   11.79002800
_cell_angle_alpha   90.00000000
_cell_angle_beta   90.00000000
_cell_angle_gamma   90.00000000
_symmetry_Int_Tables_number   1
_chemical_formula_structural   LaTa2CuBrO7
_chemical_formula_sum   'La1 Ta2 Cu1 Br1 O7'
_cell_volume   182.04798907
_cell_formula_units_Z   1
loop_
 _symmetry_equiv_pos_site_id
 _symmetry_equiv_pos_as_xyz
  1  'x, y, z'
loop_
 _atom_site_type_symbol
 _atom_site_label
 _atom_site_symmetry_multiplicity
 _atom_site_fract_x
 _atom_site_fract_y
 _atom_site_fract_z
 _atom_site_occupancy
  La  La0  1  0.50000000  0.50000000  0.00000000  1
  Ta  Ta0  1  0.00000000  0.00000000  0.19104100  1
  Ta  Ta1  1  0.00000000  0.00000000  0.80895900  1
  Cu  Cu0  1  0.00000000  0.00000000  0.50000000  1
  Br  Br0  1  0.50000000  0.50000000  0.50000000  1
  O  O0  1  0.00000000  0.50000000  0.15553800  1
  O  O1  1  0.00000000  0.50000000  0.84446200  1
  O  O2  1  0.50000000  0.00000000  0.15553800  1
  O  O3  1  0.50000000  0.00000000  0.84446200  1
  O  O4  1  0.00000000  0.00000000  0.34370100  1
  O  O5  1  0.00000000  0.00000000  0.65629900  1
  O  O6  1  0.00000000  0.00000000  0.00000000  1
loop_
_geom_bond_atom_site_label_1
_geom_bond_atom_site_label_2
_geom_bond_distance
_geom_bond_site_symmetry_2
La0 O1 2.687568 1_654
La0 O3 2.687568 1_554
La0 O1 2.687568 1_554
La0 O3 2.687568 1_564
La0 O0 2.687568 1_655
La0 O2 2.687568 1_555
La0 O2 2.687568 1_565
La0 O0 2.687568 1_555
La0 O6 2.778565 1_655
La0 O6 2.778565 1_665
La0 O6 2.778565 1_555
La0 O6 2.778565 1_565
Cu0 O5 1.842770 1_555
Cu0 O4 1.842770 1_555
Br0 Cu0 2.778565 1_555
Br0 Cu0 2.778565 1_665
Br0 Cu0 2.778565 1_565
Br0 Cu0 2.778565 1_655
O0 Ta0 2.008836 1_555
O0 Ta0 2.008836 1_565
O1 Ta1 2.008836 1_555
O1 Ta1 2.008836 1_565
O2 Ta0 2.008836 1_555
O2 Ta0 2.008836 1_655
O3 Ta1 2.008836 1_655
O3 Ta1 2.008836 1_555
O4 Ta0 1.799866 1_555
O5 Ta1 1.799866 1_555
O6 Ta0 2.252379 1_555
O6 Ta1 2.252379 1_554
