# generated using pymatgen
data_BaMg14CoO16
_symmetry_space_group_name_H-M   'P 1'
_cell_length_a   8.78081909
_cell_length_b   8.69130482
_cell_length_c   4.50325049
_cell_angle_alpha   90.00000000
_cell_angle_beta   90.00000000
_cell_angle_gamma   90.00000000
_symmetry_Int_Tables_number   1
_chemical_formula_structural   BaMg14CoO16
_chemical_formula_sum   'Ba1 Mg14 Co1 O16'
_cell_volume   343.67355568
_cell_formula_units_Z   1
loop_
 _symmetry_equiv_pos_site_id
 _symmetry_equiv_pos_as_xyz
  1  'x, y, z'
loop_
 _atom_site_type_symbol
 _atom_site_label
 _atom_site_symmetry_multiplicity
 _atom_site_fract_x
 _atom_site_fract_y
 _atom_site_fract_z
 _atom_site_occupancy
  Ba  Ba0  1  0.00000000  0.50000000  0.00000000  1
  Mg  Mg0  1  0.50000000  -0.00000000  0.00000000  1
  Mg  Mg1  1  0.50000000  0.50000000  0.00000000  1
  Mg  Mg2  1  0.00000000  0.23613433  0.50000000  1
  Mg  Mg3  1  0.00000000  0.76386567  0.50000000  1
  Mg  Mg4  1  0.50000000  0.24699775  0.50000000  1
  Mg  Mg5  1  0.50000000  0.75300225  0.50000000  1
  Mg  Mg6  1  0.25153279  -0.00000000  0.50000000  1
  Mg  Mg7  1  0.26470397  0.50000000  0.50000000  1
  Mg  Mg8  1  0.74846721  -0.00000000  0.50000000  1
  Mg  Mg9  1  0.73529603  0.50000000  0.50000000  1
  Mg  Mg10  1  0.25970522  0.24069247  -0.00000000  1
  Mg  Mg11  1  0.25970522  0.75930753  0.00000000  1
  Mg  Mg12  1  0.74029478  0.24069247  -0.00000000  1
  Mg  Mg13  1  0.74029478  0.75930753  0.00000000  1
  Co  Co0  1  0.00000000  -0.00000000  0.00000000  1
  O  O0  1  0.26296653  -0.00000000  0.00000000  1
  O  O1  1  0.28054354  0.50000000  -0.00000000  1
  O  O2  1  0.73703347  -0.00000000  -0.00000000  1
  O  O3  1  0.71945646  0.50000000  0.00000000  1
  O  O4  1  0.24948134  0.24962805  0.50000000  1
  O  O5  1  0.24948134  0.75037195  0.50000000  1
  O  O6  1  0.75051866  0.24962805  0.50000000  1
  O  O7  1  0.75051866  0.75037195  0.50000000  1
  O  O8  1  0.00000000  -0.00000000  0.50000000  1
  O  O9  1  0.00000000  0.50000000  0.50000000  1
  O  O10  1  0.50000000  -0.00000000  0.50000000  1
  O  O11  1  0.50000000  0.50000000  0.50000000  1
  O  O12  1  0.00000000  0.21931618  -0.00000000  1
  O  O13  1  0.00000000  0.78068382  0.00000000  1
  O  O14  1  0.50000000  0.24403216  0.00000000  1
  O  O15  1  0.50000000  0.75596784  -0.00000000  1
loop_
_geom_bond_atom_site_label_1
_geom_bond_atom_site_label_2
_geom_bond_distance
_geom_bond_site_symmetry_2
Ba0 O9 2.251625 1_555
Ba0 O9 2.251625 1_554
Ba0 O12 2.439509 1_555
Ba0 O13 2.439509 1_555
Ba0 O1 2.463402 1_555
Ba0 O3 2.463402 1_455
Mg0 O2 2.081348 1_555
Mg0 O0 2.081348 1_555
Mg0 O14 2.120958 1_555
Mg0 O15 2.120958 1_545
Mg0 O10 2.251625 1_555
Mg0 O10 2.251625 1_554
Mg1 O3 1.927007 1_555
Mg1 O1 1.927007 1_555
Mg1 O15 2.224695 1_555
Mg1 O14 2.224695 1_555
Mg1 O11 2.251625 1_554
Mg1 O11 2.251625 1_555
Mg2 O8 2.052315 1_555
Mg2 O4 2.193788 1_555
Mg2 O6 2.193788 1_455
Mg2 O12 2.256365 1_556
Mg2 O12 2.256365 1_555
Mg2 O9 2.293337 1_555
Mg3 O8 2.052315 1_565
Mg3 O7 2.193788 1_455
Mg3 O5 2.193788 1_555
Mg3 O13 2.256365 1_555
Mg3 O13 2.256365 1_556
Mg3 O9 2.293337 1_555
Mg4 O10 2.146733 1_555
Mg4 O11 2.198920 1_555
Mg4 O4 2.199878 1_555
Mg4 O6 2.199878 1_555
Mg4 O14 2.251773 1_556
Mg4 O14 2.251773 1_555
Mg5 O10 2.146733 1_565
Mg5 O11 2.198920 1_555
Mg5 O7 2.199878 1_555
Mg5 O5 2.199878 1_555
Mg5 O15 2.251773 1_556
Mg5 O15 2.251773 1_555
Mg6 O4 2.169668 1_555
Mg6 O5 2.169668 1_545
Mg6 O10 2.181746 1_555
Mg6 O8 2.208664 1_555
Mg6 O0 2.253862 1_555
Mg6 O0 2.253862 1_556
Mg7 O11 2.066092 1_555
Mg7 O4 2.180160 1_555
Mg7 O5 2.180160 1_555
Mg7 O1 2.255917 1_556
Mg7 O1 2.255917 1_555
Mg7 O9 2.324318 1_555
Mg8 O6 2.169668 1_555
Mg8 O7 2.169668 1_545
Mg8 O10 2.181746 1_555
Mg8 O8 2.208664 1_655
Mg8 O2 2.253862 1_556
Mg8 O2 2.253862 1_555
Mg9 O11 2.066092 1_555
Mg9 O6 2.180160 1_555
Mg9 O7 2.180160 1_555
Mg9 O3 2.255917 1_556
Mg9 O3 2.255917 1_555
Mg9 O9 2.324318 1_655
Mg10 O0 2.092128 1_555
Mg10 O14 2.110185 1_555
Mg10 O4 2.254752 1_554
Mg10 O4 2.254752 1_555
Mg10 O1 2.261136 1_555
Mg10 O12 2.287980 1_555
Mg11 O0 2.092128 1_565
Mg11 O15 2.110185 1_555
Mg11 O5 2.254752 1_554
Mg11 O5 2.254752 1_555
Mg11 O1 2.261136 1_555
Mg11 O13 2.287980 1_555
Mg12 O2 2.092128 1_555
Mg12 O14 2.110185 1_555
Mg12 O6 2.254752 1_554
Mg12 O6 2.254752 1_555
Mg12 O3 2.261136 1_555
Mg12 O12 2.287980 1_655
Mg13 O2 2.092128 1_565
Mg13 O15 2.110185 1_555
Mg13 O7 2.254752 1_554
Mg13 O7 2.254752 1_555
Mg13 O3 2.261136 1_555
Mg13 O13 2.287980 1_655
Co0 O13 1.906144 1_545
Co0 O12 1.906144 1_555
Co0 O8 2.251625 1_554
Co0 O8 2.251625 1_555
Co0 O0 2.309062 1_555
Co0 O2 2.309062 1_455
