# generated using pymatgen
data_HoCdNi4
_symmetry_space_group_name_H-M   'P 1'
_cell_length_a   4.91059052
_cell_length_b   4.91058173
_cell_length_c   4.91058245
_cell_angle_alpha   60.00395781
_cell_angle_beta   60.00402259
_cell_angle_gamma   60.00401711
_symmetry_Int_Tables_number   1
_chemical_formula_structural   HoCdNi4
_chemical_formula_sum   'Ho1 Cd1 Ni4'
_cell_volume   83.73828251
_cell_formula_units_Z   1
loop_
 _symmetry_equiv_pos_site_id
 _symmetry_equiv_pos_as_xyz
  1  'x, y, z'
loop_
 _atom_site_type_symbol
 _atom_site_label
 _atom_site_symmetry_multiplicity
 _atom_site_fract_x
 _atom_site_fract_y
 _atom_site_fract_z
 _atom_site_occupancy
  Ho  Ho0  1  0.25000229  0.25000033  0.25000043  1
  Cd  Cd0  1  0.99999718  0.00000024  -0.00000004  1
  Ni  Ni0  1  0.62612069  0.62612041  0.12163828  1
  Ni  Ni1  1  0.62612070  0.12163829  0.62612044  1
  Ni  Ni2  1  0.12163777  0.62612047  0.62612045  1
  Ni  Ni3  1  0.62612136  0.62612125  0.62612144  1
loop_
_geom_bond_atom_site_label_1
_geom_bond_atom_site_label_2
_geom_bond_distance
_geom_bond_site_symmetry_2
Ho0 Ni0 2.881428 1_555
Ho0 Ni1 2.881428 1_555
Ho0 Ni2 2.881429 1_555
Ho0 Ni0 2.881567 1_545
Ho0 Ni1 2.881568 1_554
Ho0 Ni2 2.881570 1_545
Ho0 Ni2 2.881571 1_554
Ho0 Ni1 2.881578 1_455
Ho0 Ni0 2.881578 1_455
Ho0 Ni3 2.881624 1_554
Ho0 Ni3 2.881624 1_545
Ho0 Ni3 2.881636 1_455
Cd0 Ni1 2.876734 1_554
Cd0 Ni0 2.876735 1_545
Cd0 Ni2 2.876741 1_644
Cd0 Ni0 2.876871 1_555
Cd0 Ni1 2.876872 1_555
Cd0 Ni2 2.876874 1_654
Cd0 Ni2 2.876875 1_645
Cd0 Ni1 2.876888 1_654
Cd0 Ni0 2.876888 1_645
Cd0 Ni3 2.876926 1_554
Cd0 Ni3 2.876929 1_545
Cd0 Ni3 2.876944 1_644
Cd0 Ho0 3.007039 1_655
Cd0 Ho0 3.007243 1_555
Cd0 Ho0 3.007254 1_654
Cd0 Ho0 3.007255 1_645
Ni0 Ni3 2.433273 1_554
Ni0 Ni1 2.433427 1_564
Ni0 Ni2 2.433429 1_654
Ni0 Ni3 2.477310 1_555
Ni0 Ni1 2.477449 1_555
Ni0 Ni2 2.477456 1_555
Ni1 Ni3 2.433273 1_545
Ni1 Ni2 2.433429 1_645
Ni1 Ni3 2.477309 1_555
Ni1 Ni2 2.477455 1_555
Ni2 Ni3 2.433274 1_455
Ni2 Ni3 2.477317 1_555
