# generated using pymatgen
data_ZnH2C4(S3N2)2
_symmetry_space_group_name_H-M   'P 1'
_cell_length_a   7.75265600
_cell_length_b   11.71100000
_cell_length_c   13.12739000
_cell_angle_alpha   90.00000000
_cell_angle_beta   90.00000000
_cell_angle_gamma   90.00000000
_symmetry_Int_Tables_number   1
_chemical_formula_structural   ZnH2C4(S3N2)2
_chemical_formula_sum   'Zn4 H8 C16 S24 N16'
_cell_volume   1191.85351805
_cell_formula_units_Z   4
loop_
 _symmetry_equiv_pos_site_id
 _symmetry_equiv_pos_as_xyz
  1  'x, y, z'
loop_
 _atom_site_type_symbol
 _atom_site_label
 _atom_site_symmetry_multiplicity
 _atom_site_fract_x
 _atom_site_fract_y
 _atom_site_fract_z
 _atom_site_occupancy
  Zn  Zn0  1  0.25000000  0.66316200  0.50000000  1
  Zn  Zn1  1  0.75000000  0.33683800  0.50000000  1
  Zn  Zn2  1  0.75000000  0.83683800  0.00000000  1
  Zn  Zn3  1  0.25000000  0.16316200  0.00000000  1
  H  H0  1  0.10875300  0.85386300  0.84413400  1
  H  H1  1  0.89124700  0.14613700  0.15586600  1
  H  H2  1  0.60875300  0.64613700  0.65586600  1
  H  H3  1  0.39124700  0.85386300  0.15586600  1
  H  H4  1  0.39124700  0.35386300  0.34413400  1
  H  H5  1  0.60875300  0.14613700  0.84413400  1
  H  H6  1  0.89124700  0.64613700  0.34413400  1
  H  H7  1  0.10875300  0.35386300  0.65586600  1
  C  C0  1  0.07188500  0.68948700  0.90111400  1
  C  C1  1  0.92811500  0.31051300  0.09888600  1
  C  C2  1  0.57188500  0.81051300  0.59888600  1
  C  C3  1  0.42811500  0.68948700  0.09888600  1
  C  C4  1  0.42811500  0.18948700  0.40111400  1
  C  C5  1  0.57188500  0.31051300  0.90111400  1
  C  C6  1  0.92811500  0.81051300  0.40111400  1
  C  C7  1  0.07188500  0.18948700  0.59888600  1
  C  C8  1  0.19605400  0.62041100  0.73861300  1
  C  C9  1  0.80394600  0.37958900  0.26138700  1
  C  C10  1  0.69605400  0.87958900  0.76138700  1
  C  C11  1  0.30394600  0.62041100  0.26138700  1
  C  C12  1  0.30394600  0.12041100  0.23861300  1
  C  C13  1  0.69605400  0.37958900  0.73861300  1
  C  C14  1  0.80394600  0.87958900  0.23861300  1
  C  C15  1  0.19605400  0.12041100  0.76138700  1
  S  S0  1  0.11839300  0.55614500  0.85075100  1
  S  S1  1  0.88160700  0.44385500  0.14924900  1
  S  S2  1  0.61839300  0.94385500  0.64924900  1
  S  S3  1  0.38160700  0.55614500  0.14924900  1
  S  S4  1  0.38160700  0.05614500  0.35075100  1
  S  S5  1  0.61839300  0.44385500  0.85075100  1
  S  S6  1  0.88160700  0.94385500  0.35075100  1
  S  S7  1  0.11839300  0.05614500  0.64924900  1
  S  S8  1  0.27892600  0.53973100  0.64057000  1
  S  S9  1  0.72107400  0.46026900  0.35943000  1
  S  S10  1  0.77892600  0.96026900  0.85943000  1
  S  S11  1  0.22107400  0.53973100  0.35943000  1
  S  S12  1  0.22107400  0.03973100  0.14057000  1
  S  S13  1  0.77892600  0.46026900  0.64057000  1
  S  S14  1  0.72107400  0.96026900  0.14057000  1
  S  S15  1  0.27892600  0.03973100  0.85943000  1
  S  S16  1  0.00721200  0.78745500  0.51993300  1
  S  S17  1  0.99278800  0.21254500  0.48006700  1
  S  S18  1  0.50721200  0.71254500  0.98006700  1
  S  S19  1  0.49278800  0.78745500  0.48006700  1
  S  S20  1  0.49278800  0.28745500  0.01993300  1
  S  S21  1  0.50721200  0.21254500  0.51993300  1
  S  S22  1  0.99278800  0.71254500  0.01993300  1
  S  S23  1  0.00721200  0.28745500  0.98006700  1
  N  N0  1  0.18376900  0.73271400  0.74074200  1
  N  N1  1  0.81623100  0.26728600  0.25925800  1
  N  N2  1  0.68376900  0.76728600  0.75925800  1
  N  N3  1  0.31623100  0.73271400  0.25925800  1
  N  N4  1  0.31623100  0.23271400  0.24074200  1
  N  N5  1  0.68376900  0.26728600  0.74074200  1
  N  N6  1  0.81623100  0.76728600  0.24074200  1
  N  N7  1  0.18376900  0.23271400  0.75925800  1
  N  N8  1  0.11580700  0.76751500  0.83080200  1
  N  N9  1  0.88419300  0.23248500  0.16919800  1
  N  N10  1  0.61580700  0.73248500  0.66919800  1
  N  N11  1  0.38419300  0.76751500  0.16919800  1
  N  N12  1  0.38419300  0.26751500  0.33080200  1
  N  N13  1  0.61580700  0.23248500  0.83080200  1
  N  N14  1  0.88419300  0.73248500  0.33080200  1
  N  N15  1  0.11580700  0.26751500  0.66919800  1
loop_
_geom_bond_atom_site_label_1
_geom_bond_atom_site_label_2
_geom_bond_distance
_geom_bond_site_symmetry_2
H0 N8 1.027711 1_555
H1 N9 1.027711 1_555
H2 N10 1.027711 1_555
H3 N11 1.027711 1_555
H4 N12 1.027711 1_555
H5 N13 1.027711 1_555
H6 N14 1.027711 1_555
H7 N15 1.027711 1_555
C0 N8 1.342723 1_555
C0 S22 1.697607 1_456
C0 S0 1.733666 1_555
C1 N9 1.342723 1_555
C1 S23 1.697607 1_654
C1 S1 1.733666 1_555
C2 N10 1.342723 1_555
C2 S19 1.697607 1_555
C2 S2 1.733666 1_555
C3 N11 1.342723 1_555
C3 S18 1.697607 1_554
C3 S3 1.733666 1_555
C4 N12 1.342723 1_555
C4 S21 1.697607 1_555
C4 S4 1.733666 1_555
C5 N13 1.342723 1_555
C5 S20 1.697607 1_556
C5 S5 1.733666 1_555
C6 N14 1.342723 1_555
C6 S16 1.697607 1_655
C6 S6 1.733666 1_555
C7 N15 1.342723 1_555
C7 S17 1.697607 1_455
C7 S7 1.733666 1_555
C8 N0 1.318921 1_555
C8 S8 1.721047 1_555
C8 S0 1.759532 1_555
C9 N1 1.318921 1_555
C9 S9 1.721047 1_555
C9 S1 1.759532 1_555
C10 N2 1.318921 1_555
C10 S10 1.721047 1_555
C10 S2 1.759532 1_555
C11 N3 1.318921 1_555
C11 S11 1.721047 1_555
C11 S3 1.759532 1_555
C12 N4 1.318921 1_555
C12 S12 1.721047 1_555
C12 S4 1.759532 1_555
C13 N5 1.318921 1_555
C13 S13 1.721047 1_555
C13 S5 1.759532 1_555
C14 N6 1.318921 1_555
C14 S14 1.721047 1_555
C14 S6 1.759532 1_555
C15 N7 1.318921 1_555
C15 S15 1.721047 1_555
C15 S7 1.759532 1_555
S8 Zn0 2.354773 1_555
S9 Zn1 2.354773 1_555
S10 Zn2 2.354773 1_556
S11 Zn0 2.354773 1_555
S12 Zn3 2.354773 1_555
S13 Zn1 2.354773 1_555
S14 Zn2 2.354773 1_555
S15 Zn3 2.354773 1_556
S16 Zn0 2.393763 1_555
S17 Zn1 2.393763 1_555
S18 Zn2 2.393763 1_556
S19 Zn0 2.393763 1_555
S20 Zn3 2.393763 1_555
S21 Zn1 2.393763 1_555
S22 Zn2 2.393763 1_555
S23 Zn3 2.393763 1_556
N0 N8 1.356993 1_555
N1 N9 1.356993 1_555
N10 N2 1.356993 1_555
N11 N3 1.356993 1_555
N12 N4 1.356993 1_555
N13 N5 1.356993 1_555
N14 N6 1.356993 1_555
N15 N7 1.356993 1_555
