# generated using pymatgen
data_CaMn5O7
_symmetry_space_group_name_H-M   'P 1'
_cell_length_a   3.16126900
_cell_length_b   5.43724720
_cell_length_c   18.27780000
_cell_angle_alpha   90.00069851
_cell_angle_beta   89.99999998
_cell_angle_gamma   73.10429633
_symmetry_Int_Tables_number   1
_chemical_formula_structural   CaMn5O7
_chemical_formula_sum   'Ca2 Mn10 O14'
_cell_volume   300.60879123
_cell_formula_units_Z   2
loop_
 _symmetry_equiv_pos_site_id
 _symmetry_equiv_pos_as_xyz
  1  'x, y, z'
loop_
 _atom_site_type_symbol
 _atom_site_label
 _atom_site_symmetry_multiplicity
 _atom_site_fract_x
 _atom_site_fract_y
 _atom_site_fract_z
 _atom_site_occupancy
  Ca  Ca0  1  0.20179500  0.59635500  0.75001400  1
  Ca  Ca1  1  0.79815500  0.40373300  0.24998200  1
  Mn  Mn0  1  0.00003900  0.99983500  0.50005900  1
  Mn  Mn1  1  0.27653200  0.44687000  0.07386500  1
  Mn  Mn2  1  0.72348300  0.55310900  0.92611400  1
  Mn  Mn3  1  0.54060000  0.91880300  0.15333900  1
  Mn  Mn4  1  0.45937000  0.08124800  0.84669600  1
  Mn  Mn5  1  0.00021500  0.99979300  0.99997800  1
  Mn  Mn6  1  0.72355600  0.55296600  0.57390000  1
  Mn  Mn7  1  0.27643600  0.44703200  0.42609400  1
  Mn  Mn8  1  0.45932400  0.08131300  0.65334000  1
  Mn  Mn9  1  0.54063200  0.91874900  0.34665100  1
  O  O0  1  0.54726500  0.90548600  0.75000900  1
  O  O1  1  0.45265900  0.09465400  0.24999200  1
  O  O2  1  0.35188800  0.29617100  0.97118800  1
  O  O3  1  0.64812500  0.70382200  0.02878500  1
  O  O4  1  0.64813500  0.70377200  0.47126900  1
  O  O5  1  0.35183300  0.29625400  0.52874100  1
  O  O6  1  0.81627300  0.36731500  0.83555200  1
  O  O7  1  0.18370900  0.63271000  0.16444100  1
  O  O8  1  0.18370100  0.63273100  0.33555500  1
  O  O9  1  0.81626500  0.36732300  0.66443500  1
  O  O10  1  0.09284000  0.81444600  0.89520800  1
  O  O11  1  0.90717200  0.18553300  0.10476300  1
  O  O12  1  0.90723100  0.18540000  0.39522200  1
  O  O13  1  0.09277000  0.81457600  0.60481200  1
loop_
_geom_bond_atom_site_label_1
_geom_bond_atom_site_label_2
_geom_bond_distance
_geom_bond_site_symmetry_2
Ca0 O0 2.254971 1_555
Ca0 O0 2.254989 1_455
Ca0 O6 2.522416 1_555
Ca0 O6 2.522466 1_455
Ca0 O9 2.522834 1_555
Ca0 O9 2.522900 1_455
Ca0 O10 2.886192 1_555
Ca0 O13 2.886619 1_555
Ca1 O1 2.254778 1_555
Ca1 O1 2.254797 1_655
Ca1 O7 2.522294 1_555
Ca1 O7 2.522346 1_655
Ca1 O8 2.522685 1_555
Ca1 O8 2.522747 1_655
Ca1 O11 2.886835 1_555
Ca1 O12 2.887487 1_555
Mn0 O13 2.143571 1_555
Mn0 O12 2.145658 1_465
Mn0 O4 2.268642 1_455
Mn0 O4 2.269093 1_555
Mn0 O5 2.269593 1_565
Mn0 O5 2.269745 1_465
Mn1 O7 1.917165 1_555
Mn1 O2 2.033885 1_554
Mn1 O11 2.160064 1_455
Mn1 O11 2.160088 1_555
Mn1 O3 2.228012 1_455
Mn1 O3 2.228174 1_555
Mn2 O6 1.916824 1_555
Mn2 O3 2.033812 1_556
Mn2 O10 2.160096 1_655
Mn2 O10 2.160133 1_555
Mn2 O2 2.227939 1_655
Mn2 O2 2.228078 1_555
Mn3 O1 1.989433 1_565
Mn3 O7 2.180361 1_555
Mn3 O7 2.180815 1_655
Mn3 O11 2.282852 1_565
Mn3 O11 2.283277 1_465
Mn3 O3 2.536464 1_555
Mn4 O0 1.989772 1_545
Mn4 O6 2.180338 1_555
Mn4 O6 2.180797 1_455
Mn4 O10 2.282611 1_545
Mn4 O10 2.283063 1_645
Mn4 O2 2.535314 1_555
Mn5 O10 2.144032 1_555
Mn5 O11 2.145198 1_466
Mn5 O3 2.268541 1_556
Mn5 O3 2.268707 1_456
Mn5 O2 2.269602 1_565
Mn5 O2 2.270377 1_465
Mn6 O9 1.916023 1_555
Mn6 O4 2.033342 1_555
Mn6 O13 2.160995 1_655
Mn6 O13 2.161062 1_555
Mn6 O5 2.227763 1_655
Mn6 O5 2.227970 1_555
Mn7 O8 1.916233 1_555
Mn7 O5 2.033556 1_555
Mn7 O12 2.160880 1_455
Mn7 O12 2.160938 1_555
Mn7 O4 2.227981 1_455
Mn7 O4 2.228143 1_555
Mn8 O0 1.989656 1_545
Mn8 O9 2.180070 1_555
Mn8 O9 2.180486 1_455
Mn8 O13 2.282487 1_545
Mn8 O13 2.282976 1_645
Mn8 O5 2.537136 1_555
Mn9 O1 1.989680 1_565
Mn9 O8 2.180086 1_555
Mn9 O8 2.180529 1_655
Mn9 O12 2.282525 1_565
Mn9 O12 2.283005 1_465
Mn9 O4 2.537530 1_555
