# generated using pymatgen
data_Ba2SmGaTe5
_symmetry_space_group_name_H-M   'P 1'
_cell_length_a   7.90462000
_cell_length_b   9.39831903
_cell_length_c   10.23434201
_cell_angle_alpha   103.44527948
_cell_angle_beta   102.82994656
_cell_angle_gamma   107.37647969
_symmetry_Int_Tables_number   1
_chemical_formula_structural   Ba2SmGaTe5
_chemical_formula_sum   'Ba4 Sm2 Ga2 Te10'
_cell_volume   670.02104176
_cell_formula_units_Z   2
loop_
 _symmetry_equiv_pos_site_id
 _symmetry_equiv_pos_as_xyz
  1  'x, y, z'
loop_
 _atom_site_type_symbol
 _atom_site_label
 _atom_site_symmetry_multiplicity
 _atom_site_fract_x
 _atom_site_fract_y
 _atom_site_fract_z
 _atom_site_occupancy
  Ba  Ba0  1  0.35337400  0.51392800  0.71081800  1
  Ba  Ba1  1  0.64662600  0.48607200  0.28918200  1
  Ba  Ba2  1  0.63904500  0.98095700  0.29272500  1
  Ba  Ba3  1  0.36095500  0.01904300  0.70727500  1
  Sm  Sm0  1  0.99879000  0.73380700  0.99845300  1
  Sm  Sm1  1  0.00121000  0.26619300  0.00154700  1
  Ga  Ga0  1  0.80857900  0.87376100  0.68845400  1
  Ga  Ga1  1  0.19142100  0.12623900  0.31154600  1
  Te  Te0  1  0.48436200  0.74113400  0.49142700  1
  Te  Te1  1  0.51563800  0.25886600  0.50857300  1
  Te  Te2  1  0.98642500  0.67467100  0.67783600  1
  Te  Te3  1  0.01357500  0.32532900  0.32216400  1
  Te  Te4  1  0.98555600  0.15829400  0.68096000  1
  Te  Te5  1  0.01444400  0.84170600  0.31904000  1
  Te  Te6  1  0.69501900  0.40748400  0.94129100  1
  Te  Te7  1  0.30498100  0.59251600  0.05870900  1
  Te  Te8  1  0.70362000  0.90821600  0.92891800  1
  Te  Te9  1  0.29638000  0.09178400  0.07108200  1
loop_
_geom_bond_atom_site_label_1
_geom_bond_atom_site_label_2
_geom_bond_distance
_geom_bond_site_symmetry_2
Ba0 Te1 3.519083 1_555
Ba0 Te0 3.551733 1_555
Ba0 Te7 3.594339 1_556
Ba0 Te4 3.611667 1_455
Ba0 Te2 3.637208 1_455
Ba0 Te8 3.695969 1_555
Ba0 Te6 3.706690 1_555
Ba0 Te3 3.912868 1_555
Ba1 Te0 3.519083 1_555
Ba1 Te1 3.551733 1_555
Ba1 Te6 3.594339 1_554
Ba1 Te5 3.611667 1_655
Ba1 Te3 3.637208 1_655
Ba1 Te9 3.695969 1_555
Ba1 Te7 3.706690 1_555
Ba1 Te2 3.912868 1_555
Ba2 Te0 3.507192 1_555
Ba2 Te1 3.528334 1_565
Ba2 Te5 3.566408 1_655
Ba2 Te3 3.571794 1_665
Ba2 Te7 3.661122 1_555
Ba2 Te9 3.690836 1_565
Ba2 Te8 3.802611 1_554
Ba2 Te4 3.927829 1_565
Ba3 Te1 3.507192 1_555
Ba3 Te0 3.528334 1_545
Ba3 Te4 3.566408 1_455
Ba3 Te2 3.571794 1_445
Ba3 Te6 3.661122 1_555
Ba3 Te8 3.690836 1_545
Ba3 Te9 3.802611 1_556
Ba3 Te5 3.927829 1_545
Sm0 Te7 3.104705 1_656
Sm0 Te6 3.107562 1_555
Sm0 Te5 3.163241 1_656
Sm0 Te2 3.172136 1_555
Sm0 Te8 3.275134 1_555
Sm0 Te9 3.276959 1_666
Sm1 Te6 3.104705 1_454
Sm1 Te7 3.107562 1_555
Sm1 Te4 3.163241 1_454
Sm1 Te3 3.172136 1_555
Sm1 Te9 3.275134 1_555
Sm1 Te8 3.276959 1_444
Ga0 Te0 2.610702 1_555
Ga0 Te4 2.649992 1_565
Ga0 Te2 2.652091 1_555
Ga0 Te8 2.747060 1_555
Ga1 Te1 2.610702 1_555
Ga1 Te5 2.649992 1_545
Ga1 Te3 2.652091 1_555
Ga1 Te9 2.747060 1_555
