# generated using pymatgen
data_LuGePd
_symmetry_space_group_name_H-M   'P 1'
_cell_length_a   11.22420620
_cell_length_b   11.22420620
_cell_length_c   11.22420620
_cell_angle_alpha   157.54988981
_cell_angle_beta   140.37210419
_cell_angle_gamma   46.01936493
_symmetry_Int_Tables_number   1
_chemical_formula_structural   LuGePd
_chemical_formula_sum   'Lu6 Ge6 Pd6'
_cell_volume   343.52888770
_cell_formula_units_Z   6
loop_
 _symmetry_equiv_pos_site_id
 _symmetry_equiv_pos_as_xyz
  1  'x, y, z'
loop_
 _atom_site_type_symbol
 _atom_site_label
 _atom_site_symmetry_multiplicity
 _atom_site_fract_x
 _atom_site_fract_y
 _atom_site_fract_z
 _atom_site_occupancy
  Lu  Lu0  1  0.53432900  0.00000000  0.53432900  1
  Lu  Lu1  1  0.20287000  0.66702400  0.53584600  1
  Lu  Lu2  1  0.86882200  0.33297600  0.53584600  1
  Lu  Lu3  1  0.95154200  0.50000000  0.45154200  1
  Lu  Lu4  1  0.29133700  0.83346200  0.45787500  1
  Lu  Lu5  1  0.62441300  0.16653800  0.45787500  1
  Ge  Ge0  1  0.08589800  0.93425700  0.15164100  1
  Ge  Ge1  1  0.21738400  0.06574300  0.15164100  1
  Ge  Ge2  1  0.60387800  0.76297900  0.84089900  1
  Ge  Ge3  1  0.07792100  0.23702100  0.84089900  1
  Ge  Ge4  1  0.74643500  0.59206700  0.15436800  1
  Ge  Ge5  1  0.56230100  0.40793300  0.15436800  1
  Pd  Pd0  1  0.72048000  0.89492500  0.82555500  1
  Pd  Pd1  1  0.93062900  0.10507500  0.82555500  1
  Pd  Pd2  1  0.90017600  0.73185800  0.16831800  1
  Pd  Pd3  1  0.43646000  0.26814200  0.16831800  1
  Pd  Pd4  1  0.39404600  0.57256400  0.82148200  1
  Pd  Pd5  1  0.24891800  0.42743600  0.82148200  1
loop_
_geom_bond_atom_site_label_1
_geom_bond_atom_site_label_2
_geom_bond_distance
_geom_bond_site_symmetry_2
Lu0 Pd1 3.102313 1_555
Lu0 Pd0 3.102323 1_545
Lu0 Pd5 3.105663 1_555
Lu0 Pd5 3.105663 1_544
Lu0 Pd4 3.105663 1_555
Lu0 Pd4 3.105663 1_544
Lu1 Pd4 2.921203 1_555
Lu1 Pd1 2.995488 1_454
Lu1 Pd1 2.995491 1_465
Lu1 Pd2 3.100916 1_455
Lu1 Pd3 3.186754 1_555
Lu1 Pd3 3.186754 1_566
Lu2 Pd5 2.921203 1_655
Lu2 Pd0 2.995483 1_544
Lu2 Pd0 2.995483 1_555
Lu2 Pd3 3.100916 1_555
Lu2 Pd2 3.186754 1_545
Lu2 Pd2 3.186754 1_556
Lu3 Pd5 3.189375 1_655
Lu3 Pd4 3.189375 1_655
Lu3 Pd1 3.225933 1_554
Lu3 Pd1 3.225936 1_565
Lu3 Pd0 3.225940 1_555
Lu3 Pd0 3.225940 1_544
Lu4 Pd3 3.026514 1_555
Lu4 Pd3 3.026514 1_566
Lu4 Pd2 3.043355 1_455
Lu4 Pd0 3.072521 1_555
Lu4 Pd5 3.101839 1_554
Lu4 Pd5 3.101839 1_565
Lu5 Pd2 3.026514 1_545
Lu5 Pd2 3.026514 1_556
Lu5 Pd3 3.043355 1_555
Lu5 Pd1 3.072521 1_555
Lu5 Pd4 3.101839 1_555
Lu5 Pd4 3.101839 1_544
Ge0 Pd5 2.542448 1_565
Ge0 Pd5 2.542448 1_554
Ge0 Pd0 2.610977 1_454
Ge0 Ge1 2.716815 1_565
Ge0 Lu3 2.989577 1_465
Ge0 Lu3 2.989577 1_454
Ge0 Lu4 3.125285 1_555
Ge0 Lu2 3.151152 1_465
Ge0 Lu2 3.151152 1_454
Ge0 Lu0 3.213235 1_565
Ge1 Pd4 2.542448 1_555
Ge1 Pd4 2.542448 1_544
Ge1 Pd1 2.610978 1_454
Ge1 Lu3 2.989577 1_444
Ge1 Lu3 2.989577 1_455
Ge1 Lu5 3.125285 1_555
Ge1 Lu1 3.151152 1_555
Ge1 Lu1 3.151152 1_544
Ge1 Lu0 3.213235 1_555
Ge2 Pd3 2.551447 1_555
Ge2 Pd3 2.551447 1_566
Ge2 Pd2 2.573065 1_556
Ge2 Pd0 2.728819 1_555
Ge2 Lu2 3.011022 1_566
Ge2 Lu2 3.011022 1_555
Ge2 Lu1 3.052712 1_555
Ge2 Lu5 3.088221 1_555
Ge2 Lu5 3.088221 1_566
Ge2 Lu4 3.258136 1_555
Ge3 Pd2 2.551448 1_445
Ge3 Pd2 2.551451 1_456
Ge3 Pd3 2.573059 1_556
Ge3 Pd1 2.728840 1_455
Ge3 Lu1 3.011024 1_545
Ge3 Lu1 3.011027 1_556
Ge3 Lu2 3.052708 1_455
Ge3 Lu4 3.088212 1_545
Ge3 Lu4 3.088215 1_556
Ge3 Lu5 3.258144 1_455
Ge4 Pd1 2.557923 1_554
Ge4 Pd1 2.557927 1_565
Ge4 Pd4 2.564874 1_554
Ge4 Pd2 2.890366 1_555
Ge4 Lu3 2.955032 1_555
Ge4 Lu0 3.037618 1_554
Ge4 Lu0 3.037618 1_565
Ge4 Lu5 3.062229 1_554
Ge4 Lu5 3.062229 1_565
Ge4 Lu1 3.290110 1_655
Ge5 Pd0 2.557928 1_555
Ge5 Pd0 2.557928 1_544
Ge5 Pd5 2.564874 1_554
Ge5 Pd3 2.890366 1_555
Ge5 Lu3 2.955032 1_555
Ge5 Lu0 3.037618 1_565
Ge5 Lu0 3.037618 1_554
Ge5 Lu4 3.062229 1_555
Ge5 Lu4 3.062229 1_544
Ge5 Lu2 3.290110 1_555
Pd4 Pd5 2.998691 1_555
