# generated using pymatgen
data_MgZr2H10(S3O14)2
_symmetry_space_group_name_H-M   'P 1'
_cell_length_a   5.27360187
_cell_length_b   9.21504658
_cell_length_c   12.66306834
_cell_angle_alpha   94.23061623
_cell_angle_beta   90.34825717
_cell_angle_gamma   95.76877866
_symmetry_Int_Tables_number   1
_chemical_formula_structural   MgZr2H10(S3O14)2
_chemical_formula_sum   'Mg1 Zr2 H10 S6 O28'
_cell_volume   610.53935826
_cell_formula_units_Z   1
loop_
 _symmetry_equiv_pos_site_id
 _symmetry_equiv_pos_as_xyz
  1  'x, y, z'
loop_
 _atom_site_type_symbol
 _atom_site_label
 _atom_site_symmetry_multiplicity
 _atom_site_fract_x
 _atom_site_fract_y
 _atom_site_fract_z
 _atom_site_occupancy
  Mg  Mg0  1  0.21616979  0.10953006  0.42983970  1
  Zr  Zr0  1  0.77913764  0.88522968  0.82386247  1
  Zr  Zr1  1  0.23706300  0.11421416  0.16453211  1
  H  H0  1  0.44965700  0.64968019  0.55338659  1
  H  H1  1  0.53658244  0.33843186  0.45527630  1
  H  H2  1  0.27546958  0.79513772  0.53034134  1
  H  H3  1  0.66972161  0.18814138  0.47374685  1
  H  H4  1  0.44803408  0.73503845  0.43482055  1
  H  H5  1  0.48485279  0.23398085  0.61419589  1
  H  H6  1  0.11381492  0.39849970  0.82777395  1
  H  H7  1  0.87319585  0.61116464  0.18037908  1
  H  H8  1  0.30853200  0.44424033  0.91678186  1
  H  H9  1  0.70128651  0.55776396  0.08515145  1
  S  S0  1  0.76017409  0.61226565  0.69988814  1
  S  S1  1  0.29328476  0.39729553  0.28917878  1
  S  S2  1  0.29781985  0.04089849  0.67678780  1
  S  S3  1  0.70874748  0.96254665  0.32700099  1
  S  S4  1  0.27204306  0.80265674  0.99513139  1
  S  S5  1  0.74796105  0.20168934  0.99666278  1
  O  O0  1  0.90775929  0.76175243  0.68178127  1
  O  O1  1  0.14044017  0.24619489  0.31714641  1
  O  O2  1  0.57486822  0.56859115  0.61167449  1
  O  O3  1  0.48543589  0.44238326  0.37241634  1
  O  O4  1  0.92339878  0.49968275  0.71418974  1
  O  O5  1  0.11850383  0.50198264  0.27134469  1
  O  O6  1  0.61991794  0.66003010  0.80038708  1
  O  O7  1  0.41562898  0.33563412  0.18897499  1
  O  O8  1  0.25014785  0.99607209  0.56192384  1
  O  O9  1  0.83308641  0.04584592  0.42531126  1
  O  O10  1  0.06248824  0.03946670  0.73657941  1
  O  O11  1  0.88167066  0.98618211  0.23745929  1
  O  O12  1  0.42353035  0.19837138  0.68656077  1
  O  O13  1  0.64083738  0.81096329  0.34504306  1
  O  O14  1  0.47505434  0.94465348  0.71914013  1
  O  O15  1  0.46128889  0.03637195  0.30804443  1
  O  O16  1  0.07405027  0.84773568  0.91747831  1
  O  O17  1  0.97473376  0.17533792  0.06741796  1
  O  O18  1  0.77437738  0.11123252  0.89634992  1
  O  O19  1  0.23573472  0.89240798  0.09667906  1
  O  O20  1  0.24283302  0.64950256  0.00595569  1
  O  O21  1  0.73722461  0.35318379  0.98558665  1
  O  O22  1  0.52209957  0.85860700  0.95029281  1
  O  O23  1  0.52372688  0.13025303  0.05379519  1
  O  O24  1  0.24403882  0.36010216  0.86976256  1
  O  O25  1  0.73235034  0.63919838  0.13871062  1
  O  O26  1  0.33803888  0.70601703  0.49603785  1
  O  O27  1  0.52568704  0.24526733  0.49630115  1
loop_
_geom_bond_atom_site_label_1
_geom_bond_atom_site_label_2
_geom_bond_distance
_geom_bond_site_symmetry_2
Mg0 O1 2.035020 1_555
Mg0 O9 2.045557 1_455
Mg0 O8 2.053000 1_545
Mg0 O27 2.086796 1_555
Mg0 O15 2.133112 1_555
H0 O26 1.120375 1_555
H0 O2 1.309129 1_555
H1 O27 1.032706 1_555
H1 O3 1.512648 1_555
H2 O26 0.987728 1_555
H3 O27 0.998242 1_555
H3 O9 1.718333 1_555
H4 O26 1.006879 1_555
H4 O13 1.674567 1_555
H5 O12 1.038563 1_555
H5 O27 1.519303 1_555
H6 O24 0.975552 1_555
H7 O25 0.975073 1_555
H8 O24 0.973525 1_555
H9 O25 0.974064 1_555
O0 S0 1.545689 1_555
O0 Zr0 2.204494 1_555
O1 S1 1.601409 1_555
O1 Zr1 2.294206 1_555
O2 S0 1.485295 1_555
O3 S1 1.465685 1_555
O4 S0 1.433670 1_555
O5 S1 1.428139 1_555
O6 S0 1.534484 1_555
O6 Zr0 2.157688 1_555
O7 S1 1.525284 1_555
O7 Zr1 2.159354 1_555
O8 S2 1.495167 1_565
O9 S3 1.522131 1_545
O10 S2 1.457135 1_555
O10 Zr0 2.302064 1_445
O11 S3 1.474380 1_555
O11 Zr1 2.344076 1_665
O12 S2 1.529600 1_555
O13 S3 1.441927 1_555
O14 S2 1.475991 1_565
O14 Zr0 2.210840 1_555
O15 S3 1.556346 1_545
O15 Zr1 2.356296 1_555
O16 S4 1.537755 1_555
O16 Zr0 2.022264 1_455
O17 S5 1.539284 1_554
O17 Zr1 1.995392 1_655
O18 S5 1.482258 1_555
O18 Zr0 2.215687 1_545
O19 S4 1.500720 1_554
O19 Zr1 2.157314 1_565
O20 S4 1.421071 1_554
O21 S5 1.420020 1_555
O22 S4 1.497597 1_555
O22 Zr0 2.116195 1_555
O23 S5 1.509732 1_554
O23 Zr1 2.070031 1_555
