# generated using pymatgen
data_KBi3S5
_symmetry_space_group_name_H-M   'P 1'
_cell_length_a   4.08149841
_cell_length_b   16.70307729
_cell_length_c   17.78079493
_cell_angle_alpha   90.00000000
_cell_angle_beta   90.00000000
_cell_angle_gamma   90.00000000
_symmetry_Int_Tables_number   1
_chemical_formula_structural   KBi3S5
_chemical_formula_sum   'K4 Bi12 S20'
_cell_volume   1212.18050610
_cell_formula_units_Z   4
loop_
 _symmetry_equiv_pos_site_id
 _symmetry_equiv_pos_as_xyz
  1  'x, y, z'
loop_
 _atom_site_type_symbol
 _atom_site_label
 _atom_site_symmetry_multiplicity
 _atom_site_fract_x
 _atom_site_fract_y
 _atom_site_fract_z
 _atom_site_occupancy
  K  K0  1  0.25000000  0.50430725  0.28130417  1
  K  K1  1  0.25000000  0.00430725  0.21869583  1
  K  K2  1  0.75000000  0.49569275  0.71869583  1
  K  K3  1  0.75000000  0.99569275  0.78130417  1
  Bi  Bi0  1  0.75000000  0.08544210  0.43336922  1
  Bi  Bi1  1  0.75000000  0.58544210  0.06663078  1
  Bi  Bi2  1  0.25000000  0.91455790  0.56663078  1
  Bi  Bi3  1  0.25000000  0.41455790  0.93336922  1
  Bi  Bi4  1  0.75000000  0.33716649  0.12284990  1
  Bi  Bi5  1  0.75000000  0.83716649  0.37715010  1
  Bi  Bi6  1  0.25000000  0.66283351  0.87715010  1
  Bi  Bi7  1  0.25000000  0.16283351  0.62284990  1
  Bi  Bi8  1  0.25000000  0.24266561  0.29069559  1
  Bi  Bi9  1  0.25000000  0.74266561  0.20930441  1
  Bi  Bi10  1  0.75000000  0.75733439  0.70930441  1
  Bi  Bi11  1  0.75000000  0.25733439  0.79069559  1
  S  S0  1  0.25000000  0.19089585  0.46167185  1
  S  S1  1  0.25000000  0.69089585  0.03832815  1
  S  S2  1  0.75000000  0.80910415  0.53832815  1
  S  S3  1  0.75000000  0.30910415  0.96167185  1
  S  S4  1  0.25000000  0.95951454  0.40189710  1
  S  S5  1  0.25000000  0.45951454  0.09810290  1
  S  S6  1  0.75000000  0.04048546  0.59810290  1
  S  S7  1  0.75000000  0.54048546  0.90189710  1
  S  S8  1  0.25000000  0.22633039  0.14227235  1
  S  S9  1  0.25000000  0.72633039  0.35772765  1
  S  S10  1  0.75000000  0.77366961  0.85772765  1
  S  S11  1  0.75000000  0.27366961  0.64227235  1
  S  S12  1  0.75000000  0.35960895  0.27637794  1
  S  S13  1  0.75000000  0.85960895  0.22362206  1
  S  S14  1  0.25000000  0.64039105  0.72362206  1
  S  S15  1  0.25000000  0.14039105  0.77637794  1
  S  S16  1  0.75000000  0.12683693  0.28685240  1
  S  S17  1  0.75000000  0.62683693  0.21314760  1
  S  S18  1  0.25000000  0.87316307  0.71314760  1
  S  S19  1  0.25000000  0.37316307  0.78685240  1
loop_
_geom_bond_atom_site_label_1
_geom_bond_atom_site_label_2
_geom_bond_distance
_geom_bond_site_symmetry_2
K0 S17 3.134002 1_455
K0 S17 3.134002 1_555
K0 S12 3.164454 1_455
K0 S12 3.164454 1_555
K0 S5 3.342281 1_555
K1 S16 3.134002 1_555
K1 S16 3.134002 1_455
K1 S13 3.164454 1_545
K1 S13 3.164454 1_445
K1 S4 3.342281 1_545
K2 S19 3.134002 1_555
K2 S19 3.134002 1_655
K2 S14 3.164454 1_555
K2 S14 3.164454 1_655
K2 S7 3.342281 1_555
K3 S18 3.134002 1_655
K3 S18 3.134002 1_555
K3 S15 3.164454 1_665
K3 S15 3.164454 1_565
K3 S6 3.342281 1_565
Bi0 S16 2.695377 1_555
Bi0 S0 2.742344 1_555
Bi0 S0 2.742344 1_655
Bi0 S4 2.983623 1_545
Bi0 S4 2.983623 1_645
Bi0 S6 3.023818 1_555
Bi1 S17 2.695377 1_555
Bi1 S1 2.742344 1_555
Bi1 S1 2.742344 1_655
Bi1 S5 2.983623 1_655
Bi1 S5 2.983623 1_555
Bi1 S7 3.023818 1_554
Bi2 S18 2.695377 1_555
Bi2 S2 2.742344 1_555
Bi2 S2 2.742344 1_455
Bi2 S6 2.983623 1_565
Bi2 S6 2.983623 1_465
Bi2 S4 3.023818 1_555
Bi3 S19 2.695377 1_555
Bi3 S3 2.742344 1_455
Bi3 S3 2.742344 1_555
Bi3 S7 2.983623 1_455
Bi3 S7 2.983623 1_555
Bi3 S5 3.023818 1_556
Bi4 S12 2.755468 1_555
Bi4 S8 2.776913 1_555
Bi4 S8 2.776913 1_655
Bi4 S3 2.903952 1_554
Bi4 S5 2.921392 1_555
Bi4 S5 2.921392 1_655
Bi5 S13 2.755468 1_555
Bi5 S9 2.776913 1_555
Bi5 S9 2.776913 1_655
Bi5 S2 2.903952 1_555
Bi5 S4 2.921392 1_655
Bi5 S4 2.921392 1_555
Bi6 S14 2.755468 1_555
Bi6 S10 2.776913 1_455
Bi6 S10 2.776913 1_555
Bi6 S1 2.903952 1_556
Bi6 S7 2.921392 1_555
Bi6 S7 2.921392 1_455
Bi7 S15 2.755468 1_555
Bi7 S11 2.776913 1_455
Bi7 S11 2.776913 1_555
Bi7 S0 2.903952 1_555
Bi7 S6 2.921392 1_455
Bi7 S6 2.921392 1_555
Bi8 S8 2.653150 1_555
Bi8 S16 2.812894 1_455
Bi8 S16 2.812894 1_555
Bi8 S12 2.836354 1_555
Bi8 S12 2.836354 1_455
Bi8 S0 3.160681 1_555
Bi9 S9 2.653150 1_555
Bi9 S17 2.812894 1_555
Bi9 S17 2.812894 1_455
Bi9 S13 2.836354 1_455
Bi9 S13 2.836354 1_555
Bi9 S1 3.160681 1_555
Bi10 S10 2.653150 1_555
Bi10 S18 2.812894 1_555
Bi10 S18 2.812894 1_655
Bi10 S14 2.836354 1_655
Bi10 S14 2.836354 1_555
Bi10 S2 3.160681 1_555
Bi11 S11 2.653150 1_555
Bi11 S19 2.812894 1_555
Bi11 S19 2.812894 1_655
Bi11 S15 2.836354 1_655
Bi11 S15 2.836354 1_555
Bi11 S3 3.160681 1_555
