# generated using pymatgen
data_Re3S4O9
_symmetry_space_group_name_H-M   'P 1'
_cell_length_a   10.24774692
_cell_length_b   10.24774692
_cell_length_c   10.24774680
_cell_angle_alpha   110.79229645
_cell_angle_beta   110.79229645
_cell_angle_gamma   110.79229709
_symmetry_Int_Tables_number   1
_chemical_formula_structural   Re3S4O9
_chemical_formula_sum   'Re6 S8 O18'
_cell_volume   785.31791304
_cell_formula_units_Z   2
loop_
 _symmetry_equiv_pos_site_id
 _symmetry_equiv_pos_as_xyz
  1  'x, y, z'
loop_
 _atom_site_type_symbol
 _atom_site_label
 _atom_site_symmetry_multiplicity
 _atom_site_fract_x
 _atom_site_fract_y
 _atom_site_fract_z
 _atom_site_occupancy
  Re  Re0  1  0.58713100  0.79231200  0.57754700  1
  Re  Re1  1  0.57754700  0.58713100  0.79231200  1
  Re  Re2  1  0.79231200  0.57754700  0.58713100  1
  Re  Re3  1  0.41286900  0.20768800  0.42245300  1
  Re  Re4  1  0.42245300  0.41286900  0.20768800  1
  Re  Re5  1  0.20768800  0.42245300  0.41286900  1
  S  S0  1  0.78315000  0.78315000  0.78315000  1
  S  S1  1  0.21685000  0.21685000  0.21685000  1
  S  S2  1  0.42035200  0.68528000  0.67327500  1
  S  S3  1  0.67327500  0.42035200  0.68528000  1
  S  S4  1  0.68528000  0.67327500  0.42035200  1
  S  S5  1  0.57964800  0.31472000  0.32672500  1
  S  S6  1  0.32672500  0.57964800  0.31472000  1
  S  S7  1  0.31472000  0.32672500  0.57964800  1
  O  O0  1  0.64514500  0.99021900  0.63044700  1
  O  O1  1  0.63044700  0.64514500  0.99021900  1
  O  O2  1  0.99021800  0.63044700  0.64514500  1
  O  O3  1  0.35485500  0.00978200  0.36955300  1
  O  O4  1  0.36955300  0.35485500  0.00978200  1
  O  O5  1  0.00978200  0.36955300  0.35485500  1
  O  O6  1  0.61559900  0.00659100  0.08961800  1
  O  O7  1  0.08961800  0.61559900  0.00659100  1
  O  O8  1  0.00659100  0.08961800  0.61559900  1
  O  O9  1  0.10543700  0.04421800  0.63152200  1
  O  O10  1  0.63152200  0.10543700  0.04421800  1
  O  O11  1  0.04421800  0.63152200  0.10543700  1
  O  O12  1  0.38440100  0.99340900  0.91038200  1
  O  O13  1  0.91038200  0.38440100  0.99340900  1
  O  O14  1  0.99340900  0.91038200  0.38440100  1
  O  O15  1  0.89456300  0.95578200  0.36847800  1
  O  O16  1  0.36847800  0.89456300  0.95578200  1
  O  O17  1  0.95578200  0.36847800  0.89456300  1
loop_
_geom_bond_atom_site_label_1
_geom_bond_atom_site_label_2
_geom_bond_distance
_geom_bond_site_symmetry_2
Re0 S2 2.389521 1_555
Re0 S4 2.391853 1_555
Re0 S6 2.392903 1_555
Re0 S0 2.398486 1_555
Re1 S3 2.389521 1_555
Re1 S2 2.391853 1_555
Re1 S7 2.392903 1_555
Re1 S0 2.398486 1_555
Re2 S4 2.389521 1_555
Re2 S3 2.391853 1_555
Re2 S5 2.392903 1_555
Re2 S0 2.398486 1_555
Re3 S5 2.389521 1_555
Re3 S7 2.391853 1_555
Re3 S3 2.392903 1_555
Re3 S1 2.398486 1_555
Re4 S6 2.389521 1_555
Re4 S5 2.391853 1_555
Re4 S4 2.392903 1_555
Re4 S1 2.398486 1_555
Re5 S7 2.389521 1_555
Re5 S6 2.391853 1_555
Re5 S2 2.392903 1_555
Re5 S1 2.398486 1_555
O0 Re0 1.701504 1_555
O1 Re1 1.701504 1_555
O2 Re2 1.701494 1_555
O3 Re3 1.701494 1_555
O4 Re4 1.701494 1_555
O5 Re5 1.701494 1_555
O8 O9 1.241081 1_555
O10 O6 1.241081 1_555
O11 O7 1.241081 1_555
O12 O16 1.241081 1_555
O13 O17 1.241081 1_555
O14 O15 1.241081 1_555
