# generated using pymatgen
data_LaP2H2CO6
_symmetry_space_group_name_H-M   'P 1'
_cell_length_a   5.42577803
_cell_length_b   8.33466705
_cell_length_c   8.37086936
_cell_angle_alpha   113.91827859
_cell_angle_beta   100.49455453
_cell_angle_gamma   106.56617038
_symmetry_Int_Tables_number   1
_chemical_formula_structural   LaP2H2CO6
_chemical_formula_sum   'La2 P4 H4 C2 O12'
_cell_volume   311.93880424
_cell_formula_units_Z   2
loop_
 _symmetry_equiv_pos_site_id
 _symmetry_equiv_pos_as_xyz
  1  'x, y, z'
loop_
 _atom_site_type_symbol
 _atom_site_label
 _atom_site_symmetry_multiplicity
 _atom_site_fract_x
 _atom_site_fract_y
 _atom_site_fract_z
 _atom_site_occupancy
  La  La0  1  0.72805100  0.72805100  0.45610200  1
  La  La1  1  0.27194900  0.27194900  0.54389800  1
  P  P0  1  0.01825900  0.64455300  0.77806700  1
  P  P1  1  0.24019200  0.86648600  0.22193300  1
  P  P2  1  0.98174100  0.35544700  0.22193300  1
  P  P3  1  0.75980800  0.13351400  0.77806700  1
  H  H0  1  0.83375100  0.60155500  0.00000000  1
  H  H1  1  0.16624900  0.39844500  0.00000000  1
  H  H2  1  0.84762400  0.81808400  0.00000000  1
  H  H3  1  0.15237600  0.18191600  0.00000000  1
  C  C0  1  0.96529000  0.72995000  0.00000000  1
  C  C1  1  0.03471000  0.27004900  0.00000000  1
  O  O0  1  0.27336700  0.47658900  0.37150400  1
  O  O1  1  0.90186300  0.10508500  0.62849600  1
  O  O2  1  0.72663300  0.52341100  0.62849600  1
  O  O3  1  0.09813700  0.89491500  0.37150400  1
  O  O4  1  0.12451100  0.81555800  0.73944700  1
  O  O5  1  0.38506400  0.07611100  0.26055300  1
  O  O6  1  0.87548900  0.18444200  0.26055300  1
  O  O7  1  0.61493600  0.92388900  0.73944700  1
  O  O8  1  0.80413600  0.46865900  0.23398300  1
  O  O9  1  0.57015300  0.23467600  0.76601700  1
  O  O10  1  0.19586400  0.53134100  0.76601700  1
  O  O11  1  0.42984700  0.76532400  0.23398300  1
loop_
_geom_bond_atom_site_label_1
_geom_bond_atom_site_label_2
_geom_bond_distance
_geom_bond_site_symmetry_2
La0 O8 2.414662 1_555
La0 O11 2.414663 1_555
La0 O3 2.488351 1_655
La0 O0 2.488351 1_555
La0 O7 2.574658 1_555
La0 O4 2.574659 1_655
La0 O1 2.642732 1_565
La0 O2 2.642732 1_555
La1 O10 2.414662 1_555
La1 O9 2.414663 1_555
La1 O1 2.488351 1_455
La1 O2 2.488351 1_555
La1 O5 2.574658 1_555
La1 O6 2.574659 1_455
La1 O3 2.642732 1_545
La1 O0 2.642732 1_555
C0 H2 1.102093 1_555
C0 H0 1.104093 1_555
C0 P0 1.810929 1_654
C0 P1 1.810930 1_655
C1 H3 1.102086 1_555
C1 H1 1.104099 1_555
C1 P2 1.810930 1_455
C1 P3 1.810930 1_454
O0 P2 1.559790 1_455
O1 P3 1.559789 1_555
O2 P0 1.559790 1_655
O3 P1 1.559789 1_555
O4 P0 1.562440 1_555
O5 P1 1.562440 1_545
O6 P2 1.562440 1_555
O7 P3 1.562440 1_565
O8 P2 1.518513 1_555
O9 P3 1.518513 1_555
O10 P0 1.518513 1_555
O11 P1 1.518513 1_555
