# generated using pymatgen
data_Mg3Si4
_symmetry_space_group_name_H-M   'P 1'
_cell_length_a   4.32810100
_cell_length_b   7.89507656
_cell_length_c   7.92948174
_cell_angle_alpha   92.89515987
_cell_angle_beta   101.94568112
_cell_angle_gamma   104.50610700
_symmetry_Int_Tables_number   1
_chemical_formula_structural   Mg3Si4
_chemical_formula_sum   'Mg6 Si8'
_cell_volume   255.13442805
_cell_formula_units_Z   2
loop_
 _symmetry_equiv_pos_site_id
 _symmetry_equiv_pos_as_xyz
  1  'x, y, z'
loop_
 _atom_site_type_symbol
 _atom_site_label
 _atom_site_symmetry_multiplicity
 _atom_site_fract_x
 _atom_site_fract_y
 _atom_site_fract_z
 _atom_site_occupancy
  Mg  Mg0  1  0.75043500  0.99061300  0.44882400  1
  Mg  Mg1  1  0.13071900  0.68322200  0.49114600  1
  Mg  Mg2  1  0.21633700  0.61693700  0.91532900  1
  Mg  Mg3  1  0.05742200  0.21457800  0.90421700  1
  Mg  Mg4  1  0.29408400  0.33099800  0.32400300  1
  Mg  Mg5  1  0.05648600  0.88733100  0.14547500  1
  Si  Si0  1  0.56573700  0.46853800  0.73779400  1
  Si  Si1  1  0.42384800  0.97117000  0.85551700  1
  Si  Si2  1  0.54753300  0.66628300  0.25086500  1
  Si  Si3  1  0.69360300  0.45240300  0.06098400  1
  Si  Si4  1  0.79728800  0.80989500  0.75786800  1
  Si  Si5  1  0.94015000  0.35158600  0.59636700  1
  Si  Si6  1  0.38691600  0.15267100  0.62029200  1
  Si  Si7  1  0.63946300  0.15019400  0.13796700  1
loop_
_geom_bond_atom_site_label_1
_geom_bond_atom_site_label_2
_geom_bond_distance
_geom_bond_site_symmetry_2
Mg0 Si6 2.753613 1_665
Mg0 Si6 2.771171 1_565
Mg0 Si2 2.772856 1_555
Mg0 Si7 2.832087 1_565
Mg0 Si5 2.873703 1_565
Mg0 Si4 2.893872 1_555
Mg1 Si5 2.766871 1_455
Mg1 Si2 2.798822 1_455
Mg1 Si2 2.901817 1_555
Mg1 Si4 3.054297 1_455
Mg1 Si4 3.100227 1_555
Mg2 Si0 2.691398 1_555
Mg2 Si2 2.705955 1_556
Mg2 Si3 2.792217 1_556
Mg2 Si4 2.794297 1_455
Mg2 Si0 2.797000 1_455
Mg2 Si3 2.810873 1_456
Mg2 Si1 2.811599 1_555
Mg2 Si5 3.028745 1_455
Mg2 Si4 3.126480 1_555
Mg3 Si5 2.723135 1_455
Mg3 Si7 2.826449 1_456
Mg3 Si1 2.839487 1_545
Mg3 Si1 2.865028 1_445
Mg3 Si3 2.899935 1_556
Mg3 Si7 2.973833 1_556
Mg3 Si6 2.984700 1_555
Mg3 Si3 3.099357 1_456
Mg3 Si4 3.178815 1_445
Mg3 Si6 3.194197 1_455
Mg4 Si2 2.740537 1_555
Mg4 Si6 2.808941 1_555
Mg4 Si7 2.866603 1_555
Mg4 Si7 2.876135 1_455
Mg4 Si5 2.914822 1_455
Mg4 Si3 3.020432 1_555
Mg4 Si5 3.121949 1_555
Mg5 Si2 2.753163 1_455
Mg5 Si7 2.851028 1_565
Mg5 Si4 3.019613 1_454
Mg5 Si1 3.064705 1_554
Mg5 Si7 3.068021 1_465
Mg5 Si2 3.087258 1_555
Si0 Si5 2.476590 1_555
Si0 Si6 2.487165 1_555
Si0 Si3 2.524135 1_556
Si0 Si5 2.612909 1_455
Si0 Si4 2.613522 1_555
Si1 Si6 2.412318 1_565
Si1 Si7 2.457435 1_566
Si1 Si4 2.506519 1_555
Si1 Si4 2.622234 1_455
Si2 Si3 2.487987 1_555
Si3 Si7 2.458987 1_555
Si5 Si6 2.563208 1_555
Si5 Si6 2.764203 1_655
