# generated using pymatgen
data_CaVAs2O7
_symmetry_space_group_name_H-M   'P 1'
_cell_length_a   8.57865900
_cell_length_b   8.13614300
_cell_length_c   10.65287533
_cell_angle_alpha   60.72981674
_cell_angle_beta   90.00000000
_cell_angle_gamma   90.00000000
_symmetry_Int_Tables_number   1
_chemical_formula_structural   CaVAs2O7
_chemical_formula_sum   'Ca4 V4 As8 O28'
_cell_volume   648.60838517
_cell_formula_units_Z   4
loop_
 _symmetry_equiv_pos_site_id
 _symmetry_equiv_pos_as_xyz
  1  'x, y, z'
loop_
 _atom_site_type_symbol
 _atom_site_label
 _atom_site_symmetry_multiplicity
 _atom_site_fract_x
 _atom_site_fract_y
 _atom_site_fract_z
 _atom_site_occupancy
  Ca  Ca0  1  0.06785200  0.74067800  0.90502100  1
  Ca  Ca1  1  0.56785200  0.25932200  0.59497900  1
  Ca  Ca2  1  0.93214800  0.25932200  0.09497900  1
  Ca  Ca3  1  0.43214800  0.74067800  0.40502100  1
  V  V0  1  0.93657300  0.20108500  0.71587000  1
  V  V1  1  0.43657300  0.79891500  0.78413000  1
  V  V2  1  0.06342700  0.79891500  0.28413000  1
  V  V3  1  0.56342700  0.20108500  0.21587000  1
  As  As0  1  0.76182800  0.55179900  0.75036500  1
  As  As1  1  0.26182800  0.44820100  0.74963500  1
  As  As2  1  0.23817200  0.44820100  0.24963500  1
  As  As3  1  0.73817200  0.55179900  0.25036500  1
  As  As4  1  0.68427300  0.95152800  0.95580300  1
  As  As5  1  0.18427300  0.04847200  0.54419700  1
  As  As6  1  0.31572700  0.04847200  0.04419700  1
  As  As7  1  0.81572700  0.95152800  0.45580300  1
  O  O0  1  0.66543400  0.23883700  0.07076800  1
  O  O1  1  0.16543400  0.76116300  0.42923200  1
  O  O2  1  0.33456600  0.76116300  0.92923200  1
  O  O3  1  0.83456600  0.23883700  0.57076800  1
  O  O4  1  0.57894700  0.63327000  0.75712000  1
  O  O5  1  0.07894700  0.36673000  0.74288000  1
  O  O6  1  0.42105300  0.36673000  0.24288000  1
  O  O7  1  0.92105300  0.63327000  0.25712000  1
  O  O8  1  0.88848700  0.55551400  0.87208300  1
  O  O9  1  0.38848700  0.44448600  0.62791700  1
  O  O10  1  0.11151300  0.44448600  0.12791700  1
  O  O11  1  0.61151300  0.55551400  0.37208300  1
  O  O12  1  0.81920100  0.68703800  0.56905200  1
  O  O13  1  0.31920100  0.31296200  0.93094800  1
  O  O14  1  0.18079900  0.31296200  0.43094800  1
  O  O15  1  0.68079900  0.68703800  0.06905200  1
  O  O16  1  0.90065200  0.96185300  0.29949200  1
  O  O17  1  0.40065200  0.03814700  0.20050800  1
  O  O18  1  0.09934800  0.03814700  0.70050800  1
  O  O19  1  0.59934800  0.96185300  0.79949200  1
  O  O20  1  0.74960800  0.33029100  0.26780200  1
  O  O21  1  0.24960800  0.66970900  0.23219800  1
  O  O22  1  0.25039200  0.66970900  0.73219800  1
  O  O23  1  0.75039200  0.33029100  0.76780200  1
  O  O24  1  0.61539400  0.97268900  0.39267500  1
  O  O25  1  0.11539400  0.02731100  0.10732500  1
  O  O26  1  0.38460600  0.02731100  0.60732500  1
  O  O27  1  0.88460600  0.97268900  0.89267500  1
loop_
_geom_bond_atom_site_label_1
_geom_bond_atom_site_label_2
_geom_bond_distance
_geom_bond_site_symmetry_2
Ca0 O8 2.297230 1_455
Ca0 O2 2.317650 1_555
Ca0 O18 2.349684 1_565
Ca0 O27 2.410196 1_455
Ca0 O10 2.447533 1_556
Ca0 O22 2.686006 1_555
Ca1 O9 2.297230 1_555
Ca1 O3 2.317650 1_555
Ca1 O19 2.349684 1_545
Ca1 O26 2.410196 1_555
Ca1 O11 2.447533 1_555
Ca1 O23 2.686006 1_555
Ca2 O10 2.297230 1_655
Ca2 O0 2.317650 1_555
Ca2 O16 2.349684 1_545
Ca2 O25 2.410196 1_655
Ca2 O8 2.447533 1_554
Ca2 O20 2.686006 1_555
Ca3 O11 2.297230 1_555
Ca3 O1 2.317650 1_555
Ca3 O17 2.349684 1_565
Ca3 O24 2.410196 1_555
Ca3 O9 2.447533 1_555
Ca3 O21 2.686006 1_555
As0 O8 1.703277 1_555
As0 O4 1.718304 1_555
As0 O23 1.721851 1_555
As0 O12 1.762228 1_555
As1 O9 1.703277 1_555
As1 O5 1.718304 1_555
As1 O22 1.721851 1_555
As1 O13 1.762228 1_555
As2 O10 1.703277 1_555
As2 O6 1.718304 1_555
As2 O21 1.721851 1_555
As2 O14 1.762228 1_555
As3 O11 1.703277 1_555
As3 O7 1.718304 1_555
As3 O20 1.721851 1_555
As3 O15 1.762228 1_555
As4 O19 1.781519 1_555
As4 O27 1.822695 1_555
As4 O15 1.883744 1_556
As5 O18 1.781519 1_555
As5 O26 1.822695 1_555
As5 O14 1.883744 1_555
As6 O17 1.781519 1_555
As6 O25 1.822695 1_555
As6 O13 1.883744 1_554
As7 O16 1.781519 1_555
As7 O24 1.822695 1_555
As7 O12 1.883744 1_555
O0 V3 1.668890 1_555
O1 V2 1.668890 1_555
O2 V1 1.668890 1_555
O3 V0 1.668890 1_555
O4 V1 1.941669 1_555
O5 V0 1.941669 1_455
O6 V3 1.941669 1_555
O7 V2 1.941669 1_655
O16 V2 1.986524 1_655
O17 V3 1.986524 1_555
O18 V0 1.986524 1_455
O19 V1 1.986524 1_555
O20 V3 2.128579 1_555
O21 V2 2.128579 1_555
O22 V1 2.128579 1_555
O23 V0 2.128579 1_555
O24 V3 1.943421 1_565
O25 V2 1.943421 1_545
O26 V1 1.943421 1_545
O27 V0 1.943421 1_565
