# generated using pymatgen
data_Sr2CaV2(Si2O7)2
_symmetry_space_group_name_H-M   'P 1'
_cell_length_a   5.59482132
_cell_length_b   7.77069634
_cell_length_c   8.19277414
_cell_angle_alpha   74.64488077
_cell_angle_beta   111.07428322
_cell_angle_gamma   90.35331315
_symmetry_Int_Tables_number   1
_chemical_formula_structural   Sr2CaV2(Si2O7)2
_chemical_formula_sum   'Sr2 Ca1 V2 Si4 O14'
_cell_volume   318.92503832
_cell_formula_units_Z   1
loop_
 _symmetry_equiv_pos_site_id
 _symmetry_equiv_pos_as_xyz
  1  'x, y, z'
loop_
 _atom_site_type_symbol
 _atom_site_label
 _atom_site_symmetry_multiplicity
 _atom_site_fract_x
 _atom_site_fract_y
 _atom_site_fract_z
 _atom_site_occupancy
  Sr  Sr0  1  0.17073500  0.69291400  0.32090700  1
  Sr  Sr1  1  0.78807500  0.31766300  0.63042500  1
  Ca  Ca0  1  0.76898500  0.89590900  0.57075700  1
  V  V0  1  0.94268900  0.55620100  0.90217000  1
  V  V1  1  0.16557700  0.19445100  0.28526100  1
  Si  Si0  1  0.38699100  0.51223300  0.78786500  1
  Si  Si1  1  0.62527700  0.49372500  0.21875100  1
  Si  Si2  1  0.61445000  0.93040200  0.18134300  1
  Si  Si3  1  0.35391800  0.09964900  0.75089700  1
  O  O0  1  0.64132800  0.70357000  0.23651900  1
  O  O1  1  0.36579600  0.32040300  0.73983400  1
  O  O2  1  0.51768800  0.49830600  0.00271300  1
  O  O3  1  0.53425800  0.99988800  0.96235400  1
  O  O4  1  0.58744300  0.61343000  0.69381900  1
  O  O5  1  0.91594800  0.39710700  0.32958000  1
  O  O6  1  0.41526000  0.97592200  0.27216000  1
  O  O7  1  0.06017300  0.05809300  0.69724000  1
  O  O8  1  0.99828100  0.32373600  0.99641800  1
  O  O9  1  0.99985000  0.72718700  0.00019200  1
  O  O10  1  0.90137800  0.97297600  0.29998600  1
  O  O11  1  0.47808000  0.07570200  0.60616900  1
  O  O12  1  0.09074800  0.60986600  0.70319100  1
  O  O13  1  0.42707200  0.41029900  0.31561700  1
loop_
_geom_bond_atom_site_label_1
_geom_bond_atom_site_label_2
_geom_bond_distance
_geom_bond_site_symmetry_2
Ca0 O7 2.183684 1_665
Ca0 O11 2.295071 1_565
Ca0 O6 2.452680 1_555
Ca0 O10 2.510199 1_555
Ca0 O4 2.530477 1_555
Ca0 O12 2.593461 1_655
O0 Si1 1.674142 1_555
O0 Si2 1.693005 1_555
O0 Sr0 2.785309 1_655
O0 Sr0 2.948390 1_555
O1 Si0 1.632750 1_555
O1 Si3 1.695834 1_555
O1 Sr1 2.814141 1_555
O1 Sr1 3.029357 1_455
O2 Si0 1.618386 1_554
O2 Si1 1.642263 1_555
O3 Si2 1.619503 1_556
O3 Si3 1.631438 1_565
O4 Si0 1.661162 1_555
O4 V0 2.056902 1_555
O4 Sr1 2.809852 1_555
O4 Sr0 3.007827 1_555
O5 Si1 1.620164 1_555
O5 V1 2.292810 1_655
O5 Sr0 2.695678 1_655
O5 Sr1 2.724849 1_555
O6 Si2 1.631330 1_555
O6 V1 2.253923 1_565
O6 Sr0 2.599644 1_555
O7 Si3 1.596098 1_555
O7 Sr1 2.353602 1_455
O8 V0 1.746885 1_555
O8 V1 2.155219 1_656
O8 Sr1 2.813281 1_555
O9 V0 1.699339 1_554
O9 Sr0 2.390591 1_655
O10 Si2 1.634894 1_555
O10 V1 2.268981 1_665
O10 Sr0 2.587230 1_655
O11 Si3 1.622939 1_555
O11 V1 2.499992 1_555
O11 Sr1 2.548037 1_555
O12 Si0 1.647361 1_555
O12 V0 2.030876 1_455
O12 Sr1 2.884820 1_455
O12 Sr0 3.218684 1_555
O13 Si1 1.622137 1_555
O13 V1 2.223637 1_555
O13 Sr1 2.556952 1_555
O13 Sr0 2.648691 1_555
