# generated using pymatgen
data_MgMn6O12
_symmetry_space_group_name_H-M   'P 1'
_cell_length_a   5.73642623
_cell_length_b   5.73642623
_cell_length_c   14.49279516
_cell_angle_alpha   86.91611583
_cell_angle_beta   86.91611583
_cell_angle_gamma   60.83098275
_symmetry_Int_Tables_number   1
_chemical_formula_structural   MgMn6O12
_chemical_formula_sum   'Mg2 Mn12 O24'
_cell_volume   415.61853555
_cell_formula_units_Z   2
loop_
 _symmetry_equiv_pos_site_id
 _symmetry_equiv_pos_as_xyz
  1  'x, y, z'
loop_
 _atom_site_type_symbol
 _atom_site_label
 _atom_site_symmetry_multiplicity
 _atom_site_fract_x
 _atom_site_fract_y
 _atom_site_fract_z
 _atom_site_occupancy
  Mg  Mg0  1  0.76146500  0.50955100  0.18705800  1
  Mg  Mg1  1  0.50955100  0.76146500  0.68705800  1
  Mn  Mn0  1  0.24150900  0.99114400  0.48881000  1
  Mn  Mn1  1  0.74317000  0.49486300  0.49116200  1
  Mn  Mn2  1  0.49255800  0.24383500  0.16079400  1
  Mn  Mn3  1  0.02820500  0.77870800  0.15874400  1
  Mn  Mn4  1  0.48842900  0.24358700  0.84145600  1
  Mn  Mn5  1  0.99222800  0.73916300  0.84138500  1
  Mn  Mn6  1  0.49486300  0.74317000  0.99116200  1
  Mn  Mn7  1  0.99114400  0.24150900  0.98881000  1
  Mn  Mn8  1  0.24383500  0.49255800  0.66079400  1
  Mn  Mn9  1  0.77870800  0.02820500  0.65874400  1
  Mn  Mn10  1  0.24358700  0.48842900  0.34145600  1
  Mn  Mn11  1  0.73916300  0.99222800  0.34138500  1
  O  O0  1  0.34657400  0.09684600  0.93520100  1
  O  O1  1  0.84137000  0.59358800  0.93300900  1
  O  O2  1  0.65633900  0.40652600  0.06616100  1
  O  O3  1  0.16146700  0.91380200  0.06215800  1
  O  O4  1  0.59358800  0.84137000  0.43300900  1
  O  O5  1  0.09684600  0.34657400  0.43520100  1
  O  O6  1  0.40652600  0.65633900  0.56616100  1
  O  O7  1  0.91380200  0.16146700  0.56215800  1
  O  O8  1  0.83477500  0.08494200  0.89225600  1
  O  O9  1  0.33434300  0.58629300  0.89266100  1
  O  O10  1  0.67505000  0.88914800  0.11571600  1
  O  O11  1  0.13877700  0.42640000  0.11581100  1
  O  O12  1  0.58629300  0.33434300  0.39266100  1
  O  O13  1  0.08494200  0.83477500  0.39225600  1
  O  O14  1  0.42640000  0.13877700  0.61581100  1
  O  O15  1  0.88914800  0.67505000  0.61571600  1
  O  O16  1  0.65641800  0.90818500  0.77417200  1
  O  O17  1  0.14575600  0.39591000  0.77787400  1
  O  O18  1  0.83951000  0.12294800  0.22257100  1
  O  O19  1  0.37289200  0.59056300  0.22229900  1
  O  O20  1  0.39591000  0.14575600  0.27787400  1
  O  O21  1  0.90818500  0.65641800  0.27417200  1
  O  O22  1  0.59056300  0.37289200  0.72229900  1
  O  O23  1  0.12294800  0.83951000  0.72257100  1
loop_
_geom_bond_atom_site_label_1
_geom_bond_atom_site_label_2
_geom_bond_distance
_geom_bond_site_symmetry_2
Mg0 O21 1.982954 1_555
Mg0 O18 2.077924 1_555
Mg0 O19 2.082945 1_555
Mg0 O2 2.086967 1_555
Mg0 O11 2.187373 1_655
Mg0 O10 2.194792 1_555
Mg1 O16 1.982954 1_555
Mg1 O23 2.077924 1_555
Mg1 O22 2.082945 1_555
Mg1 O6 2.086967 1_555
Mg1 O14 2.187373 1_565
Mg1 O15 2.194792 1_555
Mn0 O4 1.918026 1_555
Mn0 O5 1.923286 1_565
Mn0 O7 1.929994 1_465
Mn0 O6 1.987904 1_555
Mn0 O13 2.150578 1_555
Mn0 O14 2.546222 1_565
Mn1 O4 1.905934 1_555
Mn1 O5 1.926771 1_655
Mn1 O7 1.935538 1_555
Mn1 O6 1.976754 1_555
Mn1 O12 2.187021 1_555
Mn1 O15 2.497048 1_555
Mn2 O20 1.898216 1_555
Mn2 O11 1.907235 1_555
Mn2 O10 1.911976 1_545
Mn2 O19 2.003955 1_555
Mn2 O18 2.005794 1_555
Mn2 O2 2.052564 1_555
Mn3 O3 1.868154 1_555
Mn3 O11 1.927993 1_555
Mn3 O10 1.933041 1_455
Mn3 O19 1.982839 1_555
Mn3 O18 1.982940 1_465
Mn3 O21 1.996306 1_455
Mn4 O9 1.894558 1_555
Mn4 O8 1.907979 1_555
Mn4 O0 1.908484 1_555
Mn4 O16 1.968445 1_545
Mn4 O17 1.977536 1_555
Mn4 O22 2.013114 1_555
Mn5 O9 1.892604 1_655
Mn5 O8 1.906069 1_565
Mn5 O1 1.915991 1_555
Mn5 O16 1.969627 1_555
Mn5 O17 1.979241 1_655
Mn5 O23 2.008465 1_655
Mn6 O1 1.905934 1_555
Mn6 O0 1.926771 1_565
Mn6 O3 1.935538 1_556
Mn6 O2 1.976754 1_556
Mn6 O9 2.187021 1_555
Mn6 O10 2.497048 1_556
Mn7 O1 1.918026 1_555
Mn7 O0 1.923286 1_655
Mn7 O3 1.929994 1_646
Mn7 O2 1.987904 1_556
Mn7 O8 2.150578 1_555
Mn7 O11 2.546222 1_656
Mn8 O17 1.898216 1_555
Mn8 O14 1.907235 1_555
Mn8 O15 1.911976 1_455
Mn8 O22 2.003955 1_555
Mn8 O23 2.005794 1_555
Mn8 O6 2.052564 1_555
Mn9 O7 1.868154 1_555
Mn9 O14 1.927993 1_555
Mn9 O15 1.933041 1_545
Mn9 O22 1.982839 1_555
Mn9 O23 1.982940 1_645
Mn9 O16 1.996306 1_545
Mn10 O12 1.894558 1_555
Mn10 O13 1.907979 1_555
Mn10 O5 1.908484 1_555
Mn10 O21 1.968445 1_455
Mn10 O20 1.977536 1_555
Mn10 O19 2.013114 1_555
Mn11 O12 1.892604 1_565
Mn11 O13 1.906069 1_655
Mn11 O4 1.915991 1_555
Mn11 O21 1.969627 1_555
Mn11 O20 1.979241 1_565
Mn11 O18 2.008465 1_565
