# generated using pymatgen
data_Hf14Cu51
_symmetry_space_group_name_H-M   'P 1'
_cell_length_a   11.11805829
_cell_length_b   11.11805829
_cell_length_c   8.27958300
_cell_angle_alpha   90.00000000
_cell_angle_beta   90.00000000
_cell_angle_gamma   120.00000171
_symmetry_Int_Tables_number   1
_chemical_formula_structural   Hf14Cu51
_chemical_formula_sum   'Hf14 Cu51'
_cell_volume   886.33312680
_cell_formula_units_Z   1
loop_
 _symmetry_equiv_pos_site_id
 _symmetry_equiv_pos_as_xyz
  1  'x, y, z'
loop_
 _atom_site_type_symbol
 _atom_site_label
 _atom_site_symmetry_multiplicity
 _atom_site_fract_x
 _atom_site_fract_y
 _atom_site_fract_z
 _atom_site_occupancy
  Hf  Hf0  1  0.00000000  0.00000000  0.31304400  1
  Hf  Hf1  1  0.00000000  0.00000000  0.68695600  1
  Hf  Hf2  1  0.38510600  0.27091300  0.00000000  1
  Hf  Hf3  1  0.72908700  0.11419300  0.00000000  1
  Hf  Hf4  1  0.88580700  0.61489400  0.00000000  1
  Hf  Hf5  1  0.60757300  0.72314600  0.00000000  1
  Hf  Hf6  1  0.27685400  0.88442600  0.00000000  1
  Hf  Hf7  1  0.11557400  0.39242700  0.00000000  1
  Hf  Hf8  1  0.14200800  0.67214300  0.50000000  1
  Hf  Hf9  1  0.32785700  0.46986500  0.50000000  1
  Hf  Hf10  1  0.53013500  0.85799200  0.50000000  1
  Hf  Hf11  1  0.85617900  0.32905400  0.50000000  1
  Hf  Hf12  1  0.67094600  0.52712500  0.50000000  1
  Hf  Hf13  1  0.47287500  0.14382100  0.50000000  1
  Cu  Cu0  1  0.23889400  0.18107500  0.50000000  1
  Cu  Cu1  1  0.81892500  0.05781900  0.50000000  1
  Cu  Cu2  1  0.94218100  0.76110600  0.50000000  1
  Cu  Cu3  1  0.75997100  0.81957200  0.50000000  1
  Cu  Cu4  1  0.18042800  0.94039900  0.50000000  1
  Cu  Cu5  1  0.05960100  0.24002900  0.50000000  1
  Cu  Cu6  1  0.27107600  0.07614900  0.24625200  1
  Cu  Cu7  1  0.92385100  0.19492700  0.24625200  1
  Cu  Cu8  1  0.80507300  0.72892400  0.24625200  1
  Cu  Cu9  1  0.73914300  0.92719100  0.23157600  1
  Cu  Cu10  1  0.07280900  0.81195200  0.23157600  1
  Cu  Cu11  1  0.18804800  0.26085700  0.23157600  1
  Cu  Cu12  1  0.73914300  0.92719100  0.76842400  1
  Cu  Cu13  1  0.07280900  0.81195200  0.76842400  1
  Cu  Cu14  1  0.18804800  0.26085700  0.76842400  1
  Cu  Cu15  1  0.27107600  0.07614900  0.75374800  1
  Cu  Cu16  1  0.92385100  0.19492700  0.75374800  1
  Cu  Cu17  1  0.80507300  0.72892400  0.75374800  1
  Cu  Cu18  1  0.33333300  0.66666700  0.00000000  1
  Cu  Cu19  1  0.66666700  0.33333300  0.00000000  1
  Cu  Cu20  1  0.43709300  0.33348400  0.32960900  1
  Cu  Cu21  1  0.66651600  0.10360900  0.32960900  1
  Cu  Cu22  1  0.89639100  0.56290700  0.32960900  1
  Cu  Cu23  1  0.56082400  0.66519200  0.33006400  1
  Cu  Cu24  1  0.33480800  0.89563200  0.33006400  1
  Cu  Cu25  1  0.10436800  0.43917600  0.33006400  1
  Cu  Cu26  1  0.56082400  0.66519200  0.66993600  1
  Cu  Cu27  1  0.33480800  0.89563200  0.66993600  1
  Cu  Cu28  1  0.10436800  0.43917600  0.66993600  1
  Cu  Cu29  1  0.43709300  0.33348400  0.67039100  1
  Cu  Cu30  1  0.66651600  0.10360900  0.67039100  1
  Cu  Cu31  1  0.89639100  0.56290700  0.67039100  1
  Cu  Cu32  1  0.33333300  0.66666700  0.29477200  1
  Cu  Cu33  1  0.66666700  0.33333300  0.29462300  1
  Cu  Cu34  1  0.66666700  0.33333300  0.70537700  1
  Cu  Cu35  1  0.33333300  0.66666700  0.70522800  1
  Cu  Cu36  1  0.11500000  0.62182200  0.15205800  1
  Cu  Cu37  1  0.37817800  0.49317800  0.15205800  1
  Cu  Cu38  1  0.50682200  0.88500000  0.15205800  1
  Cu  Cu39  1  0.88423300  0.38069800  0.15205900  1
  Cu  Cu40  1  0.61930200  0.50353500  0.15205900  1
  Cu  Cu41  1  0.49646500  0.11576700  0.15205900  1
  Cu  Cu42  1  0.88423300  0.38069800  0.84794100  1
  Cu  Cu43  1  0.61930200  0.50353500  0.84794100  1
  Cu  Cu44  1  0.49646500  0.11576700  0.84794100  1
  Cu  Cu45  1  0.11500000  0.62182200  0.84794200  1
  Cu  Cu46  1  0.37817800  0.49317800  0.84794200  1
  Cu  Cu47  1  0.50682200  0.88500000  0.84794200  1
  Cu  Cu48  1  0.13338600  0.01862300  0.00000000  1
  Cu  Cu49  1  0.98137700  0.11476300  0.00000000  1
  Cu  Cu50  1  0.88523700  0.86661400  0.00000000  1
loop_
_geom_bond_atom_site_label_1
_geom_bond_atom_site_label_2
_geom_bond_distance
_geom_bond_site_symmetry_2
Cu0 Cu5 2.389519 1_555
Cu0 Cu4 2.417298 1_545
Cu0 Cu20 2.446100 1_555
Cu0 Cu29 2.446100 1_555
Cu0 Cu15 2.514004 1_555
Cu0 Cu6 2.514004 1_555
Cu0 Cu14 2.558721 1_555
Cu0 Cu11 2.558721 1_555
Cu0 Hf13 2.831324 1_555
Cu0 Hf9 2.848100 1_555
Cu0 Hf1 2.855946 1_555
Cu0 Hf0 2.855946 1_555
Cu1 Cu3 2.389519 1_545
Cu1 Cu5 2.417298 1_655
Cu1 Cu30 2.446100 1_555
Cu1 Cu21 2.446100 1_555
Cu1 Cu7 2.514004 1_555
Cu1 Cu16 2.514004 1_555
Cu1 Cu12 2.558721 1_545
Cu1 Cu9 2.558721 1_545
Cu1 Hf11 2.831324 1_555
Cu1 Hf10 2.848100 1_545
Cu1 Hf1 2.855946 1_655
Cu1 Hf0 2.855946 1_655
Cu2 Cu4 2.389519 1_655
Cu2 Cu3 2.417298 1_555
Cu2 Cu31 2.446100 1_555
Cu2 Cu22 2.446100 1_555
Cu2 Cu8 2.514004 1_555
Cu2 Hf12 2.831324 1_555
Cu2 Hf8 2.848100 1_655
Cu2 Hf1 2.855946 1_665
Cu2 Hf0 2.855946 1_665
Cu3 Cu8 2.487255 1_555
Cu3 Cu9 2.588740 1_555
Cu3 Hf10 2.793510 1_555
Cu3 Hf0 2.861555 1_665
Cu3 Hf1 2.861555 1_665
Cu3 Hf12 2.886750 1_555
Cu4 Cu6 2.487255 1_565
Cu4 Hf8 2.793510 1_555
Cu4 Hf1 2.861555 1_565
Cu4 Hf0 2.861555 1_565
Cu4 Hf13 2.886750 1_565
Cu5 Cu7 2.487255 1_455
Cu5 Hf9 2.793510 1_555
Cu5 Hf1 2.861555 1_555
Cu5 Hf0 2.861555 1_555
Cu5 Hf11 2.886750 1_455
Cu6 Hf0 2.748494 1_555
Cu6 Hf2 2.776317 1_555
Cu6 Hf13 2.885433 1_555
Cu6 Hf6 2.973498 1_545
Cu7 Cu9 2.641939 1_545
Cu7 Hf0 2.748494 1_655
Cu7 Hf3 2.776317 1_555
Cu7 Hf11 2.885433 1_555
Cu7 Hf7 2.973494 1_655
Cu8 Cu9 2.650853 1_555
Cu8 Hf0 2.748494 1_665
Cu8 Hf4 2.776317 1_555
Cu8 Hf12 2.885433 1_555
Cu8 Hf5 2.973490 1_555
Cu9 Hf0 2.678403 1_665
Cu9 Hf5 2.764781 1_555
Cu9 Hf3 2.871210 1_565
Cu9 Hf10 3.023775 1_555
Cu10 Cu36 2.472560 1_555
Cu10 Cu2 2.558721 1_455
Cu10 Cu4 2.588740 1_555
Cu10 Cu22 2.596499 1_455
Cu10 Cu8 2.641939 1_455
Cu10 Cu6 2.650853 1_565
Cu10 Hf0 2.678403 1_565
Cu10 Cu24 2.702878 1_555
Cu10 Hf6 2.764783 1_555
Cu10 Cu48 2.803941 1_565
Cu10 Hf4 2.871210 1_455
Cu10 Hf8 3.023775 1_555
Cu11 Cu37 2.472560 1_555
Cu11 Cu5 2.588740 1_555
Cu11 Cu20 2.596499 1_555
Cu11 Cu6 2.641939 1_555
Cu11 Cu7 2.650853 1_455
Cu11 Hf0 2.678403 1_555
Cu11 Cu25 2.702878 1_555
Cu11 Hf7 2.764775 1_555
Cu11 Cu49 2.803941 1_455
Cu11 Hf2 2.871210 1_555
Cu11 Hf9 3.023775 1_555
Cu12 Cu47 2.472560 1_555
Cu12 Cu3 2.588740 1_555
Cu12 Cu30 2.596499 1_565
Cu12 Cu16 2.641939 1_565
Cu12 Cu17 2.650853 1_555
Cu12 Hf1 2.678403 1_665
Cu12 Cu26 2.702878 1_555
Cu12 Hf5 2.764781 1_556
Cu12 Cu50 2.803941 1_556
Cu12 Hf3 2.871210 1_566
Cu12 Hf10 3.023775 1_555
Cu13 Cu45 2.472560 1_555
Cu13 Cu2 2.558721 1_455
Cu13 Cu4 2.588740 1_555
Cu13 Cu31 2.596499 1_455
Cu13 Cu17 2.641939 1_455
Cu13 Cu15 2.650853 1_565
Cu13 Hf1 2.678403 1_565
Cu13 Cu27 2.702878 1_555
Cu13 Hf6 2.764783 1_556
Cu13 Cu48 2.803941 1_566
Cu13 Hf4 2.871210 1_456
Cu13 Hf8 3.023775 1_555
Cu14 Cu46 2.472560 1_555
Cu14 Cu5 2.588740 1_555
Cu14 Cu29 2.596499 1_555
Cu14 Cu15 2.641939 1_555
Cu14 Cu16 2.650853 1_455
Cu14 Hf1 2.678403 1_555
Cu14 Cu28 2.702878 1_555
Cu14 Hf7 2.764775 1_556
Cu14 Cu49 2.803941 1_456
Cu14 Hf2 2.871210 1_556
Cu14 Hf9 3.023775 1_555
Cu15 Cu48 2.435245 1_556
Cu15 Cu44 2.444979 1_555
Cu15 Cu4 2.487255 1_545
Cu15 Cu27 2.536488 1_545
Cu15 Cu29 2.605385 1_555
Cu15 Hf1 2.748494 1_555
Cu15 Hf2 2.776317 1_556
Cu15 Hf13 2.885433 1_555
Cu15 Hf6 2.973498 1_546
Cu16 Cu49 2.435245 1_556
Cu16 Cu42 2.444979 1_555
Cu16 Cu5 2.487255 1_655
Cu16 Cu28 2.536488 1_655
Cu16 Cu30 2.605385 1_555
Cu16 Hf1 2.748494 1_655
Cu16 Hf3 2.776317 1_556
Cu16 Hf11 2.885433 1_555
Cu16 Hf7 2.973494 1_656
Cu17 Cu50 2.435245 1_556
Cu17 Cu43 2.444979 1_555
Cu17 Cu3 2.487255 1_555
Cu17 Cu2 2.514004 1_555
Cu17 Cu26 2.536488 1_555
Cu17 Cu31 2.605385 1_555
Cu17 Hf1 2.748494 1_665
Cu17 Hf4 2.776317 1_556
Cu17 Hf12 2.885433 1_555
Cu17 Hf5 2.973490 1_556
Cu18 Cu32 2.440589 1_555
Cu18 Cu35 2.440589 1_554
Cu18 Cu45 2.552602 1_554
Cu18 Cu36 2.552602 1_555
Cu18 Cu47 2.552605 1_554
Cu18 Cu38 2.552605 1_555
Cu18 Cu37 2.552612 1_555
Cu18 Cu46 2.552612 1_554
Cu18 Hf6 2.788565 1_555
Cu18 Hf7 2.788579 1_555
Cu18 Hf5 2.788587 1_555
Cu19 Cu34 2.439356 1_554
Cu19 Cu33 2.439356 1_555
Cu19 Cu39 2.537652 1_555
Cu19 Cu42 2.537652 1_554
Cu19 Cu41 2.537655 1_555
Cu19 Cu44 2.537655 1_554
Cu19 Cu40 2.537661 1_555
Cu19 Cu43 2.537661 1_554
Cu19 Hf3 2.847554 1_555
Cu19 Hf4 2.847561 1_555
Cu19 Hf2 2.847565 1_555
Cu20 Cu40 2.451400 1_555
Cu20 Cu33 2.569636 1_555
Cu20 Cu6 2.605385 1_555
Cu20 Cu37 2.627818 1_555
Cu20 Hf13 2.726530 1_555
Cu20 Hf9 2.757883 1_555
Cu20 Hf12 2.790644 1_555
Cu20 Hf2 2.804196 1_555
Cu20 Cu29 2.821533 1_555
Cu21 Cu41 2.451400 1_555
Cu21 Cu33 2.569625 1_555
Cu21 Cu9 2.596499 1_545
Cu21 Cu7 2.605385 1_555
Cu21 Cu38 2.627818 1_545
Cu21 Hf11 2.726530 1_555
Cu21 Hf10 2.757883 1_545
Cu21 Hf13 2.790644 1_555
Cu21 Hf3 2.804196 1_555
Cu21 Cu30 2.821533 1_555
Cu22 Cu39 2.451400 1_555
Cu22 Cu33 2.569630 1_555
Cu22 Cu8 2.605385 1_555
Cu22 Cu36 2.627818 1_655
Cu22 Hf12 2.726530 1_555
Cu22 Hf8 2.757883 1_655
Cu22 Hf11 2.790644 1_555
Cu22 Hf4 2.804196 1_555
Cu22 Cu31 2.821533 1_555
Cu23 Cu3 2.455141 1_555
Cu23 Cu37 2.463672 1_555
Cu23 Cu8 2.536488 1_555
Cu23 Cu32 2.554266 1_555
Cu23 Cu40 2.644559 1_555
Cu23 Cu9 2.702878 1_555
Cu23 Hf10 2.724392 1_555
Cu23 Hf12 2.777483 1_555
Cu23 Hf9 2.789206 1_555
Cu23 Hf5 2.796171 1_555
Cu23 Cu26 2.813998 1_555
Cu24 Cu4 2.455141 1_555
Cu24 Cu38 2.463672 1_555
Cu24 Cu6 2.536488 1_565
Cu24 Cu32 2.554255 1_555
Cu24 Cu41 2.644559 1_565
Cu24 Hf8 2.724392 1_555
Cu24 Hf13 2.777483 1_565
Cu24 Hf10 2.789206 1_555
Cu24 Hf6 2.796170 1_555
Cu24 Cu27 2.813998 1_555
Cu25 Cu5 2.455141 1_555
Cu25 Cu36 2.463672 1_555
Cu25 Cu7 2.536488 1_455
Cu25 Cu32 2.554261 1_555
Cu25 Cu39 2.644559 1_455
Cu25 Hf9 2.724392 1_555
Cu25 Hf11 2.777483 1_455
Cu25 Hf8 2.789206 1_555
Cu25 Hf7 2.796173 1_555
Cu25 Cu28 2.813998 1_555
Cu26 Cu3 2.455141 1_555
Cu26 Cu46 2.463672 1_555
Cu26 Cu35 2.554266 1_555
Cu26 Cu43 2.644559 1_555
Cu26 Hf10 2.724392 1_555
Cu26 Hf12 2.777483 1_555
Cu26 Hf9 2.789206 1_555
Cu26 Hf5 2.796171 1_556
Cu27 Cu4 2.455141 1_555
Cu27 Cu47 2.463672 1_555
Cu27 Cu35 2.554255 1_555
Cu27 Cu44 2.644559 1_565
Cu27 Hf8 2.724392 1_555
Cu27 Hf13 2.777483 1_565
Cu27 Hf10 2.789206 1_555
Cu27 Hf6 2.796170 1_556
Cu28 Cu5 2.455141 1_555
Cu28 Cu45 2.463672 1_555
Cu28 Cu35 2.554261 1_555
Cu28 Cu42 2.644559 1_455
Cu28 Hf9 2.724392 1_555
Cu28 Hf11 2.777483 1_455
Cu28 Hf8 2.789206 1_555
Cu28 Hf7 2.796173 1_556
Cu29 Cu43 2.451400 1_555
Cu29 Cu34 2.569636 1_555
Cu29 Cu46 2.627818 1_555
Cu29 Hf13 2.726530 1_555
Cu29 Hf9 2.757883 1_555
Cu29 Hf12 2.790644 1_555
Cu29 Hf2 2.804196 1_556
Cu30 Cu44 2.451400 1_555
Cu30 Cu34 2.569625 1_555
Cu30 Cu47 2.627818 1_545
Cu30 Hf11 2.726530 1_555
Cu30 Hf10 2.757883 1_545
Cu30 Hf13 2.790644 1_555
Cu30 Hf3 2.804196 1_556
Cu31 Cu42 2.451400 1_555
Cu31 Cu34 2.569630 1_555
Cu31 Cu45 2.627818 1_655
Cu31 Hf12 2.726530 1_555
Cu31 Hf8 2.757883 1_655
Cu31 Hf11 2.790644 1_555
Cu31 Hf4 2.804196 1_556
Cu32 Cu36 2.515346 1_555
Cu32 Cu38 2.515349 1_555
Cu32 Cu37 2.515355 1_555
Cu32 Hf8 2.746875 1_555
Cu32 Hf10 2.746880 1_555
Cu32 Hf9 2.746884 1_555
Cu33 Cu39 2.499581 1_555
Cu33 Cu41 2.499584 1_555
Cu33 Cu40 2.499591 1_555
Cu33 Hf11 2.726437 1_555
Cu33 Hf13 2.726441 1_555
Cu33 Hf12 2.726445 1_555
Cu34 Cu42 2.499581 1_555
Cu34 Cu44 2.499584 1_555
Cu34 Cu43 2.499591 1_555
Cu34 Hf11 2.726437 1_555
Cu34 Hf13 2.726441 1_555
Cu34 Hf12 2.726445 1_555
Cu35 Cu45 2.515346 1_555
Cu35 Cu47 2.515349 1_555
Cu35 Cu46 2.515355 1_555
Cu35 Hf8 2.746875 1_555
Cu35 Hf10 2.746880 1_555
Cu35 Hf9 2.746884 1_555
Cu36 Cu45 2.517954 1_554
Cu36 Cu39 2.625151 1_455
Cu36 Hf4 2.808542 1_455
Cu36 Hf6 2.844935 1_555
Cu36 Hf7 2.847107 1_555
Cu36 Hf8 2.921348 1_555
Cu37 Cu46 2.517954 1_554
Cu37 Cu40 2.625151 1_555
Cu37 Hf2 2.808542 1_555
Cu37 Hf7 2.844934 1_555
Cu37 Hf5 2.847102 1_555
Cu37 Hf9 2.921348 1_555
Cu38 Cu9 2.472560 1_555
Cu38 Cu47 2.517954 1_554
Cu38 Cu41 2.625151 1_565
Cu38 Hf3 2.808542 1_565
Cu38 Hf5 2.844943 1_555
Cu38 Hf6 2.847097 1_555
Cu38 Hf10 2.921348 1_555
Cu39 Cu7 2.444979 1_555
Cu39 Cu42 2.517970 1_554
Cu39 Hf7 2.807516 1_655
Cu39 Hf3 2.868606 1_555
Cu39 Hf4 2.884369 1_555
Cu39 Hf11 2.923512 1_555
Cu40 Cu8 2.444979 1_555
Cu40 Cu43 2.517970 1_554
Cu40 Hf5 2.807507 1_555
Cu40 Hf4 2.868606 1_555
Cu40 Hf2 2.884369 1_555
Cu40 Hf12 2.923512 1_555
Cu41 Cu6 2.444979 1_555
Cu41 Cu44 2.517970 1_554
Cu41 Hf6 2.807512 1_545
Cu41 Hf2 2.868606 1_555
Cu41 Hf3 2.884369 1_555
Cu41 Hf13 2.923512 1_555
Cu42 Cu45 2.625151 1_655
Cu42 Hf7 2.807516 1_656
Cu42 Hf3 2.868606 1_556
Cu42 Hf4 2.884369 1_556
Cu42 Hf11 2.923512 1_555
Cu43 Cu46 2.625151 1_555
Cu43 Hf5 2.807507 1_556
Cu43 Hf4 2.868606 1_556
Cu43 Hf2 2.884369 1_556
Cu43 Hf12 2.923512 1_555
Cu44 Cu47 2.625151 1_545
Cu44 Hf6 2.807512 1_546
Cu44 Hf2 2.868606 1_556
Cu44 Hf3 2.884369 1_556
Cu44 Hf13 2.923512 1_555
Cu45 Hf4 2.808542 1_456
Cu45 Hf6 2.844935 1_556
Cu45 Hf7 2.847107 1_556
Cu45 Hf8 2.921348 1_555
Cu46 Hf2 2.808542 1_556
Cu46 Hf7 2.844934 1_556
Cu46 Hf5 2.847102 1_556
Cu46 Hf9 2.921348 1_555
Cu47 Hf3 2.808542 1_566
Cu47 Hf5 2.844943 1_556
Cu47 Hf6 2.847097 1_556
Cu47 Hf10 2.921348 1_555
Cu48 Cu50 2.409409 1_445
Cu48 Cu49 2.409409 1_455
Cu48 Cu6 2.435245 1_555
Cu48 Hf6 2.674000 1_545
Cu48 Hf2 2.801812 1_555
Cu48 Hf1 2.941580 1_554
Cu48 Hf0 2.941580 1_555
Cu49 Cu50 2.409409 1_545
Cu49 Cu7 2.435245 1_555
Cu49 Hf7 2.673990 1_655
Cu49 Hf3 2.801812 1_555
Cu49 Hf0 2.941580 1_655
Cu49 Hf1 2.941580 1_654
Cu50 Cu8 2.435245 1_555
Cu50 Hf5 2.673990 1_555
Cu50 Hf4 2.801812 1_555
Cu50 Cu9 2.803941 1_555
Cu50 Hf0 2.941580 1_665
Cu50 Hf1 2.941580 1_664
