# generated using pymatgen
data_Li2HfN2
_symmetry_space_group_name_H-M   'P 1'
_cell_length_a   3.23712095
_cell_length_b   3.23712095
_cell_length_c   5.42359518
_cell_angle_alpha   90.00000000
_cell_angle_beta   90.00000000
_cell_angle_gamma   120.00000845
_symmetry_Int_Tables_number   1
_chemical_formula_structural   Li2HfN2
_chemical_formula_sum   'Li2 Hf1 N2'
_cell_volume   49.21933193
_cell_formula_units_Z   1
loop_
 _symmetry_equiv_pos_site_id
 _symmetry_equiv_pos_as_xyz
  1  'x, y, z'
loop_
 _atom_site_type_symbol
 _atom_site_label
 _atom_site_symmetry_multiplicity
 _atom_site_fract_x
 _atom_site_fract_y
 _atom_site_fract_z
 _atom_site_occupancy
  Li  Li0  1  0.66666700  0.33333300  0.38278857  1
  Li  Li1  1  0.33333300  0.66666700  0.61721143  1
  Hf  Hf0  1  -0.00000000  -0.00000000  -0.00000000  1
  N  N0  1  0.66666700  0.33333300  0.77938486  1
  N  N1  1  0.33333300  0.66666700  0.22061514  1
loop_
_geom_bond_atom_site_label_1
_geom_bond_atom_site_label_2
_geom_bond_distance
_geom_bond_site_symmetry_2
Li0 N1 2.065577 1_655
Li0 N1 2.065577 1_545
Li0 N1 2.065582 1_555
Li0 N0 2.150978 1_555
Li1 N0 2.065577 1_455
Li1 N0 2.065577 1_565
Li1 N0 2.065582 1_555
Li1 N1 2.150978 1_555
Hf0 N0 2.219156 1_454
Hf0 N1 2.219156 1_545
Hf0 N0 2.219158 1_444
Hf0 N0 2.219158 1_554
Hf0 N1 2.219158 1_445
Hf0 N1 2.219158 1_555
