# generated using pymatgen
data_Li3Hg
_symmetry_space_group_name_H-M   'P 1'
_cell_length_a   4.57152383
_cell_length_b   4.57152383
_cell_length_c   4.57152383
_cell_angle_alpha   119.35460280
_cell_angle_beta   119.35460280
_cell_angle_gamma   91.12154367
_symmetry_Int_Tables_number   1
_chemical_formula_structural   Li3Hg
_chemical_formula_sum   'Li3 Hg1'
_cell_volume   68.20151156
_cell_formula_units_Z   1
loop_
 _symmetry_equiv_pos_site_id
 _symmetry_equiv_pos_as_xyz
  1  'x, y, z'
loop_
 _atom_site_type_symbol
 _atom_site_label
 _atom_site_symmetry_multiplicity
 _atom_site_fract_x
 _atom_site_fract_y
 _atom_site_fract_z
 _atom_site_occupancy
  Li  Li0  1  0.75000000  0.25000000  0.50000000  1
  Li  Li1  1  0.25000000  0.75000000  0.50000000  1
  Li  Li2  1  0.50000100  0.50000100  -0.00000000  1
  Hg  Hg0  1  -0.00000000  -0.00000000  0.00000000  1
loop_
_geom_bond_atom_site_label_1
_geom_bond_atom_site_label_2
_geom_bond_distance
_geom_bond_site_symmetry_2
Li0 Li2 2.808589 1_556
Li0 Li2 2.808589 1_545
Li0 Li2 2.808597 1_555
Li0 Li2 2.808597 1_656
Li1 Li2 2.808589 1_455
Li1 Li2 2.808589 1_556
Li1 Li2 2.808597 1_555
Li1 Li2 2.808597 1_566
Hg0 Li1 2.808593 1_555
Hg0 Li0 2.808593 1_444
Hg0 Li1 2.808593 1_545
Hg0 Li1 2.808593 1_544
Hg0 Li0 2.808593 1_455
Hg0 Li0 2.808593 1_454
Hg0 Li0 2.808593 1_555
Hg0 Li1 2.808593 1_444
Hg0 Li2 3.200757 1_445
Hg0 Li2 3.200770 1_555
Hg0 Li2 3.264038 1_556
Hg0 Li2 3.264038 1_545
Hg0 Li2 3.264038 1_444
Hg0 Li2 3.264038 1_455
