# generated using pymatgen
data_Li2Co2H24C6(N4O5)3
_symmetry_space_group_name_H-M   'P 1'
_cell_length_a   5.05261292
_cell_length_b   9.66806758
_cell_length_c   11.58295718
_cell_angle_alpha   92.44358394
_cell_angle_beta   90.42082691
_cell_angle_gamma   90.16017553
_symmetry_Int_Tables_number   1
_chemical_formula_structural   Li2Co2H24C6(N4O5)3
_chemical_formula_sum   'Li2 Co2 H24 C6 N12 O15'
_cell_volume   565.28342307
_cell_formula_units_Z   1
loop_
 _symmetry_equiv_pos_site_id
 _symmetry_equiv_pos_as_xyz
  1  'x, y, z'
loop_
 _atom_site_type_symbol
 _atom_site_label
 _atom_site_symmetry_multiplicity
 _atom_site_fract_x
 _atom_site_fract_y
 _atom_site_fract_z
 _atom_site_occupancy
  Li  Li0  1  0.76194700  0.80061700  0.18661300  1
  Li  Li1  1  0.26250900  0.20149600  0.81642300  1
  Co  Co0  1  0.27726600  0.26855100  0.33087600  1
  Co  Co1  1  0.78002100  0.72909100  0.67102300  1
  H  H0  1  0.06257600  0.51311700  0.43571700  1
  H  H1  1  0.55399700  0.48737200  0.56628700  1
  H  H2  1  0.11956800  0.06151900  0.03983700  1
  H  H3  1  0.62560600  0.93350200  0.95976400  1
  H  H4  1  0.08140100  0.67659800  0.04774700  1
  H  H5  1  0.60085800  0.32966900  0.94365600  1
  H  H6  1  0.91095800  0.46007600  0.31408600  1
  H  H7  1  0.42369700  0.53213900  0.69335900  1
  H  H8  1  0.86601700  0.21107600  0.17923300  1
  H  H9  1  0.36505800  0.79139700  0.81469600  1
  H  H10  1  0.10215100  0.28934700  0.10811300  1
  H  H11  1  0.59406300  0.70324400  0.88471300  1
  H  H12  1  0.95619500  0.06362200  0.38696800  1
  H  H13  1  0.46890300  0.93692600  0.61324700  1
  H  H14  1  0.21525000  0.81927400  0.08484200  1
  H  H15  1  0.71468000  0.17999300  0.91606200  1
  H  H16  1  0.02852300  0.07117100  0.59785200  1
  H  H17  1  0.52935600  0.92770700  0.40219900  1
  H  H18  1  0.18660000  0.66708900  0.29478200  1
  H  H19  1  0.70018600  0.33101800  0.70498600  1
  H  H20  1  0.81525100  0.20257700  0.45043800  1
  H  H21  1  0.31707800  0.79889700  0.55192200  1
  H  H22  1  0.39408200  0.50404100  0.94046800  1
  H  H23  1  0.58831600  0.55028400  0.04691500  1
  C  C0  1  0.38064200  0.03071500  0.17639600  1
  C  C1  1  0.88545500  0.96648000  0.82532300  1
  C  C2  1  0.35838300  0.19114000  0.56624100  1
  C  C3  1  0.85816300  0.80691100  0.43418000  1
  C  C4  1  0.48198300  0.52357200  0.24566900  1
  C  C5  1  0.99063400  0.47654500  0.75805100  1
  N  N0  1  0.24815800  0.56575300  0.29363900  1
  N  N1  1  0.76992700  0.43007900  0.69865900  1
  N  N2  1  0.06715000  0.21650900  0.16803700  1
  N  N3  1  0.56506300  0.78210300  0.82837000  1
  N  N4  1  0.09375800  0.47088800  0.35404200  1
  N  N5  1  0.59866900  0.52614700  0.64795600  1
  N  N6  1  0.16215300  0.08701800  0.12509100  1
  N  N7  1  0.66855300  0.90831400  0.87517600  1
  N  N8  1  0.99493800  0.15538100  0.43224200  1
  N  N9  1  0.49987000  0.84442600  0.56815400  1
  N  N10  1  0.12381700  0.12633300  0.53698000  1
  N  N11  1  0.62323600  0.87027400  0.46232600  1
  O  O0  1  0.47860900  0.92188300  0.12549700  1
  O  O1  1  0.98717900  0.07359200  0.87837300  1
  O  O2  1  0.46858900  0.08442000  0.27240800  1
  O  O3  1  0.96973600  0.91529100  0.72819400  1
  O  O4  1  0.55653100  0.39725700  0.25740700  1
  O  O5  1  0.05725200  0.60543300  0.74962600  1
  O  O6  1  0.61514300  0.61100400  0.18975600  1
  O  O7  1  0.12461900  0.39104900  0.81436100  1
  O  O8  1  0.45625300  0.16969500  0.66553800  1
  O  O9  1  0.95498700  0.82941800  0.33514400  1
  O  O10  1  0.46878300  0.26652500  0.49042600  1
  O  O11  1  0.96939900  0.73107300  0.50956900  1
  O  O12  1  0.04146300  0.77285900  0.06726600  1
  O  O13  1  0.54912300  0.23140500  0.93409500  1
  O  O14  1  0.57890800  0.52289700  0.96288100  1
loop_
_geom_bond_atom_site_label_1
_geom_bond_atom_site_label_2
_geom_bond_distance
_geom_bond_site_symmetry_2
Li0 O6 1.977520 1_555
Li0 O9 1.980331 1_555
Li0 O12 1.994177 1_655
Li0 O0 1.997600 1_555
Li1 O7 1.963430 1_555
Li1 O13 1.993377 1_555
Li1 O1 2.014946 1_455
Li1 O8 2.021937 1_555
Co0 O10 2.080626 1_555
Co0 O4 2.088456 1_555
Co0 O2 2.116278 1_555
Co0 N4 2.174276 1_555
Co0 N8 2.176233 1_455
Co0 N2 2.196472 1_555
Co1 O5 2.074548 1_655
Co1 O11 2.107725 1_555
Co1 O3 2.115993 1_555
Co1 N5 2.168499 1_555
Co1 N3 2.171749 1_555
Co1 N9 2.182677 1_555
H0 N4 1.027672 1_555
H1 N5 1.025908 1_555
H2 N6 1.028610 1_555
H3 N7 1.024416 1_555
H4 O12 0.970432 1_555
H5 O13 0.986079 1_555
H6 N4 1.033075 1_655
H7 N5 1.032482 1_555
H8 N2 1.026914 1_655
H9 N3 1.026517 1_555
H10 N2 1.025540 1_555
H11 N3 1.034555 1_555
H12 N8 1.028677 1_555
H13 N9 1.029178 1_555
H14 O12 1.000609 1_555
H14 O0 1.708827 1_555
H15 O13 0.993204 1_555
H16 N10 1.024205 1_555
H17 N11 1.023696 1_555
H18 N0 1.028314 1_555
H19 N1 1.025309 1_555
H20 N8 1.036250 1_555
H21 N9 1.034514 1_555
H22 O14 0.981919 1_555
H23 O14 0.998536 1_554
C0 O2 1.282979 1_555
C0 O0 1.286084 1_545
C0 N6 1.374572 1_555
C1 O1 1.285406 1_565
C1 O3 1.285581 1_555
C1 N7 1.372687 1_555
C2 O8 1.273939 1_555
C2 O10 1.293447 1_555
C2 N10 1.372559 1_555
C3 O9 1.277310 1_555
C3 O11 1.290616 1_555
C3 N11 1.372311 1_555
C4 O6 1.279271 1_555
C4 O4 1.291403 1_555
C4 N0 1.365219 1_555
C5 O7 1.268683 1_655
C5 O5 1.297723 1_655
C5 N1 1.370474 1_555
N0 N4 1.413512 1_555
N1 N5 1.414161 1_555
N2 N6 1.413842 1_555
N3 N7 1.411430 1_555
N10 N8 1.411795 1_455
N11 N9 1.410688 1_555
