# generated using pymatgen
data_RbGeCl3
_symmetry_space_group_name_H-M   'P 1'
_cell_length_a   7.29946596
_cell_length_b   7.98976514
_cell_length_c   10.84438740
_cell_angle_alpha   90.00000000
_cell_angle_beta   90.00000000
_cell_angle_gamma   90.00000000
_symmetry_Int_Tables_number   1
_chemical_formula_structural   RbGeCl3
_chemical_formula_sum   'Rb4 Ge4 Cl12'
_cell_volume   632.45572000
_cell_formula_units_Z   4
loop_
 _symmetry_equiv_pos_site_id
 _symmetry_equiv_pos_as_xyz
  1  'x, y, z'
loop_
 _atom_site_type_symbol
 _atom_site_label
 _atom_site_symmetry_multiplicity
 _atom_site_fract_x
 _atom_site_fract_y
 _atom_site_fract_z
 _atom_site_occupancy
  Rb  Rb0  1  0.97071249  0.41579701  0.75107416  1
  Rb  Rb1  1  0.47071249  0.08420299  0.25107416  1
  Rb  Rb2  1  0.52928751  0.91579701  0.75107416  1
  Rb  Rb3  1  0.02928751  0.58420299  0.25107416  1
  Ge  Ge0  1  0.48492698  0.47276566  0.51868727  1
  Ge  Ge1  1  0.51507302  0.52723434  0.01868727  1
  Ge  Ge2  1  0.01507302  0.97276566  0.51868727  1
  Ge  Ge3  1  0.98492698  0.02723434  0.01868727  1
  Cl  Cl0  1  0.34421902  0.77827594  0.04759007  1
  Cl  Cl1  1  0.15578098  0.27827594  0.04759007  1
  Cl  Cl2  1  0.84421902  0.72172406  0.54759007  1
  Cl  Cl3  1  0.28874698  0.83036952  0.46743650  1
  Cl  Cl4  1  0.21125302  0.33036952  0.46743650  1
  Cl  Cl5  1  0.78874698  0.66963048  0.96743650  1
  Cl  Cl6  1  0.41721364  0.50554139  0.73041000  1
  Cl  Cl7  1  0.71125302  0.16963048  0.96743650  1
  Cl  Cl8  1  0.91721364  -0.00554139  0.23041000  1
  Cl  Cl9  1  0.58278636  0.49445861  0.23041000  1
  Cl  Cl10  1  0.08278636  0.00554139  0.73041000  1
  Cl  Cl11  1  0.65578098  0.22172406  0.54759007  1
loop_
_geom_bond_atom_site_label_1
_geom_bond_atom_site_label_2
_geom_bond_distance
_geom_bond_site_symmetry_2
Cl0 Ge1 2.382581 1_555
Cl0 Rb1 3.420004 1_565
Cl0 Rb3 3.543773 1_555
Cl0 Rb2 3.656756 1_554
Cl1 Ge3 2.382581 1_455
Cl1 Rb3 3.420004 1_555
Cl1 Rb1 3.543773 1_555
Cl1 Rb0 3.656756 1_454
Cl2 Ge2 2.382581 1_655
Cl2 Rb0 3.420004 1_555
Cl2 Rb2 3.543773 1_555
Cl2 Rb3 3.656756 1_655
Cl3 Ge2 2.365160 1_555
Cl3 Rb1 3.373799 1_565
Cl3 Rb3 3.600066 1_555
Cl3 Rb2 3.606907 1_555
Cl4 Ge0 2.365160 1_555
Cl4 Rb3 3.373799 1_555
Cl4 Rb1 3.600066 1_555
Cl4 Rb0 3.606907 1_455
Cl5 Ge1 2.365160 1_556
Cl5 Rb0 3.373799 1_555
Cl5 Rb2 3.600066 1_555
Cl5 Rb3 3.606907 1_656
Cl6 Ge0 2.363157 1_555
Cl6 Rb0 3.344678 1_455
Cl6 Rb2 3.385815 1_555
Cl7 Ge3 2.365160 1_556
Cl7 Rb2 3.373799 1_545
Cl7 Rb0 3.600066 1_555
Cl7 Rb1 3.606907 1_556
Cl8 Ge3 2.363157 1_555
Cl8 Rb1 3.344678 1_555
Cl8 Rb3 3.385815 1_645
Cl9 Ge1 2.363157 1_555
Cl9 Rb3 3.344678 1_655
Cl9 Rb1 3.385815 1_555
Cl10 Ge2 2.363157 1_545
Cl10 Rb2 3.344678 1_545
Cl10 Rb0 3.385815 1_455
Cl11 Ge0 2.382581 1_555
Cl11 Rb2 3.420004 1_545
Cl11 Rb0 3.543773 1_555
Cl11 Rb1 3.656756 1_555
