# generated using pymatgen
data_Mg5Te
_symmetry_space_group_name_H-M   'P 1'
_cell_length_a   6.18881860
_cell_length_b   6.18881860
_cell_length_c   6.18881833
_cell_angle_alpha   53.56811421
_cell_angle_beta   53.56811421
_cell_angle_gamma   53.56811209
_symmetry_Int_Tables_number   1
_chemical_formula_structural   Mg5Te
_chemical_formula_sum   'Mg5 Te1'
_cell_volume   142.39312018
_cell_formula_units_Z   1
loop_
 _symmetry_equiv_pos_site_id
 _symmetry_equiv_pos_as_xyz
  1  'x, y, z'
loop_
 _atom_site_type_symbol
 _atom_site_label
 _atom_site_symmetry_multiplicity
 _atom_site_fract_x
 _atom_site_fract_y
 _atom_site_fract_z
 _atom_site_occupancy
  Mg  Mg0  1  0.66845300  0.33154700  0.00000000  1
  Mg  Mg1  1  0.00000000  0.66845300  0.33154700  1
  Mg  Mg2  1  0.33154700  0.00000000  0.66845300  1
  Mg  Mg3  1  0.82980800  0.82980800  0.82980800  1
  Mg  Mg4  1  0.17019200  0.17019200  0.17019200  1
  Te  Te0  1  0.50000000  0.50000000  0.50000000  1
loop_
_geom_bond_atom_site_label_1
_geom_bond_atom_site_label_2
_geom_bond_distance
_geom_bond_site_symmetry_2
Mg0 Mg4 3.188403 1_555
Mg0 Mg3 3.188403 1_554
Mg0 Mg1 3.203043 1_645
Mg0 Mg2 3.203043 1_654
Mg0 Mg2 3.228964 1_564
Mg0 Mg1 3.228964 1_555
Mg0 Mg2 3.228964 1_555
Mg0 Mg1 3.228964 1_654
Mg0 Te0 3.233912 1_554
Mg0 Te0 3.233912 1_555
Mg0 Mg3 3.271259 1_544
Mg0 Mg4 3.271259 1_655
Mg1 Mg3 3.188403 1_455
Mg1 Mg4 3.188403 1_555
Mg1 Mg2 3.203043 1_564
Mg1 Mg2 3.228964 1_555
Mg1 Mg2 3.228964 1_465
Mg1 Te0 3.233912 1_555
Mg1 Te0 3.233912 1_455
Mg1 Mg3 3.271259 1_454
Mg1 Mg4 3.271259 1_565
Mg2 Mg4 3.188403 1_555
Mg2 Mg3 3.188403 1_545
Mg2 Te0 3.233912 1_545
Mg2 Te0 3.233912 1_555
Mg2 Mg4 3.271259 1_556
Mg2 Mg3 3.271259 1_445
Mg3 Te0 3.220786 1_655
Mg3 Te0 3.220786 1_565
Mg3 Te0 3.220786 1_556
Mg4 Te0 3.220786 1_455
Mg4 Te0 3.220786 1_545
Mg4 Te0 3.220786 1_554
