# generated using pymatgen
data_LiMg6Cr
_symmetry_space_group_name_H-M   'P 1'
_cell_length_a   5.06591800
_cell_length_b   6.22033500
_cell_length_c   10.85246500
_cell_angle_alpha   90.00000000
_cell_angle_beta   90.00000000
_cell_angle_gamma   90.00000000
_symmetry_Int_Tables_number   1
_chemical_formula_structural   LiMg6Cr
_chemical_formula_sum   'Li2 Mg12 Cr2'
_cell_volume   341.97969777
_cell_formula_units_Z   2
loop_
 _symmetry_equiv_pos_site_id
 _symmetry_equiv_pos_as_xyz
  1  'x, y, z'
loop_
 _atom_site_type_symbol
 _atom_site_label
 _atom_site_symmetry_multiplicity
 _atom_site_fract_x
 _atom_site_fract_y
 _atom_site_fract_z
 _atom_site_occupancy
  Li  Li0  1  0.00000000  0.50000000  0.33060000  1
  Li  Li1  1  0.00000000  0.00000000  0.83060000  1
  Mg  Mg0  1  0.00000000  0.74175500  0.08683600  1
  Mg  Mg1  1  0.00000000  0.25824500  0.08683600  1
  Mg  Mg2  1  0.00000000  0.00000000  0.33274600  1
  Mg  Mg3  1  0.50000000  0.25448600  0.41560000  1
  Mg  Mg4  1  0.50000000  0.74551400  0.41560000  1
  Mg  Mg5  1  0.50000000  0.00000000  0.16602100  1
  Mg  Mg6  1  0.00000000  0.24175500  0.58683600  1
  Mg  Mg7  1  0.00000000  0.75824500  0.58683600  1
  Mg  Mg8  1  0.00000000  0.50000000  0.83274600  1
  Mg  Mg9  1  0.50000000  0.75448600  0.91560000  1
  Mg  Mg10  1  0.50000000  0.24551400  0.91560000  1
  Mg  Mg11  1  0.50000000  0.50000000  0.66602100  1
  Cr  Cr0  1  0.50000000  0.50000000  0.16576100  1
  Cr  Cr1  1  0.50000000  0.00000000  0.66576100  1
loop_
_geom_bond_atom_site_label_1
_geom_bond_atom_site_label_2
_geom_bond_distance
_geom_bond_site_symmetry_2
Li0 Mg0 3.042985 1_555
Li0 Mg1 3.042985 1_555
Li0 Mg3 3.098240 1_555
Li0 Mg4 3.098240 1_555
Li0 Mg4 3.098240 1_455
Li0 Mg3 3.098240 1_455
Li0 Mg2 3.110255 1_565
Li0 Mg2 3.110255 1_555
Li0 Mg7 3.211422 1_555
Li0 Mg6 3.211422 1_555
Li1 Mg7 3.042985 1_545
Li1 Mg6 3.042985 1_555
Li1 Mg10 3.098240 1_455
Li1 Mg10 3.098240 1_555
Li1 Mg9 3.098240 1_545
Li1 Mg9 3.098240 1_445
Li1 Mg8 3.110255 1_555
Li1 Mg8 3.110255 1_545
Li1 Mg1 3.211422 1_556
Li1 Mg0 3.211422 1_546
Mg0 Mg1 3.007594 1_555
Mg0 Mg2 3.114891 1_565
Mg0 Mg5 3.120063 1_465
Mg0 Mg5 3.120063 1_565
Mg0 Mg8 3.140896 1_554
Mg0 Mg9 3.142539 1_454
Mg0 Mg9 3.142539 1_554
Mg0 Mg1 3.212741 1_565
Mg1 Mg2 3.114891 1_555
Mg1 Mg5 3.120063 1_555
Mg1 Mg5 3.120063 1_455
Mg1 Mg8 3.140896 1_554
Mg1 Mg10 3.142539 1_554
Mg1 Mg10 3.142539 1_454
Mg2 Mg5 3.112833 1_455
Mg2 Mg5 3.112833 1_555
Mg2 Mg3 3.119333 1_555
Mg2 Mg4 3.119333 1_545
Mg2 Mg3 3.119333 1_455
Mg2 Mg4 3.119333 1_445
Mg2 Mg7 3.140896 1_545
Mg2 Mg6 3.140896 1_555
Mg3 Mg4 3.054359 1_555
Mg3 Mg5 3.137209 1_555
Mg3 Mg6 3.142539 1_555
Mg3 Mg6 3.142539 1_655
Mg3 Mg4 3.165976 1_545
Mg4 Mg5 3.137209 1_565
Mg4 Mg7 3.142539 1_555
Mg4 Mg7 3.142539 1_655
Mg5 Mg9 3.117385 1_544
Mg6 Mg7 3.007594 1_545
Mg6 Mg8 3.114891 1_555
Mg6 Mg7 3.212741 1_555
Mg7 Mg8 3.114891 1_555
Mg8 Mg9 3.119333 1_455
Mg8 Mg9 3.119333 1_555
Mg10 Mg9 3.054359 1_545
Mg10 Mg5 3.117385 1_556
Mg10 Mg8 3.119333 1_655
Mg10 Mg8 3.119333 1_555
Mg10 Mg11 3.137209 1_555
Mg10 Mg9 3.165976 1_555
Mg11 Mg8 3.112833 1_655
Mg11 Mg8 3.112833 1_555
Mg11 Mg4 3.117385 1_555
Mg11 Mg3 3.117385 1_555
Mg11 Mg7 3.120063 1_555
Mg11 Mg6 3.120063 1_655
Mg11 Mg7 3.120063 1_655
Mg11 Mg6 3.120063 1_555
Mg11 Mg9 3.137209 1_555
Cr0 Mg0 3.067724 1_555
Cr0 Mg0 3.067724 1_655
Cr0 Mg1 3.067724 1_555
Cr0 Mg1 3.067724 1_655
Cr0 Li0 3.100980 1_555
Cr0 Li0 3.100980 1_655
Cr0 Mg5 3.110169 1_565
Cr0 Mg5 3.110169 1_555
Cr0 Mg4 3.111880 1_555
Cr0 Mg3 3.111880 1_555
Cr0 Mg9 3.142664 1_554
Cr0 Mg10 3.142664 1_554
Cr1 Mg6 3.067724 1_555
Cr1 Mg7 3.067724 1_645
Cr1 Mg6 3.067724 1_655
Cr1 Mg7 3.067724 1_545
Cr1 Li1 3.100980 1_655
Cr1 Li1 3.100980 1_555
Cr1 Mg11 3.110169 1_555
Cr1 Mg11 3.110169 1_545
Cr1 Mg10 3.111880 1_555
Cr1 Mg9 3.111880 1_545
Cr1 Mg3 3.142664 1_555
Cr1 Mg4 3.142664 1_545
