# generated using pymatgen
data_Ni
_symmetry_space_group_name_H-M   'P 1'
_cell_length_a   4.67644400
_cell_length_b   4.79619190
_cell_length_c   4.79619190
_cell_angle_alpha   119.99999864
_cell_angle_beta   90.00000000
_cell_angle_gamma   90.00000000
_symmetry_Int_Tables_number   1
_chemical_formula_structural   Ni
_chemical_formula_sum   Ni8
_cell_volume   93.16214484
_cell_formula_units_Z   8
loop_
 _symmetry_equiv_pos_site_id
 _symmetry_equiv_pos_as_xyz
  1  'x, y, z'
loop_
 _atom_site_type_symbol
 _atom_site_label
 _atom_site_symmetry_multiplicity
 _atom_site_fract_x
 _atom_site_fract_y
 _atom_site_fract_z
 _atom_site_occupancy
  Ni  Ni0_0  1  0.00000000  0.00000000  0.00000000  1
  Ni  Ni0_1  1  0.00000000  0.00000000  0.50000000  1
  Ni  Ni0_2  1  0.00000000  0.50000000  0.00000000  1
  Ni  Ni0_3  1  0.00000000  0.50000000  0.50000000  1
  Ni  Ni0_4  1  0.50000000  0.00000000  0.00000000  1
  Ni  Ni0_5  1  0.50000000  0.00000000  0.50000000  1
  Ni  Ni0_6  1  0.50000000  0.50000000  0.00000000  1
  Ni  Ni0_7  1  0.50000000  0.50000000  0.50000000  1
loop_
_geom_bond_atom_site_label_1
_geom_bond_atom_site_label_2
_geom_bond_distance
_geom_bond_site_symmetry_2
Ni0_0 Ni0_4 2.338222 1_455
Ni0_0 Ni0_4 2.338222 1_555
Ni0_0 Ni0_1 2.398096 1_555
Ni0_0 Ni0_2 2.398096 1_555
Ni0_0 Ni0_1 2.398096 1_554
Ni0_0 Ni0_2 2.398096 1_545
Ni0_0 Ni0_3 2.398096 1_544
Ni0_0 Ni0_3 2.398096 1_555
Ni0_1 Ni0_5 2.338222 1_555
Ni0_1 Ni0_5 2.338222 1_455
Ni0_1 Ni0_3 2.398096 1_555
Ni0_1 Ni0_3 2.398096 1_545
Ni0_1 Ni0_2 2.398096 1_545
Ni0_1 Ni0_2 2.398096 1_556
Ni0_2 Ni0_6 2.338222 1_455
Ni0_2 Ni0_6 2.338222 1_555
Ni0_2 Ni0_3 2.398096 1_555
Ni0_2 Ni0_3 2.398096 1_554
Ni0_3 Ni0_7 2.338222 1_555
Ni0_3 Ni0_7 2.338222 1_455
Ni0_4 Ni0_5 2.398096 1_555
Ni0_4 Ni0_6 2.398096 1_555
Ni0_4 Ni0_6 2.398096 1_545
Ni0_4 Ni0_5 2.398096 1_554
Ni0_4 Ni0_7 2.398096 1_544
Ni0_4 Ni0_7 2.398096 1_555
Ni0_5 Ni0_7 2.398096 1_545
Ni0_5 Ni0_7 2.398096 1_555
Ni0_5 Ni0_6 2.398096 1_545
Ni0_5 Ni0_6 2.398096 1_556
Ni0_6 Ni0_7 2.398096 1_554
Ni0_6 Ni0_7 2.398096 1_555
