# generated using pymatgen
data_W2SeS3
_symmetry_space_group_name_H-M   'P 1'
_cell_length_a   3.21517149
_cell_length_b   3.21517131
_cell_length_c   35.12253086
_cell_angle_alpha   89.99918984
_cell_angle_beta   90.00078312
_cell_angle_gamma   119.99968688
_symmetry_Int_Tables_number   1
_chemical_formula_structural   W2SeS3
_chemical_formula_sum   'W4 Se2 S6'
_cell_volume   314.43151309
_cell_formula_units_Z   2
loop_
 _symmetry_equiv_pos_site_id
 _symmetry_equiv_pos_as_xyz
  1  'x, y, z'
loop_
 _atom_site_type_symbol
 _atom_site_label
 _atom_site_symmetry_multiplicity
 _atom_site_fract_x
 _atom_site_fract_y
 _atom_site_fract_z
 _atom_site_occupancy
  W  W0  1  0.33333749  0.66666306  0.09474583  1
  W  W1  1  0.33333801  0.66666463  0.46917556  1
  W  W2  1  0.66667190  0.33332825  0.28183336  1
  W  W3  1  0.66663674  0.33336021  0.65715104  1
  Se  Se0  1  0.33332592  0.66666864  0.70556898  1
  Se  Se1  1  0.33332484  0.66667095  0.60874043  1
  S  S0  1  0.33333921  0.66666016  0.32596262  1
  S  S1  1  0.66667099  0.33332966  0.05064885  1
  S  S2  1  0.66667178  0.33333240  0.42506237  1
  S  S3  1  0.66667196  0.33332831  0.13886493  1
  S  S4  1  0.66667276  0.33333128  0.51327250  1
  S  S5  1  0.33333841  0.66666146  0.23772353  1
loop_
_geom_bond_atom_site_label_1
_geom_bond_atom_site_label_2
_geom_bond_distance
_geom_bond_site_symmetry_2
Se0 W3 2.517396 1_555
Se0 W3 2.517516 1_455
Se0 W3 2.517520 1_565
Se1 W3 2.517189 1_555
Se1 W3 2.517359 1_455
Se1 W3 2.517363 1_565
S0 W2 2.418274 1_455
S0 W2 2.418274 1_565
S0 W2 2.418289 1_555
S1 W0 2.417545 1_545
S1 W0 2.417545 1_655
S1 W0 2.417568 1_555
S2 W1 2.417910 1_655
S2 W1 2.417912 1_545
S2 W1 2.417931 1_555
S3 W0 2.418032 1_555
S3 W0 2.418059 1_655
S3 W0 2.418060 1_545
S4 W1 2.417531 1_555
S4 W1 2.417560 1_655
S4 W1 2.417564 1_545
S5 W2 2.417818 1_555
S5 W2 2.417853 1_455
S5 W2 2.417854 1_565
