# generated using pymatgen
data_Tb2CoGe2
_symmetry_space_group_name_H-M   'P 1'
_cell_length_a   5.63829494
_cell_length_b   5.63829494
_cell_length_c   10.19062790
_cell_angle_alpha   64.62542273
_cell_angle_beta   64.62542273
_cell_angle_gamma   43.44338801
_symmetry_Int_Tables_number   1
_chemical_formula_structural   Tb2CoGe2
_chemical_formula_sum   'Tb4 Co2 Ge4'
_cell_volume   197.65235958
_cell_formula_units_Z   2
loop_
 _symmetry_equiv_pos_site_id
 _symmetry_equiv_pos_as_xyz
  1  'x, y, z'
loop_
 _atom_site_type_symbol
 _atom_site_label
 _atom_site_symmetry_multiplicity
 _atom_site_fract_x
 _atom_site_fract_y
 _atom_site_fract_z
 _atom_site_occupancy
  Tb  Tb0  1  0.81020491  0.81020491  0.11675544  1
  Tb  Tb1  1  0.18979509  0.18979509  0.88324456  1
  Tb  Tb2  1  0.99263002  0.99263002  0.33453762  1
  Tb  Tb3  1  0.00736998  0.00736998  0.66546238  1
  Co  Co0  1  0.27414862  0.27414862  0.34170591  1
  Co  Co1  1  0.72585138  0.72585138  0.65829409  1
  Ge  Ge0  1  0.51232703  0.51232703  0.12191449  1
  Ge  Ge1  1  0.48767297  0.48767297  0.87808551  1
  Ge  Ge2  1  0.66201182  0.66201182  0.43916207  1
  Ge  Ge3  1  0.33798818  0.33798818  0.56083793  1
loop_
_geom_bond_atom_site_label_1
_geom_bond_atom_site_label_2
_geom_bond_distance
_geom_bond_site_symmetry_2
Co0 Ge2 2.375793 1_545
Co0 Ge2 2.375793 1_455
Co0 Ge0 2.467079 1_555
Co0 Ge3 2.609938 1_555
Co0 Tb2 2.983553 1_445
Co0 Tb0 2.992204 1_545
Co0 Tb0 2.992204 1_455
Co0 Tb2 3.073114 1_455
Co0 Tb2 3.073114 1_545
Co0 Tb3 3.192032 1_555
Co1 Ge3 2.375793 1_655
Co1 Ge3 2.375793 1_565
Co1 Ge1 2.467079 1_555
Co1 Ge2 2.609938 1_555
Co1 Tb3 2.983553 1_665
Co1 Tb1 2.992204 1_565
Co1 Tb1 2.992204 1_655
Co1 Tb3 3.073114 1_655
Co1 Tb3 3.073114 1_565
Co1 Tb2 3.192032 1_555
Ge0 Ge1 2.613972 1_554
Ge0 Tb2 2.946078 1_545
Ge0 Tb2 2.946078 1_455
Ge0 Tb0 2.990533 1_545
Ge0 Tb0 2.990533 1_455
Ge0 Tb1 3.091064 1_564
Ge0 Tb1 3.091064 1_654
Ge0 Tb0 3.096629 1_555
Ge1 Tb3 2.946078 1_565
Ge1 Tb3 2.946078 1_655
Ge1 Tb1 2.990533 1_565
Ge1 Tb1 2.990533 1_655
Ge1 Tb0 3.091064 1_546
Ge1 Tb0 3.091064 1_456
Ge1 Tb1 3.096629 1_555
Ge2 Tb0 2.915315 1_555
Ge2 Tb3 2.974964 1_655
Ge2 Tb3 2.974964 1_565
Ge2 Ge3 3.029284 1_555
Ge2 Tb2 3.118624 1_555
Ge2 Tb2 3.222599 1_545
Ge2 Tb2 3.222599 1_455
Ge3 Tb1 2.915315 1_555
Ge3 Tb2 2.974964 1_545
Ge3 Tb2 2.974964 1_455
Ge3 Tb3 3.118624 1_555
Ge3 Tb3 3.222599 1_565
Ge3 Tb3 3.222599 1_655
