# generated using pymatgen
data_TiGeIr
_symmetry_space_group_name_H-M   'P 1'
_cell_length_a   3.94684421
_cell_length_b   6.29461026
_cell_length_c   7.36967752
_cell_angle_alpha   90.00000000
_cell_angle_beta   90.00000000
_cell_angle_gamma   90.00000000
_symmetry_Int_Tables_number   1
_chemical_formula_structural   TiGeIr
_chemical_formula_sum   'Ti4 Ge4 Ir4'
_cell_volume   183.09113381
_cell_formula_units_Z   4
loop_
 _symmetry_equiv_pos_site_id
 _symmetry_equiv_pos_as_xyz
  1  'x, y, z'
loop_
 _atom_site_type_symbol
 _atom_site_label
 _atom_site_symmetry_multiplicity
 _atom_site_fract_x
 _atom_site_fract_y
 _atom_site_fract_z
 _atom_site_occupancy
  Ti  Ti0  1  0.75000000  0.47281834  0.18699976  1
  Ti  Ti1  1  0.75000000  0.97281834  0.31300024  1
  Ti  Ti2  1  0.25000000  0.52718166  0.81300024  1
  Ti  Ti3  1  0.25000000  0.02718166  0.68699976  1
  Ge  Ge0  1  0.75000000  0.23928250  0.87854020  1
  Ge  Ge1  1  0.75000000  0.73928250  0.62145980  1
  Ge  Ge2  1  0.25000000  0.76071750  0.12145980  1
  Ge  Ge3  1  0.25000000  0.26071750  0.37854020  1
  Ir  Ir0  1  0.75000000  0.34534421  0.56071310  1
  Ir  Ir1  1  0.75000000  0.84534421  0.93928690  1
  Ir  Ir2  1  0.25000000  0.65465579  0.43928690  1
  Ir  Ir3  1  0.25000000  0.15465579  0.06071310  1
loop_
_geom_bond_atom_site_label_1
_geom_bond_atom_site_label_2
_geom_bond_distance
_geom_bond_site_symmetry_2
Ge0 Ir0 2.435570 1_555
Ge0 Ir3 2.445529 1_556
Ge0 Ir3 2.445529 1_656
Ge0 Ir1 2.519776 1_545
Ge0 Ti0 2.707140 1_556
Ge0 Ti2 2.722464 1_655
Ge0 Ti2 2.722464 1_555
Ge0 Ti3 2.769378 1_555
Ge0 Ti3 2.769378 1_655
Ge1 Ir1 2.435570 1_555
Ge1 Ir2 2.445529 1_655
Ge1 Ir2 2.445529 1_555
Ge1 Ir0 2.519776 1_555
Ge1 Ti1 2.707140 1_555
Ge1 Ti3 2.722464 1_565
Ge1 Ti3 2.722464 1_665
Ge1 Ti2 2.769378 1_655
Ge1 Ti2 2.769378 1_555
Ge2 Ir2 2.435570 1_555
Ge2 Ir1 2.445529 1_554
Ge2 Ir1 2.445529 1_454
Ge2 Ir3 2.519776 1_565
Ge2 Ti2 2.707140 1_554
Ge2 Ti0 2.722464 1_455
Ge2 Ti0 2.722464 1_555
Ge2 Ti1 2.769378 1_455
Ge2 Ti1 2.769378 1_555
Ge3 Ir3 2.435570 1_555
Ge3 Ir0 2.445529 1_555
Ge3 Ir0 2.445529 1_455
Ge3 Ir2 2.519776 1_555
Ge3 Ti3 2.707140 1_555
Ge3 Ti1 2.722464 1_545
Ge3 Ti1 2.722464 1_445
Ge3 Ti0 2.769378 1_555
Ge3 Ti0 2.769378 1_455
Ir0 Ti0 2.868653 1_555
Ir0 Ti2 2.943025 1_655
Ir0 Ti2 2.943025 1_555
Ir0 Ti3 2.961659 1_555
Ir0 Ti3 2.961659 1_655
Ir0 Ti1 2.971744 1_545
Ir1 Ti1 2.868653 1_556
Ir1 Ti3 2.943025 1_665
Ir1 Ti3 2.943025 1_565
Ir1 Ti2 2.961659 1_655
Ir1 Ti2 2.961659 1_555
Ir1 Ti0 2.971744 1_556
Ir2 Ti2 2.868653 1_555
Ir2 Ti0 2.943025 1_555
Ir2 Ti0 2.943025 1_455
Ir2 Ti1 2.961659 1_555
Ir2 Ti1 2.961659 1_455
Ir2 Ti3 2.971744 1_565
Ir3 Ti3 2.868653 1_554
Ir3 Ti1 2.943025 1_545
Ir3 Ti1 2.943025 1_445
Ir3 Ti0 2.961659 1_555
Ir3 Ti0 2.961659 1_455
Ir3 Ti2 2.971744 1_554
