# generated using pymatgen
data_LuCuPbSe3
_symmetry_space_group_name_H-M   'P 1'
_cell_length_a   7.09053679
_cell_length_b   7.09053679
_cell_length_c   10.45569600
_cell_angle_alpha   90.00000000
_cell_angle_beta   90.00000000
_cell_angle_gamma   146.94129276
_symmetry_Int_Tables_number   1
_chemical_formula_structural   LuCuPbSe3
_chemical_formula_sum   'Lu2 Cu2 Pb2 Se6'
_cell_volume   286.75064514
_cell_formula_units_Z   2
loop_
 _symmetry_equiv_pos_site_id
 _symmetry_equiv_pos_as_xyz
  1  'x, y, z'
loop_
 _atom_site_type_symbol
 _atom_site_label
 _atom_site_symmetry_multiplicity
 _atom_site_fract_x
 _atom_site_fract_y
 _atom_site_fract_z
 _atom_site_occupancy
  Lu  Lu0  1  0.00000000  0.00000000  0.00000000  1
  Lu  Lu1  1  0.00000000  0.00000000  0.50000000  1
  Cu  Cu0  1  0.53212400  0.46787600  0.25000000  1
  Cu  Cu1  1  0.46787600  0.53212400  0.75000000  1
  Pb  Pb0  1  0.24328200  0.75671800  0.25000000  1
  Pb  Pb1  1  0.75671800  0.24328200  0.75000000  1
  Se  Se0  1  0.07842800  0.92157200  0.75000000  1
  Se  Se1  1  0.92157200  0.07842800  0.25000000  1
  Se  Se2  1  0.36117700  0.63882300  0.93961500  1
  Se  Se3  1  0.63882300  0.36117700  0.43961500  1
  Se  Se4  1  0.63882300  0.36117700  0.06038500  1
  Se  Se5  1  0.36117700  0.63882300  0.56038500  1
loop_
_geom_bond_atom_site_label_1
_geom_bond_atom_site_label_2
_geom_bond_distance
_geom_bond_site_symmetry_2
Lu0 Se1 2.823021 1_455
Lu0 Se0 2.823021 1_544
Lu0 Se2 2.833734 1_444
Lu0 Se4 2.833734 1_445
Lu0 Se2 2.833734 1_554
Lu0 Se4 2.833734 1_555
Lu1 Se0 2.823021 1_545
Lu1 Se1 2.823021 1_455
Lu1 Se5 2.833734 1_445
Lu1 Se3 2.833734 1_445
Lu1 Se5 2.833734 1_555
Lu1 Se3 2.833734 1_555
Cu0 Se3 2.456563 1_555
Cu0 Se4 2.456563 1_555
Cu0 Se1 2.515630 1_565
Cu0 Se1 2.515630 1_455
Cu1 Se2 2.456563 1_555
Cu1 Se5 2.456563 1_555
Cu1 Se0 2.515630 1_655
Cu1 Se0 2.515630 1_545
Pb0 Se1 3.153506 1_565
Pb0 Se1 3.153506 1_455
Pb0 Se4 3.164932 1_455
Pb0 Se3 3.164932 1_455
Pb0 Se4 3.164932 1_565
Pb0 Se3 3.164932 1_565
Pb1 Se0 3.153506 1_655
Pb1 Se0 3.153506 1_545
Pb1 Se5 3.164932 1_545
Pb1 Se5 3.164932 1_655
Pb1 Se2 3.164932 1_655
Pb1 Se2 3.164932 1_545
