# generated using pymatgen
data_UB4W
_symmetry_space_group_name_H-M   'P 1'
_cell_length_a   3.66220786
_cell_length_b   5.97993423
_cell_length_c   5.97993423
_cell_angle_alpha   104.01490165
_cell_angle_beta   90.00000000
_cell_angle_gamma   90.00000000
_symmetry_Int_Tables_number   1
_chemical_formula_structural   UB4W
_chemical_formula_sum   'U2 B8 W2'
_cell_volume   127.06084689
_cell_formula_units_Z   2
loop_
 _symmetry_equiv_pos_site_id
 _symmetry_equiv_pos_as_xyz
  1  'x, y, z'
loop_
 _atom_site_type_symbol
 _atom_site_label
 _atom_site_symmetry_multiplicity
 _atom_site_fract_x
 _atom_site_fract_y
 _atom_site_fract_z
 _atom_site_occupancy
  U  U0  1  -0.00000000  0.30043591  0.69956409  1
  U  U1  1  -0.00000000  0.69956409  0.30043591  1
  B  B0  1  0.50000000  0.93410652  0.61662394  1
  B  B1  1  0.50000000  0.06589348  0.38337606  1
  B  B2  1  0.50000000  0.61662394  0.93410652  1
  B  B3  1  0.50000000  0.38337606  0.06589348  1
  B  B4  1  0.50000000  0.62102078  0.62102078  1
  B  B5  1  0.50000000  0.37897922  0.37897922  1
  B  B6  1  0.50000000  0.09334172  0.90665828  1
  B  B7  1  0.50000000  0.90665828  0.09334172  1
  W  W0  1  0.00000000  0.82131809  0.82131809  1
  W  W1  1  -0.00000000  0.17868191  0.17868191  1
loop_
_geom_bond_atom_site_label_1
_geom_bond_atom_site_label_2
_geom_bond_distance
_geom_bond_site_symmetry_2
U0 W1 3.022235 1_555
U0 W0 3.022235 1_555
U0 W1 3.122374 1_556
U0 W0 3.122374 1_545
U1 W1 3.022235 1_555
U1 W0 3.022235 1_555
U1 W1 3.122374 1_565
U1 W0 3.122374 1_554
B0 B1 1.760385 1_565
B0 B6 1.764909 1_565
B0 B4 1.878773 1_555
B0 W0 2.388731 1_555
B0 W0 2.388731 1_655
B0 U1 2.758749 1_555
B0 U1 2.758749 1_655
B0 U0 2.805625 1_565
B0 U0 2.805625 1_665
B1 B7 1.764909 1_545
B1 B5 1.878773 1_555
B1 W1 2.388731 1_555
B1 W1 2.388731 1_655
B1 U0 2.758749 1_655
B1 U0 2.758749 1_555
B1 U1 2.805625 1_645
B1 U1 2.805625 1_545
B2 B3 1.760385 1_556
B2 B7 1.764909 1_556
B2 B4 1.878773 1_555
B2 W0 2.388731 1_555
B2 W0 2.388731 1_655
B2 U0 2.758749 1_555
B2 U0 2.758749 1_655
B2 U1 2.805625 1_556
B2 U1 2.805625 1_656
B3 B6 1.764909 1_554
B3 B5 1.878773 1_555
B3 W1 2.388731 1_555
B3 W1 2.388731 1_655
B3 U1 2.758749 1_655
B3 U1 2.758749 1_555
B3 U0 2.805625 1_654
B3 U0 2.805625 1_554
B4 B5 1.781911 1_555
B4 W0 2.351033 1_555
B4 W0 2.351033 1_655
B4 U1 2.772155 1_655
B4 U1 2.772155 1_555
B4 U0 2.772155 1_655
B4 U0 2.772155 1_555
B5 W1 2.351033 1_655
B5 W1 2.351033 1_555
B5 U0 2.772155 1_655
B5 U0 2.772155 1_555
B5 U1 2.772155 1_555
B5 U1 2.772155 1_655
B6 B7 1.759578 1_546
B6 W1 2.420206 1_656
B6 W1 2.420206 1_556
B6 W0 2.420206 1_645
B6 W0 2.420206 1_545
B6 U0 2.676394 1_555
B6 U0 2.676394 1_655
B7 W1 2.420206 1_565
B7 W1 2.420206 1_665
B7 W0 2.420206 1_554
B7 W0 2.420206 1_654
B7 U1 2.676394 1_555
B7 U1 2.676394 1_655
W0 W1 2.630914 1_566
