# generated using pymatgen
data_K3SnC7O16
_symmetry_space_group_name_H-M   'P 1'
_cell_length_a   12.94406100
_cell_length_b   9.00369800
_cell_length_c   15.56388402
_cell_angle_alpha   63.23654300
_cell_angle_beta   90.00000000
_cell_angle_gamma   90.00000000
_symmetry_Int_Tables_number   1
_chemical_formula_structural   K3SnC7O16
_chemical_formula_sum   'K12 Sn4 C28 O64'
_cell_volume   1619.56821969
_cell_formula_units_Z   4
loop_
 _symmetry_equiv_pos_site_id
 _symmetry_equiv_pos_as_xyz
  1  'x, y, z'
loop_
 _atom_site_type_symbol
 _atom_site_label
 _atom_site_symmetry_multiplicity
 _atom_site_fract_x
 _atom_site_fract_y
 _atom_site_fract_z
 _atom_site_occupancy
  K  K0  1  0.29311900  0.25534400  0.52245600  1
  K  K1  1  0.20688100  0.25534400  0.02245600  1
  K  K2  1  0.70688100  0.74465600  0.47754400  1
  K  K3  1  0.79311900  0.74465600  0.97754400  1
  K  K4  1  0.25269900  0.74390100  0.72471800  1
  K  K5  1  0.24730100  0.74390100  0.22471800  1
  K  K6  1  0.74730100  0.25609900  0.27528200  1
  K  K7  1  0.75269900  0.25609900  0.77528200  1
  K  K8  1  0.96047200  0.03882200  0.68874400  1
  K  K9  1  0.53952800  0.03882200  0.18874400  1
  K  K10  1  0.03952800  0.96117800  0.31125600  1
  K  K11  1  0.46047200  0.96117800  0.81125600  1
  Sn  Sn0  1  0.05973500  0.38097000  0.78004700  1
  Sn  Sn1  1  0.44026500  0.38097000  0.28004700  1
  Sn  Sn2  1  0.94026500  0.61903000  0.21995300  1
  Sn  Sn3  1  0.55973500  0.61903000  0.71995300  1
  C  C0  1  0.00664400  0.59592100  0.87435900  1
  C  C1  1  0.49335600  0.59592100  0.37435900  1
  C  C2  1  0.99335600  0.40407900  0.12564100  1
  C  C3  1  0.50664400  0.40407900  0.62564100  1
  C  C4  1  0.90468100  0.50160600  0.87619400  1
  C  C5  1  0.59531900  0.50160600  0.37619400  1
  C  C6  1  0.09531900  0.49839400  0.12380600  1
  C  C7  1  0.40468100  0.49839400  0.62380600  1
  C  C8  1  0.27819800  0.26251600  0.79521300  1
  C  C9  1  0.22180200  0.26251600  0.29521300  1
  C  C10  1  0.72180200  0.73748400  0.20478700  1
  C  C11  1  0.77819800  0.73748400  0.70478700  1
  C  C12  1  0.21797300  0.16812200  0.74821200  1
  C  C13  1  0.28202700  0.16812200  0.24821200  1
  C  C14  1  0.78202700  0.83187800  0.25178800  1
  C  C15  1  0.71797300  0.83187800  0.75178800  1
  C  C16  1  0.94236500  0.51364100  0.59482100  1
  C  C17  1  0.55763500  0.51364100  0.09482100  1
  C  C18  1  0.05763500  0.48635900  0.40517900  1
  C  C19  1  0.44236500  0.48635900  0.90517900  1
  C  C20  1  0.02744100  0.64784100  0.58229300  1
  C  C21  1  0.47255900  0.64784100  0.08229300  1
  C  C22  1  0.97255900  0.35215900  0.41770700  1
  C  C23  1  0.52744100  0.35215900  0.91770700  1
  C  C24  1  0.99608600  0.06128200  0.94546400  1
  C  C25  1  0.50391400  0.06128200  0.44546400  1
  C  C26  1  0.00391400  0.93871800  0.05453600  1
  C  C27  1  0.49608600  0.93871800  0.55453600  1
  O  O0  1  0.23803400  0.77459200  0.90708000  1
  O  O1  1  0.26196600  0.77459200  0.40708000  1
  O  O2  1  0.76196600  0.22540800  0.09292000  1
  O  O3  1  0.73803400  0.22540800  0.59292000  1
  O  O4  1  0.08744100  0.54893000  0.84301800  1
  O  O5  1  0.41255900  0.54893000  0.34301800  1
  O  O6  1  0.91255900  0.45107000  0.15698200  1
  O  O7  1  0.58744100  0.45107000  0.65698200  1
  O  O8  1  0.00639100  0.70761600  0.90015300  1
  O  O9  1  0.49360900  0.70761600  0.40015300  1
  O  O10  1  0.99360900  0.29238400  0.09984700  1
  O  O11  1  0.50639100  0.29238400  0.59984700  1
  O  O12  1  0.35507400  0.98179400  0.05450800  1
  O  O13  1  0.14492600  0.98179400  0.55450800  1
  O  O14  1  0.64492600  0.01820600  0.94549200  1
  O  O15  1  0.85507400  0.01820600  0.44549200  1
  O  O16  1  0.91078000  0.40501700  0.83435500  1
  O  O17  1  0.58922000  0.40501700  0.33435500  1
  O  O18  1  0.08922000  0.59498300  0.16564500  1
  O  O19  1  0.41078000  0.59498300  0.66564500  1
  O  O20  1  0.82510700  0.52459400  0.91220500  1
  O  O21  1  0.67489300  0.52459400  0.41220500  1
  O  O22  1  0.17489300  0.47540600  0.08779500  1
  O  O23  1  0.32510700  0.47540600  0.58779500  1
  O  O24  1  0.22478100  0.37534700  0.80641500  1
  O  O25  1  0.27521900  0.37534700  0.30641500  1
  O  O26  1  0.77521900  0.62465300  0.19358500  1
  O  O27  1  0.72478100  0.62465300  0.69358500  1
  O  O28  1  0.36965300  0.22905200  0.81852300  1
  O  O29  1  0.13034700  0.22905200  0.31852300  1
  O  O30  1  0.63034700  0.77094800  0.18147700  1
  O  O31  1  0.86965300  0.77094800  0.68147700  1
  O  O32  1  0.12050400  0.20286400  0.73315100  1
  O  O33  1  0.37949600  0.20286400  0.23315100  1
  O  O34  1  0.87949600  0.79713600  0.26684900  1
  O  O35  1  0.62050400  0.79713600  0.76684900  1
  O  O36  1  0.26400800  0.06770500  0.72666800  1
  O  O37  1  0.23599200  0.06770500  0.22666800  1
  O  O38  1  0.73599200  0.93229500  0.27333200  1
  O  O39  1  0.76400800  0.93229500  0.77333200  1
  O  O40  1  0.94800000  0.37790600  0.67605300  1
  O  O41  1  0.55200000  0.37790600  0.17605300  1
  O  O42  1  0.05200000  0.62209400  0.32394700  1
  O  O43  1  0.44800000  0.62209400  0.82394700  1
  O  O44  1  0.87815700  0.53986900  0.53134500  1
  O  O45  1  0.62184300  0.53986900  0.03134500  1
  O  O46  1  0.12184300  0.46013100  0.46865500  1
  O  O47  1  0.37815700  0.46013100  0.96865500  1
  O  O48  1  0.09074000  0.60600900  0.65417700  1
  O  O49  1  0.40926000  0.60600900  0.15417700  1
  O  O50  1  0.90926000  0.39399100  0.34582300  1
  O  O51  1  0.59074000  0.39399100  0.84582300  1
  O  O52  1  0.03079600  0.78130000  0.50800500  1
  O  O53  1  0.46920400  0.78130000  0.00800500  1
  O  O54  1  0.96920400  0.21870000  0.49199500  1
  O  O55  1  0.53079600  0.21870000  0.99199500  1
  O  O56  1  0.06719700  0.17537000  0.91908300  1
  O  O57  1  0.43280300  0.17537000  0.41908300  1
  O  O58  1  0.93280300  0.82463000  0.08091700  1
  O  O59  1  0.56719700  0.82463000  0.58091700  1
  O  O60  1  0.92892000  0.04686400  0.89307100  1
  O  O61  1  0.57108000  0.04686400  0.39307100  1
  O  O62  1  0.07108000  0.95313600  0.10692900  1
  O  O63  1  0.42892000  0.95313600  0.60692900  1
loop_
_geom_bond_atom_site_label_1
_geom_bond_atom_site_label_2
_geom_bond_distance
_geom_bond_site_symmetry_2
K0 O23 2.635542 1_555
K0 O57 2.723878 1_555
K0 O46 2.761435 1_555
K0 O36 2.874377 1_555
K0 O13 2.981283 1_545
K0 O63 3.000064 1_545
K0 O25 3.042225 1_555
K0 O11 3.089461 1_555
K0 O5 3.244762 1_555
K1 O22 2.635542 1_555
K1 O56 2.723878 1_554
K1 O47 2.761435 1_554
K1 O37 2.874377 1_555
K1 O12 2.981283 1_545
K1 O62 3.000064 1_545
K1 O24 3.042225 1_554
K1 O10 3.089461 1_455
K1 O4 3.244762 1_554
K2 O21 2.635542 1_555
K2 O59 2.723878 1_555
K2 O44 2.761435 1_555
K2 O38 2.874377 1_555
K2 O15 2.981283 1_565
K2 O61 3.000064 1_565
K2 O27 3.042225 1_555
K2 O9 3.089461 1_555
K2 O7 3.244762 1_555
K3 O20 2.635542 1_555
K3 O58 2.723878 1_556
K3 O45 2.761435 1_556
K3 O39 2.874377 1_555
K3 O14 2.981283 1_565
K3 O60 3.000064 1_565
K3 O26 3.042225 1_556
K3 O8 3.089461 1_655
K3 O6 3.244762 1_556
K4 O19 2.817853 1_555
K4 O4 2.852461 1_555
K4 O48 2.892977 1_555
K4 O13 2.905423 1_555
K4 O43 2.907442 1_555
K4 O36 2.932881 1_565
K4 O0 2.979006 1_555
K4 O24 2.993122 1_555
K4 O63 3.000413 1_555
K5 O18 2.817853 1_555
K5 O5 2.852461 1_555
K5 O49 2.892977 1_555
K5 O12 2.905423 1_555
K5 O42 2.907442 1_555
K5 O37 2.932881 1_565
K5 O1 2.979006 1_555
K5 O25 2.993122 1_555
K5 O62 3.000413 1_555
K6 O17 2.817853 1_555
K6 O6 2.852461 1_555
K6 O50 2.892977 1_555
K6 O15 2.905423 1_555
K6 O41 2.907442 1_555
K6 O38 2.932881 1_545
K6 O2 2.979006 1_555
K6 O26 2.993122 1_555
K6 O61 3.000413 1_555
K7 O16 2.817853 1_555
K7 O7 2.852461 1_555
K7 O51 2.892977 1_555
K7 O14 2.905423 1_555
K7 O40 2.907442 1_555
K7 O39 2.932881 1_545
K7 O3 2.979006 1_555
K7 O27 2.993122 1_555
K7 O60 3.000413 1_555
K8 O31 2.730838 1_545
K8 O54 2.747033 1_555
K8 O32 2.805261 1_655
K8 O39 2.825420 1_545
K8 O40 2.973692 1_555
K8 O60 3.239228 1_555
K8 O3 3.328684 1_555
K8 O8 3.351946 1_645
K8 O13 3.360837 1_645
K9 O30 2.730838 1_545
K9 O55 2.747033 1_554
K9 O33 2.805261 1_555
K9 O38 2.825420 1_545
K9 O41 2.973692 1_555
K9 O61 3.239228 1_555
K9 O2 3.328684 1_555
K9 O9 3.351946 1_545
K9 O12 3.360837 1_545
K10 O29 2.730838 1_565
K10 O52 2.747033 1_555
K10 O34 2.805261 1_455
K10 O37 2.825420 1_565
K10 O42 2.973692 1_555
K10 O62 3.239228 1_555
K10 O1 3.328684 1_555
K10 O10 3.351946 1_465
K10 O15 3.360837 1_465
K11 O28 2.730838 1_565
K11 O53 2.747033 1_556
K11 O35 2.805261 1_555
K11 O36 2.825420 1_565
K11 O43 2.973692 1_555
K11 O63 3.239228 1_555
K11 O0 3.328684 1_555
K11 O11 3.351946 1_565
K11 O14 3.360837 1_565
C0 O8 1.239416 1_555
C0 O4 1.302535 1_555
C1 O9 1.239416 1_555
C1 O5 1.302535 1_555
C2 O10 1.239416 1_555
C2 O6 1.302535 1_555
C3 O11 1.239416 1_555
C3 O7 1.302535 1_555
C4 O20 1.233842 1_555
C4 O16 1.302532 1_555
C5 O21 1.233842 1_555
C5 O17 1.302532 1_555
C6 O22 1.233842 1_555
C6 O18 1.302532 1_555
C7 O23 1.233842 1_555
C7 O19 1.302532 1_555
C8 O28 1.235045 1_555
C8 O24 1.303855 1_555
C9 O29 1.235045 1_555
C9 O25 1.303855 1_555
C10 O30 1.235045 1_555
C10 O26 1.303855 1_555
C11 O31 1.235045 1_555
C11 O27 1.303855 1_555
C12 O36 1.248189 1_555
C12 O32 1.295571 1_555
C13 O37 1.248189 1_555
C13 O33 1.295571 1_555
C14 O38 1.248189 1_555
C14 O34 1.295571 1_555
C15 O39 1.248189 1_555
C15 O35 1.295571 1_555
C16 O44 1.229802 1_555
C16 O40 1.306048 1_555
C17 O45 1.229802 1_555
C17 O41 1.306048 1_555
C18 O46 1.229802 1_555
C18 O42 1.306048 1_555
C19 O47 1.229802 1_555
C19 O43 1.306048 1_555
C20 O52 1.237479 1_555
C20 O48 1.298222 1_555
C21 O53 1.237479 1_555
C21 O49 1.298222 1_555
C22 O54 1.237479 1_555
C22 O50 1.298222 1_555
C23 O55 1.237479 1_555
C23 O51 1.298222 1_555
C24 O60 1.238138 1_555
C24 O56 1.300447 1_655
C25 O61 1.238138 1_555
C25 O57 1.300447 1_555
C26 O62 1.238138 1_555
C26 O58 1.300447 1_455
C27 O63 1.238138 1_555
C27 O59 1.300447 1_555
O4 Sn0 2.170465 1_555
O5 Sn1 2.170465 1_555
O6 Sn2 2.170465 1_555
O7 Sn3 2.170465 1_555
O16 Sn0 2.154909 1_655
O17 Sn1 2.154909 1_555
O18 Sn2 2.154909 1_455
O19 Sn3 2.154909 1_555
O24 Sn0 2.171711 1_555
O25 Sn1 2.171711 1_555
O26 Sn2 2.171711 1_555
O27 Sn3 2.171711 1_555
O32 Sn0 2.185673 1_555
O33 Sn1 2.185673 1_555
O34 Sn2 2.185673 1_555
O35 Sn3 2.185673 1_555
O40 Sn0 2.180018 1_655
O41 Sn1 2.180018 1_555
O42 Sn2 2.180018 1_455
O43 Sn3 2.180018 1_555
O48 Sn0 2.128241 1_555
O49 Sn1 2.128241 1_555
O50 Sn2 2.128241 1_555
O51 Sn3 2.128241 1_555
O56 Sn0 2.123928 1_555
O57 Sn1 2.123928 1_555
O58 Sn2 2.123928 1_555
O59 Sn3 2.123928 1_555
