# generated using pymatgen
data_Te2Ir
_symmetry_space_group_name_H-M   'P 1'
_cell_length_a   6.13045200
_cell_length_b   6.13045200
_cell_length_c   4.20537300
_cell_angle_alpha   90.00000000
_cell_angle_beta   90.00000000
_cell_angle_gamma   90.00000000
_symmetry_Int_Tables_number   1
_chemical_formula_structural   Te2Ir
_chemical_formula_sum   'Te4 Ir2'
_cell_volume   158.04818570
_cell_formula_units_Z   2
loop_
 _symmetry_equiv_pos_site_id
 _symmetry_equiv_pos_as_xyz
  1  'x, y, z'
loop_
 _atom_site_type_symbol
 _atom_site_label
 _atom_site_symmetry_multiplicity
 _atom_site_fract_x
 _atom_site_fract_y
 _atom_site_fract_z
 _atom_site_occupancy
  Te  Te0  1  0.69277600  0.69277600  0.00000000  1
  Te  Te1  1  0.19277600  0.80722400  0.50000000  1
  Te  Te2  1  0.30722400  0.30722400  0.00000000  1
  Te  Te3  1  0.80722400  0.19277600  0.50000000  1
  Ir  Ir0  1  0.50000000  0.50000000  0.50000000  1
  Ir  Ir1  1  0.00000000  0.00000000  0.00000000  1
loop_
_geom_bond_atom_site_label_1
_geom_bond_atom_site_label_2
_geom_bond_distance
_geom_bond_site_symmetry_2
Ir0 Te3 2.663561 1_555
Ir0 Te1 2.663561 1_555
Ir0 Te0 2.686003 1_556
Ir0 Te0 2.686003 1_555
Ir0 Te2 2.686003 1_556
Ir0 Te2 2.686003 1_555
Ir1 Te2 2.663561 1_555
Ir1 Te0 2.663561 1_445
Ir1 Te3 2.686003 1_455
Ir1 Te3 2.686003 1_454
Ir1 Te1 2.686003 1_544
Ir1 Te1 2.686003 1_545
