# generated using pymatgen
data_Mg6ZnCrO8
_symmetry_space_group_name_H-M   'P 1'
_cell_length_a   8.52443458
_cell_length_b   4.32536366
_cell_length_c   4.32536366
_cell_angle_alpha   90.00000000
_cell_angle_beta   90.00000000
_cell_angle_gamma   90.00000000
_symmetry_Int_Tables_number   1
_chemical_formula_structural   Mg6ZnCrO8
_chemical_formula_sum   'Mg6 Zn1 Cr1 O8'
_cell_volume   159.48169268
_cell_formula_units_Z   1
loop_
 _symmetry_equiv_pos_site_id
 _symmetry_equiv_pos_as_xyz
  1  'x, y, z'
loop_
 _atom_site_type_symbol
 _atom_site_label
 _atom_site_symmetry_multiplicity
 _atom_site_fract_x
 _atom_site_fract_y
 _atom_site_fract_z
 _atom_site_occupancy
  Mg  Mg0  1  0.00000000  0.50000000  0.50000000  1
  Mg  Mg1  1  0.50000000  0.50000000  0.50000000  1
  Mg  Mg2  1  0.25011041  0.00000000  0.50000000  1
  Mg  Mg3  1  0.74988959  0.00000000  0.50000000  1
  Mg  Mg4  1  0.25011041  0.50000000  0.00000000  1
  Mg  Mg5  1  0.74988959  0.50000000  0.00000000  1
  Zn  Zn0  1  0.00000000  0.00000000  0.00000000  1
  Cr  Cr0  1  0.50000000  0.00000000  0.00000000  1
  O  O0  1  0.25435721  0.00000000  0.00000000  1
  O  O1  1  0.74564279  0.00000000  0.00000000  1
  O  O2  1  0.24920633  0.50000000  0.50000000  1
  O  O3  1  0.75079367  0.50000000  0.50000000  1
  O  O4  1  0.00000000  0.00000000  0.50000000  1
  O  O5  1  0.50000000  0.00000000  0.50000000  1
  O  O6  1  0.00000000  0.50000000  0.00000000  1
  O  O7  1  0.50000000  0.50000000  0.00000000  1
loop_
_geom_bond_atom_site_label_1
_geom_bond_atom_site_label_2
_geom_bond_distance
_geom_bond_site_symmetry_2
Mg0 O2 2.124343 1_555
Mg0 O3 2.124343 1_455
Mg0 O4 2.162682 1_565
Mg0 O6 2.162682 1_555
Mg0 O6 2.162682 1_556
Mg0 O4 2.162682 1_555
Mg1 O2 2.137874 1_555
Mg1 O3 2.137874 1_555
Mg1 O5 2.162682 1_555
Mg1 O5 2.162682 1_565
Mg1 O7 2.162682 1_555
Mg1 O7 2.162682 1_556
Mg2 O5 2.130167 1_555
Mg2 O4 2.132050 1_555
Mg2 O2 2.162696 1_555
Mg2 O2 2.162696 1_545
Mg2 O0 2.162985 1_555
Mg2 O0 2.162985 1_556
Mg3 O5 2.130167 1_555
Mg3 O4 2.132050 1_655
Mg3 O3 2.162696 1_545
Mg3 O3 2.162696 1_555
Mg3 O1 2.162985 1_555
Mg3 O1 2.162985 1_556
Mg4 O7 2.130167 1_555
Mg4 O6 2.132050 1_555
Mg4 O2 2.162696 1_554
Mg4 O2 2.162696 1_555
Mg4 O0 2.162985 1_555
Mg4 O0 2.162985 1_565
Mg5 O7 2.130167 1_555
Mg5 O6 2.132050 1_655
Mg5 O3 2.162696 1_555
Mg5 O3 2.162696 1_554
Mg5 O1 2.162985 1_565
Mg5 O1 2.162985 1_555
Cr0 O0 2.093966 1_555
Cr0 O1 2.093966 1_555
Cr0 O5 2.162682 1_554
Cr0 O5 2.162682 1_555
Cr0 O7 2.162682 1_545
Cr0 O7 2.162682 1_555
O0 Zn0 2.168251 1_555
O1 Zn0 2.168251 1_655
O4 Zn0 2.162682 1_555
O4 Zn0 2.162682 1_556
O6 Zn0 2.162682 1_555
O6 Zn0 2.162682 1_565
