# generated using pymatgen
data_Mg2Al2SiO9
_symmetry_space_group_name_H-M   'P 1'
_cell_length_a   5.45745700
_cell_length_b   5.46186044
_cell_length_c   14.39210787
_cell_angle_alpha   90.20021623
_cell_angle_beta   100.78590822
_cell_angle_gamma   118.76066711
_symmetry_Int_Tables_number   1
_chemical_formula_structural   Mg2Al2SiO9
_chemical_formula_sum   'Mg4 Al4 Si2 O18'
_cell_volume   367.24588912
_cell_formula_units_Z   2
loop_
 _symmetry_equiv_pos_site_id
 _symmetry_equiv_pos_as_xyz
  1  'x, y, z'
loop_
 _atom_site_type_symbol
 _atom_site_label
 _atom_site_symmetry_multiplicity
 _atom_site_fract_x
 _atom_site_fract_y
 _atom_site_fract_z
 _atom_site_occupancy
  Mg  Mg0  1  0.15705200  0.74903500  0.25554400  1
  Mg  Mg1  1  0.50383000  0.40899200  0.25544400  1
  Mg  Mg2  1  0.18598600  0.92319800  0.75590600  1
  Mg  Mg3  1  0.83687700  0.26098000  0.75571900  1
  Al  Al0  1  0.64277700  0.32503100  0.96147900  1
  Al  Al1  1  0.97240500  0.48280800  0.46166200  1
  Al  Al2  1  0.85386200  0.10383500  0.26335800  1
  Al  Al3  1  0.49560200  0.57140100  0.76337400  1
  Si  Si0  1  0.31244600  0.65444400  0.96181800  1
  Si  Si1  1  0.30191600  0.15082800  0.46140400  1
  O  O0  1  0.89821300  0.42565400  0.33405500  1
  O  O1  1  0.47974400  0.49083100  0.00707900  1
  O  O2  1  0.50928300  0.98816300  0.99576500  1
  O  O3  1  0.01340200  0.52514400  0.99672700  1
  O  O4  1  0.54799300  0.29687900  0.83408600  1
  O  O5  1  0.24378400  0.60696900  0.84201200  1
  O  O6  1  0.19321800  0.34431800  0.50718800  1
  O  O7  1  0.15101700  0.84266100  0.49671100  1
  O  O8  1  0.64735400  0.30465900  0.49603900  1
  O  O9  1  0.21204900  0.12082300  0.34167000  1
  O  O10  1  0.15771700  0.26005100  0.70144300  1
  O  O11  1  0.49027200  0.87386700  0.70438300  1
  O  O12  1  0.78458300  0.59283600  0.70403600  1
  O  O13  1  0.11273400  0.37738800  0.20224200  1
  O  O14  1  0.78539000  0.76386100  0.20497200  1
  O  O15  1  0.48853700  0.04426300  0.20298500  1
  O  O16  1  0.58912400  0.81491300  0.32251600  1
  O  O17  1  0.84083500  0.90016600  0.82238400  1
loop_
_geom_bond_atom_site_label_1
_geom_bond_atom_site_label_2
_geom_bond_distance
_geom_bond_site_symmetry_2
Mg0 O15 2.039266 1_565
Mg0 O13 2.052958 1_555
Mg0 O14 2.063092 1_455
Mg0 O0 2.145291 1_455
Mg0 O16 2.224675 1_555
Mg0 O9 2.237574 1_565
Mg1 O13 2.050500 1_555
Mg1 O14 2.051136 1_555
Mg1 O15 2.085989 1_555
Mg1 O0 2.195495 1_555
Mg1 O16 2.210814 1_555
Mg1 O9 2.212332 1_555
Mg2 O12 2.046157 1_455
Mg2 O10 2.064266 1_565
Mg2 O11 2.066447 1_555
Mg2 O4 2.146277 1_565
Mg2 O17 2.219612 1_455
Mg2 O5 2.238609 1_555
Mg3 O10 2.048551 1_655
Mg3 O11 2.052255 1_545
Mg3 O12 2.085144 1_555
Mg3 O4 2.181184 1_555
Mg3 O17 2.202533 1_545
Mg3 O5 2.226654 1_655
Al0 O2 1.735096 1_545
Al0 O3 1.740065 1_655
Al0 O1 1.741314 1_556
Al0 O4 1.794239 1_555
Al1 O8 1.734732 1_555
Al1 O7 1.741570 1_655
Al1 O6 1.743213 1_655
Al1 O0 1.797301 1_555
Al2 O13 1.856071 1_655
Al2 O14 1.870192 1_545
Al2 O15 1.887127 1_555
Al2 O16 1.891655 1_545
Al2 O0 1.915563 1_555
Al2 O9 2.024902 1_655
Al3 O10 1.855608 1_555
Al3 O11 1.870201 1_555
Al3 O12 1.886103 1_555
Al3 O17 1.905331 1_555
Al3 O4 1.918323 1_555
Al3 O5 2.011174 1_555
O1 Si0 1.619607 1_554
O2 Si0 1.621149 1_555
O3 Si0 1.617068 1_555
O5 Si0 1.685904 1_555
O6 Si1 1.627166 1_555
O7 Si1 1.611884 1_565
O8 Si1 1.621587 1_555
O9 Si1 1.685603 1_555
