# generated using pymatgen
data_Li2MnCo3O8
_symmetry_space_group_name_H-M   'P 1'
_cell_length_a   5.77976476
_cell_length_b   5.94817354
_cell_length_c   10.15376940
_cell_angle_alpha   73.68511282
_cell_angle_beta   90.12154434
_cell_angle_gamma   60.92609321
_symmetry_Int_Tables_number   1
_chemical_formula_structural   Li2MnCo3O8
_chemical_formula_sum   'Li4 Mn2 Co6 O16'
_cell_volume   288.77907784
_cell_formula_units_Z   2
loop_
 _symmetry_equiv_pos_site_id
 _symmetry_equiv_pos_as_xyz
  1  'x, y, z'
loop_
 _atom_site_type_symbol
 _atom_site_label
 _atom_site_symmetry_multiplicity
 _atom_site_fract_x
 _atom_site_fract_y
 _atom_site_fract_z
 _atom_site_occupancy
  Li  Li0  1  0.01357400  0.50013400  0.50011900  1
  Li  Li1  1  0.48728200  0.49913600  0.00002000  1
  Li  Li2  1  0.51361500  0.50003200  0.49968800  1
  Li  Li3  1  0.98686000  0.50036200  0.00042600  1
  Mn  Mn0  1  0.98753400  0.99965300  0.00008500  1
  Mn  Mn1  1  0.51257300  0.99983200  0.50001700  1
  Co  Co0  1  0.01275100  0.99993400  0.50001700  1
  Co  Co1  1  0.25138800  0.99814000  0.74956100  1
  Co  Co2  1  0.24929200  0.00061900  0.24967700  1
  Co  Co3  1  0.48695700  0.99977600  0.99998600  1
  Co  Co4  1  0.74909300  0.99932700  0.25072800  1
  Co  Co5  1  0.74832800  0.00255700  0.74963600  1
  O  O0  1  0.11886900  0.79240700  0.37757400  1
  O  O1  1  0.58921300  0.79286300  0.87689500  1
  O  O2  1  0.91207300  0.20784500  0.62251400  1
  O  O3  1  0.37768600  0.20839600  0.12307800  1
  O  O4  1  0.62279300  0.78739400  0.37574300  1
  O  O5  1  0.09013200  0.79019600  0.87477700  1
  O  O6  1  0.40991800  0.21241000  0.62424500  1
  O  O7  1  0.87730900  0.21009500  0.12504900  1
  O  O8  1  0.83401100  0.79558000  0.10664300  1
  O  O9  1  0.36454900  0.79480300  0.60765400  1
  O  O10  1  0.34179800  0.79304200  0.10828700  1
  O  O11  1  0.86977000  0.79610500  0.60775500  1
  O  O12  1  0.63015200  0.20650900  0.89212700  1
  O  O13  1  0.15880200  0.20449100  0.39237700  1
  O  O14  1  0.13878800  0.20409600  0.89298100  1
  O  O15  1  0.66489000  0.20426800  0.39234100  1
loop_
_geom_bond_atom_site_label_1
_geom_bond_atom_site_label_2
_geom_bond_distance
_geom_bond_site_symmetry_2
Li0 O4 2.154218 1_455
Li0 O13 2.154996 1_555
Li0 O11 2.155772 1_455
Li0 O2 2.166043 1_455
Li0 O6 2.175032 1_555
Li0 O0 2.181078 1_555
Li1 O12 2.142429 1_554
Li1 O10 2.150995 1_555
Li1 O7 2.155032 1_555
Li1 O1 2.176887 1_554
Li1 O5 2.184474 1_554
Li1 O3 2.192531 1_555
Li2 O15 2.152663 1_555
Li2 O9 2.152696 1_555
Li2 O6 2.160964 1_555
Li2 O0 2.165075 1_555
Li2 O4 2.178696 1_555
Li2 O2 2.181692 1_555
Li3 O8 2.141863 1_555
Li3 O3 2.151712 1_655
Li3 O14 2.155711 1_654
Li3 O5 2.173399 1_654
Li3 O1 2.181286 1_554
Li3 O7 2.195800 1_555
Mn0 O10 1.922543 1_655
Mn0 O5 1.923159 1_654
Mn0 O7 1.924442 1_565
Mn0 O14 1.928718 1_664
Mn0 O8 1.935057 1_555
Mn0 O12 1.935134 1_564
Mn1 O13 1.918648 1_565
Mn1 O9 1.919083 1_555
Mn1 O4 1.926585 1_555
Mn1 O6 1.926681 1_565
Mn1 O11 1.934324 1_555
Mn1 O15 1.935621 1_565
Co0 O0 1.890844 1_555
Co0 O11 1.892620 1_455
Co0 O2 1.892870 1_465
Co0 O15 1.893164 1_465
Co0 O13 1.908548 1_565
Co0 O9 1.909916 1_555
Co1 O1 1.939141 1_555
Co1 O2 1.942659 1_465
Co1 O9 2.044775 1_555
Co1 O5 2.063231 1_555
Co1 O14 2.067964 1_565
Co1 O6 2.076479 1_565
Co2 O3 1.932186 1_555
Co2 O0 1.948434 1_545
Co2 O13 2.053664 1_555
Co2 O10 2.056453 1_545
Co2 O7 2.067685 1_455
Co2 O4 2.079065 1_545
Co3 O8 1.885632 1_556
Co3 O14 1.891822 1_565
Co3 O1 1.893827 1_555
Co3 O3 1.901025 1_566
Co3 O12 1.905998 1_565
Co3 O10 1.916284 1_556
Co4 O4 1.931987 1_555
Co4 O7 1.938415 1_565
Co4 O15 2.049789 1_565
Co4 O8 2.066675 1_555
Co4 O0 2.069447 1_655
Co4 O3 2.079109 1_565
Co5 O6 1.930938 1_555
Co5 O5 1.943002 1_645
Co5 O12 2.053423 1_555
Co5 O11 2.058304 1_545
Co5 O1 2.070149 1_545
Co5 O2 2.072589 1_555
