# generated using pymatgen
data_Na4Ca4Ti4Si4O22F3
_symmetry_space_group_name_H-M   'P 1'
_cell_length_a   7.24305669
_cell_length_b   7.24305669
_cell_length_c   20.56257606
_cell_angle_alpha   84.91607445
_cell_angle_beta   84.91607445
_cell_angle_gamma   90.00019018
_symmetry_Int_Tables_number   1
_chemical_formula_structural   Na4Ca4Ti4Si4O22F3
_chemical_formula_sum   'Na8 Ca8 Ti8 Si8 O44 F6'
_cell_volume   1070.24665122
_cell_formula_units_Z   2
loop_
 _symmetry_equiv_pos_site_id
 _symmetry_equiv_pos_as_xyz
  1  'x, y, z'
loop_
 _atom_site_type_symbol
 _atom_site_label
 _atom_site_symmetry_multiplicity
 _atom_site_fract_x
 _atom_site_fract_y
 _atom_site_fract_z
 _atom_site_occupancy
  Na  Na0  1  0.44590800  0.32550600  0.69621300  1
  Na  Na1  1  0.55409200  0.67449400  0.30378700  1
  Na  Na2  1  0.67449400  0.55409200  0.80378700  1
  Na  Na3  1  0.32550600  0.44590800  0.19621300  1
  Na  Na4  1  0.67460700  0.04456100  0.80397500  1
  Na  Na5  1  0.32539300  0.95543900  0.19602500  1
  Na  Na6  1  0.95543900  0.32539300  0.69602500  1
  Na  Na7  1  0.04456100  0.67460700  0.30397500  1
  Ca  Ca0  1  0.23353500  0.10304500  0.56692800  1
  Ca  Ca1  1  0.76646500  0.89695500  0.43307200  1
  Ca  Ca2  1  0.89695500  0.76646500  0.93307200  1
  Ca  Ca3  1  0.10304500  0.23353500  0.06692800  1
  Ca  Ca4  1  0.23273500  0.61306200  0.56954500  1
  Ca  Ca5  1  0.76726500  0.38693800  0.43045500  1
  Ca  Ca6  1  0.38693800  0.76726500  0.93045500  1
  Ca  Ca7  1  0.61306200  0.23273500  0.06954500  1
  Ti  Ti0  1  0.45166600  0.83021200  0.68509100  1
  Ti  Ti1  1  0.54833400  0.16978800  0.31490900  1
  Ti  Ti2  1  0.16978800  0.54833400  0.81490900  1
  Ti  Ti3  1  0.83021200  0.45166600  0.18509100  1
  Ti  Ti4  1  0.16982100  0.04442200  0.81508500  1
  Ti  Ti5  1  0.83017900  0.95557800  0.18491500  1
  Ti  Ti6  1  0.95557800  0.83017900  0.68491500  1
  Ti  Ti7  1  0.04442200  0.16982100  0.31508500  1
  Si  Si0  1  0.42335600  0.27111000  0.91573400  1
  Si  Si1  1  0.57664400  0.72889000  0.08426600  1
  Si  Si2  1  0.72889000  0.57664400  0.58426600  1
  Si  Si3  1  0.27111000  0.42335600  0.41573400  1
  Si  Si4  1  0.72872900  0.13137700  0.58395000  1
  Si  Si5  1  0.27127100  0.86862300  0.41605000  1
  Si  Si6  1  0.86862300  0.27127100  0.91605000  1
  Si  Si7  1  0.13137700  0.72872900  0.08395000  1
  O  O0  1  0.52900800  0.04367300  0.61728200  1
  O  O1  1  0.47099200  0.95632700  0.38271800  1
  O  O2  1  0.95632700  0.47099200  0.88271800  1
  O  O3  1  0.04367300  0.52900800  0.11728200  1
  O  O4  1  0.74798300  0.12435900  0.50526400  1
  O  O5  1  0.25201700  0.87564100  0.49473600  1
  O  O6  1  0.87564100  0.25201700  0.99473600  1
  O  O7  1  0.12435900  0.74798300  0.00526400  1
  O  O8  1  0.52908800  0.64754600  0.61758600  1
  O  O9  1  0.47091200  0.35245400  0.38241400  1
  O  O10  1  0.35245400  0.47091200  0.88241400  1
  O  O11  1  0.64754600  0.52908800  0.11758600  1
  O  O12  1  0.00202300  0.99797700  0.75000000  1
  O  O13  1  0.99797700  0.00202300  0.25000000  1
  O  O14  1  0.21295300  0.83889000  0.64767500  1
  O  O15  1  0.78704700  0.16111000  0.35232500  1
  O  O16  1  0.16111000  0.78704700  0.85232500  1
  O  O17  1  0.83889000  0.21295300  0.14767500  1
  O  O18  1  0.62370300  0.74835600  0.00528400  1
  O  O19  1  0.37629700  0.25164400  0.99471600  1
  O  O20  1  0.25164400  0.37629700  0.49471600  1
  O  O21  1  0.74835600  0.62370300  0.50528400  1
  O  O22  1  0.37187400  0.62812600  0.75000000  1
  O  O23  1  0.62812600  0.37187400  0.25000000  1
  O  O24  1  0.65088600  0.27545800  0.89690000  1
  O  O25  1  0.34911400  0.72454200  0.10310000  1
  O  O26  1  0.72454200  0.34911400  0.60310000  1
  O  O27  1  0.27545800  0.65088600  0.39690000  1
  O  O28  1  0.37195800  0.99798800  0.75010700  1
  O  O29  1  0.62804200  0.00201200  0.24989300  1
  O  O30  1  0.00201200  0.62804200  0.74989300  1
  O  O31  1  0.99798800  0.37195800  0.25010700  1
  O  O32  1  0.69616000  0.82249700  0.71409900  1
  O  O33  1  0.30384000  0.17750300  0.28590100  1
  O  O34  1  0.17750300  0.30384000  0.78590100  1
  O  O35  1  0.82249700  0.69616000  0.21409900  1
  O  O36  1  0.35222400  0.08805300  0.88255400  1
  O  O37  1  0.64777600  0.91194700  0.11744600  1
  O  O38  1  0.91194700  0.64777600  0.61744600  1
  O  O39  1  0.08805300  0.35222400  0.38255400  1
  O  O40  1  0.91228300  0.04340800  0.61703900  1
  O  O41  1  0.08771700  0.95659200  0.38296100  1
  O  O42  1  0.95659200  0.08771700  0.88296100  1
  O  O43  1  0.04340800  0.91228300  0.11703900  1
  F  F0  1  0.68723900  0.31276100  0.75000000  1
  F  F1  1  0.31276100  0.68723900  0.25000000  1
  F  F2  1  0.65934800  0.78257300  0.86931000  1
  F  F3  1  0.34065200  0.21742700  0.13069000  1
  F  F4  1  0.21742700  0.34065200  0.63069000  1
  F  F5  1  0.78257300  0.65934800  0.36931000  1
loop_
_geom_bond_atom_site_label_1
_geom_bond_atom_site_label_2
_geom_bond_distance
_geom_bond_site_symmetry_2
Na0 O34 2.553128 1_555
Na0 O28 2.563465 1_545
Na0 O22 2.576766 1_555
Na0 O26 2.650514 1_555
Na0 O8 2.752586 1_555
Na0 O0 2.752742 1_555
Na1 O35 2.553128 1_555
Na1 O29 2.563465 1_565
Na1 O23 2.576766 1_555
Na1 O27 2.650514 1_555
Na1 O9 2.752586 1_555
Na1 O1 2.752742 1_555
Na2 O32 2.553128 1_555
Na2 O30 2.563465 1_655
Na2 O22 2.576766 1_555
Na2 O24 2.650514 1_555
Na2 O10 2.752586 1_555
Na2 O2 2.752742 1_555
Na3 O33 2.553128 1_555
Na3 O31 2.563465 1_455
Na3 O23 2.576766 1_555
Na3 O25 2.650514 1_555
Na3 O11 2.752586 1_555
Na3 O3 2.752742 1_555
Na4 O32 2.549997 1_545
Na4 O12 2.563108 1_645
Na4 O28 2.577321 1_545
Na4 O24 2.643044 1_555
Na4 O36 2.753896 1_555
Na4 O42 2.754089 1_555
Na5 O33 2.549997 1_565
Na5 O13 2.563108 1_465
Na5 O29 2.577321 1_565
Na5 O25 2.643044 1_555
Na5 O37 2.753896 1_555
Na5 O43 2.754089 1_555
Na6 O34 2.549997 1_655
Na6 O12 2.563108 1_645
Na6 O30 2.577321 1_655
Na6 O26 2.643044 1_555
Na6 O38 2.753896 1_555
Na6 O40 2.754089 1_555
Na7 O35 2.549997 1_455
Na7 O13 2.563108 1_465
Na7 O31 2.577321 1_455
Na7 O27 2.643044 1_555
Na7 O39 2.753896 1_555
Na7 O41 2.754089 1_555
Ca0 F4 2.251059 1_555
Ca0 O5 2.309238 1_545
Ca0 O20 2.363010 1_555
Ca0 O14 2.415125 1_545
Ca0 O0 2.480113 1_555
Ca0 O40 2.481679 1_455
Ca1 F5 2.251059 1_555
Ca1 O4 2.309238 1_565
Ca1 O21 2.363010 1_555
Ca1 O15 2.415125 1_565
Ca1 O1 2.480113 1_555
Ca1 O41 2.481679 1_655
Ca2 F2 2.251059 1_555
Ca2 O7 2.309238 1_656
Ca2 O18 2.363010 1_556
Ca2 O16 2.415125 1_655
Ca2 O2 2.480113 1_555
Ca2 O42 2.481679 1_565
Ca3 F3 2.251059 1_555
Ca3 O6 2.309238 1_454
Ca3 O19 2.363010 1_554
Ca3 O17 2.415125 1_455
Ca3 O3 2.480113 1_555
Ca3 O43 2.481679 1_545
Ca4 F4 2.240931 1_555
Ca4 O5 2.333734 1_555
Ca4 O14 2.387874 1_555
Ca4 O20 2.399475 1_555
Ca4 O8 2.462767 1_555
Ca4 O38 2.463790 1_455
Ca5 F5 2.240931 1_555
Ca5 O4 2.333734 1_555
Ca5 O15 2.387874 1_555
Ca5 O21 2.399475 1_555
Ca5 O9 2.462767 1_555
Ca5 O39 2.463790 1_655
Ca6 F2 2.240931 1_555
Ca6 O7 2.333734 1_556
Ca6 O16 2.387874 1_555
Ca6 O18 2.399475 1_556
Ca6 O10 2.462767 1_555
Ca6 O36 2.463790 1_565
Ca7 F3 2.240931 1_555
Ca7 O6 2.333734 1_554
Ca7 O17 2.387874 1_555
Ca7 O19 2.399475 1_554
Ca7 O11 2.462767 1_555
Ca7 O37 2.463790 1_545
O0 Si4 1.647128 1_555
O0 Ti0 2.031727 1_545
O1 Si5 1.647128 1_555
O1 Ti1 2.031727 1_565
O2 Si6 1.647128 1_555
O2 Ti2 2.031727 1_655
O3 Si7 1.647128 1_555
O3 Ti3 2.031727 1_455
O4 Si4 1.616942 1_555
O5 Si5 1.616942 1_555
O6 Si6 1.616942 1_555
O7 Si7 1.616942 1_555
O8 Si2 1.647456 1_555
O8 Ti0 2.044320 1_555
O9 Si3 1.647456 1_555
O9 Ti1 2.044320 1_555
O10 Si0 1.647456 1_555
O10 Ti2 2.044320 1_555
O11 Si1 1.647456 1_555
O11 Ti3 2.044320 1_555
O12 Ti6 1.936348 1_455
O12 Ti4 1.936348 1_565
O13 Ti5 1.936348 1_545
O13 Ti7 1.936348 1_655
O14 Ti6 1.950377 1_455
O14 Ti0 1.952576 1_555
O15 Ti7 1.950377 1_655
O15 Ti1 1.952576 1_555
O16 Ti4 1.950377 1_565
O16 Ti2 1.952576 1_555
O17 Ti5 1.950377 1_545
O17 Ti3 1.952576 1_555
O18 Si1 1.623263 1_555
O19 Si0 1.623263 1_555
O20 Si3 1.623263 1_555
O21 Si2 1.623263 1_555
O22 Ti0 1.942923 1_555
O22 Ti2 1.942923 1_555
O23 Ti1 1.942923 1_555
O23 Ti3 1.942923 1_555
O24 Si6 1.658647 1_555
O24 Si0 1.658808 1_555
O25 Si7 1.658647 1_555
O25 Si1 1.658808 1_555
O26 Si4 1.658647 1_555
O26 Si2 1.658808 1_555
O27 Si5 1.658647 1_555
O27 Si3 1.658808 1_555
O28 Ti0 1.936100 1_555
O28 Ti4 1.942891 1_565
O29 Ti1 1.936100 1_555
O29 Ti5 1.942891 1_545
O30 Ti2 1.936100 1_555
O30 Ti6 1.942891 1_455
O31 Ti3 1.936100 1_555
O31 Ti7 1.942891 1_655
O32 Ti0 1.917352 1_555
O32 Ti6 1.920422 1_555
O33 Ti1 1.917352 1_555
O33 Ti7 1.920422 1_555
O34 Ti2 1.917352 1_555
O34 Ti4 1.920422 1_555
O35 Ti3 1.917352 1_555
O35 Ti5 1.920422 1_555
O36 Si0 1.646675 1_555
O36 Ti4 2.042686 1_555
O37 Si1 1.646675 1_555
O37 Ti5 2.042686 1_555
O38 Si2 1.646675 1_555
O38 Ti6 2.042686 1_555
O39 Si3 1.646675 1_555
O39 Ti7 2.042686 1_555
O40 Si4 1.649229 1_555
O40 Ti6 2.031535 1_545
O41 Si5 1.649229 1_555
O41 Ti7 2.031535 1_565
O42 Si6 1.649229 1_555
O42 Ti4 2.031535 1_655
O43 Si7 1.649229 1_555
O43 Ti5 2.031535 1_455
F0 Na2 2.147488 1_555
F0 Na0 2.147488 1_555
F0 Na4 2.147955 1_555
F0 Na6 2.147955 1_555
F1 Na3 2.147488 1_555
F1 Na1 2.147488 1_555
F1 Na7 2.147955 1_555
F1 Na5 2.147955 1_555
F2 Na2 2.221481 1_555
F2 Na4 2.222570 1_565
F3 Na3 2.221481 1_555
F3 Na5 2.222570 1_545
F4 Na0 2.221481 1_555
F4 Na6 2.222570 1_455
F5 Na1 2.221481 1_555
F5 Na7 2.222570 1_655
