# generated using pymatgen
data_Bi14Mo5
_symmetry_space_group_name_H-M   'P 1'
_cell_length_a   14.89873481
_cell_length_b   14.89873481
_cell_length_c   7.35459181
_cell_angle_alpha   78.71455044
_cell_angle_beta   78.71455044
_cell_angle_gamma   19.10547631
_symmetry_Int_Tables_number   1
_chemical_formula_structural   Bi14Mo5
_chemical_formula_sum   'Bi14 Mo5'
_cell_volume   523.70850115
_cell_formula_units_Z   1
loop_
 _symmetry_equiv_pos_site_id
 _symmetry_equiv_pos_as_xyz
  1  'x, y, z'
loop_
 _atom_site_type_symbol
 _atom_site_label
 _atom_site_symmetry_multiplicity
 _atom_site_fract_x
 _atom_site_fract_y
 _atom_site_fract_z
 _atom_site_occupancy
  Bi  Bi0  1  0.51856400  0.51856400  0.76384600  1
  Bi  Bi1  1  0.48143600  0.48143600  0.23615400  1
  Bi  Bi2  1  0.25814500  0.25814500  0.83767300  1
  Bi  Bi3  1  0.74185500  0.74185500  0.16232700  1
  Bi  Bi4  1  0.67380700  0.67380700  0.84342000  1
  Bi  Bi5  1  0.32619300  0.32619300  0.15658000  1
  Bi  Bi6  1  0.09777400  0.09777400  0.81244700  1
  Bi  Bi7  1  0.90222600  0.90222600  0.18755300  1
  Bi  Bi8  1  0.94177700  0.94177700  0.72029400  1
  Bi  Bi9  1  0.05822300  0.05822300  0.27970600  1
  Bi  Bi10  1  0.37353100  0.37353100  0.65406800  1
  Bi  Bi11  1  0.62646900  0.62646900  0.34593200  1
  Bi  Bi12  1  0.80475000  0.80475000  0.56663100  1
  Bi  Bi13  1  0.19525000  0.19525000  0.43336900  1
  Mo  Mo0  1  0.00000000  0.00000000  0.00000000  1
  Mo  Mo1  1  0.41981700  0.41981700  0.96146500  1
  Mo  Mo2  1  0.58018300  0.58018300  0.03853500  1
  Mo  Mo3  1  0.83747500  0.83747500  0.90644400  1
  Mo  Mo4  1  0.16252500  0.16252500  0.09355600  1
loop_
_geom_bond_atom_site_label_1
_geom_bond_atom_site_label_2
_geom_bond_distance
_geom_bond_site_symmetry_2
Bi0 Mo2 2.968416 1_556
Bi0 Mo1 2.976226 1_555
Bi0 Mo0 3.008562 1_566
Bi0 Mo0 3.008562 1_656
Bi0 Bi8 3.404974 1_455
Bi0 Bi8 3.404974 1_545
Bi0 Bi1 3.428156 1_556
Bi0 Bi6 3.462475 1_565
Bi0 Bi6 3.462475 1_655
Bi1 Mo1 2.968416 1_554
Bi1 Mo2 2.976226 1_555
Bi1 Mo0 3.008562 1_655
Bi1 Mo0 3.008562 1_565
Bi1 Bi9 3.404974 1_655
Bi1 Bi9 3.404974 1_565
Bi1 Bi7 3.462475 1_455
Bi1 Bi7 3.462475 1_545
Bi2 Mo4 3.055731 1_556
Bi2 Bi5 3.370545 1_556
Bi2 Bi3 3.404406 1_456
Bi2 Bi3 3.404406 1_546
Bi2 Bi4 3.495014 1_455
Bi2 Bi4 3.495014 1_545
Bi2 Mo3 3.502993 1_545
Bi2 Mo3 3.502993 1_455
Bi3 Mo3 3.055731 1_554
Bi3 Bi4 3.370545 1_554
Bi3 Bi5 3.495014 1_655
Bi3 Bi5 3.495014 1_565
Bi3 Mo4 3.502993 1_655
Bi3 Mo4 3.502993 1_565
Bi4 Mo2 2.839145 1_556
Bi4 Mo4 3.060316 1_566
Bi4 Mo4 3.060316 1_656
Bi4 Bi6 3.370282 1_565
Bi4 Bi6 3.370282 1_655
Bi5 Mo1 2.839145 1_554
Bi5 Mo3 3.060316 1_544
Bi5 Mo3 3.060316 1_454
Bi5 Bi7 3.370282 1_545
Bi5 Bi7 3.370282 1_455
Bi6 Mo0 2.929849 1_556
Bi6 Mo2 2.967202 1_456
Bi6 Mo2 2.967202 1_546
Bi6 Mo4 3.075011 1_556
Bi6 Bi9 3.402212 1_556
Bi7 Mo0 2.929849 1_665
Bi7 Mo1 2.967202 1_564
Bi7 Mo1 2.967202 1_654
Bi7 Mo3 3.075011 1_554
Bi7 Bi8 3.402212 1_554
Bi8 Mo0 2.924992 1_666
Bi8 Mo1 3.036702 1_565
Bi8 Mo1 3.036702 1_655
Bi8 Mo3 3.098741 1_555
Bi9 Mo0 2.924992 1_555
Bi9 Mo2 3.036702 1_545
Bi9 Mo2 3.036702 1_455
Bi9 Mo4 3.098741 1_555
Bi10 Mo1 2.860304 1_555
Bi10 Mo3 3.146515 1_545
Bi10 Mo3 3.146515 1_455
Bi10 Bi8 3.280205 1_545
Bi10 Bi8 3.280205 1_455
Bi10 Bi12 3.335793 1_545
Bi10 Bi12 3.335793 1_455
Bi10 Bi2 3.391459 1_555
Bi11 Mo2 2.860304 1_555
Bi11 Mo4 3.146515 1_655
Bi11 Mo4 3.146515 1_565
Bi11 Bi9 3.280205 1_655
Bi11 Bi9 3.280205 1_565
Bi11 Bi13 3.335793 1_565
Bi11 Bi13 3.335793 1_655
Bi11 Bi3 3.391459 1_555
Bi12 Mo3 2.850340 1_555
Bi12 Bi2 3.298327 1_655
Bi12 Bi2 3.298327 1_565
Bi12 Bi7 3.578733 1_555
Bi13 Mo4 2.850340 1_555
Bi13 Bi3 3.298327 1_455
Bi13 Bi3 3.298327 1_545
Bi13 Bi6 3.578733 1_555
