# generated using pymatgen
data_CaBHO3
_symmetry_space_group_name_H-M   'P 1'
_cell_length_a   3.59816799
_cell_length_b   7.64628268
_cell_length_c   9.58591600
_cell_angle_alpha   90.00000000
_cell_angle_beta   90.00000000
_cell_angle_gamma   94.66247699
_symmetry_Int_Tables_number   1
_chemical_formula_structural   CaBHO3
_chemical_formula_sum   'Ca4 B4 H4 O12'
_cell_volume   262.86082646
_cell_formula_units_Z   4
loop_
 _symmetry_equiv_pos_site_id
 _symmetry_equiv_pos_as_xyz
  1  'x, y, z'
loop_
 _atom_site_type_symbol
 _atom_site_label
 _atom_site_symmetry_multiplicity
 _atom_site_fract_x
 _atom_site_fract_y
 _atom_site_fract_z
 _atom_site_occupancy
  Ca  Ca0  1  0.70914000  0.79107500  0.99269200  1
  Ca  Ca1  1  0.79086000  0.70892500  0.49269200  1
  Ca  Ca2  1  0.29086000  0.20892500  0.00730800  1
  Ca  Ca3  1  0.20914000  0.29107500  0.50730800  1
  B  B0  1  0.78097000  0.07801700  0.73593700  1
  B  B1  1  0.71903000  0.42198300  0.23593700  1
  B  B2  1  0.21903000  0.92198300  0.26406300  1
  B  B3  1  0.28097000  0.57801700  0.76406300  1
  H  H0  1  0.04890300  0.85605600  0.73602600  1
  H  H1  1  0.45109700  0.64394400  0.23602600  1
  H  H2  1  0.95109700  0.14394400  0.26397400  1
  H  H3  1  0.54890300  0.35605600  0.76397400  1
  O  O0  1  0.76120700  0.07537500  0.87957900  1
  O  O1  1  0.73879300  0.42462500  0.37957900  1
  O  O2  1  0.23879300  0.92462500  0.12042100  1
  O  O3  1  0.26120700  0.57537500  0.62042100  1
  O  O4  1  0.68612400  0.21432800  0.65455900  1
  O  O5  1  0.81387600  0.28567200  0.15455900  1
  O  O6  1  0.31387600  0.78567200  0.34544100  1
  O  O7  1  0.18612400  0.71432800  0.84544100  1
  O  O8  1  0.92943600  0.93521600  0.66587900  1
  O  O9  1  0.57056400  0.56478400  0.16587900  1
  O  O10  1  0.07056400  0.06478400  0.33412100  1
  O  O11  1  0.42943600  0.43521600  0.83412100  1
loop_
_geom_bond_atom_site_label_1
_geom_bond_atom_site_label_2
_geom_bond_distance
_geom_bond_site_symmetry_2
Ca0 O7 2.333691 1_655
Ca0 O2 2.384755 1_556
Ca0 O7 2.387218 1_555
Ca0 O2 2.420236 1_656
Ca0 O9 2.420406 1_556
Ca0 O0 2.422839 1_565
Ca1 O6 2.333691 1_555
Ca1 O3 2.384755 1_655
Ca1 O6 2.387218 1_655
Ca1 O3 2.420236 1_555
Ca1 O8 2.420406 1_555
Ca1 O1 2.422839 1_555
Ca2 O5 2.333691 1_455
Ca2 O0 2.384755 1_554
Ca2 O5 2.387218 1_555
Ca2 O0 2.420236 1_454
Ca2 O11 2.420406 1_554
Ca2 O2 2.422839 1_545
Ca3 O4 2.333691 1_555
Ca3 O1 2.384755 1_455
Ca3 O4 2.387218 1_455
Ca3 O1 2.420236 1_555
Ca3 O10 2.420406 1_555
Ca3 O3 2.422839 1_555
B0 O4 1.367170 1_555
B0 O0 1.378838 1_555
B0 O8 1.422480 1_545
B1 O5 1.367170 1_555
B1 O1 1.378838 1_555
B1 O9 1.422480 1_555
B2 O6 1.367170 1_555
B2 O2 1.378838 1_555
B2 O10 1.422480 1_565
B3 O7 1.367170 1_555
B3 O3 1.378838 1_555
B3 O11 1.422480 1_555
H0 O8 1.022544 1_455
H0 O7 1.614073 1_555
H1 O9 1.022544 1_555
H1 O6 1.614073 1_555
H2 O10 1.022544 1_655
H2 O5 1.614073 1_555
H3 O11 1.022544 1_555
H3 O4 1.614073 1_555
