# generated using pymatgen
data_Ba2SnSe3F2
_symmetry_space_group_name_H-M   'P 1'
_cell_length_a   6.49112600
_cell_length_b   6.56806500
_cell_length_c   20.11879500
_cell_angle_alpha   90.00000000
_cell_angle_beta   90.00000000
_cell_angle_gamma   90.00000000
_symmetry_Int_Tables_number   1
_chemical_formula_structural   Ba2SnSe3F2
_chemical_formula_sum   'Ba8 Sn4 Se12 F8'
_cell_volume   857.74747219
_cell_formula_units_Z   4
loop_
 _symmetry_equiv_pos_site_id
 _symmetry_equiv_pos_as_xyz
  1  'x, y, z'
loop_
 _atom_site_type_symbol
 _atom_site_label
 _atom_site_symmetry_multiplicity
 _atom_site_fract_x
 _atom_site_fract_y
 _atom_site_fract_z
 _atom_site_occupancy
  Ba  Ba0  1  0.24570400  0.49532600  0.42714500  1
  Ba  Ba1  1  0.74570400  0.00467400  0.07285500  1
  Ba  Ba2  1  0.25429600  0.99532600  0.57285500  1
  Ba  Ba3  1  0.75429600  0.50467400  0.92714500  1
  Ba  Ba4  1  0.75429600  0.50467400  0.57285500  1
  Ba  Ba5  1  0.25429600  0.99532600  0.92714500  1
  Ba  Ba6  1  0.74570400  0.00467400  0.42714500  1
  Ba  Ba7  1  0.24570400  0.49532600  0.07285500  1
  Sn  Sn0  1  0.14529900  0.59063700  0.75000000  1
  Sn  Sn1  1  0.64529900  0.90936300  0.75000000  1
  Sn  Sn2  1  0.35470100  0.09063700  0.25000000  1
  Sn  Sn3  1  0.85470100  0.40936300  0.25000000  1
  Se  Se0  1  0.74220400  0.51410000  0.13523600  1
  Se  Se1  1  0.74646000  0.52306600  0.75000000  1
  Se  Se2  1  0.75354000  0.02306600  0.25000000  1
  Se  Se3  1  0.25354000  0.47693400  0.25000000  1
  Se  Se4  1  0.24220400  0.98590000  0.36476400  1
  Se  Se5  1  0.75779600  0.01410000  0.86476400  1
  Se  Se6  1  0.25779600  0.48590000  0.63523600  1
  Se  Se7  1  0.25779600  0.48590000  0.86476400  1
  Se  Se8  1  0.74220400  0.51410000  0.36476400  1
  Se  Se9  1  0.24220400  0.98590000  0.13523600  1
  Se  Se10  1  0.24646000  0.97693400  0.75000000  1
  Se  Se11  1  0.75779600  0.01410000  0.63523600  1
  F  F0  1  0.49850500  0.25384200  0.99872400  1
  F  F1  1  0.99850500  0.24615800  0.50127600  1
  F  F2  1  0.50149500  0.74615800  0.49872400  1
  F  F3  1  0.49850500  0.25384200  0.50127600  1
  F  F4  1  0.99850500  0.24615800  0.99872400  1
  F  F5  1  0.00149500  0.75384200  0.49872400  1
  F  F6  1  0.50149500  0.74615800  0.00127600  1
  F  F7  1  0.00149500  0.75384200  0.00127600  1
loop_
_geom_bond_atom_site_label_1
_geom_bond_atom_site_label_2
_geom_bond_distance
_geom_bond_site_symmetry_2
Ba0 F3 2.726311 1_555
Ba0 F5 2.733076 1_555
Ba0 F1 2.734483 1_455
Ba0 F2 2.746792 1_555
Ba0 Se4 3.457989 1_555
Ba0 Se8 3.460785 1_555
Ba0 Se8 3.503138 1_455
Ba0 Se3 3.566353 1_555
Ba0 Se4 3.573647 1_545
Ba1 F4 2.726311 1_554
Ba1 F6 2.733076 1_545
Ba1 F0 2.734483 1_554
Ba1 F7 2.746792 1_645
Ba1 Se0 3.457989 1_545
Ba1 Se9 3.460785 1_645
Ba1 Se9 3.503138 1_545
Ba1 Se2 3.566353 1_555
Ba1 Se0 3.573647 1_555
Ba2 F5 2.726311 1_555
Ba2 F3 2.733076 1_565
Ba2 F2 2.734483 1_555
Ba2 F1 2.746792 1_465
Ba2 Se6 3.457989 1_565
Ba2 Se11 3.460785 1_465
Ba2 Se11 3.503138 1_565
Ba2 Se10 3.566353 1_555
Ba2 Se6 3.573647 1_555
Ba3 F6 2.726311 1_556
Ba3 F4 2.733076 1_555
Ba3 F7 2.734483 1_656
Ba3 F0 2.746792 1_555
Ba3 Se5 3.457989 1_555
Ba3 Se7 3.460785 1_555
Ba3 Se7 3.503138 1_655
Ba3 Se1 3.566353 1_555
Ba3 Se5 3.573647 1_565
Ba4 F2 2.726311 1_555
Ba4 F1 2.733076 1_555
Ba4 F5 2.734483 1_655
Ba4 F3 2.746792 1_555
Ba4 Se11 3.457989 1_555
Ba4 Se6 3.460785 1_555
Ba4 Se6 3.503138 1_655
Ba4 Se1 3.566353 1_555
Ba4 Se11 3.573647 1_565
Ba5 F7 2.726311 1_556
Ba5 F0 2.733076 1_565
Ba5 F6 2.734483 1_556
Ba5 F4 2.746792 1_465
Ba5 Se7 3.457989 1_565
Ba5 Se5 3.460785 1_465
Ba5 Se5 3.503138 1_565
Ba5 Se10 3.566353 1_555
Ba5 Se7 3.573647 1_555
Ba6 F1 2.726311 1_555
Ba6 F2 2.733076 1_545
Ba6 F3 2.734483 1_555
Ba6 F5 2.746792 1_645
Ba6 Se8 3.457989 1_545
Ba6 Se4 3.460785 1_645
Ba6 Se4 3.503138 1_545
Ba6 Se2 3.566353 1_555
Ba6 Se8 3.573647 1_555
Ba7 F0 2.726311 1_554
Ba7 F7 2.733076 1_555
Ba7 F4 2.734483 1_454
Ba7 F6 2.746792 1_555
Ba7 Se9 3.457989 1_555
Ba7 Se0 3.460785 1_555
Ba7 Se0 3.503138 1_455
Ba7 Se3 3.566353 1_555
Ba7 Se9 3.573647 1_545
Se0 Sn3 2.517450 1_555
Se1 Sn1 2.620819 1_555
Se1 Sn0 2.626679 1_655
Se2 Sn3 2.620819 1_555
Se2 Sn2 2.626679 1_555
Se3 Sn2 2.620819 1_555
Se3 Sn3 2.626679 1_455
Se4 Sn2 2.517450 1_565
Se5 Sn1 2.517450 1_545
Se6 Sn0 2.517450 1_555
Se7 Sn0 2.517450 1_555
Se8 Sn3 2.517450 1_555
Se9 Sn2 2.517450 1_565
Se10 Sn0 2.620819 1_555
Se10 Sn1 2.626679 1_555
Se11 Sn1 2.517450 1_545
