# generated using pymatgen
data_K3UH5C5O12
_symmetry_space_group_name_H-M   'P 1'
_cell_length_a   9.93862100
_cell_length_b   10.39358583
_cell_length_c   10.77975886
_cell_angle_alpha   111.45324792
_cell_angle_beta   86.35892596
_cell_angle_gamma   118.37970970
_symmetry_Int_Tables_number   1
_chemical_formula_structural   K3UH5C5O12
_chemical_formula_sum   'K6 U2 H10 C10 O24'
_cell_volume   903.50704024
_cell_formula_units_Z   2
loop_
 _symmetry_equiv_pos_site_id
 _symmetry_equiv_pos_as_xyz
  1  'x, y, z'
loop_
 _atom_site_type_symbol
 _atom_site_label
 _atom_site_symmetry_multiplicity
 _atom_site_fract_x
 _atom_site_fract_y
 _atom_site_fract_z
 _atom_site_occupancy
  K  K0  1  0.76997000  0.81073500  0.92664200  1
  K  K1  1  0.23003000  0.18926500  0.07335800  1
  K  K2  1  0.46895600  0.94253800  0.15564700  1
  K  K3  1  0.53104400  0.05746200  0.84435300  1
  K  K4  1  0.85636800  0.65226400  0.45693200  1
  K  K5  1  0.14363200  0.34773600  0.54306800  1
  U  U0  1  0.82770400  0.46192600  0.75772000  1
  U  U1  1  0.17229600  0.53807400  0.24228000  1
  H  H0  1  0.40290900  0.35067800  0.63501900  1
  H  H1  1  0.59709100  0.64932200  0.36498100  1
  H  H2  1  0.09665900  0.07498600  0.77196900  1
  H  H3  1  0.90334100  0.92501400  0.22803100  1
  H  H4  1  0.43723100  0.29782600  0.31738400  1
  H  H5  1  0.56276900  0.70217400  0.68261600  1
  H  H6  1  0.90355300  0.84724600  0.20214900  1
  H  H7  1  0.09644700  0.15275400  0.79785100  1
  H  H8  1  0.82046800  0.97714200  0.58632800  1
  H  H9  1  0.17953200  0.02285800  0.41367200  1
  C  C0  1  0.42312400  0.82076800  0.50353700  1
  C  C1  1  0.57687600  0.17923200  0.49646300  1
  C  C2  1  0.53300900  0.44480400  0.95576600  1
  C  C3  1  0.46699100  0.55519600  0.04423400  1
  C  C4  1  0.26817600  0.81798000  0.54635300  1
  C  C5  1  0.73182400  0.18202000  0.45364700  1
  C  C6  1  0.14280000  0.78865700  0.94116000  1
  C  C7  1  0.85720000  0.21134300  0.05884000  1
  C  C8  1  0.20646900  0.68610800  0.83947500  1
  C  C9  1  0.79353100  0.31389200  0.16052500  1
  O  O0  1  0.34710500  0.73566100  0.84160500  1
  O  O1  1  0.65289500  0.26433900  0.15839500  1
  O  O2  1  0.65167700  0.51307800  0.90059800  1
  O  O3  1  0.34832300  0.48692200  0.09940200  1
  O  O4  1  0.46946000  0.30447900  0.94368000  1
  O  O5  1  0.53054000  0.69552100  0.05632000  1
  O  O6  1  0.54378700  0.90427400  0.58382400  1
  O  O7  1  0.45621300  0.09572600  0.41617600  1
  O  O8  1  0.59358200  0.27454100  0.61962800  1
  O  O9  1  0.40641800  0.72545900  0.38037200  1
  O  O10  1  0.09810400  0.55186200  0.75608800  1
  O  O11  1  0.90189600  0.44813800  0.24391200  1
  O  O12  1  0.82119100  0.33301400  0.83812100  1
  O  O13  1  0.17880900  0.66698600  0.16187900  1
  O  O14  1  0.83006900  0.59635000  0.68160800  1
  O  O15  1  0.16993100  0.40365000  0.31839200  1
  O  O16  1  0.23484400  0.92690600  0.01717000  1
  O  O17  1  0.76515600  0.07309400  0.98283000  1
  O  O18  1  0.26408600  0.90683100  0.65816200  1
  O  O19  1  0.73591400  0.09316900  0.34183800  1
  O  O20  1  0.15089100  0.71154900  0.45276700  1
  O  O21  1  0.84910900  0.28845100  0.54723300  1
  O  O22  1  0.99472500  0.71973600  0.93421200  1
  O  O23  1  0.00527500  0.28026400  0.06578800  1
loop_
_geom_bond_atom_site_label_1
_geom_bond_atom_site_label_2
_geom_bond_distance
_geom_bond_site_symmetry_2
K0 O17 2.591730 1_565
K0 O2 2.642181 1_555
K0 O5 2.672777 1_556
K0 O22 2.824688 1_555
K0 O14 3.009711 1_555
K1 O16 2.591730 1_545
K1 O3 2.642181 1_555
K1 O4 2.672777 1_554
K1 O23 2.824688 1_555
K1 O15 3.009711 1_555
K2 O7 2.704451 1_565
K2 O5 2.740861 1_555
K2 O16 2.751878 1_555
K2 O19 2.819228 1_565
K2 O1 2.941349 1_565
K2 O13 2.964377 1_555
K2 O0 3.204839 1_554
K2 O17 3.366461 1_564
K3 O6 2.704451 1_545
K3 O4 2.740861 1_555
K3 O17 2.751878 1_555
K3 O18 2.819228 1_545
K3 O0 2.941349 1_545
K3 O12 2.964377 1_555
K3 O1 3.204839 1_556
K3 O16 3.366461 1_546
K4 O14 2.660202 1_555
K4 O11 2.682517 1_555
K4 O20 2.690512 1_655
K5 O15 2.660202 1_555
K5 O10 2.682517 1_555
K5 O21 2.690512 1_455
H0 K5 2.801956 1_555
H1 K4 2.801956 1_555
H2 H7 0.753499 1_555
H3 H6 0.753499 1_555
H4 K1 2.956622 1_555
H5 K0 2.956622 1_555
C0 O6 1.238302 1_555
C0 O9 1.296614 1_555
C1 O7 1.238302 1_555
C1 O8 1.296614 1_555
C2 O4 1.240492 1_555
C2 O2 1.293137 1_555
C3 O5 1.240492 1_555
C3 O3 1.293137 1_555
C4 O18 1.233872 1_555
C4 O20 1.306688 1_555
C5 O19 1.233872 1_555
C5 O21 1.306688 1_555
C6 O16 1.247926 1_556
C6 O22 1.287298 1_455
C7 O17 1.247926 1_554
C7 O23 1.287298 1_655
C8 O0 1.237143 1_555
C8 O10 1.300680 1_555
C9 O1 1.237143 1_555
C9 O11 1.300680 1_555
O2 U0 2.378749 1_555
O3 U1 2.378749 1_555
O8 U0 2.331203 1_555
O9 U1 2.331203 1_555
O10 U0 2.390440 1_455
O11 U1 2.390440 1_655
O12 U0 1.819465 1_555
O13 U1 1.819465 1_555
O14 U0 1.852184 1_555
O15 U1 1.852184 1_555
O20 U1 2.399019 1_555
O21 U0 2.399019 1_555
O22 U0 2.449262 1_555
O23 U1 2.449262 1_555
