# generated using pymatgen
data_PPbO4
_symmetry_space_group_name_H-M   'P 1'
_cell_length_a   6.87794700
_cell_length_b   4.51546200
_cell_length_c   5.41084524
_cell_angle_alpha   89.96120167
_cell_angle_beta   90.00000000
_cell_angle_gamma   90.00000000
_symmetry_Int_Tables_number   1
_chemical_formula_structural   PPbO4
_chemical_formula_sum   'P2 Pb2 O8'
_cell_volume   168.04516819
_cell_formula_units_Z   2
loop_
 _symmetry_equiv_pos_site_id
 _symmetry_equiv_pos_as_xyz
  1  'x, y, z'
loop_
 _atom_site_type_symbol
 _atom_site_label
 _atom_site_symmetry_multiplicity
 _atom_site_fract_x
 _atom_site_fract_y
 _atom_site_fract_z
 _atom_site_occupancy
  P  P0  1  0.71809400  0.50000000  0.75000000  1
  P  P1  1  0.28190600  0.50000000  0.25000000  1
  Pb  Pb0  1  0.28966000  0.00000000  0.75000000  1
  Pb  Pb1  1  0.71034000  0.00000000  0.25000000  1
  O  O0  1  0.58806600  0.73099700  0.61018100  1
  O  O1  1  0.58806600  0.26900300  0.88981900  1
  O  O2  1  0.41193400  0.26900300  0.38981900  1
  O  O3  1  0.41193400  0.73099700  0.11018100  1
  O  O4  1  0.84836600  0.33193900  0.56225800  1
  O  O5  1  0.84836600  0.66806100  0.93774200  1
  O  O6  1  0.15163400  0.66806100  0.43774200  1
  O  O7  1  0.15163400  0.33193900  0.06225800  1
loop_
_geom_bond_atom_site_label_1
_geom_bond_atom_site_label_2
_geom_bond_distance
_geom_bond_site_symmetry_2
O0 P0 1.568143 1_555
O0 Pb1 2.444922 1_565
O0 Pb0 2.502290 1_565
O1 P0 1.568143 1_555
O1 Pb1 2.444922 1_556
O1 Pb0 2.502290 1_555
O2 P1 1.568143 1_555
O2 Pb0 2.444922 1_555
O2 Pb1 2.502290 1_555
O3 P1 1.568143 1_555
O3 Pb0 2.444922 1_564
O3 Pb1 2.502290 1_565
O4 P0 1.552962 1_555
O4 Pb1 2.450698 1_555
O5 P0 1.552962 1_555
O5 Pb1 2.450698 1_566
O6 P1 1.552962 1_555
O6 Pb0 2.450698 1_565
O7 P1 1.552962 1_555
O7 Pb0 2.450698 1_554
