# generated using pymatgen
data_Nd3Ti
_symmetry_space_group_name_H-M   'P 1'
_cell_length_a   6.04730440
_cell_length_b   6.04730440
_cell_length_c   6.04730440
_cell_angle_alpha   131.57815151
_cell_angle_beta   131.57815151
_cell_angle_gamma   70.89611230
_symmetry_Int_Tables_number   1
_chemical_formula_structural   Nd3Ti
_chemical_formula_sum   'Nd3 Ti1'
_cell_volume   121.19512077
_cell_formula_units_Z   1
loop_
 _symmetry_equiv_pos_site_id
 _symmetry_equiv_pos_as_xyz
  1  'x, y, z'
loop_
 _atom_site_type_symbol
 _atom_site_label
 _atom_site_symmetry_multiplicity
 _atom_site_fract_x
 _atom_site_fract_y
 _atom_site_fract_z
 _atom_site_occupancy
  Nd  Nd0  1  0.75000000  0.25000000  0.50000000  1
  Nd  Nd1  1  0.25000000  0.75000000  0.50000000  1
  Nd  Nd2  1  0.50000000  0.50000000  0.00000000  1
  Ti  Ti0  1  0.00000000  0.00000000  0.00000000  1
loop_
_geom_bond_atom_site_label_1
_geom_bond_atom_site_label_2
_geom_bond_distance
_geom_bond_site_symmetry_2
Nd0 Nd2 3.495372 1_656
Nd0 Ti0 3.495372 1_555
Nd0 Ti0 3.495372 1_655
Nd0 Ti0 3.495372 1_666
Nd0 Ti0 3.495372 1_656
Nd0 Nd2 3.495372 1_555
Nd0 Nd2 3.495372 1_556
Nd0 Nd2 3.495372 1_545
Nd0 Nd1 3.507223 1_645
Nd0 Nd1 3.507223 1_555
Nd0 Nd1 3.507223 1_544
Nd0 Nd1 3.507223 1_656
Nd1 Nd2 3.495372 1_455
Nd1 Ti0 3.495372 1_666
Nd1 Ti0 3.495372 1_555
Nd1 Ti0 3.495372 1_566
Nd1 Nd2 3.495372 1_566
Nd1 Ti0 3.495372 1_565
Nd1 Nd2 3.495372 1_555
Nd1 Nd2 3.495372 1_556
Nd2 Ti0 3.507223 1_554
Nd2 Ti0 3.507223 1_655
Nd2 Ti0 3.507223 1_565
Nd2 Ti0 3.507223 1_666
