# generated using pymatgen
data_MgAl2(PO4)3
_symmetry_space_group_name_H-M   'P 1'
_cell_length_a   9.33027161
_cell_length_b   9.33027161
_cell_length_c   9.19253310
_cell_angle_alpha   89.99410861
_cell_angle_beta   89.99410861
_cell_angle_gamma   89.15628738
_symmetry_Int_Tables_number   1
_chemical_formula_structural   MgAl2(PO4)3
_chemical_formula_sum   'Mg2 Al4 P6 O24'
_cell_volume   800.15971460
_cell_formula_units_Z   2
loop_
 _symmetry_equiv_pos_site_id
 _symmetry_equiv_pos_as_xyz
  1  'x, y, z'
loop_
 _atom_site_type_symbol
 _atom_site_label
 _atom_site_symmetry_multiplicity
 _atom_site_fract_x
 _atom_site_fract_y
 _atom_site_fract_z
 _atom_site_occupancy
  Mg  Mg0  1  0.74268400  0.99698100  0.99996800  1
  Mg  Mg1  1  0.99698100  0.74268400  0.49996800  1
  Al  Al0  1  0.49745200  0.49759500  0.24992900  1
  Al  Al1  1  0.00351900  0.25647700  0.49989600  1
  Al  Al2  1  0.49759500  0.49745200  0.74992900  1
  Al  Al3  1  0.25647700  0.00351900  0.99989600  1
  P  P0  1  0.74398400  0.49231300  0.49945400  1
  P  P1  1  0.49231300  0.74398400  0.99945400  1
  P  P2  1  0.01079000  0.00977000  0.25003400  1
  P  P3  1  0.49293800  0.25466600  0.00057800  1
  P  P4  1  0.00977000  0.01079000  0.75003400  1
  P  P5  1  0.25466600  0.49293800  0.50057800  1
  O  O0  1  0.49294700  0.34813300  0.86300200  1
  O  O1  1  0.14388400  0.00730500  0.84766600  1
  O  O2  1  0.15692300  0.36103200  0.49458100  1
  O  O3  1  0.49249000  0.65024500  0.13845700  1
  O  O4  1  0.14403000  0.01909000  0.15170500  1
  O  O5  1  0.16756500  0.63035200  0.50730100  1
  O  O6  1  0.48094400  0.64925300  0.86174800  1
  O  O7  1  0.87124400  0.01956500  0.83797800  1
  O  O8  1  0.82962200  0.62863000  0.49315600  1
  O  O9  1  0.48012000  0.34931000  0.13685800  1
  O  O10  1  0.87199500  0.00475200  0.16275200  1
  O  O11  1  0.84361600  0.35778200  0.50493600  1
  O  O12  1  0.34813300  0.49294700  0.36300200  1
  O  O13  1  0.00730500  0.14388400  0.34766600  1
  O  O14  1  0.36103200  0.15692300  0.99458100  1
  O  O15  1  0.65024500  0.49249000  0.63845700  1
  O  O16  1  0.01909000  0.14403000  0.65170500  1
  O  O17  1  0.63035200  0.16756500  0.00730100  1
  O  O18  1  0.64925300  0.48094400  0.36174800  1
  O  O19  1  0.01956500  0.87124400  0.33797800  1
  O  O20  1  0.62863000  0.82962200  0.99315600  1
  O  O21  1  0.34931000  0.48012000  0.63685800  1
  O  O22  1  0.00475200  0.87199500  0.66275200  1
  O  O23  1  0.35778200  0.84361600  0.00493600  1
loop_
_geom_bond_atom_site_label_1
_geom_bond_atom_site_label_2
_geom_bond_distance
_geom_bond_site_symmetry_2
Mg0 O17 1.893961 1_566
Mg0 O20 1.903579 1_555
Mg0 O10 1.924342 1_566
Mg0 O7 1.925520 1_565
Mg1 O5 1.893961 1_655
Mg1 O8 1.903579 1_555
Mg1 O22 1.924342 1_655
Mg1 O19 1.925520 1_655
Al0 O12 1.739176 1_555
Al0 O9 1.740006 1_555
Al0 O3 1.754558 1_555
Al0 O18 1.755145 1_555
Al1 O2 1.744637 1_555
Al1 O13 1.749945 1_555
Al1 O16 1.750584 1_555
Al1 O11 1.754965 1_455
Al2 O0 1.739176 1_555
Al2 O21 1.740006 1_555
Al2 O15 1.754558 1_555
Al2 O6 1.755145 1_555
Al3 O14 1.744637 1_555
Al3 O1 1.749945 1_555
Al3 O4 1.750584 1_556
Al3 O23 1.754965 1_546
O0 P3 1.536125 1_556
O1 P4 1.539924 1_555
O2 P5 1.543526 1_555
O3 P1 1.548361 1_554
O4 P2 1.540448 1_555
O5 P5 1.509102 1_555
O6 P1 1.548518 1_555
O7 P4 1.525601 1_655
O8 P0 1.513064 1_555
O9 P3 1.536417 1_555
O10 P2 1.524784 1_655
O11 P0 1.551732 1_555
O12 P5 1.536125 1_555
O13 P2 1.539924 1_555
O14 P3 1.543526 1_556
O15 P0 1.548361 1_555
O16 P4 1.540448 1_555
O17 P3 1.509102 1_555
O18 P0 1.548518 1_555
O19 P2 1.525601 1_565
O20 P1 1.513064 1_555
O21 P5 1.536417 1_555
O22 P4 1.524784 1_565
O23 P1 1.551732 1_554
