# generated using pymatgen
data_Pr23Mg4Ru7
_symmetry_space_group_name_H-M   'P 1'
_cell_length_a   10.12915686
_cell_length_b   10.12915686
_cell_length_c   22.80154052
_cell_angle_alpha   90.00000000
_cell_angle_beta   90.00000000
_cell_angle_gamma   119.99774165
_symmetry_Int_Tables_number   1
_chemical_formula_structural   Pr23Mg4Ru7
_chemical_formula_sum   'Pr46 Mg8 Ru14'
_cell_volume   2026.05531326
_cell_formula_units_Z   2
loop_
 _symmetry_equiv_pos_site_id
 _symmetry_equiv_pos_as_xyz
  1  'x, y, z'
loop_
 _atom_site_type_symbol
 _atom_site_label
 _atom_site_symmetry_multiplicity
 _atom_site_fract_x
 _atom_site_fract_y
 _atom_site_fract_z
 _atom_site_occupancy
  Pr  Pr0  1  0.12707350  0.87292650  0.36420049  1
  Pr  Pr1  1  0.74582634  0.87288032  0.36419137  1
  Pr  Pr2  1  0.12711968  0.25417366  0.36419137  1
  Pr  Pr3  1  0.87292650  0.12707350  0.86420049  1
  Pr  Pr4  1  0.25417366  0.12711968  0.86419137  1
  Pr  Pr5  1  0.87288032  0.74582634  0.86419137  1
  Pr  Pr6  1  0.20788753  0.79211247  0.21809860  1
  Pr  Pr7  1  0.58419745  0.79208081  0.21810200  1
  Pr  Pr8  1  0.20791919  0.41580255  0.21810200  1
  Pr  Pr9  1  0.79211247  0.20788753  0.71809860  1
  Pr  Pr10  1  0.41580255  0.20791919  0.71810200  1
  Pr  Pr11  1  0.79208081  0.58419745  0.71810200  1
  Pr  Pr12  1  0.20778679  0.79221321  0.05065561  1
  Pr  Pr13  1  0.58443332  0.79221112  0.05063512  1
  Pr  Pr14  1  0.20778888  0.41556668  0.05063512  1
  Pr  Pr15  1  0.79221321  0.20778679  0.55065561  1
  Pr  Pr16  1  0.41556668  0.20778888  0.55063512  1
  Pr  Pr17  1  0.79221112  0.58443332  0.55063512  1
  Pr  Pr18  1  0.20864585  0.79135415  0.50729129  1
  Pr  Pr19  1  0.58271014  0.79135658  0.50729091  1
  Pr  Pr20  1  0.20864342  0.41728986  0.50729091  1
  Pr  Pr21  1  0.79135415  0.20864585  0.00729129  1
  Pr  Pr22  1  0.41728986  0.20864342  0.00729091  1
  Pr  Pr23  1  0.79135658  0.58271014  0.00729091  1
  Pr  Pr24  1  0.54134910  0.45865090  0.41436666  1
  Pr  Pr25  1  0.91728781  0.45867912  0.41437673  1
  Pr  Pr26  1  0.54132088  0.08271219  0.41437673  1
  Pr  Pr27  1  0.45865090  0.54134910  0.91436666  1
  Pr  Pr28  1  0.08271219  0.54132088  0.91437673  1
  Pr  Pr29  1  0.45867912  0.91728781  0.91437673  1
  Pr  Pr30  1  0.54056257  0.45943743  0.14347847  1
  Pr  Pr31  1  0.91888669  0.45945034  0.14347819  1
  Pr  Pr32  1  0.54054966  0.08111331  0.14347819  1
  Pr  Pr33  1  0.45943743  0.54056257  0.64347847  1
  Pr  Pr34  1  0.08111331  0.54054966  0.64347819  1
  Pr  Pr35  1  0.45945034  0.91888669  0.64347819  1
  Pr  Pr36  1  0.33343508  0.66656492  0.35409573  1
  Pr  Pr37  1  0.66656492  0.33343508  0.85409573  1
  Pr  Pr38  1  0.00001813  0.99998187  0.49681681  1
  Pr  Pr39  1  0.99998187  0.00001813  0.99681681  1
  Pr  Pr40  1  0.79146771  0.20853229  0.28058664  1
  Pr  Pr41  1  0.41706723  0.20855795  0.28058630  1
  Pr  Pr42  1  0.79144205  0.58293277  0.28058630  1
  Pr  Pr43  1  0.20853229  0.79146771  0.78058664  1
  Pr  Pr44  1  0.58293277  0.79144205  0.78058630  1
  Pr  Pr45  1  0.20855795  0.41706723  0.78058630  1
  Mg  Mg0  1  0.89517403  0.10482597  0.13607415  1
  Mg  Mg1  1  0.20965286  0.10482624  0.13607240  1
  Mg  Mg2  1  0.89517376  0.79034714  0.13607240  1
  Mg  Mg3  1  0.10482597  0.89517403  0.63607415  1
  Mg  Mg4  1  0.79034714  0.89517376  0.63607240  1
  Mg  Mg5  1  0.10482624  0.20965286  0.63607240  1
  Mg  Mg6  1  0.00000024  -0.00000024  0.24795100  1
  Mg  Mg7  1  -0.00000024  0.00000024  0.74795100  1
  Ru  Ru0  1  0.48261326  0.51738674  0.28970416  1
  Ru  Ru1  1  0.03476906  0.51737879  0.28970238  1
  Ru  Ru2  1  0.48262121  0.96523094  0.28970238  1
  Ru  Ru3  1  0.51738674  0.48261326  0.78970416  1
  Ru  Ru4  1  0.96523094  0.48262121  0.78970238  1
  Ru  Ru5  1  0.51737879  0.03476906  0.78970238  1
  Ru  Ru6  1  0.85298150  0.14701850  0.43759448  1
  Ru  Ru7  1  0.29403972  0.14701435  0.43758983  1
  Ru  Ru8  1  0.85298565  0.70596028  0.43758983  1
  Ru  Ru9  1  0.14701850  0.85298150  0.93759448  1
  Ru  Ru10  1  0.70596028  0.85298565  0.93758983  1
  Ru  Ru11  1  0.14701435  0.29403972  0.93758983  1
  Ru  Ru12  1  0.33331701  0.66668299  0.13129545  1
  Ru  Ru13  1  0.66668299  0.33331701  0.63129545  1
loop_
_geom_bond_atom_site_label_1
_geom_bond_atom_site_label_2
_geom_bond_distance
_geom_bond_site_symmetry_2
Pr0 Ru8 2.945031 1_455
Pr0 Ru7 2.945031 1_565
Pr0 Ru1 3.655511 1_555
Pr0 Ru2 3.655511 1_555
Pr1 Ru8 2.944969 1_555
Pr1 Ru6 2.945542 1_565
Pr1 Ru0 3.655041 1_555
Pr1 Ru2 3.655319 1_555
Pr2 Ru7 2.944969 1_555
Pr2 Ru6 2.945542 1_455
Pr2 Ru0 3.655041 1_555
Pr2 Ru1 3.655319 1_555
Pr3 Ru10 2.945031 1_545
Pr3 Ru11 2.945031 1_655
Pr3 Ru5 3.655511 1_555
Pr3 Ru4 3.655511 1_555
Pr4 Ru11 2.944969 1_555
Pr4 Ru9 2.945542 1_545
Pr4 Ru3 3.655041 1_555
Pr4 Ru5 3.655319 1_555
Pr5 Ru10 2.944969 1_555
Pr5 Ru9 2.945542 1_655
Pr5 Ru3 3.655041 1_555
Pr5 Ru4 3.655319 1_555
Pr6 Ru2 2.933458 1_555
Pr6 Ru1 2.933458 1_555
Pr6 Ru12 2.959692 1_555
Pr7 Ru0 2.933142 1_555
Pr7 Ru2 2.933328 1_555
Pr7 Ru12 2.959939 1_555
Pr8 Ru0 2.933142 1_555
Pr8 Ru1 2.933328 1_555
Pr8 Ru12 2.959939 1_555
Pr9 Ru4 2.933458 1_555
Pr9 Ru5 2.933458 1_555
Pr9 Ru13 2.959692 1_555
Pr10 Ru3 2.933142 1_555
Pr10 Ru5 2.933328 1_555
Pr10 Ru13 2.959939 1_555
Pr11 Ru3 2.933142 1_555
Pr11 Ru4 2.933328 1_555
Pr11 Ru13 2.959939 1_555
Pr12 Ru9 2.789719 1_554
Pr12 Ru12 2.868973 1_555
Pr13 Ru10 2.789367 1_554
Pr13 Ru12 2.869707 1_555
Pr14 Ru11 2.789367 1_554
Pr14 Ru12 2.869707 1_555
Pr15 Ru6 2.789719 1_555
Pr15 Ru13 2.868973 1_555
Pr16 Ru7 2.789367 1_555
Pr16 Ru13 2.869707 1_555
Pr17 Ru8 2.789367 1_555
Pr17 Ru13 2.869707 1_555
Pr18 Ru8 3.624425 1_455
Pr18 Ru7 3.624425 1_565
Pr19 Ru6 3.624462 1_565
Pr19 Ru8 3.624466 1_555
Pr20 Ru6 3.624462 1_455
Pr20 Ru7 3.624466 1_555
Pr21 Ru10 3.624425 1_544
Pr21 Ru11 3.624425 1_654
Pr22 Ru9 3.624462 1_544
Pr22 Ru11 3.624466 1_554
Pr23 Ru9 3.624462 1_654
Pr23 Ru10 3.624466 1_554
Pr24 Ru7 2.934779 1_555
Pr24 Ru8 2.934779 1_555
Pr24 Ru0 3.023515 1_555
Pr25 Ru8 2.934186 1_555
Pr25 Ru6 2.934990 1_555
Pr25 Ru1 3.023810 1_655
Pr26 Ru7 2.934186 1_555
Pr26 Ru6 2.934990 1_555
Pr26 Ru2 3.023810 1_545
Pr27 Ru11 2.934779 1_555
Pr27 Ru10 2.934779 1_555
Pr27 Ru3 3.023515 1_555
Pr28 Ru11 2.934186 1_555
Pr28 Ru9 2.934990 1_555
Pr28 Ru4 3.023810 1_455
Pr29 Ru10 2.934186 1_555
Pr29 Ru9 2.934990 1_555
Pr29 Ru5 3.023810 1_565
Pr30 Ru0 3.485728 1_555
Pr30 Ru12 3.646516 1_555
Pr31 Ru1 3.485664 1_655
Pr31 Ru12 3.646107 1_655
Pr32 Ru2 3.485664 1_545
Pr32 Ru12 3.646107 1_545
Pr33 Ru3 3.485728 1_555
Pr33 Ru13 3.646516 1_555
Pr34 Ru4 3.485664 1_455
Pr34 Ru13 3.646107 1_455
Pr35 Ru5 3.485664 1_565
Pr35 Ru13 3.646107 1_565
Pr36 Ru0 3.000890 1_555
Pr36 Ru2 3.003358 1_555
Pr36 Ru1 3.003358 1_555
Pr37 Ru3 3.000890 1_555
Pr37 Ru5 3.003358 1_555
Pr37 Ru4 3.003358 1_555
Pr38 Ru8 2.911405 1_455
Pr38 Ru7 2.911405 1_565
Pr38 Ru6 2.911679 1_465
Pr39 Ru11 2.911405 1_655
Pr39 Ru10 2.911405 1_545
Pr39 Ru9 2.911679 1_645
Pr40 Ru1 2.862543 1_655
Pr40 Ru2 2.862543 1_545
Pr41 Ru0 2.862301 1_555
Pr41 Ru2 2.862745 1_545
Pr42 Ru0 2.862301 1_555
Pr42 Ru1 2.862745 1_655
Pr43 Ru5 2.862543 1_565
Pr43 Ru4 2.862543 1_455
Pr44 Ru3 2.862301 1_555
Pr44 Ru5 2.862745 1_565
Pr45 Ru3 2.862301 1_555
Pr45 Ru4 2.862745 1_455
Mg0 Mg6 3.144775 1_655
Mg0 Mg2 3.185404 1_545
Mg0 Mg1 3.185404 1_655
Mg0 Pr21 3.455472 1_555
Mg0 Pr32 3.482280 1_555
Mg0 Pr31 3.482280 1_555
Mg0 Pr39 3.669253 1_554
Mg0 Pr8 3.671205 1_655
Mg0 Pr7 3.671205 1_545
Mg0 Pr14 3.709860 1_655
Mg0 Pr13 3.709860 1_545
Mg0 Pr40 3.764046 1_555
Mg1 Mg6 3.144845 1_555
Mg1 Mg2 3.185517 1_445
Mg1 Pr22 3.455465 1_555
Mg1 Pr32 3.482116 1_555
Mg1 Pr30 3.482309 1_555
Mg1 Pr39 3.669493 1_454
Mg1 Pr6 3.670834 1_545
Mg1 Pr8 3.670976 1_555
Mg1 Pr12 3.709522 1_545
Mg1 Pr14 3.709701 1_555
Mg1 Pr41 3.764111 1_555
Mg2 Mg6 3.144845 1_665
Mg2 Pr23 3.455465 1_555
Mg2 Pr31 3.482116 1_555
Mg2 Pr30 3.482309 1_555
Mg2 Pr39 3.669493 1_564
Mg2 Pr6 3.670834 1_655
Mg2 Pr7 3.670976 1_555
Mg2 Pr12 3.709522 1_655
Mg2 Pr13 3.709701 1_555
Mg2 Pr42 3.764111 1_555
Mg3 Mg7 3.144775 1_565
Mg3 Mg4 3.185404 1_455
Mg3 Mg5 3.185404 1_565
Mg3 Pr18 3.455472 1_555
Mg3 Pr34 3.482280 1_555
Mg3 Pr35 3.482280 1_555
Mg3 Pr38 3.669253 1_555
Mg3 Pr10 3.671205 1_565
Mg3 Pr11 3.671205 1_455
Mg3 Pr17 3.709860 1_455
Mg3 Pr16 3.709860 1_565
Mg3 Pr43 3.764046 1_555
Mg4 Mg7 3.144845 1_665
Mg4 Mg5 3.185517 1_665
Mg4 Pr19 3.455465 1_555
Mg4 Pr35 3.482116 1_555
Mg4 Pr33 3.482309 1_555
Mg4 Pr38 3.669493 1_655
Mg4 Pr9 3.670834 1_565
Mg4 Pr11 3.670976 1_555
Mg4 Pr15 3.709522 1_565
Mg4 Pr17 3.709701 1_555
Mg4 Pr44 3.764111 1_555
Mg5 Mg7 3.144845 1_555
Mg5 Pr20 3.455465 1_555
Mg5 Pr34 3.482116 1_555
Mg5 Pr33 3.482309 1_555
Mg5 Pr38 3.669493 1_545
Mg5 Pr9 3.670834 1_455
Mg5 Pr10 3.670976 1_555
Mg5 Pr15 3.709522 1_455
Mg5 Pr16 3.709701 1_555
Mg5 Pr45 3.764111 1_555
Mg6 Pr0 3.463546 1_545
Mg6 Pr1 3.463591 1_445
Mg6 Pr2 3.463591 1_555
Mg6 Pr6 3.710152 1_545
Mg6 Pr8 3.710504 1_555
Mg6 Pr7 3.710504 1_445
Mg6 Pr40 3.733411 1_455
Mg6 Pr42 3.733548 1_445
Mg6 Pr41 3.733548 1_555
Mg7 Pr3 3.463546 1_455
Mg7 Pr5 3.463591 1_445
Mg7 Pr4 3.463591 1_555
Mg7 Pr9 3.710152 1_455
Mg7 Pr10 3.710504 1_555
Mg7 Pr11 3.710504 1_445
Mg7 Pr43 3.733411 1_545
Mg7 Pr45 3.733548 1_555
Mg7 Pr44 3.733548 1_445
