# generated using pymatgen
data_LaMnO3
_symmetry_space_group_name_H-M   'P 1'
_cell_length_a   5.55081100
_cell_length_b   5.71415600
_cell_length_c   7.88248100
_cell_angle_alpha   90.00002457
_cell_angle_beta   89.99990478
_cell_angle_gamma   90.00283530
_symmetry_Int_Tables_number   1
_chemical_formula_structural   LaMnO3
_chemical_formula_sum   'La4 Mn4 O12'
_cell_volume   250.01810855
_cell_formula_units_Z   4
loop_
 _symmetry_equiv_pos_site_id
 _symmetry_equiv_pos_as_xyz
  1  'x, y, z'
loop_
 _atom_site_type_symbol
 _atom_site_label
 _atom_site_symmetry_multiplicity
 _atom_site_fract_x
 _atom_site_fract_y
 _atom_site_fract_z
 _atom_site_occupancy
  La  La0  1  0.49999900  0.00000200  0.25002000  1
  La  La1  1  0.50000000  0.00000200  0.74998000  1
  La  La2  1  0.99999800  0.49999700  0.24998100  1
  La  La3  1  0.99999900  0.49999800  0.75002000  1
  Mn  Mn0  1  0.50000500  0.50000600  0.49999800  1
  Mn  Mn1  1  0.99999900  0.99999700  0.50000300  1
  Mn  Mn2  1  0.50000300  0.49999800  0.99999900  1
  Mn  Mn3  1  0.00000300  0.99999800  0.00000000  1
  O  O0  1  0.49999900  0.49999900  0.25011000  1
  O  O1  1  0.49999900  0.50000000  0.74988800  1
  O  O2  1  0.00000100  0.00000000  0.25000000  1
  O  O3  1  0.00000000  0.00000000  0.74999700  1
  O  O4  1  0.70468200  0.82041600  0.00000000  1
  O  O5  1  0.70455100  0.82039900  0.49999900  1
  O  O6  1  0.79543900  0.32036300  0.00000100  1
  O  O7  1  0.79534200  0.32046100  0.50000000  1
  O  O8  1  0.29531400  0.17958200  0.00000100  1
  O  O9  1  0.29545100  0.17960400  0.49999900  1
  O  O10  1  0.20455700  0.67963400  0.00000200  1
  O  O11  1  0.20465900  0.67954300  0.50000000  1
loop_
_geom_bond_atom_site_label_1
_geom_bond_atom_site_label_2
_geom_bond_distance
_geom_bond_site_symmetry_2
La0 O9 2.495032 1_555
La0 O5 2.495048 1_545
La0 O8 2.495579 1_555
La0 O4 2.495591 1_545
La0 O2 2.775394 1_555
La0 O2 2.775417 1_655
La0 O0 2.857061 1_555
La0 O0 2.857095 1_545
La0 O11 3.150094 1_545
La0 O7 3.150105 1_555
La0 O6 3.150250 1_555
La0 O10 3.150277 1_545
La1 O9 2.495051 1_555
La1 O5 2.495055 1_545
La1 O8 2.495591 1_556
La1 O4 2.495592 1_546
La1 O3 2.775406 1_555
La1 O3 2.775406 1_655
La1 O1 2.857067 1_555
La1 O1 2.857090 1_545
La1 O11 3.150100 1_545
La1 O7 3.150100 1_555
La1 O6 3.150259 1_556
La1 O10 3.150297 1_546
La2 O10 2.495097 1_655
La2 O6 2.495098 1_555
La2 O7 2.495353 1_555
La2 O11 2.495392 1_655
La2 O0 2.775400 1_555
La2 O0 2.775411 1_655
La2 O2 2.857061 1_655
La2 O2 2.857095 1_665
La2 O8 3.149972 1_655
La2 O4 3.149995 1_555
La2 O9 3.150487 1_655
La2 O5 3.150495 1_555
La3 O6 2.495107 1_556
La3 O10 2.495113 1_656
La3 O7 2.495367 1_555
La3 O11 2.495391 1_655
La3 O1 2.775406 1_655
La3 O1 2.775406 1_555
La3 O3 2.857067 1_655
La3 O3 2.857089 1_665
La3 O8 3.149982 1_656
La3 O4 3.149985 1_556
La3 O9 3.150497 1_655
La3 O5 3.150514 1_555
Mn0 O7 1.933969 1_555
Mn0 O11 1.933987 1_555
Mn0 O0 1.969737 1_555
Mn0 O1 1.969753 1_555
Mn0 O5 2.154219 1_555
Mn0 O9 2.154286 1_555
Mn1 O5 1.934566 1_555
Mn1 O9 1.934612 1_665
Mn1 O3 1.970573 1_665
Mn1 O2 1.970644 1_665
Mn1 O11 2.154944 1_655
Mn1 O7 2.154984 1_565
Mn2 O6 1.934708 1_556
Mn2 O10 1.934758 1_556
Mn2 O0 1.971495 1_556
Mn2 O1 1.971495 1_555
Mn2 O4 2.154729 1_556
Mn2 O8 2.154749 1_556
Mn3 O8 1.933879 1_565
Mn3 O4 1.933920 1_455
Mn3 O2 1.970620 1_565
Mn3 O3 1.970644 1_564
Mn3 O10 2.154197 1_555
Mn3 O6 2.154231 1_465
