# generated using pymatgen
data_SrAl2(SiO4)2
_symmetry_space_group_name_H-M   'P 1'
_cell_length_a   5.24009578
_cell_length_b   5.24009300
_cell_length_c   15.42902700
_cell_angle_alpha   89.99995956
_cell_angle_beta   90.00000036
_cell_angle_gamma   59.99998768
_symmetry_Int_Tables_number   1
_chemical_formula_structural   SrAl2(SiO4)2
_chemical_formula_sum   'Sr2 Al4 Si4 O16'
_cell_volume   366.89968324
_cell_formula_units_Z   2
loop_
 _symmetry_equiv_pos_site_id
 _symmetry_equiv_pos_as_xyz
  1  'x, y, z'
loop_
 _atom_site_type_symbol
 _atom_site_label
 _atom_site_symmetry_multiplicity
 _atom_site_fract_x
 _atom_site_fract_y
 _atom_site_fract_z
 _atom_site_occupancy
  Sr  Sr0  1  0.00000000  0.00000000  0.50000000  1
  Sr  Sr1  1  0.00000000  0.00000000  0.00000000  1
  Al  Al0  1  0.66666500  0.66666700  0.64577900  1
  Al  Al1  1  0.33333500  0.33333300  0.35422100  1
  Al  Al2  1  0.66666800  0.66666700  0.14577900  1
  Al  Al3  1  0.33333200  0.33333300  0.85422100  1
  Si  Si0  1  0.33333200  0.33333300  0.63936200  1
  Si  Si1  1  0.66666800  0.66666700  0.36063800  1
  Si  Si2  1  0.33333500  0.33333300  0.13936200  1
  Si  Si3  1  0.66666500  0.66666700  0.86063800  1
  O  O0  1  0.66666200  0.66666800  0.75687500  1
  O  O1  1  0.33333100  0.33333200  0.74312500  1
  O  O2  1  0.33333800  0.33333200  0.24312500  1
  O  O3  1  0.66666900  0.66666800  0.25687500  1
  O  O4  1  0.39865600  0.01154800  0.60102800  1
  O  O5  1  0.01154700  0.58979400  0.60102800  1
  O  O6  1  0.58979300  0.39865700  0.60102800  1
  O  O7  1  0.60134400  0.98845200  0.39897200  1
  O  O8  1  0.98845300  0.41020600  0.39897200  1
  O  O9  1  0.41020700  0.60134300  0.39897200  1
  O  O10  1  0.58979600  0.01154800  0.10102800  1
  O  O11  1  0.01155000  0.39865700  0.10102800  1
  O  O12  1  0.39865900  0.58979400  0.10102800  1
  O  O13  1  0.41020400  0.98845200  0.89897200  1
  O  O14  1  0.98845000  0.60134300  0.89897200  1
  O  O15  1  0.60134100  0.41020600  0.89897200  1
loop_
_geom_bond_atom_site_label_1
_geom_bond_atom_site_label_2
_geom_bond_distance
_geom_bond_site_symmetry_2
Al0 O0 1.714103 1_555
Al0 O4 1.782422 1_565
Al0 O5 1.782427 1_655
Al0 O6 1.782428 1_555
Al1 O2 1.714103 1_555
Al1 O7 1.782422 1_545
Al1 O8 1.782427 1_455
Al1 O9 1.782428 1_555
Al2 O3 1.714103 1_555
Al2 O10 1.782422 1_565
Al2 O12 1.782427 1_555
Al2 O11 1.782428 1_655
Al3 O1 1.714103 1_555
Al3 O13 1.782422 1_545
Al3 O15 1.782427 1_555
Al3 O14 1.782428 1_455
O0 Si3 1.600962 1_555
O1 Si0 1.600962 1_555
O2 Si2 1.600962 1_555
O3 Si1 1.600962 1_555
O4 Si0 1.653185 1_555
O4 Sr0 2.631296 1_555
O5 Si0 1.653185 1_555
O5 Sr0 2.631305 1_565
O6 Si0 1.653185 1_555
O6 Sr0 2.631305 1_655
O7 Si1 1.653185 1_555
O7 Sr0 2.631296 1_665
O8 Si1 1.653185 1_555
O8 Sr0 2.631305 1_655
O9 Si1 1.653185 1_555
O9 Sr0 2.631305 1_565
O10 Si2 1.653185 1_555
O10 Sr1 2.631296 1_655
O11 Si2 1.653185 1_555
O11 Sr1 2.631305 1_555
O12 Si2 1.653185 1_555
O12 Sr1 2.631305 1_565
O13 Si3 1.653185 1_555
O13 Sr1 2.631296 1_566
O14 Si3 1.653185 1_555
O14 Sr1 2.631305 1_666
O15 Si3 1.653185 1_555
O15 Sr1 2.631305 1_656
