# generated using pymatgen
data_Yb4Si7
_symmetry_space_group_name_H-M   'P 1'
_cell_length_a   8.44153800
_cell_length_b   6.71728900
_cell_length_c   8.38800100
_cell_angle_alpha   81.22209957
_cell_angle_beta   90.00000000
_cell_angle_gamma   90.00000000
_symmetry_Int_Tables_number   1
_chemical_formula_structural   Yb4Si7
_chemical_formula_sum   'Yb8 Si14'
_cell_volume   470.06434286
_cell_formula_units_Z   2
loop_
 _symmetry_equiv_pos_site_id
 _symmetry_equiv_pos_as_xyz
  1  'x, y, z'
loop_
 _atom_site_type_symbol
 _atom_site_label
 _atom_site_symmetry_multiplicity
 _atom_site_fract_x
 _atom_site_fract_y
 _atom_site_fract_z
 _atom_site_occupancy
  Yb  Yb0  1  0.00076900  0.13009900  0.31098700  1
  Yb  Yb1  1  0.00105300  0.29953900  0.84014000  1
  Yb  Yb2  1  0.99894700  0.70046100  0.15986000  1
  Yb  Yb3  1  0.99923100  0.86990100  0.68901300  1
  Yb  Yb4  1  0.49923100  0.13009900  0.31098700  1
  Yb  Yb5  1  0.49894700  0.29953900  0.84014000  1
  Yb  Yb6  1  0.50105300  0.70046100  0.15986000  1
  Yb  Yb7  1  0.50076900  0.86990100  0.68901300  1
  Si  Si0  1  0.75000000  0.54515900  0.65049600  1
  Si  Si1  1  0.25000000  0.20715100  0.58204200  1
  Si  Si2  1  0.25000000  0.45484100  0.34950400  1
  Si  Si3  1  0.75000000  0.34699000  0.08848600  1
  Si  Si4  1  0.25000000  0.35242700  0.09413900  1
  Si  Si5  1  0.75000000  0.64757300  0.90586100  1
  Si  Si6  1  0.25000000  0.65301000  0.91151400  1
  Si  Si7  1  0.75000000  0.79284900  0.41795800  1
  Si  Si8  1  0.25000000  0.54914500  0.65585200  1
  Si  Si9  1  0.75000000  0.45085500  0.34414800  1
  Si  Si10  1  0.75000000  0.20481600  0.57851400  1
  Si  Si11  1  0.75000000  0.99399700  0.99143600  1
  Si  Si12  1  0.25000000  0.00600300  0.00856400  1
  Si  Si13  1  0.25000000  0.79518400  0.42148600  1
loop_
_geom_bond_atom_site_label_1
_geom_bond_atom_site_label_2
_geom_bond_distance
_geom_bond_site_symmetry_2
Yb0 Yb2 3.324573 1_445
Yb1 Yb3 3.324573 1_445
Yb4 Yb6 3.324573 1_545
Yb5 Yb7 3.324573 1_545
Si0 Si5 2.347592 1_555
Si0 Si7 2.362692 1_555
Si0 Si10 2.452037 1_555
Si0 Si9 2.738829 1_555
Si0 Yb1 2.990466 1_655
Si0 Yb5 2.990466 1_555
Si0 Yb7 3.082903 1_555
Si0 Yb3 3.082903 1_555
Si1 Si2 2.362692 1_555
Si1 Si8 2.468778 1_555
Si1 Yb3 3.130165 1_445
Si1 Yb7 3.130165 1_545
Si1 Yb5 3.146171 1_555
Si1 Yb1 3.146171 1_555
Si1 Yb0 3.197299 1_555
Si1 Yb4 3.197299 1_555
Si2 Si4 2.347592 1_555
Si2 Si8 2.738829 1_555
Si2 Yb2 2.990466 1_455
Si2 Yb6 2.990466 1_555
Si2 Yb4 3.082903 1_555
Si2 Yb0 3.082903 1_555
Si3 Si5 2.340804 1_554
Si3 Si9 2.354204 1_555
Si3 Yb1 3.022414 1_654
Si3 Yb5 3.022414 1_554
Si3 Yb4 3.042549 1_555
Si3 Yb0 3.042549 1_655
Si3 Yb6 3.293354 1_555
Si3 Yb2 3.293354 1_555
Si4 Si6 2.340804 1_554
Si4 Yb4 3.022602 1_555
Si4 Yb0 3.022602 1_555
Si4 Yb1 3.051676 1_554
Si4 Yb5 3.051676 1_554
Si4 Yb6 3.264059 1_555
Si4 Yb2 3.264059 1_455
Si5 Yb3 3.022602 1_555
Si5 Yb7 3.022602 1_555
Si5 Yb6 3.051676 1_556
Si5 Yb2 3.051676 1_556
Si5 Yb1 3.264059 1_655
Si5 Yb5 3.264059 1_555
Si6 Si8 2.354204 1_555
Si6 Yb2 3.022414 1_456
Si6 Yb6 3.022414 1_556
Si6 Yb7 3.042549 1_555
Si6 Yb3 3.042549 1_455
Si6 Yb1 3.293354 1_555
Si6 Yb5 3.293354 1_555
Si7 Si9 2.468778 1_555
Si7 Yb4 3.130165 1_565
Si7 Yb0 3.130165 1_665
Si7 Yb6 3.146171 1_555
Si7 Yb2 3.146171 1_555
Si7 Yb3 3.197299 1_555
Si7 Yb7 3.197299 1_555
Si8 Yb1 2.970858 1_555
Si8 Yb5 2.970858 1_555
Si8 Yb3 3.063299 1_455
Si8 Yb7 3.063299 1_555
Si9 Yb2 2.970858 1_555
Si9 Yb6 2.970858 1_555
Si9 Yb4 3.063299 1_555
Si9 Yb0 3.063299 1_655
Si10 Si9 2.367373 1_555
Si10 Yb7 3.116131 1_545
Si10 Yb3 3.116131 1_545
Si10 Yb0 3.180003 1_655
Si10 Yb4 3.180003 1_555
Si10 Yb1 3.184064 1_655
Si10 Yb5 3.184064 1_555
Si11 Si5 2.537739 1_555
Si11 Si3 2.621869 1_566
Si11 Yb6 3.074051 1_556
Si11 Yb2 3.074051 1_556
Si11 Yb1 3.085336 1_665
Si11 Yb5 3.085336 1_565
Si11 Yb7 3.493079 1_555
Si11 Yb3 3.493079 1_555
Si11 Yb0 3.639976 1_666
Si11 Yb4 3.639976 1_566
Si12 Si4 2.537739 1_555
Si12 Si6 2.621869 1_544
Si12 Yb1 3.074051 1_554
Si12 Yb5 3.074051 1_554
Si12 Yb2 3.085336 1_445
Si12 Yb6 3.085336 1_545
Si12 Yb0 3.493079 1_555
Si12 Yb4 3.493079 1_555
Si12 Yb3 3.639976 1_444
Si12 Yb7 3.639976 1_544
Si13 Si8 2.367373 1_555
Si13 Si2 2.452037 1_555
Si13 Yb0 3.116131 1_565
Si13 Yb4 3.116131 1_565
Si13 Yb7 3.180003 1_555
Si13 Yb3 3.180003 1_455
Si13 Yb6 3.184064 1_555
Si13 Yb2 3.184064 1_455
