# generated using pymatgen
data_Yb(CuS)2
_symmetry_space_group_name_H-M   'P 1'
_cell_length_a   3.91234909
_cell_length_b   3.91234909
_cell_length_c   6.18630199
_cell_angle_alpha   90.00000000
_cell_angle_beta   90.00000000
_cell_angle_gamma   120.00000329
_symmetry_Int_Tables_number   1
_chemical_formula_structural   Yb(CuS)2
_chemical_formula_sum   'Yb1 Cu2 S2'
_cell_volume   82.00435761
_cell_formula_units_Z   1
loop_
 _symmetry_equiv_pos_site_id
 _symmetry_equiv_pos_as_xyz
  1  'x, y, z'
loop_
 _atom_site_type_symbol
 _atom_site_label
 _atom_site_symmetry_multiplicity
 _atom_site_fract_x
 _atom_site_fract_y
 _atom_site_fract_z
 _atom_site_occupancy
  Yb  Yb0  1  0.00000000  0.00000000  0.00000000  1
  Cu  Cu0  1  0.66666700  0.33333300  0.67253326  1
  Cu  Cu1  1  0.33333300  0.66666700  0.32746674  1
  S  S0  1  0.66666700  0.33333300  0.26316571  1
  S  S1  1  0.33333300  0.66666700  0.73683429  1
loop_
_geom_bond_atom_site_label_1
_geom_bond_atom_site_label_2
_geom_bond_distance
_geom_bond_site_symmetry_2
Cu0 S1 2.293552 1_655
Cu0 S1 2.293552 1_545
Cu0 S1 2.293559 1_555
Cu0 S0 2.532471 1_555
Cu0 Yb0 3.034147 1_656
Cu0 Yb0 3.034149 1_556
Cu0 Yb0 3.034149 1_666
Cu1 S0 2.293552 1_565
Cu1 S0 2.293552 1_455
Cu1 S0 2.293559 1_555
Cu1 S1 2.532471 1_555
Cu1 Yb0 3.034147 1_565
Cu1 Yb0 3.034149 1_555
Cu1 Yb0 3.034149 1_665
S0 Yb0 2.784350 1_655
S0 Yb0 2.784353 1_555
S0 Yb0 2.784353 1_665
S1 Yb0 2.784350 1_566
S1 Yb0 2.784353 1_556
S1 Yb0 2.784353 1_666
