# generated using pymatgen
data_KNd(NiO3)4
_symmetry_space_group_name_H-M   'P 1'
_cell_length_a   5.44814250
_cell_length_b   5.44814250
_cell_length_c   7.73655347
_cell_angle_alpha   90.00000000
_cell_angle_beta   90.00000000
_cell_angle_gamma   89.96593368
_symmetry_Int_Tables_number   1
_chemical_formula_structural   KNd(NiO3)4
_chemical_formula_sum   'K1 Nd1 Ni4 O12'
_cell_volume   229.63832532
_cell_formula_units_Z   1
loop_
 _symmetry_equiv_pos_site_id
 _symmetry_equiv_pos_as_xyz
  1  'x, y, z'
loop_
 _atom_site_type_symbol
 _atom_site_label
 _atom_site_symmetry_multiplicity
 _atom_site_fract_x
 _atom_site_fract_y
 _atom_site_fract_z
 _atom_site_occupancy
  K  K0  1  0.00649022  0.00649022  0.00000000  1
  Nd  Nd0  1  0.49304834  0.49304834  0.50000000  1
  Ni  Ni0  1  0.50078424  0.99782631  0.75330975  1
  Ni  Ni1  1  0.50078424  0.99782631  0.24669025  1
  Ni  Ni2  1  0.99782631  0.50078424  0.24669025  1
  Ni  Ni3  1  0.99782631  0.50078424  0.75330975  1
  O  O0  1  0.73608323  0.26341699  0.73047469  1
  O  O1  1  0.26341699  0.73608323  0.73047469  1
  O  O2  1  0.26341699  0.73608323  0.26952531  1
  O  O3  1  0.73608323  0.26341699  0.26952531  1
  O  O4  1  0.73101474  0.73101474  0.72385816  1
  O  O5  1  0.26496864  0.26496864  0.74237278  1
  O  O6  1  0.26496864  0.26496864  0.25762722  1
  O  O7  1  0.73101474  0.73101474  0.27614184  1
  O  O8  1  0.51389725  0.99263845  0.00000000  1
  O  O9  1  0.49111245  0.01632497  0.50000000  1
  O  O10  1  0.99263845  0.51389725  0.00000000  1
  O  O11  1  0.01632497  0.49111245  0.50000000  1
loop_
_geom_bond_atom_site_label_1
_geom_bond_atom_site_label_2
_geom_bond_distance
_geom_bond_site_symmetry_2
K0 O10 2.684822 1_445
K0 O8 2.684822 1_445
K0 O8 2.765411 1_545
K0 O10 2.765411 1_455
K0 O6 2.818014 1_555
K0 O5 2.818014 1_554
K0 O3 2.911241 1_455
K0 O0 2.911241 1_454
K0 O2 2.911241 1_545
K0 O1 2.911241 1_544
K0 O7 3.011943 1_445
K0 O4 3.011943 1_444
Nd0 O7 2.522526 1_555
Nd0 O4 2.522526 1_555
Nd0 O0 2.548681 1_555
Nd0 O2 2.548681 1_555
Nd0 O3 2.548681 1_555
Nd0 O1 2.548681 1_555
Nd0 O5 2.570236 1_555
Nd0 O6 2.570236 1_555
Nd0 O11 2.597285 1_555
Nd0 O9 2.597285 1_555
Nd0 O9 2.850899 1_565
Nd0 O11 2.850899 1_655
Ni0 O8 1.910077 1_556
Ni0 O4 1.932905 1_555
Ni0 O1 1.933730 1_555
Ni0 O0 1.941786 1_565
Ni0 O5 1.942630 1_565
Ni0 O9 1.963040 1_565
Ni1 O8 1.910077 1_555
Ni1 O7 1.932905 1_555
Ni1 O2 1.933730 1_555
Ni1 O3 1.941786 1_565
Ni1 O6 1.942630 1_565
Ni1 O9 1.963040 1_565
Ni2 O10 1.910077 1_555
Ni2 O7 1.932905 1_555
Ni2 O3 1.933730 1_555
Ni2 O2 1.941786 1_655
Ni2 O6 1.942630 1_655
Ni2 O11 1.963040 1_655
Ni3 O10 1.910077 1_556
Ni3 O4 1.932905 1_555
Ni3 O0 1.933730 1_555
Ni3 O1 1.941786 1_655
Ni3 O5 1.942630 1_655
Ni3 O11 1.963040 1_655
