# generated using pymatgen
data_Sr2ZnIn
_symmetry_space_group_name_H-M   'P 1'
_cell_length_a   5.62817322
_cell_length_b   5.62817322
_cell_length_c   5.62817322
_cell_angle_alpha   60.00000000
_cell_angle_beta   60.00000000
_cell_angle_gamma   60.00000000
_symmetry_Int_Tables_number   1
_chemical_formula_structural   Sr2ZnIn
_chemical_formula_sum   'Sr2 Zn1 In1'
_cell_volume   126.06292173
_cell_formula_units_Z   1
loop_
 _symmetry_equiv_pos_site_id
 _symmetry_equiv_pos_as_xyz
  1  'x, y, z'
loop_
 _atom_site_type_symbol
 _atom_site_label
 _atom_site_symmetry_multiplicity
 _atom_site_fract_x
 _atom_site_fract_y
 _atom_site_fract_z
 _atom_site_occupancy
  Sr  Sr0  1  0.25000000  0.25000000  0.25000000  1
  Sr  Sr1  1  0.75000000  0.75000000  0.75000000  1
  Zn  Zn0  1  0.00000000  -0.00000000  0.00000000  1
  In  In0  1  0.50000000  0.50000000  0.50000000  1
loop_
_geom_bond_atom_site_label_1
_geom_bond_atom_site_label_2
_geom_bond_distance
_geom_bond_site_symmetry_2
Sr0 Zn0 3.446538 1_565
Sr0 Zn0 3.446538 1_655
Sr0 Zn0 3.446538 1_555
Sr0 Zn0 3.446538 1_556
Sr1 Zn0 3.446538 1_656
Sr1 Zn0 3.446538 1_566
Sr1 Zn0 3.446538 1_665
Sr1 Zn0 3.446538 1_666
In0 Sr1 3.446538 1_455
In0 Sr0 3.446538 1_655
In0 Sr0 3.446538 1_565
In0 Sr1 3.446538 1_545
In0 Sr0 3.446538 1_555
In0 Sr0 3.446538 1_556
In0 Sr1 3.446538 1_554
In0 Sr1 3.446538 1_555
