# generated using pymatgen
data_MgCdTe
_symmetry_space_group_name_H-M   'P 1'
_cell_length_a   5.45793419
_cell_length_b   5.45793419
_cell_length_c   6.67921270
_cell_angle_alpha   68.37062787
_cell_angle_beta   68.37062787
_cell_angle_gamma   89.42386901
_symmetry_Int_Tables_number   1
_chemical_formula_structural   MgCdTe
_chemical_formula_sum   'Mg2 Cd2 Te2'
_cell_volume   170.10228133
_cell_formula_units_Z   2
loop_
 _symmetry_equiv_pos_site_id
 _symmetry_equiv_pos_as_xyz
  1  'x, y, z'
loop_
 _atom_site_type_symbol
 _atom_site_label
 _atom_site_symmetry_multiplicity
 _atom_site_fract_x
 _atom_site_fract_y
 _atom_site_fract_z
 _atom_site_occupancy
  Mg  Mg0  1  0.86156700  0.23459500  0.00281900  1
  Mg  Mg1  1  0.23459500  0.86156700  0.50281900  1
  Cd  Cd0  1  0.63046400  0.74570400  0.00539400  1
  Cd  Cd1  1  0.74570400  0.63046400  0.50539400  1
  Te  Te0  1  0.13667300  0.36758000  0.24178700  1
  Te  Te1  1  0.36758000  0.13667300  0.74178700  1
loop_
_geom_bond_atom_site_label_1
_geom_bond_atom_site_label_2
_geom_bond_distance
_geom_bond_site_symmetry_2
Mg0 Te0 2.823417 1_655
Mg0 Te1 2.839078 1_654
Mg1 Te1 2.823417 1_565
Mg1 Te0 2.839078 1_565
Cd0 Te0 2.930569 1_555
Cd0 Mg0 2.954515 1_565
Cd0 Te1 2.956886 1_564
Cd0 Mg0 3.053157 1_555
Cd1 Te1 2.930569 1_555
Cd1 Mg1 2.954515 1_655
Cd1 Te0 2.956886 1_655
Cd1 Mg1 3.053157 1_555
