# generated using pymatgen
data_Nb3Fe3N
_symmetry_space_group_name_H-M   'P 1'
_cell_length_a   7.98800994
_cell_length_b   7.98800994
_cell_length_c   7.98800994
_cell_angle_alpha   60.00000000
_cell_angle_beta   60.00000000
_cell_angle_gamma   60.00000000
_symmetry_Int_Tables_number   1
_chemical_formula_structural   Nb3Fe3N
_chemical_formula_sum   'Nb12 Fe12 N4'
_cell_volume   360.41328656
_cell_formula_units_Z   4
loop_
 _symmetry_equiv_pos_site_id
 _symmetry_equiv_pos_as_xyz
  1  'x, y, z'
loop_
 _atom_site_type_symbol
 _atom_site_label
 _atom_site_symmetry_multiplicity
 _atom_site_fract_x
 _atom_site_fract_y
 _atom_site_fract_z
 _atom_site_occupancy
  Nb  Nb0  1  0.80102400  0.80102400  0.19897600  1
  Nb  Nb1  1  0.19897600  0.19897600  0.80102400  1
  Nb  Nb2  1  0.80102400  0.19897600  0.80102400  1
  Nb  Nb3  1  0.19897600  0.80102400  0.19897600  1
  Nb  Nb4  1  0.19897600  0.80102400  0.80102400  1
  Nb  Nb5  1  0.80102400  0.19897600  0.19897600  1
  Nb  Nb6  1  0.44897600  0.44897600  0.05102400  1
  Nb  Nb7  1  0.05102400  0.05102400  0.44897600  1
  Nb  Nb8  1  0.44897600  0.05102400  0.44897600  1
  Nb  Nb9  1  0.05102400  0.44897600  0.05102400  1
  Nb  Nb10  1  0.05102400  0.44897600  0.44897600  1
  Nb  Nb11  1  0.44897600  0.05102400  0.05102400  1
  Fe  Fe0  1  0.12500000  0.62500000  0.62500000  1
  Fe  Fe1  1  0.62500000  0.12500000  0.62500000  1
  Fe  Fe2  1  0.62500000  0.62500000  0.12500000  1
  Fe  Fe3  1  0.62500000  0.62500000  0.62500000  1
  Fe  Fe4  1  0.72586500  0.42471200  0.42471200  1
  Fe  Fe5  1  0.42471200  0.72586500  0.42471200  1
  Fe  Fe6  1  0.42471200  0.42471200  0.72586500  1
  Fe  Fe7  1  0.42471200  0.42471200  0.42471200  1
  Fe  Fe8  1  0.52413500  0.82528800  0.82528800  1
  Fe  Fe9  1  0.82528800  0.52413500  0.82528800  1
  Fe  Fe10  1  0.82528800  0.82528800  0.52413500  1
  Fe  Fe11  1  0.82528800  0.82528800  0.82528800  1
  N  N0  1  0.62500000  0.12500000  0.12500000  1
  N  N1  1  0.12500000  0.62500000  0.12500000  1
  N  N2  1  0.12500000  0.12500000  0.62500000  1
  N  N3  1  0.12500000  0.12500000  0.12500000  1
loop_
_geom_bond_atom_site_label_1
_geom_bond_atom_site_label_2
_geom_bond_distance
_geom_bond_site_symmetry_2
Fe0 Fe7 2.397943 1_555
Fe0 Fe11 2.397943 1_455
Fe0 Fe10 2.397947 1_455
Fe0 Fe6 2.397947 1_555
Fe0 Fe5 2.397947 1_555
Fe0 Fe9 2.397947 1_455
Fe0 Nb4 2.818182 1_555
Fe0 Nb7 2.818182 1_565
Fe0 Nb9 2.818182 1_556
Fe0 Nb10 2.818182 1_555
Fe0 Nb1 2.818182 1_555
Fe0 Nb3 2.818182 1_555
Fe1 Fe11 2.397943 1_545
Fe1 Fe7 2.397943 1_555
Fe1 Fe8 2.397947 1_545
Fe1 Fe4 2.397947 1_555
Fe1 Fe6 2.397947 1_555
Fe1 Fe10 2.397947 1_545
Fe1 Nb7 2.818182 1_655
Fe1 Nb2 2.818182 1_555
Fe1 Nb11 2.818182 1_556
Fe1 Nb1 2.818182 1_555
Fe1 Nb5 2.818182 1_555
Fe1 Nb8 2.818182 1_555
Fe2 Fe7 2.397943 1_555
Fe2 Fe9 2.397947 1_554
Fe2 Fe4 2.397947 1_555
Fe2 Fe8 2.397947 1_554
Fe2 Fe5 2.397947 1_555
Fe2 Nb0 2.818182 1_555
Fe2 Nb11 2.818182 1_565
Fe2 Nb9 2.818182 1_655
Fe2 Nb6 2.818182 1_555
Fe2 Nb5 2.818182 1_555
Fe2 Nb3 2.818182 1_555
Fe3 Fe4 2.397940 1_555
Fe3 Fe6 2.397940 1_555
Fe3 Fe8 2.397940 1_555
Fe3 Fe5 2.397940 1_555
Fe3 Fe9 2.397940 1_555
Fe3 Nb6 2.818182 1_556
Fe3 Nb8 2.818182 1_565
Fe3 Nb0 2.818182 1_555
Fe3 Nb10 2.818182 1_655
Fe3 Nb4 2.818182 1_555
Fe3 Nb2 2.818182 1_555
Fe4 Fe7 2.405613 1_555
Fe4 Fe6 2.405613 1_555
Fe4 Fe5 2.405613 1_555
Fe4 Nb10 2.804621 1_655
Fe4 Nb9 2.804626 1_655
Fe4 Nb7 2.804626 1_655
Fe4 Nb0 2.819511 1_555
Fe4 Nb2 2.819511 1_555
Fe4 Nb5 2.819518 1_555
Fe5 Fe7 2.405613 1_555
Fe5 Fe6 2.405613 1_555
Fe5 Nb8 2.804621 1_565
Fe5 Nb11 2.804626 1_565
Fe5 Nb7 2.804626 1_565
Fe5 Nb0 2.819511 1_555
Fe5 Nb4 2.819511 1_555
Fe5 Nb3 2.819518 1_555
Fe6 Fe7 2.405613 1_555
Fe6 Nb6 2.804621 1_556
Fe6 Nb11 2.804626 1_556
Fe6 Nb9 2.804626 1_556
Fe6 Nb4 2.819511 1_555
Fe6 Nb2 2.819511 1_555
Fe6 Nb1 2.819518 1_555
Fe7 Nb10 2.804629 1_555
Fe7 Nb8 2.804629 1_555
Fe7 Nb6 2.804629 1_555
Fe7 Nb1 2.819514 1_555
Fe7 Nb5 2.819514 1_555
Fe7 Nb3 2.819514 1_555
Fe8 Fe9 2.405613 1_555
Fe8 Nb4 2.804621 1_555
Fe8 Nb1 2.804626 1_565
Fe8 Nb3 2.804626 1_556
Fe8 Nb6 2.819511 1_556
Fe8 Nb8 2.819511 1_565
Fe8 Nb11 2.819518 1_566
Fe9 Nb2 2.804621 1_555
Fe9 Nb1 2.804626 1_655
Fe9 Nb5 2.804626 1_556
Fe9 Nb6 2.819511 1_556
Fe9 Nb10 2.819511 1_655
Fe9 Nb9 2.819518 1_656
Fe10 Fe3 2.397940 1_555
Fe10 Fe11 2.405613 1_555
Fe10 Fe8 2.405613 1_555
Fe10 Fe9 2.405613 1_555
Fe10 Nb0 2.804621 1_555
Fe10 Nb3 2.804626 1_655
Fe10 Nb5 2.804626 1_565
Fe10 Nb10 2.819511 1_655
Fe10 Nb8 2.819511 1_565
Fe10 Nb7 2.819518 1_665
Fe11 Fe2 2.397943 1_556
Fe11 Fe8 2.405613 1_555
Fe11 Fe9 2.405613 1_555
Fe11 Nb4 2.804629 1_655
Fe11 Nb0 2.804629 1_556
Fe11 Nb2 2.804629 1_565
Fe11 Nb9 2.819514 1_656
Fe11 Nb11 2.819514 1_566
Fe11 Nb7 2.819514 1_665
N0 Nb5 2.164808 1_555
N0 Nb6 2.164808 1_555
N0 Nb0 2.164808 1_545
N0 Nb8 2.164808 1_555
N0 Nb2 2.164808 1_554
N0 Nb11 2.164808 1_555
N1 Nb10 2.164808 1_555
N1 Nb3 2.164808 1_555
N1 Nb9 2.164808 1_555
N1 Nb0 2.164808 1_455
N1 Nb6 2.164808 1_555
N1 Nb4 2.164808 1_554
N2 Nb1 2.164808 1_555
N2 Nb10 2.164808 1_555
N2 Nb4 2.164808 1_545
N2 Nb7 2.164808 1_555
N2 Nb2 2.164808 1_455
N2 Nb8 2.164808 1_555
N3 Nb9 2.164808 1_555
N3 Nb11 2.164808 1_555
N3 Nb3 2.164808 1_545
N3 Nb7 2.164808 1_555
N3 Nb5 2.164808 1_455
N3 Nb1 2.164808 1_554
