# generated using pymatgen
data_LaMgCrSbO6
_symmetry_space_group_name_H-M   'P 1'
_cell_length_a   5.69855300
_cell_length_b   5.48368600
_cell_length_c   9.64516987
_cell_angle_alpha   55.64249272
_cell_angle_beta   90.00000000
_cell_angle_gamma   90.00000000
_symmetry_Int_Tables_number   1
_chemical_formula_structural   LaMgCrSbO6
_chemical_formula_sum   'La2 Mg2 Cr2 Sb2 O12'
_cell_volume   248.81760597
_cell_formula_units_Z   2
loop_
 _symmetry_equiv_pos_site_id
 _symmetry_equiv_pos_as_xyz
  1  'x, y, z'
loop_
 _atom_site_type_symbol
 _atom_site_label
 _atom_site_symmetry_multiplicity
 _atom_site_fract_x
 _atom_site_fract_y
 _atom_site_fract_z
 _atom_site_occupancy
  La  La0  1  0.30214400  0.76245900  0.24937900  1
  La  La1  1  0.69785600  0.76245900  0.74937900  1
  Mg  Mg0  1  0.80339500  0.22506100  0.25286200  1
  Mg  Mg1  1  0.19660500  0.22506100  0.75286200  1
  Cr  Cr0  1  0.24403800  0.99938500  0.50109800  1
  Cr  Cr1  1  0.75596200  0.99938500  0.00109800  1
  Sb  Sb0  1  0.24509900  0.50121800  0.99852500  1
  Sb  Sb1  1  0.75490100  0.50121800  0.49852500  1
  O  O0  1  0.81724500  0.34630200  0.75102600  1
  O  O1  1  0.03711500  0.14754000  0.06086700  1
  O  O2  1  0.03444300  0.77832900  0.43416100  1
  O  O3  1  0.56720300  0.24622300  0.06635500  1
  O  O4  1  0.56080700  0.88323900  0.43810100  1
  O  O5  1  0.28434600  0.61024000  0.74762500  1
  O  O6  1  0.18275500  0.34630200  0.25102600  1
  O  O7  1  0.96288500  0.14754000  0.56086700  1
  O  O8  1  0.96555700  0.77832900  0.93416100  1
  O  O9  1  0.43279700  0.24622300  0.56635500  1
  O  O10  1  0.43919300  0.88323900  0.93810100  1
  O  O11  1  0.71565400  0.61024000  0.24762500  1
loop_
_geom_bond_atom_site_label_1
_geom_bond_atom_site_label_2
_geom_bond_distance
_geom_bond_site_symmetry_2
La0 O6 2.372776 1_555
La0 O2 2.384585 1_555
La0 O1 2.390055 1_565
La0 O11 2.503127 1_555
La0 O3 2.673836 1_565
La0 O4 2.699157 1_555
La0 O10 2.796093 1_554
La0 O9 2.854196 1_555
La1 O0 2.372776 1_555
La1 O8 2.384585 1_555
La1 O7 2.390055 1_565
La1 O5 2.503127 1_555
La1 O9 2.673836 1_565
La1 O10 2.699157 1_555
La1 O4 2.796093 1_555
La1 O3 2.854196 1_556
Mg0 O11 2.143249 1_555
Mg0 O3 2.196689 1_555
Mg0 O4 2.199247 1_545
Mg0 O6 2.258858 1_655
Mg0 O2 2.440788 1_645
Mg0 O1 2.504469 1_655
Mg1 O5 2.143249 1_555
Mg1 O9 2.196689 1_555
Mg1 O10 2.199247 1_545
Mg1 O0 2.258858 1_455
Mg1 O8 2.440788 1_445
Mg1 O7 2.504469 1_455
Cr0 O7 2.021869 1_465
Cr0 O2 2.048456 1_555
Cr0 O9 2.084946 1_565
Cr0 O6 2.092747 1_565
Cr0 O4 2.114269 1_555
Cr0 O5 2.129138 1_555
Cr1 O1 2.021869 1_665
Cr1 O8 2.048456 1_554
Cr1 O3 2.084946 1_565
Cr1 O0 2.092747 1_564
Cr1 O10 2.114269 1_554
Cr1 O11 2.129138 1_555
O0 Sb1 2.108063 1_555
O1 Sb0 2.052190 1_554
O2 Sb1 2.041412 1_455
O3 Sb0 2.172530 1_554
O4 Sb1 2.138577 1_555
O5 Sb0 2.151913 1_555
O6 Sb0 2.108063 1_554
O7 Sb1 2.052190 1_555
O8 Sb0 2.041412 1_655
O9 Sb1 2.172530 1_555
O10 Sb0 2.138577 1_555
O11 Sb1 2.151913 1_555
