# generated using pymatgen
data_CeSe2
_symmetry_space_group_name_H-M   'P 1'
_cell_length_a   8.68454673
_cell_length_b   18.99850107
_cell_length_c   36.80556334
_cell_angle_alpha   90.00000000
_cell_angle_beta   90.00000000
_cell_angle_gamma   90.00000000
_symmetry_Int_Tables_number   1
_chemical_formula_structural   CeSe2
_chemical_formula_sum   'Ce24 Se48'
_cell_volume   6072.67394282
_cell_formula_units_Z   24
loop_
 _symmetry_equiv_pos_site_id
 _symmetry_equiv_pos_as_xyz
  1  'x, y, z'
loop_
 _atom_site_type_symbol
 _atom_site_label
 _atom_site_symmetry_multiplicity
 _atom_site_fract_x
 _atom_site_fract_y
 _atom_site_fract_z
 _atom_site_occupancy
  Ce  Ce0  1  0.50000000  0.99314104  0.70660308  1
  Ce  Ce1  1  0.50000000  0.99314104  0.29339692  1
  Ce  Ce2  1  -0.00000000  0.00685896  0.20660308  1
  Ce  Ce3  1  -0.00000000  0.00685896  0.79339692  1
  Ce  Ce4  1  0.50000000  0.72966665  0.66923723  1
  Ce  Ce5  1  0.50000000  0.72966665  0.33076277  1
  Ce  Ce6  1  -0.00000000  0.27033335  0.16923723  1
  Ce  Ce7  1  -0.00000000  0.27033335  0.83076277  1
  Ce  Ce8  1  0.50000000  0.23941469  0.63426407  1
  Ce  Ce9  1  0.50000000  0.23941469  0.36573593  1
  Ce  Ce10  1  -0.00000000  0.76058531  0.13426407  1
  Ce  Ce11  1  -0.00000000  0.76058531  0.86573593  1
  Ce  Ce12  1  0.50000000  0.29231842  0.50000000  1
  Ce  Ce13  1  -0.00000000  0.70768158  -0.00000000  1
  Ce  Ce14  1  -0.00000000  0.46343894  0.50000000  1
  Ce  Ce15  1  0.50000000  0.53656106  -0.00000000  1
  Ce  Ce16  1  -0.00000000  0.36494417  0.69119969  1
  Ce  Ce17  1  -0.00000000  0.36494417  0.30880031  1
  Ce  Ce18  1  0.50000000  0.63505583  0.19119969  1
  Ce  Ce19  1  0.50000000  0.63505583  0.80880031  1
  Ce  Ce20  1  -0.00000000  0.60337403  0.62803637  1
  Ce  Ce21  1  -0.00000000  0.60337403  0.37196363  1
  Ce  Ce22  1  0.50000000  0.39662597  0.12803637  1
  Ce  Ce23  1  0.50000000  0.39662597  0.87196363  1
  Se  Se0  1  0.25000000  0.00000000  0.75000000  1
  Se  Se1  1  0.25000000  0.00000000  0.25000000  1
  Se  Se2  1  0.75000000  0.00000000  0.25000000  1
  Se  Se3  1  0.75000000  0.00000000  0.75000000  1
  Se  Se4  1  0.50000000  0.87253410  0.66669793  1
  Se  Se5  1  0.50000000  0.87253410  0.33330207  1
  Se  Se6  1  -0.00000000  0.12746590  0.16669793  1
  Se  Se7  1  -0.00000000  0.12746590  0.83330207  1
  Se  Se8  1  0.50000000  0.10950296  0.66429716  1
  Se  Se9  1  0.50000000  0.10950296  0.33570284  1
  Se  Se10  1  -0.00000000  0.89049704  0.16429716  1
  Se  Se11  1  -0.00000000  0.89049704  0.83570284  1
  Se  Se12  1  0.50000000  0.67571580  0.73789757  1
  Se  Se13  1  0.50000000  0.67571580  0.26210243  1
  Se  Se14  1  -0.00000000  0.32428420  0.23789757  1
  Se  Se15  1  -0.00000000  0.32428420  0.76210243  1
  Se  Se16  1  0.24991933  0.68934729  0.62999668  1
  Se  Se17  1  0.24991933  0.68934729  0.37000332  1
  Se  Se18  1  0.74991933  0.31065271  0.12999668  1
  Se  Se19  1  0.25008067  0.31065271  0.87000332  1
  Se  Se20  1  0.75008067  0.68934729  0.37000332  1
  Se  Se21  1  0.75008067  0.68934729  0.62999668  1
  Se  Se22  1  0.25008067  0.31065271  0.12999668  1
  Se  Se23  1  0.74991933  0.31065271  0.87000332  1
  Se  Se24  1  0.50000000  0.21313615  0.56153207  1
  Se  Se25  1  0.50000000  0.21313615  0.43846793  1
  Se  Se26  1  -0.00000000  0.78686385  0.06153207  1
  Se  Se27  1  -0.00000000  0.78686385  0.93846793  1
  Se  Se28  1  0.24822697  0.31523107  0.65434636  1
  Se  Se29  1  0.24822697  0.31523107  0.34565364  1
  Se  Se30  1  0.74822697  0.68476893  0.15434636  1
  Se  Se31  1  0.25177303  0.68476893  0.84565364  1
  Se  Se32  1  0.75177303  0.31523107  0.34565364  1
  Se  Se33  1  0.75177303  0.31523107  0.65434636  1
  Se  Se34  1  0.25177303  0.68476893  0.15434636  1
  Se  Se35  1  0.74822697  0.68476893  0.84565364  1
  Se  Se36  1  0.25088224  0.37816837  0.50000000  1
  Se  Se37  1  0.75088224  0.62183163  -0.00000000  1
  Se  Se38  1  0.24911776  0.62183163  -0.00000000  1
  Se  Se39  1  0.74911776  0.37816837  0.50000000  1
  Se  Se40  1  -0.00000000  0.54218358  0.56164797  1
  Se  Se41  1  -0.00000000  0.54218358  0.43835203  1
  Se  Se42  1  0.50000000  0.45781642  0.06164797  1
  Se  Se43  1  0.50000000  0.45781642  0.93835203  1
  Se  Se44  1  -0.00000000  0.50773718  0.68378136  1
  Se  Se45  1  -0.00000000  0.50773718  0.31621864  1
  Se  Se46  1  0.50000000  0.49226282  0.18378136  1
  Se  Se47  1  0.50000000  0.49226282  0.81621864  1
loop_
_geom_bond_atom_site_label_1
_geom_bond_atom_site_label_2
_geom_bond_distance
_geom_bond_site_symmetry_2
Ce0 Se3 2.698521 1_565
Ce0 Se0 2.698521 1_565
Ce0 Se8 2.704023 1_565
Ce0 Se4 2.721665 1_555
Ce1 Se2 2.698521 1_565
Ce1 Se1 2.698521 1_565
Ce1 Se9 2.704023 1_565
Ce1 Se5 2.721665 1_555
Ce2 Se2 2.698521 1_455
Ce2 Se1 2.698521 1_555
Ce2 Se10 2.704023 1_545
Ce2 Se6 2.721665 1_555
Ce3 Se3 2.698521 1_455
Ce3 Se0 2.698521 1_555
Ce3 Se11 2.704023 1_545
Ce3 Se7 2.721665 1_555
Ce4 Se4 2.715876 1_555
Ce4 Se16 2.718375 1_555
Ce4 Se21 2.718375 1_555
Ce4 Se12 2.727039 1_555
Ce5 Se5 2.715876 1_555
Ce5 Se20 2.718375 1_555
Ce5 Se17 2.718375 1_555
Ce5 Se13 2.727039 1_555
Ce6 Se6 2.715876 1_555
Ce6 Se18 2.718375 1_455
Ce6 Se22 2.718375 1_555
Ce6 Se14 2.727039 1_555
Ce7 Se7 2.715876 1_555
Ce7 Se19 2.718375 1_555
Ce7 Se23 2.718375 1_455
Ce7 Se15 2.727039 1_555
Ce8 Se8 2.704354 1_555
Ce8 Se28 2.720663 1_555
Ce8 Se33 2.720663 1_555
Ce8 Se24 2.723100 1_555
Ce9 Se9 2.704354 1_555
Ce9 Se29 2.720663 1_555
Ce9 Se32 2.720663 1_555
Ce9 Se25 2.723100 1_555
Ce10 Se10 2.704354 1_555
Ce10 Se30 2.720663 1_455
Ce10 Se34 2.720663 1_555
Ce10 Se26 2.723100 1_555
Ce11 Se11 2.704354 1_555
Ce11 Se35 2.720663 1_455
Ce11 Se31 2.720663 1_555
Ce11 Se27 2.723100 1_555
Ce12 Se39 2.709400 1_555
Ce12 Se36 2.709400 1_555
Ce12 Se25 2.718827 1_555
Ce12 Se24 2.718827 1_555
Ce13 Se38 2.709400 1_555
Ce13 Se37 2.709400 1_455
Ce13 Se27 2.718827 1_554
Ce13 Se26 2.718827 1_555
Ce14 Se36 2.715070 1_555
Ce14 Se39 2.715070 1_455
Ce14 Se40 2.717796 1_555
Ce14 Se41 2.717796 1_555
Ce15 Se38 2.715070 1_555
Ce15 Se37 2.715070 1_555
Ce15 Se42 2.717796 1_555
Ce15 Se43 2.717796 1_554
Ce16 Se33 2.716447 1_455
Ce16 Se28 2.716447 1_555
Ce16 Se15 2.721546 1_555
Ce16 Se44 2.726558 1_555
Ce17 Se32 2.716447 1_455
Ce17 Se29 2.716447 1_555
Ce17 Se14 2.721546 1_555
Ce17 Se45 2.726558 1_555
Ce18 Se34 2.716447 1_555
Ce18 Se30 2.716447 1_555
Ce18 Se13 2.721546 1_555
Ce18 Se46 2.726558 1_555
Ce19 Se31 2.716447 1_555
Ce19 Se35 2.716447 1_555
Ce19 Se12 2.721546 1_555
Ce19 Se47 2.726558 1_555
Ce20 Se40 2.705915 1_555
Ce20 Se16 2.717328 1_555
Ce20 Se21 2.717328 1_455
Ce20 Se44 2.740604 1_555
Ce21 Se41 2.705915 1_555
Ce21 Se20 2.717328 1_455
Ce21 Se17 2.717328 1_555
Ce21 Se45 2.740604 1_555
Ce22 Se42 2.705915 1_555
Ce22 Se22 2.717328 1_555
Ce22 Se18 2.717328 1_555
Ce22 Se46 2.740604 1_555
Ce23 Se43 2.705915 1_555
Ce23 Se19 2.717328 1_555
Ce23 Se23 2.717328 1_555
Ce23 Se47 2.740604 1_555
