# generated using pymatgen
data_H9C8NO9
_symmetry_space_group_name_H-M   'P 1'
_cell_length_a   14.62557172
_cell_length_b   14.62557172
_cell_length_c   13.96625423
_cell_angle_alpha   61.53765553
_cell_angle_beta   61.53765553
_cell_angle_gamma   24.31157458
_symmetry_Int_Tables_number   1
_chemical_formula_structural   H9C8NO9
_chemical_formula_sum   'H36 C32 N4 O36'
_cell_volume   1073.88321952
_cell_formula_units_Z   4
loop_
 _symmetry_equiv_pos_site_id
 _symmetry_equiv_pos_as_xyz
  1  'x, y, z'
loop_
 _atom_site_type_symbol
 _atom_site_label
 _atom_site_symmetry_multiplicity
 _atom_site_fract_x
 _atom_site_fract_y
 _atom_site_fract_z
 _atom_site_occupancy
  H  H0  1  0.32740000  0.85200200  0.88127600  1
  H  H1  1  0.14799800  0.67260000  0.61872400  1
  H  H2  1  0.67260000  0.14799800  0.11872400  1
  H  H3  1  0.85200200  0.32740000  0.38127600  1
  H  H4  1  0.00569300  0.38710600  0.88603000  1
  H  H5  1  0.61289400  0.99430700  0.61397000  1
  H  H6  1  0.99430700  0.61289400  0.11397000  1
  H  H7  1  0.38710600  0.00569300  0.38603000  1
  H  H8  1  0.67214400  0.26547600  0.88639100  1
  H  H9  1  0.73452400  0.32785600  0.61360900  1
  H  H10  1  0.32785600  0.73452400  0.11360900  1
  H  H11  1  0.26547600  0.67214400  0.38639100  1
  H  H12  1  0.11597900  0.58177800  0.88758100  1
  H  H13  1  0.41822200  0.88402100  0.61241900  1
  H  H14  1  0.88402100  0.41822200  0.11241900  1
  H  H15  1  0.58177800  0.11597900  0.38758100  1
  H  H16  1  0.12150900  0.46190600  0.90100500  1
  H  H17  1  0.53809400  0.87849100  0.59899500  1
  H  H18  1  0.87849100  0.53809400  0.09899500  1
  H  H19  1  0.46190600  0.12150900  0.40100500  1
  H  H20  1  0.77577100  0.39883000  0.79970000  1
  H  H21  1  0.60117000  0.22422900  0.70030000  1
  H  H22  1  0.22422900  0.60117000  0.20030000  1
  H  H23  1  0.39883000  0.77577100  0.29970000  1
  H  H24  1  0.98153900  0.30357500  0.75381000  1
  H  H25  1  0.69642500  0.01846100  0.74619000  1
  H  H26  1  0.01846100  0.69642500  0.24619000  1
  H  H27  1  0.30357500  0.98153900  0.25381000  1
  H  H28  1  0.95339700  0.26161300  0.68686500  1
  H  H29  1  0.73838700  0.04660300  0.81313500  1
  H  H30  1  0.04660300  0.73838700  0.31313500  1
  H  H31  1  0.26161300  0.95339700  0.18686500  1
  H  H32  1  0.75903300  0.52718700  0.68150700  1
  H  H33  1  0.47281300  0.24096700  0.81849300  1
  H  H34  1  0.24096700  0.47281300  0.31849300  1
  H  H35  1  0.52718700  0.75903300  0.18150700  1
  C  C0  1  0.61972900  0.73847400  0.88239300  1
  C  C1  1  0.26152600  0.38027100  0.61760700  1
  C  C2  1  0.38027100  0.26152600  0.11760700  1
  C  C3  1  0.73847400  0.61972900  0.38239300  1
  C  C4  1  0.37966500  0.93919700  0.88415500  1
  C  C5  1  0.06080300  0.62033500  0.61584500  1
  C  C6  1  0.62033500  0.06080300  0.11584500  1
  C  C7  1  0.93919700  0.37966500  0.38415500  1
  C  C8  1  0.33411600  0.07584900  0.88516100  1
  C  C9  1  0.92415100  0.66588400  0.61483900  1
  C  C10  1  0.66588400  0.92415100  0.11483900  1
  C  C11  1  0.07584900  0.33411600  0.38516100  1
  C  C12  1  0.57495400  0.88170900  0.87970200  1
  C  C13  1  0.11829100  0.42504600  0.62029800  1
  C  C14  1  0.42504600  0.11829100  0.12029800  1
  C  C15  1  0.88170900  0.57495400  0.37970200  1
  C  C16  1  0.34631300  0.57584500  0.89049300  1
  C  C17  1  0.42415500  0.65368700  0.60950700  1
  C  C18  1  0.65368700  0.42415500  0.10950700  1
  C  C19  1  0.57584500  0.34631300  0.39049300  1
  C  C20  1  0.10999500  0.76886900  0.89062900  1
  C  C21  1  0.23113100  0.89000500  0.60937100  1
  C  C22  1  0.89000500  0.23113100  0.10937100  1
  C  C23  1  0.76886900  0.10999500  0.39062900  1
  C  C24  1  0.06147900  0.91373900  0.88902300  1
  C  C25  1  0.08626100  0.93852100  0.61097700  1
  C  C26  1  0.93852100  0.08626100  0.11097700  1
  C  C27  1  0.91373900  0.06147900  0.38902300  1
  C  C28  1  0.30350400  0.71333400  0.88858400  1
  C  C29  1  0.28666600  0.69649600  0.61141600  1
  C  C30  1  0.69649600  0.28666600  0.11141600  1
  C  C31  1  0.71333400  0.30350400  0.38858400  1
  N  N0  1  0.86733900  0.37248300  0.73037600  1
  N  N1  1  0.62751700  0.13266100  0.76962400  1
  N  N2  1  0.13266100  0.62751700  0.26962400  1
  N  N3  1  0.37248300  0.86733900  0.23037600  1
  O  O0  1  0.79208600  0.53436700  0.88028600  1
  O  O1  1  0.46563300  0.20791400  0.61971400  1
  O  O2  1  0.20791400  0.46563300  0.11971400  1
  O  O3  1  0.53436700  0.79208600  0.38028600  1
  O  O4  1  0.24750900  0.99077300  0.88175700  1
  O  O5  1  0.00922700  0.75249100  0.61824300  1
  O  O6  1  0.75249100  0.00922700  0.11824300  1
  O  O7  1  0.99077300  0.24750900  0.38175700  1
  O  O8  1  0.15536700  0.28814400  0.88631100  1
  O  O9  1  0.71185600  0.84463300  0.61368900  1
  O  O10  1  0.84463300  0.71185600  0.11368900  1
  O  O11  1  0.28814400  0.15536700  0.38631100  1
  O  O12  1  0.69403900  0.84605000  0.87047600  1
  O  O13  1  0.15395000  0.30596100  0.62952400  1
  O  O14  1  0.30596100  0.15395000  0.12952400  1
  O  O15  1  0.84605000  0.69403900  0.37047600  1
  O  O16  1  0.52225000  0.36549300  0.88613700  1
  O  O17  1  0.63450700  0.47775000  0.61386300  1
  O  O18  1  0.47775000  0.63450700  0.11386300  1
  O  O19  1  0.36549300  0.52225000  0.38613700  1
  O  O20  1  0.99493800  0.80481000  0.88688700  1
  O  O21  1  0.19519000  0.00506200  0.61311300  1
  O  O22  1  0.00506200  0.19519000  0.11311300  1
  O  O23  1  0.80481000  0.99493800  0.38688700  1
  O  O24  1  0.42610900  0.67471800  0.88254200  1
  O  O25  1  0.32528200  0.57389100  0.61745800  1
  O  O26  1  0.57389100  0.32528200  0.11745800  1
  O  O27  1  0.67471800  0.42610900  0.38254200  1
  O  O28  1  0.88901700  0.12018000  0.88342500  1
  O  O29  1  0.87982000  0.11098300  0.61657500  1
  O  O30  1  0.11098300  0.87982000  0.11657500  1
  O  O31  1  0.12018000  0.88901700  0.38342500  1
  O  O32  1  0.21276400  0.44141100  0.88179100  1
  O  O33  1  0.55858900  0.78723600  0.61820900  1
  O  O34  1  0.78723600  0.55858900  0.11820900  1
  O  O35  1  0.44141100  0.21276400  0.38179100  1
loop_
_geom_bond_atom_site_label_1
_geom_bond_atom_site_label_2
_geom_bond_distance
_geom_bond_site_symmetry_2
H0 O4 1.080626 1_555
H0 O24 1.401971 1_555
H1 O5 1.080626 1_555
H1 O25 1.401971 1_555
H2 O6 1.080626 1_555
H2 O26 1.401971 1_555
H3 O7 1.080626 1_555
H3 O27 1.401971 1_555
H4 O8 1.055862 1_555
H4 O0 1.488490 1_455
H5 O9 1.055862 1_555
H5 O1 1.488490 1_565
H6 O10 1.055862 1_555
H6 O2 1.488490 1_655
H7 O11 1.055862 1_555
H7 O3 1.488490 1_545
H8 O16 1.050425 1_555
H8 O28 1.500587 1_555
H9 O17 1.050425 1_555
H9 O29 1.500587 1_555
H10 O18 1.050425 1_555
H10 O30 1.500587 1_555
H11 O19 1.050425 1_555
H11 O31 1.500587 1_555
H12 O32 0.988622 1_555
H13 O33 0.988622 1_555
H14 O34 0.988622 1_555
H15 O35 0.988622 1_555
H16 O32 0.974314 1_555
H17 O33 0.974314 1_555
H18 O34 0.974314 1_555
H19 O35 0.974314 1_555
H20 N0 1.028857 1_555
H21 N1 1.028857 1_555
H22 N2 1.028857 1_555
H23 N3 1.028857 1_555
H24 N0 1.025238 1_555
H25 N1 1.025238 1_555
H26 N2 1.025238 1_555
H27 N3 1.025238 1_555
H28 N0 1.035928 1_555
H29 N1 1.035928 1_555
H30 N2 1.035928 1_555
H31 N3 1.035928 1_555
H32 N0 1.058554 1_555
H33 N1 1.058554 1_555
H34 N2 1.058554 1_555
H35 N3 1.058554 1_555
C0 O0 1.250669 1_555
C1 O1 1.250669 1_555
C2 O2 1.250669 1_555
C3 O3 1.250669 1_555
C4 O4 1.298563 1_555
C5 O5 1.298563 1_555
C6 O6 1.298563 1_555
C7 O7 1.298563 1_555
C8 O8 1.299292 1_555
C9 O9 1.299292 1_555
C10 O10 1.299292 1_555
C11 O11 1.299292 1_555
C12 O12 1.231513 1_555
C13 O13 1.231513 1_555
C14 O14 1.231513 1_555
C15 O15 1.231513 1_555
C16 O16 1.300114 1_555
C17 O17 1.300114 1_555
C18 O18 1.300114 1_555
C19 O19 1.300114 1_555
C20 O20 1.247468 1_455
C21 O21 1.247468 1_565
C22 O22 1.247468 1_655
C23 O23 1.247468 1_545
C24 O28 1.251713 1_465
C25 O29 1.251713 1_465
C26 O30 1.251713 1_645
C27 O31 1.251713 1_645
C28 O24 1.263675 1_555
C29 O25 1.263675 1_555
C30 O26 1.263675 1_555
C31 O27 1.263675 1_555
