# generated using pymatgen
data_MgSn3(P2O7)2
_symmetry_space_group_name_H-M   'P 1'
_cell_length_a   7.89931300
_cell_length_b   8.06088800
_cell_length_c   10.20856389
_cell_angle_alpha   74.24281070
_cell_angle_beta   90.00000000
_cell_angle_gamma   90.00000000
_symmetry_Int_Tables_number   1
_chemical_formula_structural   MgSn3(P2O7)2
_chemical_formula_sum   'Mg2 Sn6 P8 O28'
_cell_volume   625.60761728
_cell_formula_units_Z   2
loop_
 _symmetry_equiv_pos_site_id
 _symmetry_equiv_pos_as_xyz
  1  'x, y, z'
loop_
 _atom_site_type_symbol
 _atom_site_label
 _atom_site_symmetry_multiplicity
 _atom_site_fract_x
 _atom_site_fract_y
 _atom_site_fract_z
 _atom_site_occupancy
  Mg  Mg0  1  0.00000000  0.50000000  0.00000000  1
  Mg  Mg1  1  0.50000000  0.50000000  0.50000000  1
  Sn  Sn0  1  0.14056600  0.80353000  0.51941700  1
  Sn  Sn1  1  0.64056600  0.19647000  0.98058300  1
  Sn  Sn2  1  0.85943400  0.19647000  0.48058300  1
  Sn  Sn3  1  0.35943400  0.80353000  0.01941700  1
  Sn  Sn4  1  0.00000000  0.00000000  0.00000000  1
  Sn  Sn5  1  0.50000000  0.00000000  0.50000000  1
  P  P0  1  0.94136300  0.44127900  0.70028100  1
  P  P1  1  0.44136300  0.55872100  0.79971900  1
  P  P2  1  0.05863700  0.55872100  0.29971900  1
  P  P3  1  0.55863700  0.44127900  0.20028100  1
  P  P4  1  0.20431300  0.18717500  0.67163800  1
  P  P5  1  0.70431300  0.81282500  0.82836200  1
  P  P6  1  0.79568700  0.81282500  0.32836200  1
  P  P7  1  0.29568700  0.18717500  0.17163800  1
  O  O0  1  0.37336900  0.23643800  0.59578900  1
  O  O1  1  0.87336900  0.76356200  0.90421100  1
  O  O2  1  0.62663100  0.76356200  0.40421100  1
  O  O3  1  0.12663100  0.23643800  0.09578900  1
  O  O4  1  0.43478200  0.60795900  0.64379300  1
  O  O5  1  0.93478200  0.39204100  0.85620700  1
  O  O6  1  0.56521800  0.39204100  0.35620700  1
  O  O7  1  0.06521800  0.60795900  0.14379300  1
  O  O8  1  0.80188100  0.35199100  0.63776100  1
  O  O9  1  0.30188100  0.64800900  0.86223900  1
  O  O10  1  0.19811900  0.64800900  0.36223900  1
  O  O11  1  0.69811900  0.35199100  0.13776100  1
  O  O12  1  0.12172500  0.37542900  0.65811600  1
  O  O13  1  0.62172500  0.62457100  0.84188400  1
  O  O14  1  0.87827500  0.62457100  0.34188400  1
  O  O15  1  0.37827500  0.37542900  0.15811600  1
  O  O16  1  0.55080100  0.63555100  0.13765600  1
  O  O17  1  0.05080100  0.36444900  0.36234400  1
  O  O18  1  0.44919900  0.36444900  0.86234400  1
  O  O19  1  0.94919900  0.63555100  0.63765600  1
  O  O20  1  0.78653000  0.91361400  0.17975600  1
  O  O21  1  0.28653000  0.08638600  0.32024400  1
  O  O22  1  0.21347000  0.08638600  0.82024400  1
  O  O23  1  0.71347000  0.91361400  0.67975600  1
  O  O24  1  0.41973900  0.09153800  0.09727300  1
  O  O25  1  0.91973900  0.90846200  0.40272700  1
  O  O26  1  0.58026100  0.90846200  0.90272700  1
  O  O27  1  0.08026100  0.09153800  0.59727300  1
loop_
_geom_bond_atom_site_label_1
_geom_bond_atom_site_label_2
_geom_bond_distance
_geom_bond_site_symmetry_2
Mg0 O5 1.967571 1_454
Mg0 O7 1.967571 1_555
Mg0 O3 2.311311 1_555
Mg0 O1 2.311311 1_454
Mg1 O4 1.967571 1_555
Mg1 O6 1.967571 1_555
Mg1 O0 2.311311 1_555
Mg1 O2 2.311311 1_555
O0 P4 1.540652 1_555
O0 Sn5 2.569339 1_555
O1 P5 1.540652 1_555
O1 Sn4 2.569339 1_666
O2 P6 1.540652 1_555
O2 Sn5 2.569339 1_565
O3 P7 1.540652 1_555
O3 Sn4 2.569339 1_555
O4 P1 1.533253 1_555
O5 P0 1.533253 1_555
O6 P3 1.533253 1_555
O7 P2 1.533253 1_555
O8 P0 1.545593 1_555
O8 Sn2 2.333543 1_555
O9 P1 1.545593 1_555
O9 Sn3 2.333543 1_556
O10 P2 1.545593 1_555
O10 Sn0 2.333543 1_555
O11 P3 1.545593 1_555
O11 Sn1 2.333543 1_554
O12 P0 1.618953 1_455
O12 P4 1.622863 1_555
O13 P1 1.618953 1_555
O13 P5 1.622863 1_555
O14 P2 1.618953 1_655
O14 P6 1.622863 1_555
O15 P3 1.618953 1_555
O15 P7 1.622863 1_555
O16 P3 1.523538 1_555
O16 Sn3 2.165156 1_555
O17 P2 1.523538 1_555
O17 Sn2 2.165156 1_455
O18 P1 1.523538 1_555
O18 Sn1 2.165156 1_555
O19 P0 1.523538 1_555
O19 Sn0 2.165156 1_655
O20 P6 1.515699 1_555
O20 Sn4 2.449854 1_665
O21 P7 1.515699 1_555
O21 Sn5 2.449854 1_555
O22 P4 1.515699 1_555
O22 Sn4 2.449854 1_556
O23 P5 1.515699 1_555
O23 Sn5 2.449854 1_565
O24 P7 1.564850 1_555
O24 Sn1 2.151770 1_554
O24 Sn3 2.692699 1_545
O25 P6 1.564850 1_555
O25 Sn0 2.151770 1_655
O25 Sn2 2.692699 1_565
O26 P5 1.564850 1_555
O26 Sn3 2.151770 1_556
O26 Sn1 2.692699 1_565
O27 P4 1.564850 1_555
O27 Sn2 2.151770 1_455
O27 Sn0 2.692699 1_545
