# generated using pymatgen
data_LiAl2V4O8
_symmetry_space_group_name_H-M   'P 1'
_cell_length_a   6.24040706
_cell_length_b   6.07419218
_cell_length_c   6.05577415
_cell_angle_alpha   87.50558600
_cell_angle_beta   120.95872581
_cell_angle_gamma   120.85535345
_symmetry_Int_Tables_number   1
_chemical_formula_structural   LiAl2V4O8
_chemical_formula_sum   'Li1 Al2 V4 O8'
_cell_volume   161.23991497
_cell_formula_units_Z   1
loop_
 _symmetry_equiv_pos_site_id
 _symmetry_equiv_pos_as_xyz
  1  'x, y, z'
loop_
 _atom_site_type_symbol
 _atom_site_label
 _atom_site_symmetry_multiplicity
 _atom_site_fract_x
 _atom_site_fract_y
 _atom_site_fract_z
 _atom_site_occupancy
  Li  Li0  1  0.75071000  0.37751700  0.62391100  1
  Al  Al0  1  0.99378900  0.00284700  0.99616100  1
  Al  Al1  1  0.50599200  0.00356200  0.99689000  1
  V  V0  1  0.47284600  0.96776000  0.47807700  1
  V  V1  1  0.47827200  0.50823000  0.49059500  1
  V  V2  1  0.02656300  0.52041500  0.03256300  1
  V  V3  1  0.02086500  0.50853700  0.49090900  1
  O  O0  1  0.02031900  0.77762800  0.23072900  1
  O  O1  1  0.52158900  0.77218600  0.77148600  1
  O  O2  1  0.48749900  0.77708200  0.23017000  1
  O  O3  1  0.01810700  0.76297400  0.77430000  1
  O  O4  1  0.53522400  0.22761300  0.76747800  1
  O  O5  1  0.48228700  0.22604500  0.23750300  1
  O  O6  1  0.97661100  0.22586000  0.22687600  1
  O  O7  1  0.95937700  0.22712300  0.76697800  1
loop_
_geom_bond_atom_site_label_1
_geom_bond_atom_site_label_2
_geom_bond_distance
_geom_bond_site_symmetry_2
Li0 O4 1.808649 1_555
Li0 O7 1.808690 1_555
Li0 O5 1.924011 1_555
Li0 O3 1.926219 1_655
Li0 V3 2.022190 1_655
Li0 V1 2.022194 1_555
Li0 V2 2.027885 1_656
Li0 V0 2.042153 1_545
Al0 O7 1.912340 1_555
Al0 O0 1.933366 1_646
Al0 O6 2.065510 1_556
Al0 O1 2.074496 1_545
Al0 O3 2.134958 1_645
Al0 O5 2.148567 1_656
Al1 O4 1.912324 1_555
Al1 O2 1.933194 1_546
Al1 O6 2.067819 1_556
Al1 O1 2.071687 1_545
Al1 O5 2.137647 1_556
Al1 O3 2.146500 1_545
O0 V0 2.001360 1_555
O0 V2 2.038715 1_555
O0 V3 2.220393 1_555
O1 V0 2.071644 1_555
O1 V1 2.203839 1_555
O1 V3 2.203876 1_555
O2 V0 2.001213 1_555
O2 V2 2.039003 1_555
O2 V1 2.220396 1_555
O3 V2 2.100916 1_556
O3 V3 2.371198 1_555
O3 V1 2.371616 1_455
O4 V0 2.150106 1_545
O4 V2 2.175382 1_656
O4 V1 2.366997 1_555
O5 V0 2.093281 1_545
O5 V1 2.366407 1_555
O5 V3 2.366961 1_655
O6 V2 2.074862 1_655
O6 V3 2.208917 1_655
O6 V1 2.209005 1_655
O7 V0 2.151635 1_545
O7 V2 2.173879 1_656
O7 V3 2.366974 1_655
