# generated using pymatgen
data_Na2Ti2Si2O11
_symmetry_space_group_name_H-M   'P 1'
_cell_length_a   5.40510600
_cell_length_b   7.07754517
_cell_length_c   12.45020315
_cell_angle_alpha   93.52297811
_cell_angle_beta   96.76775142
_cell_angle_gamma   90.29399497
_symmetry_Int_Tables_number   1
_chemical_formula_structural   Na2Ti2Si2O11
_chemical_formula_sum   'Na4 Ti4 Si4 O22'
_cell_volume   472.03175248
_cell_formula_units_Z   2
loop_
 _symmetry_equiv_pos_site_id
 _symmetry_equiv_pos_as_xyz
  1  'x, y, z'
loop_
 _atom_site_type_symbol
 _atom_site_label
 _atom_site_symmetry_multiplicity
 _atom_site_fract_x
 _atom_site_fract_y
 _atom_site_fract_z
 _atom_site_occupancy
  Na  Na0  1  0.16927800  0.66574300  0.79360000  1
  Na  Na1  1  0.83072200  0.33425700  0.20640000  1
  Na  Na2  1  0.25535300  0.88553800  0.51545100  1
  Na  Na3  1  0.74464700  0.11446200  0.48454900  1
  Ti  Ti0  1  0.16365200  0.17441400  0.73566900  1
  Ti  Ti1  1  0.83634800  0.82558600  0.26433100  1
  Ti  Ti2  1  0.22002200  0.38580300  0.49546100  1
  Ti  Ti3  1  0.77997800  0.61419700  0.50453900  1
  Si  Si0  1  0.67672800  0.87814500  0.72140200  1
  Si  Si1  1  0.32327200  0.12185500  0.27859800  1
  Si  Si2  1  0.64628600  0.44635800  0.72970300  1
  Si  Si3  1  0.35371400  0.55364200  0.27029700  1
  O  O0  1  0.67303400  0.67067000  0.77593100  1
  O  O1  1  0.32696600  0.32933000  0.22406900  1
  O  O2  1  0.58983400  0.43725300  0.59381900  1
  O  O3  1  0.41016600  0.56274700  0.40618100  1
  O  O4  1  0.66013100  0.83491400  0.58843200  1
  O  O5  1  0.33986900  0.16508600  0.41156800  1
  O  O6  1  0.63683200  0.23304600  0.00316200  1
  O  O7  1  0.36316800  0.76695400  0.99683800  1
  O  O8  1  0.08514600  0.59898100  0.58322300  1
  O  O9  1  0.91485400  0.40101900  0.41677700  1
  O  O10  1  0.86869000  0.80842100  0.40906300  1
  O  O11  1  0.13131000  0.19157900  0.59093700  1
  O  O12  1  0.91021300  0.35213000  0.76942500  1
  O  O13  1  0.08978700  0.64787000  0.23057500  1
  O  O14  1  0.94694800  0.97086200  0.76772200  1
  O  O15  1  0.05305200  0.02913800  0.23227800  1
  O  O16  1  0.41368200  0.19305400  0.99483200  1
  O  O17  1  0.58631800  0.80694600  0.00516800  1
  O  O18  1  0.40466900  0.37067300  0.78160700  1
  O  O19  1  0.59533100  0.62932700  0.21839300  1
  O  O20  1  0.42927200  0.98920200  0.74917200  1
  O  O21  1  0.57072800  0.01079800  0.25082800  1
loop_
_geom_bond_atom_site_label_1
_geom_bond_atom_site_label_2
_geom_bond_distance
_geom_bond_site_symmetry_2
Na0 O18 2.456846 1_555
Na0 O14 2.496443 1_455
Na0 O12 2.600902 1_455
Na0 O8 2.618287 1_555
Na0 O0 2.665880 1_455
Na0 O7 2.675564 1_555
Na0 O0 2.757660 1_555
Na0 O20 2.797768 1_555
Na1 O19 2.456846 1_555
Na1 O15 2.496443 1_655
Na1 O13 2.600902 1_655
Na1 O9 2.618287 1_555
Na1 O1 2.665880 1_655
Na1 O6 2.675564 1_555
Na1 O1 2.757660 1_555
Na1 O21 2.797768 1_555
Na2 O4 2.306569 1_555
Na2 O10 2.380597 1_455
Na2 O11 2.436730 1_565
Na2 O8 2.458806 1_555
Na2 O5 2.498090 1_565
Na2 O3 2.770594 1_555
Na3 O5 2.306569 1_555
Na3 O11 2.380597 1_655
Na3 O10 2.436730 1_545
Na3 O9 2.458806 1_555
Na3 O4 2.498090 1_545
Na3 O2 2.770594 1_555
O0 Si2 1.654781 1_555
O0 Si0 1.656185 1_555
O1 Si3 1.654781 1_555
O1 Si1 1.656185 1_555
O2 Si2 1.680512 1_555
O2 Ti3 2.070572 1_555
O2 Ti2 2.233493 1_555
O3 Si3 1.680512 1_555
O3 Ti2 2.070572 1_555
O3 Ti3 2.233493 1_555
O4 Si0 1.656750 1_555
O4 Ti3 1.979942 1_555
O5 Si1 1.656750 1_555
O5 Ti2 1.979942 1_555
O8 Ti3 1.823720 1_455
O8 Ti2 1.999549 1_555
O9 Ti2 1.823720 1_655
O9 Ti3 1.999549 1_555
O10 Ti1 1.801442 1_555
O10 Ti3 1.964920 1_555
O11 Ti0 1.801442 1_555
O11 Ti2 1.964920 1_555
O12 Si2 1.615057 1_555
O12 Ti0 1.929664 1_655
O13 Si3 1.615057 1_555
O13 Ti1 1.929664 1_455
O14 Si0 1.625293 1_555
O14 Ti0 1.941698 1_665
O15 Si1 1.625293 1_555
O15 Ti1 1.941698 1_445
O16 O6 1.228443 1_556
O17 O7 1.228443 1_554
O18 Si2 1.626144 1_555
O18 Ti0 1.913582 1_555
O19 Si3 1.626144 1_555
O19 Ti1 1.913582 1_555
O20 Si0 1.616388 1_555
O20 Ti0 1.948676 1_565
O21 Si1 1.616388 1_555
O21 Ti1 1.948676 1_545
