# generated using pymatgen
data_Li9Mn2Co5O16
_symmetry_space_group_name_H-M   'P 1'
_cell_length_a   7.76272721
_cell_length_b   7.76272721
_cell_length_c   13.12105025
_cell_angle_alpha   86.74569867
_cell_angle_beta   86.74569867
_cell_angle_gamma   21.39086180
_symmetry_Int_Tables_number   1
_chemical_formula_structural   Li9Mn2Co5O16
_chemical_formula_sum   'Li9 Mn2 Co5 O16'
_cell_volume   287.89938941
_cell_formula_units_Z   1
loop_
 _symmetry_equiv_pos_site_id
 _symmetry_equiv_pos_as_xyz
  1  'x, y, z'
loop_
 _atom_site_type_symbol
 _atom_site_label
 _atom_site_symmetry_multiplicity
 _atom_site_fract_x
 _atom_site_fract_y
 _atom_site_fract_z
 _atom_site_occupancy
  Li  Li0  1  0.43888700  0.43888700  0.19218000  1
  Li  Li1  1  0.31765200  0.31765200  0.56187500  1
  Li  Li2  1  0.18770800  0.18770800  0.93456200  1
  Li  Li3  1  0.06389200  0.06389200  0.32481000  1
  Li  Li4  1  0.93548400  0.93548400  0.67743000  1
  Li  Li5  1  0.81092800  0.81092800  0.05940700  1
  Li  Li6  1  0.68611900  0.68611900  0.44116300  1
  Li  Li7  1  0.56273400  0.56273400  0.80528600  1
  Li  Li8  1  0.49764600  0.49764600  0.50082700  1
  Mn  Mn0  1  0.99980900  0.99980900  0.99875300  1
  Mn  Mn1  1  0.87841200  0.87841200  0.38369600  1
  Co  Co0  1  0.74457300  0.74457300  0.74880300  1
  Co  Co1  1  0.62741600  0.62741600  0.12935600  1
  Co  Co2  1  0.37370800  0.37370800  0.86705800  1
  Co  Co3  1  0.25133000  0.25133000  0.25427100  1
  Co  Co4  1  0.11815500  0.11815500  0.60852900  1
  O  O0  1  0.41313900  0.41313900  0.02813800  1
  O  O1  1  0.29274300  0.29274300  0.40537400  1
  O  O2  1  0.16184900  0.16184900  0.78093700  1
  O  O3  1  0.04306300  0.04306300  0.15448100  1
  O  O4  1  0.90367900  0.90367900  0.51822400  1
  O  O5  1  0.78667700  0.78667700  0.90152700  1
  O  O6  1  0.66814800  0.66814800  0.28063100  1
  O  O7  1  0.53998000  0.53998000  0.65220900  1
  O  O8  1  0.45921300  0.45921300  0.34529700  1
  O  O9  1  0.33749900  0.33749900  0.72053000  1
  O  O10  1  0.21092700  0.21092700  0.10017400  1
  O  O11  1  0.09774700  0.09774700  0.47429300  1
  O  O12  1  0.96178700  0.96178700  0.84401600  1
  O  O13  1  0.83696200  0.83696200  0.23253800  1
  O  O14  1  0.70738000  0.70738000  0.60137900  1
  O  O15  1  0.58475400  0.58475400  0.97224300  1
loop_
_geom_bond_atom_site_label_1
_geom_bond_atom_site_label_2
_geom_bond_distance
_geom_bond_site_symmetry_2
Li0 O8 2.050473 1_555
Li0 O13 2.163019 1_545
Li0 O13 2.163019 1_455
Li0 O3 2.180641 1_655
Li0 O3 2.180641 1_565
Li0 O0 2.210164 1_555
Li1 O4 2.009759 1_455
Li1 O4 2.009759 1_545
Li1 O1 2.109799 1_555
Li1 O9 2.120864 1_555
Li1 O14 2.252448 1_455
Li1 O14 2.252448 1_545
Li2 O2 2.076208 1_555
Li2 O5 2.113630 1_455
Li2 O5 2.113630 1_545
Li2 O15 2.167294 1_545
Li2 O15 2.167294 1_455
Li2 O10 2.221791 1_556
Li3 O11 2.056888 1_555
Li3 O8 2.156029 1_545
Li3 O8 2.156029 1_455
Li3 O6 2.198801 1_545
Li3 O6 2.198801 1_455
Li3 O3 2.275475 1_555
Li4 O9 2.128895 1_565
Li4 O9 2.128895 1_655
Li4 O7 2.159965 1_655
Li4 O7 2.159965 1_565
Li4 O4 2.171693 1_555
Li4 O12 2.244996 1_555
Li5 O5 2.125265 1_554
Li5 O10 2.143546 1_565
Li5 O10 2.143546 1_655
Li5 O0 2.145082 1_655
Li5 O0 2.145082 1_565
Li5 O13 2.328611 1_555
Li6 O11 2.003590 1_655
Li6 O11 2.003590 1_565
Li6 O6 2.139764 1_555
Li6 O14 2.145517 1_555
Li6 O1 2.203113 1_655
Li6 O1 2.203113 1_565
Li7 O7 2.057973 1_555
Li7 O2 2.099560 1_655
Li7 O2 2.099560 1_565
Li7 O12 2.148260 1_545
Li7 O12 2.148260 1_455
Li7 O15 2.235359 1_555
Li8 O4 2.035892 1_545
Li8 O4 2.035892 1_455
Li8 O11 2.113621 1_565
Li8 O11 2.113621 1_655
Li8 O7 2.123835 1_555
Li8 O8 2.155586 1_555
Mn0 O15 1.955453 1_655
Mn0 O15 1.955453 1_565
Mn0 O0 1.978267 1_566
Mn0 O0 1.978267 1_656
Mn0 O12 2.143526 1_555
Mn0 O3 2.183199 1_666
Mn1 O4 1.828374 1_555
Mn1 O8 1.943482 1_655
Mn1 O8 1.943482 1_565
Mn1 O1 1.954888 1_655
Mn1 O1 1.954888 1_565
Mn1 O13 2.116238 1_555
Co0 O2 1.945382 1_565
Co0 O2 1.945382 1_655
Co0 O9 2.040131 1_655
Co0 O9 2.040131 1_565
Co0 O14 2.047073 1_555
Co0 O5 2.139374 1_555
Co1 O10 1.946513 1_565
Co1 O10 1.946513 1_655
Co1 O3 1.947106 1_565
Co1 O3 1.947106 1_655
Co1 O6 2.113864 1_555
Co1 O15 2.197350 1_554
Co2 O12 1.981302 1_545
Co2 O12 1.981302 1_455
Co2 O5 1.993375 1_545
Co2 O5 1.993375 1_455
Co2 O9 2.030824 1_555
Co2 O0 2.230652 1_556
Co3 O6 1.937735 1_545
Co3 O6 1.937735 1_455
Co3 O13 1.954593 1_455
Co3 O13 1.954593 1_545
Co3 O1 2.115350 1_555
Co3 O10 2.147570 1_555
Co4 O11 1.806248 1_555
Co4 O7 1.935812 1_545
Co4 O7 1.935812 1_455
Co4 O14 1.980512 1_455
Co4 O14 1.980512 1_545
Co4 O2 2.394994 1_555
