# generated using pymatgen
data_PrCrSb3
_symmetry_space_group_name_H-M   'P 1'
_cell_length_a   6.27080792
_cell_length_b   6.20440328
_cell_length_c   13.25433018
_cell_angle_alpha   90.00000000
_cell_angle_beta   90.00000000
_cell_angle_gamma   90.00000000
_symmetry_Int_Tables_number   1
_chemical_formula_structural   PrCrSb3
_chemical_formula_sum   'Pr4 Cr4 Sb12'
_cell_volume   515.68120393
_cell_formula_units_Z   4
loop_
 _symmetry_equiv_pos_site_id
 _symmetry_equiv_pos_as_xyz
  1  'x, y, z'
loop_
 _atom_site_type_symbol
 _atom_site_label
 _atom_site_symmetry_multiplicity
 _atom_site_fract_x
 _atom_site_fract_y
 _atom_site_fract_z
 _atom_site_occupancy
  Pr  Pr0  1  0.25000000  0.50456687  0.31138245  1
  Pr  Pr1  1  0.75000000  0.49543313  0.68861755  1
  Pr  Pr2  1  0.25000000  0.00456687  0.68861755  1
  Pr  Pr3  1  0.75000000  0.99543313  0.31138245  1
  Cr  Cr0  1  0.00000000  0.75000000  0.90801848  1
  Cr  Cr1  1  0.00000000  0.25000000  0.09198152  1
  Cr  Cr2  1  0.50000000  0.25000000  0.09198152  1
  Cr  Cr3  1  0.50000000  0.75000000  0.90801848  1
  Sb  Sb0  1  0.00000000  0.75000000  0.50160927  1
  Sb  Sb1  1  -0.00000000  0.25000000  0.49839073  1
  Sb  Sb2  1  0.50000000  0.25000000  0.49839073  1
  Sb  Sb3  1  0.50000000  0.75000000  0.50160927  1
  Sb  Sb4  1  0.25000000  0.60686113  0.06387941  1
  Sb  Sb5  1  0.75000000  0.39313887  0.93612059  1
  Sb  Sb6  1  0.25000000  0.10686113  0.93612059  1
  Sb  Sb7  1  0.75000000  0.89313887  0.06387941  1
  Sb  Sb8  1  0.25000000  -0.00131476  0.21999317  1
  Sb  Sb9  1  0.75000000  0.00131476  0.78000683  1
  Sb  Sb10  1  0.25000000  0.49868524  0.78000683  1
  Sb  Sb11  1  0.75000000  0.50131476  0.21999317  1
loop_
_geom_bond_atom_site_label_1
_geom_bond_atom_site_label_2
_geom_bond_distance
_geom_bond_site_symmetry_2
Pr0 Sb8 3.296336 1_565
Pr0 Sb1 3.331082 1_555
Pr0 Sb2 3.331082 1_555
Pr0 Sb0 3.336706 1_555
Pr0 Sb3 3.336706 1_555
Pr0 Sb4 3.341318 1_555
Pr0 Sb11 3.361313 1_455
Pr0 Sb11 3.361313 1_555
Pr0 Sb8 3.364321 1_555
Pr1 Sb9 3.296336 1_555
Pr1 Sb3 3.331082 1_555
Pr1 Sb0 3.331082 1_655
Pr1 Sb2 3.336706 1_555
Pr1 Sb1 3.336706 1_655
Pr1 Sb5 3.341318 1_555
Pr1 Sb10 3.361313 1_555
Pr1 Sb10 3.361313 1_655
Pr1 Sb9 3.364321 1_565
Pr2 Sb10 3.296336 1_555
Pr2 Sb3 3.331082 1_545
Pr2 Sb0 3.331082 1_545
Pr2 Sb2 3.336706 1_555
Pr2 Sb1 3.336706 1_555
Pr2 Sb6 3.341318 1_555
Pr2 Sb9 3.361313 1_455
Pr2 Sb9 3.361313 1_555
Pr2 Sb10 3.364321 1_545
Pr3 Sb11 3.296336 1_555
Pr3 Sb1 3.331082 1_665
Pr3 Sb2 3.331082 1_565
Pr3 Sb0 3.336706 1_655
Pr3 Sb3 3.336706 1_555
Pr3 Sb7 3.341318 1_555
Pr3 Sb8 3.361313 1_565
Pr3 Sb8 3.361313 1_665
Pr3 Sb11 3.364321 1_565
Cr0 Sb6 2.738378 1_565
Cr0 Sb5 2.738378 1_455
Cr0 Sb4 2.741178 1_556
Cr0 Sb7 2.741178 1_456
Cr0 Sb10 2.787077 1_555
Cr0 Sb9 2.787077 1_465
Cr1 Sb4 2.738378 1_555
Cr1 Sb7 2.738378 1_445
Cr1 Sb5 2.741178 1_454
Cr1 Sb6 2.741178 1_554
Cr1 Sb8 2.787077 1_555
Cr1 Sb11 2.787077 1_455
Cr2 Sb7 2.738378 1_545
Cr2 Sb4 2.738378 1_555
Cr2 Sb5 2.741178 1_554
Cr2 Sb6 2.741178 1_554
Cr2 Sb8 2.787077 1_555
Cr2 Sb11 2.787077 1_555
Cr3 Sb6 2.738378 1_565
Cr3 Sb5 2.738378 1_555
Cr3 Sb7 2.741178 1_556
Cr3 Sb4 2.741178 1_556
Cr3 Sb10 2.787077 1_555
Cr3 Sb9 2.787077 1_565
Sb0 Sb1 3.102495 1_555
Sb0 Sb1 3.102495 1_565
Sb0 Sb3 3.135404 1_555
Sb0 Sb3 3.135404 1_455
Sb1 Sb2 3.135404 1_455
Sb1 Sb2 3.135404 1_555
Sb2 Sb3 3.102495 1_555
Sb2 Sb3 3.102495 1_545
Sb4 Sb8 3.192405 1_565
Sb5 Sb9 3.192405 1_555
Sb10 Sb6 3.192405 1_555
Sb11 Sb7 3.192405 1_555
