# generated using pymatgen
data_Li9Mn2Co5O16
_symmetry_space_group_name_H-M   'P 1'
_cell_length_a   19.35520446
_cell_length_b   19.35520446
_cell_length_c   5.18735968
_cell_angle_alpha   88.87213454
_cell_angle_beta   88.87213454
_cell_angle_gamma   8.59060988
_symmetry_Int_Tables_number   1
_chemical_formula_structural   Li9Mn2Co5O16
_chemical_formula_sum   'Li9 Mn2 Co5 O16'
_cell_volume   290.22193128
_cell_formula_units_Z   1
loop_
 _symmetry_equiv_pos_site_id
 _symmetry_equiv_pos_as_xyz
  1  'x, y, z'
loop_
 _atom_site_type_symbol
 _atom_site_label
 _atom_site_symmetry_multiplicity
 _atom_site_fract_x
 _atom_site_fract_y
 _atom_site_fract_z
 _atom_site_occupancy
  Li  Li0  1  0.43730200  0.43730200  0.18069400  1
  Li  Li1  1  0.31100300  0.31100300  0.56847800  1
  Li  Li2  1  0.18532200  0.18532200  0.94423700  1
  Li  Li3  1  0.06619800  0.06619800  0.30238700  1
  Li  Li4  1  0.93774900  0.93774900  0.69179100  1
  Li  Li5  1  0.81114500  0.81114500  0.05988700  1
  Li  Li6  1  0.68503800  0.68503800  0.45187600  1
  Li  Li7  1  0.56668400  0.56668400  0.79948100  1
  Li  Li8  1  0.62516100  0.62516100  0.12352100  1
  Mn  Mn0  1  0.00124200  0.00124200  0.99682400  1
  Mn  Mn1  1  0.87483500  0.87483500  0.37578000  1
  Co  Co0  1  0.74928600  0.74928600  0.75284400  1
  Co  Co1  1  0.50028600  0.50028600  0.49567800  1
  Co  Co2  1  0.37471500  0.37471500  0.87578900  1
  Co  Co3  1  0.24900400  0.24900400  0.25259600  1
  Co  Co4  1  0.12521700  0.12521700  0.62452900  1
  O  O0  1  0.47189500  0.47189500  0.86312700  1
  O  O1  1  0.34668100  0.34668100  0.22818000  1
  O  O2  1  0.22120000  0.22120000  0.60014800  1
  O  O3  1  0.09791200  0.09791200  0.91694300  1
  O  O4  1  0.97202800  0.97202800  0.36281100  1
  O  O5  1  0.84513100  0.84513100  0.74028600  1
  O  O6  1  0.72017700  0.72017700  0.09830000  1
  O  O7  1  0.59765400  0.59765400  0.48249500  1
  O  O8  1  0.40340600  0.40340600  0.52213000  1
  O  O9  1  0.27818900  0.27818900  0.90766600  1
  O  O10  1  0.15198700  0.15198700  0.33440600  1
  O  O11  1  0.02787500  0.02787500  0.62935100  1
  O  O12  1  0.90500200  0.90500200  0.01146300  1
  O  O13  1  0.77827600  0.77827600  0.40434000  1
  O  O14  1  0.65240600  0.65240600  0.76723400  1
  O  O15  1  0.52999500  0.52999500  0.13472800  1
loop_
_geom_bond_atom_site_label_1
_geom_bond_atom_site_label_2
_geom_bond_distance
_geom_bond_site_symmetry_2
Li0 O0 2.100005 1_554
Li0 O12 2.114220 1_545
Li0 O12 2.114220 1_455
Li0 O8 2.181172 1_555
Li0 O4 2.200189 1_545
Li0 O4 2.200189 1_455
Li1 O13 2.113023 1_455
Li1 O13 2.113023 1_545
Li1 O9 2.147624 1_555
Li1 O5 2.162789 1_545
Li1 O5 2.162789 1_455
Li1 O1 2.217406 1_555
Li2 O6 2.143101 1_546
Li2 O6 2.143101 1_456
Li2 O14 2.145936 1_545
Li2 O14 2.145936 1_455
Li2 O2 2.237502 1_555
Li2 O10 2.376839 1_556
Li3 O7 2.119803 1_545
Li3 O7 2.119803 1_455
Li3 O15 2.204279 1_455
Li3 O15 2.204279 1_545
Li3 O11 2.228465 1_555
Li3 O3 2.323750 1_554
Li4 O12 2.065181 1_556
Li4 O4 2.138704 1_555
Li4 O0 2.162181 1_655
Li4 O0 2.162181 1_565
Li4 O8 2.163232 1_565
Li4 O8 2.163232 1_655
Li5 O9 2.093567 1_654
Li5 O9 2.093567 1_564
Li5 O5 2.093763 1_554
Li5 O13 2.170947 1_555
Li5 O1 2.189194 1_565
Li5 O1 2.189194 1_655
Li6 O10 2.032539 1_655
Li6 O10 2.032539 1_565
Li6 O14 2.044861 1_555
Li6 O2 2.164259 1_655
Li6 O2 2.164259 1_565
Li6 O6 2.259577 1_555
Li7 O3 1.988683 1_565
Li7 O3 1.988683 1_655
Li7 O7 2.013800 1_555
Li7 O15 2.220999 1_556
Li7 O11 2.275259 1_655
Li7 O11 2.275259 1_565
Li8 O3 2.097783 1_564
Li8 O3 2.097783 1_654
Li8 O10 2.101241 1_655
Li8 O10 2.101241 1_565
Li8 O14 2.108351 1_554
Li8 O7 2.125303 1_555
Mn0 O15 1.968875 1_456
Mn0 O15 1.968875 1_546
Mn0 O0 1.974036 1_545
Mn0 O0 1.974036 1_455
Mn0 O11 2.147844 1_555
Mn0 O4 2.188957 1_446
Mn1 O1 1.975264 1_565
Mn1 O1 1.975264 1_655
Mn1 O8 1.981725 1_655
Mn1 O8 1.981725 1_565
Mn1 O5 2.191887 1_555
Mn1 O12 2.200155 1_555
Co0 O2 1.984490 1_565
Co0 O2 1.984490 1_655
Co0 O9 2.006650 1_655
Co0 O9 2.006650 1_565
Co0 O6 2.096280 1_556
Co0 O13 2.107281 1_555
Co1 O11 1.935364 1_655
Co1 O11 1.935364 1_565
Co1 O4 1.948346 1_455
Co1 O4 1.948346 1_545
Co1 O15 2.176285 1_555
Co1 O0 2.179862 1_555
Co2 O5 1.982772 1_455
Co2 O5 1.982772 1_545
Co2 O12 1.999036 1_456
Co2 O12 1.999036 1_546
Co2 O1 2.105821 1_556
Co2 O8 2.124144 1_555
Co3 O6 2.003876 1_545
Co3 O6 2.003876 1_455
Co3 O13 2.008228 1_455
Co3 O13 2.008228 1_545
Co3 O2 2.079882 1_555
Co3 O9 2.095503 1_554
Co4 O10 1.808699 1_555
Co4 O3 1.829943 1_555
Co4 O14 1.944652 1_455
Co4 O14 1.944652 1_545
Co4 O7 1.951236 1_455
Co4 O7 1.951236 1_545
