# generated using pymatgen
data_BaMn6O12
_symmetry_space_group_name_H-M   'P 1'
_cell_length_a   8.14800870
_cell_length_b   8.14800870
_cell_length_c   9.78229814
_cell_angle_alpha   54.12914357
_cell_angle_beta   54.12914357
_cell_angle_gamma   64.39780016
_symmetry_Int_Tables_number   1
_chemical_formula_structural   BaMn6O12
_chemical_formula_sum   'Ba2 Mn12 O24'
_cell_volume   422.54500797
_cell_formula_units_Z   2
loop_
 _symmetry_equiv_pos_site_id
 _symmetry_equiv_pos_as_xyz
  1  'x, y, z'
loop_
 _atom_site_type_symbol
 _atom_site_label
 _atom_site_symmetry_multiplicity
 _atom_site_fract_x
 _atom_site_fract_y
 _atom_site_fract_z
 _atom_site_occupancy
  Ba  Ba0  1  0.71614726  0.28385274  -0.00000000  1
  Ba  Ba1  1  0.28385274  0.71614726  -0.00000000  1
  Mn  Mn0  1  0.33736920  0.33736920  0.81532713  1
  Mn  Mn1  1  0.00195214  0.67016490  0.81544904  1
  Mn  Mn2  1  0.67016490  0.00195214  0.81544904  1
  Mn  Mn3  1  -0.00195214  0.32983510  0.18455096  1
  Mn  Mn4  1  0.66263080  0.66263080  0.18467287  1
  Mn  Mn5  1  0.32983510  -0.00195214  0.18455096  1
  Mn  Mn6  1  0.14843361  0.14843361  0.51960868  1
  Mn  Mn7  1  0.48250069  0.81391784  0.52040602  1
  Mn  Mn8  1  0.81391784  0.48250069  0.52040602  1
  Mn  Mn9  1  0.85156639  0.85156639  0.48039132  1
  Mn  Mn10  1  0.18608216  0.51749931  0.47959398  1
  Mn  Mn11  1  0.51749931  0.18608216  0.47959398  1
  O  O0  1  0.35026979  0.35026979  0.60634965  1
  O  O1  1  0.01291828  0.67643382  0.61228137  1
  O  O2  1  0.67643382  0.01291828  0.61228137  1
  O  O3  1  0.98708172  0.32356618  0.38771863  1
  O  O4  1  0.64973021  0.64973021  0.39365035  1
  O  O5  1  0.32356618  0.98708172  0.38771863  1
  O  O6  1  0.34414823  0.34414823  0.34974104  1
  O  O7  1  0.00623717  0.67500642  0.35694883  1
  O  O8  1  0.67500642  0.00623717  0.35694883  1
  O  O9  1  0.99376283  0.32499358  0.64305117  1
  O  O10  1  0.65585177  0.65585177  0.65025896  1
  O  O11  1  0.32499358  0.99376283  0.64305117  1
  O  O12  1  0.62698078  0.29015844  0.72337215  1
  O  O13  1  0.29015844  0.62698078  0.72337215  1
  O  O14  1  0.95764457  0.95764457  0.71596501  1
  O  O15  1  0.70984156  0.37301922  0.27662785  1
  O  O16  1  0.37301922  0.70984156  0.27662785  1
  O  O17  1  0.04235543  0.04235543  0.28403499  1
  O  O18  1  0.95735138  0.62653695  0.05878363  1
  O  O19  1  0.62653695  0.95735138  0.05878363  1
  O  O20  1  0.29619855  0.29619855  0.06034308  1
  O  O21  1  0.37346305  0.04264862  0.94121637  1
  O  O22  1  0.04264862  0.37346305  0.94121637  1
  O  O23  1  0.70380145  0.70380145  0.93965692  1
loop_
_geom_bond_atom_site_label_1
_geom_bond_atom_site_label_2
_geom_bond_distance
_geom_bond_site_symmetry_2
Ba0 O19 2.708330 1_545
Ba0 O22 2.708330 1_654
Ba0 O9 2.729255 1_554
Ba0 O8 2.729255 1_555
Ba0 O20 3.077651 1_555
Ba0 O23 3.077651 1_554
Ba0 O10 3.108649 1_554
Ba0 O6 3.108649 1_555
Ba0 O12 3.156273 1_554
Ba0 O15 3.156273 1_555
Ba1 O18 2.708330 1_455
Ba1 O21 2.708330 1_564
Ba1 O11 2.729255 1_554
Ba1 O7 2.729255 1_555
Ba1 O20 3.077651 1_555
Ba1 O23 3.077651 1_554
Ba1 O10 3.108649 1_554
Ba1 O6 3.108649 1_555
Ba1 O13 3.156273 1_554
Ba1 O16 3.156273 1_555
Mn0 O12 1.912849 1_555
Mn0 O13 1.912849 1_555
Mn0 O0 1.925377 1_555
Mn0 O21 1.928237 1_555
Mn0 O22 1.928237 1_555
Mn0 O20 2.045124 1_556
Mn1 O14 1.890402 1_455
Mn1 O13 1.904771 1_555
Mn1 O1 1.907197 1_555
Mn1 O22 1.941057 1_555
Mn1 O23 1.951599 1_455
Mn1 O18 2.007693 1_456
Mn2 O14 1.890402 1_545
Mn2 O12 1.904771 1_555
Mn2 O2 1.907197 1_555
Mn2 O21 1.941057 1_555
Mn2 O23 1.951599 1_545
Mn2 O19 2.007693 1_546
Mn3 O17 1.890402 1_555
Mn3 O15 1.904771 1_455
Mn3 O3 1.907197 1_455
Mn3 O18 1.941057 1_455
Mn3 O20 1.951599 1_555
Mn3 O22 2.007693 1_554
Mn4 O15 1.912849 1_555
Mn4 O16 1.912849 1_555
Mn4 O4 1.925377 1_555
Mn4 O18 1.928237 1_555
Mn4 O19 1.928237 1_555
Mn4 O23 2.045124 1_554
Mn5 O17 1.890402 1_555
Mn5 O16 1.904771 1_545
Mn5 O5 1.907197 1_545
Mn5 O19 1.941057 1_545
Mn5 O20 1.951599 1_555
Mn5 O21 2.007693 1_554
Mn6 O14 1.900688 1_445
Mn6 O3 1.907395 1_455
Mn6 O5 1.907395 1_545
Mn6 O9 1.949755 1_455
Mn6 O11 1.949755 1_545
Mn6 O6 1.958099 1_555
Mn7 O4 1.890092 1_555
Mn7 O13 1.894884 1_555
Mn7 O5 1.896596 1_555
Mn7 O8 1.929038 1_565
Mn7 O11 1.965801 1_555
Mn7 O10 1.969920 1_555
Mn8 O4 1.890092 1_555
Mn8 O12 1.894884 1_555
Mn8 O3 1.896596 1_555
Mn8 O7 1.929038 1_655
Mn8 O9 1.965801 1_555
Mn8 O10 1.969920 1_555
Mn9 O17 1.900688 1_665
Mn9 O1 1.907395 1_655
Mn9 O2 1.907395 1_565
Mn9 O7 1.949755 1_655
Mn9 O8 1.949755 1_565
Mn9 O10 1.958099 1_555
Mn10 O0 1.890092 1_555
Mn10 O16 1.894884 1_555
Mn10 O1 1.896596 1_555
Mn10 O9 1.929038 1_455
Mn10 O7 1.965801 1_555
Mn10 O6 1.969920 1_555
Mn11 O0 1.890092 1_555
Mn11 O15 1.894884 1_555
Mn11 O2 1.896596 1_555
Mn11 O11 1.929038 1_545
Mn11 O8 1.965801 1_555
Mn11 O6 1.969920 1_555
