# generated using pymatgen
data_BaLaMn2O6
_symmetry_space_group_name_H-M   'P 1'
_cell_length_a   3.96469600
_cell_length_b   3.96469600
_cell_length_c   7.93105200
_cell_angle_alpha   90.00000000
_cell_angle_beta   90.00000000
_cell_angle_gamma   90.00000000
_symmetry_Int_Tables_number   1
_chemical_formula_structural   BaLaMn2O6
_chemical_formula_sum   'Ba1 La1 Mn2 O6'
_cell_volume   124.66673417
_cell_formula_units_Z   1
loop_
 _symmetry_equiv_pos_site_id
 _symmetry_equiv_pos_as_xyz
  1  'x, y, z'
loop_
 _atom_site_type_symbol
 _atom_site_label
 _atom_site_symmetry_multiplicity
 _atom_site_fract_x
 _atom_site_fract_y
 _atom_site_fract_z
 _atom_site_occupancy
  Ba  Ba0  1  0.00000000  0.00000000  0.00000000  1
  La  La0  1  0.00000000  0.00000000  0.50000000  1
  Mn  Mn0  1  0.50000100  0.50000100  0.74785100  1
  Mn  Mn1  1  0.50000100  0.50000100  0.25214900  1
  O  O0  1  0.00000000  0.50000100  0.72827000  1
  O  O1  1  0.50000100  0.00000000  0.72827000  1
  O  O2  1  0.00000000  0.50000100  0.27173100  1
  O  O3  1  0.50000100  0.00000000  0.27173100  1
  O  O4  1  0.50000100  0.50000100  0.00000000  1
  O  O5  1  0.50000100  0.50000100  0.50000000  1
loop_
_geom_bond_atom_site_label_1
_geom_bond_atom_site_label_2
_geom_bond_distance
_geom_bond_site_symmetry_2
Ba0 O4 2.803458 1_445
Ba0 O4 2.803463 1_545
Ba0 O4 2.803463 1_455
Ba0 O4 2.803469 1_555
Ba0 O1 2.928167 1_454
Ba0 O0 2.928167 1_544
Ba0 O0 2.928173 1_554
Ba0 O1 2.928173 1_554
Ba0 O3 2.928173 1_455
Ba0 O2 2.928173 1_545
Ba0 O3 2.928179 1_555
Ba0 O2 2.928179 1_555
La0 O2 2.684639 1_545
La0 O3 2.684639 1_455
La0 O1 2.684644 1_455
La0 O0 2.684644 1_545
La0 O2 2.684644 1_555
La0 O3 2.684644 1_555
La0 O1 2.684650 1_555
La0 O0 2.684650 1_555
La0 O5 2.803458 1_445
La0 O5 2.803463 1_455
La0 O5 2.803463 1_545
La0 O5 2.803469 1_555
Mn0 O5 1.965719 1_555
Mn0 O0 1.988418 1_655
Mn0 O1 1.988418 1_565
Mn0 O0 1.988426 1_555
Mn0 O1 1.988426 1_555
Mn0 O4 1.999807 1_556
Mn1 O5 1.965719 1_555
Mn1 O2 1.988418 1_655
Mn1 O3 1.988418 1_565
Mn1 O3 1.988426 1_555
Mn1 O2 1.988426 1_555
Mn1 O4 1.999807 1_555
