# generated using pymatgen
data_Ba3SrNd2(Cu3O7)2
_symmetry_space_group_name_H-M   'P 1'
_cell_length_a   3.90220100
_cell_length_b   3.91913000
_cell_length_c   23.59297500
_cell_angle_alpha   90.00000000
_cell_angle_beta   90.00000000
_cell_angle_gamma   90.00000000
_symmetry_Int_Tables_number   1
_chemical_formula_structural   Ba3SrNd2(Cu3O7)2
_chemical_formula_sum   'Ba3 Sr1 Nd2 Cu6 O14'
_cell_volume   360.81286396
_cell_formula_units_Z   1
loop_
 _symmetry_equiv_pos_site_id
 _symmetry_equiv_pos_as_xyz
  1  'x, y, z'
loop_
 _atom_site_type_symbol
 _atom_site_label
 _atom_site_symmetry_multiplicity
 _atom_site_fract_x
 _atom_site_fract_y
 _atom_site_fract_z
 _atom_site_occupancy
  Ba  Ba0  1  0.50000000  0.50000000  0.41095900  1
  Ba  Ba1  1  0.50000000  0.50000000  0.91023300  1
  Ba  Ba2  1  0.50000000  0.50000000  0.08956800  1
  Sr  Sr0  1  0.50000000  0.50000000  0.59044200  1
  Nd  Nd0  1  0.50000000  0.50000000  0.25010300  1
  Nd  Nd1  1  0.50000000  0.50000000  0.74911200  1
  Cu  Cu0  1  0.00000000  0.00000000  0.32650100  1
  Cu  Cu1  1  0.00000000  0.00000000  0.82619400  1
  Cu  Cu2  1  0.00000000  0.00000000  0.17359700  1
  Cu  Cu3  1  0.00000000  0.00000000  0.67209900  1
  Cu  Cu4  1  0.00000000  0.00000000  0.00004000  1
  Cu  Cu5  1  0.00000000  0.00000000  0.50110000  1
  O  O0  1  0.50000000  0.00000000  0.31447800  1
  O  O1  1  0.50000000  0.00000000  0.81294700  1
  O  O2  1  0.00000000  0.50000000  0.31365000  1
  O  O3  1  0.00000000  0.50000000  0.81411900  1
  O  O4  1  0.50000000  0.00000000  0.18658200  1
  O  O5  1  0.50000000  0.00000000  0.68359600  1
  O  O6  1  0.00000000  0.50000000  0.18531900  1
  O  O7  1  0.00000000  0.50000000  0.68420400  1
  O  O8  1  0.00000000  0.00000000  0.42098400  1
  O  O9  1  0.00000000  0.00000000  0.92034600  1
  O  O10  1  0.00000000  0.00000000  0.07966000  1
  O  O11  1  0.00000000  0.00000000  0.58099100  1
  O  O12  1  0.50000000  0.00000000  0.99993400  1
  O  O13  1  0.00000000  0.50000000  0.50323900  1
loop_
_geom_bond_atom_site_label_1
_geom_bond_atom_site_label_2
_geom_bond_distance
_geom_bond_site_symmetry_2
Ba0 O8 2.775361 1_555
Ba0 O8 2.775361 1_565
Ba0 O8 2.775361 1_655
Ba0 O8 2.775361 1_665
Ba0 O13 2.923494 1_655
Ba0 O13 2.923494 1_555
Ba0 O0 3.003551 1_555
Ba0 O0 3.003551 1_565
Ba0 O2 3.012894 1_655
Ba0 O2 3.012894 1_555
Ba1 O9 2.775539 1_555
Ba1 O9 2.775539 1_655
Ba1 O9 2.775539 1_565
Ba1 O9 2.775539 1_665
Ba1 O12 2.884212 1_555
Ba1 O12 2.884212 1_565
Ba1 O3 2.991467 1_655
Ba1 O3 2.991467 1_555
Ba1 O1 3.017970 1_555
Ba1 O1 3.017970 1_565
Ba2 O10 2.775127 1_665
Ba2 O10 2.775127 1_555
Ba2 O10 2.775127 1_655
Ba2 O10 2.775127 1_565
Ba2 O12 2.883052 1_564
Ba2 O12 2.883052 1_554
Ba2 O6 2.984980 1_655
Ba2 O6 2.984980 1_555
Ba2 O4 3.013092 1_555
Ba2 O4 3.013092 1_565
Nd0 O2 2.460606 1_655
Nd0 O2 2.460606 1_555
Nd0 O4 2.466951 1_555
Nd0 O4 2.466951 1_565
Nd0 O6 2.478496 1_555
Nd0 O6 2.478496 1_655
Nd0 O0 2.479242 1_555
Nd0 O0 2.479242 1_565
Nd1 O1 2.471458 1_555
Nd1 O1 2.471458 1_565
Nd1 O7 2.480302 1_555
Nd1 O7 2.480302 1_655
Nd1 O3 2.481744 1_555
Nd1 O3 2.481744 1_655
Nd1 O5 2.495824 1_555
Nd1 O5 2.495824 1_565
Cu0 O0 1.971612 1_455
Cu0 O0 1.971612 1_555
Cu0 O2 1.982882 1_555
Cu0 O2 1.982882 1_545
Cu0 O8 2.229135 1_555
Cu1 O1 1.975974 1_455
Cu1 O1 1.975974 1_555
Cu1 O3 1.980165 1_545
Cu1 O3 1.980165 1_555
Cu1 O9 2.221326 1_555
Cu2 O4 1.975005 1_455
Cu2 O4 1.975005 1_555
Cu2 O6 1.978984 1_545
Cu2 O6 1.978984 1_555
Cu2 O10 2.216253 1_555
Cu3 O5 1.969865 1_455
Cu3 O5 1.969865 1_555
Cu3 O7 1.980267 1_555
Cu3 O7 1.980267 1_545
Cu3 O11 2.149509 1_555
Cu4 O10 1.878473 1_555
Cu4 O9 1.880219 1_554
Cu4 O12 1.951102 1_454
Cu4 O12 1.951102 1_554
Cu5 O11 1.884866 1_555
Cu5 O8 1.890175 1_555
Cu5 O13 1.960215 1_545
Cu5 O13 1.960215 1_555
O5 Sr0 2.944509 1_555
O5 Sr0 2.944509 1_545
O7 Sr0 2.949625 1_555
O7 Sr0 2.949625 1_455
O11 Sr0 2.774240 1_545
O11 Sr0 2.774240 1_555
O11 Sr0 2.774240 1_445
O11 Sr0 2.774240 1_455
O13 Sr0 2.835419 1_455
O13 Sr0 2.835419 1_555
