# generated using pymatgen
data_Ba3Fe2P4(O6F5)2
_symmetry_space_group_name_H-M   'P 1'
_cell_length_a   7.44975157
_cell_length_b   7.44975157
_cell_length_c   30.63134275
_cell_angle_alpha   87.98491163
_cell_angle_beta   87.98491163
_cell_angle_gamma   38.47324162
_symmetry_Int_Tables_number   1
_chemical_formula_structural   Ba3Fe2P4(O6F5)2
_chemical_formula_sum   'Ba6 Fe4 P8 O24 F20'
_cell_volume   1056.92139377
_cell_formula_units_Z   2
loop_
 _symmetry_equiv_pos_site_id
 _symmetry_equiv_pos_as_xyz
  1  'x, y, z'
loop_
 _atom_site_type_symbol
 _atom_site_label
 _atom_site_symmetry_multiplicity
 _atom_site_fract_x
 _atom_site_fract_y
 _atom_site_fract_z
 _atom_site_occupancy
  Ba  Ba0  1  0.58330000  0.41670000  0.25000000  1
  Ba  Ba1  1  0.41670000  0.58330000  0.75000000  1
  Ba  Ba2  1  0.70724800  0.51867700  0.39247300  1
  Ba  Ba3  1  0.48132300  0.29275200  0.10752700  1
  Ba  Ba4  1  0.29275200  0.48132300  0.60752700  1
  Ba  Ba5  1  0.51867700  0.70724800  0.89247300  1
  Fe  Fe0  1  0.54460100  0.13010500  0.37667400  1
  Fe  Fe1  1  0.86989500  0.45539900  0.12332600  1
  Fe  Fe2  1  0.45539900  0.86989500  0.62332600  1
  Fe  Fe3  1  0.13010500  0.54460100  0.87667400  1
  P  P0  1  0.08467900  0.69251600  0.44728000  1
  P  P1  1  0.30748400  0.91532100  0.05272000  1
  P  P2  1  0.91532100  0.30748400  0.55272000  1
  P  P3  1  0.69251600  0.08467900  0.94728000  1
  P  P4  1  0.01407800  0.61286800  0.30757600  1
  P  P5  1  0.38713200  0.98592200  0.19242400  1
  P  P6  1  0.98592200  0.38713200  0.69242400  1
  P  P7  1  0.61286800  0.01407800  0.80757600  1
  O  O0  1  0.97003900  0.79512000  0.27420300  1
  O  O1  1  0.20488000  0.02996100  0.22579700  1
  O  O2  1  0.02996100  0.20488000  0.72579700  1
  O  O3  1  0.79512000  0.97003900  0.77420300  1
  O  O4  1  0.80102700  0.76049700  0.34697700  1
  O  O5  1  0.23950300  0.19897300  0.15302300  1
  O  O6  1  0.19897300  0.23950300  0.65302300  1
  O  O7  1  0.76049700  0.80102700  0.84697700  1
  O  O8  1  0.32839500  0.35695000  0.32398700  1
  O  O9  1  0.64305000  0.67160500  0.17601300  1
  O  O10  1  0.67160500  0.64305000  0.67601300  1
  O  O11  1  0.35695000  0.32839500  0.82398700  1
  O  O12  1  0.43470800  0.68988200  0.32408100  1
  O  O13  1  0.31011800  0.56529200  0.17591900  1
  O  O14  1  0.56529200  0.31011800  0.67591900  1
  O  O15  1  0.68988200  0.43470800  0.82408100  1
  O  O16  1  0.79592400  0.84632700  0.43636500  1
  O  O17  1  0.15367300  0.20407600  0.06363500  1
  O  O18  1  0.20407600  0.15367300  0.56363500  1
  O  O19  1  0.84632700  0.79592400  0.93636500  1
  O  O20  1  0.34680900  0.46782100  0.41875200  1
  O  O21  1  0.53217900  0.65319100  0.08124800  1
  O  O22  1  0.65319100  0.53217900  0.58124800  1
  O  O23  1  0.46782100  0.34680900  0.91875200  1
  F  F0  1  0.29369100  0.13032500  0.39891400  1
  F  F1  1  0.86967500  0.70630900  0.10108600  1
  F  F2  1  0.70630900  0.86967500  0.60108600  1
  F  F3  1  0.13032500  0.29369100  0.89891400  1
  F  F4  1  0.06823500  0.91322100  0.45674200  1
  F  F5  1  0.08677900  0.93176500  0.04325800  1
  F  F6  1  0.93176500  0.08677900  0.54325800  1
  F  F7  1  0.91322100  0.06823500  0.95674200  1
  F  F8  1  0.96540400  0.46168500  0.28605500  1
  F  F9  1  0.53831500  0.03459600  0.21394500  1
  F  F10  1  0.03459600  0.53831500  0.71394500  1
  F  F11  1  0.46168500  0.96540400  0.78605500  1
  F  F12  1  0.16269500  0.56139400  0.49504500  1
  F  F13  1  0.43860600  0.83730500  0.00495500  1
  F  F14  1  0.83730500  0.43860600  0.50495500  1
  F  F15  1  0.56139400  0.16269500  0.99504500  1
  F  F16  1  0.82168400  0.10226400  0.37103700  1
  F  F17  1  0.89773600  0.17831600  0.12896300  1
  F  F18  1  0.17831600  0.89773600  0.62896300  1
  F  F19  1  0.10226400  0.82168400  0.87103700  1
loop_
_geom_bond_atom_site_label_1
_geom_bond_atom_site_label_2
_geom_bond_distance
_geom_bond_site_symmetry_2
Ba0 O13 2.671529 1_555
Ba0 O12 2.671529 1_555
Ba0 O1 3.018535 1_565
Ba0 O0 3.018535 1_455
Ba0 O1 3.051560 1_655
Ba0 O0 3.051560 1_545
Ba0 O8 3.144901 1_555
Ba0 O9 3.144901 1_555
Ba0 F8 3.343036 1_555
Ba0 F9 3.343036 1_555
Ba1 O15 2.671529 1_555
Ba1 O14 2.671529 1_555
Ba1 O3 3.018535 1_545
Ba1 O2 3.018535 1_655
Ba1 O3 3.051560 1_455
Ba1 O2 3.051560 1_565
Ba1 O11 3.144901 1_555
Ba1 O10 3.144901 1_555
Ba1 F11 3.343036 1_555
Ba1 F10 3.343036 1_555
Ba2 O12 2.488835 1_555
Ba2 F16 2.596976 1_555
Ba2 O4 2.720528 1_555
Ba2 F0 2.779450 1_655
Ba2 F0 2.886646 1_565
Ba3 O13 2.488835 1_555
Ba3 F17 2.596976 1_555
Ba3 O5 2.720528 1_555
Ba3 F1 2.779450 1_545
Ba3 F1 2.886646 1_455
Ba4 O14 2.488835 1_555
Ba4 F18 2.596976 1_555
Ba4 O6 2.720528 1_555
Ba4 F2 2.779450 1_455
Ba4 F2 2.886646 1_545
Ba5 O15 2.488835 1_555
Ba5 F19 2.596976 1_555
Ba5 O7 2.720528 1_555
Ba5 F3 2.779450 1_565
Ba5 F3 2.886646 1_655
Fe0 O8 1.945187 1_555
Fe0 O4 1.968827 1_545
Fe0 O20 2.109983 1_555
Fe0 O16 2.255908 1_545
Fe1 O9 1.945187 1_555
Fe1 O5 1.968827 1_655
Fe1 O21 2.109983 1_555
Fe1 O17 2.255908 1_655
Fe2 O10 1.945187 1_555
Fe2 O6 1.968827 1_565
Fe2 O22 2.109983 1_555
Fe2 O18 2.255908 1_565
Fe3 O11 1.945187 1_555
Fe3 O7 1.968827 1_455
Fe3 O23 2.109983 1_555
Fe3 O19 2.255908 1_455
O0 P4 1.491506 1_655
O1 P5 1.491506 1_545
O2 P6 1.491506 1_455
O3 P7 1.491506 1_565
O4 P4 1.552651 1_655
O5 P5 1.552651 1_545
O6 P6 1.552651 1_455
O7 P7 1.552651 1_565
O8 P4 1.547824 1_555
O9 P5 1.547824 1_555
O10 P6 1.547824 1_555
O11 P7 1.547824 1_555
O16 P0 1.488730 1_655
O17 P1 1.488730 1_545
O18 P2 1.488730 1_455
O19 P3 1.488730 1_565
O20 P0 1.497862 1_555
O21 P1 1.497862 1_555
O22 P2 1.497862 1_555
O23 P3 1.497862 1_555
F0 Fe0 1.965654 1_555
F1 Fe1 1.965654 1_555
F2 Fe2 1.965654 1_555
F3 Fe3 1.965654 1_555
F4 P0 1.586830 1_555
F5 P1 1.586830 1_555
F6 P2 1.586830 1_555
F7 P3 1.586830 1_555
F8 P4 1.594692 1_655
F9 P5 1.594692 1_545
F10 P6 1.594692 1_455
F11 P7 1.594692 1_565
F12 P0 1.582088 1_555
F13 P1 1.582088 1_555
F14 P2 1.582088 1_555
F15 P3 1.582088 1_555
F16 Fe0 1.908098 1_555
F17 Fe1 1.908098 1_555
F18 Fe2 1.908098 1_555
F19 Fe3 1.908098 1_555
