# generated using pymatgen
data_Li2Fe(CoO3)2
_symmetry_space_group_name_H-M   'P 1'
_cell_length_a   5.02034831
_cell_length_b   10.10076882
_cell_length_c   5.02825139
_cell_angle_alpha   85.61931569
_cell_angle_beta   59.67339144
_cell_angle_gamma   80.35016814
_symmetry_Int_Tables_number   1
_chemical_formula_structural   Li2Fe(CoO3)2
_chemical_formula_sum   'Li4 Fe2 Co4 O12'
_cell_volume   216.96407000
_cell_formula_units_Z   2
loop_
 _symmetry_equiv_pos_site_id
 _symmetry_equiv_pos_as_xyz
  1  'x, y, z'
loop_
 _atom_site_type_symbol
 _atom_site_label
 _atom_site_symmetry_multiplicity
 _atom_site_fract_x
 _atom_site_fract_y
 _atom_site_fract_z
 _atom_site_occupancy
  Li  Li0  1  0.06443200  0.75166900  0.66175500  1
  Li  Li1  1  0.27061800  0.24905800  0.67107700  1
  Li  Li2  1  0.73470800  0.75295500  0.35911600  1
  Li  Li3  1  0.91644000  0.24540500  0.35372900  1
  Fe  Fe0  1  0.00630800  0.99959700  0.99498100  1
  Fe  Fe1  1  0.49855700  0.50029200  0.00292100  1
  Co  Co0  1  0.16489800  0.50017400  0.66851400  1
  Co  Co1  1  0.66690600  0.00054600  0.66119700  1
  Co  Co2  1  0.34200000  0.99893400  0.31974500  1
  Co  Co3  1  0.83259500  0.49992700  0.33405900  1
  O  O0  1  0.10849700  0.60359800  0.00913000  1
  O  O1  1  0.30942600  0.10779500  0.97599400  1
  O  O2  1  0.70247200  0.89646800  0.98138000  1
  O  O3  1  0.88308800  0.39629300  0.00481400  1
  O  O4  1  0.00946600  0.89101500  0.35252300  1
  O  O5  1  0.17965100  0.39625400  0.34946900  1
  O  O6  1  0.46792300  0.60430000  0.35251200  1
  O  O7  1  0.63307500  0.10794300  0.35654000  1
  O  O8  1  0.96599800  0.10295400  0.64488400  1
  O  O9  1  0.39123000  0.89410600  0.64996700  1
  O  O10  1  0.53930700  0.39698800  0.64631200  1
  O  O11  1  0.81240500  0.60372900  0.64938000  1
loop_
_geom_bond_atom_site_label_1
_geom_bond_atom_site_label_2
_geom_bond_distance
_geom_bond_site_symmetry_2
Li0 O4 2.108001 1_555
Li0 O2 2.131431 1_455
Li0 O11 2.136654 1_455
Li0 O6 2.213323 1_555
Li0 O0 2.284070 1_556
Li0 O9 2.333505 1_555
Li1 O1 2.073369 1_555
Li1 O7 2.100658 1_555
Li1 O10 2.131992 1_555
Li1 O3 2.219714 1_456
Li1 O5 2.277076 1_555
Li1 O8 2.350254 1_455
Li2 O9 2.023023 1_555
Li2 O4 2.107153 1_655
Li2 O11 2.143836 1_555
Li2 O6 2.185478 1_555
Li2 O0 2.239615 1_655
Li2 O2 2.355037 1_554
Li3 O8 2.049767 1_555
Li3 O7 2.142595 1_555
Li3 O10 2.157020 1_555
Li3 O5 2.170174 1_655
Li3 O1 2.265325 1_654
Li3 O3 2.287253 1_555
Fe0 O1 1.978423 1_565
Fe0 O2 2.016293 1_455
Fe0 O9 2.021360 1_555
Fe0 O4 2.038872 1_556
Fe0 O7 2.046992 1_466
Fe0 O8 2.058630 1_465
Fe1 O3 2.041445 1_555
Fe1 O5 2.042296 1_555
Fe1 O6 2.042607 1_555
Fe1 O11 2.043025 1_554
Fe1 O0 2.045163 1_555
Fe1 O10 2.046883 1_554
Co0 O11 1.941897 1_455
Co0 O3 1.942351 1_456
Co0 O10 1.944473 1_555
Co0 O6 1.945580 1_555
Co0 O0 1.946604 1_556
Co0 O5 1.947324 1_555
Co1 O7 1.870676 1_555
Co1 O4 1.876033 1_645
Co1 O1 1.908221 1_555
Co1 O9 1.913517 1_545
Co1 O2 1.922975 1_545
Co1 O8 1.927362 1_555
Co2 O2 1.942328 1_554
Co2 O8 1.954739 1_465
Co2 O9 1.999350 1_555
Co2 O1 2.039175 1_564
Co2 O7 2.055615 1_565
Co2 O4 2.075381 1_555
Co3 O0 1.903690 1_655
Co3 O10 1.908804 1_555
Co3 O5 1.910654 1_655
Co3 O3 1.911220 1_555
Co3 O6 1.915237 1_555
Co3 O11 1.918194 1_555
