# generated using pymatgen
data_K4Cd3(PO4)6
_symmetry_space_group_name_H-M   'P 1'
_cell_length_a   6.76311100
_cell_length_b   9.28131800
_cell_length_c   20.72533682
_cell_angle_alpha   65.88509076
_cell_angle_beta   90.00000000
_cell_angle_gamma   90.00000000
_symmetry_Int_Tables_number   1
_chemical_formula_structural   K4Cd3(PO4)6
_chemical_formula_sum   'K8 Cd6 P12 O48'
_cell_volume   1187.40558726
_cell_formula_units_Z   2
loop_
 _symmetry_equiv_pos_site_id
 _symmetry_equiv_pos_as_xyz
  1  'x, y, z'
loop_
 _atom_site_type_symbol
 _atom_site_label
 _atom_site_symmetry_multiplicity
 _atom_site_fract_x
 _atom_site_fract_y
 _atom_site_fract_z
 _atom_site_occupancy
  K  K0  1  0.99142200  0.30110300  0.68762700  1
  K  K1  1  0.50857800  0.30110300  0.18762700  1
  K  K2  1  0.00857800  0.69889700  0.31237300  1
  K  K3  1  0.49142200  0.69889700  0.81237300  1
  K  K4  1  0.00882100  0.10684500  0.37316900  1
  K  K5  1  0.49117900  0.10684500  0.87316900  1
  K  K6  1  0.99117900  0.89315500  0.62683100  1
  K  K7  1  0.50882100  0.89315500  0.12683100  1
  Cd  Cd0  1  0.50000000  0.00000000  0.50000000  1
  Cd  Cd1  1  0.00000000  0.00000000  0.00000000  1
  Cd  Cd2  1  0.68311800  0.62875300  0.50701900  1
  Cd  Cd3  1  0.81688200  0.62875300  0.00701900  1
  Cd  Cd4  1  0.31688200  0.37124700  0.49298100  1
  Cd  Cd5  1  0.18311800  0.37124700  0.99298100  1
  P  P0  1  0.57385600  0.91540200  0.34871400  1
  P  P1  1  0.92614400  0.91540200  0.84871400  1
  P  P2  1  0.42614400  0.08459800  0.65128600  1
  P  P3  1  0.07385600  0.08459800  0.15128600  1
  P  P4  1  0.60522300  0.62712800  0.65276300  1
  P  P5  1  0.89477700  0.62712800  0.15276300  1
  P  P6  1  0.39477700  0.37287200  0.34723700  1
  P  P7  1  0.10522300  0.37287200  0.84723700  1
  P  P8  1  0.16340400  0.69639900  0.51489400  1
  P  P9  1  0.33659600  0.69639900  0.01489400  1
  P  P10  1  0.83659600  0.30360100  0.48510600  1
  P  P11  1  0.66340400  0.30360100  0.98510600  1
  O  O0  1  0.21498900  0.87026400  0.49871400  1
  O  O1  1  0.28501100  0.87026400  0.99871400  1
  O  O2  1  0.78501100  0.12973600  0.50128600  1
  O  O3  1  0.71498900  0.12973600  0.00128600  1
  O  O4  1  0.63130400  0.89845600  0.42481700  1
  O  O5  1  0.86869600  0.89845600  0.92481700  1
  O  O6  1  0.36869600  0.10154400  0.57518300  1
  O  O7  1  0.13130400  0.10154400  0.07518300  1
  O  O8  1  0.63896100  0.76879500  0.57923300  1
  O  O9  1  0.86103900  0.76879500  0.07923300  1
  O  O10  1  0.36103900  0.23120500  0.42076700  1
  O  O11  1  0.13896100  0.23120500  0.92076700  1
  O  O12  1  0.99130700  0.69211700  0.46598800  1
  O  O13  1  0.50869300  0.69211700  0.96598800  1
  O  O14  1  0.00869300  0.30788300  0.53401200  1
  O  O15  1  0.49130700  0.30788300  0.03401200  1
  O  O16  1  0.65635700  0.39263100  0.49921500  1
  O  O17  1  0.84364300  0.39263100  0.99921500  1
  O  O18  1  0.34364300  0.60736900  0.50078500  1
  O  O19  1  0.15635700  0.60736900  0.00078500  1
  O  O20  1  0.65713200  0.47878500  0.64059700  1
  O  O21  1  0.84286800  0.47878500  0.14059700  1
  O  O22  1  0.34286800  0.52121500  0.35940300  1
  O  O23  1  0.15713200  0.52121500  0.85940300  1
  O  O24  1  0.62325600  0.75916400  0.34253400  1
  O  O25  1  0.87674400  0.75916400  0.84253400  1
  O  O26  1  0.37674400  0.24083600  0.65746600  1
  O  O27  1  0.12325600  0.24083600  0.15746600  1
  O  O28  1  0.35545400  0.96445000  0.33563600  1
  O  O29  1  0.14454600  0.96445000  0.83563600  1
  O  O30  1  0.64454600  0.03555000  0.66436400  1
  O  O31  1  0.85545400  0.03555000  0.16436400  1
  O  O32  1  0.71372000  0.03709600  0.29458800  1
  O  O33  1  0.78628000  0.03709600  0.79458800  1
  O  O34  1  0.28628000  0.96290400  0.70541200  1
  O  O35  1  0.21372000  0.96290400  0.20541200  1
  O  O36  1  0.39135800  0.63063800  0.67939700  1
  O  O37  1  0.10864200  0.63063800  0.17939700  1
  O  O38  1  0.60864200  0.36936200  0.32060300  1
  O  O39  1  0.89135800  0.36936200  0.82060300  1
  O  O40  1  0.73706500  0.64739200  0.70932000  1
  O  O41  1  0.76293500  0.64739200  0.20932000  1
  O  O42  1  0.26293500  0.35260800  0.29068000  1
  O  O43  1  0.23706500  0.35260800  0.79068000  1
  O  O44  1  0.09067100  0.61549000  0.59225000  1
  O  O45  1  0.40932900  0.61549000  0.09225000  1
  O  O46  1  0.90932900  0.38451000  0.40775000  1
  O  O47  1  0.59067100  0.38451000  0.90775000  1
loop_
_geom_bond_atom_site_label_1
_geom_bond_atom_site_label_2
_geom_bond_distance
_geom_bond_site_symmetry_2
K0 O20 2.732689 1_555
K0 O26 2.789345 1_655
K0 O44 2.856412 1_655
K0 O43 2.895589 1_655
K0 O33 2.899071 1_555
K0 O39 3.143478 1_555
K0 O14 3.160694 1_655
K1 O21 2.732689 1_555
K1 O27 2.789345 1_555
K1 O45 2.856412 1_555
K1 O42 2.895589 1_555
K1 O32 2.899071 1_555
K1 O38 3.143478 1_555
K1 O15 3.160694 1_555
K2 O22 2.732689 1_555
K2 O24 2.789345 1_455
K2 O46 2.856412 1_455
K2 O41 2.895589 1_455
K2 O35 2.899071 1_555
K2 O37 3.143478 1_555
K2 O12 3.160694 1_455
K3 O23 2.732689 1_555
K3 O25 2.789345 1_555
K3 O47 2.856412 1_555
K3 O40 2.895589 1_555
K3 O34 2.899071 1_555
K3 O36 3.143478 1_555
K3 O13 3.160694 1_555
K4 O42 2.809415 1_555
K4 O32 2.813575 1_455
K4 O28 2.947483 1_545
K4 O0 2.977796 1_545
K4 O10 2.984987 1_555
K4 O46 3.019456 1_455
K4 O4 3.116677 1_445
K4 O2 3.138105 1_455
K5 O43 2.809415 1_555
K5 O33 2.813575 1_555
K5 O29 2.947483 1_545
K5 O1 2.977796 1_545
K5 O11 2.984987 1_555
K5 O47 3.019456 1_555
K5 O5 3.116677 1_545
K5 O3 3.138105 1_556
K6 O40 2.809415 1_555
K6 O34 2.813575 1_655
K6 O30 2.947483 1_565
K6 O2 2.977796 1_565
K6 O8 2.984987 1_555
K6 O44 3.019456 1_655
K6 O6 3.116677 1_665
K6 O0 3.138105 1_655
K7 O41 2.809415 1_555
K7 O35 2.813575 1_555
K7 O31 2.947483 1_565
K7 O3 2.977796 1_565
K7 O9 2.984987 1_555
K7 O45 3.019456 1_555
K7 O7 3.116677 1_565
K7 O1 3.138105 1_554
Cd0 O2 2.278669 1_555
Cd0 O0 2.278669 1_545
Cd0 O6 2.303211 1_555
Cd0 O4 2.303211 1_545
Cd0 O8 2.303306 1_545
Cd0 O10 2.303306 1_555
Cd1 O3 2.278669 1_455
Cd1 O1 2.278669 1_544
Cd1 O7 2.303211 1_555
Cd1 O5 2.303211 1_444
Cd1 O11 2.303306 1_554
Cd1 O9 2.303306 1_445
Cd2 O12 2.237125 1_555
Cd2 O16 2.269655 1_555
Cd2 O18 2.312623 1_555
Cd2 O8 2.368159 1_555
Cd2 O4 2.409670 1_555
Cd2 O20 2.546336 1_555
Cd3 O13 2.237125 1_554
Cd3 O17 2.269655 1_554
Cd3 O19 2.312623 1_655
Cd3 O9 2.368159 1_555
Cd3 O5 2.409670 1_554
Cd3 O21 2.546336 1_555
Cd4 O14 2.237125 1_555
Cd4 O18 2.269655 1_555
Cd4 O16 2.312623 1_555
Cd4 O10 2.368159 1_555
Cd4 O6 2.409670 1_555
Cd4 O22 2.546336 1_555
Cd5 O15 2.237125 1_556
Cd5 O19 2.269655 1_556
Cd5 O17 2.312623 1_455
Cd5 O11 2.368159 1_555
Cd5 O7 2.409670 1_556
Cd5 O23 2.546336 1_555
O0 P8 1.547903 1_555
O1 P9 1.547903 1_556
O2 P10 1.547903 1_555
O3 P11 1.547903 1_554
O4 P0 1.568672 1_555
O5 P1 1.568672 1_555
O6 P2 1.568672 1_555
O7 P3 1.568672 1_555
O8 P4 1.570333 1_555
O9 P5 1.570333 1_555
O10 P6 1.570333 1_555
O11 P7 1.570333 1_555
O12 P8 1.554528 1_655
O13 P9 1.554528 1_556
O14 P10 1.554528 1_455
O15 P11 1.554528 1_554
O16 P10 1.565774 1_555
O17 P11 1.565774 1_555
O18 P8 1.565774 1_555
O19 P9 1.565774 1_555
O20 P4 1.538222 1_555
O21 P5 1.538222 1_555
O22 P6 1.538222 1_555
O23 P7 1.538222 1_555
O24 P0 1.543557 1_555
O25 P1 1.543557 1_555
O26 P2 1.543557 1_555
O27 P3 1.543557 1_555
O28 P0 1.536760 1_555
O29 P1 1.536760 1_455
O30 P2 1.536760 1_555
O31 P3 1.536760 1_655
O32 P0 1.547106 1_545
O33 P1 1.547106 1_545
O34 P2 1.547106 1_565
O35 P3 1.547106 1_565
O36 P4 1.553226 1_555
O37 P5 1.553226 1_455
O38 P6 1.553226 1_555
O39 P7 1.553226 1_655
O40 P4 1.544196 1_555
O41 P5 1.544196 1_555
O42 P6 1.544196 1_555
O43 P7 1.544196 1_555
O44 P8 1.546754 1_555
O45 P9 1.546754 1_555
O46 P10 1.546754 1_555
O47 P11 1.546754 1_555
