# generated using pymatgen
data_CuAg(AsO4)2
_symmetry_space_group_name_H-M   'P 1'
_cell_length_a   7.55811200
_cell_length_b   9.14767800
_cell_length_c   9.57311105
_cell_angle_alpha   74.83214971
_cell_angle_beta   90.00000000
_cell_angle_gamma   90.00000000
_symmetry_Int_Tables_number   1
_chemical_formula_structural   CuAg(AsO4)2
_chemical_formula_sum   'Cu4 Ag4 As8 O32'
_cell_volume   638.81949544
_cell_formula_units_Z   4
loop_
 _symmetry_equiv_pos_site_id
 _symmetry_equiv_pos_as_xyz
  1  'x, y, z'
loop_
 _atom_site_type_symbol
 _atom_site_label
 _atom_site_symmetry_multiplicity
 _atom_site_fract_x
 _atom_site_fract_y
 _atom_site_fract_z
 _atom_site_occupancy
  Cu  Cu0  1  0.31961300  0.60975200  0.99572500  1
  Cu  Cu1  1  0.81961300  0.39024800  0.50427500  1
  Cu  Cu2  1  0.68038700  0.39024800  0.00427500  1
  Cu  Cu3  1  0.18038700  0.60975200  0.49572500  1
  Ag  Ag0  1  0.75026200  0.79649200  0.49011500  1
  Ag  Ag1  1  0.25026200  0.20350800  0.00988500  1
  Ag  Ag2  1  0.24973800  0.20350800  0.50988500  1
  Ag  Ag3  1  0.74973800  0.79649200  0.99011500  1
  As  As0  1  0.20780200  0.94360600  0.33200200  1
  As  As1  1  0.70780200  0.05639400  0.16799800  1
  As  As2  1  0.79219800  0.05639400  0.66799800  1
  As  As3  1  0.29219800  0.94360600  0.83200200  1
  As  As4  1  0.00859300  0.51477700  0.80969900  1
  As  As5  1  0.50859300  0.48522300  0.69030100  1
  As  As6  1  0.99140700  0.48522300  0.19030100  1
  As  As7  1  0.49140700  0.51477700  0.30969900  1
  O  O0  1  0.40572600  0.91341400  0.42186900  1
  O  O1  1  0.90572600  0.08658600  0.07813100  1
  O  O2  1  0.59427400  0.08658600  0.57813100  1
  O  O3  1  0.09427400  0.91341400  0.92186900  1
  O  O4  1  0.06208300  0.78923300  0.39534800  1
  O  O5  1  0.56208300  0.21076700  0.10465200  1
  O  O6  1  0.93791700  0.21076700  0.60465200  1
  O  O7  1  0.43791700  0.78923300  0.89534800  1
  O  O8  1  0.26069000  0.97336600  0.15014800  1
  O  O9  1  0.76069000  0.02663400  0.34985200  1
  O  O10  1  0.73931000  0.02663400  0.84985200  1
  O  O11  1  0.23931000  0.97336600  0.65014800  1
  O  O12  1  0.11390100  0.11024100  0.35270500  1
  O  O13  1  0.61390100  0.88975900  0.14729500  1
  O  O14  1  0.88609900  0.88975900  0.64729500  1
  O  O15  1  0.38609900  0.11024100  0.85270500  1
  O  O16  1  0.04780200  0.32631900  0.86508200  1
  O  O17  1  0.54780200  0.67368100  0.63491800  1
  O  O18  1  0.95219800  0.67368100  0.13491800  1
  O  O19  1  0.45219800  0.32631900  0.36508200  1
  O  O20  1  0.17104000  0.63889800  0.83665700  1
  O  O21  1  0.67104000  0.36110200  0.66334300  1
  O  O22  1  0.82896000  0.36110200  0.16334300  1
  O  O23  1  0.32896000  0.63889800  0.33665700  1
  O  O24  1  0.98089800  0.57824700  0.62116500  1
  O  O25  1  0.48089800  0.42175300  0.87883500  1
  O  O26  1  0.01910200  0.42175300  0.37883500  1
  O  O27  1  0.51910200  0.57824700  0.12116500  1
  O  O28  1  0.80792100  0.55695000  0.88687400  1
  O  O29  1  0.30792100  0.44305000  0.61312600  1
  O  O30  1  0.19207900  0.44305000  0.11312600  1
  O  O31  1  0.69207900  0.55695000  0.38687400  1
loop_
_geom_bond_atom_site_label_1
_geom_bond_atom_site_label_2
_geom_bond_distance
_geom_bond_site_symmetry_2
Cu0 O20 1.854305 1_555
Cu0 O7 1.895498 1_555
Cu0 O27 1.901930 1_556
Cu0 O30 1.902851 1_556
Cu1 O21 1.854305 1_555
Cu1 O6 1.895498 1_555
Cu1 O26 1.901930 1_655
Cu1 O31 1.902851 1_555
Cu2 O22 1.854305 1_555
Cu2 O5 1.895498 1_555
Cu2 O25 1.901930 1_554
Cu2 O28 1.902851 1_554
Cu3 O23 1.854305 1_555
Cu3 O4 1.895498 1_555
Cu3 O24 1.901930 1_455
Cu3 O29 1.902851 1_555
Ag0 O17 2.170327 1_555
Ag0 O14 2.172069 1_555
Ag0 O9 2.182215 1_565
Ag0 O4 2.532464 1_655
Ag0 O31 2.665536 1_555
Ag0 O24 2.699565 1_555
Ag0 O0 2.825982 1_555
Ag1 O16 2.170327 1_554
Ag1 O15 2.172069 1_554
Ag1 O8 2.182215 1_545
Ag1 O5 2.532464 1_555
Ag1 O30 2.665536 1_555
Ag1 O25 2.699565 1_554
Ag1 O1 2.825982 1_455
Ag2 O19 2.170327 1_555
Ag2 O12 2.172069 1_555
Ag2 O11 2.182215 1_545
Ag2 O6 2.532464 1_455
Ag2 O29 2.665536 1_555
Ag2 O26 2.699565 1_555
Ag2 O2 2.825982 1_555
Ag3 O18 2.170327 1_556
Ag3 O13 2.172069 1_556
Ag3 O10 2.182215 1_565
Ag3 O7 2.532464 1_555
Ag3 O28 2.665536 1_555
Ag3 O27 2.699565 1_556
Ag3 O3 2.825982 1_655
As0 O0 1.711689 1_555
As0 O8 1.736851 1_555
As0 O12 1.739146 1_565
As0 O4 1.768274 1_555
As1 O1 1.711689 1_555
As1 O9 1.736851 1_555
As1 O13 1.739146 1_545
As1 O5 1.768274 1_555
As2 O2 1.711689 1_555
As2 O10 1.736851 1_555
As2 O14 1.739146 1_545
As2 O6 1.768274 1_555
As3 O3 1.711689 1_555
As3 O11 1.736851 1_555
As3 O15 1.739146 1_565
As3 O7 1.768274 1_555
As4 O16 1.691932 1_555
As4 O20 1.736833 1_555
As4 O24 1.757857 1_455
As4 O28 1.773188 1_455
As5 O17 1.691932 1_555
As5 O21 1.736833 1_555
As5 O25 1.757857 1_555
As5 O29 1.773188 1_555
As6 O18 1.691932 1_555
As6 O22 1.736833 1_555
As6 O26 1.757857 1_655
As6 O30 1.773188 1_655
As7 O19 1.691932 1_555
As7 O23 1.736833 1_555
As7 O27 1.757857 1_555
As7 O31 1.773188 1_555
