# generated using pymatgen
data_Li9Mn2Co5O16
_symmetry_space_group_name_H-M   'P 1'
_cell_length_a   5.90262700
_cell_length_b   5.91421603
_cell_length_c   8.12827634
_cell_angle_alpha   90.86845696
_cell_angle_beta   90.74259904
_cell_angle_gamma   92.98716405
_symmetry_Int_Tables_number   1
_chemical_formula_structural   Li9Mn2Co5O16
_chemical_formula_sum   'Li9 Mn2 Co5 O16'
_cell_volume   283.30837050
_cell_formula_units_Z   1
loop_
 _symmetry_equiv_pos_site_id
 _symmetry_equiv_pos_as_xyz
  1  'x, y, z'
loop_
 _atom_site_type_symbol
 _atom_site_label
 _atom_site_symmetry_multiplicity
 _atom_site_fract_x
 _atom_site_fract_y
 _atom_site_fract_z
 _atom_site_occupancy
  Li  Li0  1  0.00523600  0.49621400  0.00374600  1
  Li  Li1  1  0.25102200  0.74938600  0.25141600  1
  Li  Li2  1  0.25143900  0.25055900  0.75020400  1
  Li  Li3  1  0.49419000  0.49640000  0.00765800  1
  Li  Li4  1  0.49716100  0.00337200  0.49623700  1
  Li  Li5  1  0.74822100  0.24851700  0.74882700  1
  Li  Li6  1  0.74993000  0.74845600  0.24978300  1
  Li  Li7  1  0.00432300  0.00363800  0.49213900  1
  Li  Li8  1  0.24995900  0.25203200  0.24978400  1
  Mn  Mn0  1  0.00086100  0.00294300  0.00344400  1
  Mn  Mn1  1  0.00478400  0.49491200  0.49926400  1
  Co  Co0  1  0.50038200  0.49790900  0.49611600  1
  Co  Co1  1  0.74882900  0.74886900  0.74977800  1
  Co  Co2  1  0.49430800  0.00801400  0.00618000  1
  Co  Co3  1  0.75247400  0.25236100  0.25071800  1
  Co  Co4  1  0.24701300  0.75156300  0.74909700  1
  O  O0  1  0.74976100  0.76622300  0.98694400  1
  O  O1  1  0.00231000  0.99627600  0.23346800  1
  O  O2  1  0.01466300  0.51272400  0.73931400  1
  O  O3  1  0.23098200  0.76999500  0.98972900  1
  O  O4  1  0.24136300  0.28476000  0.50111400  1
  O  O5  1  0.51315000  0.51380200  0.73769400  1
  O  O6  1  0.52089800  0.01388500  0.24012500  1
  O  O7  1  0.76705200  0.25476100  0.49295200  1
  O  O8  1  0.24509600  0.23025400  0.99743900  1
  O  O9  1  0.50095500  0.49841000  0.26662100  1
  O  O10  1  0.48404900  0.98511500  0.75740400  1
  O  O11  1  0.77000700  0.23260700  0.00684400  1
  O  O12  1  0.76068700  0.71773500  0.51147400  1
  O  O13  1  0.98102300  0.98751600  0.76067100  1
  O  O14  1  0.98279000  0.48613900  0.26357400  1
  O  O15  1  0.23508200  0.74465100  0.51024200  1
loop_
_geom_bond_atom_site_label_1
_geom_bond_atom_site_label_2
_geom_bond_distance
_geom_bond_site_symmetry_2
Li0 O11 2.033602 1_455
Li0 O3 2.048167 1_554
Li0 O14 2.119363 1_455
Li0 O2 2.154378 1_554
Li0 O8 2.170905 1_554
Li0 O0 2.257200 1_454
Li1 O15 2.107675 1_555
Li1 O1 2.129051 1_555
Li1 O3 2.134500 1_554
Li1 O9 2.150339 1_555
Li1 O14 2.166163 1_455
Li1 O6 2.177492 1_565
Li2 O8 2.015711 1_555
Li2 O4 2.038209 1_555
Li2 O10 2.139743 1_545
Li2 O5 2.139804 1_555
Li2 O2 2.142891 1_555
Li2 O13 2.173451 1_445
Li3 O8 2.097138 1_554
Li3 O9 2.104626 1_555
Li3 O0 2.148120 1_554
Li3 O5 2.202332 1_554
Li3 O3 2.305755 1_554
Li3 O11 2.312848 1_555
Li4 O6 2.089917 1_555
Li4 O7 2.122381 1_555
Li4 O15 2.123787 1_545
Li4 O10 2.129419 1_545
Li4 O4 2.304837 1_555
Li4 O12 2.358798 1_545
Li5 O7 2.085012 1_555
Li5 O11 2.103338 1_556
Li5 O13 2.121896 1_545
Li5 O10 2.148495 1_545
Li5 O5 2.150117 1_555
Li5 O2 2.161417 1_655
Li6 O9 2.037214 1_555
Li6 O1 2.041670 1_655
Li6 O6 2.126083 1_565
Li6 O14 2.128882 1_555
Li6 O12 2.137990 1_555
Li6 O0 2.140591 1_554
Li7 O7 2.093812 1_455
Li7 O1 2.102207 1_545
Li7 O15 2.107636 1_545
Li7 O4 2.116243 1_555
Li7 O12 2.170807 1_445
Li7 O13 2.192013 1_445
Li8 O9 2.024997 1_555
Li8 O1 2.049581 1_545
Li8 O4 2.050639 1_555
Li8 O8 2.052956 1_554
Li8 O14 2.154980 1_455
Li8 O6 2.186818 1_555
Mn0 O1 1.870630 1_545
Mn0 O8 1.920889 1_554
Mn0 O11 1.973636 1_455
Mn0 O13 1.975725 1_444
Mn0 O0 1.986877 1_444
Mn0 O3 1.987420 1_544
Mn1 O4 1.917274 1_555
Mn1 O14 1.918201 1_455
Mn1 O7 1.943500 1_455
Mn1 O2 1.952391 1_555
Mn1 O15 1.954735 1_555
Mn1 O12 2.005016 1_455
Co0 O9 1.865493 1_555
Co0 O4 1.931472 1_555
Co0 O12 1.961768 1_555
Co0 O5 1.964719 1_555
Co0 O7 2.186797 1_555
Co0 O15 2.198341 1_555
Co1 O5 1.915303 1_555
Co1 O13 1.915670 1_555
Co1 O0 1.928848 1_555
Co1 O12 1.945462 1_555
Co1 O10 2.150853 1_555
Co1 O2 2.155958 1_655
Co2 O6 1.905650 1_555
Co2 O8 2.024382 1_554
Co2 O10 2.024512 1_544
Co2 O3 2.043587 1_544
Co2 O11 2.046195 1_555
Co2 O0 2.137058 1_544
Co3 O14 1.888580 1_555
Co3 O6 1.912435 1_555
Co3 O7 1.969514 1_555
Co3 O11 1.988299 1_555
Co3 O9 2.136076 1_555
Co3 O1 2.172535 1_645
Co4 O10 1.913992 1_555
Co4 O2 1.916875 1_555
Co4 O15 1.941577 1_555
Co4 O3 1.961092 1_555
Co4 O13 2.156254 1_455
Co4 O5 2.164187 1_555
