# generated using pymatgen
data_BaCa(SnO3)4
_symmetry_space_group_name_H-M   'P 1'
_cell_length_a   5.80842052
_cell_length_b   5.80842052
_cell_length_c   8.17261522
_cell_angle_alpha   90.00000000
_cell_angle_beta   90.00000000
_cell_angle_gamma   89.94865430
_symmetry_Int_Tables_number   1
_chemical_formula_structural   BaCa(SnO3)4
_chemical_formula_sum   'Ba1 Ca1 Sn4 O12'
_cell_volume   275.72552969
_cell_formula_units_Z   1
loop_
 _symmetry_equiv_pos_site_id
 _symmetry_equiv_pos_as_xyz
  1  'x, y, z'
loop_
 _atom_site_type_symbol
 _atom_site_label
 _atom_site_symmetry_multiplicity
 _atom_site_fract_x
 _atom_site_fract_y
 _atom_site_fract_z
 _atom_site_occupancy
  Ba  Ba0  1  0.51375120  0.51375120  -0.00000000  1
  Ca  Ca0  1  0.97915495  0.97915495  0.50000000  1
  Sn  Sn0  1  0.49191234  0.00520443  0.74596443  1
  Sn  Sn1  1  0.49191234  0.00520443  0.25403557  1
  Sn  Sn2  1  0.00520443  0.49191234  0.25403557  1
  Sn  Sn3  1  0.00520443  0.49191234  0.74596443  1
  O  O0  1  0.72829382  0.27145591  0.74632105  1
  O  O1  1  0.27145591  0.72829382  0.74632105  1
  O  O2  1  0.27145591  0.72829382  0.25367895  1
  O  O3  1  0.72829382  0.27145591  0.25367895  1
  O  O4  1  0.77025489  0.77025489  0.75691975  1
  O  O5  1  0.21011135  0.21011135  0.70001378  1
  O  O6  1  0.21011135  0.21011135  0.29998622  1
  O  O7  1  0.77025489  0.77025489  0.24308025  1
  O  O8  1  0.48205159  0.01958873  -0.00000000  1
  O  O9  1  0.56773781  0.98465023  0.50000000  1
  O  O10  1  0.01958873  0.48205159  -0.00000000  1
  O  O11  1  0.98465023  0.56773781  0.50000000  1
loop_
_geom_bond_atom_site_label_1
_geom_bond_atom_site_label_2
_geom_bond_distance
_geom_bond_site_symmetry_2
Ba0 O1 2.797971 1_554
Ba0 O2 2.797971 1_555
Ba0 O3 2.797971 1_555
Ba0 O0 2.797971 1_554
Ba0 O10 2.876368 1_555
Ba0 O8 2.876368 1_555
Ba0 O4 2.896559 1_554
Ba0 O7 2.896559 1_555
Ba0 O10 2.943716 1_655
Ba0 O8 2.943716 1_565
Ca0 O11 2.389868 1_555
Ca0 O9 2.389868 1_555
Ca0 O6 2.504887 1_665
Ca0 O5 2.504887 1_665
Ca0 O7 2.712192 1_555
Ca0 O4 2.712192 1_555
Ca0 O2 3.008952 1_655
Ca0 O1 3.008952 1_655
Ca0 O3 3.008952 1_565
Ca0 O0 3.008952 1_565
O0 Sn3 2.056789 1_655
O0 Sn0 2.068965 1_555
O1 Sn0 2.056789 1_565
O1 Sn3 2.068965 1_555
O2 Sn1 2.056789 1_565
O2 Sn2 2.068965 1_555
O3 Sn2 2.056789 1_655
O3 Sn1 2.068965 1_555
O4 Sn3 2.116659 1_655
O4 Sn0 2.116659 1_565
O5 Sn0 2.057487 1_555
O5 Sn3 2.057487 1_555
O6 Sn2 2.057487 1_555
O6 Sn1 2.057487 1_555
O7 Sn2 2.116659 1_655
O7 Sn1 2.116659 1_565
O8 Sn0 2.078603 1_554
O8 Sn1 2.078603 1_555
O9 Sn1 2.061293 1_565
O9 Sn0 2.061293 1_565
O10 Sn3 2.078603 1_554
O10 Sn2 2.078603 1_555
O11 Sn2 2.061293 1_655
O11 Sn3 2.061293 1_655
