# generated using pymatgen
data_TbGaO3
_symmetry_space_group_name_H-M   'P 1'
_cell_length_a   5.37831244
_cell_length_b   5.37831244
_cell_length_c   5.37831292
_cell_angle_alpha   61.53484377
_cell_angle_beta   61.53484377
_cell_angle_gamma   61.53483645
_symmetry_Int_Tables_number   1
_chemical_formula_structural   TbGaO3
_chemical_formula_sum   'Tb2 Ga2 O6'
_cell_volume   113.79690708
_cell_formula_units_Z   2
loop_
 _symmetry_equiv_pos_site_id
 _symmetry_equiv_pos_as_xyz
  1  'x, y, z'
loop_
 _atom_site_type_symbol
 _atom_site_label
 _atom_site_symmetry_multiplicity
 _atom_site_fract_x
 _atom_site_fract_y
 _atom_site_fract_z
 _atom_site_occupancy
  Tb  Tb0  1  0.75000000  0.75000000  0.75000000  1
  Tb  Tb1  1  0.25000000  0.25000000  0.25000000  1
  Ga  Ga0  1  0.00000000  0.00000000  0.00000000  1
  Ga  Ga1  1  0.50000000  0.50000000  0.50000000  1
  O  O0  1  0.84318500  0.25000000  0.65681500  1
  O  O1  1  0.75000000  0.34318500  0.15681500  1
  O  O2  1  0.34318500  0.15681500  0.75000000  1
  O  O3  1  0.65681500  0.84318500  0.25000000  1
  O  O4  1  0.25000000  0.65681500  0.84318500  1
  O  O5  1  0.15681500  0.75000000  0.34318500  1
loop_
_geom_bond_atom_site_label_1
_geom_bond_atom_site_label_2
_geom_bond_distance
_geom_bond_site_symmetry_2
Ga0 O1 1.990785 1_455
Ga0 O4 1.990785 1_544
Ga0 O5 1.990785 1_545
Ga0 O0 1.990785 1_454
Ga0 O2 1.990785 1_554
Ga0 O3 1.990785 1_445
Ga1 O0 1.990785 1_555
Ga1 O5 1.990785 1_555
Ga1 O4 1.990785 1_555
Ga1 O1 1.990785 1_555
Ga1 O3 1.990785 1_555
Ga1 O2 1.990785 1_555
O0 Tb1 2.238540 1_655
O0 Tb0 2.737605 1_555
O0 Tb0 2.737605 1_545
O1 Tb0 2.238540 1_554
O1 Tb1 2.737605 1_655
O1 Tb1 2.737605 1_555
O2 Tb0 2.238539 1_545
O2 Tb1 2.737606 1_555
O2 Tb1 2.737606 1_556
O3 Tb1 2.238539 1_565
O3 Tb0 2.737606 1_554
O3 Tb0 2.737606 1_555
O4 Tb1 2.238540 1_556
O4 Tb0 2.737605 1_455
O4 Tb0 2.737605 1_555
O5 Tb0 2.238540 1_455
O5 Tb1 2.737605 1_555
O5 Tb1 2.737605 1_565
