# generated using pymatgen
data_Dy5Ni2Bi
_symmetry_space_group_name_H-M   'P 1'
_cell_length_a   8.68952315
_cell_length_b   8.68952315
_cell_length_c   8.68952315
_cell_angle_alpha   127.67800532
_cell_angle_beta   127.67800532
_cell_angle_gamma   77.14723029
_symmetry_Int_Tables_number   1
_chemical_formula_structural   Dy5Ni2Bi
_chemical_formula_sum   'Dy10 Ni4 Bi2'
_cell_volume   398.85775358
_cell_formula_units_Z   2
loop_
 _symmetry_equiv_pos_site_id
 _symmetry_equiv_pos_as_xyz
  1  'x, y, z'
loop_
 _atom_site_type_symbol
 _atom_site_label
 _atom_site_symmetry_multiplicity
 _atom_site_fract_x
 _atom_site_fract_y
 _atom_site_fract_z
 _atom_site_occupancy
  Dy  Dy0  1  0.00000000  0.00000000  0.00000000  1
  Dy  Dy1  1  0.50000000  0.50000000  0.00000000  1
  Dy  Dy2  1  0.79054200  0.29054200  0.81397400  1
  Dy  Dy3  1  0.20945800  0.70945800  0.18602600  1
  Dy  Dy4  1  0.47656700  0.97656700  0.18602600  1
  Dy  Dy5  1  0.29054200  0.47656700  0.50000000  1
  Dy  Dy6  1  0.02343300  0.20945800  0.50000000  1
  Dy  Dy7  1  0.52343300  0.02343300  0.81397400  1
  Dy  Dy8  1  0.70945800  0.52343300  0.50000000  1
  Dy  Dy9  1  0.97656700  0.79054200  0.50000000  1
  Ni  Ni0  1  0.13095400  0.63095400  0.76190800  1
  Ni  Ni1  1  0.86904600  0.36904600  0.23809200  1
  Ni  Ni2  1  0.63095400  0.86904600  0.50000000  1
  Ni  Ni3  1  0.36904600  0.13095400  0.50000000  1
  Bi  Bi0  1  0.25000000  0.25000000  0.00000000  1
  Bi  Bi1  1  0.75000000  0.75000000  0.00000000  1
loop_
_geom_bond_atom_site_label_1
_geom_bond_atom_site_label_2
_geom_bond_distance
_geom_bond_site_symmetry_2
Dy0 Ni2 3.000505 1_444
Dy0 Ni3 3.000505 1_555
Dy0 Ni1 3.000505 1_455
Dy0 Ni0 3.000505 1_544
Dy1 Ni1 3.000505 1_555
Dy1 Ni2 3.000505 1_555
Dy1 Ni3 3.000505 1_554
Dy1 Ni0 3.000505 1_554
Dy2 Ni2 2.863634 1_545
Dy2 Ni3 2.863634 1_555
Dy2 Ni1 2.928009 1_556
Dy3 Ni2 2.863634 1_555
Dy3 Ni3 2.863634 1_565
Dy3 Ni0 2.928009 1_554
Dy4 Ni3 2.863626 1_565
Dy4 Ni2 2.863626 1_555
Dy4 Ni0 2.928000 1_554
Dy5 Ni0 2.863633 1_555
Dy5 Ni1 2.863633 1_455
Dy5 Ni3 2.928000 1_555
Dy6 Ni1 2.863633 1_455
Dy6 Ni0 2.863633 1_555
Dy6 Ni3 2.928000 1_555
Dy7 Ni3 2.863626 1_555
Dy7 Ni2 2.863626 1_545
Dy7 Ni1 2.928000 1_556
Dy8 Ni1 2.863633 1_555
Dy8 Ni0 2.863633 1_655
Dy8 Ni2 2.928000 1_555
Dy9 Ni0 2.863633 1_655
Dy9 Ni1 2.863633 1_555
Dy9 Ni2 2.928000 1_555
Bi0 Dy3 3.295145 1_555
Bi0 Dy2 3.295145 1_454
Bi0 Dy8 3.295147 1_555
Bi0 Dy6 3.295147 1_554
Bi0 Dy9 3.295147 1_444
Bi0 Dy5 3.295147 1_555
Bi0 Dy7 3.295152 1_554
Bi0 Dy4 3.295152 1_545
Bi0 Dy0 3.396768 1_555
Bi0 Dy1 3.396768 1_555
Bi1 Dy3 3.295145 1_655
Bi1 Dy2 3.295145 1_554
Bi1 Dy8 3.295147 1_554
Bi1 Dy6 3.295147 1_665
Bi1 Dy9 3.295147 1_555
Bi1 Dy5 3.295147 1_554
Bi1 Dy7 3.295152 1_564
Bi1 Dy4 3.295152 1_555
Bi1 Dy0 3.396768 1_665
Bi1 Dy1 3.396768 1_555
