# generated using pymatgen
data_Ti(NbNi4)3
_symmetry_space_group_name_H-M   'P 1'
_cell_length_a   4.19884900
_cell_length_b   4.54207900
_cell_length_c   10.17867000
_cell_angle_alpha   90.00000000
_cell_angle_beta   90.00000000
_cell_angle_gamma   90.00000000
_symmetry_Int_Tables_number   1
_chemical_formula_structural   Ti(NbNi4)3
_chemical_formula_sum   'Ti1 Nb3 Ni12'
_cell_volume   194.12254427
_cell_formula_units_Z   1
loop_
 _symmetry_equiv_pos_site_id
 _symmetry_equiv_pos_as_xyz
  1  'x, y, z'
loop_
 _atom_site_type_symbol
 _atom_site_label
 _atom_site_symmetry_multiplicity
 _atom_site_fract_x
 _atom_site_fract_y
 _atom_site_fract_z
 _atom_site_occupancy
  Ti  Ti0  1  0.50000000  0.65113100  0.00000000  1
  Nb  Nb0  1  0.50000000  0.65216700  0.50000000  1
  Nb  Nb1  1  0.00000000  0.34801500  0.75088400  1
  Nb  Nb2  1  0.00000000  0.34801500  0.24911600  1
  Ni  Ni0  1  0.50000000  0.16018500  0.12233400  1
  Ni  Ni1  1  0.50000000  0.15855500  0.62453200  1
  Ni  Ni2  1  0.50000000  0.16018500  0.87766600  1
  Ni  Ni3  1  0.50000000  0.15855500  0.37546800  1
  Ni  Ni4  1  0.00000000  0.84074100  0.62583500  1
  Ni  Ni5  1  0.00000000  0.83916100  0.12418000  1
  Ni  Ni6  1  0.00000000  0.83916100  0.87582000  1
  Ni  Ni7  1  0.00000000  0.84074100  0.37416500  1
  Ni  Ni8  1  0.00000000  0.31852700  0.00000000  1
  Ni  Ni9  1  0.00000000  0.31716600  0.50000000  1
  Ni  Ni10  1  0.50000000  0.68384800  0.75167100  1
  Ni  Ni11  1  0.50000000  0.68384800  0.24832900  1
loop_
_geom_bond_atom_site_label_1
_geom_bond_atom_site_label_2
_geom_bond_distance
_geom_bond_site_symmetry_2
Nb0 Ni10 2.565714 1_555
Nb0 Ni11 2.565714 1_555
Nb0 Ni1 2.575540 1_555
Nb0 Ni3 2.575540 1_555
Nb0 Ni9 2.592846 1_655
Nb0 Ni9 2.592846 1_555
Nb0 Ni4 2.604177 1_655
Nb0 Ni7 2.604177 1_555
Nb0 Ni7 2.604177 1_655
Nb0 Ni4 2.604177 1_555
Nb0 Ni1 2.626211 1_565
Nb0 Ni3 2.626211 1_565
Nb1 Ni8 2.539204 1_556
Nb1 Ni9 2.557507 1_555
Nb1 Ni6 2.567830 1_555
Nb1 Ni4 2.574636 1_555
Nb1 Ni10 2.595078 1_455
Nb1 Ni10 2.595078 1_555
Nb1 Ni2 2.607824 1_455
Nb1 Ni2 2.607824 1_555
Nb1 Ni1 2.608095 1_455
Nb1 Ni1 2.608095 1_555
Nb1 Ni4 2.632277 1_545
Nb1 Ni6 2.638006 1_545
Nb2 Ni8 2.539204 1_555
Nb2 Ni9 2.557507 1_555
Nb2 Ni5 2.567830 1_555
Nb2 Ni7 2.574636 1_555
Nb2 Ni11 2.595078 1_455
Nb2 Ni11 2.595078 1_555
Nb2 Ni0 2.607824 1_455
Nb2 Ni0 2.607824 1_555
Nb2 Ni3 2.608095 1_455
Nb2 Ni3 2.608095 1_555
Nb2 Ni7 2.632277 1_545
Nb2 Ni5 2.638006 1_545
Ni0 Ni2 2.490395 1_554
Ni0 Ni11 2.515095 1_545
Ni0 Ni8 2.544671 1_555
Ni0 Ni8 2.544671 1_655
Ni0 Ti0 2.554024 1_555
Ni0 Ni5 2.556177 1_645
Ni0 Ni5 2.556177 1_545
Ni0 Ni3 2.576578 1_555
Ni0 Ti0 2.626141 1_545
Ni0 Ni11 2.702232 1_555
Ni1 Ni10 2.514701 1_545
Ni1 Ni3 2.535140 1_555
Ni1 Ni4 2.547853 1_645
Ni1 Ni4 2.547853 1_545
Ni1 Ni9 2.556037 1_555
Ni1 Ni9 2.556037 1_655
Ni1 Ni2 2.576578 1_555
Ni1 Ni10 2.714284 1_555
Ni2 Ni8 2.544671 1_656
Ni2 Ni8 2.544671 1_556
Ni2 Ti0 2.554024 1_556
Ni2 Ni6 2.556177 1_645
Ni2 Ni6 2.556177 1_545
Ni2 Ti0 2.626141 1_546
Ni3 Ni7 2.547853 1_645
Ni3 Ni7 2.547853 1_545
Ni3 Ni9 2.556037 1_555
Ni3 Ni9 2.556037 1_655
Ni4 Ni9 2.514608 1_565
Ni4 Ni6 2.544525 1_555
Ni4 Ni7 2.561666 1_555
Ni4 Ni9 2.701108 1_555
Ni5 Ni8 2.517614 1_565
Ni5 Ni6 2.527974 1_554
Ni5 Ni7 2.544525 1_555
Ni5 Ti0 2.595119 1_555
Ni5 Ti0 2.595119 1_455
Ni5 Ni8 2.681372 1_555
Ni6 Ni8 2.517614 1_566
Ni6 Ti0 2.595119 1_456
Ni6 Ti0 2.595119 1_556
Ni6 Ni8 2.681372 1_556
Ni7 Ni9 2.514608 1_565
Ni7 Ni9 2.701108 1_555
Ni8 Ti0 2.586472 1_455
Ni8 Ti0 2.586472 1_555
Ni10 Ni2 2.515095 1_565
Ni10 Ti0 2.532023 1_556
Ni10 Ni6 2.549922 1_555
Ni10 Ni6 2.549922 1_655
Ni10 Ni4 2.560463 1_555
Ni10 Ni4 2.560463 1_655
Ni10 Ni2 2.702232 1_555
Ni11 Ni3 2.514701 1_565
Ni11 Ti0 2.532023 1_555
Ni11 Ni5 2.549922 1_655
Ni11 Ni5 2.549922 1_555
Ni11 Ni7 2.560463 1_555
Ni11 Ni7 2.560463 1_655
Ni11 Ni3 2.714284 1_555
