# generated using pymatgen
data_Cr(FeO2)3
_symmetry_space_group_name_H-M   'P 1'
_cell_length_a   10.38821248
_cell_length_b   10.54494021
_cell_length_c   9.77946901
_cell_angle_alpha   86.46457781
_cell_angle_beta   86.35658916
_cell_angle_gamma   97.69728789
_symmetry_Int_Tables_number   1
_chemical_formula_structural   Cr(FeO2)3
_chemical_formula_sum   'Cr8 Fe24 O48'
_cell_volume   1056.80416207
_cell_formula_units_Z   8
loop_
 _symmetry_equiv_pos_site_id
 _symmetry_equiv_pos_as_xyz
  1  'x, y, z'
loop_
 _atom_site_type_symbol
 _atom_site_label
 _atom_site_symmetry_multiplicity
 _atom_site_fract_x
 _atom_site_fract_y
 _atom_site_fract_z
 _atom_site_occupancy
  Cr  Cr0  1  0.61507300  0.57780000  0.59609300  1
  Cr  Cr1  1  0.40405200  0.82058600  0.13648200  1
  Cr  Cr2  1  0.47492300  0.78339400  0.71399500  1
  Cr  Cr3  1  0.89743800  0.46083100  0.61741200  1
  Cr  Cr4  1  0.83007900  0.22383900  0.48414800  1
  Cr  Cr5  1  0.46547300  0.50003500  0.16051500  1
  Cr  Cr6  1  0.79650600  0.94402600  0.55478600  1
  Cr  Cr7  1  0.98103000  0.49665400  0.94423500  1
  Fe  Fe0  1  0.11303300  0.77595300  0.37657800  1
  Fe  Fe1  1  0.30141000  0.16138200  0.85042400  1
  Fe  Fe2  1  0.56149600  0.09715800  0.02297500  1
  Fe  Fe3  1  0.33537000  0.37290800  0.43554400  1
  Fe  Fe4  1  0.87147100  0.88533400  0.26191100  1
  Fe  Fe5  1  0.59756400  0.23178700  0.68786700  1
  Fe  Fe6  1  0.35893300  0.02521500  0.35327700  1
  Fe  Fe7  1  0.89482000  0.79363000  0.86277300  1
  Fe  Fe8  1  0.67909800  0.80853400  0.05638400  1
  Fe  Fe9  1  0.08687100  0.73580800  0.06660700  1
  Fe  Fe10  1  0.71270300  0.44337300  0.36254200  1
  Fe  Fe11  1  0.02563800  0.07517500  0.68708500  1
  Fe  Fe12  1  0.11090900  0.12640500  0.35321100  1
  Fe  Fe13  1  0.53871800  0.71360600  0.34885900  1
  Fe  Fe14  1  0.39220300  0.48547000  0.79193600  1
  Fe  Fe15  1  0.88143500  0.27718600  0.85610700  1
  Fe  Fe16  1  0.89491800  0.19997700  0.16779500  1
  Fe  Fe17  1  0.03301100  0.02257000  0.00495600  1
  Fe  Fe18  1  0.66090000  0.52122500  0.87795300  1
  Fe  Fe19  1  0.18130400  0.30614900  0.05391200  1
  Fe  Fe20  1  0.20091800  0.87142100  0.72799500  1
  Fe  Fe21  1  0.12605700  0.47250600  0.27199400  1
  Fe  Fe22  1  0.26709200  0.62408400  0.57617900  1
  Fe  Fe23  1  0.63097600  0.14657100  0.29898800  1
  O  O0  1  0.80749500  0.28983400  0.67119000  1
  O  O1  1  0.86348500  0.89637000  0.02059400  1
  O  O2  1  0.29160000  0.42202700  0.16720200  1
  O  O3  1  0.15608600  0.76298600  0.57912500  1
  O  O4  1  0.46946600  0.10559400  0.19841500  1
  O  O5  1  0.56035800  0.41546400  0.71408700  1
  O  O6  1  0.78469800  0.07894400  0.37289800  1
  O  O7  1  0.15041600  0.58849100  0.41013800  1
  O  O8  1  0.20384300  0.12950700  0.02780900  1
  O  O9  1  0.48682100  0.47659900  0.97388000  1
  O  O10  1  0.51325200  0.68057800  0.13056200  1
  O  O11  1  0.27191900  0.33642800  0.87227800  1
  O  O12  1  0.41565500  0.54358300  0.33600400  1
  O  O13  1  0.65113400  0.26528600  0.45050100  1
  O  O14  1  0.66011800  0.04407100  0.63643300  1
  O  O15  1  0.95939600  0.12416000  0.85643300  1
  O  O16  1  0.99201000  0.04543200  0.20068300  1
  O  O17  1  0.29204700  0.19081200  0.39739500  1
  O  O18  1  0.64610200  0.90930300  0.69267800  1
  O  O19  1  0.42238900  0.85575800  0.32603900  1
  O  O20  1  0.00596400  0.43441900  0.75225100  1
  O  O21  1  0.20102500  0.06982200  0.71650700  1
  O  O22  1  0.68826600  0.83284300  0.24877000  1
  O  O23  1  0.54330900  0.91240400  0.00748000  1
  O  O24  1  0.56737400  0.64074900  0.76960700  1
  O  O25  1  0.79723600  0.42068700  0.92709800  1
  O  O26  1  0.31539600  0.65261000  0.77047000  1
  O  O27  1  0.89277500  0.41031400  0.43665500  1
  O  O28  1  0.72389900  0.16253300  0.08577500  1
  O  O29  1  0.58834100  0.42212800  0.20783900  1
  O  O30  1  0.06499000  0.54507100  0.10953500  1
  O  O31  1  0.01182700  0.67412400  0.89022300  1
  O  O32  1  0.99757500  0.15454000  0.51528700  1
  O  O33  1  0.99839800  0.31710400  0.00767800  1
  O  O34  1  0.47505800  0.69482600  0.54366900  1
  O  O35  1  0.79395800  0.57188200  0.65645200  1
  O  O36  1  0.67407300  0.60995100  0.40811000  1
  O  O37  1  0.07185100  0.28751400  0.25375500  1
  O  O38  1  0.31385200  0.45435700  0.60787900  1
  O  O39  1  0.91901200  0.91006300  0.70269600  1
  O  O40  1  0.12180700  0.88971200  0.92579900  1
  O  O41  1  0.74317800  0.68248100  0.94554900  1
  O  O42  1  0.48471300  0.15673300  0.85982000  1
  O  O43  1  0.37539300  0.91684500  0.68497200  1
  O  O44  1  0.17874800  0.96176700  0.36598800  1
  O  O45  1  0.90489100  0.85922400  0.44709000  1
  O  O46  1  0.98499000  0.75719200  0.23259700  1
  O  O47  1  0.22833700  0.77345100  0.17835800  1
loop_
_geom_bond_atom_site_label_1
_geom_bond_atom_site_label_2
_geom_bond_distance
_geom_bond_site_symmetry_2
Cr0 O36 1.895911 1_555
Cr0 O24 1.919817 1_555
Cr0 O35 1.992867 1_555
Cr0 O5 1.999330 1_555
Cr0 O34 2.097337 1_555
Cr1 O47 1.839446 1_555
Cr1 O19 1.929000 1_555
Cr1 O23 1.965692 1_555
Cr1 O10 1.980081 1_555
Cr2 O43 1.872883 1_555
Cr2 O24 1.957853 1_555
Cr2 O34 1.959265 1_555
Cr2 O26 2.032436 1_555
Cr2 O18 2.062692 1_555
Cr3 O35 1.735748 1_555
Cr3 O20 1.820766 1_655
Cr3 O27 1.879098 1_555
Cr3 O0 1.941709 1_555
Cr4 O6 1.953885 1_555
Cr4 O27 2.003087 1_555
Cr4 O0 2.007833 1_555
Cr4 O13 2.008112 1_555
Cr4 O32 2.008677 1_555
Cr4 O14 2.711043 1_555
Cr5 O29 1.681460 1_555
Cr5 O9 1.860227 1_554
Cr5 O12 1.863327 1_555
Cr5 O2 1.877163 1_555
Cr5 O10 1.901653 1_555
Cr6 O45 1.847097 1_555
Cr6 O18 1.977829 1_555
Cr6 O14 2.029388 1_565
Cr6 O39 2.032802 1_555
Cr6 O6 2.228343 1_565
Cr7 O31 1.892026 1_655
Cr7 O30 1.948411 1_656
Cr7 O25 1.990653 1_555
Cr7 O33 1.990755 1_556
Cr7 O20 2.039234 1_655
Fe0 O44 1.980824 1_555
Fe0 O46 1.998232 1_455
Fe0 O3 2.058609 1_555
Fe0 O7 2.075570 1_555
Fe0 O47 2.216490 1_555
Fe0 O45 2.513073 1_455
Fe1 O42 1.919239 1_555
Fe1 O11 1.933522 1_555
Fe1 O8 1.939824 1_556
Fe1 O21 1.947977 1_555
Fe2 O28 1.889708 1_555
Fe2 O4 1.923201 1_555
Fe2 O42 1.936254 1_554
Fe2 O23 1.948247 1_545
Fe3 O38 1.951946 1_555
Fe3 O17 1.976629 1_555
Fe3 O12 2.039844 1_555
Fe4 O45 1.876140 1_555
Fe4 O22 1.924220 1_555
Fe4 O46 1.931419 1_555
Fe4 O16 1.997586 1_565
Fe4 O1 2.362921 1_555
Fe4 O6 2.607819 1_565
Fe5 O42 2.040903 1_555
Fe5 O5 2.053233 1_555
Fe5 O0 2.177634 1_555
Fe5 O14 2.240389 1_555
Fe5 O13 2.346273 1_555
Fe6 O44 1.895104 1_545
Fe6 O4 1.921053 1_555
Fe6 O19 2.012581 1_545
Fe6 O17 2.024357 1_555
Fe7 O31 1.883513 1_655
Fe7 O39 1.910912 1_555
Fe7 O41 1.933101 1_555
Fe7 O1 1.974495 1_556
Fe8 O22 1.921011 1_555
Fe8 O41 1.925571 1_554
Fe8 O23 1.962968 1_555
Fe8 O1 2.012190 1_555
Fe8 O10 2.100651 1_555
Fe9 O47 1.900773 1_555
Fe9 O46 1.922702 1_455
Fe9 O30 2.008618 1_555
Fe9 O40 2.040793 1_554
Fe9 O31 2.044430 1_554
Fe10 O36 1.925552 1_555
Fe10 O13 2.021060 1_555
Fe10 O29 2.054453 1_555
Fe10 O27 2.112326 1_555
Fe11 O21 1.870208 1_555
Fe11 O15 1.881225 1_455
Fe11 O32 1.887404 1_455
Fe11 O39 1.926326 1_445
Fe12 O44 1.959201 1_545
Fe12 O32 1.975049 1_455
Fe12 O17 1.996486 1_555
Fe12 O37 2.006952 1_555
Fe12 O16 2.142051 1_455
Fe13 O34 1.965800 1_555
Fe13 O36 1.986135 1_555
Fe13 O22 2.020935 1_555
Fe13 O19 2.058003 1_555
Fe13 O12 2.073352 1_555
Fe13 O10 2.210785 1_555
Fe14 O11 1.961015 1_555
Fe14 O26 2.034551 1_555
Fe14 O38 2.048790 1_555
Fe14 O9 2.089787 1_555
Fe14 O5 2.102786 1_555
Fe14 O24 2.268782 1_555
Fe15 O15 1.899881 1_555
Fe15 O25 1.985899 1_555
Fe15 O33 2.004871 1_556
Fe15 O0 2.013028 1_555
Fe15 O20 2.122455 1_655
Fe16 O28 1.996945 1_555
Fe16 O16 2.047793 1_555
Fe16 O33 2.079623 1_555
Fe16 O37 2.185095 1_655
Fe16 O6 2.442143 1_555
Fe17 O40 1.949887 1_544
Fe17 O16 1.970821 1_455
Fe17 O15 2.002702 1_454
Fe17 O8 2.004069 1_555
Fe17 O1 2.051485 1_445
Fe18 O25 1.945945 1_555
Fe18 O9 1.968170 1_555
Fe18 O41 1.969804 1_555
Fe18 O24 1.987291 1_555
Fe18 O5 2.241392 1_555
Fe18 O35 2.483373 1_555
Fe19 O8 1.938411 1_555
Fe19 O11 1.944289 1_554
Fe19 O2 1.996659 1_555
Fe19 O33 1.997392 1_455
Fe19 O37 2.182043 1_555
Fe20 O43 1.826805 1_555
Fe20 O3 1.947496 1_555
Fe20 O40 2.083506 1_555
Fe20 O21 2.088059 1_565
Fe21 O7 1.883973 1_555
Fe21 O30 1.902713 1_555
Fe21 O37 1.978805 1_555
Fe21 O2 2.092711 1_555
Fe22 O38 1.928446 1_555
Fe22 O3 1.982276 1_555
Fe22 O26 2.025771 1_555
Fe22 O7 2.109523 1_555
Fe22 O34 2.185544 1_555
Fe23 O6 1.992296 1_555
Fe23 O13 2.001105 1_555
Fe23 O4 2.009237 1_555
Fe23 O28 2.228275 1_555
O14 O18 1.476930 1_545
