# generated using pymatgen
data_Sm(BiSe2)2
_symmetry_space_group_name_H-M   'P 1'
_cell_length_a   4.54557900
_cell_length_b   11.11093200
_cell_length_c   17.13455100
_cell_angle_alpha   90.00000000
_cell_angle_beta   90.00000000
_cell_angle_gamma   90.00000000
_symmetry_Int_Tables_number   1
_chemical_formula_structural   Sm(BiSe2)2
_chemical_formula_sum   'Sm4 Bi8 Se16'
_cell_volume   865.39110745
_cell_formula_units_Z   4
loop_
 _symmetry_equiv_pos_site_id
 _symmetry_equiv_pos_as_xyz
  1  'x, y, z'
loop_
 _atom_site_type_symbol
 _atom_site_label
 _atom_site_symmetry_multiplicity
 _atom_site_fract_x
 _atom_site_fract_y
 _atom_site_fract_z
 _atom_site_occupancy
  Sm  Sm0  1  0.75000000  0.66774900  0.82901600  1
  Sm  Sm1  1  0.25000000  0.33225100  0.17098400  1
  Sm  Sm2  1  0.25000000  0.83225100  0.32901600  1
  Sm  Sm3  1  0.75000000  0.16774900  0.67098400  1
  Bi  Bi0  1  0.75000000  0.82711100  0.53666900  1
  Bi  Bi1  1  0.25000000  0.17288900  0.46333100  1
  Bi  Bi2  1  0.25000000  0.67288900  0.03666900  1
  Bi  Bi3  1  0.75000000  0.32711100  0.96333100  1
  Bi  Bi4  1  0.75000000  0.52244300  0.39404700  1
  Bi  Bi5  1  0.25000000  0.47755700  0.60595300  1
  Bi  Bi6  1  0.25000000  0.97755700  0.89404700  1
  Bi  Bi7  1  0.75000000  0.02244300  0.10595300  1
  Se  Se0  1  0.75000000  0.61047200  0.65980700  1
  Se  Se1  1  0.25000000  0.38952800  0.34019300  1
  Se  Se2  1  0.25000000  0.88952800  0.15980700  1
  Se  Se3  1  0.75000000  0.11047200  0.84019300  1
  Se  Se4  1  0.75000000  0.68796900  0.27429900  1
  Se  Se5  1  0.25000000  0.31203100  0.72570100  1
  Se  Se6  1  0.25000000  0.81203100  0.77429900  1
  Se  Se7  1  0.75000000  0.18796900  0.22570100  1
  Se  Se8  1  0.75000000  0.98018200  0.40408500  1
  Se  Se9  1  0.25000000  0.01981800  0.59591500  1
  Se  Se10  1  0.25000000  0.51981800  0.90408500  1
  Se  Se11  1  0.75000000  0.48018200  0.09591500  1
  Se  Se12  1  0.75000000  0.80865200  0.97433200  1
  Se  Se13  1  0.25000000  0.19134800  0.02566800  1
  Se  Se14  1  0.25000000  0.69134800  0.47433200  1
  Se  Se15  1  0.75000000  0.30865200  0.52566800  1
loop_
_geom_bond_atom_site_label_1
_geom_bond_atom_site_label_2
_geom_bond_distance
_geom_bond_site_symmetry_2
Bi0 Se8 2.837872 1_555
Bi0 Se14 2.929484 1_655
Bi0 Se14 2.929484 1_555
Bi0 Se0 3.200888 1_555
Bi0 Se9 3.283390 1_565
Bi0 Se9 3.283390 1_665
Bi1 Se9 2.837872 1_555
Bi1 Se15 2.929484 1_555
Bi1 Se15 2.929484 1_455
Bi1 Se1 3.200888 1_555
Bi1 Se8 3.283390 1_445
Bi1 Se8 3.283390 1_545
Bi2 Se10 2.837872 1_554
Bi2 Se12 2.929484 1_454
Bi2 Se12 2.929484 1_554
Bi2 Se2 3.200888 1_555
Bi2 Se11 3.283390 1_455
Bi2 Se11 3.283390 1_555
Bi3 Se11 2.837872 1_556
Bi3 Se13 2.929484 1_656
Bi3 Se13 2.929484 1_556
Bi3 Se3 3.200888 1_555
Bi3 Se10 3.283390 1_655
Bi3 Se10 3.283390 1_555
Bi4 Se4 2.755443 1_555
Bi4 Se1 2.863221 1_655
Bi4 Se1 2.863221 1_555
Bi4 Se14 3.252684 1_555
Bi4 Se14 3.252684 1_655
Bi4 Se15 3.275490 1_555
Bi5 Se5 2.755443 1_555
Bi5 Se0 2.863221 1_455
Bi5 Se0 2.863221 1_555
Bi5 Se15 3.252684 1_455
Bi5 Se15 3.252684 1_555
Bi5 Se14 3.275490 1_555
Bi6 Se6 2.755443 1_555
Bi6 Se3 2.863221 1_565
Bi6 Se3 2.863221 1_465
Bi6 Se12 3.252684 1_455
Bi6 Se12 3.252684 1_555
Bi6 Se13 3.275490 1_566
Bi7 Se7 2.755443 1_555
Bi7 Se2 2.863221 1_545
Bi7 Se2 2.863221 1_645
Bi7 Se13 3.252684 1_555
Bi7 Se13 3.252684 1_655
Bi7 Se12 3.275490 1_544
Se0 Sm0 2.968344 1_555
Se1 Sm1 2.968344 1_555
Se2 Sm2 2.968344 1_555
Se3 Sm3 2.968344 1_555
Se4 Sm2 2.935052 1_555
Se4 Sm2 2.935052 1_655
Se5 Sm3 2.935052 1_455
Se5 Sm3 2.935052 1_555
Se6 Sm0 2.935052 1_555
Se6 Sm0 2.935052 1_455
Se7 Sm1 2.935052 1_555
Se7 Sm1 2.935052 1_655
Se8 Sm2 3.085719 1_655
Se8 Sm2 3.085719 1_555
Se9 Sm3 3.085719 1_555
Se9 Sm3 3.085719 1_455
Se10 Sm0 3.085719 1_455
Se10 Sm0 3.085719 1_555
Se11 Sm1 3.085719 1_555
Se11 Sm1 3.085719 1_655
Se12 Sm0 2.941209 1_555
Se13 Sm1 2.941209 1_555
Se14 Sm2 2.941209 1_555
Se15 Sm3 2.941209 1_555
