# generated using pymatgen
data_LaCeMg6
_symmetry_space_group_name_H-M   'P 1'
_cell_length_a   5.39997300
_cell_length_b   6.68477700
_cell_length_c   11.87771800
_cell_angle_alpha   90.00000000
_cell_angle_beta   90.00000000
_cell_angle_gamma   90.00000000
_symmetry_Int_Tables_number   1
_chemical_formula_structural   LaCeMg6
_chemical_formula_sum   'La2 Ce2 Mg12'
_cell_volume   428.75729514
_cell_formula_units_Z   2
loop_
 _symmetry_equiv_pos_site_id
 _symmetry_equiv_pos_as_xyz
  1  'x, y, z'
loop_
 _atom_site_type_symbol
 _atom_site_label
 _atom_site_symmetry_multiplicity
 _atom_site_fract_x
 _atom_site_fract_y
 _atom_site_fract_z
 _atom_site_occupancy
  La  La0  1  0.50000000  0.00000000  0.16402500  1
  La  La1  1  0.50000000  0.50000000  0.66402500  1
  Ce  Ce0  1  0.50000000  0.50000000  0.16515400  1
  Ce  Ce1  1  0.50000000  0.00000000  0.66515400  1
  Mg  Mg0  1  0.50000000  0.24998300  0.41730200  1
  Mg  Mg1  1  0.50000000  0.75001700  0.41730200  1
  Mg  Mg2  1  0.00000000  0.74524400  0.07888100  1
  Mg  Mg3  1  0.00000000  0.25475600  0.07888100  1
  Mg  Mg4  1  0.00000000  0.00000000  0.34069800  1
  Mg  Mg5  1  0.00000000  0.50000000  0.33775200  1
  Mg  Mg6  1  0.50000000  0.74998300  0.91730200  1
  Mg  Mg7  1  0.50000000  0.25001700  0.91730200  1
  Mg  Mg8  1  0.00000000  0.24524400  0.57888100  1
  Mg  Mg9  1  0.00000000  0.75475600  0.57888100  1
  Mg  Mg10  1  0.00000000  0.50000000  0.84069900  1
  Mg  Mg11  1  0.00000000  0.00000000  0.83775200  1
loop_
_geom_bond_atom_site_label_1
_geom_bond_atom_site_label_2
_geom_bond_distance
_geom_bond_site_symmetry_2
La0 Mg2 3.348560 1_545
La0 Mg3 3.348560 1_555
La0 Mg3 3.348560 1_655
La0 Mg2 3.348560 1_645
La0 Mg7 3.373594 1_554
La0 Mg6 3.373594 1_544
La0 Mg4 3.419578 1_655
La0 Mg4 3.419578 1_555
La0 Mg1 3.441322 1_545
La0 Mg0 3.441322 1_555
La1 Mg9 3.348560 1_555
La1 Mg8 3.348560 1_555
La1 Mg9 3.348560 1_655
La1 Mg8 3.348560 1_655
La1 Mg0 3.373594 1_555
La1 Mg1 3.373594 1_555
La1 Mg10 3.419585 1_555
La1 Mg10 3.419585 1_655
La1 Mg6 3.441322 1_555
La1 Mg7 3.441322 1_555
Ce0 Mg3 3.320787 1_655
Ce0 Mg2 3.320787 1_555
Ce0 Mg3 3.320787 1_555
Ce0 Mg2 3.320787 1_655
Ce0 La0 3.342415 1_565
Ce0 La0 3.342415 1_555
Ce0 Mg6 3.385137 1_554
Ce0 Mg7 3.385137 1_554
Ce0 Mg5 3.390091 1_655
Ce0 Mg5 3.390091 1_555
Ce0 Mg0 3.429716 1_555
Ce0 Mg1 3.429716 1_555
Ce1 Mg8 3.320787 1_555
Ce1 Mg9 3.320787 1_645
Ce1 Mg8 3.320787 1_655
Ce1 Mg9 3.320787 1_545
Ce1 La1 3.342415 1_545
Ce1 La1 3.342415 1_555
Ce1 Mg1 3.385137 1_545
Ce1 Mg0 3.385137 1_555
Ce1 Mg11 3.390091 1_555
Ce1 Mg11 3.390091 1_655
Ce1 Mg7 3.429716 1_555
Ce1 Mg6 3.429716 1_545
Mg0 Mg4 3.303077 1_555
Mg0 Mg4 3.303077 1_655
Mg0 Mg8 3.312736 1_655
Mg0 Mg8 3.312736 1_555
Mg0 Mg5 3.313002 1_555
Mg0 Mg5 3.313002 1_655
Mg0 Mg1 3.342161 1_545
Mg0 Mg1 3.342616 1_555
Mg1 Mg4 3.303077 1_665
Mg1 Mg4 3.303077 1_565
Mg1 Mg9 3.312736 1_555
Mg1 Mg9 3.312736 1_655
Mg1 Mg5 3.313002 1_555
Mg1 Mg5 3.313002 1_655
Mg2 Mg3 3.278803 1_555
Mg2 Mg6 3.312736 1_554
Mg2 Mg6 3.312736 1_454
Mg2 Mg3 3.405974 1_565
Mg2 Mg5 3.484539 1_555
Mg2 Mg4 3.545553 1_565
Mg3 Mg7 3.312736 1_554
Mg3 Mg7 3.312736 1_454
Mg3 Mg5 3.484539 1_555
Mg3 Mg4 3.545553 1_555
Mg4 Mg8 3.269752 1_555
Mg4 Mg9 3.269752 1_545
Mg4 Mg5 3.342572 1_545
Mg4 Mg5 3.342572 1_555
Mg5 Mg8 3.332119 1_555
Mg5 Mg9 3.332119 1_555
Mg6 Mg7 3.342161 1_555
Mg6 Mg7 3.342616 1_565
Mg8 Mg9 3.278803 1_545
Mg8 Mg9 3.405974 1_555
Mg10 Mg2 3.269742 1_556
Mg10 Mg3 3.269742 1_556
Mg10 Mg6 3.303074 1_555
Mg10 Mg6 3.303074 1_455
Mg10 Mg7 3.303074 1_555
Mg10 Mg7 3.303074 1_455
Mg10 Mg11 3.342572 1_555
Mg10 Mg11 3.342572 1_565
Mg10 Mg8 3.545564 1_555
Mg10 Mg9 3.545564 1_555
Mg11 Mg7 3.313002 1_455
Mg11 Mg7 3.313002 1_555
Mg11 Mg6 3.313002 1_445
Mg11 Mg6 3.313002 1_545
Mg11 Mg2 3.332119 1_546
Mg11 Mg3 3.332119 1_556
Mg11 Mg8 3.484539 1_555
Mg11 Mg9 3.484539 1_545
