# generated using pymatgen
data_Fe2O3
_symmetry_space_group_name_H-M   'P 1'
_cell_length_a   10.02216921
_cell_length_b   10.81936465
_cell_length_c   9.82123796
_cell_angle_alpha   90.87513817
_cell_angle_beta   93.31263954
_cell_angle_gamma   95.46998238
_symmetry_Int_Tables_number   1
_chemical_formula_structural   Fe2O3
_chemical_formula_sum   'Fe32 O48'
_cell_volume   1058.09898466
_cell_formula_units_Z   16
loop_
 _symmetry_equiv_pos_site_id
 _symmetry_equiv_pos_as_xyz
  1  'x, y, z'
loop_
 _atom_site_type_symbol
 _atom_site_label
 _atom_site_symmetry_multiplicity
 _atom_site_fract_x
 _atom_site_fract_y
 _atom_site_fract_z
 _atom_site_occupancy
  Fe  Fe0  1  0.41446600  0.72472300  0.87551200  1
  Fe  Fe1  1  0.56540800  0.04680100  0.68773500  1
  Fe  Fe2  1  0.69705400  0.83338600  0.81978700  1
  Fe  Fe3  1  0.92037100  0.16285900  0.46447400  1
  Fe  Fe4  1  0.48735500  0.39589200  0.22687200  1
  Fe  Fe5  1  0.42691200  0.45145200  0.51883700  1
  Fe  Fe6  1  0.46467200  0.96208500  0.03706600  1
  Fe  Fe7  1  0.63175500  0.53634300  0.02122300  1
  Fe  Fe8  1  0.08673000  0.70190400  0.48404700  1
  Fe  Fe9  1  0.17767500  0.51341800  0.68697700  1
  Fe  Fe10  1  0.87728200  0.74334700  0.22414900  1
  Fe  Fe11  1  0.32315800  0.25022000  0.71970500  1
  Fe  Fe12  1  0.69196700  0.32846400  0.70410000  1
  Fe  Fe13  1  0.16718400  0.29022000  0.34480200  1
  Fe  Fe14  1  0.26053000  0.48080700  0.98138300  1
  Fe  Fe15  1  0.22755500  0.95336700  0.73497700  1
  Fe  Fe16  1  0.91818500  0.11579500  0.76107700  1
  Fe  Fe17  1  0.68391700  0.59022400  0.70249600  1
  Fe  Fe18  1  0.41655700  0.74599700  0.55916800  1
  Fe  Fe19  1  0.17164500  0.17545800  0.95447100  1
  Fe  Fe20  1  0.60430700  0.67539800  0.32530100  1
  Fe  Fe21  1  0.04551000  0.51936800  0.22122800  1
  Fe  Fe22  1  0.28843300  0.76162100  0.22529000  1
  Fe  Fe23  1  0.60860900  0.11027100  0.32832800  1
  Fe  Fe24  1  0.76245700  0.00760600  0.05110300  1
  Fe  Fe25  1  0.98684000  0.85389500  0.97101800  1
  Fe  Fe26  1  0.81387900  0.30609200  0.16965500  1
  Fe  Fe27  1  0.91087200  0.44878300  0.49939800  1
  Fe  Fe28  1  0.14375900  0.95701500  0.38906800  1
  Fe  Fe29  1  0.31991600  0.12154700  0.20139300  1
  Fe  Fe30  1  0.92968600  0.52770300  0.92459200  1
  Fe  Fe31  1  0.78923700  0.86195100  0.55894400  1
  O  O0  1  0.74402500  0.46156600  0.58244200  1
  O  O1  1  0.89680800  0.90740100  0.13581600  1
  O  O2  1  0.51374800  0.60735100  0.60963200  1
  O  O3  1  0.72344600  0.16555300  0.75043400  1
  O  O4  1  0.00696300  0.37330700  0.34154700  1
  O  O5  1  0.78515600  0.20081900  0.32937500  1
  O  O6  1  0.36938600  0.82773400  0.72627500  1
  O  O7  1  0.38405900  0.08398500  0.71595700  1
  O  O8  1  0.19961400  0.57585100  0.13740700  1
  O  O9  1  0.01436900  0.57462000  0.60954200  1
  O  O10  1  0.48012300  0.21720100  0.26001500  1
  O  O11  1  0.59863000  0.96048600  0.90439100  1
  O  O12  1  0.14171900  0.87925700  0.88493900  1
  O  O13  1  0.92707900  0.28892700  0.59937600  1
  O  O14  1  0.50163300  0.33601600  0.65852000  1
  O  O15  1  0.24676300  0.37137200  0.59858900  1
  O  O16  1  0.13698200  0.11502300  0.75919200  1
  O  O17  1  0.98573100  0.19004000  0.93017000  1
  O  O18  1  0.73813100  0.47522700  0.85410800  1
  O  O19  1  0.61157800  0.99802400  0.17291000  1
  O  O20  1  0.30067000  0.96975000  0.29240800  1
  O  O21  1  0.92592900  0.43531800  0.08736100  1
  O  O22  1  0.88785400  0.02114900  0.58015700  1
  O  O23  1  0.08825900  0.79392500  0.30240600  1
  O  O24  1  0.65822500  0.38945600  0.13236800  1
  O  O25  1  0.81000000  0.73630900  0.69997600  1
  O  O26  1  0.32810900  0.39290200  0.34706500  1
  O  O27  1  0.57501200  0.07804700  0.50281500  1
  O  O28  1  0.93640600  0.68486600  0.02413700  1
  O  O29  1  0.39151600  0.79582800  0.04872800  1
  O  O30  1  0.82162700  0.17454200  0.04708400  1
  O  O31  1  0.28731300  0.31537300  0.89759500  1
  O  O32  1  0.60318800  0.67817800  0.87663500  1
  O  O33  1  0.13984300  0.87466200  0.56115400  1
  O  O34  1  0.85577400  0.95068900  0.87078900  1
  O  O35  1  0.44906200  0.75497400  0.36639600  1
  O  O36  1  0.09664100  0.12674100  0.40640000  1
  O  O37  1  0.08452000  0.47524900  0.85851500  1
  O  O38  1  0.18417200  0.22829400  0.15831700  1
  O  O39  1  0.76853700  0.78389500  0.38768900  1
  O  O40  1  0.32762200  0.07251800  0.01569800  1
  O  O41  1  0.94149800  0.60002400  0.34944600  1
  O  O42  1  0.25281000  0.63012300  0.52863100  1
  O  O43  1  0.61840100  0.87611300  0.64106300  1
  O  O44  1  0.44688000  0.50010900  0.06957900  1
  O  O45  1  0.31786500  0.57462100  0.82402400  1
  O  O46  1  0.69584600  0.66254000  0.15982700  1
  O  O47  1  0.56131300  0.50605100  0.37353600  1
loop_
_geom_bond_atom_site_label_1
_geom_bond_atom_site_label_2
_geom_bond_distance
_geom_bond_site_symmetry_2
Fe0 O45 1.857151 1_555
Fe0 O29 1.891504 1_556
Fe0 O6 1.914128 1_555
Fe0 O32 2.002618 1_555
Fe1 O27 1.858677 1_555
Fe1 O7 1.932935 1_555
Fe1 O3 2.003443 1_555
Fe1 O43 2.022840 1_545
Fe1 O11 2.355577 1_545
Fe2 O32 1.950580 1_555
Fe2 O43 1.962263 1_555
Fe2 O11 1.967967 1_555
Fe2 O34 1.973733 1_555
Fe2 O25 2.027794 1_555
Fe3 O13 1.880783 1_555
Fe3 O5 1.918478 1_555
Fe3 O22 1.936111 1_555
Fe3 O36 1.959635 1_655
Fe4 O47 1.923662 1_555
Fe4 O10 1.960658 1_555
Fe4 O44 1.972404 1_555
Fe4 O24 2.000842 1_555
Fe4 O26 2.037334 1_555
Fe5 O26 1.970418 1_555
Fe5 O2 1.995525 1_555
Fe5 O14 2.028444 1_555
Fe5 O47 2.072671 1_555
Fe5 O15 2.123648 1_555
Fe6 O29 1.884383 1_555
Fe6 O40 1.909308 1_565
Fe6 O11 1.925239 1_554
Fe6 O19 1.935686 1_555
Fe7 O44 1.944525 1_555
Fe7 O46 1.950599 1_555
Fe7 O24 1.971665 1_555
Fe7 O32 2.134641 1_554
Fe7 O18 2.138012 1_554
Fe8 O42 1.933386 1_555
Fe8 O9 1.976428 1_555
Fe8 O33 2.017666 1_555
Fe8 O23 2.056311 1_555
Fe8 O41 2.123299 1_455
Fe9 O9 1.942604 1_555
Fe9 O45 1.949619 1_555
Fe9 O15 1.956140 1_555
Fe9 O37 2.002490 1_555
Fe9 O42 2.143346 1_555
Fe10 O1 1.985407 1_555
Fe10 O46 2.004305 1_555
Fe10 O39 2.057172 1_555
Fe10 O41 2.118983 1_555
Fe10 O28 2.185915 1_555
Fe10 O23 2.222566 1_655
Fe11 O31 1.939462 1_555
Fe11 O7 1.954115 1_555
Fe11 O15 1.962910 1_555
Fe11 O14 2.060811 1_555
Fe11 O16 2.313476 1_555
Fe12 O3 1.878103 1_555
Fe12 O0 1.937788 1_555
Fe12 O14 1.943707 1_555
Fe12 O18 2.148404 1_555
Fe12 O13 2.692944 1_555
Fe13 O26 1.867993 1_555
Fe13 O4 1.912524 1_555
Fe13 O36 1.959076 1_555
Fe13 O38 1.962812 1_555
Fe14 O45 1.946338 1_555
Fe14 O8 1.989452 1_556
Fe14 O44 2.003773 1_556
Fe14 O31 2.006255 1_555
Fe14 O37 2.074376 1_555
Fe15 O12 1.898195 1_555
Fe15 O33 2.012885 1_555
Fe15 O7 2.027706 1_565
Fe15 O6 2.062595 1_555
Fe15 O16 2.062650 1_565
Fe16 O17 1.893970 1_555
Fe16 O22 2.029995 1_555
Fe16 O3 2.070837 1_555
Fe16 O34 2.160312 1_545
Fe16 O16 2.194779 1_655
Fe16 O13 2.472694 1_555
Fe17 O2 1.913219 1_555
Fe17 O25 1.928609 1_555
Fe17 O0 1.970433 1_555
Fe17 O18 2.037741 1_555
Fe17 O32 2.177646 1_555
Fe18 O2 1.920966 1_555
Fe18 O35 1.941869 1_555
Fe18 O6 1.955538 1_555
Fe18 O42 1.973390 1_555
Fe18 O43 2.440362 1_555
Fe19 O17 1.886636 1_455
Fe19 O31 1.927056 1_555
Fe19 O16 2.016900 1_555
Fe19 O38 2.067110 1_556
Fe19 O40 2.071099 1_556
Fe20 O35 1.908479 1_555
Fe20 O47 1.914871 1_555
Fe20 O46 1.921429 1_555
Fe20 O39 1.988880 1_555
Fe21 O8 1.849018 1_555
Fe21 O21 1.888228 1_455
Fe21 O41 1.930146 1_455
Fe21 O4 2.009063 1_555
Fe22 O35 2.069932 1_555
Fe22 O29 2.089259 1_555
Fe22 O23 2.240918 1_555
Fe22 O8 2.257040 1_555
Fe22 O20 2.326571 1_555
Fe23 O27 1.798382 1_555
Fe23 O10 1.911717 1_555
Fe23 O5 1.938478 1_555
Fe23 O19 1.939370 1_545
Fe24 O30 1.848257 1_555
Fe24 O1 1.963929 1_545
Fe24 O19 1.977722 1_545
Fe24 O11 2.139272 1_544
Fe24 O34 2.158215 1_544
Fe25 O12 1.810231 1_655
Fe25 O28 1.937911 1_556
Fe25 O34 1.983808 1_555
Fe25 O1 2.002162 1_556
Fe26 O30 1.860227 1_555
Fe26 O24 1.895652 1_555
Fe26 O21 1.925930 1_555
Fe26 O5 1.971058 1_555
Fe26 O4 2.537754 1_655
Fe27 O9 1.912020 1_655
Fe27 O0 1.918002 1_555
Fe27 O13 2.017136 1_555
Fe27 O4 2.069177 1_655
Fe27 O41 2.229525 1_555
Fe28 O20 1.878416 1_555
Fe28 O33 1.923243 1_555
Fe28 O36 1.946570 1_565
Fe28 O23 1.964604 1_555
Fe29 O20 1.880932 1_545
Fe29 O10 1.881147 1_555
Fe29 O40 1.899466 1_555
Fe29 O38 1.900431 1_555
Fe30 O37 1.850473 1_655
Fe30 O21 1.898579 1_556
Fe30 O28 1.942034 1_556
Fe30 O18 2.028243 1_555
Fe31 O39 1.862267 1_555
Fe31 O22 1.904646 1_565
Fe31 O43 1.952232 1_555
Fe31 O25 1.971761 1_555
