# generated using pymatgen
data_Zr2Co3Mo
_symmetry_space_group_name_H-M   'P 1'
_cell_length_a   4.95202731
_cell_length_b   4.95202731
_cell_length_c   4.95202776
_cell_angle_alpha   62.08993537
_cell_angle_beta   62.08993537
_cell_angle_gamma   62.08992935
_symmetry_Int_Tables_number   1
_chemical_formula_structural   Zr2Co3Mo
_chemical_formula_sum   'Zr2 Co3 Mo1'
_cell_volume   89.88000026
_cell_formula_units_Z   1
loop_
 _symmetry_equiv_pos_site_id
 _symmetry_equiv_pos_as_xyz
  1  'x, y, z'
loop_
 _atom_site_type_symbol
 _atom_site_label
 _atom_site_symmetry_multiplicity
 _atom_site_fract_x
 _atom_site_fract_y
 _atom_site_fract_z
 _atom_site_occupancy
  Zr  Zr0  1  0.62775700  0.62775700  0.62775700  1
  Zr  Zr1  1  0.37224300  0.37224300  0.37224300  1
  Co  Co0  1  0.00000000  0.50000000  0.00000000  1
  Co  Co1  1  0.50000000  0.00000000  0.00000000  1
  Co  Co2  1  0.00000000  0.00000000  0.50000000  1
  Mo  Mo0  1  0.00000000  0.00000000  0.00000000  1
loop_
_geom_bond_atom_site_label_1
_geom_bond_atom_site_label_2
_geom_bond_distance
_geom_bond_site_symmetry_2
Co0 Mo0 2.476014 1_565
Co0 Mo0 2.476014 1_555
Co0 Co1 2.553813 1_465
Co0 Co1 2.553813 1_555
Co0 Co2 2.553813 1_564
Co0 Co2 2.553813 1_555
Co0 Zr0 2.862467 1_454
Co0 Zr1 2.862467 1_555
Co0 Zr0 2.974364 1_554
Co0 Zr1 2.974364 1_455
Co0 Zr0 2.974364 1_455
Co0 Zr1 2.974364 1_554
Co1 Mo0 2.476014 1_655
Co1 Mo0 2.476014 1_555
Co1 Co2 2.553813 1_654
Co1 Co2 2.553813 1_555
Co1 Zr1 2.862467 1_555
Co1 Zr0 2.862467 1_544
Co1 Zr0 2.974364 1_554
Co1 Zr1 2.974364 1_545
Co1 Zr0 2.974364 1_545
Co1 Zr1 2.974364 1_554
Co2 Mo0 2.476014 1_556
Co2 Mo0 2.476014 1_555
Co2 Zr1 2.862467 1_555
Co2 Zr0 2.862467 1_445
Co2 Zr1 2.974364 1_455
Co2 Zr1 2.974364 1_545
Co2 Zr0 2.974364 1_545
Co2 Zr0 2.974364 1_455
Mo0 Zr0 2.985230 1_544
Mo0 Zr1 2.985230 1_545
Mo0 Zr0 2.985230 1_454
Mo0 Zr1 2.985230 1_455
Mo0 Zr1 2.985230 1_554
Mo0 Zr0 2.985230 1_445
