# generated using pymatgen
data_EuCdPd
_symmetry_space_group_name_H-M   'P 1'
_cell_length_a   4.38424874
_cell_length_b   7.44406485
_cell_length_c   8.65783110
_cell_angle_alpha   89.99939294
_cell_angle_beta   90.00000000
_cell_angle_gamma   90.00000000
_symmetry_Int_Tables_number   1
_chemical_formula_structural   EuCdPd
_chemical_formula_sum   'Eu4 Cd4 Pd4'
_cell_volume   282.56244699
_cell_formula_units_Z   4
loop_
 _symmetry_equiv_pos_site_id
 _symmetry_equiv_pos_as_xyz
  1  'x, y, z'
loop_
 _atom_site_type_symbol
 _atom_site_label
 _atom_site_symmetry_multiplicity
 _atom_site_fract_x
 _atom_site_fract_y
 _atom_site_fract_z
 _atom_site_occupancy
  Eu  Eu0  1  0.25000000  0.53550614  0.81879877  1
  Eu  Eu1  1  0.75000000  0.46450606  0.18118977  1
  Eu  Eu2  1  0.25000000  0.03549854  0.68118961  1
  Eu  Eu3  1  0.75000000  0.96450794  0.31881491  1
  Cd  Cd0  1  0.25000000  0.14111225  0.06220777  1
  Cd  Cd1  1  0.75000000  0.35889536  0.56222555  1
  Cd  Cd2  1  0.25000000  0.64110389  0.43779524  1
  Cd  Cd3  1  0.75000000  0.85887397  0.93777720  1
  Pd  Pd0  1  0.75000000  0.23852774  0.87321022  1
  Pd  Pd1  1  0.25000000  0.26150738  0.37322678  1
  Pd  Pd2  1  0.75000000  0.73847963  0.62679639  1
  Pd  Pd3  1  0.25000000  0.76147911  0.12676679  1
loop_
_geom_bond_atom_site_label_1
_geom_bond_atom_site_label_2
_geom_bond_distance
_geom_bond_site_symmetry_2
Eu0 Pd2 3.138732 1_455
Eu0 Pd2 3.138732 1_555
Eu0 Pd0 3.148749 1_555
Eu0 Pd0 3.148749 1_455
Eu0 Pd3 3.152632 1_556
Eu1 Pd1 3.138981 1_555
Eu1 Pd1 3.138981 1_655
Eu1 Pd3 3.148736 1_555
Eu1 Pd3 3.148736 1_655
Eu1 Pd0 3.152738 1_554
Eu2 Pd0 3.139033 1_555
Eu2 Pd0 3.139033 1_455
Eu2 Pd2 3.148944 1_545
Eu2 Pd2 3.148944 1_445
Eu2 Pd1 3.152707 1_555
Eu3 Pd3 3.139157 1_655
Eu3 Pd3 3.139157 1_555
Eu3 Pd1 3.148866 1_565
Eu3 Pd1 3.148866 1_665
Eu3 Pd2 3.152921 1_555
Cd0 Pd0 2.829975 1_554
Cd0 Pd0 2.829975 1_454
Cd0 Pd1 2.837989 1_555
Cd0 Pd3 2.880753 1_545
Cd0 Cd3 3.221837 1_544
Cd0 Cd3 3.221837 1_444
Cd0 Eu3 3.386656 1_445
Cd0 Eu3 3.386656 1_545
Cd0 Eu2 3.391191 1_554
Cd0 Eu1 3.414971 1_455
Cd0 Eu1 3.414971 1_555
Cd0 Eu0 3.613924 1_554
Cd1 Pd1 2.829937 1_555
Cd1 Pd1 2.829937 1_655
Cd1 Pd0 2.837624 1_555
Cd1 Pd2 2.880427 1_555
Cd1 Cd2 3.221677 1_655
Cd1 Cd2 3.221677 1_555
Cd1 Eu0 3.386501 1_555
Cd1 Eu0 3.386501 1_655
Cd1 Eu1 3.391318 1_555
Cd1 Eu2 3.414924 1_555
Cd1 Eu2 3.414924 1_655
Cd1 Eu3 3.613930 1_545
Cd2 Pd2 2.829926 1_555
Cd2 Pd2 2.829926 1_455
Cd2 Pd3 2.838002 1_555
Cd2 Pd1 2.880513 1_555
Cd2 Eu1 3.386646 1_555
Cd2 Eu1 3.386646 1_455
Cd2 Eu0 3.391024 1_555
Cd2 Eu3 3.415005 1_455
Cd2 Eu3 3.415005 1_555
Cd2 Eu2 3.613891 1_565
Cd3 Pd3 2.829896 1_556
Cd3 Pd3 2.829896 1_656
Cd3 Pd2 2.837673 1_555
Cd3 Pd0 2.880917 1_565
Cd3 Eu2 3.386604 1_565
Cd3 Eu2 3.386604 1_665
Cd3 Eu3 3.391391 1_556
Cd3 Eu0 3.414825 1_655
Cd3 Eu0 3.414825 1_555
Cd3 Eu1 3.613785 1_556
