# generated using pymatgen
data_CeMg6V
_symmetry_space_group_name_H-M   'P 1'
_cell_length_a   6.58628990
_cell_length_b   6.58628990
_cell_length_c   5.01060300
_cell_angle_alpha   90.00000000
_cell_angle_beta   90.00000000
_cell_angle_gamma   120.45660418
_symmetry_Int_Tables_number   1
_chemical_formula_structural   CeMg6V
_chemical_formula_sum   'Ce1 Mg6 V1'
_cell_volume   187.36378792
_cell_formula_units_Z   1
loop_
 _symmetry_equiv_pos_site_id
 _symmetry_equiv_pos_as_xyz
  1  'x, y, z'
loop_
 _atom_site_type_symbol
 _atom_site_label
 _atom_site_symmetry_multiplicity
 _atom_site_fract_x
 _atom_site_fract_y
 _atom_site_fract_z
 _atom_site_occupancy
  Ce  Ce0  1  0.31934000  0.68066000  0.50000000  1
  Mg  Mg0  1  0.16479300  0.31887400  0.00000000  1
  Mg  Mg1  1  0.68112600  0.83520700  0.00000000  1
  Mg  Mg2  1  0.66662000  0.33338000  0.00000000  1
  Mg  Mg3  1  0.31830800  0.16305800  0.50000000  1
  Mg  Mg4  1  0.83694200  0.68169200  0.50000000  1
  Mg  Mg5  1  0.83888800  0.16111200  0.50000000  1
  V  V0  1  0.17398400  0.82601600  0.00000000  1
loop_
_geom_bond_atom_site_label_1
_geom_bond_atom_site_label_2
_geom_bond_distance
_geom_bond_site_symmetry_2
Ce0 V0 3.006452 1_556
Ce0 V0 3.006452 1_555
Ce0 Mg3 3.180664 1_565
Ce0 Mg4 3.180664 1_455
Ce0 Mg1 3.245249 1_556
Ce0 Mg1 3.245249 1_555
Ce0 Mg0 3.245249 1_556
Ce0 Mg0 3.245249 1_555
Ce0 Mg5 3.278020 1_565
Ce0 Mg5 3.278020 1_455
Ce0 Mg4 3.405637 1_555
Ce0 Mg3 3.405637 1_555
Mg0 Mg3 3.066588 1_555
Mg0 Mg3 3.066588 1_554
Mg0 Mg5 3.114900 1_455
Mg0 Mg5 3.114900 1_454
Mg0 Mg1 3.163560 1_445
Mg0 Mg2 3.257791 1_555
Mg0 V0 3.277205 1_545
Mg0 V0 3.309911 1_555
Mg0 Mg2 3.330558 1_455
Mg0 Mg1 3.377222 1_555
Mg1 Mg4 3.066588 1_555
Mg1 Mg4 3.066588 1_554
Mg1 Mg5 3.114900 1_564
Mg1 Mg5 3.114900 1_565
Mg1 Mg2 3.257791 1_555
Mg1 V0 3.277205 1_655
Mg1 V0 3.309911 1_555
Mg1 Mg2 3.330558 1_565
Mg2 Mg5 3.186889 1_554
Mg2 Mg5 3.186889 1_555
Mg2 Mg4 3.191998 1_554
Mg2 Mg4 3.191998 1_555
Mg2 Mg3 3.191998 1_554
Mg2 Mg3 3.191998 1_555
Mg2 V0 3.271475 1_655
Mg2 V0 3.271475 1_545
Mg3 Mg4 3.148510 1_445
Mg3 Mg5 3.151122 1_455
Mg3 V0 3.157324 1_545
Mg3 V0 3.157324 1_546
Mg3 Mg4 3.392272 1_555
Mg3 Mg5 3.435205 1_555
Mg4 Mg5 3.151122 1_565
Mg4 V0 3.157324 1_656
Mg4 V0 3.157324 1_655
Mg4 Mg5 3.435205 1_555
