# generated using pymatgen
data_La5Ge3O
_symmetry_space_group_name_H-M   'P 1'
_cell_length_a   8.98207619
_cell_length_b   8.98207671
_cell_length_c   6.73988722
_cell_angle_alpha   90.00000000
_cell_angle_beta   90.00000000
_cell_angle_gamma   120.00005059
_symmetry_Int_Tables_number   1
_chemical_formula_structural   La5Ge3O
_chemical_formula_sum   'La10 Ge6 O2'
_cell_volume   470.90850468
_cell_formula_units_Z   2
loop_
 _symmetry_equiv_pos_site_id
 _symmetry_equiv_pos_as_xyz
  1  'x, y, z'
loop_
 _atom_site_type_symbol
 _atom_site_label
 _atom_site_symmetry_multiplicity
 _atom_site_fract_x
 _atom_site_fract_y
 _atom_site_fract_z
 _atom_site_occupancy
  La  La0  1  0.22907280  0.99999524  0.75000000  1
  La  La1  1  0.77092243  0.99999524  0.25000000  1
  La  La2  1  0.00000476  0.22907757  0.75000000  1
  La  La3  1  0.00000476  0.77092820  0.25000000  1
  La  La4  1  0.77092243  0.77092720  0.75000000  1
  La  La5  1  0.22907380  0.22907757  0.25000000  1
  La  La6  1  0.33333300  0.66666700  0.50000000  1
  La  La7  1  0.66666600  0.33333300  0.50000000  1
  La  La8  1  0.66666600  0.33333300  0.00000000  1
  La  La9  1  0.33333300  0.66666700  -0.00000000  1
  Ge  Ge0  1  0.60223023  -0.00000429  0.75000000  1
  Ge  Ge1  1  0.39776648  -0.00000329  0.25000000  1
  Ge  Ge2  1  0.00000329  0.60223452  0.75000000  1
  Ge  Ge3  1  0.00000429  0.39776977  0.25000000  1
  Ge  Ge4  1  0.39776648  0.39776977  0.75000000  1
  Ge  Ge5  1  0.60223023  0.60223352  0.25000000  1
  O  O0  1  -0.00000000  0.00000000  0.50000000  1
  O  O1  1  -0.00000000  0.00000000  0.00000000  1
loop_
_geom_bond_atom_site_label_1
_geom_bond_atom_site_label_2
_geom_bond_distance
_geom_bond_site_symmetry_2
La0 O0 2.659460 1_565
La0 O1 2.659460 1_566
La1 O0 2.659460 1_665
La1 O1 2.659460 1_665
La2 O0 2.659460 1_555
La2 O1 2.659460 1_556
La3 O0 2.659453 1_565
La3 O1 2.659453 1_565
La4 O1 2.659459 1_666
La4 O0 2.659459 1_665
La5 O0 2.659462 1_555
La5 O1 2.659462 1_555
Ge0 La4 3.105923 1_545
Ge0 La2 3.106033 1_655
Ge0 La6 3.225722 1_545
Ge0 La9 3.225722 1_546
Ge0 La7 3.225777 1_555
Ge0 La8 3.225777 1_556
Ge0 La0 3.351726 1_545
Ge0 La1 3.694912 1_545
Ge0 La1 3.694912 1_546
Ge1 La3 3.105928 1_545
Ge1 La5 3.106027 1_555
Ge1 La6 3.225726 1_545
Ge1 La9 3.225726 1_545
Ge1 La8 3.225765 1_555
Ge1 La7 3.225765 1_555
Ge1 La1 3.351722 1_545
Ge1 La0 3.694914 1_544
Ge1 La0 3.694914 1_545
Ge2 La0 3.105922 1_555
Ge2 La4 3.106027 1_455
Ge2 La9 3.225728 1_556
Ge2 La6 3.225728 1_555
Ge2 La8 3.225776 1_456
Ge2 La7 3.225776 1_455
Ge2 La2 3.351731 1_555
Ge2 La3 3.694914 1_556
Ge2 La3 3.694914 1_555
Ge3 La5 3.105931 1_555
Ge3 La1 3.106033 1_445
Ge3 La6 3.225722 1_555
Ge3 La9 3.225722 1_555
Ge3 La7 3.225782 1_455
Ge3 La8 3.225782 1_455
Ge3 La3 3.351736 1_555
Ge3 La2 3.694912 1_554
Ge3 La2 3.694912 1_555
Ge4 La2 3.105929 1_555
Ge4 La0 3.106033 1_545
Ge4 La6 3.225734 1_555
Ge4 La9 3.225734 1_556
Ge4 La7 3.225767 1_555
Ge4 La8 3.225767 1_556
Ge4 La4 3.351719 1_555
Ge4 La5 3.694912 1_555
Ge4 La5 3.694912 1_556
Ge5 La1 3.105929 1_555
Ge5 La3 3.106032 1_655
Ge5 La6 3.225734 1_555
Ge5 La9 3.225734 1_555
Ge5 La7 3.225770 1_555
Ge5 La8 3.225770 1_555
Ge5 La5 3.351715 1_555
Ge5 La4 3.694914 1_555
Ge5 La4 3.694914 1_554
