# generated using pymatgen
data_CaCo(GeO3)2
_symmetry_space_group_name_H-M   'P 1'
_cell_length_a   9.11333700
_cell_length_b   5.34203500
_cell_length_c   10.36411411
_cell_angle_alpha   75.06945885
_cell_angle_beta   90.00000000
_cell_angle_gamma   90.00000000
_symmetry_Int_Tables_number   1
_chemical_formula_structural   CaCo(GeO3)2
_chemical_formula_sum   'Ca4 Co4 Ge8 O24'
_cell_volume   487.52944851
_cell_formula_units_Z   4
loop_
 _symmetry_equiv_pos_site_id
 _symmetry_equiv_pos_as_xyz
  1  'x, y, z'
loop_
 _atom_site_type_symbol
 _atom_site_label
 _atom_site_symmetry_multiplicity
 _atom_site_fract_x
 _atom_site_fract_y
 _atom_site_fract_z
 _atom_site_occupancy
  Ca  Ca0  1  0.54783900  0.19314400  0.27580100  1
  Ca  Ca1  1  0.04783900  0.30685600  0.72419900  1
  Ca  Ca2  1  0.45216100  0.80685600  0.72419900  1
  Ca  Ca3  1  0.95216100  0.69314400  0.27580100  1
  Co  Co0  1  0.33631800  0.72800200  0.23378400  1
  Co  Co1  1  0.83631800  0.77199800  0.76621600  1
  Co  Co2  1  0.66368200  0.27199800  0.76621600  1
  Co  Co3  1  0.16368200  0.22800200  0.23378400  1
  Ge  Ge0  1  0.65229000  0.78116900  0.04456800  1
  Ge  Ge1  1  0.15229000  0.71883100  0.95543200  1
  Ge  Ge2  1  0.34771000  0.21883100  0.95543200  1
  Ge  Ge3  1  0.84771000  0.28116900  0.04456800  1
  Ge  Ge4  1  0.64926500  0.60831000  0.48722500  1
  Ge  Ge5  1  0.14926500  0.89169000  0.51277500  1
  Ge  Ge6  1  0.35073500  0.39169000  0.51277500  1
  Ge  Ge7  1  0.85073500  0.10831000  0.48722500  1
  O  O0  1  0.75425800  0.91442900  0.39483700  1
  O  O1  1  0.25425800  0.58557100  0.60516300  1
  O  O2  1  0.24574200  0.08557100  0.60516300  1
  O  O3  1  0.74574200  0.41442900  0.39483700  1
  O  O4  1  0.69124400  0.06818700  0.10272100  1
  O  O5  1  0.19124400  0.43181300  0.89727900  1
  O  O6  1  0.30875600  0.93181300  0.89727900  1
  O  O7  1  0.80875600  0.56818700  0.10272100  1
  O  O8  1  0.02540100  0.22988800  0.41676300  1
  O  O9  1  0.52540100  0.27011200  0.58323700  1
  O  O10  1  0.97459900  0.77011200  0.58323700  1
  O  O11  1  0.47459900  0.72988800  0.41676300  1
  O  O12  1  0.99163500  0.12066800  0.13919000  1
  O  O13  1  0.49163500  0.37933200  0.86081000  1
  O  O14  1  0.00836500  0.87933200  0.86081000  1
  O  O15  1  0.50836500  0.62066800  0.13919000  1
  O  O16  1  0.65320700  0.87112900  0.86905400  1
  O  O17  1  0.15320700  0.62887100  0.13094600  1
  O  O18  1  0.34679300  0.12887100  0.13094600  1
  O  O19  1  0.84679300  0.37112900  0.86905400  1
  O  O20  1  0.67308000  0.65704600  0.64922200  1
  O  O21  1  0.17308000  0.84295400  0.35077800  1
  O  O22  1  0.32692000  0.34295400  0.35077800  1
  O  O23  1  0.82692000  0.15704600  0.64922200  1
loop_
_geom_bond_atom_site_label_1
_geom_bond_atom_site_label_2
_geom_bond_distance
_geom_bond_site_symmetry_2
Ca0 O22 2.370268 1_555
Ca0 O15 2.384063 1_555
Ca0 O4 2.447119 1_555
Ca0 O18 2.448335 1_555
Ca0 O0 2.516171 1_545
Ca0 O11 2.615556 1_545
Ca0 O3 2.631297 1_555
Ca1 O23 2.370268 1_455
Ca1 O14 2.384063 1_545
Ca1 O5 2.447119 1_555
Ca1 O19 2.448335 1_455
Ca1 O1 2.516171 1_555
Ca1 O10 2.615556 1_455
Ca1 O2 2.631297 1_555
Ca2 O20 2.370268 1_555
Ca2 O13 2.384063 1_555
Ca2 O6 2.447119 1_555
Ca2 O16 2.448335 1_555
Ca2 O2 2.516171 1_565
Ca2 O9 2.615556 1_565
Ca2 O1 2.631297 1_555
Ca3 O21 2.370268 1_655
Ca3 O12 2.384063 1_565
Ca3 O7 2.447119 1_555
Ca3 O17 2.448335 1_655
Ca3 O3 2.516171 1_555
Ca3 O8 2.615556 1_655
Ca3 O0 2.631297 1_555
Co0 O15 2.009468 1_555
Co0 O22 2.103183 1_555
Co0 O21 2.108106 1_555
Co0 O17 2.119433 1_555
Co0 O18 2.134200 1_565
Co0 O11 2.279133 1_555
Co1 O14 2.009468 1_655
Co1 O23 2.103183 1_565
Co1 O20 2.108106 1_555
Co1 O16 2.119433 1_555
Co1 O19 2.134200 1_555
Co1 O10 2.279133 1_555
Co2 O13 2.009468 1_555
Co2 O20 2.103183 1_555
Co2 O23 2.108106 1_555
Co2 O19 2.119433 1_555
Co2 O16 2.134200 1_545
Co2 O9 2.279133 1_555
Co3 O12 2.009468 1_455
Co3 O21 2.103183 1_545
Co3 O22 2.108106 1_555
Co3 O18 2.119433 1_555
Co3 O17 2.134200 1_555
Co3 O8 2.279133 1_555
Ge0 O15 1.727418 1_555
Ge0 O16 1.757694 1_554
Ge0 O4 1.821085 1_565
Ge0 O7 1.826926 1_555
Ge1 O14 1.727418 1_555
Ge1 O17 1.757694 1_556
Ge1 O5 1.821085 1_555
Ge1 O6 1.826926 1_555
Ge2 O13 1.727418 1_555
Ge2 O18 1.757694 1_556
Ge2 O6 1.821085 1_545
Ge2 O5 1.826926 1_555
Ge3 O12 1.727418 1_555
Ge3 O19 1.757694 1_554
Ge3 O7 1.821085 1_555
Ge3 O4 1.826926 1_555
Ge4 O20 1.777363 1_555
Ge4 O11 1.801253 1_555
Ge4 O3 1.809317 1_555
Ge4 O0 1.923464 1_555
Ge4 O9 2.145241 1_555
Ge5 O21 1.777363 1_555
Ge5 O10 1.801253 1_455
Ge5 O2 1.809317 1_565
Ge5 O1 1.923464 1_555
Ge5 O8 2.145241 1_565
Ge6 O22 1.777363 1_555
Ge6 O9 1.801253 1_555
Ge6 O1 1.809317 1_555
Ge6 O2 1.923464 1_555
Ge6 O11 2.145241 1_555
Ge7 O23 1.777363 1_555
Ge7 O8 1.801253 1_655
Ge7 O0 1.809317 1_545
Ge7 O3 1.923464 1_555
Ge7 O10 2.145241 1_545
