# generated using pymatgen
data_TiCuGe
_symmetry_space_group_name_H-M   'P 1'
_cell_length_a   3.79390263
_cell_length_b   6.27084664
_cell_length_c   7.25713503
_cell_angle_alpha   90.00000000
_cell_angle_beta   90.00000000
_cell_angle_gamma   90.00000000
_symmetry_Int_Tables_number   1
_chemical_formula_structural   TiCuGe
_chemical_formula_sum   'Ti4 Cu4 Ge4'
_cell_volume   172.65436568
_cell_formula_units_Z   4
loop_
 _symmetry_equiv_pos_site_id
 _symmetry_equiv_pos_as_xyz
  1  'x, y, z'
loop_
 _atom_site_type_symbol
 _atom_site_label
 _atom_site_symmetry_multiplicity
 _atom_site_fract_x
 _atom_site_fract_y
 _atom_site_fract_z
 _atom_site_occupancy
  Ti  Ti0  1  0.25000000  0.02157133  0.81653510  1
  Ti  Ti1  1  0.25000000  0.52157133  0.68346490  1
  Ti  Ti2  1  0.75000000  0.97842867  0.18346490  1
  Ti  Ti3  1  0.75000000  0.47842867  0.31653510  1
  Cu  Cu0  1  0.25000000  0.15248552  0.43349737  1
  Cu  Cu1  1  0.25000000  0.65248552  0.06650263  1
  Cu  Cu2  1  0.75000000  0.84751448  0.56650263  1
  Cu  Cu3  1  0.75000000  0.34751448  0.93349737  1
  Ge  Ge0  1  0.25000000  0.76382829  0.38179417  1
  Ge  Ge1  1  0.25000000  0.26382829  0.11820583  1
  Ge  Ge2  1  0.75000000  0.23617171  0.61820583  1
  Ge  Ge3  1  0.75000000  0.73617171  0.88179417  1
loop_
_geom_bond_atom_site_label_1
_geom_bond_atom_site_label_2
_geom_bond_distance
_geom_bond_site_symmetry_2
Cu0 Ge2 2.381310 1_455
Cu0 Ge2 2.381310 1_555
Cu0 Ge1 2.392272 1_555
Cu0 Ge0 2.465924 1_545
Cu0 Ti2 2.842928 1_445
Cu0 Ti2 2.842928 1_545
Cu0 Ti0 2.898447 1_555
Cu0 Ti3 2.914892 1_455
Cu0 Ti3 2.914892 1_555
Cu0 Ti1 2.940679 1_555
Cu1 Ge3 2.381310 1_454
Cu1 Ge3 2.381310 1_554
Cu1 Ge0 2.392272 1_555
Cu1 Ge1 2.465924 1_555
Cu1 Ti3 2.842928 1_555
Cu1 Ti3 2.842928 1_455
Cu1 Ti1 2.898447 1_554
Cu1 Ti2 2.914892 1_455
Cu1 Ti2 2.914892 1_555
Cu1 Ti0 2.940679 1_564
Cu2 Ge0 2.381310 1_655
Cu2 Ge0 2.381310 1_555
Cu2 Ge3 2.392272 1_555
Cu2 Ge2 2.465924 1_565
Cu2 Ti0 2.842928 1_565
Cu2 Ti0 2.842928 1_665
Cu2 Ti2 2.898447 1_555
Cu2 Ti1 2.914892 1_555
Cu2 Ti1 2.914892 1_655
Cu2 Ti3 2.940679 1_555
Cu3 Ge1 2.381310 1_556
Cu3 Ge1 2.381310 1_656
Cu3 Ge2 2.392272 1_555
Cu3 Ge3 2.465924 1_555
Cu3 Ti1 2.842928 1_555
Cu3 Ti1 2.842928 1_655
Cu3 Ti3 2.898447 1_556
Cu3 Ti0 2.914892 1_555
Cu3 Ti0 2.914892 1_655
Cu3 Ti2 2.940679 1_546
Ge0 Ti3 2.650610 1_455
Ge0 Ti3 2.650610 1_555
Ge0 Ti1 2.664717 1_555
Ge0 Ti2 2.735141 1_455
Ge0 Ti2 2.735141 1_555
Ge1 Ti2 2.650610 1_545
Ge1 Ti2 2.650610 1_445
Ge1 Ti0 2.664717 1_554
Ge1 Ti3 2.735141 1_455
Ge1 Ti3 2.735141 1_555
Ge2 Ti1 2.650610 1_555
Ge2 Ti1 2.650610 1_655
Ge2 Ti3 2.664717 1_555
Ge2 Ti0 2.735141 1_555
Ge2 Ti0 2.735141 1_655
Ge3 Ti0 2.650610 1_565
Ge3 Ti0 2.650610 1_665
Ge3 Ti2 2.664717 1_556
Ge3 Ti1 2.735141 1_555
Ge3 Ti1 2.735141 1_655
