# generated using pymatgen
data_NdEuTi4O12
_symmetry_space_group_name_H-M   'P 1'
_cell_length_a   5.89459452
_cell_length_b   5.89459452
_cell_length_c   8.41604427
_cell_angle_alpha   90.00000000
_cell_angle_beta   90.00000000
_cell_angle_gamma   89.42677943
_symmetry_Int_Tables_number   1
_chemical_formula_structural   NdEuTi4O12
_chemical_formula_sum   'Nd1 Eu1 Ti4 O12'
_cell_volume   292.41129803
_cell_formula_units_Z   1
loop_
 _symmetry_equiv_pos_site_id
 _symmetry_equiv_pos_as_xyz
  1  'x, y, z'
loop_
 _atom_site_type_symbol
 _atom_site_label
 _atom_site_symmetry_multiplicity
 _atom_site_fract_x
 _atom_site_fract_y
 _atom_site_fract_z
 _atom_site_occupancy
  Nd  Nd0  1  0.00782272  0.00782272  0.00000000  1
  Eu  Eu0  1  0.49369071  0.49369071  0.50000000  1
  Ti  Ti0  1  0.50257925  0.99743933  0.74923415  1
  Ti  Ti1  1  0.50257925  0.99743933  0.25076585  1
  Ti  Ti2  1  0.99743933  0.50257925  0.25076585  1
  Ti  Ti3  1  0.99743933  0.50257925  0.74923415  1
  O  O0  1  0.72182317  0.27772691  0.74851166  1
  O  O1  1  0.27772691  0.72182317  0.74851166  1
  O  O2  1  0.27772691  0.72182317  0.25148834  1
  O  O3  1  0.72182317  0.27772691  0.25148834  1
  O  O4  1  0.77964361  0.77964361  0.77960628  1
  O  O5  1  0.22406297  0.22406297  0.72242719  1
  O  O6  1  0.22406297  0.22406297  0.27757281  1
  O  O7  1  0.77964361  0.77964361  0.22039372  1
  O  O8  1  0.46647072  0.02509075  0.00000000  1
  O  O9  1  0.52938338  0.96979125  0.50000000  1
  O  O10  1  0.02509075  0.46647072  0.00000000  1
  O  O11  1  0.96979125  0.52938338  0.50000000  1
loop_
_geom_bond_atom_site_label_1
_geom_bond_atom_site_label_2
_geom_bond_distance
_geom_bond_site_symmetry_2
Nd0 O7 2.663610 1_445
Nd0 O4 2.663610 1_444
Nd0 O8 2.706477 1_555
Nd0 O10 2.706477 1_555
Nd0 O5 2.956208 1_554
Nd0 O6 2.956208 1_555
Nd0 O0 3.130393 1_454
Nd0 O1 3.130393 1_544
Nd0 O3 3.130393 1_455
Nd0 O2 3.130393 1_545
Nd0 O8 3.191656 1_455
Nd0 O10 3.191656 1_545
Eu0 O2 2.787289 1_555
Eu0 O3 2.787289 1_555
Eu0 O1 2.787289 1_555
Eu0 O0 2.787289 1_555
Eu0 O11 2.816393 1_555
Eu0 O9 2.816393 1_555
Eu0 O5 2.933736 1_555
Eu0 O6 2.933736 1_555
Eu0 O9 3.093233 1_545
Eu0 O11 3.093233 1_455
O0 Ti3 2.106968 1_555
O0 Ti0 2.107758 1_545
O1 Ti0 2.106968 1_555
O1 Ti3 2.107758 1_455
O2 Ti1 2.106968 1_555
O2 Ti2 2.107758 1_455
O3 Ti2 2.106968 1_555
O3 Ti1 2.107758 1_545
O4 Ti3 2.082992 1_555
O4 Ti0 2.082992 1_555
O5 Ti0 2.118215 1_545
O5 Ti3 2.118215 1_455
O6 Ti1 2.118215 1_545
O6 Ti2 2.118215 1_455
O7 Ti1 2.082992 1_555
O7 Ti2 2.082992 1_555
O8 Ti0 2.127252 1_544
O8 Ti1 2.127252 1_545
O9 Ti1 2.109690 1_555
O9 Ti0 2.109690 1_555
O10 Ti3 2.127252 1_454
O10 Ti2 2.127252 1_455
O11 Ti2 2.109690 1_555
O11 Ti3 2.109690 1_555
