# generated using pymatgen
data_K6Na4Tl13
_symmetry_space_group_name_H-M   'P 1'
_cell_length_a   10.01953460
_cell_length_b   10.01953802
_cell_length_c   10.01953606
_cell_angle_alpha   109.47121008
_cell_angle_beta   109.47119813
_cell_angle_gamma   109.47120866
_symmetry_Int_Tables_number   1
_chemical_formula_structural   K6Na4Tl13
_chemical_formula_sum   'K6 Na4 Tl13'
_cell_volume   774.32130707
_cell_formula_units_Z   1
loop_
 _symmetry_equiv_pos_site_id
 _symmetry_equiv_pos_as_xyz
  1  'x, y, z'
loop_
 _atom_site_type_symbol
 _atom_site_label
 _atom_site_symmetry_multiplicity
 _atom_site_fract_x
 _atom_site_fract_y
 _atom_site_fract_z
 _atom_site_occupancy
  K  K0  1  0.82780523  0.32780406  0.49999981  1
  K  K1  1  0.17219482  0.67219597  0.50000024  1
  K  K2  1  0.32780401  0.49999998  0.82780404  1
  K  K3  1  0.67219601  0.49999999  0.17219594  1
  K  K4  1  0.49999986  0.82780526  0.32780531  1
  K  K5  1  0.50000015  0.17219480  0.67219473  1
  Na  Na0  1  0.49999998  0.49999999  0.50000001  1
  Na  Na1  1  0.49999998  0.00000000  0.00000001  1
  Na  Na2  1  -0.00000003  0.50000001  0.00000000  1
  Na  Na3  1  -0.00000001  -0.00000000  0.50000001  1
  Tl  Tl0  1  0.85770357  0.75830947  0.61601458  1
  Tl  Tl1  1  0.14229647  0.24169052  0.38398547  1
  Tl  Tl2  1  0.14229555  0.75831007  0.90060571  1
  Tl  Tl3  1  0.85770434  0.24168995  0.09939425  1
  Tl  Tl4  1  0.75830965  0.61601449  0.85770351  1
  Tl  Tl5  1  0.24169048  0.38398550  0.14229646  1
  Tl  Tl6  1  0.75830993  0.90060572  0.14229552  1
  Tl  Tl7  1  0.24169005  0.09939426  0.85770457  1
  Tl  Tl8  1  0.61601447  0.85770369  0.75830947  1
  Tl  Tl9  1  0.38398545  0.14229630  0.24169042  1
  Tl  Tl10  1  0.09939442  0.85770386  0.24168990  1
  Tl  Tl11  1  0.90060555  0.14229611  0.75831007  1
  Tl  Tl12  1  0.00000006  -0.00000001  -0.00000004  1
loop_
_geom_bond_atom_site_label_1
_geom_bond_atom_site_label_2
_geom_bond_distance
_geom_bond_site_symmetry_2
K0 Tl11 3.679362 1_555
K0 Tl9 3.679378 1_555
K0 Tl3 3.951021 1_555
K0 Tl1 3.951022 1_655
K0 Tl2 3.951031 1_655
K0 Tl0 3.951031 1_555
K1 Tl10 3.679363 1_555
K1 Tl8 3.679377 1_555
K1 Tl2 3.951021 1_555
K1 Tl0 3.951022 1_455
K1 Tl1 3.951032 1_555
K1 Tl3 3.951032 1_455
K2 Tl2 3.679367 1_555
K2 Tl1 3.679369 1_555
K2 Tl4 3.951028 1_555
K2 Tl7 3.951031 1_555
K2 Tl6 3.951031 1_556
K2 Tl5 3.951034 1_556
K3 Tl3 3.679365 1_555
K3 Tl0 3.679370 1_555
K3 Tl5 3.951027 1_555
K3 Tl6 3.951030 1_555
K3 Tl7 3.951031 1_554
K3 Tl4 3.951035 1_554
K4 Tl6 3.679375 1_555
K4 Tl5 3.679377 1_555
K4 Tl10 3.951016 1_555
K4 Tl8 3.951018 1_555
K4 Tl11 3.951024 1_565
K4 Tl9 3.951026 1_565
K5 Tl7 3.679376 1_555
K5 Tl4 3.679377 1_555
K5 Tl11 3.951016 1_555
K5 Tl9 3.951019 1_555
K5 Tl10 3.951025 1_545
K5 Tl8 3.951026 1_545
Na0 Tl1 3.150852 1_555
Na0 Tl0 3.150852 1_555
Na0 Tl5 3.150853 1_555
Na0 Tl4 3.150853 1_555
Na0 Tl8 3.150854 1_555
Na0 Tl9 3.150854 1_555
Na1 Tl7 3.150858 1_554
Na1 Tl6 3.150858 1_545
Na1 Tl3 3.150860 1_555
Na1 Tl2 3.150861 1_544
Na1 Tl9 3.150866 1_555
Na1 Tl8 3.150866 1_544
Na2 Tl10 3.150856 1_555
Na2 Tl11 3.150857 1_454
Na2 Tl3 3.150859 1_455
Na2 Tl2 3.150859 1_554
Na2 Tl4 3.150866 1_454
Na2 Tl5 3.150867 1_555
Na3 Tl11 3.150862 1_455
Na3 Tl10 3.150862 1_545
Na3 Tl6 3.150862 1_445
Na3 Tl7 3.150863 1_555
Na3 Tl1 3.150868 1_555
Na3 Tl0 3.150868 1_445
Tl0 Tl12 3.244887 1_666
Tl1 Tl12 3.244888 1_555
Tl10 Tl12 3.244892 1_565
Tl11 Tl12 3.244892 1_656
Tl12 Tl7 3.244886 1_554
Tl12 Tl2 3.244886 1_544
Tl12 Tl9 3.244887 1_555
Tl12 Tl6 3.244888 1_445
Tl12 Tl5 3.244888 1_555
Tl12 Tl4 3.244888 1_444
Tl12 Tl3 3.244889 1_455
Tl12 Tl8 3.244889 1_444
