# generated using pymatgen
data_HoSe2
_symmetry_space_group_name_H-M   'P 1'
_cell_length_a   4.04713844
_cell_length_b   4.04713844
_cell_length_c   8.25891843
_cell_angle_alpha   90.00000000
_cell_angle_beta   90.00000000
_cell_angle_gamma   90.00000000
_symmetry_Int_Tables_number   1
_chemical_formula_structural   HoSe2
_chemical_formula_sum   'Ho2 Se4'
_cell_volume   135.27554671
_cell_formula_units_Z   2
loop_
 _symmetry_equiv_pos_site_id
 _symmetry_equiv_pos_as_xyz
  1  'x, y, z'
loop_
 _atom_site_type_symbol
 _atom_site_label
 _atom_site_symmetry_multiplicity
 _atom_site_fract_x
 _atom_site_fract_y
 _atom_site_fract_z
 _atom_site_occupancy
  Ho  Ho0  1  0.75000000  0.75000000  0.72680802  1
  Ho  Ho1  1  0.25000000  0.25000000  0.27319198  1
  Se  Se0  1  0.75000000  0.75000000  0.36986829  1
  Se  Se1  1  0.25000000  0.25000000  0.63013171  1
  Se  Se2  1  0.75000000  0.25000000  -0.00000000  1
  Se  Se3  1  0.25000000  0.75000000  -0.00000000  1
loop_
_geom_bond_atom_site_label_1
_geom_bond_atom_site_label_2
_geom_bond_distance
_geom_bond_site_symmetry_2
Ho0 Se0 2.947936 1_555
Ho0 Se1 2.971056 1_555
Ho0 Se1 2.971056 1_655
Ho0 Se1 2.971056 1_665
Ho0 Se1 2.971056 1_565
Ho0 Se2 3.030773 1_556
Ho0 Se2 3.030773 1_566
Ho0 Se3 3.030773 1_556
Ho0 Se3 3.030773 1_656
Ho1 Se1 2.947936 1_555
Ho1 Se0 2.971056 1_545
Ho1 Se0 2.971056 1_555
Ho1 Se0 2.971056 1_445
Ho1 Se0 2.971056 1_455
Ho1 Se2 3.030773 1_555
Ho1 Se2 3.030773 1_455
Ho1 Se3 3.030773 1_555
Ho1 Se3 3.030773 1_545
Se2 Se3 2.861759 1_645
Se2 Se3 2.861759 1_555
Se2 Se3 2.861759 1_655
Se2 Se3 2.861759 1_545
