# generated using pymatgen
data_Ba(ScTe2)2
_symmetry_space_group_name_H-M   'P 1'
_cell_length_a   4.32265696
_cell_length_b   13.46111045
_cell_length_c   15.70784655
_cell_angle_alpha   90.00000000
_cell_angle_beta   90.00000000
_cell_angle_gamma   90.00000000
_symmetry_Int_Tables_number   1
_chemical_formula_structural   Ba(ScTe2)2
_chemical_formula_sum   'Ba4 Sc8 Te16'
_cell_volume   914.00444877
_cell_formula_units_Z   4
loop_
 _symmetry_equiv_pos_site_id
 _symmetry_equiv_pos_as_xyz
  1  'x, y, z'
loop_
 _atom_site_type_symbol
 _atom_site_label
 _atom_site_symmetry_multiplicity
 _atom_site_fract_x
 _atom_site_fract_y
 _atom_site_fract_z
 _atom_site_occupancy
  Ba  Ba0  1  0.25000000  0.23790130  0.32817224  1
  Ba  Ba1  1  0.75000000  0.76209870  0.67182776  1
  Ba  Ba2  1  0.25000000  0.73790130  0.17182776  1
  Ba  Ba3  1  0.75000000  0.26209870  0.82817224  1
  Sc  Sc0  1  0.25000000  0.55635751  0.39017207  1
  Sc  Sc1  1  0.75000000  0.44364249  0.60982793  1
  Sc  Sc2  1  0.25000000  0.05635751  0.10982793  1
  Sc  Sc3  1  0.75000000  0.94364249  0.89017207  1
  Sc  Sc4  1  0.75000000  0.41993187  0.09641930  1
  Sc  Sc5  1  0.25000000  0.58006813  0.90358070  1
  Sc  Sc6  1  0.75000000  0.91993187  0.40358070  1
  Sc  Sc7  1  0.25000000  0.08006813  0.59641930  1
  Te  Te0  1  0.75000000  0.02808399  0.71495010  1
  Te  Te1  1  0.25000000  0.97191601  0.28504990  1
  Te  Te2  1  0.75000000  0.52808399  0.78504990  1
  Te  Te3  1  0.25000000  0.47191601  0.21495010  1
  Te  Te4  1  0.75000000  0.41323590  0.42659743  1
  Te  Te5  1  0.25000000  0.58676410  0.57340257  1
  Te  Te6  1  0.75000000  0.91323590  0.07340257  1
  Te  Te7  1  0.25000000  0.08676410  0.92659743  1
  Te  Te8  1  0.75000000  0.20284186  0.14949428  1
  Te  Te9  1  0.25000000  0.79715814  0.85050572  1
  Te  Te10  1  0.75000000  0.70284186  0.35050572  1
  Te  Te11  1  0.25000000  0.29715814  0.64949428  1
  Te  Te12  1  0.75000000  0.12119524  0.47389776  1
  Te  Te13  1  0.25000000  0.87880476  0.52610224  1
  Te  Te14  1  0.75000000  0.62119524  0.02610224  1
  Te  Te15  1  0.25000000  0.37880476  0.97389776  1
loop_
_geom_bond_atom_site_label_1
_geom_bond_atom_site_label_2
_geom_bond_distance
_geom_bond_site_symmetry_2
Ba0 Te12 3.518386 1_455
Ba0 Te12 3.518386 1_555
Ba0 Te4 3.554172 1_455
Ba0 Te4 3.554172 1_555
Ba0 Te8 3.573700 1_555
Ba0 Te8 3.573700 1_455
Ba0 Te3 3.617471 1_555
Ba0 Te1 3.643966 1_545
Ba1 Te13 3.518386 1_655
Ba1 Te13 3.518386 1_555
Ba1 Te5 3.554172 1_555
Ba1 Te5 3.554172 1_655
Ba1 Te9 3.573700 1_555
Ba1 Te9 3.573700 1_655
Ba1 Te2 3.617471 1_555
Ba1 Te0 3.643966 1_565
Ba2 Te14 3.518386 1_455
Ba2 Te14 3.518386 1_555
Ba2 Te6 3.554172 1_455
Ba2 Te6 3.554172 1_555
Ba2 Te10 3.573700 1_555
Ba2 Te10 3.573700 1_455
Ba2 Te1 3.617471 1_555
Ba2 Te3 3.643966 1_555
Ba3 Te15 3.518386 1_555
Ba3 Te15 3.518386 1_655
Ba3 Te7 3.554172 1_555
Ba3 Te7 3.554172 1_655
Ba3 Te11 3.573700 1_555
Ba3 Te11 3.573700 1_655
Ba3 Te0 3.617471 1_555
Ba3 Te2 3.643966 1_555
Sc0 Te5 2.907115 1_555
Sc0 Te4 2.951340 1_455
Sc0 Te4 2.951340 1_555
Sc0 Te3 2.977838 1_555
Sc0 Te10 2.991274 1_455
Sc0 Te10 2.991274 1_555
Sc1 Te4 2.907115 1_555
Sc1 Te5 2.951340 1_555
Sc1 Te5 2.951340 1_655
Sc1 Te2 2.977838 1_555
Sc1 Te11 2.991274 1_655
Sc1 Te11 2.991274 1_555
Sc2 Te7 2.907115 1_554
Sc2 Te6 2.951340 1_545
Sc2 Te6 2.951340 1_445
Sc2 Te1 2.977838 1_545
Sc2 Te8 2.991274 1_455
Sc2 Te8 2.991274 1_555
Sc3 Te6 2.907115 1_556
Sc3 Te7 2.951340 1_565
Sc3 Te7 2.951340 1_665
Sc3 Te0 2.977838 1_565
Sc3 Te9 2.991274 1_555
Sc3 Te9 2.991274 1_655
Sc4 Te14 2.925731 1_555
Sc4 Te3 2.937269 1_655
Sc4 Te3 2.937269 1_555
Sc4 Te15 2.946476 1_654
Sc4 Te15 2.946476 1_554
Sc4 Te8 3.038869 1_555
Sc5 Te15 2.925731 1_555
Sc5 Te2 2.937269 1_455
Sc5 Te2 2.937269 1_555
Sc5 Te14 2.946476 1_456
Sc5 Te14 2.946476 1_556
Sc5 Te9 3.038869 1_555
Sc6 Te12 2.925731 1_565
Sc6 Te1 2.937269 1_555
Sc6 Te1 2.937269 1_655
Sc6 Te13 2.946476 1_555
Sc6 Te13 2.946476 1_655
Sc6 Te10 3.038869 1_555
Sc7 Te13 2.925731 1_545
Sc7 Te0 2.937269 1_455
Sc7 Te0 2.937269 1_555
Sc7 Te12 2.946476 1_555
Sc7 Te12 2.946476 1_455
Sc7 Te11 3.038869 1_555
