# generated using pymatgen
data_Sr2U2O7
_symmetry_space_group_name_H-M   'P 1'
_cell_length_a   4.06372200
_cell_length_b   6.71427100
_cell_length_c   6.94042000
_cell_angle_alpha   69.99429341
_cell_angle_beta   90.00000000
_cell_angle_gamma   90.00000000
_symmetry_Int_Tables_number   1
_chemical_formula_structural   Sr2U2O7
_chemical_formula_sum   'Sr2 U2 O7'
_cell_volume   177.94208668
_cell_formula_units_Z   1
loop_
 _symmetry_equiv_pos_site_id
 _symmetry_equiv_pos_as_xyz
  1  'x, y, z'
loop_
 _atom_site_type_symbol
 _atom_site_label
 _atom_site_symmetry_multiplicity
 _atom_site_fract_x
 _atom_site_fract_y
 _atom_site_fract_z
 _atom_site_occupancy
  Sr  Sr0  1  0.00000000  0.51206400  0.49759700  1
  Sr  Sr1  1  0.50000000  0.50465100  0.99504100  1
  U  U0  1  0.00000000  0.00384600  0.01132700  1
  U  U1  1  0.50000000  0.99503100  0.48478200  1
  O  O0  1  0.50000000  0.31853900  0.39227000  1
  O  O1  1  0.00000000  0.32169500  0.88932800  1
  O  O2  1  0.50000000  0.66963600  0.59823300  1
  O  O3  1  0.00000000  0.68517800  0.11065400  1
  O  O4  1  0.50000000  0.04633200  0.14962300  1
  O  O5  1  0.00000000  0.95389100  0.40463400  1
  O  O6  1  0.50000000  0.96913900  0.80651100  1
loop_
_geom_bond_atom_site_label_1
_geom_bond_atom_site_label_2
_geom_bond_distance
_geom_bond_site_symmetry_2
O0 U1 2.043551 1_545
O0 Sr1 2.608638 1_554
O0 Sr0 2.645969 1_655
O0 Sr0 2.645969 1_555
O1 U0 2.008736 1_556
O1 Sr0 2.578324 1_555
O1 Sr1 2.606233 1_455
O1 Sr1 2.606233 1_555
O2 U1 2.053345 1_555
O2 Sr0 2.498247 1_555
O2 Sr0 2.498247 1_655
O2 Sr1 2.593124 1_555
O3 U0 2.010967 1_565
O3 Sr0 2.535225 1_555
O3 Sr1 2.628116 1_454
O3 Sr1 2.628116 1_554
O4 U1 2.231897 1_545
O4 U0 2.306178 1_655
O4 U0 2.306178 1_555
O4 Sr1 2.891660 1_554
O5 U1 2.149260 1_555
O5 U1 2.149260 1_455
O5 U0 2.633892 1_565
O5 Sr0 2.811949 1_555
O6 U1 2.179590 1_555
O6 U0 2.535765 1_666
O6 U0 2.535765 1_566
O6 Sr1 2.940448 1_555
