# generated using pymatgen
data_LiTiTe2
_symmetry_space_group_name_H-M   'P 1'
_cell_length_a   4.00214489
_cell_length_b   4.00214617
_cell_length_c   6.87854798
_cell_angle_alpha   90.00000000
_cell_angle_beta   90.00000000
_cell_angle_gamma   119.99998950
_symmetry_Int_Tables_number   1
_chemical_formula_structural   LiTiTe2
_chemical_formula_sum   'Li1 Ti1 Te2'
_cell_volume   95.41424153
_cell_formula_units_Z   1
loop_
 _symmetry_equiv_pos_site_id
 _symmetry_equiv_pos_as_xyz
  1  'x, y, z'
loop_
 _atom_site_type_symbol
 _atom_site_label
 _atom_site_symmetry_multiplicity
 _atom_site_fract_x
 _atom_site_fract_y
 _atom_site_fract_z
 _atom_site_occupancy
  Li  Li0  1  -0.00000000  0.00000000  0.50000000  1
  Ti  Ti0  1  -0.00000000  0.00000000  -0.00000000  1
  Te  Te0  1  0.33333300  0.66666700  0.23863635  1
  Te  Te1  1  0.66666700  0.33333300  0.76136365  1
loop_
_geom_bond_atom_site_label_1
_geom_bond_atom_site_label_2
_geom_bond_distance
_geom_bond_site_symmetry_2
Li0 Te0 2.927651 1_545
Li0 Te1 2.927651 1_455
Li0 Te0 2.927653 1_445
Li0 Te1 2.927653 1_555
Li0 Te1 2.927654 1_445
Li0 Te0 2.927654 1_555
Te0 Ti0 2.834338 1_565
Te0 Ti0 2.834341 1_665
Te0 Ti0 2.834342 1_555
Te1 Ti0 2.834338 1_656
Te1 Ti0 2.834341 1_556
Te1 Ti0 2.834342 1_666
