# generated using pymatgen
data_Ca3Fe3N5
_symmetry_space_group_name_H-M   'P 1'
_cell_length_a   5.66688626
_cell_length_b   6.86192517
_cell_length_c   8.29489086
_cell_angle_alpha   107.36465750
_cell_angle_beta   107.18239342
_cell_angle_gamma   94.63733197
_symmetry_Int_Tables_number   1
_chemical_formula_structural   Ca3Fe3N5
_chemical_formula_sum   'Ca6 Fe6 N10'
_cell_volume   289.01613900
_cell_formula_units_Z   2
loop_
 _symmetry_equiv_pos_site_id
 _symmetry_equiv_pos_as_xyz
  1  'x, y, z'
loop_
 _atom_site_type_symbol
 _atom_site_label
 _atom_site_symmetry_multiplicity
 _atom_site_fract_x
 _atom_site_fract_y
 _atom_site_fract_z
 _atom_site_occupancy
  Ca  Ca0  1  0.81040027  0.41328020  0.60187974  1
  Ca  Ca1  1  0.18959973  0.58671980  0.39812026  1
  Ca  Ca2  1  0.67078729  0.87355575  0.88306925  1
  Ca  Ca3  1  0.32921271  0.12644425  0.11693075  1
  Ca  Ca4  1  0.64958864  0.67269753  0.19669840  1
  Ca  Ca5  1  0.35041136  0.32730247  0.80330160  1
  Fe  Fe0  1  0.91068756  0.32533708  0.97393354  1
  Fe  Fe1  1  0.08931244  0.67466292  0.02606646  1
  Fe  Fe2  1  0.70161523  0.94906223  0.57002980  1
  Fe  Fe3  1  0.29838477  0.05093777  0.42997020  1
  Fe  Fe4  1  0.11851630  0.87004857  0.71246731  1
  Fe  Fe5  1  0.88148370  0.12995143  0.28753269  1
  N  N0  1  0.97650923  0.10615987  0.79821973  1
  N  N1  1  0.02349077  0.89384013  0.20178027  1
  N  N2  1  0.83021074  0.69973404  0.50721692  1
  N  N3  1  0.16978926  0.30026596  0.49278308  1
  N  N4  1  0.75834868  0.52983673  0.89463412  1
  N  N5  1  0.24165132  0.47016327  0.10536588  1
  N  N6  1  0.38064436  0.93468350  0.62550705  1
  N  N7  1  0.61935564  0.06531650  0.37449295  1
  N  N8  1  0.26310462  0.76093369  0.89974060  1
  N  N9  1  0.73689538  0.23906631  0.10025940  1
loop_
_geom_bond_atom_site_label_1
_geom_bond_atom_site_label_2
_geom_bond_distance
_geom_bond_site_symmetry_2
Ca0 N2 2.330352 1_555
Ca0 N4 2.434274 1_555
Ca0 N7 2.473481 1_555
Ca0 N3 2.548239 1_655
Ca0 N0 3.073023 1_555
Ca1 N3 2.330352 1_555
Ca1 N5 2.434274 1_555
Ca1 N6 2.473481 1_555
Ca1 N2 2.548239 1_455
Ca1 N1 3.073023 1_555
Ca2 N8 2.432622 1_555
Ca2 N6 2.452501 1_555
Ca2 N4 2.472743 1_555
Ca2 N9 2.535503 1_566
Ca2 N0 2.643540 1_565
Ca2 N1 2.759845 1_656
Ca3 N9 2.432622 1_555
Ca3 N7 2.452501 1_555
Ca3 N5 2.472743 1_555
Ca3 N8 2.535503 1_544
Ca3 N1 2.643540 1_545
Ca3 N0 2.759845 1_454
Ca4 N5 2.380508 1_555
Ca4 N2 2.417192 1_555
Ca4 N1 2.486602 1_655
Ca4 N4 2.676340 1_554
Ca4 N7 2.704609 1_565
Ca4 N9 2.964735 1_555
Ca4 N8 3.024586 1_554
Ca5 N4 2.380508 1_555
Ca5 N3 2.417192 1_555
Ca5 N0 2.486602 1_455
Ca5 N5 2.676340 1_556
Ca5 N6 2.704609 1_545
Ca5 N8 2.964735 1_555
Ca5 N9 3.024586 1_556
Fe0 N9 1.817727 1_556
Fe0 N5 1.880858 1_656
Fe0 N4 1.886379 1_555
Fe0 N0 1.904973 1_555
Fe1 N8 1.817727 1_554
Fe1 N4 1.880858 1_454
Fe1 N5 1.886379 1_555
Fe1 N1 1.904973 1_555
Fe2 N2 1.903537 1_555
Fe2 N7 1.967270 1_565
Fe2 N0 1.984922 1_565
Fe2 N6 2.005626 1_555
Fe3 N3 1.903537 1_555
Fe3 N6 1.967270 1_545
Fe3 N1 1.984922 1_545
Fe3 N7 2.005626 1_555
Fe4 N0 1.907790 1_465
Fe4 N6 1.908163 1_555
Fe4 N8 1.920026 1_555
Fe4 N2 1.947784 1_455
Fe5 N1 1.907790 1_645
Fe5 N7 1.908163 1_555
Fe5 N9 1.920026 1_555
Fe5 N3 1.947784 1_655
