# generated using pymatgen
data_Sr2PtN2
_symmetry_space_group_name_H-M   'P 1'
_cell_length_a   3.88450224
_cell_length_b   3.88450224
_cell_length_c   6.99269839
_cell_angle_alpha   106.12526676
_cell_angle_beta   106.12526676
_cell_angle_gamma   90.00325945
_symmetry_Int_Tables_number   1
_chemical_formula_structural   Sr2PtN2
_chemical_formula_sum   'Sr2 Pt1 N2'
_cell_volume   97.03475789
_cell_formula_units_Z   1
loop_
 _symmetry_equiv_pos_site_id
 _symmetry_equiv_pos_as_xyz
  1  'x, y, z'
loop_
 _atom_site_type_symbol
 _atom_site_label
 _atom_site_symmetry_multiplicity
 _atom_site_fract_x
 _atom_site_fract_y
 _atom_site_fract_z
 _atom_site_occupancy
  Sr  Sr0  1  0.14940600  0.64940600  0.79881400  1
  Sr  Sr1  1  0.85059400  0.35059400  0.20118600  1
  Pt  Pt0  1  0.50000000  0.00000000  0.50000000  1
  N  N0  1  0.64972600  0.14972600  0.79945000  1
  N  N1  1  0.35027400  0.85027400  0.20055000  1
loop_
_geom_bond_atom_site_label_1
_geom_bond_atom_site_label_2
_geom_bond_distance
_geom_bond_site_symmetry_2
N0 Pt0 1.925666 1_555
N0 Sr1 2.583434 1_556
N0 Sr0 2.746672 1_655
N0 Sr0 2.746694 1_545
N0 Sr0 2.746839 1_645
N0 Sr0 2.746839 1_555
N1 Pt0 1.925666 1_565
N1 Sr0 2.583434 1_554
N1 Sr1 2.746672 1_455
N1 Sr1 2.746694 1_565
N1 Sr1 2.746839 1_555
N1 Sr1 2.746839 1_465
