# generated using pymatgen
data_Er3Th
_symmetry_space_group_name_H-M   'P 1'
_cell_length_a   7.15224897
_cell_length_b   7.15224897
_cell_length_c   22.67960088
_cell_angle_alpha   90.00000000
_cell_angle_beta   90.00000000
_cell_angle_gamma   120.00002159
_symmetry_Int_Tables_number   1
_chemical_formula_structural   Er3Th
_chemical_formula_sum   'Er24 Th8'
_cell_volume   1004.73421744
_cell_formula_units_Z   8
loop_
 _symmetry_equiv_pos_site_id
 _symmetry_equiv_pos_as_xyz
  1  'x, y, z'
loop_
 _atom_site_type_symbol
 _atom_site_label
 _atom_site_symmetry_multiplicity
 _atom_site_fract_x
 _atom_site_fract_y
 _atom_site_fract_z
 _atom_site_occupancy
  Er  Er0_0  1  0.16666650  0.33333350  0.00000000  1
  Er  Er0_1  1  0.16666650  0.33333350  0.50000000  1
  Er  Er0_2  1  0.16666650  0.83333350  0.00000000  1
  Er  Er0_3  1  0.16666650  0.83333350  0.50000000  1
  Er  Er0_4  1  0.66666650  0.33333350  0.00000000  1
  Er  Er0_5  1  0.66666650  0.33333350  0.50000000  1
  Er  Er0_6  1  0.66666650  0.83333350  0.00000000  1
  Er  Er0_7  1  0.66666650  0.83333350  0.50000000  1
  Er  Er1_0  1  0.00000000  0.00000000  0.37666651  1
  Er  Er1_1  1  0.00000000  0.00000000  0.87666651  1
  Er  Er1_2  1  0.00000000  0.50000000  0.37666651  1
  Er  Er1_3  1  0.00000000  0.50000000  0.87666651  1
  Er  Er1_4  1  0.50000000  0.00000000  0.37666651  1
  Er  Er1_5  1  0.50000000  0.00000000  0.87666651  1
  Er  Er1_6  1  0.50000000  0.50000000  0.37666651  1
  Er  Er1_7  1  0.50000000  0.50000000  0.87666651  1
  Er  Er2_0  1  0.00000000  0.00000000  0.12333349  1
  Er  Er2_1  1  0.00000000  0.00000000  0.62333349  1
  Er  Er2_2  1  0.00000000  0.50000000  0.12333349  1
  Er  Er2_3  1  0.00000000  0.50000000  0.62333349  1
  Er  Er2_4  1  0.50000000  0.00000000  0.12333349  1
  Er  Er2_5  1  0.50000000  0.00000000  0.62333349  1
  Er  Er2_6  1  0.50000000  0.50000000  0.12333349  1
  Er  Er2_7  1  0.50000000  0.50000000  0.62333349  1
  Th  Th0_0  1  0.16666650  0.33333350  0.25000000  1
  Th  Th0_1  1  0.16666650  0.33333350  0.75000000  1
  Th  Th0_2  1  0.16666650  0.83333350  0.25000000  1
  Th  Th0_3  1  0.16666650  0.83333350  0.75000000  1
  Th  Th0_4  1  0.66666650  0.33333350  0.25000000  1
  Th  Th0_5  1  0.66666650  0.33333350  0.75000000  1
  Th  Th0_6  1  0.66666650  0.83333350  0.25000000  1
  Th  Th0_7  1  0.66666650  0.83333350  0.75000000  1
loop_
_geom_bond_atom_site_label_1
_geom_bond_atom_site_label_2
_geom_bond_distance
_geom_bond_site_symmetry_2
Er0_0 Er1_3 3.476630 1_554
Er0_0 Er2_2 3.476630 1_555
Er0_0 Er1_1 3.476631 1_554
Er0_0 Er1_7 3.476631 1_554
Er0_0 Er2_6 3.476631 1_555
Er0_0 Er2_0 3.476631 1_555
Er0_0 Er0_6 3.576123 1_555
Er0_0 Er0_6 3.576123 1_445
Er0_0 Er0_2 3.576124 1_555
Er0_0 Er0_4 3.576124 1_455
Er0_0 Er0_4 3.576124 1_555
Er0_0 Er0_2 3.576124 1_545
Er0_1 Er1_2 3.476630 1_555
Er0_1 Er2_3 3.476630 1_555
Er0_1 Er1_0 3.476631 1_555
Er0_1 Er1_6 3.476631 1_555
Er0_1 Er2_7 3.476631 1_555
Er0_1 Er2_1 3.476631 1_555
Er0_1 Er0_7 3.576123 1_555
Er0_1 Er0_7 3.576123 1_445
Er0_1 Er0_3 3.576124 1_555
Er0_1 Er0_5 3.576124 1_455
Er0_1 Er0_5 3.576124 1_555
Er0_1 Er0_3 3.576124 1_545
Er0_2 Er1_1 3.476630 1_564
Er0_2 Er2_0 3.476630 1_565
Er0_2 Er1_3 3.476631 1_554
Er0_2 Er1_5 3.476631 1_564
Er0_2 Er2_2 3.476631 1_555
Er0_2 Er2_4 3.476631 1_565
Er0_2 Er0_4 3.576123 1_455
Er0_2 Er0_4 3.576123 1_565
Er0_2 Er0_6 3.576124 1_455
Er0_2 Er0_6 3.576124 1_555
Er0_3 Er1_0 3.476630 1_565
Er0_3 Er2_1 3.476630 1_565
Er0_3 Er1_2 3.476631 1_555
Er0_3 Er1_4 3.476631 1_565
Er0_3 Er2_3 3.476631 1_555
Er0_3 Er2_5 3.476631 1_565
Er0_3 Er0_5 3.576123 1_455
Er0_3 Er0_5 3.576123 1_565
Er0_3 Er0_7 3.576124 1_455
Er0_3 Er0_7 3.576124 1_555
Er0_4 Er1_7 3.476630 1_554
Er0_4 Er2_6 3.476630 1_555
Er0_4 Er1_5 3.476631 1_554
Er0_4 Er1_3 3.476631 1_654
Er0_4 Er2_4 3.476631 1_555
Er0_4 Er2_2 3.476631 1_655
Er0_4 Er0_6 3.576124 1_555
Er0_4 Er0_6 3.576124 1_545
Er0_5 Er1_6 3.476630 1_555
Er0_5 Er2_7 3.476630 1_555
Er0_5 Er1_4 3.476631 1_555
Er0_5 Er1_2 3.476631 1_655
Er0_5 Er2_5 3.476631 1_555
Er0_5 Er2_3 3.476631 1_655
Er0_5 Er0_7 3.576124 1_555
Er0_5 Er0_7 3.576124 1_545
Er0_6 Er1_5 3.476630 1_564
Er0_6 Er2_4 3.476630 1_565
Er0_6 Er1_1 3.476631 1_664
Er0_6 Er1_7 3.476631 1_554
Er0_6 Er2_6 3.476631 1_555
Er0_6 Er2_0 3.476631 1_665
Er0_7 Er1_4 3.476630 1_565
Er0_7 Er2_5 3.476630 1_565
Er0_7 Er1_6 3.476631 1_555
Er0_7 Er1_0 3.476631 1_665
Er0_7 Er2_1 3.476631 1_665
Er0_7 Er2_7 3.476631 1_555
Er1_0 Th0_2 3.537732 1_545
Er1_0 Th0_6 3.537734 1_445
Er1_0 Th0_0 3.537734 1_555
Er1_0 Er1_6 3.576123 1_555
Er1_0 Er1_6 3.576123 1_445
Er1_0 Er1_2 3.576124 1_555
Er1_0 Er1_4 3.576124 1_455
Er1_0 Er1_2 3.576124 1_545
Er1_0 Er1_4 3.576124 1_555
Er1_1 Th0_3 3.537732 1_545
Er1_1 Th0_7 3.537734 1_445
Er1_1 Th0_1 3.537734 1_555
Er1_1 Er1_7 3.576123 1_555
Er1_1 Er1_7 3.576123 1_445
Er1_1 Er1_3 3.576124 1_555
Er1_1 Er1_5 3.576124 1_455
Er1_1 Er1_5 3.576124 1_555
Er1_1 Er1_3 3.576124 1_545
Er1_2 Th0_0 3.537732 1_555
Er1_2 Th0_4 3.537734 1_455
Er1_2 Th0_2 3.537734 1_555
Er1_2 Er1_4 3.576123 1_565
Er1_2 Er1_4 3.576123 1_455
Er1_2 Er1_6 3.576124 1_455
Er1_2 Er1_6 3.576124 1_555
Er1_3 Th0_1 3.537732 1_555
Er1_3 Th0_3 3.537734 1_555
Er1_3 Th0_5 3.537734 1_455
Er1_3 Er1_5 3.576123 1_565
Er1_3 Er1_5 3.576123 1_455
Er1_3 Er1_7 3.576124 1_455
Er1_3 Er1_7 3.576124 1_555
Er1_4 Th0_6 3.537732 1_545
Er1_4 Th0_4 3.537734 1_555
Er1_4 Th0_2 3.537734 1_545
Er1_4 Er1_6 3.576124 1_555
Er1_4 Er1_6 3.576124 1_545
Er1_5 Th0_7 3.537732 1_545
Er1_5 Th0_5 3.537734 1_555
Er1_5 Th0_3 3.537734 1_545
Er1_5 Er1_7 3.576124 1_555
Er1_5 Er1_7 3.576124 1_545
Er1_6 Th0_4 3.537732 1_555
Er1_6 Th0_6 3.537734 1_555
Er1_6 Th0_0 3.537734 1_555
Er1_7 Th0_5 3.537732 1_555
Er1_7 Th0_1 3.537734 1_555
Er1_7 Th0_7 3.537734 1_555
Er2_0 Th0_2 3.537732 1_545
Er2_0 Th0_6 3.537734 1_445
Er2_0 Th0_0 3.537734 1_555
Er2_0 Er2_6 3.576123 1_555
Er2_0 Er2_6 3.576123 1_445
Er2_0 Er2_2 3.576124 1_555
Er2_0 Er2_4 3.576124 1_455
Er2_0 Er2_4 3.576124 1_555
Er2_0 Er2_2 3.576124 1_545
Er2_1 Th0_3 3.537732 1_545
Er2_1 Th0_7 3.537734 1_445
Er2_1 Th0_1 3.537734 1_555
Er2_1 Er2_7 3.576123 1_555
Er2_1 Er2_7 3.576123 1_445
Er2_1 Er2_3 3.576124 1_555
Er2_1 Er2_5 3.576124 1_555
Er2_1 Er2_3 3.576124 1_545
Er2_1 Er2_5 3.576124 1_455
Er2_2 Th0_0 3.537732 1_555
Er2_2 Th0_2 3.537734 1_555
Er2_2 Th0_4 3.537734 1_455
Er2_2 Er2_4 3.576123 1_455
Er2_2 Er2_4 3.576123 1_565
Er2_2 Er2_6 3.576124 1_455
Er2_2 Er2_6 3.576124 1_555
Er2_3 Th0_1 3.537732 1_555
Er2_3 Th0_3 3.537734 1_555
Er2_3 Th0_5 3.537734 1_455
Er2_3 Er2_5 3.576123 1_455
Er2_3 Er2_5 3.576123 1_565
Er2_3 Er2_7 3.576124 1_455
Er2_3 Er2_7 3.576124 1_555
Er2_4 Th0_6 3.537732 1_545
Er2_4 Th0_2 3.537734 1_545
Er2_4 Th0_4 3.537734 1_555
Er2_4 Er2_6 3.576124 1_555
Er2_4 Er2_6 3.576124 1_545
Er2_5 Th0_7 3.537732 1_545
Er2_5 Th0_5 3.537734 1_555
Er2_5 Th0_3 3.537734 1_545
Er2_5 Er2_7 3.576124 1_555
Er2_5 Er2_7 3.576124 1_545
Er2_6 Th0_4 3.537732 1_555
Er2_6 Th0_0 3.537734 1_555
Er2_6 Th0_6 3.537734 1_555
Er2_7 Th0_5 3.537732 1_555
Er2_7 Th0_7 3.537734 1_555
Er2_7 Th0_1 3.537734 1_555
Th0_0 Th0_6 3.576123 1_555
Th0_0 Th0_6 3.576123 1_445
Th0_0 Th0_2 3.576124 1_555
Th0_0 Th0_4 3.576124 1_455
Th0_0 Th0_4 3.576124 1_555
Th0_0 Th0_2 3.576124 1_545
Th0_1 Th0_7 3.576123 1_555
Th0_1 Th0_7 3.576123 1_445
Th0_1 Th0_3 3.576124 1_555
Th0_1 Th0_5 3.576124 1_455
Th0_1 Th0_5 3.576124 1_555
Th0_1 Th0_3 3.576124 1_545
Th0_2 Th0_4 3.576123 1_455
Th0_2 Th0_4 3.576123 1_565
Th0_2 Th0_6 3.576124 1_555
Th0_2 Th0_6 3.576124 1_455
Th0_3 Th0_5 3.576123 1_455
Th0_3 Th0_5 3.576123 1_565
Th0_3 Th0_7 3.576124 1_455
Th0_3 Th0_7 3.576124 1_555
Th0_4 Th0_6 3.576124 1_555
Th0_4 Th0_6 3.576124 1_545
Th0_5 Th0_7 3.576124 1_555
Th0_5 Th0_7 3.576124 1_545
