# generated using pymatgen
data_KMg30SiO32
_symmetry_space_group_name_H-M   'P 1'
_cell_length_a   8.62464100
_cell_length_b   8.62464100
_cell_length_c   8.54210900
_cell_angle_alpha   90.00000000
_cell_angle_beta   90.00000000
_cell_angle_gamma   90.00000000
_symmetry_Int_Tables_number   1
_chemical_formula_structural   KMg30SiO32
_chemical_formula_sum   'K1 Mg30 Si1 O32'
_cell_volume   635.39992928
_cell_formula_units_Z   1
loop_
 _symmetry_equiv_pos_site_id
 _symmetry_equiv_pos_as_xyz
  1  'x, y, z'
loop_
 _atom_site_type_symbol
 _atom_site_label
 _atom_site_symmetry_multiplicity
 _atom_site_fract_x
 _atom_site_fract_y
 _atom_site_fract_z
 _atom_site_occupancy
  K  K0  1  0.00000000  0.00000000  0.00000000  1
  Mg  Mg0  1  0.50000000  0.00000000  0.00000000  1
  Mg  Mg1  1  0.50000000  0.00000000  0.50000000  1
  Mg  Mg2  1  0.00000000  0.50000000  0.00000000  1
  Mg  Mg3  1  0.00000000  0.50000000  0.50000000  1
  Mg  Mg4  1  0.50000000  0.50000000  0.00000000  1
  Mg  Mg5  1  0.50000000  0.50000000  0.50000000  1
  Mg  Mg6  1  0.25537500  0.00000000  0.24848300  1
  Mg  Mg7  1  0.25537500  0.00000000  0.75151700  1
  Mg  Mg8  1  0.74462500  0.00000000  0.24848300  1
  Mg  Mg9  1  0.74462500  0.00000000  0.75151700  1
  Mg  Mg10  1  0.25118600  0.50000000  0.24898000  1
  Mg  Mg11  1  0.25118600  0.50000000  0.75102000  1
  Mg  Mg12  1  0.74881400  0.50000000  0.24898000  1
  Mg  Mg13  1  0.74881400  0.50000000  0.75102000  1
  Mg  Mg14  1  0.00000000  0.25537500  0.24848300  1
  Mg  Mg15  1  0.00000000  0.25537500  0.75151700  1
  Mg  Mg16  1  0.50000000  0.25118600  0.24898000  1
  Mg  Mg17  1  0.50000000  0.25118600  0.75102000  1
  Mg  Mg18  1  0.00000000  0.74462500  0.24848300  1
  Mg  Mg19  1  0.00000000  0.74462500  0.75151700  1
  Mg  Mg20  1  0.50000000  0.74881400  0.24898000  1
  Mg  Mg21  1  0.50000000  0.74881400  0.75102000  1
  Mg  Mg22  1  0.25227700  0.25227700  0.00000000  1
  Mg  Mg23  1  0.25100100  0.25100100  0.50000000  1
  Mg  Mg24  1  0.74772300  0.25227700  0.00000000  1
  Mg  Mg25  1  0.74899900  0.25100100  0.50000000  1
  Mg  Mg26  1  0.25227700  0.74772300  0.00000000  1
  Mg  Mg27  1  0.25100100  0.74899900  0.50000000  1
  Mg  Mg28  1  0.74772300  0.74772300  0.00000000  1
  Mg  Mg29  1  0.74899900  0.74899900  0.50000000  1
  Si  Si0  1  0.00000000  0.00000000  0.50000000  1
  O  O0  1  0.00000000  0.27326500  0.00000000  1
  O  O1  1  0.00000000  0.22562100  0.50000000  1
  O  O2  1  0.50000000  0.25403400  0.00000000  1
  O  O3  1  0.50000000  0.24730000  0.50000000  1
  O  O4  1  0.00000000  0.72673500  0.00000000  1
  O  O5  1  0.00000000  0.77437900  0.50000000  1
  O  O6  1  0.50000000  0.74596600  0.00000000  1
  O  O7  1  0.50000000  0.75270000  0.50000000  1
  O  O8  1  0.24867600  0.24867600  0.25084600  1
  O  O9  1  0.24867600  0.24867600  0.74915400  1
  O  O10  1  0.75132400  0.24867600  0.25084600  1
  O  O11  1  0.75132400  0.24867600  0.74915400  1
  O  O12  1  0.24867600  0.75132400  0.25084600  1
  O  O13  1  0.24867600  0.75132400  0.74915400  1
  O  O14  1  0.75132400  0.75132400  0.25084600  1
  O  O15  1  0.75132400  0.75132400  0.74915400  1
  O  O16  1  0.00000000  0.00000000  0.29325600  1
  O  O17  1  0.00000000  0.00000000  0.70674400  1
  O  O18  1  0.50000000  0.00000000  0.25914600  1
  O  O19  1  0.50000000  0.00000000  0.74085400  1
  O  O20  1  0.00000000  0.50000000  0.25914600  1
  O  O21  1  0.00000000  0.50000000  0.74085400  1
  O  O22  1  0.50000000  0.50000000  0.25280500  1
  O  O23  1  0.50000000  0.50000000  0.74719500  1
  O  O24  1  0.27326500  0.00000000  0.00000000  1
  O  O25  1  0.22562100  0.00000000  0.50000000  1
  O  O26  1  0.72673500  0.00000000  0.00000000  1
  O  O27  1  0.77437900  0.00000000  0.50000000  1
  O  O28  1  0.25403400  0.50000000  0.00000000  1
  O  O29  1  0.24730000  0.50000000  0.50000000  1
  O  O30  1  0.74596600  0.50000000  0.00000000  1
  O  O31  1  0.75270000  0.50000000  0.50000000  1
loop_
_geom_bond_atom_site_label_1
_geom_bond_atom_site_label_2
_geom_bond_distance
_geom_bond_site_symmetry_2
K0 O4 2.356813 1_545
K0 O0 2.356813 1_555
K0 O24 2.356813 1_555
K0 O26 2.356813 1_455
K0 O16 2.505025 1_555
K0 O17 2.505025 1_554
Mg0 O26 1.955508 1_555
Mg0 O24 1.955508 1_555
Mg0 O6 2.190952 1_545
Mg0 O2 2.190952 1_555
Mg0 O18 2.213653 1_555
Mg0 O19 2.213653 1_554
Mg1 O19 2.057401 1_555
Mg1 O18 2.057401 1_555
Mg1 O7 2.132874 1_545
Mg1 O3 2.132874 1_555
Mg1 O27 2.366420 1_555
Mg1 O25 2.366420 1_555
Mg2 O4 1.955508 1_555
Mg2 O0 1.955508 1_555
Mg2 O28 2.190952 1_555
Mg2 O30 2.190952 1_455
Mg2 O20 2.213653 1_555
Mg2 O21 2.213653 1_554
Mg3 O21 2.057401 1_555
Mg3 O20 2.057401 1_555
Mg3 O31 2.132874 1_455
Mg3 O29 2.132874 1_555
Mg3 O5 2.366420 1_555
Mg3 O1 2.366420 1_555
Mg4 O30 2.121368 1_555
Mg4 O2 2.121368 1_555
Mg4 O28 2.121368 1_555
Mg4 O6 2.121368 1_555
Mg4 O22 2.159488 1_555
Mg4 O23 2.159488 1_554
Mg5 O23 2.111567 1_555
Mg5 O22 2.111567 1_555
Mg5 O29 2.179447 1_555
Mg5 O3 2.179447 1_555
Mg5 O7 2.179447 1_555
Mg5 O31 2.179447 1_555
Mg6 O18 2.111768 1_555
Mg6 O24 2.128170 1_555
Mg6 O8 2.145614 1_555
Mg6 O12 2.145614 1_545
Mg6 O25 2.163757 1_555
Mg6 O16 2.235477 1_555
Mg7 O19 2.111768 1_555
Mg7 O24 2.128170 1_556
Mg7 O9 2.145614 1_555
Mg7 O13 2.145614 1_545
Mg7 O25 2.163757 1_555
Mg7 O17 2.235477 1_555
Mg8 O18 2.111768 1_555
Mg8 O26 2.128170 1_555
Mg8 O10 2.145614 1_555
Mg8 O14 2.145614 1_545
Mg8 O27 2.163757 1_555
Mg8 O16 2.235477 1_655
Mg9 O19 2.111768 1_555
Mg9 O26 2.128170 1_556
Mg9 O11 2.145614 1_555
Mg9 O15 2.145614 1_545
Mg9 O27 2.163757 1_555
Mg9 O17 2.235477 1_655
Mg10 O28 2.126956 1_555
Mg10 O29 2.144502 1_555
Mg10 O22 2.146180 1_555
Mg10 O12 2.167746 1_555
Mg10 O8 2.167746 1_555
Mg10 O20 2.168129 1_555
Mg11 O28 2.126956 1_556
Mg11 O29 2.144502 1_555
Mg11 O23 2.146180 1_555
Mg11 O13 2.167746 1_555
Mg11 O9 2.167746 1_555
Mg11 O21 2.168129 1_555
Mg12 O30 2.126956 1_555
Mg12 O31 2.144502 1_555
Mg12 O22 2.146180 1_555
Mg12 O14 2.167746 1_555
Mg12 O10 2.167746 1_555
Mg12 O20 2.168129 1_655
Mg13 O30 2.126956 1_556
Mg13 O31 2.144502 1_555
Mg13 O23 2.146180 1_555
Mg13 O15 2.167746 1_555
Mg13 O11 2.167746 1_555
Mg13 O21 2.168129 1_655
Mg14 O20 2.111768 1_555
Mg14 O0 2.128170 1_555
Mg14 O8 2.145614 1_555
Mg14 O10 2.145614 1_455
Mg14 O1 2.163757 1_555
Mg14 O16 2.235477 1_555
Mg15 O21 2.111768 1_555
Mg15 O0 2.128170 1_556
Mg15 O9 2.145614 1_555
Mg15 O11 2.145614 1_455
Mg15 O1 2.163757 1_555
Mg15 O17 2.235477 1_555
Mg16 O2 2.126956 1_555
Mg16 O3 2.144502 1_555
Mg16 O22 2.146180 1_555
Mg16 O10 2.167746 1_555
Mg16 O8 2.167746 1_555
Mg16 O18 2.168129 1_555
Mg17 O2 2.126956 1_556
Mg17 O3 2.144502 1_555
Mg17 O23 2.146180 1_555
Mg17 O11 2.167746 1_555
Mg17 O9 2.167746 1_555
Mg17 O19 2.168129 1_555
Mg18 O20 2.111768 1_555
Mg18 O4 2.128170 1_555
Mg18 O12 2.145614 1_555
Mg18 O14 2.145614 1_455
Mg18 O5 2.163757 1_555
Mg18 O16 2.235477 1_565
Mg19 O21 2.111768 1_555
Mg19 O4 2.128170 1_556
Mg19 O13 2.145614 1_555
Mg19 O15 2.145614 1_455
Mg19 O5 2.163757 1_555
Mg19 O17 2.235477 1_565
Mg20 O6 2.126956 1_555
Mg20 O7 2.144502 1_555
Mg20 O22 2.146180 1_555
Mg20 O14 2.167746 1_555
Mg20 O12 2.167746 1_555
Mg20 O18 2.168129 1_565
Mg21 O6 2.126956 1_556
Mg21 O7 2.144502 1_555
Mg21 O23 2.146180 1_555
Mg21 O15 2.167746 1_555
Mg21 O13 2.167746 1_555
Mg21 O19 2.168129 1_565
Mg22 O28 2.136576 1_555
Mg22 O2 2.136576 1_555
Mg22 O8 2.143204 1_555
Mg22 O9 2.143204 1_554
Mg22 O0 2.183315 1_555
Mg22 O24 2.183315 1_555
Mg23 O9 2.128490 1_555
Mg23 O8 2.128490 1_555
Mg23 O3 2.147764 1_555
Mg23 O29 2.147764 1_555
Mg23 O1 2.175832 1_555
Mg23 O25 2.175832 1_555
Mg24 O2 2.136576 1_555
Mg24 O30 2.136576 1_555
Mg24 O10 2.143204 1_555
Mg24 O11 2.143204 1_554
Mg24 O26 2.183315 1_555
Mg24 O0 2.183315 1_655
Mg25 O10 2.128490 1_555
Mg25 O11 2.128490 1_555
Mg25 O3 2.147764 1_555
Mg25 O31 2.147764 1_555
Mg25 O27 2.175832 1_555
Mg25 O1 2.175832 1_655
Mg26 O28 2.136576 1_555
Mg26 O6 2.136576 1_555
Mg26 O12 2.143204 1_555
Mg26 O13 2.143204 1_554
Mg26 O4 2.183315 1_555
Mg26 O24 2.183315 1_565
Mg27 O13 2.128490 1_555
Mg27 O12 2.128490 1_555
Mg27 O29 2.147764 1_555
Mg27 O7 2.147764 1_555
Mg27 O5 2.175832 1_555
Mg27 O25 2.175832 1_565
Mg28 O6 2.136576 1_555
Mg28 O30 2.136576 1_555
Mg28 O15 2.143204 1_554
Mg28 O14 2.143204 1_555
Mg28 O26 2.183315 1_565
Mg28 O4 2.183315 1_655
Mg29 O14 2.128490 1_555
Mg29 O15 2.128490 1_555
Mg29 O31 2.147764 1_555
Mg29 O7 2.147764 1_555
Mg29 O27 2.175832 1_565
Mg29 O5 2.175832 1_655
O1 Si0 1.945900 1_555
O5 Si0 1.945900 1_565
O16 Si0 1.766030 1_555
O17 Si0 1.766030 1_555
O25 Si0 1.945900 1_555
O27 Si0 1.945900 1_655
