# generated using pymatgen
data_ZrN
_symmetry_space_group_name_H-M   'P 1'
_cell_length_a   3.57964431
_cell_length_b   3.57964431
_cell_length_c   5.58409700
_cell_angle_alpha   90.00000000
_cell_angle_beta   90.00000000
_cell_angle_gamma   120.00000575
_symmetry_Int_Tables_number   1
_chemical_formula_structural   ZrN
_chemical_formula_sum   'Zr2 N2'
_cell_volume   61.96740521
_cell_formula_units_Z   2
loop_
 _symmetry_equiv_pos_site_id
 _symmetry_equiv_pos_as_xyz
  1  'x, y, z'
loop_
 _atom_site_type_symbol
 _atom_site_label
 _atom_site_symmetry_multiplicity
 _atom_site_fract_x
 _atom_site_fract_y
 _atom_site_fract_z
 _atom_site_occupancy
  Zr  Zr0  1  0.33333300  0.66666700  0.49594600  1
  Zr  Zr1  1  0.66666700  0.33333300  0.99594600  1
  N  N0  1  0.33333300  0.66666700  0.88025400  1
  N  N1  1  0.66666700  0.33333300  0.38025400  1
loop_
_geom_bond_atom_site_label_1
_geom_bond_atom_site_label_2
_geom_bond_distance
_geom_bond_site_symmetry_2
N0 Zr0 2.146013 1_555
N0 Zr1 2.165326 1_455
N0 Zr1 2.165326 1_565
N0 Zr1 2.165332 1_555
N1 Zr1 2.146013 1_554
N1 Zr0 2.165326 1_655
N1 Zr0 2.165326 1_545
N1 Zr0 2.165332 1_555
