# generated using pymatgen
data_MgCoNiP2O9
_symmetry_space_group_name_H-M   'P 1'
_cell_length_a   6.23268300
_cell_length_b   7.22943100
_cell_length_c   14.22576804
_cell_angle_alpha   88.78507444
_cell_angle_beta   90.00000000
_cell_angle_gamma   90.00000000
_symmetry_Int_Tables_number   1
_chemical_formula_structural   MgCoNiP2O9
_chemical_formula_sum   'Mg4 Co4 Ni4 P8 O36'
_cell_volume   640.85125007
_cell_formula_units_Z   4
loop_
 _symmetry_equiv_pos_site_id
 _symmetry_equiv_pos_as_xyz
  1  'x, y, z'
loop_
 _atom_site_type_symbol
 _atom_site_label
 _atom_site_symmetry_multiplicity
 _atom_site_fract_x
 _atom_site_fract_y
 _atom_site_fract_z
 _atom_site_occupancy
  Mg  Mg0  1  0.75000000  0.89095600  0.27694700  1
  Mg  Mg1  1  0.75000000  0.64479500  0.77041000  1
  Mg  Mg2  1  0.25000000  0.10904400  0.72305300  1
  Mg  Mg3  1  0.25000000  0.35520500  0.22959000  1
  Co  Co0  1  0.75000000  0.35068000  0.38014500  1
  Co  Co1  1  0.25000000  0.64932000  0.61985500  1
  Co  Co2  1  0.25000000  0.85297300  0.12266100  1
  Co  Co3  1  0.75000000  0.14702700  0.87733900  1
  Ni  Ni0  1  0.00000000  0.00000000  0.50000000  1
  Ni  Ni1  1  0.00000000  0.50000000  0.00000000  1
  Ni  Ni2  1  0.50000000  0.50000000  0.00000000  1
  Ni  Ni3  1  0.50000000  0.00000000  0.50000000  1
  P  P0  1  0.25000000  0.35929800  0.43400800  1
  P  P1  1  0.75000000  0.64070200  0.56599200  1
  P  P2  1  0.75000000  0.86383200  0.07105200  1
  P  P3  1  0.25000000  0.13616800  0.92894800  1
  P  P4  1  0.75000000  0.38313200  0.19794600  1
  P  P5  1  0.25000000  0.61686800  0.80205400  1
  P  P6  1  0.25000000  0.89340300  0.30489900  1
  P  P7  1  0.75000000  0.10659700  0.69510100  1
  O  O0  1  0.46242400  0.60387900  0.85844800  1
  O  O1  1  0.96242400  0.39612100  0.14155200  1
  O  O2  1  0.53742800  0.10461800  0.63807200  1
  O  O3  1  0.03742800  0.89538200  0.36192800  1
  O  O4  1  0.53757600  0.39612100  0.14155200  1
  O  O5  1  0.03757600  0.60387900  0.85844800  1
  O  O6  1  0.46257200  0.89538200  0.36192800  1
  O  O7  1  0.96257200  0.10461800  0.63807200  1
  O  O8  1  0.25000000  0.32310900  0.97914800  1
  O  O9  1  0.75000000  0.67689100  0.02085200  1
  O  O10  1  0.75000000  0.83435900  0.51820100  1
  O  O11  1  0.25000000  0.16564100  0.48179900  1
  O  O12  1  0.75000000  0.14900600  0.44718600  1
  O  O13  1  0.25000000  0.85099400  0.55281400  1
  O  O14  1  0.25000000  0.64328100  0.04747100  1
  O  O15  1  0.75000000  0.35671900  0.95252900  1
  O  O16  1  0.75000000  0.19980500  0.25853700  1
  O  O17  1  0.25000000  0.80019500  0.74146300  1
  O  O18  1  0.25000000  0.71424400  0.24416200  1
  O  O19  1  0.75000000  0.28575600  0.75583800  1
  O  O20  1  0.06056100  0.12777700  0.85735700  1
  O  O21  1  0.56056100  0.87222300  0.14264300  1
  O  O22  1  0.93800100  0.62829500  0.63804500  1
  O  O23  1  0.43800100  0.37170500  0.36195500  1
  O  O24  1  0.93943900  0.87222300  0.14264300  1
  O  O25  1  0.43943900  0.12777700  0.85735700  1
  O  O26  1  0.06199900  0.37170500  0.36195500  1
  O  O27  1  0.56199900  0.62829500  0.63804500  1
  O  O28  1  0.75000000  0.93965000  0.76809900  1
  O  O29  1  0.25000000  0.06035000  0.23190100  1
  O  O30  1  0.25000000  0.46258000  0.72441400  1
  O  O31  1  0.75000000  0.53742000  0.27558600  1
  O  O32  1  0.75000000  0.02387000  0.00134700  1
  O  O33  1  0.25000000  0.97613000  0.99865300  1
  O  O34  1  0.25000000  0.50359400  0.50782200  1
  O  O35  1  0.75000000  0.49640600  0.49217800  1
loop_
_geom_bond_atom_site_label_1
_geom_bond_atom_site_label_2
_geom_bond_distance
_geom_bond_site_symmetry_2
Mg0 O3 2.161813 1_655
Mg0 O6 2.161813 1_555
Mg0 O16 2.242588 1_565
Mg0 O24 2.252488 1_555
Mg0 O21 2.252488 1_555
Mg0 O31 2.556348 1_555
Mg1 O28 2.131190 1_555
Mg1 O0 2.202931 1_555
Mg1 O5 2.202931 1_655
Mg1 O27 2.223155 1_555
Mg1 O22 2.223155 1_555
Mg1 O19 2.608290 1_555
Mg2 O2 2.161813 1_555
Mg2 O7 2.161813 1_455
Mg2 O17 2.242588 1_545
Mg2 O25 2.252488 1_555
Mg2 O20 2.252488 1_555
Mg2 O30 2.556348 1_555
Mg3 O29 2.131190 1_555
Mg3 O4 2.202931 1_555
Mg3 O1 2.202931 1_455
Mg3 O23 2.223155 1_555
Mg3 O26 2.223155 1_555
Mg3 O18 2.608290 1_555
Co0 O12 1.725203 1_555
Co0 O35 1.929029 1_555
Co0 O26 1.967188 1_655
Co0 O23 1.967188 1_555
Co0 O31 1.987427 1_555
Co0 O16 2.064587 1_555
Co1 O13 1.725203 1_555
Co1 O34 1.929029 1_555
Co1 O27 1.967188 1_555
Co1 O22 1.967188 1_455
Co1 O30 1.987427 1_555
Co1 O17 2.064587 1_555
Co2 O14 1.873766 1_555
Co2 O33 1.959134 1_554
Co2 O21 1.961761 1_555
Co2 O24 1.961761 1_455
Co2 O18 1.979870 1_555
Co2 O29 2.182072 1_565
Co3 O15 1.873766 1_555
Co3 O32 1.959134 1_556
Co3 O20 1.961761 1_655
Co3 O25 1.961761 1_555
Co3 O19 1.979870 1_555
Co3 O28 2.182072 1_545
Ni0 O11 1.978831 1_555
Ni0 O10 1.978831 1_445
Ni0 O12 2.029403 1_455
Ni0 O13 2.029403 1_545
Ni0 O7 2.132475 1_455
Ni0 O3 2.132475 1_545
Ni1 O14 1.996640 1_555
Ni1 O15 1.996640 1_454
Ni1 O9 2.041411 1_455
Ni1 O8 2.041411 1_554
Ni1 O1 2.147005 1_455
Ni1 O5 2.147005 1_554
Ni2 O14 1.996640 1_555
Ni2 O15 1.996640 1_554
Ni2 O9 2.041411 1_555
Ni2 O8 2.041411 1_554
Ni2 O4 2.147005 1_555
Ni2 O0 2.147005 1_554
Ni3 O11 1.978831 1_555
Ni3 O10 1.978831 1_545
Ni3 O12 2.029403 1_555
Ni3 O13 2.029403 1_545
Ni3 O2 2.132475 1_555
Ni3 O6 2.132475 1_545
O0 P5 1.549879 1_555
O1 P4 1.549879 1_555
O2 P7 1.553775 1_555
O3 P6 1.553775 1_555
O4 P4 1.549879 1_555
O5 P5 1.549879 1_555
O6 P6 1.553775 1_555
O7 P7 1.553775 1_555
O8 P3 1.541883 1_555
O9 P2 1.541883 1_555
O10 P1 1.543352 1_555
O11 P0 1.543352 1_555
O16 P4 1.565590 1_555
O17 P5 1.565590 1_555
O18 P6 1.572130 1_555
O19 P7 1.572130 1_555
O20 P3 1.561281 1_555
O21 P2 1.561281 1_555
O22 P1 1.558137 1_555
O23 P0 1.558137 1_555
O24 P2 1.561281 1_555
O25 P3 1.561281 1_555
O26 P0 1.558137 1_555
O27 P1 1.558137 1_555
O28 P7 1.575411 1_565
O29 P6 1.575411 1_545
O30 P5 1.586281 1_555
O31 P4 1.586281 1_555
O32 P2 1.507728 1_545
O33 P3 1.507728 1_565
O34 P0 1.495760 1_555
O35 P1 1.495760 1_555
