# generated using pymatgen
data_Tm2Mo2C3
_symmetry_space_group_name_H-M   'P 1'
_cell_length_a   3.36210200
_cell_length_b   5.64875583
_cell_length_c   5.88691724
_cell_angle_alpha   107.97344154
_cell_angle_beta   106.59215185
_cell_angle_gamma   90.00000000
_symmetry_Int_Tables_number   1
_chemical_formula_structural   Tm2Mo2C3
_chemical_formula_sum   'Tm2 Mo2 C3'
_cell_volume   101.44118235
_cell_formula_units_Z   1
loop_
 _symmetry_equiv_pos_site_id
 _symmetry_equiv_pos_as_xyz
  1  'x, y, z'
loop_
 _atom_site_type_symbol
 _atom_site_label
 _atom_site_symmetry_multiplicity
 _atom_site_fract_x
 _atom_site_fract_y
 _atom_site_fract_z
 _atom_site_occupancy
  Tm  Tm0  1  0.61497300  0.81750900  0.22994600  1
  Tm  Tm1  1  0.38502700  0.18249100  0.77005400  1
  Mo  Mo0  1  0.85144600  0.63042000  0.70289200  1
  Mo  Mo1  1  0.14855400  0.36958000  0.29710800  1
  C  C0  1  0.00000000  0.50000000  0.00000000  1
  C  C1  1  0.27041400  0.74607500  0.54082800  1
  C  C2  1  0.72958600  0.25392500  0.45917200  1
loop_
_geom_bond_atom_site_label_1
_geom_bond_atom_site_label_2
_geom_bond_distance
_geom_bond_site_symmetry_2
C0 Mo1 2.036589 1_555
C0 Mo0 2.036589 1_454
C0 Tm0 2.495464 1_455
C0 Tm0 2.495464 1_555
C0 Tm1 2.495464 1_554
C0 Tm1 2.495464 1_454
C1 Mo0 2.115044 1_455
C1 Mo0 2.115044 1_555
C1 Mo1 2.128498 1_555
C1 Tm1 2.386775 1_565
C1 Tm0 2.553584 1_555
C1 Tm0 2.553584 1_455
C2 Mo1 2.115044 1_655
C2 Mo1 2.115044 1_555
C2 Mo0 2.128498 1_555
C2 Tm0 2.386775 1_545
C2 Tm1 2.553584 1_555
C2 Tm1 2.553584 1_655
