# generated using pymatgen
data_Yb2MnSe4
_symmetry_space_group_name_H-M   'P 1'
_cell_length_a   8.11373919
_cell_length_b   8.11373919
_cell_length_c   8.11373919
_cell_angle_alpha   60.00000000
_cell_angle_beta   60.00000000
_cell_angle_gamma   60.00000000
_symmetry_Int_Tables_number   1
_chemical_formula_structural   Yb2MnSe4
_chemical_formula_sum   'Yb4 Mn2 Se8'
_cell_volume   377.70099793
_cell_formula_units_Z   2
loop_
 _symmetry_equiv_pos_site_id
 _symmetry_equiv_pos_as_xyz
  1  'x, y, z'
loop_
 _atom_site_type_symbol
 _atom_site_label
 _atom_site_symmetry_multiplicity
 _atom_site_fract_x
 _atom_site_fract_y
 _atom_site_fract_z
 _atom_site_occupancy
  Yb  Yb0  1  0.12500000  0.12500000  0.12500000  1
  Yb  Yb1  1  0.12500000  0.12500000  0.62500000  1
  Yb  Yb2  1  0.12500000  0.62500000  0.12500000  1
  Yb  Yb3  1  0.62500000  0.12500000  0.12500000  1
  Mn  Mn0  1  0.50000000  0.50000000  0.50000000  1
  Mn  Mn1  1  0.75000000  0.75000000  0.75000000  1
  Se  Se0  1  0.39064300  0.86978600  0.86978600  1
  Se  Se1  1  0.38021400  0.38021400  0.38021400  1
  Se  Se2  1  0.85935700  0.38021400  0.38021400  1
  Se  Se3  1  0.86978600  0.86978600  0.39064300  1
  Se  Se4  1  0.86978600  0.86978600  0.86978600  1
  Se  Se5  1  0.38021400  0.85935700  0.38021400  1
  Se  Se6  1  0.38021400  0.38021400  0.85935700  1
  Se  Se7  1  0.86978600  0.39064300  0.86978600  1
loop_
_geom_bond_atom_site_label_1
_geom_bond_atom_site_label_2
_geom_bond_distance
_geom_bond_site_symmetry_2
Mn0 Se6 2.380683 1_555
Mn0 Se5 2.380683 1_555
Mn0 Se2 2.380683 1_555
Mn0 Se1 2.380689 1_555
Mn1 Se3 2.380683 1_555
Mn1 Se0 2.380683 1_555
Mn1 Se7 2.380683 1_555
Mn1 Se4 2.380689 1_555
Se0 Yb0 2.929691 1_566
Se0 Yb1 2.929696 1_565
Se0 Yb2 2.929696 1_556
Se1 Yb3 2.929690 1_555
Se1 Yb2 2.929690 1_555
Se1 Yb1 2.929690 1_555
Se2 Yb0 2.929691 1_655
Se2 Yb2 2.929696 1_655
Se2 Yb1 2.929696 1_655
Se3 Yb0 2.929691 1_665
Se3 Yb2 2.929696 1_655
Se3 Yb3 2.929696 1_565
Se4 Yb3 2.929690 1_566
Se4 Yb2 2.929690 1_656
Se4 Yb1 2.929690 1_665
Se5 Yb0 2.929691 1_565
Se5 Yb1 2.929696 1_565
Se5 Yb3 2.929696 1_565
Se6 Yb0 2.929691 1_556
Se6 Yb2 2.929696 1_556
Se6 Yb3 2.929696 1_556
Se7 Yb0 2.929691 1_656
Se7 Yb1 2.929696 1_655
Se7 Yb3 2.929696 1_556
