# generated using pymatgen
data_Pr2FeSi2Ru
_symmetry_space_group_name_H-M   'P 1'
_cell_length_a   4.16093700
_cell_length_b   4.16093700
_cell_length_c   7.04771000
_cell_angle_alpha   90.00000000
_cell_angle_beta   90.00000000
_cell_angle_gamma   90.00000000
_symmetry_Int_Tables_number   1
_chemical_formula_structural   Pr2FeSi2Ru
_chemical_formula_sum   'Pr2 Fe1 Si2 Ru1'
_cell_volume   122.01979918
_cell_formula_units_Z   1
loop_
 _symmetry_equiv_pos_site_id
 _symmetry_equiv_pos_as_xyz
  1  'x, y, z'
loop_
 _atom_site_type_symbol
 _atom_site_label
 _atom_site_symmetry_multiplicity
 _atom_site_fract_x
 _atom_site_fract_y
 _atom_site_fract_z
 _atom_site_occupancy
  Pr  Pr0  1  0.50000000  0.00000000  0.31831000  1
  Pr  Pr1  1  0.00000000  0.50000000  0.68169000  1
  Fe  Fe0  1  0.00000000  0.00000000  0.00000000  1
  Si  Si0  1  0.50000000  0.00000000  0.83276300  1
  Si  Si1  1  0.00000000  0.50000000  0.16723700  1
  Ru  Ru0  1  0.50000000  0.50000000  0.00000000  1
loop_
_geom_bond_atom_site_label_1
_geom_bond_atom_site_label_2
_geom_bond_distance
_geom_bond_site_symmetry_2
Pr0 Ru0 3.059575 1_545
Pr0 Ru0 3.059575 1_555
Pr0 Si1 3.128949 1_645
Pr0 Si1 3.128949 1_545
Pr0 Si1 3.128949 1_655
Pr0 Si1 3.128949 1_555
Pr0 Si0 3.625716 1_555
Pr1 Ru0 3.059575 1_556
Pr1 Ru0 3.059575 1_456
Pr1 Si0 3.128949 1_455
Pr1 Si0 3.128949 1_555
Pr1 Si0 3.128949 1_465
Pr1 Si0 3.128949 1_565
Pr1 Si1 3.625716 1_555
Fe0 Si0 2.391137 1_454
Fe0 Si0 2.391137 1_554
Fe0 Si1 2.391137 1_545
Fe0 Si1 2.391137 1_555
Fe0 Ru0 2.942227 1_555
Fe0 Ru0 2.942227 1_455
Fe0 Ru0 2.942227 1_545
Fe0 Ru0 2.942227 1_445
Fe0 Pr1 3.059575 1_544
Fe0 Pr1 3.059575 1_554
Fe0 Pr0 3.059575 1_555
Fe0 Pr0 3.059575 1_455
Ru0 Si0 2.391137 1_564
Ru0 Si0 2.391137 1_554
Ru0 Si1 2.391137 1_655
Ru0 Si1 2.391137 1_555
