# generated using pymatgen
data_Mn6GaGe
_symmetry_space_group_name_H-M   'P 1'
_cell_length_a   5.16914621
_cell_length_b   5.16914621
_cell_length_c   4.17433900
_cell_angle_alpha   90.00000000
_cell_angle_beta   90.00000000
_cell_angle_gamma   120.00000275
_symmetry_Int_Tables_number   1
_chemical_formula_structural   Mn6GaGe
_chemical_formula_sum   'Mn6 Ga1 Ge1'
_cell_volume   96.59529402
_cell_formula_units_Z   1
loop_
 _symmetry_equiv_pos_site_id
 _symmetry_equiv_pos_as_xyz
  1  'x, y, z'
loop_
 _atom_site_type_symbol
 _atom_site_label
 _atom_site_symmetry_multiplicity
 _atom_site_fract_x
 _atom_site_fract_y
 _atom_site_fract_z
 _atom_site_occupancy
  Mn  Mn0  1  0.67626100  0.83813100  0.00000000  1
  Mn  Mn1  1  0.16186900  0.83813100  0.00000000  1
  Mn  Mn2  1  0.16186900  0.32373900  0.00000000  1
  Mn  Mn3  1  0.31855600  0.15927800  0.50000000  1
  Mn  Mn4  1  0.84072200  0.15927800  0.50000000  1
  Mn  Mn5  1  0.84072200  0.68144400  0.50000000  1
  Ga  Ga0  1  0.33333300  0.66666700  0.50000000  1
  Ge  Ge0  1  0.66666700  0.33333300  0.00000000  1
loop_
_geom_bond_atom_site_label_1
_geom_bond_atom_site_label_2
_geom_bond_distance
_geom_bond_site_symmetry_2
Mn0 Mn2 2.510179 1_665
Mn0 Mn1 2.510179 1_655
Mn0 Mn4 2.534466 1_564
Mn0 Mn4 2.534466 1_565
Mn0 Mn5 2.534469 1_554
Mn0 Mn5 2.534469 1_555
Mn0 Mn2 2.658967 1_555
Mn0 Mn1 2.658967 1_555
Mn1 Mn2 2.510179 1_565
Mn1 Mn5 2.534466 1_455
Mn1 Mn5 2.534466 1_454
Mn1 Mn3 2.534466 1_565
Mn1 Mn3 2.534466 1_564
Mn1 Mn2 2.658967 1_555
Mn2 Mn4 2.534466 1_455
Mn2 Mn4 2.534466 1_454
Mn2 Mn3 2.534469 1_554
Mn2 Mn3 2.534469 1_555
Mn3 Mn5 2.469994 1_445
Mn3 Mn4 2.469994 1_455
Mn3 Mn5 2.699152 1_555
Mn3 Mn4 2.699152 1_555
Mn4 Mn5 2.469994 1_545
Mn4 Mn5 2.699152 1_555
Ga0 Mn3 2.585417 1_565
Ga0 Mn5 2.585417 1_455
Ga0 Mn4 2.585420 1_565
Ga0 Mn4 2.585420 1_455
Ga0 Mn5 2.585422 1_555
Ga0 Mn3 2.585422 1_555
Ga0 Mn2 2.590942 1_555
Ga0 Mn2 2.590942 1_556
Ga0 Mn0 2.590942 1_555
Ga0 Mn0 2.590942 1_556
Ga0 Mn1 2.590942 1_555
Ga0 Mn1 2.590942 1_556
Ge0 Mn2 2.584925 1_655
Ge0 Mn0 2.584925 1_545
Ge0 Mn1 2.584930 1_655
Ge0 Mn1 2.584930 1_545
Ge0 Mn2 2.584935 1_555
Ge0 Mn0 2.584935 1_555
Ge0 Mn4 2.604754 1_554
Ge0 Mn4 2.604754 1_555
Ge0 Mn3 2.604756 1_554
Ge0 Mn5 2.604756 1_555
Ge0 Mn3 2.604756 1_555
Ge0 Mn5 2.604756 1_554
