# generated using pymatgen
data_SnO
_symmetry_space_group_name_H-M   'P 1'
_cell_length_a   3.58148969
_cell_length_b   3.58148969
_cell_length_c   12.17361800
_cell_angle_alpha   90.00000000
_cell_angle_beta   90.00000000
_cell_angle_gamma   101.97502758
_symmetry_Int_Tables_number   1
_chemical_formula_structural   SnO
_chemical_formula_sum   'Sn4 O4'
_cell_volume   152.75367442
_cell_formula_units_Z   4
loop_
 _symmetry_equiv_pos_site_id
 _symmetry_equiv_pos_as_xyz
  1  'x, y, z'
loop_
 _atom_site_type_symbol
 _atom_site_label
 _atom_site_symmetry_multiplicity
 _atom_site_fract_x
 _atom_site_fract_y
 _atom_site_fract_z
 _atom_site_occupancy
  Sn  Sn0  1  0.02778600  0.97221400  0.00017100  1
  Sn  Sn1  1  0.97221400  0.02778600  0.50017100  1
  Sn  Sn2  1  0.37643600  0.62356400  0.22927800  1
  Sn  Sn3  1  0.62356400  0.37643600  0.72927800  1
  O  O0  1  0.40729300  0.59270700  0.05054600  1
  O  O1  1  0.59270700  0.40729300  0.55054600  1
  O  O2  1  0.99525200  0.00474800  0.17846400  1
  O  O3  1  0.00474800  0.99525200  0.67846400  1
loop_
_geom_bond_atom_site_label_1
_geom_bond_atom_site_label_2
_geom_bond_distance
_geom_bond_site_symmetry_2
O0 Sn2 2.182582 1_555
O0 Sn0 2.199443 1_555
O0 Sn0 2.430768 1_655
O0 Sn0 2.430768 1_545
O1 Sn3 2.182582 1_555
O1 Sn1 2.199443 1_555
O1 Sn1 2.430768 1_565
O1 Sn1 2.430768 1_455
O2 Sn0 2.178011 1_645
O2 Sn2 2.209898 1_645
O2 Sn2 2.429564 1_545
O2 Sn2 2.429564 1_655
O3 Sn1 2.178011 1_465
O3 Sn3 2.209898 1_465
O3 Sn3 2.429564 1_455
O3 Sn3 2.429564 1_565
