# generated using pymatgen
data_Zn2AgP3O19
_symmetry_space_group_name_H-M   'P 1'
_cell_length_a   8.30917468
_cell_length_b   10.61659799
_cell_length_c   11.03236235
_cell_angle_alpha   98.67696005
_cell_angle_beta   105.69575003
_cell_angle_gamma   109.03261106
_symmetry_Int_Tables_number   1
_chemical_formula_structural   Zn2AgP3O19
_chemical_formula_sum   'Zn4 Ag2 P6 O38'
_cell_volume   854.60298285
_cell_formula_units_Z   2
loop_
 _symmetry_equiv_pos_site_id
 _symmetry_equiv_pos_as_xyz
  1  'x, y, z'
loop_
 _atom_site_type_symbol
 _atom_site_label
 _atom_site_symmetry_multiplicity
 _atom_site_fract_x
 _atom_site_fract_y
 _atom_site_fract_z
 _atom_site_occupancy
  Zn  Zn0  1  0.73246700  0.00367700  0.45237400  1
  Zn  Zn1  1  0.26753300  0.99632300  0.54762600  1
  Zn  Zn2  1  0.50000000  0.50000000  0.50000000  1
  Zn  Zn3  1  0.00000000  0.00000000  0.00000000  1
  Ag  Ag0  1  0.08246500  0.49989400  0.35503100  1
  Ag  Ag1  1  0.91753500  0.50010600  0.64496900  1
  P  P0  1  0.20574200  0.22315400  0.27331800  1
  P  P1  1  0.79425800  0.77684600  0.72668200  1
  P  P2  1  0.54270100  0.21551900  0.44320400  1
  P  P3  1  0.45729900  0.78448100  0.55679600  1
  P  P4  1  0.02649800  0.04452100  0.71701000  1
  P  P5  1  0.97350200  0.95547900  0.28299000  1
  O  O0  1  0.23385700  0.40231100  0.66254600  1
  O  O1  1  0.76614300  0.59768900  0.33745400  1
  O  O2  1  0.26255200  0.37286000  0.35257100  1
  O  O3  1  0.73744800  0.62714000  0.64742900  1
  O  O4  1  0.07734700  0.37632400  0.58876100  1
  O  O5  1  0.92265300  0.62367600  0.41123900  1
  O  O6  1  0.10463000  0.90445300  0.36726900  1
  O  O7  1  0.89537000  0.09554700  0.63273100  1
  O  O8  1  0.67102200  0.38647100  0.19239600  1
  O  O9  1  0.32897800  0.61352900  0.80760400  1
  O  O10  1  0.49542600  0.86006400  0.07530500  1
  O  O11  1  0.50457400  0.13993600  0.92469500  1
  O  O12  1  0.93054600  0.60879500  0.09157200  1
  O  O13  1  0.06945400  0.39120500  0.90842800  1
  O  O14  1  0.07691500  0.60583700  0.15366600  1
  O  O15  1  0.92308500  0.39416300  0.84633400  1
  O  O16  1  0.67009000  0.15778000  0.40395000  1
  O  O17  1  0.32991000  0.84222000  0.59605000  1
  O  O18  1  0.12504600  0.19605700  0.12862900  1
  O  O19  1  0.87495400  0.80394300  0.87137100  1
  O  O20  1  0.63356700  0.37778100  0.48993200  1
  O  O21  1  0.36643300  0.62221900  0.51006800  1
  O  O22  1  0.79849100  0.34665800  0.21585400  1
  O  O23  1  0.20150900  0.65334200  0.78414600  1
  O  O24  1  0.46111600  0.15932100  0.54013200  1
  O  O25  1  0.53888400  0.84067900  0.45986800  1
  O  O26  1  0.20232500  0.07424100  0.68849800  1
  O  O27  1  0.79767500  0.92575900  0.31150200  1
  O  O28  1  0.05192300  0.08601000  0.86074900  1
  O  O29  1  0.94807700  0.91399000  0.13925100  1
  O  O30  1  0.07497300  0.12934800  0.33430000  1
  O  O31  1  0.92502700  0.87065200  0.66570000  1
  O  O32  1  0.66699500  0.01111000  0.94151700  1
  O  O33  1  0.33300500  0.98889000  0.05848300  1
  O  O34  1  0.33968000  0.86716400  0.05272000  1
  O  O35  1  0.66032000  0.13283600  0.94728000  1
  O  O36  1  0.38204200  0.18619100  0.30505100  1
  O  O37  1  0.61795800  0.81380900  0.69494900  1
loop_
_geom_bond_atom_site_label_1
_geom_bond_atom_site_label_2
_geom_bond_distance
_geom_bond_site_symmetry_2
Ag0 O5 2.283121 1_455
Ag0 O21 2.308061 1_555
Ag0 O22 2.313934 1_455
Ag0 O2 2.320765 1_555
Ag0 O14 2.633385 1_555
Ag1 O4 2.283121 1_655
Ag1 O20 2.308061 1_555
Ag1 O23 2.313934 1_655
Ag1 O3 2.320765 1_555
Ag1 O15 2.633385 1_555
O0 O4 1.247168 1_555
O1 O5 1.247168 1_555
O2 P0 1.543201 1_555
O2 Zn2 2.055357 1_555
O3 P1 1.543201 1_555
O3 Zn2 2.055357 1_555
O6 P5 1.527726 1_455
O6 Zn1 1.959284 1_555
O7 P4 1.527726 1_655
O7 Zn0 1.959284 1_555
O10 O34 1.279585 1_555
O11 O35 1.279585 1_555
O12 O14 1.236949 1_655
O13 O15 1.236949 1_455
O16 P2 1.508254 1_555
O16 Zn0 1.974248 1_555
O17 P3 1.508254 1_555
O17 Zn1 1.974248 1_555
O18 P0 1.495638 1_555
O18 Zn3 2.079977 1_555
O19 P1 1.495638 1_555
O19 Zn3 2.079977 1_666
O20 P2 1.573709 1_555
O20 Zn2 1.972343 1_555
O21 P3 1.573709 1_555
O21 Zn2 1.972343 1_555
O22 O8 1.242634 1_555
O23 O9 1.242634 1_555
O24 P2 1.509951 1_555
O24 Zn1 1.971906 1_545
O25 P3 1.509951 1_555
O25 Zn0 1.971906 1_565
O26 P4 1.520163 1_555
O26 Zn1 1.937341 1_545
O27 P5 1.520163 1_555
O27 Zn0 1.937341 1_565
O28 P4 1.516786 1_555
O28 Zn3 1.976109 1_556
O29 P5 1.516786 1_555
O29 Zn3 1.976109 1_665
O30 P0 1.586511 1_555
O30 P5 1.688217 1_445
O31 P1 1.586511 1_555
O31 P4 1.688217 1_665
O32 O35 1.304249 1_555
O33 O34 1.304249 1_555
O36 P0 1.600442 1_555
O36 P2 1.639181 1_555
O37 P1 1.600442 1_555
O37 P3 1.639181 1_555
