# generated using pymatgen
data_Tb2MgS4
_symmetry_space_group_name_H-M   'P 1'
_cell_length_a   3.86474500
_cell_length_b   12.65318100
_cell_length_c   13.49250700
_cell_angle_alpha   90.00000000
_cell_angle_beta   90.00000000
_cell_angle_gamma   90.00000000
_symmetry_Int_Tables_number   1
_chemical_formula_structural   Tb2MgS4
_chemical_formula_sum   'Tb8 Mg4 S16'
_cell_volume   659.80137548
_cell_formula_units_Z   4
loop_
 _symmetry_equiv_pos_site_id
 _symmetry_equiv_pos_as_xyz
  1  'x, y, z'
loop_
 _atom_site_type_symbol
 _atom_site_label
 _atom_site_symmetry_multiplicity
 _atom_site_fract_x
 _atom_site_fract_y
 _atom_site_fract_z
 _atom_site_occupancy
  Tb  Tb0  1  0.25000000  0.11751200  0.07578900  1
  Tb  Tb1  1  0.75000000  0.88248800  0.92421100  1
  Tb  Tb2  1  0.75000000  0.38248800  0.57578900  1
  Tb  Tb3  1  0.25000000  0.61751200  0.42421100  1
  Tb  Tb4  1  0.25000000  0.13852000  0.70553200  1
  Tb  Tb5  1  0.75000000  0.86148000  0.29446800  1
  Tb  Tb6  1  0.75000000  0.36148000  0.20553200  1
  Tb  Tb7  1  0.25000000  0.63852000  0.79446800  1
  Mg  Mg0  1  0.75000000  0.11108200  0.45348200  1
  Mg  Mg1  1  0.25000000  0.88891800  0.54651800  1
  Mg  Mg2  1  0.25000000  0.38891800  0.95348200  1
  Mg  Mg3  1  0.75000000  0.61108200  0.04651800  1
  S  S0  1  0.75000000  0.00818300  0.61540500  1
  S  S1  1  0.25000000  0.99181700  0.38459500  1
  S  S2  1  0.25000000  0.49181700  0.11540500  1
  S  S3  1  0.75000000  0.50818300  0.88459500  1
  S  S4  1  0.25000000  0.02715200  0.88342300  1
  S  S5  1  0.75000000  0.97284800  0.11657700  1
  S  S6  1  0.75000000  0.47284800  0.38342300  1
  S  S7  1  0.25000000  0.52715200  0.61657700  1
  S  S8  1  0.25000000  0.22539600  0.24884400  1
  S  S9  1  0.75000000  0.77460400  0.75115600  1
  S  S10  1  0.75000000  0.27460400  0.74884400  1
  S  S11  1  0.25000000  0.72539600  0.25115600  1
  S  S12  1  0.75000000  0.26216300  0.01600500  1
  S  S13  1  0.25000000  0.73783700  0.98399500  1
  S  S14  1  0.25000000  0.23783700  0.51600500  1
  S  S15  1  0.75000000  0.76216300  0.48399500  1
loop_
_geom_bond_atom_site_label_1
_geom_bond_atom_site_label_2
_geom_bond_distance
_geom_bond_site_symmetry_2
Mg0 S0 2.543290 1_555
Mg0 S1 2.622076 1_645
Mg0 S1 2.622076 1_545
Mg0 S14 2.649162 1_555
Mg0 S14 2.649162 1_655
Mg1 S1 2.543290 1_555
Mg1 S0 2.622076 1_465
Mg1 S0 2.622076 1_565
Mg1 S15 2.649162 1_455
Mg1 S15 2.649162 1_555
Mg2 S2 2.543290 1_556
Mg2 S3 2.622076 1_455
Mg2 S3 2.622076 1_555
Mg2 S12 2.649162 1_456
Mg2 S12 2.649162 1_556
Mg3 S3 2.543290 1_554
Mg3 S2 2.622076 1_555
Mg3 S2 2.622076 1_655
Mg3 S13 2.649162 1_554
Mg3 S13 2.649162 1_654
S0 Tb4 2.816487 1_555
S0 Tb4 2.816487 1_655
S1 Tb5 2.816487 1_555
S1 Tb5 2.816487 1_455
S2 Tb6 2.816487 1_555
S2 Tb6 2.816487 1_455
S3 Tb7 2.816487 1_655
S3 Tb7 2.816487 1_555
S4 Tb1 2.717998 1_445
S4 Tb1 2.717998 1_545
S4 Tb4 2.783284 1_555
S4 Tb0 2.836168 1_556
S5 Tb0 2.717998 1_565
S5 Tb0 2.717998 1_665
S5 Tb5 2.783284 1_555
S5 Tb1 2.836168 1_554
S6 Tb3 2.717998 1_655
S6 Tb3 2.717998 1_555
S6 Tb6 2.783284 1_555
S6 Tb2 2.836168 1_555
S7 Tb2 2.717998 1_455
S7 Tb2 2.717998 1_555
S7 Tb7 2.783284 1_555
S7 Tb3 2.836168 1_555
S8 Tb6 2.653393 1_555
S8 Tb6 2.653393 1_455
S8 Tb0 2.704700 1_555
S9 Tb7 2.653393 1_555
S9 Tb7 2.653393 1_655
S9 Tb1 2.704700 1_555
S10 Tb4 2.653393 1_655
S10 Tb4 2.653393 1_555
S10 Tb2 2.704700 1_555
S11 Tb5 2.653393 1_555
S11 Tb5 2.653393 1_455
S11 Tb3 2.704700 1_555
S12 Tb0 2.781134 1_655
S12 Tb0 2.781134 1_555
S12 Tb6 2.849294 1_555
S13 Tb1 2.781134 1_555
S13 Tb1 2.781134 1_455
S13 Tb7 2.849294 1_555
S14 Tb2 2.781134 1_455
S14 Tb2 2.781134 1_555
S14 Tb4 2.849294 1_555
S15 Tb3 2.781134 1_555
S15 Tb3 2.781134 1_655
S15 Tb5 2.849294 1_555
