# generated using pymatgen
data_Mn2FeReO6
_symmetry_space_group_name_H-M   'P 1'
_cell_length_a   5.29230437
_cell_length_b   5.42311450
_cell_length_c   7.74436212
_cell_angle_alpha   90.38438042
_cell_angle_beta   90.02829342
_cell_angle_gamma   90.10463407
_symmetry_Int_Tables_number   1
_chemical_formula_structural   Mn2FeReO6
_chemical_formula_sum   'Mn4 Fe2 Re2 O12'
_cell_volume   222.26377495
_cell_formula_units_Z   2
loop_
 _symmetry_equiv_pos_site_id
 _symmetry_equiv_pos_as_xyz
  1  'x, y, z'
loop_
 _atom_site_type_symbol
 _atom_site_label
 _atom_site_symmetry_multiplicity
 _atom_site_fract_x
 _atom_site_fract_y
 _atom_site_fract_z
 _atom_site_occupancy
  Mn  Mn0  1  0.50787000  0.44731100  0.24852100  1
  Mn  Mn1  1  0.99467300  0.94911000  0.24624600  1
  Mn  Mn2  1  0.00671600  0.05217900  0.75601100  1
  Mn  Mn3  1  0.49181400  0.55276500  0.74804600  1
  Fe  Fe0  1  0.00064700  0.50024100  0.99786100  1
  Fe  Fe1  1  0.50062900  0.99961200  0.50002700  1
  Re  Re0  1  0.99963400  0.49991400  0.49907600  1
  Re  Re1  1  0.50069600  0.00071200  0.00163400  1
  O  O0  1  0.15828500  0.80245600  0.56745000  1
  O  O1  1  0.68148900  0.69822300  0.06717400  1
  O  O2  1  0.84051200  0.19627000  0.43287300  1
  O  O3  1  0.31963800  0.30347500  0.93321400  1
  O  O4  1  0.19221500  0.81206800  0.94092500  1
  O  O5  1  0.68723900  0.67178200  0.44050500  1
  O  O6  1  0.81070400  0.18714400  0.05815900  1
  O  O7  1  0.30806500  0.32344600  0.56046100  1
  O  O8  1  0.61939200  0.94038700  0.76369900  1
  O  O9  1  0.11903200  0.55822200  0.25880300  1
  O  O10  1  0.37981600  0.06080500  0.23799800  1
  O  O11  1  0.88093200  0.44387700  0.74131700  1
loop_
_geom_bond_atom_site_label_1
_geom_bond_atom_site_label_2
_geom_bond_distance
_geom_bond_site_symmetry_2
Mn0 O5 2.136276 1_555
Mn0 O9 2.146370 1_555
Mn0 O1 2.165775 1_555
Mn0 O10 2.202698 1_555
Mn0 O6 2.591398 1_555
Mn0 O2 2.650147 1_555
Mn0 O7 2.725263 1_555
Mn0 O3 2.744573 1_554
Mn1 O10 2.126447 1_665
Mn1 O2 2.128457 1_565
Mn1 O6 2.182765 1_565
Mn1 O9 2.223531 1_655
Mn1 O1 2.546719 1_555
Mn1 O5 2.682591 1_555
Mn1 O4 2.686624 1_654
Mn1 O0 2.756262 1_655
Mn2 O8 2.137520 1_445
Mn2 O0 2.142085 1_545
Mn2 O4 2.176787 1_545
Mn2 O11 2.230862 1_455
Mn2 O3 2.539199 1_555
Mn2 O7 2.650434 1_555
Mn2 O6 2.658826 1_456
Mn2 O2 2.770088 1_455
Mn3 O7 2.138371 1_555
Mn3 O11 2.143921 1_555
Mn3 O3 2.176509 1_555
Mn3 O8 2.209250 1_555
Mn3 O4 2.589406 1_555
Mn3 O0 2.633836 1_555
Mn3 O5 2.679445 1_555
Mn3 O1 2.776048 1_556
Fe0 O4 2.021435 1_555
Fe0 O6 2.028916 1_456
Fe0 O3 2.059023 1_555
Fe0 O1 2.072126 1_456
Fe0 O11 2.105231 1_455
Fe0 O9 2.136508 1_556
Fe1 O7 2.082740 1_565
Fe1 O5 2.084342 1_555
Fe1 O2 2.155180 1_565
Fe1 O10 2.155298 1_565
Fe1 O8 2.162435 1_555
Fe1 O0 2.167892 1_555
O0 Re0 1.913164 1_455
O1 Re1 1.969912 1_565
O2 Re0 1.914894 1_555
O3 Re1 1.977814 1_556
O4 Re1 1.979808 1_566
O5 Re0 1.954075 1_555
O6 Re1 1.973038 1_555
O7 Re0 1.953800 1_455
O8 Re1 1.972514 1_566
O9 Re0 1.992494 1_455
O10 Re1 1.964705 1_555
O11 Re0 2.003621 1_555
