# generated using pymatgen
data_K3As(PSe3)3
_symmetry_space_group_name_H-M   'P 1'
_cell_length_a   23.45433502
_cell_length_b   8.22297513
_cell_length_c   12.33400796
_cell_angle_alpha   55.90592923
_cell_angle_beta   90.00000000
_cell_angle_gamma   90.00000000
_symmetry_Int_Tables_number   1
_chemical_formula_structural   K3As(PSe3)3
_chemical_formula_sum   'K12 As4 P12 Se36'
_cell_volume   1969.92064915
_cell_formula_units_Z   4
loop_
 _symmetry_equiv_pos_site_id
 _symmetry_equiv_pos_as_xyz
  1  'x, y, z'
loop_
 _atom_site_type_symbol
 _atom_site_label
 _atom_site_symmetry_multiplicity
 _atom_site_fract_x
 _atom_site_fract_y
 _atom_site_fract_z
 _atom_site_occupancy
  K  K0  1  0.83492338  0.89947461  0.71874089  1
  K  K1  1  0.33492338  0.10052539  0.78125911  1
  K  K2  1  0.16507662  0.10052539  0.28125911  1
  K  K3  1  0.66507662  0.89947461  0.21874089  1
  K  K4  1  0.69278074  0.37534859  0.74526865  1
  K  K5  1  0.19278074  0.62465141  0.75473135  1
  K  K6  1  0.30721926  0.62465141  0.25473135  1
  K  K7  1  0.80721926  0.37534859  0.24526865  1
  K  K8  1  0.97525895  0.34645873  0.77490295  1
  K  K9  1  0.47525895  0.65354127  0.72509705  1
  K  K10  1  0.02474105  0.65354127  0.22509705  1
  K  K11  1  0.52474105  0.34645873  0.27490295  1
  As  As0  1  0.57615281  0.96751402  0.72939584  1
  As  As1  1  0.07615281  0.03248598  0.77060416  1
  As  As2  1  0.42384719  0.03248598  0.27060416  1
  As  As3  1  0.92384719  0.96751402  0.22939584  1
  P  P0  1  0.66475253  0.94512692  0.52659390  1
  P  P1  1  0.16475253  0.05487308  0.97340610  1
  P  P2  1  0.33524747  0.05487308  0.47340610  1
  P  P3  1  0.83524747  0.94512692  0.02659390  1
  P  P4  1  0.02746968  0.87867511  0.57944669  1
  P  P5  1  0.52746968  0.12132489  0.92055331  1
  P  P6  1  0.97253032  0.12132489  0.42055331  1
  P  P7  1  0.47253032  0.87867511  0.07944669  1
  P  P8  1  0.32484034  0.73476586  0.54514361  1
  P  P9  1  0.82484034  0.26523414  0.95485639  1
  P  P10  1  0.67515966  0.26523414  0.45485639  1
  P  P11  1  0.17515966  0.73476586  0.04514361  1
  Se  Se0  1  0.60446131  0.94840172  0.92467269  1
  Se  Se1  1  0.10446131  0.05159828  0.57532731  1
  Se  Se2  1  0.39553869  0.05159828  0.07532731  1
  Se  Se3  1  0.89553869  0.94840172  0.42467269  1
  Se  Se4  1  0.91757796  0.89607259  0.97244751  1
  Se  Se5  1  0.41757796  0.10392741  0.52755249  1
  Se  Se6  1  0.08242204  0.10392741  0.02755249  1
  Se  Se7  1  0.58242204  0.89607259  0.47244751  1
  Se  Se8  1  0.76148720  0.85740143  0.97163546  1
  Se  Se9  1  0.26148720  0.14259857  0.52836454  1
  Se  Se10  1  0.23851280  0.14259857  0.02836454  1
  Se  Se11  1  0.73851280  0.85740143  0.47163546  1
  Se  Se12  1  0.66729188  0.80843924  0.74485787  1
  Se  Se13  1  0.16729188  0.19156076  0.75514213  1
  Se  Se14  1  0.33270812  0.19156076  0.25514213  1
  Se  Se15  1  0.83270812  0.80843924  0.24485787  1
  Se  Se16  1  0.98266637  0.76447528  0.76111856  1
  Se  Se17  1  0.48266637  0.23552472  0.73888144  1
  Se  Se18  1  0.01733363  0.23552472  0.23888144  1
  Se  Se19  1  0.51733363  0.76447528  0.26111856  1
  Se  Se20  1  0.05773574  0.68795065  0.52583221  1
  Se  Se21  1  0.55773574  0.31204935  0.97416779  1
  Se  Se22  1  0.94226426  0.31204935  0.47416779  1
  Se  Se23  1  0.44226426  0.68795065  0.02583221  1
  Se  Se24  1  0.83692001  0.44661727  0.74671958  1
  Se  Se25  1  0.33692001  0.55338273  0.75328042  1
  Se  Se26  1  0.16307999  0.55338273  0.25328042  1
  Se  Se27  1  0.66307999  0.44661727  0.24671958  1
  Se  Se28  1  0.75366274  0.30701741  0.52489170  1
  Se  Se29  1  0.25366274  0.69298259  0.97510830  1
  Se  Se30  1  0.24633726  0.69298259  0.47510830  1
  Se  Se31  1  0.74633726  0.30701741  0.02489170  1
  Se  Se32  1  0.59735687  0.30510961  0.55141599  1
  Se  Se33  1  0.09735687  0.69489039  0.94858401  1
  Se  Se34  1  0.40264313  0.69489039  0.44858401  1
  Se  Se35  1  0.90264313  0.30510961  0.05141599  1
loop_
_geom_bond_atom_site_label_1
_geom_bond_atom_site_label_2
_geom_bond_distance
_geom_bond_site_symmetry_2
K0 Se28 3.405409 1_565
K0 Se8 3.406750 1_555
K0 Se24 3.542251 1_555
K0 Se16 3.586463 1_555
K0 Se4 3.667814 1_555
K0 Se3 3.701690 1_555
K1 Se29 3.405409 1_545
K1 Se9 3.406750 1_555
K1 Se25 3.542251 1_555
K1 Se17 3.586463 1_555
K1 Se5 3.667814 1_555
K1 Se2 3.701690 1_556
K2 Se30 3.405409 1_545
K2 Se10 3.406750 1_555
K2 Se26 3.542251 1_555
K2 Se18 3.586463 1_555
K2 Se6 3.667814 1_555
K2 Se1 3.701690 1_555
K3 Se31 3.405409 1_565
K3 Se11 3.406750 1_555
K3 Se27 3.542251 1_555
K3 Se19 3.586463 1_555
K3 Se7 3.667814 1_555
K3 Se0 3.701690 1_554
K4 Se28 3.384557 1_555
K4 Se31 3.408188 1_556
K4 Se24 3.432869 1_555
K4 Se32 3.550732 1_555
K4 Se0 3.578202 1_545
K4 Se12 3.608324 1_555
K4 Se11 3.640784 1_555
K4 Se8 3.898757 1_545
K5 Se29 3.384557 1_555
K5 Se30 3.408188 1_555
K5 Se25 3.432869 1_555
K5 Se33 3.550732 1_555
K5 Se1 3.578202 1_565
K5 Se13 3.608324 1_555
K5 Se10 3.640784 1_556
K5 Se9 3.898757 1_565
K6 Se30 3.384557 1_555
K6 Se29 3.408188 1_554
K6 Se26 3.432869 1_555
K6 Se34 3.550732 1_555
K6 Se2 3.578202 1_565
K6 Se14 3.608324 1_555
K6 Se9 3.640784 1_555
K6 Se10 3.898757 1_565
K7 Se31 3.384557 1_555
K7 Se28 3.408188 1_555
K7 Se27 3.432869 1_555
K7 Se35 3.550732 1_555
K7 Se3 3.578202 1_545
K7 Se15 3.608324 1_555
K7 Se8 3.640784 1_554
K7 Se11 3.898757 1_545
K8 Se24 3.317518 1_555
K8 Se16 3.349509 1_555
K8 Se4 3.371407 1_545
K8 Se20 3.375430 1_655
K8 Se6 3.610814 1_656
K8 Se35 3.653478 1_556
K8 Se22 3.951487 1_555
K9 Se25 3.317518 1_555
K9 Se17 3.349509 1_555
K9 Se5 3.371407 1_565
K9 Se21 3.375430 1_555
K9 Se7 3.610814 1_555
K9 Se34 3.653478 1_555
K9 Se23 3.951487 1_556
K10 Se26 3.317518 1_555
K10 Se18 3.349509 1_555
K10 Se6 3.371407 1_565
K10 Se22 3.375430 1_455
K10 Se4 3.610814 1_454
K10 Se33 3.653478 1_554
K10 Se20 3.951487 1_555
K11 Se27 3.317518 1_555
K11 Se19 3.349509 1_555
K11 Se7 3.371407 1_545
K11 Se23 3.375430 1_555
K11 Se5 3.610814 1_555
K11 Se32 3.653478 1_555
K11 Se21 3.951487 1_554
As0 Se0 2.417078 1_555
As0 Se32 2.437347 1_565
As0 Se12 2.457051 1_555
As0 K9 3.524452 1_555
As1 Se1 2.417078 1_555
As1 Se33 2.437347 1_545
As1 Se13 2.457051 1_555
As1 K8 3.524452 1_455
As2 Se2 2.417078 1_555
As2 Se34 2.437347 1_545
As2 Se14 2.457051 1_555
As2 K11 3.524452 1_555
As3 Se3 2.417078 1_555
As3 Se35 2.437347 1_565
As3 Se15 2.457051 1_555
As3 K10 3.524452 1_655
P0 Se11 2.126253 1_555
P0 Se7 2.153955 1_555
P0 Se12 2.263147 1_555
P0 P10 2.271571 1_565
P1 Se10 2.126253 1_556
P1 Se6 2.153955 1_556
P1 Se13 2.263147 1_555
P1 P11 2.271571 1_546
P2 Se9 2.126253 1_555
P2 Se5 2.153955 1_555
P2 Se14 2.263147 1_555
P2 P8 2.271571 1_545
P3 Se8 2.126253 1_554
P3 Se4 2.153955 1_554
P3 Se15 2.263147 1_555
P3 P9 2.271571 1_564
P4 Se20 2.136246 1_555
P4 Se16 2.155918 1_455
P4 P6 2.257979 1_465
P4 Se1 2.281310 1_565
P5 Se21 2.136246 1_555
P5 Se17 2.155918 1_555
P5 P7 2.257979 1_546
P5 Se0 2.281310 1_545
P6 Se22 2.136246 1_555
P6 Se18 2.155918 1_655
P6 Se3 2.281310 1_545
P7 Se23 2.136246 1_555
P7 Se19 2.155918 1_555
P7 Se2 2.281310 1_565
P8 Se30 2.141756 1_555
P8 Se25 2.145351 1_555
P8 Se34 2.300796 1_555
P9 Se31 2.141756 1_556
P9 Se24 2.145351 1_555
P9 Se35 2.300796 1_556
P10 Se28 2.141756 1_555
P10 Se27 2.145351 1_555
P10 Se32 2.300796 1_555
P11 Se29 2.141756 1_554
P11 Se26 2.145351 1_555
P11 Se33 2.300796 1_554
