# generated using pymatgen
data_La2TiCrO6
_symmetry_space_group_name_H-M   'P 1'
_cell_length_a   5.60586935
_cell_length_b   7.86503905
_cell_length_c   5.72306981
_cell_angle_alpha   89.73129183
_cell_angle_beta   90.81447403
_cell_angle_gamma   91.04678792
_symmetry_Int_Tables_number   1
_chemical_formula_structural   La2TiCrO6
_chemical_formula_sum   'La4 Ti2 Cr2 O12'
_cell_volume   252.26225165
_cell_formula_units_Z   2
loop_
 _symmetry_equiv_pos_site_id
 _symmetry_equiv_pos_as_xyz
  1  'x, y, z'
loop_
 _atom_site_type_symbol
 _atom_site_label
 _atom_site_symmetry_multiplicity
 _atom_site_fract_x
 _atom_site_fract_y
 _atom_site_fract_z
 _atom_site_occupancy
  La  La0  1  0.50481500  0.25052100  0.99842900  1
  La  La1  1  0.99092600  0.75392000  0.49664600  1
  La  La2  1  0.49512200  0.74950500  0.00161300  1
  La  La3  1  0.00903900  0.24612000  0.50339500  1
  Ti  Ti0  1  0.99998600  0.99997500  0.00002900  1
  Ti  Ti1  1  0.49999900  0.50005700  0.50000800  1
  Cr  Cr0  1  0.49998700  0.00004800  0.50003200  1
  Cr  Cr1  1  0.99999600  0.49993500  0.00002300  1
  O  O0  1  0.20860600  0.53615600  0.67033800  1
  O  O1  1  0.72616800  0.04242300  0.22857200  1
  O  O2  1  0.31235300  0.46878600  0.19759900  1
  O  O3  1  0.77368500  0.96548400  0.72394200  1
  O  O4  1  0.99684800  0.75622200  0.07342400  1
  O  O5  1  0.48195400  0.24884400  0.57557600  1
  O  O6  1  0.68770600  0.53116400  0.80245300  1
  O  O7  1  0.22630200  0.03453300  0.27606600  1
  O  O8  1  0.00331400  0.24361600  0.92631900  1
  O  O9  1  0.51802000  0.75122600  0.42447000  1
  O  O10  1  0.79136900  0.46386100  0.32966800  1
  O  O11  1  0.27380300  0.95760400  0.77139800  1
loop_
_geom_bond_atom_site_label_1
_geom_bond_atom_site_label_2
_geom_bond_distance
_geom_bond_site_symmetry_2
La0 O2 2.351866 1_556
La0 O5 2.421673 1_555
La0 O1 2.441494 1_556
La1 O0 2.331644 1_655
La1 O4 2.422807 1_555
La1 O3 2.466455 1_555
La2 O6 2.352608 1_554
La2 O9 2.421707 1_555
La2 O11 2.441620 1_554
La3 O10 2.331563 1_455
La3 O8 2.421075 1_555
La3 O7 2.466744 1_555
Cr0 O3 2.006544 1_545
Cr0 O7 2.006599 1_555
Cr0 O5 2.010615 1_555
Cr0 O9 2.010837 1_545
Cr0 O11 2.041265 1_545
Cr0 O1 2.041588 1_555
Cr1 O4 2.061385 1_555
Cr1 O8 2.062021 1_654
Cr1 O6 2.088170 1_554
Cr1 O2 2.088420 1_655
Cr1 O10 2.247907 1_555
Cr1 O0 2.248181 1_654
O0 Ti1 1.940112 1_555
O1 Ti0 2.063571 1_545
O2 Ti1 2.026118 1_555
O3 Ti0 2.028309 1_556
O4 Ti0 1.960497 1_555
O5 Ti1 2.021629 1_555
O6 Ti1 2.026316 1_555
O7 Ti0 2.028206 1_445
O8 Ti0 1.960010 1_446
O9 Ti1 2.021251 1_555
O10 Ti1 1.940157 1_555
O11 Ti0 2.063784 1_456
