# generated using pymatgen
data_SmSbIr
_symmetry_space_group_name_H-M   'P 1'
_cell_length_a   4.54865075
_cell_length_b   7.32593290
_cell_length_c   7.92003320
_cell_angle_alpha   90.00000000
_cell_angle_beta   90.00000000
_cell_angle_gamma   90.00000000
_symmetry_Int_Tables_number   1
_chemical_formula_structural   SmSbIr
_chemical_formula_sum   'Sm4 Sb4 Ir4'
_cell_volume   263.92013895
_cell_formula_units_Z   4
loop_
 _symmetry_equiv_pos_site_id
 _symmetry_equiv_pos_as_xyz
  1  'x, y, z'
loop_
 _atom_site_type_symbol
 _atom_site_label
 _atom_site_symmetry_multiplicity
 _atom_site_fract_x
 _atom_site_fract_y
 _atom_site_fract_z
 _atom_site_occupancy
  Sm  Sm0  1  0.75000000  0.48560765  0.19252638  1
  Sm  Sm1  1  0.25000000  0.01439235  0.69252638  1
  Sm  Sm2  1  0.75000000  0.98560765  0.30747462  1
  Sm  Sm3  1  0.25000000  0.51439235  0.80747362  1
  Sb  Sb0  1  0.25000000  0.67679594  0.41220712  1
  Sb  Sb1  1  0.25000000  0.17679594  0.08779288  1
  Sb  Sb2  1  0.75000000  0.32320406  0.58779288  1
  Sb  Sb3  1  0.75000000  0.82320406  0.91220712  1
  Ir  Ir0  1  0.25000000  0.79634641  0.08949313  1
  Ir  Ir1  1  0.25000000  0.29634641  0.41050687  1
  Ir  Ir2  1  0.75000000  0.70365359  0.58949313  1
  Ir  Ir3  1  0.75000000  0.20365359  0.91050687  1
loop_
_geom_bond_atom_site_label_1
_geom_bond_atom_site_label_2
_geom_bond_distance
_geom_bond_site_symmetry_2
Sb0 Sm0 3.187712 1_455
Sb0 Sm0 3.187712 1_555
Sb0 Sm2 3.313421 1_455
Sb0 Sm2 3.313421 1_555
Sb0 Sm1 3.323518 1_565
Sb0 Sm3 3.348985 1_555
Sb1 Sm2 3.187716 1_445
Sb1 Sm2 3.187716 1_545
Sb1 Sm0 3.313423 1_455
Sb1 Sm0 3.313423 1_555
Sb1 Sm3 3.323518 1_554
Sb1 Sm1 3.348985 1_554
Sb2 Sm3 3.187712 1_555
Sb2 Sm3 3.187712 1_655
Sb2 Sm1 3.313423 1_555
Sb2 Sm1 3.313423 1_655
Sb2 Sm2 3.323513 1_545
Sb2 Sm0 3.348985 1_555
Sb3 Sm1 3.187712 1_565
Sb3 Sm1 3.187712 1_665
Sb3 Sm3 3.313423 1_655
Sb3 Sm3 3.313423 1_555
Sb3 Sm0 3.323518 1_556
Sb3 Sm2 3.348993 1_556
Ir0 Sb3 2.680074 1_454
Ir0 Sb3 2.680074 1_554
Ir0 Sb0 2.701798 1_555
Ir0 Sb1 2.787180 1_565
Ir0 Sm3 3.042301 1_554
Ir0 Sm2 3.174194 1_455
Ir0 Sm2 3.174194 1_555
Ir0 Sm0 3.319742 1_455
Ir0 Sm0 3.319742 1_555
Ir0 Sm1 3.526518 1_564
Ir1 Sb2 2.680074 1_455
Ir1 Sb2 2.680074 1_555
Ir1 Sb1 2.701798 1_555
Ir1 Sb0 2.787180 1_555
Ir1 Sm1 3.042301 1_555
Ir1 Sm0 3.174190 1_455
Ir1 Sm0 3.174190 1_555
Ir1 Sm2 3.319740 1_545
Ir1 Sm2 3.319740 1_445
Ir1 Sm3 3.526518 1_555
Ir2 Sb0 2.680074 1_655
Ir2 Sb0 2.680074 1_555
Ir2 Sb3 2.701798 1_555
Ir2 Sb2 2.787180 1_555
Ir2 Sm2 3.042295 1_555
Ir2 Sm3 3.174190 1_555
Ir2 Sm3 3.174190 1_655
Ir2 Sm1 3.319742 1_565
Ir2 Sm1 3.319742 1_665
Ir2 Sm0 3.526518 1_555
Ir3 Sb1 2.680074 1_556
Ir3 Sb1 2.680074 1_656
Ir3 Sb2 2.701798 1_555
Ir3 Sb3 2.787180 1_545
Ir3 Sm0 3.042301 1_556
Ir3 Sm1 3.174190 1_555
Ir3 Sm1 3.174190 1_655
Ir3 Sm3 3.319742 1_555
Ir3 Sm3 3.319742 1_655
Ir3 Sm2 3.526525 1_546
