# generated using pymatgen
data_BaSiPd
_symmetry_space_group_name_H-M   'P 1'
_cell_length_a   6.71989170
_cell_length_b   6.71989170
_cell_length_c   6.71989170
_cell_angle_alpha   90.00000000
_cell_angle_beta   90.00000000
_cell_angle_gamma   90.00000000
_symmetry_Int_Tables_number   1
_chemical_formula_structural   BaSiPd
_chemical_formula_sum   'Ba4 Si4 Pd4'
_cell_volume   303.44977627
_cell_formula_units_Z   4
loop_
 _symmetry_equiv_pos_site_id
 _symmetry_equiv_pos_as_xyz
  1  'x, y, z'
loop_
 _atom_site_type_symbol
 _atom_site_label
 _atom_site_symmetry_multiplicity
 _atom_site_fract_x
 _atom_site_fract_y
 _atom_site_fract_z
 _atom_site_occupancy
  Ba  Ba0  1  0.36513734  0.86513734  0.63486266  1
  Ba  Ba1  1  0.86513734  0.63486266  0.36513734  1
  Ba  Ba2  1  0.63486266  0.36513734  0.86513734  1
  Ba  Ba3  1  0.13486266  0.13486266  0.13486266  1
  Si  Si0  1  0.65507410  0.15507410  0.34492590  1
  Si  Si1  1  0.15507410  0.34492590  0.65507410  1
  Si  Si2  1  0.34492590  0.65507410  0.15507410  1
  Si  Si3  1  0.84492590  0.84492590  0.84492590  1
  Pd  Pd0  1  0.09460799  0.59460799  0.90539201  1
  Pd  Pd1  1  0.59460799  0.90539201  0.09460799  1
  Pd  Pd2  1  0.90539201  0.09460799  0.59460799  1
  Pd  Pd3  1  0.40539201  0.40539201  0.40539201  1
loop_
_geom_bond_atom_site_label_1
_geom_bond_atom_site_label_2
_geom_bond_distance
_geom_bond_site_symmetry_2
Ba0 Pd0 3.148744 1_555
Ba0 Si0 3.374630 1_565
Ba0 Pd3 3.463470 1_555
Ba0 Pd1 3.463470 1_556
Ba0 Pd2 3.463470 1_465
Ba0 Si3 3.522224 1_555
Ba0 Si1 3.522224 1_565
Ba0 Si2 3.522224 1_555
Ba1 Pd1 3.148744 1_555
Ba1 Si1 3.374630 1_655
Ba1 Pd2 3.463470 1_565
Ba1 Pd3 3.463470 1_555
Ba1 Pd0 3.463470 1_654
Ba1 Si3 3.522224 1_555
Ba1 Si0 3.522224 1_555
Ba1 Si2 3.522224 1_655
Ba2 Pd2 3.148744 1_555
Ba2 Si2 3.374630 1_556
Ba2 Pd3 3.463470 1_555
Ba2 Pd0 3.463470 1_655
Ba2 Pd1 3.463470 1_546
Ba2 Si1 3.522224 1_555
Ba2 Si3 3.522224 1_555
Ba2 Si0 3.522224 1_556
Ba3 Pd3 3.148744 1_555
Ba3 Si3 3.374630 1_444
Ba3 Pd0 3.463470 1_554
Ba3 Pd1 3.463470 1_545
Ba3 Pd2 3.463470 1_455
Ba3 Si0 3.522224 1_455
Ba3 Si1 3.522224 1_554
Ba3 Si2 3.522224 1_545
Pd0 Si2 2.410338 1_556
Pd0 Si1 2.410338 1_555
Pd0 Si3 2.410338 1_455
Pd1 Si0 2.410338 1_565
Pd1 Si2 2.410338 1_555
Pd1 Si3 2.410338 1_554
Pd2 Si1 2.410338 1_655
Pd2 Si3 2.410338 1_545
Pd2 Si0 2.410338 1_555
Pd3 Si1 2.410338 1_555
Pd3 Si2 2.410338 1_555
Pd3 Si0 2.410338 1_555
