# generated using pymatgen
data_Ir(SeBr3)3
_symmetry_space_group_name_H-M   'P 1'
_cell_length_a   7.96143893
_cell_length_b   8.44925353
_cell_length_c   13.53486996
_cell_angle_alpha   81.69275532
_cell_angle_beta   85.23345256
_cell_angle_gamma   67.60738870
_symmetry_Int_Tables_number   1
_chemical_formula_structural   Ir(SeBr3)3
_chemical_formula_sum   'Ir2 Se6 Br18'
_cell_volume   832.58852991
_cell_formula_units_Z   2
loop_
 _symmetry_equiv_pos_site_id
 _symmetry_equiv_pos_as_xyz
  1  'x, y, z'
loop_
 _atom_site_type_symbol
 _atom_site_label
 _atom_site_symmetry_multiplicity
 _atom_site_fract_x
 _atom_site_fract_y
 _atom_site_fract_z
 _atom_site_occupancy
  Ir  Ir0  1  0.72462070  0.77882805  0.75072154  1
  Ir  Ir1  1  0.27537930  0.22117195  0.24927846  1
  Se  Se0  1  0.86454612  0.91949402  0.62615490  1
  Se  Se1  1  0.13545388  0.08050598  0.37384510  1
  Se  Se2  1  0.84601700  0.85190897  0.88404044  1
  Se  Se3  1  0.15398300  0.14809103  0.11595956  1
  Se  Se4  1  0.95640984  0.49875218  0.74907298  1
  Se  Se5  1  0.04359016  0.50124782  0.25092702  1
  Br  Br0  1  0.42659559  0.02258533  0.74624671  1
  Br  Br1  1  0.57340441  0.97741467  0.25375329  1
  Br  Br2  1  0.62287486  0.60125289  0.89591503  1
  Br  Br3  1  0.37712514  0.39874711  0.10408497  1
  Br  Br4  1  0.61342784  0.63424742  0.63369020  1
  Br  Br5  1  0.38657216  0.36575258  0.36630980  1
  Br  Br6  1  0.74671828  0.94018895  0.46896956  1
  Br  Br7  1  0.25328172  0.05981105  0.53103044  1
  Br  Br8  1  0.74296845  0.21816570  0.64166387  1
  Br  Br9  1  0.25703055  0.78183430  0.35833613  1
  Br  Br10  1  0.10453537  0.91649146  0.81919646  1
  Br  Br11  1  0.89546463  0.08350854  0.18080354  1
  Br  Br12  1  0.65933422  0.12085738  0.93185155  1
  Br  Br13  1  0.34066578  0.87914262  0.06814845  1
  Br  Br14  1  0.15291201  0.51029787  0.60987809  1
  Br  Br15  1  0.84708799  0.48970313  0.39012191  1
  Br  Br16  1  0.15976387  0.44475137  0.88038989  1
  Br  Br17  1  0.84023613  0.55524963  0.11961011  1
loop_
_geom_bond_atom_site_label_1
_geom_bond_atom_site_label_2
_geom_bond_distance
_geom_bond_site_symmetry_2
Ir0 Se0 2.369340 1_555
Ir0 Se2 2.374433 1_555
Ir0 Se4 2.384770 1_555
Ir1 Se1 2.369340 1_555
Ir1 Se3 2.374433 1_555
Ir1 Se5 2.384770 1_555
Br0 Ir0 2.477870 1_545
Br1 Ir1 2.477870 1_565
Br2 Ir0 2.564887 1_555
Br3 Ir1 2.564887 1_555
Br4 Ir0 2.530055 1_555
Br5 Ir1 2.530055 1_555
Br6 Se0 2.352862 1_555
Br7 Se1 2.352862 1_555
Br8 Se0 2.368023 1_545
Br9 Se1 2.368023 1_565
Br10 Se2 2.391909 1_455
Br11 Se3 2.391909 1_655
Br12 Se2 2.341673 1_545
Br13 Se3 2.341673 1_565
Br14 Se4 2.362144 1_455
Br15 Se5 2.362143 1_655
Br16 Se4 2.381047 1_455
Br17 Se5 2.381046 1_655
