# generated using pymatgen
data_BaMg6Mo
_symmetry_space_group_name_H-M   'P 1'
_cell_length_a   5.18587300
_cell_length_b   6.64804100
_cell_length_c   11.53525400
_cell_angle_alpha   90.00000000
_cell_angle_beta   90.00000000
_cell_angle_gamma   90.00000000
_symmetry_Int_Tables_number   1
_chemical_formula_structural   BaMg6Mo
_chemical_formula_sum   'Ba2 Mg12 Mo2'
_cell_volume   397.68822098
_cell_formula_units_Z   2
loop_
 _symmetry_equiv_pos_site_id
 _symmetry_equiv_pos_as_xyz
  1  'x, y, z'
loop_
 _atom_site_type_symbol
 _atom_site_label
 _atom_site_symmetry_multiplicity
 _atom_site_fract_x
 _atom_site_fract_y
 _atom_site_fract_z
 _atom_site_occupancy
  Ba  Ba0  1  0.00000000  0.50000000  0.32897700  1
  Ba  Ba1  1  0.00000000  0.00000000  0.82897700  1
  Mg  Mg0  1  0.00000000  0.26954900  0.08499400  1
  Mg  Mg1  1  0.00000000  0.73045100  0.08499400  1
  Mg  Mg2  1  0.00000000  0.00000000  0.33410300  1
  Mg  Mg3  1  0.50000000  0.77316300  0.42676100  1
  Mg  Mg4  1  0.50000000  0.22683700  0.42676100  1
  Mg  Mg5  1  0.50000000  0.00000000  0.16548700  1
  Mg  Mg6  1  0.00000000  0.76954900  0.58499400  1
  Mg  Mg7  1  0.00000000  0.23045100  0.58499400  1
  Mg  Mg8  1  0.00000000  0.50000000  0.83410300  1
  Mg  Mg9  1  0.50000000  0.27316300  0.92676100  1
  Mg  Mg10  1  0.50000000  0.72683700  0.92676100  1
  Mg  Mg11  1  0.50000000  0.50000000  0.66548700  1
  Mo  Mo0  1  0.50000000  0.50000000  0.14792200  1
  Mo  Mo1  1  0.50000000  0.00000000  0.64792200  1
loop_
_geom_bond_atom_site_label_1
_geom_bond_atom_site_label_2
_geom_bond_distance
_geom_bond_site_symmetry_2
Ba0 Mg1 3.204380 1_555
Ba0 Mg0 3.204380 1_555
Ba0 Mg2 3.324546 1_565
Ba0 Mg2 3.324546 1_555
Ba0 Mo0 3.329447 1_555
Ba0 Mo0 3.329447 1_455
Ba0 Mg3 3.360576 1_455
Ba0 Mg3 3.360576 1_555
Ba0 Mg4 3.360576 1_555
Ba0 Mg4 3.360576 1_455
Ba0 Mg6 3.454371 1_555
Ba0 Mg7 3.454371 1_555
Ba1 Mg7 3.204380 1_555
Ba1 Mg6 3.204380 1_545
Ba1 Mg8 3.324546 1_545
Ba1 Mg8 3.324546 1_555
Ba1 Mo1 3.329447 1_555
Ba1 Mo1 3.329447 1_455
Ba1 Mg10 3.360576 1_545
Ba1 Mg9 3.360576 1_455
Ba1 Mg9 3.360576 1_555
Ba1 Mg10 3.360576 1_445
Ba1 Mg0 3.454371 1_556
Ba1 Mg1 3.454371 1_546
Mg0 Mg1 3.064095 1_555
Mg0 Mo0 3.097968 1_455
Mg0 Mo0 3.097968 1_555
Mg0 Mg9 3.171035 1_554
Mg0 Mg9 3.171035 1_454
Mg0 Mg8 3.274589 1_554
Mg0 Mg5 3.285820 1_455
Mg0 Mg5 3.285820 1_555
Mg0 Mg2 3.386499 1_555
Mg1 Mo0 3.097968 1_555
Mg1 Mo0 3.097968 1_455
Mg1 Mg10 3.171035 1_454
Mg1 Mg10 3.171035 1_554
Mg1 Mg8 3.274589 1_554
Mg1 Mg5 3.285820 1_565
Mg1 Mg5 3.285820 1_465
Mg1 Mg2 3.386499 1_565
Mg2 Mg4 3.184314 1_455
Mg2 Mg4 3.184314 1_555
Mg2 Mg3 3.184314 1_545
Mg2 Mg3 3.184314 1_445
Mg2 Mg5 3.241366 1_555
Mg2 Mg5 3.241366 1_455
Mg2 Mg7 3.274589 1_555
Mg2 Mg6 3.274589 1_545
Mg3 Mo1 2.963526 1_565
Mg3 Mg6 3.171035 1_655
Mg3 Mg6 3.171035 1_555
Mg3 Mg5 3.370088 1_565
Mg4 Mo1 2.963526 1_555
Mg4 Mg7 3.171035 1_655
Mg4 Mg7 3.171035 1_555
Mg4 Mg5 3.370088 1_555
Mg5 Mg9 3.298647 1_554
Mg5 Mo0 3.330190 1_545
Mg5 Mo0 3.330190 1_555
Mg6 Mg7 3.064095 1_565
Mg6 Mo1 3.097968 1_565
Mg6 Mo1 3.097968 1_465
Mg6 Mg8 3.386499 1_555
Mg7 Mo1 3.097968 1_555
Mg7 Mo1 3.097968 1_455
Mg7 Mg8 3.386499 1_555
Mg8 Mg9 3.184314 1_455
Mg8 Mg9 3.184314 1_555
Mg9 Mo0 2.963526 1_556
Mg10 Mo0 2.963526 1_556
Mg10 Mg8 3.184314 1_655
Mg10 Mg8 3.184314 1_555
Mg10 Mg5 3.298647 1_566
Mg10 Mg11 3.370088 1_555
Mg11 Mg8 3.241366 1_555
Mg11 Mg8 3.241366 1_655
Mg11 Mg6 3.285820 1_555
Mg11 Mg6 3.285820 1_655
Mg11 Mg7 3.285820 1_555
Mg11 Mg7 3.285820 1_655
Mg11 Mg3 3.298647 1_555
Mg11 Mg4 3.298647 1_555
Mg11 Mo1 3.330190 1_565
Mg11 Mo1 3.330190 1_555
Mg11 Mg9 3.370088 1_555
