# generated using pymatgen
data_Yb2Fe3Cu
_symmetry_space_group_name_H-M   'P 1'
_cell_length_a   5.22613130
_cell_length_b   5.22613130
_cell_length_c   5.22613124
_cell_angle_alpha   57.34199219
_cell_angle_beta   57.34199219
_cell_angle_gamma   57.34198702
_symmetry_Int_Tables_number   1
_chemical_formula_structural   Yb2Fe3Cu
_chemical_formula_sum   'Yb2 Fe3 Cu1'
_cell_volume   94.75609769
_cell_formula_units_Z   1
loop_
 _symmetry_equiv_pos_site_id
 _symmetry_equiv_pos_as_xyz
  1  'x, y, z'
loop_
 _atom_site_type_symbol
 _atom_site_label
 _atom_site_symmetry_multiplicity
 _atom_site_fract_x
 _atom_site_fract_y
 _atom_site_fract_z
 _atom_site_occupancy
  Yb  Yb0  1  0.12492500  0.12492500  0.12492500  1
  Yb  Yb1  1  0.87507500  0.87507500  0.87507500  1
  Fe  Fe0  1  0.50000000  0.00000000  0.50000000  1
  Fe  Fe1  1  0.00000000  0.50000000  0.50000000  1
  Fe  Fe2  1  0.50000000  0.50000000  0.00000000  1
  Cu  Cu0  1  0.50000000  0.50000000  0.50000000  1
loop_
_geom_bond_atom_site_label_1
_geom_bond_atom_site_label_2
_geom_bond_distance
_geom_bond_site_symmetry_2
Fe0 Fe1 2.507390 1_555
Fe0 Fe1 2.507390 1_645
Fe0 Fe2 2.507390 1_546
Fe0 Fe2 2.507390 1_555
Fe0 Yb1 2.990955 1_544
Fe0 Yb0 2.990955 1_556
Fe0 Yb1 2.990955 1_445
Fe0 Yb0 2.990955 1_655
Fe0 Yb0 3.081467 1_555
Fe0 Yb1 3.081467 1_545
Fe1 Fe2 2.507390 1_555
Fe1 Fe2 2.507390 1_456
Fe1 Yb1 2.990955 1_454
Fe1 Yb0 2.990955 1_556
Fe1 Yb1 2.990955 1_445
Fe1 Yb0 2.990955 1_565
Fe1 Yb0 3.081467 1_555
Fe1 Yb1 3.081467 1_455
Fe2 Yb1 2.990955 1_544
Fe2 Yb1 2.990955 1_454
Fe2 Yb0 2.990955 1_655
Fe2 Yb0 2.990955 1_565
Fe2 Yb0 3.081467 1_555
Fe2 Yb1 3.081467 1_554
Cu0 Fe2 2.613066 1_556
Cu0 Fe2 2.613066 1_555
Cu0 Fe0 2.613066 1_555
Cu0 Fe0 2.613066 1_565
Cu0 Fe1 2.613066 1_555
Cu0 Fe1 2.613066 1_655
Cu0 Yb0 2.946102 1_655
Cu0 Yb0 2.946102 1_565
Cu0 Yb1 2.946102 1_455
Cu0 Yb1 2.946102 1_545
Cu0 Yb1 2.946102 1_554
Cu0 Yb0 2.946102 1_556
