# generated using pymatgen
data_Ca3V3(CuO6)2
_symmetry_space_group_name_H-M   'P 1'
_cell_length_a   10.88034134
_cell_length_b   10.88034134
_cell_length_c   10.88034134
_cell_angle_alpha   109.47122063
_cell_angle_beta   109.47122063
_cell_angle_gamma   109.47122063
_symmetry_Int_Tables_number   1
_chemical_formula_structural   Ca3V3(CuO6)2
_chemical_formula_sum   'Ca12 V12 Cu8 O48'
_cell_volume   991.52956868
_cell_formula_units_Z   4
loop_
 _symmetry_equiv_pos_site_id
 _symmetry_equiv_pos_as_xyz
  1  'x, y, z'
loop_
 _atom_site_type_symbol
 _atom_site_label
 _atom_site_symmetry_multiplicity
 _atom_site_fract_x
 _atom_site_fract_y
 _atom_site_fract_z
 _atom_site_occupancy
  Ca  Ca0  1  0.25000000  0.37500000  0.12500000  1
  Ca  Ca1  1  0.75000000  0.62500000  0.87500000  1
  Ca  Ca2  1  0.75000000  0.12500000  0.37500000  1
  Ca  Ca3  1  0.12500000  0.25000000  0.37500000  1
  Ca  Ca4  1  0.37500000  0.75000000  0.12500000  1
  Ca  Ca5  1  0.25000000  0.87500000  0.62500000  1
  Ca  Ca6  1  0.87500000  0.75000000  0.62500000  1
  Ca  Ca7  1  0.62500000  0.25000000  0.87500000  1
  Ca  Ca8  1  0.37500000  0.12500000  0.25000000  1
  Ca  Ca9  1  0.62500000  0.87500000  0.75000000  1
  Ca  Ca10  1  0.12500000  0.37500000  0.75000000  1
  Ca  Ca11  1  0.87500000  0.62500000  0.25000000  1
  V  V0  1  0.25000000  0.62500000  0.37500000  1
  V  V1  1  0.75000000  0.37500000  0.62500000  1
  V  V2  1  0.75000000  0.87500000  0.12500000  1
  V  V3  1  0.37500000  0.25000000  0.62500000  1
  V  V4  1  0.62500000  0.75000000  0.37500000  1
  V  V5  1  0.25000000  0.12500000  0.87500000  1
  V  V6  1  0.12500000  0.75000000  0.87500000  1
  V  V7  1  0.87500000  0.25000000  0.12500000  1
  V  V8  1  0.62500000  0.37500000  0.25000000  1
  V  V9  1  0.37500000  0.62500000  0.75000000  1
  V  V10  1  0.87500000  0.12500000  0.75000000  1
  V  V11  1  0.12500000  0.87500000  0.25000000  1
  Cu  Cu0  1  0.00000000  0.00000000  0.00000000  1
  Cu  Cu1  1  0.50000000  0.00000000  0.50000000  1
  Cu  Cu2  1  0.00000000  0.50000000  0.50000000  1
  Cu  Cu3  1  0.50000000  0.00000000  0.00000000  1
  Cu  Cu4  1  0.50000000  0.50000000  0.00000000  1
  Cu  Cu5  1  0.50000000  0.50000000  0.50000000  1
  Cu  Cu6  1  0.00000000  0.00000000  0.50000000  1
  Cu  Cu7  1  0.00000000  0.50000000  0.00000000  1
  O  O0  1  0.48119100  0.37928100  0.28808600  1
  O  O1  1  0.51880900  0.62071900  0.71191400  1
  O  O2  1  0.59119500  0.19310500  0.21191400  1
  O  O3  1  0.90880500  0.12071900  0.60191000  1
  O  O4  1  0.28808600  0.48119100  0.37928100  1
  O  O5  1  0.30689500  0.90880500  0.28808600  1
  O  O6  1  0.40880500  0.80689500  0.78808600  1
  O  O7  1  0.09119500  0.87928100  0.39809000  1
  O  O8  1  0.71191400  0.51880900  0.62071900  1
  O  O9  1  0.69310500  0.09119500  0.71191400  1
  O  O10  1  0.01880900  0.30689500  0.89809000  1
  O  O11  1  0.21191400  0.59119500  0.19310500  1
  O  O12  1  0.12071900  0.01880900  0.21191400  1
  O  O13  1  0.98119100  0.69310500  0.10191000  1
  O  O14  1  0.78808600  0.40880500  0.80689500  1
  O  O15  1  0.87928100  0.98119100  0.78808600  1
  O  O16  1  0.60191000  0.90880500  0.12071900  1
  O  O17  1  0.19310500  0.48119100  0.60191000  1
  O  O18  1  0.39809000  0.09119500  0.87928100  1
  O  O19  1  0.80689500  0.51880900  0.39809000  1
  O  O20  1  0.89809000  0.01880900  0.30689500  1
  O  O21  1  0.37928100  0.59119500  0.89809000  1
  O  O22  1  0.10191000  0.98119100  0.69310500  1
  O  O23  1  0.62071900  0.40880500  0.10191000  1
  O  O24  1  0.37928100  0.28808600  0.48119100  1
  O  O25  1  0.59119500  0.89809000  0.37928100  1
  O  O26  1  0.62071900  0.71191400  0.51880900  1
  O  O27  1  0.40880500  0.10191000  0.62071900  1
  O  O28  1  0.12071900  0.60191000  0.90880500  1
  O  O29  1  0.01880900  0.21191400  0.12071900  1
  O  O30  1  0.87928100  0.39809000  0.09119500  1
  O  O31  1  0.98119100  0.78808600  0.87928100  1
  O  O32  1  0.30689500  0.89809000  0.01880900  1
  O  O33  1  0.90880500  0.28808600  0.30689500  1
  O  O34  1  0.69310500  0.10191000  0.98119100  1
  O  O35  1  0.09119500  0.71191400  0.69310500  1
  O  O36  1  0.19310500  0.21191400  0.59119500  1
  O  O37  1  0.48119100  0.60191000  0.19310500  1
  O  O38  1  0.80689500  0.78808600  0.40880500  1
  O  O39  1  0.51880900  0.39809000  0.80689500  1
  O  O40  1  0.28808600  0.30689500  0.90880500  1
  O  O41  1  0.71191400  0.69310500  0.09119500  1
  O  O42  1  0.21191400  0.12071900  0.01880900  1
  O  O43  1  0.78808600  0.87928100  0.98119100  1
  O  O44  1  0.89809000  0.37928100  0.59119500  1
  O  O45  1  0.10191000  0.62071900  0.40880500  1
  O  O46  1  0.60191000  0.19310500  0.48119100  1
  O  O47  1  0.39809000  0.80689500  0.51880900  1
loop_
_geom_bond_atom_site_label_1
_geom_bond_atom_site_label_2
_geom_bond_distance
_geom_bond_site_symmetry_2
Ca0 O4 2.438549 1_555
Ca0 O42 2.438549 1_555
Ca0 O11 2.438549 1_555
Ca0 O40 2.438549 1_554
Ca0 O10 2.523755 1_554
Ca0 O29 2.523755 1_555
Ca0 O37 2.523755 1_555
Ca0 O0 2.523755 1_555
Ca1 O41 2.438549 1_556
Ca1 O43 2.438549 1_555
Ca1 O14 2.438549 1_555
Ca1 O8 2.438549 1_555
Ca1 O1 2.523755 1_555
Ca1 O13 2.523755 1_556
Ca1 O39 2.523755 1_555
Ca1 O31 2.523755 1_555
Ca2 O44 2.438549 1_555
Ca2 O16 2.438549 1_545
Ca2 O46 2.438549 1_555
Ca2 O20 2.438549 1_555
Ca2 O25 2.523755 1_545
Ca2 O3 2.523755 1_555
Ca2 O2 2.523755 1_555
Ca2 O33 2.523755 1_555
Ca3 O29 2.438549 1_555
Ca3 O24 2.438549 1_555
Ca3 O33 2.438549 1_455
Ca3 O36 2.438549 1_555
Ca3 O20 2.523755 1_455
Ca3 O17 2.523755 1_555
Ca3 O12 2.523755 1_555
Ca3 O4 2.523755 1_555
Ca4 O28 2.438549 1_554
Ca4 O25 2.438549 1_555
Ca4 O37 2.438549 1_555
Ca4 O32 2.438549 1_555
Ca4 O21 2.523755 1_554
Ca4 O16 2.523755 1_555
Ca4 O5 2.523755 1_555
Ca4 O11 2.523755 1_555
Ca5 O18 2.438549 1_565
Ca5 O22 2.438549 1_555
Ca5 O45 2.438549 1_555
Ca5 O47 2.438549 1_555
Ca5 O27 2.523755 1_565
Ca5 O6 2.523755 1_555
Ca5 O35 2.523755 1_555
Ca5 O7 2.523755 1_555
Ca6 O35 2.438549 1_655
Ca6 O38 2.438549 1_555
Ca6 O31 2.438549 1_555
Ca6 O26 2.438549 1_555
Ca6 O22 2.523755 1_655
Ca6 O15 2.523755 1_555
Ca6 O19 2.523755 1_555
Ca6 O8 2.523755 1_555
Ca7 O30 2.438549 1_556
Ca7 O27 2.438549 1_555
Ca7 O39 2.438549 1_555
Ca7 O34 2.438549 1_555
Ca7 O14 2.523755 1_555
Ca7 O9 2.523755 1_555
Ca7 O23 2.523755 1_556
Ca7 O18 2.523755 1_555
Ca8 O0 2.438549 1_555
Ca8 O12 2.438549 1_555
Ca8 O2 2.438549 1_555
Ca8 O5 2.438549 1_545
Ca8 O46 2.523755 1_555
Ca8 O42 2.523755 1_555
Ca8 O32 2.523755 1_545
Ca8 O24 2.523755 1_555
Ca9 O9 2.438549 1_565
Ca9 O1 2.438549 1_555
Ca9 O6 2.438549 1_555
Ca9 O15 2.438549 1_555
Ca9 O26 2.523755 1_555
Ca9 O43 2.523755 1_555
Ca9 O34 2.523755 1_565
Ca9 O47 2.523755 1_555
Ca10 O21 2.438549 1_555
Ca10 O3 2.438549 1_455
Ca10 O10 2.438549 1_555
Ca10 O17 2.438549 1_555
Ca10 O44 2.523755 1_455
Ca10 O28 2.523755 1_555
Ca10 O36 2.523755 1_555
Ca10 O40 2.523755 1_555
Ca11 O7 2.438549 1_655
Ca11 O23 2.438549 1_555
Ca11 O13 2.438549 1_555
Ca11 O19 2.438549 1_555
Ca11 O45 2.523755 1_655
Ca11 O38 2.523755 1_555
Ca11 O41 2.523755 1_555
Ca11 O30 2.523755 1_555
Cu0 O12 2.137889 1_555
Cu0 O29 2.137889 1_555
Cu0 O42 2.137889 1_555
Cu0 O31 2.137889 1_444
Cu0 O15 2.137889 1_444
Cu0 O43 2.137889 1_444
Cu1 O47 2.137889 1_545
Cu1 O46 2.137889 1_555
Cu1 O5 2.137889 1_545
Cu1 O27 2.137889 1_555
Cu1 O25 2.137889 1_545
Cu1 O9 2.137889 1_555
Cu2 O19 2.137889 1_455
Cu2 O17 2.137889 1_555
Cu2 O33 2.137889 1_455
Cu2 O44 2.137889 1_455
Cu2 O35 2.137889 1_555
Cu2 O45 2.137889 1_555
Cu3 O2 2.137889 1_555
Cu3 O16 2.137889 1_545
Cu3 O34 2.137889 1_554
Cu3 O6 2.137889 1_544
Cu3 O18 2.137889 1_554
Cu3 O32 2.137889 1_545
Cu4 O39 2.137889 1_554
Cu4 O21 2.137889 1_554
Cu4 O40 2.137889 1_554
Cu4 O37 2.137889 1_555
Cu4 O41 2.137889 1_555
Cu4 O23 2.137889 1_555
Cu5 O4 2.137889 1_555
Cu5 O24 2.137889 1_555
Cu5 O0 2.137889 1_555
Cu5 O1 2.137889 1_555
Cu5 O8 2.137889 1_555
Cu5 O26 2.137889 1_555
Cu6 O22 2.137889 1_545
Cu6 O38 2.137889 1_445
Cu6 O20 2.137889 1_455
Cu6 O36 2.137889 1_555
Cu6 O3 2.137889 1_455
Cu6 O7 2.137889 1_545
Cu7 O13 2.137889 1_455
Cu7 O30 2.137889 1_455
Cu7 O10 2.137889 1_554
Cu7 O11 2.137889 1_555
Cu7 O28 2.137889 1_554
Cu7 O14 2.137889 1_454
O0 V8 1.757875 1_555
O1 V9 1.757875 1_555
O2 V8 1.757875 1_555
O3 V10 1.757875 1_555
O4 V0 1.757875 1_555
O5 V11 1.757875 1_555
O6 V9 1.757875 1_555
O7 V11 1.757875 1_555
O8 V1 1.757875 1_555
O9 V10 1.757875 1_555
O10 V10 1.757875 1_455
O11 V0 1.757875 1_555
O12 V11 1.757875 1_545
O13 V11 1.757875 1_655
O14 V1 1.757875 1_555
O15 V10 1.757875 1_565
O16 V2 1.757875 1_555
O17 V9 1.757875 1_555
O18 V5 1.757875 1_555
O19 V8 1.757875 1_555
O20 V2 1.757875 1_545
O21 V9 1.757875 1_555
O22 V5 1.757875 1_565
O23 V8 1.757875 1_555
O24 V3 1.757875 1_555
O25 V4 1.757875 1_555
O26 V4 1.757875 1_555
O27 V3 1.757875 1_555
O28 V6 1.757875 1_555
O29 V7 1.757875 1_455
O30 V7 1.757875 1_555
O31 V6 1.757875 1_655
O32 V6 1.757875 1_554
O33 V7 1.757875 1_555
O34 V7 1.757875 1_556
O35 V6 1.757875 1_555
O36 V3 1.757875 1_555
O37 V4 1.757875 1_555
O38 V4 1.757875 1_555
O39 V3 1.757875 1_555
O40 V5 1.757875 1_555
O41 V2 1.757875 1_555
O42 V5 1.757875 1_554
O43 V2 1.757875 1_556
O44 V1 1.757875 1_555
O45 V0 1.757875 1_555
O46 V1 1.757875 1_555
O47 V0 1.757875 1_555
