# generated using pymatgen
data_Nd23Cd4Pt7
_symmetry_space_group_name_H-M   'P 1'
_cell_length_a   10.09837500
_cell_length_b   10.09837500
_cell_length_c   22.84586600
_cell_angle_alpha   90.00000000
_cell_angle_beta   90.00000000
_cell_angle_gamma   119.99999346
_symmetry_Int_Tables_number   1
_chemical_formula_structural   Nd23Cd4Pt7
_chemical_formula_sum   'Nd46 Cd8 Pt14'
_cell_volume   2017.62882433
_cell_formula_units_Z   2
loop_
 _symmetry_equiv_pos_site_id
 _symmetry_equiv_pos_as_xyz
  1  'x, y, z'
loop_
 _atom_site_type_symbol
 _atom_site_label
 _atom_site_symmetry_multiplicity
 _atom_site_fract_x
 _atom_site_fract_y
 _atom_site_fract_z
 _atom_site_occupancy
  Nd  Nd0  1  0.20540100  0.41080300  0.72093300  1
  Nd  Nd1  1  0.20540100  0.79459900  0.72093300  1
  Nd  Nd2  1  0.79459900  0.58919700  0.22093300  1
  Nd  Nd3  1  0.58919700  0.79459900  0.72093300  1
  Nd  Nd4  1  0.79459900  0.20540100  0.22093300  1
  Nd  Nd5  1  0.41080300  0.20540100  0.22093300  1
  Nd  Nd6  1  0.79428000  0.58856000  0.94540300  1
  Nd  Nd7  1  0.79428000  0.20572000  0.94540300  1
  Nd  Nd8  1  0.20572000  0.41144000  0.44540300  1
  Nd  Nd9  1  0.41144000  0.20572000  0.94540300  1
  Nd  Nd10  1  0.20572000  0.79428000  0.44540300  1
  Nd  Nd11  1  0.58856000  0.79428000  0.44540300  1
  Nd  Nd12  1  0.21133400  0.42266800  0.98939200  1
  Nd  Nd13  1  0.21133400  0.78866600  0.98939200  1
  Nd  Nd14  1  0.78866600  0.57733200  0.48939200  1
  Nd  Nd15  1  0.57733200  0.78866600  0.98939200  1
  Nd  Nd16  1  0.78866600  0.21133400  0.48939200  1
  Nd  Nd17  1  0.42266800  0.21133400  0.48939200  1
  Nd  Nd18  1  0.87114100  0.74228300  0.63627400  1
  Nd  Nd19  1  0.87114100  0.12885900  0.63627400  1
  Nd  Nd20  1  0.12885900  0.25771700  0.13627400  1
  Nd  Nd21  1  0.25771700  0.12885900  0.63627400  1
  Nd  Nd22  1  0.12885900  0.87114100  0.13627400  1
  Nd  Nd23  1  0.74228300  0.87114100  0.13627400  1
  Nd  Nd24  1  0.45645100  0.91290200  0.85625900  1
  Nd  Nd25  1  0.45645100  0.54354900  0.85625900  1
  Nd  Nd26  1  0.54354900  0.08709800  0.35625900  1
  Nd  Nd27  1  0.08709800  0.54354900  0.85625900  1
  Nd  Nd28  1  0.54354900  0.45645100  0.35625900  1
  Nd  Nd29  1  0.91290200  0.45645100  0.35625900  1
  Nd  Nd30  1  0.00000000  0.00000000  0.99606700  1
  Nd  Nd31  1  0.00000000  0.00000000  0.49606700  1
  Nd  Nd32  1  0.46130800  0.92261500  0.58488400  1
  Nd  Nd33  1  0.46130800  0.53869200  0.58488400  1
  Nd  Nd34  1  0.53869200  0.07738500  0.08488400  1
  Nd  Nd35  1  0.07738500  0.53869200  0.58488400  1
  Nd  Nd36  1  0.53869200  0.46130800  0.08488400  1
  Nd  Nd37  1  0.92261500  0.46130800  0.08488400  1
  Nd  Nd38  1  0.80146300  0.60292500  0.78398800  1
  Nd  Nd39  1  0.80146300  0.19853700  0.78398800  1
  Nd  Nd40  1  0.19853700  0.39707500  0.28398800  1
  Nd  Nd41  1  0.39707500  0.19853700  0.78398800  1
  Nd  Nd42  1  0.19853700  0.80146300  0.28398800  1
  Nd  Nd43  1  0.60292500  0.80146300  0.28398800  1
  Nd  Nd44  1  0.66666700  0.33333300  0.64231300  1
  Nd  Nd45  1  0.33333300  0.66666700  0.14231300  1
  Cd  Cd0  1  0.00000000  0.00000000  0.74882700  1
  Cd  Cd1  1  0.00000000  0.00000000  0.24882700  1
  Cd  Cd2  1  0.10752700  0.21505500  0.86347000  1
  Cd  Cd3  1  0.10752700  0.89247300  0.86347000  1
  Cd  Cd4  1  0.89247300  0.78494500  0.36347000  1
  Cd  Cd5  1  0.78494500  0.89247300  0.86347000  1
  Cd  Cd6  1  0.89247300  0.10752700  0.36347000  1
  Cd  Cd7  1  0.21505500  0.10752700  0.36347000  1
  Pt  Pt0  1  0.52284600  0.04569300  0.71081500  1
  Pt  Pt1  1  0.52284600  0.47715400  0.71081500  1
  Pt  Pt2  1  0.47715400  0.95430700  0.21081500  1
  Pt  Pt3  1  0.95430700  0.47715400  0.71081500  1
  Pt  Pt4  1  0.47715400  0.52284600  0.21081500  1
  Pt  Pt5  1  0.04569300  0.52284600  0.21081500  1
  Pt  Pt6  1  0.66666700  0.33333300  0.86120800  1
  Pt  Pt7  1  0.33333300  0.66666700  0.36120800  1
  Pt  Pt8  1  0.14286500  0.28573000  0.56468200  1
  Pt  Pt9  1  0.14286500  0.85713500  0.56468200  1
  Pt  Pt10  1  0.85713500  0.71427000  0.06468200  1
  Pt  Pt11  1  0.71427000  0.85713500  0.56468200  1
  Pt  Pt12  1  0.85713500  0.14286500  0.06468200  1
  Pt  Pt13  1  0.28573000  0.14286500  0.06468200  1
loop_
_geom_bond_atom_site_label_1
_geom_bond_atom_site_label_2
_geom_bond_distance
_geom_bond_site_symmetry_2
Nd0 Pt3 2.937828 1_455
Nd0 Pt1 2.937828 1_555
Nd0 Nd27 3.792616 1_555
Nd0 Nd25 3.792621 1_555
Nd1 Pt0 2.937828 1_565
Nd1 Pt3 2.937828 1_455
Nd1 Nd27 3.792621 1_555
Nd1 Nd24 3.792621 1_555
Nd2 Pt5 2.937828 1_655
Nd2 Pt4 2.937828 1_555
Nd2 Nd29 3.792616 1_555
Nd2 Nd28 3.792621 1_555
Nd3 Pt0 2.937828 1_565
Nd3 Pt1 2.937828 1_555
Nd4 Pt5 2.937828 1_655
Nd4 Pt2 2.937828 1_545
Nd5 Pt2 2.937828 1_545
Nd5 Pt4 2.937828 1_555
Nd6 Pt10 2.938445 1_556
Nd6 Pt6 2.946530 1_555
Nd7 Pt12 2.938445 1_556
Nd7 Pt6 2.946523 1_555
Nd8 Pt8 2.938445 1_555
Nd8 Pt7 2.946530 1_555
Nd9 Pt13 2.938445 1_556
Nd9 Pt6 2.946530 1_555
Nd10 Pt9 2.938445 1_555
Nd10 Pt7 2.946523 1_555
Nd10 Nd17 3.784200 1_565
Nd10 Nd14 3.784200 1_455
Nd10 Nd26 3.800271 1_565
Nd10 Nd29 3.800271 1_455
Nd11 Pt11 2.938445 1_555
Nd11 Pt7 2.946530 1_555
Nd11 Nd14 3.784199 1_555
Nd11 Nd16 3.784200 1_565
Nd11 Nd26 3.800271 1_565
Nd11 Nd28 3.800271 1_555
Nd12 Nd20 3.652585 1_556
Nd12 Pt13 3.691827 1_556
Nd12 Pt12 3.691828 1_456
Nd12 Nd13 3.695985 1_555
Nd12 Nd15 3.695985 1_555
Nd12 Nd30 3.699566 1_555
Nd12 Nd27 3.721091 1_555
Nd12 Nd25 3.721091 1_555
Nd12 Nd9 3.784199 1_555
Nd12 Nd7 3.784200 1_455
Nd12 Nd36 3.814435 1_556
Nd12 Nd37 3.814443 1_456
Nd12 Nd45 4.093749 1_556
Nd13 Nd22 3.652581 1_556
Nd13 Pt13 3.691827 1_566
Nd13 Pt10 3.691827 1_456
Nd13 Nd15 3.695985 1_555
Nd13 Nd30 3.699566 1_565
Nd13 Nd27 3.721091 1_555
Nd13 Nd24 3.721091 1_555
Nd13 Nd9 3.784200 1_565
Nd13 Nd6 3.784200 1_455
Nd13 Nd37 3.814438 1_456
Nd13 Nd34 3.814438 1_566
Nd13 Nd45 4.093744 1_556
Nd14 Nd18 3.652585 1_555
Nd14 Pt11 3.691827 1_555
Nd14 Pt9 3.691828 1_655
Nd14 Nd16 3.695985 1_555
Nd14 Nd17 3.695985 1_555
Nd14 Nd31 3.699566 1_665
Nd14 Nd29 3.721091 1_555
Nd14 Nd28 3.721091 1_555
Nd14 Nd33 3.814435 1_555
Nd14 Nd35 3.814443 1_655
Nd14 Nd44 4.093749 1_555
Nd15 Nd23 3.652585 1_556
Nd15 Pt10 3.691827 1_556
Nd15 Pt12 3.691828 1_566
Nd15 Nd30 3.699566 1_665
Nd15 Nd24 3.721091 1_555
Nd15 Nd25 3.721091 1_555
Nd15 Nd6 3.784199 1_555
Nd15 Nd7 3.784200 1_565
Nd15 Nd36 3.814435 1_556
Nd15 Nd34 3.814443 1_566
Nd15 Nd45 4.093749 1_556
Nd16 Nd19 3.652581 1_555
Nd16 Pt8 3.691827 1_655
Nd16 Pt11 3.691827 1_545
Nd16 Nd17 3.695985 1_555
Nd16 Nd31 3.699566 1_655
Nd16 Nd29 3.721091 1_555
Nd16 Nd26 3.721091 1_555
Nd16 Nd8 3.784200 1_655
Nd16 Nd35 3.814438 1_655
Nd16 Nd32 3.814438 1_545
Nd16 Nd44 4.093744 1_555
Nd17 Nd21 3.652585 1_555
Nd17 Pt8 3.691827 1_555
Nd17 Pt9 3.691828 1_545
Nd17 Nd31 3.699566 1_555
Nd17 Nd26 3.721091 1_555
Nd17 Nd28 3.721091 1_555
Nd17 Nd8 3.784199 1_555
Nd17 Nd33 3.814435 1_555
Nd17 Nd32 3.814443 1_545
Nd17 Nd44 4.093749 1_555
Nd18 Pt11 2.892599 1_555
Nd18 Pt9 2.892607 1_655
Nd18 Pt3 3.608639 1_555
Nd18 Pt1 3.608639 1_555
Nd19 Pt11 2.892606 1_545
Nd19 Pt8 2.892606 1_655
Nd19 Pt3 3.608639 1_555
Nd19 Pt0 3.608639 1_555
Nd20 Pt13 2.892599 1_555
Nd20 Pt12 2.892607 1_455
Nd20 Pt5 3.608639 1_555
Nd20 Pt4 3.608639 1_555
Nd21 Pt8 2.892599 1_555
Nd21 Pt9 2.892607 1_545
Nd21 Pt0 3.608639 1_555
Nd21 Pt1 3.608639 1_555
Nd22 Pt10 2.892606 1_455
Nd22 Pt13 2.892606 1_565
Nd22 Pt2 3.608639 1_555
Nd22 Pt5 3.608639 1_555
Nd23 Pt10 2.892599 1_555
Nd23 Pt12 2.892607 1_565
Nd23 Pt2 3.608639 1_555
Nd23 Pt4 3.608639 1_555
Nd24 Pt0 3.519889 1_565
Nd24 Nd41 3.624251 1_565
Nd24 Nd39 3.624257 1_565
Nd24 Pt6 3.678596 1_565
Nd24 Nd25 3.729865 1_555
Nd24 Nd27 3.729865 1_555
Nd24 Nd3 3.792616 1_555
Nd24 Nd9 3.800271 1_565
Nd24 Nd7 3.800271 1_565
Nd25 Pt1 3.519886 1_555
Nd25 Nd38 3.624260 1_555
Nd25 Nd41 3.624260 1_555
Nd25 Pt6 3.678605 1_555
Nd25 Nd27 3.729865 1_555
Nd25 Nd3 3.792621 1_555
Nd25 Nd9 3.800271 1_555
Nd25 Nd6 3.800271 1_555
Nd26 Pt2 3.519889 1_545
Nd26 Nd43 3.624251 1_545
Nd26 Nd42 3.624257 1_545
Nd26 Pt7 3.678596 1_545
Nd26 Nd28 3.729865 1_555
Nd26 Nd29 3.729865 1_555
Nd26 Nd5 3.792616 1_555
Nd26 Nd4 3.792621 1_555
Nd27 Pt3 3.519889 1_455
Nd27 Nd38 3.624251 1_455
Nd27 Nd39 3.624257 1_455
Nd27 Pt6 3.678596 1_455
Nd27 Nd6 3.800271 1_455
Nd27 Nd7 3.800271 1_455
Nd28 Pt4 3.519886 1_555
Nd28 Nd43 3.624260 1_555
Nd28 Nd40 3.624260 1_555
Nd28 Pt7 3.678605 1_555
Nd28 Nd29 3.729865 1_555
Nd28 Nd5 3.792621 1_555
Nd28 Nd8 3.800271 1_555
Nd29 Pt5 3.519889 1_655
Nd29 Nd40 3.624251 1_655
Nd29 Nd42 3.624257 1_655
Nd29 Pt7 3.678596 1_655
Nd29 Nd4 3.792621 1_555
Nd29 Nd8 3.800271 1_655
Nd30 Pt12 2.949824 1_456
Nd30 Pt10 2.949824 1_446
Nd30 Pt13 2.949824 1_556
Nd31 Pt9 2.949824 1_545
Nd31 Pt11 2.949824 1_445
Nd31 Pt8 2.949824 1_555
Nd32 Pt11 2.977397 1_555
Nd32 Pt9 2.977407 1_555
Nd32 Pt0 3.071762 1_565
Nd33 Pt8 2.977404 1_555
Nd33 Pt11 2.977404 1_555
Nd33 Pt1 3.071756 1_555
Nd34 Pt13 2.977397 1_555
Nd34 Pt12 2.977407 1_555
Nd34 Pt2 3.071762 1_545
Nd35 Pt8 2.977397 1_555
Nd35 Pt9 2.977407 1_555
Nd35 Pt3 3.071762 1_455
Nd36 Pt13 2.977404 1_555
Nd36 Pt10 2.977404 1_555
Nd36 Pt4 3.071756 1_555
Nd37 Pt10 2.977397 1_555
Nd37 Pt12 2.977407 1_555
Nd37 Pt5 3.071762 1_655
Nd38 Pt6 2.944659 1_555
Nd38 Pt3 2.958100 1_555
Nd38 Pt1 2.958115 1_555
Nd39 Pt6 2.944659 1_555
Nd39 Pt3 2.958114 1_555
Nd39 Pt0 2.958114 1_555
Nd40 Pt7 2.944659 1_555
Nd40 Pt5 2.958100 1_555
Nd40 Pt4 2.958115 1_555
Nd41 Pt6 2.944659 1_555
Nd41 Pt0 2.958100 1_555
Nd41 Pt1 2.958115 1_555
Nd42 Pt7 2.944659 1_555
Nd42 Pt2 2.958114 1_555
Nd42 Pt5 2.958114 1_555
Nd43 Pt7 2.944659 1_555
Nd43 Pt2 2.958100 1_555
Nd43 Pt4 2.958115 1_555
Nd44 Pt3 2.962623 1_555
Nd44 Pt0 2.962623 1_555
Nd44 Pt1 2.962637 1_555
Nd45 Pt2 2.962623 1_555
Nd45 Pt5 2.962623 1_555
Nd45 Pt4 2.962637 1_555
Cd0 Cd3 3.224435 1_545
Cd0 Cd2 3.224440 1_555
Cd0 Cd5 3.224440 1_445
Cd0 Nd21 3.419326 1_555
Cd0 Nd18 3.419326 1_445
Cd0 Nd19 3.419332 1_455
Cd0 Nd39 3.564288 1_455
Cd0 Nd41 3.564297 1_555
Cd0 Nd38 3.564297 1_445
Cd0 Nd1 3.648729 1_545
Cd0 Nd3 3.648738 1_445
Cd0 Nd0 3.648738 1_555
Cd1 Cd6 3.224435 1_455
Cd1 Cd4 3.224440 1_445
Cd1 Cd7 3.224440 1_555
Cd1 Nd20 3.419326 1_555
Cd1 Nd23 3.419326 1_445
Cd1 Nd22 3.419332 1_545
Cd1 Nd42 3.564288 1_545
Cd1 Nd40 3.564297 1_555
Cd1 Nd43 3.564297 1_445
Cd1 Nd4 3.648729 1_455
Cd1 Nd5 3.648738 1_555
Cd1 Nd2 3.648738 1_445
Cd2 Cd3 3.257554 1_545
Cd2 Cd5 3.257554 1_445
Cd2 Nd12 3.401855 1_555
Cd2 Nd27 3.429028 1_555
Cd2 Nd25 3.429034 1_555
Cd2 Nd39 3.516000 1_455
Cd2 Nd41 3.516018 1_555
Cd2 Nd30 3.565648 1_555
Cd2 Nd7 3.636044 1_455
Cd2 Nd9 3.636052 1_555
Cd2 Nd0 3.678945 1_555
Cd3 Cd5 3.257554 1_455
Cd3 Nd13 3.401859 1_555
Cd3 Nd24 3.429038 1_555
Cd3 Nd27 3.429038 1_555
Cd3 Nd41 3.516009 1_565
Cd3 Nd38 3.516009 1_455
Cd3 Nd30 3.565644 1_565
Cd3 Nd6 3.636048 1_455
Cd3 Nd9 3.636048 1_565
Cd3 Nd1 3.678945 1_555
Cd4 Cd6 3.257554 1_565
Cd4 Cd7 3.257554 1_665
Cd4 Nd14 3.401855 1_555
Cd4 Nd29 3.429028 1_555
Cd4 Nd28 3.429034 1_555
Cd4 Nd42 3.516000 1_655
Cd4 Nd43 3.516018 1_555
Cd4 Nd31 3.565648 1_665
Cd4 Nd10 3.636044 1_655
Cd4 Nd11 3.636052 1_555
Cd4 Nd2 3.678945 1_555
Cd5 Nd15 3.401855 1_555
Cd5 Nd24 3.429028 1_555
Cd5 Nd25 3.429034 1_555
Cd5 Nd39 3.516000 1_565
Cd5 Nd38 3.516018 1_555
Cd5 Nd30 3.565648 1_665
Cd5 Nd7 3.636044 1_565
Cd5 Nd6 3.636052 1_555
Cd5 Nd3 3.678945 1_555
Cd6 Cd7 3.257554 1_655
Cd6 Nd16 3.401859 1_555
Cd6 Nd29 3.429038 1_555
Cd6 Nd26 3.429038 1_555
Cd6 Nd40 3.516009 1_655
Cd6 Nd43 3.516009 1_545
Cd6 Nd31 3.565644 1_655
Cd6 Nd11 3.636048 1_545
Cd6 Nd8 3.636048 1_655
Cd6 Nd4 3.678945 1_555
Cd7 Nd17 3.401855 1_555
Cd7 Nd26 3.429028 1_555
Cd7 Nd28 3.429034 1_555
Cd7 Nd42 3.516000 1_545
Cd7 Nd40 3.516018 1_555
Cd7 Nd31 3.565648 1_555
Cd7 Nd10 3.636044 1_545
Cd7 Nd8 3.636052 1_555
Cd7 Nd5 3.678945 1_555
