# generated using pymatgen
data_LaCeAl2O6
_symmetry_space_group_name_H-M   'P 1'
_cell_length_a   5.39552700
_cell_length_b   5.37473654
_cell_length_c   5.37473654
_cell_angle_alpha   90.16350579
_cell_angle_beta   120.12804730
_cell_angle_gamma   59.87195270
_symmetry_Int_Tables_number   1
_chemical_formula_structural   LaCeAl2O6
_chemical_formula_sum   'La1 Ce1 Al2 O6'
_cell_volume   109.94318369
_cell_formula_units_Z   1
loop_
 _symmetry_equiv_pos_site_id
 _symmetry_equiv_pos_as_xyz
  1  'x, y, z'
loop_
 _atom_site_type_symbol
 _atom_site_label
 _atom_site_symmetry_multiplicity
 _atom_site_fract_x
 _atom_site_fract_y
 _atom_site_fract_z
 _atom_site_occupancy
  La  La0  1  0.49964600  0.25000000  0.25000000  1
  Ce  Ce0  1  0.50374000  0.75000000  0.75000000  1
  Al  Al0  1  0.00010500  0.49982500  0.49982500  1
  Al  Al1  1  0.00010500  0.00017500  0.00017500  1
  O  O0  1  0.00308000  0.75000000  0.75000000  1
  O  O1  1  0.99585600  0.25000000  0.25000000  1
  O  O2  1  0.99899500  0.74790700  0.24716300  1
  O  O3  1  0.49973900  0.75209300  0.25283700  1
  O  O4  1  0.49973900  0.24716300  0.74790700  1
  O  O5  1  0.99899500  0.25283700  0.75209300  1
loop_
_geom_bond_atom_site_label_1
_geom_bond_atom_site_label_2
_geom_bond_distance
_geom_bond_site_symmetry_2
La0 O2 2.675952 1_455
La0 O5 2.675952 1_454
La0 O4 2.675953 1_555
La0 O3 2.675953 1_545
La0 O1 2.677314 1_555
La0 O0 2.684684 1_645
La0 O0 2.684684 1_554
La0 O2 2.698867 1_545
La0 O5 2.698867 1_555
La0 O3 2.698868 1_555
La0 O4 2.698868 1_554
La0 O1 2.718213 1_455
Ce0 O5 2.661360 1_555
Ce0 O2 2.661360 1_556
Ce0 O3 2.661360 1_555
Ce0 O4 2.661360 1_565
Ce0 O1 2.684957 1_465
Ce0 O1 2.684957 1_556
Ce0 O0 2.694202 1_655
Ce0 O0 2.701325 1_555
Ce0 O2 2.713462 1_455
Ce0 O5 2.713462 1_465
Ce0 O3 2.713463 1_556
Ce0 O4 2.713463 1_555
Al0 O1 1.896353 1_455
Al0 O0 1.898939 1_555
Al0 O4 1.901636 1_555
Al0 O2 1.901636 1_455
Al0 O3 1.904489 1_455
Al0 O5 1.904489 1_455
Al1 O1 1.896353 1_455
Al1 O0 1.898939 1_544
Al1 O3 1.901636 1_545
Al1 O5 1.901636 1_454
Al1 O4 1.904489 1_454
Al1 O2 1.904489 1_445
