# generated using pymatgen
data_V4C3
_symmetry_space_group_name_H-M   'P 1'
_cell_length_a   9.48988442
_cell_length_b   9.48988442
_cell_length_c   9.48988442
_cell_angle_alpha   17.77000079
_cell_angle_beta   17.77000079
_cell_angle_gamma   17.76999876
_symmetry_Int_Tables_number   1
_chemical_formula_structural   V4C3
_chemical_formula_sum   'V4 C3'
_cell_volume   69.49281682
_cell_formula_units_Z   1
loop_
 _symmetry_equiv_pos_site_id
 _symmetry_equiv_pos_as_xyz
  1  'x, y, z'
loop_
 _atom_site_type_symbol
 _atom_site_label
 _atom_site_symmetry_multiplicity
 _atom_site_fract_x
 _atom_site_fract_y
 _atom_site_fract_z
 _atom_site_occupancy
  V  V0  1  0.62637500  0.62637500  0.62637500  1
  V  V1  1  0.37547600  0.37547600  0.37547600  1
  V  V2  1  0.79083000  0.79083000  0.79083000  1
  V  V3  1  0.20604900  0.20604900  0.20604900  1
  C  C0  1  0.49527000  0.49527000  0.49527000  1
  C  C1  1  0.00508700  0.00508700  0.00508700  1
  C  C2  1  0.91591300  0.91591300  0.91591300  1
loop_
_geom_bond_atom_site_label_1
_geom_bond_atom_site_label_2
_geom_bond_distance
_geom_bond_site_symmetry_2
C0 V2 1.996039 1_455
C0 V2 1.996039 1_545
C0 V2 1.996039 1_554
C0 V3 2.095592 1_655
C0 V3 2.095592 1_565
C0 V3 2.095593 1_556
C1 V1 1.985454 1_455
C1 V1 1.985454 1_545
C1 V1 1.985454 1_554
C1 V0 2.116705 1_544
C1 V0 2.116705 1_454
C1 V0 2.116705 1_445
C2 V3 2.080581 1_656
C2 V3 2.080581 1_566
C2 V3 2.080581 1_665
C2 V0 2.090368 1_655
C2 V0 2.090368 1_565
C2 V0 2.090368 1_556
