# generated using pymatgen
data_LiTiMnO4
_symmetry_space_group_name_H-M   'P 1'
_cell_length_a   6.08359441
_cell_length_b   6.08355890
_cell_length_c   8.32182637
_cell_angle_alpha   90.95944942
_cell_angle_beta   89.03941991
_cell_angle_gamma   93.94965088
_symmetry_Int_Tables_number   1
_chemical_formula_structural   LiTiMnO4
_chemical_formula_sum   'Li4 Ti4 Mn4 O16'
_cell_volume   307.17781003
_cell_formula_units_Z   4
loop_
 _symmetry_equiv_pos_site_id
 _symmetry_equiv_pos_as_xyz
  1  'x, y, z'
loop_
 _atom_site_type_symbol
 _atom_site_label
 _atom_site_symmetry_multiplicity
 _atom_site_fract_x
 _atom_site_fract_y
 _atom_site_fract_z
 _atom_site_occupancy
  Li  Li0  1  0.24950800  0.99951000  0.12500400  1
  Li  Li1  1  0.74960300  0.49958100  0.62499000  1
  Li  Li2  1  0.74956700  0.99951900  0.87498800  1
  Li  Li3  1  0.24955700  0.49955100  0.37497500  1
  Ti  Ti0  1  0.49955200  0.00078000  0.49919100  1
  Ti  Ti1  1  0.99971700  0.50075500  0.99931800  1
  Ti  Ti2  1  0.75103900  0.74962900  0.25058500  1
  Ti  Ti3  1  0.25106400  0.24947800  0.75065600  1
  Mn  Mn0  1  0.24972500  0.75024200  0.74917500  1
  Mn  Mn1  1  0.50030000  0.49974400  0.00085800  1
  Mn  Mn2  1  0.74961000  0.25036600  0.24918600  1
  Mn  Mn3  1  0.00017200  0.99986700  0.50086900  1
  O  O0  1  0.53251600  0.98926200  0.26049100  1
  O  O1  1  0.03267400  0.48923200  0.76053700  1
  O  O2  1  0.73921500  0.78268800  0.48948700  1
  O  O3  1  0.23926500  0.28253600  0.98952400  1
  O  O4  1  0.26061100  0.21776500  0.51106600  1
  O  O5  1  0.76064700  0.71776200  0.01106300  1
  O  O6  1  0.46773400  0.01061400  0.73894100  1
  O  O7  1  0.96773800  0.51066000  0.23896400  1
  O  O8  1  0.73228500  0.23397500  0.48276800  1
  O  O9  1  0.23257600  0.73368900  0.98298000  1
  O  O10  1  0.98390700  0.98277100  0.26711600  1
  O  O11  1  0.48414700  0.48251800  0.76721300  1
  O  O12  1  0.26711700  0.76650700  0.51581800  1
  O  O13  1  0.76725100  0.26645400  0.01583400  1
  O  O14  1  0.01646000  0.01727300  0.73424200  1
  O  O15  1  0.51644400  0.51727200  0.23415900  1
loop_
_geom_bond_atom_site_label_1
_geom_bond_atom_site_label_2
_geom_bond_distance
_geom_bond_site_symmetry_2
Li0 O10 1.984218 1_455
Li0 O9 1.984882 1_554
Li0 O0 2.078856 1_555
Li0 O3 2.078886 1_564
Li1 O11 1.984062 1_555
Li1 O8 1.984810 1_555
Li1 O2 2.079491 1_555
Li1 O1 2.079515 1_655
Li2 O14 1.983971 1_665
Li2 O13 1.984666 1_566
Li2 O5 2.075675 1_556
Li2 O6 2.075966 1_565
Li3 O15 1.984276 1_555
Li3 O12 1.984749 1_555
Li3 O7 2.075736 1_455
Li3 O4 2.075881 1_555
Mn0 O12 1.946865 1_555
Mn0 O9 1.950647 1_555
Mn0 O1 1.996462 1_555
Mn0 O6 1.996650 1_565
Mn0 O14 2.235734 1_565
Mn0 O11 2.245982 1_555
Mn1 O15 1.946386 1_555
Mn1 O11 1.949182 1_554
Mn1 O5 1.996563 1_555
Mn1 O3 1.997148 1_554
Mn1 O13 2.235493 1_555
Mn1 O9 2.243875 1_554
Mn2 O13 1.946808 1_555
Mn2 O8 1.948768 1_555
Mn2 O7 1.996731 1_555
Mn2 O0 1.997026 1_545
Mn2 O15 2.234796 1_555
Mn2 O10 2.244775 1_545
Mn3 O14 1.947014 1_565
Mn3 O10 1.950096 1_455
Mn3 O4 1.996535 1_565
Mn3 O2 1.996705 1_455
Mn3 O12 2.235739 1_555
Mn3 O8 2.245485 1_465
O0 Ti0 1.993717 1_565
O0 Ti2 2.039275 1_555
O1 Ti1 1.994384 1_455
O1 Ti3 2.039263 1_555
O2 Ti2 1.995489 1_555
O2 Ti0 2.037550 1_565
O3 Ti3 1.995203 1_555
O3 Ti1 2.037572 1_455
O4 Ti3 2.000179 1_555
O4 Ti0 2.029886 1_555
O5 Ti2 1.999700 1_555
O5 Ti1 2.030549 1_554
O6 Ti0 2.001587 1_555
O6 Ti3 2.028157 1_555
O7 Ti1 2.000816 1_554
O7 Ti2 2.028746 1_555
O8 Ti0 1.938866 1_555
O9 Ti1 1.938254 1_455
O10 Ti2 1.939267 1_555
O11 Ti3 1.939752 1_555
O12 Ti0 1.942242 1_565
O13 Ti1 1.942421 1_554
O14 Ti3 1.942555 1_555
O15 Ti2 1.943149 1_555
