# generated using pymatgen
data_GdSbMo2O9
_symmetry_space_group_name_H-M   'P 1'
_cell_length_a   9.77419707
_cell_length_b   9.77419707
_cell_length_c   10.92572486
_cell_angle_alpha   68.12209443
_cell_angle_beta   68.12209443
_cell_angle_gamma   95.37477751
_symmetry_Int_Tables_number   1
_chemical_formula_structural   GdSbMo2O9
_chemical_formula_sum   'Gd4 Sb4 Mo8 O36'
_cell_volume   865.46797566
_cell_formula_units_Z   4
loop_
 _symmetry_equiv_pos_site_id
 _symmetry_equiv_pos_as_xyz
  1  'x, y, z'
loop_
 _atom_site_type_symbol
 _atom_site_label
 _atom_site_symmetry_multiplicity
 _atom_site_fract_x
 _atom_site_fract_y
 _atom_site_fract_z
 _atom_site_occupancy
  Gd  Gd0  1  0.67271000  0.32729000  0.75000000  1
  Gd  Gd1  1  0.32729000  0.67271000  0.25000000  1
  Gd  Gd2  1  0.12533300  0.87466700  0.75000000  1
  Gd  Gd3  1  0.87466700  0.12533300  0.25000000  1
  Sb  Sb0  1  0.65015500  0.61872400  0.96416000  1
  Sb  Sb1  1  0.38127600  0.34984500  0.53584000  1
  Sb  Sb2  1  0.34984500  0.38127600  0.03584000  1
  Sb  Sb3  1  0.61872400  0.65015500  0.46416000  1
  Mo  Mo0  1  0.04727800  0.25966000  0.47323200  1
  Mo  Mo1  1  0.74034000  0.95272200  0.02676800  1
  Mo  Mo2  1  0.95272200  0.74034000  0.52676800  1
  Mo  Mo3  1  0.25966000  0.04727800  0.97323200  1
  Mo  Mo4  1  0.06009100  0.43404400  0.80481500  1
  Mo  Mo5  1  0.56595600  0.93990900  0.69518500  1
  Mo  Mo6  1  0.93990900  0.56595600  0.19518500  1
  Mo  Mo7  1  0.43404400  0.06009100  0.30481500  1
  O  O0  1  0.06430600  0.09499100  0.60104900  1
  O  O1  1  0.90500900  0.93569400  0.89895100  1
  O  O2  1  0.93569400  0.90500900  0.39895100  1
  O  O3  1  0.09499100  0.06430600  0.10104900  1
  O  O4  1  0.87109500  0.29790500  0.56404400  1
  O  O5  1  0.70209500  0.12890500  0.93595600  1
  O  O6  1  0.12890500  0.70209500  0.43595600  1
  O  O7  1  0.29790500  0.87109500  0.06404400  1
  O  O8  1  0.04740500  0.22380500  0.32313800  1
  O  O9  1  0.77619500  0.95259500  0.17686200  1
  O  O10  1  0.95259500  0.77619500  0.67686200  1
  O  O11  1  0.22380500  0.04740500  0.82313800  1
  O  O12  1  0.77938900  0.59583100  0.57749000  1
  O  O13  1  0.40416900  0.22061100  0.92251000  1
  O  O14  1  0.22061100  0.40416900  0.42251000  1
  O  O15  1  0.59583100  0.77938900  0.07749000  1
  O  O16  1  0.98073000  0.30534900  0.99450700  1
  O  O17  1  0.69465100  0.01927000  0.50549300  1
  O  O18  1  0.01927000  0.69465100  0.00549300  1
  O  O19  1  0.30534900  0.98073000  0.49450700  1
  O  O20  1  0.14463100  0.61909300  0.77414600  1
  O  O21  1  0.38090700  0.85536900  0.72585400  1
  O  O22  1  0.85536900  0.38090700  0.22585400  1
  O  O23  1  0.61909300  0.14463100  0.27414600  1
  O  O24  1  0.91053400  0.44441100  0.74815000  1
  O  O25  1  0.55558900  0.08946600  0.75185000  1
  O  O26  1  0.08946600  0.55558900  0.25185000  1
  O  O27  1  0.44441100  0.91053400  0.24815000  1
  O  O28  1  0.21138900  0.36667500  0.69993300  1
  O  O29  1  0.63332500  0.78861100  0.80006700  1
  O  O30  1  0.78861100  0.63332500  0.30006700  1
  O  O31  1  0.36667500  0.21138900  0.19993300  1
  O  O32  1  0.57587600  0.45967000  0.89941500  1
  O  O33  1  0.54033000  0.42412400  0.60058500  1
  O  O34  1  0.42412400  0.54033000  0.10058500  1
  O  O35  1  0.45967000  0.57587600  0.39941500  1
loop_
_geom_bond_atom_site_label_1
_geom_bond_atom_site_label_2
_geom_bond_distance
_geom_bond_site_symmetry_2
Gd0 O4 2.360816 1_555
Gd0 O5 2.360816 1_555
Gd0 O12 2.421741 1_555
Gd0 O13 2.421741 1_555
Gd0 O32 2.426331 1_555
Gd0 O33 2.426331 1_555
Gd0 O24 2.482658 1_555
Gd0 O25 2.482658 1_555
Gd1 O6 2.360816 1_555
Gd1 O7 2.360816 1_555
Gd1 O15 2.421741 1_555
Gd1 O14 2.421741 1_555
Gd1 O35 2.426331 1_555
Gd1 O34 2.426331 1_555
Gd1 O27 2.482658 1_555
Gd1 O26 2.482658 1_555
Gd2 O11 2.385319 1_565
Gd2 O10 2.385319 1_455
Gd2 O18 2.409144 1_556
Gd2 O19 2.409144 1_555
Gd2 O21 2.445313 1_555
Gd2 O20 2.445313 1_555
Gd2 O0 2.448266 1_565
Gd2 O1 2.448266 1_455
Gd3 O8 2.385319 1_655
Gd3 O9 2.385319 1_545
Gd3 O16 2.409144 1_554
Gd3 O17 2.409144 1_555
Gd3 O22 2.445313 1_555
Gd3 O23 2.445313 1_555
Gd3 O3 2.448266 1_655
Gd3 O2 2.448266 1_545
Mo0 O0 1.765422 1_555
Mo0 O4 1.792563 1_455
Mo0 O8 1.799698 1_555
Mo0 O14 1.855013 1_555
Mo1 O1 1.765422 1_554
Mo1 O5 1.792563 1_564
Mo1 O9 1.799698 1_555
Mo1 O15 1.855013 1_555
Mo2 O2 1.765422 1_555
Mo2 O6 1.792563 1_655
Mo2 O10 1.799698 1_555
Mo2 O12 1.855013 1_555
Mo3 O3 1.765422 1_556
Mo3 O7 1.792563 1_546
Mo3 O11 1.799698 1_555
Mo3 O13 1.855013 1_555
Mo4 O20 1.768749 1_555
Mo4 O16 1.776383 1_455
Mo4 O24 1.784904 1_455
Mo4 O28 1.848096 1_555
Mo5 O21 1.768749 1_555
Mo5 O17 1.776383 1_565
Mo5 O25 1.784904 1_565
Mo5 O29 1.848096 1_555
Mo6 O22 1.768749 1_555
Mo6 O18 1.776383 1_655
Mo6 O26 1.784904 1_655
Mo6 O30 1.848096 1_555
Mo7 O23 1.768749 1_555
Mo7 O19 1.776383 1_545
Mo7 O27 1.784904 1_545
Mo7 O31 1.848096 1_555
O12 Sb3 2.323042 1_555
O13 Sb2 2.323042 1_556
O14 Sb1 2.323042 1_555
O15 Sb0 2.323042 1_554
O28 Sb1 2.012690 1_555
O29 Sb0 2.012690 1_555
O30 Sb3 2.012690 1_555
O31 Sb2 2.012690 1_555
O32 Sb2 2.016746 1_556
O32 Sb0 2.105999 1_555
O33 Sb3 2.016746 1_555
O33 Sb1 2.105999 1_555
O34 Sb0 2.016746 1_554
O34 Sb2 2.105999 1_555
O35 Sb1 2.016746 1_555
O35 Sb3 2.105999 1_555
