# generated using pymatgen
data_LiMg14Al
_symmetry_space_group_name_H-M   'P 1'
_cell_length_a   6.29371802
_cell_length_b   6.31854026
_cell_length_c   10.33520642
_cell_angle_alpha   90.00000000
_cell_angle_beta   90.00000000
_cell_angle_gamma   120.13055677
_symmetry_Int_Tables_number   1
_chemical_formula_structural   LiMg14Al
_chemical_formula_sum   'Li1 Mg14 Al1'
_cell_volume   355.46837769
_cell_formula_units_Z   1
loop_
 _symmetry_equiv_pos_site_id
 _symmetry_equiv_pos_as_xyz
  1  'x, y, z'
loop_
 _atom_site_type_symbol
 _atom_site_label
 _atom_site_symmetry_multiplicity
 _atom_site_fract_x
 _atom_site_fract_y
 _atom_site_fract_z
 _atom_site_occupancy
  Li  Li0  1  0.16537421  0.83268661  0.12500000  1
  Mg  Mg0  1  0.16669311  0.33334605  0.62500000  1
  Mg  Mg1  1  0.16752343  0.83376122  0.62500000  1
  Mg  Mg2  1  0.66857548  0.33666709  0.12500000  1
  Mg  Mg3  1  0.66625385  0.33303235  0.62500000  1
  Mg  Mg4  1  0.66857548  0.83190738  0.12500000  1
  Mg  Mg5  1  0.66625385  0.83322050  0.62500000  1
  Mg  Mg6  1  0.33026242  0.16710313  0.36998429  1
  Mg  Mg7  1  0.33026242  0.16710313  0.88001571  1
  Mg  Mg8  1  0.33026242  0.66316029  0.36998429  1
  Mg  Mg9  1  0.33026242  0.66316029  0.88001571  1
  Mg  Mg10  1  0.83647715  0.16823908  0.37164746  1
  Mg  Mg11  1  0.83647715  0.16823908  0.87835254  1
  Mg  Mg12  1  0.83395304  0.66697702  0.37470861  1
  Mg  Mg13  1  0.83395304  0.66697702  0.87529139  1
  Al  Al0  1  0.16884052  0.33441976  0.12500000  1
loop_
_geom_bond_atom_site_label_1
_geom_bond_atom_site_label_2
_geom_bond_distance
_geom_bond_site_symmetry_2
Li0 Mg8 3.122684 1_555
Li0 Mg9 3.122684 1_554
Li0 Mg7 3.122690 1_564
Li0 Mg6 3.122690 1_565
Li0 Mg2 3.124242 1_455
Li0 Mg4 3.124243 1_455
Li0 Mg13 3.148813 1_454
Li0 Mg12 3.148813 1_455
Li0 Mg2 3.169481 1_565
Li0 Mg4 3.169481 1_555
Mg0 Mg5 3.145090 1_555
Mg0 Mg3 3.145090 1_555
Mg0 Mg5 3.148629 1_445
Mg0 Mg3 3.148629 1_455
Mg0 Mg1 3.159273 1_545
Mg0 Mg1 3.159273 1_555
Mg0 Mg11 3.176036 1_455
Mg0 Mg10 3.176036 1_455
Mg0 Mg6 3.193019 1_555
Mg0 Mg7 3.193019 1_555
Mg0 Mg9 3.193026 1_555
Mg0 Mg8 3.193026 1_555
Mg1 Mg3 3.140585 1_565
Mg1 Mg5 3.140585 1_555
Mg1 Mg3 3.153136 1_455
Mg1 Mg5 3.153136 1_455
Mg1 Mg12 3.160458 1_455
Mg1 Mg13 3.160458 1_455
Mg1 Mg8 3.204068 1_555
Mg1 Mg9 3.204068 1_555
Mg1 Mg6 3.204074 1_565
Mg1 Mg7 3.204074 1_565
Mg2 Mg4 3.129196 1_555
Mg2 Mg7 3.130839 1_554
Mg2 Mg6 3.130839 1_555
Mg2 Mg4 3.189345 1_545
Mg3 Mg5 3.158081 1_545
Mg3 Mg5 3.160459 1_555
Mg3 Mg6 3.208067 1_555
Mg3 Mg7 3.208067 1_555
Mg4 Mg8 3.130839 1_555
Mg4 Mg9 3.130839 1_554
Mg5 Mg8 3.208067 1_555
Mg5 Mg9 3.208067 1_555
Mg6 Mg8 3.134357 1_555
Mg6 Mg8 3.184183 1_545
Mg7 Mg9 3.134357 1_555
Mg7 Mg9 3.184183 1_545
Mg10 Mg8 3.111402 1_655
Mg10 Mg6 3.111402 1_655
Mg10 Mg2 3.142679 1_555
Mg10 Mg4 3.142686 1_545
Mg10 Mg12 3.159458 1_555
Mg10 Mg12 3.159458 1_545
Mg10 Mg8 3.182422 1_545
Mg10 Mg6 3.182422 1_555
Mg10 Mg3 3.195026 1_555
Mg10 Mg5 3.195032 1_545
Mg11 Mg9 3.111402 1_655
Mg11 Mg7 3.111402 1_655
Mg11 Mg2 3.142679 1_556
Mg11 Mg4 3.142686 1_546
Mg11 Mg13 3.159458 1_555
Mg11 Mg13 3.159458 1_545
Mg11 Mg9 3.182422 1_545
Mg11 Mg7 3.182422 1_555
Mg11 Mg3 3.195026 1_555
Mg11 Mg5 3.195032 1_545
Mg12 Mg6 3.136186 1_665
Mg12 Mg8 3.136186 1_655
Mg12 Mg4 3.149412 1_555
Mg12 Mg2 3.149418 1_555
Mg12 Mg6 3.158427 1_555
Mg12 Mg8 3.158427 1_555
Mg12 Mg5 3.165753 1_555
Mg12 Mg3 3.165759 1_555
Mg13 Mg7 3.136186 1_665
Mg13 Mg9 3.136186 1_655
Mg13 Mg4 3.149412 1_556
Mg13 Mg2 3.149418 1_556
Mg13 Mg7 3.158427 1_555
Mg13 Mg9 3.158427 1_555
Mg13 Mg5 3.165753 1_555
Mg13 Mg3 3.165759 1_555
Al0 Mg6 3.104663 1_555
Al0 Mg7 3.104663 1_554
Al0 Mg8 3.104670 1_555
Al0 Mg9 3.104670 1_554
Al0 Mg10 3.125901 1_455
Al0 Mg11 3.125901 1_454
Al0 Mg4 3.138087 1_555
Al0 Mg2 3.138087 1_555
Al0 Mg4 3.155679 1_445
Al0 Mg2 3.155679 1_455
Al0 Li0 3.159326 1_545
Al0 Li0 3.159327 1_555
