# generated using pymatgen
data_Pm2(WO4)3
_symmetry_space_group_name_H-M   'P 1'
_cell_length_a   6.95941762
_cell_length_b   6.95941762
_cell_length_c   11.55193490
_cell_angle_alpha   79.03381092
_cell_angle_beta   79.03381092
_cell_angle_gamma   112.15938355
_symmetry_Int_Tables_number   1
_chemical_formula_structural   Pm2(WO4)3
_chemical_formula_sum   'Pm4 W6 O24'
_cell_volume   487.13793147
_cell_formula_units_Z   2
loop_
 _symmetry_equiv_pos_site_id
 _symmetry_equiv_pos_as_xyz
  1  'x, y, z'
loop_
 _atom_site_type_symbol
 _atom_site_label
 _atom_site_symmetry_multiplicity
 _atom_site_fract_x
 _atom_site_fract_y
 _atom_site_fract_z
 _atom_site_occupancy
  Pm  Pm0  1  0.19448781  0.44736655  0.59413877  1
  Pm  Pm1  1  0.80551219  0.55263345  0.40586123  1
  Pm  Pm2  1  0.55263345  0.80551219  0.90586123  1
  Pm  Pm3  1  0.44736655  0.19448781  0.09413877  1
  W  W0  1  0.01116206  0.29881664  0.95084026  1
  W  W1  1  0.98883794  0.70118336  0.04915974  1
  W  W2  1  0.70118336  0.98883794  0.54915974  1
  W  W3  1  0.29881664  0.01116206  0.45084026  1
  W  W4  1  0.61728969  0.38271031  0.75000000  1
  W  W5  1  0.38271031  0.61728969  0.25000000  1
  O  O0  1  0.55332102  0.47250060  0.60977675  1
  O  O1  1  0.44667898  0.52749940  0.39022325  1
  O  O2  1  0.52749940  0.44667898  0.89022325  1
  O  O3  1  0.47250060  0.55332102  0.10977675  1
  O  O4  1  0.51138170  0.09800975  0.78030688  1
  O  O5  1  0.48861830  0.90199025  0.21969312  1
  O  O6  1  0.90199025  0.48861830  0.71969312  1
  O  O7  1  0.09800975  0.51138170  0.28030688  1
  O  O8  1  0.72744141  0.12937592  0.95946115  1
  O  O9  1  0.27255859  0.87062408  0.04053885  1
  O  O10  1  0.87062408  0.27255859  0.54053885  1
  O  O11  1  0.12937592  0.72744141  0.45946115  1
  O  O12  1  0.40058000  0.82613602  0.57543333  1
  O  O13  1  0.59942000  0.17386398  0.42456667  1
  O  O14  1  0.17386398  0.59942000  0.92456667  1
  O  O15  1  0.82613602  0.40058000  0.07543333  1
  O  O16  1  0.15394252  0.29791037  0.80415204  1
  O  O17  1  0.84605748  0.70208963  0.19584796  1
  O  O18  1  0.70208963  0.84605748  0.69584796  1
  O  O19  1  0.29791037  0.15394252  0.30415204  1
  O  O20  1  0.89785331  0.82917112  0.93987441  1
  O  O21  1  0.10214669  0.17082888  0.06012559  1
  O  O22  1  0.17082888  0.10214669  0.56012559  1
  O  O23  1  0.82917112  0.89785331  0.43987441  1
loop_
_geom_bond_atom_site_label_1
_geom_bond_atom_site_label_2
_geom_bond_distance
_geom_bond_site_symmetry_2
O0 W4 1.819807 1_555
O0 Pm1 2.475725 1_555
O0 Pm0 2.480670 1_555
O1 W5 1.819807 1_555
O1 Pm0 2.475725 1_555
O1 Pm1 2.480670 1_555
O2 W4 1.819807 1_555
O2 Pm3 2.475725 1_556
O2 Pm2 2.480670 1_555
O3 W5 1.819807 1_555
O3 Pm2 2.475725 1_554
O3 Pm3 2.480670 1_555
O4 W4 1.768566 1_555
O4 Pm2 2.409517 1_545
O5 W5 1.768566 1_555
O5 Pm3 2.409517 1_565
O6 W4 1.768566 1_555
O6 Pm0 2.409517 1_655
O7 W5 1.768566 1_555
O7 Pm1 2.409517 1_455
O8 W0 1.850208 1_655
O8 Pm2 2.385907 1_545
O8 Pm3 2.491145 1_556
O9 W1 1.850208 1_455
O9 Pm3 2.385907 1_565
O9 Pm2 2.491145 1_554
O10 W2 1.850208 1_545
O10 Pm0 2.385907 1_655
O10 Pm1 2.491145 1_555
O11 W3 1.850208 1_565
O11 Pm1 2.385907 1_455
O11 Pm0 2.491145 1_555
O12 W2 1.895131 1_555
O12 W3 2.145196 1_565
O12 Pm0 2.421920 1_555
O13 W3 1.895131 1_555
O13 W2 2.145196 1_545
O13 Pm1 2.421920 1_555
O14 W0 1.895131 1_555
O14 W1 2.145196 1_456
O14 Pm2 2.421920 1_555
O15 W1 1.895131 1_555
O15 W0 2.145196 1_654
O15 Pm3 2.421920 1_555
O16 W0 1.796395 1_555
O16 Pm0 2.367561 1_555
O17 W1 1.796395 1_555
O17 Pm1 2.367561 1_555
O18 W2 1.796395 1_555
O18 Pm2 2.367561 1_555
O19 W3 1.796395 1_555
O19 Pm3 2.367561 1_555
O20 W1 1.757811 1_556
O20 Pm2 2.457436 1_555
O21 W0 1.757811 1_554
O21 Pm3 2.457436 1_555
O22 W3 1.757811 1_555
O22 Pm0 2.457436 1_555
O23 W2 1.757811 1_555
O23 Pm1 2.457436 1_555
