# generated using pymatgen
data_MnH8C4(NO3)2
_symmetry_space_group_name_H-M   'P 1'
_cell_length_a   13.25738956
_cell_length_b   8.72381552
_cell_length_c   8.25144098
_cell_angle_alpha   90.00000000
_cell_angle_beta   117.34854843
_cell_angle_gamma   90.00000000
_symmetry_Int_Tables_number   1
_chemical_formula_structural   MnH8C4(NO3)2
_chemical_formula_sum   'Mn4 H32 C16 N8 O24'
_cell_volume   847.65453182
_cell_formula_units_Z   4
loop_
 _symmetry_equiv_pos_site_id
 _symmetry_equiv_pos_as_xyz
  1  'x, y, z'
loop_
 _atom_site_type_symbol
 _atom_site_label
 _atom_site_symmetry_multiplicity
 _atom_site_fract_x
 _atom_site_fract_y
 _atom_site_fract_z
 _atom_site_occupancy
  Mn  Mn0  1  0.25000000  0.25000000  0.00000000  1
  Mn  Mn1  1  0.75000000  0.75000000  0.00000000  1
  Mn  Mn2  1  0.75000000  0.25000000  0.50000000  1
  Mn  Mn3  1  0.25000000  0.75000000  0.50000000  1
  H  H0  1  0.50000000  0.18109530  0.25000101  1
  H  H1  1  0.50000000  0.81890473  0.74999899  1
  H  H2  1  0.00000000  0.68109527  0.24999900  1
  H  H3  1  0.00000000  0.31890470  0.75000101  1
  H  H4  1  0.25195073  0.43415818  0.32352484  1
  H  H5  1  0.74804927  0.56584182  0.67647516  1
  H  H6  1  0.74804927  0.43415818  0.17647616  1
  H  H7  1  0.25195073  0.56584182  0.82352382  1
  H  H8  1  0.75195073  0.93415818  0.32352382  1
  H  H9  1  0.24804926  0.06584181  0.67647618  1
  H  H10  1  0.24804926  0.93415818  0.17647516  1
  H  H11  1  0.75195073  0.06584181  0.82352484  1
  H  H12  1  0.12184946  0.73880920  0.01377048  1
  H  H13  1  0.87815055  0.26119077  0.98622951  1
  H  H14  1  0.87815157  0.73880920  0.48623153  1
  H  H15  1  0.12184845  0.26119077  0.51376847  1
  H  H16  1  0.62184843  0.23880923  0.01376948  1
  H  H17  1  0.37815154  0.76119080  0.98623153  1
  H  H18  1  0.37815055  0.23880923  0.48622954  1
  H  H19  1  0.62184945  0.76119080  0.51377049  1
  H  H20  1  0.07649056  0.91754885  0.89836583  1
  H  H21  1  0.92350942  0.08245115  0.10163519  1
  H  H22  1  0.92351043  0.91754885  0.60163619  1
  H  H23  1  0.07648955  0.08245115  0.39836381  1
  H  H24  1  0.57648957  0.41754885  0.89836381  1
  H  H25  1  0.42351043  0.58245115  0.10163619  1
  H  H26  1  0.42350945  0.41754783  0.60163518  1
  H  H27  1  0.57649058  0.58245115  0.39836479  1
  H  H28  1  0.00000100  0.60497066  0.75000101  1
  H  H29  1  0.99999899  0.39502931  0.24999900  1
  H  H30  1  0.49999899  0.10497068  0.74999899  1
  H  H31  1  0.50000101  0.89502934  0.25000101  1
  C  C0  1  0.50000000  0.30736996  0.25000000  1
  C  C1  1  0.50000000  0.69263004  0.75000000  1
  C  C2  1  0.00000000  0.80736996  0.25000000  1
  C  C3  1  0.00000000  0.19263003  0.75000000  1
  C  C4  1  0.21121737  0.50995991  0.20396935  1
  C  C5  1  0.78878264  0.49004012  0.79603065  1
  C  C6  1  0.78878264  0.50996188  0.29602967  1
  C  C7  1  0.21121737  0.49003812  0.70397036  1
  C  C8  1  0.71121736  0.00996189  0.20397034  1
  C  C9  1  0.28878264  0.99003812  0.79602964  1
  C  C10  1  0.28878264  0.00995989  0.29603065  1
  C  C11  1  0.71121736  0.99004009  0.70396935  1
  C  C12  1  0.99999899  0.72952047  0.74999702  1
  C  C13  1  0.00000100  0.27047953  0.25000301  1
  C  C14  1  0.50000101  0.22952047  0.75000298  1
  C  C15  1  0.49999899  0.77047953  0.24999700  1
  N  N0  1  0.07070360  0.80030260  0.89902535  1
  N  N1  1  0.92929643  0.19969739  0.10097464  1
  N  N2  1  0.92929941  0.80030063  0.60098067  1
  N  N3  1  0.07070059  0.19969939  0.39901936  1
  N  N4  1  0.57070059  0.30030060  0.89901933  1
  N  N5  1  0.42929941  0.69969937  0.10098065  1
  N  N6  1  0.42929640  0.30030260  0.60097465  1
  N  N7  1  0.57070357  0.69969740  0.39902535  1
  O  O0  1  0.17166680  0.45074435  0.04761274  1
  O  O1  1  0.82833319  0.54925565  0.95238727  1
  O  O2  1  0.82833319  0.45074533  0.45238825  1
  O  O3  1  0.17166680  0.54925464  0.54761172  1
  O  O4  1  0.67166681  0.95074536  0.04761174  1
  O  O5  1  0.32833322  0.04925466  0.95238828  1
  O  O6  1  0.32833322  0.95074435  0.45238727  1
  O  O7  1  0.67166681  0.04925567  0.54761273  1
  O  O8  1  0.29394715  0.15153215  0.26650064  1
  O  O9  1  0.70605285  0.84846783  0.73349936  1
  O  O10  1  0.70605285  0.15153215  0.23349934  1
  O  O11  1  0.29394817  0.84846783  0.76650064  1
  O  O12  1  0.79394715  0.65153217  0.26650064  1
  O  O13  1  0.20605285  0.34846783  0.73349936  1
  O  O14  1  0.20605285  0.65153217  0.23349934  1
  O  O15  1  0.79394715  0.34846783  0.76650064  1
  O  O16  1  0.41020010  0.37499412  0.13982752  1
  O  O17  1  0.58979990  0.62500591  0.86017245  1
  O  O18  1  0.58980091  0.37499510  0.36017448  1
  O  O19  1  0.41019912  0.62500490  0.63982552  1
  O  O20  1  0.91019909  0.87499510  0.13982552  1
  O  O21  1  0.08980089  0.12500488  0.86017448  1
  O  O22  1  0.08979989  0.87499409  0.36017248  1
  O  O23  1  0.91020010  0.12500589  0.63982755  1
loop_
_geom_bond_atom_site_label_1
_geom_bond_atom_site_label_2
_geom_bond_distance
_geom_bond_site_symmetry_2
Mn0 O0 2.162080 1_555
Mn0 O5 2.162083 1_554
Mn0 O13 2.176201 1_554
Mn0 O8 2.176201 1_555
Mn0 O21 2.186186 1_554
Mn0 O16 2.186192 1_555
Mn1 O1 2.162080 1_554
Mn1 O4 2.162083 1_555
Mn1 O12 2.176201 1_555
Mn1 O9 2.176201 1_554
Mn1 O20 2.186186 1_555
Mn1 O17 2.186192 1_554
Mn2 O7 2.162079 1_555
Mn2 O2 2.162083 1_555
Mn2 O15 2.176201 1_555
Mn2 O10 2.176201 1_555
Mn2 O18 2.186186 1_555
Mn2 O23 2.186192 1_555
Mn3 O6 2.162080 1_555
Mn3 O3 2.162083 1_555
Mn3 O11 2.176198 1_555
Mn3 O14 2.176201 1_555
Mn3 O19 2.186186 1_555
Mn3 O22 2.186192 1_555
H12 N0 1.026712 1_554
H13 N1 1.026712 1_556
H14 N2 1.026730 1_555
H15 N3 1.026729 1_555
H16 N4 1.026734 1_554
H17 N5 1.026730 1_556
H18 N6 1.026712 1_555
H19 N7 1.026712 1_555
H20 N0 1.025909 1_555
H21 N1 1.025910 1_555
H22 N2 1.025927 1_555
H23 N3 1.025927 1_555
H24 N4 1.025927 1_555
H25 N5 1.025927 1_555
H26 N6 1.025901 1_555
H27 N7 1.025910 1_555
C0 H0 1.101597 1_555
C0 O16 1.263876 1_555
C0 O18 1.263893 1_555
C1 H1 1.101597 1_555
C1 O17 1.263875 1_555
C1 O19 1.263892 1_555
C2 H2 1.101597 1_555
C2 O22 1.263875 1_555
C2 O20 1.263893 1_455
C3 H3 1.101597 1_555
C3 O23 1.263875 1_455
C3 O21 1.263892 1_555
C4 H4 1.101194 1_555
C4 O0 1.258875 1_555
C4 O14 1.266783 1_555
C5 H5 1.101194 1_555
C5 O1 1.258875 1_555
C5 O15 1.266783 1_555
C6 H6 1.101193 1_555
C6 O2 1.258892 1_555
C6 O12 1.266764 1_555
C7 H7 1.101193 1_555
C7 O3 1.258892 1_555
C7 O13 1.266764 1_555
C8 H8 1.101193 1_545
C8 O4 1.258892 1_545
C8 O10 1.266764 1_555
C9 H9 1.101193 1_565
C9 O5 1.258893 1_565
C9 O11 1.266766 1_555
C10 H10 1.101194 1_545
C10 O6 1.258875 1_545
C10 O8 1.266783 1_555
C11 H11 1.101194 1_565
C11 O7 1.258875 1_565
C11 O9 1.266783 1_555
C12 H28 1.086550 1_655
C12 N2 1.308735 1_555
C12 N0 1.308823 1_655
C13 H29 1.086549 1_455
C13 N3 1.308735 1_555
C13 N1 1.308823 1_455
C14 H30 1.086549 1_555
C14 N4 1.308735 1_555
C14 N6 1.308823 1_555
C15 H31 1.086550 1_555
C15 N5 1.308735 1_555
C15 N7 1.308822 1_555
