# generated using pymatgen
data_MgSi
_symmetry_space_group_name_H-M   'P 1'
_cell_length_a   5.78322100
_cell_length_b   5.86298076
_cell_length_c   13.95484399
_cell_angle_alpha   77.87960186
_cell_angle_beta   84.66930913
_cell_angle_gamma   88.42118538
_symmetry_Int_Tables_number   1
_chemical_formula_structural   MgSi
_chemical_formula_sum   'Mg12 Si12'
_cell_volume   460.60161805
_cell_formula_units_Z   12
loop_
 _symmetry_equiv_pos_site_id
 _symmetry_equiv_pos_as_xyz
  1  'x, y, z'
loop_
 _atom_site_type_symbol
 _atom_site_label
 _atom_site_symmetry_multiplicity
 _atom_site_fract_x
 _atom_site_fract_y
 _atom_site_fract_z
 _atom_site_occupancy
  Mg  Mg0  1  0.19651200  0.84408400  0.01762200  1
  Mg  Mg1  1  0.13538700  0.91573700  0.35162600  1
  Mg  Mg2  1  0.82214200  0.91928200  0.72418000  1
  Mg  Mg3  1  0.68979800  0.57934800  0.05770400  1
  Mg  Mg4  1  0.61814400  0.62466000  0.37853500  1
  Mg  Mg5  1  0.38825800  0.69015700  0.67032500  1
  Mg  Mg6  1  0.66713500  0.04021400  0.13998800  1
  Mg  Mg7  1  0.61252900  0.05486900  0.46753600  1
  Mg  Mg8  1  0.29888800  0.10935500  0.80541900  1
  Mg  Mg9  1  0.17061100  0.28172800  0.13214400  1
  Mg  Mg10  1  0.11218700  0.38732800  0.42464400  1
  Mg  Mg11  1  0.78291800  0.40355500  0.77809100  1
  Si  Si0  1  0.95538400  0.27477800  0.96513000  1
  Si  Si1  1  0.84287800  0.27211200  0.28459600  1
  Si  Si2  1  0.09781200  0.29032300  0.63082800  1
  Si  Si3  1  0.45419100  0.29279400  0.96143900  1
  Si  Si4  1  0.43827000  0.28455400  0.28209300  1
  Si  Si5  1  0.52765600  0.27506400  0.61698400  1
  Si  Si6  1  0.35811800  0.68395800  0.20421200  1
  Si  Si7  1  0.84062700  0.63124800  0.55869600  1
  Si  Si8  1  0.20017800  0.59494700  0.86475900  1
  Si  Si9  1  0.94700600  0.67555700  0.20815900  1
  Si  Si10  1  0.12643700  0.95946900  0.54649700  1
  Si  Si11  1  0.71693800  0.98486500  0.91637400  1
loop_
_geom_bond_atom_site_label_1
_geom_bond_atom_site_label_2
_geom_bond_distance
_geom_bond_site_symmetry_2
Mg0 Si6 2.812845 1_555
Mg0 Si8 2.825397 1_554
Mg0 Si0 2.841935 1_464
Mg0 Si9 2.896660 1_455
Mg0 Si3 2.981479 1_564
Mg1 Si1 2.716765 1_465
Mg1 Si4 2.774419 1_565
Mg1 Si10 2.780187 1_555
Mg1 Si6 2.884924 1_555
Mg1 Si9 2.975196 1_455
Mg2 Si2 2.754318 1_665
Mg2 Si11 2.797914 1_555
Mg2 Si10 2.875288 1_655
Mg2 Si5 2.908028 1_565
Mg2 Si7 3.126977 1_555
Mg3 Si11 2.749726 1_554
Mg3 Si0 2.768682 1_554
Mg3 Si3 2.810308 1_554
Mg3 Si6 2.822872 1_555
Mg3 Si9 2.839523 1_555
Mg4 Si9 2.872661 1_555
Mg4 Si1 2.890211 1_555
Mg4 Si4 2.893259 1_555
Mg4 Si6 2.931858 1_555
Mg4 Si7 2.936388 1_555
Mg5 Si10 2.642061 1_555
Mg5 Si5 2.769100 1_555
Mg5 Si8 2.775922 1_555
Mg5 Si7 2.968008 1_555
Mg5 Si2 3.090660 1_555
Mg6 Si9 2.708687 1_545
Mg6 Si6 2.735279 1_545
Mg6 Si4 2.887451 1_555
Mg6 Si1 2.926292 1_555
Mg6 Si0 2.930137 1_554
Mg6 Si3 2.972870 1_554
Mg7 Si5 2.676289 1_555
Mg7 Si1 2.830259 1_555
Mg7 Si7 2.886447 1_545
Mg7 Si4 2.910720 1_555
Mg7 Si10 2.946523 1_545
Mg8 Si2 2.790502 1_555
Mg8 Si5 2.821445 1_555
Mg8 Si3 2.846686 1_555
Mg8 Si11 2.983127 1_545
Mg8 Si8 3.010965 1_545
Mg8 Si0 3.135801 1_455
Mg8 Si8 3.151147 1_555
Mg9 Si1 2.707001 1_455
Mg9 Si4 2.718971 1_555
Mg9 Si0 2.750382 1_454
Mg9 Si3 2.753829 1_554
Mg9 Si9 2.956042 1_455
Mg9 Si6 3.014676 1_555
Mg10 Si10 2.722936 1_545
Mg10 Si4 2.760487 1_555
Mg10 Si1 2.807035 1_455
Mg10 Si2 2.807135 1_555
Mg10 Si7 2.909438 1_455
Mg11 Si2 2.791276 1_655
Mg11 Si11 2.796584 1_545
Mg11 Si0 2.827043 1_555
Mg11 Si3 3.008121 1_555
Mg11 Si5 3.031583 1_555
Mg11 Si7 3.063560 1_555
Mg11 Si8 3.131517 1_655
Si0 Si11 2.458216 1_545
Si0 Si8 2.482663 1_655
Si1 Si4 2.342341 1_555
Si1 Si9 2.448489 1_555
Si2 Si5 2.476027 1_555
Si2 Si7 2.547598 1_455
Si3 Si8 2.517476 1_555
Si4 Si6 2.417571 1_555
Si5 Si7 2.742274 1_555
Si6 Si9 2.374698 1_455
Si10 Si2 2.465733 1_565
Si10 Si7 2.539611 1_455
Si11 Si3 2.472224 1_565
