# generated using pymatgen
data_Gd2Cu(GeO4)2
_symmetry_space_group_name_H-M   'P 1'
_cell_length_a   5.17674239
_cell_length_b   8.31699753
_cell_length_c   9.04100144
_cell_angle_alpha   117.13669298
_cell_angle_beta   106.26706193
_cell_angle_gamma   90.76954567
_symmetry_Int_Tables_number   1
_chemical_formula_structural   Gd2Cu(GeO4)2
_chemical_formula_sum   'Gd4 Cu2 Ge4 O16'
_cell_volume   327.96908085
_cell_formula_units_Z   2
loop_
 _symmetry_equiv_pos_site_id
 _symmetry_equiv_pos_as_xyz
  1  'x, y, z'
loop_
 _atom_site_type_symbol
 _atom_site_label
 _atom_site_symmetry_multiplicity
 _atom_site_fract_x
 _atom_site_fract_y
 _atom_site_fract_z
 _atom_site_occupancy
  Gd  Gd0  1  0.11629300  0.29875300  0.75964200  1
  Gd  Gd1  1  0.35665000  0.53911000  0.24035800  1
  Gd  Gd2  1  0.36598200  0.04378500  0.24167300  1
  Gd  Gd3  1  0.12430900  0.80211200  0.75832700  1
  Cu  Cu0  1  0.54774400  0.92551100  0.58573000  1
  Cu  Cu1  1  0.96201400  0.33978100  0.41427000  1
  Ge  Ge0  1  0.78711800  0.16281300  0.00000000  1
  Ge  Ge1  1  0.96972300  0.88825400  0.42040200  1
  Ge  Ge2  1  0.54932100  0.46785200  0.57959800  1
  Ge  Ge3  1  0.69056700  0.66651800  0.00000000  1
  O  O0  1  0.16742800  0.09305200  0.46771800  1
  O  O1  1  0.69971000  0.62533400  0.53228200  1
  O  O2  1  0.48343600  0.06455100  0.81269100  1
  O  O3  1  0.67074500  0.25186000  0.18730900  1
  O  O4  1  0.48429500  0.49402100  0.00000000  1
  O  O5  1  0.19704200  0.74996700  0.48246100  1
  O  O6  1  0.71458100  0.26750700  0.51753900  1
  O  O7  1  0.00056800  0.75788000  0.18437400  1
  O  O8  1  0.81619300  0.57350500  0.81562600  1
  O  O9  1  0.99850900  0.33493200  0.00000000  1
  O  O10  1  0.48323100  0.83442100  0.00000000  1
  O  O11  1  0.59803200  0.83956800  0.34260100  1
  O  O12  1  0.25543100  0.49696700  0.65739900  1
  O  O13  1  0.00596500  0.99774700  0.00000000  1
  O  O14  1  0.93014300  0.00228500  0.65597000  1
  O  O15  1  0.27417300  0.34631400  0.34403000  1
loop_
_geom_bond_atom_site_label_1
_geom_bond_atom_site_label_2
_geom_bond_distance
_geom_bond_site_symmetry_2
Gd0 O14 2.282286 1_455
Gd0 O9 2.309834 1_456
Gd0 O4 2.316728 1_556
Gd0 O12 2.412929 1_555
Gd0 O6 2.469754 1_455
Gd0 O0 2.499468 1_555
Gd0 O8 2.715179 1_455
Gd0 O2 2.842088 1_555
Gd1 O15 2.282285 1_555
Gd1 O9 2.309829 1_455
Gd1 O4 2.316733 1_555
Gd1 O11 2.412938 1_555
Gd1 O5 2.469751 1_555
Gd1 O1 2.499469 1_555
Gd1 O7 2.715185 1_555
Gd1 O3 2.842085 1_555
Gd2 O13 2.308771 1_545
Gd2 O10 2.339916 1_545
Gd2 O15 2.359582 1_555
Gd2 O0 2.413553 1_555
Gd2 O11 2.452551 1_545
Gd2 O6 2.468640 1_555
Gd2 O3 2.619636 1_555
Gd2 O7 2.776230 1_545
Gd3 O13 2.308770 1_556
Gd3 O10 2.339916 1_556
Gd3 O14 2.359590 1_465
Gd3 O1 2.413553 1_455
Gd3 O12 2.452550 1_555
Gd3 O5 2.468637 1_555
Gd3 O2 2.619636 1_565
Gd3 O8 2.776240 1_455
Cu0 O14 1.903053 1_565
Cu0 O2 1.971555 1_565
Cu0 O5 2.008736 1_555
Cu0 O11 2.074308 1_555
Cu0 O1 2.500093 1_555
Cu0 O0 2.685017 1_565
Cu1 O15 1.903051 1_655
Cu1 O3 1.971555 1_555
Cu1 O6 2.008732 1_555
Cu1 O12 2.074308 1_655
Cu1 O0 2.500093 1_655
Cu1 O1 2.685017 1_555
Ge0 O9 1.790162 1_555
Ge0 O13 1.791647 1_645
Ge0 O3 1.794061 1_555
Ge0 O2 1.794061 1_554
Ge1 O0 1.781833 1_665
Ge1 O5 1.810396 1_655
Ge1 O11 1.822660 1_555
Ge1 O7 1.959508 1_655
Ge1 O14 1.970906 1_565
Ge2 O1 1.781833 1_555
Ge2 O6 1.810390 1_555
Ge2 O12 1.822660 1_555
Ge2 O8 1.959506 1_555
Ge2 O15 1.970906 1_555
Ge3 O10 1.772669 1_555
Ge3 O4 1.776886 1_555
Ge3 O8 1.801254 1_554
Ge3 O7 1.801257 1_655
