# generated using pymatgen
data_LuF3
_symmetry_space_group_name_H-M   'P 1'
_cell_length_a   6.57548510
_cell_length_b   6.57548510
_cell_length_c   6.76121868
_cell_angle_alpha   90.00000000
_cell_angle_beta   90.00000000
_cell_angle_gamma   120.00001968
_symmetry_Int_Tables_number   1
_chemical_formula_structural   LuF3
_chemical_formula_sum   'Lu6 F18'
_cell_volume   253.16934833
_cell_formula_units_Z   6
loop_
 _symmetry_equiv_pos_site_id
 _symmetry_equiv_pos_as_xyz
  1  'x, y, z'
loop_
 _atom_site_type_symbol
 _atom_site_label
 _atom_site_symmetry_multiplicity
 _atom_site_fract_x
 _atom_site_fract_y
 _atom_site_fract_z
 _atom_site_occupancy
  Lu  Lu0  1  0.65315170  0.65315170  0.75000000  1
  Lu  Lu1  1  0.34684830  0.34684830  0.25000000  1
  Lu  Lu2  1  0.00000000  0.34684830  0.75000000  1
  Lu  Lu3  1  -0.00000000  0.65315170  0.25000000  1
  Lu  Lu4  1  0.34684830  0.00000000  0.75000000  1
  Lu  Lu5  1  0.65315170  -0.00000000  0.25000000  1
  F  F0  1  -0.00000000  -0.00000000  0.75000000  1
  F  F1  1  -0.00000000  -0.00000000  0.25000000  1
  F  F2  1  0.66666700  0.33333300  0.81689758  1
  F  F3  1  0.33333300  0.66666700  0.18310242  1
  F  F4  1  0.33333300  0.66666700  0.68310242  1
  F  F5  1  0.66666700  0.33333300  0.31689758  1
  F  F6  1  0.62441640  0.92908030  0.92247974  1
  F  F7  1  0.37558360  0.07091970  0.07752026  1
  F  F8  1  0.30466591  0.37558360  0.92247974  1
  F  F9  1  0.69533409  0.07091970  0.57752026  1
  F  F10  1  0.69533409  0.62441640  0.07752026  1
  F  F11  1  0.30466591  0.92908030  0.42247974  1
  F  F12  1  0.07091970  0.69533409  0.92247974  1
  F  F13  1  0.92908030  0.62441640  0.57752026  1
  F  F14  1  0.92908030  0.30466591  0.07752026  1
  F  F15  1  0.07091970  0.37558360  0.42247974  1
  F  F16  1  0.37558360  0.30466591  0.57752026  1
  F  F17  1  0.62441640  0.69533409  0.42247974  1
loop_
_geom_bond_atom_site_label_1
_geom_bond_atom_site_label_2
_geom_bond_distance
_geom_bond_site_symmetry_2
F0 Lu0 2.280695 1_445
F0 Lu2 2.280696 1_555
F0 Lu4 2.280696 1_555
F1 Lu1 2.280695 1_555
F1 Lu3 2.280696 1_545
F1 Lu5 2.280696 1_455
F2 Lu2 2.195859 1_655
F2 Lu4 2.195861 1_555
F2 Lu0 2.195865 1_555
F3 Lu3 2.195859 1_555
F3 Lu5 2.195861 1_565
F3 Lu1 2.195865 1_555
F4 Lu4 2.195859 1_565
F4 Lu2 2.195861 1_555
F4 Lu0 2.195865 1_555
F5 Lu5 2.195859 1_555
F5 Lu3 2.195861 1_655
F5 Lu1 2.195865 1_555
F6 Lu0 2.242856 1_555
F6 Lu5 2.251395 1_566
F6 Lu4 2.399938 1_565
F7 Lu1 2.242856 1_555
F7 Lu4 2.251395 1_554
F7 Lu5 2.399938 1_555
F8 Lu2 2.242867 1_555
F8 Lu1 2.251393 1_556
F8 Lu0 2.399930 1_555
F9 Lu2 2.242862 1_655
F9 Lu5 2.251395 1_555
F9 Lu4 2.399926 1_555
F10 Lu3 2.242867 1_655
F10 Lu0 2.251393 1_554
F10 Lu1 2.399930 1_555
F11 Lu3 2.242862 1_555
F11 Lu4 2.251395 1_565
F11 Lu5 2.399926 1_565
F12 Lu4 2.242862 1_565
F12 Lu3 2.251395 1_556
F12 Lu2 2.399926 1_555
F13 Lu0 2.242856 1_555
F13 Lu3 2.251395 1_655
F13 Lu2 2.399938 1_655
F14 Lu5 2.242862 1_555
F14 Lu2 2.251395 1_654
F14 Lu3 2.399926 1_655
F15 Lu1 2.242856 1_555
F15 Lu2 2.251395 1_555
F15 Lu3 2.399938 1_555
F16 Lu4 2.242867 1_555
F16 Lu1 2.251393 1_555
F16 Lu0 2.399930 1_555
F17 Lu5 2.242867 1_565
F17 Lu0 2.251393 1_555
F17 Lu1 2.399930 1_555
