# generated using pymatgen
data_Li2MnO2
_symmetry_space_group_name_H-M   'P 1'
_cell_length_a   3.05908531
_cell_length_b   5.55335976
_cell_length_c   13.76970241
_cell_angle_alpha   89.76305657
_cell_angle_beta   83.62123175
_cell_angle_gamma   74.01500794
_symmetry_Int_Tables_number   1
_chemical_formula_structural   Li2MnO2
_chemical_formula_sum   'Li8 Mn4 O8'
_cell_volume   223.39968620
_cell_formula_units_Z   4
loop_
 _symmetry_equiv_pos_site_id
 _symmetry_equiv_pos_as_xyz
  1  'x, y, z'
loop_
 _atom_site_type_symbol
 _atom_site_label
 _atom_site_symmetry_multiplicity
 _atom_site_fract_x
 _atom_site_fract_y
 _atom_site_fract_z
 _atom_site_occupancy
  Li  Li0  1  0.66713600  0.60980000  0.05579600  1
  Li  Li1  1  0.41728500  0.85963800  0.30573700  1
  Li  Li2  1  0.16712400  0.10986600  0.55575100  1
  Li  Li3  1  0.91729400  0.35961000  0.80574900  1
  Li  Li4  1  0.33289700  0.39010400  0.94423400  1
  Li  Li5  1  0.08272900  0.64035100  0.19424200  1
  Li  Li6  1  0.83287600  0.89019400  0.44418600  1
  Li  Li7  1  0.58272400  0.14036600  0.69423800  1
  Mn  Mn0  1  0.37674100  0.62329000  0.62324800  1
  Mn  Mn1  1  0.12335100  0.87662200  0.87667100  1
  Mn  Mn2  1  0.87678400  0.12313900  0.12325700  1
  Mn  Mn3  1  0.62300900  0.37707000  0.37694100  1
  O  O0  1  0.48465200  0.86940100  0.16157600  1
  O  O1  1  0.23484400  0.11908600  0.41145700  1
  O  O2  1  0.98462700  0.36946400  0.66158200  1
  O  O3  1  0.73485400  0.61901200  0.91149200  1
  O  O4  1  0.51539800  0.13051400  0.83839600  1
  O  O5  1  0.26515300  0.38092000  0.08853700  1
  O  O6  1  0.01534900  0.63059300  0.33842200  1
  O  O7  1  0.76517400  0.88095900  0.58848900  1
loop_
_geom_bond_atom_site_label_1
_geom_bond_atom_site_label_2
_geom_bond_distance
_geom_bond_site_symmetry_2
Li0 O0 1.976110 1_555
Li0 O3 1.976695 1_554
Li0 O5 2.015768 1_655
Li0 O5 2.015918 1_555
Li1 O0 1.974896 1_555
Li1 O1 1.974968 1_565
Li1 O6 2.015977 1_655
Li1 O6 2.016422 1_555
Li2 O1 1.976561 1_555
Li2 O2 1.976597 1_455
Li2 O7 2.015888 1_545
Li2 O7 2.015955 1_445
Li3 O2 1.975004 1_555
Li3 O3 1.975026 1_555
Li3 O4 2.016009 1_655
Li3 O4 2.016475 1_555
Li4 O4 1.976636 1_555
Li4 O5 1.976674 1_556
Li4 O3 2.015891 1_455
Li4 O3 2.015984 1_555
Li5 O5 1.974760 1_555
Li5 O6 1.975154 1_555
Li5 O0 2.015933 1_455
Li5 O0 2.016374 1_555
Li6 O6 1.975954 1_655
Li6 O7 1.976688 1_555
Li6 O1 2.015775 1_565
Li6 O1 2.015911 1_665
Li7 O4 1.974881 1_555
Li7 O7 1.975102 1_545
Li7 O2 2.016037 1_455
Li7 O2 2.016519 1_555
Mn0 O2 2.118677 1_455
Mn0 O2 2.119394 1_555
Mn0 O7 2.119673 1_555
Mn0 O7 2.120266 1_455
Mn1 O4 2.118681 1_565
Mn1 O4 2.119418 1_465
Mn1 O3 2.119680 1_455
Mn1 O3 2.120258 1_555
Mn2 O0 2.118278 1_545
Mn2 O0 2.119077 1_645
Mn2 O5 2.119961 1_655
Mn2 O5 2.120503 1_555
Mn3 O6 2.118265 1_655
Mn3 O6 2.119062 1_555
Mn3 O1 2.119996 1_555
Mn3 O1 2.120541 1_655
