# generated using pymatgen
data_Ca2VN3
_symmetry_space_group_name_H-M   'P 1'
_cell_length_a   5.91055760
_cell_length_b   5.91055760
_cell_length_c   11.61398997
_cell_angle_alpha   88.95234104
_cell_angle_beta   88.95234104
_cell_angle_gamma   123.53135145
_symmetry_Int_Tables_number   1
_chemical_formula_structural   Ca2VN3
_chemical_formula_sum   'Ca8 V4 N12'
_cell_volume   337.95817241
_cell_formula_units_Z   4
loop_
 _symmetry_equiv_pos_site_id
 _symmetry_equiv_pos_as_xyz
  1  'x, y, z'
loop_
 _atom_site_type_symbol
 _atom_site_label
 _atom_site_symmetry_multiplicity
 _atom_site_fract_x
 _atom_site_fract_y
 _atom_site_fract_z
 _atom_site_occupancy
  Ca  Ca0  1  0.61591938  0.84100675  0.07692160  1
  Ca  Ca1  1  0.46306720  0.05714678  0.35231980  1
  Ca  Ca2  1  0.05714678  0.46306720  0.85231980  1
  Ca  Ca3  1  0.53693280  0.94285322  0.64768020  1
  Ca  Ca4  1  0.38408062  0.15899325  0.92307840  1
  Ca  Ca5  1  0.84100675  0.61591938  0.57692160  1
  Ca  Ca6  1  0.15899325  0.38408062  0.42307840  1
  Ca  Ca7  1  0.94285322  0.53693280  0.14768020  1
  V  V0  1  0.76679351  0.76631068  0.83763611  1
  V  V1  1  0.23368932  0.23320649  0.66236389  1
  V  V2  1  0.23320649  0.23368932  0.16236389  1
  V  V3  1  0.76631068  0.76679351  0.33763611  1
  N  N0  1  0.08893539  0.91106461  0.75000000  1
  N  N1  1  0.91106461  0.08893539  0.25000000  1
  N  N2  1  0.50555685  0.49444315  0.75000000  1
  N  N3  1  0.49444315  0.50555685  0.25000000  1
  N  N4  1  0.33965138  0.01359032  0.12909319  1
  N  N5  1  0.98640968  0.66034862  0.37090681  1
  N  N6  1  0.66034862  0.98640968  0.87090681  1
  N  N7  1  0.01359032  0.33965138  0.62909319  1
  N  N8  1  0.80864202  0.62338586  0.96208009  1
  N  N9  1  0.62338586  0.80864202  0.46208009  1
  N  N10  1  0.19135798  0.37661414  0.03791991  1
  N  N11  1  0.37661414  0.19135798  0.53791991  1
loop_
_geom_bond_atom_site_label_1
_geom_bond_atom_site_label_2
_geom_bond_distance
_geom_bond_site_symmetry_2
Ca0 N4 2.429125 1_565
Ca0 N6 2.486934 1_554
Ca0 N8 2.521276 1_554
Ca0 N10 2.552198 1_555
Ca0 N1 2.577388 1_565
Ca0 N3 2.591519 1_555
Ca1 N11 2.450892 1_555
Ca1 N5 2.478651 1_445
Ca1 N9 2.488697 1_545
Ca1 N4 2.684362 1_555
Ca1 N1 2.790346 1_555
Ca1 N3 2.793686 1_555
Ca2 N10 2.450892 1_556
Ca2 N6 2.478651 1_445
Ca2 N8 2.488697 1_455
Ca2 N7 2.684362 1_555
Ca2 N0 2.790346 1_555
Ca2 N2 2.793686 1_555
Ca3 N9 2.450892 1_555
Ca3 N7 2.478651 1_665
Ca3 N11 2.488697 1_565
Ca3 N6 2.684362 1_555
Ca3 N0 2.790346 1_555
Ca3 N2 2.793686 1_555
Ca4 N6 2.429125 1_545
Ca4 N4 2.486934 1_556
Ca4 N10 2.521276 1_556
Ca4 N8 2.552198 1_555
Ca4 N0 2.577388 1_545
Ca4 N2 2.591519 1_555
Ca5 N7 2.429125 1_655
Ca5 N5 2.486934 1_555
Ca5 N9 2.521276 1_555
Ca5 N11 2.552198 1_555
Ca5 N0 2.577388 1_655
Ca5 N2 2.591519 1_555
Ca6 N5 2.429125 1_455
Ca6 N7 2.486934 1_555
Ca6 N11 2.521276 1_555
Ca6 N9 2.552198 1_555
Ca6 N1 2.577388 1_455
Ca6 N3 2.591519 1_555
Ca7 N8 2.450892 1_554
Ca7 N4 2.478651 1_665
Ca7 N10 2.488697 1_655
Ca7 N5 2.684362 1_555
Ca7 N1 2.790346 1_555
Ca7 N3 2.793686 1_555
N0 V1 1.868378 1_565
N0 V0 1.868378 1_455
N1 V2 1.868378 1_655
N1 V3 1.868378 1_545
N2 V1 1.838011 1_555
N2 V0 1.838011 1_555
N3 V2 1.838011 1_555
N3 V3 1.838011 1_555
N4 V2 1.775167 1_555
N5 V3 1.775167 1_555
N6 V0 1.775167 1_555
N7 V1 1.775167 1_555
N8 V0 1.750128 1_555
N9 V3 1.750128 1_555
N10 V2 1.750128 1_555
N11 V1 1.750128 1_555
