# generated using pymatgen
data_SrCaTi4O12
_symmetry_space_group_name_H-M   'P 1'
_cell_length_a   5.50375221
_cell_length_b   5.50375221
_cell_length_c   7.76923533
_cell_angle_alpha   90.00000000
_cell_angle_beta   90.00000000
_cell_angle_gamma   90.01357008
_symmetry_Int_Tables_number   1
_chemical_formula_structural   SrCaTi4O12
_chemical_formula_sum   'Sr1 Ca1 Ti4 O12'
_cell_volume   235.34014166
_cell_formula_units_Z   1
loop_
 _symmetry_equiv_pos_site_id
 _symmetry_equiv_pos_as_xyz
  1  'x, y, z'
loop_
 _atom_site_type_symbol
 _atom_site_label
 _atom_site_symmetry_multiplicity
 _atom_site_fract_x
 _atom_site_fract_y
 _atom_site_fract_z
 _atom_site_occupancy
  Sr  Sr0  1  0.98816626  0.98816626  0.50000000  1
  Ca  Ca0  1  0.51509457  0.51509457  -0.00000000  1
  Ti  Ti0  1  0.49568674  0.00538028  0.75176744  1
  Ti  Ti1  1  0.49568674  0.00538028  0.24823256  1
  Ti  Ti2  1  0.00538028  0.49568674  0.24823256  1
  Ti  Ti3  1  0.00538028  0.49568674  0.75176744  1
  O  O0  1  0.76521237  0.23390662  0.74952750  1
  O  O1  1  0.23390662  0.76521237  0.74952750  1
  O  O2  1  0.23390662  0.76521237  0.25047250  1
  O  O3  1  0.76521237  0.23390662  0.25047250  1
  O  O4  1  0.73623926  0.73623926  0.74068469  1
  O  O5  1  0.27283867  0.27283867  0.78007453  1
  O  O6  1  0.27283867  0.27283867  0.21992547  1
  O  O7  1  0.73623926  0.73623926  0.25931531  1
  O  O8  1  0.51434016  0.96596686  -0.00000000  1
  O  O9  1  0.48296662  0.01283767  0.50000000  1
  O  O10  1  0.96596686  0.51434016  -0.00000000  1
  O  O11  1  0.01283767  0.48296662  0.50000000  1
loop_
_geom_bond_atom_site_label_1
_geom_bond_atom_site_label_2
_geom_bond_distance
_geom_bond_site_symmetry_2
Ca0 O8 2.481494 1_555
Ca0 O10 2.481494 1_555
Ca0 O5 2.544429 1_554
Ca0 O6 2.544429 1_555
Ca0 O4 2.649723 1_554
Ca0 O7 2.649723 1_555
Ca0 O1 2.842159 1_554
Ca0 O2 2.842159 1_555
Ca0 O3 2.842159 1_555
Ca0 O0 2.842159 1_554
Ca0 O10 3.022265 1_455
Ca0 O8 3.022265 1_545
O0 Ti0 1.944696 1_555
O0 Ti3 1.955108 1_655
O0 Sr0 2.663471 1_545
O1 Ti3 1.944696 1_555
O1 Ti0 1.955108 1_565
O1 Sr0 2.663471 1_455
O2 Ti2 1.944696 1_555
O2 Ti1 1.955108 1_565
O2 Sr0 2.663471 1_455
O3 Ti1 1.944696 1_555
O3 Ti2 1.955108 1_655
O3 Sr0 2.663471 1_545
O4 Ti0 1.988811 1_565
O4 Ti3 1.988811 1_655
O4 Sr0 2.709383 1_555
O5 Ti0 1.928829 1_555
O5 Ti3 1.928829 1_555
O5 Sr0 3.105346 1_445
O6 Ti2 1.928829 1_555
O6 Ti1 1.928829 1_555
O6 Sr0 3.105346 1_445
O7 Ti1 1.988811 1_565
O7 Ti2 1.988811 1_655
O7 Sr0 2.709383 1_555
O8 Ti0 1.943454 1_564
O8 Ti1 1.943454 1_565
O9 Ti1 1.957724 1_555
O9 Ti0 1.957724 1_555
O9 Sr0 2.726610 1_445
O9 Sr0 2.783839 1_545
O10 Ti3 1.943454 1_654
O10 Ti2 1.943454 1_655
O11 Ti2 1.957724 1_555
O11 Ti3 1.957724 1_555
O11 Sr0 2.726610 1_445
O11 Sr0 2.783839 1_455
