# generated using pymatgen
data_Lu2Ga3Ni
_symmetry_space_group_name_H-M   'P 1'
_cell_length_a   5.44439829
_cell_length_b   5.44439829
_cell_length_c   6.89256260
_cell_angle_alpha   51.84376058
_cell_angle_beta   51.84376058
_cell_angle_gamma   46.40410683
_symmetry_Int_Tables_number   1
_chemical_formula_structural   Lu2Ga3Ni
_chemical_formula_sum   'Lu2 Ga3 Ni1'
_cell_volume   109.55066450
_cell_formula_units_Z   1
loop_
 _symmetry_equiv_pos_site_id
 _symmetry_equiv_pos_as_xyz
  1  'x, y, z'
loop_
 _atom_site_type_symbol
 _atom_site_label
 _atom_site_symmetry_multiplicity
 _atom_site_fract_x
 _atom_site_fract_y
 _atom_site_fract_z
 _atom_site_occupancy
  Lu  Lu0  1  0.54440300  0.54440300  0.70347200  1
  Lu  Lu1  1  0.45158600  0.45158600  0.29900900  1
  Ga  Ga0  1  0.85080400  0.85080400  0.68878200  1
  Ga  Ga1  1  0.82451000  0.82451000  0.12043800  1
  Ga  Ga2  1  0.16200500  0.16200500  0.90563200  1
  Ni  Ni0  1  0.16669200  0.16669200  0.28266600  1
loop_
_geom_bond_atom_site_label_1
_geom_bond_atom_site_label_2
_geom_bond_distance
_geom_bond_site_symmetry_2
Lu0 Ni0 3.120751 1_655
Lu0 Ni0 3.120751 1_565
Lu0 Ni0 3.152680 1_556
Lu1 Ni0 2.928159 1_555
Lu1 Ni0 2.986988 1_565
Lu1 Ni0 2.986988 1_655
Ga0 Ni0 2.435863 1_665
Ga0 Ga2 2.570690 1_655
Ga0 Ga2 2.570690 1_565
Ga0 Ga1 2.805106 1_556
Ga0 Lu0 2.937511 1_655
Ga0 Lu0 2.937511 1_565
Ga0 Lu0 2.999378 1_555
Ga0 Lu1 3.031968 1_565
Ga0 Lu1 3.031968 1_655
Ga1 Ni0 2.443682 1_655
Ga1 Ni0 2.443682 1_565
Ga1 Ga2 2.622585 1_664
Ga1 Lu0 2.977102 1_555
Ga1 Lu0 3.033311 1_654
Ga1 Lu0 3.033311 1_564
Ga1 Lu1 3.044534 1_555
Ga1 Lu1 3.136486 1_565
Ga1 Lu1 3.136486 1_655
Ga2 Ni0 2.630490 1_556
Ga2 Lu1 2.951466 1_546
Ga2 Lu1 2.951466 1_456
Ga2 Lu0 3.069074 1_555
Ga2 Lu1 3.096970 1_555
Ga2 Lu0 3.183142 1_455
Ga2 Lu0 3.183142 1_545
