# generated using pymatgen
data_Sr5Fe3F19
_symmetry_space_group_name_H-M   'P 1'
_cell_length_a   7.41489350
_cell_length_b   10.85784622
_cell_length_c   10.95662074
_cell_angle_alpha   84.64336515
_cell_angle_beta   71.98386192
_cell_angle_gamma   72.30726435
_symmetry_Int_Tables_number   1
_chemical_formula_structural   Sr5Fe3F19
_chemical_formula_sum   'Sr10 Fe6 F38'
_cell_volume   799.18598613
_cell_formula_units_Z   2
loop_
 _symmetry_equiv_pos_site_id
 _symmetry_equiv_pos_as_xyz
  1  'x, y, z'
loop_
 _atom_site_type_symbol
 _atom_site_label
 _atom_site_symmetry_multiplicity
 _atom_site_fract_x
 _atom_site_fract_y
 _atom_site_fract_z
 _atom_site_occupancy
  Sr  Sr0  1  0.08048300  0.67835200  0.17763400  1
  Sr  Sr1  1  0.28163200  0.27543300  0.16050300  1
  Sr  Sr2  1  0.26631100  0.49372200  0.47564600  1
  Sr  Sr3  1  0.26087700  0.81771000  0.67460300  1
  Sr  Sr4  1  0.45006800  0.83516300  0.27415800  1
  Sr  Sr5  1  0.54699100  0.17534800  0.71991100  1
  Sr  Sr6  1  0.73228900  0.18743600  0.32060800  1
  Sr  Sr7  1  0.72736000  0.51218300  0.51830700  1
  Sr  Sr8  1  0.73280100  0.72009500  0.82887900  1
  Sr  Sr9  1  0.92327300  0.32355800  0.80854300  1
  Fe  Fe0  1  0.28638400  0.99629600  0.99198600  1
  Fe  Fe1  1  0.15164700  0.16343700  0.51136800  1
  Fe  Fe2  1  0.78663100  0.00508900  0.00015400  1
  Fe  Fe3  1  0.31668900  0.51863500  0.83679000  1
  Fe  Fe4  1  0.68876500  0.48226400  0.15512500  1
  Fe  Fe5  1  0.84183700  0.83978500  0.48349500  1
  F  F0  1  0.02978400  0.19095700  0.37328000  1
  F  F1  1  0.28120700  0.03907700  0.16162300  1
  F  F2  1  0.03989100  0.35253800  0.54360000  1
  F  F3  1  0.15259200  0.46412800  0.29257500  1
  F  F4  1  0.24928900  0.48542400  0.01765600  1
  F  F5  1  0.08113600  0.84775900  0.34471200  1
  F  F6  1  0.25634400  0.16489900  0.65535200  1
  F  F7  1  0.29056800  0.17168900  0.94071500  1
  F  F8  1  0.07031300  0.65671900  0.85052000  1
  F  F9  1  0.37481000  0.21204800  0.38590500  1
  F  F10  1  0.29567100  0.82495800  0.05913100  1
  F  F11  1  0.22212500  0.38569800  0.79188100  1
  F  F12  1  0.43017900  0.61708600  0.19414900  1
  F  F13  1  0.61954900  0.07979200  0.16637100  1
  F  F14  1  0.57619000  0.34442900  0.14777600  1
  F  F15  1  0.26766700  0.97865700  0.48690200  1
  F  F16  1  0.37515100  0.56356900  0.65141300  1
  F  F17  1  0.41556000  0.69134600  0.45312900  1
  F  F18  1  0.57287100  0.31244200  0.53639900  1
  F  F19  1  0.62083100  0.44232200  0.34135100  1
  F  F20  1  0.72678200  0.02476600  0.51354900  1
  F  F21  1  0.43288700  0.65593200  0.84355800  1
  F  F22  1  0.58241700  0.38978700  0.78520600  1
  F  F23  1  0.78243500  0.61517100  0.19976100  1
  F  F24  1  0.35673200  0.94437600  0.81659900  1
  F  F25  1  0.70599400  0.17068900  0.91809200  1
  F  F26  1  0.62475300  0.78261700  0.61110800  1
  F  F27  1  0.93144400  0.33857100  0.14808000  1
  F  F28  1  0.82481900  0.83747000  0.08123700  1
  F  F29  1  0.72163300  0.85027600  0.34897400  1
  F  F30  1  0.90952600  0.15882200  0.64764500  1
  F  F31  1  0.76336700  0.51127900  0.97190500  1
  F  F32  1  0.86568800  0.53658900  0.69569500  1
  F  F33  1  0.95506000  0.65165200  0.44406800  1
  F  F34  1  0.99599300  0.05552200  0.04317900  1
  F  F35  1  0.58680000  0.94821300  0.94503400  1
  F  F36  1  0.95577000  0.81101400  0.62612200  1
  F  F37  1  0.96463400  0.93531100  0.83973800  1
loop_
_geom_bond_atom_site_label_1
_geom_bond_atom_site_label_2
_geom_bond_distance
_geom_bond_site_symmetry_2
F0 Fe1 1.947312 1_555
F0 Sr6 2.458317 1_455
F0 Sr1 2.777140 1_555
F1 Fe0 1.943719 1_544
F1 Sr1 2.566156 1_555
F1 Sr4 2.598144 1_545
F2 Fe1 1.986791 1_555
F2 Sr2 2.510168 1_555
F2 Sr7 2.513504 1_455
F2 Sr9 2.777694 1_455
F3 Sr1 2.390127 1_555
F3 Sr2 2.483727 1_555
F3 Sr0 2.529005 1_555
F4 Fe3 1.915817 1_554
F4 Sr0 2.600367 1_555
F4 Sr1 2.634251 1_555
F5 Fe5 1.966708 1_455
F5 Sr4 2.565928 1_555
F5 Sr0 2.715533 1_555
F6 Fe1 1.965045 1_555
F6 Sr5 2.502858 1_555
F6 Sr9 2.697031 1_455
F7 Fe0 1.941294 1_545
F7 Sr5 2.579183 1_555
F7 Sr1 2.726676 1_556
F8 Fe3 1.953252 1_555
F8 Sr8 2.466308 1_455
F8 Sr3 2.820426 1_555
F9 Fe1 1.973507 1_555
F9 Sr6 2.457927 1_555
F9 Sr1 2.738474 1_555
F9 Sr2 3.089383 1_555
F10 Fe0 1.924798 1_554
F10 Sr0 2.577225 1_555
F10 Sr4 2.944108 1_555
F11 Fe3 1.943811 1_555
F11 Sr9 2.456532 1_455
F11 Sr5 2.730936 1_555
F12 Fe4 1.976315 1_555
F12 Sr0 2.533381 1_555
F12 Sr4 2.660207 1_555
F13 Fe2 1.943917 1_555
F13 Sr6 2.599460 1_555
F13 Sr1 2.762903 1_555
F14 Fe4 1.940734 1_555
F14 Sr1 2.477432 1_555
F14 Sr6 2.717569 1_555
F15 Fe1 1.935432 1_565
F15 Sr3 2.569885 1_555
F15 Sr4 2.671555 1_555
F16 Fe3 1.987521 1_555
F16 Sr7 2.483729 1_555
F16 Sr2 2.557598 1_555
F16 Sr3 2.640738 1_555
F17 Sr4 2.389532 1_555
F17 Sr3 2.651401 1_555
F17 Sr2 2.658111 1_555
F17 Sr7 2.769052 1_555
F18 Sr5 2.381497 1_555
F18 Sr6 2.593227 1_555
F18 Sr7 2.710044 1_555
F18 Sr2 2.730598 1_555
F19 Fe4 1.984158 1_555
F19 Sr2 2.501150 1_555
F19 Sr7 2.558231 1_555
F19 Sr6 2.646664 1_555
F20 Fe5 1.943840 1_545
F20 Sr6 2.623645 1_555
F20 Sr5 2.657735 1_555
F21 Fe3 1.952190 1_555
F21 Sr8 2.481163 1_555
F21 Sr3 2.762370 1_555
F22 Fe3 1.985503 1_555
F22 Sr9 2.496199 1_555
F22 Sr5 2.607875 1_555
F22 Sr7 3.109861 1_555
F23 Fe4 1.937829 1_555
F23 Sr0 2.443869 1_655
F23 Sr4 2.826031 1_555
F24 Fe0 1.919926 1_555
F24 Sr3 2.548500 1_555
F25 Fe2 1.943237 1_556
F25 Sr9 2.616987 1_555
F25 Sr5 2.763031 1_555
F26 Fe5 1.996085 1_555
F26 Sr3 2.484442 1_555
F26 Sr8 2.710225 1_555
F26 Sr7 2.992619 1_555
F27 Fe4 1.976933 1_555
F27 Sr1 2.519937 1_655
F27 Sr6 2.759335 1_555
F28 Fe2 1.929311 1_565
F28 Sr0 2.569287 1_655
F28 Sr4 2.930734 1_555
F29 Fe5 1.923358 1_555
F29 Sr4 2.449604 1_555
F29 Sr0 2.938421 1_655
F30 Fe1 1.958986 1_655
F30 Sr5 2.510392 1_555
F30 Sr9 2.669886 1_555
F31 Fe4 1.932907 1_556
F31 Sr9 2.581372 1_555
F31 Sr8 2.625204 1_555
F32 Sr8 2.351679 1_555
F32 Sr9 2.500719 1_555
F32 Sr7 2.528680 1_555
F33 Fe5 1.990522 1_555
F33 Sr7 2.505994 1_555
F33 Sr2 2.522741 1_655
F33 Sr0 2.792364 1_655
F34 Fe0 1.960391 1_644
F34 Fe2 1.987359 1_555
F35 Fe2 2.030015 1_566
F35 Fe0 2.033134 1_555
F35 Sr8 2.651985 1_555
F36 Fe5 1.954074 1_555
F36 Sr3 2.501229 1_655
F36 Sr8 2.637000 1_555
F37 Fe2 1.900299 1_566
F37 Sr3 2.448934 1_655
