# generated using pymatgen
data_LiV3O6
_symmetry_space_group_name_H-M   'P 1'
_cell_length_a   5.10929626
_cell_length_b   5.10929626
_cell_length_c   5.25905115
_cell_angle_alpha   79.95773162
_cell_angle_beta   79.95773162
_cell_angle_gamma   118.53501528
_symmetry_Int_Tables_number   1
_chemical_formula_structural   LiV3O6
_chemical_formula_sum   'Li1 V3 O6'
_cell_volume   113.37147551
_cell_formula_units_Z   1
loop_
 _symmetry_equiv_pos_site_id
 _symmetry_equiv_pos_as_xyz
  1  'x, y, z'
loop_
 _atom_site_type_symbol
 _atom_site_label
 _atom_site_symmetry_multiplicity
 _atom_site_fract_x
 _atom_site_fract_y
 _atom_site_fract_z
 _atom_site_occupancy
  Li  Li0  1  0.50000000  0.50000000  0.50000000  1
  V  V0  1  0.33874300  0.66125700  0.00000000  1
  V  V1  1  0.00000000  0.00000000  0.00000000  1
  V  V2  1  0.66125700  0.33874300  0.00000000  1
  O  O0  1  0.26197900  0.26197900  0.21673900  1
  O  O1  1  0.92269000  0.60285000  0.20149000  1
  O  O2  1  0.60285000  0.92269000  0.20149000  1
  O  O3  1  0.07731000  0.39715000  0.79851000  1
  O  O4  1  0.73802100  0.73802100  0.78326100  1
  O  O5  1  0.39715000  0.07731000  0.79851000  1
loop_
_geom_bond_atom_site_label_1
_geom_bond_atom_site_label_2
_geom_bond_distance
_geom_bond_site_symmetry_2
Li0 O1 2.202361 1_555
Li0 O5 2.202361 1_555
Li0 O3 2.202361 1_555
Li0 O2 2.202361 1_555
Li0 O4 2.242252 1_555
Li0 O0 2.242252 1_555
O0 V0 1.970660 1_555
O0 V2 1.970660 1_555
O0 V1 2.057912 1_555
O1 V1 1.932548 1_665
O1 V2 1.999546 1_555
O1 V0 2.056394 1_655
O2 V1 1.932548 1_665
O2 V0 1.999546 1_555
O2 V2 2.056394 1_565
O3 V1 1.932548 1_556
O3 V0 1.999546 1_556
O3 V2 2.056394 1_456
O4 V0 1.970660 1_556
O4 V2 1.970660 1_556
O4 V1 2.057912 1_666
O5 V1 1.932548 1_556
O5 V2 1.999546 1_556
O5 V0 2.056394 1_546
