# generated using pymatgen
data_CsH6C2S2NO4
_symmetry_space_group_name_H-M   'P 1'
_cell_length_a   10.96686400
_cell_length_b   9.00970100
_cell_length_c   11.17353913
_cell_angle_alpha   61.87825532
_cell_angle_beta   90.00000000
_cell_angle_gamma   90.00000000
_symmetry_Int_Tables_number   1
_chemical_formula_structural   CsH6C2S2NO4
_chemical_formula_sum   'Cs4 H24 C8 S8 N4 O16'
_cell_volume   973.70319003
_cell_formula_units_Z   4
loop_
 _symmetry_equiv_pos_site_id
 _symmetry_equiv_pos_as_xyz
  1  'x, y, z'
loop_
 _atom_site_type_symbol
 _atom_site_label
 _atom_site_symmetry_multiplicity
 _atom_site_fract_x
 _atom_site_fract_y
 _atom_site_fract_z
 _atom_site_occupancy
  Cs  Cs0  1  0.02463100  0.71818000  0.07568100  1
  Cs  Cs1  1  0.47536900  0.71818000  0.57568100  1
  Cs  Cs2  1  0.97536900  0.28182000  0.92431900  1
  Cs  Cs3  1  0.52463100  0.28182000  0.42431900  1
  H  H0  1  0.79346200  0.47955900  0.62171700  1
  H  H1  1  0.70653800  0.47955900  0.12171700  1
  H  H2  1  0.20653800  0.52044100  0.37828300  1
  H  H3  1  0.29346200  0.52044100  0.87828300  1
  H  H4  1  0.92685400  0.60917100  0.54947600  1
  H  H5  1  0.57314600  0.60917100  0.04947600  1
  H  H6  1  0.07314600  0.39082900  0.45052400  1
  H  H7  1  0.42685400  0.39082900  0.95052400  1
  H  H8  1  0.78749000  0.70061900  0.56989500  1
  H  H9  1  0.71251000  0.70061900  0.06989500  1
  H  H10  1  0.21251000  0.29938100  0.43010500  1
  H  H11  1  0.28749000  0.29938100  0.93010500  1
  H  H12  1  0.65989900  0.01990700  0.05107600  1
  H  H13  1  0.84010100  0.01990700  0.55107600  1
  H  H14  1  0.34010100  0.98009300  0.94892400  1
  H  H15  1  0.15989900  0.98009300  0.44892400  1
  H  H16  1  0.56305000  0.89225000  0.19401000  1
  H  H17  1  0.93695000  0.89225000  0.69401000  1
  H  H18  1  0.43695000  0.10775000  0.80599000  1
  H  H19  1  0.06305000  0.10775000  0.30599000  1
  H  H20  1  0.56265400  0.11664800  0.12530300  1
  H  H21  1  0.93734600  0.11664800  0.62530300  1
  H  H22  1  0.43734600  0.88335200  0.87469700  1
  H  H23  1  0.06265400  0.88335200  0.37469700  1
  C  C0  1  0.82706700  0.60424000  0.54822300  1
  C  C1  1  0.67293300  0.60424000  0.04822300  1
  C  C2  1  0.17293300  0.39576000  0.45177700  1
  C  C3  1  0.32706700  0.39576000  0.95177700  1
  C  C4  1  0.61841800  0.00664900  0.14486200  1
  C  C5  1  0.88158200  0.00664900  0.64486200  1
  C  C6  1  0.38158200  0.99335100  0.85513800  1
  C  C7  1  0.11841800  0.99335100  0.35513800  1
  S  S0  1  0.77831300  0.64336500  0.38354000  1
  S  S1  1  0.72168700  0.64336500  0.88354000  1
  S  S2  1  0.22168700  0.35663500  0.61646000  1
  S  S3  1  0.27831300  0.35663500  0.11646000  1
  S  S4  1  0.73849800  0.99259600  0.25708500  1
  S  S5  1  0.76150200  0.99259600  0.75708500  1
  S  S6  1  0.26150200  0.00740400  0.74291500  1
  S  S7  1  0.23849800  0.00740400  0.24291500  1
  N  N0  1  0.81854300  0.83180900  0.28017300  1
  N  N1  1  0.68145700  0.83180900  0.78017300  1
  N  N2  1  0.18145700  0.16819100  0.71982700  1
  N  N3  1  0.31854300  0.16819100  0.21982700  1
  O  O0  1  0.84925700  0.53329300  0.34723200  1
  O  O1  1  0.65074300  0.53329300  0.84723200  1
  O  O2  1  0.15074300  0.46670700  0.65276800  1
  O  O3  1  0.34925700  0.46670700  0.15276800  1
  O  O4  1  0.64554700  0.61683700  0.39245300  1
  O  O5  1  0.85445300  0.61683700  0.89245300  1
  O  O6  1  0.35445300  0.38316300  0.60754700  1
  O  O7  1  0.14554700  0.38316300  0.10754700  1
  O  O8  1  0.81608500  0.13941400  0.18437400  1
  O  O9  1  0.68391500  0.13941400  0.68437400  1
  O  O10  1  0.18391500  0.86058600  0.81562600  1
  O  O11  1  0.31608500  0.86058600  0.31562600  1
  O  O12  1  0.68153200  0.97521900  0.38249900  1
  O  O13  1  0.81846800  0.97521900  0.88249900  1
  O  O14  1  0.31846800  0.02478100  0.61750100  1
  O  O15  1  0.18153200  0.02478100  0.11750100  1
loop_
_geom_bond_atom_site_label_1
_geom_bond_atom_site_label_2
_geom_bond_distance
_geom_bond_site_symmetry_2
Cs0 O10 3.102649 1_554
Cs0 O7 3.159567 1_555
Cs0 O5 3.204764 1_454
Cs0 O13 3.228308 1_454
Cs0 O0 3.303870 1_455
Cs0 O15 3.467966 1_565
Cs1 O11 3.102649 1_555
Cs1 O6 3.159567 1_555
Cs1 O4 3.204764 1_555
Cs1 O12 3.228308 1_555
Cs1 O1 3.303870 1_555
Cs1 O14 3.467966 1_565
Cs2 O8 3.102649 1_556
Cs2 O5 3.159567 1_555
Cs2 O7 3.204764 1_656
Cs2 O15 3.228308 1_656
Cs2 O2 3.303870 1_655
Cs2 O13 3.467966 1_545
Cs3 O9 3.102649 1_555
Cs3 O4 3.159567 1_555
Cs3 O6 3.204764 1_555
Cs3 O14 3.228308 1_555
Cs3 O3 3.303870 1_555
Cs3 O12 3.467966 1_545
C0 H8 1.095113 1_555
C0 H4 1.095609 1_555
C0 H0 1.096565 1_555
C0 S0 1.784547 1_555
C1 H9 1.095113 1_555
C1 H5 1.095609 1_555
C1 H1 1.096565 1_555
C1 S1 1.784547 1_554
C2 H10 1.095113 1_555
C2 H6 1.095609 1_555
C2 H2 1.096565 1_555
C2 S2 1.784547 1_555
C3 H11 1.095113 1_555
C3 H7 1.095609 1_555
C3 H3 1.096565 1_555
C3 S3 1.784547 1_556
C4 H16 1.095009 1_545
C4 H20 1.095345 1_555
C4 H12 1.096064 1_555
C4 S4 1.781272 1_545
C5 H17 1.095009 1_545
C5 H21 1.095345 1_555
C5 H13 1.096064 1_555
C5 S5 1.781272 1_545
C6 H18 1.095009 1_565
C6 H22 1.095345 1_555
C6 H14 1.096064 1_555
C6 S6 1.781272 1_565
C7 H19 1.095009 1_565
C7 H23 1.095345 1_555
C7 H15 1.096064 1_555
C7 S7 1.781272 1_565
N0 S0 1.600831 1_555
N0 S4 1.607304 1_555
N1 S1 1.600831 1_555
N1 S5 1.607304 1_555
N2 S2 1.600831 1_555
N2 S6 1.607304 1_555
N3 S3 1.600831 1_555
N3 S7 1.607304 1_555
O0 S0 1.460374 1_555
O1 S1 1.460374 1_555
O2 S2 1.460374 1_555
O3 S3 1.460374 1_555
O4 S0 1.471264 1_555
O5 S1 1.471264 1_555
O6 S2 1.471264 1_555
O7 S3 1.471264 1_555
O8 S4 1.456273 1_545
O9 S5 1.456273 1_545
O10 S6 1.456273 1_565
O11 S7 1.456273 1_565
O12 S4 1.473663 1_555
O13 S5 1.473663 1_555
O14 S6 1.473663 1_555
O15 S7 1.473663 1_555
