# generated using pymatgen
data_KNa2Ga3(SiO4)3
_symmetry_space_group_name_H-M   'P 1'
_cell_length_a   8.41138600
_cell_length_b   8.86212500
_cell_length_c   17.88266828
_cell_angle_alpha   60.49235444
_cell_angle_beta   90.00000000
_cell_angle_gamma   90.00000000
_symmetry_Int_Tables_number   1
_chemical_formula_structural   KNa2Ga3(SiO4)3
_chemical_formula_sum   'K4 Na8 Ga12 Si12 O48'
_cell_volume   1160.11685899
_cell_formula_units_Z   4
loop_
 _symmetry_equiv_pos_site_id
 _symmetry_equiv_pos_as_xyz
  1  'x, y, z'
loop_
 _atom_site_type_symbol
 _atom_site_label
 _atom_site_symmetry_multiplicity
 _atom_site_fract_x
 _atom_site_fract_y
 _atom_site_fract_z
 _atom_site_occupancy
  K  K0  1  0.99806200  0.49934500  0.75084800  1
  K  K1  1  0.00193800  0.50065500  0.24915200  1
  K  K2  1  0.49806200  0.50065500  0.74915200  1
  K  K3  1  0.50193800  0.49934500  0.25084800  1
  Na  Na0  1  0.02943600  0.78899200  0.93596100  1
  Na  Na1  1  0.97056400  0.21100800  0.06403900  1
  Na  Na2  1  0.52943600  0.21100800  0.56403900  1
  Na  Na3  1  0.47056400  0.78899200  0.43596100  1
  Na  Na4  1  0.46791800  0.85907900  0.90949800  1
  Na  Na5  1  0.53208200  0.14092100  0.09050200  1
  Na  Na6  1  0.96791800  0.14092100  0.59050200  1
  Na  Na7  1  0.03208200  0.85907900  0.40949800  1
  Ga  Ga0  1  0.28432000  0.84811400  0.59253700  1
  Ga  Ga1  1  0.71568000  0.15188600  0.40746300  1
  Ga  Ga2  1  0.78432000  0.15188600  0.90746300  1
  Ga  Ga3  1  0.21568000  0.84811400  0.09253700  1
  Ga  Ga4  1  0.78534500  0.81470000  0.76519900  1
  Ga  Ga5  1  0.21465500  0.18530000  0.23480100  1
  Ga  Ga6  1  0.28534500  0.18530000  0.73480100  1
  Ga  Ga7  1  0.71465500  0.81470000  0.26519900  1
  Ga  Ga8  1  0.28687200  0.47009500  0.92205600  1
  Ga  Ga9  1  0.71312800  0.52990500  0.07794400  1
  Ga  Ga10  1  0.78687200  0.52990500  0.57794400  1
  Ga  Ga11  1  0.21312800  0.47009500  0.42205600  1
  Si  Si0  1  0.17075900  0.52730000  0.57692000  1
  Si  Si1  1  0.82924100  0.47270000  0.42308000  1
  Si  Si2  1  0.67075900  0.47270000  0.92308000  1
  Si  Si3  1  0.32924100  0.52730000  0.07692000  1
  Si  Si4  1  0.16958200  0.81643200  0.76548100  1
  Si  Si5  1  0.83041800  0.18356800  0.23451900  1
  Si  Si6  1  0.66958200  0.18356800  0.73451900  1
  Si  Si7  1  0.33041800  0.81643200  0.26548100  1
  Si  Si8  1  0.66989600  0.85042200  0.58985600  1
  Si  Si9  1  0.33010400  0.14957800  0.41014400  1
  Si  Si10  1  0.16989600  0.14957800  0.91014400  1
  Si  Si11  1  0.83010400  0.85042200  0.08985600  1
  O  O0  1  0.76579600  0.74944300  0.68146200  1
  O  O1  1  0.23420400  0.25055700  0.31853800  1
  O  O2  1  0.26579600  0.25055700  0.81853800  1
  O  O3  1  0.73420400  0.74944300  0.18146200  1
  O  O4  1  0.99219900  0.61484800  0.55252000  1
  O  O5  1  0.00780100  0.38515200  0.44748000  1
  O  O6  1  0.49219900  0.38515200  0.94748000  1
  O  O7  1  0.50780100  0.61484800  0.05252000  1
  O  O8  1  0.15521500  0.28061400  0.95098300  1
  O  O9  1  0.84478500  0.71938600  0.04901700  1
  O  O10  1  0.65521500  0.71938600  0.54901700  1
  O  O11  1  0.34478500  0.28061400  0.45098300  1
  O  O12  1  0.99074400  0.76761600  0.80874400  1
  O  O13  1  0.00925600  0.23238400  0.19125600  1
  O  O14  1  0.49074400  0.23238400  0.69125600  1
  O  O15  1  0.50925600  0.76761600  0.30874400  1
  O  O16  1  0.25390000  0.94872800  0.79291500  1
  O  O17  1  0.74610000  0.05127200  0.20708500  1
  O  O18  1  0.75390000  0.05127200  0.70708500  1
  O  O19  1  0.24610000  0.94872800  0.29291500  1
  O  O20  1  0.49085900  0.90165800  0.60777600  1
  O  O21  1  0.50914100  0.09834200  0.39222400  1
  O  O22  1  0.99085900  0.09834200  0.89222400  1
  O  O23  1  0.00914100  0.90165800  0.10777600  1
  O  O24  1  0.15582200  0.31563100  0.64112600  1
  O  O25  1  0.84417800  0.68436900  0.35887400  1
  O  O26  1  0.65582200  0.68436900  0.85887400  1
  O  O27  1  0.34417800  0.31563100  0.14112600  1
  O  O28  1  0.26731400  0.61429500  0.62625600  1
  O  O29  1  0.73268600  0.38570500  0.37374400  1
  O  O30  1  0.76731400  0.38570500  0.87374400  1
  O  O31  1  0.23268600  0.61429500  0.12625600  1
  O  O32  1  0.26391000  0.96789900  0.97607300  1
  O  O33  1  0.73609000  0.03210100  0.02392700  1
  O  O34  1  0.76391000  0.03210100  0.52392700  1
  O  O35  1  0.23609000  0.96789900  0.47607300  1
  O  O36  1  0.15486800  0.90222400  0.66015500  1
  O  O37  1  0.84513200  0.09777600  0.33984500  1
  O  O38  1  0.65486800  0.09777600  0.83984500  1
  O  O39  1  0.34513200  0.90222400  0.16015500  1
  O  O40  1  0.23555100  0.57458700  0.98688600  1
  O  O41  1  0.76444900  0.42541300  0.01311400  1
  O  O42  1  0.73555100  0.42541300  0.51311400  1
  O  O43  1  0.26444900  0.57458700  0.48688600  1
  O  O44  1  0.27069600  0.63366200  0.80651700  1
  O  O45  1  0.72930400  0.36633800  0.19348300  1
  O  O46  1  0.77069600  0.36633800  0.69348300  1
  O  O47  1  0.22930400  0.63366200  0.30651700  1
loop_
_geom_bond_atom_site_label_1
_geom_bond_atom_site_label_2
_geom_bond_distance
_geom_bond_site_symmetry_2
K0 O46 2.700073 1_555
K0 O30 2.725990 1_555
K0 O0 2.749509 1_555
K0 O2 2.961232 1_655
K0 O44 2.972229 1_655
K0 O28 2.982500 1_655
K0 O12 3.025345 1_555
K0 O4 3.170588 1_555
K0 O22 3.189669 1_555
K1 O47 2.700073 1_555
K1 O31 2.725990 1_555
K1 O1 2.749509 1_555
K1 O3 2.961232 1_455
K1 O45 2.972229 1_455
K1 O29 2.982500 1_455
K1 O13 3.025345 1_555
K1 O5 3.170588 1_555
K1 O23 3.189669 1_555
K2 O44 2.700073 1_555
K2 O28 2.725990 1_555
K2 O2 2.749509 1_555
K2 O0 2.961232 1_555
K2 O46 2.972229 1_555
K2 O30 2.982500 1_555
K2 O14 3.025345 1_555
K2 O6 3.170588 1_555
K2 O20 3.189669 1_555
K3 O45 2.700073 1_555
K3 O29 2.725990 1_555
K3 O3 2.749509 1_555
K3 O1 2.961232 1_555
K3 O47 2.972229 1_555
K3 O31 2.982500 1_555
K3 O15 3.025345 1_555
K3 O7 3.170588 1_555
K3 O21 3.189669 1_555
Na0 O9 2.377347 1_456
Na0 O40 2.396011 1_555
Na0 O12 2.396220 1_455
Na0 O22 2.473987 1_465
Na0 O32 2.835212 1_555
Na0 O16 2.923204 1_555
Na1 O8 2.377347 1_654
Na1 O41 2.396011 1_555
Na1 O13 2.396220 1_655
Na1 O23 2.473987 1_645
Na1 O33 2.835212 1_555
Na1 O17 2.923204 1_555
Na2 O11 2.377347 1_555
Na2 O42 2.396011 1_555
Na2 O14 2.396220 1_555
Na2 O20 2.473987 1_545
Na2 O34 2.835212 1_555
Na2 O18 2.923204 1_555
Na3 O10 2.377347 1_555
Na3 O43 2.396011 1_555
Na3 O15 2.396220 1_555
Na3 O21 2.473987 1_565
Na3 O35 2.835212 1_555
Na3 O19 2.923204 1_555
Na4 O7 2.425998 1_556
Na4 O38 2.429706 1_565
Na4 O32 2.534368 1_555
Na4 O16 2.566456 1_555
Na4 O26 2.663762 1_555
Na4 O40 2.941903 1_555
Na5 O6 2.425998 1_554
Na5 O39 2.429706 1_545
Na5 O33 2.534368 1_555
Na5 O17 2.566456 1_555
Na5 O27 2.663762 1_555
Na5 O41 2.941903 1_555
Na6 O5 2.425998 1_655
Na6 O36 2.429706 1_645
Na6 O34 2.534368 1_555
Na6 O18 2.566456 1_555
Na6 O24 2.663762 1_655
Na6 O42 2.941903 1_555
Na7 O4 2.425998 1_455
Na7 O37 2.429706 1_465
Na7 O35 2.534368 1_555
Na7 O19 2.566456 1_555
Na7 O25 2.663762 1_455
Na7 O43 2.941903 1_555
Ga0 O20 1.856057 1_555
Ga0 O28 1.856601 1_555
Ga0 O36 1.857127 1_555
Ga0 O35 1.857730 1_555
Ga1 O21 1.856057 1_555
Ga1 O29 1.856601 1_555
Ga1 O37 1.857127 1_555
Ga1 O34 1.857730 1_555
Ga2 O22 1.856057 1_555
Ga2 O30 1.856601 1_555
Ga2 O38 1.857127 1_555
Ga2 O33 1.857730 1_556
Ga3 O23 1.856057 1_555
Ga3 O31 1.856601 1_555
Ga3 O39 1.857127 1_555
Ga3 O32 1.857730 1_554
Ga4 O18 1.843673 1_565
Ga4 O26 1.849646 1_555
Ga4 O12 1.856158 1_555
Ga4 O0 1.859271 1_555
Ga5 O19 1.843673 1_545
Ga5 O27 1.849646 1_555
Ga5 O13 1.856158 1_555
Ga5 O1 1.859271 1_555
Ga6 O16 1.843673 1_545
Ga6 O24 1.849646 1_555
Ga6 O14 1.856158 1_555
Ga6 O2 1.859271 1_555
Ga7 O17 1.843673 1_565
Ga7 O25 1.849646 1_555
Ga7 O15 1.856158 1_555
Ga7 O3 1.859271 1_555
Ga8 O6 1.849069 1_555
Ga8 O44 1.854285 1_555
Ga8 O40 1.856197 1_555
Ga8 O8 1.859574 1_555
Ga9 O7 1.849069 1_555
Ga9 O45 1.854285 1_555
Ga9 O41 1.856197 1_555
Ga9 O9 1.859574 1_555
Ga10 O4 1.849069 1_555
Ga10 O46 1.854285 1_555
Ga10 O42 1.856197 1_555
Ga10 O10 1.859574 1_555
Ga11 O5 1.849069 1_555
Ga11 O47 1.854285 1_555
Ga11 O43 1.856197 1_555
Ga11 O11 1.859574 1_555
O0 Si8 1.640422 1_555
O1 Si9 1.640422 1_555
O2 Si10 1.640422 1_555
O3 Si11 1.640422 1_555
O4 Si0 1.647629 1_655
O5 Si1 1.647629 1_455
O6 Si2 1.647629 1_555
O7 Si3 1.647629 1_555
O8 Si10 1.653041 1_555
O9 Si11 1.653041 1_555
O10 Si8 1.653041 1_555
O11 Si9 1.653041 1_555
O12 Si4 1.648892 1_655
O13 Si5 1.648892 1_455
O14 Si6 1.648892 1_555
O15 Si7 1.648892 1_555
O16 Si4 1.638557 1_555
O17 Si5 1.638557 1_555
O18 Si6 1.638557 1_555
O19 Si7 1.638557 1_555
O20 Si8 1.649267 1_555
O21 Si9 1.649267 1_555
O22 Si10 1.649267 1_655
O23 Si11 1.649267 1_455
O24 Si0 1.652635 1_555
O25 Si1 1.652635 1_555
O26 Si2 1.652635 1_555
O27 Si3 1.652635 1_555
O28 Si0 1.643900 1_555
O29 Si1 1.643900 1_555
O30 Si2 1.643900 1_555
O31 Si3 1.643900 1_555
O32 Si10 1.654611 1_565
O33 Si11 1.654611 1_545
O34 Si8 1.654611 1_545
O35 Si9 1.654611 1_565
O36 Si4 1.652367 1_555
O37 Si5 1.652367 1_555
O38 Si6 1.652367 1_555
O39 Si7 1.652367 1_555
O40 Si3 1.650535 1_556
O41 Si2 1.650535 1_554
O42 Si1 1.650535 1_555
O43 Si0 1.650535 1_555
O44 Si4 1.647582 1_555
O45 Si5 1.647582 1_555
O46 Si6 1.647582 1_555
O47 Si7 1.647582 1_555
