# generated using pymatgen
data_BaHf(SiO3)3
_symmetry_space_group_name_H-M   'P 1'
_cell_length_a   6.83591161
_cell_length_b   6.83591161
_cell_length_c   10.11018000
_cell_angle_alpha   90.00000000
_cell_angle_beta   90.00000000
_cell_angle_gamma   119.99999623
_symmetry_Int_Tables_number   1
_chemical_formula_structural   BaHf(SiO3)3
_chemical_formula_sum   'Ba2 Hf2 Si6 O18'
_cell_volume   409.14986584
_cell_formula_units_Z   2
loop_
 _symmetry_equiv_pos_site_id
 _symmetry_equiv_pos_as_xyz
  1  'x, y, z'
loop_
 _atom_site_type_symbol
 _atom_site_label
 _atom_site_symmetry_multiplicity
 _atom_site_fract_x
 _atom_site_fract_y
 _atom_site_fract_z
 _atom_site_occupancy
  Ba  Ba0  1  0.00000000  0.00000000  0.00000000  1
  Ba  Ba1  1  0.00000000  0.00000000  0.50000000  1
  Hf  Hf0  1  0.33333300  0.66666700  0.00000000  1
  Hf  Hf1  1  0.33333300  0.66666700  0.50000000  1
  Si  Si0  1  0.94754300  0.39387500  0.75000000  1
  Si  Si1  1  0.60612500  0.55366900  0.75000000  1
  Si  Si2  1  0.44633100  0.05245700  0.75000000  1
  Si  Si3  1  0.94754300  0.55366900  0.25000000  1
  Si  Si4  1  0.60612500  0.05245700  0.25000000  1
  Si  Si5  1  0.44633100  0.39387500  0.25000000  1
  O  O0  1  0.86132300  0.58117300  0.75000000  1
  O  O1  1  0.41882700  0.28015000  0.75000000  1
  O  O2  1  0.71985000  0.13867700  0.75000000  1
  O  O3  1  0.86132300  0.28015000  0.25000000  1
  O  O4  1  0.41882700  0.13867700  0.25000000  1
  O  O5  1  0.71985000  0.58117300  0.25000000  1
  O  O6  1  0.08722000  0.41088400  0.88380000  1
  O  O7  1  0.58911600  0.67633600  0.88380000  1
  O  O8  1  0.32366400  0.91278000  0.88380000  1
  O  O9  1  0.08722000  0.41088400  0.61620000  1
  O  O10  1  0.58911600  0.67633600  0.61620000  1
  O  O11  1  0.32366400  0.91278000  0.61620000  1
  O  O12  1  0.08722000  0.67633600  0.38380000  1
  O  O13  1  0.58911600  0.91278000  0.38380000  1
  O  O14  1  0.32366400  0.41088400  0.38380000  1
  O  O15  1  0.08722000  0.67633600  0.11620000  1
  O  O16  1  0.58911600  0.91278000  0.11620000  1
  O  O17  1  0.32366400  0.41088400  0.11620000  1
loop_
_geom_bond_atom_site_label_1
_geom_bond_atom_site_label_2
_geom_bond_distance
_geom_bond_site_symmetry_2
Ba0 O8 2.819602 1_544
Ba0 O15 2.819602 1_545
Ba0 O6 2.819602 1_554
Ba0 O16 2.819602 1_445
Ba0 O17 2.819602 1_555
Ba0 O7 2.819602 1_444
Ba1 O11 2.819602 1_545
Ba1 O12 2.819602 1_545
Ba1 O9 2.819602 1_555
Ba1 O13 2.819602 1_445
Ba1 O14 2.819602 1_555
Ba1 O10 2.819602 1_445
Hf0 O15 2.079958 1_555
Hf0 O8 2.079958 1_554
Hf0 O16 2.079961 1_555
Hf0 O6 2.079961 1_554
Hf0 O7 2.079963 1_554
Hf0 O17 2.079963 1_555
Hf1 O12 2.079958 1_555
Hf1 O11 2.079958 1_555
Hf1 O13 2.079961 1_555
Hf1 O9 2.079961 1_555
Hf1 O10 2.079963 1_555
Hf1 O14 2.079963 1_555
O0 Si0 1.655692 1_555
O0 Si1 1.658516 1_555
O1 Si1 1.655697 1_555
O1 Si2 1.658509 1_555
O2 Si2 1.655699 1_555
O2 Si0 1.658513 1_555
O3 Si3 1.655699 1_555
O3 Si4 1.658513 1_555
O4 Si4 1.655692 1_555
O4 Si5 1.658516 1_555
O5 Si5 1.655697 1_555
O5 Si3 1.658509 1_555
O6 Si0 1.626066 1_455
O7 Si1 1.626063 1_555
O8 Si2 1.626065 1_565
O9 Si0 1.626066 1_455
O10 Si1 1.626063 1_555
O11 Si2 1.626065 1_565
O12 Si3 1.626065 1_455
O13 Si4 1.626066 1_565
O14 Si5 1.626063 1_555
O15 Si3 1.626065 1_455
O16 Si4 1.626066 1_565
O17 Si5 1.626063 1_555
