# generated using pymatgen
data_VIr
_symmetry_space_group_name_H-M   'P 1'
_cell_length_a   6.60832032
_cell_length_b   6.60832032
_cell_length_c   11.09404278
_cell_angle_alpha   90.00052506
_cell_angle_beta   89.99947494
_cell_angle_gamma   114.93540146
_symmetry_Int_Tables_number   1
_chemical_formula_structural   VIr
_chemical_formula_sum   'V16 Ir16'
_cell_volume   439.31467462
_cell_formula_units_Z   16
loop_
 _symmetry_equiv_pos_site_id
 _symmetry_equiv_pos_as_xyz
  1  'x, y, z'
loop_
 _atom_site_type_symbol
 _atom_site_label
 _atom_site_symmetry_multiplicity
 _atom_site_fract_x
 _atom_site_fract_y
 _atom_site_fract_z
 _atom_site_occupancy
  V  V0  1  0.64422491  0.35577509  0.86414234  1
  V  V1  1  0.35577644  0.64422356  0.13584213  1
  V  V2  1  0.64421803  0.35578197  0.63587501  1
  V  V3  1  0.35577960  0.64422040  0.36414169  1
  V  V4  1  0.36678663  0.63321337  0.88413896  1
  V  V5  1  0.63321639  0.36678361  0.11584450  1
  V  V6  1  0.36678444  0.63321556  0.61587494  1
  V  V7  1  0.63321637  0.36678363  0.38414086  1
  V  V8  1  0.87747413  0.12252587  0.86729386  1
  V  V9  1  0.12252313  0.87747687  0.13269194  1
  V  V10  1  0.87748120  0.12251880  0.63272460  1
  V  V11  1  0.12251961  0.87748039  0.36728830  1
  V  V12  1  0.10170536  0.89829464  0.88501374  1
  V  V13  1  0.89829437  0.10170563  0.11497472  1
  V  V14  1  0.10171090  0.89828910  0.61499928  1
  V  V15  1  0.89829107  0.10170893  0.38501086  1
  Ir  Ir0  1  0.49999738  -0.00000290  -0.00000635  1
  Ir  Ir1  1  0.00000290  0.50000262  -0.00000635  1
  Ir  Ir2  1  0.49999729  0.00000015  0.50000611  1
  Ir  Ir3  1  -0.00000015  0.50000271  0.50000611  1
  Ir  Ir4  1  0.72681404  0.72681407  -0.00000503  1
  Ir  Ir5  1  0.72683716  0.72683990  0.50000442  1
  Ir  Ir6  1  0.27318593  0.27318596  -0.00000503  1
  Ir  Ir7  1  0.27316010  0.27316284  0.50000442  1
  Ir  Ir8  1  0.46686578  0.97806300  0.75000761  1
  Ir  Ir9  1  0.97806455  0.46686759  0.24999318  1
  Ir  Ir10  1  0.53313241  0.02193545  0.24999318  1
  Ir  Ir11  1  0.02193700  0.53313422  0.75000761  1
  Ir  Ir12  1  0.72461595  0.73088636  0.75000853  1
  Ir  Ir13  1  0.73088653  0.72461511  0.24999317  1
  Ir  Ir14  1  0.27538489  0.26911347  0.24999317  1
  Ir  Ir15  1  0.26911364  0.27538405  0.75000853  1
loop_
_geom_bond_atom_site_label_1
_geom_bond_atom_site_label_2
_geom_bond_distance
_geom_bond_site_symmetry_2
V0 V2 2.532408 1_555
V0 V8 2.599284 1_555
V0 V5 2.795086 1_556
V0 V4 3.099386 1_555
V1 V3 2.532765 1_555
V1 V9 2.599330 1_555
V1 V4 2.795098 1_554
V1 V5 3.099405 1_555
V2 V7 2.795440 1_555
V2 V6 3.099341 1_555
V3 V6 2.795432 1_555
V3 V7 3.099376 1_555
V4 V6 2.976133 1_555
V5 V7 2.976491 1_555
V10 V14 2.506270 1_645
V10 V2 2.599439 1_555
V10 V8 2.602321 1_555
V10 V15 2.757910 1_555
V11 V15 2.506255 1_465
V11 V3 2.599403 1_555
V11 V9 2.602622 1_555
V11 V14 2.757878 1_555
V12 V8 2.506287 1_465
V12 V9 2.757529 1_556
V12 V4 2.953763 1_555
V12 V14 2.995552 1_555
V13 V9 2.506257 1_645
V13 V8 2.757561 1_554
V13 V5 2.953726 1_555
V13 V15 2.995792 1_555
V14 V6 2.953677 1_555
V15 V7 2.953689 1_555
Ir0 V5 2.550028 1_555
Ir0 V4 2.550038 1_544
Ir0 V1 2.611111 1_545
Ir0 V0 2.611151 1_554
Ir0 V9 2.709645 1_545
Ir0 V8 2.709662 1_554
Ir0 V12 2.741341 1_544
Ir0 V13 2.741369 1_555
Ir0 Ir8 2.780952 1_544
Ir0 Ir10 2.781103 1_555
Ir0 Ir4 2.790567 1_545
Ir0 Ir6 2.790572 1_555
Ir1 V5 2.550028 1_455
Ir1 V4 2.550038 1_554
Ir1 V1 2.611111 1_555
Ir1 V0 2.611151 1_454
Ir1 V9 2.709645 1_555
Ir1 V8 2.709662 1_454
Ir1 V12 2.741341 1_554
Ir1 V13 2.741369 1_455
Ir1 Ir11 2.780952 1_554
Ir1 Ir9 2.781103 1_455
Ir1 Ir6 2.790567 1_555
Ir1 Ir4 2.790572 1_455
Ir2 V7 2.550106 1_555
Ir2 V6 2.550135 1_545
Ir2 V3 2.611229 1_545
Ir2 V2 2.611268 1_555
Ir2 V11 2.709798 1_545
Ir2 V10 2.709835 1_555
Ir2 V14 2.741352 1_545
Ir2 V15 2.741407 1_555
Ir2 Ir8 2.781122 1_545
Ir2 Ir7 2.790559 1_555
Ir2 Ir5 2.790559 1_545
Ir3 V7 2.550106 1_455
Ir3 V6 2.550135 1_555
Ir3 V3 2.611229 1_555
Ir3 V2 2.611268 1_455
Ir3 V11 2.709798 1_555
Ir3 V10 2.709835 1_455
Ir3 V14 2.741352 1_555
Ir3 V15 2.741407 1_455
Ir3 Ir9 2.781250 1_455
Ir3 Ir5 2.790559 1_455
Ir3 Ir7 2.790559 1_555
Ir4 V5 2.540511 1_555
Ir4 V4 2.540528 1_554
Ir4 V13 2.584878 1_565
Ir4 V12 2.584885 1_654
Ir4 V1 2.729975 1_555
Ir4 V0 2.730018 1_554
Ir4 V9 2.793086 1_655
Ir4 V8 2.793125 1_564
Ir5 V7 2.540693 1_555
Ir5 V6 2.540709 1_555
Ir5 V15 2.584845 1_565
Ir5 V14 2.584875 1_655
Ir5 V3 2.730163 1_555
Ir5 V2 2.730213 1_555
Ir5 V11 2.793049 1_655
Ir5 V10 2.793054 1_565
Ir6 V5 2.540511 1_555
Ir6 V4 2.540528 1_554
Ir6 V13 2.584878 1_455
Ir6 V12 2.584885 1_544
Ir6 V1 2.729975 1_555
Ir6 V0 2.730018 1_554
Ir6 V9 2.793086 1_545
Ir6 V8 2.793125 1_454
Ir7 V7 2.540693 1_555
Ir7 V6 2.540709 1_555
Ir7 V15 2.584845 1_455
Ir7 V14 2.584875 1_545
Ir7 V3 2.730163 1_555
Ir7 V2 2.730213 1_555
Ir7 V11 2.793049 1_545
Ir7 V10 2.793054 1_455
Ir8 V6 2.564002 1_555
Ir8 V4 2.564024 1_555
Ir8 V0 2.596238 1_565
Ir8 V2 2.596271 1_565
Ir8 V14 2.696585 1_555
Ir8 V12 2.696588 1_555
Ir8 V8 2.789800 1_565
Ir8 V10 2.789810 1_565
Ir9 V7 2.564101 1_555
Ir9 V5 2.564124 1_555
Ir9 V1 2.596324 1_655
Ir9 V3 2.596338 1_655
Ir9 V15 2.696663 1_555
Ir9 V13 2.696670 1_555
Ir9 V11 2.789859 1_655
Ir9 V9 2.789885 1_655
Ir10 V7 2.564101 1_555
Ir10 V5 2.564124 1_555
Ir10 V1 2.596324 1_545
Ir10 V3 2.596338 1_545
Ir10 V15 2.696663 1_555
Ir10 V13 2.696670 1_555
Ir10 Ir13 2.780860 1_545
Ir10 Ir2 2.781250 1_555
Ir10 V11 2.789859 1_545
Ir10 V9 2.789885 1_545
Ir10 Ir14 2.813392 1_555
Ir11 V6 2.564002 1_555
Ir11 V4 2.564024 1_555
Ir11 V0 2.596238 1_455
Ir11 V2 2.596271 1_455
Ir11 V14 2.696585 1_555
Ir11 V12 2.696588 1_555
Ir11 Ir12 2.780854 1_455
Ir11 Ir3 2.781122 1_555
Ir11 V8 2.789800 1_455
Ir11 V10 2.789810 1_455
Ir11 Ir15 2.813399 1_555
Ir12 V2 2.630500 1_555
Ir12 V0 2.630566 1_555
Ir12 V4 2.633531 1_555
Ir12 V6 2.633582 1_555
Ir12 V10 2.684583 1_565
Ir12 V8 2.684616 1_565
Ir12 V12 2.711527 1_655
Ir12 V14 2.711564 1_655
Ir12 Ir4 2.773589 1_556
Ir12 Ir5 2.773783 1_555
Ir12 Ir8 2.813399 1_555
Ir13 V3 2.630598 1_555
Ir13 V1 2.630651 1_555
Ir13 V5 2.633659 1_555
Ir13 V7 2.633671 1_555
Ir13 V11 2.684647 1_655
Ir13 V9 2.684685 1_655
Ir13 V15 2.711610 1_565
Ir13 V13 2.711613 1_565
Ir13 Ir4 2.773719 1_555
Ir13 Ir5 2.773863 1_555
Ir13 Ir9 2.813392 1_555
Ir14 V3 2.630598 1_555
Ir14 V1 2.630651 1_555
Ir14 V5 2.633659 1_555
Ir14 V7 2.633671 1_555
Ir14 V11 2.684647 1_545
Ir14 V9 2.684685 1_545
Ir14 V15 2.711610 1_455
Ir14 V13 2.711613 1_455
Ir14 Ir6 2.773719 1_555
Ir14 Ir7 2.773863 1_555
Ir14 Ir9 2.780860 1_455
Ir15 V2 2.630500 1_555
Ir15 V0 2.630566 1_555
Ir15 V4 2.633531 1_555
Ir15 V6 2.633582 1_555
Ir15 V10 2.684583 1_455
Ir15 V8 2.684616 1_455
Ir15 V12 2.711527 1_545
Ir15 V14 2.711564 1_545
Ir15 Ir6 2.773589 1_556
Ir15 Ir7 2.773783 1_555
Ir15 Ir8 2.780854 1_545
