# generated using pymatgen
data_SrMn7N10
_symmetry_space_group_name_H-M   'P 1'
_cell_length_a   6.95772699
_cell_length_b   6.83779900
_cell_length_c   10.08460154
_cell_angle_alpha   90.00000000
_cell_angle_beta   104.22004189
_cell_angle_gamma   90.00000000
_symmetry_Int_Tables_number   1
_chemical_formula_structural   SrMn7N10
_chemical_formula_sum   'Sr2 Mn14 N20'
_cell_volume   465.07963240
_cell_formula_units_Z   2
loop_
 _symmetry_equiv_pos_site_id
 _symmetry_equiv_pos_as_xyz
  1  'x, y, z'
loop_
 _atom_site_type_symbol
 _atom_site_label
 _atom_site_symmetry_multiplicity
 _atom_site_fract_x
 _atom_site_fract_y
 _atom_site_fract_z
 _atom_site_occupancy
  Sr  Sr0  1  0.89683200  0.03451200  0.61742600  1
  Sr  Sr1  1  0.89683200  0.96548800  0.11742600  1
  Mn  Mn0  1  0.54382000  0.00834700  0.83404000  1
  Mn  Mn1  1  0.54382000  0.99165300  0.33404000  1
  Mn  Mn2  1  0.35814400  0.02017800  0.01375000  1
  Mn  Mn3  1  0.35814400  0.97982200  0.51375000  1
  Mn  Mn4  1  0.10003200  0.40496900  0.07767800  1
  Mn  Mn5  1  0.10003200  0.59503100  0.57767800  1
  Mn  Mn6  1  0.68127300  0.38598500  0.97593200  1
  Mn  Mn7  1  0.68127300  0.61401500  0.47593200  1
  Mn  Mn8  1  0.86596400  0.65123700  0.81425100  1
  Mn  Mn9  1  0.86596400  0.34876300  0.31425100  1
  Mn  Mn10  1  0.30662500  0.61179500  0.89728300  1
  Mn  Mn11  1  0.30662500  0.38820500  0.39728300  1
  Mn  Mn12  1  0.47057400  0.37531900  0.69321400  1
  Mn  Mn13  1  0.47057400  0.62468100  0.19321400  1
  N  N0  1  0.76207500  0.87848200  0.84270200  1
  N  N1  1  0.76207500  0.12151800  0.34270200  1
  N  N2  1  0.55938800  0.16019500  0.98313500  1
  N  N3  1  0.55938800  0.83980500  0.48313500  1
  N  N4  1  0.34754500  0.85961600  0.86701900  1
  N  N5  1  0.34754500  0.14038400  0.36701900  1
  N  N6  1  0.16835100  0.17306000  0.02929200  1
  N  N7  1  0.16835100  0.82694000  0.52929200  1
  N  N8  1  0.26139300  0.49435700  0.73271200  1
  N  N9  1  0.26139300  0.50564300  0.23271200  1
  N  N10  1  0.44799900  0.11527800  0.66829100  1
  N  N11  1  0.44799900  0.88472200  0.16829100  1
  N  N12  1  0.87703400  0.36571100  0.13587800  1
  N  N13  1  0.87703400  0.63428900  0.63587800  1
  N  N14  1  0.07622500  0.59021000  0.94832100  1
  N  N15  1  0.07622500  0.40979000  0.44832100  1
  N  N16  1  0.69670700  0.45990300  0.80244700  1
  N  N17  1  0.69670700  0.54009700  0.30244700  1
  N  N18  1  0.52231700  0.54271700  0.03593000  1
  N  N19  1  0.52231700  0.45728300  0.53593000  1
loop_
_geom_bond_atom_site_label_1
_geom_bond_atom_site_label_2
_geom_bond_distance
_geom_bond_site_symmetry_2
Mn0 N0 1.742701 1_545
Mn0 N10 1.795984 1_555
Mn0 N4 1.798043 1_545
Mn0 N2 1.808453 1_555
Mn1 N1 1.742701 1_565
Mn1 N11 1.795984 1_555
Mn1 N5 1.798043 1_565
Mn1 N3 1.808453 1_555
Mn2 N6 1.721295 1_555
Mn2 N2 1.784628 1_554
Mn2 N11 1.788555 1_545
Mn2 N4 1.829419 1_544
Mn3 N7 1.721295 1_555
Mn3 N3 1.784628 1_555
Mn3 N10 1.788555 1_565
Mn3 N5 1.829419 1_565
Mn4 N6 1.758579 1_555
Mn4 N14 1.796500 1_554
Mn4 N12 1.808665 1_455
Mn4 N9 1.821092 1_555
Mn5 N7 1.758579 1_555
Mn5 N15 1.796500 1_555
Mn5 N13 1.808665 1_455
Mn5 N8 1.821092 1_555
Mn6 N18 1.751164 1_556
Mn6 N2 1.771543 1_555
Mn6 N12 1.843037 1_556
Mn6 N16 1.849363 1_555
Mn7 N19 1.751164 1_555
Mn7 N3 1.771543 1_555
Mn7 N13 1.843037 1_555
Mn7 N17 1.849363 1_555
Mn8 N16 1.744649 1_555
Mn8 N0 1.766682 1_555
Mn8 N14 1.780613 1_655
Mn8 N13 1.822961 1_555
Mn9 N17 1.744649 1_555
Mn9 N1 1.766682 1_555
Mn9 N15 1.780613 1_655
Mn9 N12 1.822961 1_555
Mn10 N4 1.757384 1_555
Mn10 N8 1.800460 1_555
Mn10 N14 1.806063 1_555
Mn10 N18 1.843735 1_556
Mn11 N5 1.757384 1_555
Mn11 N9 1.800460 1_555
Mn11 N15 1.806063 1_555
Mn11 N19 1.843735 1_555
Mn12 N16 1.781002 1_555
Mn12 N8 1.795623 1_555
Mn12 N10 1.797252 1_555
Mn12 N19 1.800034 1_555
Mn13 N17 1.781002 1_555
Mn13 N9 1.795623 1_555
Mn13 N11 1.797252 1_555
Mn13 N18 1.800034 1_555
N0 Sr1 2.762684 1_556
N0 Sr0 2.867930 1_565
N1 Sr0 2.762684 1_555
N1 Sr1 2.867930 1_545
N2 Sr1 2.748970 1_546
N3 Sr0 2.748970 1_565
N6 Sr1 2.682964 1_445
N7 Sr0 2.682964 1_465
N12 Sr1 2.748712 1_545
N13 Sr0 2.748712 1_565
