# generated using pymatgen
data_SrLa3Mn4O10
_symmetry_space_group_name_H-M   'P 1'
_cell_length_a   9.07248503
_cell_length_b   9.07248503
_cell_length_c   11.63341458
_cell_angle_alpha   71.29847569
_cell_angle_beta   71.29847569
_cell_angle_gamma   35.90849403
_symmetry_Int_Tables_number   1
_chemical_formula_structural   SrLa3Mn4O10
_chemical_formula_sum   'Sr2 La6 Mn8 O20'
_cell_volume   528.73260141
_cell_formula_units_Z   2
loop_
 _symmetry_equiv_pos_site_id
 _symmetry_equiv_pos_as_xyz
  1  'x, y, z'
loop_
 _atom_site_type_symbol
 _atom_site_label
 _atom_site_symmetry_multiplicity
 _atom_site_fract_x
 _atom_site_fract_y
 _atom_site_fract_z
 _atom_site_occupancy
  Sr  Sr0  1  0.39687800  0.37180800  0.79879600  1
  Sr  Sr1  1  0.62819200  0.60312200  0.20120400  1
  La  La0  1  0.59178000  0.62556200  0.70260200  1
  La  La1  1  0.37443800  0.40822000  0.29739800  1
  La  La2  1  0.90883700  0.87077700  0.06772600  1
  La  La3  1  0.12922300  0.09116300  0.93227400  1
  La  La4  1  0.08894900  0.13728200  0.43258600  1
  La  La5  1  0.86271700  0.91105100  0.56741400  1
  Mn  Mn0  1  0.20184400  0.29647000  0.59853500  1
  Mn  Mn1  1  0.70353000  0.79815600  0.40146500  1
  Mn  Mn2  1  0.79719200  0.70440800  0.90115700  1
  Mn  Mn3  1  0.29559200  0.20280800  0.09884300  1
  Mn  Mn4  1  0.49409600  0.50590400  0.50000000  1
  Mn  Mn5  1  0.50424100  0.49575900  0.00000000  1
  Mn  Mn6  1  0.00326100  0.00360100  0.24944500  1
  Mn  Mn7  1  0.99639900  0.99673900  0.75055500  1
  O  O0  1  0.32237800  0.39876700  0.11468000  1
  O  O1  1  0.60123300  0.67762200  0.88532000  1
  O  O2  1  0.67802400  0.59947700  0.39904000  1
  O  O3  1  0.40052300  0.32197600  0.60096100  1
  O  O4  1  0.26624200  0.77002500  0.60817400  1
  O  O5  1  0.22997500  0.73375800  0.39182600  1
  O  O6  1  0.74229200  0.23871300  0.88667200  1
  O  O7  1  0.76128700  0.25770800  0.11332800  1
  O  O8  1  0.89532600  0.83568900  0.28225800  1
  O  O9  1  0.16431100  0.10467400  0.71774200  1
  O  O10  1  0.12520000  0.14407100  0.22449700  1
  O  O11  1  0.85592900  0.87480000  0.77550300  1
  O  O12  1  0.16281900  0.31998900  0.93245800  1
  O  O13  1  0.68001100  0.83718100  0.06754200  1
  O  O14  1  0.81819400  0.67789000  0.57812100  1
  O  O15  1  0.32211000  0.18180600  0.42187900  1
  O  O16  1  0.72310600  0.24070100  0.38803500  1
  O  O17  1  0.75929900  0.27689400  0.61196500  1
  O  O18  1  0.27343300  0.75886200  0.11177600  1
  O  O19  1  0.24113800  0.72656700  0.88822400  1
loop_
_geom_bond_atom_site_label_1
_geom_bond_atom_site_label_2
_geom_bond_distance
_geom_bond_site_symmetry_2
La0 O1 2.361164 1_555
La0 O14 2.402754 1_555
La0 O4 2.556190 1_555
La0 O9 2.590532 1_565
La0 O17 2.598344 1_555
La0 O19 2.786441 1_555
La0 O6 2.839030 1_555
La0 O9 3.103787 1_655
La1 O0 2.361164 1_555
La1 O15 2.402754 1_555
La1 O5 2.556190 1_555
La1 O8 2.590532 1_455
La1 O16 2.598344 1_555
La1 O18 2.786441 1_555
La1 O7 2.839030 1_555
La1 O8 3.103787 1_545
La2 O13 2.330465 1_555
La2 O8 2.388017 1_555
La2 O19 2.546903 1_654
La2 O0 2.549644 1_655
La2 O6 2.687741 1_564
La2 O7 2.742816 1_565
La2 O18 2.747329 1_655
La2 O0 3.175099 1_565
La3 O12 2.330465 1_555
La3 O9 2.388017 1_555
La3 O18 2.546903 1_546
La3 O1 2.549644 1_545
La3 O7 2.687741 1_456
La3 O6 2.742816 1_455
La3 O19 2.747329 1_545
La3 O1 3.175099 1_455
La4 O10 2.323532 1_555
La4 O15 2.415852 1_555
La4 O2 2.488811 1_455
La4 O17 2.541631 1_455
La4 O4 2.631026 1_545
La4 O16 2.812824 1_455
La4 O5 2.898441 1_545
La4 O2 3.188048 1_545
La5 O11 2.323534 1_555
La5 O14 2.415844 1_555
La5 O3 2.488808 1_565
La5 O16 2.541633 1_565
La5 O5 2.631031 1_655
La5 O17 2.812831 1_565
La5 O4 2.898450 1_655
La5 O3 3.188051 1_655
Mn0 O3 2.003966 1_555
Mn0 O9 2.043649 1_555
Mn0 O15 2.142550 1_555
Mn0 O14 2.153582 1_455
Mn1 O2 2.003962 1_555
Mn1 O8 2.043649 1_555
Mn1 O14 2.142550 1_555
Mn1 O15 2.153582 1_565
Mn2 O1 2.047517 1_555
Mn2 O11 2.048494 1_555
Mn2 O13 2.104518 1_556
Mn2 O12 2.125822 1_655
Mn3 O0 2.047517 1_555
Mn3 O10 2.048494 1_555
Mn3 O12 2.104518 1_554
Mn3 O13 2.125822 1_545
Mn4 O4 1.959649 1_555
Mn4 O5 1.959649 1_555
Mn4 O17 1.994687 1_555
Mn4 O16 1.994687 1_555
Mn4 O2 2.298526 1_555
Mn4 O3 2.298528 1_555
Mn5 O6 1.956502 1_554
Mn5 O7 1.956502 1_555
Mn5 O18 1.980121 1_555
Mn5 O19 1.980121 1_554
Mn5 O1 2.337525 1_554
Mn5 O0 2.337525 1_555
Mn6 O7 2.081219 1_455
Mn6 O5 2.096428 1_545
Mn6 O16 2.103869 1_455
Mn6 O18 2.109476 1_545
Mn6 O10 2.184721 1_555
Mn6 O8 2.286742 1_445
Mn7 O6 2.081219 1_565
Mn7 O4 2.096428 1_655
Mn7 O17 2.103869 1_565
Mn7 O19 2.109476 1_655
Mn7 O11 2.184721 1_555
Mn7 O9 2.286742 1_665
O2 Sr1 2.469141 1_555
O3 Sr0 2.469130 1_555
O4 Sr0 2.997709 1_555
O5 Sr1 2.997709 1_555
O6 Sr0 2.730688 1_555
O7 Sr1 2.730688 1_555
O10 Sr1 2.718391 1_455
O10 Sr1 2.960465 1_545
O11 Sr0 2.718391 1_565
O11 Sr0 2.960465 1_655
O12 Sr0 2.485771 1_555
O13 Sr1 2.485771 1_555
O16 Sr1 2.882292 1_555
O17 Sr0 2.882292 1_555
O18 Sr1 2.697340 1_555
O19 Sr0 2.697340 1_555
