# generated using pymatgen
data_Re3Se4O9
_symmetry_space_group_name_H-M   'P 1'
_cell_length_a   9.87713110
_cell_length_b   9.87713110
_cell_length_c   9.87713078
_cell_angle_alpha   108.69784284
_cell_angle_beta   108.69784284
_cell_angle_gamma   108.69784639
_symmetry_Int_Tables_number   1
_chemical_formula_structural   Re3Se4O9
_chemical_formula_sum   'Re6 Se8 O18'
_cell_volume   762.27191282
_cell_formula_units_Z   2
loop_
 _symmetry_equiv_pos_site_id
 _symmetry_equiv_pos_as_xyz
  1  'x, y, z'
loop_
 _atom_site_type_symbol
 _atom_site_label
 _atom_site_symmetry_multiplicity
 _atom_site_fract_x
 _atom_site_fract_y
 _atom_site_fract_z
 _atom_site_occupancy
  Re  Re0  1  0.92604900  0.92604900  0.69531000  1
  Re  Re1  1  0.69531000  0.92604900  0.92604900  1
  Re  Re2  1  0.92604900  0.69531000  0.92604900  1
  Re  Re3  1  0.07395100  0.07395100  0.30469000  1
  Re  Re4  1  0.30469000  0.07395100  0.07395100  1
  Re  Re5  1  0.07395100  0.30469000  0.07395100  1
  Se  Se0  1  0.81265000  0.10226300  0.81265000  1
  Se  Se1  1  0.81265000  0.81265000  0.10226300  1
  Se  Se2  1  0.10226300  0.81265000  0.81265000  1
  Se  Se3  1  0.18735000  0.89773700  0.18735000  1
  Se  Se4  1  0.18735000  0.18735000  0.89773700  1
  Se  Se5  1  0.89773700  0.18735000  0.18735000  1
  Se  Se6  1  0.71844600  0.71844600  0.71844600  1
  Se  Se7  1  0.28155400  0.28155400  0.28155400  1
  O  O0  1  0.87157700  0.87157700  0.49689300  1
  O  O1  1  0.49689300  0.87157700  0.87157700  1
  O  O2  1  0.87157700  0.49689300  0.87157700  1
  O  O3  1  0.12842300  0.12842300  0.50310700  1
  O  O4  1  0.50310700  0.12842300  0.12842300  1
  O  O5  1  0.12842300  0.50310700  0.12842300  1
  O  O6  1  0.92565100  0.53634400  0.41167700  1
  O  O7  1  0.41167700  0.92565100  0.53634400  1
  O  O8  1  0.53634400  0.41167700  0.92565100  1
  O  O9  1  0.41167700  0.53634400  0.92565100  1
  O  O10  1  0.92565100  0.41167700  0.53634400  1
  O  O11  1  0.53634400  0.92565100  0.41167700  1
  O  O12  1  0.07434900  0.46365600  0.58832300  1
  O  O13  1  0.58832300  0.07434900  0.46365600  1
  O  O14  1  0.46365600  0.58832300  0.07434900  1
  O  O15  1  0.58832300  0.46365600  0.07434900  1
  O  O16  1  0.07434900  0.58832300  0.46365600  1
  O  O17  1  0.46365600  0.07434900  0.58832300  1
loop_
_geom_bond_atom_site_label_1
_geom_bond_atom_site_label_2
_geom_bond_distance
_geom_bond_site_symmetry_2
Re0 Se6 2.523200 1_555
Re0 Se2 2.532969 1_655
Re0 Se0 2.532969 1_565
Re0 Se4 2.536121 1_665
Re1 Se6 2.523200 1_555
Re1 Se0 2.532969 1_565
Re1 Se1 2.532969 1_556
Re1 Se5 2.536121 1_566
Re2 Se6 2.523200 1_555
Re2 Se2 2.532969 1_655
Re2 Se1 2.532969 1_556
Re2 Se3 2.536121 1_656
Re3 Se7 2.523200 1_555
Re3 Se5 2.532969 1_455
Re3 Se3 2.532969 1_545
Re3 Se1 2.536121 1_445
Re4 Se7 2.523200 1_555
Re4 Se3 2.532969 1_545
Re4 Se4 2.532969 1_554
Re4 Se2 2.536121 1_544
Re5 Se7 2.523200 1_555
Re5 Se5 2.532969 1_455
Re5 Se4 2.532969 1_554
Re5 Se0 2.536121 1_454
O0 Re0 1.697656 1_555
O1 Re1 1.697656 1_555
O2 Re2 1.697656 1_555
O3 Re3 1.697656 1_555
O4 Re4 1.697656 1_555
O5 Re5 1.697656 1_555
O10 O12 1.244332 1_655
O11 O13 1.244332 1_565
O14 O9 1.244332 1_554
O15 O8 1.244332 1_554
O16 O6 1.244332 1_455
O17 O7 1.244332 1_545
