# generated using pymatgen
data_SrLa7Ti4(Cu2O11)2
_symmetry_space_group_name_H-M   'P 1'
_cell_length_a   5.60164370
_cell_length_b   5.67172091
_cell_length_c   15.75606800
_cell_angle_alpha   90.00000000
_cell_angle_beta   90.00000000
_cell_angle_gamma   90.09161104
_symmetry_Int_Tables_number   1
_chemical_formula_structural   SrLa7Ti4(Cu2O11)2
_chemical_formula_sum   'Sr1 La7 Ti4 Cu4 O22'
_cell_volume   500.58476129
_cell_formula_units_Z   1
loop_
 _symmetry_equiv_pos_site_id
 _symmetry_equiv_pos_as_xyz
  1  'x, y, z'
loop_
 _atom_site_type_symbol
 _atom_site_label
 _atom_site_symmetry_multiplicity
 _atom_site_fract_x
 _atom_site_fract_y
 _atom_site_fract_z
 _atom_site_occupancy
  Sr  Sr0  1  0.50024900  0.47028800  0.87500000  1
  La  La0  1  0.01042600  0.03981400  0.12105800  1
  La  La1  1  0.01042600  0.03981400  0.62894200  1
  La  La2  1  0.48743300  0.54254300  0.12401300  1
  La  La3  1  0.48743300  0.54254300  0.62598700  1
  La  La4  1  0.51535400  0.45148400  0.37500000  1
  La  La5  1  0.98451600  0.95964100  0.37500000  1
  La  La6  1  0.98591800  0.95349000  0.87500000  1
  Ti  Ti0  1  0.99681200  0.50095900  0.25075600  1
  Ti  Ti1  1  0.99681200  0.50095900  0.49924400  1
  Ti  Ti2  1  0.51063700  0.00273900  0.99779700  1
  Ti  Ti3  1  0.51063700  0.00273900  0.75220300  1
  Cu  Cu0  1  0.99996500  0.50053900  0.00003200  1
  Cu  Cu1  1  0.99996500  0.50053900  0.74996800  1
  Cu  Cu2  1  0.49778200  0.99965900  0.24955200  1
  Cu  Cu3  1  0.49778200  0.99965900  0.50044800  1
  O  O0  1  0.09057800  0.52251800  0.37500000  1
  O  O1  1  0.19130400  0.78735300  0.51894800  1
  O  O2  1  0.22783800  0.79117400  0.01826000  1
  O  O3  1  0.19130400  0.78735300  0.23105200  1
  O  O4  1  0.22783800  0.79117400  0.73174000  1
  O  O5  1  0.29919600  0.27991700  0.02173700  1
  O  O6  1  0.27446000  0.29827300  0.23213400  1
  O  O7  1  0.29919600  0.27991700  0.72826300  1
  O  O8  1  0.27446000  0.29827300  0.51786600  1
  O  O9  1  0.41288500  0.01552600  0.87500000  1
  O  O10  1  0.59320100  0.97382100  0.11754500  1
  O  O11  1  0.59320100  0.97382100  0.63245500  1
  O  O12  1  0.71874900  0.70845700  0.28044600  1
  O  O13  1  0.71874900  0.70845700  0.46955400  1
  O  O14  1  0.72083700  0.73033300  0.77661100  1
  O  O15  1  0.72083700  0.73033300  0.97338900  1
  O  O16  1  0.78808600  0.22350900  0.46895700  1
  O  O17  1  0.78808600  0.22350900  0.28104300  1
  O  O18  1  0.78713900  0.20621800  0.77562000  1
  O  O19  1  0.78713900  0.20621800  0.97438000  1
  O  O20  1  0.90138700  0.47322000  0.61562200  1
  O  O21  1  0.90138700  0.47322000  0.13437800  1
loop_
_geom_bond_atom_site_label_1
_geom_bond_atom_site_label_2
_geom_bond_distance
_geom_bond_site_symmetry_2
La0 O10 2.366984 1_445
La0 O3 2.466797 1_545
La0 O2 2.469980 1_545
La0 O21 2.542530 1_455
La0 O5 2.629253 1_555
La0 O6 2.718895 1_555
La0 O19 2.792848 1_454
La0 O17 2.999155 1_455
La1 O11 2.366984 1_445
La1 O1 2.466797 1_545
La1 O4 2.469980 1_545
La1 O20 2.542530 1_455
La1 O7 2.629253 1_555
La1 O8 2.718895 1_555
La1 O18 2.792848 1_455
La1 O16 2.999155 1_455
La2 O21 2.358202 1_555
La2 O5 2.433593 1_555
La2 O6 2.497900 1_555
La2 O10 2.517961 1_555
La2 O2 2.624137 1_555
La2 O3 2.744314 1_555
La2 O15 2.910612 1_554
La2 O12 2.938651 1_555
La3 O20 2.358202 1_555
La3 O7 2.433593 1_555
La3 O8 2.497900 1_555
La3 O11 2.517961 1_555
La3 O4 2.624137 1_555
La3 O1 2.744314 1_555
La3 O14 2.910612 1_555
La3 O13 2.938651 1_555
La4 O13 2.374141 1_555
La4 O12 2.374141 1_555
La4 O0 2.413946 1_555
La4 O16 2.490737 1_555
La4 O17 2.490737 1_555
La4 O8 2.763924 1_555
La4 O6 2.763924 1_555
La5 O16 2.376410 1_565
La5 O17 2.376410 1_565
La5 O13 2.541389 1_555
La5 O12 2.541389 1_555
La5 O0 2.550357 1_655
La5 O1 2.728430 1_655
La5 O3 2.728430 1_655
La6 O18 2.398219 1_565
La6 O19 2.398219 1_565
La6 O9 2.416903 1_665
La6 O15 2.490790 1_555
La6 O14 2.490790 1_555
La6 O2 2.789796 1_656
La6 O4 2.789796 1_655
Cu0 O15 2.079945 1_554
Cu0 O19 2.089225 1_554
Cu0 O2 2.102936 1_655
Cu0 O5 2.121091 1_655
Cu0 O21 2.193023 1_555
Cu1 O14 2.079945 1_555
Cu1 O18 2.089225 1_555
Cu1 O4 2.102936 1_655
Cu1 O7 2.121091 1_655
Cu1 O20 2.193023 1_555
Cu2 O3 2.115572 1_555
Cu2 O17 2.120370 1_565
Cu2 O12 2.122125 1_555
Cu2 O6 2.124968 1_565
Cu2 O10 2.152545 1_555
Cu3 O1 2.115572 1_555
Cu3 O16 2.120370 1_565
Cu3 O13 2.122125 1_555
Cu3 O8 2.124968 1_565
Cu3 O11 2.152545 1_555
O0 Ti1 2.030471 1_455
O0 Ti0 2.030471 1_455
O1 Ti1 1.978935 1_455
O2 Ti2 2.011771 1_564
O3 Ti0 1.978935 1_455
O4 Ti3 2.011771 1_565
O5 Ti2 2.005618 1_554
O5 Sr0 2.788486 1_554
O6 Ti0 1.957613 1_455
O7 Ti3 2.005618 1_555
O7 Sr0 2.788486 1_555
O8 Ti1 1.957613 1_455
O9 Ti2 2.012129 1_555
O9 Ti3 2.012129 1_555
O9 Sr0 2.624530 1_555
O10 Ti2 1.949589 1_564
O11 Ti3 1.949589 1_565
O12 Ti0 2.008947 1_555
O13 Ti1 2.008947 1_555
O14 Ti3 1.981716 1_565
O14 Sr0 2.469726 1_555
O15 Ti2 1.981716 1_565
O15 Sr0 2.469726 1_555
O16 Ti1 2.016226 1_555
O17 Ti0 2.016226 1_555
O18 Ti3 1.965017 1_555
O18 Sr0 2.699143 1_555
O19 Ti2 1.965017 1_555
O19 Sr0 2.699143 1_555
O20 Ti1 1.916382 1_555
O21 Ti0 1.916382 1_555
