# generated using pymatgen
data_Y3BCl3
_symmetry_space_group_name_H-M   'P 1'
_cell_length_a   9.41889891
_cell_length_b   9.41906104
_cell_length_c   9.41873168
_cell_angle_alpha   109.47074830
_cell_angle_beta   109.47071139
_cell_angle_gamma   109.47206153
_symmetry_Int_Tables_number   1
_chemical_formula_structural   Y3BCl3
_chemical_formula_sum   'Y12 B4 Cl12'
_cell_volume   643.24887549
_cell_formula_units_Z   4
loop_
 _symmetry_equiv_pos_site_id
 _symmetry_equiv_pos_as_xyz
  1  'x, y, z'
loop_
 _atom_site_type_symbol
 _atom_site_label
 _atom_site_symmetry_multiplicity
 _atom_site_fract_x
 _atom_site_fract_y
 _atom_site_fract_z
 _atom_site_occupancy
  Y  Y0  1  0.47043335  0.48521578  0.23521874  1
  Y  Y1  1  0.74999290  0.23521458  0.26478445  1
  Y  Y2  1  0.74999289  0.01477897  0.48520756  1
  Y  Y3  1  0.23522150  0.47044924  0.48522370  1
  Y  Y4  1  0.26479654  0.75001179  0.23521430  1
  Y  Y5  1  0.02955748  0.26477734  0.01477940  1
  Y  Y6  1  0.01477795  0.02955307  0.26477880  1
  Y  Y7  1  0.48521767  0.75000979  0.01479333  1
  Y  Y8  1  0.48521655  0.23520923  0.47042395  1
  Y  Y9  1  0.01477687  0.48522458  0.74999616  1
  Y  Y10  1  0.26479524  0.01478651  0.02958421  1
  Y  Y11  1  0.23522043  0.26477067  0.74999497  1
  B  B0  1  0.24999727  0.24999860  0.25000401  1
  B  B1  1  0.50000791  0.00000558  0.25000424  1
  B  B2  1  -0.00000128  0.24999872  0.49999726  1
  B  B3  1  0.24999735  0.49999750  -0.00000582  1
  Cl  Cl0  1  0.25000027  0.75644250  0.74355226  1
  Cl  Cl1  1  0.51288089  0.50644010  0.75644017  1
  Cl  Cl2  1  0.98710761  0.74355394  0.99355421  1
  Cl  Cl3  1  0.74356147  0.25000088  0.75644101  1
  Cl  Cl4  1  0.99355164  0.98710711  0.74355241  1
  Cl  Cl5  1  0.24999980  0.99355863  0.50644572  1
  Cl  Cl6  1  0.75644689  0.51289256  0.50644750  1
  Cl  Cl7  1  0.50644424  0.25000157  0.99355556  1
  Cl  Cl8  1  0.75644723  0.74355433  0.24999866  1
  Cl  Cl9  1  0.74356230  0.99356131  0.98712152  1
  Cl  Cl10  1  0.99355280  0.50644285  0.24999887  1
  Cl  Cl11  1  0.50644425  0.75644328  0.51288985  1
loop_
_geom_bond_atom_site_label_1
_geom_bond_atom_site_label_2
_geom_bond_distance
_geom_bond_site_symmetry_2
B0 Y8 2.563245 1_555
B0 Y10 2.563273 1_555
B0 Y6 2.563285 1_555
B0 Y0 2.563289 1_555
B0 Y5 2.563311 1_555
B0 Y3 2.563337 1_555
B1 Y1 2.563152 1_555
B1 Y2 2.563156 1_555
B1 Y10 2.563159 1_555
B1 Y4 2.563170 1_545
B1 Y8 2.563186 1_555
B1 Y7 2.563196 1_545
B2 Y1 2.563269 1_455
B2 Y2 2.563279 1_455
B2 Y3 2.563323 1_555
B2 Y6 2.563325 1_555
B2 Y11 2.563326 1_555
B2 Y9 2.563343 1_555
B3 Y7 2.563275 1_555
B3 Y4 2.563304 1_555
B3 Y0 2.563309 1_555
B3 Y9 2.563316 1_554
B3 Y5 2.563325 1_555
B3 Y11 2.563356 1_554
Cl0 Y9 2.803213 1_555
Cl0 Y7 2.803254 1_556
Cl0 Y3 2.889766 1_555
Cl0 Y10 2.889974 1_566
Cl1 Y3 2.803199 1_555
Cl1 Y11 2.803199 1_555
Cl1 Y8 2.889971 1_555
Cl1 Y7 2.889987 1_556
Cl2 Y10 2.803268 1_666
Cl2 Y4 2.803270 1_656
Cl2 Y6 2.889820 1_666
Cl2 Y9 2.889836 1_655
Cl3 Y9 2.803194 1_655
Cl3 Y2 2.803238 1_555
Cl3 Y5 2.889812 1_656
Cl3 Y8 2.889884 1_555
Cl4 Y11 2.803240 1_665
Cl4 Y5 2.803273 1_666
Cl4 Y2 2.889918 1_565
Cl4 Y10 2.890027 1_666
Cl5 Y6 2.803199 1_565
Cl5 Y8 2.803243 1_565
Cl5 Y11 2.889751 1_565
Cl5 Y4 2.889939 1_555
Cl6 Y8 2.803265 1_555
Cl6 Y1 2.803266 1_555
Cl6 Y9 2.889762 1_655
Cl6 Y0 2.889864 1_555
Cl7 Y0 2.803256 1_556
Cl7 Y10 2.803266 1_556
Cl7 Y11 2.889793 1_555
Cl7 Y1 2.889860 1_556
Cl8 Y7 2.803264 1_555
Cl8 Y2 2.803271 1_565
Cl8 Y6 2.889779 1_665
Cl8 Y0 2.889901 1_555
Cl9 Y6 2.803177 1_666
Cl9 Y1 2.803230 1_566
Cl9 Y5 2.889791 1_666
Cl9 Y7 2.889873 1_556
Cl10 Y3 2.803222 1_655
Cl10 Y5 2.803262 1_655
Cl10 Y1 2.889909 1_555
Cl10 Y4 2.890032 1_655
Cl11 Y0 2.803253 1_555
Cl11 Y4 2.803259 1_555
Cl11 Y3 2.889783 1_555
Cl11 Y2 2.889874 1_565
