# generated using pymatgen
data_CaNi2S5
_symmetry_space_group_name_H-M   'P 1'
_cell_length_a   3.92711800
_cell_length_b   6.83794900
_cell_length_c   13.11459900
_cell_angle_alpha   90.00000000
_cell_angle_beta   90.00000000
_cell_angle_gamma   90.00000000
_symmetry_Int_Tables_number   1
_chemical_formula_structural   CaNi2S5
_chemical_formula_sum   'Ca2 Ni4 S10'
_cell_volume   352.17200034
_cell_formula_units_Z   2
loop_
 _symmetry_equiv_pos_site_id
 _symmetry_equiv_pos_as_xyz
  1  'x, y, z'
loop_
 _atom_site_type_symbol
 _atom_site_label
 _atom_site_symmetry_multiplicity
 _atom_site_fract_x
 _atom_site_fract_y
 _atom_site_fract_z
 _atom_site_occupancy
  Ca  Ca0  1  0.50000000  0.62061100  0.00000000  1
  Ca  Ca1  1  0.00000000  0.37938900  0.50000000  1
  Ni  Ni0  1  0.00000000  0.05506600  0.85123500  1
  Ni  Ni1  1  0.50000000  0.94493400  0.64876500  1
  Ni  Ni2  1  0.50000000  0.94493400  0.35123500  1
  Ni  Ni3  1  0.00000000  0.05506600  0.14876500  1
  S  S0  1  0.50000000  0.09280700  0.50000000  1
  S  S1  1  0.00000000  0.90719300  0.00000000  1
  S  S2  1  0.50000000  0.90448400  0.81495000  1
  S  S3  1  0.00000000  0.09551600  0.68505000  1
  S  S4  1  0.50000000  0.90448400  0.18505000  1
  S  S5  1  0.00000000  0.09551600  0.31495000  1
  S  S6  1  0.00000000  0.35858700  0.07987900  1
  S  S7  1  0.50000000  0.64141300  0.42012100  1
  S  S8  1  0.50000000  0.64141300  0.57987900  1
  S  S9  1  0.00000000  0.35858700  0.92012100  1
loop_
_geom_bond_atom_site_label_1
_geom_bond_atom_site_label_2
_geom_bond_distance
_geom_bond_site_symmetry_2
Ca0 S1 2.774117 1_655
Ca0 S1 2.774117 1_555
Ca0 S6 2.857132 1_555
Ca0 S6 2.857132 1_655
Ca0 S9 2.857132 1_654
Ca0 S9 2.857132 1_554
Ca0 S2 3.107658 1_554
Ca0 S4 3.107658 1_555
Ca1 S0 2.774117 1_455
Ca1 S0 2.774117 1_555
Ca1 S8 2.857132 1_555
Ca1 S8 2.857132 1_455
Ca1 S7 2.857132 1_455
Ca1 S7 2.857132 1_555
Ca1 S5 3.107658 1_555
Ca1 S3 3.107658 1_555
Ni0 S3 2.196931 1_555
Ni0 S1 2.197452 1_546
Ni0 S9 2.263558 1_555
Ni0 S2 2.267650 1_445
Ni0 S2 2.267650 1_545
Ni1 S2 2.196931 1_555
Ni1 S0 2.197452 1_565
Ni1 S8 2.263558 1_555
Ni1 S3 2.267650 1_565
Ni1 S3 2.267650 1_665
Ni2 S4 2.196931 1_555
Ni2 S0 2.197452 1_565
Ni2 S7 2.263558 1_555
Ni2 S5 2.267650 1_565
Ni2 S5 2.267650 1_665
Ni3 S5 2.196931 1_555
Ni3 S1 2.197452 1_545
Ni3 S6 2.263558 1_555
Ni3 S4 2.267650 1_445
Ni3 S4 2.267650 1_545
S6 S9 2.095162 1_554
S7 S8 2.095162 1_555
