# generated using pymatgen
data_CeNb2InO6
_symmetry_space_group_name_H-M   'P 1'
_cell_length_a   5.69293389
_cell_length_b   5.77708918
_cell_length_c   5.69293389
_cell_angle_alpha   60.48071638
_cell_angle_beta   90.00000000
_cell_angle_gamma   119.51928362
_symmetry_Int_Tables_number   1
_chemical_formula_structural   CeNb2InO6
_chemical_formula_sum   'Ce1 Nb2 In1 O6'
_cell_volume   134.29429762
_cell_formula_units_Z   1
loop_
 _symmetry_equiv_pos_site_id
 _symmetry_equiv_pos_as_xyz
  1  'x, y, z'
loop_
 _atom_site_type_symbol
 _atom_site_label
 _atom_site_symmetry_multiplicity
 _atom_site_fract_x
 _atom_site_fract_y
 _atom_site_fract_z
 _atom_site_occupancy
  Ce  Ce0  1  -0.00000000  -0.00000000  0.00000000  1
  Nb  Nb0  1  0.25000000  0.50000000  0.25000000  1
  Nb  Nb1  1  0.75000000  0.50000000  0.75000000  1
  In  In0  1  0.50000000  -0.00000000  0.50000000  1
  O  O0  1  0.50000000  -0.00000000  0.00000000  1
  O  O1  1  -0.00000000  -0.00000000  0.50000000  1
  O  O2  1  0.43719303  0.48071861  0.56280697  1
  O  O3  1  0.04352557  0.48071861  0.95647443  1
  O  O4  1  0.56280697  0.51928139  0.04352557  1
  O  O5  1  0.95647443  0.51928139  0.43719303  1
loop_
_geom_bond_atom_site_label_1
_geom_bond_atom_site_label_2
_geom_bond_distance
_geom_bond_site_symmetry_2
Ce0 O2 2.545416 1_554
Ce0 O5 2.545416 1_445
Ce0 O4 2.545416 1_445
Ce0 O3 2.545416 1_554
Ce0 O0 2.846467 1_555
Ce0 O1 2.846467 1_555
Ce0 O1 2.846467 1_554
Ce0 O0 2.846467 1_455
Nb0 O5 2.059318 1_455
Nb0 O3 2.059318 1_554
Nb0 O2 2.059318 1_555
Nb0 O4 2.059318 1_555
Nb0 O1 2.071836 1_555
Nb0 O0 2.071836 1_565
Nb1 O4 2.059318 1_556
Nb1 O3 2.059318 1_655
Nb1 O2 2.059318 1_555
Nb1 O5 2.059318 1_555
Nb1 O0 2.071836 1_556
Nb1 O1 2.071836 1_665
In0 O2 2.672314 1_545
In0 O5 2.672314 1_555
In0 O4 2.672314 1_555
In0 O3 2.672314 1_545
