# generated using pymatgen
data_GePb3
_symmetry_space_group_name_H-M   'P 1'
_cell_length_a   6.01681106
_cell_length_b   6.01681106
_cell_length_c   6.01681106
_cell_angle_alpha   132.18542550
_cell_angle_beta   132.18542550
_cell_angle_gamma   69.93632467
_symmetry_Int_Tables_number   1
_chemical_formula_structural   GePb3
_chemical_formula_sum   'Ge1 Pb3'
_cell_volume   117.26149137
_cell_formula_units_Z   1
loop_
 _symmetry_equiv_pos_site_id
 _symmetry_equiv_pos_as_xyz
  1  'x, y, z'
loop_
 _atom_site_type_symbol
 _atom_site_label
 _atom_site_symmetry_multiplicity
 _atom_site_fract_x
 _atom_site_fract_y
 _atom_site_fract_z
 _atom_site_occupancy
  Ge  Ge0  1  0.00000000  0.00000000  0.00000000  1
  Pb  Pb0  1  0.75000000  0.25000000  0.50000000  1
  Pb  Pb1  1  0.25000000  0.75000000  0.50000000  1
  Pb  Pb2  1  0.50000000  0.50000000  0.00000000  1
loop_
_geom_bond_atom_site_label_1
_geom_bond_atom_site_label_2
_geom_bond_distance
_geom_bond_site_symmetry_2
Ge0 Pb2 3.448362 1_455
Ge0 Pb2 3.448362 1_545
Ge0 Pb2 3.448362 1_556
Ge0 Pb2 3.448362 1_444
Ge0 Pb1 3.467464 1_544
Ge0 Pb1 3.467464 1_555
Ge0 Pb1 3.467464 1_545
Ge0 Pb0 3.467464 1_444
Ge0 Pb0 3.467464 1_455
Ge0 Pb0 3.467464 1_454
Ge0 Pb0 3.467464 1_555
Ge0 Pb1 3.467464 1_444
Pb0 Pb1 3.448362 1_656
Pb0 Pb1 3.448362 1_645
Pb0 Pb1 3.448362 1_544
Pb0 Pb1 3.448362 1_555
Pb0 Pb2 3.467464 1_556
Pb0 Pb2 3.467464 1_555
Pb0 Pb2 3.467464 1_545
Pb0 Pb2 3.467464 1_656
Pb1 Pb2 3.467464 1_566
Pb1 Pb2 3.467464 1_556
Pb1 Pb2 3.467464 1_555
Pb1 Pb2 3.467464 1_455
