# generated using pymatgen
data_SmY(CoNi)2
_symmetry_space_group_name_H-M   'P 1'
_cell_length_a   5.13703474
_cell_length_b   5.13703474
_cell_length_c   5.13703474
_cell_angle_alpha   121.46582183
_cell_angle_beta   120.06583571
_cell_angle_gamma   88.68296175
_symmetry_Int_Tables_number   1
_chemical_formula_structural   SmY(CoNi)2
_chemical_formula_sum   'Sm1 Y1 Co2 Ni2'
_cell_volume   94.70178499
_cell_formula_units_Z   1
loop_
 _symmetry_equiv_pos_site_id
 _symmetry_equiv_pos_as_xyz
  1  'x, y, z'
loop_
 _atom_site_type_symbol
 _atom_site_label
 _atom_site_symmetry_multiplicity
 _atom_site_fract_x
 _atom_site_fract_y
 _atom_site_fract_z
 _atom_site_occupancy
  Sm  Sm0  1  0.74775700  0.24775700  0.50000000  1
  Y  Y0  1  0.00228500  0.00228500  0.00000000  1
  Co  Co0  1  0.37487300  0.12549100  0.75061800  1
  Co  Co1  1  0.37487300  0.62425500  0.24938200  1
  Ni  Ni0  1  0.37452100  0.62510600  0.74941500  1
  Ni  Ni1  1  0.87569100  0.62510600  0.25058500  1
loop_
_geom_bond_atom_site_label_1
_geom_bond_atom_site_label_2
_geom_bond_distance
_geom_bond_site_symmetry_2
Sm0 Y0 3.131284 1_655
Sm0 Y0 3.131284 1_666
Sm0 Y0 3.136477 1_656
Sm0 Y0 3.136477 1_555
Co0 Co1 2.505193 1_556
Co0 Co1 2.517609 1_545
Co0 Ni1 2.567315 1_445
Co0 Ni0 2.567315 1_545
Co0 Ni0 2.569728 1_555
Co0 Ni1 2.569728 1_556
Co0 Sm0 3.004259 1_455
Co0 Sm0 3.004259 1_556
Co0 Y0 3.007529 1_555
Co0 Y0 3.007529 1_656
Co0 Y0 3.010677 1_556
Co0 Sm0 3.015241 1_555
Co1 Ni0 2.567315 1_555
Co1 Ni1 2.567315 1_455
Co1 Ni1 2.569728 1_555
Co1 Ni0 2.569728 1_554
Co1 Sm0 3.004259 1_454
Co1 Sm0 3.004259 1_555
Co1 Y0 3.007529 1_565
Co1 Y0 3.007529 1_666
Co1 Y0 3.010677 1_555
Co1 Sm0 3.015241 1_565
Ni0 Ni1 2.559957 1_455
Ni0 Ni1 2.571965 1_556
Ni0 Y0 2.959719 1_555
Ni0 Y0 2.959719 1_566
Ni0 Sm0 2.961941 1_555
Ni0 Sm0 2.961941 1_566
Ni0 Sm0 3.053898 1_455
Ni0 Y0 3.055286 1_666
Ni1 Y0 2.959719 1_655
Ni1 Y0 2.959719 1_666
Ni1 Sm0 2.961941 1_554
Ni1 Sm0 2.961941 1_565
Ni1 Sm0 3.053898 1_555
Ni1 Y0 3.055286 1_665
