# generated using pymatgen
data_KYbSe2
_symmetry_space_group_name_H-M   'P 1'
_cell_length_a   8.09876003
_cell_length_b   8.09876003
_cell_length_c   8.09876004
_cell_angle_alpha   30.63489005
_cell_angle_beta   30.63489005
_cell_angle_gamma   30.63489195
_symmetry_Int_Tables_number   1
_chemical_formula_structural   KYbSe2
_chemical_formula_sum   'K1 Yb1 Se2'
_cell_volume   122.29120131
_cell_formula_units_Z   1
loop_
 _symmetry_equiv_pos_site_id
 _symmetry_equiv_pos_as_xyz
  1  'x, y, z'
loop_
 _atom_site_type_symbol
 _atom_site_label
 _atom_site_symmetry_multiplicity
 _atom_site_fract_x
 _atom_site_fract_y
 _atom_site_fract_z
 _atom_site_occupancy
  K  K0  1  0.50000000  0.50000000  0.50000000  1
  Yb  Yb0  1  0.00000000  0.00000000  0.00000000  1
  Se  Se0  1  0.73567500  0.73567500  0.73567500  1
  Se  Se1  1  0.26432500  0.26432500  0.26432500  1
loop_
_geom_bond_atom_site_label_1
_geom_bond_atom_site_label_2
_geom_bond_distance
_geom_bond_site_symmetry_2
K0 Se1 3.347966 1_556
K0 Se0 3.347966 1_554
K0 Se1 3.347966 1_565
K0 Se1 3.347966 1_655
K0 Se0 3.347966 1_545
K0 Se0 3.347966 1_455
Se0 Yb0 2.941499 1_665
Se0 Yb0 2.941499 1_656
Se0 Yb0 2.941499 1_566
Se1 Yb0 2.941499 1_556
Se1 Yb0 2.941499 1_565
Se1 Yb0 2.941499 1_655
