# generated using pymatgen
data_U5P4S
_symmetry_space_group_name_H-M   'P 1'
_cell_length_a   15.98405484
_cell_length_b   15.98405484
_cell_length_c   15.98405541
_cell_angle_alpha   14.11314231
_cell_angle_beta   14.11314231
_cell_angle_gamma   14.11314532
_symmetry_Int_Tables_number   1
_chemical_formula_structural   U5P4S
_chemical_formula_sum   'U5 P4 S1'
_cell_volume   211.34046809
_cell_formula_units_Z   1
loop_
 _symmetry_equiv_pos_site_id
 _symmetry_equiv_pos_as_xyz
  1  'x, y, z'
loop_
 _atom_site_type_symbol
 _atom_site_label
 _atom_site_symmetry_multiplicity
 _atom_site_fract_x
 _atom_site_fract_y
 _atom_site_fract_z
 _atom_site_occupancy
  U  U0  1  0.59964800  0.59964800  0.59964800  1
  U  U1  1  0.40035200  0.40035200  0.40035200  1
  U  U2  1  0.00000000  0.00000000  0.00000000  1
  U  U3  1  0.19969500  0.19969500  0.19969500  1
  U  U4  1  0.80030500  0.80030500  0.80030500  1
  P  P0  1  0.10036300  0.10036300  0.10036300  1
  P  P1  1  0.70006000  0.70006000  0.70006000  1
  P  P2  1  0.29994000  0.29994000  0.29994000  1
  P  P3  1  0.89963700  0.89963700  0.89963700  1
  S  S0  1  0.50000000  0.50000000  0.50000000  1
loop_
_geom_bond_atom_site_label_1
_geom_bond_atom_site_label_2
_geom_bond_distance
_geom_bond_site_symmetry_2
P0 U4 2.763314 1_454
P0 U4 2.763314 1_544
P0 U4 2.763314 1_445
P0 U1 2.765188 1_545
P0 U1 2.765188 1_455
P0 U1 2.765188 1_554
P1 U2 2.766520 1_566
P1 U2 2.766520 1_656
P1 U2 2.766520 1_665
P1 U1 2.772844 1_655
P1 U1 2.772844 1_565
P1 U1 2.772844 1_556
P2 U2 2.766520 1_655
P2 U2 2.766520 1_565
P2 U2 2.766520 1_556
P2 U0 2.772844 1_455
P2 U0 2.772844 1_545
P2 U0 2.772844 1_554
P3 U3 2.763314 1_656
P3 U3 2.763314 1_566
P3 U3 2.763314 1_665
P3 U0 2.765188 1_655
P3 U0 2.765188 1_565
P3 U0 2.765188 1_556
S0 U4 2.756630 1_545
S0 U4 2.756630 1_455
S0 U3 2.756630 1_565
S0 U3 2.756630 1_655
S0 U4 2.756630 1_554
S0 U3 2.756630 1_556
