# generated using pymatgen
data_LiTl6Si2O7
_symmetry_space_group_name_H-M   'P 1'
_cell_length_a   5.19380135
_cell_length_b   9.05865987
_cell_length_c   8.90292922
_cell_angle_alpha   61.86867224
_cell_angle_beta   88.46856677
_cell_angle_gamma   85.41640970
_symmetry_Int_Tables_number   1
_chemical_formula_structural   LiTl6Si2O7
_chemical_formula_sum   'Li1 Tl6 Si2 O7'
_cell_volume   368.18109171
_cell_formula_units_Z   1
loop_
 _symmetry_equiv_pos_site_id
 _symmetry_equiv_pos_as_xyz
  1  'x, y, z'
loop_
 _atom_site_type_symbol
 _atom_site_label
 _atom_site_symmetry_multiplicity
 _atom_site_fract_x
 _atom_site_fract_y
 _atom_site_fract_z
 _atom_site_occupancy
  Li  Li0  1  0.65762000  0.60781700  0.89507100  1
  Tl  Tl0  1  0.71138400  0.72618700  0.35825600  1
  Tl  Tl1  1  0.75431700  0.95393700  0.68248700  1
  Tl  Tl2  1  0.64781200  0.26168800  0.95605300  1
  Tl  Tl3  1  0.17482500  0.31662500  0.59670200  1
  Tl  Tl4  1  0.22849100  0.09012100  0.28867500  1
  Tl  Tl5  1  0.14653800  0.60143800  0.10829000  1
  Si  Si0  1  0.21618900  0.68689400  0.65916500  1
  Si  Si1  1  0.69080200  0.34085700  0.30623500  1
  O  O0  1  0.30939800  0.87423500  0.59388100  1
  O  O1  1  0.37213700  0.54192500  0.82593800  1
  O  O2  1  0.13778600  0.63337100  0.51779400  1
  O  O3  1  0.81354700  0.14342700  0.39345200  1
  O  O4  1  0.77428200  0.43588700  0.10215500  1
  O  O5  1  0.80429800  0.44247300  0.39944700  1
  O  O6  1  0.37157500  0.34080300  0.32112800  1
loop_
_geom_bond_atom_site_label_1
_geom_bond_atom_site_label_2
_geom_bond_distance
_geom_bond_site_symmetry_2
Li0 O4 1.842022 1_556
Li0 O1 1.862873 1_555
Li0 Tl1 2.875754 1_555
O0 Si0 1.624292 1_555
O0 Tl4 2.510608 1_565
O0 Tl1 2.717466 1_555
O1 Si0 1.625036 1_555
O1 Tl2 2.563394 1_555
O2 Si0 1.618458 1_555
O2 Tl0 2.524558 1_455
O2 Tl3 2.604148 1_555
O3 Si1 1.656082 1_555
O3 Tl1 2.353635 1_545
O3 Tl4 2.428770 1_655
O4 Si1 1.665186 1_555
O4 Tl5 2.556643 1_655
O4 Tl2 2.600073 1_554
O5 Si1 1.648238 1_555
O5 Tl0 2.427980 1_555
O5 Tl3 2.455458 1_655
O6 Si1 1.659780 1_555
O6 Tl5 2.447360 1_555
O6 Tl3 2.550786 1_555
O6 Tl4 2.586963 1_555
