# generated using pymatgen
data_Li2Mn3SbO8
_symmetry_space_group_name_H-M   'P 1'
_cell_length_a   6.09794340
_cell_length_b   6.09731297
_cell_length_c   10.34596625
_cell_angle_alpha   106.50936595
_cell_angle_beta   92.13170967
_cell_angle_gamma   61.22301628
_symmetry_Int_Tables_number   1
_chemical_formula_structural   Li2Mn3SbO8
_chemical_formula_sum   'Li4 Mn6 Sb2 O16'
_cell_volume   320.98793233
_cell_formula_units_Z   2
loop_
 _symmetry_equiv_pos_site_id
 _symmetry_equiv_pos_as_xyz
  1  'x, y, z'
loop_
 _atom_site_type_symbol
 _atom_site_label
 _atom_site_symmetry_multiplicity
 _atom_site_fract_x
 _atom_site_fract_y
 _atom_site_fract_z
 _atom_site_occupancy
  Li  Li0  1  0.29799400  0.39158500  0.56798300  1
  Li  Li1  1  0.79707700  0.40345000  0.06679500  1
  Li  Li2  1  0.20199000  0.60835500  0.93200800  1
  Li  Li3  1  0.70303100  0.59635600  0.43317800  1
  Mn  Mn0  1  0.74995200  0.00005500  0.74999100  1
  Mn  Mn1  1  0.24995000  0.99994400  0.74995200  1
  Mn  Mn2  1  0.75006600  0.00005200  0.24996900  1
  Mn  Mn3  1  0.25010200  0.00002300  0.25003700  1
  Mn  Mn4  1  0.00270400  0.99475400  0.50030500  1
  Mn  Mn5  1  0.49725600  0.00524800  0.99967700  1
  Sb  Sb0  1  0.74992100  0.50006900  0.74997400  1
  Sb  Sb1  1  0.24996000  0.50017100  0.25001200  1
  O  O0  1  0.09125300  0.81084700  0.63802700  1
  O  O1  1  0.59211600  0.81512400  0.13404400  1
  O  O2  1  0.40862000  0.18911500  0.86199800  1
  O  O3  1  0.90791000  0.18490700  0.36593600  1
  O  O4  1  0.87452900  0.27216000  0.86839900  1
  O  O5  1  0.35461700  0.24615000  0.36121500  1
  O  O6  1  0.63628500  0.24570900  0.64136800  1
  O  O7  1  0.13407400  0.27226900  0.12912400  1
  O  O8  1  0.09494100  0.24378900  0.63228200  1
  O  O9  1  0.59925500  0.24625500  0.13649700  1
  O  O10  1  0.40502300  0.75617400  0.86770000  1
  O  O11  1  0.90078900  0.75369700  0.36344400  1
  O  O12  1  0.86372100  0.75423000  0.85867100  1
  O  O13  1  0.36592400  0.72784200  0.37097600  1
  O  O14  1  0.62540400  0.72791900  0.63160900  1
  O  O15  1  0.14553500  0.75374800  0.13882900  1
loop_
_geom_bond_atom_site_label_1
_geom_bond_atom_site_label_2
_geom_bond_distance
_geom_bond_site_symmetry_2
Li0 O6 2.030701 1_555
Li0 O5 2.040546 1_555
Li0 O8 2.064966 1_555
Li0 O0 2.135814 1_555
Li1 O4 1.962469 1_554
Li1 O7 1.972458 1_655
Li1 O1 2.097235 1_555
Li1 O9 2.112964 1_555
Li2 O12 2.030366 1_455
Li2 O15 2.041044 1_556
Li2 O10 2.065023 1_555
Li2 O2 2.135679 1_555
Li3 O14 1.962890 1_555
Li3 O13 1.972483 1_555
Li3 O3 2.096099 1_555
Li3 O11 2.113549 1_555
Mn0 O6 1.971301 1_555
Mn0 O12 1.972520 1_545
Mn0 O0 2.027907 1_645
Mn0 O2 2.028332 1_555
Mn0 O14 2.195285 1_545
Mn0 O4 2.195352 1_555
Mn1 O0 1.959300 1_555
Mn1 O2 1.959981 1_565
Mn1 O8 2.043563 1_565
Mn1 O10 2.043924 1_555
Mn1 O14 2.211361 1_555
Mn1 O4 2.211739 1_465
Mn2 O3 1.956114 1_555
Mn2 O1 1.956694 1_545
Mn2 O9 2.017326 1_555
Mn2 O11 2.017949 1_545
Mn2 O15 2.265175 1_645
Mn2 O5 2.265468 1_555
Mn3 O5 1.966380 1_555
Mn3 O15 1.967382 1_545
Mn3 O1 2.052867 1_545
Mn3 O3 2.053263 1_455
Mn3 O13 2.191916 1_545
Mn3 O7 2.191932 1_555
Mn4 O3 1.954993 1_465
Mn4 O0 1.961399 1_555
Mn4 O8 2.018222 1_565
Mn4 O11 2.045154 1_455
Mn4 O13 2.203858 1_555
Mn4 O6 2.268360 1_465
Mn5 O1 1.954853 1_546
Mn5 O2 1.960837 1_555
Mn5 O10 2.018372 1_545
Mn5 O9 2.045067 1_556
Mn5 O7 2.204288 1_556
Mn5 O12 2.268271 1_545
O4 Sb0 1.972660 1_555
O5 Sb1 2.033793 1_555
O6 Sb0 2.033329 1_555
O7 Sb1 1.971429 1_555
O8 Sb0 2.072374 1_455
O9 Sb1 2.071412 1_555
O10 Sb0 2.071912 1_555
O11 Sb1 2.070337 1_655
O12 Sb0 2.033387 1_555
O13 Sb1 1.971099 1_555
O14 Sb0 1.971897 1_555
O15 Sb1 2.031650 1_555
