# generated using pymatgen
data_NaSrTiF6
_symmetry_space_group_name_H-M   'P 1'
_cell_length_a   5.52222300
_cell_length_b   9.61513700
_cell_length_c   10.46386600
_cell_angle_alpha   90.00000000
_cell_angle_beta   90.00000000
_cell_angle_gamma   90.00000000
_symmetry_Int_Tables_number   1
_chemical_formula_structural   NaSrTiF6
_chemical_formula_sum   'Na4 Sr4 Ti4 F24'
_cell_volume   555.59916775
_cell_formula_units_Z   4
loop_
 _symmetry_equiv_pos_site_id
 _symmetry_equiv_pos_as_xyz
  1  'x, y, z'
loop_
 _atom_site_type_symbol
 _atom_site_label
 _atom_site_symmetry_multiplicity
 _atom_site_fract_x
 _atom_site_fract_y
 _atom_site_fract_z
 _atom_site_occupancy
  Na  Na0  1  0.04389400  0.64790400  0.08460600  1
  Na  Na1  1  0.45610600  0.35209600  0.58460600  1
  Na  Na2  1  0.95610600  0.14790400  0.41539400  1
  Na  Na3  1  0.54389400  0.85209600  0.91539400  1
  Sr  Sr0  1  0.50649100  0.31283500  0.17571700  1
  Sr  Sr1  1  0.99350900  0.68716500  0.67571700  1
  Sr  Sr2  1  0.49350900  0.81283500  0.32428300  1
  Sr  Sr3  1  0.00649100  0.18716500  0.82428300  1
  Ti  Ti0  1  0.03735700  0.99933900  0.12586900  1
  Ti  Ti1  1  0.46264300  0.00066100  0.62586900  1
  Ti  Ti2  1  0.96264300  0.49933900  0.37413100  1
  Ti  Ti3  1  0.53735700  0.50066100  0.87413100  1
  F  F0  1  0.20642300  0.14444000  0.58805100  1
  F  F1  1  0.29357700  0.85556000  0.08805100  1
  F  F2  1  0.79357700  0.64444000  0.91194900  1
  F  F3  1  0.70642300  0.35556000  0.41194900  1
  F  F4  1  0.21388200  0.62401500  0.29575200  1
  F  F5  1  0.28611800  0.37598500  0.79575200  1
  F  F6  1  0.78611800  0.12401500  0.20424800  1
  F  F7  1  0.71388200  0.87598500  0.70424800  1
  F  F8  1  0.22079600  0.16338800  0.04619400  1
  F  F9  1  0.27920400  0.83661200  0.54619400  1
  F  F10  1  0.77920400  0.66338800  0.45380600  1
  F  F11  1  0.72079600  0.33661200  0.95380600  1
  F  F12  1  0.16163400  0.33590900  0.31690400  1
  F  F13  1  0.33836600  0.66409100  0.81690400  1
  F  F14  1  0.83836600  0.83590900  0.18309600  1
  F  F15  1  0.66163400  0.16409100  0.68309600  1
  F  F16  1  0.35714400  0.50280100  0.03425300  1
  F  F17  1  0.14285600  0.49719900  0.53425300  1
  F  F18  1  0.64285600  0.00280100  0.46574700  1
  F  F19  1  0.85714400  0.99719900  0.96574700  1
  F  F20  1  0.22070700  0.01931200  0.28554900  1
  F  F21  1  0.27929300  0.98068800  0.78554900  1
  F  F22  1  0.77929300  0.51931200  0.21445100  1
  F  F23  1  0.72070700  0.48068800  0.71445100  1
loop_
_geom_bond_atom_site_label_1
_geom_bond_atom_site_label_2
_geom_bond_distance
_geom_bond_site_symmetry_2
F0 Ti1 2.017357 1_555
F0 Na2 2.275060 1_455
F0 Na1 2.426722 1_555
F0 Sr3 2.738251 1_555
F1 Ti0 2.017357 1_555
F1 Na3 2.275060 1_554
F1 Na0 2.426722 1_555
F1 Sr2 2.738251 1_555
F2 Ti3 2.017357 1_555
F2 Na0 2.275060 1_656
F2 Na3 2.426722 1_555
F2 Sr1 2.738251 1_555
F3 Ti2 2.017357 1_555
F3 Na1 2.275060 1_555
F3 Na2 2.426722 1_555
F3 Sr0 2.738251 1_555
F4 Ti2 2.008626 1_455
F4 Sr2 2.402024 1_555
F4 Na0 2.411515 1_555
F5 Ti3 2.008626 1_555
F5 Sr3 2.402024 1_555
F5 Na1 2.411515 1_555
F6 Ti0 2.008626 1_645
F6 Sr0 2.402024 1_555
F6 Na2 2.411515 1_555
F7 Ti1 2.008626 1_565
F7 Sr1 2.402024 1_555
F7 Na3 2.411515 1_555
F8 Ti0 2.051649 1_545
F8 Sr0 2.527994 1_555
F8 Sr3 2.616238 1_554
F9 Ti1 2.051649 1_565
F9 Sr1 2.527994 1_455
F9 Sr2 2.616238 1_555
F10 Ti2 2.051649 1_555
F10 Sr2 2.527994 1_555
F10 Sr1 2.616238 1_555
F11 Ti3 2.051649 1_555
F11 Sr3 2.527994 1_655
F11 Sr0 2.616238 1_556
F12 Ti2 2.008832 1_455
F12 Na2 2.370237 1_455
F12 Sr0 2.420428 1_555
F13 Ti3 2.008832 1_555
F13 Na3 2.370237 1_555
F13 Sr1 2.420428 1_455
F14 Ti0 2.008832 1_655
F14 Na0 2.370237 1_655
F14 Sr2 2.420428 1_555
F15 Ti1 2.008832 1_555
F15 Na1 2.370237 1_555
F15 Sr3 2.420428 1_655
F16 Ti3 1.948867 1_554
F16 Na0 2.283963 1_555
F16 Sr0 2.491511 1_555
F17 Ti2 1.948867 1_455
F17 Na1 2.283963 1_555
F17 Sr1 2.491511 1_455
F18 Ti1 1.948867 1_555
F18 Na2 2.283963 1_555
F18 Sr2 2.491511 1_545
F19 Ti0 1.948867 1_656
F19 Na3 2.283963 1_555
F19 Sr3 2.491511 1_665
F20 Ti0 1.963121 1_545
F20 Na2 2.347304 1_455
F20 Sr2 2.524910 1_545
F21 Ti1 1.963121 1_565
F21 Na3 2.347304 1_555
F21 Sr3 2.524910 1_565
F22 Ti2 1.963121 1_555
F22 Na0 2.347304 1_655
F22 Sr0 2.524910 1_555
F23 Ti3 1.963121 1_555
F23 Na1 2.347304 1_555
F23 Sr1 2.524910 1_555
