# generated using pymatgen
data_Sm2Fe14B
_symmetry_space_group_name_H-M   'P 1'
_cell_length_a   8.74772900
_cell_length_b   8.74772900
_cell_length_c   12.06148500
_cell_angle_alpha   90.00000000
_cell_angle_beta   90.00000000
_cell_angle_gamma   90.00000000
_symmetry_Int_Tables_number   1
_chemical_formula_structural   Sm2Fe14B
_chemical_formula_sum   'Sm8 Fe56 B4'
_cell_volume   922.97815395
_cell_formula_units_Z   4
loop_
 _symmetry_equiv_pos_site_id
 _symmetry_equiv_pos_as_xyz
  1  'x, y, z'
loop_
 _atom_site_type_symbol
 _atom_site_label
 _atom_site_symmetry_multiplicity
 _atom_site_fract_x
 _atom_site_fract_y
 _atom_site_fract_z
 _atom_site_occupancy
  Sm  Sm0  1  0.23240500  0.76759500  0.50000000  1
  Sm  Sm1  1  0.76759500  0.23240500  0.50000000  1
  Sm  Sm2  1  0.26759500  0.26759500  0.00000000  1
  Sm  Sm3  1  0.73240500  0.73240500  0.00000000  1
  Sm  Sm4  1  0.64335600  0.64335600  0.50000000  1
  Sm  Sm5  1  0.35664400  0.35664400  0.50000000  1
  Sm  Sm6  1  0.85664400  0.14335600  0.00000000  1
  Sm  Sm7  1  0.14335600  0.85664400  0.00000000  1
  Fe  Fe0  1  0.00000000  0.50000000  0.50000000  1
  Fe  Fe1  1  0.50000000  0.00000000  0.00000000  1
  Fe  Fe2  1  0.50000000  0.00000000  0.50000000  1
  Fe  Fe3  1  0.00000000  0.50000000  0.00000000  1
  Fe  Fe4  1  0.50000000  0.50000000  0.11473600  1
  Fe  Fe5  1  0.00000000  0.00000000  0.61473600  1
  Fe  Fe6  1  0.50000000  0.50000000  0.88526400  1
  Fe  Fe7  1  0.00000000  0.00000000  0.38526400  1
  Fe  Fe8  1  0.18263500  0.81736500  0.25420200  1
  Fe  Fe9  1  0.81736500  0.18263500  0.25420200  1
  Fe  Fe10  1  0.31736500  0.31736500  0.75420200  1
  Fe  Fe11  1  0.68263500  0.68263500  0.75420200  1
  Fe  Fe12  1  0.81736500  0.18263500  0.74579800  1
  Fe  Fe13  1  0.18263500  0.81736500  0.74579800  1
  Fe  Fe14  1  0.68263500  0.68263500  0.24579800  1
  Fe  Fe15  1  0.31736500  0.31736500  0.24579800  1
  Fe  Fe16  1  0.40252000  0.59748000  0.29643000  1
  Fe  Fe17  1  0.59748000  0.40252000  0.29643000  1
  Fe  Fe18  1  0.09748000  0.09748000  0.79643000  1
  Fe  Fe19  1  0.90252000  0.90252000  0.79643000  1
  Fe  Fe20  1  0.59748000  0.40252000  0.70357000  1
  Fe  Fe21  1  0.40252000  0.59748000  0.70357000  1
  Fe  Fe22  1  0.90252000  0.90252000  0.20357000  1
  Fe  Fe23  1  0.09748000  0.09748000  0.20357000  1
  Fe  Fe24  1  0.14015900  0.53663900  0.32418500  1
  Fe  Fe25  1  0.85984100  0.46336100  0.32418500  1
  Fe  Fe26  1  0.35984100  0.03663900  0.82418500  1
  Fe  Fe27  1  0.64015900  0.96336100  0.82418500  1
  Fe  Fe28  1  0.85984100  0.46336100  0.67581500  1
  Fe  Fe29  1  0.14015900  0.53663900  0.67581500  1
  Fe  Fe30  1  0.64015900  0.96336100  0.17581500  1
  Fe  Fe31  1  0.35984100  0.03663900  0.17581500  1
  Fe  Fe32  1  0.53663900  0.14015900  0.32418500  1
  Fe  Fe33  1  0.46336100  0.85984100  0.32418500  1
  Fe  Fe34  1  0.03663900  0.35984100  0.82418500  1
  Fe  Fe35  1  0.96336100  0.64015900  0.82418500  1
  Fe  Fe36  1  0.46336100  0.85984100  0.67581500  1
  Fe  Fe37  1  0.53663900  0.14015900  0.67581500  1
  Fe  Fe38  1  0.96336100  0.64015900  0.17581500  1
  Fe  Fe39  1  0.03663900  0.35984100  0.17581500  1
  Fe  Fe40  1  0.93324500  0.72493200  0.37293700  1
  Fe  Fe41  1  0.06675500  0.27506800  0.37293700  1
  Fe  Fe42  1  0.56675500  0.22493200  0.87293700  1
  Fe  Fe43  1  0.43324500  0.77506800  0.87293700  1
  Fe  Fe44  1  0.06675500  0.27506800  0.62706300  1
  Fe  Fe45  1  0.93324500  0.72493200  0.62706300  1
  Fe  Fe46  1  0.43324500  0.77506800  0.12706300  1
  Fe  Fe47  1  0.56675500  0.22493200  0.12706300  1
  Fe  Fe48  1  0.72493200  0.93324500  0.37293700  1
  Fe  Fe49  1  0.27506800  0.06675500  0.37293700  1
  Fe  Fe50  1  0.22493200  0.56675500  0.87293700  1
  Fe  Fe51  1  0.77506800  0.43324500  0.87293700  1
  Fe  Fe52  1  0.27506800  0.06675500  0.62706300  1
  Fe  Fe53  1  0.72493200  0.93324500  0.62706300  1
  Fe  Fe54  1  0.77506800  0.43324500  0.12706300  1
  Fe  Fe55  1  0.22493200  0.56675500  0.12706300  1
  B  B0  1  0.87568100  0.87568100  0.50000000  1
  B  B1  1  0.12431900  0.12431900  0.50000000  1
  B  B2  1  0.62431900  0.37568100  0.00000000  1
  B  B3  1  0.37568100  0.62431900  0.00000000  1
loop_
_geom_bond_atom_site_label_1
_geom_bond_atom_site_label_2
_geom_bond_distance
_geom_bond_site_symmetry_2
Fe0 Fe24 2.470401 1_555
Fe0 Fe25 2.470401 1_455
Fe0 Fe29 2.470401 1_555
Fe0 Fe28 2.470401 1_455
Fe0 Fe40 2.561522 1_455
Fe0 Fe41 2.561522 1_555
Fe0 Fe44 2.561522 1_555
Fe0 Fe45 2.561522 1_455
Fe0 Sm1 3.100440 1_455
Fe0 Sm0 3.100440 1_555
Fe0 Sm5 3.362428 1_555
Fe0 Sm4 3.362428 1_455
Fe1 Fe31 2.470401 1_555
Fe1 Fe30 2.470401 1_545
Fe1 Fe26 2.470401 1_554
Fe1 Fe27 2.470401 1_544
Fe1 Fe47 2.561522 1_555
Fe1 Fe43 2.561522 1_544
Fe1 Fe42 2.561522 1_554
Fe1 Fe46 2.561522 1_545
Fe1 Sm3 3.100440 1_545
Fe1 Sm2 3.100440 1_555
Fe1 Sm6 3.362428 1_555
Fe1 Sm7 3.362428 1_545
Fe2 Fe32 2.470401 1_555
Fe2 Fe33 2.470401 1_545
Fe2 Fe37 2.470401 1_555
Fe2 Fe36 2.470401 1_545
Fe2 Fe49 2.561522 1_555
Fe2 Fe48 2.561522 1_545
Fe2 Fe52 2.561522 1_555
Fe2 Fe53 2.561522 1_545
Fe2 Sm0 3.100440 1_545
Fe2 Sm1 3.100440 1_555
Fe2 Sm4 3.362428 1_545
Fe2 Sm5 3.362428 1_555
Fe3 Fe38 2.470401 1_455
Fe3 Fe39 2.470401 1_555
Fe3 Fe34 2.470401 1_554
Fe3 Fe35 2.470401 1_454
Fe3 Fe55 2.561522 1_555
Fe3 Fe50 2.561522 1_554
Fe3 Fe54 2.561522 1_455
Fe3 Fe51 2.561522 1_454
Fe3 Sm3 3.100440 1_455
Fe3 Sm2 3.100440 1_555
Fe3 Sm7 3.362428 1_555
Fe3 Sm6 3.362428 1_455
Fe4 Sm3 3.190838 1_555
Fe4 Sm2 3.190838 1_555
Fe5 Sm0 3.190838 1_545
Fe5 Sm1 3.190838 1_455
Fe6 Sm2 3.190838 1_556
Fe6 Sm3 3.190838 1_556
Fe7 Fe9 2.757508 1_455
Fe7 Fe8 2.757508 1_545
Fe7 Sm0 3.190838 1_545
Fe7 Sm1 3.190838 1_455
Fe8 Sm0 3.027950 1_555
Fe8 Sm7 3.104321 1_555
Fe9 Sm1 3.027950 1_555
Fe9 Sm6 3.104321 1_555
Fe10 Fe34 2.623185 1_555
Fe10 Fe26 2.623185 1_555
Fe10 Fe20 2.632900 1_555
Fe10 Fe21 2.632900 1_555
Fe10 Fe29 2.641243 1_555
Fe10 Fe37 2.641243 1_555
Fe10 Fe52 2.700837 1_555
Fe10 Fe44 2.700837 1_555
Fe10 Fe42 2.732056 1_555
Fe10 Fe50 2.732056 1_555
Fe10 Fe6 2.757508 1_555
Fe10 Fe18 2.767504 1_555
Fe10 Sm2 3.027950 1_556
Fe10 Sm5 3.104321 1_555
Fe11 Fe35 2.623185 1_555
Fe11 Fe27 2.623185 1_555
Fe11 Fe20 2.632900 1_555
Fe11 Fe21 2.632900 1_555
Fe11 Fe28 2.641243 1_555
Fe11 Fe36 2.641243 1_555
Fe11 Fe53 2.700837 1_555
Fe11 Fe45 2.700837 1_555
Fe11 Fe51 2.732056 1_555
Fe11 Fe43 2.732056 1_555
Fe11 Fe6 2.757508 1_555
Fe11 Fe19 2.767504 1_555
Fe11 Sm3 3.027950 1_556
Fe11 Sm4 3.104321 1_555
Fe12 Fe28 2.623185 1_555
Fe12 Fe37 2.623185 1_555
Fe12 Fe19 2.632900 1_545
Fe12 Fe18 2.632900 1_655
Fe12 Fe27 2.641243 1_545
Fe12 Fe34 2.641243 1_655
Fe12 Fe51 2.700837 1_555
Fe12 Fe42 2.700837 1_555
Fe12 Fe44 2.732056 1_655
Fe12 Fe53 2.732056 1_545
Fe12 Fe5 2.757508 1_655
Fe12 Fe20 2.767504 1_555
Fe12 Sm1 3.027950 1_555
Fe12 Sm6 3.104321 1_556
Fe13 Fe36 2.623185 1_555
Fe13 Fe29 2.623185 1_555
Fe13 Fe18 2.632900 1_565
Fe13 Fe19 2.632900 1_455
Fe13 Fe35 2.641243 1_455
Fe13 Fe26 2.641243 1_565
Fe13 Fe43 2.700837 1_555
Fe13 Fe50 2.700837 1_555
Fe13 Fe52 2.732056 1_565
Fe13 Fe45 2.732056 1_455
Fe13 Fe5 2.757508 1_565
Fe13 Fe21 2.767504 1_555
Fe13 Sm0 3.027950 1_555
Fe13 Sm7 3.104321 1_556
Fe14 Fe30 2.623185 1_555
Fe14 Fe38 2.623185 1_555
Fe14 Fe17 2.632900 1_555
Fe14 Fe16 2.632900 1_555
Fe14 Fe33 2.641243 1_555
Fe14 Fe25 2.641243 1_555
Fe14 Fe40 2.700837 1_555
Fe14 Fe48 2.700837 1_555
Fe14 Fe54 2.732056 1_555
Fe14 Fe46 2.732056 1_555
Fe14 Fe4 2.757508 1_555
Fe14 Fe22 2.767504 1_555
Fe14 Sm3 3.027950 1_555
Fe14 Sm4 3.104321 1_555
Fe15 Fe39 2.623185 1_555
Fe15 Fe31 2.623185 1_555
Fe15 Fe17 2.632900 1_555
Fe15 Fe16 2.632900 1_555
Fe15 Fe24 2.641243 1_555
Fe15 Fe32 2.641243 1_555
Fe15 Fe49 2.700837 1_555
Fe15 Fe41 2.700837 1_555
Fe15 Fe55 2.732056 1_555
Fe15 Fe47 2.732056 1_555
Fe15 Fe4 2.757508 1_555
Fe15 Fe23 2.767504 1_555
Fe15 Sm2 3.027950 1_555
Fe15 Sm5 3.104321 1_555
Fe16 Fe24 2.379630 1_555
Fe16 Fe33 2.379630 1_555
Fe16 Fe17 2.411881 1_555
Fe16 Fe4 2.501392 1_555
Fe16 Fe55 2.580442 1_555
Fe16 Fe46 2.580442 1_555
Fe16 Fe8 2.767504 1_555
Fe16 Sm0 3.233849 1_555
Fe16 Sm5 3.260107 1_555
Fe16 Sm4 3.260107 1_555
Fe17 Fe25 2.379630 1_555
Fe17 Fe32 2.379630 1_555
Fe17 Fe4 2.501392 1_555
Fe17 Fe54 2.580442 1_555
Fe17 Fe47 2.580442 1_555
Fe17 Fe9 2.767504 1_555
Fe17 Sm1 3.233849 1_555
Fe17 Sm5 3.260107 1_555
Fe17 Sm4 3.260107 1_555
Fe18 Fe34 2.379630 1_555
Fe18 Fe26 2.379630 1_555
Fe18 Fe19 2.411881 1_445
Fe18 Fe5 2.501392 1_555
Fe18 Fe52 2.580442 1_555
Fe18 Fe44 2.580442 1_555
Fe18 Sm2 3.233849 1_556
Fe18 Sm6 3.260107 1_456
Fe18 Sm7 3.260107 1_546
Fe19 Fe35 2.379630 1_555
Fe19 Fe27 2.379630 1_555
Fe19 Fe5 2.501392 1_665
Fe19 Fe45 2.580442 1_555
Fe19 Fe53 2.580442 1_555
Fe19 Sm3 3.233849 1_556
Fe19 Sm6 3.260107 1_566
Fe19 Sm7 3.260107 1_656
Fe20 Fe28 2.379630 1_555
Fe20 Fe37 2.379630 1_555
Fe20 Fe21 2.411881 1_555
Fe20 Fe6 2.501392 1_555
Fe20 Fe42 2.580442 1_555
Fe20 Fe51 2.580442 1_555
Fe20 Sm1 3.233849 1_555
Fe20 Sm5 3.260107 1_555
Fe20 Sm4 3.260107 1_555
Fe21 Fe29 2.379630 1_555
Fe21 Fe36 2.379630 1_555
Fe21 Fe6 2.501392 1_555
Fe21 Fe43 2.580442 1_555
Fe21 Fe50 2.580442 1_555
Fe21 Sm0 3.233849 1_555
Fe21 Sm5 3.260107 1_555
Fe21 Sm4 3.260107 1_555
Fe22 Fe38 2.379630 1_555
Fe22 Fe30 2.379630 1_555
Fe22 Fe23 2.411881 1_665
Fe22 Fe7 2.501392 1_665
Fe22 Fe48 2.580442 1_555
Fe22 Fe40 2.580442 1_555
Fe22 Fe8 2.632900 1_655
Fe22 Fe9 2.632900 1_565
Fe22 Sm3 3.233849 1_555
Fe22 Sm6 3.260107 1_565
Fe22 Sm7 3.260107 1_655
Fe23 Fe31 2.379630 1_555
Fe23 Fe39 2.379630 1_555
Fe23 Fe7 2.501392 1_555
Fe23 Fe49 2.580442 1_555
Fe23 Fe41 2.580442 1_555
Fe23 Fe8 2.632900 1_545
Fe23 Fe9 2.632900 1_455
Fe23 Sm2 3.233849 1_555
Fe23 Sm6 3.260107 1_455
Fe23 Sm7 3.260107 1_545
Fe24 Fe41 2.448209 1_555
Fe24 Fe55 2.504444 1_555
Fe24 Fe40 2.516948 1_455
Fe24 Fe39 2.532685 1_555
Fe24 Fe38 2.532685 1_455
Fe24 Fe25 2.534546 1_455
Fe24 Fe8 2.623185 1_555
Fe24 Sm0 3.038064 1_555
Fe24 Sm5 3.249984 1_555
Fe25 Fe40 2.448209 1_555
Fe25 Fe54 2.504444 1_555
Fe25 Fe41 2.516948 1_655
Fe25 Fe38 2.532685 1_555
Fe25 Fe39 2.532685 1_655
Fe25 Fe9 2.623185 1_555
Fe25 Sm1 3.038064 1_555
Fe25 Sm4 3.249984 1_555
Fe26 Fe43 2.448209 1_545
Fe26 Fe52 2.504444 1_555
Fe26 Fe42 2.516948 1_555
Fe26 Fe37 2.532685 1_555
Fe26 Fe36 2.532685 1_545
Fe26 Fe27 2.534546 1_545
Fe26 Sm2 3.038064 1_556
Fe26 Sm7 3.249984 1_546
Fe27 Fe42 2.448209 1_565
Fe27 Fe53 2.504444 1_555
Fe27 Fe43 2.516948 1_555
Fe27 Fe37 2.532685 1_565
Fe27 Fe36 2.532685 1_555
Fe27 Sm3 3.038064 1_556
Fe27 Sm6 3.249984 1_566
Fe28 Fe45 2.448209 1_555
Fe28 Fe51 2.504444 1_555
Fe28 Fe44 2.516948 1_655
Fe28 Fe35 2.532685 1_555
Fe28 Fe34 2.532685 1_655
Fe28 Fe29 2.534546 1_655
Fe28 Sm1 3.038064 1_555
Fe28 Sm4 3.249984 1_555
Fe29 Fe44 2.448209 1_555
Fe29 Fe50 2.504444 1_555
Fe29 Fe45 2.516948 1_455
Fe29 Fe34 2.532685 1_555
Fe29 Fe35 2.532685 1_455
Fe29 Sm0 3.038064 1_555
Fe29 Sm5 3.249984 1_555
Fe30 Fe47 2.448209 1_565
Fe30 Fe48 2.504444 1_555
Fe30 Fe46 2.516948 1_555
Fe30 Fe32 2.532685 1_565
Fe30 Fe33 2.532685 1_555
Fe30 Fe31 2.534546 1_565
Fe30 Fe9 2.641243 1_565
Fe30 Sm3 3.038064 1_555
Fe30 Sm6 3.249984 1_565
Fe31 Fe46 2.448209 1_545
Fe31 Fe49 2.504444 1_555
Fe31 Fe47 2.516948 1_555
Fe31 Fe32 2.532685 1_555
Fe31 Fe33 2.532685 1_545
Fe31 Fe8 2.641243 1_545
Fe31 Sm2 3.038064 1_555
Fe31 Sm7 3.249984 1_545
Fe32 Fe49 2.448209 1_555
Fe32 Fe47 2.504444 1_555
Fe32 Fe48 2.516948 1_545
Fe32 Fe33 2.534546 1_545
Fe32 Fe9 2.623185 1_555
Fe32 Sm1 3.038064 1_555
Fe32 Sm5 3.249984 1_555
Fe33 Fe48 2.448209 1_555
Fe33 Fe46 2.504444 1_555
Fe33 Fe49 2.516948 1_565
Fe33 Fe8 2.623185 1_555
Fe33 Sm0 3.038064 1_555
Fe33 Sm4 3.249984 1_555
Fe34 Fe51 2.448209 1_455
Fe34 Fe44 2.504444 1_555
Fe34 Fe50 2.516948 1_555
Fe34 Fe35 2.534546 1_455
Fe34 Sm2 3.038064 1_556
Fe34 Sm6 3.249984 1_456
Fe35 Fe50 2.448209 1_655
Fe35 Fe45 2.504444 1_555
Fe35 Fe51 2.516948 1_555
Fe35 Sm3 3.038064 1_556
Fe35 Sm7 3.249984 1_656
Fe36 Fe53 2.448209 1_555
Fe36 Fe43 2.504444 1_555
Fe36 Fe52 2.516948 1_565
Fe36 Fe37 2.534546 1_565
Fe36 Sm0 3.038064 1_555
Fe36 Sm4 3.249984 1_555
Fe37 Fe52 2.448209 1_555
Fe37 Fe42 2.504444 1_555
Fe37 Fe53 2.516948 1_545
Fe37 Sm1 3.038064 1_555
Fe37 Sm5 3.249984 1_555
Fe38 Fe55 2.448209 1_655
Fe38 Fe40 2.504444 1_555
Fe38 Fe54 2.516948 1_555
Fe38 Fe39 2.534546 1_655
Fe38 Fe8 2.641243 1_655
Fe38 Sm3 3.038064 1_555
Fe38 Sm7 3.249984 1_655
Fe39 Fe54 2.448209 1_455
Fe39 Fe41 2.504444 1_555
Fe39 Fe55 2.516948 1_555
Fe39 Fe9 2.641243 1_455
Fe39 Sm2 3.038064 1_555
Fe39 Sm6 3.249984 1_455
Fe40 Fe8 2.732056 1_655
Fe40 Sm4 3.047726 1_555
Fe40 Sm0 3.055582 1_655
Fe41 Fe9 2.732056 1_455
Fe41 Sm5 3.047726 1_555
Fe41 Sm1 3.055582 1_455
Fe42 Sm6 3.047726 1_556
Fe42 Sm2 3.055582 1_556
Fe43 Sm7 3.047726 1_556
Fe43 Sm3 3.055582 1_556
Fe44 Sm5 3.047726 1_555
Fe44 Sm1 3.055582 1_455
Fe45 Sm4 3.047726 1_555
Fe45 Sm0 3.055582 1_655
Fe46 Fe8 2.700837 1_555
Fe46 Sm7 3.047726 1_555
Fe46 Sm3 3.055582 1_555
Fe47 Fe9 2.700837 1_555
Fe47 Sm6 3.047726 1_555
Fe47 Sm2 3.055582 1_555
Fe48 Fe9 2.732056 1_565
Fe48 Sm4 3.047726 1_555
Fe48 Sm1 3.055582 1_565
Fe49 Fe8 2.732056 1_545
Fe49 Sm5 3.047726 1_555
Fe49 Sm0 3.055582 1_545
Fe50 Sm7 3.047726 1_556
Fe50 Sm2 3.055582 1_556
Fe51 Sm6 3.047726 1_556
Fe51 Sm3 3.055582 1_556
Fe52 Sm5 3.047726 1_555
Fe52 Sm0 3.055582 1_545
Fe53 Sm4 3.047726 1_555
Fe53 Sm1 3.055582 1_565
Fe54 Fe9 2.700837 1_555
Fe54 Sm6 3.047726 1_555
Fe54 Sm3 3.055582 1_555
Fe55 Fe8 2.700837 1_555
Fe55 Sm7 3.047726 1_555
Fe55 Sm2 3.055582 1_555
B0 Fe5 2.068935 1_665
B0 Fe7 2.068935 1_665
B0 Fe48 2.083587 1_555
B0 Fe40 2.083587 1_555
B0 Fe53 2.083587 1_555
B0 Fe45 2.083587 1_555
B0 Sm4 2.874129 1_555
B0 Sm0 3.260622 1_655
B0 Sm1 3.260622 1_565
B1 Fe5 2.068935 1_555
B1 Fe7 2.068935 1_555
B1 Fe49 2.083587 1_555
B1 Fe41 2.083587 1_555
B1 Fe44 2.083587 1_555
B1 Fe52 2.083587 1_555
B1 Sm5 2.874129 1_555
B1 Sm0 3.260622 1_545
B1 Sm1 3.260622 1_455
B2 Fe6 2.068935 1_554
B2 Fe4 2.068935 1_555
B2 Fe47 2.083587 1_555
B2 Fe54 2.083587 1_555
B2 Fe42 2.083587 1_554
B2 Fe51 2.083587 1_554
B2 Sm6 2.874129 1_555
B2 Sm2 3.260622 1_555
B2 Sm3 3.260622 1_555
B3 Fe6 2.068935 1_554
B3 Fe4 2.068935 1_555
B3 Fe55 2.083587 1_555
B3 Fe46 2.083587 1_555
B3 Fe43 2.083587 1_554
B3 Fe50 2.083587 1_554
B3 Sm7 2.874129 1_555
B3 Sm2 3.260622 1_555
B3 Sm3 3.260622 1_555
