# generated using pymatgen
data_Al3FeSi2
_symmetry_space_group_name_H-M   'P 1'
_cell_length_a   6.40911759
_cell_length_b   6.40911759
_cell_length_c   6.40911759
_cell_angle_alpha   123.75693577
_cell_angle_beta   123.75693577
_cell_angle_gamma   83.60733208
_symmetry_Int_Tables_number   1
_chemical_formula_structural   Al3FeSi2
_chemical_formula_sum   'Al6 Fe2 Si4'
_cell_volume   174.39671937
_cell_formula_units_Z   2
loop_
 _symmetry_equiv_pos_site_id
 _symmetry_equiv_pos_as_xyz
  1  'x, y, z'
loop_
 _atom_site_type_symbol
 _atom_site_label
 _atom_site_symmetry_multiplicity
 _atom_site_fract_x
 _atom_site_fract_y
 _atom_site_fract_z
 _atom_site_occupancy
  Al  Al0  1  0.49820000  0.49820000  0.00000000  1
  Al  Al1  1  0.99820000  0.99820000  0.00000000  1
  Al  Al2  1  0.48448800  0.30509000  0.50000000  1
  Al  Al3  1  0.80509000  0.98448800  0.50000000  1
  Al  Al4  1  0.98448800  0.48448800  0.17939800  1
  Al  Al5  1  0.30509000  0.80509000  0.82060200  1
  Fe  Fe0  1  0.75514900  0.75514900  0.00000000  1
  Fe  Fe1  1  0.25514900  0.25514900  0.00000000  1
  Si  Si0  1  0.50102300  0.70605000  0.50000000  1
  Si  Si1  1  0.20605000  0.00102300  0.50000000  1
  Si  Si2  1  0.00102300  0.50102300  0.79497300  1
  Si  Si3  1  0.70605000  0.20605000  0.20502700  1
loop_
_geom_bond_atom_site_label_1
_geom_bond_atom_site_label_2
_geom_bond_distance
_geom_bond_site_symmetry_2
Al0 Fe1 2.322386 1_555
Al0 Fe0 2.455184 1_555
Al0 Al3 2.666872 1_555
Al0 Al5 2.666872 1_554
Al0 Al2 2.666872 1_554
Al0 Al4 2.666872 1_555
Al0 Si3 2.690879 1_555
Al0 Si0 2.690879 1_555
Al0 Si1 2.690879 1_554
Al0 Si2 2.690879 1_554
Al1 Fe0 2.322386 1_555
Al1 Fe1 2.455184 1_665
Al1 Al5 2.666872 1_654
Al1 Al2 2.666872 1_665
Al1 Al3 2.666872 1_554
Al1 Al4 2.666872 1_565
Al1 Si0 2.690879 1_554
Al1 Si1 2.690879 1_665
Al1 Si3 2.690879 1_565
Al1 Si2 2.690879 1_654
Al2 Fe0 2.502456 1_556
Al2 Fe1 2.502456 1_555
Al2 Si0 2.583746 1_555
Al2 Si2 2.728101 1_655
Al2 Si3 2.728101 1_555
Al2 Al3 2.739346 1_545
Al2 Si1 2.785111 1_555
Al3 Fe0 2.502456 1_555
Al3 Fe1 2.502456 1_666
Al3 Si1 2.583746 1_665
Al3 Si2 2.728101 1_665
Al3 Si3 2.728101 1_565
Al3 Si0 2.785111 1_555
Al4 Fe1 2.502456 1_655
Al4 Fe0 2.502456 1_555
Al4 Si2 2.583746 1_654
Al4 Si1 2.728101 1_665
Al4 Si0 2.728101 1_655
Al4 Al5 2.739346 1_655
Al4 Si3 2.785111 1_555
Al5 Fe0 2.502456 1_556
Al5 Fe1 2.502456 1_566
Al5 Si3 2.583746 1_566
Al5 Si0 2.728101 1_555
Al5 Si1 2.728101 1_565
Al5 Si2 2.785111 1_555
Fe0 Si0 2.492775 1_554
Fe0 Si1 2.492775 1_665
Fe0 Si2 2.492775 1_654
Fe0 Si3 2.492775 1_565
Fe1 Si3 2.492775 1_555
Fe1 Si0 2.492775 1_555
Fe1 Si1 2.492775 1_554
Fe1 Si2 2.492775 1_554
Si0 Si1 2.520362 1_565
Si2 Si3 2.520362 1_455
