# generated using pymatgen
data_TmTl(WO4)2
_symmetry_space_group_name_H-M   'P 1'
_cell_length_a   7.59980637
_cell_length_b   7.59980637
_cell_length_c   7.46002988
_cell_angle_alpha   62.24916233
_cell_angle_beta   62.24916233
_cell_angle_gamma   88.07007067
_symmetry_Int_Tables_number   1
_chemical_formula_structural   TmTl(WO4)2
_chemical_formula_sum   'Tm2 Tl2 W4 O16'
_cell_volume   328.09819581
_cell_formula_units_Z   2
loop_
 _symmetry_equiv_pos_site_id
 _symmetry_equiv_pos_as_xyz
  1  'x, y, z'
loop_
 _atom_site_type_symbol
 _atom_site_label
 _atom_site_symmetry_multiplicity
 _atom_site_fract_x
 _atom_site_fract_y
 _atom_site_fract_z
 _atom_site_occupancy
  Tm  Tm0  1  0.77675100  0.22324900  0.75000000  1
  Tm  Tm1  1  0.22324900  0.77675100  0.25000000  1
  Tl  Tl0  1  0.20499700  0.79500300  0.75000000  1
  Tl  Tl1  1  0.79500300  0.20499700  0.25000000  1
  W  W0  1  0.70184000  0.69088400  0.78388400  1
  W  W1  1  0.29816000  0.30911600  0.21611600  1
  W  W2  1  0.30911600  0.29816000  0.71611600  1
  W  W3  1  0.69088400  0.70184000  0.28388400  1
  O  O0  1  0.62011900  0.75587100  0.55926400  1
  O  O1  1  0.37988100  0.24412900  0.44073600  1
  O  O2  1  0.24412900  0.37988100  0.94073600  1
  O  O3  1  0.75587100  0.62011900  0.05926400  1
  O  O4  1  0.36914400  0.05738300  0.88207500  1
  O  O5  1  0.63085600  0.94261700  0.11792500  1
  O  O6  1  0.94261700  0.63085600  0.61792500  1
  O  O7  1  0.05738300  0.36914400  0.38207500  1
  O  O8  1  0.59276600  0.37031400  0.96288200  1
  O  O9  1  0.40723400  0.62968600  0.03711800  1
  O  O10  1  0.62968600  0.40723400  0.53711800  1
  O  O11  1  0.37031400  0.59276600  0.46288200  1
  O  O12  1  0.78002400  0.95896800  0.69141000  1
  O  O13  1  0.21997600  0.04103200  0.30859000  1
  O  O14  1  0.04103200  0.21997600  0.80859000  1
  O  O15  1  0.95896800  0.78002400  0.19141000  1
loop_
_geom_bond_atom_site_label_1
_geom_bond_atom_site_label_2
_geom_bond_distance
_geom_bond_site_symmetry_2
O0 W0 1.901399 1_555
O0 W3 2.102378 1_555
O1 W1 1.901399 1_555
O1 W2 2.102378 1_555
O2 W2 1.901399 1_555
O2 W1 2.102378 1_556
O3 W3 1.901399 1_555
O3 W0 2.102378 1_554
O4 W2 1.857232 1_555
O4 Tm1 2.277136 1_546
O5 W3 1.857232 1_555
O5 Tm0 2.277136 1_564
O6 W0 1.857232 1_555
O6 Tm1 2.277136 1_655
O7 W1 1.857232 1_555
O7 Tm0 2.277136 1_455
O8 W1 2.027570 1_556
O8 W0 2.116905 1_555
O8 Tm0 2.281696 1_555
O9 W0 2.027570 1_554
O9 W1 2.116905 1_555
O9 Tm1 2.281696 1_555
O10 W3 2.027570 1_555
O10 W2 2.116905 1_555
O10 Tm0 2.281696 1_555
O11 W2 2.027570 1_555
O11 W3 2.116905 1_555
O11 Tm1 2.281696 1_555
O12 W0 1.835982 1_555
O12 Tm0 2.242701 1_565
O13 W1 1.835982 1_555
O13 Tm1 2.242701 1_545
O14 W2 1.835982 1_555
O14 Tm0 2.242701 1_455
O15 W3 1.835982 1_555
O15 Tm1 2.242701 1_655
