# generated using pymatgen
data_Ba3(LiSb)4
_symmetry_space_group_name_H-M   'P 1'
_cell_length_a   5.03429986
_cell_length_b   7.70815161
_cell_length_c   9.49114648
_cell_angle_alpha   113.95823209
_cell_angle_beta   105.37945000
_cell_angle_gamma   90.00000000
_symmetry_Int_Tables_number   1
_chemical_formula_structural   Ba3(LiSb)4
_chemical_formula_sum   'Ba3 Li4 Sb4'
_cell_volume   322.08720843
_cell_formula_units_Z   1
loop_
 _symmetry_equiv_pos_site_id
 _symmetry_equiv_pos_as_xyz
  1  'x, y, z'
loop_
 _atom_site_type_symbol
 _atom_site_label
 _atom_site_symmetry_multiplicity
 _atom_site_fract_x
 _atom_site_fract_y
 _atom_site_fract_z
 _atom_site_occupancy
  Ba  Ba0  1  0.13225906  0.63225906  0.26451812  1
  Ba  Ba1  1  0.86774094  0.36774094  0.73548188  1
  Ba  Ba2  1  -0.00000000  -0.00000000  -0.00000000  1
  Li  Li0  1  0.67567625  0.98175284  0.35135351  1
  Li  Li1  1  0.32432375  0.01824716  0.64864649  1
  Li  Li2  1  0.32432375  0.63039933  0.64864649  1
  Li  Li3  1  0.67567625  0.36960067  0.35135351  1
  Sb  Sb0  1  0.78688380  0.78688380  0.57376661  1
  Sb  Sb1  1  0.21311620  0.21311620  0.42623339  1
  Sb  Sb2  1  0.50000000  0.68448751  0.00000000  1
  Sb  Sb3  1  0.50000000  0.31551249  -0.00000000  1
loop_
_geom_bond_atom_site_label_1
_geom_bond_atom_site_label_2
_geom_bond_distance
_geom_bond_site_symmetry_2
Ba0 Li2 3.521325 1_555
Ba0 Li1 3.521325 1_565
Ba0 Li3 3.524444 1_555
Ba0 Li0 3.524444 1_555
Ba0 Li3 3.524448 1_455
Ba0 Li0 3.524448 1_455
Ba0 Sb0 3.595064 1_455
Ba0 Sb0 3.595067 1_555
Ba0 Sb2 3.630241 1_455
Ba0 Sb2 3.630241 1_555
Ba0 Sb3 3.630241 1_455
Ba0 Sb3 3.630241 1_555
Ba1 Li3 3.521325 1_555
Ba1 Li0 3.521325 1_545
Ba1 Li2 3.524444 1_555
Ba1 Li1 3.524444 1_555
Ba1 Li2 3.524448 1_655
Ba1 Li1 3.524448 1_655
Ba1 Sb1 3.595064 1_655
Ba1 Sb1 3.595067 1_555
Ba1 Sb3 3.630241 1_556
Ba1 Sb3 3.630241 1_656
Ba1 Sb2 3.630241 1_556
Ba1 Sb2 3.630241 1_656
Ba2 Sb3 3.500108 1_455
Ba2 Sb3 3.500108 1_555
Ba2 Sb2 3.500108 1_545
Ba2 Sb2 3.500108 1_445
Ba2 Sb0 3.537786 1_444
Ba2 Sb1 3.537786 1_555
Li0 Sb1 2.992778 1_565
Li0 Sb1 2.992778 1_665
Li0 Sb0 2.995681 1_555
Li0 Sb2 3.063176 1_555
Li1 Sb0 2.992778 1_545
Li1 Sb0 2.992778 1_445
Li1 Sb1 2.995681 1_555
Li1 Sb3 3.063176 1_556
Li2 Sb0 2.992782 1_555
Li2 Sb0 2.992782 1_455
Li2 Sb1 2.995687 1_555
Li2 Sb2 3.063176 1_556
Li3 Sb1 2.992782 1_555
Li3 Sb1 2.992782 1_655
Li3 Sb0 2.995687 1_555
Li3 Sb3 3.063176 1_555
Sb2 Sb3 2.844115 1_555
