# generated using pymatgen
data_La2Ru2I
_symmetry_space_group_name_H-M   'P 1'
_cell_length_a   4.33604162
_cell_length_b   4.33604162
_cell_length_c   17.86771215
_cell_angle_alpha   90.00000000
_cell_angle_beta   90.00000000
_cell_angle_gamma   119.99998325
_symmetry_Int_Tables_number   1
_chemical_formula_structural   La2Ru2I
_chemical_formula_sum   'La4 Ru4 I2'
_cell_volume   290.92868046
_cell_formula_units_Z   2
loop_
 _symmetry_equiv_pos_site_id
 _symmetry_equiv_pos_as_xyz
  1  'x, y, z'
loop_
 _atom_site_type_symbol
 _atom_site_label
 _atom_site_symmetry_multiplicity
 _atom_site_fract_x
 _atom_site_fract_y
 _atom_site_fract_z
 _atom_site_occupancy
  La  La0  1  -0.00000000  -0.00000000  0.10508096  1
  La  La1  1  0.00000000  -0.00000000  0.89491904  1
  La  La2  1  0.00000000  -0.00000000  0.60508096  1
  La  La3  1  -0.00000000  -0.00000000  0.39491904  1
  Ru  Ru0  1  0.33333300  0.66666700  0.50600612  1
  Ru  Ru1  1  0.66666700  0.33333300  0.49399388  1
  Ru  Ru2  1  0.66666700  0.33333300  0.00600612  1
  Ru  Ru3  1  0.33333300  0.66666700  0.99399388  1
  I  I0  1  0.33333300  0.66666700  0.25000000  1
  I  I1  1  0.66666700  0.33333300  0.75000000  1
loop_
_geom_bond_atom_site_label_1
_geom_bond_atom_site_label_2
_geom_bond_distance
_geom_bond_site_symmetry_2
La0 Ru2 3.066076 1_455
La0 Ru2 3.066080 1_445
La0 Ru2 3.066080 1_555
La0 Ru3 3.194807 1_544
La0 Ru3 3.194810 1_554
La0 Ru3 3.194810 1_444
La1 Ru3 3.066076 1_545
La1 Ru3 3.066080 1_445
La1 Ru3 3.066080 1_555
La1 Ru2 3.194807 1_456
La1 Ru2 3.194810 1_446
La1 Ru2 3.194810 1_556
La2 Ru0 3.066076 1_545
La2 Ru0 3.066080 1_555
La2 Ru0 3.066080 1_445
La2 Ru1 3.194807 1_455
La2 Ru1 3.194810 1_445
La2 Ru1 3.194810 1_555
La3 Ru1 3.066076 1_455
La3 Ru1 3.066080 1_445
La3 Ru1 3.066080 1_555
La3 Ru0 3.194807 1_545
La3 Ru0 3.194810 1_555
La3 Ru0 3.194810 1_445
Ru0 Ru1 2.512597 1_455
Ru0 Ru1 2.512597 1_565
Ru0 Ru1 2.512603 1_555
Ru2 Ru3 2.512597 1_544
Ru2 Ru3 2.512597 1_654
Ru2 Ru3 2.512603 1_554
I0 La3 3.601655 1_565
I0 La0 3.601655 1_565
I0 La3 3.601658 1_665
I0 La0 3.601658 1_665
I0 La3 3.601658 1_555
I0 La0 3.601658 1_555
I1 La2 3.601655 1_655
I1 La1 3.601655 1_655
I1 La2 3.601658 1_665
I1 La1 3.601658 1_555
I1 La1 3.601658 1_665
I1 La2 3.601658 1_555
