# generated using pymatgen
data_Na6Mg3B9P6H3O38
_symmetry_space_group_name_H-M   'P 1'
_cell_length_a   11.86653786
_cell_length_b   11.86646989
_cell_length_c   12.20721318
_cell_angle_alpha   90.00000000
_cell_angle_beta   90.00000000
_cell_angle_gamma   120.00047203
_symmetry_Int_Tables_number   1
_chemical_formula_structural   Na6Mg3B9P6H3O38
_chemical_formula_sum   'Na12 Mg6 B18 P12 H6 O76'
_cell_volume   1488.64336342
_cell_formula_units_Z   2
loop_
 _symmetry_equiv_pos_site_id
 _symmetry_equiv_pos_as_xyz
  1  'x, y, z'
loop_
 _atom_site_type_symbol
 _atom_site_label
 _atom_site_symmetry_multiplicity
 _atom_site_fract_x
 _atom_site_fract_y
 _atom_site_fract_z
 _atom_site_occupancy
  Na  Na0  1  0.28714401  0.01816544  0.82273591  1
  Na  Na1  1  0.98183233  0.26898230  0.82273798  1
  Na  Na2  1  0.73102196  0.71285356  0.82273703  1
  Na  Na3  1  0.71285599  0.98183456  0.32273591  1
  Na  Na4  1  0.01816767  0.73101770  0.32273798  1
  Na  Na5  1  0.26897804  0.28714644  0.32273703  1
  Na  Na6  1  0.66663650  0.33331715  0.17625177  1
  Na  Na7  1  0.33336350  0.66668285  0.67625177  1
  Na  Na8  1  0.33336233  0.66668129  0.16377588  1
  Na  Na9  1  0.66663767  0.33331871  0.66377588  1
  Na  Na10  1  0.00000084  0.00000069  0.07856400  1
  Na  Na11  1  0.99999916  0.99999931  0.57856400  1
  Mg  Mg0  1  0.49959780  0.49564504  0.07719540  1
  Mg  Mg1  1  0.50432781  0.00392500  0.07719809  1
  Mg  Mg2  1  0.99606701  0.50039908  0.07720675  1
  Mg  Mg3  1  0.50040220  0.50435496  0.57719540  1
  Mg  Mg4  1  0.49567219  0.99607500  0.57719809  1
  Mg  Mg5  1  0.00393299  0.49960092  0.57720675  1
  B  B0  1  0.29643011  0.04366088  0.22566606  1
  B  B1  1  0.95633817  0.25276844  0.22566560  1
  B  B2  1  0.74723184  0.70356955  0.22566510  1
  B  B3  1  0.70356989  0.95633912  0.72566606  1
  B  B4  1  0.04366183  0.74723156  0.72566560  1
  B  B5  1  0.25276816  0.29643045  0.72566510  1
  B  B6  1  0.40734698  0.49455404  0.82953541  1
  B  B7  1  0.50544706  0.91279339  0.82953594  1
  B  B8  1  0.08720771  0.59265394  0.82953521  1
  B  B9  1  0.59265302  0.50544596  0.32953541  1
  B  B10  1  0.49455294  0.08720661  0.32953594  1
  B  B11  1  0.91279229  0.40734606  0.32953521  1
  B  B12  1  0.03906480  0.74761185  0.92766468  1
  B  B13  1  0.25238562  0.29145245  0.92766426  1
  B  B14  1  0.70854944  0.96093695  0.92766436  1
  B  B15  1  0.96093520  0.25238815  0.42766468  1
  B  B16  1  0.74761438  0.70854755  0.42766426  1
  B  B17  1  0.29145056  0.03906305  0.42766436  1
  P  P0  1  0.80393058  0.61775425  0.03734585  1
  P  P1  1  0.38223841  0.18617196  0.03734405  1
  P  P2  1  0.81382534  0.19607013  0.03734544  1
  P  P3  1  0.19606942  0.38224575  0.53734585  1
  P  P4  1  0.61776159  0.81382804  0.53734405  1
  P  P5  1  0.18617466  0.80392987  0.53734544  1
  P  P6  1  0.18835651  0.80802190  0.11270550  1
  P  P7  1  0.19197878  0.38033685  0.11270612  1
  P  P8  1  0.61966875  0.81163900  0.11270208  1
  P  P9  1  0.81164349  0.19197810  0.61270550  1
  P  P10  1  0.80802122  0.61966315  0.61270612  1
  P  P11  1  0.38033125  0.18836100  0.61270208  1
  H  H0  1  0.33753093  0.83681908  0.90774819  1
  H  H1  1  0.16317932  0.50071231  0.90774887  1
  H  H2  1  0.49928920  0.66246957  0.90774928  1
  H  H3  1  0.66246907  0.16318092  0.40774819  1
  H  H4  1  0.83682068  0.49928769  0.40774887  1
  H  H5  1  0.50071080  0.33753043  0.40774928  1
  O  O0  1  0.83491674  0.71793343  0.13482929  1
  O  O1  1  0.28206501  0.11698172  0.13482950  1
  O  O2  1  0.88301456  0.16508185  0.13483053  1
  O  O3  1  0.16508326  0.28206657  0.63482929  1
  O  O4  1  0.71793499  0.88301828  0.63482950  1
  O  O5  1  0.11698544  0.83491815  0.63483053  1
  O  O6  1  0.66898504  0.57308732  0.99096386  1
  O  O7  1  0.42691088  0.09589472  0.99096307  1
  O  O8  1  0.90410449  0.33101691  0.99096564  1
  O  O9  1  0.33101496  0.42691268  0.49096386  1
  O  O10  1  0.57308912  0.90410528  0.49096307  1
  O  O11  1  0.09589551  0.66898309  0.49096564  1
  O  O12  1  0.89981759  0.70434471  0.94398627  1
  O  O13  1  0.29565133  0.19546933  0.94398346  1
  O  O14  1  0.80452856  0.10018511  0.94398423  1
  O  O15  1  0.10018241  0.29565529  0.44398627  1
  O  O16  1  0.70434867  0.80453067  0.44398346  1
  O  O17  1  0.19547144  0.89981489  0.44398423  1
  O  O18  1  0.20272103  0.90222657  0.20866105  1
  O  O19  1  0.09777257  0.30049272  0.20866032  1
  O  O20  1  0.69950995  0.79728172  0.20866160  1
  O  O21  1  0.79727897  0.09777343  0.70866105  1
  O  O22  1  0.90222743  0.69950728  0.70866032  1
  O  O23  1  0.30049005  0.20271828  0.70866160  1
  O  O24  1  0.83025596  0.51121114  0.07539954  1
  O  O25  1  0.48877927  0.31903916  0.07539500  1
  O  O26  1  0.68095269  0.16973658  0.07539709  1
  O  O27  1  0.16974404  0.48878886  0.57539954  1
  O  O28  1  0.51122073  0.68096084  0.57539500  1
  O  O29  1  0.31904731  0.83026342  0.57539709  1
  O  O30  1  0.10572812  0.67176999  0.16108033  1
  O  O31  1  0.32823086  0.43395785  0.16107944  1
  O  O32  1  0.56604072  0.89426875  0.16107910  1
  O  O33  1  0.89427188  0.32823001  0.66108033  1
  O  O34  1  0.67176914  0.56604215  0.66107944  1
  O  O35  1  0.43395928  0.10573125  0.66107910  1
  O  O36  1  0.32041546  0.83398718  0.06952363  1
  O  O37  1  0.16601867  0.48643363  0.06952592  1
  O  O38  1  0.51357975  0.67958457  0.06952005  1
  O  O39  1  0.67958454  0.16601282  0.56952363  1
  O  O40  1  0.83398133  0.51356637  0.56952592  1
  O  O41  1  0.48642025  0.32041543  0.56952005  1
  O  O42  1  0.62994106  0.56538672  0.22837454  1
  O  O43  1  0.43461365  0.06455665  0.22837413  1
  O  O44  1  0.93544698  0.37005873  0.22837452  1
  O  O45  1  0.37005894  0.43461328  0.72837454  1
  O  O46  1  0.56538635  0.93544335  0.72837413  1
  O  O47  1  0.06455302  0.62994127  0.72837452  1
  O  O48  1  0.08496727  0.81843804  0.82668863  1
  O  O49  1  0.18156247  0.26653046  0.82668845  1
  O  O50  1  0.73346950  0.91503302  0.82668813  1
  O  O51  1  0.91503273  0.18156196  0.32668863  1
  O  O52  1  0.81843753  0.73346954  0.32668845  1
  O  O53  1  0.26653050  0.08496698  0.32668813  1
  O  O54  1  0.36862469  0.42735556  0.92720418  1
  O  O55  1  0.57264409  0.94126813  0.92720429  1
  O  O56  1  0.05873289  0.63137627  0.92720363  1
  O  O57  1  0.63137531  0.57264444  0.42720418  1
  O  O58  1  0.42735591  0.05873187  0.42720429  1
  O  O59  1  0.94126711  0.36862373  0.42720363  1
  O  O60  1  0.37100374  0.85660762  0.83184797  1
  O  O61  1  0.14339360  0.51439665  0.83184722  1
  O  O62  1  0.48560278  0.62899724  0.83184711  1
  O  O63  1  0.62899626  0.14339238  0.33184797  1
  O  O64  1  0.85660640  0.48560335  0.33184722  1
  O  O65  1  0.51439722  0.37100276  0.33184711  1
  O  O66  1  0.11350209  0.83639240  0.01969366  1
  O  O67  1  0.16360908  0.27710933  0.01969416  1
  O  O68  1  0.72289546  0.88650331  0.01969376  1
  O  O69  1  0.88649791  0.16360760  0.51969366  1
  O  O70  1  0.83639092  0.72289067  0.51969416  1
  O  O71  1  0.27710454  0.11349669  0.51969376  1
  O  O72  1  0.33340302  0.66669905  0.36442881  1
  O  O73  1  0.66659698  0.33330095  0.86442881  1
  O  O74  1  0.99999994  0.00000067  0.28988307  1
  O  O75  1  0.00000006  0.99999933  0.78988307  1
loop_
_geom_bond_atom_site_label_1
_geom_bond_atom_site_label_2
_geom_bond_distance
_geom_bond_site_symmetry_2
Na0 O48 2.385203 1_545
Na0 O35 2.489747 1_555
Na0 O7 2.507777 1_555
Na0 O23 2.532478 1_555
Na0 O13 2.532817 1_555
Na0 O60 2.566281 1_545
Na1 O49 2.385273 1_655
Na1 O33 2.489715 1_555
Na1 O8 2.507761 1_555
Na1 O21 2.532502 1_555
Na1 O14 2.532804 1_555
Na1 O61 2.566235 1_655
Na2 O50 2.385255 1_555
Na2 O34 2.489723 1_555
Na2 O6 2.507766 1_555
Na2 O22 2.532494 1_555
Na2 O12 2.532839 1_555
Na2 O62 2.566304 1_555
Na3 O51 2.385203 1_565
Na3 O32 2.489747 1_555
Na3 O10 2.507777 1_555
Na3 O20 2.532478 1_555
Na3 O16 2.532817 1_555
Na3 O63 2.566281 1_565
Na4 O52 2.385273 1_455
Na4 O30 2.489715 1_555
Na4 O11 2.507761 1_555
Na4 O18 2.532502 1_555
Na4 O17 2.532804 1_555
Na4 O64 2.566235 1_455
Na5 O53 2.385255 1_555
Na5 O31 2.489723 1_555
Na5 O9 2.507766 1_555
Na5 O19 2.532494 1_555
Na5 O15 2.532839 1_555
Na5 O65 2.566304 1_555
Na6 O25 2.375150 1_555
Na6 O26 2.375360 1_555
Na6 O24 2.375491 1_555
Na6 O65 2.806987 1_555
Na6 O63 2.807111 1_555
Na6 O64 2.807366 1_555
Na7 O28 2.375150 1_555
Na7 O29 2.375360 1_555
Na7 O27 2.375491 1_555
Na7 O62 2.806987 1_555
Na7 O60 2.807111 1_555
Na7 O61 2.807366 1_555
Na8 O38 2.365016 1_555
Na8 O36 2.365152 1_555
Na8 O37 2.365272 1_555
Na8 O72 2.449413 1_555
Na8 O32 2.731554 1_555
Na8 O31 2.731866 1_555
Na8 O30 2.732122 1_555
Na9 O41 2.365016 1_555
Na9 O39 2.365152 1_555
Na9 O40 2.365272 1_555
Na9 O73 2.449413 1_555
Na9 O35 2.731554 1_555
Na9 O34 2.731866 1_555
Na9 O33 2.732122 1_555
Na10 O74 2.579617 1_455
Na10 O68 2.952013 1_445
Na10 O67 2.952022 1_555
Na10 O66 2.952059 1_545
Na10 O1 2.992588 1_555
Na10 O0 2.992597 1_445
Na10 O2 2.992626 1_455
Na11 O75 2.579617 1_655
Na11 O71 2.952013 1_665
Na11 O70 2.952022 1_555
Na11 O69 2.952059 1_565
Na11 O4 2.992588 1_555
Na11 O3 2.992597 1_665
Na11 O5 2.992626 1_655
Mg0 O25 2.034657 1_555
Mg0 O6 2.036084 1_554
Mg0 O31 2.056954 1_555
Mg0 O38 2.106748 1_555
Mg0 O54 2.272708 1_554
Mg0 O42 2.281002 1_555
Mg1 O26 2.034903 1_555
Mg1 O7 2.036119 1_554
Mg1 O32 2.056917 1_545
Mg1 O36 2.106459 1_545
Mg1 O55 2.272743 1_544
Mg1 O43 2.280982 1_555
Mg2 O24 2.034910 1_555
Mg2 O8 2.036101 1_554
Mg2 O30 2.056880 1_655
Mg2 O37 2.106586 1_655
Mg2 O56 2.272850 1_654
Mg2 O44 2.280862 1_555
Mg3 O28 2.034657 1_555
Mg3 O9 2.036084 1_555
Mg3 O34 2.056954 1_555
Mg3 O41 2.106748 1_555
Mg3 O57 2.272708 1_555
Mg3 O45 2.281002 1_555
Mg4 O29 2.034903 1_555
Mg4 O10 2.036119 1_555
Mg4 O35 2.056917 1_565
Mg4 O39 2.106459 1_565
Mg4 O58 2.272743 1_565
Mg4 O46 2.280982 1_555
Mg5 O27 2.034910 1_555
Mg5 O11 2.036101 1_555
Mg5 O33 2.056880 1_455
Mg5 O40 2.106586 1_455
Mg5 O59 2.272850 1_455
Mg5 O47 2.280862 1_555
B0 O53 1.435559 1_555
B0 O1 1.471037 1_555
B0 O18 1.493348 1_545
B0 O43 1.531271 1_555
B1 O51 1.435569 1_555
B1 O2 1.471030 1_555
B1 O19 1.493364 1_655
B1 O44 1.531262 1_555
B2 O52 1.435572 1_555
B2 O0 1.471028 1_555
B2 O20 1.493363 1_555
B2 O42 1.531264 1_555
B3 O50 1.435559 1_555
B3 O4 1.471037 1_555
B3 O21 1.493348 1_565
B3 O46 1.531271 1_555
B4 O48 1.435569 1_555
B4 O5 1.471030 1_555
B4 O22 1.493364 1_455
B4 O47 1.531262 1_555
B5 O49 1.435572 1_555
B5 O3 1.471028 1_555
B5 O23 1.493363 1_555
B5 O45 1.531264 1_555
B6 O54 1.379159 1_555
B6 O45 1.382729 1_555
B6 O62 1.388098 1_555
B7 O55 1.379150 1_555
B7 O46 1.382736 1_555
B7 O60 1.388111 1_555
B8 O56 1.379152 1_555
B8 O47 1.382735 1_555
B8 O61 1.388113 1_555
B9 O57 1.379159 1_555
B9 O42 1.382729 1_555
B9 O65 1.388098 1_555
B10 O58 1.379150 1_555
B10 O43 1.382736 1_555
B10 O63 1.388111 1_555
B11 O59 1.379152 1_555
B11 O44 1.382735 1_555
B11 O64 1.388113 1_555
B12 O48 1.436891 1_555
B12 O12 1.478270 1_455
B12 O66 1.490504 1_556
B12 O56 1.509607 1_555
B13 O49 1.436876 1_555
B13 O13 1.478288 1_555
B13 O67 1.490488 1_556
B13 O54 1.509608 1_555
B14 O50 1.436887 1_555
B14 O14 1.478260 1_565
B14 O68 1.490497 1_556
B14 O55 1.509628 1_555
B15 O51 1.436891 1_555
B15 O15 1.478270 1_655
B15 O69 1.490504 1_555
B15 O59 1.509607 1_555
B16 O52 1.436876 1_555
B16 O16 1.478288 1_555
B16 O70 1.490488 1_555
B16 O57 1.509608 1_555
B17 O53 1.436887 1_555
B17 O17 1.478260 1_545
B17 O71 1.490497 1_555
B17 O58 1.509628 1_555
H0 O60 0.988988 1_555
H1 O61 0.988995 1_555
H2 O62 0.989008 1_555
H3 O63 0.988988 1_555
H4 O64 0.988995 1_555
H5 O65 0.989008 1_555
O0 P0 1.589771 1_555
O1 P1 1.589752 1_555
O2 P2 1.589776 1_555
O3 P3 1.589771 1_555
O4 P4 1.589752 1_555
O5 P5 1.589776 1_555
O6 P0 1.522174 1_556
O7 P1 1.522202 1_556
O8 P2 1.522164 1_556
O9 P3 1.522174 1_555
O10 P4 1.522202 1_555
O11 P5 1.522164 1_555
O12 P0 1.574847 1_556
O13 P1 1.574840 1_556
O14 P2 1.574847 1_556
O15 P3 1.574847 1_555
O16 P4 1.574840 1_555
O17 P5 1.574847 1_555
O18 P6 1.568506 1_555
O19 P7 1.568512 1_555
O20 P8 1.568521 1_555
O21 P9 1.568506 1_555
O22 P10 1.568512 1_555
O23 P11 1.568521 1_555
O24 P0 1.518804 1_555
O25 P1 1.518766 1_555
O26 P2 1.518815 1_555
O27 P3 1.518804 1_555
O28 P4 1.518766 1_555
O29 P5 1.518815 1_555
O30 P6 1.529351 1_555
O31 P7 1.529359 1_555
O32 P8 1.529427 1_555
O33 P9 1.529351 1_555
O34 P10 1.529359 1_555
O35 P11 1.529427 1_555
O36 P6 1.531568 1_555
O37 P7 1.531554 1_555
O38 P8 1.531505 1_555
O39 P9 1.531568 1_555
O40 P10 1.531554 1_555
O41 P11 1.531505 1_555
O66 P6 1.578151 1_555
O67 P7 1.578168 1_555
O68 P8 1.578145 1_555
O69 P9 1.578151 1_555
O70 P10 1.578168 1_555
O71 P11 1.578145 1_555
