# generated using pymatgen
data_Np3Se5
_symmetry_space_group_name_H-M   'P 1'
_cell_length_a   7.83704719
_cell_length_b   8.38088608
_cell_length_c   12.43882134
_cell_angle_alpha   90.00000000
_cell_angle_beta   90.00000000
_cell_angle_gamma   90.00000000
_symmetry_Int_Tables_number   1
_chemical_formula_structural   Np3Se5
_chemical_formula_sum   'Np12 Se20'
_cell_volume   816.99919627
_cell_formula_units_Z   4
loop_
 _symmetry_equiv_pos_site_id
 _symmetry_equiv_pos_as_xyz
  1  'x, y, z'
loop_
 _atom_site_type_symbol
 _atom_site_label
 _atom_site_symmetry_multiplicity
 _atom_site_fract_x
 _atom_site_fract_y
 _atom_site_fract_z
 _atom_site_occupancy
  Np  Np0  1  0.98036881  0.49947999  0.32102170  1
  Np  Np1  1  0.51963119  0.00052001  0.82102170  1
  Np  Np2  1  0.01963119  0.99947999  0.67897830  1
  Np  Np3  1  0.48036881  0.50052001  0.17897830  1
  Np  Np4  1  0.01963119  0.50052001  0.67897830  1
  Np  Np5  1  0.48036881  0.99947999  0.17897830  1
  Np  Np6  1  0.98036881  0.00052001  0.32102170  1
  Np  Np7  1  0.51963119  0.49947999  0.82102170  1
  Np  Np8  1  0.93086768  0.75000000  0.00746791  1
  Np  Np9  1  0.56913232  0.75000000  0.50746791  1
  Np  Np10  1  0.06913232  0.25000000  0.99253209  1
  Np  Np11  1  0.43086768  0.25000000  0.49253209  1
  Se  Se0  1  0.83326389  0.04360593  0.09844767  1
  Se  Se1  1  0.66673611  0.45639407  0.59844767  1
  Se  Se2  1  0.16673611  0.54360593  0.90155233  1
  Se  Se3  1  0.33326389  0.95639407  0.40155233  1
  Se  Se4  1  0.16673611  0.95639407  0.90155233  1
  Se  Se5  1  0.33326389  0.54360593  0.40155233  1
  Se  Se6  1  0.83326389  0.45639407  0.09844767  1
  Se  Se7  1  0.66673611  0.04360593  0.59844767  1
  Se  Se8  1  0.54184398  0.75000000  0.00067035  1
  Se  Se9  1  0.95815602  0.75000000  0.50067035  1
  Se  Se10  1  0.45815602  0.25000000  -0.00067035  1
  Se  Se11  1  0.04184398  0.25000000  0.49932965  1
  Se  Se12  1  0.17054736  0.75000000  0.18616391  1
  Se  Se13  1  0.32945264  0.75000000  0.68616391  1
  Se  Se14  1  0.82945264  0.25000000  0.81383609  1
  Se  Se15  1  0.67054736  0.25000000  0.31383609  1
  Se  Se16  1  0.69726155  0.75000000  0.28517963  1
  Se  Se17  1  0.80273845  0.75000000  0.78517963  1
  Se  Se18  1  0.30273845  0.25000000  0.71482037  1
  Se  Se19  1  0.19726155  0.25000000  0.21482037  1
loop_
_geom_bond_atom_site_label_1
_geom_bond_atom_site_label_2
_geom_bond_distance
_geom_bond_site_symmetry_2
Np0 Se5 2.964629 1_655
Np0 Se19 3.001019 1_655
Np0 Se6 3.020664 1_555
Np0 Se9 3.071165 1_555
Np0 Se12 3.073036 1_655
Np0 Se11 3.085950 1_655
Np0 Se16 3.087028 1_555
Np0 Se15 3.205510 1_555
Np1 Se4 2.964629 1_545
Np1 Se18 3.001019 1_555
Np1 Se7 3.020664 1_555
Np1 Se8 3.071165 1_546
Np1 Se13 3.073036 1_545
Np1 Se10 3.085950 1_556
Np1 Se17 3.087028 1_545
Np1 Se14 3.205510 1_555
Np2 Se7 2.964629 1_465
Np2 Se17 3.001019 1_455
Np2 Se4 3.020664 1_555
Np2 Se11 3.071165 1_565
Np2 Se14 3.073036 1_465
Np2 Se9 3.085950 1_455
Np2 Se18 3.087028 1_565
Np2 Se13 3.205510 1_555
Np3 Se6 2.964629 1_555
Np3 Se16 3.001019 1_555
Np3 Se5 3.020664 1_555
Np3 Se10 3.071165 1_555
Np3 Se15 3.073036 1_555
Np3 Se8 3.085950 1_555
Np3 Se19 3.087028 1_555
Np3 Se12 3.205510 1_555
Np4 Se1 2.964629 1_455
Np4 Se17 3.001019 1_455
Np4 Se2 3.020664 1_555
Np4 Se11 3.071165 1_555
Np4 Se14 3.073036 1_455
Np4 Se9 3.085950 1_455
Np4 Se18 3.087028 1_555
Np4 Se13 3.205510 1_555
Np5 Se0 2.964629 1_565
Np5 Se16 3.001019 1_555
Np5 Se3 3.020664 1_555
Np5 Se10 3.071165 1_565
Np5 Se15 3.073036 1_565
Np5 Se8 3.085950 1_555
Np5 Se19 3.087028 1_565
Np5 Se12 3.205510 1_555
Np6 Se3 2.964629 1_645
Np6 Se19 3.001019 1_655
Np6 Se0 3.020664 1_555
Np6 Se9 3.071165 1_545
Np6 Se12 3.073036 1_645
Np6 Se11 3.085950 1_655
Np6 Se16 3.087028 1_545
Np6 Se15 3.205510 1_555
Np7 Se2 2.964629 1_555
Np7 Se18 3.001019 1_555
Np7 Se1 3.020664 1_555
Np7 Se8 3.071165 1_556
Np7 Se13 3.073036 1_555
Np7 Se10 3.085950 1_556
Np7 Se17 3.087028 1_555
Np7 Se14 3.205510 1_555
Np8 Se6 2.814382 1_555
Np8 Se0 2.814382 1_565
Np8 Se4 2.853909 1_654
Np8 Se2 2.853909 1_654
Np8 Se12 2.910157 1_655
Np8 Se17 2.941696 1_554
Np8 Se8 3.049969 1_555
Np9 Se7 2.814382 1_565
Np9 Se1 2.814382 1_555
Np9 Se3 2.853909 1_555
Np9 Se5 2.853909 1_555
Np9 Se13 2.910157 1_555
Np9 Se16 2.941696 1_555
Np9 Se9 3.049969 1_555
Np10 Se2 2.814382 1_555
Np10 Se4 2.814382 1_545
Np10 Se0 2.853909 1_456
Np10 Se6 2.853909 1_456
Np10 Se14 2.910157 1_455
Np10 Se19 2.941696 1_556
Np10 Se10 3.049969 1_556
Np11 Se5 2.814382 1_555
Np11 Se3 2.814382 1_545
Np11 Se7 2.853909 1_555
Np11 Se1 2.853909 1_555
Np11 Se15 2.910157 1_555
Np11 Se18 2.941696 1_555
Np11 Se11 3.049969 1_555
