# generated using pymatgen
data_K3Be3B3P6O25
_symmetry_space_group_name_H-M   'P 1'
_cell_length_a   12.71851001
_cell_length_b   12.71851001
_cell_length_c   12.71851001
_cell_angle_alpha   90.00000000
_cell_angle_beta   90.00000000
_cell_angle_gamma   90.00000000
_symmetry_Int_Tables_number   1
_chemical_formula_structural   K3Be3B3P6O25
_chemical_formula_sum   'K12 Be12 B12 P24 O100'
_cell_volume   2057.35249872
_cell_formula_units_Z   4
loop_
 _symmetry_equiv_pos_site_id
 _symmetry_equiv_pos_as_xyz
  1  'x, y, z'
loop_
 _atom_site_type_symbol
 _atom_site_label
 _atom_site_symmetry_multiplicity
 _atom_site_fract_x
 _atom_site_fract_y
 _atom_site_fract_z
 _atom_site_occupancy
  K  K0  1  0.37501247  0.37501247  0.37501247  1
  K  K1  1  0.12498753  0.62498753  0.87501247  1
  K  K2  1  0.62498753  0.87501247  0.12498753  1
  K  K3  1  0.87501247  0.12498753  0.62498753  1
  K  K4  1  0.65021404  0.65021404  0.65021404  1
  K  K5  1  0.84978596  0.34978596  0.15021404  1
  K  K6  1  0.34978596  0.15021404  0.84978596  1
  K  K7  1  0.15021404  0.84978596  0.34978596  1
  K  K8  1  0.09950722  0.09950722  0.09950722  1
  K  K9  1  0.40049278  0.90049278  0.59950722  1
  K  K10  1  0.90049278  0.59950722  0.40049278  1
  K  K11  1  0.59950722  0.40049278  0.90049278  1
  Be  Be0  1  0.18359087  0.56677246  0.37483848  1
  Be  Be1  1  0.31640913  0.43322754  0.87483848  1
  Be  Be2  1  0.81640913  0.06677246  0.12516152  1
  Be  Be3  1  0.37483848  0.18359087  0.56677246  1
  Be  Be4  1  0.68359087  0.93322754  0.62516152  1
  Be  Be5  1  0.87483848  0.31640913  0.43322754  1
  Be  Be6  1  0.12516152  0.81640913  0.06677246  1
  Be  Be7  1  0.62516152  0.68359087  0.93322754  1
  Be  Be8  1  0.56677246  0.37483848  0.18359087  1
  Be  Be9  1  0.06677246  0.12516152  0.81640913  1
  Be  Be10  1  0.93322754  0.62516152  0.68359087  1
  Be  Be11  1  0.43322754  0.87483848  0.31640913  1
  B  B0  1  0.12490321  0.14102634  0.39056234  1
  B  B1  1  0.37509679  0.85897366  0.89056234  1
  B  B2  1  0.87509679  0.64102634  0.10943766  1
  B  B3  1  0.39056234  0.12490321  0.14102634  1
  B  B4  1  0.62490321  0.35897366  0.60943766  1
  B  B5  1  0.89056234  0.37509679  0.85897366  1
  B  B6  1  0.10943766  0.87509679  0.64102634  1
  B  B7  1  0.60943766  0.62490321  0.35897366  1
  B  B8  1  0.14102634  0.39056234  0.12490321  1
  B  B9  1  0.64102634  0.10943766  0.87509679  1
  B  B10  1  0.35897366  0.60943766  0.62490321  1
  B  B11  1  0.85897366  0.89056234  0.37509679  1
  P  P0  1  0.08952960  0.35658724  0.33799782  1
  P  P1  1  0.41047040  0.64341276  0.83799782  1
  P  P2  1  0.91047040  0.85658724  0.16200218  1
  P  P3  1  0.33799782  0.08952960  0.35658724  1
  P  P4  1  0.58952960  0.14341276  0.66200218  1
  P  P5  1  0.83799782  0.41047040  0.64341276  1
  P  P6  1  0.16200218  0.91047040  0.85658724  1
  P  P7  1  0.66200218  0.58952960  0.14341276  1
  P  P8  1  0.35658724  0.33799782  0.08952960  1
  P  P9  1  0.85658724  0.16200218  0.91047040  1
  P  P10  1  0.14341276  0.66200218  0.58952960  1
  P  P11  1  0.64341276  0.83799782  0.41047040  1
  P  P12  1  0.08828000  0.60656794  0.16038675  1
  P  P13  1  0.41172000  0.39343206  0.66038675  1
  P  P14  1  0.91172000  0.10656794  0.33961325  1
  P  P15  1  0.16038675  0.08828000  0.60656794  1
  P  P16  1  0.58828000  0.89343206  0.83961325  1
  P  P17  1  0.66038675  0.41172000  0.39343206  1
  P  P18  1  0.33961325  0.91172000  0.10656794  1
  P  P19  1  0.83961325  0.58828000  0.89343206  1
  P  P20  1  0.60656794  0.16038675  0.08828000  1
  P  P21  1  0.10656794  0.33961325  0.91172000  1
  P  P22  1  0.89343206  0.83961325  0.58828000  1
  P  P23  1  0.39343206  0.66038675  0.41172000  1
  O  O0  1  0.08403966  0.12153055  0.69167991  1
  O  O1  1  0.41596034  0.87846945  0.19167991  1
  O  O2  1  0.91596034  0.62153055  0.80832009  1
  O  O3  1  0.69167991  0.08403966  0.12153055  1
  O  O4  1  0.58403966  0.37846945  0.30832009  1
  O  O5  1  0.19167991  0.41596034  0.87846945  1
  O  O6  1  0.80832009  0.91596034  0.62153055  1
  O  O7  1  0.30832009  0.58403966  0.37846945  1
  O  O8  1  0.12153055  0.69167991  0.08403966  1
  O  O9  1  0.62153055  0.80832009  0.91596034  1
  O  O10  1  0.37846945  0.30832009  0.58403966  1
  O  O11  1  0.87846945  0.19167991  0.41596034  1
  O  O12  1  0.12983552  0.62225194  0.27165668  1
  O  O13  1  0.37016448  0.37774806  0.77165668  1
  O  O14  1  0.87016448  0.12225194  0.22834332  1
  O  O15  1  0.27165668  0.12983552  0.62225194  1
  O  O16  1  0.62983552  0.87774806  0.72834332  1
  O  O17  1  0.77165668  0.37016448  0.37774806  1
  O  O18  1  0.22834332  0.87016448  0.12225194  1
  O  O19  1  0.72834332  0.62983552  0.87774806  1
  O  O20  1  0.62225194  0.27165668  0.12983552  1
  O  O21  1  0.12225194  0.22834332  0.87016448  1
  O  O22  1  0.87774806  0.72834332  0.62983552  1
  O  O23  1  0.37774806  0.77165668  0.37016448  1
  O  O24  1  0.16471708  0.44233119  0.37145619  1
  O  O25  1  0.33528292  0.55766881  0.87145619  1
  O  O26  1  0.83528292  0.94233119  0.12854381  1
  O  O27  1  0.37145619  0.16471708  0.44233119  1
  O  O28  1  0.66471708  0.05766881  0.62854381  1
  O  O29  1  0.87145619  0.33528292  0.55766881  1
  O  O30  1  0.12854381  0.83528292  0.94233119  1
  O  O31  1  0.62854381  0.66471708  0.05766881  1
  O  O32  1  0.44233119  0.37145619  0.16471708  1
  O  O33  1  0.94233119  0.12854381  0.83528292  1
  O  O34  1  0.05766881  0.62854381  0.66471708  1
  O  O35  1  0.55766881  0.87145619  0.33528292  1
  O  O36  1  0.03545932  0.10220665  0.32665166  1
  O  O37  1  0.46454068  0.89779335  0.82665166  1
  O  O38  1  0.96454068  0.60220665  0.17334834  1
  O  O39  1  0.32665166  0.03545932  0.10220665  1
  O  O40  1  0.53545932  0.39779335  0.67334834  1
  O  O41  1  0.82665166  0.46454068  0.89779335  1
  O  O42  1  0.17334834  0.96454068  0.60220665  1
  O  O43  1  0.67334834  0.53545932  0.39779335  1
  O  O44  1  0.10220665  0.32665166  0.03545932  1
  O  O45  1  0.60220665  0.17334834  0.96454068  1
  O  O46  1  0.39779335  0.67334834  0.53545932  1
  O  O47  1  0.89779335  0.82665166  0.46454068  1
  O  O48  1  0.14490790  0.25313595  0.37339679  1
  O  O49  1  0.35509210  0.74686405  0.87339679  1
  O  O50  1  0.85509210  0.75313595  0.12660321  1
  O  O51  1  0.37339679  0.14490790  0.25313595  1
  O  O52  1  0.64490790  0.24686405  0.62660321  1
  O  O53  1  0.87339679  0.35509210  0.74686405  1
  O  O54  1  0.12660321  0.85509210  0.75313595  1
  O  O55  1  0.62660321  0.64490790  0.24686405  1
  O  O56  1  0.25313595  0.37339679  0.14490790  1
  O  O57  1  0.75313595  0.12660321  0.85509210  1
  O  O58  1  0.24686405  0.62660321  0.64490790  1
  O  O59  1  0.74686405  0.87339679  0.35509210  1
  O  O60  1  0.87369747  0.87369747  0.87369747  1
  O  O61  1  0.62630253  0.12630253  0.37369747  1
  O  O62  1  0.12630253  0.37369747  0.62630253  1
  O  O63  1  0.37369747  0.62630253  0.12630253  1
  O  O64  1  0.12833864  0.62169797  0.47750395  1
  O  O65  1  0.37166136  0.37830203  0.97750395  1
  O  O66  1  0.87166136  0.12169797  0.02249605  1
  O  O67  1  0.47750395  0.12833864  0.62169797  1
  O  O68  1  0.62833864  0.87830203  0.52249605  1
  O  O69  1  0.97750395  0.37166136  0.37830203  1
  O  O70  1  0.02249605  0.87166136  0.12169797  1
  O  O71  1  0.52249605  0.62833864  0.87830203  1
  O  O72  1  0.62169797  0.47750395  0.12833864  1
  O  O73  1  0.12169797  0.02249605  0.87166136  1
  O  O74  1  0.87830203  0.52249605  0.62833864  1
  O  O75  1  0.37830203  0.97750395  0.37166136  1
  O  O76  1  0.07737973  0.35091305  0.21427654  1
  O  O77  1  0.42262027  0.64908695  0.71427654  1
  O  O78  1  0.92262027  0.85091305  0.28572346  1
  O  O79  1  0.21427654  0.07737973  0.35091305  1
  O  O80  1  0.57737973  0.14908695  0.78572346  1
  O  O81  1  0.71427654  0.42262027  0.64908695  1
  O  O82  1  0.28572346  0.92262027  0.85091305  1
  O  O83  1  0.78572346  0.57737973  0.14908695  1
  O  O84  1  0.35091305  0.21427654  0.07737973  1
  O  O85  1  0.85091305  0.28572346  0.92262027  1
  O  O86  1  0.14908695  0.78572346  0.57737973  1
  O  O87  1  0.64908695  0.71427654  0.42262027  1
  O  O88  1  0.10529827  0.12257579  0.50261978  1
  O  O89  1  0.39470173  0.87742421  0.00261978  1
  O  O90  1  0.89470173  0.62257579  0.99738022  1
  O  O91  1  0.50261978  0.10529827  0.12257579  1
  O  O92  1  0.60529827  0.37742421  0.49738022  1
  O  O93  1  0.00261978  0.39470173  0.87742421  1
  O  O94  1  0.99738022  0.89470173  0.62257579  1
  O  O95  1  0.49738022  0.60529827  0.37742421  1
  O  O96  1  0.12257579  0.50261978  0.10529827  1
  O  O97  1  0.62257579  0.99738022  0.89470173  1
  O  O98  1  0.37742421  0.49738022  0.60529827  1
  O  O99  1  0.87742421  0.00261978  0.39470173  1
loop_
_geom_bond_atom_site_label_1
_geom_bond_atom_site_label_2
_geom_bond_distance
_geom_bond_site_symmetry_2
K0 O7 2.790900 1_555
K0 O10 2.790900 1_555
K0 O4 2.790900 1_555
K0 O32 2.808707 1_555
K0 O27 2.808707 1_555
K0 O24 2.808707 1_555
K1 O8 2.790900 1_556
K1 O2 2.790900 1_455
K1 O5 2.790900 1_555
K1 O25 2.808707 1_555
K1 O34 2.808707 1_555
K1 O30 2.808707 1_555
K2 O3 2.790900 1_565
K2 O9 2.790900 1_554
K2 O1 2.790900 1_555
K2 O35 2.808707 1_555
K2 O31 2.808707 1_555
K2 O26 2.808707 1_555
K3 O0 2.790900 1_655
K3 O11 2.790900 1_555
K3 O6 2.790900 1_545
K3 O29 2.808707 1_555
K3 O28 2.808707 1_555
K3 O33 2.808707 1_555
K4 O87 3.007173 1_555
K4 O77 3.007173 1_555
K4 O81 3.007173 1_555
K4 O19 3.070702 1_555
K4 O22 3.070702 1_555
K4 O16 3.070702 1_555
K5 O83 3.007173 1_555
K5 O85 3.007173 1_554
K5 O76 3.007173 1_655
K5 O17 3.070702 1_555
K5 O20 3.070702 1_555
K5 O14 3.070702 1_555
K6 O80 3.007173 1_555
K6 O82 3.007173 1_545
K6 O84 3.007173 1_556
K6 O15 3.070702 1_555
K6 O13 3.070702 1_555
K6 O21 3.070702 1_555
K7 O78 3.007173 1_455
K7 O86 3.007173 1_555
K7 O79 3.007173 1_565
K7 O12 3.070702 1_555
K7 O23 3.070702 1_555
K7 O18 3.070702 1_555
K8 O36 3.001784 1_555
K8 O39 3.001784 1_555
K8 O44 3.001784 1_555
K8 O70 3.071906 1_545
K8 O73 3.071906 1_554
K8 O66 3.071906 1_455
K9 O42 3.001784 1_555
K9 O46 3.001784 1_555
K9 O37 3.001784 1_555
K9 O67 3.071906 1_565
K9 O68 3.071906 1_555
K9 O75 3.071906 1_555
K10 O43 3.001784 1_555
K10 O47 3.001784 1_555
K10 O38 3.001784 1_555
K10 O74 3.071906 1_555
K10 O64 3.071906 1_655
K10 O69 3.071906 1_555
K11 O45 3.001784 1_555
K11 O41 3.001784 1_555
K11 O40 3.001784 1_555
K11 O71 3.071906 1_555
K11 O72 3.071906 1_556
K11 O65 3.071906 1_555
Be0 O24 1.601386 1_555
Be0 O7 1.602165 1_555
Be0 O64 1.639150 1_555
Be0 O12 1.639361 1_555
Be1 O25 1.601386 1_555
Be1 O5 1.602165 1_555
Be1 O65 1.639150 1_555
Be1 O13 1.639361 1_555
Be2 O26 1.601386 1_545
Be2 O3 1.602165 1_555
Be2 O66 1.639150 1_555
Be2 O14 1.639361 1_555
Be3 O27 1.601386 1_555
Be3 O10 1.602165 1_555
Be3 O67 1.639150 1_555
Be3 O15 1.639361 1_555
Be4 O28 1.601386 1_565
Be4 O6 1.602165 1_555
Be4 O68 1.639150 1_555
Be4 O16 1.639361 1_555
Be5 O29 1.601386 1_555
Be5 O11 1.602165 1_555
Be5 O69 1.639150 1_555
Be5 O17 1.639361 1_555
Be6 O30 1.601386 1_554
Be6 O8 1.602165 1_555
Be6 O70 1.639150 1_555
Be6 O18 1.639361 1_555
Be7 O31 1.601386 1_556
Be7 O9 1.602165 1_555
Be7 O71 1.639150 1_555
Be7 O19 1.639361 1_555
Be8 O32 1.601386 1_555
Be8 O4 1.602165 1_555
Be8 O72 1.639150 1_555
Be8 O20 1.639361 1_555
Be9 O33 1.601386 1_455
Be9 O0 1.602165 1_555
Be9 O73 1.639150 1_555
Be9 O21 1.639361 1_555
Be10 O34 1.601386 1_655
Be10 O2 1.602165 1_555
Be10 O74 1.639150 1_555
Be10 O22 1.639361 1_555
Be11 O35 1.601386 1_555
Be11 O1 1.602165 1_555
Be11 O75 1.639150 1_555
Be11 O23 1.639361 1_555
B0 O48 1.464751 1_555
B0 O88 1.465758 1_555
B0 O36 1.482771 1_555
B0 O79 1.483796 1_555
B1 O49 1.464751 1_555
B1 O89 1.465758 1_556
B1 O37 1.482771 1_555
B1 O82 1.483796 1_555
B2 O50 1.464751 1_555
B2 O90 1.465758 1_554
B2 O38 1.482771 1_555
B2 O83 1.483796 1_555
B3 O51 1.464751 1_555
B3 O91 1.465758 1_555
B3 O39 1.482771 1_555
B3 O84 1.483796 1_555
B4 O52 1.464751 1_555
B4 O92 1.465758 1_555
B4 O40 1.482771 1_555
B4 O81 1.483796 1_555
B5 O53 1.464751 1_555
B5 O93 1.465758 1_655
B5 O41 1.482771 1_555
B5 O85 1.483796 1_555
B6 O54 1.464751 1_555
B6 O94 1.465758 1_455
B6 O42 1.482771 1_555
B6 O86 1.483796 1_555
B7 O55 1.464751 1_555
B7 O95 1.465758 1_555
B7 O43 1.482771 1_555
B7 O87 1.483796 1_555
B8 O56 1.464751 1_555
B8 O96 1.465758 1_555
B8 O44 1.482771 1_555
B8 O76 1.483796 1_555
B9 O57 1.464751 1_555
B9 O97 1.465758 1_545
B9 O45 1.482771 1_555
B9 O80 1.483796 1_555
B10 O58 1.464751 1_555
B10 O98 1.465758 1_555
B10 O46 1.482771 1_555
B10 O77 1.483796 1_555
B11 O59 1.464751 1_555
B11 O99 1.465758 1_565
B11 O47 1.482771 1_555
B11 O78 1.483796 1_555
O0 P15 1.514439 1_555
O1 P18 1.514439 1_555
O2 P19 1.514439 1_555
O3 P20 1.514439 1_555
O4 P17 1.514439 1_555
O5 P21 1.514439 1_555
O6 P22 1.514439 1_555
O7 P23 1.514439 1_555
O8 P12 1.514439 1_555
O9 P16 1.514439 1_555
O10 P13 1.514439 1_555
O11 P14 1.514439 1_555
O12 P12 1.523773 1_555
O13 P13 1.523773 1_555
O14 P14 1.523773 1_555
O15 P15 1.523773 1_555
O16 P16 1.523773 1_555
O17 P17 1.523773 1_555
O18 P18 1.523773 1_555
O19 P19 1.523773 1_555
O20 P20 1.523773 1_555
O21 P21 1.523773 1_555
O22 P22 1.523773 1_555
O23 P23 1.523773 1_555
O24 P0 1.511559 1_555
O25 P1 1.511559 1_555
O26 P2 1.511559 1_555
O27 P3 1.511559 1_555
O28 P4 1.511559 1_555
O29 P5 1.511559 1_555
O30 P6 1.511559 1_555
O31 P7 1.511559 1_555
O32 P8 1.511559 1_555
O33 P9 1.511559 1_555
O34 P10 1.511559 1_555
O35 P11 1.511559 1_555
O36 P14 1.583362 1_455
O37 P16 1.583362 1_555
O38 P12 1.583362 1_655
O39 P18 1.583362 1_545
O40 P13 1.583362 1_555
O41 P19 1.583362 1_555
O42 P15 1.583362 1_565
O43 P17 1.583362 1_555
O44 P21 1.583362 1_554
O45 P20 1.583362 1_556
O46 P23 1.583362 1_555
O47 P22 1.583362 1_555
O48 P0 1.558836 1_555
O49 P1 1.558836 1_555
O50 P2 1.558836 1_555
O51 P3 1.558836 1_555
O52 P4 1.558836 1_555
O53 P5 1.558836 1_555
O54 P6 1.558836 1_555
O55 P7 1.558836 1_555
O56 P8 1.558836 1_555
O57 P9 1.558836 1_555
O58 P10 1.558836 1_555
O59 P11 1.558836 1_555
O64 P10 1.526296 1_555
O65 P8 1.526296 1_556
O66 P9 1.526296 1_554
O67 P4 1.526296 1_555
O68 P11 1.526296 1_555
O69 P0 1.526296 1_655
O70 P2 1.526296 1_455
O71 P1 1.526296 1_555
O72 P7 1.526296 1_555
O73 P6 1.526296 1_545
O74 P5 1.526296 1_555
O75 P3 1.526296 1_565
O76 P0 1.582766 1_555
O77 P1 1.582766 1_555
O78 P2 1.582766 1_555
O79 P3 1.582766 1_555
O80 P4 1.582766 1_555
O81 P5 1.582766 1_555
O82 P6 1.582766 1_555
O83 P7 1.582766 1_555
O84 P8 1.582766 1_555
O85 P9 1.582766 1_555
O86 P10 1.582766 1_555
O87 P11 1.582766 1_555
O88 P15 1.558532 1_555
O89 P18 1.558532 1_555
O90 P19 1.558532 1_555
O91 P20 1.558532 1_555
O92 P17 1.558532 1_555
O93 P21 1.558532 1_555
O94 P22 1.558532 1_555
O95 P23 1.558532 1_555
O96 P12 1.558532 1_555
O97 P16 1.558532 1_555
O98 P13 1.558532 1_555
O99 P14 1.558532 1_555
