# generated using pymatgen
data_Na2Ca5TiSi4(O8F)2
_symmetry_space_group_name_H-M   'P 1'
_cell_length_a   5.72650100
_cell_length_b   7.42062300
_cell_length_c   19.12933236
_cell_angle_alpha   78.88867181
_cell_angle_beta   90.00000000
_cell_angle_gamma   90.00000000
_symmetry_Int_Tables_number   1
_chemical_formula_structural   Na2Ca5TiSi4(O8F)2
_chemical_formula_sum   'Na4 Ca10 Ti2 Si8 O32 F4'
_cell_volume   797.64788660
_cell_formula_units_Z   2
loop_
 _symmetry_equiv_pos_site_id
 _symmetry_equiv_pos_as_xyz
  1  'x, y, z'
loop_
 _atom_site_type_symbol
 _atom_site_label
 _atom_site_symmetry_multiplicity
 _atom_site_fract_x
 _atom_site_fract_y
 _atom_site_fract_z
 _atom_site_occupancy
  Na  Na0  1  0.83889100  0.50416000  0.25074100  1
  Na  Na1  1  0.33889100  0.49584000  0.74925900  1
  Na  Na2  1  0.83644300  0.99195100  0.25602600  1
  Na  Na3  1  0.33644300  0.00804900  0.74397400  1
  Ca  Ca0  1  0.18608900  0.34669800  0.56170000  1
  Ca  Ca1  1  0.68608900  0.65330200  0.43830000  1
  Ca  Ca2  1  0.00306800  0.34076300  0.05987200  1
  Ca  Ca3  1  0.50306800  0.65923700  0.94012800  1
  Ca  Ca4  1  0.99698300  0.84693500  0.05614300  1
  Ca  Ca5  1  0.49698300  0.15306500  0.94385700  1
  Ca  Ca6  1  0.33654500  0.24756700  0.24971000  1
  Ca  Ca7  1  0.83654500  0.75243300  0.75029000  1
  Ca  Ca8  1  0.18355000  0.84450000  0.55806100  1
  Ca  Ca9  1  0.68355000  0.15550000  0.44193900  1
  Ti  Ti0  1  0.37178700  0.74475900  0.25944400  1
  Ti  Ti1  1  0.87178700  0.25524100  0.74055600  1
  Si  Si0  1  0.18775000  0.39578200  0.38990400  1
  Si  Si1  1  0.68775000  0.60421800  0.61009600  1
  Si  Si2  1  0.19211900  0.95771800  0.39185800  1
  Si  Si3  1  0.69211900  0.04228200  0.60814200  1
  Si  Si4  1  0.49139400  0.09923400  0.11151700  1
  Si  Si5  1  0.99139400  0.90076600  0.88848300  1
  Si  Si6  1  0.48640700  0.53971600  0.10812500  1
  Si  Si7  1  0.98640700  0.46028400  0.89187500  1
  O  O0  1  0.20081500  0.18686700  0.36923400  1
  O  O1  1  0.70081500  0.81313300  0.63076600  1
  O  O2  1  0.40721500  0.41347500  0.44152000  1
  O  O3  1  0.90721500  0.58652500  0.55848000  1
  O  O4  1  0.41761700  0.89422300  0.44184500  1
  O  O5  1  0.91761700  0.10577700  0.55815500  1
  O  O6  1  0.46505800  0.58718400  0.18868600  1
  O  O7  1  0.96505800  0.41281600  0.81131400  1
  O  O8  1  0.07711600  0.76167700  0.18430300  1
  O  O9  1  0.57711600  0.23832300  0.81569700  1
  O  O10  1  0.19971400  0.90903800  0.31113900  1
  O  O11  1  0.69971400  0.09096200  0.68886100  1
  O  O12  1  0.73258100  0.59539100  0.06817500  1
  O  O13  1  0.23258100  0.40460900  0.93182500  1
  O  O14  1  0.20737200  0.51994600  0.30905500  1
  O  O15  1  0.70737200  0.48005400  0.69094500  1
  O  O16  1  0.62899200  0.71754900  0.30929600  1
  O  O17  1  0.12899200  0.28245100  0.69070400  1
  O  O18  1  0.46969000  0.31059900  0.12984000  1
  O  O19  1  0.96969000  0.68940100  0.87016000  1
  O  O20  1  0.26717800  0.60547100  0.05564100  1
  O  O21  1  0.76717800  0.39452900  0.94435900  1
  O  O22  1  0.24048400  0.91695700  0.92675000  1
  O  O23  1  0.74048400  0.08304300  0.07325000  1
  O  O24  1  0.47500800  0.97795700  0.19289800  1
  O  O25  1  0.97500800  0.02204300  0.80710200  1
  O  O26  1  0.95134300  0.90178100  0.43474700  1
  O  O27  1  0.45134300  0.09821900  0.56525300  1
  O  O28  1  0.27420100  0.08157800  0.05888600  1
  O  O29  1  0.77420100  0.91842200  0.94111400  1
  O  O30  1  0.43985600  0.58584300  0.57189300  1
  O  O31  1  0.93985600  0.41415700  0.42810700  1
  F  F0  1  0.49922100  0.72445400  0.81149000  1
  F  F1  1  0.99922100  0.27554600  0.18851000  1
  F  F2  1  0.17251200  0.78236200  0.68681600  1
  F  F3  1  0.67251200  0.21763800  0.31318400  1
loop_
_geom_bond_atom_site_label_1
_geom_bond_atom_site_label_2
_geom_bond_distance
_geom_bond_site_symmetry_2
Na0 O14 2.400208 1_655
Na0 O16 2.427031 1_555
Na0 O6 2.467722 1_555
Na0 O8 2.488344 1_655
Na1 O15 2.400208 1_555
Na1 O17 2.427031 1_555
Na1 O7 2.467722 1_455
Na1 O9 2.488344 1_555
Na2 O10 2.359569 1_655
Na2 O16 2.407522 1_555
Na2 O24 2.408590 1_555
Na2 O8 2.757797 1_655
Na3 O11 2.359569 1_555
Na3 O17 2.407522 1_555
Na3 O25 2.408590 1_455
Na3 O9 2.757797 1_555
Ca0 O30 2.330749 1_555
Ca0 O5 2.368779 1_455
Ca0 O27 2.379803 1_555
Ca0 O3 2.383081 1_455
Ca0 O17 2.443476 1_555
Ca0 O2 2.587500 1_555
Ca0 O31 2.876904 1_455
Ca1 O31 2.330749 1_555
Ca1 O4 2.368779 1_555
Ca1 O26 2.379803 1_555
Ca1 O2 2.383081 1_555
Ca1 O16 2.443476 1_555
Ca1 O3 2.587500 1_555
Ca1 O30 2.876904 1_555
Ca2 O23 2.407357 1_455
Ca2 F1 2.414751 1_455
Ca2 O20 2.468030 1_555
Ca2 O12 2.471908 1_455
Ca2 O28 2.474707 1_555
Ca2 O21 2.554764 1_454
Ca2 O13 2.739416 1_554
Ca2 O18 2.977622 1_555
Ca3 O22 2.407357 1_555
Ca3 F0 2.414751 1_555
Ca3 O21 2.468030 1_555
Ca3 O13 2.471908 1_555
Ca3 O29 2.474707 1_555
Ca3 O20 2.554764 1_556
Ca3 O12 2.739416 1_556
Ca3 O19 2.977622 1_555
Ca4 O23 2.356973 1_565
Ca4 O28 2.364288 1_665
Ca4 O20 2.368833 1_655
Ca4 O12 2.379942 1_555
Ca4 O8 2.454268 1_655
Ca4 O29 2.510169 1_554
Ca4 O22 2.800942 1_654
Ca5 O22 2.356973 1_545
Ca5 O29 2.364288 1_545
Ca5 O21 2.368833 1_555
Ca5 O13 2.379942 1_555
Ca5 O9 2.454268 1_555
Ca5 O28 2.510169 1_556
Ca5 O23 2.800942 1_556
Ca6 F1 2.247534 1_455
Ca6 F3 2.262997 1_555
Ca6 O0 2.374397 1_555
Ca6 O18 2.375863 1_555
Ca6 O24 2.578860 1_545
Ca6 O14 2.608764 1_555
Ca6 O6 2.668640 1_555
Ca6 O10 2.677251 1_545
Ca7 F0 2.247534 1_555
Ca7 F2 2.262997 1_655
Ca7 O1 2.374397 1_555
Ca7 O19 2.375863 1_555
Ca7 O25 2.578860 1_565
Ca7 O15 2.608764 1_555
Ca7 O7 2.668640 1_555
Ca7 O11 2.677251 1_565
Ca8 O30 2.390104 1_555
Ca8 F2 2.417692 1_555
Ca8 O27 2.452590 1_565
Ca8 O5 2.465676 1_465
Ca8 O3 2.482523 1_455
Ca8 O4 2.561042 1_555
Ca8 O26 2.669622 1_455
Ca9 O31 2.390104 1_555
Ca9 F3 2.417692 1_555
Ca9 O26 2.452590 1_545
Ca9 O4 2.465676 1_545
Ca9 O2 2.482523 1_555
Ca9 O5 2.561042 1_555
Ca9 O27 2.669622 1_555
O0 Si2 1.672600 1_545
O0 Si0 1.673790 1_555
O1 Si3 1.672600 1_565
O1 Si1 1.673790 1_555
O2 Si0 1.619131 1_555
O3 Si1 1.619131 1_555
O4 Si2 1.621788 1_555
O5 Si3 1.621788 1_555
O6 Si6 1.650202 1_555
O6 Ti0 2.023534 1_555
O7 Si7 1.650202 1_555
O7 Ti1 2.023534 1_555
O8 Ti0 2.204484 1_555
O9 Ti1 2.204484 1_555
O10 Si2 1.652761 1_555
O10 Ti0 1.974741 1_555
O11 Si3 1.652761 1_555
O11 Ti1 1.974741 1_555
O12 Si6 1.618740 1_555
O13 Si7 1.618740 1_455
O14 Si0 1.644462 1_555
O14 Ti0 1.989965 1_555
O15 Si1 1.644462 1_555
O15 Ti1 1.989965 1_555
O16 Ti0 1.745097 1_555
O17 Ti1 1.745097 1_455
O18 Si6 1.673366 1_555
O18 Si4 1.676384 1_555
O19 Si7 1.673366 1_555
O19 Si5 1.676384 1_555
O20 Si6 1.622751 1_555
O21 Si7 1.622751 1_555
O22 Si5 1.618286 1_455
O23 Si4 1.618286 1_555
O24 Si4 1.643848 1_565
O24 Ti0 2.028636 1_555
O25 Si5 1.643848 1_545
O25 Ti1 2.028636 1_555
O26 Si2 1.617175 1_655
O27 Si3 1.617175 1_555
O28 Si4 1.621288 1_555
O29 Si5 1.621288 1_555
O30 Si1 1.614382 1_555
O31 Si0 1.614382 1_655
F0 Na1 2.432378 1_555
F0 Na3 2.432712 1_565
F1 Na0 2.432378 1_555
F1 Na2 2.432712 1_545
F2 Na3 2.363746 1_565
F2 Na1 2.424110 1_555
F3 Na2 2.363746 1_545
F3 Na0 2.424110 1_555
