# generated using pymatgen
data_Pr(Ge3Pt)4
_symmetry_space_group_name_H-M   'P 1'
_cell_length_a   7.56090753
_cell_length_b   7.56090753
_cell_length_c   7.56090753
_cell_angle_alpha   109.47122063
_cell_angle_beta   109.47122063
_cell_angle_gamma   109.47122063
_symmetry_Int_Tables_number   1
_chemical_formula_structural   Pr(Ge3Pt)4
_chemical_formula_sum   'Pr1 Ge12 Pt4'
_cell_volume   332.73607547
_cell_formula_units_Z   1
loop_
 _symmetry_equiv_pos_site_id
 _symmetry_equiv_pos_as_xyz
  1  'x, y, z'
loop_
 _atom_site_type_symbol
 _atom_site_label
 _atom_site_symmetry_multiplicity
 _atom_site_fract_x
 _atom_site_fract_y
 _atom_site_fract_z
 _atom_site_occupancy
  Pr  Pr0  1  0.00000000  0.00000000  0.00000000  1
  Ge  Ge0  1  0.35430800  0.20278600  0.84847800  1
  Ge  Ge1  1  0.64569200  0.79721400  0.15152200  1
  Ge  Ge2  1  0.64569200  0.49417000  0.84847800  1
  Ge  Ge3  1  0.35430800  0.50583000  0.15152200  1
  Ge  Ge4  1  0.20278600  0.84847800  0.35430800  1
  Ge  Ge5  1  0.79721400  0.15152200  0.64569200  1
  Ge  Ge6  1  0.49417000  0.84847800  0.64569200  1
  Ge  Ge7  1  0.50583000  0.15152200  0.35430800  1
  Ge  Ge8  1  0.84847800  0.35430800  0.20278600  1
  Ge  Ge9  1  0.15152200  0.64569200  0.79721400  1
  Ge  Ge10  1  0.84847800  0.64569200  0.49417000  1
  Ge  Ge11  1  0.15152200  0.35430800  0.50583000  1
  Pt  Pt0  1  0.00000000  0.00000000  0.50000000  1
  Pt  Pt1  1  0.50000000  0.00000000  0.00000000  1
  Pt  Pt2  1  0.00000000  0.50000000  0.00000000  1
  Pt  Pt3  1  0.50000000  0.50000000  0.50000000  1
loop_
_geom_bond_atom_site_label_1
_geom_bond_atom_site_label_2
_geom_bond_distance
_geom_bond_site_symmetry_2
Ge0 Pt0 2.516440 1_555
Ge0 Pt1 2.516440 1_556
Ge0 Ge2 2.543952 1_555
Ge0 Ge3 2.645751 1_556
Ge0 Pr0 3.364313 1_556
Ge1 Pt1 2.516440 1_565
Ge1 Pt0 2.516440 1_665
Ge1 Ge3 2.543952 1_555
Ge1 Ge2 2.645751 1_554
Ge1 Pr0 3.364313 1_665
Ge2 Pt3 2.516440 1_555
Ge2 Pt2 2.516440 1_656
Ge2 Pr0 3.364313 1_666
Ge3 Pt2 2.516440 1_555
Ge3 Pt3 2.516440 1_555
Ge3 Pr0 3.364313 1_555
Ge4 Pt2 2.516440 1_555
Ge4 Pt0 2.516440 1_565
Ge4 Ge6 2.543952 1_555
Ge4 Ge7 2.645751 1_565
Ge4 Pr0 3.364313 1_565
Ge5 Pt0 2.516440 1_655
Ge5 Pt2 2.516440 1_656
Ge5 Ge7 2.543952 1_555
Ge5 Ge6 2.645751 1_545
Ge5 Pr0 3.364313 1_656
Ge6 Pt3 2.516440 1_555
Ge6 Pt1 2.516440 1_566
Ge6 Pr0 3.364313 1_666
Ge7 Pt1 2.516440 1_555
Ge7 Pt3 2.516440 1_555
Ge7 Pr0 3.364313 1_555
Ge8 Pt1 2.516440 1_555
Ge8 Pt2 2.516440 1_655
Ge8 Pr0 3.364313 1_655
Ge9 Pt2 2.516440 1_556
Ge9 Pt1 2.516440 1_566
Ge9 Pr0 3.364313 1_566
Ge10 Pt3 2.516440 1_555
Ge10 Pt0 2.516440 1_665
Ge10 Ge8 2.543952 1_555
Ge10 Ge9 2.645751 1_655
Ge10 Pr0 3.364313 1_666
Ge11 Pt0 2.516440 1_555
Ge11 Pt3 2.516440 1_555
Ge11 Ge9 2.543952 1_555
Ge11 Ge8 2.645751 1_455
Ge11 Pr0 3.364313 1_555
