# generated using pymatgen
data_Ba10IBr4N5
_symmetry_space_group_name_H-M   'P 1'
_cell_length_a   4.20880384
_cell_length_b   4.20880384
_cell_length_c   40.31737107
_cell_angle_alpha   92.99196495
_cell_angle_beta   92.99196495
_cell_angle_gamma   60.00000250
_symmetry_Int_Tables_number   1
_chemical_formula_structural   Ba10IBr4N5
_chemical_formula_sum   'Ba10 I1 Br4 N5'
_cell_volume   617.37634338
_cell_formula_units_Z   1
loop_
 _symmetry_equiv_pos_site_id
 _symmetry_equiv_pos_as_xyz
  1  'x, y, z'
loop_
 _atom_site_type_symbol
 _atom_site_label
 _atom_site_symmetry_multiplicity
 _atom_site_fract_x
 _atom_site_fract_y
 _atom_site_fract_z
 _atom_site_occupancy
  Ba  Ba0  1  0.24479000  0.24479000  0.73437000  1
  Ba  Ba1  1  0.64397500  0.64397500  0.93192500  1
  Ba  Ba2  1  0.04719500  0.04719500  0.14158400  1
  Ba  Ba3  1  0.44638000  0.44638000  0.33914100  1
  Ba  Ba4  1  0.84558600  0.84558600  0.53676000  1
  Ba  Ba5  1  0.55362000  0.55362000  0.66085900  1
  Ba  Ba6  1  0.95280500  0.95280500  0.85841600  1
  Ba  Ba7  1  0.35602500  0.35602500  0.06807500  1
  Ba  Ba8  1  0.75521000  0.75521000  0.26563000  1
  Ba  Ba9  1  0.15441400  0.15441400  0.46324000  1
  I  I0  1  0.00000000  0.00000000  0.00000000  1
  Br  Br0  1  0.40120100  0.40120100  0.20360100  1
  Br  Br1  1  0.80039500  0.80039500  0.40118700  1
  Br  Br2  1  0.19960500  0.19960500  0.59881300  1
  Br  Br3  1  0.59879900  0.59879900  0.79639900  1
  N  N0  1  0.89920600  0.89920600  0.69761600  1
  N  N1  1  0.29836900  0.29836900  0.89510700  1
  N  N2  1  0.70163100  0.70163100  0.10489300  1
  N  N3  1  0.10079400  0.10079400  0.30238400  1
  N  N4  1  0.50000000  0.50000000  0.50000000  1
loop_
_geom_bond_atom_site_label_1
_geom_bond_atom_site_label_2
_geom_bond_distance
_geom_bond_site_symmetry_2
Ba0 N0 2.844729 1_445
Ba0 N0 2.844735 1_455
Ba0 N0 2.844735 1_545
Ba0 Br3 3.483700 1_555
Ba0 Br3 3.483705 1_455
Ba0 Br3 3.483705 1_545
Ba1 N1 2.846073 1_555
Ba1 N1 2.846073 1_565
Ba1 N1 2.846073 1_655
Ba1 I0 3.661990 1_666
Ba1 I0 3.661990 1_566
Ba1 I0 3.661990 1_656
Ba2 N2 2.843414 1_545
Ba2 N2 2.843414 1_455
Ba2 N2 2.843417 1_445
Ba2 Br0 3.483357 1_545
Ba2 Br0 3.483357 1_455
Ba2 Br0 3.483359 1_555
Ba3 N3 2.844795 1_565
Ba3 N3 2.844795 1_655
Ba3 N3 2.844798 1_555
Ba3 Br1 3.484192 1_555
Ba3 Br1 3.484195 1_545
Ba3 Br1 3.484195 1_455
Ba4 N4 2.844854 1_555
Ba4 N4 2.844860 1_565
Ba4 N4 2.844860 1_655
Ba4 Br2 3.484392 1_655
Ba4 Br2 3.484392 1_565
Ba4 Br2 3.484402 1_665
Ba5 N0 2.844795 1_545
Ba5 N0 2.844795 1_455
Ba5 N0 2.844798 1_555
Ba5 Br2 3.484192 1_555
Ba5 Br2 3.484195 1_655
Ba5 Br2 3.484195 1_565
Ba6 N1 2.843414 1_565
Ba6 N1 2.843414 1_655
Ba6 N1 2.843417 1_665
Ba6 Br3 3.483357 1_565
Ba6 Br3 3.483357 1_655
Ba6 Br3 3.483359 1_555
Ba7 N2 2.846073 1_555
Ba7 N2 2.846073 1_545
Ba7 N2 2.846073 1_455
Ba7 I0 3.661990 1_555
Ba7 I0 3.661990 1_655
Ba7 I0 3.661990 1_565
Ba8 N3 2.844729 1_665
Ba8 N3 2.844735 1_565
Ba8 N3 2.844735 1_655
Ba8 Br0 3.483700 1_555
Ba8 Br0 3.483705 1_565
Ba8 Br0 3.483705 1_655
Ba9 N4 2.844854 1_555
Ba9 N4 2.844860 1_545
Ba9 N4 2.844860 1_455
Ba9 Br1 3.484392 1_545
Ba9 Br1 3.484392 1_455
Ba9 Br1 3.484402 1_445
