# generated using pymatgen
data_Na2InCuCl6
_symmetry_space_group_name_H-M   'P 1'
_cell_length_a   7.11017647
_cell_length_b   7.11017647
_cell_length_c   7.11017647
_cell_angle_alpha   60.00000000
_cell_angle_beta   60.00000000
_cell_angle_gamma   60.00000000
_symmetry_Int_Tables_number   1
_chemical_formula_structural   Na2InCuCl6
_chemical_formula_sum   'Na2 In1 Cu1 Cl6'
_cell_volume   254.17108461
_cell_formula_units_Z   1
loop_
 _symmetry_equiv_pos_site_id
 _symmetry_equiv_pos_as_xyz
  1  'x, y, z'
loop_
 _atom_site_type_symbol
 _atom_site_label
 _atom_site_symmetry_multiplicity
 _atom_site_fract_x
 _atom_site_fract_y
 _atom_site_fract_z
 _atom_site_occupancy
  Na  Na0  1  0.75000000  0.75000000  0.75000000  1
  Na  Na1  1  0.25000000  0.25000000  0.25000000  1
  In  In0  1  0.00000000  0.00000000  0.00000000  1
  Cu  Cu0  1  0.50000000  0.50000000  0.50000000  1
  Cl  Cl0  1  0.74612600  0.25387400  0.25387400  1
  Cl  Cl1  1  0.25387400  0.25387400  0.74612600  1
  Cl  Cl2  1  0.25387400  0.74612600  0.74612600  1
  Cl  Cl3  1  0.25387400  0.74612600  0.25387400  1
  Cl  Cl4  1  0.74612600  0.25387400  0.74612600  1
  Cl  Cl5  1  0.74612600  0.74612600  0.25387400  1
loop_
_geom_bond_atom_site_label_1
_geom_bond_atom_site_label_2
_geom_bond_distance
_geom_bond_site_symmetry_2
Cl0 Cu0 2.474873 1_555
Cl0 In0 2.552781 1_655
Cl1 Cu0 2.474873 1_555
Cl1 In0 2.552781 1_556
Cl2 Cu0 2.474873 1_555
Cl2 In0 2.552781 1_566
Cl3 Cu0 2.474873 1_555
Cl3 In0 2.552781 1_565
Cl4 Cu0 2.474873 1_555
Cl4 In0 2.552781 1_656
Cl5 Cu0 2.474873 1_555
Cl5 In0 2.552781 1_665
