# generated using pymatgen
data_CsY(PO3)4
_symmetry_space_group_name_H-M   'P 1'
_cell_length_a   8.98454200
_cell_length_b   10.45860400
_cell_length_c   13.00909359
_cell_angle_alpha   56.51958159
_cell_angle_beta   90.00000000
_cell_angle_gamma   90.00000000
_symmetry_Int_Tables_number   1
_chemical_formula_structural   CsY(PO3)4
_chemical_formula_sum   'Cs4 Y4 P16 O48'
_cell_volume   1019.58043996
_cell_formula_units_Z   4
loop_
 _symmetry_equiv_pos_site_id
 _symmetry_equiv_pos_as_xyz
  1  'x, y, z'
loop_
 _atom_site_type_symbol
 _atom_site_label
 _atom_site_symmetry_multiplicity
 _atom_site_fract_x
 _atom_site_fract_y
 _atom_site_fract_z
 _atom_site_occupancy
  Cs  Cs0  1  0.56577400  0.28030800  0.03875000  1
  Cs  Cs1  1  0.93422600  0.28030800  0.53875000  1
  Cs  Cs2  1  0.43422600  0.71969200  0.96125000  1
  Cs  Cs3  1  0.06577400  0.71969200  0.46125000  1
  Y  Y0  1  0.72563400  0.81566300  0.68118600  1
  Y  Y1  1  0.77436600  0.81566300  0.18118600  1
  Y  Y2  1  0.27436600  0.18433700  0.31881400  1
  Y  Y3  1  0.22563400  0.18433700  0.81881400  1
  P  P0  1  0.41043700  0.89035500  0.25657100  1
  P  P1  1  0.08956300  0.89035500  0.75657100  1
  P  P2  1  0.58956300  0.10964500  0.74342900  1
  P  P3  1  0.91043700  0.10964500  0.24342900  1
  P  P4  1  0.67308400  0.17076200  0.36897700  1
  P  P5  1  0.82691600  0.17076200  0.86897700  1
  P  P6  1  0.32691600  0.82923800  0.63102300  1
  P  P7  1  0.17308400  0.82923800  0.13102300  1
  P  P8  1  0.47147000  0.53327100  0.71216300  1
  P  P9  1  0.02853000  0.53327100  0.21216300  1
  P  P10  1  0.52853000  0.46672900  0.28783700  1
  P  P11  1  0.97147000  0.46672900  0.78783700  1
  P  P12  1  0.10963800  0.29866700  0.02736700  1
  P  P13  1  0.39036200  0.29866700  0.52736700  1
  P  P14  1  0.89036200  0.70133300  0.97263300  1
  P  P15  1  0.60963800  0.70133300  0.47263300  1
  O  O0  1  0.54358400  0.54506300  0.59224500  1
  O  O1  1  0.95641600  0.54506300  0.09224500  1
  O  O2  1  0.45641600  0.45493700  0.40775500  1
  O  O3  1  0.04358400  0.45493700  0.90775500  1
  O  O4  1  0.58300900  0.57996400  0.77210500  1
  O  O5  1  0.91699100  0.57996400  0.27210500  1
  O  O6  1  0.41699100  0.42003600  0.22789500  1
  O  O7  1  0.08300900  0.42003600  0.72789500  1
  O  O8  1  0.79282600  0.21560300  0.25978300  1
  O  O9  1  0.70717400  0.21560300  0.75978300  1
  O  O10  1  0.20717400  0.78439700  0.74021700  1
  O  O11  1  0.29282600  0.78439700  0.24021700  1
  O  O12  1  0.54379600  0.92214000  0.17643700  1
  O  O13  1  0.95620400  0.92214000  0.67643700  1
  O  O14  1  0.45620400  0.07786000  0.82356300  1
  O  O15  1  0.04379600  0.07786000  0.32356300  1
  O  O16  1  0.74312800  0.06712800  0.49270300  1
  O  O17  1  0.75687200  0.06712800  0.99270300  1
  O  O18  1  0.25687200  0.93287200  0.50729700  1
  O  O19  1  0.24312800  0.93287200  0.00729700  1
  O  O20  1  0.40314400  0.37766900  0.79105900  1
  O  O21  1  0.09685600  0.37766900  0.29105900  1
  O  O22  1  0.59685600  0.62233100  0.20894100  1
  O  O23  1  0.90314400  0.62233100  0.70894100  1
  O  O24  1  0.32733300  0.02179500  0.24482800  1
  O  O25  1  0.17266700  0.02179500  0.74482800  1
  O  O26  1  0.67266700  0.97820500  0.75517200  1
  O  O27  1  0.82733300  0.97820500  0.25517200  1
  O  O28  1  0.21272000  0.33460200  0.09909800  1
  O  O29  1  0.28728000  0.33460200  0.59909800  1
  O  O30  1  0.78728000  0.66539800  0.90090200  1
  O  O31  1  0.71272000  0.66539800  0.40090200  1
  O  O32  1  0.16884500  0.20227800  0.98389100  1
  O  O33  1  0.33115500  0.20227800  0.48389100  1
  O  O34  1  0.83115500  0.79772200  0.01610900  1
  O  O35  1  0.66884500  0.79772200  0.51610900  1
  O  O36  1  0.52968000  0.12936800  0.33565800  1
  O  O37  1  0.97032000  0.12936800  0.83565800  1
  O  O38  1  0.47032000  0.87063200  0.66434200  1
  O  O39  1  0.02968000  0.87063200  0.16434200  1
  O  O40  1  0.83955500  0.33876400  0.84855100  1
  O  O41  1  0.66044500  0.33876400  0.34855100  1
  O  O42  1  0.16044500  0.66123600  0.15144900  1
  O  O43  1  0.33955500  0.66123600  0.65144900  1
  O  O44  1  0.95336500  0.22978200  0.10077400  1
  O  O45  1  0.54663500  0.22978200  0.60077400  1
  O  O46  1  0.04663500  0.77021800  0.89922600  1
  O  O47  1  0.45336500  0.77021800  0.39922600  1
loop_
_geom_bond_atom_site_label_1
_geom_bond_atom_site_label_2
_geom_bond_distance
_geom_bond_site_symmetry_2
Cs0 O17 3.122689 1_554
Cs0 O12 3.142703 1_545
Cs0 O4 3.143921 1_554
Cs0 O20 3.151922 1_554
Cs0 O8 3.277291 1_555
Cs0 O36 3.284635 1_555
Cs0 O40 3.298125 1_554
Cs0 O24 3.330075 1_555
Cs0 O28 3.390043 1_555
Cs1 O16 3.122689 1_555
Cs1 O13 3.142703 1_545
Cs1 O5 3.143921 1_555
Cs1 O21 3.151922 1_655
Cs1 O9 3.277291 1_555
Cs1 O37 3.284635 1_555
Cs1 O41 3.298125 1_555
Cs1 O25 3.330075 1_655
Cs1 O29 3.390043 1_655
Cs2 O19 3.122689 1_556
Cs2 O14 3.142703 1_565
Cs2 O6 3.143921 1_556
Cs2 O22 3.151922 1_556
Cs2 O10 3.277291 1_555
Cs2 O38 3.284635 1_555
Cs2 O42 3.298125 1_556
Cs2 O26 3.330075 1_555
Cs2 O30 3.390043 1_555
Cs3 O18 3.122689 1_555
Cs3 O15 3.142703 1_565
Cs3 O7 3.143921 1_555
Cs3 O23 3.151922 1_455
Cs3 O11 3.277291 1_555
Cs3 O39 3.284635 1_555
Cs3 O43 3.298125 1_555
Cs3 O27 3.330075 1_455
Cs3 O31 3.390043 1_455
O0 P15 1.624427 1_555
O0 P8 1.629848 1_555
O1 P14 1.624427 1_554
O1 P9 1.629848 1_655
O2 P13 1.624427 1_555
O2 P10 1.629848 1_555
O3 P12 1.624427 1_556
O3 P11 1.629848 1_455
O4 P8 1.506969 1_555
O4 Y0 2.429155 1_555
O5 P9 1.506969 1_655
O5 Y1 2.429155 1_555
O6 P10 1.506969 1_555
O6 Y2 2.429155 1_555
O7 P11 1.506969 1_455
O7 Y3 2.429155 1_555
O8 P3 1.627883 1_555
O8 P4 1.631012 1_555
O9 P2 1.627883 1_555
O9 P5 1.631012 1_555
O10 P1 1.627883 1_555
O10 P6 1.631012 1_555
O11 P0 1.627883 1_555
O11 P7 1.631012 1_555
O12 P0 1.500173 1_555
O12 Y1 2.336537 1_555
O13 P1 1.500173 1_655
O13 Y0 2.336537 1_555
O14 P2 1.500173 1_555
O14 Y3 2.336537 1_555
O15 P3 1.500173 1_455
O15 Y2 2.336537 1_555
O16 P4 1.495568 1_555
O16 Y0 2.416378 1_545
O17 P5 1.495568 1_555
O17 Y1 2.416378 1_546
O18 P6 1.495568 1_555
O18 Y2 2.416378 1_565
O19 P7 1.495568 1_555
O19 Y3 2.416378 1_564
O20 P8 1.495260 1_555
O20 Y3 2.440661 1_555
O21 P9 1.495260 1_555
O21 Y2 2.440661 1_555
O22 P10 1.495260 1_555
O22 Y1 2.440661 1_555
O23 P11 1.495260 1_555
O23 Y0 2.440661 1_555
O24 P0 1.496285 1_545
O24 Y2 2.418254 1_555
O25 P1 1.496285 1_545
O25 Y3 2.418254 1_555
O26 P2 1.496285 1_565
O26 Y0 2.418254 1_555
O27 P3 1.496285 1_565
O27 Y1 2.418254 1_555
O28 P12 1.502234 1_555
O28 Y2 2.447537 1_555
O29 P13 1.502234 1_555
O29 Y3 2.447537 1_555
O30 P14 1.502234 1_555
O30 Y0 2.447537 1_555
O31 P15 1.502234 1_555
O31 Y1 2.447537 1_555
O32 P12 1.499389 1_556
O32 Y3 2.313413 1_555
O33 P13 1.499389 1_555
O33 Y2 2.313413 1_555
O34 P14 1.499389 1_554
O34 Y1 2.313413 1_555
O35 P15 1.499389 1_555
O35 Y0 2.313413 1_555
O36 P4 1.497452 1_555
O36 Y2 2.345510 1_555
O37 P5 1.497452 1_555
O37 Y3 2.345510 1_655
O38 P6 1.497452 1_555
O38 Y0 2.345510 1_555
O39 P7 1.497452 1_555
O39 Y1 2.345510 1_455
O40 P11 1.628928 1_555
O40 P5 1.629620 1_555
O41 P10 1.628928 1_555
O41 P4 1.629620 1_555
O42 P9 1.628928 1_555
O42 P7 1.629620 1_555
O43 P8 1.628928 1_555
O43 P6 1.629620 1_555
O44 P3 1.612097 1_555
O44 P12 1.625807 1_655
O45 P2 1.612097 1_555
O45 P13 1.625807 1_555
O46 P1 1.612097 1_555
O46 P14 1.625807 1_455
O47 P0 1.612097 1_555
O47 P15 1.625807 1_555
