# generated using pymatgen
data_YMg30CuO32
_symmetry_space_group_name_H-M   'P 1'
_cell_length_a   8.58620400
_cell_length_b   8.58620400
_cell_length_c   8.58926000
_cell_angle_alpha   90.00000000
_cell_angle_beta   90.00000000
_cell_angle_gamma   90.00000000
_symmetry_Int_Tables_number   1
_chemical_formula_structural   YMg30CuO32
_chemical_formula_sum   'Y1 Mg30 Cu1 O32'
_cell_volume   633.22514858
_cell_formula_units_Z   1
loop_
 _symmetry_equiv_pos_site_id
 _symmetry_equiv_pos_as_xyz
  1  'x, y, z'
loop_
 _atom_site_type_symbol
 _atom_site_label
 _atom_site_symmetry_multiplicity
 _atom_site_fract_x
 _atom_site_fract_y
 _atom_site_fract_z
 _atom_site_occupancy
  Y  Y0  1  0.00000000  0.00000000  0.00000000  1
  Mg  Mg0  1  0.00000000  0.50000000  0.00000000  1
  Mg  Mg1  1  0.00000000  0.50000000  0.50000000  1
  Mg  Mg2  1  0.50000000  0.00000000  0.00000000  1
  Mg  Mg3  1  0.50000000  0.00000000  0.50000000  1
  Mg  Mg4  1  0.50000000  0.50000000  0.00000000  1
  Mg  Mg5  1  0.50000000  0.50000000  0.50000000  1
  Mg  Mg6  1  0.00000000  0.25396800  0.25971600  1
  Mg  Mg7  1  0.00000000  0.25396800  0.74028400  1
  Mg  Mg8  1  0.00000000  0.74603100  0.25971600  1
  Mg  Mg9  1  0.00000000  0.74603100  0.74028400  1
  Mg  Mg10  1  0.50000000  0.24995700  0.25188100  1
  Mg  Mg11  1  0.50000000  0.24995700  0.74811900  1
  Mg  Mg12  1  0.50000000  0.75004300  0.25188100  1
  Mg  Mg13  1  0.50000000  0.75004300  0.74811900  1
  Mg  Mg14  1  0.25396800  0.00000000  0.25971600  1
  Mg  Mg15  1  0.25396800  0.00000000  0.74028400  1
  Mg  Mg16  1  0.24995700  0.50000000  0.25188100  1
  Mg  Mg17  1  0.24995700  0.50000000  0.74811900  1
  Mg  Mg18  1  0.74603100  0.00000000  0.25971600  1
  Mg  Mg19  1  0.74603100  0.00000000  0.74028400  1
  Mg  Mg20  1  0.75004300  0.50000000  0.25188100  1
  Mg  Mg21  1  0.75004300  0.50000000  0.74811900  1
  Mg  Mg22  1  0.25580500  0.25580500  0.00000000  1
  Mg  Mg23  1  0.24807200  0.24807200  0.50000000  1
  Mg  Mg24  1  0.25580500  0.74419500  0.00000000  1
  Mg  Mg25  1  0.24807200  0.75192800  0.50000000  1
  Mg  Mg26  1  0.74419500  0.25580500  0.00000000  1
  Mg  Mg27  1  0.75192800  0.24807200  0.50000000  1
  Mg  Mg28  1  0.74419500  0.74419500  0.00000000  1
  Mg  Mg29  1  0.75192800  0.75192800  0.50000000  1
  Cu  Cu0  1  0.00000000  0.00000000  0.50000000  1
  O  O0  1  0.25968800  0.00000000  0.00000000  1
  O  O1  1  0.26667200  0.00000000  0.50000000  1
  O  O2  1  0.25182100  0.50000000  0.00000000  1
  O  O3  1  0.25226000  0.50000000  0.50000000  1
  O  O4  1  0.74031200  0.00000000  0.00000000  1
  O  O5  1  0.73332900  0.00000000  0.50000000  1
  O  O6  1  0.74817900  0.50000000  0.00000000  1
  O  O7  1  0.74774000  0.50000000  0.50000000  1
  O  O8  1  0.24903500  0.24903500  0.24898600  1
  O  O9  1  0.24903500  0.24903500  0.75101400  1
  O  O10  1  0.24903500  0.75096500  0.24898600  1
  O  O11  1  0.24903500  0.75096500  0.75101400  1
  O  O12  1  0.75096500  0.24903500  0.24898600  1
  O  O13  1  0.75096500  0.24903500  0.75101400  1
  O  O14  1  0.75096500  0.75096500  0.24898600  1
  O  O15  1  0.75096500  0.75096500  0.75101400  1
  O  O16  1  0.00000000  0.00000000  0.25361500  1
  O  O17  1  0.00000000  0.00000000  0.74638500  1
  O  O18  1  0.00000000  0.50000000  0.24842700  1
  O  O19  1  0.00000000  0.50000000  0.75157300  1
  O  O20  1  0.50000000  0.00000000  0.24842700  1
  O  O21  1  0.50000000  0.00000000  0.75157300  1
  O  O22  1  0.50000000  0.50000000  0.24887300  1
  O  O23  1  0.50000000  0.50000000  0.75112700  1
  O  O24  1  0.00000000  0.25968800  0.00000000  1
  O  O25  1  0.00000000  0.26667200  0.50000000  1
  O  O26  1  0.00000000  0.74031200  0.00000000  1
  O  O27  1  0.00000000  0.73332900  0.50000000  1
  O  O28  1  0.50000000  0.25182100  0.00000000  1
  O  O29  1  0.50000000  0.25226000  0.50000000  1
  O  O30  1  0.50000000  0.74817900  0.00000000  1
  O  O31  1  0.50000000  0.74774000  0.50000000  1
loop_
_geom_bond_atom_site_label_1
_geom_bond_atom_site_label_2
_geom_bond_distance
_geom_bond_site_symmetry_2
Mg0 O26 2.063368 1_555
Mg0 O24 2.063368 1_555
Mg0 O19 2.133804 1_554
Mg0 O18 2.133804 1_555
Mg0 O6 2.162186 1_455
Mg0 O2 2.162186 1_555
Mg1 O25 2.003402 1_555
Mg1 O27 2.003410 1_555
Mg1 O18 2.160826 1_555
Mg1 O19 2.160826 1_555
Mg1 O3 2.165956 1_555
Mg1 O7 2.165956 1_455
Mg2 O4 2.063368 1_555
Mg2 O0 2.063368 1_555
Mg2 O21 2.133804 1_554
Mg2 O20 2.133804 1_555
Mg2 O30 2.162186 1_545
Mg2 O28 2.162186 1_555
Mg3 O1 2.003402 1_555
Mg3 O5 2.003410 1_555
Mg3 O20 2.160826 1_555
Mg3 O21 2.160826 1_555
Mg3 O29 2.165956 1_555
Mg3 O31 2.165956 1_545
Mg4 O2 2.130916 1_555
Mg4 O28 2.130916 1_555
Mg4 O6 2.130916 1_555
Mg4 O30 2.130916 1_555
Mg4 O22 2.137635 1_555
Mg4 O23 2.137635 1_554
Mg5 O31 2.127146 1_555
Mg5 O7 2.127146 1_555
Mg5 O29 2.127146 1_555
Mg5 O3 2.127146 1_555
Mg5 O22 2.156995 1_555
Mg5 O23 2.156995 1_555
Mg6 O25 2.066742 1_555
Mg6 O18 2.114705 1_555
Mg6 O8 2.140670 1_555
Mg6 O12 2.140670 1_455
Mg6 O16 2.181251 1_555
Mg6 O24 2.231309 1_555
Mg7 O25 2.066742 1_555
Mg7 O19 2.114705 1_555
Mg7 O9 2.140670 1_555
Mg7 O13 2.140670 1_455
Mg7 O17 2.181251 1_555
Mg7 O24 2.231309 1_556
Mg8 O27 2.066741 1_555
Mg8 O18 2.114697 1_555
Mg8 O10 2.140670 1_555
Mg8 O14 2.140670 1_455
Mg8 O16 2.181259 1_565
Mg8 O26 2.231309 1_555
Mg9 O27 2.066741 1_555
Mg9 O19 2.114697 1_555
Mg9 O11 2.140670 1_555
Mg9 O15 2.140670 1_455
Mg9 O17 2.181259 1_565
Mg9 O26 2.231309 1_556
Mg10 O29 2.131250 1_555
Mg10 O20 2.146387 1_555
Mg10 O22 2.147076 1_555
Mg10 O12 2.154995 1_555
Mg10 O8 2.154995 1_555
Mg10 O28 2.163531 1_555
Mg11 O29 2.131250 1_555
Mg11 O21 2.146387 1_555
Mg11 O23 2.147076 1_555
Mg11 O9 2.154995 1_555
Mg11 O13 2.154995 1_555
Mg11 O28 2.163531 1_556
Mg12 O31 2.131250 1_555
Mg12 O20 2.146387 1_565
Mg12 O22 2.147076 1_555
Mg12 O14 2.154995 1_555
Mg12 O10 2.154995 1_555
Mg12 O30 2.163531 1_555
Mg13 O31 2.131250 1_555
Mg13 O21 2.146387 1_565
Mg13 O23 2.147076 1_555
Mg13 O11 2.154995 1_555
Mg13 O15 2.154995 1_555
Mg13 O30 2.163531 1_556
Mg14 O1 2.066742 1_555
Mg14 O20 2.114705 1_555
Mg14 O8 2.140670 1_555
Mg14 O10 2.140670 1_545
Mg14 O16 2.181251 1_555
Mg14 O0 2.231309 1_555
Mg15 O1 2.066742 1_555
Mg15 O21 2.114705 1_555
Mg15 O9 2.140670 1_555
Mg15 O11 2.140670 1_545
Mg15 O17 2.181251 1_555
Mg15 O0 2.231309 1_556
Mg16 O3 2.131250 1_555
Mg16 O18 2.146387 1_555
Mg16 O22 2.147076 1_555
Mg16 O8 2.154995 1_555
Mg16 O10 2.154995 1_555
Mg16 O2 2.163531 1_555
Mg17 O3 2.131250 1_555
Mg17 O19 2.146387 1_555
Mg17 O23 2.147076 1_555
Mg17 O11 2.154995 1_555
Mg17 O9 2.154995 1_555
Mg17 O2 2.163531 1_556
Mg18 O5 2.066741 1_555
Mg18 O20 2.114697 1_555
Mg18 O14 2.140670 1_545
Mg18 O12 2.140670 1_555
Mg18 O16 2.181259 1_655
Mg18 O4 2.231309 1_555
Mg19 O5 2.066741 1_555
Mg19 O21 2.114697 1_555
Mg19 O15 2.140670 1_545
Mg19 O13 2.140670 1_555
Mg19 O17 2.181259 1_655
Mg19 O4 2.231309 1_556
Mg20 O7 2.131250 1_555
Mg20 O18 2.146387 1_655
Mg20 O22 2.147076 1_555
Mg20 O12 2.154995 1_555
Mg20 O14 2.154995 1_555
Mg20 O6 2.163531 1_555
Mg21 O7 2.131250 1_555
Mg21 O19 2.146387 1_655
Mg21 O23 2.147076 1_555
Mg21 O15 2.154995 1_555
Mg21 O13 2.154995 1_555
Mg21 O6 2.163531 1_556
Mg22 O2 2.096987 1_555
Mg22 O28 2.096987 1_555
Mg22 O8 2.140185 1_555
Mg22 O9 2.140185 1_554
Mg22 O24 2.196647 1_555
Mg22 O0 2.196647 1_555
Mg23 O1 2.135976 1_555
Mg23 O25 2.135976 1_555
Mg23 O8 2.156056 1_555
Mg23 O9 2.156056 1_555
Mg23 O29 2.163404 1_555
Mg23 O3 2.163404 1_555
Mg24 O30 2.096987 1_555
Mg24 O2 2.096987 1_555
Mg24 O10 2.140185 1_555
Mg24 O11 2.140185 1_554
Mg24 O0 2.196647 1_565
Mg24 O26 2.196647 1_555
Mg25 O27 2.135975 1_555
Mg25 O1 2.135976 1_565
Mg25 O11 2.156056 1_555
Mg25 O10 2.156056 1_555
Mg25 O31 2.163404 1_555
Mg25 O3 2.163404 1_555
Mg26 O6 2.096987 1_555
Mg26 O28 2.096987 1_555
Mg26 O12 2.140185 1_555
Mg26 O13 2.140185 1_554
Mg26 O24 2.196647 1_655
Mg26 O4 2.196647 1_555
Mg27 O5 2.135975 1_555
Mg27 O25 2.135976 1_655
Mg27 O13 2.156056 1_555
Mg27 O12 2.156056 1_555
Mg27 O29 2.163404 1_555
Mg27 O7 2.163404 1_555
Mg28 O30 2.096987 1_555
Mg28 O6 2.096987 1_555
Mg28 O14 2.140185 1_555
Mg28 O15 2.140185 1_554
Mg28 O26 2.196647 1_655
Mg28 O4 2.196647 1_565
Mg29 O27 2.135975 1_655
Mg29 O5 2.135975 1_565
Mg29 O14 2.156056 1_555
Mg29 O15 2.156056 1_555
Mg29 O7 2.163404 1_555
Mg29 O31 2.163404 1_555
Cu0 O17 2.116265 1_555
Cu0 O16 2.116265 1_555
Cu0 O27 2.289692 1_545
Cu0 O5 2.289692 1_455
Cu0 O25 2.289700 1_555
Cu0 O1 2.289700 1_555
O0 Y0 2.229734 1_555
O4 Y0 2.229734 1_655
O16 Y0 2.178365 1_555
O17 Y0 2.178365 1_556
O24 Y0 2.229734 1_555
O26 Y0 2.229734 1_565
