# generated using pymatgen
data_KPH12PtC2N2(ClO2)2
_symmetry_space_group_name_H-M   'P 1'
_cell_length_a   8.27030582
_cell_length_b   8.87962864
_cell_length_c   8.95489220
_cell_angle_alpha   86.01125737
_cell_angle_beta   69.65154115
_cell_angle_gamma   85.81740379
_symmetry_Int_Tables_number   1
_chemical_formula_structural   KPH12PtC2N2(ClO2)2
_chemical_formula_sum   'K2 P2 H24 Pt2 C4 N4 Cl4 O8'
_cell_volume   614.25430956
_cell_formula_units_Z   2
loop_
 _symmetry_equiv_pos_site_id
 _symmetry_equiv_pos_as_xyz
  1  'x, y, z'
loop_
 _atom_site_type_symbol
 _atom_site_label
 _atom_site_symmetry_multiplicity
 _atom_site_fract_x
 _atom_site_fract_y
 _atom_site_fract_z
 _atom_site_occupancy
  K  K0  1  0.42346600  0.21771200  0.58019600  1
  K  K1  1  0.57653400  0.78228800  0.41980400  1
  P  P0  1  0.18209500  0.78232700  0.26802200  1
  P  P1  1  0.81790500  0.21767300  0.73197800  1
  H  H0  1  0.20604000  0.54482400  0.40675500  1
  H  H1  1  0.79396000  0.45517600  0.59324500  1
  H  H2  1  0.38139100  0.56286700  0.22280700  1
  H  H3  1  0.61860900  0.43713300  0.77719300  1
  H  H4  1  0.40249800  0.80399600  0.00623700  1
  H  H5  1  0.59750200  0.19600400  0.99376300  1
  H  H6  1  0.23954100  0.95379700  0.03864200  1
  H  H7  1  0.76045900  0.04620300  0.96135800  1
  H  H8  1  0.02334700  0.50133600  0.24896600  1
  H  H9  1  0.97665300  0.49866400  0.75103400  1
  H  H10  1  0.18524500  0.37287600  0.22537900  1
  H  H11  1  0.81475500  0.62712400  0.77462100  1
  H  H12  1  0.13864900  0.02579400  0.68040000  1
  H  H13  1  0.86135100  0.97420600  0.31960000  1
  H  H14  1  0.04306700  0.76601300  0.01742100  1
  H  H15  1  0.95693300  0.23398700  0.98257900  1
  H  H16  1  0.20695700  0.79485200  0.85047100  1
  H  H17  1  0.79304300  0.20514800  0.14952900  1
  H  H18  1  0.14320800  0.19593600  0.47232400  1
  H  H19  1  0.85679200  0.80406400  0.52767600  1
  H  H20  1  0.25839800  0.09140400  0.33846600  1
  H  H21  1  0.74160200  0.90859600  0.66153400  1
  H  H22  1  0.22783400  0.90125900  0.56071700  1
  H  H23  1  0.77216600  0.09874100  0.43928300  1
  Pt  Pt0  1  0.22158400  0.51624300  0.95586800  1
  Pt  Pt1  1  0.77841600  0.48375700  0.04413200  1
  C  C0  1  0.24057700  0.58011400  0.27950800  1
  C  C1  1  0.75942300  0.41988600  0.72049200  1
  C  C2  1  0.26256900  0.83074200  0.05380800  1
  C  C3  1  0.73743100  0.16925800  0.94619200  1
  N  N0  1  0.15595700  0.48547800  0.20061800  1
  N  N1  1  0.84404300  0.51452200  0.79938200  1
  N  N2  1  0.17538200  0.74872300  0.96624200  1
  N  N3  1  0.82461800  0.25127700  0.03375800  1
  Cl  Cl0  1  0.26734300  0.25412400  0.94770700  1
  Cl  Cl1  1  0.73265700  0.74587600  0.05229300  1
  Cl  Cl2  1  0.29417200  0.54922100  0.67947200  1
  Cl  Cl3  1  0.70582800  0.45077900  0.32052800  1
  O  O0  1  0.28010500  0.86615800  0.34898200  1
  O  O1  1  0.71989500  0.13384200  0.65101800  1
  O  O2  1  0.98509600  0.80360600  0.32655200  1
  O  O3  1  0.01490400  0.19639400  0.67344800  1
  O  O4  1  0.24031700  0.19761000  0.36852100  1
  O  O5  1  0.75968300  0.80239000  0.63147900  1
  O  O6  1  0.22971700  0.94263200  0.66004200  1
  O  O7  1  0.77028300  0.05736800  0.33995800  1
loop_
_geom_bond_atom_site_label_1
_geom_bond_atom_site_label_2
_geom_bond_distance
_geom_bond_site_symmetry_2
K0 O1 2.777812 1_555
K0 O4 2.828863 1_555
K0 O6 2.928534 1_545
K0 O3 3.203021 1_555
K0 O7 3.228221 1_555
K1 O0 2.777812 1_555
K1 O5 2.828863 1_555
K1 O7 2.928534 1_565
K1 O2 3.203021 1_555
K1 O6 3.228221 1_555
H8 N0 1.032382 1_555
H9 N1 1.032382 1_555
H10 N0 1.038626 1_555
H11 N1 1.038626 1_555
H12 O6 0.993932 1_545
H12 K0 2.856692 1_555
H13 O7 0.993932 1_565
H13 K1 2.856692 1_555
H14 N2 1.033235 1_554
H15 N3 1.033235 1_556
H16 N2 1.038750 1_555
H17 N3 1.038750 1_555
H18 O4 0.994943 1_555
H18 K0 2.826883 1_555
H19 O5 0.994943 1_555
H19 K1 2.826883 1_555
H20 O4 0.985357 1_555
H21 O5 0.985357 1_555
H22 O6 0.991084 1_555
H22 K1 2.869704 1_555
H23 O7 0.991084 1_555
H23 K0 2.869704 1_555
C0 H2 1.100485 1_555
C0 H0 1.102375 1_555
C0 N0 1.485667 1_555
C0 P0 1.830526 1_555
C1 H3 1.100485 1_555
C1 H1 1.102375 1_555
C1 N1 1.485667 1_555
C1 P1 1.830526 1_555
C2 H4 1.099204 1_555
C2 H6 1.102569 1_555
C2 N2 1.488123 1_554
C2 P0 1.829379 1_555
C3 H5 1.099204 1_555
C3 H7 1.102569 1_555
C3 N3 1.488123 1_556
C3 P1 1.829379 1_555
N0 Pt0 2.069745 1_554
N1 Pt1 2.069745 1_556
N2 Pt0 2.074379 1_555
N3 Pt1 2.074379 1_555
Cl0 Pt0 2.332777 1_555
Cl0 K0 3.120006 1_555
Cl1 Pt1 2.332777 1_555
Cl1 K1 3.120006 1_555
Cl2 Pt0 2.337456 1_555
Cl2 K0 3.137320 1_555
Cl2 K1 3.376741 1_555
Cl3 Pt1 2.337456 1_555
Cl3 K1 3.137320 1_555
Cl3 K0 3.376741 1_555
O0 P0 1.519386 1_555
O1 P1 1.519386 1_555
O2 P0 1.529654 1_655
O3 P1 1.529654 1_455
