# generated using pymatgen
data_LiLu2Al2O6
_symmetry_space_group_name_H-M   'P 1'
_cell_length_a   3.33057701
_cell_length_b   3.33057974
_cell_length_c   14.18810806
_cell_angle_alpha   90.00009344
_cell_angle_beta   90.00144388
_cell_angle_gamma   120.00394504
_symmetry_Int_Tables_number   1
_chemical_formula_structural   LiLu2Al2O6
_chemical_formula_sum   'Li1 Lu2 Al2 O6'
_cell_volume   136.29413545
_cell_formula_units_Z   1
loop_
 _symmetry_equiv_pos_site_id
 _symmetry_equiv_pos_as_xyz
  1  'x, y, z'
loop_
 _atom_site_type_symbol
 _atom_site_label
 _atom_site_symmetry_multiplicity
 _atom_site_fract_x
 _atom_site_fract_y
 _atom_site_fract_z
 _atom_site_occupancy
  Li  Li0  1  0.66654100  0.33349400  0.11857500  1
  Lu  Lu0  1  0.99947300  0.00057800  0.94160900  1
  Lu  Lu1  1  0.99939100  0.00059100  0.52914500  1
  Al  Al0  1  0.33269300  0.66724800  0.32273600  1
  Al  Al1  1  0.66611500  0.33392000  0.73618300  1
  O  O0  1  0.33281600  0.66730000  0.02405800  1
  O  O1  1  0.33269700  0.66728200  0.45424600  1
  O  O2  1  0.99938200  0.00055800  0.31835700  1
  O  O3  1  0.99942000  0.00061900  0.73739500  1
  O  O4  1  0.66612300  0.33394000  0.86783900  1
  O  O5  1  0.66606400  0.33395400  0.60541600  1
loop_
_geom_bond_atom_site_label_1
_geom_bond_atom_site_label_2
_geom_bond_distance
_geom_bond_site_symmetry_2
Li0 O0 2.343139 1_545
Li0 O0 2.343380 1_655
Li0 O0 2.346398 1_555
Lu0 O4 2.189155 1_545
Lu0 O4 2.189227 1_655
Lu0 O4 2.189445 1_555
Lu0 O0 2.250685 1_646
Lu0 O0 2.250719 1_546
Lu0 O0 2.250834 1_656
Lu1 O1 2.196928 1_645
Lu1 O1 2.196986 1_545
Lu1 O1 2.197023 1_655
Lu1 O5 2.206369 1_545
Lu1 O5 2.206414 1_655
Lu1 O5 2.206598 1_555
Al0 O1 1.865878 1_555
Al0 O2 1.923819 1_465
Al0 O2 1.923903 1_565
Al0 O2 1.923904 1_455
Al1 O5 1.855336 1_555
Al1 O4 1.867950 1_555
Al1 O3 1.922850 1_555
Al1 O3 1.922992 1_455
Al1 O3 1.923005 1_565
