# generated using pymatgen
data_K2S2O3
_symmetry_space_group_name_H-M   'P 1'
_cell_length_a   9.29210000
_cell_length_b   10.24837200
_cell_length_c   13.51636048
_cell_angle_alpha   68.11644782
_cell_angle_beta   90.00000000
_cell_angle_gamma   90.00000000
_symmetry_Int_Tables_number   1
_chemical_formula_structural   K2S2O3
_chemical_formula_sum   'K16 S16 O24'
_cell_volume   1194.40044718
_cell_formula_units_Z   8
loop_
 _symmetry_equiv_pos_site_id
 _symmetry_equiv_pos_as_xyz
  1  'x, y, z'
loop_
 _atom_site_type_symbol
 _atom_site_label
 _atom_site_symmetry_multiplicity
 _atom_site_fract_x
 _atom_site_fract_y
 _atom_site_fract_z
 _atom_site_occupancy
  K  K0  1  0.31102200  0.58265100  0.05304700  1
  K  K1  1  0.81102200  0.41734900  0.44695300  1
  K  K2  1  0.68897800  0.41734900  0.94695300  1
  K  K3  1  0.18897800  0.58265100  0.55304700  1
  K  K4  1  0.01162700  0.78395600  0.19478000  1
  K  K5  1  0.51162700  0.21604400  0.30522000  1
  K  K6  1  0.98837300  0.21604400  0.80522000  1
  K  K7  1  0.48837300  0.78395600  0.69478000  1
  K  K8  1  0.32509300  0.12118100  0.03963900  1
  K  K9  1  0.82509300  0.87881900  0.46036100  1
  K  K10  1  0.67490700  0.87881900  0.96036100  1
  K  K11  1  0.17490700  0.12118100  0.53963900  1
  K  K12  1  0.49090600  0.73504400  0.29399400  1
  K  K13  1  0.99090600  0.26495600  0.20600600  1
  K  K14  1  0.50909400  0.26495600  0.70600600  1
  K  K15  1  0.00909400  0.73504400  0.79399400  1
  S  S0  1  0.34885200  0.90480000  0.44260500  1
  S  S1  1  0.84885200  0.09520000  0.05739500  1
  S  S2  1  0.65114800  0.09520000  0.55739500  1
  S  S3  1  0.15114800  0.90480000  0.94260500  1
  S  S4  1  0.38484000  0.40822200  0.43534600  1
  S  S5  1  0.88484000  0.59177800  0.06465400  1
  S  S6  1  0.61516000  0.59177800  0.56465400  1
  S  S7  1  0.11516000  0.40822200  0.93534600  1
  S  S8  1  0.16602800  0.94106000  0.35427300  1
  S  S9  1  0.66602800  0.05894000  0.14572700  1
  S  S10  1  0.83397200  0.05894000  0.64572700  1
  S  S11  1  0.33397200  0.94106000  0.85427300  1
  S  S12  1  0.22889500  0.45682600  0.32142900  1
  S  S13  1  0.72889500  0.54317400  0.17857100  1
  S  S14  1  0.77110500  0.54317400  0.67857100  1
  S  S15  1  0.27110500  0.45682600  0.82142900  1
  O  O0  1  0.08383500  0.80624900  0.38497200  1
  O  O1  1  0.58383500  0.19375100  0.11502800  1
  O  O2  1  0.91616500  0.19375100  0.61502800  1
  O  O3  1  0.41616500  0.80624900  0.88497200  1
  O  O4  1  0.57694100  0.95363600  0.12152700  1
  O  O5  1  0.07694100  0.04636400  0.37847300  1
  O  O6  1  0.42305900  0.04636400  0.87847300  1
  O  O7  1  0.92305900  0.95363600  0.62152700  1
  O  O8  1  0.20533300  0.99302400  0.23929400  1
  O  O9  1  0.70533300  0.00697600  0.26070600  1
  O  O10  1  0.79466700  0.00697600  0.76070600  1
  O  O11  1  0.29466700  0.99302400  0.73929400  1
  O  O12  1  0.24514500  0.60815500  0.25119600  1
  O  O13  1  0.74514500  0.39184500  0.24880400  1
  O  O14  1  0.75485500  0.39184500  0.74880400  1
  O  O15  1  0.25485500  0.60815500  0.75119600  1
  O  O16  1  0.25005300  0.36766400  0.25676000  1
  O  O17  1  0.75005300  0.63233600  0.24324000  1
  O  O18  1  0.74994700  0.63233600  0.74324000  1
  O  O19  1  0.24994700  0.36766400  0.75676000  1
  O  O20  1  0.08685400  0.42904700  0.37576000  1
  O  O21  1  0.58685400  0.57095300  0.12424000  1
  O  O22  1  0.91314600  0.57095300  0.62424000  1
  O  O23  1  0.41314600  0.42904700  0.87576000  1
loop_
_geom_bond_atom_site_label_1
_geom_bond_atom_site_label_2
_geom_bond_distance
_geom_bond_site_symmetry_2
K0 O21 2.724630 1_555
K0 O3 2.736031 1_554
K0 O12 2.852700 1_555
K0 O16 2.869594 1_555
K0 S7 3.340470 1_554
K0 S3 3.414873 1_554
K1 O20 2.724630 1_655
K1 O2 2.736031 1_555
K1 O13 2.852700 1_555
K1 O17 2.869594 1_555
K1 S6 3.340470 1_555
K1 S2 3.414873 1_555
K2 O23 2.724630 1_555
K2 O1 2.736031 1_556
K2 O14 2.852700 1_555
K2 O18 2.869594 1_555
K2 S5 3.340470 1_556
K2 S1 3.414873 1_556
K3 O22 2.724630 1_455
K3 O0 2.736031 1_555
K3 O15 2.852700 1_555
K3 O19 2.869594 1_555
K3 S4 3.340470 1_555
K3 S0 3.414873 1_555
K4 O12 2.740751 1_555
K4 O0 2.747494 1_555
K4 O17 2.827098 1_455
K4 O8 3.025477 1_555
K4 S5 3.307969 1_455
K4 S1 3.390434 1_465
K4 S3 3.418424 1_554
K5 O13 2.740751 1_555
K5 O1 2.747494 1_555
K5 O16 2.827098 1_555
K5 O9 3.025477 1_555
K5 S4 3.307969 1_555
K5 S0 3.390434 1_545
K5 S2 3.418424 1_555
K6 O14 2.740751 1_555
K6 O2 2.747494 1_555
K6 O19 2.827098 1_655
K6 O10 3.025477 1_555
K6 S7 3.307969 1_655
K6 S3 3.390434 1_645
K6 S1 3.418424 1_556
K7 O15 2.740751 1_555
K7 O3 2.747494 1_555
K7 O18 2.827098 1_555
K7 O11 3.025477 1_555
K7 S6 3.307969 1_555
K7 S2 3.390434 1_565
K7 S0 3.418424 1_555
K8 O6 2.721580 1_554
K8 O8 2.757493 1_545
K8 O1 2.817239 1_555
K8 O4 2.869353 1_545
K8 O23 3.212629 1_554
K8 S7 3.369697 1_554
K8 S3 3.379087 1_544
K9 O7 2.721580 1_555
K9 O9 2.757493 1_565
K9 O0 2.817239 1_655
K9 O5 2.869353 1_665
K9 O22 3.212629 1_555
K9 S6 3.369697 1_555
K9 S2 3.379087 1_565
K10 O4 2.721580 1_556
K10 O10 2.757493 1_565
K10 O3 2.817239 1_555
K10 O6 2.869353 1_565
K10 O21 3.212629 1_556
K10 S5 3.369697 1_556
K10 S1 3.379087 1_566
K11 O5 2.721580 1_555
K11 O11 2.757493 1_545
K11 O2 2.817239 1_455
K11 O7 2.869353 1_445
K11 O20 3.212629 1_555
K11 S4 3.369697 1_555
K11 S0 3.379087 1_545
K12 O4 2.683086 1_555
K12 O12 2.793105 1_555
K12 O17 2.813430 1_555
K12 S4 3.327130 1_555
K12 S0 3.377686 1_555
K12 S6 3.587229 1_555
K13 O5 2.683086 1_655
K13 O13 2.793105 1_555
K13 O16 2.813430 1_655
K13 S5 3.327130 1_555
K13 S1 3.377686 1_555
K13 S7 3.587229 1_654
K14 O6 2.683086 1_555
K14 O14 2.793105 1_555
K14 O19 2.813430 1_555
K14 S6 3.327130 1_555
K14 S2 3.377686 1_555
K14 S4 3.587229 1_555
K15 O7 2.683086 1_455
K15 O15 2.793105 1_555
K15 O18 2.813430 1_455
K15 S7 3.327130 1_555
K15 S3 3.377686 1_555
K15 S5 3.587229 1_456
S0 S8 2.029485 1_555
S1 S9 2.029485 1_555
S10 S2 2.029485 1_555
S11 S3 2.029485 1_555
S12 S4 2.036409 1_555
S13 S5 2.036409 1_555
S14 S6 2.036409 1_555
S15 S7 2.036409 1_555
O0 S8 1.495639 1_555
O1 S9 1.495639 1_555
O2 S10 1.495639 1_555
O3 S11 1.495639 1_555
O4 S9 1.489985 1_565
O5 S8 1.489985 1_545
O6 S11 1.489985 1_545
O7 S10 1.489985 1_565
O8 S8 1.488377 1_555
O9 S9 1.488377 1_555
O10 S10 1.488377 1_555
O11 S11 1.488377 1_555
O12 S12 1.493890 1_555
O13 S13 1.493890 1_555
O14 S14 1.493890 1_555
O15 S15 1.493890 1_555
O16 S12 1.494338 1_555
O17 S13 1.494338 1_555
O18 S14 1.494338 1_555
O19 S15 1.494338 1_555
O20 S12 1.485433 1_555
O21 S13 1.485433 1_555
O22 S14 1.485433 1_555
O23 S15 1.485433 1_555
