# generated using pymatgen
data_Sr5CeNd3Cu4PbO18
_symmetry_space_group_name_H-M   'P 1'
_cell_length_a   15.42108456
_cell_length_b   15.42108456
_cell_length_c   5.47620900
_cell_angle_alpha   90.00000000
_cell_angle_beta   90.00000000
_cell_angle_gamma   159.53465569
_symmetry_Int_Tables_number   1
_chemical_formula_structural   Sr5CeNd3Cu4PbO18
_chemical_formula_sum   'Sr5 Ce1 Nd3 Cu4 Pb1 O18'
_cell_volume   455.33592261
_cell_formula_units_Z   1
loop_
 _symmetry_equiv_pos_site_id
 _symmetry_equiv_pos_as_xyz
  1  'x, y, z'
loop_
 _atom_site_type_symbol
 _atom_site_label
 _atom_site_symmetry_multiplicity
 _atom_site_fract_x
 _atom_site_fract_y
 _atom_site_fract_z
 _atom_site_occupancy
  Sr  Sr0  1  0.91217100  0.08782900  0.50000000  1
  Sr  Sr1  1  0.41218000  0.58782000  0.00000000  1
  Sr  Sr2  1  0.58796800  0.41203200  0.00000000  1
  Sr  Sr3  1  0.08726000  0.91274000  0.50000000  1
  Sr  Sr4  1  0.00003200  0.99996800  0.00000000  1
  Ce  Ce0  1  0.70913800  0.29086200  0.00000000  1
  Nd  Nd0  1  0.29314300  0.70685700  0.00000000  1
  Nd  Nd1  1  0.79313500  0.20686500  0.50000000  1
  Nd  Nd2  1  0.20611900  0.79388100  0.50000000  1
  Cu  Cu0  1  0.85779400  0.14220600  0.00000000  1
  Cu  Cu1  1  0.35409600  0.64590400  0.50000000  1
  Cu  Cu2  1  0.64657600  0.35342400  0.50000000  1
  Cu  Cu3  1  0.14288500  0.85711500  0.00000000  1
  Pb  Pb0  1  0.49998700  0.50001300  0.50000000  1
  O  O0  1  0.92332900  0.07667100  0.00000000  1
  O  O1  1  0.42993600  0.57006400  0.50000000  1
  O  O2  1  0.57014200  0.42985800  0.50000000  1
  O  O3  1  0.07671100  0.92328900  0.00000000  1
  O  O4  1  0.10271700  0.40386500  0.74665700  1
  O  O5  1  0.59613500  0.89728300  0.25334300  1
  O  O6  1  0.59613500  0.89728300  0.74665700  1
  O  O7  1  0.10271700  0.40386500  0.25334300  1
  O  O8  1  0.40721200  0.10464100  0.74936000  1
  O  O9  1  0.89535900  0.59278800  0.25064000  1
  O  O10  1  0.89535900  0.59278800  0.74936000  1
  O  O11  1  0.40721200  0.10464100  0.25064000  1
  O  O12  1  0.99317900  0.49601300  0.75554200  1
  O  O13  1  0.50398700  0.00682100  0.24445800  1
  O  O14  1  0.50398700  0.00682100  0.75554200  1
  O  O15  1  0.99317900  0.49601300  0.24445800  1
  O  O16  1  0.50002000  0.49998000  0.00000000  1
  O  O17  1  0.00020000  0.99980000  0.50000000  1
loop_
_geom_bond_atom_site_label_1
_geom_bond_atom_site_label_2
_geom_bond_distance
_geom_bond_site_symmetry_2
Ce0 O15 2.240855 1_555
Ce0 O13 2.240855 1_555
Ce0 O12 2.240855 1_554
Ce0 O14 2.240855 1_554
Ce0 O10 2.599127 1_554
Ce0 O9 2.599127 1_555
Ce0 O8 2.599127 1_554
Ce0 O11 2.599127 1_555
Nd0 O13 2.362094 1_565
Nd0 O14 2.362094 1_564
Nd0 O15 2.362094 1_455
Nd0 O12 2.362094 1_454
Nd0 O7 2.582657 1_555
Nd0 O4 2.582657 1_554
Nd0 O5 2.582657 1_555
Nd0 O6 2.582657 1_554
Nd1 O14 2.362796 1_555
Nd1 O13 2.362796 1_555
Nd1 O12 2.362796 1_555
Nd1 O15 2.362796 1_555
Nd1 O4 2.582535 1_655
Nd1 O7 2.582535 1_655
Nd1 O5 2.582535 1_545
Nd1 O6 2.582535 1_545
Nd2 O12 2.361706 1_455
Nd2 O15 2.361706 1_455
Nd2 O14 2.361706 1_565
Nd2 O13 2.361706 1_565
Nd2 O8 2.569198 1_565
Nd2 O11 2.569198 1_565
Nd2 O10 2.569198 1_455
Nd2 O9 2.569198 1_455
Cu0 O5 1.978686 1_545
Cu0 O6 1.978686 1_544
Cu0 O7 1.978686 1_655
Cu0 O4 1.978686 1_654
Cu0 O0 1.989093 1_555
Cu1 O4 1.916178 1_555
Cu1 O7 1.916178 1_555
Cu1 O6 1.916178 1_555
Cu1 O5 1.916178 1_555
Cu1 O1 2.301866 1_555
Cu2 O11 1.916627 1_555
Cu2 O8 1.916627 1_555
Cu2 O9 1.916627 1_555
Cu2 O10 1.916627 1_555
Cu2 O2 2.319895 1_555
Cu3 O10 1.978670 1_454
Cu3 O8 1.978670 1_564
Cu3 O11 1.978670 1_565
Cu3 O9 1.978670 1_455
Cu3 O3 2.008487 1_555
O0 Sr4 2.328059 1_645
O0 Sr0 2.758969 1_555
O0 Sr0 2.758969 1_554
O0 Sr1 2.760313 1_545
O0 Sr1 2.760313 1_655
O1 Pb0 2.126160 1_555
O1 Sr1 2.790637 1_555
O1 Sr1 2.790637 1_556
O1 Sr0 2.792052 1_565
O1 Sr0 2.792052 1_455
O2 Pb0 2.129317 1_555
O2 Sr3 2.788326 1_545
O2 Sr3 2.788326 1_655
O2 Sr2 2.791048 1_556
O2 Sr2 2.791048 1_555
O3 Sr4 2.327331 1_555
O3 Sr3 2.756761 1_554
O3 Sr3 2.756761 1_555
O3 Sr2 2.760717 1_565
O3 Sr2 2.760717 1_455
O4 Sr0 2.716105 1_455
O4 Sr1 2.716565 1_556
O5 Sr0 2.716105 1_565
O5 Sr1 2.716565 1_555
O6 Sr0 2.716105 1_565
O6 Sr1 2.716565 1_556
O7 Sr0 2.716105 1_455
O7 Sr1 2.716565 1_555
O8 Sr2 2.713943 1_556
O8 Sr3 2.758126 1_545
O9 Sr2 2.713943 1_555
O9 Sr3 2.758126 1_655
O10 Sr2 2.713943 1_556
O10 Sr3 2.758126 1_655
O11 Sr2 2.713943 1_555
O11 Sr3 2.758126 1_545
O16 Sr1 2.666085 1_555
O16 Sr2 2.669363 1_555
O16 Pb0 2.738105 1_554
O16 Pb0 2.738105 1_555
O16 Sr4 2.739493 1_655
O16 Sr4 2.739493 1_545
O17 Sr3 2.642411 1_555
O17 Sr0 2.671822 1_465
O17 Sr4 2.738109 1_556
O17 Sr4 2.738109 1_555
O17 Pb0 2.739501 1_565
O17 Pb0 2.739501 1_455
