# generated using pymatgen
data_LiTbPrNiO6
_symmetry_space_group_name_H-M   'P 1'
_cell_length_a   5.10137762
_cell_length_b   5.10137762
_cell_length_c   8.92695987
_cell_angle_alpha   90.00000000
_cell_angle_beta   90.00000000
_cell_angle_gamma   88.64383278
_symmetry_Int_Tables_number   1
_chemical_formula_structural   LiTbPrNiO6
_chemical_formula_sum   'Li2 Tb2 Pr2 Ni2 O12'
_cell_volume   232.25060820
_cell_formula_units_Z   2
loop_
 _symmetry_equiv_pos_site_id
 _symmetry_equiv_pos_as_xyz
  1  'x, y, z'
loop_
 _atom_site_type_symbol
 _atom_site_label
 _atom_site_symmetry_multiplicity
 _atom_site_fract_x
 _atom_site_fract_y
 _atom_site_fract_z
 _atom_site_occupancy
  Li  Li0  1  -0.00000000  0.50000000  -0.00000000  1
  Li  Li1  1  0.50000000  0.00000000  0.50000000  1
  Tb  Tb0  1  0.50000000  0.50000000  0.25000000  1
  Tb  Tb1  1  0.50000000  0.50000000  0.75000000  1
  Pr  Pr0  1  -0.00000000  0.00000000  0.25000000  1
  Pr  Pr1  1  -0.00000000  0.00000000  0.75000000  1
  Ni  Ni0  1  -0.00000000  0.50000000  0.50000000  1
  Ni  Ni1  1  0.50000000  0.00000000  -0.00000000  1
  O  O0  1  -0.00000000  0.50000000  0.25872237  1
  O  O1  1  0.50000000  0.00000000  0.24127763  1
  O  O2  1  -0.00000000  0.50000000  0.74127763  1
  O  O3  1  0.50000000  0.00000000  0.75872237  1
  O  O4  1  0.38995622  0.60465614  -0.00000000  1
  O  O5  1  0.61004378  0.39534386  -0.00000000  1
  O  O6  1  0.85710877  0.84972333  -0.00000000  1
  O  O7  1  0.14289123  0.15027667  -0.00000000  1
  O  O8  1  0.84972333  0.85710877  0.50000000  1
  O  O9  1  0.15027667  0.14289123  0.50000000  1
  O  O10  1  0.39534386  0.61004378  0.50000000  1
  O  O11  1  0.60465614  0.38995622  0.50000000  1
loop_
_geom_bond_atom_site_label_1
_geom_bond_atom_site_label_2
_geom_bond_distance
_geom_bond_site_symmetry_2
Li0 O6 1.911206 1_455
Li0 O7 1.911206 1_555
Li0 O5 2.071879 1_455
Li0 O4 2.071879 1_555
Li0 O2 2.309604 1_554
Li0 O0 2.309604 1_555
Li1 O8 1.911206 1_545
Li1 O9 1.911206 1_555
Li1 O10 2.071879 1_545
Li1 O11 2.071879 1_555
Li1 O3 2.309604 1_555
Li1 O1 2.309604 1_555
Ni0 O8 1.959683 1_455
Ni0 O9 1.959683 1_555
Ni0 O10 2.106231 1_555
Ni0 O11 2.106231 1_455
Ni0 O0 2.153876 1_555
Ni0 O2 2.153876 1_555
Ni1 O7 1.959683 1_555
Ni1 O6 1.959683 1_545
Ni1 O4 2.106231 1_545
Ni1 O5 2.106231 1_555
Ni1 O3 2.153876 1_554
Ni1 O1 2.153876 1_555
O0 Pr0 2.551877 1_555
O0 Pr0 2.551877 1_565
O0 Tb0 2.551877 1_455
O0 Tb0 2.551877 1_555
O1 Pr0 2.551877 1_555
O1 Tb0 2.551877 1_545
O1 Pr0 2.551877 1_655
O1 Tb0 2.551877 1_555
O2 Tb1 2.551877 1_455
O2 Tb1 2.551877 1_555
O2 Pr1 2.551877 1_555
O2 Pr1 2.551877 1_565
O3 Tb1 2.551877 1_545
O3 Tb1 2.551877 1_555
O3 Pr1 2.551877 1_555
O3 Pr1 2.551877 1_655
O4 O5 1.531005 1_555
O4 Tb0 2.359376 1_555
O4 Tb1 2.359376 1_554
O5 Tb0 2.359376 1_555
O5 Tb1 2.359376 1_554
O6 Pr0 2.475111 1_665
O6 Pr1 2.475111 1_664
O7 Pr1 2.475111 1_554
O7 Pr0 2.475111 1_555
O8 Pr1 2.475111 1_665
O8 Pr0 2.475111 1_665
O9 Pr0 2.475111 1_555
O9 Pr1 2.475111 1_555
O10 O11 1.531005 1_555
O10 Tb1 2.359376 1_555
O10 Tb0 2.359376 1_555
O11 Tb1 2.359376 1_555
O11 Tb0 2.359376 1_555
