# generated using pymatgen
data_Y12(OsC3)5
_symmetry_space_group_name_H-M   'P 1'
_cell_length_a   5.07170260
_cell_length_b   10.71918893
_cell_length_c   10.71901713
_cell_angle_alpha   120.00055080
_cell_angle_beta   90.00000091
_cell_angle_gamma   89.99999151
_symmetry_Int_Tables_number   1
_chemical_formula_structural   Y12(OsC3)5
_chemical_formula_sum   'Y12 Os5 C15'
_cell_volume   504.66000859
_cell_formula_units_Z   1
loop_
 _symmetry_equiv_pos_site_id
 _symmetry_equiv_pos_as_xyz
  1  'x, y, z'
loop_
 _atom_site_type_symbol
 _atom_site_label
 _atom_site_symmetry_multiplicity
 _atom_site_fract_x
 _atom_site_fract_y
 _atom_site_fract_z
 _atom_site_occupancy
  Y  Y0  1  0.49999994  0.20654066  0.20653996  1
  Y  Y1  1  0.49999989  0.00003465  0.79346357  1
  Y  Y2  1  0.49999982  0.79344687  -0.00001786  1
  Y  Y3  1  0.00000002  0.72847046  0.18435414  1
  Y  Y4  1  0.00000007  0.45587548  0.27151839  1
  Y  Y5  1  0.00000003  0.54408262  0.81562017  1
  Y  Y6  1  0.00000010  0.81565567  0.54411798  1
  Y  Y7  1  0.00000001  0.18437824  0.72846835  1
  Y  Y8  1  0.00000001  0.27153103  0.45591120  1
  Y  Y9  1  0.50000001  0.56499866  0.56502940  1
  Y  Y10  1  0.50000007  0.00004121  0.43503853  1
  Y  Y11  1  0.50000013  0.43493929  -0.00004234  1
  Os  Os0  1  -0.00000016  0.83887075  0.83886898  1
  Os  Os1  1  -0.00000046  0.00000497  0.16113820  1
  Os  Os2  1  0.00000040  0.16112324  0.99999028  1
  Os  Os3  1  0.50000020  0.66666989  0.33332816  1
  Os  Os4  1  0.49999995  0.33332774  0.66667198  1
  C  C0  1  -0.00000003  0.66452514  0.66453258  1
  C  C1  1  -0.00000011  0.00001691  0.33547746  1
  C  C2  1  -0.00000001  0.33545984  0.99998150  1
  C  C3  1  -0.00000015  0.20710796  0.20709912  1
  C  C4  1  -0.00000006  0.00001426  0.79289371  1
  C  C5  1  -0.00000011  0.79290433  0.00000100  1
  C  C6  1  0.00000003  0.54008227  0.54009618  1
  C  C7  1  0.00000009  0.00002333  0.45992983  1
  C  C8  1  0.00000007  0.45990138  -0.00002115  1
  C  C9  1  0.50000008  0.71669286  0.18609420  1
  C  C10  1  0.50000009  0.46938587  0.28329730  1
  C  C11  1  0.50000002  0.53059315  0.81391037  1
  C  C12  1  0.50000008  0.81392226  0.53061104  1
  C  C13  1  0.50000000  0.18608089  0.71670425  1
  C  C14  1  0.49999998  0.28329911  0.46939553  1
loop_
_geom_bond_atom_site_label_1
_geom_bond_atom_site_label_2
_geom_bond_distance
_geom_bond_site_symmetry_2
C0 C6 1.333870 1_555
C0 Os0 1.868764 1_555
C0 Y5 2.525967 1_555
C0 Y6 2.526137 1_555
C0 Y9 2.751071 1_455
C0 Y9 2.751071 1_555
C1 C7 1.333973 1_555
C1 Os1 1.868682 1_555
C1 Y8 2.525825 1_555
C1 Y3 2.526137 1_545
C1 Y10 2.751212 1_455
C1 Y10 2.751214 1_555
C2 C8 1.333927 1_556
C2 Os2 1.868794 1_555
C2 Y7 2.525774 1_555
C2 Y4 2.526014 1_556
C2 Y11 2.750980 1_456
C2 Y11 2.750981 1_556
C3 Os2 2.019179 1_554
C3 Os1 2.019233 1_555
C3 Y4 2.397113 1_555
C3 Y8 2.397520 1_555
C3 Y0 2.535858 1_455
C3 Y0 2.535859 1_555
C4 Os2 2.019041 1_555
C4 Os0 2.019352 1_545
C4 Y6 2.397159 1_545
C4 Y7 2.397322 1_555
C4 Y1 2.535858 1_555
C4 Y1 2.535859 1_455
C5 Os0 2.019146 1_554
C5 Os1 2.019178 1_565
C5 Y3 2.397250 1_555
C5 Y5 2.397590 1_554
C5 Y2 2.535858 1_555
C5 Y2 2.535859 1_455
C6 Y9 2.549886 1_555
C6 Y9 2.549887 1_455
C6 Y8 2.550146 1_555
C6 Y4 2.550320 1_555
C7 Y10 2.549859 1_555
C7 Y10 2.549859 1_455
C7 Y7 2.549972 1_555
C7 Y6 2.550186 1_545
C8 Y11 2.549917 1_455
C8 Y11 2.549917 1_555
C8 Y5 2.550020 1_554
C8 Y3 2.550288 1_555
C9 Os3 1.903811 1_555
C9 Y2 2.509587 1_555
C9 Y3 2.539524 1_655
C9 Y3 2.539524 1_555
C9 Y11 2.660133 1_555
C9 Y10 2.870653 1_565
C10 Os3 1.904088 1_555
C10 Y0 2.509385 1_555
C10 Y4 2.539522 1_655
C10 Y4 2.539522 1_555
C10 Y9 2.659893 1_555
C10 Y11 2.870367 1_555
C11 Os4 1.903887 1_555
C11 Y2 2.509389 1_556
C11 Y5 2.539515 1_555
C11 Y5 2.539515 1_655
C11 Y11 2.659532 1_556
C11 Y9 2.869989 1_555
C12 Os3 1.904042 1_555
C12 Y1 2.509456 1_565
C12 Y6 2.539519 1_555
C12 Y6 2.539519 1_655
C12 Y10 2.659611 1_565
C12 Y9 2.870564 1_555
C13 Os4 1.904033 1_555
C13 Y1 2.508973 1_555
C13 Y7 2.539503 1_555
C13 Y7 2.539503 1_655
C13 Y10 2.659196 1_555
C13 Y11 2.869669 1_556
C14 Os4 1.903981 1_555
C14 Y0 2.509442 1_555
C14 Y8 2.539510 1_555
C14 Y8 2.539510 1_655
C14 Y9 2.659572 1_555
C14 Y10 2.869932 1_555
