# generated using pymatgen
data_SmHfO14
_symmetry_space_group_name_H-M   'P 1'
_cell_length_a   7.57806196
_cell_length_b   7.57806196
_cell_length_c   7.57806196
_cell_angle_alpha   60.00000000
_cell_angle_beta   60.00000000
_cell_angle_gamma   60.00000000
_symmetry_Int_Tables_number   1
_chemical_formula_structural   SmHfO14
_chemical_formula_sum   'Sm2 Hf2 O28'
_cell_volume   307.72264567
_cell_formula_units_Z   2
loop_
 _symmetry_equiv_pos_site_id
 _symmetry_equiv_pos_as_xyz
  1  'x, y, z'
loop_
 _atom_site_type_symbol
 _atom_site_label
 _atom_site_symmetry_multiplicity
 _atom_site_fract_x
 _atom_site_fract_y
 _atom_site_fract_z
 _atom_site_occupancy
  Sm  Sm0  1  0.00000000  0.00000000  0.00000000  1
  Sm  Sm1  1  0.75000000  0.75000000  0.75000000  1
  Hf  Hf0  1  0.50000000  0.50000000  0.50000000  1
  Hf  Hf1  1  0.25000000  0.25000000  0.25000000  1
  O  O0  1  0.87500000  0.87500000  0.87500000  1
  O  O1  1  0.37500000  0.87500000  0.87500000  1
  O  O2  1  0.87500000  0.37500000  0.87500000  1
  O  O3  1  0.87500000  0.87500000  0.37500000  1
  O  O4  1  0.51923600  0.51923600  0.17911900  1
  O  O5  1  0.78240900  0.17911900  0.51923600  1
  O  O6  1  0.17911900  0.78240900  0.51923600  1
  O  O7  1  0.51923600  0.17911900  0.51923600  1
  O  O8  1  0.96759100  0.23076400  0.57088100  1
  O  O9  1  0.23076400  0.23076400  0.57088100  1
  O  O10  1  0.51923600  0.51923600  0.78240900  1
  O  O11  1  0.17911900  0.51923600  0.78240900  1
  O  O12  1  0.23076400  0.57088100  0.23076400  1
  O  O13  1  0.96759100  0.57088100  0.23076400  1
  O  O14  1  0.78240900  0.51923600  0.17911900  1
  O  O15  1  0.23076400  0.96759100  0.23076400  1
  O  O16  1  0.57088100  0.96759100  0.23076400  1
  O  O17  1  0.51923600  0.78240900  0.51923600  1
  O  O18  1  0.57088100  0.23076400  0.96759100  1
  O  O19  1  0.23076400  0.23076400  0.96759100  1
  O  O20  1  0.17911900  0.51923600  0.51923600  1
  O  O21  1  0.51923600  0.17911900  0.78240900  1
  O  O22  1  0.78240900  0.51923600  0.51923600  1
  O  O23  1  0.51923600  0.78240900  0.17911900  1
  O  O24  1  0.23076400  0.57088100  0.96759100  1
  O  O25  1  0.57088100  0.23076400  0.23076400  1
  O  O26  1  0.23076400  0.96759100  0.57088100  1
  O  O27  1  0.96759100  0.23076400  0.23076400  1
loop_
_geom_bond_atom_site_label_1
_geom_bond_atom_site_label_2
_geom_bond_distance
_geom_bond_site_symmetry_2
Hf0 O20 2.295162 1_555
Hf0 O7 2.295162 1_555
Hf0 O4 2.295162 1_555
Hf0 O10 2.295162 1_555
Hf0 O23 2.295162 1_555
Hf0 O5 2.295162 1_555
Hf0 O17 2.295162 1_555
Hf0 O11 2.295162 1_555
Hf0 O6 2.295162 1_555
Hf0 O22 2.295162 1_555
Hf0 O21 2.295162 1_555
Hf0 O14 2.295162 1_555
Hf1 O12 2.295162 1_555
Hf1 O9 2.295162 1_555
Hf1 O8 2.295162 1_455
Hf1 O15 2.295162 1_545
Hf1 O27 2.295162 1_455
Hf1 O24 2.295162 1_554
Hf1 O26 2.295162 1_545
Hf1 O13 2.295162 1_455
Hf1 O16 2.295162 1_545
Hf1 O18 2.295162 1_554
Hf1 O19 2.295162 1_554
Hf1 O25 2.295162 1_555
O0 Sm0 2.320298 1_666
O0 Sm1 2.320298 1_555
O1 Sm0 2.320298 1_566
O1 Sm1 2.320298 1_555
O2 Sm1 2.320298 1_555
O2 Sm0 2.320298 1_656
O3 Sm1 2.320298 1_555
O3 Sm0 2.320298 1_665
O4 Sm1 2.894073 1_554
O5 O8 1.878098 1_555
O5 O7 1.994341 1_555
O5 Sm1 2.894073 1_545
O6 Sm1 2.894073 1_455
O7 O9 1.878098 1_555
O7 Sm1 2.894073 1_545
O8 O9 1.994341 1_655
O8 Sm0 2.894073 1_656
O9 Sm0 2.894073 1_556
O10 O24 1.878098 1_555
O10 O18 1.878098 1_555
O10 O17 1.994341 1_555
O10 O22 1.994341 1_555
O10 Sm1 2.894073 1_555
O11 O24 1.878098 1_555
O11 O19 1.878098 1_555
O11 O6 1.994341 1_555
O11 O20 1.994341 1_555
O11 Sm1 2.894073 1_455
O12 O4 1.878098 1_555
O12 O20 1.878098 1_555
O12 O24 1.994341 1_554
O12 O13 1.994341 1_455
O12 Sm0 2.894073 1_565
O13 O14 1.878098 1_555
O13 O22 1.878098 1_555
O13 O24 1.994341 1_654
O13 Sm0 2.894073 1_665
O14 O27 1.878098 1_555
O14 O23 1.994341 1_555
O14 O4 1.994341 1_555
O14 Sm1 2.894073 1_554
O15 O23 1.878098 1_555
O15 O6 1.878098 1_555
O15 O19 1.994341 1_564
O15 O27 1.994341 1_465
O15 Sm0 2.894073 1_565
O16 O23 1.878098 1_555
O16 O17 1.878098 1_555
O16 O25 1.994341 1_565
O16 O18 1.994341 1_564
O16 Sm0 2.894073 1_665
O17 O26 1.878098 1_555
O17 O22 1.994341 1_555
O17 Sm1 2.894073 1_555
O18 O21 1.878098 1_555
O18 O25 1.994341 1_556
O18 Sm0 2.894073 1_656
O19 O21 1.878098 1_555
O19 O27 1.994341 1_456
O19 Sm0 2.894073 1_556
O20 O9 1.878098 1_555
O20 O6 1.994341 1_555
O20 Sm1 2.894073 1_455
O21 O7 1.994341 1_555
O21 O5 1.994341 1_555
O21 Sm1 2.894073 1_545
O22 O8 1.878098 1_555
O22 Sm1 2.894073 1_555
O23 O4 1.994341 1_555
O23 Sm1 2.894073 1_554
O24 Sm0 2.894073 1_566
O25 O7 1.878098 1_555
O25 O4 1.878098 1_555
O25 Sm0 2.894073 1_655
O26 O6 1.878098 1_555
O26 O9 1.994341 1_565
O26 O8 1.994341 1_465
O26 Sm0 2.894073 1_566
O27 O5 1.878098 1_555
O27 Sm0 2.894073 1_655
