# generated using pymatgen
data_Ga4Cu9
_symmetry_space_group_name_H-M   'P 1'
_cell_length_a   8.64924446
_cell_length_b   8.64924345
_cell_length_c   8.64924546
_cell_angle_alpha   90.00000000
_cell_angle_beta   89.99998662
_cell_angle_gamma   90.00000000
_symmetry_Int_Tables_number   1
_chemical_formula_structural   Ga4Cu9
_chemical_formula_sum   'Ga16 Cu36'
_cell_volume   647.04504489
_cell_formula_units_Z   4
loop_
 _symmetry_equiv_pos_site_id
 _symmetry_equiv_pos_as_xyz
  1  'x, y, z'
loop_
 _atom_site_type_symbol
 _atom_site_label
 _atom_site_symmetry_multiplicity
 _atom_site_fract_x
 _atom_site_fract_y
 _atom_site_fract_z
 _atom_site_occupancy
  Ga  Ga0  1  0.87686453  0.87686353  0.12313647  1
  Ga  Ga1  1  0.87686353  0.12313647  0.87686453  1
  Ga  Ga2  1  0.12313547  0.87686253  0.87686453  1
  Ga  Ga3  1  0.12313547  0.12313647  0.12313547  1
  Ga  Ga4  1  0.46661372  0.19077707  0.80922393  1
  Ga  Ga5  1  0.19077507  0.19077707  0.53338628  1
  Ga  Ga6  1  0.19077507  0.46661472  0.80922393  1
  Ga  Ga7  1  0.46661372  0.80922293  0.19077607  1
  Ga  Ga8  1  0.19077507  0.80922293  0.46661372  1
  Ga  Ga9  1  0.19077507  0.53338628  0.19077607  1
  Ga  Ga10  1  0.53338628  0.19077707  0.19077607  1
  Ga  Ga11  1  0.80922393  0.19077707  0.46661372  1
  Ga  Ga12  1  0.80922393  0.46661372  0.19077607  1
  Ga  Ga13  1  0.53338628  0.80922293  0.80922393  1
  Ga  Ga14  1  0.80922393  0.80922293  0.53338628  1
  Ga  Ga15  1  0.80922393  0.53338628  0.80922393  1
  Cu  Cu0  1  0.17064667  0.17064867  0.82935333  1
  Cu  Cu1  1  0.17064667  0.82935133  0.17064667  1
  Cu  Cu2  1  0.82935233  0.17064867  0.17064667  1
  Cu  Cu3  1  0.82935333  0.82935133  0.82935333  1
  Cu  Cu4  1  0.39544098  0.39544198  0.60455902  1
  Cu  Cu5  1  0.39544098  0.60455802  0.39544098  1
  Cu  Cu6  1  0.60456002  0.39544198  0.39544098  1
  Cu  Cu7  1  0.60456002  0.60455802  0.60455902  1
  Cu  Cu8  1  0.67337139  0.67337039  0.32662861  1
  Cu  Cu9  1  0.67337139  0.32662961  0.67337139  1
  Cu  Cu10  1  0.32662861  0.67337039  0.67337139  1
  Cu  Cu11  1  0.32662861  0.32662961  0.32662861  1
  Cu  Cu12  1  -0.00000000  0.00000000  0.35492267  1
  Cu  Cu13  1  0.00000000  0.64507633  -0.00000000  1
  Cu  Cu14  1  0.64507733  0.00000000  0.00000000  1
  Cu  Cu15  1  0.00000000  0.00000000  0.64507733  1
  Cu  Cu16  1  -0.00000000  0.35492367  -0.00000000  1
  Cu  Cu17  1  0.35492267  0.00000000  -0.00000000  1
  Cu  Cu18  1  0.50000000  0.50000000  0.85456681  1
  Cu  Cu19  1  0.50000000  0.14543419  0.50000000  1
  Cu  Cu20  1  0.14543219  0.50000000  0.50000000  1
  Cu  Cu21  1  0.50000000  0.50000000  0.14543219  1
  Cu  Cu22  1  0.50000000  0.85456581  0.50000000  1
  Cu  Cu23  1  0.85456681  0.50000000  0.50000000  1
  Cu  Cu24  1  0.97102776  0.68295294  0.31704606  1
  Cu  Cu25  1  0.68295394  0.68295294  0.02897224  1
  Cu  Cu26  1  0.68295494  0.97102676  0.31704606  1
  Cu  Cu27  1  0.97102776  0.31704706  0.68295394  1
  Cu  Cu28  1  0.68295394  0.31704806  0.97102776  1
  Cu  Cu29  1  0.68295494  0.02897224  0.68295394  1
  Cu  Cu30  1  0.02897224  0.68295294  0.68295394  1
  Cu  Cu31  1  0.31704606  0.68295294  0.97102776  1
  Cu  Cu32  1  0.31704606  0.97102676  0.68295394  1
  Cu  Cu33  1  0.02897224  0.31704806  0.31704606  1
  Cu  Cu34  1  0.31704606  0.31704806  0.02897224  1
  Cu  Cu35  1  0.31704606  0.02897224  0.31704606  1
loop_
_geom_bond_atom_site_label_1
_geom_bond_atom_site_label_2
_geom_bond_distance
_geom_bond_site_symmetry_2
Cu0 Cu27 2.487511 1_455
Cu0 Cu34 2.487516 1_556
Cu0 Cu32 2.487533 1_545
Cu0 Ga6 2.571696 1_555
Cu0 Ga5 2.571704 1_555
Cu0 Ga4 2.571705 1_555
Cu0 Ga3 2.606606 1_556
Cu0 Ga1 2.606614 1_455
Cu0 Ga2 2.606638 1_545
Cu0 Cu16 2.626265 1_556
Cu0 Cu17 2.626280 1_556
Cu0 Cu15 2.626280 1_555
Cu1 Cu24 2.487511 1_455
Cu1 Cu31 2.487511 1_554
Cu1 Cu35 2.487527 1_565
Cu1 Ga9 2.571687 1_555
Cu1 Ga8 2.571704 1_555
Cu1 Ga7 2.571705 1_555
Cu1 Ga0 2.606604 1_455
Cu1 Ga2 2.606604 1_554
Cu1 Ga3 2.606629 1_565
Cu1 Cu13 2.626265 1_555
Cu1 Cu17 2.626280 1_565
Cu1 Cu12 2.626280 1_565
Cu2 Cu28 2.487511 1_554
Cu2 Cu33 2.487522 1_655
Cu2 Cu26 2.487524 1_545
Cu2 Ga12 2.571687 1_555
Cu2 Ga10 2.571696 1_555
Cu2 Ga11 2.571704 1_555
Cu2 Ga1 2.606606 1_554
Cu2 Ga3 2.606614 1_655
Cu2 Ga0 2.606629 1_545
Cu3 Cu30 2.487511 1_655
Cu3 Ga15 2.571688 1_555
Cu3 Ga13 2.571705 1_555
Cu3 Ga14 2.571705 1_555
Cu3 Ga2 2.606604 1_655
Cu3 Ga0 2.606614 1_556
Cu3 Ga1 2.606628 1_565
Cu4 Cu9 2.546987 1_555
Cu4 Cu5 2.557894 1_555
Cu4 Cu7 2.557900 1_555
Cu4 Cu6 2.557912 1_555
Cu4 Ga4 2.578012 1_555
Cu4 Ga6 2.578018 1_555
Cu4 Ga5 2.578018 1_555
Cu5 Cu8 2.546987 1_555
Cu5 Cu6 2.557900 1_555
Cu5 Cu7 2.557913 1_555
Cu5 Ga7 2.578012 1_555
Cu5 Ga9 2.578016 1_555
Cu5 Ga8 2.578018 1_555
Cu6 Cu8 2.546969 1_555
Cu6 Cu9 2.546986 1_555
Cu6 Cu7 2.557894 1_555
Cu6 Ga12 2.578004 1_555
Cu6 Ga11 2.578006 1_555
Cu6 Ga10 2.578014 1_555
Cu7 Cu9 2.546969 1_555
Cu7 Cu8 2.546985 1_555
Cu7 Ga15 2.578004 1_555
Cu7 Ga14 2.578006 1_555
Cu7 Ga13 2.578014 1_555
Cu8 Ga12 2.441174 1_555
Cu8 Ga7 2.441180 1_555
Cu8 Ga14 2.441181 1_555
Cu9 Ga15 2.441174 1_555
Cu9 Ga4 2.441180 1_555
Cu9 Ga11 2.441180 1_555
Cu10 Ga6 2.441172 1_555
Cu10 Ga13 2.441180 1_555
Cu10 Ga8 2.441185 1_555
Cu10 Cu4 2.546971 1_555
Cu10 Cu5 2.546987 1_555
Cu10 Cu7 2.546995 1_555
Cu10 Cu32 2.577169 1_555
Cu10 Cu30 2.577170 1_555
Cu10 Cu31 2.577170 1_555
Cu10 Cu18 2.636909 1_555
Cu10 Cu22 2.636914 1_555
Cu10 Cu20 2.636915 1_555
Cu11 Ga9 2.441178 1_555
Cu11 Ga10 2.441180 1_555
Cu11 Ga5 2.441184 1_555
Cu11 Cu5 2.546971 1_555
Cu11 Cu4 2.546988 1_555
Cu11 Cu6 2.546996 1_555
Cu11 Cu33 2.577169 1_555
Cu11 Cu34 2.577170 1_555
Cu11 Cu35 2.577178 1_555
Cu11 Cu20 2.636914 1_555
Cu11 Cu21 2.636914 1_555
Cu11 Cu19 2.636914 1_555
Cu12 Ga0 2.507532 1_445
Cu12 Ga3 2.507539 1_555
Cu12 Cu15 2.509619 1_555
Cu12 Ga8 2.525608 1_545
Cu12 Ga11 2.525613 1_455
Cu12 Cu2 2.626285 1_455
Cu12 Cu26 2.773046 1_445
Cu12 Cu35 2.773054 1_555
Cu12 Cu24 2.773062 1_445
Cu12 Cu33 2.773071 1_555
Cu12 Ga5 2.797871 1_555
Cu12 Ga14 2.797875 1_445
Cu13 Ga2 2.507528 1_554
Cu13 Ga0 2.507539 1_455
Cu13 Cu16 2.509601 1_555
Cu13 Ga9 2.525599 1_555
Cu13 Ga15 2.525605 1_454
Cu13 Cu3 2.626265 1_454
Cu13 Cu31 2.773054 1_554
Cu13 Cu25 2.773054 1_455
Cu13 Cu30 2.773054 1_554
Cu13 Cu24 2.773054 1_455
Cu13 Ga6 2.797856 1_554
Cu13 Ga12 2.797866 1_455
Cu14 Ga1 2.507532 1_554
Cu14 Ga0 2.507543 1_545
Cu14 Cu17 2.509619 1_555
Cu14 Ga10 2.525613 1_555
Cu14 Ga13 2.525613 1_544
Cu14 Cu2 2.626275 1_555
Cu14 Cu3 2.626280 1_544
Cu14 Cu29 2.773055 1_554
Cu14 Cu26 2.773056 1_545
Cu14 Cu25 2.773062 1_545
Cu14 Cu28 2.773071 1_554
Cu14 Ga7 2.797875 1_545
Cu14 Ga4 2.797876 1_554
Cu15 Ga1 2.507542 1_455
Cu15 Ga2 2.507543 1_545
Cu15 Ga5 2.525607 1_555
Cu15 Ga14 2.525613 1_445
Cu15 Cu3 2.626280 1_445
Cu15 Cu29 2.773045 1_455
Cu15 Cu32 2.773055 1_545
Cu15 Cu27 2.773062 1_455
Cu15 Cu30 2.773062 1_545
Cu15 Ga8 2.797870 1_545
Cu15 Ga11 2.797876 1_455
Cu16 Ga3 2.507535 1_555
Cu16 Ga1 2.507539 1_454
Cu16 Ga6 2.525602 1_554
Cu16 Ga12 2.525604 1_455
Cu16 Cu2 2.626270 1_455
Cu16 Cu34 2.773053 1_555
Cu16 Cu28 2.773053 1_454
Cu16 Cu33 2.773053 1_555
Cu16 Cu27 2.773054 1_454
Cu16 Ga9 2.797861 1_555
Cu16 Ga15 2.797866 1_454
Cu17 Ga3 2.507539 1_555
Cu17 Ga2 2.507543 1_544
Cu17 Ga4 2.525613 1_554
Cu17 Ga7 2.525613 1_545
Cu17 Cu35 2.773054 1_555
Cu17 Cu32 2.773055 1_544
Cu17 Cu31 2.773062 1_544
Cu17 Cu34 2.773071 1_555
Cu17 Ga13 2.797875 1_544
Cu17 Ga10 2.797876 1_555
Cu18 Cu28 2.454111 1_555
Cu18 Cu31 2.454116 1_555
Cu18 Cu4 2.512287 1_555
Cu18 Cu7 2.512290 1_555
Cu18 Cu21 2.515766 1_556
Cu18 Cu9 2.636909 1_555
Cu18 Cu34 2.698797 1_556
Cu18 Cu25 2.698803 1_556
Cu18 Ga13 2.718525 1_555
Cu18 Ga4 2.718525 1_555
Cu18 Ga15 2.718534 1_555
Cu18 Ga6 2.718542 1_555
Cu19 Cu35 2.454126 1_555
Cu19 Cu29 2.454132 1_555
Cu19 Cu4 2.512290 1_555
Cu19 Cu6 2.512293 1_555
Cu19 Cu22 2.515791 1_545
Cu19 Cu9 2.636914 1_555
Cu19 Cu32 2.698817 1_545
Cu19 Cu26 2.698822 1_545
Cu19 Ga11 2.718534 1_555
Cu19 Ga10 2.718534 1_555
Cu19 Ga4 2.718534 1_555
Cu19 Ga5 2.718543 1_555
Cu20 Cu33 2.454108 1_555
Cu20 Cu30 2.454113 1_555
Cu20 Cu5 2.512294 1_555
Cu20 Cu4 2.512295 1_555
Cu20 Cu23 2.515766 1_455
Cu20 Cu27 2.698797 1_455
Cu20 Cu24 2.698798 1_455
Cu20 Ga8 2.718525 1_555
Cu20 Ga5 2.718525 1_555
Cu20 Ga6 2.718534 1_555
Cu20 Ga9 2.718534 1_555
Cu21 Cu34 2.454108 1_555
Cu21 Cu25 2.454113 1_555
Cu21 Cu5 2.512295 1_555
Cu21 Cu6 2.512298 1_555
Cu21 Cu8 2.636915 1_555
Cu21 Cu28 2.698792 1_554
Cu21 Cu31 2.698798 1_554
Cu21 Ga7 2.718527 1_555
Cu21 Ga10 2.718527 1_555
Cu21 Ga12 2.718536 1_555
Cu21 Ga9 2.718544 1_555
Cu22 Cu32 2.454122 1_555
Cu22 Cu26 2.454128 1_555
Cu22 Cu5 2.512290 1_555
Cu22 Cu7 2.512293 1_555
Cu22 Cu8 2.636914 1_555
Cu22 Cu35 2.698812 1_565
Cu22 Cu29 2.698818 1_565
Cu22 Ga14 2.718534 1_555
Cu22 Ga13 2.718535 1_555
Cu22 Ga7 2.718535 1_555
Cu22 Ga8 2.718543 1_555
Cu23 Cu24 2.454116 1_555
Cu23 Cu27 2.454117 1_555
Cu23 Cu7 2.512279 1_555
Cu23 Cu6 2.512280 1_555
Cu23 Cu9 2.636909 1_555
Cu23 Cu8 2.636909 1_555
Cu23 Cu33 2.698797 1_655
Cu23 Cu30 2.698803 1_655
Cu23 Ga14 2.718525 1_555
Cu23 Ga11 2.718525 1_555
Cu23 Ga15 2.718534 1_555
Cu23 Ga12 2.718535 1_555
Cu24 Ga0 2.507818 1_555
Cu24 Ga9 2.545336 1_655
Cu24 Ga8 2.545340 1_655
Cu24 Cu8 2.577170 1_555
Cu24 Ga12 2.579263 1_555
Cu24 Ga14 2.579269 1_555
Cu25 Cu3 2.487511 1_554
Cu25 Ga0 2.507827 1_555
Cu25 Ga15 2.545342 1_554
Cu25 Ga13 2.545347 1_554
Cu25 Cu8 2.577170 1_555
Cu25 Ga12 2.579263 1_555
Cu25 Ga7 2.579269 1_555
Cu26 Ga0 2.507812 1_555
Cu26 Ga11 2.545356 1_565
Cu26 Ga10 2.545364 1_565
Cu26 Cu8 2.577170 1_555
Cu26 Ga14 2.579266 1_555
Cu26 Ga7 2.579276 1_555
Cu27 Ga1 2.507826 1_555
Cu27 Ga5 2.545340 1_655
Cu27 Ga6 2.545340 1_655
Cu27 Cu9 2.577170 1_555
Cu27 Ga15 2.579263 1_555
Cu27 Ga11 2.579269 1_555
Cu28 Ga1 2.507824 1_555
Cu28 Ga12 2.545338 1_556
Cu28 Ga10 2.545350 1_556
Cu28 Cu9 2.577170 1_555
Cu28 Ga15 2.579256 1_555
Cu28 Ga4 2.579273 1_555
Cu29 Cu3 2.487523 1_545
Cu29 Ga1 2.507815 1_555
Cu29 Ga14 2.545349 1_545
Cu29 Ga13 2.545357 1_545
Cu29 Cu9 2.577178 1_555
Cu29 Ga11 2.579270 1_555
Cu29 Ga4 2.579280 1_555
Cu30 Ga2 2.507818 1_555
Cu30 Ga15 2.545342 1_455
Cu30 Ga14 2.545347 1_455
Cu30 Ga6 2.579252 1_555
Cu30 Ga8 2.579264 1_555
Cu31 Ga2 2.507818 1_555
Cu31 Ga9 2.545346 1_556
Cu31 Ga7 2.545347 1_556
Cu31 Ga6 2.579260 1_555
Cu31 Ga13 2.579269 1_555
Cu32 Ga2 2.507826 1_555
Cu32 Ga4 2.545360 1_565
Cu32 Ga5 2.545363 1_565
Cu32 Ga13 2.579269 1_555
Cu32 Ga8 2.579273 1_555
Cu33 Ga3 2.507829 1_555
Cu33 Ga12 2.545338 1_455
Cu33 Ga11 2.545350 1_455
Cu33 Ga9 2.579252 1_555
Cu33 Ga5 2.579268 1_555
Cu34 Ga3 2.507829 1_555
Cu34 Ga6 2.545346 1_554
Cu34 Ga4 2.545350 1_554
Cu34 Ga9 2.579260 1_555
Cu34 Ga10 2.579273 1_555
Cu35 Ga3 2.507827 1_555
Cu35 Ga7 2.545353 1_545
Cu35 Ga8 2.545357 1_545
Cu35 Ga10 2.579274 1_555
Cu35 Ga5 2.579277 1_555
