# generated using pymatgen
data_Cr2CuS4
_symmetry_space_group_name_H-M   'P 1'
_cell_length_a   5.89023700
_cell_length_b   6.82454300
_cell_length_c   12.03672700
_cell_angle_alpha   90.00000000
_cell_angle_beta   90.00000000
_cell_angle_gamma   90.00000000
_symmetry_Int_Tables_number   1
_chemical_formula_structural   Cr2CuS4
_chemical_formula_sum   'Cr8 Cu4 S16'
_cell_volume   483.85446664
_cell_formula_units_Z   4
loop_
 _symmetry_equiv_pos_site_id
 _symmetry_equiv_pos_as_xyz
  1  'x, y, z'
loop_
 _atom_site_type_symbol
 _atom_site_label
 _atom_site_symmetry_multiplicity
 _atom_site_fract_x
 _atom_site_fract_y
 _atom_site_fract_z
 _atom_site_occupancy
  Cr  Cr0  1  0.98740700  0.00000000  0.24392800  1
  Cr  Cr1  1  0.98740700  0.00000000  0.75607200  1
  Cr  Cr2  1  0.01259300  0.50000000  0.25607200  1
  Cr  Cr3  1  0.01259300  0.50000000  0.74392800  1
  Cr  Cr4  1  0.50000000  0.25000000  0.25000000  1
  Cr  Cr5  1  0.50000000  0.75000000  0.75000000  1
  Cr  Cr6  1  0.50000000  0.75000000  0.25000000  1
  Cr  Cr7  1  0.50000000  0.25000000  0.75000000  1
  Cu  Cu0  1  0.35654600  0.00000000  0.00000000  1
  Cu  Cu1  1  0.64345400  0.50000000  0.50000000  1
  Cu  Cu2  1  0.03720500  0.00000000  0.50000000  1
  Cu  Cu3  1  0.96279500  0.50000000  0.00000000  1
  S  S0  1  0.83488200  0.25327600  0.36424900  1
  S  S1  1  0.83488200  0.74672400  0.63575100  1
  S  S2  1  0.16511800  0.75327600  0.13575100  1
  S  S3  1  0.16511800  0.24672400  0.86424900  1
  S  S4  1  0.16511800  0.24672400  0.13575100  1
  S  S5  1  0.16511800  0.75327600  0.86424900  1
  S  S6  1  0.83488200  0.74672400  0.36424900  1
  S  S7  1  0.83488200  0.25327600  0.63575100  1
  S  S8  1  0.65001500  0.00000000  0.13753800  1
  S  S9  1  0.65001500  0.00000000  0.86246200  1
  S  S10  1  0.34998500  0.50000000  0.36246200  1
  S  S11  1  0.34998500  0.50000000  0.63753800  1
  S  S12  1  0.32086200  0.00000000  0.35683600  1
  S  S13  1  0.32086200  0.00000000  0.64316400  1
  S  S14  1  0.67913800  0.50000000  0.14316400  1
  S  S15  1  0.67913800  0.50000000  0.85683600  1
loop_
_geom_bond_atom_site_label_1
_geom_bond_atom_site_label_2
_geom_bond_distance
_geom_bond_site_symmetry_2
Cr0 S8 2.364179 1_555
Cr0 S4 2.371977 1_655
Cr0 S2 2.371977 1_645
Cr0 S12 2.388472 1_655
Cr0 S0 2.427409 1_555
Cr0 S6 2.427409 1_545
Cr1 S9 2.364179 1_555
Cr1 S3 2.371977 1_655
Cr1 S5 2.371977 1_645
Cr1 S13 2.388472 1_655
Cr1 S1 2.427409 1_545
Cr1 S7 2.427409 1_555
Cr2 S10 2.364179 1_555
Cr2 S0 2.371977 1_455
Cr2 S6 2.371977 1_455
Cr2 S14 2.388472 1_455
Cr2 S2 2.427409 1_555
Cr2 S4 2.427409 1_555
Cr3 S11 2.364179 1_555
Cr3 S7 2.371977 1_455
Cr3 S1 2.371977 1_455
Cr3 S15 2.388472 1_455
Cr3 S5 2.427409 1_555
Cr3 S3 2.427409 1_555
Cr4 S10 2.350346 1_555
Cr4 S8 2.350346 1_555
Cr4 S14 2.382846 1_555
Cr4 S12 2.382846 1_555
Cr4 S4 2.404688 1_555
Cr4 S0 2.404688 1_555
Cr5 S11 2.350346 1_555
Cr5 S9 2.350346 1_565
Cr5 S13 2.382846 1_565
Cr5 S15 2.382846 1_555
Cr5 S1 2.404688 1_555
Cr5 S5 2.404688 1_555
Cr6 S10 2.350346 1_555
Cr6 S8 2.350346 1_565
Cr6 S14 2.382846 1_555
Cr6 S12 2.382846 1_565
Cr6 S2 2.404688 1_555
Cr6 S6 2.404688 1_555
Cr7 S11 2.350346 1_555
Cr7 S9 2.350346 1_555
Cr7 S13 2.382846 1_555
Cr7 S15 2.382846 1_555
Cr7 S3 2.404688 1_555
Cr7 S7 2.404688 1_555
Cu0 S8 2.393485 1_555
Cu0 S9 2.393485 1_554
Cu0 S3 2.603160 1_554
Cu0 S2 2.603160 1_545
Cu0 S5 2.603160 1_544
Cu0 S4 2.603160 1_555
Cu1 S10 2.393485 1_555
Cu1 S11 2.393485 1_555
Cu1 S0 2.603160 1_555
Cu1 S1 2.603160 1_555
Cu1 S7 2.603160 1_555
Cu1 S6 2.603160 1_555
Cu2 S13 2.400230 1_555
Cu2 S12 2.400230 1_555
Cu2 S1 2.660424 1_445
Cu2 S7 2.660424 1_455
Cu2 S0 2.660424 1_455
Cu2 S6 2.660424 1_445
Cu3 S15 2.400230 1_554
Cu3 S14 2.400230 1_555
Cu3 S5 2.660424 1_654
Cu3 S4 2.660424 1_655
Cu3 S3 2.660424 1_654
Cu3 S2 2.660424 1_655
