# generated using pymatgen
data_Li4MnCo2O7
_symmetry_space_group_name_H-M   'P 1'
_cell_length_a   2.90595400
_cell_length_b   7.76006525
_cell_length_c   11.43755735
_cell_angle_alpha   81.84183841
_cell_angle_beta   83.11161059
_cell_angle_gamma   81.55730530
_symmetry_Int_Tables_number   1
_chemical_formula_structural   Li4MnCo2O7
_chemical_formula_sum   'Li8 Mn2 Co4 O14'
_cell_volume   251.24769980
_cell_formula_units_Z   2
loop_
 _symmetry_equiv_pos_site_id
 _symmetry_equiv_pos_as_xyz
  1  'x, y, z'
loop_
 _atom_site_type_symbol
 _atom_site_label
 _atom_site_symmetry_multiplicity
 _atom_site_fract_x
 _atom_site_fract_y
 _atom_site_fract_z
 _atom_site_occupancy
  Li  Li0  1  0.68645800  0.15561300  0.93213300  1
  Li  Li1  1  0.85740600  0.57667900  0.20231900  1
  Li  Li2  1  0.00000000  0.00000000  0.50000000  1
  Li  Li3  1  0.14259400  0.42332100  0.79768100  1
  Li  Li4  1  0.31354200  0.84438700  0.06786700  1
  Li  Li5  1  0.43108700  0.28703500  0.35591500  1
  Li  Li6  1  0.56891300  0.71296500  0.64408500  1
  Li  Li7  1  0.50000000  0.50000000  0.00000000  1
  Mn  Mn0  1  0.93748300  0.77634200  0.86481200  1
  Mn  Mn1  1  0.06251700  0.22365800  0.13518800  1
  Co  Co0  1  0.21369800  0.64252600  0.42771700  1
  Co  Co1  1  0.36746600  0.07034300  0.71550800  1
  Co  Co2  1  0.63253400  0.92965700  0.28449200  1
  Co  Co3  1  0.78630200  0.35747400  0.57228300  1
  O  O0  1  0.35922400  0.94361700  0.88689600  1
  O  O1  1  0.48327300  0.37254300  0.17551800  1
  O  O2  1  0.59903500  0.81313500  0.45916600  1
  O  O3  1  0.74845200  0.23942800  0.74722300  1
  O  O4  1  0.89827100  0.68992600  0.02217100  1
  O  O5  1  0.02154600  0.10106400  0.31031000  1
  O  O6  1  0.17005100  0.52524500  0.60308100  1
  O  O7  1  0.10172900  0.31007400  0.97782900  1
  O  O8  1  0.25154800  0.76057200  0.25277700  1
  O  O9  1  0.40096500  0.18686500  0.54083400  1
  O  O10  1  0.51672700  0.62745700  0.82448200  1
  O  O11  1  0.64077600  0.05638300  0.11310400  1
  O  O12  1  0.82994900  0.47475500  0.39691900  1
  O  O13  1  0.97845400  0.89893600  0.68969000  1
loop_
_geom_bond_atom_site_label_1
_geom_bond_atom_site_label_2
_geom_bond_distance
_geom_bond_site_symmetry_2
Li0 O7 1.979889 1_655
Li0 O7 1.990942 1_555
Li0 O11 2.099206 1_556
Li0 O3 2.116833 1_555
Li0 O0 2.167322 1_545
Li0 O0 2.418827 1_645
Li1 O4 2.118940 1_555
Li1 O1 2.123413 1_555
Li1 O8 2.133901 1_655
Li1 O8 2.172882 1_555
Li1 O12 2.249935 1_555
Li1 O1 2.251503 1_655
Li2 O9 2.120712 1_555
Li2 O2 2.120712 1_445
Li2 O9 2.146419 1_455
Li2 O2 2.146419 1_545
Li2 O5 2.196595 1_555
Li2 O13 2.196595 1_445
Li3 O7 2.118940 1_555
Li3 O10 2.123413 1_555
Li3 O3 2.133901 1_455
Li3 O3 2.172882 1_555
Li3 O6 2.249935 1_555
Li3 O10 2.251503 1_455
Li4 O4 1.979889 1_455
Li4 O4 1.990942 1_555
Li4 O0 2.099206 1_554
Li4 O8 2.116833 1_555
Li4 O11 2.167322 1_565
Li4 O11 2.418827 1_465
Li5 O1 2.070370 1_555
Li5 O12 2.122620 1_555
Li5 O5 2.137924 1_655
Li5 O9 2.143404 1_555
Li5 O5 2.153597 1_555
Li5 O12 2.154928 1_455
Li6 O10 2.070370 1_555
Li6 O6 2.122620 1_555
Li6 O13 2.137924 1_455
Li6 O2 2.143404 1_555
Li6 O13 2.153597 1_555
Li6 O6 2.154928 1_655
Li7 O4 2.062360 1_555
Li7 O7 2.062360 1_554
Li7 O1 2.106623 1_555
Li7 O10 2.106623 1_554
Li7 O4 2.130035 1_455
Li7 O7 2.130035 1_654
Mn0 O4 1.825560 1_556
Mn0 O10 1.934934 1_555
Mn0 O10 1.942917 1_655
Mn0 O0 1.971096 1_655
Mn0 O0 1.980715 1_555
Mn0 O13 2.089582 1_555
Mn1 O7 1.825560 1_554
Mn1 O1 1.934934 1_555
Mn1 O1 1.942917 1_455
Mn1 O11 1.971096 1_455
Mn1 O11 1.980715 1_555
Mn1 O5 2.089582 1_555
Co0 O12 1.927003 1_455
Co0 O2 1.950174 1_555
Co0 O8 2.076386 1_555
Co0 O12 2.078521 1_555
Co0 O6 2.078979 1_555
Co0 O2 2.087890 1_455
Co1 O3 1.933113 1_555
Co1 O13 1.940990 1_445
Co1 O0 2.063690 1_545
Co1 O9 2.070015 1_555
Co1 O13 2.073907 1_545
Co1 O3 2.091528 1_455
Co2 O8 1.933113 1_555
Co2 O5 1.940990 1_665
Co2 O11 2.063690 1_565
Co2 O2 2.070015 1_555
Co2 O5 2.073907 1_565
Co2 O8 2.091528 1_655
Co3 O6 1.927003 1_655
Co3 O9 1.950174 1_555
Co3 O3 2.076386 1_555
Co3 O6 2.078521 1_555
Co3 O12 2.078979 1_555
Co3 O9 2.087890 1_655
