# generated using pymatgen
data_Pr2In3Ni
_symmetry_space_group_name_H-M   'P 1'
_cell_length_a   7.73902400
_cell_length_b   9.61081792
_cell_length_c   16.62496048
_cell_angle_alpha   89.98362590
_cell_angle_beta   90.00000000
_cell_angle_gamma   90.00000000
_symmetry_Int_Tables_number   1
_chemical_formula_structural   Pr2In3Ni
_chemical_formula_sum   'Pr16 In24 Ni8'
_cell_volume   1236.53708744
_cell_formula_units_Z   8
loop_
 _symmetry_equiv_pos_site_id
 _symmetry_equiv_pos_as_xyz
  1  'x, y, z'
loop_
 _atom_site_type_symbol
 _atom_site_label
 _atom_site_symmetry_multiplicity
 _atom_site_fract_x
 _atom_site_fract_y
 _atom_site_fract_z
 _atom_site_occupancy
  Pr  Pr0_0  1  0.00000000  0.49997350  0.01422650  1
  Pr  Pr0_1  1  0.00000000  0.49997350  0.51422650  1
  Pr  Pr0_2  1  0.00000000  0.99997350  0.01422650  1
  Pr  Pr0_3  1  0.00000000  0.99997350  0.51422650  1
  Pr  Pr0_4  1  0.50000000  0.49997350  0.01422650  1
  Pr  Pr0_5  1  0.50000000  0.49997350  0.51422650  1
  Pr  Pr0_6  1  0.50000000  0.99997350  0.01422650  1
  Pr  Pr0_7  1  0.50000000  0.99997350  0.51422650  1
  Pr  Pr1_0  1  0.00000000  0.24994550  0.24306150  1
  Pr  Pr1_1  1  0.00000000  0.24994550  0.74306150  1
  Pr  Pr1_2  1  0.00000000  0.74994550  0.24306150  1
  Pr  Pr1_3  1  0.00000000  0.74994550  0.74306150  1
  Pr  Pr1_4  1  0.50000000  0.24994550  0.24306150  1
  Pr  Pr1_5  1  0.50000000  0.24994550  0.74306150  1
  Pr  Pr1_6  1  0.50000000  0.74994550  0.24306150  1
  Pr  Pr1_7  1  0.50000000  0.74994550  0.74306150  1
  In  In0_0  1  0.25000000  0.25003750  0.41736700  1
  In  In0_1  1  0.25000000  0.25003750  0.91736700  1
  In  In0_2  1  0.25000000  0.75003750  0.41736700  1
  In  In0_3  1  0.25000000  0.75003750  0.91736700  1
  In  In0_4  1  0.75000000  0.25003750  0.41736700  1
  In  In0_5  1  0.75000000  0.25003750  0.91736700  1
  In  In0_6  1  0.75000000  0.75003750  0.41736700  1
  In  In0_7  1  0.75000000  0.75003750  0.91736700  1
  In  In1_0  1  0.25000000  0.24997250  0.09104800  1
  In  In1_1  1  0.25000000  0.24997250  0.59104800  1
  In  In1_2  1  0.25000000  0.74997250  0.09104800  1
  In  In1_3  1  0.25000000  0.74997250  0.59104800  1
  In  In1_4  1  0.75000000  0.24997250  0.09104800  1
  In  In1_5  1  0.75000000  0.24997250  0.59104800  1
  In  In1_6  1  0.75000000  0.74997250  0.09104800  1
  In  In1_7  1  0.75000000  0.74997250  0.59104800  1
  In  In2_0  1  0.25000000  0.49996900  0.32244050  1
  In  In2_1  1  0.25000000  0.49996900  0.82244050  1
  In  In2_2  1  0.25000000  0.99996900  0.32244050  1
  In  In2_3  1  0.25000000  0.99996900  0.82244050  1
  In  In2_4  1  0.75000000  0.49996900  0.32244050  1
  In  In2_5  1  0.75000000  0.49996900  0.82244050  1
  In  In2_6  1  0.75000000  0.99996900  0.32244050  1
  In  In2_7  1  0.75000000  0.99996900  0.82244050  1
  Ni  Ni0_0  1  0.25000000  0.00000150  0.16185650  1
  Ni  Ni0_1  1  0.25000000  0.00000150  0.66185650  1
  Ni  Ni0_2  1  0.25000000  0.50000150  0.16185650  1
  Ni  Ni0_3  1  0.25000000  0.50000150  0.66185650  1
  Ni  Ni0_4  1  0.75000000  0.00000150  0.16185650  1
  Ni  Ni0_5  1  0.75000000  0.00000150  0.66185650  1
  Ni  Ni0_6  1  0.75000000  0.50000150  0.16185650  1
  Ni  Ni0_7  1  0.75000000  0.50000150  0.66185650  1
loop_
_geom_bond_atom_site_label_1
_geom_bond_atom_site_label_2
_geom_bond_distance
_geom_bond_site_symmetry_2
Pr0_0 Pr0_4 3.869512 1_455
Pr0_0 Pr0_4 3.869512 1_555
Pr0_1 Pr0_5 3.869512 1_455
Pr0_1 Pr0_5 3.869512 1_555
Pr0_2 Pr0_6 3.869512 1_455
Pr0_2 Pr0_6 3.869512 1_555
Pr0_3 Pr0_7 3.869512 1_555
Pr0_3 Pr0_7 3.869512 1_455
In0_0 In2_0 2.873711 1_555
In0_0 In2_2 2.875565 1_545
In0_0 In1_1 2.887440 1_555
In0_0 Pr0_1 3.479733 1_555
In0_0 Pr0_5 3.479733 1_555
In0_0 Pr0_7 3.479947 1_545
In0_0 Pr0_3 3.479947 1_545
In0_0 Pr1_0 3.484344 1_555
In0_0 Pr1_4 3.484344 1_555
In0_1 In2_1 2.873711 1_555
In0_1 In2_3 2.875565 1_545
In0_1 In1_0 2.887440 1_556
In0_1 Pr0_0 3.479733 1_556
In0_1 Pr0_4 3.479733 1_556
In0_1 Pr0_2 3.479947 1_546
In0_1 Pr0_6 3.479947 1_546
In0_1 Pr1_5 3.484344 1_555
In0_1 Pr1_1 3.484344 1_555
In0_2 In2_2 2.873711 1_555
In0_2 In2_0 2.875565 1_555
In0_2 In1_3 2.887440 1_555
In0_2 Pr0_3 3.479733 1_555
In0_2 Pr0_7 3.479733 1_555
In0_2 Pr0_5 3.479947 1_555
In0_2 Pr0_1 3.479947 1_555
In0_2 Pr1_2 3.484344 1_555
In0_2 Pr1_6 3.484344 1_555
In0_3 In2_3 2.873711 1_555
In0_3 In2_1 2.875565 1_555
In0_3 In1_2 2.887440 1_556
In0_3 Pr0_6 3.479733 1_556
In0_3 Pr0_2 3.479733 1_556
In0_3 Pr0_0 3.479947 1_556
In0_3 Pr0_4 3.479947 1_556
In0_3 Pr1_3 3.484344 1_555
In0_3 Pr1_7 3.484344 1_555
In0_4 In2_4 2.873711 1_555
In0_4 In2_6 2.875565 1_545
In0_4 In1_5 2.887440 1_555
In0_4 Pr0_1 3.479733 1_655
In0_4 Pr0_5 3.479733 1_555
In0_4 Pr0_3 3.479947 1_645
In0_4 Pr0_7 3.479947 1_545
In0_4 Pr1_4 3.484344 1_555
In0_4 Pr1_0 3.484344 1_655
In0_5 In2_5 2.873711 1_555
In0_5 In2_7 2.875565 1_545
In0_5 In1_4 2.887440 1_556
In0_5 Pr0_0 3.479733 1_656
In0_5 Pr0_4 3.479733 1_556
In0_5 Pr0_2 3.479947 1_646
In0_5 Pr0_6 3.479947 1_546
In0_5 Pr1_5 3.484344 1_555
In0_5 Pr1_1 3.484344 1_655
In0_6 In2_6 2.873711 1_555
In0_6 In2_4 2.875565 1_555
In0_6 In1_7 2.887440 1_555
In0_6 Pr0_3 3.479733 1_655
In0_6 Pr0_7 3.479733 1_555
In0_6 Pr0_5 3.479947 1_555
In0_6 Pr0_1 3.479947 1_655
In0_6 Pr1_2 3.484344 1_655
In0_6 Pr1_6 3.484344 1_555
In0_7 In2_7 2.873711 1_555
In0_7 In2_5 2.875565 1_555
In0_7 In1_6 2.887440 1_556
In0_7 Pr0_2 3.479733 1_656
In0_7 Pr0_6 3.479733 1_556
In0_7 Pr0_0 3.479947 1_656
In0_7 Pr0_4 3.479947 1_556
In0_7 Pr1_3 3.484344 1_655
In0_7 Pr1_7 3.484344 1_555
In1_0 Ni0_0 2.675034 1_555
In1_0 Ni0_2 2.676139 1_555
In1_0 Pr1_0 3.182784 1_555
In1_0 Pr1_4 3.182784 1_555
In1_0 Pr0_0 3.338515 1_555
In1_0 Pr0_4 3.338515 1_555
In1_0 Pr0_6 3.339027 1_545
In1_0 Pr0_2 3.339027 1_545
In1_1 Ni0_1 2.675034 1_555
In1_1 Ni0_3 2.676139 1_555
In1_1 Pr1_1 3.182784 1_555
In1_1 Pr1_5 3.182784 1_555
In1_1 Pr0_5 3.338515 1_555
In1_1 Pr0_1 3.338515 1_555
In1_1 Pr0_7 3.339027 1_545
In1_1 Pr0_3 3.339027 1_545
In1_2 Ni0_2 2.675034 1_555
In1_2 Ni0_0 2.676139 1_565
In1_2 Pr1_2 3.182784 1_555
In1_2 Pr1_6 3.182784 1_555
In1_2 Pr0_2 3.338515 1_555
In1_2 Pr0_6 3.338515 1_555
In1_2 Pr0_0 3.339027 1_555
In1_2 Pr0_4 3.339027 1_555
In1_3 Ni0_3 2.675034 1_555
In1_3 Ni0_1 2.676139 1_565
In1_3 Pr1_7 3.182784 1_555
In1_3 Pr1_3 3.182784 1_555
In1_3 Pr0_7 3.338515 1_555
In1_3 Pr0_3 3.338515 1_555
In1_3 Pr0_5 3.339027 1_555
In1_3 Pr0_1 3.339027 1_555
In1_4 Ni0_4 2.675034 1_555
In1_4 Ni0_6 2.676139 1_555
In1_4 Pr1_4 3.182784 1_555
In1_4 Pr1_0 3.182784 1_655
In1_4 Pr0_0 3.338515 1_655
In1_4 Pr0_4 3.338515 1_555
In1_4 Pr0_6 3.339027 1_545
In1_4 Pr0_2 3.339027 1_645
In1_5 Ni0_5 2.675034 1_555
In1_5 Ni0_7 2.676139 1_555
In1_5 Pr1_1 3.182784 1_655
In1_5 Pr1_5 3.182784 1_555
In1_5 Pr0_1 3.338515 1_655
In1_5 Pr0_5 3.338515 1_555
In1_5 Pr0_3 3.339027 1_645
In1_5 Pr0_7 3.339027 1_545
In1_6 Ni0_6 2.675034 1_555
In1_6 Ni0_4 2.676139 1_565
In1_6 Pr1_6 3.182784 1_555
In1_6 Pr1_2 3.182784 1_655
In1_6 Pr0_6 3.338515 1_555
In1_6 Pr0_2 3.338515 1_655
In1_6 Pr0_0 3.339027 1_655
In1_6 Pr0_4 3.339027 1_555
In1_7 Ni0_7 2.675034 1_555
In1_7 Ni0_5 2.676139 1_565
In1_7 Pr1_7 3.182784 1_555
In1_7 Pr1_3 3.182784 1_655
In1_7 Pr0_3 3.338515 1_655
In1_7 Pr0_7 3.338515 1_555
In1_7 Pr0_5 3.339027 1_555
In1_7 Pr0_1 3.339027 1_655
In2_0 Ni0_2 2.669703 1_555
In2_0 Pr1_6 3.354834 1_555
In2_0 Pr1_2 3.354834 1_555
In2_0 Pr1_4 3.355697 1_555
In2_0 Pr1_0 3.355697 1_555
In2_0 Pr0_1 3.729530 1_555
In2_0 Pr0_5 3.729530 1_555
In2_1 Ni0_3 2.669703 1_555
In2_1 Pr1_3 3.354834 1_555
In2_1 Pr1_7 3.354834 1_555
In2_1 Pr1_5 3.355697 1_555
In2_1 Pr1_1 3.355697 1_555
In2_1 Pr0_0 3.729530 1_556
In2_1 Pr0_4 3.729530 1_556
In2_2 Ni0_0 2.669703 1_565
In2_2 Pr1_0 3.354834 1_565
In2_2 Pr1_4 3.354834 1_565
In2_2 Pr1_2 3.355697 1_555
In2_2 Pr1_6 3.355697 1_555
In2_2 Pr0_7 3.729530 1_555
In2_2 Pr0_3 3.729530 1_555
In2_3 Ni0_1 2.669703 1_565
In2_3 Pr1_1 3.354834 1_565
In2_3 Pr1_5 3.354834 1_565
In2_3 Pr1_3 3.355697 1_555
In2_3 Pr1_7 3.355697 1_555
In2_3 Pr0_2 3.729530 1_556
In2_3 Pr0_6 3.729530 1_556
In2_4 Ni0_6 2.669703 1_555
In2_4 Pr1_2 3.354834 1_655
In2_4 Pr1_6 3.354834 1_555
In2_4 Pr1_4 3.355697 1_555
In2_4 Pr1_0 3.355697 1_655
In2_4 Pr0_1 3.729530 1_655
In2_4 Pr0_5 3.729530 1_555
In2_5 Ni0_7 2.669703 1_555
In2_5 Pr1_3 3.354834 1_655
In2_5 Pr1_7 3.354834 1_555
In2_5 Pr1_5 3.355697 1_555
In2_5 Pr1_1 3.355697 1_655
In2_5 Pr0_0 3.729530 1_656
In2_5 Pr0_4 3.729530 1_556
In2_6 Ni0_4 2.669703 1_565
In2_6 Pr1_4 3.354834 1_565
In2_6 Pr1_0 3.354834 1_665
In2_6 Pr1_6 3.355697 1_555
In2_6 Pr1_2 3.355697 1_655
In2_6 Pr0_7 3.729530 1_555
In2_6 Pr0_3 3.729530 1_655
In2_7 Ni0_5 2.669703 1_565
In2_7 Pr1_5 3.354834 1_565
In2_7 Pr1_1 3.354834 1_665
In2_7 Pr1_3 3.355697 1_655
In2_7 Pr1_7 3.355697 1_555
In2_7 Pr0_2 3.729530 1_656
In2_7 Pr0_6 3.729530 1_556
Ni0_0 Pr0_2 3.125233 1_545
Ni0_0 Pr0_6 3.125233 1_545
Ni0_0 Pr1_4 3.367212 1_555
Ni0_0 Pr1_0 3.367212 1_555
Ni0_0 Pr1_2 3.367430 1_545
Ni0_0 Pr1_6 3.367430 1_545
Ni0_1 Pr0_7 3.125233 1_545
Ni0_1 Pr0_3 3.125233 1_545
Ni0_1 Pr1_5 3.367212 1_555
Ni0_1 Pr1_1 3.367212 1_555
Ni0_1 Pr1_3 3.367430 1_545
Ni0_1 Pr1_7 3.367430 1_545
Ni0_2 Pr0_0 3.125233 1_555
Ni0_2 Pr0_4 3.125233 1_555
Ni0_2 Pr1_6 3.367212 1_555
Ni0_2 Pr1_2 3.367212 1_555
Ni0_2 Pr1_0 3.367430 1_555
Ni0_2 Pr1_4 3.367430 1_555
Ni0_3 Pr0_1 3.125233 1_555
Ni0_3 Pr0_5 3.125233 1_555
Ni0_3 Pr1_3 3.367212 1_555
Ni0_3 Pr1_7 3.367212 1_555
Ni0_3 Pr1_5 3.367430 1_555
Ni0_3 Pr1_1 3.367430 1_555
Ni0_4 Pr0_6 3.125233 1_545
Ni0_4 Pr0_2 3.125233 1_645
Ni0_4 Pr1_4 3.367212 1_555
Ni0_4 Pr1_0 3.367212 1_655
Ni0_4 Pr1_2 3.367430 1_645
Ni0_4 Pr1_6 3.367430 1_545
Ni0_5 Pr0_3 3.125233 1_645
Ni0_5 Pr0_7 3.125233 1_545
Ni0_5 Pr1_5 3.367212 1_555
Ni0_5 Pr1_1 3.367212 1_655
Ni0_5 Pr1_3 3.367430 1_645
Ni0_5 Pr1_7 3.367430 1_545
Ni0_6 Pr0_0 3.125233 1_655
Ni0_6 Pr0_4 3.125233 1_555
Ni0_6 Pr1_6 3.367212 1_555
Ni0_6 Pr1_2 3.367212 1_655
Ni0_6 Pr1_0 3.367430 1_655
Ni0_6 Pr1_4 3.367430 1_555
Ni0_7 Pr0_5 3.125233 1_555
Ni0_7 Pr0_1 3.125233 1_655
Ni0_7 Pr1_7 3.367212 1_555
Ni0_7 Pr1_3 3.367212 1_655
Ni0_7 Pr1_5 3.367430 1_555
Ni0_7 Pr1_1 3.367430 1_655
