# generated using pymatgen
data_Li4Mn3CoO8
_symmetry_space_group_name_H-M   'P 1'
_cell_length_a   5.97708877
_cell_length_b   5.97708877
_cell_length_c   5.97708911
_cell_angle_alpha   59.75313551
_cell_angle_beta   59.75313551
_cell_angle_gamma   59.75313244
_symmetry_Int_Tables_number   1
_chemical_formula_structural   Li4Mn3CoO8
_chemical_formula_sum   'Li4 Mn3 Co1 O8'
_cell_volume   150.14565784
_cell_formula_units_Z   1
loop_
 _symmetry_equiv_pos_site_id
 _symmetry_equiv_pos_as_xyz
  1  'x, y, z'
loop_
 _atom_site_type_symbol
 _atom_site_label
 _atom_site_symmetry_multiplicity
 _atom_site_fract_x
 _atom_site_fract_y
 _atom_site_fract_z
 _atom_site_occupancy
  Li  Li0  1  0.50000000  0.50000000  0.50000000  1
  Li  Li1  1  0.00000000  0.50000000  0.00000000  1
  Li  Li2  1  0.50000000  0.00000000  0.00000000  1
  Li  Li3  1  0.00000000  0.00000000  0.50000000  1
  Mn  Mn0  1  0.50000000  0.00000000  0.50000000  1
  Mn  Mn1  1  0.00000000  0.50000000  0.50000000  1
  Mn  Mn2  1  0.50000000  0.50000000  0.00000000  1
  Co  Co0  1  0.00000000  0.00000000  0.00000000  1
  O  O0  1  0.24607600  0.24607600  0.24607600  1
  O  O1  1  0.75490500  0.27281700  0.75490500  1
  O  O2  1  0.27281700  0.75490500  0.75490500  1
  O  O3  1  0.75490500  0.75490500  0.27281700  1
  O  O4  1  0.75392400  0.75392400  0.75392400  1
  O  O5  1  0.24509500  0.72718300  0.24509500  1
  O  O6  1  0.72718300  0.24509500  0.24509500  1
  O  O7  1  0.24509500  0.24509500  0.72718300  1
loop_
_geom_bond_atom_site_label_1
_geom_bond_atom_site_label_2
_geom_bond_distance
_geom_bond_site_symmetry_2
Li0 O2 2.157908 1_555
Li0 O1 2.157908 1_555
Li0 O6 2.157908 1_555
Li0 O5 2.157908 1_555
Li0 O3 2.157908 1_555
Li0 O7 2.157908 1_555
Li1 O0 2.076454 1_555
Li1 O4 2.076454 1_454
Li1 O3 2.230279 1_455
Li1 O7 2.230279 1_554
Li1 O2 2.230279 1_554
Li1 O6 2.230279 1_455
Li2 O0 2.076454 1_555
Li2 O4 2.076454 1_544
Li2 O3 2.230279 1_545
Li2 O7 2.230279 1_554
Li2 O1 2.230279 1_554
Li2 O5 2.230279 1_545
Li3 O0 2.076454 1_555
Li3 O4 2.076454 1_445
Li3 O2 2.230279 1_545
Li3 O1 2.230279 1_455
Li3 O6 2.230279 1_455
Li3 O5 2.230279 1_545
Mn0 O7 1.995608 1_555
Mn0 O3 1.995608 1_545
Mn0 O6 1.995608 1_555
Mn0 O2 1.995608 1_545
Mn0 O4 2.143147 1_545
Mn0 O0 2.143147 1_555
Mn1 O7 1.995608 1_555
Mn1 O3 1.995608 1_455
Mn1 O5 1.995608 1_555
Mn1 O1 1.995608 1_455
Mn1 O4 2.143147 1_455
Mn1 O0 2.143147 1_555
Mn2 O6 1.995608 1_555
Mn2 O5 1.995608 1_555
Mn2 O2 1.995608 1_554
Mn2 O1 1.995608 1_554
Mn2 O4 2.143147 1_554
Mn2 O0 2.143147 1_555
Co0 O5 2.073650 1_545
Co0 O6 2.073650 1_455
Co0 O1 2.073650 1_454
Co0 O2 2.073650 1_544
Co0 O7 2.073650 1_554
Co0 O3 2.073650 1_445
