# generated using pymatgen
data_Ba(C4N3)2
_symmetry_space_group_name_H-M   'P 1'
_cell_length_a   6.03677100
_cell_length_b   8.74967000
_cell_length_c   11.89712900
_cell_angle_alpha   90.00000000
_cell_angle_beta   90.00000000
_cell_angle_gamma   90.00000000
_symmetry_Int_Tables_number   1
_chemical_formula_structural   Ba(C4N3)2
_chemical_formula_sum   'Ba2 C16 N12'
_cell_volume   628.40342846
_cell_formula_units_Z   2
loop_
 _symmetry_equiv_pos_site_id
 _symmetry_equiv_pos_as_xyz
  1  'x, y, z'
loop_
 _atom_site_type_symbol
 _atom_site_label
 _atom_site_symmetry_multiplicity
 _atom_site_fract_x
 _atom_site_fract_y
 _atom_site_fract_z
 _atom_site_occupancy
  Ba  Ba0  1  0.00000000  0.50000000  0.50000000  1
  Ba  Ba1  1  0.00000000  0.00000000  0.00000000  1
  C  C0  1  0.41537400  0.00000000  0.73874600  1
  C  C1  1  0.41537400  0.50000000  0.76125400  1
  C  C2  1  0.58462600  0.00000000  0.26125400  1
  C  C3  1  0.58462600  0.50000000  0.23874600  1
  C  C4  1  0.58970000  0.00000000  0.66064700  1
  C  C5  1  0.58970000  0.50000000  0.83935300  1
  C  C6  1  0.41030000  0.00000000  0.33935300  1
  C  C7  1  0.41030000  0.50000000  0.16064700  1
  C  C8  1  0.67944400  0.13822800  0.62195800  1
  C  C9  1  0.67944400  0.36177200  0.87804200  1
  C  C10  1  0.32055600  0.13822800  0.37804200  1
  C  C11  1  0.67944400  0.63822800  0.87804200  1
  C  C12  1  0.32055600  0.86177200  0.37804200  1
  C  C13  1  0.32055600  0.63822800  0.12195800  1
  C  C14  1  0.67944400  0.86177200  0.62195800  1
  C  C15  1  0.32055600  0.36177200  0.12195800  1
  N  N0  1  0.75563500  0.25301400  0.58898100  1
  N  N1  1  0.75563500  0.24698600  0.91101900  1
  N  N2  1  0.24436500  0.25301400  0.41101900  1
  N  N3  1  0.75563500  0.75301400  0.91101900  1
  N  N4  1  0.24436500  0.74698600  0.41101900  1
  N  N5  1  0.24436500  0.75301400  0.08898100  1
  N  N6  1  0.75563500  0.74698600  0.58898100  1
  N  N7  1  0.24436500  0.24698600  0.08898100  1
  N  N8  1  0.27058000  0.00000000  0.80448900  1
  N  N9  1  0.27058000  0.50000000  0.69551100  1
  N  N10  1  0.72942000  0.00000000  0.19551100  1
  N  N11  1  0.72942000  0.50000000  0.30448900  1
loop_
_geom_bond_atom_site_label_1
_geom_bond_atom_site_label_2
_geom_bond_distance
_geom_bond_site_symmetry_2
Ba0 N6 2.822576 1_455
Ba0 N4 2.822576 1_555
Ba0 N0 2.822576 1_455
Ba0 N2 2.822576 1_555
Ba0 N11 2.842263 1_455
Ba0 N9 2.842263 1_555
Ba1 N7 2.822576 1_555
Ba1 N5 2.822576 1_545
Ba1 N1 2.822576 1_454
Ba1 N3 2.822576 1_444
Ba1 N10 2.842263 1_455
Ba1 N8 2.842263 1_554
C0 N8 1.172942 1_555
C0 C4 1.403852 1_555
C1 N9 1.172942 1_555
C1 C5 1.403852 1_555
C2 N10 1.172942 1_555
C2 C6 1.403852 1_555
C3 N11 1.172942 1_555
C3 C7 1.403852 1_555
C4 C8 1.402905 1_555
C5 C9 1.402905 1_555
C8 N0 1.172252 1_555
C9 N1 1.172252 1_555
C10 N2 1.172252 1_555
C10 C6 1.402905 1_555
C11 N3 1.172252 1_555
C11 C5 1.402905 1_555
C12 N4 1.172252 1_555
C12 C6 1.402905 1_565
C13 N5 1.172252 1_555
C13 C7 1.402905 1_555
C14 N6 1.172252 1_555
C14 C4 1.402905 1_565
C15 N7 1.172252 1_555
C15 C7 1.402905 1_555
