# generated using pymatgen
data_K2Fe9H18S6O43
_symmetry_space_group_name_H-M   'P 1'
_cell_length_a   12.33997688
_cell_length_b   12.33997688
_cell_length_c   10.35420507
_cell_angle_alpha   67.69523122
_cell_angle_beta   67.69523122
_cell_angle_gamma   35.05813745
_symmetry_Int_Tables_number   1
_chemical_formula_structural   K2Fe9H18S6O43
_chemical_formula_sum   'K2 Fe9 H18 S6 O43'
_cell_volume   830.83371942
_cell_formula_units_Z   1
loop_
 _symmetry_equiv_pos_site_id
 _symmetry_equiv_pos_as_xyz
  1  'x, y, z'
loop_
 _atom_site_type_symbol
 _atom_site_label
 _atom_site_symmetry_multiplicity
 _atom_site_fract_x
 _atom_site_fract_y
 _atom_site_fract_z
 _atom_site_occupancy
  K  K0  1  0.33309300  0.33309300  0.66770400  1
  K  K1  1  0.66690700  0.66690700  0.33229600  1
  Fe  Fe0  1  0.33146500  0.83344600  0.16572500  1
  Fe  Fe1  1  0.00000000  0.50000000  0.50000000  1
  Fe  Fe2  1  0.66853500  0.16655400  0.83427500  1
  Fe  Fe3  1  0.50000000  0.50000000  0.50000000  1
  Fe  Fe4  1  0.16533000  0.16533000  0.83377900  1
  Fe  Fe5  1  0.83467000  0.83467000  0.16622100  1
  Fe  Fe6  1  0.16655400  0.66853500  0.83427500  1
  Fe  Fe7  1  0.83344600  0.33146500  0.16572500  1
  Fe  Fe8  1  0.50000000  0.00000000  0.50000000  1
  H  H0  1  0.85296700  0.27065200  0.42585400  1
  H  H1  1  0.51887600  0.93786500  0.76005100  1
  H  H2  1  0.18516600  0.61128600  0.09215300  1
  H  H3  1  0.99355600  0.99355600  0.71147000  1
  H  H4  1  0.65835200  0.65835200  0.03889700  1
  H  H5  1  0.32578500  0.32578500  0.37132900  1
  H  H6  1  0.27065200  0.85296700  0.42585400  1
  H  H7  1  0.93786500  0.51887600  0.76005100  1
  H  H8  1  0.61128600  0.18516600  0.09215300  1
  H  H9  1  0.14703300  0.72934800  0.57414600  1
  H  H10  1  0.81483400  0.38871400  0.90784700  1
  H  H11  1  0.48112400  0.06213500  0.23994900  1
  H  H12  1  0.00644400  0.00644400  0.28853000  1
  H  H13  1  0.67421500  0.67421500  0.62867100  1
  H  H14  1  0.34164800  0.34164800  0.96110300  1
  H  H15  1  0.72934800  0.14703300  0.57414600  1
  H  H16  1  0.38871400  0.81483400  0.90784700  1
  H  H17  1  0.06213500  0.48112400  0.23994900  1
  S  S0  1  0.12872600  0.12872600  0.56310900  1
  S  S1  1  0.79507800  0.79507800  0.89754000  1
  S  S2  1  0.46167300  0.46167300  0.23173000  1
  S  S3  1  0.87127400  0.87127400  0.43689100  1
  S  S4  1  0.53832700  0.53832700  0.76827000  1
  S  S5  1  0.20492200  0.20492200  0.10246000  1
  O  O0  1  0.00180300  0.33064100  0.49889900  1
  O  O1  1  0.66814900  0.99708300  0.83421300  1
  O  O2  1  0.33489100  0.66330400  0.16896800  1
  O  O3  1  0.11209300  0.11209300  0.71785700  1
  O  O4  1  0.77796400  0.77796400  0.05320200  1
  O  O5  1  0.44400100  0.44400100  0.38793500  1
  O  O6  1  0.33064100  0.00180300  0.49889900  1
  O  O7  1  0.99708300  0.66814900  0.83421300  1
  O  O8  1  0.66330400  0.33489100  0.16896800  1
  O  O9  1  0.99819700  0.66935900  0.50110100  1
  O  O10  1  0.66510900  0.33669600  0.83103200  1
  O  O11  1  0.33185100  0.00291700  0.16578700  1
  O  O12  1  0.88790700  0.88790700  0.28214300  1
  O  O13  1  0.55599900  0.55599900  0.61206500  1
  O  O14  1  0.22203600  0.22203600  0.94679800  1
  O  O15  1  0.66935900  0.99819700  0.50110100  1
  O  O16  1  0.33669600  0.66510900  0.83103200  1
  O  O17  1  0.00291700  0.33185100  0.16578700  1
  O  O18  1  0.74458600  0.36601600  0.37249800  1
  O  O19  1  0.41144100  0.03256600  0.70586900  1
  O  O20  1  0.07964100  0.69585300  0.03920300  1
  O  O21  1  0.95061700  0.95061700  0.78203100  1
  O  O22  1  0.61821300  0.61821300  0.12034700  1
  O  O23  1  0.28559700  0.28559700  0.45260300  1
  O  O24  1  0.36601600  0.74458600  0.37249800  1
  O  O25  1  0.03256600  0.41144100  0.70586900  1
  O  O26  1  0.69585300  0.07964100  0.03920300  1
  O  O27  1  0.25541400  0.63398400  0.62750200  1
  O  O28  1  0.92035900  0.30414700  0.96079700  1
  O  O29  1  0.58855900  0.96743400  0.29413100  1
  O  O30  1  0.04938300  0.04938300  0.21796900  1
  O  O31  1  0.71440300  0.71440300  0.54739700  1
  O  O32  1  0.38178700  0.38178700  0.87965300  1
  O  O33  1  0.63398400  0.25541400  0.62750200  1
  O  O34  1  0.30414700  0.92035900  0.96079700  1
  O  O35  1  0.96743400  0.58855900  0.29413100  1
  O  O36  1  0.07192600  0.07192600  0.53543700  1
  O  O37  1  0.73842900  0.73842900  0.86924500  1
  O  O38  1  0.40514800  0.40514800  0.20311500  1
  O  O39  1  0.92807400  0.92807400  0.46456300  1
  O  O40  1  0.59485200  0.59485200  0.79688500  1
  O  O41  1  0.26157100  0.26157100  0.13075500  1
  O  O42  1  0.00000000  0.00000000  0.00000000  1
loop_
_geom_bond_atom_site_label_1
_geom_bond_atom_site_label_2
_geom_bond_distance
_geom_bond_site_symmetry_2
K0 O32 2.851536 1_555
K0 O25 2.855101 1_555
K0 O19 2.855101 1_555
K0 O27 2.860299 1_555
K0 O33 2.860299 1_555
K0 O23 2.862086 1_555
K0 O14 3.028137 1_555
K0 O9 3.029252 1_455
K0 O15 3.029252 1_545
K0 O7 3.029493 1_455
K0 O1 3.029493 1_545
K0 O5 3.030723 1_555
K1 O22 2.851536 1_555
K1 O29 2.855101 1_555
K1 O35 2.855101 1_555
K1 O24 2.860299 1_555
K1 O18 2.860299 1_555
K1 O31 2.862086 1_555
K1 O4 3.028137 1_555
K1 O6 3.029252 1_565
K1 O0 3.029252 1_655
K1 O17 3.029493 1_655
K1 O11 3.029493 1_565
K1 O13 3.030723 1_555
Fe0 O30 1.997339 1_565
Fe0 O34 1.997463 1_554
Fe0 O22 2.023611 1_555
Fe0 O24 2.028153 1_555
Fe0 O2 2.052624 1_555
Fe0 O11 2.095413 1_565
Fe1 O25 2.015576 1_555
Fe1 O35 2.015576 1_455
Fe1 O31 2.017125 1_455
Fe1 O23 2.017125 1_555
Fe1 O9 2.076058 1_455
Fe1 O0 2.076058 1_555
Fe2 O21 1.997339 1_545
Fe2 O26 1.997463 1_556
Fe2 O32 2.023611 1_555
Fe2 O33 2.028153 1_555
Fe2 O10 2.052624 1_555
Fe2 O1 2.095413 1_545
Fe3 O24 2.012128 1_555
Fe3 O18 2.012128 1_555
Fe3 O27 2.012128 1_555
Fe3 O33 2.012128 1_555
Fe3 O13 2.073759 1_555
Fe3 O5 2.073759 1_555
Fe4 O34 2.004219 1_545
Fe4 O28 2.004219 1_455
Fe4 O25 2.027242 1_555
Fe4 O19 2.027242 1_555
Fe4 O3 2.051205 1_555
Fe4 O14 2.096066 1_555
Fe5 O20 2.004219 1_655
Fe5 O26 2.004219 1_565
Fe5 O35 2.027242 1_555
Fe5 O29 2.027242 1_555
Fe5 O12 2.051205 1_555
Fe5 O4 2.096066 1_555
Fe6 O21 1.997339 1_455
Fe6 O20 1.997463 1_556
Fe6 O32 2.023611 1_555
Fe6 O27 2.028153 1_555
Fe6 O16 2.052624 1_555
Fe6 O7 2.095413 1_455
Fe7 O30 1.997339 1_655
Fe7 O28 1.997463 1_554
Fe7 O22 2.023611 1_555
Fe7 O18 2.028153 1_555
Fe7 O8 2.052624 1_555
Fe7 O17 2.095413 1_655
Fe8 O19 2.015576 1_555
Fe8 O29 2.015576 1_545
Fe8 O31 2.017125 1_545
Fe8 O23 2.017125 1_555
Fe8 O15 2.076058 1_545
Fe8 O6 2.076058 1_555
H0 O18 0.984614 1_555
H1 O19 0.984131 1_565
H2 O20 0.983964 1_555
H3 O21 0.983481 1_555
H4 O22 0.984582 1_555
H5 O23 0.984434 1_555
H6 O24 0.984614 1_555
H7 O25 0.984131 1_655
H8 O26 0.983964 1_555
H9 O27 0.984614 1_555
H10 O28 0.983964 1_555
H11 O29 0.984131 1_545
H12 O30 0.983481 1_555
H13 O31 0.984434 1_555
H14 O32 0.984582 1_555
H15 O33 0.984614 1_555
H16 O34 0.983964 1_555
H17 O35 0.984131 1_455
O0 S0 1.499138 1_555
O1 S1 1.497954 1_555
O2 S2 1.494082 1_555
O3 S0 1.490401 1_555
O4 S1 1.497742 1_554
O5 S2 1.501142 1_555
O6 S0 1.499138 1_555
O7 S1 1.497954 1_555
O8 S2 1.494082 1_555
O9 S3 1.499138 1_555
O10 S4 1.494082 1_555
O11 S5 1.497954 1_555
O12 S3 1.490401 1_555
O13 S4 1.501142 1_555
O14 S5 1.497742 1_556
O15 S3 1.499138 1_555
O16 S4 1.494082 1_555
O17 S5 1.497954 1_555
O36 S0 1.474386 1_555
O37 S1 1.474483 1_555
O38 S2 1.473468 1_555
O39 S3 1.474386 1_555
O40 S4 1.473468 1_555
O41 S5 1.474483 1_555
