# generated using pymatgen
data_YMg14ZnO16
_symmetry_space_group_name_H-M   'P 1'
_cell_length_a   4.34959400
_cell_length_b   8.70638800
_cell_length_c   8.77458100
_cell_angle_alpha   90.00000000
_cell_angle_beta   90.00000000
_cell_angle_gamma   90.00000000
_symmetry_Int_Tables_number   1
_chemical_formula_structural   YMg14ZnO16
_chemical_formula_sum   'Y1 Mg14 Zn1 O16'
_cell_volume   332.28682791
_cell_formula_units_Z   1
loop_
 _symmetry_equiv_pos_site_id
 _symmetry_equiv_pos_as_xyz
  1  'x, y, z'
loop_
 _atom_site_type_symbol
 _atom_site_label
 _atom_site_symmetry_multiplicity
 _atom_site_fract_x
 _atom_site_fract_y
 _atom_site_fract_z
 _atom_site_occupancy
  Y  Y0  1  0.00000000  0.00000000  0.00000000  1
  Mg  Mg0  1  0.00000000  0.50000000  0.00000000  1
  Mg  Mg1  1  0.00000000  0.50000000  0.50000000  1
  Mg  Mg2  1  0.50000000  0.00000000  0.26518800  1
  Mg  Mg3  1  0.50000000  0.00000000  0.73481200  1
  Mg  Mg4  1  0.50000000  0.50000000  0.25342600  1
  Mg  Mg5  1  0.50000000  0.50000000  0.74657400  1
  Mg  Mg6  1  0.50000000  0.26311300  0.00000000  1
  Mg  Mg7  1  0.50000000  0.25230200  0.50000000  1
  Mg  Mg8  1  0.50000000  0.73688700  0.00000000  1
  Mg  Mg9  1  0.50000000  0.74769800  0.50000000  1
  Mg  Mg10  1  0.00000000  0.25672800  0.25960800  1
  Mg  Mg11  1  0.00000000  0.25672800  0.74039200  1
  Mg  Mg12  1  0.00000000  0.74327200  0.25960800  1
  Mg  Mg13  1  0.00000000  0.74327200  0.74039200  1
  Zn  Zn0  1  0.00000000  0.00000000  0.50000000  1
  O  O0  1  0.00000000  0.25994800  0.00000000  1
  O  O1  1  0.00000000  0.26618900  0.50000000  1
  O  O2  1  0.00000000  0.74005200  0.00000000  1
  O  O3  1  0.00000000  0.73381100  0.50000000  1
  O  O4  1  0.50000000  0.25049400  0.24814300  1
  O  O5  1  0.50000000  0.25049400  0.75185700  1
  O  O6  1  0.50000000  0.74950600  0.24814300  1
  O  O7  1  0.50000000  0.74950600  0.75185700  1
  O  O8  1  0.50000000  0.00000000  0.00000000  1
  O  O9  1  0.50000000  0.00000000  0.50000000  1
  O  O10  1  0.50000000  0.50000000  0.00000000  1
  O  O11  1  0.50000000  0.50000000  0.50000000  1
  O  O12  1  0.00000000  0.00000000  0.25051300  1
  O  O13  1  0.00000000  0.00000000  0.74948700  1
  O  O14  1  0.00000000  0.50000000  0.24770900  1
  O  O15  1  0.00000000  0.50000000  0.75229100  1
loop_
_geom_bond_atom_site_label_1
_geom_bond_atom_site_label_2
_geom_bond_distance
_geom_bond_site_symmetry_2
Mg0 O0 2.089986 1_555
Mg0 O2 2.089986 1_555
Mg0 O15 2.173543 1_554
Mg0 O14 2.173543 1_555
Mg0 O10 2.174797 1_555
Mg0 O10 2.174797 1_455
Mg1 O3 2.035649 1_555
Mg1 O1 2.035649 1_555
Mg1 O11 2.174797 1_455
Mg1 O11 2.174797 1_555
Mg1 O14 2.213748 1_555
Mg1 O15 2.213748 1_555
Mg2 O9 2.060377 1_555
Mg2 O12 2.178606 1_655
Mg2 O12 2.178606 1_555
Mg2 O4 2.186020 1_555
Mg2 O6 2.186020 1_545
Mg2 O8 2.326914 1_555
Mg3 O9 2.060377 1_555
Mg3 O13 2.178606 1_655
Mg3 O13 2.178606 1_555
Mg3 O7 2.186020 1_545
Mg3 O5 2.186020 1_555
Mg3 O8 2.326914 1_556
Mg4 O11 2.163584 1_555
Mg4 O4 2.172791 1_555
Mg4 O6 2.172791 1_555
Mg4 O14 2.175375 1_555
Mg4 O14 2.175375 1_655
Mg4 O10 2.223707 1_555
Mg5 O11 2.163584 1_555
Mg5 O5 2.172791 1_555
Mg5 O7 2.172791 1_555
Mg5 O15 2.175375 1_555
Mg5 O15 2.175375 1_655
Mg5 O10 2.223707 1_556
Mg6 O10 2.062430 1_555
Mg6 O0 2.174972 1_555
Mg6 O0 2.174972 1_655
Mg6 O5 2.180121 1_554
Mg6 O4 2.180121 1_555
Mg6 O8 2.290764 1_555
Mg7 O11 2.156555 1_555
Mg7 O1 2.178155 1_655
Mg7 O1 2.178155 1_555
Mg7 O9 2.196639 1_555
Mg7 O5 2.209996 1_555
Mg7 O4 2.209996 1_555
Mg8 O10 2.062430 1_555
Mg8 O2 2.174972 1_655
Mg8 O2 2.174972 1_555
Mg8 O6 2.180121 1_555
Mg8 O7 2.180121 1_554
Mg8 O8 2.290764 1_565
Mg9 O11 2.156555 1_555
Mg9 O3 2.178155 1_655
Mg9 O3 2.178155 1_555
Mg9 O9 2.196639 1_565
Mg9 O7 2.209996 1_555
Mg9 O6 2.209996 1_555
Mg10 O1 2.110947 1_555
Mg10 O14 2.120592 1_555
Mg10 O4 2.177799 1_455
Mg10 O4 2.177799 1_555
Mg10 O12 2.236598 1_555
Mg10 O0 2.278124 1_555
Mg11 O1 2.110947 1_555
Mg11 O15 2.120592 1_555
Mg11 O5 2.177799 1_455
Mg11 O5 2.177799 1_555
Mg11 O13 2.236598 1_555
Mg11 O0 2.278124 1_556
Mg12 O3 2.110947 1_555
Mg12 O14 2.120592 1_555
Mg12 O6 2.177799 1_555
Mg12 O6 2.177799 1_455
Mg12 O12 2.236598 1_565
Mg12 O2 2.278124 1_555
Mg13 O3 2.110947 1_555
Mg13 O15 2.120592 1_555
Mg13 O7 2.177799 1_555
Mg13 O7 2.177799 1_455
Mg13 O13 2.236598 1_565
Mg13 O2 2.278124 1_556
O0 Y0 2.263208 1_555
O1 Zn0 2.317545 1_555
O2 Y0 2.263208 1_565
O3 Zn0 2.317545 1_565
O8 Y0 2.174797 1_655
O8 Y0 2.174797 1_555
O9 Zn0 2.174797 1_555
O9 Zn0 2.174797 1_655
O12 Zn0 2.189144 1_555
O12 Y0 2.198147 1_555
O13 Zn0 2.189144 1_555
O13 Y0 2.198147 1_556
