# generated using pymatgen
data_CoNi2(PO4)2
_symmetry_space_group_name_H-M   'P 1'
_cell_length_a   4.75972049
_cell_length_b   5.95033728
_cell_length_c   10.29315462
_cell_angle_alpha   90.72384668
_cell_angle_beta   89.89584282
_cell_angle_gamma   90.04754612
_symmetry_Int_Tables_number   1
_chemical_formula_structural   CoNi2(PO4)2
_chemical_formula_sum   'Co2 Ni4 P4 O16'
_cell_volume   291.49829066
_cell_formula_units_Z   2
loop_
 _symmetry_equiv_pos_site_id
 _symmetry_equiv_pos_as_xyz
  1  'x, y, z'
loop_
 _atom_site_type_symbol
 _atom_site_label
 _atom_site_symmetry_multiplicity
 _atom_site_fract_x
 _atom_site_fract_y
 _atom_site_fract_z
 _atom_site_occupancy
  Co  Co0  1  0.51231200  0.23863400  0.77881300  1
  Co  Co1  1  0.01329200  0.75926500  0.72043600  1
  Ni  Ni0  1  0.50020700  0.49950200  0.49915700  1
  Ni  Ni1  1  0.00089100  0.50078500  0.00067700  1
  Ni  Ni2  1  0.48848200  0.75878200  0.22439200  1
  Ni  Ni3  1  0.98878000  0.24137300  0.27530600  1
  P  P0  1  0.07454400  0.25570500  0.59477700  1
  P  P1  1  0.57601600  0.74424500  0.90588300  1
  P  P2  1  0.92426900  0.74553300  0.40186600  1
  P  P3  1  0.42457800  0.25472300  0.09761700  1
  O  O0  1  0.22905900  0.46769600  0.66118400  1
  O  O1  1  0.73218700  0.53284700  0.83974700  1
  O  O2  1  0.76711600  0.53294400  0.33694500  1
  O  O3  1  0.26678500  0.46681400  0.16296400  1
  O  O4  1  0.30865200  0.25838800  0.95646800  1
  O  O5  1  0.80803300  0.74258500  0.54304300  1
  O  O6  1  0.69098000  0.74113300  0.04721800  1
  O  O7  1  0.19069400  0.25880000  0.45343700  1
  O  O8  1  0.19376400  0.05769000  0.67342700  1
  O  O9  1  0.69562500  0.94268000  0.82763100  1
  O  O10  1  0.80691600  0.94373800  0.32293200  1
  O  O11  1  0.30641500  0.05616800  0.17642600  1
  O  O12  1  0.75207700  0.27118600  0.60133600  1
  O  O13  1  0.25413900  0.72858500  0.89858400  1
  O  O14  1  0.24705600  0.72909200  0.39640800  1
  O  O15  1  0.74712900  0.27110600  0.10332400  1
loop_
_geom_bond_atom_site_label_1
_geom_bond_atom_site_label_2
_geom_bond_distance
_geom_bond_site_symmetry_2
Co0 O9 2.035068 1_545
Co0 O4 2.070190 1_555
Co0 O1 2.127222 1_555
Co0 O8 2.146753 1_555
Co0 O12 2.162885 1_555
Co0 O0 2.278611 1_555
Co1 O8 2.035408 1_565
Co1 O5 2.073671 1_455
Co1 O0 2.100147 1_555
Co1 O9 2.158925 1_455
Co1 O13 2.174029 1_555
Co1 O1 2.268556 1_455
Ni0 O7 2.103598 1_555
Ni0 O5 2.103638 1_555
Ni0 O12 2.105333 1_555
Ni0 O2 2.107514 1_555
Ni0 O14 2.116742 1_555
Ni0 O0 2.117223 1_555
Ni1 O4 2.101840 1_554
Ni1 O13 2.103161 1_554
Ni1 O1 2.105264 1_454
Ni1 O6 2.105787 1_455
Ni1 O3 2.109404 1_555
Ni1 O15 2.114728 1_455
Ni2 O11 2.037697 1_565
Ni2 O6 2.062704 1_555
Ni2 O14 2.118215 1_555
Ni2 O3 2.122059 1_555
Ni2 O10 2.124105 1_555
Ni2 O2 2.225927 1_555
Ni3 O10 2.035684 1_545
Ni3 O7 2.073077 1_655
Ni3 O2 2.120971 1_555
Ni3 O15 2.122177 1_555
Ni3 O11 2.122475 1_655
Ni3 O3 2.217713 1_655
O0 P0 1.605548 1_555
O1 P1 1.605092 1_555
O2 P2 1.607828 1_555
O3 P3 1.608561 1_555
O4 P3 1.555472 1_556
O5 P2 1.554273 1_555
O6 P1 1.555555 1_554
O7 P0 1.555716 1_555
O8 P0 1.546788 1_555
O9 P1 1.545414 1_555
O10 P2 1.545972 1_555
O11 P3 1.546505 1_555
O12 P0 1.538999 1_655
O13 P1 1.536715 1_555
O14 P2 1.540446 1_455
O15 P3 1.539444 1_555
