# generated using pymatgen
data_HfMg14SnO16
_symmetry_space_group_name_H-M   'P 1'
_cell_length_a   8.80029624
_cell_length_b   8.84934384
_cell_length_c   4.41805673
_cell_angle_alpha   90.00000000
_cell_angle_beta   90.00000000
_cell_angle_gamma   90.00000000
_symmetry_Int_Tables_number   1
_chemical_formula_structural   HfMg14SnO16
_chemical_formula_sum   'Hf1 Mg14 Sn1 O16'
_cell_volume   344.06432942
_cell_formula_units_Z   1
loop_
 _symmetry_equiv_pos_site_id
 _symmetry_equiv_pos_as_xyz
  1  'x, y, z'
loop_
 _atom_site_type_symbol
 _atom_site_label
 _atom_site_symmetry_multiplicity
 _atom_site_fract_x
 _atom_site_fract_y
 _atom_site_fract_z
 _atom_site_occupancy
  Hf  Hf0  1  0.00000000  0.50000000  0.00000000  1
  Mg  Mg0  1  0.50000000  -0.00000000  0.00000000  1
  Mg  Mg1  1  0.50000000  0.50000000  0.00000000  1
  Mg  Mg2  1  0.00000000  0.24996512  0.50000000  1
  Mg  Mg3  1  0.00000000  0.75003488  0.50000000  1
  Mg  Mg4  1  0.50000000  0.25003115  0.50000000  1
  Mg  Mg5  1  0.50000000  0.74996885  0.50000000  1
  Mg  Mg6  1  0.26126712  -0.00000000  0.50000000  1
  Mg  Mg7  1  0.25811905  0.50000000  0.50000000  1
  Mg  Mg8  1  0.73873288  -0.00000000  0.50000000  1
  Mg  Mg9  1  0.74188095  0.50000000  0.50000000  1
  Mg  Mg10  1  0.26143843  0.24820869  0.00000000  1
  Mg  Mg11  1  0.26143843  0.75179131  0.00000000  1
  Mg  Mg12  1  0.73856157  0.24820869  -0.00000000  1
  Mg  Mg13  1  0.73856157  0.75179131  -0.00000000  1
  Sn  Sn0  1  0.00000000  -0.00000000  0.00000000  1
  O  O0  1  0.27456909  -0.00000000  0.00000000  1
  O  O1  1  0.25500562  0.50000000  0.00000000  1
  O  O2  1  0.72543091  -0.00000000  -0.00000000  1
  O  O3  1  0.74499438  0.50000000  0.00000000  1
  O  O4  1  0.24861357  0.24849458  0.50000000  1
  O  O5  1  0.24861357  0.75150542  0.50000000  1
  O  O6  1  0.75138643  0.24849458  0.50000000  1
  O  O7  1  0.75138643  0.75150542  0.50000000  1
  O  O8  1  0.00000000  -0.00000000  0.50000000  1
  O  O9  1  0.00000000  0.50000000  0.50000000  1
  O  O10  1  0.50000000  -0.00000000  0.50000000  1
  O  O11  1  0.50000000  0.50000000  0.50000000  1
  O  O12  1  0.00000000  0.26613533  0.00000000  1
  O  O13  1  0.00000000  0.73386467  0.00000000  1
  O  O14  1  0.50000000  0.25473375  -0.00000000  1
  O  O15  1  0.50000000  0.74526625  0.00000000  1
loop_
_geom_bond_atom_site_label_1
_geom_bond_atom_site_label_2
_geom_bond_distance
_geom_bond_site_symmetry_2
Hf0 O12 2.069549 1_555
Hf0 O13 2.069549 1_555
Hf0 O9 2.209028 1_555
Hf0 O9 2.209028 1_554
Hf0 O1 2.244125 1_555
Hf0 O3 2.244125 1_455
Mg0 O0 1.983859 1_555
Mg0 O2 1.983859 1_555
Mg0 O10 2.209028 1_555
Mg0 O10 2.209028 1_554
Mg0 O15 2.254227 1_545
Mg0 O14 2.254227 1_555
Mg1 O3 2.156023 1_555
Mg1 O1 2.156023 1_555
Mg1 O14 2.170445 1_555
Mg1 O15 2.170445 1_555
Mg1 O11 2.209028 1_554
Mg1 O11 2.209028 1_555
Mg2 O6 2.187912 1_455
Mg2 O4 2.187912 1_555
Mg2 O8 2.212027 1_555
Mg2 O9 2.212645 1_555
Mg2 O12 2.213658 1_555
Mg2 O12 2.213658 1_556
Mg3 O7 2.187912 1_455
Mg3 O5 2.187912 1_555
Mg3 O8 2.212027 1_565
Mg3 O9 2.212645 1_555
Mg3 O13 2.213658 1_555
Mg3 O13 2.213658 1_556
Mg4 O14 2.209420 1_556
Mg4 O14 2.209420 1_555
Mg4 O11 2.212060 1_555
Mg4 O4 2.212317 1_555
Mg4 O6 2.212317 1_555
Mg4 O10 2.212612 1_555
Mg5 O15 2.209420 1_556
Mg5 O15 2.209420 1_555
Mg5 O11 2.212060 1_555
Mg5 O5 2.212317 1_555
Mg5 O7 2.212317 1_555
Mg5 O10 2.212612 1_565
Mg6 O10 2.100920 1_555
Mg6 O4 2.201832 1_555
Mg6 O5 2.201832 1_545
Mg6 O0 2.212128 1_555
Mg6 O0 2.212128 1_556
Mg6 O8 2.299228 1_555
Mg7 O11 2.128624 1_555
Mg7 O1 2.209198 1_556
Mg7 O1 2.209198 1_555
Mg7 O4 2.227229 1_555
Mg7 O5 2.227229 1_555
Mg7 O9 2.271524 1_555
Mg8 O10 2.100920 1_555
Mg8 O6 2.201832 1_555
Mg8 O7 2.201832 1_545
Mg8 O2 2.212128 1_556
Mg8 O2 2.212128 1_555
Mg8 O8 2.299228 1_655
Mg9 O11 2.128624 1_555
Mg9 O3 2.209198 1_556
Mg9 O3 2.209198 1_555
Mg9 O6 2.227229 1_555
Mg9 O7 2.227229 1_555
Mg9 O9 2.271524 1_655
Mg10 O14 2.100206 1_555
Mg10 O0 2.199521 1_555
Mg10 O4 2.211911 1_554
Mg10 O4 2.211911 1_555
Mg10 O1 2.228907 1_555
Mg10 O12 2.306198 1_555
Mg11 O15 2.100206 1_555
Mg11 O0 2.199521 1_565
Mg11 O5 2.211911 1_554
Mg11 O5 2.211911 1_555
Mg11 O1 2.228907 1_555
Mg11 O13 2.306198 1_555
Mg12 O14 2.100206 1_555
Mg12 O2 2.199521 1_555
Mg12 O6 2.211911 1_555
Mg12 O6 2.211911 1_554
Mg12 O3 2.228907 1_555
Mg12 O12 2.306198 1_655
Mg13 O15 2.100206 1_555
Mg13 O2 2.199521 1_565
Mg13 O7 2.211911 1_555
Mg13 O7 2.211911 1_554
Mg13 O3 2.228907 1_555
Mg13 O13 2.306198 1_655
O0 Sn0 2.416289 1_555
O2 Sn0 2.416289 1_655
O8 Sn0 2.209028 1_556
O8 Sn0 2.209028 1_555
O12 Sn0 2.355123 1_555
O13 Sn0 2.355123 1_565
