# generated using pymatgen
data_Dy2Al3Fe14
_symmetry_space_group_name_H-M   'P 1'
_cell_length_a   6.44061243
_cell_length_b   6.44061243
_cell_length_c   6.44061272
_cell_angle_alpha   82.36081650
_cell_angle_beta   82.36081650
_cell_angle_gamma   82.36081105
_symmetry_Int_Tables_number   1
_chemical_formula_structural   Dy2Al3Fe14
_chemical_formula_sum   'Dy2 Al3 Fe14'
_cell_volume   260.63206391
_cell_formula_units_Z   1
loop_
 _symmetry_equiv_pos_site_id
 _symmetry_equiv_pos_as_xyz
  1  'x, y, z'
loop_
 _atom_site_type_symbol
 _atom_site_label
 _atom_site_symmetry_multiplicity
 _atom_site_fract_x
 _atom_site_fract_y
 _atom_site_fract_z
 _atom_site_occupancy
  Dy  Dy0  1  0.65870000  0.65870000  0.65870000  1
  Dy  Dy1  1  0.34130000  0.34130000  0.34130000  1
  Al  Al0  1  0.00000000  0.00000000  0.50000000  1
  Al  Al1  1  0.00000000  0.50000000  0.00000000  1
  Al  Al2  1  0.50000000  0.00000000  0.00000000  1
  Fe  Fe0  1  0.29419700  0.70580300  0.00000000  1
  Fe  Fe1  1  0.70580300  0.00000000  0.29419700  1
  Fe  Fe2  1  0.00000000  0.29419700  0.70580300  1
  Fe  Fe3  1  0.29419700  0.00000000  0.70580300  1
  Fe  Fe4  1  0.00000000  0.70580300  0.29419700  1
  Fe  Fe5  1  0.70580300  0.29419700  0.00000000  1
  Fe  Fe6  1  0.34205400  0.34205400  0.83622600  1
  Fe  Fe7  1  0.34205400  0.83622600  0.34205400  1
  Fe  Fe8  1  0.83622600  0.34205400  0.34205400  1
  Fe  Fe9  1  0.65794600  0.65794600  0.16377400  1
  Fe  Fe10  1  0.65794600  0.16377400  0.65794600  1
  Fe  Fe11  1  0.16377400  0.65794600  0.65794600  1
  Fe  Fe12  1  0.90790900  0.90790900  0.90790900  1
  Fe  Fe13  1  0.09209100  0.09209100  0.09209100  1
loop_
_geom_bond_atom_site_label_1
_geom_bond_atom_site_label_2
_geom_bond_distance
_geom_bond_site_symmetry_2
Dy0 Fe3 3.008537 1_565
Dy0 Fe2 3.008537 1_655
Dy0 Fe0 3.008538 1_556
Dy0 Fe5 3.008538 1_556
Dy0 Fe4 3.008538 1_655
Dy0 Fe1 3.008538 1_565
Dy0 Fe8 3.080819 1_555
Dy0 Fe7 3.080819 1_555
Dy0 Fe6 3.080819 1_555
Dy0 Fe12 3.127849 1_555
Dy0 Fe10 3.188926 1_555
Dy0 Fe11 3.188926 1_555
Dy0 Fe9 3.188926 1_555
Dy0 Fe11 3.251703 1_655
Dy0 Fe10 3.251703 1_565
Dy0 Fe9 3.251703 1_556
Dy1 Fe1 3.008537 1_555
Dy1 Fe4 3.008537 1_555
Dy1 Fe0 3.008538 1_555
Dy1 Fe5 3.008538 1_555
Dy1 Fe2 3.008538 1_555
Dy1 Fe3 3.008538 1_555
Dy1 Fe10 3.080819 1_555
Dy1 Fe11 3.080819 1_555
Dy1 Fe9 3.080819 1_555
Dy1 Fe13 3.127849 1_555
Dy1 Fe7 3.188926 1_555
Dy1 Fe8 3.188926 1_555
Dy1 Fe6 3.188926 1_555
Dy1 Fe8 3.251703 1_455
Dy1 Fe7 3.251703 1_545
Dy1 Fe6 3.251703 1_554
Al0 Fe2 2.452548 1_555
Al0 Fe3 2.452548 1_555
Al0 Fe4 2.452548 1_545
Al0 Fe1 2.452548 1_455
Al0 Fe10 2.464235 1_455
Al0 Fe8 2.464235 1_455
Al0 Fe7 2.464235 1_545
Al0 Fe11 2.464235 1_545
Al0 Fe12 2.621191 1_445
Al0 Fe13 2.621191 1_555
Al0 Dy1 3.286138 1_555
Al0 Dy0 3.286138 1_445
Al1 Fe4 2.452548 1_555
Al1 Fe2 2.452548 1_554
Al1 Fe0 2.452548 1_555
Al1 Fe5 2.452548 1_455
Al1 Fe9 2.464235 1_455
Al1 Fe6 2.464235 1_554
Al1 Fe8 2.464235 1_455
Al1 Fe11 2.464235 1_554
Al1 Fe13 2.621190 1_555
Al1 Fe12 2.621190 1_454
Al1 Dy1 3.286138 1_555
Al1 Dy0 3.286138 1_454
Al2 Fe1 2.452548 1_555
Al2 Fe3 2.452548 1_554
Al2 Fe5 2.452548 1_555
Al2 Fe0 2.452548 1_545
Al2 Fe9 2.464235 1_545
Al2 Fe6 2.464235 1_554
Al2 Fe7 2.464235 1_545
Al2 Fe10 2.464235 1_554
Al2 Fe13 2.621190 1_555
Al2 Fe12 2.621190 1_544
Al2 Dy1 3.286138 1_555
Al2 Dy0 3.286138 1_544
Fe0 Fe4 2.495206 1_555
Fe0 Fe3 2.495206 1_564
Fe0 Fe11 2.528905 1_554
Fe0 Fe7 2.528905 1_555
Fe0 Fe6 2.659840 1_554
Fe0 Fe9 2.659840 1_555
Fe0 Fe13 2.749914 1_565
Fe0 Fe12 2.749914 1_454
Fe1 Fe4 2.495206 1_645
Fe1 Fe5 2.495206 1_555
Fe1 Fe9 2.528905 1_545
Fe1 Fe8 2.528905 1_555
Fe1 Fe10 2.659841 1_555
Fe1 Fe7 2.659841 1_545
Fe1 Fe13 2.749914 1_655
Fe1 Fe12 2.749914 1_544
Fe2 Fe3 2.495206 1_555
Fe2 Fe5 2.495206 1_456
Fe2 Fe6 2.528905 1_555
Fe2 Fe8 2.659841 1_455
Fe3 Fe6 2.528905 1_555
Fe3 Fe7 2.659841 1_545
Fe4 Fe9 2.528905 1_455
Fe4 Fe7 2.528905 1_555
Fe4 Fe8 2.659841 1_455
Fe5 Fe8 2.528905 1_555
Fe5 Fe6 2.659840 1_554
Fe5 Fe9 2.659840 1_555
Fe7 Fe9 2.425809 1_555
Fe8 Fe9 2.425809 1_555
Fe10 Fe6 2.425809 1_555
Fe10 Fe8 2.425809 1_555
Fe10 Fe2 2.528905 1_655
Fe10 Fe5 2.528905 1_556
Fe10 Fe3 2.659841 1_555
Fe10 Fe12 2.679121 1_545
Fe11 Fe6 2.425809 1_555
Fe11 Fe7 2.425809 1_555
Fe11 Fe3 2.528905 1_565
Fe11 Fe4 2.659841 1_555
Fe11 Fe2 2.659841 1_555
Fe11 Fe12 2.679121 1_455
Fe12 Fe13 2.311688 1_666
Fe12 Fe9 2.679121 1_556
Fe12 Fe5 2.749914 1_566
Fe12 Fe2 2.749914 1_665
Fe12 Fe3 2.749914 1_665
Fe12 Fe4 2.749914 1_656
Fe13 Fe7 2.679121 1_545
Fe13 Fe8 2.679121 1_455
Fe13 Fe6 2.679121 1_554
Fe13 Fe5 2.749914 1_455
Fe13 Fe2 2.749914 1_554
Fe13 Fe4 2.749914 1_545
Fe13 Fe3 2.749914 1_554
