# generated using pymatgen
data_Ca2Mn2O5
_symmetry_space_group_name_H-M   'P 1'
_cell_length_a   5.60754165
_cell_length_b   7.64804302
_cell_length_c   11.02389049
_cell_angle_alpha   90.36990418
_cell_angle_beta   91.78926887
_cell_angle_gamma   89.92468740
_symmetry_Int_Tables_number   1
_chemical_formula_structural   Ca2Mn2O5
_chemical_formula_sum   'Ca8 Mn8 O20'
_cell_volume   472.53784724
_cell_formula_units_Z   4
loop_
 _symmetry_equiv_pos_site_id
 _symmetry_equiv_pos_as_xyz
  1  'x, y, z'
loop_
 _atom_site_type_symbol
 _atom_site_label
 _atom_site_symmetry_multiplicity
 _atom_site_fract_x
 _atom_site_fract_y
 _atom_site_fract_z
 _atom_site_occupancy
  Ca  Ca0  1  0.96716400  0.77669900  0.00059800  1
  Ca  Ca1  1  0.04764100  0.74458100  0.45765300  1
  Ca  Ca2  1  0.03604300  0.25495200  0.48110600  1
  Ca  Ca3  1  0.97940500  0.23397500  0.04011900  1
  Ca  Ca4  1  0.46090700  0.21021200  0.75791100  1
  Ca  Ca5  1  0.47871400  0.24963600  0.24199600  1
  Ca  Ca6  1  0.50801300  0.75785600  0.77329600  1
  Ca  Ca7  1  0.49208200  0.75514700  0.21820000  1
  Mn  Mn0  1  0.47853100  0.00902400  0.00428800  1
  Mn  Mn1  1  0.54357200  0.01972200  0.49416200  1
  Mn  Mn2  1  0.95939900  0.99650500  0.75748600  1
  Mn  Mn3  1  0.00223500  0.99599600  0.25377600  1
  Mn  Mn4  1  0.08151400  0.50813000  0.73134400  1
  Mn  Mn5  1  0.99177100  0.50717300  0.24331000  1
  Mn  Mn6  1  0.47066500  0.49345200  0.00543700  1
  Mn  Mn7  1  0.50815300  0.50769000  0.48672800  1
  O  O0  1  0.82380900  0.49405200  0.41432600  1
  O  O1  1  0.29833800  0.62636300  0.60189800  1
  O  O2  1  0.15337100  0.53229800  0.09090500  1
  O  O3  1  0.39406500  0.48493700  0.83620100  1
  O  O4  1  0.29074100  0.54582100  0.33956400  1
  O  O5  1  0.69372600  0.45915300  0.14580500  1
  O  O6  1  0.67122800  0.98002300  0.65198400  1
  O  O7  1  0.70013900  0.03176200  0.14404300  1
  O  O8  1  0.25973900  0.98137100  0.84985000  1
  O  O9  1  0.31975100  0.95414700  0.37003200  1
  O  O10  1  0.20489500  0.96470700  0.11176700  1
  O  O11  1  0.74350200  0.05993700  0.90116400  1
  O  O12  1  0.83880300  0.01048200  0.40810000  1
  O  O13  1  0.39275900  0.24864600  0.01991000  1
  O  O14  1  0.44235100  0.25482700  0.52600500  1
  O  O15  1  0.54935600  0.74644200  0.99805200  1
  O  O16  1  0.92244600  0.73314500  0.78412800  1
  O  O17  1  0.91409800  0.75035300  0.24760000  1
  O  O18  1  0.03438600  0.24001700  0.70011300  1
  O  O19  1  0.06295700  0.25102100  0.25590400  1
loop_
_geom_bond_atom_site_label_1
_geom_bond_atom_site_label_2
_geom_bond_distance
_geom_bond_site_symmetry_2
Ca0 O10 2.286221 1_655
Ca0 O2 2.351429 1_655
Ca0 O15 2.353856 1_554
Ca0 O16 2.412685 1_554
Ca0 O11 2.721159 1_564
Ca0 O17 2.757045 1_555
Ca0 O8 2.848547 1_654
Ca0 O7 2.940809 1_565
Ca1 O1 2.279889 1_555
Ca1 O0 2.330637 1_455
Ca1 O12 2.402824 1_465
Ca1 O17 2.411986 1_455
Ca1 O4 2.437946 1_555
Ca1 O9 2.438978 1_555
Ca2 O0 2.293298 1_455
Ca2 O12 2.301584 1_455
Ca2 O14 2.316381 1_555
Ca2 O18 2.418054 1_555
Ca2 O19 2.491870 1_555
Ca3 O13 2.338404 1_655
Ca3 O11 2.391618 1_554
Ca3 O19 2.412822 1_655
Ca3 O7 2.509561 1_555
Ca3 O10 2.532879 1_645
Ca3 O2 2.534951 1_655
Ca3 O5 2.640629 1_555
Ca4 O3 2.301029 1_555
Ca4 O8 2.337176 1_545
Ca4 O6 2.430613 1_545
Ca4 O18 2.466496 1_555
Ca4 O11 2.487636 1_555
Ca4 O14 2.580221 1_555
Ca5 O5 2.291868 1_555
Ca5 O19 2.341188 1_555
Ca5 O7 2.353584 1_555
Ca5 O13 2.480402 1_555
Ca5 O4 2.726221 1_555
Ca5 O9 2.831791 1_545
Ca6 O3 2.301268 1_555
Ca6 O16 2.330779 1_555
Ca6 O8 2.370898 1_555
Ca6 O6 2.371298 1_555
Ca6 O1 2.409092 1_555
Ca6 O15 2.483377 1_555
Ca7 O17 2.378783 1_555
Ca7 O4 2.398837 1_555
Ca7 O15 2.458433 1_554
Ca7 O9 2.473052 1_555
Ca7 O10 2.537381 1_555
Ca7 O7 2.567772 1_565
Ca7 O5 2.658277 1_555
Ca7 O2 2.879708 1_555
Mn0 O13 1.902193 1_555
Mn0 O11 1.940213 1_554
Mn0 O7 1.955920 1_555
Mn0 O10 1.998315 1_545
Mn0 O15 2.047756 1_544
Mn0 O8 2.077042 1_544
Mn1 O6 1.886804 1_545
Mn1 O9 1.893360 1_545
Mn1 O14 1.918370 1_555
Mn1 O12 1.934620 1_555
Mn2 O8 1.944350 1_655
Mn2 O6 1.964961 1_555
Mn2 O18 2.019706 1_665
Mn2 O16 2.049070 1_555
Mn2 O11 2.077984 1_565
Mn3 O17 1.943465 1_455
Mn3 O12 1.959866 1_465
Mn3 O10 1.976116 1_555
Mn3 O19 1.980246 1_565
Mn3 O7 2.069526 1_465
Mn3 O9 2.185486 1_555
Mn4 O16 2.027621 1_455
Mn4 O3 2.077189 1_555
Mn4 O18 2.092777 1_555
Mn4 O1 2.111915 1_555
Mn5 O17 1.910239 1_555
Mn5 O2 1.944353 1_655
Mn5 O4 1.977387 1_655
Mn5 O5 1.991942 1_555
Mn5 O19 2.003631 1_655
Mn5 O0 2.136573 1_555
Mn6 O3 1.902055 1_554
Mn6 O13 1.931870 1_555
Mn6 O5 1.977709 1_555
Mn6 O15 1.987867 1_554
Mn6 O2 2.059457 1_555
Mn7 O0 1.966642 1_555
Mn7 O1 1.973718 1_555
Mn7 O4 2.021126 1_555
Mn7 O14 2.021457 1_555
