# generated using pymatgen
data_NaMgFe(SO4)3
_symmetry_space_group_name_H-M   'P 1'
_cell_length_a   8.59939208
_cell_length_b   8.62363872
_cell_length_c   8.92907570
_cell_angle_alpha   61.14463273
_cell_angle_beta   61.20443933
_cell_angle_gamma   60.08229016
_symmetry_Int_Tables_number   1
_chemical_formula_structural   NaMgFe(SO4)3
_chemical_formula_sum   'Na2 Mg2 Fe2 S6 O24'
_cell_volume   476.66607703
_cell_formula_units_Z   2
loop_
 _symmetry_equiv_pos_site_id
 _symmetry_equiv_pos_as_xyz
  1  'x, y, z'
loop_
 _atom_site_type_symbol
 _atom_site_label
 _atom_site_symmetry_multiplicity
 _atom_site_fract_x
 _atom_site_fract_y
 _atom_site_fract_z
 _atom_site_occupancy
  Na  Na0  1  0.00168000  0.50116100  0.99605000  1
  Na  Na1  1  0.50139100  0.00090400  0.49614100  1
  Mg  Mg0  1  0.14709600  0.64515300  0.55817200  1
  Mg  Mg1  1  0.64962100  0.14512500  0.05824300  1
  Fe  Fe0  1  0.34958200  0.85298200  0.94617400  1
  Fe  Fe1  1  0.85141800  0.35306600  0.44610600  1
  S  S0  1  0.24685600  0.04281500  0.25221400  1
  S  S1  1  0.04643600  0.24772400  0.75248100  1
  S  S2  1  0.54176800  0.45700100  0.25266700  1
  S  S3  1  0.45807300  0.54273000  0.75206700  1
  S  S4  1  0.95334400  0.74746800  0.25262600  1
  S  S5  1  0.74891200  0.95684600  0.75266300  1
  O  O0  1  0.07784800  0.22019700  0.26575400  1
  O  O1  1  0.27700900  0.01944300  0.08298800  1
  O  O2  1  0.01507200  0.28690500  0.58473200  1
  O  O3  1  0.11333100  0.78663300  0.08449900  1
  O  O4  1  0.41135000  0.06878100  0.23655500  1
  O  O5  1  0.22660200  0.07973500  0.75731600  1
  O  O6  1  0.07167500  0.40987600  0.74196200  1
  O  O7  1  0.57046900  0.28434600  0.23198200  1
  O  O8  1  0.38396200  0.48484200  0.41600000  1
  O  O9  1  0.21237700  0.88211600  0.40989800  1
  O  O10  1  0.50870300  0.62339700  0.08891500  1
  O  O11  1  0.28337100  0.56801700  0.73713200  1
  O  O12  1  0.72021600  0.43870800  0.26146900  1
  O  O13  1  0.49588900  0.38195300  0.90986900  1
  O  O14  1  0.77892000  0.12331700  0.58884700  1
  O  O15  1  0.62056600  0.51961900  0.58286500  1
  O  O16  1  0.43593300  0.72032300  0.76563000  1
  O  O17  1  0.93587100  0.57990900  0.25750400  1
  O  O18  1  0.77638100  0.91001400  0.24221100  1
  O  O19  1  0.57969700  0.93803400  0.76195300  1
  O  O20  1  0.89079900  0.20592800  0.91448600  1
  O  O21  1  0.98905100  0.70564800  0.41426900  1
  O  O22  1  0.71531300  0.98482700  0.91580000  1
  O  O23  1  0.91341800  0.78445700  0.73175900  1
loop_
_geom_bond_atom_site_label_1
_geom_bond_atom_site_label_2
_geom_bond_distance
_geom_bond_site_symmetry_2
Na0 O6 2.462707 1_555
Na0 O17 2.470952 1_456
Na0 O11 2.501322 1_555
Na0 O12 2.511442 1_456
Na0 O0 2.530562 1_556
Na0 O23 2.534715 1_455
Na1 O18 2.459348 1_545
Na1 O5 2.470507 1_555
Na1 O4 2.506390 1_555
Na1 O19 2.512803 1_545
Na1 O16 2.528973 1_545
Na1 O7 2.534710 1_555
Mg0 O9 2.015140 1_555
Mg0 O8 2.016343 1_555
Mg0 O21 2.024453 1_455
Mg0 O23 2.066935 1_455
Mg0 O6 2.074580 1_555
Mg0 O11 2.090383 1_555
Mg1 O13 2.014059 1_554
Mg1 O22 2.018309 1_544
Mg1 O20 2.023479 1_554
Mg1 O7 2.068001 1_555
Mg1 O18 2.074407 1_545
Mg1 O4 2.087538 1_555
Fe0 O10 1.989677 1_556
Fe0 O1 2.001750 1_566
Fe0 O3 2.010078 1_556
Fe0 O16 2.058743 1_555
Fe0 O5 2.063570 1_565
Fe0 O19 2.075342 1_555
Fe1 O14 1.991951 1_555
Fe1 O15 2.002084 1_555
Fe1 O2 2.008439 1_655
Fe1 O0 2.057250 1_655
Fe1 O17 2.061411 1_555
Fe1 O12 2.078932 1_555
O0 S0 1.502791 1_555
O1 S0 1.501813 1_555
O2 S1 1.496745 1_555
O3 S4 1.498313 1_455
O4 S0 1.471679 1_555
O5 S1 1.505361 1_555
O6 S1 1.472283 1_555
O7 S2 1.472020 1_555
O8 S2 1.460307 1_555
O9 S0 1.454367 1_565
O10 S2 1.498743 1_555
O11 S3 1.469857 1_555
O12 S2 1.499545 1_555
O13 S3 1.455851 1_555
O14 S5 1.498722 1_545
O15 S3 1.501294 1_555
O16 S3 1.504111 1_555
O17 S4 1.503972 1_555
O18 S4 1.473774 1_555
O19 S5 1.502283 1_555
O20 S1 1.458262 1_655
O21 S4 1.456574 1_555
O22 S5 1.458707 1_555
O23 S5 1.470290 1_555
