# generated using pymatgen
data_FeP2O7
_symmetry_space_group_name_H-M   'P 1'
_cell_length_a   6.98871330
_cell_length_b   8.83186900
_cell_length_c   9.48992607
_cell_angle_alpha   90.00000000
_cell_angle_beta   72.74908393
_cell_angle_gamma   90.00000000
_symmetry_Int_Tables_number   1
_chemical_formula_structural   FeP2O7
_chemical_formula_sum   'Fe4 P8 O28'
_cell_volume   559.40063809
_cell_formula_units_Z   4
loop_
 _symmetry_equiv_pos_site_id
 _symmetry_equiv_pos_as_xyz
  1  'x, y, z'
loop_
 _atom_site_type_symbol
 _atom_site_label
 _atom_site_symmetry_multiplicity
 _atom_site_fract_x
 _atom_site_fract_y
 _atom_site_fract_z
 _atom_site_occupancy
  Fe  Fe0  1  0.68229400  0.07133600  0.19830100  1
  Fe  Fe1  1  0.68229400  0.42866400  0.69830100  1
  Fe  Fe2  1  0.31770600  0.57133600  0.30169900  1
  Fe  Fe3  1  0.31770600  0.92866400  0.80169900  1
  P  P0  1  0.52380800  0.71538300  0.53531300  1
  P  P1  1  0.09577400  0.25020700  0.23573500  1
  P  P2  1  0.90422600  0.75020700  0.26426500  1
  P  P3  1  0.09577400  0.24979300  0.73573500  1
  P  P4  1  0.52380800  0.78461700  0.03531300  1
  P  P5  1  0.90422600  0.74979300  0.76426500  1
  P  P6  1  0.47619200  0.21538300  0.96468700  1
  P  P7  1  0.47619200  0.28461700  0.46468700  1
  O  O0  1  0.49718400  0.13125600  0.38396100  1
  O  O1  1  0.25643300  0.21252800  0.08070700  1
  O  O2  1  0.89192500  0.27561600  0.71108700  1
  O  O3  1  0.13095400  0.08867600  0.77930600  1
  O  O4  1  0.50281600  0.86874400  0.61603900  1
  O  O5  1  0.74356700  0.78747200  0.91929300  1
  O  O6  1  0.63110000  0.20253900  0.04870800  1
  O  O7  1  0.52167700  0.91524000  0.14042900  1
  O  O8  1  0.86904600  0.58867600  0.72069400  1
  O  O9  1  0.36890000  0.70253900  0.45129200  1
  O  O10  1  0.49718400  0.36874400  0.88396100  1
  O  O11  1  0.89323200  0.86903700  0.64906900  1
  O  O12  1  0.50281600  0.63125600  0.11603900  1
  O  O13  1  0.10807500  0.72438400  0.28891300  1
  O  O14  1  0.47832300  0.41524000  0.35957100  1
  O  O15  1  0.36890000  0.79746100  0.95129200  1
  O  O16  1  0.86904600  0.91132400  0.22069400  1
  O  O17  1  0.89192500  0.22438400  0.21108800  1
  O  O18  1  0.10676800  0.13096300  0.35093100  1
  O  O19  1  0.52167700  0.58476000  0.64042900  1
  O  O20  1  0.25643300  0.28747200  0.58070700  1
  O  O21  1  0.63110000  0.29746100  0.54870800  1
  O  O22  1  0.47832300  0.08476000  0.85957100  1
  O  O23  1  0.13095400  0.41132400  0.27930600  1
  O  O24  1  0.74356700  0.71252800  0.41929300  1
  O  O25  1  0.89323200  0.63096300  0.14906900  1
  O  O26  1  0.10807500  0.77561600  0.78891300  1
  O  O27  1  0.10676800  0.36903700  0.85093100  1
loop_
_geom_bond_atom_site_label_1
_geom_bond_atom_site_label_2
_geom_bond_distance
_geom_bond_site_symmetry_2
Fe0 O0 1.925111 1_555
Fe0 O6 1.946109 1_555
Fe0 O7 1.956496 1_545
Fe0 O16 1.977434 1_545
Fe0 O17 2.023274 1_555
Fe1 O10 1.925111 1_555
Fe1 O21 1.946109 1_555
Fe1 O19 1.956496 1_555
Fe1 O8 1.977434 1_555
Fe1 O2 2.023271 1_555
Fe2 O12 1.925111 1_555
Fe2 O9 1.946109 1_555
Fe2 O14 1.956496 1_555
Fe2 O23 1.977434 1_555
Fe2 O13 2.023271 1_555
Fe3 O4 1.925111 1_555
Fe3 O15 1.946109 1_555
Fe3 O22 1.956496 1_565
Fe3 O3 1.977434 1_565
Fe3 O26 2.023271 1_555
O0 P7 1.541532 1_555
O1 P1 1.598786 1_555
O1 P6 1.602723 1_554
O2 P3 1.527736 1_655
O3 P3 1.522019 1_555
O4 P0 1.541532 1_555
O5 P5 1.598786 1_555
O5 P4 1.602723 1_556
O6 P6 1.527307 1_554
O7 P4 1.522301 1_555
O8 P5 1.522019 1_555
O9 P0 1.527307 1_555
O10 P6 1.541532 1_555
O11 P5 1.536207 1_555
O12 P4 1.541532 1_555
O13 P2 1.527736 1_455
O14 P7 1.522301 1_555
O15 P4 1.527307 1_556
O16 P2 1.522019 1_555
O17 P1 1.527732 1_655
O18 P1 1.536207 1_555
O19 P0 1.522301 1_555
O20 P3 1.598786 1_555
O20 P7 1.602723 1_555
O21 P7 1.527307 1_555
O22 P6 1.522301 1_555
O23 P1 1.522019 1_555
O24 P2 1.598786 1_555
O24 P0 1.602723 1_555
O25 P2 1.536207 1_555
O26 P5 1.527736 1_455
O27 P3 1.536207 1_555
