# generated using pymatgen
data_Sr3Sn4Bi
_symmetry_space_group_name_H-M   'P 1'
_cell_length_a   9.04863087
_cell_length_b   9.04863087
_cell_length_c   9.04863087
_cell_angle_alpha   120.36236196
_cell_angle_beta   120.36236196
_cell_angle_gamma   89.37350823
_symmetry_Int_Tables_number   1
_chemical_formula_structural   Sr3Sn4Bi
_chemical_formula_sum   'Sr6 Sn8 Bi2'
_cell_volume   520.97905505
_cell_formula_units_Z   2
loop_
 _symmetry_equiv_pos_site_id
 _symmetry_equiv_pos_as_xyz
  1  'x, y, z'
loop_
 _atom_site_type_symbol
 _atom_site_label
 _atom_site_symmetry_multiplicity
 _atom_site_fract_x
 _atom_site_fract_y
 _atom_site_fract_z
 _atom_site_occupancy
  Sr  Sr0  1  0.25000000  0.25000000  0.00000000  1
  Sr  Sr1  1  0.75000000  0.75000000  0.00000000  1
  Sr  Sr2  1  0.16311795  0.66311795  0.82623789  1
  Sr  Sr3  1  0.83688205  0.33688205  0.17376211  1
  Sr  Sr4  1  0.66311795  0.83688205  0.50000000  1
  Sr  Sr5  1  0.33688205  0.16311795  0.50000000  1
  Sn  Sn0  1  0.83666522  0.33666522  0.78793389  1
  Sn  Sn1  1  0.16333478  0.66333478  0.21206611  1
  Sn  Sn2  1  0.54873033  0.04873033  0.21206611  1
  Sn  Sn3  1  0.33666522  0.54873033  0.50000000  1
  Sn  Sn4  1  0.95126967  0.16333478  0.50000000  1
  Sn  Sn5  1  0.45126967  0.95126967  0.78793389  1
  Sn  Sn6  1  0.66333478  0.45126967  0.50000000  1
  Sn  Sn7  1  0.04873033  0.83666522  0.50000000  1
  Bi  Bi0  1  0.00000000  0.00000000  0.00000000  1
  Bi  Bi1  1  0.50000000  0.50000000  0.00000000  1
loop_
_geom_bond_atom_site_label_1
_geom_bond_atom_site_label_2
_geom_bond_distance
_geom_bond_site_symmetry_2
Sn0 Sn6 2.981315 1_555
Sn0 Sn4 2.981315 1_555
Sn0 Sn1 3.075413 1_656
Sn0 Sr3 3.489234 1_556
Sn0 Sr0 3.533744 1_656
Sn0 Sr1 3.533744 1_556
Sn0 Sr4 3.716665 1_545
Sn0 Sr5 3.716665 1_555
Sn1 Sn3 2.981315 1_555
Sn1 Sn7 2.981315 1_555
Sn1 Sr2 3.489234 1_554
Sn1 Sr1 3.533744 1_455
Sn1 Sr0 3.533744 1_555
Sn1 Sr5 3.716665 1_565
Sn1 Sr4 3.716665 1_555
Sn2 Sn4 2.981322 1_555
Sn2 Sn6 2.981322 1_555
Sn2 Sn5 3.075425 1_544
Sn2 Sr2 3.489243 1_544
Sn2 Sr1 3.533747 1_545
Sn2 Sr0 3.533747 1_555
Sn2 Sr4 3.716656 1_545
Sn2 Sr5 3.716656 1_555
Sn3 Sn5 2.981322 1_555
Sn3 Sn6 3.075408 1_555
Sn3 Sr5 3.489243 1_555
Sn3 Sr0 3.533743 1_555
Sn3 Sr1 3.533743 1_556
Sn3 Sr3 3.716662 1_455
Sn3 Sr2 3.716679 1_555
Sn4 Sn7 3.075408 1_645
Sn4 Sr5 3.489243 1_655
Sn4 Sr1 3.533743 1_545
Sn4 Sr0 3.533743 1_656
Sn4 Sr2 3.716662 1_655
Sn4 Sr3 3.716679 1_555
Sn5 Sn7 2.981322 1_555
Sn5 Sr3 3.489243 1_566
Sn5 Sr0 3.533747 1_566
Sn5 Sr1 3.533747 1_556
Sn5 Sr5 3.716656 1_565
Sn5 Sr4 3.716656 1_555
Sn6 Sr4 3.489243 1_555
Sn6 Sr1 3.533743 1_556
Sn6 Sr0 3.533743 1_555
Sn6 Sr2 3.716662 1_655
Sn6 Sr3 3.716679 1_555
Sn7 Sr4 3.489243 1_455
Sn7 Sr0 3.533743 1_566
Sn7 Sr1 3.533743 1_455
Sn7 Sr3 3.716662 1_455
Sn7 Sr2 3.716679 1_555
Bi0 Sr0 3.216617 1_555
Bi0 Sr1 3.216617 1_445
Bi0 Sr2 3.368289 1_544
Bi0 Sr3 3.368289 1_455
Bi0 Sr4 3.368293 1_444
Bi0 Sr5 3.368293 1_555
Bi1 Sr0 3.216617 1_555
Bi1 Sr1 3.216617 1_555
Bi1 Sr2 3.368289 1_554
Bi1 Sr3 3.368289 1_555
Bi1 Sr5 3.368293 1_554
Bi1 Sr4 3.368293 1_555
