# generated using pymatgen
data_Li3FeO4
_symmetry_space_group_name_H-M   'P 1'
_cell_length_a   5.97652169
_cell_length_b   7.65064017
_cell_length_c   7.65312180
_cell_angle_alpha   63.94716952
_cell_angle_beta   112.99684869
_cell_angle_gamma   113.00416142
_symmetry_Int_Tables_number   1
_chemical_formula_structural   Li3FeO4
_chemical_formula_sum   'Li12 Fe4 O16'
_cell_volume   279.03966005
_cell_formula_units_Z   4
loop_
 _symmetry_equiv_pos_site_id
 _symmetry_equiv_pos_as_xyz
  1  'x, y, z'
loop_
 _atom_site_type_symbol
 _atom_site_label
 _atom_site_symmetry_multiplicity
 _atom_site_fract_x
 _atom_site_fract_y
 _atom_site_fract_z
 _atom_site_occupancy
  Li  Li0  1  0.37463000  0.87568400  0.37684600  1
  Li  Li1  1  0.62700100  0.12808600  0.62898900  1
  Li  Li2  1  0.86659200  0.36751200  0.86864600  1
  Li  Li3  1  0.11888900  0.61973100  0.12107200  1
  Li  Li4  1  0.74756100  0.74856600  0.74794000  1
  Li  Li5  1  0.99346900  0.00122800  0.99544000  1
  Li  Li6  1  0.24790800  0.24874300  0.24809300  1
  Li  Li7  1  0.50233500  0.49606200  0.50076800  1
  Li  Li8  1  0.74602600  0.24881800  0.24773100  1
  Li  Li9  1  0.99157200  0.49603400  0.50024500  1
  Li  Li10  1  0.24573700  0.74863200  0.74747400  1
  Li  Li11  1  0.50043300  0.00141000  0.99514900  1
  Fe  Fe0  1  0.12372500  0.12576900  0.62513100  1
  Fe  Fe1  1  0.36972100  0.37171400  0.87098700  1
  Fe  Fe2  1  0.87252600  0.87436100  0.37432200  1
  Fe  Fe3  1  0.62080800  0.62260800  0.12238300  1
  O  O0  1  0.21473000  0.99088400  0.48945700  1
  O  O1  1  0.48364000  0.24901000  0.74806100  1
  O  O2  1  0.73143400  0.50742000  0.00611900  1
  O  O3  1  0.96427500  0.74921500  0.24765000  1
  O  O4  1  0.27856300  0.50737400  0.00583200  1
  O  O5  1  0.52895000  0.74914200  0.24762300  1
  O  O6  1  0.76187500  0.99058200  0.48946300  1
  O  O7  1  0.00979000  0.24872000  0.74775200  1
  O  O8  1  0.37005000  0.60090200  0.64249500  1
  O  O9  1  0.62109100  0.85312100  0.89242600  1
  O  O10  1  0.87271700  0.10452100  0.14394500  1
  O  O11  1  0.12377100  0.35447000  0.39598000  1
  O  O12  1  0.37005200  0.14373400  0.09963900  1
  O  O13  1  0.62100000  0.39389700  0.35139100  1
  O  O14  1  0.87236600  0.64516400  0.60253100  1
  O  O15  1  0.12336500  0.89692500  0.85283500  1
loop_
_geom_bond_atom_site_label_1
_geom_bond_atom_site_label_2
_geom_bond_distance
_geom_bond_site_symmetry_2
Li0 O6 2.094921 1_555
Li0 O0 2.098055 1_555
Li0 O8 2.190376 1_555
Li0 O12 2.209971 1_565
Li0 O5 2.239985 1_555
Li0 O3 2.240420 1_455
Li1 O7 2.091301 1_655
Li1 O1 2.095370 1_555
Li1 O9 2.182528 1_545
Li1 O13 2.202906 1_555
Li1 O6 2.284454 1_545
Li1 O0 2.284826 1_545
Li2 O1 2.091561 1_555
Li2 O7 2.092772 1_655
Li2 O10 2.182271 1_556
Li2 O14 2.204258 1_555
Li2 O4 2.284134 1_656
Li2 O2 2.287834 1_556
Li3 O2 2.095594 1_455
Li3 O4 2.095742 1_555
Li3 O11 2.189432 1_555
Li3 O15 2.210607 1_554
Li3 O5 2.239551 1_555
Li3 O3 2.243102 1_455
Li4 O2 2.030977 1_556
Li4 O6 2.034665 1_555
Li4 O14 2.074528 1_555
Li4 O9 2.082421 1_555
Li4 O15 2.091966 1_655
Li4 O8 2.098552 1_555
Li5 O7 2.008813 1_655
Li5 O3 2.050544 1_546
Li5 O9 2.073932 1_545
Li5 O10 2.076675 1_556
Li5 O12 2.081705 1_656
Li5 O15 2.083691 1_645
Li6 O0 2.030462 1_545
Li6 O4 2.036143 1_555
Li6 O13 2.070894 1_555
Li6 O10 2.079197 1_455
Li6 O12 2.092204 1_555
Li6 O11 2.101187 1_555
Li7 O1 2.006186 1_555
Li7 O5 2.057342 1_555
Li7 O14 2.064313 1_555
Li7 O13 2.066998 1_555
Li7 O11 2.089321 1_555
Li7 O8 2.091594 1_555
Li8 O6 2.033116 1_545
Li8 O2 2.033820 1_555
Li8 O13 2.074746 1_555
Li8 O10 2.077600 1_555
Li8 O12 2.092483 1_555
Li8 O11 2.101253 1_655
Li9 O7 2.007882 1_655
Li9 O3 2.055970 1_555
Li9 O13 2.066717 1_555
Li9 O14 2.068263 1_555
Li9 O11 2.086756 1_655
Li9 O8 2.090478 1_655
Li10 O4 2.032006 1_556
Li10 O0 2.033802 1_555
Li10 O14 2.071983 1_455
Li10 O9 2.082057 1_555
Li10 O15 2.094073 1_555
Li10 O8 2.096480 1_555
Li11 O1 2.007008 1_555
Li11 O5 2.052195 1_546
Li11 O9 2.071466 1_545
Li11 O10 2.075341 1_556
Li11 O15 2.083917 1_545
Li11 O12 2.084998 1_556
Fe0 O15 1.849890 1_545
Fe0 O11 1.855168 1_555
Fe0 O7 2.001122 1_555
Fe0 O1 2.003456 1_555
Fe0 O0 2.063990 1_545
Fe0 O6 2.065238 1_445
Fe1 O12 1.850227 1_556
Fe1 O8 1.854470 1_555
Fe1 O1 2.001414 1_555
Fe1 O7 2.003638 1_555
Fe1 O4 2.064247 1_556
Fe1 O2 2.064661 1_556
Fe2 O14 1.853365 1_555
Fe2 O10 1.866046 1_565
Fe2 O6 1.899367 1_555
Fe2 O0 1.900213 1_655
Fe2 O5 1.948615 1_555
Fe2 O3 1.948898 1_555
Fe3 O13 1.854627 1_555
Fe3 O9 1.865774 1_554
Fe3 O2 1.899819 1_555
Fe3 O4 1.900634 1_555
Fe3 O3 1.948074 1_555
Fe3 O5 1.949050 1_555
