# generated using pymatgen
data_Li2Mg3Si2
_symmetry_space_group_name_H-M   'P 1'
_cell_length_a   7.77754351
_cell_length_b   7.77754351
_cell_length_c   7.77754365
_cell_angle_alpha   33.44980439
_cell_angle_beta   33.44980439
_cell_angle_gamma   33.44979656
_symmetry_Int_Tables_number   1
_chemical_formula_structural   Li2Mg3Si2
_chemical_formula_sum   'Li2 Mg3 Si2'
_cell_volume   127.29805973
_cell_formula_units_Z   1
loop_
 _symmetry_equiv_pos_site_id
 _symmetry_equiv_pos_as_xyz
  1  'x, y, z'
loop_
 _atom_site_type_symbol
 _atom_site_label
 _atom_site_symmetry_multiplicity
 _atom_site_fract_x
 _atom_site_fract_y
 _atom_site_fract_z
 _atom_site_occupancy
  Li  Li0  1  0.74485542  0.74485542  0.74485542  1
  Li  Li1  1  0.36832480  0.36832480  0.36832480  1
  Mg  Mg0  1  0.12736496  0.12736496  0.12736496  1
  Mg  Mg1  1  0.62467682  0.62467682  0.62467682  1
  Mg  Mg2  1  0.88174497  0.88174497  0.88174497  1
  Si  Si0  1  0.00448370  0.00448370  0.00448370  1
  Si  Si1  1  0.49854932  0.49854932  0.49854932  1
loop_
_geom_bond_atom_site_label_1
_geom_bond_atom_site_label_2
_geom_bond_distance
_geom_bond_site_symmetry_2
Li0 Mg1 2.644741 1_555
Li0 Li1 2.753736 1_565
Li0 Li1 2.753736 1_655
Li0 Li1 2.753737 1_556
Li0 Mg0 2.801881 1_656
Li0 Mg0 2.801881 1_566
Li0 Mg0 2.801882 1_665
Li0 Mg2 3.012495 1_555
Li0 Si0 3.051275 1_656
Li0 Si0 3.051275 1_566
Li0 Si0 3.051275 1_665
Li1 Si0 2.670227 1_655
Li1 Si0 2.670227 1_565
Li1 Si0 2.670227 1_556
Li1 Si1 2.865819 1_555
Mg0 Si0 2.704218 1_555
Mg0 Si1 2.715367 1_455
Mg0 Si1 2.715367 1_545
Mg0 Si1 2.715367 1_554
Mg1 Si1 2.775657 1_555
Mg1 Si0 2.779450 1_656
Mg1 Si0 2.779450 1_566
Mg1 Si0 2.779451 1_665
Mg2 Si0 2.701081 1_666
Mg2 Si1 2.807748 1_655
Mg2 Si1 2.807748 1_565
Mg2 Si1 2.807748 1_556
