# generated using pymatgen
data_TcF6
_symmetry_space_group_name_H-M   'P 1'
_cell_length_a   5.44002567
_cell_length_b   5.44002567
_cell_length_c   5.44002567
_cell_angle_alpha   109.21092147
_cell_angle_beta   109.99303028
_cell_angle_gamma   109.21097367
_symmetry_Int_Tables_number   1
_chemical_formula_structural   TcF6
_chemical_formula_sum   'Tc1 F6'
_cell_volume   123.92356864
_cell_formula_units_Z   1
loop_
 _symmetry_equiv_pos_site_id
 _symmetry_equiv_pos_as_xyz
  1  'x, y, z'
loop_
 _atom_site_type_symbol
 _atom_site_label
 _atom_site_symmetry_multiplicity
 _atom_site_fract_x
 _atom_site_fract_y
 _atom_site_fract_z
 _atom_site_occupancy
  Tc  Tc0  1  0.00000000  0.00000000  -0.00000000  1
  F  F0  1  0.70852059  0.70852059  0.00000000  1
  F  F1  1  0.29147941  0.29147941  -0.00000000  1
  F  F2  1  0.71164653  0.00000000  0.71164653  1
  F  F3  1  0.28835347  0.00000000  0.28835347  1
  F  F4  1  -0.00000000  0.70851959  0.70851959  1
  F  F5  1  0.00000000  0.29148041  0.29148041  1
loop_
_geom_bond_atom_site_label_1
_geom_bond_atom_site_label_2
_geom_bond_distance
_geom_bond_site_symmetry_2
F0 Tc0 1.836833 1_665
F1 Tc0 1.836833 1_555
F2 Tc0 1.799638 1_656
F3 Tc0 1.799638 1_555
F4 Tc0 1.836841 1_566
F5 Tc0 1.836841 1_555
