# generated using pymatgen
data_La6Sm2Cr5(FeO8)3
_symmetry_space_group_name_H-M   'P 1'
_cell_length_a   7.84163300
_cell_length_b   7.84195500
_cell_length_c   7.84336313
_cell_angle_alpha   89.98958307
_cell_angle_beta   90.00000000
_cell_angle_gamma   90.00000000
_symmetry_Int_Tables_number   1
_chemical_formula_structural   La6Sm2Cr5(FeO8)3
_chemical_formula_sum   'La6 Sm2 Cr5 Fe3 O24'
_cell_volume   482.31767103
_cell_formula_units_Z   1
loop_
 _symmetry_equiv_pos_site_id
 _symmetry_equiv_pos_as_xyz
  1  'x, y, z'
loop_
 _atom_site_type_symbol
 _atom_site_label
 _atom_site_symmetry_multiplicity
 _atom_site_fract_x
 _atom_site_fract_y
 _atom_site_fract_z
 _atom_site_occupancy
  La  La0  1  0.74971500  0.74971100  0.74912900  1
  La  La1  1  0.25028500  0.74971100  0.74912900  1
  La  La2  1  0.74968500  0.74971200  0.25082600  1
  La  La3  1  0.25031500  0.74971200  0.25082600  1
  La  La4  1  0.74972100  0.25030200  0.25082300  1
  La  La5  1  0.25027900  0.25030200  0.25082300  1
  Sm  Sm0  1  0.74968500  0.25032100  0.74910000  1
  Sm  Sm1  1  0.25031500  0.25032100  0.74910000  1
  Cr  Cr0  1  0.00000000  0.00046600  0.50043800  1
  Cr  Cr1  1  0.50000000  0.00045200  0.50043600  1
  Cr  Cr2  1  0.50000000  0.49959300  0.99954600  1
  Cr  Cr3  1  0.00000000  0.49954800  0.50043000  1
  Cr  Cr4  1  0.50000000  0.49952300  0.50047000  1
  Fe  Fe0  1  0.00000000  0.00063600  0.99934800  1
  Fe  Fe1  1  0.50000000  0.00065200  0.99933800  1
  Fe  Fe2  1  0.00000000  0.49937600  0.99934200  1
  O  O0  1  0.00000000  0.74969000  0.99980200  1
  O  O1  1  0.50000000  0.74946600  0.99979000  1
  O  O2  1  0.00000000  0.74991200  0.50013300  1
  O  O3  1  0.50000000  0.74977800  0.50014700  1
  O  O4  1  0.00000000  0.25029900  0.99754600  1
  O  O5  1  0.50000000  0.25055500  0.99738100  1
  O  O6  1  0.00000000  0.25007300  0.50283600  1
  O  O7  1  0.50000000  0.25019900  0.50283100  1
  O  O8  1  0.00000000  0.00261100  0.74902800  1
  O  O9  1  0.50000000  0.00263200  0.74908600  1
  O  O10  1  0.00000000  0.00017600  0.25095900  1
  O  O11  1  0.50000000  0.00019400  0.25089400  1
  O  O12  1  0.00000000  0.49738000  0.74909000  1
  O  O13  1  0.50000000  0.49717600  0.74953200  1
  O  O14  1  0.00000000  0.49984500  0.25089800  1
  O  O15  1  0.50000000  0.49985700  0.25048800  1
  O  O16  1  0.74969400  0.00132100  0.99865100  1
  O  O17  1  0.25030600  0.00132100  0.99865100  1
  O  O18  1  0.74992200  0.00151600  0.50150300  1
  O  O19  1  0.25007800  0.00151600  0.50150300  1
  O  O20  1  0.74945000  0.49859400  0.99855900  1
  O  O21  1  0.25055000  0.49859400  0.99855900  1
  O  O22  1  0.74978900  0.49847900  0.50151300  1
  O  O23  1  0.25021100  0.49847900  0.50151300  1
loop_
_geom_bond_atom_site_label_1
_geom_bond_atom_site_label_2
_geom_bond_distance
_geom_bond_site_symmetry_2
La0 O3 2.765518 1_555
La0 O22 2.766731 1_555
La0 O2 2.768762 1_655
La0 O18 2.769485 1_565
La0 O1 2.774833 1_555
La0 O20 2.775595 1_555
La0 O0 2.778056 1_655
La0 O16 2.779351 1_565
La0 O13 2.785015 1_555
La0 O12 2.787022 1_655
La0 O9 2.787167 1_565
La0 O8 2.790192 1_665
La1 O3 2.765518 1_555
La1 O23 2.766731 1_555
La1 O2 2.768762 1_555
La1 O19 2.769485 1_565
La1 O1 2.774833 1_555
La1 O21 2.775595 1_555
La1 O0 2.778056 1_555
La1 O17 2.779351 1_565
La1 O13 2.785015 1_555
La1 O12 2.787022 1_555
La1 O9 2.787167 1_565
La1 O8 2.790192 1_565
La2 O3 2.767230 1_555
La2 O15 2.769944 1_555
La2 O2 2.770651 1_655
La2 O11 2.773423 1_565
La2 O14 2.773503 1_655
La2 O1 2.776753 1_554
La2 O10 2.776813 1_665
La2 O0 2.780171 1_654
La2 O22 2.783194 1_555
La2 O18 2.786817 1_565
La2 O20 2.791833 1_554
La2 O16 2.793532 1_564
La3 O3 2.767230 1_555
La3 O15 2.769944 1_555
La3 O2 2.770651 1_555
La3 O11 2.773423 1_565
La3 O14 2.773503 1_555
La3 O1 2.776753 1_554
La3 O10 2.776813 1_565
La3 O0 2.780171 1_554
La3 O23 2.783194 1_555
La3 O19 2.786817 1_565
La3 O21 2.791833 1_554
La3 O17 2.793532 1_564
La4 O22 2.766805 1_555
La4 O15 2.768479 1_555
La4 O18 2.769608 1_555
La4 O14 2.771509 1_655
La4 O11 2.771546 1_555
La4 O10 2.774739 1_655
La4 O20 2.775722 1_554
La4 O16 2.779505 1_554
La4 O7 2.782362 1_555
La4 O6 2.785471 1_655
La4 O5 2.790363 1_554
La4 O4 2.792515 1_654
La5 O23 2.766805 1_555
La5 O15 2.768479 1_555
La5 O19 2.769608 1_555
La5 O14 2.771509 1_555
La5 O11 2.771546 1_555
La5 O10 2.774739 1_555
La5 O21 2.775722 1_554
La5 O17 2.779505 1_554
La5 O7 2.782362 1_555
La5 O6 2.785471 1_555
La5 O5 2.790363 1_554
La5 O4 2.792515 1_554
Cr0 O8 1.949857 1_555
Cr0 O10 1.956756 1_555
Cr0 O6 1.957501 1_555
Cr0 O19 1.961055 1_555
Cr0 O18 1.961055 1_455
Cr0 O2 1.964835 1_545
Cr1 O9 1.950330 1_555
Cr1 O11 1.957250 1_555
Cr1 O7 1.958598 1_555
Cr1 O18 1.959832 1_555
Cr1 O19 1.959832 1_555
Cr1 O3 1.965776 1_545
Cr2 O5 1.953022 1_555
Cr2 O20 1.956126 1_555
Cr2 O21 1.956126 1_555
Cr2 O1 1.959494 1_555
Cr2 O13 1.961046 1_555
Cr2 O15 1.968231 1_556
Cr3 O12 1.950402 1_555
Cr3 O6 1.956459 1_555
Cr3 O14 1.957171 1_555
Cr3 O22 1.962099 1_455
Cr3 O23 1.962099 1_555
Cr3 O2 1.963344 1_555
Cr4 O13 1.953567 1_555
Cr4 O7 1.955272 1_555
Cr4 O23 1.958788 1_555
Cr4 O22 1.958788 1_555
Cr4 O15 1.960701 1_555
Cr4 O3 1.962490 1_555
Fe0 O4 1.957894 1_555
Fe0 O17 1.962823 1_555
Fe0 O16 1.962823 1_455
Fe0 O8 1.963409 1_555
Fe0 O0 1.967910 1_545
Fe0 O10 1.973479 1_556
Fe1 O16 1.958023 1_555
Fe1 O17 1.958023 1_555
Fe1 O5 1.959785 1_555
Fe1 O9 1.962876 1_555
Fe1 O1 1.969792 1_545
Fe1 O11 1.973048 1_556
Fe2 O4 1.953304 1_555
Fe2 O12 1.962883 1_555
Fe2 O0 1.962955 1_555
Fe2 O21 1.964740 1_555
Fe2 O20 1.964740 1_455
Fe2 O14 1.973049 1_556
O4 Sm0 2.765888 1_455
O4 Sm1 2.765888 1_555
O5 Sm1 2.761472 1_555
O5 Sm0 2.761472 1_555
O6 Sm0 2.753858 1_455
O6 Sm1 2.753858 1_555
O7 Sm0 2.750366 1_555
O7 Sm1 2.750366 1_555
O8 Sm0 2.761579 1_455
O8 Sm1 2.761579 1_555
O9 Sm1 2.757953 1_555
O9 Sm0 2.757953 1_555
O12 Sm0 2.757990 1_455
O12 Sm1 2.757990 1_555
O13 Sm0 2.753354 1_555
O13 Sm1 2.753354 1_555
O16 Sm0 2.764514 1_555
O17 Sm1 2.764514 1_555
O18 Sm0 2.753103 1_555
O19 Sm1 2.753103 1_555
O20 Sm0 2.760482 1_555
O21 Sm1 2.760482 1_555
O22 Sm0 2.748954 1_555
O23 Sm1 2.748954 1_555
