# generated using pymatgen
data_LaCoGe2
_symmetry_space_group_name_H-M   'P 1'
_cell_length_a   8.65704249
_cell_length_b   8.65704249
_cell_length_c   4.23948249
_cell_angle_alpha   90.00000000
_cell_angle_beta   90.00000000
_cell_angle_gamma   151.13428694
_symmetry_Int_Tables_number   1
_chemical_formula_structural   LaCoGe2
_chemical_formula_sum   'La2 Co2 Ge4'
_cell_volume   153.38460926
_cell_formula_units_Z   2
loop_
 _symmetry_equiv_pos_site_id
 _symmetry_equiv_pos_as_xyz
  1  'x, y, z'
loop_
 _atom_site_type_symbol
 _atom_site_label
 _atom_site_symmetry_multiplicity
 _atom_site_fract_x
 _atom_site_fract_y
 _atom_site_fract_z
 _atom_site_occupancy
  La  La0  1  0.89031235  0.10968765  0.75000000  1
  La  La1  1  0.10968765  0.89031235  0.25000000  1
  Co  Co0  1  0.68295190  0.31704810  0.75000000  1
  Co  Co1  1  0.31704810  0.68295190  0.25000000  1
  Ge  Ge0  1  0.54568361  0.45431639  0.75000000  1
  Ge  Ge1  1  0.45431639  0.54568361  0.25000000  1
  Ge  Ge2  1  0.25035568  0.74964432  0.75000000  1
  Ge  Ge3  1  0.74964432  0.25035568  0.25000000  1
loop_
_geom_bond_atom_site_label_1
_geom_bond_atom_site_label_2
_geom_bond_distance
_geom_bond_site_symmetry_2
Co0 Ge0 2.301668 1_555
Co0 Ge3 2.396632 1_555
Co0 Ge3 2.396632 1_556
Co0 Ge2 2.435805 1_655
Co0 Ge2 2.435805 1_545
Co0 La1 3.264694 1_545
Co0 La1 3.264694 1_546
Co0 La1 3.264694 1_656
Co0 La1 3.264694 1_655
Co1 Ge1 2.301668 1_555
Co1 Ge2 2.396632 1_554
Co1 Ge2 2.396632 1_555
Co1 Ge3 2.435805 1_565
Co1 Ge3 2.435805 1_455
Co1 La0 3.264694 1_454
Co1 La0 3.264694 1_455
Co1 La0 3.264694 1_564
Co1 La0 3.264694 1_565
Ge0 Ge1 2.615410 1_555
Ge0 Ge1 2.615410 1_556
Ge0 La1 3.209493 1_656
Ge0 La1 3.209493 1_655
Ge0 La1 3.209493 1_546
Ge0 La1 3.209493 1_545
Ge0 La0 3.382738 1_565
Ge0 La0 3.382738 1_455
Ge1 La0 3.209493 1_565
Ge1 La0 3.209493 1_564
Ge1 La0 3.209493 1_455
Ge1 La0 3.209493 1_454
Ge1 La1 3.382738 1_655
Ge1 La1 3.382738 1_545
Ge2 La1 3.171221 1_556
Ge2 La1 3.171221 1_555
Ge2 La0 3.187946 1_565
Ge2 La0 3.187946 1_455
Ge3 La0 3.171221 1_554
Ge3 La0 3.171221 1_555
Ge3 La1 3.187946 1_545
Ge3 La1 3.187946 1_655
