# generated using pymatgen
data_Gd2ZrS5
_symmetry_space_group_name_H-M   'P 1'
_cell_length_a   7.30226839
_cell_length_b   7.83000122
_cell_length_c   11.59878683
_cell_angle_alpha   90.00000000
_cell_angle_beta   90.00000000
_cell_angle_gamma   90.00000000
_symmetry_Int_Tables_number   1
_chemical_formula_structural   Gd2ZrS5
_chemical_formula_sum   'Gd8 Zr4 S20'
_cell_volume   663.18117153
_cell_formula_units_Z   4
loop_
 _symmetry_equiv_pos_site_id
 _symmetry_equiv_pos_as_xyz
  1  'x, y, z'
loop_
 _atom_site_type_symbol
 _atom_site_label
 _atom_site_symmetry_multiplicity
 _atom_site_fract_x
 _atom_site_fract_y
 _atom_site_fract_z
 _atom_site_occupancy
  Gd  Gd0  1  0.52359975  0.49796645  0.32159662  1
  Gd  Gd1  1  0.97640025  0.00203355  0.82159662  1
  Gd  Gd2  1  0.47640025  0.99796645  0.67840338  1
  Gd  Gd3  1  0.02359975  0.50203355  0.17840338  1
  Gd  Gd4  1  0.47640025  0.50203355  0.67840338  1
  Gd  Gd5  1  0.02359975  0.99796645  0.17840338  1
  Gd  Gd6  1  0.52359975  0.00203355  0.32159662  1
  Gd  Gd7  1  0.97640025  0.49796645  0.82159662  1
  Zr  Zr0  1  0.07730960  0.75000000  0.49329325  1
  Zr  Zr1  1  0.42269040  0.75000000  0.99329325  1
  Zr  Zr2  1  0.92269040  0.25000000  0.50670675  1
  Zr  Zr3  1  0.57730960  0.25000000  0.00670675  1
  S  S0  1  0.83896581  0.96327017  0.59212142  1
  S  S1  1  0.66103419  0.53672983  0.09212142  1
  S  S2  1  0.16103419  0.46327017  0.40787858  1
  S  S3  1  0.33896581  0.03672983  0.90787858  1
  S  S4  1  0.16103419  0.03672983  0.40787858  1
  S  S5  1  0.33896581  0.46327017  0.90787858  1
  S  S6  1  0.83896581  0.53672983  0.59212142  1
  S  S7  1  0.66103419  0.96327017  0.09212142  1
  S  S8  1  0.83466778  0.75000000  0.31767735  1
  S  S9  1  0.66533222  0.75000000  0.81767735  1
  S  S10  1  0.16533222  0.25000000  0.68232265  1
  S  S11  1  0.33466778  0.25000000  0.18232265  1
  S  S12  1  0.44811604  0.75000000  0.49643528  1
  S  S13  1  0.05188396  0.75000000  0.99643528  1
  S  S14  1  0.55188396  0.25000000  0.50356472  1
  S  S15  1  0.94811604  0.25000000  0.00356472  1
  S  S16  1  0.18841123  0.75000000  0.70760892  1
  S  S17  1  0.31158877  0.75000000  0.20760892  1
  S  S18  1  0.81158877  0.25000000  0.29239108  1
  S  S19  1  0.68841123  0.25000000  0.79239108  1
loop_
_geom_bond_atom_site_label_1
_geom_bond_atom_site_label_2
_geom_bond_distance
_geom_bond_site_symmetry_2
Gd0 S17 2.835348 1_555
Gd0 S2 2.843390 1_555
Gd0 S1 2.860699 1_555
Gd0 S14 2.875248 1_555
Gd0 S11 2.877960 1_555
Gd0 S18 2.882182 1_555
Gd0 S12 2.882823 1_555
Gd0 S8 3.009350 1_555
Gd1 S16 2.835348 1_645
Gd1 S3 2.843390 1_655
Gd1 S0 2.860699 1_545
Gd1 S15 2.875248 1_556
Gd1 S10 2.877960 1_655
Gd1 S19 2.882182 1_555
Gd1 S13 2.882823 1_645
Gd1 S9 3.009350 1_545
Gd2 S19 2.835348 1_565
Gd2 S0 2.843390 1_555
Gd2 S3 2.860699 1_565
Gd2 S12 2.875248 1_555
Gd2 S9 2.877960 1_555
Gd2 S16 2.882182 1_555
Gd2 S14 2.882823 1_565
Gd2 S10 3.009350 1_565
Gd3 S18 2.835348 1_455
Gd3 S1 2.843390 1_455
Gd3 S2 2.860699 1_555
Gd3 S13 2.875248 1_554
Gd3 S8 2.877960 1_455
Gd3 S17 2.882182 1_555
Gd3 S15 2.882823 1_455
Gd3 S11 3.009350 1_555
Gd4 S19 2.835348 1_555
Gd4 S6 2.843390 1_555
Gd4 S5 2.860699 1_555
Gd4 S12 2.875248 1_555
Gd4 S9 2.877960 1_555
Gd4 S16 2.882182 1_555
Gd4 S14 2.882823 1_555
Gd4 S10 3.009350 1_555
Gd5 S18 2.835348 1_465
Gd5 S7 2.843390 1_455
Gd5 S4 2.860699 1_565
Gd5 S13 2.875248 1_554
Gd5 S8 2.877960 1_455
Gd5 S17 2.882182 1_555
Gd5 S15 2.882823 1_465
Gd5 S11 3.009350 1_565
Gd6 S17 2.835348 1_545
Gd6 S4 2.843390 1_555
Gd6 S7 2.860699 1_545
Gd6 S14 2.875248 1_555
Gd6 S11 2.877960 1_555
Gd6 S18 2.882182 1_555
Gd6 S12 2.882823 1_545
Gd6 S8 3.009350 1_545
Gd7 S16 2.835348 1_655
Gd7 S5 2.843390 1_655
Gd7 S6 2.860699 1_555
Gd7 S15 2.875248 1_556
Gd7 S10 2.877960 1_655
Gd7 S19 2.882182 1_555
Gd7 S13 2.882823 1_655
Gd7 S9 3.009350 1_555
S0 Zr2 2.528979 1_565
S0 Zr0 2.670529 1_655
S1 Zr3 2.528979 1_555
S1 Zr1 2.670529 1_554
S2 Zr0 2.528979 1_555
S2 Zr2 2.670529 1_455
S3 Zr1 2.528979 1_545
S3 Zr3 2.670529 1_556
S4 Zr0 2.528979 1_545
S4 Zr2 2.670529 1_455
S5 Zr1 2.528979 1_555
S5 Zr3 2.670529 1_556
S6 Zr2 2.528979 1_555
S6 Zr0 2.670529 1_655
S7 Zr3 2.528979 1_565
S7 Zr1 2.670529 1_554
S8 Zr0 2.699721 1_655
S9 Zr1 2.699721 1_555
S10 Zr2 2.699721 1_455
S11 Zr3 2.699721 1_555
S12 Zr0 2.707973 1_555
S13 Zr1 2.707973 1_555
S14 Zr2 2.707973 1_555
S15 Zr3 2.707973 1_555
S16 Zr0 2.614844 1_555
S17 Zr1 2.614844 1_554
S18 Zr2 2.614844 1_555
S19 Zr3 2.614844 1_556
