# generated using pymatgen
data_Y2MnSbO7
_symmetry_space_group_name_H-M   'P 1'
_cell_length_a   7.32485370
_cell_length_b   7.32485370
_cell_length_c   7.32485370
_cell_angle_alpha   121.61639099
_cell_angle_beta   118.48489144
_cell_angle_gamma   89.93373463
_symmetry_Int_Tables_number   1
_chemical_formula_structural   Y2MnSbO7
_chemical_formula_sum   'Y4 Mn2 Sb2 O14'
_cell_volume   277.42317834
_cell_formula_units_Z   2
loop_
 _symmetry_equiv_pos_site_id
 _symmetry_equiv_pos_as_xyz
  1  'x, y, z'
loop_
 _atom_site_type_symbol
 _atom_site_label
 _atom_site_symmetry_multiplicity
 _atom_site_fract_x
 _atom_site_fract_y
 _atom_site_fract_z
 _atom_site_occupancy
  Y  Y0  1  0.50000000  0.50000000  0.50000000  1
  Y  Y1  1  0.50000000  0.00000000  0.00000000  1
  Y  Y2  1  0.50000000  0.50000000  0.00000000  1
  Y  Y3  1  0.00000000  0.50000000  0.50000000  1
  Mn  Mn0  1  0.00000000  0.00000000  0.50000000  1
  Mn  Mn1  1  0.00000000  0.50000000  0.00000000  1
  Sb  Sb0  1  0.00000000  0.00000000  0.00000000  1
  Sb  Sb1  1  0.50000000  0.00000000  0.50000000  1
  O  O0  1  0.37271900  0.62271900  0.75000000  1
  O  O1  1  0.62728100  0.37728100  0.25000000  1
  O  O2  1  0.32817000  0.07817000  0.25000000  1
  O  O3  1  0.91867400  0.66867400  0.25000000  1
  O  O4  1  0.34242500  0.66653600  0.25981400  1
  O  O5  1  0.90672200  0.08261100  0.24018600  1
  O  O6  1  0.34242500  0.08261100  0.67588900  1
  O  O7  1  0.90672200  0.66653600  0.82411100  1
  O  O8  1  0.67183000  0.92183000  0.75000000  1
  O  O9  1  0.08132600  0.33132600  0.75000000  1
  O  O10  1  0.65757500  0.33346400  0.74018600  1
  O  O11  1  0.09327800  0.91738900  0.75981400  1
  O  O12  1  0.65757500  0.91738900  0.32411100  1
  O  O13  1  0.09327800  0.33346400  0.17588900  1
loop_
_geom_bond_atom_site_label_1
_geom_bond_atom_site_label_2
_geom_bond_distance
_geom_bond_site_symmetry_2
Mn0 O3 1.975192 1_445
Mn0 O9 1.975192 1_555
Mn0 O6 2.102601 1_555
Mn0 O11 2.102601 1_545
Mn0 O12 2.102601 1_445
Mn0 O5 2.102601 1_455
Mn1 O9 1.975192 1_554
Mn1 O3 1.975192 1_455
Mn1 O4 2.102601 1_555
Mn1 O10 2.102601 1_454
Mn1 O13 2.102601 1_555
Mn1 O7 2.102601 1_454
O0 Y1 2.220647 1_566
O0 Y0 2.220647 1_555
O0 Y3 2.264066 1_555
O0 Y2 2.264066 1_556
O1 Y1 2.220647 1_555
O1 Y0 2.220647 1_555
O1 Y3 2.264066 1_655
O1 Y2 2.264066 1_555
O2 Sb1 2.040723 1_555
O2 Sb0 2.040723 1_555
O2 Y0 2.522460 1_555
O2 Y1 2.522460 1_555
O3 Y3 2.562147 1_655
O3 Y2 2.562147 1_555
O4 Sb1 1.989389 1_565
O4 Y2 2.469818 1_555
O4 Y0 2.495077 1_555
O5 Sb0 1.989389 1_655
O5 Y3 2.469818 1_655
O5 Y1 2.495077 1_555
O6 Sb1 1.989389 1_555
O6 Y2 2.469818 1_556
O6 Y1 2.495077 1_556
O7 Sb0 1.989389 1_666
O7 Y3 2.469818 1_655
O7 Y0 2.495077 1_555
O8 Sb0 2.040723 1_666
O8 Sb1 2.040723 1_565
O8 Y0 2.522460 1_555
O8 Y1 2.522460 1_566
O9 Y3 2.562147 1_555
O9 Y2 2.562147 1_556
O10 Sb1 1.989389 1_555
O10 Y2 2.469818 1_556
O10 Y0 2.495077 1_555
O11 Sb0 1.989389 1_566
O11 Y3 2.469818 1_555
O11 Y1 2.495077 1_566
O12 Sb1 1.989389 1_565
O12 Y2 2.469818 1_555
O12 Y1 2.495077 1_565
O13 Sb0 1.989389 1_555
O13 Y3 2.469818 1_555
O13 Y0 2.495077 1_555
