# generated using pymatgen
data_Er5(SiSb)2
_symmetry_space_group_name_H-M   'P 1'
_cell_length_a   8.40537573
_cell_length_b   8.40537573
_cell_length_c   7.78654937
_cell_angle_alpha   90.00000000
_cell_angle_beta   90.00000000
_cell_angle_gamma   124.97187857
_symmetry_Int_Tables_number   1
_chemical_formula_structural   Er5(SiSb)2
_chemical_formula_sum   'Er10 Si4 Sb4'
_cell_volume   450.78867816
_cell_formula_units_Z   2
loop_
 _symmetry_equiv_pos_site_id
 _symmetry_equiv_pos_as_xyz
  1  'x, y, z'
loop_
 _atom_site_type_symbol
 _atom_site_label
 _atom_site_symmetry_multiplicity
 _atom_site_fract_x
 _atom_site_fract_y
 _atom_site_fract_z
 _atom_site_occupancy
  Er  Er0  1  0.03963215  0.28977695  0.33525894  1
  Er  Er1  1  0.96036785  0.71022305  0.66474106  1
  Er  Er2  1  0.46036785  0.21022305  0.83525894  1
  Er  Er3  1  0.78977695  0.53963215  0.16474106  1
  Er  Er4  1  0.53963215  0.78977695  0.16474106  1
  Er  Er5  1  0.21022305  0.46036785  0.83525894  1
  Er  Er6  1  0.71022305  0.96036785  0.66474106  1
  Er  Er7  1  0.28977695  0.03963215  0.33525894  1
  Er  Er8  1  -0.00000000  0.00000000  0.00000000  1
  Er  Er9  1  0.50000000  0.50000000  0.50000000  1
  Si  Si0  1  0.36613647  0.36613647  0.13252611  1
  Si  Si1  1  0.63386353  0.63386353  0.86747389  1
  Si  Si2  1  0.13386353  0.13386353  0.63252611  1
  Si  Si3  1  0.86613647  0.86613647  0.36747389  1
  Sb  Sb0  1  0.79481346  0.20518654  0.00000000  1
  Sb  Sb1  1  0.20518754  0.79481346  0.00000000  1
  Sb  Sb2  1  0.70518654  0.29481346  0.50000000  1
  Sb  Sb3  1  0.29481346  0.70518654  0.50000000  1
loop_
_geom_bond_atom_site_label_1
_geom_bond_atom_site_label_2
_geom_bond_distance
_geom_bond_site_symmetry_2
Er0 Si0 2.901096 1_555
Er0 Si2 2.982021 1_555
Er0 Si3 2.986053 1_445
Er0 Sb2 3.112268 1_455
Er0 Sb3 3.138873 1_555
Er0 Sb0 3.142860 1_455
Er1 Si1 2.901096 1_555
Er1 Si3 2.982021 1_555
Er1 Si2 2.986053 1_665
Er1 Sb3 3.112268 1_655
Er1 Sb2 3.138873 1_555
Er1 Sb1 3.142865 1_656
Er2 Si2 2.901096 1_555
Er2 Si0 2.982021 1_556
Er2 Si1 2.986053 1_555
Er2 Sb0 3.112268 1_556
Er2 Sb1 3.138873 1_546
Er2 Sb2 3.142860 1_555
Er3 Si3 2.901096 1_555
Er3 Si1 2.982021 1_554
Er3 Si0 2.986053 1_555
Er3 Sb0 3.112268 1_555
Er3 Sb1 3.138879 1_655
Er3 Sb2 3.142860 1_555
Er4 Si3 2.901096 1_555
Er4 Si1 2.982021 1_554
Er4 Si0 2.986053 1_555
Er4 Sb1 3.112260 1_555
Er4 Sb0 3.138873 1_565
Er4 Sb3 3.142860 1_555
Er5 Si2 2.901096 1_555
Er5 Si0 2.982021 1_556
Er5 Si1 2.986053 1_555
Er5 Sb1 3.112264 1_556
Er5 Sb0 3.138873 1_456
Er5 Sb3 3.142860 1_555
Er6 Si1 2.901096 1_555
Er6 Si3 2.982021 1_555
Er6 Si2 2.986053 1_665
Er6 Sb2 3.112268 1_565
Er6 Sb3 3.138873 1_555
Er6 Sb0 3.142860 1_566
Er7 Si0 2.901096 1_555
Er7 Si2 2.982021 1_555
Er7 Si3 2.986053 1_445
Er7 Sb3 3.112268 1_545
Er7 Sb2 3.138873 1_555
Er7 Sb1 3.142862 1_545
Er8 Si1 3.024876 1_444
Er8 Si0 3.024876 1_555
Er8 Si3 3.044352 1_445
Er8 Si2 3.044352 1_554
Er8 Sb0 3.059211 1_455
Er8 Sb1 3.059218 1_545
Er9 Si2 3.024876 1_555
Er9 Si3 3.024876 1_555
Er9 Si0 3.044352 1_555
Er9 Si1 3.044352 1_555
Er9 Sb3 3.059211 1_555
Er9 Sb2 3.059211 1_555
