# generated using pymatgen
data_Yb3Cu11Si4
_symmetry_space_group_name_H-M   'P 1'
_cell_length_a   8.32374644
_cell_length_b   8.32374644
_cell_length_c   8.63700000
_cell_angle_alpha   90.00000000
_cell_angle_beta   90.00000000
_cell_angle_gamma   120.00000351
_symmetry_Int_Tables_number   1
_chemical_formula_structural   Yb3Cu11Si4
_chemical_formula_sum   'Yb6 Cu22 Si8'
_cell_volume   518.24034571
_cell_formula_units_Z   2
loop_
 _symmetry_equiv_pos_site_id
 _symmetry_equiv_pos_as_xyz
  1  'x, y, z'
loop_
 _atom_site_type_symbol
 _atom_site_label
 _atom_site_symmetry_multiplicity
 _atom_site_fract_x
 _atom_site_fract_y
 _atom_site_fract_z
 _atom_site_occupancy
  Yb  Yb0  1  0.80197900  0.19802000  0.75000000  1
  Yb  Yb1  1  0.19802000  0.80197900  0.25000000  1
  Yb  Yb2  1  0.39604100  0.19802000  0.75000000  1
  Yb  Yb3  1  0.60395900  0.80197900  0.25000000  1
  Yb  Yb4  1  0.80197900  0.60395900  0.75000000  1
  Yb  Yb5  1  0.19802000  0.39604100  0.25000000  1
  Cu  Cu0  1  0.85009300  0.14990700  0.40911800  1
  Cu  Cu1  1  0.14990700  0.85009300  0.59088200  1
  Cu  Cu2  1  0.29981300  0.14990700  0.40911800  1
  Cu  Cu3  1  0.14990700  0.85009300  0.90911800  1
  Cu  Cu4  1  0.70018700  0.85009300  0.59088200  1
  Cu  Cu5  1  0.85009300  0.14990700  0.09088200  1
  Cu  Cu6  1  0.85009300  0.70018700  0.40911800  1
  Cu  Cu7  1  0.70018700  0.85009300  0.90911800  1
  Cu  Cu8  1  0.14990700  0.29981300  0.59088200  1
  Cu  Cu9  1  0.29981300  0.14990700  0.09088200  1
  Cu  Cu10  1  0.14990700  0.29981300  0.90911800  1
  Cu  Cu11  1  0.85009300  0.70018700  0.09088200  1
  Cu  Cu12  1  0.43639600  0.56360400  0.75000000  1
  Cu  Cu13  1  0.56360400  0.43639600  0.25000000  1
  Cu  Cu14  1  0.12720800  0.56360400  0.75000000  1
  Cu  Cu15  1  0.87279200  0.43639600  0.25000000  1
  Cu  Cu16  1  0.43639600  0.87279200  0.75000000  1
  Cu  Cu17  1  0.56360400  0.12720800  0.25000000  1
  Cu  Cu18  1  0.66666700  0.33333300  0.00977000  1
  Cu  Cu19  1  0.33333300  0.66666700  0.99023000  1
  Cu  Cu20  1  0.33333300  0.66666700  0.50977000  1
  Cu  Cu21  1  0.66666700  0.33333300  0.49023000  1
  Si  Si0  1  0.50000000  0.50000000  0.00000000  1
  Si  Si1  1  0.00000000  0.50000000  0.00000000  1
  Si  Si2  1  0.50000000  0.50000000  0.50000000  1
  Si  Si3  1  0.50000000  0.00000000  0.00000000  1
  Si  Si4  1  0.00000000  0.50000000  0.50000000  1
  Si  Si5  1  0.50000000  0.00000000  0.50000000  1
  Si  Si6  1  0.00000000  0.00000000  0.75000000  1
  Si  Si7  1  0.00000000  0.00000000  0.25000000  1
loop_
_geom_bond_atom_site_label_1
_geom_bond_atom_site_label_2
_geom_bond_distance
_geom_bond_site_symmetry_2
Cu0 Si7 2.561178 1_655
Cu0 Si4 2.651198 1_655
Cu0 Si5 2.651198 1_555
Cu0 Cu8 2.671235 1_655
Cu0 Cu4 2.671235 1_545
Cu0 Cu17 2.675903 1_555
Cu0 Cu15 2.675903 1_555
Cu0 Cu21 2.735702 1_555
Cu0 Cu5 2.748604 1_555
Cu0 Yb5 2.922317 1_655
Cu0 Yb3 2.922322 1_545
Cu0 Yb0 3.024808 1_555
Cu1 Si6 2.561178 1_565
Cu1 Si4 2.651198 1_555
Cu1 Si5 2.651198 1_565
Cu1 Cu2 2.671235 1_565
Cu1 Cu6 2.671235 1_455
Cu1 Cu16 2.675903 1_555
Cu1 Cu14 2.675903 1_555
Cu1 Cu20 2.735702 1_555
Cu1 Cu3 2.748604 1_555
Cu1 Yb2 2.922317 1_565
Cu1 Yb4 2.922322 1_455
Cu1 Yb1 3.024808 1_555
Cu2 Si7 2.561171 1_555
Cu2 Si2 2.651199 1_555
Cu2 Si5 2.651205 1_555
Cu2 Cu8 2.671223 1_555
Cu2 Cu21 2.735716 1_555
Cu2 Cu9 2.748604 1_555
Cu2 Yb5 2.922317 1_555
Cu2 Yb1 2.922324 1_545
Cu2 Yb2 3.024810 1_555
Cu3 Si6 2.561178 1_565
Cu3 Si1 2.651198 1_556
Cu3 Si3 2.651198 1_566
Cu3 Cu9 2.671235 1_566
Cu3 Yb2 2.922317 1_565
Cu3 Yb4 2.922322 1_455
Cu3 Yb1 3.024808 1_556
Cu4 Si6 2.561171 1_665
Cu4 Si2 2.651199 1_555
Cu4 Si5 2.651205 1_565
Cu4 Cu6 2.671223 1_555
Cu4 Cu7 2.748604 1_555
Cu4 Yb4 2.922312 1_555
Cu4 Yb0 2.922319 1_565
Cu4 Yb3 3.024810 1_555
Cu5 Si7 2.561178 1_655
Cu5 Si1 2.651198 1_655
Cu5 Si3 2.651198 1_555
Cu5 Cu7 2.671235 1_544
Cu5 Yb5 2.922317 1_655
Cu5 Yb3 2.922322 1_545
Cu5 Yb0 3.024808 1_554
Cu6 Si7 2.561171 1_665
Cu6 Si2 2.651199 1_555
Cu6 Si4 2.651205 1_655
Cu6 Yb3 2.922312 1_555
Cu6 Yb1 2.922319 1_655
Cu6 Yb4 3.024810 1_555
Cu7 Si6 2.561171 1_665
Cu7 Si0 2.651199 1_556
Cu7 Si3 2.651205 1_566
Cu7 Yb4 2.922312 1_555
Cu7 Yb0 2.922319 1_565
Cu7 Yb3 3.024810 1_556
Cu8 Si6 2.561171 1_555
Cu8 Si2 2.651199 1_555
Cu8 Si4 2.651205 1_555
Cu8 Yb2 2.922317 1_555
Cu8 Yb0 2.922324 1_455
Cu8 Yb5 3.024810 1_555
Cu9 Si7 2.561171 1_555
Cu9 Si0 2.651199 1_555
Cu9 Si3 2.651205 1_555
Cu9 Yb5 2.922317 1_555
Cu9 Yb1 2.922324 1_545
Cu9 Yb2 3.024810 1_554
Cu10 Si6 2.561171 1_555
Cu10 Si0 2.651199 1_556
Cu10 Si1 2.651205 1_556
Cu10 Cu9 2.671223 1_556
Cu10 Cu5 2.671235 1_456
Cu10 Cu12 2.675906 1_555
Cu10 Cu14 2.675910 1_555
Cu10 Cu19 2.735716 1_555
Cu10 Cu8 2.748604 1_555
Cu10 Yb2 2.922317 1_555
Cu10 Yb0 2.922324 1_455
Cu10 Yb5 3.024810 1_556
Cu11 Si7 2.561171 1_665
Cu11 Si0 2.651199 1_555
Cu11 Si1 2.651205 1_655
Cu11 Cu7 2.671223 1_554
Cu11 Cu3 2.671235 1_654
Cu11 Cu13 2.675906 1_555
Cu11 Cu15 2.675910 1_555
Cu11 Cu18 2.735716 1_555
Cu11 Cu6 2.748604 1_555
Cu11 Yb3 2.922312 1_555
Cu11 Yb1 2.922319 1_655
Cu11 Yb4 3.024810 1_554
Cu12 Si0 2.345896 1_556
Cu12 Si2 2.345896 1_555
Cu12 Cu20 2.552037 1_555
Cu12 Cu19 2.552037 1_555
Cu12 Cu16 2.573603 1_555
Cu12 Cu14 2.573603 1_555
Cu12 Cu4 2.675906 1_555
Cu12 Cu8 2.675906 1_555
Cu12 Cu7 2.675906 1_555
Cu12 Yb4 2.889747 1_555
Cu12 Yb2 2.889755 1_555
Cu13 Si2 2.345896 1_555
Cu13 Si0 2.345896 1_555
Cu13 Cu18 2.552037 1_555
Cu13 Cu21 2.552037 1_555
Cu13 Cu17 2.573603 1_555
Cu13 Cu15 2.573603 1_555
Cu13 Cu6 2.675906 1_555
Cu13 Cu2 2.675906 1_555
Cu13 Cu9 2.675906 1_555
Cu13 Yb3 2.889747 1_555
Cu13 Yb5 2.889755 1_555
Cu14 Si4 2.345896 1_555
Cu14 Si1 2.345896 1_556
Cu14 Cu19 2.552033 1_555
Cu14 Cu20 2.552033 1_555
Cu14 Cu16 2.573602 1_555
Cu14 Cu3 2.675903 1_555
Cu14 Cu8 2.675910 1_555
Cu14 Yb0 2.889755 1_455
Cu14 Yb4 2.889755 1_455
Cu15 Si1 2.345896 1_655
Cu15 Si4 2.345896 1_655
Cu15 Cu21 2.552033 1_555
Cu15 Cu18 2.552033 1_555
Cu15 Cu17 2.573602 1_555
Cu15 Cu5 2.675903 1_555
Cu15 Cu6 2.675910 1_555
Cu15 Yb1 2.889747 1_655
Cu15 Yb5 2.889747 1_655
Cu16 Si3 2.345896 1_566
Cu16 Si5 2.345896 1_565
Cu16 Cu19 2.552033 1_555
Cu16 Cu20 2.552033 1_555
Cu16 Cu3 2.675903 1_555
Cu16 Cu7 2.675910 1_555
Cu16 Cu4 2.675910 1_555
Cu16 Yb0 2.889747 1_565
Cu16 Yb2 2.889747 1_565
Cu17 Si3 2.345896 1_555
Cu17 Si5 2.345896 1_555
Cu17 Cu21 2.552033 1_555
Cu17 Cu18 2.552033 1_555
Cu17 Cu5 2.675903 1_555
Cu17 Cu2 2.675910 1_555
Cu17 Cu9 2.675910 1_555
Cu17 Yb1 2.889755 1_545
Cu17 Yb3 2.889755 1_545
Cu18 Si1 2.404337 1_655
Cu18 Si3 2.404337 1_555
Cu18 Si0 2.404345 1_555
Cu18 Cu5 2.735702 1_555
Cu18 Cu9 2.735716 1_555
Cu18 Yb0 2.973145 1_554
Cu18 Yb2 2.973150 1_554
Cu18 Yb4 2.973150 1_554
Cu19 Si3 2.404337 1_566
Cu19 Si1 2.404337 1_556
Cu19 Si0 2.404345 1_556
Cu19 Cu3 2.735702 1_555
Cu19 Cu7 2.735716 1_555
Cu19 Yb1 2.973145 1_556
Cu19 Yb5 2.973150 1_556
Cu19 Yb3 2.973150 1_556
Cu20 Si5 2.404337 1_565
Cu20 Si4 2.404337 1_555
Cu20 Si2 2.404345 1_555
Cu20 Cu4 2.735716 1_555
Cu20 Cu8 2.735716 1_555
Cu20 Yb1 2.973145 1_555
Cu20 Yb5 2.973150 1_555
Cu20 Yb3 2.973150 1_555
Cu21 Si4 2.404337 1_655
Cu21 Si5 2.404337 1_555
Cu21 Si2 2.404345 1_555
Cu21 Cu6 2.735716 1_555
Cu21 Yb0 2.973145 1_555
Cu21 Yb2 2.973150 1_555
Cu21 Yb4 2.973150 1_555
Si0 Yb4 3.090993 1_554
Si0 Yb3 3.090993 1_555
Si0 Yb5 3.090998 1_555
Si0 Yb2 3.090998 1_554
Si1 Yb1 3.090993 1_555
Si1 Yb5 3.090993 1_555
Si1 Yb0 3.090998 1_454
Si1 Yb4 3.090998 1_454
Si2 Yb3 3.090993 1_555
Si2 Yb4 3.090993 1_555
Si2 Yb2 3.090998 1_555
Si2 Yb5 3.090998 1_555
Si3 Yb0 3.090993 1_554
Si3 Yb2 3.090993 1_554
Si3 Yb1 3.090998 1_545
Si3 Yb3 3.090998 1_545
Si4 Yb1 3.090993 1_555
Si4 Yb5 3.090993 1_555
Si4 Yb0 3.090998 1_455
Si4 Yb4 3.090998 1_455
Si5 Yb0 3.090993 1_555
Si5 Yb2 3.090993 1_555
Si5 Yb1 3.090998 1_545
Si5 Yb3 3.090998 1_545
Si6 Yb4 2.854891 1_445
Si6 Yb2 2.854891 1_555
Si6 Yb0 2.854892 1_455
Si7 Yb3 2.854891 1_445
Si7 Yb5 2.854891 1_555
Si7 Yb1 2.854892 1_545
