# generated using pymatgen
data_TbCO4
_symmetry_space_group_name_H-M   'P 1'
_cell_length_a   12.14705370
_cell_length_b   12.14705370
_cell_length_c   9.71301600
_cell_angle_alpha   90.00000000
_cell_angle_beta   90.00000000
_cell_angle_gamma   119.99999837
_symmetry_Int_Tables_number   1
_chemical_formula_structural   TbCO4
_chemical_formula_sum   'Tb18 C18 O72'
_cell_volume   1241.15678538
_cell_formula_units_Z   18
loop_
 _symmetry_equiv_pos_site_id
 _symmetry_equiv_pos_as_xyz
  1  'x, y, z'
loop_
 _atom_site_type_symbol
 _atom_site_label
 _atom_site_symmetry_multiplicity
 _atom_site_fract_x
 _atom_site_fract_y
 _atom_site_fract_z
 _atom_site_occupancy
  Tb  Tb0  1  0.77883500  0.21480500  0.73983900  1
  Tb  Tb1  1  0.78519500  0.56403100  0.73983900  1
  Tb  Tb2  1  0.43596900  0.22116500  0.73983900  1
  Tb  Tb3  1  0.77883500  0.21480500  0.26016100  1
  Tb  Tb4  1  0.78519500  0.56403100  0.26016100  1
  Tb  Tb5  1  0.43596900  0.22116500  0.26016100  1
  Tb  Tb6  1  0.44514400  0.54870500  0.75682000  1
  Tb  Tb7  1  0.45129500  0.89643900  0.75682000  1
  Tb  Tb8  1  0.10356100  0.55485600  0.75682000  1
  Tb  Tb9  1  0.44514400  0.54870500  0.24318000  1
  Tb  Tb10  1  0.45129500  0.89643900  0.24318000  1
  Tb  Tb11  1  0.10356100  0.55485600  0.24318000  1
  Tb  Tb12  1  0.10972600  0.23068900  0.75609500  1
  Tb  Tb13  1  0.76931100  0.87903700  0.75609500  1
  Tb  Tb14  1  0.12096300  0.89027400  0.75609500  1
  Tb  Tb15  1  0.10972600  0.23068900  0.24390500  1
  Tb  Tb16  1  0.76931100  0.87903700  0.24390500  1
  Tb  Tb17  1  0.12096300  0.89027400  0.24390500  1
  C  C0  1  0.52846200  0.68551400  0.50000000  1
  C  C1  1  0.31448600  0.84294800  0.50000000  1
  C  C2  1  0.15705200  0.47153800  0.50000000  1
  C  C3  1  0.57435100  0.12950400  0.50000000  1
  C  C4  1  0.87049600  0.44484700  0.50000000  1
  C  C5  1  0.55515300  0.42564900  0.50000000  1
  C  C6  1  0.97257700  0.17012700  0.50000000  1
  C  C7  1  0.82987300  0.80244900  0.50000000  1
  C  C8  1  0.19755100  0.02742300  0.50000000  1
  C  C9  1  0.21887900  0.46175100  0.00000000  1
  C  C10  1  0.53824900  0.75712800  0.00000000  1
  C  C11  1  0.24287200  0.78112100  0.00000000  1
  C  C12  1  0.20504700  0.09756100  0.00000000  1
  C  C13  1  0.90243900  0.10748600  0.00000000  1
  C  C14  1  0.89251400  0.79495300  0.00000000  1
  C  C15  1  0.64612300  0.13273900  0.00000000  1
  C  C16  1  0.86726100  0.51338400  0.00000000  1
  C  C17  1  0.48661600  0.35387700  0.00000000  1
  O  O0  1  0.42355100  0.57619900  0.50000000  1
  O  O1  1  0.42380100  0.84735200  0.50000000  1
  O  O2  1  0.15264800  0.57644900  0.50000000  1
  O  O3  1  0.57772400  0.73514200  0.61761100  1
  O  O4  1  0.26485800  0.84258200  0.61761100  1
  O  O5  1  0.15741800  0.42227600  0.61761100  1
  O  O6  1  0.57772400  0.73514200  0.38238900  1
  O  O7  1  0.26485800  0.84258200  0.38238900  1
  O  O8  1  0.15741800  0.42227600  0.38238900  1
  O  O9  1  0.69759600  0.19237500  0.50000000  1
  O  O10  1  0.80762500  0.50522100  0.50000000  1
  O  O11  1  0.49477900  0.30240400  0.50000000  1
  O  O12  1  0.90059600  0.41561200  0.61680500  1
  O  O13  1  0.58438800  0.48498500  0.61680500  1
  O  O14  1  0.51501500  0.09940400  0.61680500  1
  O  O15  1  0.90059600  0.41561200  0.38319500  1
  O  O16  1  0.58438800  0.48498500  0.38319500  1
  O  O17  1  0.51501500  0.09940400  0.38319500  1
  O  O18  1  0.08149400  0.17495100  0.50000000  1
  O  O19  1  0.82504900  0.90654300  0.50000000  1
  O  O20  1  0.09345700  0.91850600  0.50000000  1
  O  O21  1  0.92233400  0.17024700  0.61688800  1
  O  O22  1  0.82975300  0.75208800  0.61688800  1
  O  O23  1  0.24791200  0.07766600  0.61688800  1
  O  O24  1  0.92233400  0.17024700  0.38311200  1
  O  O25  1  0.82975300  0.75208800  0.38311200  1
  O  O26  1  0.24791200  0.07766600  0.38311200  1
  O  O27  1  0.47168000  0.63445700  0.00000000  1
  O  O28  1  0.36554300  0.83722300  0.00000000  1
  O  O29  1  0.16277700  0.52832000  0.00000000  1
  O  O30  1  0.24611000  0.42856300  0.88392100  1
  O  O31  1  0.57143700  0.81754700  0.88392100  1
  O  O32  1  0.18245300  0.75389000  0.88392100  1
  O  O33  1  0.24611000  0.42856300  0.11607900  1
  O  O34  1  0.57143700  0.81754700  0.11607900  1
  O  O35  1  0.18245300  0.75389000  0.11607900  1
  O  O36  1  0.02566800  0.17314800  0.00000000  1
  O  O37  1  0.82685200  0.85252100  0.00000000  1
  O  O38  1  0.14747900  0.97433200  0.00000000  1
  O  O39  1  0.23274800  0.15724600  0.88348000  1
  O  O40  1  0.84275400  0.07550200  0.88348000  1
  O  O41  1  0.92449800  0.76725200  0.88348000  1
  O  O42  1  0.23274800  0.15724600  0.11652000  1
  O  O43  1  0.84275400  0.07550200  0.11652000  1
  O  O44  1  0.92449800  0.76725200  0.11652000  1
  O  O45  1  0.75416800  0.23821400  0.00000000  1
  O  O46  1  0.76178600  0.51595400  0.00000000  1
  O  O47  1  0.48404600  0.24583200  0.00000000  1
  O  O48  1  0.59578100  0.08207000  0.88335300  1
  O  O49  1  0.91793000  0.51371100  0.88335300  1
  O  O50  1  0.48628900  0.40421900  0.88335300  1
  O  O51  1  0.59578100  0.08207000  0.11664700  1
  O  O52  1  0.91793000  0.51371100  0.11664700  1
  O  O53  1  0.48628900  0.40421900  0.11664700  1
  O  O54  1  0.66666700  0.33333300  0.75771800  1
  O  O55  1  0.66666700  0.33333300  0.24228200  1
  O  O56  1  0.33333300  0.66666700  0.74707200  1
  O  O57  1  0.33333300  0.66666700  0.25292800  1
  O  O58  1  0.00000000  0.00000000  0.74456800  1
  O  O59  1  0.00000000  0.00000000  0.25543200  1
  O  O60  1  0.66450600  0.65645900  0.80982800  1
  O  O61  1  0.34354100  0.00804700  0.80982800  1
  O  O62  1  0.99195300  0.33549400  0.80982800  1
  O  O63  1  0.66450600  0.65645900  0.19017200  1
  O  O64  1  0.34354100  0.00804700  0.19017200  1
  O  O65  1  0.99195300  0.33549400  0.19017200  1
  O  O66  1  0.32466100  0.33215400  0.69168200  1
  O  O67  1  0.66784600  0.99250700  0.69168200  1
  O  O68  1  0.00749300  0.67533900  0.69168200  1
  O  O69  1  0.32466100  0.33215400  0.30831800  1
  O  O70  1  0.66784600  0.99250700  0.30831800  1
  O  O71  1  0.00749300  0.67533900  0.30831800  1
loop_
_geom_bond_atom_site_label_1
_geom_bond_atom_site_label_2
_geom_bond_distance
_geom_bond_site_symmetry_2
C0 O6 1.290631 1_555
C0 O3 1.290631 1_555
C0 O0 1.301932 1_555
C1 O7 1.290631 1_555
C1 O4 1.290631 1_555
C1 O1 1.301932 1_555
C2 O8 1.290631 1_555
C2 O5 1.290631 1_555
C2 O2 1.301932 1_555
C3 O17 1.294914 1_555
C3 O14 1.294914 1_555
C3 O9 1.296584 1_555
C4 O15 1.294909 1_555
C4 O12 1.294909 1_555
C4 O10 1.296584 1_555
C5 O16 1.294914 1_555
C5 O13 1.294914 1_555
C5 O11 1.296584 1_555
C6 O21 1.289321 1_555
C6 O24 1.289321 1_555
C6 O18 1.294717 1_655
C7 O22 1.289310 1_555
C7 O25 1.289310 1_555
C7 O19 1.294729 1_555
C8 O26 1.289315 1_555
C8 O23 1.289315 1_555
C8 O20 1.294723 1_545
C9 O29 1.292022 1_555
C9 O33 1.294791 1_555
C9 O30 1.294791 1_554
C10 O27 1.292022 1_555
C10 O34 1.294791 1_555
C10 O31 1.294791 1_554
C11 O28 1.292022 1_555
C11 O35 1.294791 1_555
C11 O32 1.294791 1_554
C12 O39 1.294517 1_554
C12 O42 1.294517 1_555
C12 O38 1.297258 1_545
C13 O40 1.294517 1_554
C13 O43 1.294517 1_555
C13 O36 1.297259 1_655
C14 O41 1.294517 1_554
C14 O44 1.294517 1_555
C14 O37 1.297269 1_555
C15 O48 1.288434 1_554
C15 O51 1.288434 1_555
C15 O45 1.297101 1_555
C16 O49 1.288434 1_554
C16 O52 1.288434 1_555
C16 O46 1.297101 1_555
C17 O50 1.288434 1_554
C17 O53 1.288434 1_555
C17 O47 1.297101 1_555
O0 Tb9 2.547635 1_555
O0 Tb6 2.547635 1_555
O1 Tb10 2.547635 1_555
O1 Tb7 2.547635 1_555
O2 Tb11 2.547635 1_555
O2 Tb8 2.547635 1_555
O3 Tb6 2.429691 1_555
O3 Tb13 2.492517 1_555
O4 Tb7 2.429691 1_555
O4 Tb14 2.492517 1_555
O5 Tb8 2.429691 1_555
O5 Tb12 2.492517 1_555
O6 Tb9 2.429691 1_555
O6 Tb16 2.492517 1_555
O7 Tb10 2.429691 1_555
O7 Tb17 2.492517 1_555
O8 Tb11 2.429691 1_555
O8 Tb15 2.492517 1_555
O9 Tb0 2.491189 1_555
O9 Tb3 2.491189 1_555
O10 Tb4 2.491193 1_555
O10 Tb1 2.491193 1_555
O11 Tb5 2.491190 1_555
O11 Tb2 2.491190 1_555
O12 Tb0 2.440845 1_555
O12 Tb8 2.572675 1_655
O13 Tb1 2.440845 1_555
O13 Tb6 2.572667 1_555
O14 Tb2 2.440845 1_555
O14 Tb7 2.572677 1_545
O15 Tb3 2.440845 1_555
O15 Tb11 2.572675 1_655
O16 Tb4 2.440845 1_555
O16 Tb9 2.572667 1_555
O17 Tb5 2.440845 1_555
O17 Tb10 2.572677 1_545
O18 Tb15 2.555631 1_555
O18 Tb12 2.555631 1_555
O19 Tb16 2.555631 1_555
O19 Tb13 2.555631 1_555
O20 Tb14 2.555631 1_555
O20 Tb17 2.555631 1_555
O21 Tb0 2.387662 1_555
O21 Tb12 2.424338 1_655
O22 Tb1 2.387662 1_555
O22 Tb13 2.424329 1_555
O23 Tb2 2.387662 1_555
O23 Tb14 2.424336 1_545
O24 Tb3 2.387662 1_555
O24 Tb15 2.424338 1_655
O25 Tb4 2.387662 1_555
O25 Tb16 2.424329 1_555
O26 Tb5 2.387662 1_555
O26 Tb17 2.424336 1_545
O27 Tb6 2.536187 1_554
O27 Tb9 2.536187 1_555
O28 Tb7 2.536187 1_554
O28 Tb10 2.536187 1_555
O29 Tb8 2.536187 1_554
O29 Tb11 2.536187 1_555
O30 Tb6 2.443504 1_555
O30 Tb12 2.466037 1_555
O31 Tb7 2.443504 1_555
O31 Tb13 2.466037 1_555
O32 Tb8 2.443504 1_555
O32 Tb14 2.466037 1_555
O33 Tb9 2.443504 1_555
O33 Tb15 2.466037 1_555
O34 Tb10 2.443504 1_555
O34 Tb16 2.466037 1_555
O35 Tb11 2.443504 1_555
O35 Tb17 2.466037 1_555
O36 Tb15 2.535712 1_555
O36 Tb12 2.535712 1_554
O37 Tb13 2.535709 1_554
O37 Tb16 2.535709 1_555
O38 Tb17 2.535713 1_555
O38 Tb14 2.535713 1_554
O39 Tb12 2.427550 1_555
O39 Tb2 2.593534 1_555
O40 Tb13 2.427550 1_545
O40 Tb0 2.593544 1_555
O41 Tb14 2.427550 1_655
O41 Tb1 2.593536 1_555
O42 Tb15 2.427550 1_555
O42 Tb5 2.593534 1_555
O43 Tb16 2.427550 1_545
O43 Tb3 2.593544 1_555
O44 Tb17 2.427550 1_655
O44 Tb4 2.593536 1_555
O45 Tb0 2.577072 1_554
O45 Tb3 2.577072 1_555
O46 Tb4 2.577074 1_555
O46 Tb1 2.577074 1_554
O47 Tb5 2.577074 1_555
O47 Tb2 2.577074 1_554
O48 Tb7 2.391181 1_545
O48 Tb0 2.429372 1_555
O49 Tb8 2.391181 1_655
O49 Tb1 2.429379 1_555
O50 Tb6 2.391181 1_555
O50 Tb2 2.429370 1_555
O51 Tb10 2.391181 1_545
O51 Tb3 2.429372 1_555
O52 Tb11 2.391181 1_655
O52 Tb4 2.429379 1_555
O53 Tb9 2.391181 1_555
O53 Tb5 2.429370 1_555
O54 Tb0 2.433355 1_555
O54 Tb1 2.433376 1_555
O54 Tb2 2.433376 1_555
O55 Tb3 2.433355 1_555
O55 Tb4 2.433376 1_555
O55 Tb5 2.433376 1_555
O56 Tb8 2.419265 1_555
O56 Tb7 2.419265 1_555
O56 Tb6 2.419275 1_555
O57 Tb11 2.419265 1_555
O57 Tb10 2.419265 1_555
O57 Tb9 2.419275 1_555
O58 Tb14 2.430309 1_545
O58 Tb12 2.430309 1_555
O58 Tb13 2.430309 1_445
O59 Tb17 2.430309 1_545
O59 Tb15 2.430309 1_555
O59 Tb16 2.430309 1_445
O60 Tb1 2.348998 1_555
O60 Tb6 2.364469 1_555
O60 Tb13 2.400199 1_555
O61 Tb2 2.349008 1_555
O61 Tb7 2.364469 1_545
O61 Tb14 2.400199 1_545
O62 Tb0 2.349007 1_555
O62 Tb8 2.364469 1_655
O62 Tb12 2.400199 1_655
O63 Tb4 2.348998 1_555
O63 Tb9 2.364469 1_555
O63 Tb16 2.400199 1_555
O64 Tb5 2.349008 1_555
O64 Tb10 2.364469 1_545
O64 Tb17 2.400199 1_545
O65 Tb3 2.349007 1_555
O65 Tb11 2.364469 1_655
O65 Tb15 2.400199 1_655
O66 Tb12 2.347139 1_555
O66 Tb6 2.368915 1_555
O66 Tb2 2.384810 1_555
O67 Tb13 2.347139 1_555
O67 Tb7 2.368915 1_555
O67 Tb0 2.384821 1_565
O68 Tb14 2.347139 1_555
O68 Tb8 2.368915 1_555
O68 Tb1 2.384821 1_455
O69 Tb15 2.347139 1_555
O69 Tb9 2.368915 1_555
O69 Tb5 2.384810 1_555
O70 Tb16 2.347139 1_555
O70 Tb10 2.368915 1_555
O70 Tb3 2.384821 1_565
O71 Tb17 2.347139 1_555
O71 Tb11 2.368915 1_555
O71 Tb4 2.384821 1_455
