# generated using pymatgen
data_Ge3Rh2S3
_symmetry_space_group_name_H-M   'P 1'
_cell_length_a   8.31636982
_cell_length_b   8.31636982
_cell_length_c   8.31636960
_cell_angle_alpha   89.80927677
_cell_angle_beta   89.80927676
_cell_angle_gamma   89.80928168
_symmetry_Int_Tables_number   1
_chemical_formula_structural   Ge3Rh2S3
_chemical_formula_sum   'Ge12 Rh8 S12'
_cell_volume   575.16727369
_cell_formula_units_Z   4
loop_
 _symmetry_equiv_pos_site_id
 _symmetry_equiv_pos_as_xyz
  1  'x, y, z'
loop_
 _atom_site_type_symbol
 _atom_site_label
 _atom_site_symmetry_multiplicity
 _atom_site_fract_x
 _atom_site_fract_y
 _atom_site_fract_z
 _atom_site_occupancy
  Ge  Ge0  1  0.85638075  0.65881826  0.00184309  1
  Ge  Ge1  1  0.00184309  0.85638075  0.65881826  1
  Ge  Ge2  1  0.65881826  0.00184309  0.85638075  1
  Ge  Ge3  1  0.14361925  0.34118174  0.99815691  1
  Ge  Ge4  1  0.99815691  0.14361925  0.34118174  1
  Ge  Ge5  1  0.34118174  0.99815691  0.14361925  1
  Ge  Ge6  1  0.64438272  0.15787242  0.50278199  1
  Ge  Ge7  1  0.50278199  0.64438272  0.15787242  1
  Ge  Ge8  1  0.15787242  0.50278199  0.64438272  1
  Ge  Ge9  1  0.35561728  0.84212758  0.49721801  1
  Ge  Ge10  1  0.49721801  0.35561728  0.84212758  1
  Ge  Ge11  1  0.84212758  0.49721801  0.35561728  1
  Rh  Rh0  1  0.74853661  0.74853661  0.74853661  1
  Rh  Rh1  1  0.25146339  0.25146339  0.25146339  1
  Rh  Rh2  1  0.24610197  0.24897576  0.74668570  1
  Rh  Rh3  1  0.74668570  0.24610197  0.24897576  1
  Rh  Rh4  1  0.24897576  0.74668570  0.24610197  1
  Rh  Rh5  1  0.75389803  0.75102424  0.25331430  1
  Rh  Rh6  1  0.25331430  0.75389803  0.75102424  1
  Rh  Rh7  1  0.75102424  0.25331430  0.75389803  1
  S  S0  1  0.00028108  0.85888680  0.35470403  1
  S  S1  1  0.35470403  0.00028108  0.85888680  1
  S  S2  1  0.85888680  0.35470403  0.00028108  1
  S  S3  1  0.64005767  0.85443977  0.50362044  1
  S  S4  1  0.50362044  0.64005767  0.85443977  1
  S  S5  1  0.85443977  0.50362044  0.64005767  1
  S  S6  1  0.35994233  0.14556023  0.49637956  1
  S  S7  1  0.49637956  0.35994233  0.14556023  1
  S  S8  1  0.14556023  0.49637956  0.35994233  1
  S  S9  1  0.64529597  0.99971892  0.14111320  1
  S  S10  1  0.14111320  0.64529597  0.99971892  1
  S  S11  1  0.99971892  0.14111320  0.64529597  1
loop_
_geom_bond_atom_site_label_1
_geom_bond_atom_site_label_2
_geom_bond_distance
_geom_bond_site_symmetry_2
Ge0 S10 2.370245 1_654
Ge0 Rh5 2.383802 1_555
Ge0 Rh0 2.407586 1_554
Ge0 S2 2.529219 1_555
Ge1 S11 2.370245 1_465
Ge1 Rh6 2.383802 1_555
Ge1 Rh0 2.407586 1_455
Ge1 S0 2.529219 1_555
Ge2 S9 2.370245 1_546
Ge2 Rh7 2.383802 1_555
Ge2 Rh0 2.407586 1_545
Ge2 S1 2.529219 1_555
Ge3 S2 2.370245 1_456
Ge3 Rh2 2.383802 1_555
Ge3 Rh1 2.407586 1_556
Ge3 S10 2.529219 1_555
Ge4 S0 2.370245 1_645
Ge4 Rh3 2.383802 1_555
Ge4 Rh1 2.407586 1_655
Ge4 S11 2.529219 1_555
Ge5 S1 2.370245 1_564
Ge5 Rh4 2.383802 1_555
Ge5 Rh1 2.407586 1_565
Ge5 S9 2.529219 1_555
Ge6 S6 2.368850 1_555
Ge6 Rh3 2.387336 1_555
Ge6 Rh7 2.409544 1_555
Ge6 S3 2.523820 1_545
Ge7 S7 2.368850 1_555
Ge7 Rh4 2.387336 1_555
Ge7 Rh5 2.409544 1_555
Ge7 S4 2.523820 1_554
Ge8 S8 2.368850 1_555
Ge8 Rh2 2.387336 1_555
Ge8 Rh6 2.409544 1_555
Ge8 S5 2.523820 1_455
Ge9 S3 2.368850 1_555
Ge9 Rh6 2.387336 1_555
Ge9 Rh4 2.409544 1_555
Ge9 S6 2.523820 1_565
Ge10 S4 2.368850 1_555
Ge10 Rh7 2.387336 1_555
Ge10 Rh2 2.409544 1_555
Ge10 S7 2.523820 1_556
Ge11 S5 2.368850 1_555
Ge11 Rh5 2.387336 1_555
Ge11 Rh3 2.409544 1_555
Ge11 S8 2.523820 1_655
Rh0 S4 2.394404 1_555
Rh0 S3 2.394404 1_555
Rh0 S5 2.394404 1_555
Rh1 S7 2.394404 1_555
Rh1 S6 2.394404 1_555
Rh1 S8 2.394404 1_555
Rh2 S11 2.396426 1_455
Rh2 S1 2.438102 1_555
Rh2 S6 2.441840 1_555
Rh3 S9 2.396426 1_545
Rh3 S2 2.438102 1_555
Rh3 S7 2.441840 1_555
Rh4 S10 2.396426 1_554
Rh4 S0 2.438102 1_555
Rh4 S8 2.441840 1_555
Rh5 S0 2.396426 1_655
Rh5 S9 2.438102 1_555
Rh5 S3 2.441840 1_555
Rh6 S1 2.396426 1_565
Rh6 S10 2.438102 1_555
Rh6 S4 2.441840 1_555
Rh7 S2 2.396426 1_556
Rh7 S11 2.438102 1_555
Rh7 S5 2.441840 1_555
