# generated using pymatgen
data_Sr5Mn(Fe2O5)2
_symmetry_space_group_name_H-M   'P 1'
_cell_length_a   5.35515455
_cell_length_b   5.35594924
_cell_length_c   20.77676248
_cell_angle_alpha   83.78717699
_cell_angle_beta   83.78280599
_cell_angle_gamma   99.27125554
_symmetry_Int_Tables_number   1
_chemical_formula_structural   Sr5Mn(Fe2O5)2
_chemical_formula_sum   'Sr10 Mn2 Fe8 O20'
_cell_volume   579.85805544
_cell_formula_units_Z   2
loop_
 _symmetry_equiv_pos_site_id
 _symmetry_equiv_pos_as_xyz
  1  'x, y, z'
loop_
 _atom_site_type_symbol
 _atom_site_label
 _atom_site_symmetry_multiplicity
 _atom_site_fract_x
 _atom_site_fract_y
 _atom_site_fract_z
 _atom_site_occupancy
  Sr  Sr0  1  0.25001700  0.74965700  0.49989500  1
  Sr  Sr1  1  0.74988600  0.24949600  0.49990000  1
  Sr  Sr2  1  0.44764500  0.94767800  0.10419900  1
  Sr  Sr3  1  0.94761700  0.44777600  0.10420000  1
  Sr  Sr4  1  0.05217900  0.55252900  0.89593500  1
  Sr  Sr5  1  0.55225700  0.05244200  0.89594000  1
  Sr  Sr6  1  0.34871500  0.84875600  0.30145700  1
  Sr  Sr7  1  0.84882400  0.34855400  0.30145800  1
  Sr  Sr8  1  0.15132000  0.65102500  0.69843700  1
  Sr  Sr9  1  0.65116900  0.15112400  0.69843800  1
  Mn  Mn0  1  0.49946900  0.49984400  0.99994900  1
  Mn  Mn1  1  0.00008600  0.00065400  0.99986000  1
  Fe  Fe0  1  0.39777000  0.39796100  0.20288200  1
  Fe  Fe1  1  0.10152200  0.10196900  0.79775700  1
  Fe  Fe2  1  0.79940200  0.79911400  0.40048200  1
  Fe  Fe3  1  0.20083000  0.20071500  0.59894900  1
  Fe  Fe4  1  0.89789600  0.89745900  0.20285300  1
  Fe  Fe5  1  0.60193900  0.60205200  0.79770600  1
  Fe  Fe6  1  0.29922800  0.29915800  0.40052000  1
  Fe  Fe7  1  0.70105100  0.70010100  0.59889900  1
  O  O0  1  0.25007500  0.24981200  0.49978900  1
  O  O1  1  0.75008400  0.74973800  0.49978100  1
  O  O2  1  0.74945300  0.24984200  0.00000900  1
  O  O3  1  0.24945900  0.74985700  0.00000800  1
  O  O4  1  0.44854400  0.44864100  0.10423900  1
  O  O5  1  0.94861500  0.94861500  0.10424900  1
  O  O6  1  0.05258200  0.05327200  0.89621800  1
  O  O7  1  0.55254300  0.55324100  0.89625800  1
  O  O8  1  0.34798500  0.34807600  0.30154800  1
  O  O9  1  0.84809400  0.84795400  0.30154900  1
  O  O10  1  0.15192600  0.15188400  0.69836600  1
  O  O11  1  0.65195200  0.65184200  0.69836300  1
  O  O12  1  0.64735100  0.14737400  0.20223600  1
  O  O13  1  0.14737400  0.64735200  0.20223300  1
  O  O14  1  0.35236200  0.85260000  0.79800100  1
  O  O15  1  0.85236800  0.35257300  0.79800400  1
  O  O16  1  0.54982400  0.04972400  0.40038300  1
  O  O17  1  0.04982700  0.54972000  0.40038400  1
  O  O18  1  0.45040100  0.94985900  0.59932900  1
  O  O19  1  0.95035700  0.44996000  0.59933700  1
loop_
_geom_bond_atom_site_label_1
_geom_bond_atom_site_label_2
_geom_bond_distance
_geom_bond_site_symmetry_2
Mn0 O2 2.040251 1_556
Mn0 O3 2.040402 1_556
Mn0 O7 2.124072 1_555
Mn0 O4 2.136337 1_556
Mn1 O2 2.039584 1_456
Mn1 O3 2.041009 1_546
Mn1 O6 2.123053 1_555
Mn1 O5 2.138354 1_446
Fe0 O4 2.020667 1_555
Fe0 O8 2.021119 1_555
Fe0 O13 2.039490 1_555
Fe0 O12 2.041044 1_555
Fe1 O6 2.016921 1_555
Fe1 O10 2.035971 1_555
Fe1 O15 2.039336 1_455
Fe1 O14 2.041175 1_545
Fe2 O9 2.026593 1_555
Fe2 O1 2.034085 1_555
Fe2 O17 2.039572 1_655
Fe2 O16 2.041079 1_565
Fe3 O0 2.031239 1_555
Fe3 O10 2.036511 1_555
Fe3 O19 2.039174 1_455
Fe3 O18 2.042068 1_545
Fe4 O5 2.019877 1_555
Fe4 O9 2.021733 1_555
Fe4 O13 2.038658 1_655
Fe4 O12 2.042229 1_565
Fe5 O7 2.018784 1_555
Fe5 O11 2.034986 1_555
Fe5 O15 2.039946 1_555
Fe5 O14 2.040832 1_555
Fe6 O8 2.027391 1_555
Fe6 O0 2.033472 1_555
Fe6 O17 2.040162 1_555
Fe6 O16 2.040434 1_555
Fe7 O1 2.030379 1_555
Fe7 O11 2.037481 1_555
Fe7 O19 2.038072 1_555
Fe7 O18 2.041991 1_555
O0 Sr1 2.677089 1_555
O0 Sr0 2.677434 1_555
O0 Sr1 2.678068 1_455
O0 Sr0 2.678517 1_545
O1 Sr1 2.677118 1_565
O1 Sr0 2.677546 1_655
O1 Sr0 2.677611 1_555
O1 Sr1 2.678834 1_555
O2 Sr5 2.745499 1_554
O2 Sr2 2.749273 1_545
O2 Sr4 2.750838 1_654
O2 Sr3 2.750991 1_555
O3 Sr4 2.745597 1_554
O3 Sr3 2.749193 1_455
O3 Sr5 2.750690 1_564
O3 Sr2 2.750792 1_555
O4 Sr3 2.673276 1_555
O4 Sr2 2.673507 1_555
O4 Sr3 2.681887 1_455
O4 Sr2 2.682451 1_545
O5 Sr2 2.673084 1_655
O5 Sr3 2.674237 1_565
O5 Sr3 2.681723 1_555
O5 Sr2 2.682081 1_555
O6 Sr4 2.673714 1_555
O6 Sr5 2.675938 1_555
O6 Sr5 2.679238 1_455
O6 Sr4 2.682251 1_545
O7 Sr5 2.673236 1_565
O7 Sr4 2.675528 1_655
O7 Sr4 2.679651 1_555
O7 Sr5 2.682731 1_555
O8 Sr7 2.673701 1_455
O8 Sr6 2.675170 1_545
O8 Sr6 2.680785 1_555
O8 Sr7 2.681457 1_555
O9 Sr6 2.675154 1_555
O9 Sr7 2.675599 1_555
O9 Sr6 2.680007 1_655
O9 Sr7 2.680357 1_565
O10 Sr8 2.674058 1_555
O10 Sr9 2.674344 1_555
O10 Sr9 2.680816 1_455
O10 Sr8 2.681895 1_545
O11 Sr9 2.674977 1_565
O11 Sr8 2.675068 1_655
O11 Sr8 2.680094 1_555
O11 Sr9 2.680979 1_555
O12 Sr2 2.647909 1_545
O12 Sr3 2.659088 1_555
O12 Sr6 2.667107 1_545
O12 Sr7 2.676354 1_555
O13 Sr3 2.647682 1_455
O13 Sr2 2.658900 1_555
O13 Sr7 2.667372 1_455
O13 Sr6 2.676597 1_555
O14 Sr5 2.646923 1_565
O14 Sr4 2.656801 1_555
O14 Sr9 2.671855 1_565
O14 Sr8 2.682369 1_555
O15 Sr4 2.646848 1_655
O15 Sr5 2.656800 1_555
O15 Sr8 2.672073 1_655
O15 Sr9 2.682474 1_555
O16 Sr7 2.664453 1_555
O16 Sr6 2.669781 1_545
O16 Sr1 2.675270 1_555
O16 Sr0 2.676881 1_545
O17 Sr6 2.664692 1_555
O17 Sr7 2.669989 1_455
O17 Sr0 2.675821 1_555
O17 Sr1 2.677589 1_455
O18 Sr8 2.667085 1_555
O18 Sr9 2.672943 1_565
O18 Sr1 2.674083 1_565
O18 Sr0 2.675478 1_555
O19 Sr9 2.667237 1_555
O19 Sr8 2.672770 1_655
O19 Sr0 2.674784 1_655
O19 Sr1 2.676316 1_555
