# generated using pymatgen
data_RbLiMoHO4
_symmetry_space_group_name_H-M   'P 1'
_cell_length_a   7.95632400
_cell_length_b   11.00147500
_cell_length_c   13.11346900
_cell_angle_alpha   90.00000000
_cell_angle_beta   90.00000000
_cell_angle_gamma   90.00000000
_symmetry_Int_Tables_number   1
_chemical_formula_structural   RbLiMoHO4
_chemical_formula_sum   'Rb8 Li8 Mo8 H8 O32'
_cell_volume   1147.83898354
_cell_formula_units_Z   8
loop_
 _symmetry_equiv_pos_site_id
 _symmetry_equiv_pos_as_xyz
  1  'x, y, z'
loop_
 _atom_site_type_symbol
 _atom_site_label
 _atom_site_symmetry_multiplicity
 _atom_site_fract_x
 _atom_site_fract_y
 _atom_site_fract_z
 _atom_site_occupancy
  Rb  Rb0  1  0.19253000  0.79975700  0.87040600  1
  Rb  Rb1  1  0.80747000  0.20024300  0.12959400  1
  Rb  Rb2  1  0.30747000  0.29975700  0.12959400  1
  Rb  Rb3  1  0.80747000  0.70024300  0.37040600  1
  Rb  Rb4  1  0.69253000  0.70024300  0.87040600  1
  Rb  Rb5  1  0.19253000  0.29975700  0.62959400  1
  Rb  Rb6  1  0.69253000  0.20024300  0.62959400  1
  Rb  Rb7  1  0.30747000  0.79975700  0.37040600  1
  Li  Li0  1  0.02941800  0.58797000  0.68550200  1
  Li  Li1  1  0.97058200  0.41203000  0.31449800  1
  Li  Li2  1  0.47058200  0.08797000  0.31449800  1
  Li  Li3  1  0.97058200  0.91203000  0.18550200  1
  Li  Li4  1  0.52941800  0.91203000  0.68550200  1
  Li  Li5  1  0.02941800  0.08797000  0.81449800  1
  Li  Li6  1  0.52941800  0.41203000  0.81449800  1
  Li  Li7  1  0.47058200  0.58797000  0.18550200  1
  Mo  Mo0  1  0.43431100  0.62382000  0.62593600  1
  Mo  Mo1  1  0.56568900  0.37618000  0.37406400  1
  Mo  Mo2  1  0.06568900  0.12382000  0.37406400  1
  Mo  Mo3  1  0.56568900  0.87618000  0.12593600  1
  Mo  Mo4  1  0.93431100  0.87618000  0.62593600  1
  Mo  Mo5  1  0.43431100  0.12382000  0.87406400  1
  Mo  Mo6  1  0.93431100  0.37618000  0.87406400  1
  Mo  Mo7  1  0.06568900  0.62382000  0.12593600  1
  H  H0  1  0.34883900  0.53810100  0.90107000  1
  H  H1  1  0.65116100  0.46189900  0.09893000  1
  H  H2  1  0.15116100  0.03810100  0.09893000  1
  H  H3  1  0.65116100  0.96189900  0.40107000  1
  H  H4  1  0.84883900  0.96189900  0.90107000  1
  H  H5  1  0.34883900  0.03810100  0.59893000  1
  H  H6  1  0.84883900  0.46189900  0.59893000  1
  H  H7  1  0.15116100  0.53810100  0.40107000  1
  O  O0  1  0.22444100  0.56744700  0.60324400  1
  O  O1  1  0.77555900  0.43255300  0.39675600  1
  O  O2  1  0.27555900  0.06744700  0.39675600  1
  O  O3  1  0.77555900  0.93255300  0.10324400  1
  O  O4  1  0.72444100  0.93255300  0.60324400  1
  O  O5  1  0.22444100  0.06744700  0.89675600  1
  O  O6  1  0.72444100  0.43255300  0.89675600  1
  O  O7  1  0.27555900  0.56744700  0.10324400  1
  O  O8  1  0.03169900  0.83777900  0.50839700  1
  O  O9  1  0.96830100  0.16222100  0.49160300  1
  O  O10  1  0.46830100  0.33777900  0.49160300  1
  O  O11  1  0.96830100  0.66222100  0.00839700  1
  O  O12  1  0.53169900  0.66222100  0.50839700  1
  O  O13  1  0.03169900  0.33777900  0.99160300  1
  O  O14  1  0.53169900  0.16222100  0.99160300  1
  O  O15  1  0.46830100  0.83777900  0.00839700  1
  O  O16  1  0.05390600  0.98621400  0.69771100  1
  O  O17  1  0.94609400  0.01378600  0.30228900  1
  O  O18  1  0.44609400  0.48621400  0.30228900  1
  O  O19  1  0.94609400  0.51378600  0.19771100  1
  O  O20  1  0.55390600  0.51378600  0.69771100  1
  O  O21  1  0.05390600  0.48621400  0.80228900  1
  O  O22  1  0.55390600  0.01378600  0.80228900  1
  O  O23  1  0.44609400  0.98621400  0.19771100  1
  O  O24  1  0.42285000  0.75931800  0.70482300  1
  O  O25  1  0.57715000  0.24068200  0.29517700  1
  O  O26  1  0.07715000  0.25931800  0.29517700  1
  O  O27  1  0.57715000  0.74068200  0.20482300  1
  O  O28  1  0.92285000  0.74068200  0.70482300  1
  O  O29  1  0.42285000  0.25931800  0.79517700  1
  O  O30  1  0.92285000  0.24068200  0.79517700  1
  O  O31  1  0.07715000  0.75931800  0.20482300  1
loop_
_geom_bond_atom_site_label_1
_geom_bond_atom_site_label_2
_geom_bond_distance
_geom_bond_site_symmetry_2
Li0 O28 1.898869 1_455
Li0 O0 1.903211 1_555
Li0 O21 1.906988 1_555
Li1 O26 1.898869 1_655
Li1 O1 1.903211 1_555
Li1 O19 1.906988 1_555
Li2 O25 1.898869 1_555
Li2 O2 1.903211 1_555
Li2 O23 1.906988 1_545
Li3 O31 1.898869 1_655
Li3 O3 1.903211 1_555
Li3 O17 1.906988 1_565
Li4 O24 1.898869 1_555
Li4 O4 1.903211 1_555
Li4 O22 1.906988 1_565
Li5 O30 1.898869 1_455
Li5 O5 1.903211 1_555
Li5 O16 1.906988 1_545
Li6 O29 1.898869 1_555
Li6 O6 1.903211 1_555
Li6 O20 1.906988 1_555
Li7 O27 1.898869 1_555
Li7 O7 1.903211 1_555
Li7 O18 1.906988 1_555
Mo0 O12 1.776123 1_555
Mo0 O20 1.804637 1_555
Mo0 O0 1.805932 1_555
Mo0 O24 1.816752 1_555
Mo1 O10 1.776123 1_555
Mo1 O18 1.804637 1_555
Mo1 O1 1.805932 1_555
Mo1 O25 1.816752 1_555
Mo2 O9 1.776123 1_455
Mo2 O17 1.804637 1_455
Mo2 O2 1.805932 1_555
Mo2 O26 1.816752 1_555
Mo3 O15 1.776123 1_555
Mo3 O23 1.804637 1_555
Mo3 O3 1.805932 1_555
Mo3 O27 1.816752 1_555
Mo4 O8 1.776123 1_655
Mo4 O16 1.804637 1_655
Mo4 O4 1.805932 1_555
Mo4 O28 1.816752 1_555
Mo5 O14 1.776123 1_555
Mo5 O22 1.804637 1_555
Mo5 O5 1.805932 1_555
Mo5 O29 1.816752 1_555
Mo6 O13 1.776123 1_655
Mo6 O21 1.804637 1_655
Mo6 O6 1.805932 1_555
Mo6 O30 1.816752 1_555
Mo7 O11 1.776123 1_455
Mo7 O19 1.804637 1_455
Mo7 O7 1.805932 1_555
Mo7 O31 1.816752 1_555
H0 Li6 2.297113 1_555
H0 Rb0 3.161439 1_555
H1 Li7 2.297113 1_555
H1 Rb1 3.161439 1_555
H2 Li3 2.297113 1_445
H2 Rb2 3.161439 1_555
H3 Li2 2.297113 1_565
H3 Rb3 3.161439 1_555
H4 Li5 2.297113 1_665
H4 Rb4 3.161439 1_555
H5 Li4 2.297113 1_545
H5 Rb5 3.161439 1_555
H6 Li0 2.297113 1_655
H6 Rb6 3.161439 1_555
H7 Li1 2.297113 1_455
H7 Rb7 3.161439 1_555
O0 Rb5 2.976037 1_555
O1 Rb3 2.976037 1_555
O2 Rb7 2.976037 1_545
O3 Rb1 2.976037 1_565
O4 Rb6 2.976037 1_565
O5 Rb0 2.976037 1_545
O6 Rb4 2.976037 1_555
O7 Rb2 2.976037 1_555
O8 Rb7 2.874646 1_555
O8 Rb3 2.957482 1_455
O9 Rb6 2.874646 1_555
O9 Rb5 2.957482 1_655
O10 Rb5 2.874646 1_555
O10 Rb6 2.957482 1_555
O11 Rb4 2.874646 1_554
O11 Rb0 2.957482 1_654
O12 Rb3 2.874646 1_555
O12 Rb7 2.957482 1_555
O13 Rb2 2.874646 1_556
O13 Rb1 2.957482 1_456
O14 Rb1 2.874646 1_556
O14 Rb2 2.957482 1_556
O15 Rb0 2.874646 1_554
O15 Rb4 2.957482 1_554
O16 Rb0 3.248517 1_555
O17 Rb1 3.248517 1_555
O18 Rb2 3.248517 1_555
O19 Rb3 3.248517 1_555
O20 Rb4 3.248517 1_555
O21 Rb5 3.248517 1_555
O22 Rb6 3.248517 1_555
O23 Rb7 3.248517 1_555
O24 Rb0 2.875904 1_555
O24 Rb4 3.121071 1_555
O25 Rb1 2.875904 1_555
O25 Rb2 3.121071 1_555
O26 Rb2 2.875904 1_555
O26 Rb1 3.121071 1_455
O27 Rb3 2.875904 1_555
O27 Rb7 3.121071 1_555
O28 Rb4 2.875904 1_555
O28 Rb0 3.121071 1_655
O29 Rb5 2.875904 1_555
O29 Rb6 3.121071 1_555
O30 Rb6 2.875904 1_555
O30 Rb5 3.121071 1_655
O31 Rb7 2.875904 1_555
O31 Rb3 3.121071 1_455
