# generated using pymatgen
data_Hg5Au6
_symmetry_space_group_name_H-M   'P 1'
_cell_length_a   7.11620121
_cell_length_b   7.11620143
_cell_length_c   10.28563267
_cell_angle_alpha   90.00000000
_cell_angle_beta   90.00000000
_cell_angle_gamma   119.99999894
_symmetry_Int_Tables_number   1
_chemical_formula_structural   Hg5Au6
_chemical_formula_sum   'Hg10 Au12'
_cell_volume   451.08470158
_cell_formula_units_Z   2
loop_
 _symmetry_equiv_pos_site_id
 _symmetry_equiv_pos_as_xyz
  1  'x, y, z'
loop_
 _atom_site_type_symbol
 _atom_site_label
 _atom_site_symmetry_multiplicity
 _atom_site_fract_x
 _atom_site_fract_y
 _atom_site_fract_z
 _atom_site_occupancy
  Hg  Hg0  1  0.58663048  0.00000000  0.25000000  1
  Hg  Hg1  1  0.58663048  0.58663048  0.75000000  1
  Hg  Hg2  1  0.00000000  0.41336952  0.75000000  1
  Hg  Hg3  1  1.00000000  0.58663048  0.25000000  1
  Hg  Hg4  1  0.41336952  0.41336952  0.25000000  1
  Hg  Hg5  1  0.41336952  0.00000000  0.75000000  1
  Hg  Hg6  1  0.33333300  0.66666700  0.00000000  1
  Hg  Hg7  1  0.66666700  0.33333300  0.50000000  1
  Hg  Hg8  1  0.66666700  0.33333300  0.00000000  1
  Hg  Hg9  1  0.33333300  0.66666700  0.50000000  1
  Au  Au0  1  0.24039470  0.00000000  0.11023301  1
  Au  Au1  1  0.24039470  0.24039470  0.61023301  1
  Au  Au2  1  1.00000000  0.75960530  0.61023301  1
  Au  Au3  1  0.00000000  0.24039470  0.11023301  1
  Au  Au4  1  0.75960530  0.75960530  0.11023301  1
  Au  Au5  1  0.24039470  0.00000000  0.38976699  1
  Au  Au6  1  0.75960530  0.75960530  0.38976699  1
  Au  Au7  1  0.75960530  0.00000000  0.61023301  1
  Au  Au8  1  0.00000000  0.24039470  0.38976699  1
  Au  Au9  1  1.00000000  0.75960530  0.88976699  1
  Au  Au10  1  0.75960530  0.00000000  0.88976699  1
  Au  Au11  1  0.24039470  0.24039470  0.88976699  1
loop_
_geom_bond_atom_site_label_1
_geom_bond_atom_site_label_2
_geom_bond_distance
_geom_bond_site_symmetry_2
Au0 Au11 2.840535 1_554
Au0 Au9 2.840535 1_444
Au0 Hg0 2.852611 1_555
Au0 Au5 2.875184 1_555
Au0 Hg4 2.934973 1_555
Au0 Hg3 2.934973 1_445
Au0 Au3 2.963014 1_555
Au0 Au4 2.963014 1_445
Au0 Hg6 2.986376 1_545
Au0 Hg8 2.986381 1_555
Au1 Au8 2.840535 1_555
Au1 Au5 2.840535 1_555
Au1 Hg1 2.852612 1_555
Au1 Au11 2.875184 1_555
Au1 Hg2 2.934973 1_555
Au1 Hg5 2.934973 1_555
Au1 Au7 2.963014 1_455
Au1 Au2 2.963014 1_445
Au1 Hg7 2.986383 1_555
Au1 Hg9 2.986383 1_555
Au2 Au6 2.840535 1_555
Au2 Au5 2.840535 1_665
Au2 Hg2 2.852612 1_655
Au2 Au9 2.875184 1_555
Au2 Hg1 2.934973 1_555
Au2 Hg5 2.934973 1_665
Au2 Au7 2.963014 1_565
Au2 Hg9 2.986376 1_655
Au2 Hg7 2.986381 1_555
Au3 Hg3 2.852612 1_455
Au3 Au8 2.875184 1_555
Au3 Hg4 2.934973 1_555
Au3 Hg0 2.934973 1_455
Au3 Au4 2.963014 1_445
Au3 Hg8 2.986376 1_455
Au3 Hg6 2.986381 1_555
Au4 Au9 2.840535 1_554
Au4 Hg4 2.852612 1_555
Au4 Au6 2.875184 1_555
Au4 Hg3 2.934973 1_555
Au4 Hg0 2.934973 1_565
Au4 Hg6 2.986383 1_555
Au4 Hg8 2.986383 1_555
Au5 Hg0 2.852611 1_555
Au5 Hg4 2.934973 1_555
Au5 Hg3 2.934973 1_445
Au5 Au8 2.963014 1_555
Au5 Au6 2.963014 1_445
Au5 Hg9 2.986376 1_545
Au5 Hg7 2.986381 1_555
Au6 Au7 2.840535 1_565
Au6 Hg4 2.852612 1_555
Au6 Hg3 2.934973 1_555
Au6 Hg0 2.934973 1_565
Au6 Au8 2.963014 1_665
Au6 Hg9 2.986383 1_555
Au6 Hg7 2.986383 1_555
Au7 Au8 2.840535 1_655
Au7 Hg5 2.852611 1_555
Au7 Hg1 2.934973 1_545
Au7 Hg2 2.934973 1_655
Au7 Hg7 2.986376 1_555
Au7 Hg9 2.986381 1_545
Au8 Hg3 2.852612 1_455
Au8 Hg4 2.934973 1_555
Au8 Hg0 2.934973 1_455
Au8 Hg7 2.986376 1_455
Au8 Hg9 2.986381 1_555
Au9 Hg2 2.852612 1_655
Au9 Hg1 2.934973 1_555
Au9 Hg5 2.934973 1_665
Au9 Hg6 2.986376 1_656
Au9 Hg8 2.986381 1_556
Au10 Au4 2.840535 1_546
Au10 Au3 2.840535 1_656
Au10 Hg5 2.852611 1_555
Au10 Au7 2.875184 1_555
Au10 Hg1 2.934973 1_545
Au10 Hg2 2.934973 1_655
Au10 Au9 2.963014 1_545
Au10 Au11 2.963014 1_655
Au10 Hg8 2.986376 1_556
Au10 Hg6 2.986381 1_546
Au11 Au3 2.840535 1_556
Au11 Hg1 2.852612 1_555
Au11 Hg2 2.934973 1_555
Au11 Hg5 2.934973 1_555
Au11 Au9 2.963014 1_445
Au11 Hg8 2.986383 1_556
Au11 Hg6 2.986383 1_556
