# generated using pymatgen
data_MnVO3
_symmetry_space_group_name_H-M   'P 1'
_cell_length_a   5.19141132
_cell_length_b   5.31481451
_cell_length_c   7.60201100
_cell_angle_alpha   90.00163278
_cell_angle_beta   90.00061667
_cell_angle_gamma   90.19251805
_symmetry_Int_Tables_number   1
_chemical_formula_structural   MnVO3
_chemical_formula_sum   'Mn4 V4 O12'
_cell_volume   209.74885248
_cell_formula_units_Z   4
loop_
 _symmetry_equiv_pos_site_id
 _symmetry_equiv_pos_as_xyz
  1  'x, y, z'
loop_
 _atom_site_type_symbol
 _atom_site_label
 _atom_site_symmetry_multiplicity
 _atom_site_fract_x
 _atom_site_fract_y
 _atom_site_fract_z
 _atom_site_occupancy
  Mn  Mn0  1  0.49347100  0.05213700  0.25000000  1
  Mn  Mn1  1  0.50653000  0.94786300  0.74999900  1
  Mn  Mn2  1  0.01082200  0.55101700  0.25000000  1
  Mn  Mn3  1  0.98917800  0.44898300  0.75000100  1
  V  V0  1  0.50000000  0.50000000  0.00000000  1
  V  V1  1  0.00000000  0.00000000  0.50000000  1
  V  V2  1  0.50000000  0.50000000  0.50000000  1
  V  V3  1  0.00000000  0.00000000  0.00000000  1
  O  O0  1  0.88687200  0.95186200  0.25000200  1
  O  O1  1  0.61435200  0.45111900  0.25000000  1
  O  O2  1  0.11312900  0.04813800  0.74999800  1
  O  O3  1  0.38564800  0.54888100  0.74999900  1
  O  O4  1  0.31620600  0.79479600  0.05978700  1
  O  O5  1  0.18290400  0.29620300  0.44114700  1
  O  O6  1  0.68379200  0.20520600  0.55978100  1
  O  O7  1  0.81709500  0.70379800  0.94114700  1
  O  O8  1  0.68379400  0.20520400  0.94021300  1
  O  O9  1  0.81709600  0.70379700  0.55885300  1
  O  O10  1  0.31620900  0.79479400  0.44021800  1
  O  O11  1  0.18290500  0.29620300  0.05885300  1
loop_
_geom_bond_atom_site_label_1
_geom_bond_atom_site_label_2
_geom_bond_distance
_geom_bond_site_symmetry_2
Mn0 O0 2.112429 1_545
Mn0 O4 2.190855 1_545
Mn0 O10 2.190945 1_545
Mn0 O1 2.209401 1_555
Mn0 O5 2.531322 1_555
Mn0 O11 2.531341 1_555
Mn0 O6 2.679238 1_555
Mn0 O8 2.679338 1_554
Mn1 O2 2.112429 1_565
Mn1 O8 2.190858 1_565
Mn1 O6 2.190945 1_565
Mn1 O3 2.209402 1_555
Mn1 O9 2.531314 1_555
Mn1 O7 2.531339 1_555
Mn1 O10 2.679238 1_555
Mn1 O4 2.679347 1_556
Mn2 O1 2.123888 1_455
Mn2 O11 2.179846 1_555
Mn2 O5 2.179883 1_555
Mn2 O0 2.227543 1_455
Mn2 O10 2.503834 1_555
Mn2 O4 2.503870 1_555
Mn2 O9 2.681208 1_455
Mn2 O7 2.681233 1_454
Mn3 O3 2.123888 1_655
Mn3 O7 2.179845 1_555
Mn3 O9 2.179888 1_555
Mn3 O2 2.227545 1_655
Mn3 O6 2.503840 1_555
Mn3 O8 2.503866 1_555
Mn3 O5 2.681215 1_655
Mn3 O11 2.681225 1_656
O0 V1 2.005284 1_665
O0 V3 2.005338 1_665
O1 V2 2.008197 1_555
O1 V0 2.008199 1_555
O2 V1 2.005285 1_555
O2 V3 2.005340 1_556
O3 V2 2.008190 1_555
O3 V0 2.008206 1_556
O4 V0 1.892566 1_555
O4 V3 2.025530 1_565
O5 V1 1.889467 1_555
O5 V2 2.017730 1_555
O6 V2 1.892558 1_555
O6 V1 2.025528 1_655
O7 V3 1.889439 1_666
O7 V0 2.017751 1_556
O8 V0 1.892566 1_556
O8 V3 2.025530 1_656
O9 V1 1.889467 1_665
O9 V2 2.017730 1_555
O10 V2 1.892557 1_555
O10 V1 2.025534 1_565
O11 V3 1.889444 1_555
O11 V0 2.017748 1_555
