# generated using pymatgen
data_K2Mg(PSe3)2
_symmetry_space_group_name_H-M   'P 1'
_cell_length_a   13.04108700
_cell_length_b   6.58099000
_cell_length_c   9.09044794
_cell_angle_alpha   58.24992054
_cell_angle_beta   90.00000000
_cell_angle_gamma   90.00000000
_symmetry_Int_Tables_number   1
_chemical_formula_structural   K2Mg(PSe3)2
_chemical_formula_sum   'K4 Mg2 P4 Se12'
_cell_volume   663.42034661
_cell_formula_units_Z   2
loop_
 _symmetry_equiv_pos_site_id
 _symmetry_equiv_pos_as_xyz
  1  'x, y, z'
loop_
 _atom_site_type_symbol
 _atom_site_label
 _atom_site_symmetry_multiplicity
 _atom_site_fract_x
 _atom_site_fract_y
 _atom_site_fract_z
 _atom_site_occupancy
  K  K0  1  0.19640000  0.65491200  0.05370600  1
  K  K1  1  0.69640000  0.34508800  0.44629400  1
  K  K2  1  0.80360000  0.34508800  0.94629400  1
  K  K3  1  0.30360000  0.65491200  0.55370600  1
  Mg  Mg0  1  0.00000000  0.00000000  0.50000000  1
  Mg  Mg1  1  0.50000000  0.00000000  0.00000000  1
  P  P0  1  0.47562700  0.35297700  0.13559500  1
  P  P1  1  0.52437300  0.64702300  0.86440500  1
  P  P2  1  0.02437300  0.35297700  0.63559500  1
  P  P3  1  0.97562700  0.64702300  0.36440500  1
  Se  Se0  1  0.54662600  0.45344900  0.72958300  1
  Se  Se1  1  0.04662600  0.54655100  0.77041700  1
  Se  Se2  1  0.45337400  0.54655100  0.27041700  1
  Se  Se3  1  0.95337400  0.45344900  0.22958300  1
  Se  Se4  1  0.60091000  0.08752400  0.23315900  1
  Se  Se5  1  0.10091000  0.91247600  0.26684100  1
  Se  Se6  1  0.39909000  0.91247600  0.76684100  1
  Se  Se7  1  0.89909000  0.08752400  0.73315900  1
  Se  Se8  1  0.33836600  0.18646300  0.10014200  1
  Se  Se9  1  0.83836600  0.81353700  0.39985800  1
  Se  Se10  1  0.66163400  0.81353700  0.89985800  1
  Se  Se11  1  0.16163400  0.18646300  0.60014200  1
loop_
_geom_bond_atom_site_label_1
_geom_bond_atom_site_label_2
_geom_bond_distance
_geom_bond_site_symmetry_2
K0 Se5 3.410870 1_555
K0 Se8 3.426408 1_555
K0 Se6 3.465325 1_554
K0 Se3 3.482487 1_455
K0 Se1 3.590001 1_554
K0 Se2 3.760534 1_555
K0 Se11 3.776650 1_564
K1 Se4 3.410870 1_555
K1 Se9 3.426408 1_555
K1 Se7 3.465325 1_555
K1 Se2 3.482487 1_555
K1 Se0 3.590001 1_555
K1 Se3 3.760534 1_555
K1 Se10 3.776650 1_545
K2 Se7 3.410870 1_555
K2 Se10 3.426408 1_555
K2 Se4 3.465325 1_556
K2 Se1 3.482487 1_655
K2 Se3 3.590001 1_556
K2 Se0 3.760534 1_555
K2 Se9 3.776650 1_546
K3 Se6 3.410870 1_555
K3 Se11 3.426408 1_555
K3 Se5 3.465325 1_555
K3 Se0 3.482487 1_555
K3 Se2 3.590001 1_555
K3 Se1 3.760534 1_555
K3 Se8 3.776650 1_565
Mg0 Se1 2.756334 1_545
Mg0 Se3 2.756334 1_455
Mg0 Se7 2.800137 1_455
Mg0 Se5 2.800137 1_545
Mg0 Se11 2.820166 1_555
Mg0 Se9 2.820166 1_445
Mg1 Se2 2.756334 1_545
Mg1 Se0 2.756334 1_554
Mg1 Se4 2.800137 1_555
Mg1 Se6 2.800137 1_544
Mg1 Se10 2.820166 1_544
Mg1 Se8 2.820166 1_555
P0 Se2 2.202791 1_555
P0 Se4 2.208437 1_555
P0 Se8 2.209209 1_555
P0 P1 2.281567 1_554
P1 Se0 2.202791 1_555
P1 Se6 2.208437 1_555
P1 Se10 2.209209 1_555
P2 Se1 2.202791 1_555
P2 Se7 2.208437 1_455
P2 Se11 2.209209 1_555
P2 P3 2.281567 1_455
P3 Se3 2.202791 1_555
P3 Se5 2.208437 1_655
P3 Se9 2.209209 1_555
