# generated using pymatgen
data_TaOs3
_symmetry_space_group_name_H-M   'P 1'
_cell_length_a   3.91497248
_cell_length_b   3.91497248
_cell_length_c   3.91497248
_cell_angle_alpha   90.00000000
_cell_angle_beta   90.00000000
_cell_angle_gamma   90.00000000
_symmetry_Int_Tables_number   1
_chemical_formula_structural   TaOs3
_chemical_formula_sum   'Ta1 Os3'
_cell_volume   60.00482047
_cell_formula_units_Z   1
loop_
 _symmetry_equiv_pos_site_id
 _symmetry_equiv_pos_as_xyz
  1  'x, y, z'
loop_
 _atom_site_type_symbol
 _atom_site_label
 _atom_site_symmetry_multiplicity
 _atom_site_fract_x
 _atom_site_fract_y
 _atom_site_fract_z
 _atom_site_occupancy
  Ta  Ta0  1  0.00000000  -0.00000000  0.00000000  1
  Os  Os0  1  0.00000000  0.49999800  0.49999800  1
  Os  Os1  1  0.49999800  -0.00000000  0.49999800  1
  Os  Os2  1  0.49999800  0.49999800  0.00000000  1
loop_
_geom_bond_atom_site_label_1
_geom_bond_atom_site_label_2
_geom_bond_distance
_geom_bond_site_symmetry_2
Os0 Os1 2.768293 1_555
Os0 Os2 2.768293 1_555
Os0 Ta0 2.768293 1_555
Os0 Os1 2.768304 1_565
Os0 Os1 2.768304 1_455
Os0 Os2 2.768304 1_455
Os0 Ta0 2.768304 1_565
Os0 Ta0 2.768304 1_556
Os0 Os2 2.768304 1_556
Os0 Os1 2.768315 1_465
Os0 Ta0 2.768315 1_566
Os0 Os2 2.768315 1_456
Os1 Ta0 2.768293 1_555
Os1 Os2 2.768293 1_555
Os1 Ta0 2.768304 1_655
Os1 Ta0 2.768304 1_556
Os1 Os2 2.768304 1_545
Os1 Os2 2.768304 1_556
Os1 Ta0 2.768315 1_656
Os1 Os2 2.768315 1_546
Os2 Ta0 2.768293 1_555
Os2 Ta0 2.768304 1_655
Os2 Ta0 2.768304 1_565
Os2 Ta0 2.768315 1_665
