# generated using pymatgen
data_Sr6Ca2Fe3(CoO4)5
_symmetry_space_group_name_H-M   'P 1'
_cell_length_a   10.84031518
_cell_length_b   11.26044459
_cell_length_c   17.75598320
_cell_angle_alpha   108.52354473
_cell_angle_beta   107.91272744
_cell_angle_gamma   89.69943346
_symmetry_Int_Tables_number   1
_chemical_formula_structural   Sr6Ca2Fe3(CoO4)5
_chemical_formula_sum   'Sr24 Ca8 Fe12 Co20 O80'
_cell_volume   1945.21150522
_cell_formula_units_Z   4
loop_
 _symmetry_equiv_pos_site_id
 _symmetry_equiv_pos_as_xyz
  1  'x, y, z'
loop_
 _atom_site_type_symbol
 _atom_site_label
 _atom_site_symmetry_multiplicity
 _atom_site_fract_x
 _atom_site_fract_y
 _atom_site_fract_z
 _atom_site_occupancy
  Sr  Sr0  1  0.30896300  0.06311000  0.61016500  1
  Sr  Sr1  1  0.30909000  0.56399600  0.61039200  1
  Sr  Sr2  1  0.81050000  0.06748200  0.61095300  1
  Sr  Sr3  1  0.80449600  0.56207300  0.61153300  1
  Sr  Sr4  1  0.19099700  0.43696200  0.38536100  1
  Sr  Sr5  1  0.20145300  0.43957600  0.89379800  1
  Sr  Sr6  1  0.19611200  0.93361100  0.38521700  1
  Sr  Sr7  1  0.69602300  0.43642300  0.38473000  1
  Sr  Sr8  1  0.69755800  0.43751800  0.89420400  1
  Sr  Sr9  1  0.69745600  0.93396900  0.38717800  1
  Sr  Sr10  1  0.70054000  0.93660900  0.89386100  1
  Sr  Sr11  1  0.05704900  0.29827800  0.11168500  1
  Sr  Sr12  1  0.05628900  0.29322000  0.61087800  1
  Sr  Sr13  1  0.05818100  0.79955600  0.61198200  1
  Sr  Sr14  1  0.55861900  0.29867900  0.60983200  1
  Sr  Sr15  1  0.55678600  0.79155100  0.11018000  1
  Sr  Sr16  1  0.55698100  0.79796200  0.60976700  1
  Sr  Sr17  1  0.44616100  0.20206000  0.38501200  1
  Sr  Sr18  1  0.45156000  0.20787400  0.89459100  1
  Sr  Sr19  1  0.44283500  0.70210900  0.38420200  1
  Sr  Sr20  1  0.44731300  0.70400100  0.89417900  1
  Sr  Sr21  1  0.94431100  0.20138300  0.38475700  1
  Sr  Sr22  1  0.95056700  0.20580500  0.89428300  1
  Sr  Sr23  1  0.94658700  0.69371400  0.38291700  1
  Ca  Ca0  1  0.30194100  0.06862900  0.10530300  1
  Ca  Ca1  1  0.30730700  0.56461300  0.10705700  1
  Ca  Ca2  1  0.80155200  0.06631800  0.10642700  1
  Ca  Ca3  1  0.80161500  0.56258900  0.10752100  1
  Ca  Ca4  1  0.19453000  0.93394100  0.89621600  1
  Ca  Ca5  1  0.04981200  0.78963700  0.10710600  1
  Ca  Ca6  1  0.55745900  0.29152100  0.10813700  1
  Ca  Ca7  1  0.94672600  0.71524500  0.89601200  1
  Fe  Fe0  1  0.11054300  0.09049700  0.75475600  1
  Fe  Fe1  1  0.10567800  0.59809200  0.75385100  1
  Fe  Fe2  1  0.60373000  0.09025400  0.24406700  1
  Fe  Fe3  1  0.60913200  0.09127800  0.75230700  1
  Fe  Fe4  1  0.61133700  0.59334700  0.75240700  1
  Fe  Fe5  1  0.35936100  0.40977100  0.24552200  1
  Fe  Fe6  1  0.35790800  0.41066800  0.75086400  1
  Fe  Fe7  1  0.34868700  0.90703600  0.24301800  1
  Fe  Fe8  1  0.35803400  0.90992800  0.75586800  1
  Fe  Fe9  1  0.86138400  0.41546900  0.75630800  1
  Fe  Fe10  1  0.85996400  0.90775700  0.24581700  1
  Fe  Fe11  1  0.86118200  0.90676600  0.75212200  1
  Co  Co0  1  0.00868600  0.00232100  0.00598200  1
  Co  Co1  1  0.00217700  0.99677900  0.49485300  1
  Co  Co2  1  0.00583200  0.50171700  0.00211800  1
  Co  Co3  1  0.00792900  0.50526600  0.50689500  1
  Co  Co4  1  0.50725400  0.00279000  0.00325800  1
  Co  Co5  1  0.50308000  0.99848700  0.49792500  1
  Co  Co6  1  0.50943500  0.50092800  0.00730100  1
  Co  Co7  1  0.50263200  0.49674200  0.49411400  1
  Co  Co8  1  0.26068200  0.25266300  0.00578600  1
  Co  Co9  1  0.25385000  0.24980300  0.49975000  1
  Co  Co10  1  0.25771800  0.75336200  0.00774500  1
  Co  Co11  1  0.25469400  0.75073000  0.50278400  1
  Co  Co12  1  0.75730400  0.25352700  0.00585000  1
  Co  Co13  1  0.75182200  0.24869500  0.49455800  1
  Co  Co14  1  0.75939000  0.75144800  0.00651800  1
  Co  Co15  1  0.75497200  0.74938300  0.50017300  1
  Co  Co16  1  0.10592900  0.09034100  0.24472900  1
  Co  Co17  1  0.10446900  0.59355000  0.24218900  1
  Co  Co18  1  0.60914300  0.58856700  0.24566100  1
  Co  Co19  1  0.85308000  0.40209800  0.24254100  1
  O  O0  1  0.12146300  0.11323100  0.49227600  1
  O  O1  1  0.12878900  0.11825700  0.99016600  1
  O  O2  1  0.12407300  0.62263900  0.49027100  1
  O  O3  1  0.12525700  0.63545100  0.99238000  1
  O  O4  1  0.63229600  0.13132600  0.49166400  1
  O  O5  1  0.63158700  0.12633100  0.99682400  1
  O  O6  1  0.61657000  0.61789400  0.49211500  1
  O  O7  1  0.62737700  0.62054100  0.99454900  1
  O  O8  1  0.14575300  0.37502400  0.01284800  1
  O  O9  1  0.12206500  0.38123000  0.50405300  1
  O  O10  1  0.12929100  0.88826100  0.01295000  1
  O  O11  1  0.13848500  0.86736200  0.50510400  1
  O  O12  1  0.63661800  0.38378100  0.01786900  1
  O  O13  1  0.63364500  0.37649800  0.50813400  1
  O  O14  1  0.64324300  0.87236500  0.01291200  1
  O  O15  1  0.62769900  0.88457700  0.50381900  1
  O  O16  1  0.38250400  0.11531600  0.49166800  1
  O  O17  1  0.37029000  0.12598700  0.99460500  1
  O  O18  1  0.36567300  0.62928500  0.49091800  1
  O  O19  1  0.37702300  0.61578300  0.99537600  1
  O  O20  1  0.87196700  0.12056000  0.48871300  1
  O  O21  1  0.88371200  0.11362200  0.99741200  1
  O  O22  1  0.87836800  0.61175200  0.49321500  1
  O  O23  1  0.87433400  0.63165800  0.99418800  1
  O  O24  1  0.39188100  0.38535000  0.02054200  1
  O  O25  1  0.38256000  0.38620600  0.50236400  1
  O  O26  1  0.37568800  0.88130300  0.01254400  1
  O  O27  1  0.38011900  0.87661800  0.50598800  1
  O  O28  1  0.88209600  0.38240000  0.01302100  1
  O  O29  1  0.87361000  0.36902300  0.50449900  1
  O  O30  1  0.88923000  0.88343600  0.01873300  1
  O  O31  1  0.88860400  0.88224300  0.50353600  1
  O  O32  1  0.09631500  0.09969800  0.14320600  1
  O  O33  1  0.08581500  0.08982800  0.64426700  1
  O  O34  1  0.08887900  0.59781500  0.13768400  1
  O  O35  1  0.07770200  0.59309700  0.64090100  1
  O  O36  1  0.59027400  0.10058100  0.13850800  1
  O  O37  1  0.58441000  0.09518300  0.64282700  1
  O  O38  1  0.59444900  0.59704900  0.14358100  1
  O  O39  1  0.58139800  0.59528000  0.64233400  1
  O  O40  1  0.44176000  0.40849800  0.35705600  1
  O  O41  1  0.44189100  0.40297700  0.85818700  1
  O  O42  1  0.43667000  0.90789600  0.35386300  1
  O  O43  1  0.44770900  0.90810400  0.86487400  1
  O  O44  1  0.93305600  0.40655300  0.35001800  1
  O  O45  1  0.94508500  0.40760200  0.86455900  1
  O  O46  1  0.94239500  0.90539800  0.35665600  1
  O  O47  1  0.94749000  0.89728600  0.85982800  1
  O  O48  1  0.33911900  0.28450400  0.14127400  1
  O  O49  1  0.33102500  0.29933400  0.64055400  1
  O  O50  1  0.33285800  0.78283400  0.13901700  1
  O  O51  1  0.33110900  0.79832300  0.64508800  1
  O  O52  1  0.83354400  0.28574300  0.13998600  1
  O  O53  1  0.84104400  0.30264400  0.64820500  1
  O  O54  1  0.84063900  0.78212700  0.14233500  1
  O  O55  1  0.83367400  0.79759300  0.64119200  1
  O  O56  1  0.18386100  0.19352100  0.35267500  1
  O  O57  1  0.19538200  0.20944800  0.86021700  1
  O  O58  1  0.18063400  0.69867600  0.34910800  1
  O  O59  1  0.19443600  0.71514100  0.85973900  1
  O  O60  1  0.68407400  0.20255600  0.35433900  1
  O  O61  1  0.69259600  0.20296000  0.86153400  1
  O  O62  1  0.68663100  0.69205400  0.35401300  1
  O  O63  1  0.70248800  0.70582700  0.85973500  1
  O  O64  1  0.42226800  0.05967000  0.23776700  1
  O  O65  1  0.43125200  0.06390600  0.75263000  1
  O  O66  1  0.42571200  0.56369100  0.23975600  1
  O  O67  1  0.43337500  0.56750000  0.75267700  1
  O  O68  1  0.92311500  0.06253100  0.23906500  1
  O  O69  1  0.93150900  0.06485500  0.75301900  1
  O  O70  1  0.92448800  0.55681200  0.23743100  1
  O  O71  1  0.93082800  0.57706800  0.76038400  1
  O  O72  1  0.18414800  0.43913400  0.24724300  1
  O  O73  1  0.18052400  0.44155200  0.75216100  1
  O  O74  1  0.16894200  0.92573700  0.23962700  1
  O  O75  1  0.18148500  0.93362600  0.76062800  1
  O  O76  1  0.67258500  0.42580800  0.24018800  1
  O  O77  1  0.68121400  0.43485900  0.75223500  1
  O  O78  1  0.68246500  0.93692000  0.24724700  1
  O  O79  1  0.68342500  0.93481400  0.75225100  1
loop_
_geom_bond_atom_site_label_1
_geom_bond_atom_site_label_2
_geom_bond_distance
_geom_bond_site_symmetry_2
Ca0 O48 2.311889 1_555
Ca0 O64 2.346446 1_555
Ca0 O32 2.511776 1_555
Ca0 O10 2.520457 1_545
Ca0 O1 2.523763 1_554
Ca0 O26 2.527065 1_545
Ca0 O17 2.556757 1_554
Ca0 O36 2.998332 1_555
Ca1 O66 2.313944 1_555
Ca1 O50 2.336951 1_555
Ca1 O24 2.480254 1_555
Ca1 O8 2.528030 1_555
Ca1 O19 2.547135 1_554
Ca1 O34 2.587611 1_555
Ca1 O3 2.687125 1_554
Ca1 O38 2.977016 1_555
Ca2 O68 2.332183 1_555
Ca2 O52 2.350892 1_555
Ca2 O5 2.501122 1_554
Ca2 O36 2.524384 1_555
Ca2 O30 2.534004 1_545
Ca2 O14 2.540530 1_545
Ca2 O21 2.558197 1_554
Ca3 O70 2.302962 1_555
Ca3 O54 2.356158 1_555
Ca3 O12 2.457036 1_555
Ca3 O38 2.514240 1_555
Ca3 O28 2.532236 1_555
Ca3 O7 2.550551 1_554
Ca3 O23 2.693044 1_554
Ca3 O34 2.998905 1_655
Ca4 O59 2.339964 1_555
Ca4 O75 2.366689 1_555
Ca4 O1 2.472689 1_565
Ca4 O47 2.556806 1_455
Ca4 O10 2.577571 1_556
Ca4 O26 2.597067 1_556
Ca4 O17 2.637029 1_565
Ca4 O43 2.958906 1_555
Ca5 O74 2.326684 1_555
Ca5 O34 2.394548 1_555
Ca5 O30 2.441639 1_455
Ca5 O23 2.495224 1_454
Ca5 O54 2.539314 1_455
Ca5 O3 2.568199 1_554
Ca5 O10 2.616571 1_555
Ca5 O50 2.949086 1_555
Ca6 O76 2.304058 1_555
Ca6 O36 2.377147 1_555
Ca6 O24 2.462533 1_555
Ca6 O12 2.509581 1_555
Ca6 O5 2.576335 1_554
Ca6 O17 2.605971 1_554
Ca6 O48 2.615852 1_555
Ca6 O52 2.874266 1_555
Ca7 O47 2.335604 1_555
Ca7 O71 2.369980 1_555
Ca7 O63 2.519228 1_555
Ca7 O3 2.530279 1_655
Ca7 O23 2.536197 1_555
Ca7 O30 2.631427 1_556
Ca7 O10 2.639313 1_656
Ca7 O59 2.947670 1_655
Fe0 O57 1.872511 1_555
Fe0 O33 1.894167 1_555
Fe0 O75 1.943201 1_545
Fe0 O69 1.953041 1_455
Fe1 O59 1.877198 1_555
Fe1 O35 1.916165 1_555
Fe1 O73 1.932021 1_555
Fe1 O71 1.954369 1_455
Fe2 O36 1.875619 1_555
Fe2 O60 1.892284 1_555
Fe2 O78 1.931240 1_545
Fe2 O64 1.961604 1_555
Fe3 O61 1.882646 1_555
Fe3 O37 1.893760 1_555
Fe3 O79 1.933191 1_545
Fe3 O65 1.956384 1_555
Fe4 O63 1.879749 1_555
Fe4 O39 1.887449 1_555
Fe4 O77 1.934563 1_555
Fe4 O67 1.954194 1_555
Fe5 O48 1.886409 1_555
Fe5 O40 1.910443 1_555
Fe5 O66 1.924308 1_555
Fe5 O72 1.934046 1_555
Fe6 O41 1.872053 1_555
Fe6 O49 1.893537 1_555
Fe6 O67 1.936979 1_555
Fe6 O73 1.958098 1_555
Fe7 O50 1.887361 1_555
Fe7 O42 1.901762 1_555
Fe7 O64 1.939303 1_565
Fe7 O74 1.943239 1_555
Fe8 O43 1.886601 1_555
Fe8 O51 1.900968 1_555
Fe8 O65 1.935303 1_565
Fe8 O75 1.954731 1_555
Fe9 O53 1.881541 1_555
Fe9 O45 1.886834 1_555
Fe9 O71 1.944310 1_555
Fe9 O77 1.945809 1_555
Fe10 O54 1.880427 1_555
Fe10 O46 1.903579 1_555
Fe10 O68 1.927750 1_565
Fe10 O78 1.956769 1_555
Fe11 O47 1.890012 1_555
Fe11 O55 1.893098 1_555
Fe11 O69 1.933689 1_565
Fe11 O79 1.951597 1_555
Co0 O10 1.832495 1_545
Co0 O21 1.845490 1_454
Co0 O30 1.977716 1_445
Co0 O1 1.988453 1_554
Co0 O32 2.220599 1_555
Co0 O47 2.360627 1_444
Co1 O31 1.860833 1_455
Co1 O0 1.867088 1_565
Co1 O20 1.981988 1_465
Co1 O11 2.078630 1_555
Co1 O46 2.219125 1_455
Co1 O33 2.392146 1_565
Co2 O28 1.996430 1_455
Co2 O23 2.044091 1_454
Co2 O3 2.072979 1_554
Co2 O8 2.084328 1_555
Co2 O34 2.190381 1_555
Co2 O45 2.212639 1_454
Co3 O22 1.851189 1_455
Co3 O9 1.860013 1_555
Co3 O2 1.978148 1_555
Co3 O29 2.102242 1_455
Co3 O35 2.148806 1_555
Co3 O44 2.510933 1_455
Co4 O5 1.995054 1_554
Co4 O17 2.031256 1_554
Co4 O26 2.059403 1_545
Co4 O14 2.083568 1_545
Co4 O36 2.188691 1_555
Co4 O43 2.226653 1_544
Co5 O16 1.853906 1_565
Co5 O15 1.860461 1_555
Co5 O27 1.985405 1_555
Co5 O4 2.106031 1_565
Co5 O42 2.306297 1_555
Co5 O37 2.327504 1_565
Co6 O12 1.911854 1_555
Co6 O19 1.935306 1_554
Co6 O24 1.941413 1_555
Co6 O7 1.972295 1_554
Co6 O38 2.202440 1_555
Co6 O41 2.392327 1_554
Co7 O6 1.860998 1_555
Co7 O25 1.874845 1_555
Co7 O13 1.972012 1_555
Co7 O18 2.100897 1_555
Co7 O40 2.197220 1_555
Co7 O39 2.378810 1_555
Co8 O17 1.852912 1_554
Co8 O8 1.853283 1_555
Co8 O24 1.966755 1_555
Co8 O1 1.980859 1_554
Co8 O48 2.199065 1_555
Co8 O57 2.344699 1_554
Co9 O9 2.051830 1_555
Co9 O0 2.053903 1_555
Co9 O16 2.054719 1_555
Co9 O25 2.060441 1_555
Co9 O49 2.256951 1_555
Co9 O56 2.351952 1_555
Co10 O3 1.856887 1_554
Co10 O26 1.895391 1_555
Co10 O19 2.014549 1_554
Co10 O10 2.054731 1_555
Co10 O50 2.133070 1_555
Co10 O59 2.395338 1_554
Co11 O11 1.814846 1_555
Co11 O18 1.821380 1_555
Co11 O2 1.938823 1_555
Co11 O27 1.944926 1_555
Co11 O51 2.283547 1_555
Co11 O58 2.464727 1_555
Co12 O5 1.916938 1_554
Co12 O28 1.936327 1_555
Co12 O12 1.964972 1_555
Co12 O21 2.082236 1_554
Co12 O52 2.174982 1_555
Co12 O61 2.313860 1_554
Co13 O29 1.825781 1_555
Co13 O4 1.833585 1_555
Co13 O13 1.928866 1_555
Co13 O20 1.938340 1_555
Co13 O60 2.250638 1_555
Co13 O53 2.465222 1_555
Co14 O23 1.839172 1_554
Co14 O14 1.850343 1_555
Co14 O30 1.966311 1_555
Co14 O7 1.975346 1_554
Co14 O54 2.208624 1_555
Co14 O63 2.366593 1_554
Co15 O22 2.040751 1_555
Co15 O15 2.048298 1_555
Co15 O6 2.054347 1_555
Co15 O31 2.062284 1_555
Co15 O55 2.262597 1_555
Co15 O62 2.336356 1_555
Co16 O32 1.810104 1_555
Co16 O56 1.826633 1_555
Co16 O74 1.956633 1_545
Co16 O68 1.974704 1_455
Co17 O58 1.818035 1_555
Co17 O34 1.826941 1_555
Co17 O72 1.952746 1_555
Co17 O70 1.967166 1_455
Co18 O38 1.803331 1_555
Co18 O62 1.832099 1_555
Co18 O76 1.938059 1_555
Co18 O66 1.975430 1_555
Co19 O44 1.821505 1_555
Co19 O52 1.824051 1_555
Co19 O70 1.949439 1_555
Co19 O76 1.962835 1_555
O0 Sr6 2.616376 1_545
O0 Sr0 2.636834 1_555
O0 Sr12 2.688858 1_555
O0 Sr21 2.691976 1_455
O1 Sr22 2.574111 1_455
O1 Sr11 2.757926 1_556
O2 Sr23 2.583217 1_455
O2 Sr4 2.590070 1_555
O2 Sr1 2.693952 1_555
O2 Sr13 2.710791 1_555
O3 Sr5 2.651082 1_555
O4 Sr17 2.623539 1_555
O4 Sr9 2.655106 1_545
O4 Sr14 2.663503 1_555
O4 Sr2 2.677863 1_555
O5 Sr10 2.609077 1_545
O5 Sr18 2.609192 1_555
O6 Sr16 2.649077 1_555
O6 Sr19 2.652103 1_555
O6 Sr7 2.658794 1_555
O6 Sr3 2.686540 1_555
O7 Sr8 2.546558 1_555
O7 Sr20 2.602792 1_555
O7 Sr15 2.635904 1_556
O8 Sr11 2.600331 1_555
O8 Sr5 2.669706 1_554
O8 Sr22 2.700591 1_454
O9 Sr21 2.665641 1_455
O9 Sr12 2.668726 1_555
O9 Sr1 2.670383 1_555
O9 Sr4 2.684725 1_555
O11 Sr13 2.624113 1_555
O11 Sr0 2.657664 1_565
O11 Sr6 2.703712 1_555
O11 Sr23 2.725568 1_455
O12 Sr18 2.706456 1_554
O12 Sr8 2.713812 1_554
O13 Sr14 2.570278 1_555
O13 Sr3 2.584346 1_555
O13 Sr17 2.710802 1_555
O13 Sr7 2.751257 1_555
O14 Sr15 2.587002 1_555
O14 Sr10 2.676109 1_554
O14 Sr20 2.701527 1_554
O15 Sr9 2.621105 1_555
O15 Sr2 2.649905 1_565
O15 Sr16 2.671827 1_555
O15 Sr19 2.720449 1_555
O16 Sr17 2.646314 1_555
O16 Sr6 2.660544 1_545
O16 Sr14 2.671127 1_555
O16 Sr0 2.688993 1_555
O17 Sr18 2.606024 1_555
O18 Sr19 2.632872 1_555
O18 Sr4 2.658807 1_555
O18 Sr16 2.676604 1_555
O18 Sr1 2.685717 1_555
O19 Sr5 2.542921 1_555
O19 Sr20 2.603909 1_555
O19 Sr15 2.627444 1_556
O20 Sr9 2.603947 1_545
O20 Sr21 2.610702 1_555
O20 Sr12 2.678188 1_655
O20 Sr2 2.688926 1_555
O21 Sr10 2.600680 1_545
O21 Sr11 2.643154 1_656
O21 Sr22 2.643450 1_555
O22 Sr7 2.607279 1_555
O22 Sr3 2.674714 1_555
O22 Sr23 2.698285 1_555
O22 Sr13 2.720276 1_655
O23 Sr8 2.662385 1_555
O24 Sr18 2.729550 1_554
O24 Sr5 2.775062 1_554
O25 Sr1 2.608565 1_555
O25 Sr4 2.653894 1_555
O25 Sr14 2.681442 1_555
O25 Sr17 2.690767 1_555
O26 Sr15 2.622927 1_555
O26 Sr20 2.706914 1_554
O27 Sr16 2.588782 1_555
O27 Sr0 2.611339 1_565
O27 Sr19 2.681439 1_555
O27 Sr6 2.686809 1_555
O28 Sr11 2.560274 1_655
O28 Sr8 2.657206 1_554
O28 Sr22 2.689513 1_554
O29 Sr12 2.631302 1_655
O29 Sr21 2.666145 1_555
O29 Sr3 2.670677 1_555
O29 Sr7 2.701180 1_555
O30 Sr10 2.738498 1_554
O31 Sr13 2.626363 1_655
O31 Sr9 2.649520 1_555
O31 Sr2 2.674417 1_565
O31 Sr23 2.722860 1_555
O32 Sr11 2.476537 1_555
O33 Sr12 2.537251 1_555
O33 Sr0 2.662015 1_555
O33 Sr2 2.854437 1_455
O33 Sr13 3.133072 1_545
O35 Sr13 2.529770 1_555
O35 Sr1 2.721568 1_555
O35 Sr3 2.847872 1_455
O37 Sr14 2.533313 1_555
O37 Sr2 2.675352 1_555
O37 Sr0 2.862792 1_555
O38 Sr15 2.445874 1_555
O39 Sr16 2.520190 1_555
O39 Sr3 2.638565 1_555
O39 Sr1 2.830831 1_555
O39 Sr14 3.200781 1_555
O40 Sr17 2.523847 1_555
O40 Sr7 2.648633 1_555
O40 Sr4 2.910954 1_555
O40 Sr19 3.185554 1_555
O41 Sr18 2.472568 1_555
O41 Sr8 2.646604 1_555
O41 Sr5 2.863571 1_555
O42 Sr19 2.536476 1_555
O42 Sr9 2.701432 1_555
O42 Sr6 2.824305 1_555
O42 Sr17 3.176966 1_565
O43 Sr20 2.512816 1_555
O43 Sr10 2.629878 1_555
O44 Sr21 2.566921 1_555
O44 Sr4 2.669026 1_655
O44 Sr7 2.815815 1_555
O44 Sr23 3.093663 1_555
O45 Sr22 2.487336 1_555
O45 Sr5 2.669609 1_655
O45 Sr8 2.887415 1_555
O46 Sr23 2.567753 1_555
O46 Sr6 2.640354 1_655
O46 Sr9 2.865800 1_555
O46 Sr21 3.208655 1_565
O47 Sr10 2.922378 1_555
O48 Sr11 2.950997 1_555
O49 Sr0 2.537559 1_555
O49 Sr14 2.685105 1_555
O49 Sr12 2.857618 1_555
O49 Sr1 3.186437 1_555
O50 Sr15 2.638811 1_555
O51 Sr1 2.506421 1_555
O51 Sr16 2.707674 1_555
O51 Sr13 2.834454 1_555
O52 Sr11 2.634447 1_655
O53 Sr2 2.514115 1_555
O53 Sr12 2.607478 1_655
O53 Sr14 2.922055 1_555
O53 Sr3 3.186325 1_555
O54 Sr15 2.959712 1_555
O55 Sr3 2.535691 1_555
O55 Sr13 2.641368 1_655
O55 Sr16 2.877469 1_555
O56 Sr4 2.611710 1_555
O56 Sr17 2.717984 1_555
O56 Sr21 2.819784 1_455
O56 Sr6 3.152826 1_545
O57 Sr5 2.463903 1_555
O57 Sr18 2.654914 1_555
O57 Sr22 2.900854 1_455
O58 Sr6 2.509686 1_555
O58 Sr19 2.713861 1_555
O58 Sr23 2.785730 1_455
O58 Sr4 3.204570 1_555
O59 Sr20 2.630245 1_555
O60 Sr7 2.510112 1_555
O60 Sr21 2.705014 1_555
O60 Sr17 2.795404 1_555
O61 Sr8 2.514810 1_555
O61 Sr22 2.673632 1_555
O61 Sr18 2.845369 1_555
O62 Sr9 2.592817 1_555
O62 Sr23 2.703647 1_555
O62 Sr19 2.848580 1_555
O62 Sr7 3.090958 1_555
O63 Sr10 2.475412 1_555
O63 Sr20 3.012548 1_555
O64 Sr17 2.529360 1_555
O65 Sr0 2.465619 1_555
O65 Sr18 2.469061 1_555
O66 Sr19 2.492409 1_555
O67 Sr20 2.452184 1_555
O67 Sr1 2.458233 1_555
O68 Sr21 2.501536 1_555
O69 Sr22 2.451204 1_555
O69 Sr2 2.469064 1_555
O70 Sr23 2.489965 1_555
O71 Sr3 2.526218 1_555
O72 Sr11 2.400989 1_555
O72 Sr4 2.438558 1_555
O73 Sr5 2.461957 1_555
O73 Sr12 2.485916 1_555
O74 Sr6 2.482660 1_555
O75 Sr13 2.520170 1_555
O76 Sr7 2.463731 1_555
O77 Sr14 2.449833 1_555
O77 Sr8 2.462536 1_555
O78 Sr15 2.431312 1_555
O78 Sr9 2.450478 1_555
O79 Sr10 2.457223 1_555
O79 Sr16 2.462919 1_555
