# generated using pymatgen
data_EuAl
_symmetry_space_group_name_H-M   'P 1'
_cell_length_a   5.75072286
_cell_length_b   9.47780150
_cell_length_c   9.97517117
_cell_angle_alpha   90.00000000
_cell_angle_beta   90.00000000
_cell_angle_gamma   90.00000000
_symmetry_Int_Tables_number   1
_chemical_formula_structural   EuAl
_chemical_formula_sum   'Eu10 Al10'
_cell_volume   543.68882173
_cell_formula_units_Z   10
loop_
 _symmetry_equiv_pos_site_id
 _symmetry_equiv_pos_as_xyz
  1  'x, y, z'
loop_
 _atom_site_type_symbol
 _atom_site_label
 _atom_site_symmetry_multiplicity
 _atom_site_fract_x
 _atom_site_fract_y
 _atom_site_fract_z
 _atom_site_occupancy
  Eu  Eu0  1  0.50000000  0.82000209  0.91431959  1
  Eu  Eu1  1  0.50000000  0.17999791  0.91431959  1
  Eu  Eu2  1  0.00000000  0.67999791  0.08568041  1
  Eu  Eu3  1  -0.00000000  0.32000209  0.08568041  1
  Eu  Eu4  1  0.50000000  0.69869714  0.30942925  1
  Eu  Eu5  1  0.50000000  0.30130286  0.30942925  1
  Eu  Eu6  1  0.00000000  0.80130286  0.69057075  1
  Eu  Eu7  1  0.00000000  0.19869714  0.69057075  1
  Eu  Eu8  1  0.50000000  0.00000000  0.50774636  1
  Eu  Eu9  1  -0.00000000  0.50000000  0.49225364  1
  Al  Al0  1  0.74222624  0.00000000  0.18489062  1
  Al  Al1  1  0.25777376  0.00000000  0.18489062  1
  Al  Al2  1  0.75777376  0.50000000  0.81510938  1
  Al  Al3  1  0.24222624  0.50000000  0.81510938  1
  Al  Al4  1  0.50000000  0.64199439  0.62861936  1
  Al  Al5  1  0.50000000  0.35800561  0.62861936  1
  Al  Al6  1  -0.00000000  0.85800561  0.37138064  1
  Al  Al7  1  -0.00000000  0.14199439  0.37138064  1
  Al  Al8  1  0.50000000  0.50000000  0.04187734  1
  Al  Al9  1  0.00000000  0.00000000  0.95812266  1
loop_
_geom_bond_atom_site_label_1
_geom_bond_atom_site_label_2
_geom_bond_distance
_geom_bond_site_symmetry_2
Eu0 Eu1 3.411969 1_565
Eu0 Eu2 3.598658 1_556
Eu0 Eu2 3.598658 1_656
Eu0 Eu6 3.644261 1_655
Eu0 Eu6 3.644261 1_555
Eu1 Eu3 3.598658 1_656
Eu1 Eu3 3.598658 1_556
Eu1 Eu7 3.644261 1_555
Eu1 Eu7 3.644261 1_655
Eu2 Eu3 3.411969 1_555
Eu2 Eu4 3.644261 1_455
Eu2 Eu4 3.644261 1_555
Eu3 Eu5 3.644261 1_455
Eu3 Eu5 3.644261 1_555
Al0 Al9 2.704502 1_654
Al0 Al7 2.732990 1_655
Al0 Al6 2.732990 1_645
Al0 Al1 2.785952 1_555
Al0 Al1 2.964771 1_655
Al0 Eu4 3.411544 1_545
Al0 Eu5 3.411544 1_555
Al0 Eu1 3.483579 1_554
Al0 Eu0 3.483579 1_544
Al0 Eu8 3.508884 1_555
Al0 Eu2 3.517873 1_645
Al0 Eu3 3.517873 1_655
Al1 Al9 2.704502 1_554
Al1 Al7 2.732990 1_555
Al1 Al6 2.732990 1_545
Al1 Eu5 3.411544 1_555
Al1 Eu4 3.411544 1_545
Al1 Eu0 3.483579 1_544
Al1 Eu1 3.483579 1_554
Al1 Eu8 3.508884 1_555
Al1 Eu2 3.517873 1_545
Al1 Eu3 3.517873 1_555
Al2 Al8 2.704502 1_556
Al2 Al5 2.732990 1_555
Al2 Al4 2.732990 1_555
Al2 Al3 2.785952 1_655
Al2 Al3 2.964771 1_555
Al2 Eu6 3.411544 1_655
Al2 Eu7 3.411544 1_655
Al2 Eu3 3.483579 1_656
Al2 Eu2 3.483579 1_656
Al2 Eu9 3.508884 1_655
Al2 Eu1 3.517873 1_555
Al2 Eu0 3.517873 1_555
Al3 Al8 2.704502 1_556
Al3 Al5 2.732990 1_555
Al3 Al4 2.732990 1_555
Al3 Eu7 3.411544 1_555
Al3 Eu6 3.411544 1_555
Al3 Eu2 3.483579 1_556
Al3 Eu3 3.483579 1_556
Al3 Eu9 3.508884 1_555
Al3 Eu1 3.517873 1_555
Al3 Eu0 3.517873 1_555
Al4 Al5 2.691589 1_555
Al4 Eu4 3.229012 1_555
Al4 Eu6 3.305961 1_655
Al4 Eu6 3.305961 1_555
Al4 Eu0 3.311851 1_555
Al4 Eu9 3.453868 1_655
Al4 Eu9 3.453868 1_555
Al4 Eu8 3.600965 1_565
Al5 Eu5 3.229012 1_555
Al5 Eu7 3.305961 1_555
Al5 Eu7 3.305961 1_655
Al5 Eu1 3.311851 1_555
Al5 Eu9 3.453868 1_655
Al5 Eu9 3.453868 1_555
Al5 Eu8 3.600965 1_555
Al6 Al7 2.691589 1_565
Al6 Eu6 3.229012 1_555
Al6 Eu4 3.305961 1_455
Al6 Eu4 3.305961 1_555
Al6 Eu2 3.311851 1_555
Al6 Eu8 3.453868 1_465
Al6 Eu8 3.453868 1_565
Al6 Eu9 3.600965 1_555
Al7 Eu7 3.229012 1_555
Al7 Eu5 3.305961 1_455
Al7 Eu5 3.305961 1_555
Al7 Eu3 3.311851 1_555
Al7 Eu8 3.453868 1_455
Al7 Eu8 3.453868 1_555
Al7 Eu9 3.600965 1_555
Al8 Eu5 3.266403 1_555
Al8 Eu4 3.266403 1_555
Al8 Eu0 3.289013 1_554
Al8 Eu1 3.289013 1_554
Al8 Eu3 3.371796 1_555
Al8 Eu3 3.371796 1_655
Al8 Eu2 3.371796 1_555
Al8 Eu2 3.371796 1_655
Al9 Eu6 3.266403 1_545
Al9 Eu7 3.266403 1_555
Al9 Eu2 3.289013 1_546
Al9 Eu3 3.289013 1_556
Al9 Eu1 3.371796 1_555
Al9 Eu1 3.371796 1_455
Al9 Eu0 3.371796 1_445
Al9 Eu0 3.371796 1_545
