# generated using pymatgen
data_K2MnP2H2(O4F)2
_symmetry_space_group_name_H-M   'P 1'
_cell_length_a   4.66215673
_cell_length_b   8.26388497
_cell_length_c   12.54543799
_cell_angle_alpha   89.68585683
_cell_angle_beta   88.82444596
_cell_angle_gamma   89.38002716
_symmetry_Int_Tables_number   1
_chemical_formula_structural   K2MnP2H2(O4F)2
_chemical_formula_sum   'K4 Mn2 P4 H4 O16 F4'
_cell_volume   483.20798879
_cell_formula_units_Z   2
loop_
 _symmetry_equiv_pos_site_id
 _symmetry_equiv_pos_as_xyz
  1  'x, y, z'
loop_
 _atom_site_type_symbol
 _atom_site_label
 _atom_site_symmetry_multiplicity
 _atom_site_fract_x
 _atom_site_fract_y
 _atom_site_fract_z
 _atom_site_occupancy
  K  K0  1  0.50806800  0.60390500  0.69292600  1
  K  K1  1  0.49193200  0.39609500  0.30707400  1
  K  K2  1  0.48852500  0.10448700  0.80116200  1
  K  K3  1  0.51147500  0.89551300  0.19883800  1
  Mn  Mn0  1  0.50000000  0.00000000  0.50000000  1
  Mn  Mn1  1  0.50000000  0.50000000  0.00000000  1
  P  P0  1  0.99987900  0.27708700  0.09428100  1
  P  P1  1  0.00012100  0.72291300  0.90571900  1
  P  P2  1  0.99660500  0.22500500  0.58819000  1
  P  P3  1  0.00339500  0.77499500  0.41181000  1
  H  H0  1  0.94249700  0.40928500  0.46550900  1
  H  H1  1  0.05750300  0.59071500  0.53449100  1
  H  H2  1  0.93997100  0.09790300  0.96997500  1
  H  H3  1  0.06002900  0.90209700  0.03002500  1
  O  O0  1  0.75467400  0.40492200  0.10483000  1
  O  O1  1  0.24532600  0.59507800  0.89517000  1
  O  O2  1  0.24095700  0.31722800  0.01089100  1
  O  O3  1  0.75904300  0.68277200  0.98910900  1
  O  O4  1  0.90258800  0.77323900  0.79681300  1
  O  O5  1  0.09741200  0.22676100  0.20318700  1
  O  O6  1  0.84848800  0.12083000  0.03934800  1
  O  O7  1  0.15151200  0.87917000  0.96065200  1
  O  O8  1  0.83659300  0.37995900  0.53090100  1
  O  O9  1  0.16340700  0.62004100  0.46909900  1
  O  O10  1  0.76019900  0.81493600  0.49471100  1
  O  O11  1  0.23980100  0.18506400  0.50528900  1
  O  O12  1  0.09442300  0.27612900  0.69634600  1
  O  O13  1  0.90557700  0.72387100  0.30365400  1
  O  O14  1  0.75726800  0.09732100  0.60094000  1
  O  O15  1  0.24273200  0.90267900  0.39906000  1
  F  F0  1  0.67589500  0.39632100  0.88543000  1
  F  F1  1  0.32410500  0.60367900  0.11457000  1
  F  F2  1  0.32128400  0.90522500  0.61635900  1
  F  F3  1  0.67871600  0.09477500  0.38364100  1
loop_
_geom_bond_atom_site_label_1
_geom_bond_atom_site_label_2
_geom_bond_distance
_geom_bond_site_symmetry_2
K0 O4 2.685879 1_555
K0 O1 2.795670 1_555
K0 O8 3.123266 1_555
K0 O10 3.237834 1_555
K0 O12 3.341604 1_555
K1 O5 2.685879 1_555
K1 O0 2.795670 1_555
K1 O9 3.123266 1_555
K1 O11 3.237834 1_555
K1 O13 3.341604 1_555
K2 O12 2.671940 1_555
K2 O14 2.784550 1_555
K2 O7 3.135708 1_545
K3 O13 2.671940 1_555
K3 O15 2.784550 1_555
K3 O6 3.135708 1_565
Mn0 O10 1.942306 1_545
Mn0 O11 1.942306 1_555
Mn0 O15 1.945098 1_545
Mn0 O14 1.945098 1_555
Mn1 O2 1.946529 1_555
Mn1 O3 1.946529 1_554
Mn1 O1 1.946597 1_554
Mn1 O0 1.946597 1_555
H0 O8 0.979444 1_555
H0 K1 2.924682 1_555
H1 O9 0.979444 1_555
H1 K0 2.924682 1_555
H2 O6 0.979838 1_556
H3 O7 0.979838 1_554
O0 P0 1.552284 1_555
O1 P1 1.552284 1_555
O2 P0 1.556844 1_455
O3 P1 1.556844 1_655
O4 P1 1.503861 1_655
O5 P0 1.503861 1_455
O6 P0 1.640114 1_555
O7 P1 1.640114 1_555
O8 P2 1.644397 1_555
O9 P3 1.644397 1_555
O10 P3 1.556737 1_655
O11 P2 1.556737 1_455
O12 P2 1.504458 1_455
O13 P3 1.504458 1_655
O14 P2 1.549301 1_555
O15 P3 1.549301 1_555
F0 Mn1 1.849981 1_556
F0 K2 2.794346 1_555
F0 K0 3.064390 1_555
F1 Mn1 1.849981 1_555
F1 K3 2.794346 1_555
F1 K1 3.064390 1_555
F2 Mn0 1.841267 1_565
F2 K0 2.800472 1_555
F2 K2 2.972953 1_565
F3 Mn0 1.841267 1_555
F3 K1 2.800472 1_555
F3 K3 2.972953 1_545
