# generated using pymatgen
data_GeTePt
_symmetry_space_group_name_H-M   'P 1'
_cell_length_a   6.29428949
_cell_length_b   6.29428949
_cell_length_c   6.29428949
_cell_angle_alpha   90.00000000
_cell_angle_beta   90.00000000
_cell_angle_gamma   90.00000000
_symmetry_Int_Tables_number   1
_chemical_formula_structural   GeTePt
_chemical_formula_sum   'Ge4 Te4 Pt4'
_cell_volume   249.36766572
_cell_formula_units_Z   4
loop_
 _symmetry_equiv_pos_site_id
 _symmetry_equiv_pos_as_xyz
  1  'x, y, z'
loop_
 _atom_site_type_symbol
 _atom_site_label
 _atom_site_symmetry_multiplicity
 _atom_site_fract_x
 _atom_site_fract_y
 _atom_site_fract_z
 _atom_site_occupancy
  Ge  Ge0  1  0.12204985  0.87795015  0.37795015  1
  Ge  Ge1  1  0.87795015  0.37795015  0.12204985  1
  Ge  Ge2  1  0.37795015  0.12204985  0.87795015  1
  Ge  Ge3  1  0.62204985  0.62204985  0.62204985  1
  Te  Te0  1  0.87779862  0.12220138  0.62220138  1
  Te  Te1  1  0.12220138  0.62220138  0.87779862  1
  Te  Te2  1  0.62220138  0.87779862  0.12220138  1
  Te  Te3  1  0.37779862  0.37779862  0.37779862  1
  Pt  Pt0  1  0.51402006  0.48597994  0.98597994  1
  Pt  Pt1  1  0.48597994  0.98597994  0.51402006  1
  Pt  Pt2  1  0.98597994  0.51402006  0.48597994  1
  Pt  Pt3  1  0.01402006  0.01402006  0.01402006  1
loop_
_geom_bond_atom_site_label_1
_geom_bond_atom_site_label_2
_geom_bond_distance
_geom_bond_site_symmetry_2
Ge0 Pt1 2.538328 1_555
Ge0 Pt2 2.538328 1_455
Ge0 Pt3 2.538328 1_565
Ge0 Te0 2.662834 1_465
Ge1 Pt3 2.538328 1_655
Ge1 Pt0 2.538328 1_554
Ge1 Pt2 2.538328 1_555
Ge1 Te1 2.662834 1_654
Ge2 Pt3 2.538328 1_556
Ge2 Pt1 2.538328 1_545
Ge2 Pt0 2.538328 1_555
Ge2 Te2 2.662834 1_546
Ge3 Pt1 2.538328 1_555
Ge3 Pt2 2.538328 1_555
Ge3 Pt0 2.538328 1_555
Ge3 Te3 2.662834 1_555
Pt0 Te2 2.698345 1_556
Pt0 Te3 2.698345 1_556
Pt0 Te1 2.698345 1_555
Pt1 Te0 2.698345 1_565
Pt1 Te3 2.698345 1_565
Pt1 Te2 2.698345 1_555
Pt2 Te1 2.698345 1_655
Pt2 Te0 2.698345 1_555
Pt2 Te3 2.698345 1_655
Pt3 Te1 2.698345 1_544
Pt3 Te2 2.698345 1_445
Pt3 Te0 2.698345 1_454
