# generated using pymatgen
data_SrYMg14O16
_symmetry_space_group_name_H-M   'P 1'
_cell_length_a   4.47959200
_cell_length_b   8.80000400
_cell_length_c   8.94088000
_cell_angle_alpha   90.00000000
_cell_angle_beta   90.00000000
_cell_angle_gamma   90.00000000
_symmetry_Int_Tables_number   1
_chemical_formula_structural   SrYMg14O16
_chemical_formula_sum   'Sr1 Y1 Mg14 O16'
_cell_volume   352.45331199
_cell_formula_units_Z   1
loop_
 _symmetry_equiv_pos_site_id
 _symmetry_equiv_pos_as_xyz
  1  'x, y, z'
loop_
 _atom_site_type_symbol
 _atom_site_label
 _atom_site_symmetry_multiplicity
 _atom_site_fract_x
 _atom_site_fract_y
 _atom_site_fract_z
 _atom_site_occupancy
  Sr  Sr0  1  0.00000000  0.00000000  0.50000000  1
  Y  Y0  1  0.00000000  0.00000000  0.00000000  1
  Mg  Mg0  1  0.00000000  0.50000000  0.00000000  1
  Mg  Mg1  1  0.00000000  0.50000000  0.50000000  1
  Mg  Mg2  1  0.50000000  0.00000000  0.25439200  1
  Mg  Mg3  1  0.50000000  0.00000000  0.74560800  1
  Mg  Mg4  1  0.50000000  0.50000000  0.25144900  1
  Mg  Mg5  1  0.50000000  0.50000000  0.74855100  1
  Mg  Mg6  1  0.50000000  0.26404800  0.00000000  1
  Mg  Mg7  1  0.50000000  0.26226900  0.50000000  1
  Mg  Mg8  1  0.50000000  0.73595200  0.00000000  1
  Mg  Mg9  1  0.50000000  0.73773100  0.50000000  1
  Mg  Mg10  1  0.00000000  0.26359800  0.25260600  1
  Mg  Mg11  1  0.00000000  0.26359800  0.74739400  1
  Mg  Mg12  1  0.00000000  0.73640200  0.25260600  1
  Mg  Mg13  1  0.00000000  0.73640200  0.74739400  1
  O  O0  1  0.00000000  0.26130900  0.00000000  1
  O  O1  1  0.00000000  0.27302200  0.50000000  1
  O  O2  1  0.00000000  0.73869100  0.00000000  1
  O  O3  1  0.00000000  0.72697800  0.50000000  1
  O  O4  1  0.50000000  0.24994200  0.25065200  1
  O  O5  1  0.50000000  0.24994200  0.74934800  1
  O  O6  1  0.50000000  0.75005800  0.25065200  1
  O  O7  1  0.50000000  0.75005800  0.74934800  1
  O  O8  1  0.50000000  0.00000000  0.00000000  1
  O  O9  1  0.50000000  0.00000000  0.50000000  1
  O  O10  1  0.50000000  0.50000000  0.00000000  1
  O  O11  1  0.50000000  0.50000000  0.50000000  1
  O  O12  1  0.00000000  0.00000000  0.24111200  1
  O  O13  1  0.00000000  0.00000000  0.75888800  1
  O  O14  1  0.00000000  0.50000000  0.24651300  1
  O  O15  1  0.00000000  0.50000000  0.75348700  1
loop_
_geom_bond_atom_site_label_1
_geom_bond_atom_site_label_2
_geom_bond_distance
_geom_bond_site_symmetry_2
Mg0 O0 2.100482 1_555
Mg0 O2 2.100482 1_555
Mg0 O14 2.204043 1_555
Mg0 O15 2.204043 1_554
Mg0 O10 2.239796 1_455
Mg0 O10 2.239796 1_555
Mg1 O3 1.997407 1_555
Mg1 O1 1.997407 1_555
Mg1 O11 2.239796 1_455
Mg1 O11 2.239796 1_555
Mg1 O15 2.266397 1_555
Mg1 O14 2.266397 1_555
Mg2 O9 2.195952 1_555
Mg2 O4 2.199745 1_555
Mg2 O6 2.199745 1_545
Mg2 O12 2.242941 1_655
Mg2 O12 2.242941 1_555
Mg2 O8 2.274488 1_555
Mg3 O9 2.195952 1_555
Mg3 O7 2.199745 1_545
Mg3 O5 2.199745 1_555
Mg3 O13 2.242941 1_555
Mg3 O13 2.242941 1_655
Mg3 O8 2.274488 1_556
Mg4 O6 2.200523 1_555
Mg4 O4 2.200523 1_555
Mg4 O11 2.222265 1_555
Mg4 O14 2.240231 1_555
Mg4 O14 2.240231 1_655
Mg4 O10 2.248175 1_555
Mg5 O7 2.200523 1_555
Mg5 O5 2.200523 1_555
Mg5 O11 2.222265 1_555
Mg5 O15 2.240231 1_655
Mg5 O15 2.240231 1_555
Mg5 O10 2.248175 1_556
Mg6 O10 2.076379 1_555
Mg6 O0 2.239926 1_555
Mg6 O0 2.239926 1_655
Mg6 O4 2.244485 1_555
Mg6 O5 2.244485 1_554
Mg6 O8 2.323623 1_555
Mg7 O11 2.092034 1_555
Mg7 O4 2.232028 1_555
Mg7 O5 2.232028 1_555
Mg7 O1 2.241794 1_655
Mg7 O1 2.241794 1_555
Mg7 O9 2.307968 1_555
Mg8 O10 2.076379 1_555
Mg8 O2 2.239926 1_655
Mg8 O2 2.239926 1_555
Mg8 O7 2.244485 1_554
Mg8 O6 2.244485 1_555
Mg8 O8 2.323623 1_565
Mg9 O11 2.092034 1_555
Mg9 O6 2.232028 1_555
Mg9 O7 2.232028 1_555
Mg9 O3 2.241794 1_655
Mg9 O3 2.241794 1_555
Mg9 O9 2.307968 1_565
Mg10 O14 2.081052 1_555
Mg10 O1 2.213474 1_555
Mg10 O4 2.243086 1_455
Mg10 O4 2.243086 1_555
Mg10 O0 2.258610 1_555
Mg10 O12 2.321939 1_555
Mg11 O15 2.081052 1_555
Mg11 O1 2.213474 1_555
Mg11 O5 2.243086 1_555
Mg11 O5 2.243086 1_455
Mg11 O0 2.258610 1_556
Mg11 O13 2.321939 1_555
Mg12 O14 2.081052 1_555
Mg12 O3 2.213474 1_555
Mg12 O6 2.243086 1_555
Mg12 O6 2.243086 1_455
Mg12 O2 2.258610 1_555
Mg12 O12 2.321939 1_565
Mg13 O15 2.081052 1_555
Mg13 O3 2.213474 1_555
Mg13 O7 2.243086 1_555
Mg13 O7 2.243086 1_455
Mg13 O2 2.258610 1_556
Mg13 O13 2.321939 1_565
O0 Y0 2.299520 1_555
O1 Sr0 2.402595 1_555
O2 Y0 2.299520 1_565
O3 Sr0 2.402595 1_565
O8 Y0 2.239796 1_655
O8 Y0 2.239796 1_555
O9 Sr0 2.239796 1_555
O9 Sr0 2.239796 1_655
O12 Y0 2.155753 1_555
O12 Sr0 2.314687 1_555
O13 Y0 2.155753 1_556
O13 Sr0 2.314687 1_555
