# generated using pymatgen
data_Ce2(CuGe)3
_symmetry_space_group_name_H-M   'P 1'
_cell_length_a   8.82509230
_cell_length_b   8.82509230
_cell_length_c   4.15943600
_cell_angle_alpha   90.00000000
_cell_angle_beta   90.00000000
_cell_angle_gamma   152.27541897
_symmetry_Int_Tables_number   1
_chemical_formula_structural   Ce2(CuGe)3
_chemical_formula_sum   'Ce2 Cu3 Ge3'
_cell_volume   150.70687580
_cell_formula_units_Z   1
loop_
 _symmetry_equiv_pos_site_id
 _symmetry_equiv_pos_as_xyz
  1  'x, y, z'
loop_
 _atom_site_type_symbol
 _atom_site_label
 _atom_site_symmetry_multiplicity
 _atom_site_fract_x
 _atom_site_fract_y
 _atom_site_fract_z
 _atom_site_occupancy
  Ce  Ce0  1  0.16452900  0.83547100  0.50000000  1
  Ce  Ce1  1  0.37673800  0.62326200  0.00000000  1
  Cu  Cu0  1  0.79830900  0.20169100  0.50000000  1
  Cu  Cu1  1  0.01559600  0.98440400  0.00000000  1
  Cu  Cu2  1  0.59306900  0.40693100  0.00000000  1
  Ge  Ge0  1  0.93431800  0.06568200  0.50000000  1
  Ge  Ge1  1  0.52265800  0.47734200  0.50000000  1
  Ge  Ge2  1  0.73278200  0.26721800  0.00000000  1
loop_
_geom_bond_atom_site_label_1
_geom_bond_atom_site_label_2
_geom_bond_distance
_geom_bond_site_symmetry_2
Ce0 Cu0 3.118667 1_565
Ce0 Cu0 3.118667 1_455
Ce0 Ge2 3.188078 1_456
Ce0 Ge2 3.188078 1_455
Ce0 Ge2 3.188078 1_565
Ce0 Ge2 3.188078 1_566
Ce0 Cu2 3.208646 1_456
Ce0 Cu2 3.208646 1_455
Ce0 Cu2 3.208646 1_565
Ce0 Cu2 3.208646 1_566
Ce0 Ge1 3.221956 1_455
Ce0 Ge1 3.221956 1_565
Ce0 Cu1 3.292204 1_556
Ce0 Cu1 3.292204 1_555
Ce1 Ge0 3.125615 1_565
Ce1 Ge0 3.125615 1_564
Ce1 Ge0 3.125615 1_455
Ce1 Ge0 3.125615 1_454
Ce1 Cu1 3.183178 1_655
Ce1 Cu1 3.183178 1_545
Ce1 Ge2 3.249000 1_565
Ce1 Ge2 3.249000 1_455
Ce1 Ge1 3.252343 1_555
Ce1 Ge1 3.252343 1_554
Ce1 Cu0 3.256094 1_564
Ce1 Cu0 3.256094 1_565
Ce1 Cu0 3.256094 1_455
Ce1 Cu0 3.256094 1_454
Cu0 Ge0 2.330665 1_555
Cu0 Ge2 2.363489 1_556
Cu0 Ge2 2.363489 1_555
Cu1 Cu2 2.496629 1_455
Cu1 Cu2 2.496629 1_565
Cu1 Ge0 2.503016 1_464
Cu1 Ge0 2.503016 1_465
Cu1 Ge1 2.968256 1_455
Cu1 Ge1 2.968256 1_454
Cu1 Ge1 2.968256 1_564
Cu1 Ge1 2.968256 1_565
Cu2 Ge2 2.394138 1_555
Cu2 Ge1 2.404379 1_555
Cu2 Ge1 2.404379 1_554
Ge0 Ge1 2.600437 1_545
Ge0 Ge1 2.600437 1_655
