# generated using pymatgen
data_TeW2Se2S
_symmetry_space_group_name_H-M   'P 1'
_cell_length_a   3.34231638
_cell_length_b   3.34231638
_cell_length_c   38.09946800
_cell_angle_alpha   90.00000000
_cell_angle_beta   90.00000000
_cell_angle_gamma   120.00000748
_symmetry_Int_Tables_number   1
_chemical_formula_structural   TeW2Se2S
_chemical_formula_sum   'Te2 W4 Se4 S2'
_cell_volume   368.59091333
_cell_formula_units_Z   2
loop_
 _symmetry_equiv_pos_site_id
 _symmetry_equiv_pos_as_xyz
  1  'x, y, z'
loop_
 _atom_site_type_symbol
 _atom_site_label
 _atom_site_symmetry_multiplicity
 _atom_site_fract_x
 _atom_site_fract_y
 _atom_site_fract_z
 _atom_site_occupancy
  Te  Te0  1  0.33333300  0.66666700  0.70759700  1
  Te  Te1  1  0.33333300  0.66666700  0.60749000  1
  W  W0  1  0.33333300  0.66666700  0.09390200  1
  W  W1  1  0.33333300  0.66666700  0.46966400  1
  W  W2  1  0.66666700  0.33333300  0.28181300  1
  W  W3  1  0.66666700  0.33333300  0.65756200  1
  Se  Se0  1  0.33333300  0.66666700  0.32572100  1
  Se  Se1  1  0.66666700  0.33333300  0.04999700  1
  Se  Se2  1  0.66666700  0.33333300  0.13782200  1
  Se  Se3  1  0.33333300  0.66666700  0.23787000  1
  S  S0  1  0.66666700  0.33333300  0.42969300  1
  S  S1  1  0.66666700  0.33333300  0.50961600  1
loop_
_geom_bond_atom_site_label_1
_geom_bond_atom_site_label_2
_geom_bond_distance
_geom_bond_site_symmetry_2
Te0 W3 2.712506 1_455
Te0 W3 2.712506 1_565
Te0 W3 2.712511 1_555
Te1 W3 2.713497 1_455
Te1 W3 2.713497 1_565
Te1 W3 2.713502 1_555
Se0 W2 2.553857 1_455
Se0 W2 2.553857 1_565
Se0 W2 2.553861 1_555
Se1 W0 2.553782 1_545
Se1 W0 2.553782 1_655
Se1 W0 2.553786 1_555
Se2 W0 2.554156 1_545
Se2 W0 2.554156 1_655
Se2 W0 2.554161 1_555
Se3 W2 2.554730 1_455
Se3 W2 2.554730 1_565
Se3 W2 2.554735 1_555
S0 W1 2.458217 1_545
S0 W1 2.458217 1_655
S0 W1 2.458221 1_555
S1 W1 2.457768 1_545
S1 W1 2.457768 1_655
S1 W1 2.457773 1_555
