# generated using pymatgen
data_ErRu3C
_symmetry_space_group_name_H-M   'P 1'
_cell_length_a   4.12095413
_cell_length_b   4.12095413
_cell_length_c   4.12095413
_cell_angle_alpha   90.00000000
_cell_angle_beta   90.00000000
_cell_angle_gamma   90.00000000
_symmetry_Int_Tables_number   1
_chemical_formula_structural   ErRu3C
_chemical_formula_sum   'Er1 Ru3 C1'
_cell_volume   69.98312661
_cell_formula_units_Z   1
loop_
 _symmetry_equiv_pos_site_id
 _symmetry_equiv_pos_as_xyz
  1  'x, y, z'
loop_
 _atom_site_type_symbol
 _atom_site_label
 _atom_site_symmetry_multiplicity
 _atom_site_fract_x
 _atom_site_fract_y
 _atom_site_fract_z
 _atom_site_occupancy
  Er  Er0  1  0.50000000  0.50000000  0.50000000  1
  Ru  Ru0  1  0.50000000  -0.00000000  -0.00000000  1
  Ru  Ru1  1  -0.00000000  0.50000000  -0.00000000  1
  Ru  Ru2  1  0.00000000  -0.00000000  0.50000000  1
  C  C0  1  0.00000000  0.00000000  0.00000000  1
loop_
_geom_bond_atom_site_label_1
_geom_bond_atom_site_label_2
_geom_bond_distance
_geom_bond_site_symmetry_2
Er0 Ru2 2.913955 1_655
Er0 Ru0 2.913955 1_555
Er0 Ru0 2.913955 1_566
Er0 Ru2 2.913955 1_665
Er0 Ru1 2.913955 1_555
Er0 Ru1 2.913955 1_556
Er0 Ru1 2.913955 1_656
Er0 Ru2 2.913955 1_565
Er0 Ru1 2.913955 1_655
Er0 Ru0 2.913955 1_565
Er0 Ru2 2.913955 1_555
Er0 Ru0 2.913955 1_556
C0 Ru2 2.060477 1_554
C0 Ru0 2.060477 1_555
C0 Ru1 2.060477 1_545
C0 Ru1 2.060477 1_555
C0 Ru0 2.060477 1_455
C0 Ru2 2.060477 1_555
