# generated using pymatgen
data_DyClO
_symmetry_space_group_name_H-M   'P 1'
_cell_length_a   9.70552331
_cell_length_b   9.70552331
_cell_length_c   9.70552354
_cell_angle_alpha   22.51376451
_cell_angle_beta   22.51376451
_cell_angle_gamma   22.51376568
_symmetry_Int_Tables_number   1
_chemical_formula_structural   DyClO
_chemical_formula_sum   'Dy2 Cl2 O2'
_cell_volume   117.57643642
_cell_formula_units_Z   2
loop_
 _symmetry_equiv_pos_site_id
 _symmetry_equiv_pos_as_xyz
  1  'x, y, z'
loop_
 _atom_site_type_symbol
 _atom_site_label
 _atom_site_symmetry_multiplicity
 _atom_site_fract_x
 _atom_site_fract_y
 _atom_site_fract_z
 _atom_site_occupancy
  Dy  Dy0  1  0.21677628  0.21677628  0.21677628  1
  Dy  Dy1  1  0.78322372  0.78322372  0.78322372  1
  Cl  Cl0  1  0.38895511  0.38895511  0.38895511  1
  Cl  Cl1  1  0.61104489  0.61104489  0.61104489  1
  O  O0  1  0.13692417  0.13692417  0.13692417  1
  O  O1  1  0.86307583  0.86307583  0.86307583  1
loop_
_geom_bond_atom_site_label_1
_geom_bond_atom_site_label_2
_geom_bond_distance
_geom_bond_site_symmetry_2
Dy0 O1 2.262698 1_445
Dy0 O1 2.262698 1_454
Dy0 O1 2.262698 1_544
Dy0 O0 2.265184 1_555
Dy1 O0 2.262698 1_665
Dy1 O0 2.262698 1_656
Dy1 O0 2.262698 1_566
Dy1 O1 2.265184 1_555
Cl0 Dy1 2.788178 1_554
Cl0 Dy1 2.788178 1_455
Cl0 Dy1 2.788178 1_545
Cl1 Dy0 2.788178 1_556
Cl1 Dy0 2.788178 1_565
Cl1 Dy0 2.788178 1_655
