# generated using pymatgen
data_Ba2Sr3CaMg2(SiO4)4
_symmetry_space_group_name_H-M   'P 1'
_cell_length_a   5.54491000
_cell_length_b   7.04645700
_cell_length_c   9.60047901
_cell_angle_alpha   89.99746956
_cell_angle_beta   90.00000000
_cell_angle_gamma   90.00000000
_symmetry_Int_Tables_number   1
_chemical_formula_structural   Ba2Sr3CaMg2(SiO4)4
_chemical_formula_sum   'Ba2 Sr3 Ca1 Mg2 Si4 O16'
_cell_volume   375.10962636
_cell_formula_units_Z   1
loop_
 _symmetry_equiv_pos_site_id
 _symmetry_equiv_pos_as_xyz
  1  'x, y, z'
loop_
 _atom_site_type_symbol
 _atom_site_label
 _atom_site_symmetry_multiplicity
 _atom_site_fract_x
 _atom_site_fract_y
 _atom_site_fract_z
 _atom_site_occupancy
  Ba  Ba0  1  0.50000000  0.50025300  0.00037800  1
  Ba  Ba1  1  0.00000000  0.50072500  0.49961200  1
  Sr  Sr0  1  0.00000000  0.83756000  0.83325000  1
  Sr  Sr1  1  0.00000000  0.16154700  0.16742900  1
  Sr  Sr2  1  0.50000000  0.16204300  0.66590700  1
  Ca  Ca0  1  0.50000000  0.83125200  0.33346400  1
  Mg  Mg0  1  0.50000000  0.99992200  0.00132400  1
  Mg  Mg1  1  0.00000000  0.99977200  0.49872600  1
  Si  Si0  1  0.50000000  0.27269800  0.33331800  1
  Si  Si1  1  0.00000000  0.27051500  0.83337600  1
  Si  Si2  1  0.00000000  0.72906200  0.16820300  1
  Si  Si3  1  0.50000000  0.72918700  0.66509100  1
  O  O0  1  0.73697300  0.17776300  0.41215300  1
  O  O1  1  0.23755100  0.17675700  0.91274500  1
  O  O2  1  0.26302700  0.17776300  0.41215300  1
  O  O3  1  0.76244900  0.17675700  0.91274500  1
  O  O4  1  0.50000000  0.17791500  0.17538800  1
  O  O5  1  0.00000000  0.17667900  0.67484200  1
  O  O6  1  0.76072200  0.82293400  0.09022300  1
  O  O7  1  0.26369400  0.82281800  0.58459100  1
  O  O8  1  0.23927800  0.82293400  0.09022300  1
  O  O9  1  0.73630600  0.82281800  0.58459100  1
  O  O10  1  0.00000000  0.82278700  0.32626200  1
  O  O11  1  0.50000000  0.82289400  0.82404200  1
  O  O12  1  0.50000000  0.50449600  0.33335000  1
  O  O13  1  0.00000000  0.49949900  0.83335700  1
  O  O14  1  0.00000000  0.50025600  0.16684500  1
  O  O15  1  0.50000000  0.50039000  0.66641200  1
loop_
_geom_bond_atom_site_label_1
_geom_bond_atom_site_label_2
_geom_bond_distance
_geom_bond_site_symmetry_2
Ba0 O4 2.825183 1_555
Ba0 O6 2.829159 1_555
Ba0 O8 2.829159 1_555
Ba0 O3 2.832292 1_554
Ba0 O1 2.832292 1_554
Ba0 O11 2.834484 1_554
Ba0 O12 3.196832 1_555
Ba0 O14 3.200099 1_555
Ba0 O14 3.200099 1_655
Ba0 O13 3.202763 1_654
Ba0 O13 3.202763 1_554
Ba0 O15 3.206234 1_554
Ba1 O10 2.814166 1_555
Ba1 O9 2.820429 1_455
Ba1 O7 2.820429 1_555
Ba1 O2 2.830419 1_555
Ba1 O0 2.830419 1_455
Ba1 O5 2.836119 1_555
Ba1 O14 3.194724 1_555
Ba1 O12 3.199226 1_455
Ba1 O12 3.199226 1_555
Ba1 O15 3.201697 1_455
Ba1 O15 3.201697 1_555
Ba1 O13 3.204123 1_555
Ca0 O12 2.302472 1_555
Ca0 O9 2.744635 1_555
Ca0 O7 2.744635 1_555
Ca0 O6 2.747133 1_555
Ca0 O8 2.747133 1_555
Ca0 O10 2.773958 1_655
Ca0 O10 2.773958 1_555
Ca0 O2 2.873887 1_565
Ca0 O0 2.873887 1_565
Ca0 O4 2.875727 1_565
Mg0 O4 2.089455 1_565
Mg0 O8 2.091331 1_555
Mg0 O6 2.091331 1_555
Mg0 O3 2.096074 1_564
Mg0 O1 2.096074 1_564
Mg0 O11 2.110218 1_554
Mg1 O10 2.072908 1_555
Mg1 O7 2.090962 1_555
Mg1 O9 2.090962 1_455
Mg1 O0 2.095435 1_465
Mg1 O2 2.095435 1_565
Mg1 O5 2.100694 1_565
O0 Si0 1.657367 1_555
O0 Sr1 2.767704 1_655
O0 Sr2 2.770145 1_555
O1 Si1 1.658932 1_555
O1 Sr1 2.779377 1_556
O1 Sr2 2.782862 1_555
O1 Sr0 2.833794 1_545
O2 Si0 1.657367 1_555
O2 Sr1 2.767704 1_555
O2 Sr2 2.770145 1_555
O3 Si1 1.658932 1_655
O3 Sr1 2.779377 1_656
O3 Sr2 2.782862 1_555
O3 Sr0 2.833794 1_645
O4 Si0 1.656814 1_555
O4 Sr1 2.775905 1_555
O4 Sr1 2.775905 1_655
O5 Si1 1.659452 1_555
O5 Sr2 2.775698 1_555
O5 Sr2 2.775698 1_455
O5 Sr0 2.832423 1_545
O6 Si2 1.660811 1_655
O6 Sr0 2.803094 1_654
O6 Sr1 2.828955 1_665
O7 Si3 1.658132 1_555
O7 Sr0 2.801368 1_555
O7 Sr2 2.835522 1_565
O8 Si2 1.660811 1_555
O8 Sr0 2.803094 1_554
O8 Sr1 2.828955 1_565
O9 Si3 1.658132 1_555
O9 Sr0 2.801368 1_655
O9 Sr2 2.835522 1_565
O10 Si2 1.654958 1_555
O10 Sr1 2.832483 1_565
O11 Si3 1.662763 1_555
O11 Sr0 2.775789 1_655
O11 Sr0 2.775789 1_555
O11 Sr2 2.831195 1_565
O12 Si0 1.633355 1_555
O13 Si1 1.613526 1_555
O13 Sr0 2.382132 1_555
O14 Si2 1.612325 1_555
O14 Sr1 2.386705 1_555
O15 Si3 1.612258 1_555
O15 Sr2 2.384153 1_555
