# generated using pymatgen
data_TiVO4
_symmetry_space_group_name_H-M   'P 1'
_cell_length_a   3.86939331
_cell_length_b   9.73197439
_cell_length_c   7.45403382
_cell_angle_alpha   90.00291719
_cell_angle_beta   89.99999479
_cell_angle_gamma   90.00052162
_symmetry_Int_Tables_number   1
_chemical_formula_structural   TiVO4
_chemical_formula_sum   'Ti4 V4 O16'
_cell_volume   280.69533285
_cell_formula_units_Z   4
loop_
 _symmetry_equiv_pos_site_id
 _symmetry_equiv_pos_as_xyz
  1  'x, y, z'
loop_
 _atom_site_type_symbol
 _atom_site_label
 _atom_site_symmetry_multiplicity
 _atom_site_fract_x
 _atom_site_fract_y
 _atom_site_fract_z
 _atom_site_occupancy
  Ti  Ti0  1  0.00000000  0.25761000  0.75389300  1
  Ti  Ti1  1  0.49999800  0.75750500  0.49627900  1
  Ti  Ti2  1  0.99999400  0.25749900  0.25374900  1
  Ti  Ti3  1  0.49999400  0.75759900  0.99611600  1
  V  V0  1  0.00000200  0.99550500  0.51640200  1
  V  V1  1  0.50000000  0.49549600  0.23361800  1
  V  V2  1  0.50000200  0.49552800  0.73354500  1
  V  V3  1  0.99999900  0.99550900  0.01643200  1
  O  O0  1  0.00000400  0.45578100  0.75344400  1
  O  O1  1  0.50000800  0.95589800  0.49649100  1
  O  O2  1  0.00000600  0.45587500  0.25350900  1
  O  O3  1  0.49999900  0.95575900  0.99654600  1
  O  O4  1  0.99999400  0.03798200  0.75098200  1
  O  O5  1  0.50000000  0.53799100  0.49898000  1
  O  O6  1  0.00000300  0.03798700  0.25100900  1
  O  O7  1  0.49999900  0.53797900  0.99899900  1
  O  O8  1  0.00000500  0.79692700  0.50230900  1
  O  O9  1  0.50000200  0.29691000  0.24770100  1
  O  O10  1  0.99999500  0.79681100  0.00225900  1
  O  O11  1  0.50000200  0.29683300  0.74775800  1
  O  O12  1  0.49999800  0.70625100  0.74907400  1
  O  O13  1  0.00000200  0.20625600  0.50095300  1
  O  O14  1  0.49999700  0.70625000  0.24906400  1
  O  O15  1  0.99999600  0.20625800  0.00088600  1
loop_
_geom_bond_atom_site_label_1
_geom_bond_atom_site_label_2
_geom_bond_distance
_geom_bond_site_symmetry_2
O0 Ti0 1.928598 1_555
O0 V2 1.978545 1_555
O0 V2 1.978567 1_455
O1 Ti1 1.930756 1_555
O1 V0 1.978268 1_655
O1 V0 1.978320 1_555
O2 Ti2 1.930591 1_455
O2 V1 1.978286 1_555
O2 V1 1.978339 1_455
O3 Ti3 1.928491 1_555
O3 V3 1.978548 1_556
O3 V3 1.978555 1_456
O4 V0 1.796747 1_645
O4 V3 2.021407 1_546
O4 Ti0 2.137523 1_655
O5 V2 1.796648 1_555
O5 V1 2.020768 1_555
O5 Ti1 2.136401 1_555
O6 V3 1.796728 1_445
O6 V0 2.021009 1_545
O6 Ti2 2.136382 1_455
O7 V1 1.797085 1_556
O7 V2 2.021351 1_555
O7 Ti3 2.137445 1_555
O8 V0 1.935404 1_555
O8 Ti1 1.972858 1_555
O8 Ti1 1.972904 1_455
O9 V1 1.935488 1_555
O9 Ti2 1.972837 1_555
O9 Ti2 1.972891 1_455
O10 V3 1.936602 1_555
O10 Ti3 1.972504 1_654
O10 Ti3 1.972504 1_554
O11 V2 1.936600 1_555
O11 Ti0 1.972520 1_655
O11 Ti0 1.972529 1_555
O12 Ti3 1.908035 1_555
O12 Ti1 1.949268 1_555
O12 V2 2.054009 1_555
O13 Ti2 1.908982 1_455
O13 Ti0 1.950513 1_555
O13 V0 2.054259 1_545
O14 Ti1 1.909043 1_555
O14 Ti3 1.950607 1_554
O14 V1 2.054276 1_555
O15 Ti0 1.907742 1_654
O15 Ti2 1.949677 1_555
O15 V3 2.054281 1_545
