# generated using pymatgen
data_Na2Cu5TeS3O19
_symmetry_space_group_name_H-M   'P 1'
_cell_length_a   11.76652300
_cell_length_b   7.46354900
_cell_length_c   9.28141862
_cell_angle_alpha   68.49984945
_cell_angle_beta   90.00000000
_cell_angle_gamma   90.00000000
_symmetry_Int_Tables_number   1
_chemical_formula_structural   Na2Cu5TeS3O19
_chemical_formula_sum   'Na4 Cu10 Te2 S6 O38'
_cell_volume   758.37734361
_cell_formula_units_Z   2
loop_
 _symmetry_equiv_pos_site_id
 _symmetry_equiv_pos_as_xyz
  1  'x, y, z'
loop_
 _atom_site_type_symbol
 _atom_site_label
 _atom_site_symmetry_multiplicity
 _atom_site_fract_x
 _atom_site_fract_y
 _atom_site_fract_z
 _atom_site_occupancy
  Na  Na0  1  0.25000000  0.98128300  0.96721100  1
  Na  Na1  1  0.75000000  0.01871700  0.03278900  1
  Na  Na2  1  0.50000000  0.00000000  0.50000000  1
  Na  Na3  1  0.00000000  0.00000000  0.50000000  1
  Cu  Cu0  1  0.37575700  0.45009200  0.78643300  1
  Cu  Cu1  1  0.87575700  0.54990800  0.21356700  1
  Cu  Cu2  1  0.62424300  0.54990800  0.21356700  1
  Cu  Cu3  1  0.12424300  0.45009200  0.78643300  1
  Cu  Cu4  1  0.36721700  0.50990200  0.21736700  1
  Cu  Cu5  1  0.86721700  0.49009800  0.78263300  1
  Cu  Cu6  1  0.63278300  0.49009800  0.78263300  1
  Cu  Cu7  1  0.13278300  0.50990200  0.21736700  1
  Cu  Cu8  1  0.50000000  0.50000000  0.50000000  1
  Cu  Cu9  1  0.00000000  0.50000000  0.50000000  1
  Te  Te0  1  0.25000000  0.78692400  0.42007600  1
  Te  Te1  1  0.75000000  0.21307600  0.57992400  1
  S  S0  1  0.52568500  0.80835100  0.88733000  1
  S  S1  1  0.02568500  0.19164900  0.11267000  1
  S  S2  1  0.47431500  0.19164900  0.11267000  1
  S  S3  1  0.97431500  0.80835100  0.88733000  1
  S  S4  1  0.25000000  0.17459200  0.57112000  1
  S  S5  1  0.75000000  0.82540800  0.42888000  1
  O  O0  1  0.25000000  0.66650300  0.25741300  1
  O  O1  1  0.75000000  0.33349700  0.74258700  1
  O  O2  1  0.25000000  0.54742900  0.83932600  1
  O  O3  1  0.75000000  0.45257100  0.16067400  1
  O  O4  1  0.48647900  0.61532600  0.28883700  1
  O  O5  1  0.98647900  0.38467400  0.71116300  1
  O  O6  1  0.51352100  0.38467400  0.71116300  1
  O  O7  1  0.01352100  0.61532600  0.28883700  1
  O  O8  1  0.37346600  0.64293900  0.54702000  1
  O  O9  1  0.87346600  0.35706100  0.45298000  1
  O  O10  1  0.62653400  0.35706100  0.45298000  1
  O  O11  1  0.12653400  0.64293900  0.54702000  1
  O  O12  1  0.25000000  0.41645300  0.14215100  1
  O  O13  1  0.75000000  0.58354700  0.85784900  1
  O  O14  1  0.61818100  0.77533500  0.00541100  1
  O  O15  1  0.11818100  0.22466500  0.99458900  1
  O  O16  1  0.38181900  0.22466500  0.99458900  1
  O  O17  1  0.88181900  0.77533500  0.00541100  1
  O  O18  1  0.41370100  0.81349400  0.95324400  1
  O  O19  1  0.91370100  0.18650600  0.04675600  1
  O  O20  1  0.58629900  0.18650600  0.04675600  1
  O  O21  1  0.08629900  0.81349400  0.95324400  1
  O  O22  1  0.51872500  0.63228700  0.83730800  1
  O  O23  1  0.01872500  0.36771300  0.16269200  1
  O  O24  1  0.48127500  0.36771300  0.16269200  1
  O  O25  1  0.98127500  0.63228700  0.83730800  1
  O  O26  1  0.25000000  0.21484200  0.71695000  1
  O  O27  1  0.75000000  0.78515800  0.28305000  1
  O  O28  1  0.55416800  0.97843500  0.75141500  1
  O  O29  1  0.05416800  0.02156500  0.24858500  1
  O  O30  1  0.44583200  0.02156500  0.24858500  1
  O  O31  1  0.94583200  0.97843500  0.75141500  1
  O  O32  1  0.35484000  0.25565200  0.48022900  1
  O  O33  1  0.85484000  0.74434800  0.51977100  1
  O  O34  1  0.64516000  0.74434800  0.51977100  1
  O  O35  1  0.14516000  0.25565200  0.48022900  1
  O  O36  1  0.25000000  0.95920700  0.61025500  1
  O  O37  1  0.75000000  0.04079300  0.38974500  1
loop_
_geom_bond_atom_site_label_1
_geom_bond_atom_site_label_2
_geom_bond_distance
_geom_bond_site_symmetry_2
Na0 O21 2.326859 1_555
Na0 O18 2.326859 1_555
Na0 O26 2.337950 1_565
Na0 O16 2.471502 1_565
Na0 O15 2.471502 1_565
Na0 O0 2.852360 1_556
Na1 O19 2.326859 1_555
Na1 O20 2.326859 1_555
Na1 O27 2.337950 1_545
Na1 O17 2.471502 1_545
Na1 O14 2.471502 1_545
Na1 O1 2.852360 1_554
Na2 O28 2.366856 1_545
Na2 O30 2.366856 1_555
Na2 O32 2.516966 1_555
Na2 O34 2.516966 1_545
Na3 O31 2.366856 1_445
Na3 O29 2.366856 1_555
Na3 O35 2.516966 1_555
Na3 O33 2.516966 1_445
Cu0 O2 1.794374 1_555
Cu0 O6 1.898454 1_555
Cu0 O16 2.045908 1_555
Cu0 O8 2.160020 1_555
Cu0 O22 2.317900 1_555
Cu0 O26 2.553097 1_555
Cu1 O3 1.794374 1_555
Cu1 O7 1.898454 1_655
Cu1 O17 2.045908 1_555
Cu1 O9 2.160020 1_555
Cu1 O23 2.317900 1_655
Cu1 O27 2.553097 1_555
Cu2 O3 1.794374 1_555
Cu2 O4 1.898454 1_555
Cu2 O14 2.045908 1_555
Cu2 O10 2.160020 1_555
Cu2 O24 2.317900 1_555
Cu2 O27 2.553097 1_555
Cu3 O2 1.794374 1_555
Cu3 O5 1.898454 1_455
Cu3 O15 2.045908 1_555
Cu3 O11 2.160020 1_555
Cu3 O25 2.317900 1_455
Cu3 O26 2.553097 1_555
Cu4 O12 1.798057 1_555
Cu4 O4 1.846882 1_555
Cu4 O24 1.891991 1_555
Cu4 O0 1.930018 1_555
Cu4 O32 2.486131 1_555
Cu5 O13 1.798057 1_555
Cu5 O5 1.846882 1_555
Cu5 O25 1.891991 1_555
Cu5 O1 1.930018 1_555
Cu5 O33 2.486131 1_555
Cu6 O13 1.798057 1_555
Cu6 O6 1.846882 1_555
Cu6 O22 1.891991 1_555
Cu6 O1 1.930018 1_555
Cu6 O34 2.486131 1_555
Cu7 O12 1.798057 1_555
Cu7 O7 1.846882 1_555
Cu7 O23 1.891991 1_555
Cu7 O0 1.930018 1_555
Cu7 O35 2.486131 1_555
Cu8 O4 1.835977 1_555
Cu8 O6 1.835977 1_555
Cu8 O10 1.971441 1_555
Cu8 O8 1.971441 1_555
Cu8 O34 2.553866 1_555
Cu8 O32 2.553866 1_555
Cu9 O7 1.835977 1_555
Cu9 O5 1.835977 1_455
Cu9 O11 1.971441 1_555
Cu9 O9 1.971441 1_455
Cu9 O33 2.553866 1_455
Cu9 O35 2.553866 1_555
O0 Te0 2.020330 1_555
O1 Te1 2.020330 1_555
O8 Te0 1.930149 1_555
O9 Te1 1.930149 1_555
O10 Te1 1.930149 1_555
O11 Te0 1.930149 1_555
O14 S0 1.499470 1_554
O15 S1 1.499470 1_556
O16 S2 1.499470 1_556
O17 S3 1.499470 1_554
O18 S0 1.459174 1_555
O19 S1 1.459174 1_655
O20 S2 1.459174 1_555
O21 S3 1.459174 1_455
O22 S0 1.547971 1_555
O23 S1 1.547971 1_555
O24 S2 1.547971 1_555
O25 S3 1.547971 1_555
O26 S4 1.490059 1_555
O27 S5 1.490059 1_555
O28 S0 1.463320 1_555
O29 S1 1.463320 1_555
O30 S2 1.463320 1_555
O31 S3 1.463320 1_555
O32 S4 1.491759 1_555
O33 S5 1.491759 1_555
O34 S5 1.491759 1_555
O35 S4 1.491759 1_555
O36 S4 1.512648 1_565
O36 Te0 2.536291 1_555
O37 S5 1.512648 1_545
O37 Te1 2.536291 1_555
