# generated using pymatgen
data_NiH8(NO5)2
_symmetry_space_group_name_H-M   'P 1'
_cell_length_a   5.62821900
_cell_length_b   7.57013177
_cell_length_c   10.29303635
_cell_angle_alpha   70.53650775
_cell_angle_beta   81.06659063
_cell_angle_gamma   79.32573899
_symmetry_Int_Tables_number   1
_chemical_formula_structural   NiH8(NO5)2
_chemical_formula_sum   'Ni2 H16 N4 O20'
_cell_volume   404.25527953
_cell_formula_units_Z   2
loop_
 _symmetry_equiv_pos_site_id
 _symmetry_equiv_pos_as_xyz
  1  'x, y, z'
loop_
 _atom_site_type_symbol
 _atom_site_label
 _atom_site_symmetry_multiplicity
 _atom_site_fract_x
 _atom_site_fract_y
 _atom_site_fract_z
 _atom_site_occupancy
  Ni  Ni0  1  0.00000000  0.00000000  0.00000000  1
  Ni  Ni1  1  0.50000000  0.50000000  0.50000000  1
  H  H0  1  0.44015200  0.79887300  0.04458700  1
  H  H1  1  0.55984800  0.20112700  0.95541300  1
  H  H2  1  0.25930000  0.65000800  0.09064400  1
  H  H3  1  0.74070000  0.34999200  0.90935600  1
  H  H4  1  0.69601300  0.93817900  0.24216000  1
  H  H5  1  0.30398700  0.06182100  0.75784000  1
  H  H6  1  0.85799300  0.09677300  0.21376000  1
  H  H7  1  0.14200700  0.90322700  0.78624000  1
  H  H8  1  0.94496300  0.47664200  0.38034700  1
  H  H9  1  0.05503700  0.52335800  0.61965300  1
  H  H10  1  0.79390900  0.42321800  0.28939800  1
  H  H11  1  0.20609100  0.57678200  0.71060200  1
  H  H12  1  0.26866600  0.87276100  0.40001400  1
  H  H13  1  0.73133400  0.12723900  0.59998600  1
  H  H14  1  0.28686400  0.76927200  0.28634000  1
  H  H15  1  0.71313600  0.23072800  0.71366000  1
  N  N0  1  0.16994400  0.30509600  0.08172000  1
  N  N1  1  0.83005600  0.69490400  0.91828000  1
  N  N2  1  0.33091500  0.22268600  0.39489000  1
  N  N3  1  0.66908500  0.77731400  0.60511000  1
  O  O0  1  0.27404600  0.77853400  0.09014900  1
  O  O1  1  0.72595400  0.22146600  0.90985100  1
  O  O2  1  0.85631100  0.97315800  0.20145800  1
  O  O3  1  0.14368900  0.02684200  0.79854200  1
  O  O4  1  0.24030600  0.17584900  0.01998300  1
  O  O5  1  0.75969400  0.82415100  0.98001700  1
  O  O6  1  0.32517400  0.39502900  0.09282000  1
  O  O7  1  0.67482600  0.60497100  0.90718000  1
  O  O8  1  0.95016500  0.33339700  0.12627500  1
  O  O9  1  0.04983500  0.66660300  0.87372500  1
  O  O10  1  0.35966400  0.76762000  0.36754000  1
  O  O11  1  0.64033600  0.23238000  0.63246000  1
  O  O12  1  0.78449100  0.50892700  0.34413100  1
  O  O13  1  0.21550900  0.49107300  0.65586900  1
  O  O14  1  0.26537500  0.38464400  0.41997100  1
  O  O15  1  0.73462500  0.61535600  0.58002900  1
  O  O16  1  0.16560200  0.13480800  0.39113300  1
  O  O17  1  0.83439800  0.86519200  0.60886700  1
  O  O18  1  0.55104200  0.16416500  0.37543500  1
  O  O19  1  0.44895800  0.83583500  0.62456500  1
loop_
_geom_bond_atom_site_label_1
_geom_bond_atom_site_label_2
_geom_bond_distance
_geom_bond_site_symmetry_2
Ni0 O2 2.062631 1_445
Ni0 O3 2.062631 1_554
Ni0 O1 2.121455 1_454
Ni0 O0 2.121455 1_545
Ni0 O4 2.139973 1_555
Ni0 O5 2.139973 1_444
Ni1 O12 2.076616 1_555
Ni1 O13 2.076616 1_555
Ni1 O14 2.104591 1_555
Ni1 O15 2.104591 1_555
Ni1 O10 2.118497 1_555
Ni1 O11 2.118497 1_555
H0 O0 0.993319 1_555
H1 O1 0.993319 1_555
H2 O0 0.989970 1_555
H3 O1 0.989970 1_555
H4 O2 0.978145 1_555
H5 O3 0.978145 1_555
H6 O2 0.987132 1_545
H7 O3 0.987132 1_565
H8 O12 0.988174 1_555
H9 O13 0.988174 1_555
H10 O12 0.981199 1_555
H11 O13 0.981199 1_555
H12 O10 0.990280 1_555
H13 O11 0.990280 1_555
H14 O10 0.981878 1_555
H15 O11 0.981878 1_555
N0 O6 1.242186 1_555
N0 O8 1.255955 1_455
N0 O4 1.307893 1_555
N1 O7 1.242186 1_555
N1 O9 1.255955 1_655
N1 O5 1.307893 1_555
N2 O18 1.245003 1_555
N2 O16 1.251934 1_555
N2 O14 1.311378 1_555
N3 O19 1.245003 1_555
N3 O17 1.251934 1_555
N3 O15 1.311378 1_555
