# generated using pymatgen
data_MgCr2O4
_symmetry_space_group_name_H-M   'P 1'
_cell_length_a   5.09958500
_cell_length_b   5.87273800
_cell_length_c   10.24361400
_cell_angle_alpha   90.00000000
_cell_angle_beta   90.00000000
_cell_angle_gamma   90.00000000
_symmetry_Int_Tables_number   1
_chemical_formula_structural   MgCr2O4
_chemical_formula_sum   'Mg4 Cr8 O16'
_cell_volume   306.78114650
_cell_formula_units_Z   4
loop_
 _symmetry_equiv_pos_site_id
 _symmetry_equiv_pos_as_xyz
  1  'x, y, z'
loop_
 _atom_site_type_symbol
 _atom_site_label
 _atom_site_symmetry_multiplicity
 _atom_site_fract_x
 _atom_site_fract_y
 _atom_site_fract_z
 _atom_site_occupancy
  Mg  Mg0  1  0.85551400  0.00000000  0.50000000  1
  Mg  Mg1  1  0.14448600  0.50000000  0.00000000  1
  Mg  Mg2  1  0.53169400  0.00000000  0.00000000  1
  Mg  Mg3  1  0.46830600  0.50000000  0.50000000  1
  Cr  Cr0  1  0.51103500  0.50000000  0.23573300  1
  Cr  Cr1  1  0.51103500  0.50000000  0.76426700  1
  Cr  Cr2  1  0.48896500  0.00000000  0.26426700  1
  Cr  Cr3  1  0.48896500  0.00000000  0.73573300  1
  Cr  Cr4  1  0.00000000  0.25000000  0.25000000  1
  Cr  Cr5  1  0.00000000  0.75000000  0.75000000  1
  Cr  Cr6  1  0.00000000  0.75000000  0.25000000  1
  Cr  Cr7  1  0.00000000  0.25000000  0.75000000  1
  O  O0  1  0.85527000  0.50000000  0.14167500  1
  O  O1  1  0.85527000  0.50000000  0.85832500  1
  O  O2  1  0.14473000  0.00000000  0.35832500  1
  O  O3  1  0.14473000  0.00000000  0.64167500  1
  O  O4  1  0.19247500  0.50000000  0.34768600  1
  O  O5  1  0.19247500  0.50000000  0.65231400  1
  O  O6  1  0.80752500  0.00000000  0.15231400  1
  O  O7  1  0.80752500  0.00000000  0.84768600  1
  O  O8  1  0.66572400  0.25331300  0.36192000  1
  O  O9  1  0.66572400  0.74668700  0.63808000  1
  O  O10  1  0.33427600  0.75331300  0.13808000  1
  O  O11  1  0.33427600  0.24668700  0.86192000  1
  O  O12  1  0.33427600  0.24668700  0.13808000  1
  O  O13  1  0.33427600  0.75331300  0.86192000  1
  O  O14  1  0.66572400  0.74668700  0.36192000  1
  O  O15  1  0.66572400  0.25331300  0.63808000  1
loop_
_geom_bond_atom_site_label_1
_geom_bond_atom_site_label_2
_geom_bond_distance
_geom_bond_site_symmetry_2
Mg0 O3 2.069165 1_655
Mg0 O2 2.069165 1_655
Mg0 O14 2.269459 1_545
Mg0 O8 2.269459 1_555
Mg0 O15 2.269459 1_555
Mg0 O9 2.269459 1_545
Mg1 O1 2.069165 1_454
Mg1 O0 2.069165 1_455
Mg1 O11 2.269459 1_554
Mg1 O13 2.269459 1_554
Mg1 O10 2.269459 1_555
Mg1 O12 2.269459 1_555
Mg2 O6 2.100704 1_555
Mg2 O7 2.100704 1_554
Mg2 O11 2.261193 1_554
Mg2 O13 2.261193 1_544
Mg2 O10 2.261193 1_545
Mg2 O12 2.261193 1_555
Mg3 O4 2.100704 1_555
Mg3 O5 2.100704 1_555
Mg3 O14 2.261193 1_555
Mg3 O8 2.261193 1_555
Mg3 O15 2.261193 1_555
Mg3 O9 2.261193 1_555
Cr0 O4 1.988526 1_555
Cr0 O0 2.002485 1_555
Cr0 O10 2.006547 1_555
Cr0 O12 2.006547 1_555
Cr0 O14 2.095696 1_555
Cr0 O8 2.095696 1_555
Cr1 O5 1.988526 1_555
Cr1 O1 2.002485 1_555
Cr1 O11 2.006547 1_555
Cr1 O13 2.006547 1_555
Cr1 O9 2.095696 1_555
Cr1 O15 2.095696 1_555
Cr2 O6 1.988526 1_555
Cr2 O2 2.002485 1_555
Cr2 O14 2.006547 1_545
Cr2 O8 2.006547 1_555
Cr2 O10 2.095696 1_545
Cr2 O12 2.095696 1_555
Cr3 O7 1.988526 1_555
Cr3 O3 2.002485 1_555
Cr3 O9 2.006547 1_545
Cr3 O15 2.006547 1_555
Cr3 O13 2.095696 1_545
Cr3 O11 2.095696 1_555
Cr4 O0 1.982827 1_455
Cr4 O2 1.982827 1_555
Cr4 O4 2.029854 1_555
Cr4 O6 2.029854 1_455
Cr4 O12 2.054424 1_555
Cr4 O8 2.054424 1_455
Cr5 O1 1.982827 1_455
Cr5 O3 1.982827 1_565
Cr5 O7 2.029854 1_465
Cr5 O5 2.029854 1_555
Cr5 O13 2.054424 1_555
Cr5 O9 2.054424 1_455
Cr6 O0 1.982827 1_455
Cr6 O2 1.982827 1_565
Cr6 O4 2.029854 1_555
Cr6 O6 2.029854 1_465
Cr6 O10 2.054424 1_555
Cr6 O14 2.054424 1_455
Cr7 O1 1.982827 1_455
Cr7 O3 1.982827 1_555
Cr7 O7 2.029854 1_455
Cr7 O5 2.029854 1_555
Cr7 O11 2.054424 1_555
Cr7 O15 2.054424 1_455
