# generated using pymatgen
data_EuSn3Sb4
_symmetry_space_group_name_H-M   'P 1'
_cell_length_a   4.46424200
_cell_length_b   10.05762800
_cell_length_c   22.94427800
_cell_angle_alpha   90.00000000
_cell_angle_beta   90.00000000
_cell_angle_gamma   90.00000000
_symmetry_Int_Tables_number   1
_chemical_formula_structural   EuSn3Sb4
_chemical_formula_sum   'Eu4 Sn12 Sb16'
_cell_volume   1030.19086251
_cell_formula_units_Z   4
loop_
 _symmetry_equiv_pos_site_id
 _symmetry_equiv_pos_as_xyz
  1  'x, y, z'
loop_
 _atom_site_type_symbol
 _atom_site_label
 _atom_site_symmetry_multiplicity
 _atom_site_fract_x
 _atom_site_fract_y
 _atom_site_fract_z
 _atom_site_occupancy
  Eu  Eu0  1  0.25000000  0.06078500  0.87092000  1
  Eu  Eu1  1  0.25000000  0.56078500  0.62908000  1
  Eu  Eu2  1  0.75000000  0.93921500  0.12908000  1
  Eu  Eu3  1  0.75000000  0.43921500  0.37092000  1
  Sn  Sn0  1  0.25000000  0.27887700  0.75017500  1
  Sn  Sn1  1  0.25000000  0.77887700  0.74982500  1
  Sn  Sn2  1  0.75000000  0.72112300  0.24982500  1
  Sn  Sn3  1  0.75000000  0.22112300  0.25017500  1
  Sn  Sn4  1  0.25000000  0.35107700  0.98827700  1
  Sn  Sn5  1  0.25000000  0.85107700  0.51172300  1
  Sn  Sn6  1  0.75000000  0.64892300  0.01172300  1
  Sn  Sn7  1  0.75000000  0.14892300  0.48827700  1
  Sn  Sn8  1  0.25000000  0.45418200  0.14964400  1
  Sn  Sn9  1  0.25000000  0.95418200  0.35035600  1
  Sn  Sn10  1  0.75000000  0.54581800  0.85035600  1
  Sn  Sn11  1  0.75000000  0.04581800  0.64964400  1
  Sb  Sb0  1  0.25000000  0.03064900  0.22989500  1
  Sb  Sb1  1  0.25000000  0.53064900  0.27010500  1
  Sb  Sb2  1  0.75000000  0.96935100  0.77010500  1
  Sb  Sb3  1  0.75000000  0.46935100  0.72989500  1
  Sb  Sb4  1  0.25000000  0.20787700  0.40613200  1
  Sb  Sb5  1  0.25000000  0.70787700  0.09386800  1
  Sb  Sb6  1  0.75000000  0.79212300  0.59386800  1
  Sb  Sb7  1  0.75000000  0.29212300  0.90613200  1
  Sb  Sb8  1  0.25000000  0.21591600  0.62278500  1
  Sb  Sb9  1  0.25000000  0.71591600  0.87721500  1
  Sb  Sb10  1  0.75000000  0.78408400  0.37721500  1
  Sb  Sb11  1  0.75000000  0.28408400  0.12278500  1
  Sb  Sb12  1  0.25000000  0.56957800  0.47012500  1
  Sb  Sb13  1  0.25000000  0.06957800  0.02987500  1
  Sb  Sb14  1  0.75000000  0.43042200  0.52987500  1
  Sb  Sb15  1  0.75000000  0.93042200  0.97012500  1
loop_
_geom_bond_atom_site_label_1
_geom_bond_atom_site_label_2
_geom_bond_distance
_geom_bond_site_symmetry_2
Eu0 Sb7 3.323955 1_555
Eu0 Sb7 3.323955 1_455
Eu0 Sb2 3.343442 1_545
Eu0 Sb2 3.343442 1_445
Eu0 Sb15 3.447098 1_445
Eu0 Sb15 3.447098 1_545
Eu0 Sb9 3.471570 1_545
Eu0 Sn0 3.533631 1_555
Eu0 Sb13 3.648180 1_556
Eu1 Sb6 3.323955 1_455
Eu1 Sb6 3.323955 1_555
Eu1 Sb3 3.343442 1_455
Eu1 Sb3 3.343442 1_555
Eu1 Sb14 3.447098 1_455
Eu1 Sb14 3.447098 1_555
Eu1 Sb8 3.471570 1_555
Eu1 Sn1 3.533631 1_555
Eu1 Sb12 3.648180 1_555
Eu2 Sb5 3.323955 1_555
Eu2 Sb5 3.323955 1_655
Eu2 Sb0 3.343442 1_565
Eu2 Sb0 3.343442 1_665
Eu2 Sb13 3.447098 1_565
Eu2 Sb13 3.447098 1_665
Eu2 Sb11 3.471570 1_565
Eu2 Sn2 3.533631 1_555
Eu2 Sb15 3.648180 1_554
Eu3 Sb4 3.323955 1_555
Eu3 Sb4 3.323955 1_655
Eu3 Sb1 3.343442 1_555
Eu3 Sb1 3.343442 1_655
Eu3 Sb12 3.447098 1_655
Eu3 Sb12 3.447098 1_555
Eu3 Sb10 3.471570 1_555
Eu3 Sn3 3.533631 1_555
Eu3 Sb14 3.648180 1_555
Sb0 Sn9 2.868897 1_545
Sb0 Sn3 2.978061 1_555
Sb0 Sn3 2.978061 1_455
Sb1 Sn8 2.868897 1_555
Sb1 Sn2 2.978061 1_455
Sb1 Sn2 2.978061 1_555
Sb2 Sn11 2.868897 1_565
Sb2 Sn1 2.978061 1_555
Sb2 Sn1 2.978061 1_655
Sb3 Sn10 2.868897 1_555
Sb3 Sn0 2.978061 1_655
Sb3 Sn0 2.978061 1_555
Sb4 Sn9 2.854513 1_545
Sb4 Sn7 2.980981 1_455
Sb4 Sn7 2.980981 1_555
Sb5 Sn8 2.854513 1_555
Sb5 Sn6 2.980981 1_555
Sb5 Sn6 2.980981 1_455
Sb6 Sn11 2.854513 1_565
Sb6 Sn5 2.980981 1_655
Sb6 Sn5 2.980981 1_555
Sb7 Sn10 2.854513 1_555
Sb7 Sn4 2.980981 1_555
Sb7 Sn4 2.980981 1_655
Sb8 Sn11 2.879048 1_455
Sb8 Sn11 2.879048 1_555
Sb8 Sn0 2.990680 1_555
Sb9 Sn10 2.879048 1_555
Sb9 Sn10 2.879048 1_455
Sb9 Sn1 2.990680 1_555
Sb10 Sn9 2.879048 1_655
Sb10 Sn9 2.879048 1_555
Sb10 Sn2 2.990680 1_555
Sb11 Sn8 2.879048 1_555
Sb11 Sn8 2.879048 1_655
Sb11 Sn3 2.990680 1_555
Sb12 Sb14 2.969951 1_455
Sb12 Sb14 2.969951 1_555
Sb12 Sn5 2.987760 1_555
Sb13 Sb15 2.969951 1_544
Sb13 Sb15 2.969951 1_444
Sb13 Sn4 2.987760 1_554
Sb14 Sn7 2.987760 1_555
Sb15 Sn6 2.987760 1_556
