# generated using pymatgen
data_ZnCoO2
_symmetry_space_group_name_H-M   'P 1'
_cell_length_a   5.34265882
_cell_length_b   6.13972515
_cell_length_c   6.13972138
_cell_angle_alpha   58.89281286
_cell_angle_beta   108.19464908
_cell_angle_gamma   108.19462529
_symmetry_Int_Tables_number   1
_chemical_formula_structural   ZnCoO2
_chemical_formula_sum   'Zn4 Co4 O8'
_cell_volume   160.97097186
_cell_formula_units_Z   4
loop_
 _symmetry_equiv_pos_site_id
 _symmetry_equiv_pos_as_xyz
  1  'x, y, z'
loop_
 _atom_site_type_symbol
 _atom_site_label
 _atom_site_symmetry_multiplicity
 _atom_site_fract_x
 _atom_site_fract_y
 _atom_site_fract_z
 _atom_site_occupancy
  Zn  Zn0  1  0.99999500  0.99999300  0.00001800  1
  Zn  Zn1  1  0.49998600  0.25002500  0.74999900  1
  Zn  Zn2  1  0.00000600  0.49998100  0.50000700  1
  Zn  Zn3  1  0.50001500  0.75000100  0.24997500  1
  Co  Co0  1  0.50000100  0.24979900  0.25020100  1
  Co  Co1  1  0.00000000  0.50021000  0.99978900  1
  Co  Co2  1  0.50000000  0.74976400  0.75023500  1
  Co  Co3  1  0.00000100  0.00022600  0.49977400  1
  O  O0  1  0.23658900  0.37463100  0.37431900  1
  O  O1  1  0.73656400  0.62430900  0.12461800  1
  O  O2  1  0.23658800  0.87460900  0.87431800  1
  O  O3  1  0.73656900  0.12430600  0.62460100  1
  O  O4  1  0.76340900  0.12567900  0.12536800  1
  O  O5  1  0.26343700  0.37538200  0.87569300  1
  O  O6  1  0.76341300  0.62568500  0.62539200  1
  O  O7  1  0.26342900  0.87540100  0.37569300  1
loop_
_geom_bond_atom_site_label_1
_geom_bond_atom_site_label_2
_geom_bond_distance
_geom_bond_site_symmetry_2
Co0 O3 2.106864 1_555
Co0 O7 2.106865 1_545
Co0 O5 2.107324 1_554
Co0 O1 2.107333 1_555
Co0 O4 2.257320 1_555
Co0 O0 2.257325 1_555
Co1 O6 2.106890 1_455
Co1 O2 2.106903 1_555
Co1 O0 2.107471 1_556
Co1 O4 2.107481 1_456
Co1 O5 2.257323 1_555
Co1 O1 2.257336 1_456
Co2 O5 2.106779 1_555
Co2 O1 2.106784 1_556
Co2 O3 2.107482 1_565
Co2 O7 2.107484 1_555
Co2 O6 2.257208 1_555
Co2 O2 2.257229 1_555
Co3 O0 2.106930 1_555
Co3 O4 2.106941 1_455
Co3 O6 2.107516 1_445
Co3 O2 2.107526 1_545
Co3 O7 2.257205 1_545
Co3 O3 2.257227 1_455
O0 Zn2 2.148431 1_555
O0 Zn3 2.168518 1_555
O0 Zn1 2.169750 1_555
O1 Zn3 2.148332 1_555
O1 Zn2 2.168631 1_655
O1 Zn0 2.169846 1_555
O2 Zn0 2.148680 1_456
O2 Zn1 2.168645 1_565
O2 Zn3 2.169723 1_556
O3 Zn1 2.148784 1_555
O3 Zn0 2.168711 1_546
O3 Zn2 2.169822 1_655
O4 Zn0 2.148435 1_545
O4 Zn1 2.168505 1_554
O4 Zn3 2.169737 1_545
O5 Zn1 2.148341 1_555
O5 Zn0 2.168633 1_446
O5 Zn2 2.169853 1_555
O6 Zn2 2.148702 1_655
O6 Zn3 2.168647 1_555
O6 Zn1 2.169737 1_555
O7 Zn3 2.148801 1_555
O7 Zn2 2.168718 1_555
O7 Zn0 2.169813 1_455
