# generated using pymatgen
data_Sr3LaTa3O12
_symmetry_space_group_name_H-M   'P 1'
_cell_length_a   9.73969665
_cell_length_b   9.73969665
_cell_length_c   9.73969720
_cell_angle_alpha   33.95015768
_cell_angle_beta   33.95015768
_cell_angle_gamma   33.95015509
_symmetry_Int_Tables_number   1
_chemical_formula_structural   Sr3LaTa3O12
_chemical_formula_sum   'Sr3 La1 Ta3 O12'
_cell_volume   256.84039464
_cell_formula_units_Z   1
loop_
 _symmetry_equiv_pos_site_id
 _symmetry_equiv_pos_as_xyz
  1  'x, y, z'
loop_
 _atom_site_type_symbol
 _atom_site_label
 _atom_site_symmetry_multiplicity
 _atom_site_fract_x
 _atom_site_fract_y
 _atom_site_fract_z
 _atom_site_occupancy
  Sr  Sr0  1  0.13834500  0.13834500  0.13834500  1
  Sr  Sr1  1  0.71358100  0.71358100  0.71358100  1
  Sr  Sr2  1  0.28595900  0.28595900  0.28595900  1
  La  La0  1  0.85599200  0.85599200  0.85599200  1
  Ta  Ta0  1  0.57697600  0.57697600  0.57697600  1
  Ta  Ta1  1  0.42303200  0.42303200  0.42303200  1
  Ta  Ta2  1  0.00013500  0.00013500  0.00013500  1
  O  O0  1  0.79273200  0.79273200  0.29316300  1
  O  O1  1  0.29316300  0.79273200  0.79273200  1
  O  O2  1  0.79273200  0.29316300  0.79273200  1
  O  O3  1  0.20925700  0.20925700  0.70574200  1
  O  O4  1  0.70574200  0.20925700  0.20925700  1
  O  O5  1  0.20925700  0.70574200  0.20925700  1
  O  O6  1  0.37485000  0.37485000  0.88274300  1
  O  O7  1  0.88274300  0.37485000  0.37485000  1
  O  O8  1  0.37485000  0.88274300  0.37485000  1
  O  O9  1  0.62738900  0.62738900  0.11587800  1
  O  O10  1  0.11587800  0.62738900  0.62738900  1
  O  O11  1  0.62738900  0.11587800  0.62738900  1
loop_
_geom_bond_atom_site_label_1
_geom_bond_atom_site_label_2
_geom_bond_distance
_geom_bond_site_symmetry_2
La0 O9 2.417912 1_556
La0 O11 2.417912 1_565
La0 O10 2.417912 1_655
O0 Ta2 1.986664 1_665
O0 Ta0 2.127170 1_555
O0 Sr2 2.849919 1_655
O0 Sr2 2.849919 1_565
O0 Sr1 2.909875 1_555
O1 Ta2 1.986664 1_566
O1 Ta0 2.127170 1_555
O1 Sr2 2.849919 1_556
O1 Sr2 2.849919 1_565
O1 Sr1 2.909875 1_555
O2 Ta2 1.986664 1_656
O2 Ta0 2.127170 1_555
O2 Sr2 2.849919 1_556
O2 Sr2 2.849919 1_655
O2 Sr1 2.909875 1_555
O3 Ta2 2.005748 1_556
O3 Ta1 2.102715 1_555
O3 Sr1 2.847599 1_455
O3 Sr1 2.847599 1_545
O3 Sr2 2.936612 1_555
O3 Sr0 3.137280 1_556
O4 Ta2 2.005748 1_655
O4 Ta1 2.102715 1_555
O4 Sr1 2.847600 1_554
O4 Sr1 2.847600 1_545
O4 Sr2 2.936611 1_555
O4 Sr0 3.137280 1_655
O5 Ta2 2.005748 1_565
O5 Ta1 2.102715 1_555
O5 Sr1 2.847600 1_554
O5 Sr1 2.847600 1_455
O5 Sr2 2.936611 1_555
O5 Sr0 3.137280 1_565
O6 Ta0 1.896462 1_555
O6 Sr0 2.566131 1_556
O6 Sr2 2.623713 1_556
O7 Ta0 1.896462 1_555
O7 Sr0 2.566131 1_655
O7 Sr2 2.623713 1_655
O8 Ta0 1.896462 1_555
O8 Sr0 2.566131 1_565
O8 Sr2 2.623713 1_565
O9 Ta1 1.920430 1_555
O9 Sr1 2.648982 1_554
O9 Sr0 2.872779 1_565
O9 Sr0 2.872779 1_655
O10 Ta1 1.920430 1_555
O10 Sr1 2.648982 1_455
O10 Sr0 2.872779 1_565
O10 Sr0 2.872779 1_556
O11 Ta1 1.920430 1_555
O11 Sr1 2.648982 1_545
O11 Sr0 2.872779 1_655
O11 Sr0 2.872779 1_556
