# generated using pymatgen
data_Ca3GaN3
_symmetry_space_group_name_H-M   'P 1'
_cell_length_a   7.17261292
_cell_length_b   7.17261664
_cell_length_c   5.06491081
_cell_angle_alpha   90.00000000
_cell_angle_beta   90.00000000
_cell_angle_gamma   120.00015999
_symmetry_Int_Tables_number   1
_chemical_formula_structural   Ca3GaN3
_chemical_formula_sum   'Ca6 Ga2 N6'
_cell_volume   225.66112403
_cell_formula_units_Z   2
loop_
 _symmetry_equiv_pos_site_id
 _symmetry_equiv_pos_as_xyz
  1  'x, y, z'
loop_
 _atom_site_type_symbol
 _atom_site_label
 _atom_site_symmetry_multiplicity
 _atom_site_fract_x
 _atom_site_fract_y
 _atom_site_fract_z
 _atom_site_occupancy
  Ca  Ca0  1  0.93070579  0.64847149  0.25000000  1
  Ca  Ca1  1  0.71776373  0.06929309  0.25000000  1
  Ca  Ca2  1  0.35152863  0.28223312  0.25000000  1
  Ca  Ca3  1  0.06929421  0.35152851  0.75000000  1
  Ca  Ca4  1  0.28223627  0.93070591  0.75000000  1
  Ca  Ca5  1  0.64847237  0.71776688  0.75000000  1
  Ga  Ga0  1  0.66666826  0.33333559  0.75000000  1
  Ga  Ga1  1  0.33333174  0.66666441  0.25000000  1
  N  N0  1  0.91707995  0.61024694  0.75000000  1
  N  N1  1  0.69316678  0.08292194  0.75000000  1
  N  N2  1  0.38975418  0.30683351  0.75000000  1
  N  N3  1  0.08292005  0.38975306  0.25000000  1
  N  N4  1  0.30683322  0.91707806  0.25000000  1
  N  N5  1  0.61024582  0.69316649  0.25000000  1
loop_
_geom_bond_atom_site_label_1
_geom_bond_atom_site_label_2
_geom_bond_distance
_geom_bond_site_symmetry_2
Ca0 N4 2.406736 1_655
Ca0 N5 2.474450 1_555
Ca0 N0 2.543866 1_555
Ca0 N0 2.543866 1_554
Ca0 N3 2.580998 1_655
Ca1 N5 2.406739 1_545
Ca1 N3 2.474450 1_655
Ca1 N1 2.543867 1_554
Ca1 N1 2.543867 1_555
Ca1 N4 2.580977 1_545
Ca2 N3 2.406752 1_555
Ca2 N4 2.474450 1_545
Ca2 N2 2.543867 1_555
Ca2 N2 2.543867 1_554
Ca2 N5 2.580994 1_555
Ca3 N1 2.406736 1_455
Ca3 N2 2.474450 1_555
Ca3 N3 2.543866 1_555
Ca3 N3 2.543866 1_556
Ca3 N0 2.580998 1_455
Ca4 N2 2.406746 1_565
Ca4 N0 2.474447 1_455
Ca4 N4 2.543866 1_555
Ca4 N4 2.543866 1_556
Ca4 N1 2.580976 1_565
Ca5 N0 2.406745 1_555
Ca5 N1 2.474452 1_565
Ca5 N5 2.543868 1_556
Ca5 N5 2.543868 1_555
Ca5 N2 2.580995 1_555
Ga0 N0 1.898288 1_555
Ga0 N1 1.898303 1_555
Ga0 N2 1.898304 1_555
Ga1 N3 1.898288 1_555
Ga1 N4 1.898303 1_555
Ga1 N5 1.898304 1_555
