# generated using pymatgen
data_BaCrS2
_symmetry_space_group_name_H-M   'P 1'
_cell_length_a   4.63367900
_cell_length_b   4.63367900
_cell_length_c   9.19988400
_cell_angle_alpha   90.00000000
_cell_angle_beta   90.00000000
_cell_angle_gamma   90.00000000
_symmetry_Int_Tables_number   1
_chemical_formula_structural   BaCrS2
_chemical_formula_sum   'Ba2 Cr2 S4'
_cell_volume   197.53053526
_cell_formula_units_Z   2
loop_
 _symmetry_equiv_pos_site_id
 _symmetry_equiv_pos_as_xyz
  1  'x, y, z'
loop_
 _atom_site_type_symbol
 _atom_site_label
 _atom_site_symmetry_multiplicity
 _atom_site_fract_x
 _atom_site_fract_y
 _atom_site_fract_z
 _atom_site_occupancy
  Ba  Ba0  1  0.50000000  0.00000000  0.69071500  1
  Ba  Ba1  1  0.00000000  0.50000000  0.30928500  1
  Cr  Cr0  1  0.00000000  0.50000000  0.91413700  1
  Cr  Cr1  1  0.50000000  0.00000000  0.08586300  1
  S  S0  1  0.00000000  0.00000000  0.00000000  1
  S  S1  1  0.50000000  0.50000000  0.00000000  1
  S  S2  1  0.00000000  0.50000000  0.65378700  1
  S  S3  1  0.50000000  0.00000000  0.34621300  1
loop_
_geom_bond_atom_site_label_1
_geom_bond_atom_site_label_2
_geom_bond_distance
_geom_bond_site_symmetry_2
Ba0 S3 3.169378 1_555
Ba0 S2 3.294072 1_645
Ba0 S2 3.294072 1_555
Ba0 S2 3.294072 1_545
Ba0 S2 3.294072 1_655
Ba1 S2 3.169378 1_555
Ba1 S3 3.294072 1_555
Ba1 S3 3.294072 1_565
Ba1 S3 3.294072 1_465
Ba1 S3 3.294072 1_455
Cr0 S2 2.395190 1_555
Cr0 S1 2.447802 1_556
Cr0 S0 2.447802 1_556
Cr0 S0 2.447802 1_566
Cr0 S1 2.447802 1_456
Cr1 S3 2.395190 1_555
Cr1 S0 2.447802 1_555
Cr1 S0 2.447802 1_655
Cr1 S1 2.447802 1_545
Cr1 S1 2.447802 1_555
