# generated using pymatgen
data_LiMg6Cd
_symmetry_space_group_name_H-M   'P 1'
_cell_length_a   5.11744600
_cell_length_b   6.31041100
_cell_length_c   10.89242400
_cell_angle_alpha   90.00000000
_cell_angle_beta   90.00000000
_cell_angle_gamma   90.00000000
_symmetry_Int_Tables_number   1
_chemical_formula_structural   LiMg6Cd
_chemical_formula_sum   'Li2 Mg12 Cd2'
_cell_volume   351.75109089
_cell_formula_units_Z   2
loop_
 _symmetry_equiv_pos_site_id
 _symmetry_equiv_pos_as_xyz
  1  'x, y, z'
loop_
 _atom_site_type_symbol
 _atom_site_label
 _atom_site_symmetry_multiplicity
 _atom_site_fract_x
 _atom_site_fract_y
 _atom_site_fract_z
 _atom_site_occupancy
  Li  Li0  1  0.00000000  0.50000000  0.33262000  1
  Li  Li1  1  0.00000000  0.00000000  0.83262000  1
  Mg  Mg0  1  0.00000000  0.25087600  0.08353800  1
  Mg  Mg1  1  0.00000000  0.74912400  0.08353800  1
  Mg  Mg2  1  0.00000000  0.50000000  0.83371400  1
  Mg  Mg3  1  0.50000000  0.24817900  0.91516300  1
  Mg  Mg4  1  0.50000000  0.75182100  0.91516300  1
  Mg  Mg5  1  0.50000000  0.50000000  0.66712100  1
  Mg  Mg6  1  0.00000000  0.75087600  0.58353800  1
  Mg  Mg7  1  0.00000000  0.24912400  0.58353800  1
  Mg  Mg8  1  0.00000000  0.00000000  0.33371400  1
  Mg  Mg9  1  0.50000000  0.74817900  0.41516300  1
  Mg  Mg10  1  0.50000000  0.25182100  0.41516300  1
  Mg  Mg11  1  0.50000000  0.00000000  0.16712100  1
  Cd  Cd0  1  0.50000000  0.50000000  0.16914400  1
  Cd  Cd1  1  0.50000000  0.00000000  0.66914400  1
loop_
_geom_bond_atom_site_label_1
_geom_bond_atom_site_label_2
_geom_bond_distance
_geom_bond_site_symmetry_2
Li0 Mg10 3.131795 1_455
Li0 Mg10 3.131795 1_555
Li0 Mg9 3.131795 1_555
Li0 Mg9 3.131795 1_455
Li0 Mg1 3.135661 1_555
Li0 Mg0 3.135661 1_555
Li0 Mg8 3.155228 1_555
Li0 Mg8 3.155228 1_565
Li0 Mg6 3.158507 1_555
Li0 Mg7 3.158507 1_555
Li1 Mg3 3.131795 1_455
Li1 Mg4 3.131795 1_445
Li1 Mg3 3.131795 1_555
Li1 Mg4 3.131795 1_545
Li1 Mg6 3.135661 1_545
Li1 Mg7 3.135661 1_555
Li1 Mg2 3.155228 1_545
Li1 Mg2 3.155228 1_555
Li1 Mg1 3.158507 1_546
Li1 Mg0 3.158507 1_556
Mg0 Mg2 3.142656 1_554
Mg0 Mg11 3.143602 1_555
Mg0 Mg11 3.143602 1_455
Mg0 Mg1 3.144150 1_555
Mg0 Mg3 3.148167 1_454
Mg0 Mg3 3.148167 1_554
Mg0 Mg8 3.151516 1_555
Mg0 Mg1 3.166261 1_545
Mg1 Mg2 3.142656 1_554
Mg1 Mg11 3.143602 1_565
Mg1 Mg11 3.143602 1_465
Mg1 Mg4 3.148167 1_554
Mg1 Mg4 3.148167 1_454
Mg1 Mg8 3.151516 1_565
Mg2 Mg5 3.136852 1_455
Mg2 Mg5 3.136852 1_555
Mg2 Mg3 3.139963 1_455
Mg2 Mg4 3.139963 1_455
Mg2 Mg3 3.139963 1_555
Mg2 Mg4 3.139963 1_555
Mg2 Mg6 3.151516 1_555
Mg2 Mg7 3.151516 1_555
Mg3 Mg4 3.132223 1_545
Mg3 Mg5 3.134458 1_555
Mg3 Mg4 3.178188 1_555
Mg4 Mg5 3.134458 1_555
Mg5 Mg7 3.143602 1_555
Mg5 Mg6 3.143602 1_655
Mg5 Mg7 3.143602 1_655
Mg5 Mg6 3.143602 1_555
Mg5 Mg9 3.159845 1_555
Mg6 Mg8 3.142656 1_565
Mg6 Mg7 3.144150 1_565
Mg6 Mg9 3.148167 1_455
Mg6 Mg9 3.148167 1_555
Mg6 Mg7 3.166261 1_555
Mg7 Mg8 3.142656 1_555
Mg8 Mg9 3.139963 1_545
Mg8 Mg9 3.139963 1_445
Mg10 Mg9 3.132223 1_555
Mg10 Mg11 3.134458 1_555
Mg10 Mg8 3.139963 1_555
Mg10 Mg8 3.139963 1_655
Mg10 Mg7 3.148167 1_655
Mg10 Mg7 3.148167 1_555
Mg10 Mg5 3.159845 1_555
Mg10 Mg9 3.178188 1_545
Mg11 Mg9 3.134458 1_545
Mg11 Mg8 3.136852 1_555
Mg11 Mg8 3.136852 1_655
Mg11 Mg4 3.159845 1_544
Mg11 Mg3 3.159845 1_554
Cd0 Mg9 3.103825 1_555
Cd0 Mg10 3.103825 1_555
Cd0 Li0 3.117335 1_555
Cd0 Li0 3.117335 1_655
Cd0 Mg1 3.144512 1_555
Cd0 Mg1 3.144512 1_655
Cd0 Mg0 3.144512 1_555
Cd0 Mg0 3.144512 1_655
Cd0 Mg11 3.155282 1_565
Cd0 Mg11 3.155282 1_555
Cd0 Mg3 3.190387 1_554
Cd0 Mg4 3.190387 1_554
Cd1 Mg4 3.103825 1_545
Cd1 Mg3 3.103825 1_555
Cd1 Li1 3.117335 1_555
Cd1 Li1 3.117335 1_655
Cd1 Mg7 3.144512 1_655
Cd1 Mg6 3.144512 1_645
Cd1 Mg6 3.144512 1_545
Cd1 Mg7 3.144512 1_555
Cd1 Mg5 3.155282 1_555
Cd1 Mg5 3.155282 1_545
Cd1 Mg10 3.190387 1_555
Cd1 Mg9 3.190387 1_545
