# generated using pymatgen
data_V2Co3TePb3O14
_symmetry_space_group_name_H-M   'P 1'
_cell_length_a   26.23218400
_cell_length_b   5.28148500
_cell_length_c   15.19193073
_cell_angle_alpha   89.98220247
_cell_angle_beta   90.00000000
_cell_angle_gamma   90.00000000
_symmetry_Int_Tables_number   1
_chemical_formula_structural   V2Co3TePb3O14
_chemical_formula_sum   'V12 Co18 Te6 Pb18 O84'
_cell_volume   2104.76421473
_cell_formula_units_Z   6
loop_
 _symmetry_equiv_pos_site_id
 _symmetry_equiv_pos_as_xyz
  1  'x, y, z'
loop_
 _atom_site_type_symbol
 _atom_site_label
 _atom_site_symmetry_multiplicity
 _atom_site_fract_x
 _atom_site_fract_y
 _atom_site_fract_z
 _atom_site_occupancy
  V  V0  1  0.83630900  0.54404100  0.16732400  1
  V  V1  1  0.83630900  0.45595900  0.83267600  1
  V  V2  1  0.33393100  0.45302200  0.33576300  1
  V  V3  1  0.33393100  0.54697800  0.66423700  1
  V  V4  1  0.17298100  0.55324000  0.16257600  1
  V  V5  1  0.17298100  0.44676000  0.83742400  1
  V  V6  1  0.67344100  0.46110200  0.33277200  1
  V  V7  1  0.67344100  0.53889800  0.66722800  1
  V  V8  1  0.50217200  0.50837500  0.17309200  1
  V  V9  1  0.50217200  0.49162500  0.82690800  1
  V  V10  1  0.00489100  0.45169000  0.32734100  1
  V  V11  1  0.00489100  0.54831000  0.67265900  1
  Co  Co0  1  0.42478000  0.50000000  0.00000000  1
  Co  Co1  1  0.92150500  0.50000000  0.50000000  1
  Co  Co2  1  0.08402700  0.50000000  0.00000000  1
  Co  Co3  1  0.58241200  0.50000000  0.50000000  1
  Co  Co4  1  0.74701500  0.50000000  0.00000000  1
  Co  Co5  1  0.24582800  0.50000000  0.50000000  1
  Co  Co6  1  0.96221900  0.49919400  0.11874000  1
  Co  Co7  1  0.96221900  0.50080600  0.88126000  1
  Co  Co8  1  0.45928400  0.51534400  0.61779700  1
  Co  Co9  1  0.45928400  0.48465600  0.38220300  1
  Co  Co10  1  0.30172700  0.50654500  0.11921400  1
  Co  Co11  1  0.30172700  0.49345500  0.88078600  1
  Co  Co12  1  0.80058700  0.50429600  0.61867000  1
  Co  Co13  1  0.80058700  0.49570400  0.38133000  1
  Co  Co14  1  0.62703900  0.49001000  0.12624200  1
  Co  Co15  1  0.62703900  0.50999000  0.87375800  1
  Co  Co16  1  0.13000500  0.48836600  0.62492100  1
  Co  Co17  1  0.13000500  0.51163400  0.37507900  1
  Te  Te0  1  0.34551500  0.00000000  0.00000000  1
  Te  Te1  1  0.84340400  0.00000000  0.50000000  1
  Te  Te2  1  0.00199100  0.00000000  0.00000000  1
  Te  Te3  1  0.50679000  0.00000000  0.50000000  1
  Te  Te4  1  0.66238900  0.00000000  0.00000000  1
  Te  Te5  1  0.16637300  0.00000000  0.50000000  1
  Pb  Pb0  1  0.52642600  0.00000000  0.00000000  1
  Pb  Pb1  1  0.03703000  0.00000000  0.50000000  1
  Pb  Pb2  1  0.21363500  0.00000000  0.00000000  1
  Pb  Pb3  1  0.71344900  0.00000000  0.50000000  1
  Pb  Pb4  1  0.87134100  0.00000000  0.00000000  1
  Pb  Pb5  1  0.37473300  0.00000000  0.50000000  1
  Pb  Pb6  1  0.90326900  0.99492900  0.29761400  1
  Pb  Pb7  1  0.90326900  0.00507100  0.70238600  1
  Pb  Pb8  1  0.40294800  0.98773200  0.79379200  1
  Pb  Pb9  1  0.40294800  0.01226800  0.20620800  1
  Pb  Pb10  1  0.23293300  0.00476300  0.30472300  1
  Pb  Pb11  1  0.23293300  0.99523700  0.69527700  1
  Pb  Pb12  1  0.73227300  0.00197500  0.80895100  1
  Pb  Pb13  1  0.73227300  0.99802500  0.19104900  1
  Pb  Pb14  1  0.57875400  0.01809400  0.30524300  1
  Pb  Pb15  1  0.57875400  0.98190600  0.69475700  1
  Pb  Pb16  1  0.06799700  0.00091800  0.80510300  1
  Pb  Pb17  1  0.06799700  0.99908200  0.19489700  1
  O  O0  1  0.28938600  0.21598700  0.04136900  1
  O  O1  1  0.28938600  0.78401300  0.95863100  1
  O  O2  1  0.35200500  0.21990500  0.89582600  1
  O  O3  1  0.35200500  0.78009500  0.10417400  1
  O  O4  1  0.39416500  0.21355200  0.06266600  1
  O  O5  1  0.39416500  0.78644800  0.93733400  1
  O  O6  1  0.78722400  0.21672500  0.54073000  1
  O  O7  1  0.78722400  0.78327500  0.45927000  1
  O  O8  1  0.84814100  0.21414700  0.39512700  1
  O  O9  1  0.84814100  0.78585300  0.60487300  1
  O  O10  1  0.89185900  0.21295700  0.56263700  1
  O  O11  1  0.89185900  0.78704300  0.43736300  1
  O  O12  1  0.94593900  0.21560200  0.04110400  1
  O  O13  1  0.94593900  0.78439800  0.95889600  1
  O  O14  1  0.05035100  0.21906400  0.06148900  1
  O  O15  1  0.05035100  0.78093600  0.93851100  1
  O  O16  1  0.00869400  0.21389500  0.89546800  1
  O  O17  1  0.00869400  0.78610500  0.10453200  1
  O  O18  1  0.45107100  0.21068100  0.54533500  1
  O  O19  1  0.45107100  0.78931900  0.45466500  1
  O  O20  1  0.51232600  0.22608900  0.39840400  1
  O  O21  1  0.51232600  0.77391100  0.60159600  1
  O  O22  1  0.55740300  0.20383200  0.56474000  1
  O  O23  1  0.55740300  0.79616800  0.43526000  1
  O  O24  1  0.60828600  0.22374400  0.04145100  1
  O  O25  1  0.60828600  0.77625600  0.95854900  1
  O  O26  1  0.66885200  0.20564800  0.89268800  1
  O  O27  1  0.66885200  0.79435200  0.10731200  1
  O  O28  1  0.71357100  0.21501200  0.05844800  1
  O  O29  1  0.71357100  0.78498800  0.94155200  1
  O  O30  1  0.11085000  0.21084400  0.54557000  1
  O  O31  1  0.11085000  0.78915600  0.45443000  1
  O  O32  1  0.17378700  0.21832500  0.39675600  1
  O  O33  1  0.17378700  0.78167500  0.60324400  1
  O  O34  1  0.21477200  0.21568300  0.56271100  1
  O  O35  1  0.21477200  0.78431700  0.43728900  1
  O  O36  1  0.83905200  0.22064800  0.16896700  1
  O  O37  1  0.83905200  0.77935200  0.83103300  1
  O  O38  1  0.89479100  0.67181100  0.13201100  1
  O  O39  1  0.89479100  0.32818900  0.86798900  1
  O  O40  1  0.78798000  0.65366000  0.09658800  1
  O  O41  1  0.78798000  0.34634000  0.90341200  1
  O  O42  1  0.82545900  0.66685600  0.27317000  1
  O  O43  1  0.82545900  0.33314400  0.72683000  1
  O  O44  1  0.33507500  0.77621600  0.33498200  1
  O  O45  1  0.33507500  0.22378400  0.66501800  1
  O  O46  1  0.28429000  0.33809800  0.40180500  1
  O  O47  1  0.28429000  0.66190200  0.59819500  1
  O  O48  1  0.32547900  0.33154900  0.22890300  1
  O  O49  1  0.32547900  0.66845100  0.77109700  1
  O  O50  1  0.39078500  0.32465100  0.37940000  1
  O  O51  1  0.39078500  0.67534900  0.62060000  1
  O  O52  1  0.17310500  0.23049400  0.16328500  1
  O  O53  1  0.17310500  0.76950600  0.83671500  1
  O  O54  1  0.12641900  0.67171200  0.09044000  1
  O  O55  1  0.12641900  0.32828800  0.90956000  1
  O  O56  1  0.15915600  0.67433200  0.26818300  1
  O  O57  1  0.15915600  0.32566800  0.73181700  1
  O  O58  1  0.23308000  0.67088800  0.13000300  1
  O  O59  1  0.23308000  0.32911200  0.86999700  1
  O  O60  1  0.67274300  0.78615600  0.32773700  1
  O  O61  1  0.67274300  0.21384400  0.67226300  1
  O  O62  1  0.62500800  0.34680700  0.40152600  1
  O  O63  1  0.62500800  0.65319300  0.59847400  1
  O  O64  1  0.66352100  0.32473800  0.22840700  1
  O  O65  1  0.66352100  0.67526200  0.77159300  1
  O  O66  1  0.73144900  0.34237800  0.37263700  1
  O  O67  1  0.73144900  0.65762200  0.62736300  1
  O  O68  1  0.50082200  0.18374800  0.16202600  1
  O  O69  1  0.50082200  0.81625200  0.83797400  1
  O  O70  1  0.47748500  0.65355700  0.07798200  1
  O  O71  1  0.47748500  0.34644300  0.92201800  1
  O  O72  1  0.46206700  0.60086200  0.25917700  1
  O  O73  1  0.46206700  0.39913800  0.74082300  1
  O  O74  1  0.56503900  0.60939700  0.19107500  1
  O  O75  1  0.56503900  0.39060300  0.80892500  1
  O  O76  1  0.00561400  0.77622200  0.32216600  1
  O  O77  1  0.00561400  0.22377800  0.67783400  1
  O  O78  1  0.96054600  0.33851100  0.40376700  1
  O  O79  1  0.96054600  0.66148900  0.59623300  1
  O  O80  1  0.98936000  0.31944500  0.22439600  1
  O  O81  1  0.98936000  0.68055500  0.77560400  1
  O  O82  1  0.06440000  0.33075100  0.35855400  1
  O  O83  1  0.06440000  0.66924900  0.64144600  1
loop_
_geom_bond_atom_site_label_1
_geom_bond_atom_site_label_2
_geom_bond_distance
_geom_bond_site_symmetry_2
Co0 O5 1.959384 1_554
Co0 O4 1.959384 1_555
Co0 O71 1.993322 1_554
Co0 O70 1.993322 1_555
Co1 O10 1.951329 1_555
Co1 O11 1.951329 1_555
Co1 O79 1.978485 1_555
Co1 O78 1.978485 1_555
Co2 O14 1.963079 1_555
Co2 O15 1.963079 1_554
Co2 O55 1.986860 1_554
Co2 O54 1.986860 1_555
Co3 O23 1.960484 1_555
Co3 O22 1.960484 1_555
Co3 O63 2.035183 1_555
Co3 O62 2.035183 1_555
Co4 O28 1.955193 1_555
Co4 O29 1.955193 1_554
Co4 O40 1.991800 1_555
Co4 O41 1.991800 1_554
Co5 O34 1.955833 1_555
Co5 O35 1.955833 1_555
Co5 O46 1.993817 1_555
Co5 O47 1.993817 1_555
Co6 O12 1.953951 1_555
Co6 O17 1.956751 1_655
Co6 O80 1.995897 1_555
Co6 O38 2.000127 1_555
Co7 O13 1.953951 1_555
Co7 O16 1.956751 1_655
Co7 O81 1.995897 1_555
Co7 O39 2.000127 1_555
Co8 O18 1.961753 1_555
Co8 O21 1.965018 1_555
Co8 O73 1.968366 1_555
Co8 O51 1.986137 1_555
Co9 O19 1.961753 1_555
Co9 O20 1.965018 1_555
Co9 O72 1.968366 1_555
Co9 O50 1.986137 1_555
Co10 O0 1.964545 1_555
Co10 O3 1.969468 1_555
Co10 O48 2.004575 1_555
Co10 O58 2.005760 1_555
Co11 O1 1.964545 1_555
Co11 O2 1.969468 1_555
Co11 O49 2.004575 1_555
Co11 O59 2.005760 1_555
Co12 O9 1.952215 1_555
Co12 O6 1.957741 1_555
Co12 O43 1.985406 1_555
Co12 O67 1.990618 1_555
Co13 O8 1.952215 1_555
Co13 O7 1.957741 1_555
Co13 O42 1.985406 1_555
Co13 O66 1.990618 1_555
Co14 O27 1.967016 1_555
Co14 O24 1.969784 1_555
Co14 O74 2.003306 1_555
Co14 O64 2.021360 1_555
Co15 O26 1.967016 1_555
Co15 O25 1.969784 1_555
Co15 O75 2.003306 1_555
Co15 O65 2.021360 1_555
Co16 O33 1.956249 1_555
Co16 O30 1.963456 1_555
Co16 O83 1.984324 1_555
Co16 O57 1.989849 1_555
Co17 O32 1.956249 1_555
Co17 O31 1.963456 1_555
Co17 O82 1.984324 1_555
Co17 O56 1.989849 1_555
O0 Te0 1.965863 1_555
O0 Pb2 2.375988 1_555
O1 Te0 1.965863 1_566
O1 Pb2 2.375988 1_566
O2 Te0 1.970123 1_556
O2 Pb8 2.386085 1_545
O3 Te0 1.970123 1_565
O3 Pb9 2.386085 1_565
O4 Te0 1.951352 1_555
O4 Pb9 2.436626 1_555
O5 Te0 1.951352 1_566
O5 Pb8 2.436626 1_555
O6 Te1 1.966050 1_555
O6 Pb3 2.332123 1_555
O7 Te1 1.966050 1_565
O7 Pb3 2.332123 1_565
O8 Te1 1.957518 1_555
O8 Pb6 2.372219 1_545
O9 Te1 1.957518 1_565
O9 Pb7 2.372219 1_565
O10 Te1 1.945977 1_555
O10 Pb7 2.408526 1_555
O11 Te1 1.945977 1_565
O11 Pb6 2.408526 1_555
O12 Te2 1.961884 1_655
O12 Pb4 2.348691 1_555
O13 Te2 1.961884 1_666
O13 Pb4 2.348691 1_566
O14 Te2 1.954791 1_555
O14 Pb17 2.381234 1_545
O15 Te2 1.954791 1_566
O15 Pb16 2.381234 1_565
O16 Te2 1.956494 1_556
O16 Pb16 2.360272 1_555
O17 Te2 1.956494 1_565
O17 Pb17 2.360272 1_555
O18 Te3 1.961965 1_555
O18 Pb5 2.392278 1_555
O19 Te3 1.961965 1_565
O19 Pb5 2.392278 1_565
O20 Te3 1.956525 1_555
O20 Pb14 2.499453 1_555
O21 Te3 1.956525 1_565
O21 Pb15 2.499453 1_555
O22 Te3 1.972224 1_555
O22 Pb15 2.363794 1_545
O23 Te3 1.972224 1_565
O23 Pb14 2.363794 1_565
O24 Te4 1.951325 1_555
O24 Pb0 2.530733 1_555
O25 Te4 1.951325 1_566
O25 Pb0 2.530733 1_566
O26 Te4 1.965990 1_556
O26 Pb12 2.354587 1_555
O27 Te4 1.965990 1_565
O27 Pb13 2.354587 1_555
O28 Te4 1.970082 1_555
O28 Pb13 2.368684 1_545
O29 Te4 1.970082 1_566
O29 Pb12 2.368684 1_565
O30 Te5 1.959886 1_555
O30 Pb1 2.338732 1_555
O31 Te5 1.959886 1_565
O31 Pb1 2.338732 1_565
O32 Te5 1.956121 1_555
O32 Pb10 2.373875 1_555
O33 Te5 1.956121 1_565
O33 Pb11 2.373875 1_555
O34 Te5 1.953928 1_555
O34 Pb11 2.374233 1_545
O35 Te5 1.953928 1_565
O35 Pb10 2.374233 1_565
O36 V0 1.709685 1_555
O37 V1 1.709685 1_555
O38 V0 1.759673 1_555
O38 Pb4 2.720790 1_565
O39 V1 1.759673 1_555
O39 Pb4 2.720790 1_556
O40 V0 1.759788 1_555
O40 Pb13 2.739398 1_555
O41 V1 1.759788 1_555
O41 Pb12 2.739398 1_555
O42 V0 1.757293 1_555
O42 Pb6 2.703108 1_555
O43 V1 1.757293 1_555
O43 Pb7 2.703108 1_555
O44 V2 1.707246 1_555
O45 V3 1.707246 1_555
O46 V2 1.752244 1_555
O46 Pb10 2.662926 1_555
O47 V3 1.752244 1_555
O47 Pb11 2.662926 1_555
O48 V2 1.759790 1_555
O48 Pb9 2.663180 1_555
O49 V3 1.759790 1_555
O49 Pb8 2.663180 1_555
O50 V2 1.767245 1_555
O50 Pb5 2.544033 1_555
O51 V3 1.767245 1_555
O51 Pb5 2.544033 1_565
O52 V4 1.704612 1_555
O53 V5 1.704612 1_555
O54 V4 1.756110 1_555
O54 Pb17 2.803226 1_555
O55 V5 1.756110 1_555
O55 Pb16 2.803226 1_555
O56 V4 1.764991 1_555
O56 Pb10 2.664558 1_565
O57 V5 1.764991 1_555
O57 Pb11 2.664558 1_545
O58 V4 1.765278 1_555
O58 Pb2 2.679553 1_565
O59 V5 1.765278 1_555
O59 Pb2 2.679553 1_556
O60 V6 1.718545 1_555
O60 Pb14 2.774159 1_565
O60 Pb13 2.828667 1_555
O61 V7 1.718545 1_555
O61 Pb15 2.774159 1_545
O61 Pb12 2.828667 1_555
O62 V6 1.751905 1_555
O62 Pb14 2.574366 1_555
O63 V7 1.751905 1_555
O63 Pb15 2.574366 1_555
O64 V6 1.760951 1_555
O64 Pb13 2.559850 1_545
O65 V7 1.760951 1_555
O65 Pb12 2.559850 1_565
O66 V6 1.753632 1_555
O66 Pb3 2.689684 1_555
O67 V7 1.753632 1_555
O67 Pb3 2.689684 1_565
O68 V8 1.723151 1_555
O68 Pb0 2.730076 1_555
O68 Pb9 2.803957 1_555
O69 V9 1.723151 1_555
O69 Pb0 2.730076 1_566
O69 Pb8 2.803957 1_555
O70 V8 1.759086 1_555
O70 Pb0 2.529487 1_565
O71 V9 1.759086 1_555
O71 Pb0 2.529487 1_556
O72 V8 1.748177 1_555
O72 Pb9 2.787958 1_565
O73 V9 1.748177 1_555
O73 Pb8 2.787958 1_545
O74 V8 1.754724 1_555
O74 Pb14 2.792715 1_565
O75 V9 1.754724 1_555
O75 Pb15 2.792715 1_545
O76 V10 1.715893 1_555
O76 Pb17 2.792885 1_555
O77 V11 1.715893 1_555
O77 Pb16 2.792885 1_555
O78 V10 1.748749 1_655
O79 V11 1.748749 1_655
O80 V10 1.760790 1_655
O80 Pb17 2.705434 1_645
O81 V11 1.760790 1_655
O81 Pb16 2.705434 1_665
O82 V10 1.752007 1_555
O83 V11 1.752007 1_555
