# generated using pymatgen
data_Ba2CrO4
_symmetry_space_group_name_H-M   'P 1'
_cell_length_a   5.91945496
_cell_length_b   7.68182738
_cell_length_c   10.54556105
_cell_angle_alpha   89.99976610
_cell_angle_beta   89.99995128
_cell_angle_gamma   89.99996174
_symmetry_Int_Tables_number   1
_chemical_formula_structural   Ba2CrO4
_chemical_formula_sum   'Ba8 Cr4 O16'
_cell_volume   479.53019005
_cell_formula_units_Z   4
loop_
 _symmetry_equiv_pos_site_id
 _symmetry_equiv_pos_as_xyz
  1  'x, y, z'
loop_
 _atom_site_type_symbol
 _atom_site_label
 _atom_site_symmetry_multiplicity
 _atom_site_fract_x
 _atom_site_fract_y
 _atom_site_fract_z
 _atom_site_occupancy
  Ba  Ba0  1  0.25000435  0.99392264  0.69452472  1
  Ba  Ba1  1  0.75000277  0.50607936  0.19452633  1
  Ba  Ba2  1  0.25000220  0.49392114  0.80547366  1
  Ba  Ba3  1  0.75000288  0.00607750  0.30547525  1
  Ba  Ba4  1  0.25000061  0.64975810  0.42453102  1
  Ba  Ba5  1  0.75000084  0.35024148  0.57546895  1
  Ba  Ba6  1  0.24999998  0.14975675  0.07547125  1
  Ba  Ba7  1  0.75000016  0.85024400  0.92452920  1
  Cr  Cr0  1  0.25000114  0.71968004  0.07861681  1
  Cr  Cr1  1  0.75000182  0.28032052  0.92138379  1
  Cr  Cr2  1  0.25000212  0.21968093  0.42138008  1
  Cr  Cr3  1  0.75000179  0.78031868  0.57862019  1
  O  O0  1  0.99473688  0.19123905  0.85118121  1
  O  O1  1  0.49473901  0.80876192  0.14881932  1
  O  O2  1  0.50525482  0.69122421  0.64881822  1
  O  O3  1  0.00525286  0.30877387  0.35118080  1
  O  O4  1  0.00526302  0.80876597  0.14881847  1
  O  O5  1  0.50526475  0.19123531  0.85118210  1
  O  O6  1  0.49475083  0.30876871  0.35118072  1
  O  O7  1  0.99474989  0.69123275  0.64881861  1
  O  O8  1  0.25000335  0.81263184  0.92225232  1
  O  O9  1  0.75000240  0.18736929  0.07774623  1
  O  O10  1  0.25000183  0.31263168  0.57775551  1
  O  O11  1  0.75000302  0.68736907  0.42224494  1
  O  O12  1  0.74999049  0.00859002  0.58102416  1
  O  O13  1  0.24999321  0.99140807  0.41897695  1
  O  O14  1  0.24999487  0.49141773  0.08101547  1
  O  O15  1  0.74999510  0.50858037  0.91898472  1
loop_
_geom_bond_atom_site_label_1
_geom_bond_atom_site_label_2
_geom_bond_distance
_geom_bond_site_symmetry_2
Ba0 O5 2.703665 1_565
Ba0 O0 2.703696 1_465
Ba0 O10 2.740498 1_565
Ba0 O8 2.776096 1_555
Ba0 O7 2.814599 1_455
Ba0 O2 2.814639 1_555
Ba0 O13 2.905870 1_555
Ba0 O12 3.194499 1_565
Ba0 O12 3.194653 1_465
Ba1 O3 2.703573 1_655
Ba1 O6 2.703600 1_555
Ba1 O9 2.740566 1_555
Ba1 O11 2.776019 1_555
Ba1 O1 2.814579 1_555
Ba1 O4 2.814596 1_655
Ba1 O15 2.905804 1_554
Ba1 O14 3.194571 1_655
Ba1 O14 3.194660 1_555
Ba2 O2 2.703576 1_555
Ba2 O7 2.703610 1_455
Ba2 O8 2.740563 1_555
Ba2 O10 2.776014 1_555
Ba2 O0 2.814583 1_455
Ba2 O5 2.814598 1_555
Ba2 O14 2.905807 1_556
Ba2 O15 3.194578 1_555
Ba2 O15 3.194653 1_455
Ba3 O4 2.703653 1_645
Ba3 O1 2.703680 1_545
Ba3 O11 2.740496 1_545
Ba3 O9 2.776113 1_555
Ba3 O6 2.814596 1_555
Ba3 O3 2.814625 1_655
Ba3 O12 2.905882 1_555
Ba3 O13 3.194529 1_645
Ba3 O13 3.194633 1_545
Ba4 O13 2.625149 1_555
Ba4 O7 2.824680 1_455
Ba4 O2 2.824682 1_555
Ba4 O11 2.973879 1_455
Ba4 O11 2.973908 1_555
Ba4 O10 3.052489 1_555
Ba4 O3 3.091676 1_555
Ba4 O6 3.091715 1_555
Ba5 O12 2.625161 1_555
Ba5 O3 2.824682 1_655
Ba5 O6 2.824684 1_555
Ba5 O10 2.973887 1_555
Ba5 O10 2.973898 1_655
Ba5 O11 3.052494 1_555
Ba5 O2 3.091657 1_555
Ba5 O7 3.091724 1_555
Ba6 O14 2.625232 1_555
Ba6 O5 2.824739 1_554
Ba6 O0 2.824747 1_454
Ba6 O9 2.973879 1_455
Ba6 O9 2.973908 1_555
Ba6 O8 3.052459 1_544
Ba6 O4 3.091675 1_545
Ba6 O1 3.091708 1_545
Ba7 O15 2.625252 1_555
Ba7 O4 2.824736 1_656
Ba7 O1 2.824739 1_556
Ba7 O8 2.973875 1_555
Ba7 O8 2.973912 1_655
Ba7 O9 3.052451 1_566
Ba7 O5 3.091673 1_565
Ba7 O0 3.091704 1_565
Cr0 O14 1.753654 1_555
Cr0 O1 1.764977 1_555
Cr0 O4 1.764985 1_555
Cr0 O8 1.796909 1_554
Cr1 O15 1.753635 1_555
Cr1 O0 1.764961 1_555
Cr1 O5 1.764980 1_555
Cr1 O9 1.796888 1_556
Cr2 O13 1.753736 1_545
Cr2 O6 1.765030 1_555
Cr2 O3 1.765048 1_555
Cr2 O10 1.797017 1_555
Cr3 O12 1.753724 1_565
Cr3 O7 1.765018 1_555
Cr3 O2 1.765036 1_555
Cr3 O11 1.797012 1_555
