# generated using pymatgen
data_SrGaSi
_symmetry_space_group_name_H-M   'P 1'
_cell_length_a   4.17957723
_cell_length_b   4.17957723
_cell_length_c   4.73581666
_cell_angle_alpha   90.00000000
_cell_angle_beta   90.00000000
_cell_angle_gamma   120.00000654
_symmetry_Int_Tables_number   1
_chemical_formula_structural   SrGaSi
_chemical_formula_sum   'Sr1 Ga1 Si1'
_cell_volume   71.64571047
_cell_formula_units_Z   1
loop_
 _symmetry_equiv_pos_site_id
 _symmetry_equiv_pos_as_xyz
  1  'x, y, z'
loop_
 _atom_site_type_symbol
 _atom_site_label
 _atom_site_symmetry_multiplicity
 _atom_site_fract_x
 _atom_site_fract_y
 _atom_site_fract_z
 _atom_site_occupancy
  Sr  Sr0  1  0.33333300  0.66666700  0.00000000  1
  Ga  Ga0  1  0.66666700  0.33333300  0.50000000  1
  Si  Si0  1  0.00000000  0.00000000  0.50000000  1
loop_
_geom_bond_atom_site_label_1
_geom_bond_atom_site_label_2
_geom_bond_distance
_geom_bond_site_symmetry_2
Ga0 Si0 2.413078 1_655
Ga0 Si0 2.413081 1_555
Ga0 Si0 2.413081 1_665
Ga0 Sr0 3.380818 1_546
Ga0 Sr0 3.380818 1_545
Ga0 Sr0 3.380818 1_656
Ga0 Sr0 3.380818 1_655
Ga0 Sr0 3.380824 1_556
Ga0 Sr0 3.380824 1_555
Si0 Sr0 3.380819 1_546
Si0 Sr0 3.380819 1_545
Si0 Sr0 3.380821 1_445
Si0 Sr0 3.380821 1_446
Si0 Sr0 3.380821 1_555
Si0 Sr0 3.380821 1_556
