# generated using pymatgen
data_PdPb3
_symmetry_space_group_name_H-M   'P 1'
_cell_length_a   5.69633793
_cell_length_b   5.69633793
_cell_length_c   5.69633793
_cell_angle_alpha   130.05338598
_cell_angle_beta   130.05338598
_cell_angle_gamma   73.32143293
_symmetry_Int_Tables_number   1
_chemical_formula_structural   PdPb3
_chemical_formula_sum   'Pd1 Pb3'
_cell_volume   105.71827581
_cell_formula_units_Z   1
loop_
 _symmetry_equiv_pos_site_id
 _symmetry_equiv_pos_as_xyz
  1  'x, y, z'
loop_
 _atom_site_type_symbol
 _atom_site_label
 _atom_site_symmetry_multiplicity
 _atom_site_fract_x
 _atom_site_fract_y
 _atom_site_fract_z
 _atom_site_occupancy
  Pd  Pd0  1  0.00000000  0.00000000  0.00000000  1
  Pb  Pb0  1  0.50000000  0.50000000  0.00000000  1
  Pb  Pb1  1  0.75000000  0.25000000  0.50000000  1
  Pb  Pb2  1  0.25000000  0.75000000  0.50000000  1
loop_
_geom_bond_atom_site_label_1
_geom_bond_atom_site_label_2
_geom_bond_distance
_geom_bond_site_symmetry_2
Pb0 Pb1 3.317229 1_554
Pb0 Pb2 3.317229 1_554
Pb0 Pb1 3.317229 1_555
Pb0 Pb2 3.317229 1_655
Pb0 Pb2 3.317229 1_544
Pb0 Pb1 3.317229 1_454
Pb0 Pb1 3.317229 1_565
Pb0 Pb2 3.317229 1_555
Pb0 Pd0 3.401143 1_666
Pb0 Pd0 3.401143 1_554
Pb0 Pd0 3.401143 1_565
Pb0 Pd0 3.401143 1_655
Pb1 Pd0 3.317229 1_666
Pb1 Pd0 3.317229 1_655
Pb1 Pd0 3.317229 1_555
Pb1 Pd0 3.317229 1_656
Pb1 Pb2 3.401143 1_656
Pb1 Pb2 3.401143 1_645
Pb1 Pb2 3.401143 1_555
Pb1 Pb2 3.401143 1_544
Pb2 Pd0 3.317229 1_555
Pb2 Pd0 3.317229 1_666
Pb2 Pd0 3.317229 1_565
Pb2 Pd0 3.317229 1_566
