# generated using pymatgen
data_ZnSi2SnO6
_symmetry_space_group_name_H-M   'P 1'
_cell_length_a   7.34866444
_cell_length_b   7.34866444
_cell_length_c   5.53036124
_cell_angle_alpha   75.01840710
_cell_angle_beta   75.01840710
_cell_angle_gamma   85.52489231
_symmetry_Int_Tables_number   1
_chemical_formula_structural   ZnSi2SnO6
_chemical_formula_sum   'Zn2 Si4 Sn2 O12'
_cell_volume   278.67713316
_cell_formula_units_Z   2
loop_
 _symmetry_equiv_pos_site_id
 _symmetry_equiv_pos_as_xyz
  1  'x, y, z'
loop_
 _atom_site_type_symbol
 _atom_site_label
 _atom_site_symmetry_multiplicity
 _atom_site_fract_x
 _atom_site_fract_y
 _atom_site_fract_z
 _atom_site_occupancy
  Zn  Zn0  1  0.74609600  0.25390400  0.25000000  1
  Zn  Zn1  1  0.25390400  0.74609600  0.75000000  1
  Si  Si0  1  0.79698600  0.61796200  0.78700500  1
  Si  Si1  1  0.38203800  0.20301400  0.71299500  1
  Si  Si2  1  0.61796200  0.79698600  0.28700500  1
  Si  Si3  1  0.20301400  0.38203800  0.21299500  1
  Sn  Sn0  1  0.86803900  0.13196100  0.75000000  1
  Sn  Sn1  1  0.13196100  0.86803900  0.25000000  1
  O  O0  1  0.68988800  0.68275500  0.54746000  1
  O  O1  1  0.31724500  0.31011200  0.95254000  1
  O  O2  1  0.31011200  0.31724500  0.45254000  1
  O  O3  1  0.68275500  0.68988800  0.04746000  1
  O  O4  1  0.79147600  0.38699700  0.88785600  1
  O  O5  1  0.61300300  0.20852400  0.61214400  1
  O  O6  1  0.20852400  0.61300300  0.11214400  1
  O  O7  1  0.38699700  0.79147600  0.38785600  1
  O  O8  1  0.69525000  0.01110300  0.17587400  1
  O  O9  1  0.98889700  0.30475000  0.32412600  1
  O  O10  1  0.01110300  0.69525000  0.67587400  1
  O  O11  1  0.30475000  0.98889700  0.82412600  1
loop_
_geom_bond_atom_site_label_1
_geom_bond_atom_site_label_2
_geom_bond_distance
_geom_bond_site_symmetry_2
O0 Si0 1.659999 1_555
O0 Si2 1.660742 1_555
O1 Si1 1.659999 1_555
O1 Si3 1.660742 1_556
O2 Si3 1.659999 1_555
O2 Si1 1.660742 1_555
O3 Si2 1.659999 1_555
O3 Si0 1.660742 1_554
O4 Si0 1.644112 1_555
O4 Zn0 1.942110 1_556
O4 Sn0 2.182372 1_555
O5 Si1 1.644112 1_555
O5 Zn0 1.942110 1_555
O5 Sn0 2.182372 1_555
O6 Si3 1.644112 1_555
O6 Zn1 1.942110 1_554
O6 Sn1 2.182372 1_555
O7 Si2 1.644112 1_555
O7 Zn1 1.942110 1_555
O7 Sn1 2.182372 1_555
O8 Si2 1.623310 1_545
O8 Zn0 2.013124 1_555
O8 Sn0 2.344473 1_554
O9 Si3 1.623310 1_655
O9 Zn0 2.013124 1_555
O9 Sn0 2.344473 1_555
O10 Si0 1.623310 1_455
O10 Zn1 2.013124 1_555
O10 Sn1 2.344473 1_555
O11 Si1 1.623310 1_565
O11 Zn1 2.013124 1_555
O11 Sn1 2.344473 1_556
