# generated using pymatgen
data_Ce6Ni20P13
_symmetry_space_group_name_H-M   'P 1'
_cell_length_a   12.75372265
_cell_length_b   12.75372265
_cell_length_c   3.81417100
_cell_angle_alpha   90.00000000
_cell_angle_beta   90.00000000
_cell_angle_gamma   120.00000339
_symmetry_Int_Tables_number   1
_chemical_formula_structural   Ce6Ni20P13
_chemical_formula_sum   'Ce6 Ni20 P13'
_cell_volume   537.28499694
_cell_formula_units_Z   1
loop_
 _symmetry_equiv_pos_site_id
 _symmetry_equiv_pos_as_xyz
  1  'x, y, z'
loop_
 _atom_site_type_symbol
 _atom_site_label
 _atom_site_symmetry_multiplicity
 _atom_site_fract_x
 _atom_site_fract_y
 _atom_site_fract_z
 _atom_site_occupancy
  Ce  Ce0  1  0.53067700  0.81278100  0.00000000  1
  Ce  Ce1  1  0.28210400  0.46932300  0.00000000  1
  Ce  Ce2  1  0.18721900  0.71789600  0.00000000  1
  Ce  Ce3  1  0.81328400  0.28087500  0.50000000  1
  Ce  Ce4  1  0.46759100  0.18671600  0.50000000  1
  Ce  Ce5  1  0.71912500  0.53240900  0.50000000  1
  Ni  Ni0  1  0.80597800  0.91153700  0.00000000  1
  Ni  Ni1  1  0.10555900  0.19402200  0.00000000  1
  Ni  Ni2  1  0.08846300  0.89444100  0.00000000  1
  Ni  Ni3  1  0.33333300  0.66666700  0.50000000  1
  Ni  Ni4  1  0.92848600  0.08216700  0.50000000  1
  Ni  Ni5  1  0.15368100  0.07151400  0.50000000  1
  Ni  Ni6  1  0.91783300  0.84631900  0.50000000  1
  Ni  Ni7  1  0.66666700  0.33333300  0.00000000  1
  Ni  Ni8  1  0.56360000  0.58601900  0.00000000  1
  Ni  Ni9  1  0.02241800  0.43640000  0.00000000  1
  Ni  Ni10  1  0.41398100  0.97758200  0.00000000  1
  Ni  Ni11  1  0.68418100  0.75456500  0.50000000  1
  Ni  Ni12  1  0.07038400  0.31581900  0.50000000  1
  Ni  Ni13  1  0.24543500  0.92961600  0.50000000  1
  Ni  Ni14  1  0.97735800  0.56621700  0.50000000  1
  Ni  Ni15  1  0.58885900  0.02264200  0.50000000  1
  Ni  Ni16  1  0.43378300  0.41114100  0.50000000  1
  Ni  Ni17  1  0.75788700  0.07721800  0.00000000  1
  Ni  Ni18  1  0.31933100  0.24211300  0.00000000  1
  Ni  Ni19  1  0.92278200  0.68066900  0.00000000  1
  P  P0  1  0.47980100  0.61247200  0.50000000  1
  P  P1  1  0.13267100  0.52019900  0.50000000  1
  P  P2  1  0.38752800  0.86732900  0.50000000  1
  P  P3  1  0.72492400  0.95573500  0.50000000  1
  P  P4  1  0.23081100  0.27507600  0.50000000  1
  P  P5  1  0.04426500  0.76918900  0.50000000  1
  P  P6  1  0.86703800  0.47976300  0.00000000  1
  P  P7  1  0.61272500  0.13296200  0.00000000  1
  P  P8  1  0.52023700  0.38727500  0.00000000  1
  P  P9  1  0.95440600  0.23219400  0.00000000  1
  P  P10  1  0.27778900  0.04559400  0.00000000  1
  P  P11  1  0.76780600  0.72221100  0.00000000  1
  P  P12  1  0.00000000  0.00000000  0.00000000  1
loop_
_geom_bond_atom_site_label_1
_geom_bond_atom_site_label_2
_geom_bond_distance
_geom_bond_site_symmetry_2
Ce0 P3 2.929446 1_554
Ce0 P3 2.929446 1_555
Ce0 P2 2.953673 1_555
Ce0 P2 2.953673 1_554
Ce0 Ni3 2.958725 1_554
Ce0 Ni3 2.958725 1_555
Ce0 P0 2.987772 1_555
Ce0 P0 2.987772 1_554
Ce0 Ni15 3.060266 1_565
Ce0 Ni15 3.060266 1_564
Ce0 Ni11 3.078081 1_555
Ce0 Ni11 3.078081 1_554
Ce0 Ni0 3.080909 1_555
Ce0 Ni8 3.123246 1_555
Ce0 Ni10 3.124244 1_555
Ce0 Ni17 3.162012 1_565
Ce1 P4 2.929446 1_554
Ce1 P4 2.929446 1_555
Ce1 P0 2.953673 1_555
Ce1 P0 2.953673 1_554
Ce1 Ni3 2.958728 1_555
Ce1 Ni3 2.958728 1_554
Ce1 P1 2.987772 1_554
Ce1 P1 2.987772 1_555
Ce1 Ni16 3.060266 1_554
Ce1 Ni16 3.060266 1_555
Ce1 Ni12 3.078081 1_554
Ce1 Ni12 3.078081 1_555
Ce1 Ni1 3.080909 1_555
Ce1 Ni9 3.123259 1_555
Ce1 Ni8 3.124232 1_555
Ce1 Ni18 3.162012 1_555
Ce2 P5 2.929447 1_555
Ce2 P5 2.929447 1_554
Ce2 P1 2.953673 1_554
Ce2 P1 2.953673 1_555
Ce2 Ni3 2.958718 1_555
Ce2 Ni3 2.958718 1_554
Ce2 P2 2.987772 1_555
Ce2 P2 2.987772 1_554
Ce2 Ni14 3.060266 1_455
Ce2 Ni14 3.060266 1_454
Ce2 Ni13 3.078081 1_554
Ce2 Ni13 3.078081 1_555
Ce2 Ni2 3.080909 1_555
Ce2 Ni10 3.123254 1_555
Ce2 Ni9 3.124234 1_555
Ce2 Ni19 3.162012 1_455
Ce3 P9 2.894700 1_555
Ce3 P9 2.894700 1_556
Ce3 P6 2.966841 1_555
Ce3 P6 2.966841 1_556
Ce3 Ni7 2.971900 1_555
Ce3 Ni7 2.971900 1_556
Ce3 P7 2.985477 1_556
Ce3 P7 2.985477 1_555
Ce3 Ni17 3.007898 1_555
Ce3 Ni17 3.007898 1_556
Ce3 Ni9 3.065121 1_656
Ce3 Ni9 3.065121 1_655
Ce3 Ni12 3.080424 1_655
Ce3 Ni15 3.100412 1_555
Ce3 Ni14 3.163415 1_555
Ce4 P10 2.894693 1_555
Ce4 P10 2.894693 1_556
Ce4 P7 2.966841 1_556
Ce4 P7 2.966841 1_555
Ce4 Ni7 2.971907 1_555
Ce4 Ni7 2.971907 1_556
Ce4 P8 2.985477 1_555
Ce4 P8 2.985477 1_556
Ce4 Ni18 3.007898 1_555
Ce4 Ni18 3.007898 1_556
Ce4 Ni10 3.065118 1_545
Ce4 Ni10 3.065118 1_546
Ce4 Ni13 3.080424 1_545
Ce4 Ni16 3.100412 1_555
Ce4 Ni15 3.163415 1_555
Ce5 P11 2.894691 1_556
Ce5 P11 2.894691 1_555
Ce5 P8 2.966841 1_555
Ce5 P8 2.966841 1_556
Ce5 Ni7 2.971910 1_556
Ce5 Ni7 2.971910 1_555
Ce5 P6 2.985478 1_555
Ce5 P6 2.985478 1_556
Ce5 Ni19 3.007898 1_555
Ce5 Ni19 3.007898 1_556
Ce5 Ni8 3.065128 1_556
Ce5 Ni8 3.065128 1_555
Ce5 Ni11 3.080424 1_555
Ce5 Ni14 3.100412 1_555
Ce5 Ni16 3.163415 1_555
Ni0 P12 2.145753 1_665
Ni0 P11 2.211750 1_555
Ni0 P3 2.367709 1_554
Ni0 P3 2.367709 1_555
Ni1 P12 2.145753 1_555
Ni1 P9 2.211738 1_455
Ni1 P4 2.367709 1_555
Ni1 P4 2.367709 1_554
Ni2 P12 2.145754 1_565
Ni2 P10 2.211746 1_565
Ni2 P5 2.367709 1_555
Ni2 P5 2.367709 1_554
Ni3 P2 2.293099 1_555
Ni3 P1 2.293102 1_555
Ni3 P0 2.293111 1_555
Ni4 P3 2.270227 1_545
Ni4 P12 2.553978 1_656
Ni4 P12 2.553978 1_655
Ni4 P9 2.602852 1_555
Ni4 P9 2.602852 1_556
Ni5 P4 2.270227 1_555
Ni5 P12 2.553978 1_556
Ni5 P12 2.553978 1_555
Ni5 P10 2.602861 1_556
Ni5 P10 2.602861 1_555
Ni6 P5 2.270227 1_655
Ni6 P12 2.553978 1_665
Ni6 P12 2.553978 1_666
Ni6 P11 2.602855 1_556
Ni6 P11 2.602855 1_555
Ni7 P7 2.290345 1_555
Ni7 P6 2.290348 1_555
Ni7 P8 2.290357 1_555
Ni8 P0 2.292071 1_554
Ni8 P0 2.292071 1_555
Ni8 P11 2.296985 1_555
Ni8 P8 2.308438 1_555
Ni9 P1 2.292076 1_554
Ni9 P1 2.292076 1_555
Ni9 P9 2.296990 1_455
Ni9 P6 2.308425 1_455
Ni10 P2 2.292078 1_555
Ni10 P2 2.292078 1_554
Ni10 P10 2.296966 1_565
Ni10 P7 2.308434 1_565
Ni11 P0 2.314041 1_555
Ni11 P11 2.320520 1_556
Ni11 P11 2.320520 1_555
Ni11 P3 2.349355 1_555
Ni12 P1 2.314041 1_555
Ni12 P9 2.320515 1_456
Ni12 P9 2.320515 1_455
Ni12 P4 2.349355 1_555
Ni13 P2 2.314041 1_555
Ni13 P10 2.320513 1_565
Ni13 P10 2.320513 1_566
Ni13 P5 2.349355 1_555
Ni14 P5 2.284801 1_655
Ni14 P6 2.298039 1_556
Ni14 P6 2.298039 1_555
Ni14 P1 2.330373 1_655
Ni15 P3 2.284801 1_545
Ni15 P7 2.298039 1_555
Ni15 P7 2.298039 1_556
Ni15 P2 2.330373 1_545
Ni16 P4 2.284801 1_555
Ni16 P8 2.298039 1_556
Ni16 P8 2.298039 1_555
Ni16 P0 2.330373 1_555
Ni17 P9 2.287918 1_555
Ni17 P7 2.291106 1_555
Ni17 P3 2.358575 1_544
Ni17 P3 2.358575 1_545
Ni18 P10 2.287922 1_555
Ni18 P8 2.291106 1_555
Ni18 P4 2.358575 1_554
Ni18 P4 2.358575 1_555
Ni19 P11 2.287909 1_555
Ni19 P6 2.291106 1_555
Ni19 P5 2.358575 1_654
Ni19 P5 2.358575 1_655
