# generated using pymatgen
data_La5(MoO4)4
_symmetry_space_group_name_H-M   'P 1'
_cell_length_a   5.72035100
_cell_length_b   5.72394764
_cell_length_c   10.56720549
_cell_angle_alpha   93.48537107
_cell_angle_beta   94.06181236
_cell_angle_gamma   90.15754501
_symmetry_Int_Tables_number   1
_chemical_formula_structural   La5(MoO4)4
_chemical_formula_sum   'La5 Mo4 O16'
_cell_volume   344.48579219
_cell_formula_units_Z   1
loop_
 _symmetry_equiv_pos_site_id
 _symmetry_equiv_pos_as_xyz
  1  'x, y, z'
loop_
 _atom_site_type_symbol
 _atom_site_label
 _atom_site_symmetry_multiplicity
 _atom_site_fract_x
 _atom_site_fract_y
 _atom_site_fract_z
 _atom_site_occupancy
  La  La0  1  0.48229300  0.97103200  0.79577800  1
  La  La1  1  0.96721200  0.48600400  0.78361000  1
  La  La2  1  0.51770700  0.02896800  0.20422200  1
  La  La3  1  0.03278800  0.51399600  0.21639000  1
  La  La4  1  0.00000000  0.00000000  0.50000000  1
  Mo  Mo0  1  0.44232800  0.44139200  0.60526100  1
  Mo  Mo1  1  0.55767200  0.55860800  0.39473900  1
  Mo  Mo2  1  0.00000000  0.00000000  0.00000000  1
  Mo  Mo3  1  0.50000000  0.50000000  0.00000000  1
  O  O0  1  0.55164700  0.55009900  0.80446300  1
  O  O1  1  0.44835300  0.44990100  0.19553700  1
  O  O2  1  0.69156300  0.68939600  0.56466900  1
  O  O3  1  0.30843700  0.31060400  0.43533100  1
  O  O4  1  0.91983200  0.91144400  0.82469300  1
  O  O5  1  0.08016800  0.08855600  0.17530700  1
  O  O6  1  0.70036500  0.22213000  0.63979400  1
  O  O7  1  0.22191000  0.69780200  0.63888300  1
  O  O8  1  0.29963500  0.77787000  0.36020600  1
  O  O9  1  0.77809000  0.30219800  0.36111700  1
  O  O10  1  0.21833800  0.21223900  0.67389000  1
  O  O11  1  0.78166200  0.78776100  0.32611000  1
  O  O12  1  0.69421600  0.18242100  0.00292100  1
  O  O13  1  0.30578400  0.81757900  0.99707900  1
  O  O14  1  0.81446100  0.71098300  0.04973400  1
  O  O15  1  0.18553900  0.28901700  0.95026600  1
loop_
_geom_bond_atom_site_label_1
_geom_bond_atom_site_label_2
_geom_bond_distance
_geom_bond_site_symmetry_2
La0 O10 2.407740 1_565
La0 O0 2.449082 1_555
La0 O4 2.526483 1_555
La0 O7 2.595258 1_555
La0 O13 2.615816 1_555
La0 O6 2.628365 1_565
La0 O12 2.649344 1_566
La1 O15 2.422840 1_655
La1 O10 2.427111 1_655
La1 O0 2.429672 1_555
La1 O4 2.466549 1_555
La1 O6 2.510093 1_555
La1 O7 2.542200 1_655
La2 O11 2.407740 1_545
La2 O1 2.449082 1_555
La2 O5 2.526483 1_555
La2 O9 2.595258 1_555
La2 O12 2.615816 1_555
La2 O8 2.628365 1_545
La2 O13 2.649344 1_544
La3 O14 2.422840 1_455
La3 O11 2.427111 1_455
La3 O1 2.429672 1_555
La3 O5 2.466549 1_555
La3 O8 2.510093 1_555
La3 O9 2.542200 1_455
La4 O11 2.409856 1_445
La4 O10 2.409856 1_555
La4 O7 2.610394 1_545
La4 O9 2.610394 1_455
La4 O6 2.622783 1_455
La4 O8 2.622783 1_545
La4 O2 2.653701 1_445
La4 O3 2.653701 1_555
Mo0 O6 1.968915 1_555
Mo0 O7 1.969856 1_555
Mo0 O3 2.002522 1_555
Mo0 O10 2.031300 1_555
Mo0 O2 2.093166 1_555
Mo0 O0 2.204861 1_555
Mo1 O8 1.968915 1_555
Mo1 O9 1.969856 1_555
Mo1 O2 2.002522 1_555
Mo1 O11 2.031300 1_555
Mo1 O3 2.093166 1_555
Mo1 O1 2.204861 1_555
Mo2 O5 1.913953 1_555
Mo2 O4 1.913953 1_444
Mo2 O12 2.040756 1_455
Mo2 O13 2.040756 1_544
Mo2 O14 2.077139 1_445
Mo2 O15 2.077139 1_554
Mo3 O13 2.133712 1_554
Mo3 O12 2.133712 1_555
Mo3 O1 2.144082 1_555
Mo3 O0 2.144082 1_554
Mo3 O15 2.178846 1_554
Mo3 O14 2.178846 1_555
