# generated using pymatgen
data_CuB5
_symmetry_space_group_name_H-M   'P 1'
_cell_length_a   5.80638300
_cell_length_b   10.88212300
_cell_length_c   13.76785100
_cell_angle_alpha   90.00035881
_cell_angle_beta   90.00037059
_cell_angle_gamma   90.00092711
_symmetry_Int_Tables_number   1
_chemical_formula_structural   CuB5
_chemical_formula_sum   'Cu16 B80'
_cell_volume   869.93232155
_cell_formula_units_Z   16
loop_
 _symmetry_equiv_pos_site_id
 _symmetry_equiv_pos_as_xyz
  1  'x, y, z'
loop_
 _atom_site_type_symbol
 _atom_site_label
 _atom_site_symmetry_multiplicity
 _atom_site_fract_x
 _atom_site_fract_y
 _atom_site_fract_z
 _atom_site_occupancy
  Cu  Cu0  1  0.74962900  0.79105100  0.24874200  1
  Cu  Cu1  1  0.24953600  0.20893500  0.25122200  1
  Cu  Cu2  1  0.25041500  0.70891700  0.74874800  1
  Cu  Cu3  1  0.75041900  0.29108600  0.75125900  1
  Cu  Cu4  1  0.25037100  0.20894900  0.75125800  1
  Cu  Cu5  1  0.75046400  0.79106500  0.74877800  1
  Cu  Cu6  1  0.74958500  0.29108300  0.25125200  1
  Cu  Cu7  1  0.24958100  0.70891400  0.24874100  1
  Cu  Cu8  1  0.72770500  0.77857900  0.00344400  1
  Cu  Cu9  1  0.22762100  0.22141600  0.49656900  1
  Cu  Cu10  1  0.27232100  0.72141700  0.50343200  1
  Cu  Cu11  1  0.77229900  0.27858200  0.99657400  1
  Cu  Cu12  1  0.27229500  0.22142100  0.99655600  1
  Cu  Cu13  1  0.77237900  0.77858400  0.50343100  1
  Cu  Cu14  1  0.72767900  0.27858300  0.49656800  1
  Cu  Cu15  1  0.22770100  0.72141800  0.00342600  1
  B  B0  1  0.74848200  0.95082400  0.07841800  1
  B  B1  1  0.24848000  0.04917000  0.42157800  1
  B  B2  1  0.25151400  0.54915400  0.57841600  1
  B  B3  1  0.75151100  0.45083800  0.92158900  1
  B  B4  1  0.25151800  0.04917600  0.92158200  1
  B  B5  1  0.75152000  0.95083000  0.57842200  1
  B  B6  1  0.74848600  0.45084600  0.42158400  1
  B  B7  1  0.24848900  0.54916200  0.07841100  1
  B  B8  1  0.75060000  0.95687800  0.94633500  1
  B  B9  1  0.25060600  0.04312000  0.55365900  1
  B  B10  1  0.24940600  0.54311500  0.44632800  1
  B  B11  1  0.74939800  0.45688200  0.05367300  1
  B  B12  1  0.24940000  0.04312200  0.05366500  1
  B  B13  1  0.74939400  0.95688000  0.44634100  1
  B  B14  1  0.75059400  0.45688500  0.55367200  1
  B  B15  1  0.25060200  0.54311800  0.94632700  1
  B  B16  1  0.51732500  0.06087300  0.10570300  1
  B  B17  1  0.01730800  0.93911600  0.39429300  1
  B  B18  1  0.48268600  0.43911700  0.60569300  1
  B  B19  1  0.98269000  0.56087400  0.89430800  1
  B  B20  1  0.48267500  0.93912800  0.89429700  1
  B  B21  1  0.98269200  0.06088400  0.60570700  1
  B  B22  1  0.51731400  0.56088300  0.39430700  1
  B  B23  1  0.01731000  0.43912600  0.10569200  1
  B  B24  1  0.59090000  0.95781700  0.19908900  1
  B  B25  1  0.09089200  0.04218400  0.30091600  1
  B  B26  1  0.40910800  0.54217200  0.69908800  1
  B  B27  1  0.90910000  0.45783000  0.80091000  1
  B  B28  1  0.40910000  0.04218300  0.80091100  1
  B  B29  1  0.90910800  0.95781600  0.69908400  1
  B  B30  1  0.59089200  0.45782800  0.30091200  1
  B  B31  1  0.09090000  0.54217000  0.19909000  1
  B  B32  1  0.90764600  0.95639000  0.19946400  1
  B  B33  1  0.40763700  0.04361200  0.30053100  1
  B  B34  1  0.09235600  0.54359300  0.69946900  1
  B  B35  1  0.59233900  0.45640500  0.80053300  1
  B  B36  1  0.09235400  0.04361000  0.80053600  1
  B  B37  1  0.59236300  0.95638800  0.69946900  1
  B  B38  1  0.90764400  0.45640700  0.30053100  1
  B  B39  1  0.40766100  0.54359500  0.19946700  1
  B  B40  1  0.75260800  0.16797500  0.12170700  1
  B  B41  1  0.25261000  0.83203000  0.37829100  1
  B  B42  1  0.24737300  0.33204100  0.62169600  1
  B  B43  1  0.74740200  0.66796200  0.87830800  1
  B  B44  1  0.24739200  0.83202500  0.87829300  1
  B  B45  1  0.74739000  0.16797000  0.62170900  1
  B  B46  1  0.75262700  0.66795900  0.37830400  1
  B  B47  1  0.25259800  0.33203800  0.12169200  1
  B  B48  1  0.58953200  0.11939900  0.22400300  1
  B  B49  1  0.08956000  0.88060400  0.27598800  1
  B  B50  1  0.41043800  0.38062500  0.72400800  1
  B  B51  1  0.91045800  0.61937300  0.77599900  1
  B  B52  1  0.41046800  0.88060100  0.77599700  1
  B  B53  1  0.91044000  0.11939600  0.72401200  1
  B  B54  1  0.58956200  0.61937500  0.27599200  1
  B  B55  1  0.08954200  0.38062700  0.22400100  1
  B  B56  1  0.90961400  0.11786200  0.22445000  1
  B  B57  1  0.40962500  0.88213000  0.27554900  1
  B  B58  1  0.09037300  0.38215000  0.72445000  1
  B  B59  1  0.59038000  0.61785100  0.77555300  1
  B  B60  1  0.09038600  0.88213800  0.77555000  1
  B  B61  1  0.59037500  0.11787000  0.72445100  1
  B  B62  1  0.90962700  0.61785000  0.27555000  1
  B  B63  1  0.40962000  0.38214900  0.22444700  1
  B  B64  1  0.98358700  0.05795100  0.10637300  1
  B  B65  1  0.48358800  0.94205200  0.39362700  1
  B  B66  1  0.01638600  0.44204100  0.60636500  1
  B  B67  1  0.51640400  0.55796100  0.89363800  1
  B  B68  1  0.01641300  0.94204900  0.89362700  1
  B  B69  1  0.51641200  0.05794800  0.60637300  1
  B  B70  1  0.98361400  0.55795900  0.39363500  1
  B  B71  1  0.48359600  0.44203900  0.10636200  1
  B  B72  1  0.75144400  0.08772400  0.02108100  1
  B  B73  1  0.25143800  0.91227200  0.47892500  1
  B  B74  1  0.24854700  0.41227100  0.52108000  1
  B  B75  1  0.74856700  0.58772300  0.97891400  1
  B  B76  1  0.24855600  0.91227600  0.97891900  1
  B  B77  1  0.74856200  0.08772800  0.52107500  1
  B  B78  1  0.75145300  0.58772900  0.47892000  1
  B  B79  1  0.25143300  0.41227700  0.02108600  1
loop_
_geom_bond_atom_site_label_1
_geom_bond_atom_site_label_2
_geom_bond_distance
_geom_bond_site_symmetry_2
B0 B72 1.686080 1_565
B0 B8 1.819734 1_554
B0 B64 1.835922 1_565
B0 B16 1.837607 1_565
B0 B24 1.898206 1_555
B0 B32 1.906593 1_555
B0 Cu8 2.143213 1_555
B1 B73 1.686126 1_545
B1 B9 1.819705 1_555
B1 B65 1.835893 1_545
B1 B17 1.837674 1_545
B1 B25 1.898100 1_555
B1 B33 1.906594 1_555
B1 Cu9 2.143367 1_555
B2 B74 1.685902 1_555
B2 B66 1.835914 1_555
B2 B26 1.898238 1_555
B2 B34 1.906670 1_555
B2 Cu10 2.143473 1_555
B3 B75 1.685849 1_555
B3 B67 1.835923 1_555
B3 B35 1.906738 1_555
B3 Cu11 2.143409 1_555
B4 B76 1.686080 1_545
B4 B68 1.835922 1_545
B4 Cu12 2.143213 1_555
B5 B77 1.686126 1_565
B5 B69 1.835893 1_565
B5 Cu13 2.143367 1_555
B6 B78 1.685902 1_555
B6 B70 1.835914 1_555
B6 Cu14 2.143473 1_555
B7 B79 1.685849 1_555
B7 B71 1.835923 1_555
B7 Cu15 2.143409 1_555
B8 Cu8 2.097750 1_556
B9 Cu9 2.097659 1_555
B10 B70 1.712933 1_455
B10 B22 1.723420 1_555
B10 B74 1.756878 1_555
B10 B2 1.819796 1_555
B10 Cu10 2.097752 1_555
B11 B71 1.712964 1_555
B11 B23 1.723412 1_655
B11 B75 1.756908 1_554
B11 B3 1.819743 1_554
B11 Cu11 2.097706 1_554
B12 B64 1.713122 1_455
B12 B16 1.723577 1_555
B12 B76 1.756837 1_544
B12 B4 1.819734 1_554
B12 Cu12 2.097750 1_554
B13 B65 1.713106 1_555
B13 B17 1.723606 1_655
B13 B77 1.756758 1_565
B13 B5 1.819705 1_555
B13 Cu13 2.097659 1_555
B14 B66 1.712933 1_655
B14 B18 1.723420 1_555
B14 B78 1.756878 1_555
B14 B6 1.819796 1_555
B14 Cu14 2.097752 1_555
B15 B67 1.712964 1_555
B15 B19 1.723412 1_455
B15 B79 1.756908 1_556
B15 B7 1.819743 1_556
B15 Cu15 2.097706 1_556
B16 B24 1.758780 1_545
B16 B48 1.798377 1_555
B16 B40 1.809205 1_555
B16 B72 1.814026 1_555
B17 B25 1.758781 1_565
B17 B49 1.798456 1_555
B17 B41 1.809203 1_555
B17 B73 1.814145 1_555
B18 B26 1.758862 1_555
B18 B50 1.798500 1_555
B18 B42 1.809156 1_555
B18 B74 1.814011 1_555
B18 B2 1.837563 1_555
B19 B27 1.758820 1_555
B19 B51 1.798431 1_555
B19 B43 1.809152 1_555
B19 B75 1.813903 1_555
B19 B3 1.837572 1_555
B20 B8 1.723575 1_555
B20 B28 1.758773 1_565
B20 B52 1.798380 1_555
B20 B44 1.809212 1_555
B20 B76 1.814027 1_555
B20 B4 1.837600 1_565
B21 B9 1.723606 1_655
B21 B29 1.758781 1_545
B21 B53 1.798456 1_555
B21 B45 1.809203 1_555
B21 B77 1.814145 1_555
B21 B5 1.837674 1_545
B22 B30 1.758862 1_555
B22 B54 1.798500 1_555
B22 B46 1.809156 1_555
B22 B78 1.814011 1_555
B22 B6 1.837563 1_555
B23 B31 1.758820 1_555
B23 B55 1.798431 1_555
B23 B47 1.809152 1_555
B23 B79 1.813903 1_555
B23 B7 1.837572 1_555
B24 B57 1.701292 1_555
B24 B48 1.791515 1_565
B24 B32 1.839222 1_555
B24 B33 1.988618 1_565
B24 Cu0 2.147137 1_555
B25 B56 1.701314 1_455
B25 B49 1.791529 1_545
B25 B33 1.839216 1_555
B25 B32 1.988631 1_445
B25 Cu1 2.146946 1_555
B26 B59 1.701267 1_555
B26 B50 1.791160 1_555
B26 B34 1.839256 1_555
B26 B35 1.988403 1_555
B26 Cu2 2.146881 1_555
B27 B58 1.701258 1_655
B27 B51 1.791094 1_555
B27 B35 1.839308 1_555
B27 B3 1.898321 1_555
B27 B34 1.988415 1_655
B27 Cu3 2.146774 1_555
B28 B61 1.701292 1_555
B28 B52 1.791515 1_545
B28 B36 1.839222 1_555
B28 B4 1.898206 1_555
B28 B37 1.988618 1_545
B28 Cu4 2.147137 1_555
B29 B60 1.701314 1_655
B29 B53 1.791529 1_565
B29 B37 1.839216 1_555
B29 B5 1.898100 1_555
B29 B36 1.988631 1_665
B29 Cu5 2.146946 1_555
B30 B63 1.701267 1_555
B30 B54 1.791160 1_555
B30 B38 1.839256 1_555
B30 B6 1.898238 1_555
B30 B39 1.988403 1_555
B30 Cu6 2.146881 1_555
B31 B62 1.701258 1_455
B31 B55 1.791094 1_555
B31 B39 1.839308 1_555
B31 B7 1.898321 1_555
B31 B38 1.988415 1_455
B31 Cu7 2.146774 1_555
B32 B49 1.704663 1_655
B32 B64 1.748875 1_565
B32 B56 1.790549 1_565
B32 Cu0 2.130575 1_555
B33 B48 1.704626 1_555
B33 B65 1.748938 1_545
B33 B57 1.790646 1_545
B33 Cu1 2.130795 1_555
B34 B51 1.704627 1_455
B34 B66 1.748973 1_555
B34 B58 1.790231 1_555
B34 Cu2 2.130535 1_555
B35 B50 1.704571 1_555
B35 B67 1.748972 1_555
B35 B59 1.790260 1_555
B35 Cu3 2.130549 1_555
B36 B53 1.704663 1_455
B36 B68 1.748875 1_545
B36 B60 1.790549 1_545
B36 B4 1.906593 1_555
B36 Cu4 2.130575 1_555
B37 B52 1.704626 1_555
B37 B69 1.748938 1_565
B37 B61 1.790646 1_565
B37 B5 1.906594 1_555
B37 Cu5 2.130795 1_555
B38 B55 1.704627 1_655
B38 B70 1.748973 1_555
B38 B62 1.790231 1_555
B38 B6 1.906670 1_555
B38 Cu6 2.130535 1_555
B39 B54 1.704571 1_555
B39 B71 1.748972 1_555
B39 B63 1.790260 1_555
B39 B7 1.906738 1_555
B39 Cu7 2.130549 1_555
B40 B72 1.637690 1_555
B40 B56 1.769021 1_555
B40 B48 1.777527 1_555
B40 B64 1.810201 1_555
B40 Cu11 2.104739 1_554
B40 Cu6 2.230714 1_555
B41 B73 1.637731 1_555
B41 B57 1.768994 1_555
B41 B49 1.777516 1_555
B41 B65 1.810155 1_555
B41 Cu10 2.104874 1_555
B41 Cu7 2.230821 1_555
B42 B74 1.637461 1_555
B42 B58 1.769115 1_555
B42 B50 1.777679 1_555
B42 B66 1.810057 1_555
B42 Cu9 2.104789 1_555
B42 Cu4 2.230809 1_555
B43 B75 1.637397 1_555
B43 B59 1.769180 1_555
B43 B51 1.777653 1_555
B43 B67 1.810084 1_555
B43 Cu8 2.104827 1_556
B43 Cu5 2.230531 1_555
B44 B76 1.637690 1_555
B44 B60 1.769021 1_555
B44 B52 1.777527 1_555
B44 B68 1.810201 1_555
B44 Cu15 2.104739 1_556
B44 Cu2 2.230714 1_555
B45 B77 1.637731 1_555
B45 B61 1.768994 1_555
B45 B53 1.777516 1_555
B45 B69 1.810155 1_555
B45 Cu14 2.104874 1_555
B45 Cu3 2.230821 1_555
B46 B78 1.637461 1_555
B46 B62 1.769115 1_555
B46 B54 1.777679 1_555
B46 B70 1.810057 1_555
B46 Cu13 2.104789 1_555
B46 Cu0 2.230809 1_555
B47 B79 1.637397 1_555
B47 B63 1.769180 1_555
B47 B55 1.777653 1_555
B47 B71 1.810084 1_555
B47 Cu12 2.104827 1_554
B47 Cu1 2.230531 1_555
B48 B56 1.858604 1_555
B48 Cu6 2.120100 1_555
B48 Cu1 2.233182 1_555
B49 B57 1.858504 1_555
B49 Cu7 2.120099 1_555
B49 Cu0 2.232959 1_455
B50 B58 1.858504 1_555
B50 Cu4 2.120067 1_555
B50 Cu3 2.233191 1_555
B51 B59 1.858579 1_555
B51 Cu5 2.119989 1_555
B51 Cu2 2.233068 1_655
B52 B60 1.858604 1_555
B52 Cu2 2.120100 1_555
B52 Cu5 2.233182 1_555
B53 B61 1.858504 1_555
B53 Cu3 2.120099 1_555
B53 Cu4 2.232959 1_655
B54 B62 1.858504 1_555
B54 Cu0 2.120067 1_555
B54 Cu7 2.233191 1_555
B55 B63 1.858579 1_555
B55 Cu1 2.119989 1_555
B55 Cu6 2.233068 1_455
B56 B64 1.803422 1_555
B56 Cu6 2.133748 1_555
B56 Cu1 2.239098 1_655
B57 B65 1.803454 1_555
B57 Cu7 2.133724 1_555
B57 Cu0 2.239658 1_555
B58 B66 1.803464 1_555
B58 Cu4 2.133494 1_555
B58 Cu3 2.239308 1_455
B59 B67 1.803445 1_555
B59 Cu5 2.133733 1_555
B59 Cu2 2.239389 1_555
B60 B68 1.803422 1_555
B60 Cu2 2.133748 1_555
B60 Cu5 2.239098 1_455
B61 B69 1.803454 1_555
B61 Cu3 2.133724 1_555
B61 Cu4 2.239658 1_555
B62 B70 1.803464 1_555
B62 Cu0 2.133494 1_555
B62 Cu7 2.239308 1_655
B63 B71 1.803445 1_555
B63 Cu1 2.133733 1_555
B63 Cu6 2.239389 1_555
B64 B72 1.816807 1_555
B65 B73 1.816907 1_555
B66 B74 1.816825 1_555
B67 B75 1.816719 1_555
B68 B8 1.713122 1_455
B68 B76 1.816807 1_555
B69 B9 1.713106 1_555
B69 B77 1.816907 1_555
B70 B78 1.816825 1_555
B71 B79 1.816719 1_555
B72 B8 1.756837 1_544
B72 Cu11 2.107650 1_554
B73 B9 1.756758 1_565
B73 Cu10 2.107631 1_555
B74 Cu9 2.107646 1_555
B75 Cu8 2.107682 1_556
B76 Cu15 2.107650 1_556
B77 Cu14 2.107631 1_555
B78 Cu13 2.107646 1_555
B79 Cu12 2.107682 1_554
