# generated using pymatgen
data_Li7Co5O12
_symmetry_space_group_name_H-M   'P 1'
_cell_length_a   5.02004200
_cell_length_b   5.82694278
_cell_length_c   7.71897158
_cell_angle_alpha   78.40021169
_cell_angle_beta   78.16919785
_cell_angle_gamma   73.18857533
_symmetry_Int_Tables_number   1
_chemical_formula_structural   Li7Co5O12
_chemical_formula_sum   'Li7 Co5 O12'
_cell_volume   209.11405358
_cell_formula_units_Z   1
loop_
 _symmetry_equiv_pos_site_id
 _symmetry_equiv_pos_as_xyz
  1  'x, y, z'
loop_
 _atom_site_type_symbol
 _atom_site_label
 _atom_site_symmetry_multiplicity
 _atom_site_fract_x
 _atom_site_fract_y
 _atom_site_fract_z
 _atom_site_occupancy
  Li  Li0  1  0.50000000  0.00000000  0.00000000  1
  Li  Li1  1  0.00000000  0.50000000  0.50000000  1
  Li  Li2  1  0.00948100  0.82843500  0.16452400  1
  Li  Li3  1  0.49793700  0.33627700  0.66979400  1
  Li  Li4  1  0.50206300  0.66372300  0.33020600  1
  Li  Li5  1  0.99051900  0.17156500  0.83547600  1
  Li  Li6  1  0.50000000  0.50000000  0.00000000  1
  Co  Co0  1  0.00533100  0.66172400  0.83831600  1
  Co  Co1  1  0.99466900  0.33827600  0.16168400  1
  Co  Co2  1  0.49894600  0.17568500  0.32605200  1
  Co  Co3  1  0.00000000  0.00000000  0.50000000  1
  Co  Co4  1  0.50105400  0.82431500  0.67394800  1
  O  O0  1  0.76605600  0.97605400  0.75464600  1
  O  O1  1  0.24049700  0.47512500  0.24877300  1
  O  O2  1  0.23369800  0.82245600  0.90204300  1
  O  O3  1  0.76383900  0.33067000  0.39839700  1
  O  O4  1  0.78710800  0.64300700  0.07485000  1
  O  O5  1  0.25315700  0.14937500  0.57946100  1
  O  O6  1  0.23394400  0.02394600  0.24535400  1
  O  O7  1  0.75950300  0.52487500  0.75122700  1
  O  O8  1  0.74684300  0.85062500  0.42053900  1
  O  O9  1  0.21289200  0.35699300  0.92515000  1
  O  O10  1  0.23616100  0.66933000  0.60160300  1
  O  O11  1  0.76630200  0.17754400  0.09795700  1
loop_
_geom_bond_atom_site_label_1
_geom_bond_atom_site_label_2
_geom_bond_distance
_geom_bond_site_symmetry_2
Li0 O0 2.085996 1_544
Li0 O6 2.085996 1_555
Li0 O9 2.205028 1_554
Li0 O4 2.205028 1_545
Li0 O2 2.226707 1_544
Li0 O11 2.226707 1_555
Li1 O7 2.071461 1_455
Li1 O1 2.071461 1_555
Li1 O3 2.088824 1_455
Li1 O10 2.088824 1_555
Li1 O5 2.116413 1_555
Li1 O8 2.116413 1_455
Li2 O4 2.051352 1_455
Li2 O6 2.067248 1_565
Li2 O11 2.071910 1_465
Li2 O1 2.096652 1_555
Li2 O2 2.108019 1_554
Li2 O8 2.143846 1_455
Li3 O10 2.041533 1_555
Li3 O5 2.147802 1_555
Li3 O7 2.185839 1_555
Li3 O9 2.187823 1_555
Li3 O0 2.195635 1_545
Li3 O3 2.242132 1_555
Li4 O3 2.041533 1_555
Li4 O8 2.147802 1_555
Li4 O1 2.185839 1_555
Li4 O4 2.187823 1_555
Li4 O6 2.195635 1_565
Li4 O10 2.242132 1_555
Li5 O9 2.051352 1_655
Li5 O0 2.067248 1_545
Li5 O2 2.071910 1_645
Li5 O7 2.096652 1_555
Li5 O11 2.108019 1_556
Li5 O5 2.143846 1_655
Li6 O11 2.068685 1_555
Li6 O2 2.068685 1_554
Li6 O4 2.082142 1_555
Li6 O9 2.082142 1_554
Li6 O1 2.092142 1_555
Li6 O7 2.092142 1_554
Co0 O9 1.850788 1_555
Co0 O2 1.863060 1_555
Co0 O4 1.927283 1_456
Co0 O7 1.932784 1_455
Co0 O0 1.945356 1_455
Co0 O10 1.952504 1_555
Co1 O4 1.850788 1_555
Co1 O11 1.863060 1_555
Co1 O9 1.927283 1_654
Co1 O1 1.932784 1_655
Co1 O6 1.945356 1_655
Co1 O3 1.952504 1_555
Co2 O1 1.916469 1_555
Co2 O11 1.983219 1_555
Co2 O3 2.024270 1_555
Co2 O8 2.030122 1_545
Co2 O6 2.044797 1_555
Co2 O5 2.090759 1_555
Co3 O5 1.980670 1_555
Co3 O8 1.980670 1_445
Co3 O10 2.045810 1_545
Co3 O3 2.045810 1_455
Co3 O0 2.073703 1_445
Co3 O6 2.073703 1_555
Co4 O7 1.916469 1_555
Co4 O2 1.983219 1_555
Co4 O10 2.024270 1_555
Co4 O5 2.030122 1_565
Co4 O0 2.044797 1_555
Co4 O8 2.090759 1_555
