# generated using pymatgen
data_BaGaH5
_symmetry_space_group_name_H-M   'P 1'
_cell_length_a   4.58696702
_cell_length_b   5.01350074
_cell_length_c   8.62558366
_cell_angle_alpha   90.15232556
_cell_angle_beta   90.00000000
_cell_angle_gamma   90.00000000
_symmetry_Int_Tables_number   1
_chemical_formula_structural   BaGaH5
_chemical_formula_sum   'Ba2 Ga2 H10'
_cell_volume   198.35979822
_cell_formula_units_Z   2
loop_
 _symmetry_equiv_pos_site_id
 _symmetry_equiv_pos_as_xyz
  1  'x, y, z'
loop_
 _atom_site_type_symbol
 _atom_site_label
 _atom_site_symmetry_multiplicity
 _atom_site_fract_x
 _atom_site_fract_y
 _atom_site_fract_z
 _atom_site_occupancy
  Ba  Ba0  1  0.25710754  0.75440281  0.66211282  1
  Ba  Ba1  1  0.75710754  0.24559719  0.33788718  1
  Ga  Ga0  1  0.67028108  0.25653259  0.85715981  1
  Ga  Ga1  1  0.17028108  0.74346741  0.14284019  1
  H  H0  1  0.32489523  0.25581601  0.84364974  1
  H  H1  1  0.82489523  0.74418399  0.15635026  1
  H  H2  1  0.77349306  0.01089296  0.75263663  1
  H  H3  1  0.27349306  0.98910704  0.24736337  1
  H  H4  1  0.77243954  0.52122250  0.77114029  1
  H  H5  1  0.27243954  0.47877750  0.22885971  1
  H  H6  1  0.79270338  0.23956553  0.02561972  1
  H  H7  1  0.29270338  0.76043447  0.97438028  1
  H  H8  1  0.26058916  0.25353060  0.51709254  1
  H  H9  1  0.76058916  0.74646940  0.48290746  1
loop_
_geom_bond_atom_site_label_1
_geom_bond_atom_site_label_2
_geom_bond_distance
_geom_bond_site_symmetry_2
Ba0 H2 2.679342 1_465
Ba0 H4 2.683160 1_455
Ba0 H7 2.698523 1_555
Ba0 H9 2.752756 1_455
Ba0 H9 2.779240 1_555
Ba0 H8 2.800626 1_565
Ba0 H4 2.800808 1_555
Ba0 H8 2.802500 1_555
Ba0 H2 2.805065 1_565
Ba0 H0 2.969469 1_555
Ba0 H0 2.974398 1_565
Ba1 H3 2.679342 1_545
Ba1 H5 2.683160 1_555
Ba1 H6 2.698523 1_555
Ba1 H8 2.752756 1_555
Ba1 H8 2.779240 1_655
Ba1 H9 2.800626 1_545
Ba1 H5 2.800808 1_655
Ba1 H9 2.802500 1_555
Ba1 H3 2.805065 1_645
Ba1 H1 2.969469 1_555
Ba1 H1 2.974398 1_545
Ga0 H6 1.560329 1_556
Ga0 H0 1.588557 1_555
Ga0 H4 1.592585 1_555
Ga0 H2 1.596150 1_555
Ga1 H7 1.560329 1_554
Ga1 H1 1.588557 1_455
Ga1 H5 1.592585 1_555
Ga1 H3 1.596150 1_555
