# generated using pymatgen
data_Gd2ReO5
_symmetry_space_group_name_H-M   'P 1'
_cell_length_a   8.57943683
_cell_length_b   8.57943683
_cell_length_c   5.71091815
_cell_angle_alpha   90.00000000
_cell_angle_beta   90.00000000
_cell_angle_gamma   90.00000000
_symmetry_Int_Tables_number   1
_chemical_formula_structural   Gd2ReO5
_chemical_formula_sum   'Gd8 Re4 O20'
_cell_volume   420.36204617
_cell_formula_units_Z   4
loop_
 _symmetry_equiv_pos_site_id
 _symmetry_equiv_pos_as_xyz
  1  'x, y, z'
loop_
 _atom_site_type_symbol
 _atom_site_label
 _atom_site_symmetry_multiplicity
 _atom_site_fract_x
 _atom_site_fract_y
 _atom_site_fract_z
 _atom_site_occupancy
  Gd  Gd0  1  0.35802774  0.35040900  0.24942663  1
  Gd  Gd1  1  0.85040900  0.14197226  0.24942663  1
  Gd  Gd2  1  0.14959100  0.85802774  0.24942663  1
  Gd  Gd3  1  0.64197226  0.64959100  0.24942663  1
  Gd  Gd4  1  0.85802774  0.85040900  0.75057337  1
  Gd  Gd5  1  0.35040900  0.64197226  0.75057337  1
  Gd  Gd6  1  0.64959100  0.35802774  0.75057337  1
  Gd  Gd7  1  0.14197226  0.14959100  0.75057337  1
  Re  Re0  1  0.00000000  0.50000000  0.14924668  1
  Re  Re1  1  0.50000000  -0.00000000  0.85075332  1
  Re  Re2  1  0.00000000  0.50000000  0.54231261  1
  Re  Re3  1  0.50000000  -0.00000000  0.45768739  1
  O  O0  1  0.00000000  -0.00000000  -0.00000000  1
  O  O1  1  0.50000000  0.50000000  -0.00000000  1
  O  O2  1  0.00000000  -0.00000000  0.50000000  1
  O  O3  1  0.50000000  0.50000000  0.50000000  1
  O  O4  1  0.29874913  0.90685589  0.90351356  1
  O  O5  1  0.40685589  0.20125087  0.90351356  1
  O  O6  1  0.59314411  0.79874913  0.90351356  1
  O  O7  1  0.70125087  0.09314411  0.90351356  1
  O  O8  1  0.20125087  0.59314411  0.09648644  1
  O  O9  1  0.09314411  0.29874913  0.09648644  1
  O  O10  1  0.90685589  0.70125087  0.09648644  1
  O  O11  1  0.79874913  0.40685589  0.09648644  1
  O  O12  1  0.90890893  0.29854442  0.60367998  1
  O  O13  1  0.79854442  0.59109107  0.60367998  1
  O  O14  1  0.20145558  0.40890893  0.60367998  1
  O  O15  1  0.09109107  0.70145558  0.60367998  1
  O  O16  1  0.59109107  0.20145558  0.39632002  1
  O  O17  1  0.70145558  0.90890893  0.39632002  1
  O  O18  1  0.29854442  0.09109107  0.39632002  1
  O  O19  1  0.40890893  0.79854442  0.39632002  1
loop_
_geom_bond_atom_site_label_1
_geom_bond_atom_site_label_2
_geom_bond_distance
_geom_bond_site_symmetry_2
Gd0 O1 2.271526 1_555
Gd0 O3 2.275639 1_555
Gd0 O5 2.390739 1_554
Gd0 O18 2.431857 1_555
Gd0 O9 2.474633 1_555
Gd0 O14 2.479786 1_555
Gd0 O16 2.516958 1_555
Gd0 O8 2.628496 1_555
Gd1 O0 2.271526 1_655
Gd1 O2 2.275639 1_655
Gd1 O7 2.390739 1_554
Gd1 O16 2.431857 1_555
Gd1 O11 2.474633 1_555
Gd1 O12 2.479786 1_555
Gd1 O17 2.516958 1_545
Gd1 O9 2.628496 1_655
Gd2 O0 2.271526 1_565
Gd2 O2 2.275639 1_565
Gd2 O4 2.390739 1_554
Gd2 O19 2.431857 1_555
Gd2 O8 2.474633 1_555
Gd2 O15 2.479786 1_555
Gd2 O18 2.516958 1_565
Gd2 O10 2.628496 1_455
Gd3 O1 2.271526 1_555
Gd3 O3 2.275639 1_555
Gd3 O6 2.390739 1_554
Gd3 O17 2.431857 1_555
Gd3 O10 2.474633 1_555
Gd3 O13 2.479786 1_555
Gd3 O19 2.516958 1_555
Gd3 O11 2.628496 1_555
Gd4 O0 2.271526 1_666
Gd4 O2 2.275639 1_665
Gd4 O10 2.390739 1_556
Gd4 O13 2.431857 1_555
Gd4 O6 2.474633 1_555
Gd4 O17 2.479786 1_555
Gd4 O15 2.516958 1_655
Gd4 O7 2.628496 1_565
Gd5 O1 2.271526 1_556
Gd5 O3 2.275639 1_555
Gd5 O8 2.390739 1_556
Gd5 O15 2.431857 1_555
Gd5 O4 2.474633 1_555
Gd5 O19 2.479786 1_555
Gd5 O14 2.516958 1_555
Gd5 O6 2.628496 1_555
Gd6 O1 2.271526 1_556
Gd6 O3 2.275639 1_555
Gd6 O11 2.390739 1_556
Gd6 O12 2.431857 1_555
Gd6 O7 2.474633 1_555
Gd6 O16 2.479786 1_555
Gd6 O13 2.516958 1_555
Gd6 O5 2.628496 1_555
Gd7 O0 2.271526 1_556
Gd7 O2 2.275639 1_555
Gd7 O9 2.390739 1_556
Gd7 O14 2.431857 1_555
Gd7 O5 2.474633 1_555
Gd7 O18 2.479786 1_555
Gd7 O12 2.516958 1_455
Gd7 O4 2.628496 1_545
O4 Re1 1.926292 1_565
O5 Re1 1.926292 1_555
O6 Re1 1.926292 1_565
O7 Re1 1.926292 1_555
O8 Re0 1.926292 1_555
O9 Re0 1.926292 1_555
O10 Re0 1.926292 1_655
O11 Re0 1.926292 1_655
O12 Re2 1.928954 1_655
O13 Re2 1.928954 1_655
O14 Re2 1.928954 1_555
O15 Re2 1.928954 1_555
O16 Re3 1.928954 1_555
O17 Re3 1.928954 1_565
O18 Re3 1.928954 1_555
O19 Re3 1.928954 1_565
