# generated using pymatgen
data_Li2Cu2C2O7
_symmetry_space_group_name_H-M   'P 1'
_cell_length_a   5.68754300
_cell_length_b   10.10751500
_cell_length_c   10.11020794
_cell_angle_alpha   68.19956079
_cell_angle_beta   90.00000000
_cell_angle_gamma   90.00000000
_symmetry_Int_Tables_number   1
_chemical_formula_structural   Li2Cu2C2O7
_chemical_formula_sum   'Li8 Cu8 C8 O28'
_cell_volume   539.63874407
_cell_formula_units_Z   4
loop_
 _symmetry_equiv_pos_site_id
 _symmetry_equiv_pos_as_xyz
  1  'x, y, z'
loop_
 _atom_site_type_symbol
 _atom_site_label
 _atom_site_symmetry_multiplicity
 _atom_site_fract_x
 _atom_site_fract_y
 _atom_site_fract_z
 _atom_site_occupancy
  Li  Li0  1  0.28390000  0.02633900  0.37717700  1
  Li  Li1  1  0.93612500  0.24848000  0.51900400  1
  Li  Li2  1  0.43612500  0.25152000  0.48099600  1
  Li  Li3  1  0.21610000  0.52633900  0.37717700  1
  Li  Li4  1  0.78390000  0.47366100  0.62282300  1
  Li  Li5  1  0.56387500  0.74848000  0.51900400  1
  Li  Li6  1  0.06387500  0.75152000  0.48099600  1
  Li  Li7  1  0.71610000  0.97366100  0.62282300  1
  Cu  Cu0  1  0.36497900  0.21840800  0.02513400  1
  Cu  Cu1  1  0.13502100  0.71840800  0.02513400  1
  Cu  Cu2  1  0.66592300  0.47256800  0.11474100  1
  Cu  Cu3  1  0.83407700  0.97256800  0.11474100  1
  Cu  Cu4  1  0.16592300  0.02743200  0.88525900  1
  Cu  Cu5  1  0.33407700  0.52743200  0.88525900  1
  Cu  Cu6  1  0.86497900  0.28159200  0.97486600  1
  Cu  Cu7  1  0.63502100  0.78159200  0.97486600  1
  C  C0  1  0.75106800  0.03875000  0.36450200  1
  C  C1  1  0.12997700  0.31309700  0.22169300  1
  C  C2  1  0.74893200  0.53875000  0.36450200  1
  C  C3  1  0.37002300  0.81309700  0.22169300  1
  C  C4  1  0.62997700  0.18690300  0.77830700  1
  C  C5  1  0.25106800  0.46125000  0.63549800  1
  C  C6  1  0.87002300  0.68690300  0.77830700  1
  C  C7  1  0.24893200  0.96125000  0.63549800  1
  O  O0  1  0.07869800  0.11441700  0.01744300  1
  O  O1  1  0.74237800  0.07870900  0.22603800  1
  O  O2  1  0.27320000  0.21614400  0.21318300  1
  O  O3  1  0.42130200  0.61441700  0.01744300  1
  O  O4  1  0.96643300  0.36151600  0.12295500  1
  O  O5  1  0.67371000  0.12510700  0.42158600  1
  O  O6  1  0.75762200  0.57870900  0.22603800  1
  O  O7  1  0.15025400  0.35810000  0.32256500  1
  O  O8  1  0.22680000  0.71614400  0.21318300  1
  O  O9  1  0.53356700  0.86151600  0.12295500  1
  O  O10  1  0.66930500  0.41476300  0.44523700  1
  O  O11  1  0.16930500  0.08523700  0.55476300  1
  O  O12  1  0.82629000  0.62510700  0.42158600  1
  O  O13  1  0.34974600  0.85810000  0.32256500  1
  O  O14  1  0.65025400  0.14190000  0.67743500  1
  O  O15  1  0.17371000  0.37489300  0.57841400  1
  O  O16  1  0.83069500  0.91476300  0.44523700  1
  O  O17  1  0.33069500  0.58523700  0.55476300  1
  O  O18  1  0.46643300  0.13848400  0.87704500  1
  O  O19  1  0.77320000  0.28385600  0.78681700  1
  O  O20  1  0.84974600  0.64190000  0.67743500  1
  O  O21  1  0.24237800  0.42129100  0.77396200  1
  O  O22  1  0.32629000  0.87489300  0.57841400  1
  O  O23  1  0.03356700  0.63848400  0.87704500  1
  O  O24  1  0.57869800  0.38558300  0.98255700  1
  O  O25  1  0.72680000  0.78385600  0.78681700  1
  O  O26  1  0.25762200  0.92129100  0.77396200  1
  O  O27  1  0.92130200  0.88558300  0.98255700  1
loop_
_geom_bond_atom_site_label_1
_geom_bond_atom_site_label_2
_geom_bond_distance
_geom_bond_site_symmetry_2
Li0 O13 2.008508 1_545
Li0 O2 2.017580 1_555
Li0 O22 2.056086 1_545
Li0 O11 2.190126 1_555
Li0 O5 2.538989 1_555
Li1 O11 2.041798 1_655
Li1 O15 2.095071 1_655
Li1 O10 2.180124 1_555
Li1 O7 2.240706 1_655
Li1 O14 2.255679 1_555
Li1 O5 2.380092 1_555
Li2 O10 2.041798 1_555
Li2 O5 2.095071 1_555
Li2 O11 2.180124 1_555
Li2 O14 2.240706 1_555
Li2 O7 2.255679 1_555
Li2 O15 2.380092 1_555
Li3 O7 2.008508 1_555
Li3 O8 2.017580 1_555
Li3 O15 2.056086 1_555
Li3 O17 2.190126 1_555
Li3 O12 2.538989 1_455
Li4 O20 2.008508 1_555
Li4 O19 2.017580 1_555
Li4 O12 2.056086 1_555
Li4 O10 2.190126 1_555
Li4 O15 2.538989 1_655
Li5 O17 2.041798 1_555
Li5 O22 2.095071 1_555
Li5 O16 2.180124 1_555
Li5 O13 2.240706 1_555
Li5 O20 2.255679 1_555
Li5 O12 2.380092 1_555
Li6 O16 2.041798 1_455
Li6 O12 2.095071 1_455
Li6 O17 2.180124 1_555
Li6 O20 2.240706 1_455
Li6 O13 2.255679 1_555
Li6 O22 2.380092 1_555
Li7 O14 2.008508 1_565
Li7 O25 2.017580 1_555
Li7 O5 2.056086 1_565
Li7 O16 2.190126 1_555
Li7 O22 2.538989 1_555
Cu0 O0 1.955171 1_555
Cu0 O2 1.963494 1_555
Cu0 O24 1.994428 1_554
Cu0 O18 2.031143 1_554
Cu1 O3 1.955171 1_555
Cu1 O8 1.963494 1_555
Cu1 O27 1.994428 1_454
Cu1 O23 2.031143 1_554
Cu2 O6 1.893605 1_555
Cu2 O24 1.917760 1_554
Cu2 O3 1.977732 1_555
Cu2 O4 2.029487 1_555
Cu3 O1 1.893605 1_565
Cu3 O27 1.917760 1_554
Cu3 O0 1.977732 1_665
Cu3 O9 2.029487 1_555
Cu4 O26 1.893605 1_545
Cu4 O0 1.917760 1_556
Cu4 O27 1.977732 1_445
Cu4 O18 2.029487 1_555
Cu5 O21 1.893605 1_555
Cu5 O3 1.917760 1_556
Cu5 O24 1.977732 1_555
Cu5 O23 2.029487 1_555
Cu6 O24 1.955171 1_555
Cu6 O19 1.963494 1_555
Cu6 O0 1.994428 1_656
Cu6 O4 2.031143 1_556
Cu7 O27 1.955171 1_555
Cu7 O25 1.963494 1_555
Cu7 O3 1.994428 1_556
Cu7 O9 2.031143 1_556
C0 O5 1.289456 1_555
C0 O16 1.296957 1_545
C0 O1 1.305885 1_555
C1 O7 1.266818 1_555
C1 O2 1.301494 1_555
C1 O4 1.318473 1_455
C2 O12 1.289456 1_555
C2 O10 1.296957 1_555
C2 O6 1.305885 1_555
C3 O13 1.266818 1_555
C3 O8 1.301494 1_555
C3 O9 1.318473 1_555
C4 O14 1.266818 1_555
C4 O19 1.301494 1_555
C4 O18 1.318473 1_555
C5 O15 1.289456 1_555
C5 O17 1.296957 1_555
C5 O21 1.305885 1_555
C6 O20 1.266818 1_555
C6 O25 1.301494 1_555
C6 O23 1.318473 1_655
C7 O22 1.289456 1_555
C7 O11 1.296957 1_565
C7 O26 1.305885 1_555
