# generated using pymatgen
data_Li9Mn2Co5O16
_symmetry_space_group_name_H-M   'P 1'
_cell_length_a   10.67869473
_cell_length_b   10.67869473
_cell_length_c   9.84812080
_cell_angle_alpha   72.67994411
_cell_angle_beta   72.67994411
_cell_angle_gamma   15.71790270
_symmetry_Int_Tables_number   1
_chemical_formula_structural   Li9Mn2Co5O16
_chemical_formula_sum   'Li9 Mn2 Co5 O16'
_cell_volume   290.16510239
_cell_formula_units_Z   1
loop_
 _symmetry_equiv_pos_site_id
 _symmetry_equiv_pos_as_xyz
  1  'x, y, z'
loop_
 _atom_site_type_symbol
 _atom_site_label
 _atom_site_symmetry_multiplicity
 _atom_site_fract_x
 _atom_site_fract_y
 _atom_site_fract_z
 _atom_site_occupancy
  Li  Li0  1  0.43694700  0.43694700  0.80113200  1
  Li  Li1  1  0.31359300  0.31359300  0.44791800  1
  Li  Li2  1  0.18845500  0.18845500  0.06265100  1
  Li  Li3  1  0.81204600  0.81204600  0.92603300  1
  Li  Li4  1  0.68513900  0.68513900  0.56638600  1
  Li  Li5  1  0.56289600  0.56289600  0.19295200  1
  Li  Li6  1  0.05826300  0.05826300  0.66963400  1
  Li  Li7  1  0.94381100  0.94381100  0.33169000  1
  Li  Li8  1  0.49983300  0.49983300  0.50099300  1
  Mn  Mn0  1  0.99982600  0.99982600  0.00079200  1
  Mn  Mn1  1  0.74818600  0.74818600  0.25058000  1
  Co  Co0  1  0.88489900  0.88489900  0.61954300  1
  Co  Co1  1  0.62772200  0.62772200  0.86953000  1
  Co  Co2  1  0.37441400  0.37441400  0.12925900  1
  Co  Co3  1  0.25369600  0.25369600  0.74651900  1
  Co  Co4  1  0.11481000  0.11481000  0.38028900  1
  O  O0  1  0.52697100  0.52697100  0.86315600  1
  O  O1  1  0.40327600  0.40327600  0.47615700  1
  O  O2  1  0.27605100  0.27605100  0.11131600  1
  O  O3  1  0.90993500  0.90993500  0.98739400  1
  O  O4  1  0.77973900  0.77973900  0.60671000  1
  O  O5  1  0.66107600  0.66107600  0.23048200  1
  O  O6  1  0.15521000  0.15521000  0.73062200  1
  O  O7  1  0.03794700  0.03794700  0.33951400  1
  O  O8  1  0.34201200  0.34201200  0.77383600  1
  O  O9  1  0.22265100  0.22265100  0.38617100  1
  O  O10  1  0.09011100  0.09011100  0.01537900  1
  O  O11  1  0.71622500  0.71622500  0.89908700  1
  O  O12  1  0.59793000  0.59793000  0.52109700  1
  O  O13  1  0.47456500  0.47456500  0.13774500  1
  O  O14  1  0.96345700  0.96345700  0.65776600  1
  O  O15  1  0.83830900  0.83830900  0.26766600  1
loop_
_geom_bond_atom_site_label_1
_geom_bond_atom_site_label_2
_geom_bond_distance
_geom_bond_site_symmetry_2
Li0 O14 1.990995 1_545
Li0 O14 1.990995 1_455
Li0 O8 2.104980 1_555
Li0 O0 2.167935 1_555
Li0 O3 2.278884 1_545
Li0 O3 2.278884 1_455
Li1 O1 1.998662 1_555
Li1 O4 2.101735 1_455
Li1 O4 2.101735 1_545
Li1 O9 2.185166 1_555
Li1 O15 2.235772 1_455
Li1 O15 2.235772 1_545
Li2 O2 2.048922 1_555
Li2 O11 2.122041 1_544
Li2 O11 2.122041 1_454
Li2 O5 2.150332 1_455
Li2 O5 2.150332 1_545
Li2 O10 2.264511 1_555
Li3 O8 2.051677 1_655
Li3 O8 2.051677 1_565
Li3 O11 2.122164 1_555
Li3 O2 2.281721 1_656
Li3 O2 2.281721 1_566
Li3 O3 2.325190 1_555
Li4 O12 2.024305 1_555
Li4 O6 2.129187 1_655
Li4 O6 2.129187 1_565
Li4 O4 2.154335 1_555
Li4 O9 2.250582 1_655
Li4 O9 2.250582 1_565
Li5 O7 2.008983 1_655
Li5 O7 2.008983 1_565
Li5 O13 2.097311 1_555
Li5 O5 2.216463 1_555
Li5 O10 2.217321 1_655
Li5 O10 2.217321 1_565
Li6 O14 2.043959 1_445
Li6 O12 2.058706 1_545
Li6 O12 2.058706 1_455
Li6 O6 2.303945 1_555
Li6 O0 2.333267 1_545
Li6 O0 2.333267 1_455
Li7 O7 2.016112 1_665
Li7 O1 2.039188 1_655
Li7 O1 2.039188 1_565
Li7 O13 2.335914 1_565
Li7 O13 2.335914 1_655
Li7 O15 2.495128 1_555
Li8 O14 2.096145 1_545
Li8 O14 2.096145 1_455
Li8 O1 2.129161 1_555
Li8 O7 2.130832 1_655
Li8 O7 2.130832 1_565
Li8 O12 2.143254 1_555
Mn0 O3 1.945533 1_554
Mn0 O13 1.950251 1_565
Mn0 O13 1.950251 1_655
Mn0 O0 1.957353 1_654
Mn0 O0 1.957353 1_564
Mn0 O10 1.958113 1_665
Mn1 O5 1.911795 1_555
Mn1 O9 1.942515 1_655
Mn1 O9 1.942515 1_565
Mn1 O15 1.963851 1_555
Mn1 O2 1.968397 1_565
Mn1 O2 1.968397 1_655
Co0 O14 1.811105 1_555
Co0 O1 1.986753 1_565
Co0 O1 1.986753 1_655
Co0 O8 2.106062 1_655
Co0 O8 2.106062 1_565
Co0 O4 2.266038 1_555
Co1 O6 1.965564 1_565
Co1 O6 1.965564 1_655
Co1 O11 1.979484 1_555
Co1 O10 2.035022 1_566
Co1 O10 2.035022 1_656
Co1 O0 2.151266 1_555
Co2 O15 1.986860 1_455
Co2 O15 1.986860 1_545
Co2 O3 2.004401 1_454
Co2 O3 2.004401 1_544
Co2 O2 2.140796 1_555
Co2 O13 2.145471 1_555
Co3 O8 1.966147 1_555
Co3 O4 1.968596 1_455
Co3 O4 1.968596 1_545
Co3 O11 2.074150 1_545
Co3 O11 2.074150 1_455
Co3 O6 2.135924 1_555
Co4 O7 1.788348 1_555
Co4 O12 1.970999 1_545
Co4 O12 1.970999 1_455
Co4 O5 2.097315 1_455
Co4 O5 2.097315 1_545
Co4 O9 2.299642 1_555
