# generated using pymatgen
data_Li6Zn3(PS4)4
_symmetry_space_group_name_H-M   'P 1'
_cell_length_a   9.31692267
_cell_length_b   11.59590053
_cell_length_c   23.18249360
_cell_angle_alpha   90.07790091
_cell_angle_beta   89.96724761
_cell_angle_gamma   90.01559472
_symmetry_Int_Tables_number   1
_chemical_formula_structural   Li6Zn3(PS4)4
_chemical_formula_sum   'Li24 Zn12 P16 S64'
_cell_volume   2504.58994280
_cell_formula_units_Z   4
loop_
 _symmetry_equiv_pos_site_id
 _symmetry_equiv_pos_as_xyz
  1  'x, y, z'
loop_
 _atom_site_type_symbol
 _atom_site_label
 _atom_site_symmetry_multiplicity
 _atom_site_fract_x
 _atom_site_fract_y
 _atom_site_fract_z
 _atom_site_occupancy
  Li  Li0  1  0.25224368  0.25217104  0.50223041  1
  Li  Li1  1  0.75191837  0.50363305  0.87302883  1
  Li  Li2  1  0.74772217  0.99612854  0.87786202  1
  Li  Li3  1  0.24858017  0.25238216  0.74923067  1
  Li  Li4  1  0.50102755  0.50063471  0.24905654  1
  Li  Li5  1  0.50271110  0.99918280  0.24969125  1
  Li  Li6  1  0.50606872  0.50258897  0.49970189  1
  Li  Li7  1  0.50661013  0.99741696  0.50055552  1
  Li  Li8  1  0.99966842  0.75062771  0.37483154  1
  Li  Li9  1  0.99748710  0.25125588  0.37244724  1
  Li  Li10  1  0.50287144  0.50340070  0.74955895  1
  Li  Li11  1  0.49699207  0.99924121  0.74814748  1
  Li  Li12  1  0.99683919  0.74962010  0.62461238  1
  Li  Li13  1  0.99095998  0.25050100  0.62553907  1
  Li  Li14  1  0.49181273  0.49969423  0.00219418  1
  Li  Li15  1  0.49636505  0.99800621  0.00085693  1
  Li  Li16  1  0.01427966  0.74912659  0.87497735  1
  Li  Li17  1  0.00148200  0.24858119  0.87728881  1
  Li  Li18  1  0.00141872  0.75092655  0.12535810  1
  Li  Li19  1  0.00300342  0.24907981  0.12436592  1
  Li  Li20  1  0.51045200  0.25134982  0.62471190  1
  Li  Li21  1  0.48768016  0.75089470  0.87504482  1
  Li  Li22  1  0.99898646  0.50175074  0.74894215  1
  Li  Li23  1  0.00548309  0.99986418  0.00182857  1
  Zn  Zn0  1  0.49796840  0.24857837  0.12536858  1
  Zn  Zn1  1  0.49911902  0.75021078  0.12373303  1
  Zn  Zn2  1  0.50619850  0.25145753  0.37374569  1
  Zn  Zn3  1  0.50068538  0.74919441  0.37484825  1
  Zn  Zn4  1  0.99907380  0.49925510  0.24907362  1
  Zn  Zn5  1  0.99949975  0.99831854  0.24868971  1
  Zn  Zn6  1  0.49965941  0.74992081  0.62621711  1
  Zn  Zn7  1  0.99409288  0.50232705  0.50127523  1
  Zn  Zn8  1  0.99341979  0.99869598  0.49920600  1
  Zn  Zn9  1  0.49295159  0.24877292  0.87613935  1
  Zn  Zn10  1  0.99904711  0.99964156  0.74994737  1
  Zn  Zn11  1  0.00409663  0.49947856  0.99999172  1
  P  P0  1  0.75039353  0.25021805  0.24959569  1
  P  P1  1  0.74991244  0.75011890  0.25011004  1
  P  P2  1  0.75020284  0.24625403  0.49883292  1
  P  P3  1  0.74923305  0.75018316  0.49991390  1
  P  P4  1  0.25257194  0.49922344  0.37506559  1
  P  P5  1  0.24725952  0.00046011  0.37563028  1
  P  P6  1  0.75016895  0.25228079  0.75373856  1
  P  P7  1  0.74990249  0.74679804  0.74832298  1
  P  P8  1  0.25036464  0.49531709  0.62188908  1
  P  P9  1  0.24968856  0.00061924  0.62673652  1
  P  P10  1  0.74921166  0.25144104  0.99797016  1
  P  P11  1  0.75027745  0.75311954  0.00172995  1
  P  P12  1  0.24684006  0.50138007  0.87689563  1
  P  P13  1  0.25303472  0.99879972  0.87218780  1
  P  P14  1  0.24994076  0.49986938  0.12543311  1
  P  P15  1  0.25089060  0.00406901  0.12616391  1
  S  S0  1  0.86394249  0.36109611  0.05049639  1
  S  S1  1  0.87038468  0.85548157  0.05255002  1
  S  S2  1  0.86312921  0.36261570  0.30195254  1
  S  S3  1  0.86401182  0.86178881  0.30243354  1
  S  S4  1  0.36463945  0.61164435  0.17722825  1
  S  S5  1  0.37145230  0.11041330  0.17935807  1
  S  S6  1  0.86453414  0.35898927  0.55110870  1
  S  S7  1  0.86288675  0.86178936  0.55207673  1
  S  S8  1  0.36520419  0.61025509  0.42754514  1
  S  S9  1  0.37012800  0.11183684  0.42749691  1
  S  S10  1  0.87520603  0.35569419  0.80513433  1
  S  S11  1  0.86844413  0.85966880  0.80223659  1
  S  S12  1  0.36436979  0.60625814  0.67466866  1
  S  S13  1  0.36778848  0.11108742  0.67635557  1
  S  S14  1  0.37202545  0.60146794  0.92735712  1
  S  S15  1  0.36247831  0.11094668  0.92681000  1
  S  S16  1  0.63551682  0.64549623  0.30602495  1
  S  S17  1  0.63770795  0.14506209  0.30570604  1
  S  S18  1  0.63544474  0.64720971  0.55585787  1
  S  S19  1  0.63641481  0.14409156  0.55262704  1
  S  S20  1  0.13650857  0.89581791  0.43187807  1
  S  S21  1  0.12968138  0.39597857  0.43061156  1
  S  S22  1  0.63139078  0.64796426  0.80439366  1
  S  S23  1  0.62719007  0.14288019  0.80664862  1
  S  S24  1  0.12896427  0.89619667  0.67910937  1
  S  S25  1  0.13187102  0.39343358  0.67665145  1
  S  S26  1  0.63050879  0.64507774  0.05396540  1
  S  S27  1  0.63191625  0.14899507  0.05315169  1
  S  S28  1  0.13120268  0.90184973  0.92562622  1
  S  S29  1  0.13218337  0.39204766  0.93062723  1
  S  S30  1  0.13915399  0.89626966  0.18211429  1
  S  S31  1  0.13543620  0.39543365  0.18123045  1
  S  S32  1  0.86532512  0.13904126  0.19784717  1
  S  S33  1  0.86488686  0.63867363  0.19828453  1
  S  S34  1  0.87243657  0.14097207  0.44576780  1
  S  S35  1  0.86321354  0.63889396  0.44746260  1
  S  S36  1  0.36436836  0.38717519  0.32284783  1
  S  S37  1  0.36601156  0.89116111  0.32444626  1
  S  S38  1  0.86416997  0.14111192  0.70054027  1
  S  S39  1  0.86889940  0.64454095  0.69702937  1
  S  S40  1  0.37423389  0.39104950  0.57001625  1
  S  S41  1  0.36462569  0.89120271  0.57399951  1
  S  S42  1  0.86691701  0.14171831  0.94748352  1
  S  S43  1  0.86964717  0.63992299  0.94797449  1
  S  S44  1  0.36779316  0.38881923  0.82258338  1
  S  S45  1  0.37068552  0.89649995  0.81993738  1
  S  S46  1  0.36282074  0.38699386  0.07385497  1
  S  S47  1  0.36364314  0.89002505  0.07410754  1
  S  S48  1  0.63598328  0.35386215  0.19413303  1
  S  S49  1  0.63514005  0.85287293  0.19452695  1
  S  S50  1  0.63714495  0.35387090  0.44364628  1
  S  S51  1  0.63585594  0.85375861  0.44376549  1
  S  S52  1  0.13414297  0.60149718  0.32060457  1
  S  S53  1  0.13453600  0.10393789  0.32000033  1
  S  S54  1  0.63246329  0.35213021  0.70034298  1
  S  S55  1  0.63088323  0.85456978  0.69566818  1
  S  S56  1  0.13144072  0.60320203  0.56938227  1
  S  S57  1  0.12830577  0.10400526  0.56999035  1
  S  S58  1  0.62621137  0.35798540  0.94427473  1
  S  S59  1  0.63070990  0.85269302  0.94609803  1
  S  S60  1  0.13384670  0.60051742  0.82137259  1
  S  S61  1  0.12879735  0.10835897  0.81849360  1
  S  S62  1  0.13587499  0.60382896  0.06988952  1
  S  S63  1  0.13889798  0.10621068  0.07208443  1
loop_
_geom_bond_atom_site_label_1
_geom_bond_atom_site_label_2
_geom_bond_distance
_geom_bond_site_symmetry_2
Li0 S40 2.519694 1_555
Li0 S57 2.599430 1_555
Li0 S9 2.616703 1_555
Li0 S21 2.617652 1_555
Li1 S22 2.569850 1_555
Li1 S43 2.590989 1_555
Li1 S10 2.594482 1_555
Li1 S58 2.637503 1_555
Li2 S59 2.541951 1_555
Li2 S42 2.584968 1_565
Li2 S11 2.614157 1_555
Li2 S23 2.625496 1_565
Li3 S61 2.572372 1_555
Li3 S44 2.573384 1_555
Li3 S25 2.588281 1_555
Li3 S13 2.600677 1_555
Li4 S4 2.460416 1_555
Li4 S48 2.468258 1_555
Li4 S16 2.476022 1_555
Li4 S36 2.506236 1_555
Li5 S5 2.413828 1_565
Li5 S49 2.455535 1_555
Li5 S17 2.474766 1_565
Li5 S37 2.489369 1_555
Li6 S40 2.416873 1_555
Li6 S18 2.440255 1_555
Li6 S8 2.467473 1_555
Li6 S50 2.479380 1_555
Li7 S19 2.409891 1_565
Li7 S51 2.439603 1_555
Li7 S41 2.483556 1_555
Li7 S9 2.501079 1_565
Li8 S3 2.466802 1_555
Li8 S35 2.476427 1_555
Li8 S52 2.476697 1_655
Li8 S20 2.490713 1_655
Li9 S34 2.425872 1_555
Li9 S2 2.431916 1_555
Li9 S53 2.453712 1_655
Li9 S21 2.479124 1_655
Li10 S54 2.414671 1_555
Li10 S22 2.419654 1_555
Li10 S12 2.472038 1_555
Li10 S44 2.493567 1_555
Li11 S45 2.361438 1_555
Li11 S55 2.417528 1_555
Li11 S13 2.431078 1_565
Li11 S23 2.465705 1_565
Li12 S39 2.393003 1_555
Li12 S24 2.448513 1_655
Li12 S7 2.467035 1_555
Li12 S56 2.467418 1_655
Li13 S25 2.422797 1_655
Li13 S6 2.440570 1_555
Li13 S38 2.455691 1_555
Li13 S57 2.484935 1_655
Li14 S14 2.378392 1_554
Li14 S46 2.432044 1_555
Li14 S26 2.438742 1_555
Li14 S58 2.462578 1_554
Li15 S47 2.446042 1_555
Li15 S59 2.451748 1_554
Li15 S27 2.474864 1_565
Li15 S15 2.495466 1_564
Li16 S28 2.386723 1_555
Li16 S60 2.397609 1_555
Li16 S43 2.507072 1_455
Li16 S11 2.518406 1_455
Li17 S10 2.394492 1_455
Li17 S42 2.399534 1_455
Li17 S29 2.403023 1_555
Li17 S61 2.429387 1_555
Li18 S1 2.412056 1_455
Li18 S62 2.475017 1_555
Li18 S33 2.484611 1_455
Li18 S30 2.492633 1_555
Li19 S63 2.410520 1_555
Li19 S31 2.476901 1_555
Li19 S32 2.485547 1_455
Li19 S0 2.511561 1_455
Li20 S19 2.389504 1_555
Li20 S54 2.393338 1_555
Li20 S13 2.418220 1_555
Li20 S40 2.418933 1_555
Li21 S14 2.374321 1_555
Li21 S45 2.383166 1_555
Li21 S59 2.424637 1_555
Li21 S22 2.427558 1_555
Li22 S39 2.380566 1_555
Li22 S60 2.388780 1_655
Li22 S10 2.428713 1_555
Li22 S25 2.431414 1_655
Li23 S63 2.390509 1_565
Li23 S1 2.402617 1_455
Li23 S28 2.403624 1_554
Li23 S42 2.443025 1_464
P0 S48 2.059209 1_555
P0 S32 2.059834 1_555
P0 S2 2.066783 1_555
P0 S17 2.069593 1_555
P1 S49 2.056698 1_555
P1 S33 2.063026 1_555
P1 S3 2.067531 1_555
P1 S16 2.071244 1_555
P2 S19 2.020989 1_555
P2 S34 2.072638 1_555
P2 S6 2.075741 1_555
P2 S50 2.076105 1_555
P3 S18 2.057593 1_555
P3 S7 2.062752 1_555
P3 S51 2.063778 1_555
P3 S35 2.065590 1_555
P4 S52 2.055324 1_555
P4 S36 2.057554 1_555
P4 S8 2.058032 1_555
P4 S21 2.098615 1_555
P5 S53 2.052417 1_555
P5 S37 2.057574 1_545
P5 S20 2.059011 1_545
P5 S9 2.102565 1_555
P6 S54 2.020309 1_555
P6 S10 2.052247 1_555
P6 S38 2.075043 1_555
P6 S23 2.104403 1_555
P7 S39 2.011115 1_555
P7 S22 2.055237 1_555
P7 S55 2.070726 1_555
P7 S11 2.119275 1_555
P8 S25 2.056223 1_555
P8 S40 2.057934 1_555
P8 S12 2.068035 1_555
P8 S56 2.069019 1_555
P9 S13 2.042419 1_555
P9 S24 2.051136 1_545
P9 S41 2.060647 1_545
P9 S57 2.110339 1_555
P10 S42 2.046111 1_555
P10 S0 2.058828 1_556
P10 S27 2.060051 1_556
P10 S58 2.096612 1_555
P11 S1 2.011501 1_555
P11 S59 2.060070 1_554
P11 S26 2.069542 1_555
P11 S43 2.123110 1_554
P12 S14 2.018164 1_555
P12 S60 2.023080 1_555
P12 S29 2.074157 1_555
P12 S44 2.133920 1_555
P13 S45 2.017735 1_555
P13 S28 2.022011 1_555
P13 S15 2.081018 1_565
P13 S61 2.123683 1_565
P14 S46 2.060107 1_555
P14 S62 2.060864 1_555
P14 S4 2.064026 1_555
P14 S31 2.068789 1_555
P15 S63 2.017316 1_555
P15 S5 2.073599 1_555
P15 S47 2.074546 1_545
P15 S30 2.081079 1_545
S0 Zn11 2.377633 1_654
S2 Zn4 2.370633 1_555
S3 Zn5 2.377969 1_555
S4 Zn1 2.385830 1_555
S5 Zn0 2.350655 1_555
S6 Zn7 2.357310 1_555
S7 Zn8 2.346105 1_555
S8 Zn3 2.384103 1_555
S9 Zn2 2.404944 1_555
S11 Zn10 2.363712 1_555
S12 Zn6 2.372341 1_555
S15 Zn9 2.326861 1_555
S16 Zn3 2.358588 1_555
S17 Zn2 2.346210 1_555
S18 Zn6 2.381744 1_555
S20 Zn8 2.372774 1_455
S21 Zn7 2.406907 1_455
S23 Zn9 2.379157 1_555
S24 Zn10 2.365166 1_455
S26 Zn1 2.365143 1_555
S27 Zn0 2.384722 1_555
S29 Zn11 2.356909 1_555
S30 Zn5 2.338570 1_455
S31 Zn4 2.351704 1_455
S32 Zn5 2.371242 1_545
S33 Zn4 2.360288 1_555
S34 Zn8 2.352729 1_545
S35 Zn7 2.357797 1_555
S36 Zn2 2.371312 1_555
S37 Zn3 2.378604 1_555
S38 Zn10 2.364335 1_545
S41 Zn6 2.395925 1_555
S43 Zn11 2.384064 1_655
S44 Zn9 2.355136 1_555
S46 Zn0 2.365556 1_555
S47 Zn1 2.356498 1_555
S48 Zn0 2.383574 1_555
S49 Zn1 2.390178 1_555
S50 Zn2 2.349668 1_555
S51 Zn3 2.367484 1_555
S52 Zn4 2.394857 1_455
S53 Zn5 2.410778 1_445
S55 Zn6 2.357058 1_555
S56 Zn7 2.344180 1_455
S57 Zn8 2.399873 1_445
S58 Zn9 2.374074 1_555
S61 Zn10 2.360455 1_445
S62 Zn11 2.365048 1_554
