# generated using pymatgen
data_CeGe
_symmetry_space_group_name_H-M   'P 1'
_cell_length_a   4.09844688
_cell_length_b   6.01106785
_cell_length_c   8.33876150
_cell_angle_alpha   90.00009037
_cell_angle_beta   90.01476559
_cell_angle_gamma   89.99998625
_symmetry_Int_Tables_number   1
_chemical_formula_structural   CeGe
_chemical_formula_sum   'Ce4 Ge4'
_cell_volume   205.43407378
_cell_formula_units_Z   4
loop_
 _symmetry_equiv_pos_site_id
 _symmetry_equiv_pos_as_xyz
  1  'x, y, z'
loop_
 _atom_site_type_symbol
 _atom_site_label
 _atom_site_symmetry_multiplicity
 _atom_site_fract_x
 _atom_site_fract_y
 _atom_site_fract_z
 _atom_site_occupancy
  Ce  Ce0  1  0.24987137  0.38147621  0.68186363  1
  Ce  Ce1  1  0.24984701  0.11852524  0.18187961  1
  Ce  Ce2  1  0.75014802  0.61856042  0.31808036  1
  Ce  Ce3  1  0.75013154  0.88145721  0.81816854  1
  Ge  Ge0  1  0.24985588  0.86879052  0.53658767  1
  Ge  Ge1  1  0.24986997  0.63123270  0.03647482  1
  Ge  Ge2  1  0.75013002  0.13120322  0.46351824  1
  Ge  Ge3  1  0.75014619  0.36875349  0.96342913  1
loop_
_geom_bond_atom_site_label_1
_geom_bond_atom_site_label_2
_geom_bond_distance
_geom_bond_site_symmetry_2
Ce0 Ge3 3.117002 1_455
Ce0 Ge3 3.117687 1_555
Ce0 Ge2 3.125915 1_455
Ce0 Ge2 3.127919 1_555
Ce0 Ge0 3.169894 1_555
Ce0 Ge0 3.311337 1_545
Ce0 Ge1 3.316301 1_556
Ce1 Ge2 3.117432 1_455
Ce1 Ge2 3.118161 1_555
Ce1 Ge3 3.126190 1_454
Ce1 Ge3 3.128412 1_554
Ce1 Ge1 3.170181 1_545
Ce1 Ge1 3.311855 1_555
Ce1 Ge0 3.316966 1_545
Ce2 Ge1 3.117237 1_655
Ce2 Ge1 3.117940 1_555
Ce2 Ge0 3.126488 1_655
Ce2 Ge0 3.128671 1_555
Ce2 Ge2 3.170649 1_555
Ce2 Ge2 3.311591 1_565
Ce2 Ge3 3.316736 1_554
Ce3 Ge0 3.117088 1_655
Ce3 Ge0 3.117777 1_555
Ce3 Ge1 3.125579 1_656
Ce3 Ge1 3.127600 1_556
Ce3 Ge3 3.169742 1_565
Ce3 Ge3 3.311394 1_555
Ce3 Ge2 3.316568 1_565
Ge0 Ge2 2.655835 1_465
Ge0 Ge2 2.657811 1_565
Ge1 Ge3 2.656020 1_454
Ge1 Ge3 2.658007 1_554
