# generated using pymatgen
data_TiO2
_symmetry_space_group_name_H-M   'P 1'
_cell_length_a   6.02819834
_cell_length_b   6.02819834
_cell_length_c   14.61580800
_cell_angle_alpha   90.00000000
_cell_angle_beta   90.00000000
_cell_angle_gamma   120.00000373
_symmetry_Int_Tables_number   1
_chemical_formula_structural   TiO2
_chemical_formula_sum   'Ti12 O24'
_cell_volume   459.96894467
_cell_formula_units_Z   12
loop_
 _symmetry_equiv_pos_site_id
 _symmetry_equiv_pos_as_xyz
  1  'x, y, z'
loop_
 _atom_site_type_symbol
 _atom_site_label
 _atom_site_symmetry_multiplicity
 _atom_site_fract_x
 _atom_site_fract_y
 _atom_site_fract_z
 _atom_site_occupancy
  Ti  Ti0  1  0.31162900  0.15581500  0.83586900  1
  Ti  Ti1  1  0.84418500  0.15581500  0.83586900  1
  Ti  Ti2  1  0.97784200  0.48892100  0.50752900  1
  Ti  Ti3  1  0.84418500  0.68837100  0.83586900  1
  Ti  Ti4  1  0.51107900  0.48892100  0.50752900  1
  Ti  Ti5  1  0.33333300  0.66666700  0.35221300  1
  Ti  Ti6  1  0.33333300  0.66666700  0.71573000  1
  Ti  Ti7  1  0.65491500  0.82745700  0.16873600  1
  Ti  Ti8  1  0.51107900  0.02215800  0.50752900  1
  Ti  Ti9  1  0.17254300  0.82745700  0.16873600  1
  Ti  Ti10  1  0.17254300  0.34508500  0.16873600  1
  Ti  Ti11  1  0.66666700  0.33333300  0.04315500  1
  O  O0  1  0.70164000  0.85082000  0.89927400  1
  O  O1  1  0.00000000  0.00000000  0.76062600  1
  O  O2  1  0.14918000  0.85082000  0.89927400  1
  O  O3  1  0.14918000  0.29836000  0.89927400  1
  O  O4  1  0.35588800  0.17794400  0.56646900  1
  O  O5  1  0.49817700  0.99635500  0.76011000  1
  O  O6  1  0.66666700  0.33333300  0.43219500  1
  O  O7  1  0.49817700  0.50182300  0.76011000  1
  O  O8  1  0.66666700  0.33333300  0.90923300  1
  O  O9  1  0.82205600  0.17794400  0.56646900  1
  O  O10  1  0.82205600  0.64411200  0.56646900  1
  O  O11  1  0.00364500  0.50182300  0.76011000  1
  O  O12  1  0.04576800  0.52288400  0.23830500  1
  O  O13  1  0.18995300  0.37990600  0.42265400  1
  O  O14  1  0.18995300  0.81004700  0.42265400  1
  O  O15  1  0.33333300  0.66666700  0.09425100  1
  O  O16  1  0.33333300  0.66666700  0.58376500  1
  O  O17  1  0.47711600  0.52288400  0.23830500  1
  O  O18  1  0.47711600  0.95423200  0.23830500  1
  O  O19  1  0.62009400  0.81004700  0.42265400  1
  O  O20  1  0.82637800  0.65275500  0.09337600  1
  O  O21  1  0.82637800  0.17362200  0.09337600  1
  O  O22  1  0.00000000  0.00000000  0.22157100  1
  O  O23  1  0.34724500  0.17362200  0.09337600  1
loop_
_geom_bond_atom_site_label_1
_geom_bond_atom_site_label_2
_geom_bond_distance
_geom_bond_site_symmetry_2
O0 Ti3 1.843269 1_555
O0 Ti1 1.843273 1_565
O1 Ti0 1.963712 1_555
O1 Ti3 1.963712 1_445
O1 Ti1 1.963717 1_455
O2 Ti0 1.843273 1_565
O2 Ti3 1.843273 1_455
O3 Ti0 1.843269 1_555
O3 Ti1 1.843273 1_455
O4 Ti4 1.837877 1_555
O4 Ti8 1.837877 1_555
O5 Ti6 1.839331 1_555
O5 Ti1 2.120299 1_565
O5 Ti0 2.120299 1_565
O6 Ti2 1.962495 1_555
O6 Ti8 1.962495 1_555
O6 Ti4 1.962500 1_555
O7 Ti6 1.839331 1_555
O7 Ti0 2.120299 1_555
O7 Ti3 2.120299 1_555
O8 Ti11 1.957378 1_556
O8 Ti1 2.141308 1_555
O8 Ti3 2.141317 1_555
O8 Ti0 2.141317 1_555
O9 Ti2 1.837877 1_555
O9 Ti8 1.837877 1_555
O10 Ti4 1.837877 1_555
O10 Ti2 1.837877 1_555
O11 Ti6 1.839331 1_555
O11 Ti1 2.120299 1_455
O11 Ti3 2.120299 1_455
O12 Ti9 1.893619 1_555
O12 Ti10 1.893624 1_555
O12 Ti5 2.241766 1_555
O13 Ti5 1.816908 1_555
O13 Ti4 2.108546 1_555
O13 Ti2 2.108546 1_455
O14 Ti5 1.816904 1_555
O14 Ti8 2.108546 1_565
O14 Ti2 2.108546 1_455
O15 Ti9 2.000913 1_555
O15 Ti7 2.000922 1_555
O15 Ti10 2.000922 1_555
O16 Ti6 1.928775 1_555
O16 Ti8 2.164670 1_565
O16 Ti2 2.164670 1_455
O16 Ti4 2.164674 1_555
O17 Ti7 1.893619 1_555
O17 Ti10 1.893619 1_555
O17 Ti5 2.241769 1_555
O18 Ti9 1.893619 1_555
O18 Ti7 1.893624 1_555
O18 Ti5 2.241766 1_555
O19 Ti5 1.816908 1_555
O19 Ti4 2.108546 1_555
O19 Ti8 2.108546 1_565
O20 Ti11 1.821966 1_555
O20 Ti9 2.116407 1_655
O20 Ti7 2.116407 1_555
O21 Ti11 1.821967 1_555
O21 Ti7 2.116407 1_545
O21 Ti10 2.116407 1_655
O22 Ti7 1.960073 1_445
O22 Ti10 1.960073 1_555
O22 Ti9 1.960077 1_545
O23 Ti11 1.821966 1_555
O23 Ti9 2.116407 1_545
O23 Ti10 2.116407 1_555
