# generated using pymatgen
data_Yb2NiGe6
_symmetry_space_group_name_H-M   'P 1'
_cell_length_a   3.91841700
_cell_length_b   4.12521900
_cell_length_c   11.20856576
_cell_angle_alpha   90.00000000
_cell_angle_beta   100.06676363
_cell_angle_gamma   90.00000000
_symmetry_Int_Tables_number   1
_chemical_formula_structural   Yb2NiGe6
_chemical_formula_sum   'Yb2 Ni1 Ge6'
_cell_volume   178.38963981
_cell_formula_units_Z   1
loop_
 _symmetry_equiv_pos_site_id
 _symmetry_equiv_pos_as_xyz
  1  'x, y, z'
loop_
 _atom_site_type_symbol
 _atom_site_label
 _atom_site_symmetry_multiplicity
 _atom_site_fract_x
 _atom_site_fract_y
 _atom_site_fract_z
 _atom_site_occupancy
  Yb  Yb0  1  0.77890200  0.50000000  0.55780300  1
  Yb  Yb1  1  0.11090900  0.50000000  0.22181800  1
  Ni  Ni0  1  0.55635100  0.00000000  0.11270200  1
  Ge  Ge0  1  0.50020000  0.50000000  0.00040000  1
  Ge  Ge1  1  0.38783000  0.50000000  0.77566000  1
  Ge  Ge2  1  0.99723500  0.00000000  0.99447000  1
  Ge  Ge3  1  0.88403600  0.00000000  0.76807100  1
  Ge  Ge4  1  0.66155500  0.00000000  0.32310900  1
  Ge  Ge5  1  0.22998300  0.00000000  0.45996700  1
loop_
_geom_bond_atom_site_label_1
_geom_bond_atom_site_label_2
_geom_bond_distance
_geom_bond_site_symmetry_2
Ni0 Yb1 3.089169 1_545
Ni0 Yb1 3.089169 1_555
Ni0 Yb1 3.089169 1_645
Ni0 Yb1 3.089169 1_655
Ge0 Ni0 2.406322 1_555
Ge0 Ni0 2.406322 1_565
Ge0 Ge1 2.480232 1_554
Ge0 Ge2 2.845547 1_554
Ge0 Ge2 2.845547 1_564
Ge0 Ge2 2.845547 1_464
Ge0 Ge2 2.845547 1_454
Ge0 Yb1 3.132018 1_555
Ge0 Yb1 3.132018 1_655
Ge1 Ge3 2.846026 1_465
Ge1 Ge3 2.846026 1_455
Ge1 Ge3 2.846028 1_555
Ge1 Ge3 2.846028 1_565
Ge1 Yb0 3.101453 1_455
Ge1 Yb0 3.101455 1_555
Ge2 Ni0 2.353938 1_556
Ge2 Ni0 2.353938 1_656
Ge2 Ge3 2.498541 1_555
Ge2 Yb1 3.248001 1_656
Ge2 Yb1 3.248001 1_646
Ge3 Yb0 3.104701 1_555
Ge3 Yb0 3.104701 1_545
Ge4 Ni0 2.322053 1_555
Ge4 Ge5 2.473800 1_655
Ge4 Ge5 2.473806 1_555
Ge4 Yb1 3.056539 1_645
Ge4 Yb1 3.056539 1_655
Ge4 Yb1 3.056542 1_545
Ge4 Yb1 3.056542 1_555
Ge4 Yb0 3.311026 1_545
Ge4 Yb0 3.311026 1_555
Ge5 Yb0 3.042800 1_455
Ge5 Yb0 3.042800 1_445
Ge5 Yb0 3.042805 1_545
Ge5 Yb0 3.042805 1_555
Ge5 Yb1 3.340938 1_545
Ge5 Yb1 3.340938 1_555
