# generated using pymatgen
data_Nd(AlSi)2
_symmetry_space_group_name_H-M   'P 1'
_cell_length_a   4.20103244
_cell_length_b   4.20103244
_cell_length_c   6.87039705
_cell_angle_alpha   90.00000000
_cell_angle_beta   90.00000000
_cell_angle_gamma   119.99999628
_symmetry_Int_Tables_number   1
_chemical_formula_structural   Nd(AlSi)2
_chemical_formula_sum   'Nd1 Al2 Si2'
_cell_volume   105.00852429
_cell_formula_units_Z   1
loop_
 _symmetry_equiv_pos_site_id
 _symmetry_equiv_pos_as_xyz
  1  'x, y, z'
loop_
 _atom_site_type_symbol
 _atom_site_label
 _atom_site_symmetry_multiplicity
 _atom_site_fract_x
 _atom_site_fract_y
 _atom_site_fract_z
 _atom_site_occupancy
  Nd  Nd0  1  0.00000000  0.00000000  0.00000000  1
  Al  Al0  1  0.33333300  0.66666700  0.63815288  1
  Al  Al1  1  0.66666700  0.33333300  0.36184712  1
  Si  Si0  1  0.33333300  0.66666700  0.27020718  1
  Si  Si1  1  0.66666700  0.33333300  0.72979282  1
loop_
_geom_bond_atom_site_label_1
_geom_bond_atom_site_label_2
_geom_bond_distance
_geom_bond_site_symmetry_2
Nd0 Si1 3.054376 1_454
Nd0 Si0 3.054376 1_545
Nd0 Si0 3.054379 1_555
Nd0 Si1 3.054379 1_444
Nd0 Si0 3.054379 1_445
Nd0 Si1 3.054379 1_554
Al0 Si1 2.505849 1_455
Al0 Si1 2.505849 1_565
Al0 Si1 2.505856 1_555
Al0 Si0 2.527933 1_555
Al1 Si0 2.505849 1_545
Al1 Si0 2.505849 1_655
Al1 Si0 2.505856 1_555
Al1 Si1 2.527933 1_555
