# generated using pymatgen
data_Nd3Lu2(GaO4)3
_symmetry_space_group_name_H-M   'P 1'
_cell_length_a   11.26011080
_cell_length_b   11.26011080
_cell_length_c   11.26011080
_cell_angle_alpha   109.47122063
_cell_angle_beta   109.47122063
_cell_angle_gamma   109.47122063
_symmetry_Int_Tables_number   1
_chemical_formula_structural   Nd3Lu2(GaO4)3
_chemical_formula_sum   'Nd12 Lu8 Ga12 O48'
_cell_volume   1099.02127843
_cell_formula_units_Z   4
loop_
 _symmetry_equiv_pos_site_id
 _symmetry_equiv_pos_as_xyz
  1  'x, y, z'
loop_
 _atom_site_type_symbol
 _atom_site_label
 _atom_site_symmetry_multiplicity
 _atom_site_fract_x
 _atom_site_fract_y
 _atom_site_fract_z
 _atom_site_occupancy
  Nd  Nd0  1  0.25000000  0.37500000  0.12500000  1
  Nd  Nd1  1  0.75000000  0.62500000  0.87500000  1
  Nd  Nd2  1  0.75000000  0.12500000  0.37500000  1
  Nd  Nd3  1  0.12500000  0.25000000  0.37500000  1
  Nd  Nd4  1  0.37500000  0.75000000  0.12500000  1
  Nd  Nd5  1  0.25000000  0.87500000  0.62500000  1
  Nd  Nd6  1  0.87500000  0.75000000  0.62500000  1
  Nd  Nd7  1  0.62500000  0.25000000  0.87500000  1
  Nd  Nd8  1  0.37500000  0.12500000  0.25000000  1
  Nd  Nd9  1  0.62500000  0.87500000  0.75000000  1
  Nd  Nd10  1  0.12500000  0.37500000  0.75000000  1
  Nd  Nd11  1  0.87500000  0.62500000  0.25000000  1
  Lu  Lu0  1  0.00000000  0.00000000  0.00000000  1
  Lu  Lu1  1  0.50000000  0.00000000  0.50000000  1
  Lu  Lu2  1  0.00000000  0.50000000  0.50000000  1
  Lu  Lu3  1  0.50000000  0.00000000  0.00000000  1
  Lu  Lu4  1  0.50000000  0.50000000  0.00000000  1
  Lu  Lu5  1  0.50000000  0.50000000  0.50000000  1
  Lu  Lu6  1  0.00000000  0.00000000  0.50000000  1
  Lu  Lu7  1  0.00000000  0.50000000  0.00000000  1
  Ga  Ga0  1  0.25000000  0.62500000  0.37500000  1
  Ga  Ga1  1  0.75000000  0.37500000  0.62500000  1
  Ga  Ga2  1  0.75000000  0.87500000  0.12500000  1
  Ga  Ga3  1  0.37500000  0.25000000  0.62500000  1
  Ga  Ga4  1  0.62500000  0.75000000  0.37500000  1
  Ga  Ga5  1  0.25000000  0.12500000  0.87500000  1
  Ga  Ga6  1  0.12500000  0.75000000  0.87500000  1
  Ga  Ga7  1  0.87500000  0.25000000  0.12500000  1
  Ga  Ga8  1  0.62500000  0.37500000  0.25000000  1
  Ga  Ga9  1  0.37500000  0.62500000  0.75000000  1
  Ga  Ga10  1  0.87500000  0.12500000  0.75000000  1
  Ga  Ga11  1  0.12500000  0.87500000  0.25000000  1
  O  O0  1  0.47313300  0.37365500  0.28671500  1
  O  O1  1  0.52686700  0.62634500  0.71328500  1
  O  O2  1  0.58694000  0.18641800  0.21328500  1
  O  O3  1  0.91306000  0.12634500  0.59947800  1
  O  O4  1  0.28671500  0.47313300  0.37365500  1
  O  O5  1  0.31358200  0.91306000  0.28671500  1
  O  O6  1  0.41306000  0.81358200  0.78671500  1
  O  O7  1  0.08694000  0.87365500  0.40052200  1
  O  O8  1  0.71328500  0.52686700  0.62634500  1
  O  O9  1  0.68641800  0.08694000  0.71328500  1
  O  O10  1  0.02686700  0.31358200  0.90052200  1
  O  O11  1  0.21328500  0.58694000  0.18641800  1
  O  O12  1  0.12634500  0.02686700  0.21328500  1
  O  O13  1  0.97313300  0.68641800  0.09947800  1
  O  O14  1  0.78671500  0.41306000  0.81358200  1
  O  O15  1  0.87365500  0.97313300  0.78671500  1
  O  O16  1  0.59947800  0.91306000  0.12634500  1
  O  O17  1  0.18641800  0.47313300  0.59947800  1
  O  O18  1  0.40052200  0.08694000  0.87365500  1
  O  O19  1  0.81358200  0.52686700  0.40052200  1
  O  O20  1  0.90052200  0.02686700  0.31358200  1
  O  O21  1  0.37365500  0.58694000  0.90052200  1
  O  O22  1  0.09947800  0.97313300  0.68641800  1
  O  O23  1  0.62634500  0.41306000  0.09947800  1
  O  O24  1  0.37365500  0.28671500  0.47313300  1
  O  O25  1  0.58694000  0.90052200  0.37365500  1
  O  O26  1  0.62634500  0.71328500  0.52686700  1
  O  O27  1  0.41306000  0.09947800  0.62634500  1
  O  O28  1  0.12634500  0.59947800  0.91306000  1
  O  O29  1  0.02686700  0.21328500  0.12634500  1
  O  O30  1  0.87365500  0.40052200  0.08694000  1
  O  O31  1  0.97313300  0.78671500  0.87365500  1
  O  O32  1  0.31358200  0.90052200  0.02686700  1
  O  O33  1  0.91306000  0.28671500  0.31358200  1
  O  O34  1  0.68641800  0.09947800  0.97313300  1
  O  O35  1  0.08694000  0.71328500  0.68641800  1
  O  O36  1  0.18641800  0.21328500  0.58694000  1
  O  O37  1  0.47313300  0.59947800  0.18641800  1
  O  O38  1  0.81358200  0.78671500  0.41306000  1
  O  O39  1  0.52686700  0.40052200  0.81358200  1
  O  O40  1  0.28671500  0.31358200  0.91306000  1
  O  O41  1  0.71328500  0.68641800  0.08694000  1
  O  O42  1  0.21328500  0.12634500  0.02686700  1
  O  O43  1  0.78671500  0.87365500  0.97313300  1
  O  O44  1  0.90052200  0.37365500  0.58694000  1
  O  O45  1  0.09947800  0.62634500  0.41306000  1
  O  O46  1  0.59947800  0.18641800  0.47313300  1
  O  O47  1  0.40052200  0.81358200  0.52686700  1
loop_
_geom_bond_atom_site_label_1
_geom_bond_atom_site_label_2
_geom_bond_distance
_geom_bond_site_symmetry_2
Nd0 O42 2.468294 1_555
Nd0 O40 2.468294 1_554
Nd0 O4 2.468294 1_555
Nd0 O11 2.468294 1_555
Nd0 O10 2.573397 1_554
Nd0 O29 2.573397 1_555
Nd0 O37 2.573397 1_555
Nd0 O0 2.573397 1_555
Nd1 O8 2.468294 1_555
Nd1 O43 2.468294 1_555
Nd1 O14 2.468294 1_555
Nd1 O41 2.468294 1_556
Nd1 O39 2.573397 1_555
Nd1 O13 2.573397 1_556
Nd1 O31 2.573397 1_555
Nd1 O1 2.573397 1_555
Nd2 O16 2.468294 1_545
Nd2 O44 2.468294 1_555
Nd2 O20 2.468294 1_555
Nd2 O46 2.468294 1_555
Nd2 O3 2.573397 1_555
Nd2 O25 2.573397 1_545
Nd2 O2 2.573397 1_555
Nd2 O33 2.573397 1_555
Nd3 O24 2.468294 1_555
Nd3 O33 2.468294 1_455
Nd3 O36 2.468294 1_555
Nd3 O29 2.468294 1_555
Nd3 O4 2.573397 1_555
Nd3 O12 2.573397 1_555
Nd3 O20 2.573397 1_455
Nd3 O17 2.573397 1_555
Nd4 O28 2.468294 1_554
Nd4 O32 2.468294 1_555
Nd4 O25 2.468294 1_555
Nd4 O37 2.468294 1_555
Nd4 O21 2.573397 1_554
Nd4 O16 2.573397 1_555
Nd4 O5 2.573397 1_555
Nd4 O11 2.573397 1_555
Nd5 O47 2.468294 1_555
Nd5 O18 2.468294 1_565
Nd5 O22 2.468294 1_555
Nd5 O45 2.468294 1_555
Nd5 O27 2.573397 1_565
Nd5 O6 2.573397 1_555
Nd5 O7 2.573397 1_555
Nd5 O35 2.573397 1_555
Nd6 O26 2.468294 1_555
Nd6 O31 2.468294 1_555
Nd6 O38 2.468294 1_555
Nd6 O35 2.468294 1_655
Nd6 O22 2.573397 1_655
Nd6 O19 2.573397 1_555
Nd6 O15 2.573397 1_555
Nd6 O8 2.573397 1_555
Nd7 O27 2.468294 1_555
Nd7 O30 2.468294 1_556
Nd7 O34 2.468294 1_555
Nd7 O39 2.468294 1_555
Nd7 O23 2.573397 1_556
Nd7 O9 2.573397 1_555
Nd7 O14 2.573397 1_555
Nd7 O18 2.573397 1_555
Nd8 O12 2.468294 1_555
Nd8 O0 2.468294 1_555
Nd8 O5 2.468294 1_545
Nd8 O2 2.468294 1_555
Nd8 O24 2.573397 1_555
Nd8 O32 2.573397 1_545
Nd8 O42 2.573397 1_555
Nd8 O46 2.573397 1_555
Nd9 O1 2.468294 1_555
Nd9 O15 2.468294 1_555
Nd9 O9 2.468294 1_565
Nd9 O6 2.468294 1_555
Nd9 O34 2.573397 1_565
Nd9 O47 2.573397 1_555
Nd9 O26 2.573397 1_555
Nd9 O43 2.573397 1_555
Nd10 O3 2.468294 1_455
Nd10 O21 2.468294 1_555
Nd10 O10 2.468294 1_555
Nd10 O17 2.468294 1_555
Nd10 O28 2.573397 1_555
Nd10 O36 2.573397 1_555
Nd10 O44 2.573397 1_455
Nd10 O40 2.573397 1_555
Nd11 O23 2.468294 1_555
Nd11 O13 2.468294 1_555
Nd11 O7 2.468294 1_655
Nd11 O19 2.468294 1_555
Nd11 O45 2.573397 1_655
Nd11 O30 2.573397 1_555
Nd11 O41 2.573397 1_555
Nd11 O38 2.573397 1_555
Lu0 O31 2.198669 1_444
Lu0 O15 2.198669 1_444
Lu0 O43 2.198669 1_444
Lu0 O29 2.198669 1_555
Lu0 O42 2.198669 1_555
Lu0 O12 2.198669 1_555
Lu1 O5 2.198669 1_545
Lu1 O25 2.198669 1_545
Lu1 O47 2.198669 1_545
Lu1 O46 2.198669 1_555
Lu1 O9 2.198669 1_555
Lu1 O27 2.198669 1_555
Lu2 O19 2.198669 1_455
Lu2 O35 2.198669 1_555
Lu2 O33 2.198669 1_455
Lu2 O17 2.198669 1_555
Lu2 O44 2.198669 1_455
Lu2 O45 2.198669 1_555
Lu3 O6 2.198669 1_544
Lu3 O34 2.198669 1_554
Lu3 O32 2.198669 1_545
Lu3 O2 2.198669 1_555
Lu3 O16 2.198669 1_545
Lu3 O18 2.198669 1_554
Lu4 O41 2.198669 1_555
Lu4 O39 2.198669 1_554
Lu4 O21 2.198669 1_554
Lu4 O40 2.198669 1_554
Lu4 O37 2.198669 1_555
Lu4 O23 2.198669 1_555
Lu5 O26 2.198669 1_555
Lu5 O1 2.198669 1_555
Lu5 O8 2.198669 1_555
Lu5 O0 2.198669 1_555
Lu5 O4 2.198669 1_555
Lu5 O24 2.198669 1_555
Lu6 O38 2.198669 1_445
Lu6 O20 2.198669 1_455
Lu6 O22 2.198669 1_545
Lu6 O36 2.198669 1_555
Lu6 O3 2.198669 1_455
Lu6 O7 2.198669 1_545
Lu7 O14 2.198669 1_454
Lu7 O13 2.198669 1_455
Lu7 O10 2.198669 1_554
Lu7 O28 2.198669 1_554
Lu7 O11 2.198669 1_555
Lu7 O30 2.198669 1_455
Ga0 O4 1.885096 1_555
Ga0 O45 1.885096 1_555
Ga0 O11 1.885096 1_555
Ga0 O47 1.885096 1_555
Ga1 O46 1.885096 1_555
Ga1 O8 1.885096 1_555
Ga1 O44 1.885096 1_555
Ga1 O14 1.885096 1_555
Ga2 O43 1.885096 1_554
Ga2 O20 1.885096 1_565
Ga2 O41 1.885096 1_555
Ga2 O16 1.885096 1_555
Ga3 O24 1.885096 1_555
Ga3 O36 1.885096 1_555
Ga3 O27 1.885096 1_555
Ga3 O39 1.885096 1_555
Ga4 O26 1.885096 1_555
Ga4 O37 1.885096 1_555
Ga4 O38 1.885096 1_555
Ga4 O25 1.885096 1_555
Ga5 O42 1.885096 1_556
Ga5 O18 1.885096 1_555
Ga5 O22 1.885096 1_545
Ga5 O40 1.885096 1_555
Ga6 O31 1.885096 1_455
Ga6 O35 1.885096 1_555
Ga6 O28 1.885096 1_555
Ga6 O32 1.885096 1_556
Ga7 O30 1.885096 1_555
Ga7 O29 1.885096 1_655
Ga7 O34 1.885096 1_554
Ga7 O33 1.885096 1_555
Ga8 O19 1.885096 1_555
Ga8 O23 1.885096 1_555
Ga8 O0 1.885096 1_555
Ga8 O2 1.885096 1_555
Ga9 O1 1.885096 1_555
Ga9 O17 1.885096 1_555
Ga9 O6 1.885096 1_555
Ga9 O21 1.885096 1_555
Ga10 O15 1.885096 1_545
Ga10 O9 1.885096 1_555
Ga10 O3 1.885096 1_555
Ga10 O10 1.885096 1_655
Ga11 O12 1.885096 1_565
Ga11 O7 1.885096 1_555
Ga11 O13 1.885096 1_455
Ga11 O5 1.885096 1_555
