# generated using pymatgen
data_MgNiSbP2O9
_symmetry_space_group_name_H-M   'P 1'
_cell_length_a   6.49083200
_cell_length_b   7.31408200
_cell_length_c   14.56698300
_cell_angle_alpha   90.00000000
_cell_angle_beta   90.00000000
_cell_angle_gamma   90.00000000
_symmetry_Int_Tables_number   1
_chemical_formula_structural   MgNiSbP2O9
_chemical_formula_sum   'Mg4 Ni4 Sb4 P8 O36'
_cell_volume   691.55990662
_cell_formula_units_Z   4
loop_
 _symmetry_equiv_pos_site_id
 _symmetry_equiv_pos_as_xyz
  1  'x, y, z'
loop_
 _atom_site_type_symbol
 _atom_site_label
 _atom_site_symmetry_multiplicity
 _atom_site_fract_x
 _atom_site_fract_y
 _atom_site_fract_z
 _atom_site_occupancy
  Mg  Mg0  1  0.25000000  0.44478000  0.30360200  1
  Mg  Mg1  1  0.25000000  0.05522000  0.80360200  1
  Mg  Mg2  1  0.75000000  0.55522000  0.69639800  1
  Mg  Mg3  1  0.75000000  0.94478000  0.19639800  1
  Ni  Ni0  1  0.00000000  0.50000000  0.50000000  1
  Ni  Ni1  1  0.00000000  0.00000000  0.00000000  1
  Ni  Ni2  1  0.50000000  0.00000000  0.00000000  1
  Ni  Ni3  1  0.50000000  0.50000000  0.50000000  1
  Sb  Sb0  1  0.25000000  0.86635900  0.38142600  1
  Sb  Sb1  1  0.75000000  0.13364100  0.61857400  1
  Sb  Sb2  1  0.75000000  0.36635900  0.11857400  1
  Sb  Sb3  1  0.25000000  0.63364100  0.88142600  1
  P  P0  1  0.75000000  0.86432200  0.41879300  1
  P  P1  1  0.25000000  0.13567800  0.58120700  1
  P  P2  1  0.25000000  0.36432200  0.08120700  1
  P  P3  1  0.75000000  0.63567800  0.91879300  1
  P  P4  1  0.25000000  0.88104100  0.18769300  1
  P  P5  1  0.75000000  0.11895900  0.81230700  1
  P  P6  1  0.75000000  0.38104100  0.31230700  1
  P  P7  1  0.25000000  0.61895900  0.68769300  1
  O  O0  1  0.54641100  0.11920700  0.86881300  1
  O  O1  1  0.04641100  0.88079300  0.13118700  1
  O  O2  1  0.45358900  0.61920700  0.63118700  1
  O  O3  1  0.95358900  0.38079300  0.36881300  1
  O  O4  1  0.45358900  0.88079300  0.13118700  1
  O  O5  1  0.95358900  0.11920700  0.86881300  1
  O  O6  1  0.54641100  0.38079300  0.36881300  1
  O  O7  1  0.04641100  0.61920700  0.63118700  1
  O  O8  1  0.75000000  0.81451000  0.97490000  1
  O  O9  1  0.25000000  0.18549000  0.02510000  1
  O  O10  1  0.25000000  0.31451000  0.52510000  1
  O  O11  1  0.75000000  0.68549000  0.47490000  1
  O  O12  1  0.25000000  0.61281200  0.43086000  1
  O  O13  1  0.75000000  0.38718800  0.56914000  1
  O  O14  1  0.75000000  0.11281200  0.06914000  1
  O  O15  1  0.25000000  0.88718800  0.93086000  1
  O  O16  1  0.25000000  0.70834800  0.25375500  1
  O  O17  1  0.75000000  0.29165200  0.74624500  1
  O  O18  1  0.75000000  0.20834800  0.24624500  1
  O  O19  1  0.25000000  0.79165200  0.75375500  1
  O  O20  1  0.93199500  0.62997500  0.84832900  1
  O  O21  1  0.43199500  0.37002500  0.15167100  1
  O  O22  1  0.06800500  0.12997500  0.65167100  1
  O  O23  1  0.56800500  0.87002500  0.34832900  1
  O  O24  1  0.06800500  0.37002500  0.15167100  1
  O  O25  1  0.56800500  0.62997500  0.84832900  1
  O  O26  1  0.93199500  0.87002500  0.34832900  1
  O  O27  1  0.43199500  0.12997500  0.65167100  1
  O  O28  1  0.25000000  0.45713200  0.75755000  1
  O  O29  1  0.75000000  0.54286800  0.24245000  1
  O  O30  1  0.75000000  0.95713200  0.74245000  1
  O  O31  1  0.25000000  0.04286800  0.25755000  1
  O  O32  1  0.25000000  0.53754700  0.02308600  1
  O  O33  1  0.75000000  0.46245300  0.97691400  1
  O  O34  1  0.75000000  0.03754700  0.47691400  1
  O  O35  1  0.25000000  0.96245300  0.52308600  1
loop_
_geom_bond_atom_site_label_1
_geom_bond_atom_site_label_2
_geom_bond_distance
_geom_bond_site_symmetry_2
Mg0 O16 2.059976 1_555
Mg0 O6 2.196131 1_555
Mg0 O3 2.196131 1_455
Mg0 O12 2.224160 1_555
Mg0 O21 2.567600 1_555
Mg0 O24 2.567600 1_555
Mg1 O19 2.059976 1_545
Mg1 O0 2.196131 1_555
Mg1 O5 2.196131 1_455
Mg1 O15 2.224160 1_545
Mg1 O27 2.567600 1_555
Mg1 O22 2.567600 1_555
Mg2 O17 2.059976 1_555
Mg2 O7 2.196131 1_655
Mg2 O2 2.196131 1_555
Mg2 O13 2.224160 1_555
Mg2 O20 2.567600 1_555
Mg2 O25 2.567600 1_555
Mg3 O18 2.059976 1_565
Mg3 O1 2.196131 1_655
Mg3 O4 2.196131 1_555
Mg3 O14 2.224160 1_565
Mg3 O26 2.567600 1_555
Mg3 O23 2.567600 1_555
Ni0 O12 2.080474 1_555
Ni0 O13 2.080474 1_455
Ni0 O7 2.121994 1_555
Ni0 O3 2.121994 1_455
Ni0 O11 2.146502 1_455
Ni0 O10 2.146502 1_555
Ni1 O15 2.080474 1_544
Ni1 O14 2.080474 1_455
Ni1 O5 2.121994 1_454
Ni1 O1 2.121994 1_545
Ni1 O8 2.146502 1_444
Ni1 O9 2.146502 1_555
Ni2 O15 2.080474 1_544
Ni2 O14 2.080474 1_555
Ni2 O0 2.121994 1_554
Ni2 O4 2.121994 1_545
Ni2 O8 2.146502 1_544
Ni2 O9 2.146502 1_555
Ni3 O12 2.080474 1_555
Ni3 O13 2.080474 1_555
Ni3 O2 2.121994 1_555
Ni3 O6 2.121994 1_555
Ni3 O11 2.146502 1_555
Ni3 O10 2.146502 1_555
O0 P5 1.556854 1_555
O1 P4 1.556854 1_555
O2 P7 1.556854 1_555
O3 P6 1.556854 1_555
O4 P4 1.556854 1_555
O5 P5 1.556854 1_555
O6 P6 1.556854 1_555
O7 P7 1.556854 1_555
O8 P3 1.542348 1_555
O9 P2 1.542348 1_555
O10 P1 1.542348 1_555
O11 P0 1.542348 1_555
O12 Sb0 1.989368 1_555
O13 Sb1 1.989368 1_555
O14 Sb2 1.989368 1_555
O15 Sb3 1.989368 1_555
O16 P4 1.587912 1_555
O16 Sb0 2.189621 1_555
O17 P5 1.587912 1_555
O17 Sb1 2.189621 1_555
O18 P6 1.587912 1_555
O18 Sb2 2.189621 1_555
O19 P7 1.587912 1_555
O19 Sb3 2.189621 1_555
O20 P3 1.565504 1_555
O20 Sb3 2.119845 1_655
O21 P2 1.565504 1_555
O21 Sb2 2.119845 1_555
O22 P1 1.565504 1_555
O22 Sb1 2.119845 1_455
O23 P0 1.565504 1_555
O23 Sb0 2.119845 1_555
O24 P2 1.565504 1_555
O24 Sb2 2.119845 1_455
O25 P3 1.565504 1_555
O25 Sb3 2.119845 1_555
O26 P0 1.565504 1_555
O26 Sb0 2.119845 1_655
O27 P1 1.565504 1_555
O27 Sb1 2.119845 1_555
O28 P7 1.560919 1_555
O28 Sb3 2.218762 1_555
O29 P6 1.560919 1_555
O29 Sb2 2.218762 1_555
O30 P5 1.560919 1_565
O30 Sb1 2.218762 1_565
O31 P4 1.560919 1_545
O31 Sb0 2.218762 1_545
O32 P2 1.523829 1_555
O32 Sb3 2.179967 1_554
O33 P3 1.523829 1_555
O33 Sb2 2.179967 1_556
O34 P0 1.523829 1_545
O34 Sb1 2.179967 1_555
O35 P1 1.523829 1_565
O35 Sb0 2.179967 1_555
