# generated using pymatgen
data_LaVS3
_symmetry_space_group_name_H-M   'P 1'
_cell_length_a   3.83711500
_cell_length_b   7.80645400
_cell_length_c   13.23313800
_cell_angle_alpha   90.00000000
_cell_angle_beta   90.00000000
_cell_angle_gamma   90.00000000
_symmetry_Int_Tables_number   1
_chemical_formula_structural   LaVS3
_chemical_formula_sum   'La4 V4 S12'
_cell_volume   396.38887930
_cell_formula_units_Z   4
loop_
 _symmetry_equiv_pos_site_id
 _symmetry_equiv_pos_as_xyz
  1  'x, y, z'
loop_
 _atom_site_type_symbol
 _atom_site_label
 _atom_site_symmetry_multiplicity
 _atom_site_fract_x
 _atom_site_fract_y
 _atom_site_fract_z
 _atom_site_occupancy
  La  La0  1  0.25000000  0.92218900  0.16828600  1
  La  La1  1  0.75000000  0.07781100  0.83171400  1
  La  La2  1  0.75000000  0.57781100  0.66828600  1
  La  La3  1  0.25000000  0.42218900  0.33171400  1
  V  V0  1  0.25000000  0.64073700  0.95357200  1
  V  V1  1  0.75000000  0.35926300  0.04642800  1
  V  V2  1  0.75000000  0.85926300  0.45357200  1
  V  V3  1  0.25000000  0.14073700  0.54642800  1
  S  S0  1  0.25000000  0.52190700  0.11283200  1
  S  S1  1  0.75000000  0.47809300  0.88716800  1
  S  S2  1  0.75000000  0.97809300  0.61283200  1
  S  S3  1  0.25000000  0.02190700  0.38716800  1
  S  S4  1  0.25000000  0.66989300  0.50477700  1
  S  S5  1  0.75000000  0.33010700  0.49522300  1
  S  S6  1  0.75000000  0.83010700  0.00477700  1
  S  S7  1  0.25000000  0.16989300  0.99522300  1
  S  S8  1  0.25000000  0.79387500  0.78942400  1
  S  S9  1  0.75000000  0.20612500  0.21057600  1
  S  S10  1  0.75000000  0.70612500  0.28942400  1
  S  S11  1  0.25000000  0.29387500  0.71057600  1
loop_
_geom_bond_atom_site_label_1
_geom_bond_atom_site_label_2
_geom_bond_distance
_geom_bond_site_symmetry_2
La0 S6 2.979823 1_455
La0 S6 2.979823 1_555
La0 S9 2.984471 1_465
La0 S9 2.984471 1_565
La0 S7 2.997335 1_564
La0 S3 2.999277 1_565
La0 S10 3.015878 1_555
La0 S10 3.015878 1_455
La0 S0 3.209794 1_555
La1 S7 2.979823 1_555
La1 S7 2.979823 1_655
La1 S8 2.984471 1_545
La1 S8 2.984471 1_645
La1 S6 2.997335 1_546
La1 S2 2.999277 1_545
La1 S11 3.015878 1_555
La1 S11 3.015878 1_655
La1 S1 3.209794 1_555
La2 S4 2.979823 1_555
La2 S4 2.979823 1_655
La2 S11 2.984471 1_555
La2 S11 2.984471 1_655
La2 S5 2.997335 1_555
La2 S1 2.999277 1_555
La2 S8 3.015878 1_555
La2 S8 3.015878 1_655
La2 S2 3.209794 1_555
La3 S5 2.979823 1_455
La3 S5 2.979823 1_555
La3 S10 2.984471 1_455
La3 S10 2.984471 1_555
La3 S4 2.997335 1_555
La3 S0 2.999277 1_555
La3 S9 3.015878 1_555
La3 S9 3.015878 1_455
La3 S3 3.209794 1_555
S0 V0 2.302632 1_554
S0 V1 2.462743 1_455
S0 V1 2.462743 1_555
S1 V1 2.302632 1_556
S1 V0 2.462743 1_555
S1 V0 2.462743 1_655
S2 V2 2.302632 1_555
S2 V3 2.462743 1_665
S2 V3 2.462743 1_565
S3 V3 2.302632 1_555
S3 V2 2.462743 1_445
S3 V2 2.462743 1_545
S4 V2 2.515036 1_455
S4 V2 2.515036 1_555
S5 V3 2.515036 1_555
S5 V3 2.515036 1_655
S6 V0 2.515036 1_554
S6 V0 2.515036 1_654
S7 V1 2.515036 1_456
S7 V1 2.515036 1_556
S8 V0 2.479427 1_555
S9 V1 2.479427 1_555
S10 V2 2.479427 1_555
S11 V3 2.479427 1_555
