# generated using pymatgen
data_RbO2F
_symmetry_space_group_name_H-M   'P 1'
_cell_length_a   12.17326000
_cell_length_b   12.17326000
_cell_length_c   4.34308800
_cell_angle_alpha   90.00000000
_cell_angle_beta   90.00000000
_cell_angle_gamma   90.00000000
_symmetry_Int_Tables_number   1
_chemical_formula_structural   RbO2F
_chemical_formula_sum   'Rb8 O16 F8'
_cell_volume   643.59464952
_cell_formula_units_Z   8
loop_
 _symmetry_equiv_pos_site_id
 _symmetry_equiv_pos_as_xyz
  1  'x, y, z'
loop_
 _atom_site_type_symbol
 _atom_site_label
 _atom_site_symmetry_multiplicity
 _atom_site_fract_x
 _atom_site_fract_y
 _atom_site_fract_z
 _atom_site_occupancy
  Rb  Rb0  1  0.73384200  0.76615800  0.75078100  1
  Rb  Rb1  1  0.26615800  0.23384200  0.75078100  1
  Rb  Rb2  1  0.23384200  0.73384200  0.24921900  1
  Rb  Rb3  1  0.76615800  0.26615800  0.24921900  1
  Rb  Rb4  1  0.00000000  0.50000000  0.25888500  1
  Rb  Rb5  1  0.50000000  0.00000000  0.74111500  1
  Rb  Rb6  1  0.00000000  0.00000000  0.00000000  1
  Rb  Rb7  1  0.50000000  0.50000000  0.00000000  1
  O  O0  1  0.29487400  0.49257900  0.38187800  1
  O  O1  1  0.70512600  0.50742100  0.38187800  1
  O  O2  1  0.50742100  0.29487400  0.61812200  1
  O  O3  1  0.20512600  0.99257900  0.61812200  1
  O  O4  1  0.49257900  0.70512600  0.61812200  1
  O  O5  1  0.79487400  0.00742100  0.61812200  1
  O  O6  1  0.99257900  0.79487400  0.38187800  1
  O  O7  1  0.00742100  0.20512600  0.38187800  1
  O  O8  1  0.21507100  0.99786400  0.33161000  1
  O  O9  1  0.78492900  0.00213600  0.33161000  1
  O  O10  1  0.00213600  0.21507100  0.66839000  1
  O  O11  1  0.28492900  0.49786400  0.66839000  1
  O  O12  1  0.99786400  0.78492900  0.66839000  1
  O  O13  1  0.71507100  0.50213600  0.66839000  1
  O  O14  1  0.49786400  0.71507100  0.33161000  1
  O  O15  1  0.50213600  0.28492900  0.33161000  1
  F  F0  1  0.16924400  0.33075600  0.23703700  1
  F  F1  1  0.83075600  0.66924400  0.23703700  1
  F  F2  1  0.66924400  0.16924400  0.76296300  1
  F  F3  1  0.33075600  0.83075600  0.76296300  1
  F  F4  1  0.62034600  0.87965400  0.22703000  1
  F  F5  1  0.37965400  0.12034600  0.22703000  1
  F  F6  1  0.12034600  0.62034600  0.77297000  1
  F  F7  1  0.87965400  0.37965400  0.77297000  1
loop_
_geom_bond_atom_site_label_1
_geom_bond_atom_site_label_2
_geom_bond_distance
_geom_bond_site_symmetry_2
O0 O11 1.251876 1_555
O0 Rb7 2.999025 1_555
O0 Rb2 3.083773 1_555
O1 O13 1.251876 1_555
O1 Rb7 2.999025 1_555
O1 Rb3 3.083773 1_555
O2 Rb7 2.999025 1_556
O2 Rb1 3.083773 1_555
O3 O8 1.251876 1_555
O3 Rb6 2.999025 1_566
O3 Rb1 3.083773 1_565
O4 Rb7 2.999025 1_556
O4 Rb0 3.083773 1_555
O5 O9 1.251876 1_555
O5 Rb6 2.999025 1_656
O5 Rb0 3.083773 1_545
O6 Rb6 2.999025 1_665
O6 Rb2 3.083773 1_655
O7 Rb6 2.999025 1_555
O7 Rb3 3.083773 1_455
O8 Rb6 2.988212 1_565
O8 Rb2 3.241930 1_555
O9 Rb6 2.988212 1_655
O9 Rb3 3.241930 1_555
O10 O7 1.251876 1_555
O10 Rb6 2.988212 1_556
O10 Rb1 3.241930 1_555
O11 Rb7 2.988212 1_556
O11 Rb1 3.241930 1_555
O12 O6 1.251876 1_555
O12 Rb6 2.988212 1_666
O12 Rb0 3.241930 1_555
O13 Rb7 2.988212 1_556
O13 Rb0 3.241930 1_555
O14 O4 1.251876 1_555
O14 Rb7 2.988212 1_555
O14 Rb2 3.241930 1_555
O15 O2 1.251876 1_555
O15 Rb7 2.988212 1_555
O15 Rb3 3.241930 1_555
F0 Rb1 2.691391 1_554
F0 Rb1 2.786050 1_555
F0 Rb4 2.915180 1_555
F1 Rb0 2.691391 1_554
F1 Rb0 2.786050 1_555
F1 Rb4 2.915180 1_655
F2 Rb3 2.691391 1_556
F2 Rb3 2.786050 1_555
F2 Rb5 2.915180 1_555
F3 Rb2 2.691391 1_556
F3 Rb2 2.786050 1_555
F3 Rb5 2.915180 1_565
F4 Rb0 2.845342 1_554
F4 Rb5 2.957387 1_564
F4 Rb0 2.998662 1_555
F4 Rb5 3.045897 1_565
F5 Rb1 2.845342 1_554
F5 Rb5 2.957387 1_554
F5 Rb1 2.998662 1_555
F5 Rb5 3.045897 1_555
F6 Rb2 2.845342 1_556
F6 Rb4 2.957387 1_556
F6 Rb2 2.998662 1_555
F6 Rb4 3.045897 1_555
F7 Rb3 2.845342 1_556
F7 Rb4 2.957387 1_656
F7 Rb3 2.998662 1_555
F7 Rb4 3.045897 1_655
