# generated using pymatgen
data_Pb11(CN5)2
_symmetry_space_group_name_H-M   'P 1'
_cell_length_a   16.23163100
_cell_length_b   16.23163100
_cell_length_c   3.60557700
_cell_angle_alpha   90.00000000
_cell_angle_beta   90.00000000
_cell_angle_gamma   90.00000000
_symmetry_Int_Tables_number   1
_chemical_formula_structural   Pb11(CN5)2
_chemical_formula_sum   'Pb22 C4 N20'
_cell_volume   949.94639073
_cell_formula_units_Z   2
loop_
 _symmetry_equiv_pos_site_id
 _symmetry_equiv_pos_as_xyz
  1  'x, y, z'
loop_
 _atom_site_type_symbol
 _atom_site_label
 _atom_site_symmetry_multiplicity
 _atom_site_fract_x
 _atom_site_fract_y
 _atom_site_fract_z
 _atom_site_occupancy
  Pb  Pb0  1  0.50000000  0.50000000  0.50000000  1
  Pb  Pb1  1  0.00000000  0.00000000  0.00000000  1
  Pb  Pb2  1  0.98947200  0.79361700  0.50000000  1
  Pb  Pb3  1  0.01052800  0.20638300  0.50000000  1
  Pb  Pb4  1  0.51052800  0.29361700  0.00000000  1
  Pb  Pb5  1  0.48947200  0.70638300  0.00000000  1
  Pb  Pb6  1  0.79361700  0.98947200  0.50000000  1
  Pb  Pb7  1  0.20638300  0.01052800  0.50000000  1
  Pb  Pb8  1  0.29361700  0.51052800  0.00000000  1
  Pb  Pb9  1  0.70638300  0.48947200  0.00000000  1
  Pb  Pb10  1  0.66722800  0.66722800  0.50000000  1
  Pb  Pb11  1  0.33277200  0.33277200  0.50000000  1
  Pb  Pb12  1  0.83277200  0.16722800  0.00000000  1
  Pb  Pb13  1  0.16722800  0.83277200  0.00000000  1
  Pb  Pb14  1  0.36576100  0.87268600  0.50000000  1
  Pb  Pb15  1  0.63423900  0.12731400  0.50000000  1
  Pb  Pb16  1  0.13423900  0.37268600  0.00000000  1
  Pb  Pb17  1  0.86576100  0.62731400  0.00000000  1
  Pb  Pb18  1  0.87268600  0.36576100  0.50000000  1
  Pb  Pb19  1  0.12731400  0.63423900  0.50000000  1
  Pb  Pb20  1  0.37268600  0.13423900  0.00000000  1
  Pb  Pb21  1  0.62731400  0.86576100  0.00000000  1
  C  C0  1  0.32571500  0.67428500  0.50000000  1
  C  C1  1  0.67428500  0.32571500  0.50000000  1
  C  C2  1  0.17428500  0.17428500  0.00000000  1
  C  C3  1  0.82571500  0.82571500  0.00000000  1
  N  N0  1  0.08840100  0.91159900  0.50000000  1
  N  N1  1  0.91159900  0.08840100  0.50000000  1
  N  N2  1  0.41159900  0.41159900  0.00000000  1
  N  N3  1  0.58840100  0.58840100  0.00000000  1
  N  N4  1  0.42745000  0.21181600  0.50000000  1
  N  N5  1  0.57255000  0.78818400  0.50000000  1
  N  N6  1  0.07255000  0.71181600  0.00000000  1
  N  N7  1  0.92745000  0.28818400  0.00000000  1
  N  N8  1  0.21181600  0.42745000  0.50000000  1
  N  N9  1  0.78818400  0.57255000  0.50000000  1
  N  N10  1  0.71181600  0.07255000  0.00000000  1
  N  N11  1  0.28818400  0.92745000  0.00000000  1
  N  N12  1  0.27181100  0.72818900  0.50000000  1
  N  N13  1  0.72818900  0.27181100  0.50000000  1
  N  N14  1  0.22818900  0.22818900  0.00000000  1
  N  N15  1  0.77181100  0.77181100  0.00000000  1
  N  N16  1  0.38011700  0.61988300  0.50000000  1
  N  N17  1  0.61988300  0.38011700  0.50000000  1
  N  N18  1  0.11988300  0.11988300  0.00000000  1
  N  N19  1  0.88011700  0.88011700  0.00000000  1
loop_
_geom_bond_atom_site_label_1
_geom_bond_atom_site_label_2
_geom_bond_distance
_geom_bond_site_symmetry_2
C0 N12 1.237366 1_555
C0 N16 1.248798 1_555
C1 N13 1.237366 1_555
C1 N17 1.248798 1_555
C2 N14 1.237366 1_555
C2 N18 1.248798 1_555
C3 N15 1.237366 1_555
C3 N19 1.248798 1_555
N0 Pb2 2.499181 1_455
N0 Pb7 2.499181 1_565
N0 Pb13 2.554259 1_555
N0 Pb13 2.554259 1_556
N0 Pb1 2.714384 1_566
N0 Pb1 2.714384 1_565
N1 Pb6 2.499181 1_545
N1 Pb3 2.499181 1_655
N1 Pb12 2.554259 1_555
N1 Pb12 2.554259 1_556
N1 Pb1 2.714384 1_655
N1 Pb1 2.714384 1_656
N2 Pb4 2.499181 1_555
N2 Pb8 2.499181 1_555
N2 Pb11 2.554259 1_555
N2 Pb11 2.554259 1_554
N2 Pb0 2.714384 1_555
N2 Pb0 2.714384 1_554
N3 Pb9 2.499181 1_555
N3 Pb5 2.499181 1_555
N3 Pb10 2.554259 1_555
N3 Pb10 2.554259 1_554
N3 Pb0 2.714384 1_554
N3 Pb0 2.714384 1_555
N4 Pb20 2.371876 1_556
N4 Pb20 2.371876 1_555
N4 Pb11 2.493248 1_555
N4 Pb4 2.613701 1_556
N4 Pb4 2.613701 1_555
N5 Pb21 2.371876 1_556
N5 Pb21 2.371876 1_555
N5 Pb10 2.493248 1_555
N5 Pb5 2.613701 1_555
N5 Pb5 2.613701 1_556
N6 Pb19 2.371876 1_555
N6 Pb19 2.371876 1_554
N6 Pb13 2.493248 1_555
N6 Pb2 2.613701 1_455
N6 Pb2 2.613701 1_454
N7 Pb18 2.371876 1_555
N7 Pb18 2.371876 1_554
N7 Pb12 2.493248 1_555
N7 Pb3 2.613701 1_654
N7 Pb3 2.613701 1_655
N8 Pb16 2.371876 1_556
N8 Pb16 2.371876 1_555
N8 Pb11 2.493248 1_555
N8 Pb8 2.613701 1_556
N8 Pb8 2.613701 1_555
N9 Pb17 2.371876 1_556
N9 Pb17 2.371876 1_555
N9 Pb10 2.493248 1_555
N9 Pb9 2.613701 1_555
N9 Pb9 2.613701 1_556
N10 Pb15 2.371876 1_554
N10 Pb15 2.371876 1_555
N10 Pb12 2.493248 1_555
N10 Pb6 2.613701 1_544
N10 Pb6 2.613701 1_545
N11 Pb14 2.371876 1_554
N11 Pb14 2.371876 1_555
N11 Pb13 2.493248 1_555
N11 Pb7 2.613701 1_565
N11 Pb7 2.613701 1_564
N12 Pb14 2.797590 1_555
N12 Pb19 2.797590 1_555
N13 Pb18 2.797590 1_555
N13 Pb15 2.797590 1_555
N14 Pb16 2.797590 1_555
N14 Pb20 2.797590 1_555
N15 Pb21 2.797590 1_555
N15 Pb17 2.797590 1_555
N16 Pb0 2.751913 1_555
N17 Pb0 2.751913 1_555
N18 Pb1 2.751913 1_555
N19 Pb1 2.751913 1_665
