# generated using pymatgen
data_Er16In4Ir4O
_symmetry_space_group_name_H-M   'P 1'
_cell_length_a   9.55097332
_cell_length_b   9.55097332
_cell_length_c   9.55097332
_cell_angle_alpha   60.00000000
_cell_angle_beta   60.00000000
_cell_angle_gamma   60.00000000
_symmetry_Int_Tables_number   1
_chemical_formula_structural   Er16In4Ir4O
_chemical_formula_sum   'Er16 In4 Ir4 O1'
_cell_volume   616.06693104
_cell_formula_units_Z   1
loop_
 _symmetry_equiv_pos_site_id
 _symmetry_equiv_pos_as_xyz
  1  'x, y, z'
loop_
 _atom_site_type_symbol
 _atom_site_label
 _atom_site_symmetry_multiplicity
 _atom_site_fract_x
 _atom_site_fract_y
 _atom_site_fract_z
 _atom_site_occupancy
  Er  Er0  1  0.40079600  0.40079600  0.40079600  1
  Er  Er1  1  0.40079600  0.40079600  0.79761200  1
  Er  Er2  1  0.40079600  0.79761200  0.40079600  1
  Er  Er3  1  0.79761200  0.40079600  0.40079600  1
  Er  Er4  1  0.81570700  0.18429300  0.18429300  1
  Er  Er5  1  0.18429300  0.81570700  0.81570700  1
  Er  Er6  1  0.18429300  0.81570700  0.18429300  1
  Er  Er7  1  0.81570700  0.18429300  0.81570700  1
  Er  Er8  1  0.18429300  0.18429300  0.81570700  1
  Er  Er9  1  0.81570700  0.81570700  0.18429300  1
  Er  Er10  1  0.94135800  0.55864200  0.55864200  1
  Er  Er11  1  0.55864200  0.94135800  0.94135800  1
  Er  Er12  1  0.55864200  0.94135800  0.55864200  1
  Er  Er13  1  0.94135800  0.55864200  0.94135800  1
  Er  Er14  1  0.55864200  0.55864200  0.94135800  1
  Er  Er15  1  0.94135800  0.94135800  0.55864200  1
  In  In0  1  0.16647800  0.16647800  0.16647800  1
  In  In1  1  0.16647800  0.16647800  0.50056500  1
  In  In2  1  0.16647800  0.50056500  0.16647800  1
  In  In3  1  0.50056500  0.16647800  0.16647800  1
  Ir  Ir0  1  0.60879700  0.60879700  0.60879700  1
  Ir  Ir1  1  0.60879700  0.60879700  0.17360800  1
  Ir  Ir2  1  0.60879700  0.17360800  0.60879700  1
  Ir  Ir3  1  0.17360800  0.60879700  0.60879700  1
  O  O0  1  0.00000000  0.00000000  0.00000000  1
loop_
_geom_bond_atom_site_label_1
_geom_bond_atom_site_label_2
_geom_bond_distance
_geom_bond_site_symmetry_2
Er0 Ir2 2.815464 1_555
Er0 Ir1 2.815464 1_555
Er0 Ir3 2.815464 1_555
Er0 In1 3.415902 1_555
Er0 In2 3.415902 1_555
Er0 In3 3.415902 1_555
Er1 Ir0 2.815463 1_555
Er1 Ir3 2.815470 1_555
Er1 Ir2 2.815470 1_555
Er1 In2 3.415894 1_556
Er1 In3 3.415894 1_556
Er1 In0 3.415899 1_556
Er2 Ir0 2.815463 1_555
Er2 Ir3 2.815470 1_555
Er2 Ir1 2.815470 1_555
Er2 In1 3.415894 1_565
Er2 In3 3.415894 1_565
Er2 In0 3.415899 1_565
Er3 Ir0 2.815463 1_555
Er3 Ir2 2.815470 1_555
Er3 Ir1 2.815470 1_555
Er3 In1 3.415894 1_655
Er3 In2 3.415894 1_655
Er3 In0 3.415899 1_655
Er4 O0 2.489267 1_655
Er4 In0 3.189145 1_655
Er4 In3 3.189154 1_555
Er5 O0 2.489267 1_566
Er5 In1 3.189149 1_565
Er5 In2 3.189149 1_556
Er6 O0 2.489267 1_565
Er6 In0 3.189145 1_565
Er6 In2 3.189154 1_555
Er7 O0 2.489267 1_656
Er7 In1 3.189149 1_655
Er7 In3 3.189149 1_556
Er8 O0 2.489267 1_556
Er8 In0 3.189145 1_556
Er8 In1 3.189154 1_555
Er9 O0 2.489267 1_665
Er9 In3 3.189149 1_565
Er9 In2 3.189149 1_655
Er10 Ir3 2.781017 1_655
Er10 Ir0 2.781026 1_555
Er10 In2 3.433864 1_655
Er10 In1 3.433864 1_655
Er11 Ir1 2.781023 1_556
Er11 Ir2 2.781023 1_565
Er11 In3 3.433856 1_566
Er11 In0 3.433860 1_566
Er12 Ir2 2.781017 1_565
Er12 Ir0 2.781026 1_555
Er12 In3 3.433864 1_565
Er12 In1 3.433864 1_565
Er13 Ir1 2.781023 1_556
Er13 Ir3 2.781023 1_655
Er13 In2 3.433856 1_656
Er13 In0 3.433860 1_656
Er14 Ir1 2.781017 1_556
Er14 Ir0 2.781026 1_555
Er14 In3 3.433864 1_556
Er14 In2 3.433864 1_556
Er15 Ir2 2.781023 1_565
Er15 Ir3 2.781023 1_655
Er15 In1 3.433856 1_665
Er15 In0 3.433860 1_665
In0 In3 3.190856 1_555
In0 In1 3.190856 1_555
In0 In2 3.190856 1_555
In1 In3 3.190856 1_555
In1 In2 3.190856 1_555
In2 In3 3.190856 1_555
