# generated using pymatgen
data_YbCuPbS3
_symmetry_space_group_name_H-M   'P 1'
_cell_length_a   6.88574404
_cell_length_b   6.88574404
_cell_length_c   10.46596700
_cell_angle_alpha   90.00000000
_cell_angle_beta   90.00000000
_cell_angle_gamma   147.78366094
_symmetry_Int_Tables_number   1
_chemical_formula_structural   YbCuPbS3
_chemical_formula_sum   'Yb2 Cu2 Pb2 S6'
_cell_volume   264.54776794
_cell_formula_units_Z   2
loop_
 _symmetry_equiv_pos_site_id
 _symmetry_equiv_pos_as_xyz
  1  'x, y, z'
loop_
 _atom_site_type_symbol
 _atom_site_label
 _atom_site_symmetry_multiplicity
 _atom_site_fract_x
 _atom_site_fract_y
 _atom_site_fract_z
 _atom_site_occupancy
  Yb  Yb0  1  0.99422500  0.00577500  0.49605900  1
  Yb  Yb1  1  0.00577500  0.99422500  0.99605900  1
  Cu  Cu0  1  0.47243600  0.52756400  0.24791600  1
  Cu  Cu1  1  0.52756400  0.47243600  0.74791600  1
  Pb  Pb0  1  0.75693100  0.24306900  0.23783200  1
  Pb  Pb1  1  0.24306900  0.75693100  0.73783200  1
  S  S0  1  0.07133300  0.92866700  0.24852200  1
  S  S1  1  0.92866700  0.07133300  0.74852200  1
  S  S2  1  0.35479400  0.64520600  0.41377600  1
  S  S3  1  0.63556800  0.36443200  0.57339500  1
  S  S4  1  0.36443200  0.63556800  0.07339500  1
  S  S5  1  0.64520600  0.35479400  0.91377600  1
loop_
_geom_bond_atom_site_label_1
_geom_bond_atom_site_label_2
_geom_bond_distance
_geom_bond_site_symmetry_2
Cu0 S0 2.315608 1_655
Cu0 S0 2.315608 1_545
Cu0 S4 2.319095 1_555
Cu0 S2 2.331521 1_555
Cu1 S1 2.315608 1_455
Cu1 S1 2.315608 1_565
Cu1 S3 2.319095 1_555
Cu1 S5 2.331521 1_555
Pb0 S4 2.938484 1_655
Pb0 S4 2.938484 1_545
Pb0 S2 2.952495 1_545
Pb0 S2 2.952495 1_655
Pb0 S0 3.113264 1_655
Pb0 S0 3.113264 1_545
Pb1 S3 2.938484 1_565
Pb1 S3 2.938484 1_455
Pb1 S5 2.952495 1_455
Pb1 S5 2.952495 1_565
Pb1 S1 3.113264 1_565
Pb1 S1 3.113264 1_455
S0 Yb1 2.780997 1_554
S0 Yb0 2.784351 1_465
S1 Yb0 2.780997 1_555
S1 Yb1 2.784351 1_645
S2 Yb0 2.791901 1_565
S2 Yb0 2.791901 1_455
S3 Yb0 2.793241 1_455
S3 Yb0 2.793241 1_565
S4 Yb1 2.793241 1_544
S4 Yb1 2.793241 1_654
S5 Yb1 2.791901 1_545
S5 Yb1 2.791901 1_655
