# generated using pymatgen
data_CoCuSe2(ClO5)2
_symmetry_space_group_name_H-M   'P 1'
_cell_length_a   6.81957500
_cell_length_b   8.69445800
_cell_length_c   18.60304000
_cell_angle_alpha   90.00000000
_cell_angle_beta   90.00000000
_cell_angle_gamma   90.00000000
_symmetry_Int_Tables_number   1
_chemical_formula_structural   CoCuSe2(ClO5)2
_chemical_formula_sum   'Co4 Cu4 Se8 Cl8 O40'
_cell_volume   1103.02090575
_cell_formula_units_Z   4
loop_
 _symmetry_equiv_pos_site_id
 _symmetry_equiv_pos_as_xyz
  1  'x, y, z'
loop_
 _atom_site_type_symbol
 _atom_site_label
 _atom_site_symmetry_multiplicity
 _atom_site_fract_x
 _atom_site_fract_y
 _atom_site_fract_z
 _atom_site_occupancy
  Co  Co0  1  0.08543800  0.17016700  0.25000000  1
  Co  Co1  1  0.91456200  0.82983300  0.75000000  1
  Co  Co2  1  0.58543800  0.32983300  0.75000000  1
  Co  Co3  1  0.41456200  0.67016700  0.25000000  1
  Cu  Cu0  1  0.00000000  0.00000000  0.00000000  1
  Cu  Cu1  1  0.50000000  0.50000000  0.00000000  1
  Cu  Cu2  1  0.00000000  0.00000000  0.50000000  1
  Cu  Cu3  1  0.50000000  0.50000000  0.50000000  1
  Se  Se0  1  0.15160400  0.31162200  0.55934600  1
  Se  Se1  1  0.84839600  0.68837800  0.44065400  1
  Se  Se2  1  0.65160400  0.18837800  0.44065400  1
  Se  Se3  1  0.84839600  0.68837800  0.05934600  1
  Se  Se4  1  0.34839600  0.81162200  0.55934600  1
  Se  Se5  1  0.15160400  0.31162200  0.94065400  1
  Se  Se6  1  0.34839600  0.81162200  0.94065400  1
  Se  Se7  1  0.65160400  0.18837800  0.05934600  1
  Cl  Cl0  1  0.01691100  0.00196200  0.66468900  1
  Cl  Cl1  1  0.98308900  0.99803800  0.33531100  1
  Cl  Cl2  1  0.51691100  0.49803800  0.33531100  1
  Cl  Cl3  1  0.98308900  0.99803800  0.16468900  1
  Cl  Cl4  1  0.48308900  0.50196200  0.66468900  1
  Cl  Cl5  1  0.01691100  0.00196200  0.83531100  1
  Cl  Cl6  1  0.48308900  0.50196200  0.83531100  1
  Cl  Cl7  1  0.51691100  0.49803800  0.16468900  1
  O  O0  1  0.23285300  0.47082500  0.99171800  1
  O  O1  1  0.76714700  0.52917500  0.00828200  1
  O  O2  1  0.73285300  0.02917500  0.00828200  1
  O  O3  1  0.76714700  0.52917500  0.49171800  1
  O  O4  1  0.26714700  0.97082500  0.99171800  1
  O  O5  1  0.23285300  0.47082500  0.50828200  1
  O  O6  1  0.26714700  0.97082500  0.50828200  1
  O  O7  1  0.73285300  0.02917500  0.49171800  1
  O  O8  1  0.31699400  0.08398100  0.25000000  1
  O  O9  1  0.68300600  0.91601900  0.75000000  1
  O  O10  1  0.81699400  0.41601900  0.75000000  1
  O  O11  1  0.18300600  0.58398100  0.25000000  1
  O  O12  1  0.46429400  0.11022900  0.10242200  1
  O  O13  1  0.53570600  0.88977100  0.89757800  1
  O  O14  1  0.96429400  0.38977100  0.89757800  1
  O  O15  1  0.53570600  0.88977100  0.60242200  1
  O  O16  1  0.03570600  0.61022900  0.10242200  1
  O  O17  1  0.46429400  0.11022900  0.39757800  1
  O  O18  1  0.03570600  0.61022900  0.39757800  1
  O  O19  1  0.96429400  0.38977100  0.60242200  1
  O  O20  1  0.13319200  0.29123400  0.17971100  1
  O  O21  1  0.86680800  0.70876600  0.82028900  1
  O  O22  1  0.63319200  0.20876600  0.82028900  1
  O  O23  1  0.86680800  0.70876600  0.67971100  1
  O  O24  1  0.36680800  0.79123400  0.17971100  1
  O  O25  1  0.13319200  0.29123400  0.32028900  1
  O  O26  1  0.36680800  0.79123400  0.32028900  1
  O  O27  1  0.63319200  0.20876600  0.67971100  1
  O  O28  1  0.83109000  0.22499200  0.25000000  1
  O  O29  1  0.16891000  0.77500800  0.75000000  1
  O  O30  1  0.33109000  0.27500800  0.75000000  1
  O  O31  1  0.66891000  0.72499200  0.25000000  1
  O  O32  1  0.04524100  0.20889600  0.01371300  1
  O  O33  1  0.95475900  0.79110400  0.98628700  1
  O  O34  1  0.54524100  0.29110400  0.98628700  1
  O  O35  1  0.95475900  0.79110400  0.51371300  1
  O  O36  1  0.45475900  0.70889600  0.01371300  1
  O  O37  1  0.04524100  0.20889600  0.48628700  1
  O  O38  1  0.45475900  0.70889600  0.48628700  1
  O  O39  1  0.54524100  0.29110400  0.51371300  1
loop_
_geom_bond_atom_site_label_1
_geom_bond_atom_site_label_2
_geom_bond_distance
_geom_bond_site_symmetry_2
Co0 O25 1.709923 1_555
Co0 O20 1.709923 1_555
Co0 O8 1.747888 1_555
Co0 O28 1.798851 1_455
Co1 O21 1.709923 1_555
Co1 O23 1.709923 1_555
Co1 O9 1.747888 1_555
Co1 O29 1.798851 1_655
Co2 O22 1.709923 1_555
Co2 O27 1.709923 1_555
Co2 O10 1.747888 1_555
Co2 O30 1.798851 1_555
Co3 O26 1.709923 1_555
Co3 O24 1.709923 1_555
Co3 O11 1.747888 1_555
Co3 O31 1.798851 1_555
Cu0 O4 1.845845 1_544
Cu0 O2 1.845845 1_455
Cu0 O32 1.859834 1_555
Cu0 O33 1.859834 1_444
Cu1 O1 1.845845 1_555
Cu1 O0 1.845845 1_554
Cu1 O36 1.859834 1_555
Cu1 O34 1.859834 1_554
Cu2 O6 1.845845 1_545
Cu2 O7 1.845845 1_455
Cu2 O37 1.859834 1_555
Cu2 O35 1.859834 1_445
Cu3 O3 1.845845 1_555
Cu3 O5 1.845845 1_555
Cu3 O39 1.859834 1_555
Cu3 O38 1.859834 1_555
Cl0 Co1 2.290327 1_445
Cl1 Co0 2.290327 1_665
Cl2 Co3 2.290327 1_555
Cl3 Co0 2.290327 1_665
Cl4 Co2 2.290327 1_555
Cl5 Co1 2.290327 1_445
Cl6 Co2 2.290327 1_555
Cl7 Co3 2.290327 1_555
O0 Se5 1.767872 1_555
O1 Se3 1.767872 1_555
O2 Se7 1.767872 1_555
O3 Se1 1.767872 1_555
O4 Se6 1.767872 1_555
O5 Se0 1.767872 1_555
O6 Se4 1.767872 1_555
O7 Se2 1.767872 1_555
O12 Se7 1.653937 1_555
O13 Se6 1.653937 1_555
O14 Se5 1.653937 1_655
O15 Se4 1.653937 1_555
O16 Se3 1.653937 1_455
O17 Se2 1.653937 1_555
O18 Se1 1.653937 1_455
O19 Se0 1.653937 1_655
O32 Se5 1.780744 1_554
O33 Se3 1.780744 1_556
O34 Se7 1.780744 1_556
O35 Se1 1.780744 1_555
O36 Se6 1.780744 1_554
O37 Se0 1.780744 1_555
O38 Se4 1.780744 1_555
O39 Se2 1.780744 1_555
