# generated using pymatgen
data_CsSnBr3
_symmetry_space_group_name_H-M   'P 1'
_cell_length_a   8.12249560
_cell_length_b   8.22973192
_cell_length_c   11.71381062
_cell_angle_alpha   90.00000000
_cell_angle_beta   90.00000000
_cell_angle_gamma   90.00000000
_symmetry_Int_Tables_number   1
_chemical_formula_structural   CsSnBr3
_chemical_formula_sum   'Cs4 Sn4 Br12'
_cell_volume   783.02093149
_cell_formula_units_Z   4
loop_
 _symmetry_equiv_pos_site_id
 _symmetry_equiv_pos_as_xyz
  1  'x, y, z'
loop_
 _atom_site_type_symbol
 _atom_site_label
 _atom_site_symmetry_multiplicity
 _atom_site_fract_x
 _atom_site_fract_y
 _atom_site_fract_z
 _atom_site_occupancy
  Cs  Cs0  1  0.50757479  0.46158203  0.25000000  1
  Cs  Cs1  1  0.00757479  0.03841797  0.75000000  1
  Cs  Cs2  1  0.99242521  0.96158203  0.25000000  1
  Cs  Cs3  1  0.49242521  0.53841797  0.75000000  1
  Sn  Sn0  1  0.50000000  0.00000000  0.50000000  1
  Sn  Sn1  1  -0.00000000  0.50000000  0.00000000  1
  Sn  Sn2  1  -0.00000000  0.50000000  0.50000000  1
  Sn  Sn3  1  0.50000000  0.00000000  0.00000000  1
  Br  Br0  1  0.54713563  0.99390572  0.75000000  1
  Br  Br1  1  0.04713563  0.50609428  0.25000000  1
  Br  Br2  1  0.79212992  0.20872146  0.02411006  1
  Br  Br3  1  0.20787008  0.79127854  0.97588994  1
  Br  Br4  1  0.29212992  0.29127854  0.97588994  1
  Br  Br5  1  0.70787008  0.70872146  0.02411006  1
  Br  Br6  1  0.29212992  0.29127854  0.52411006  1
  Br  Br7  1  0.70787008  0.70872146  0.47588994  1
  Br  Br8  1  0.20787008  0.79127854  0.52411006  1
  Br  Br9  1  0.79212992  0.20872146  0.47588994  1
  Br  Br10  1  0.95286437  0.49390572  0.75000000  1
  Br  Br11  1  0.45286437  0.00609428  0.25000000  1
loop_
_geom_bond_atom_site_label_1
_geom_bond_atom_site_label_2
_geom_bond_distance
_geom_bond_site_symmetry_2
Br0 Sn0 2.953799 1_565
Br0 Sn3 2.953799 1_566
Br0 Cs1 3.757813 1_665
Br0 Cs3 3.774791 1_555
Br1 Sn2 2.953799 1_555
Br1 Sn1 2.953799 1_555
Br1 Cs0 3.757813 1_555
Br1 Cs2 3.774791 1_455
Br2 Sn3 2.942894 1_555
Br2 Sn1 2.945647 1_655
Br2 Cs2 3.712815 1_545
Br2 Cs1 3.916169 1_654
Br2 Cs0 4.083386 1_555
Br3 Sn3 2.942894 1_566
Br3 Sn1 2.945647 1_556
Br3 Cs1 3.712815 1_565
Br3 Cs2 3.916169 1_456
Br3 Cs3 4.083386 1_555
Br4 Sn1 2.942894 1_556
Br4 Sn3 2.945647 1_556
Br4 Cs3 3.712815 1_555
Br4 Cs0 3.916169 1_556
Br4 Cs1 4.083386 1_555
Br5 Sn1 2.942894 1_655
Br5 Sn3 2.945647 1_565
Br5 Cs0 3.712815 1_555
Br5 Cs3 3.916169 1_554
Br5 Cs2 4.083386 1_555
Br6 Sn2 2.942894 1_555
Br6 Sn0 2.945647 1_555
Br6 Cs3 3.712815 1_555
Br6 Cs0 3.916169 1_555
Br6 Cs1 4.083386 1_555
Br7 Sn2 2.942894 1_655
Br7 Sn0 2.945647 1_565
Br7 Cs0 3.712815 1_555
Br7 Cs3 3.916169 1_555
Br7 Cs2 4.083386 1_555
Br8 Sn0 2.942894 1_565
Br8 Sn2 2.945647 1_555
Br8 Cs1 3.712815 1_565
Br8 Cs2 3.916169 1_455
Br8 Cs3 4.083386 1_555
Br9 Sn0 2.942894 1_555
Br9 Sn2 2.945647 1_655
Br9 Cs2 3.712815 1_545
Br9 Cs1 3.916169 1_655
Br9 Cs0 4.083386 1_555
Br10 Sn2 2.953799 1_655
Br10 Sn1 2.953799 1_656
Br10 Cs3 3.757813 1_555
Br10 Cs1 3.774791 1_655
Br11 Sn3 2.953799 1_555
Br11 Sn0 2.953799 1_555
Br11 Cs2 3.757813 1_445
Br11 Cs0 3.774791 1_555
