# generated using pymatgen
data_Ca2Sn9O13
_symmetry_space_group_name_H-M   'P 1'
_cell_length_a   5.84016657
_cell_length_b   5.84016657
_cell_length_c   22.41696387
_cell_angle_alpha   81.74521483
_cell_angle_beta   81.74521483
_cell_angle_gamma   32.52558787
_symmetry_Int_Tables_number   1
_chemical_formula_structural   Ca2Sn9O13
_chemical_formula_sum   'Ca2 Sn9 O13'
_cell_volume   406.47680588
_cell_formula_units_Z   1
loop_
 _symmetry_equiv_pos_site_id
 _symmetry_equiv_pos_as_xyz
  1  'x, y, z'
loop_
 _atom_site_type_symbol
 _atom_site_label
 _atom_site_symmetry_multiplicity
 _atom_site_fract_x
 _atom_site_fract_y
 _atom_site_fract_z
 _atom_site_occupancy
  Ca  Ca0  1  0.75488300  0.75488300  0.21225200  1
  Ca  Ca1  1  0.24511700  0.24511700  0.78774800  1
  Sn  Sn0  1  0.50000000  0.50000000  0.50000000  1
  Sn  Sn1  1  0.35648800  0.35648800  0.04226400  1
  Sn  Sn2  1  0.64351200  0.64351200  0.95773600  1
  Sn  Sn3  1  0.22550300  0.22550300  0.41651300  1
  Sn  Sn4  1  0.77449700  0.77449700  0.58348700  1
  Sn  Sn5  1  0.05330900  0.05330900  0.13721300  1
  Sn  Sn6  1  0.94669100  0.94669100  0.86278700  1
  Sn  Sn7  1  0.95818200  0.95818200  0.30477000  1
  Sn  Sn8  1  0.04181800  0.04181800  0.69523000  1
  O  O0  1  0.00000000  0.00000000  0.00000000  1
  O  O1  1  0.09689200  0.09689200  0.22687800  1
  O  O2  1  0.90310800  0.90310800  0.77312200  1
  O  O3  1  0.67341700  0.67341700  0.11904400  1
  O  O4  1  0.32658300  0.32658300  0.88095600  1
  O  O5  1  0.41963700  0.41963700  0.13500800  1
  O  O6  1  0.58036300  0.58036300  0.86499200  1
  O  O7  1  0.35468200  0.35468200  0.26875900  1
  O  O8  1  0.64531800  0.64531800  0.73124100  1
  O  O9  1  0.59882200  0.59882200  0.41273000  1
  O  O10  1  0.40117800  0.40117800  0.58727000  1
  O  O11  1  0.88101500  0.88101500  0.48969100  1
  O  O12  1  0.11898500  0.11898500  0.51030900  1
loop_
_geom_bond_atom_site_label_1
_geom_bond_atom_site_label_2
_geom_bond_distance
_geom_bond_site_symmetry_2
Ca0 O1 2.397291 1_565
Ca0 O1 2.397291 1_655
Ca0 O3 2.402314 1_555
Ca0 O7 2.440428 1_565
Ca0 O7 2.440428 1_655
Ca0 O5 2.851173 1_565
Ca0 O5 2.851173 1_655
Ca1 O2 2.397291 1_545
Ca1 O2 2.397291 1_455
Ca1 O4 2.402314 1_555
Ca1 O8 2.440428 1_545
Ca1 O8 2.440428 1_455
Ca1 O6 2.851173 1_455
Ca1 O6 2.851173 1_545
O0 Sn1 2.388715 1_455
O0 Sn1 2.388715 1_545
O0 Sn2 2.388715 1_544
O0 Sn2 2.388715 1_454
O1 Sn5 2.138413 1_555
O1 Sn7 2.157694 1_445
O2 Sn6 2.138413 1_555
O2 Sn8 2.157694 1_665
O3 Sn5 2.119070 1_655
O3 Sn5 2.119070 1_565
O4 Sn6 2.119070 1_455
O4 Sn6 2.119070 1_545
O5 Sn5 2.223971 1_565
O5 Sn5 2.223971 1_655
O5 Sn1 2.294371 1_555
O6 Sn6 2.223971 1_455
O6 Sn6 2.223971 1_545
O6 Sn2 2.294371 1_555
O7 Sn7 2.225672 1_545
O7 Sn7 2.225672 1_455
O8 Sn8 2.225672 1_565
O8 Sn8 2.225672 1_655
O9 Sn0 2.099203 1_555
O9 Sn3 2.176194 1_655
O9 Sn3 2.176194 1_565
O10 Sn0 2.099203 1_555
O10 Sn4 2.176194 1_545
O10 Sn4 2.176194 1_455
O11 Sn0 2.144881 1_655
O11 Sn0 2.144881 1_565
O11 Sn4 2.257516 1_555
O12 Sn0 2.144881 1_455
O12 Sn0 2.144881 1_545
O12 Sn3 2.257516 1_555
