# generated using pymatgen
data_YWO5
_symmetry_space_group_name_H-M   'P 1'
_cell_length_a   5.30339316
_cell_length_b   6.59824560
_cell_length_c   12.79358100
_cell_angle_alpha   90.00000000
_cell_angle_beta   90.00000000
_cell_angle_gamma   108.90106413
_symmetry_Int_Tables_number   1
_chemical_formula_structural   YWO5
_chemical_formula_sum   'Y4 W4 O20'
_cell_volume   423.54736478
_cell_formula_units_Z   4
loop_
 _symmetry_equiv_pos_site_id
 _symmetry_equiv_pos_as_xyz
  1  'x, y, z'
loop_
 _atom_site_type_symbol
 _atom_site_label
 _atom_site_symmetry_multiplicity
 _atom_site_fract_x
 _atom_site_fract_y
 _atom_site_fract_z
 _atom_site_occupancy
  Y  Y0  1  0.14463100  0.78328700  0.44372800  1
  Y  Y1  1  0.85536900  0.21671300  0.55627200  1
  Y  Y2  1  0.35536900  0.71671300  0.94372800  1
  Y  Y3  1  0.64463100  0.28328700  0.05627200  1
  W  W0  1  0.95611200  0.84564200  0.13882000  1
  W  W1  1  0.04388800  0.15435800  0.86118000  1
  W  W2  1  0.54388800  0.65435800  0.63882000  1
  W  W3  1  0.45611200  0.34564200  0.36118000  1
  O  O0  1  0.04376500  0.56518700  0.08807600  1
  O  O1  1  0.95623500  0.43481300  0.91192400  1
  O  O2  1  0.45623500  0.93481300  0.58807600  1
  O  O3  1  0.54376500  0.06518700  0.41192400  1
  O  O4  1  0.85334200  0.84280300  0.57113400  1
  O  O5  1  0.14665800  0.15719700  0.42886600  1
  O  O6  1  0.64665800  0.65719700  0.07113400  1
  O  O7  1  0.35334200  0.34280300  0.92886600  1
  O  O8  1  0.27289700  0.97185000  0.06559700  1
  O  O9  1  0.72710300  0.02815000  0.93440300  1
  O  O10  1  0.22710300  0.52815000  0.56559700  1
  O  O11  1  0.77289700  0.47185000  0.43440300  1
  O  O12  1  0.99884700  0.79231300  0.27418800  1
  O  O13  1  0.00115300  0.20768700  0.72581200  1
  O  O14  1  0.50115300  0.70768700  0.77418800  1
  O  O15  1  0.49884700  0.29231300  0.22581200  1
  O  O16  1  0.15650200  0.92308200  0.85286000  1
  O  O17  1  0.84349800  0.07691800  0.14714000  1
  O  O18  1  0.34349800  0.57691800  0.35286000  1
  O  O19  1  0.65650200  0.42308200  0.64714000  1
loop_
_geom_bond_atom_site_label_1
_geom_bond_atom_site_label_2
_geom_bond_distance
_geom_bond_site_symmetry_2
O0 W0 2.149245 1_455
O0 Y3 2.356942 1_455
O0 Y2 2.463845 1_554
O1 W1 2.149245 1_655
O1 Y2 2.356942 1_655
O1 Y3 2.463845 1_556
O2 W2 2.149245 1_555
O2 Y1 2.356942 1_565
O2 Y0 2.463845 1_555
O3 W3 2.149245 1_555
O3 Y0 2.356942 1_545
O3 Y1 2.463845 1_555
O4 W2 1.915008 1_555
O4 Y0 2.364434 1_655
O4 Y1 2.471015 1_565
O5 W3 1.915008 1_555
O5 Y1 2.364434 1_455
O5 Y0 2.471015 1_545
O6 W0 1.915008 1_555
O6 Y2 2.364434 1_554
O6 Y3 2.471015 1_555
O7 W1 1.915008 1_555
O7 Y3 2.364434 1_556
O7 Y2 2.471015 1_555
O8 W0 1.867393 1_455
O8 Y3 2.344987 1_565
O8 Y2 2.435833 1_554
O9 W1 1.867393 1_655
O9 Y2 2.344987 1_545
O9 Y3 2.435833 1_556
O10 W2 1.867393 1_555
O10 Y1 2.344987 1_455
O10 Y0 2.435833 1_555
O11 W3 1.867393 1_555
O11 Y0 2.344987 1_655
O11 Y1 2.435833 1_555
O12 W0 1.796142 1_555
O12 Y0 2.309936 1_655
O13 W1 1.796142 1_555
O13 Y1 2.309936 1_455
O14 W2 1.796142 1_555
O14 Y2 2.309936 1_555
O15 W3 1.796142 1_555
O15 Y3 2.309936 1_555
O16 W1 1.813066 1_565
O16 Y2 2.290932 1_555
O17 W0 1.813066 1_545
O17 Y3 2.290932 1_555
O18 W3 1.813066 1_555
O18 Y0 2.290932 1_555
O19 W2 1.813066 1_555
O19 Y1 2.290932 1_555
