# generated using pymatgen
data_Sr4Cu3ClO6
_symmetry_space_group_name_H-M   'P 1'
_cell_length_a   6.67141631
_cell_length_b   6.67141631
_cell_length_c   6.67141631
_cell_angle_alpha   109.47122063
_cell_angle_beta   109.47122063
_cell_angle_gamma   109.47122063
_symmetry_Int_Tables_number   1
_chemical_formula_structural   Sr4Cu3ClO6
_chemical_formula_sum   'Sr4 Cu3 Cl1 O6'
_cell_volume   228.57684582
_cell_formula_units_Z   1
loop_
 _symmetry_equiv_pos_site_id
 _symmetry_equiv_pos_as_xyz
  1  'x, y, z'
loop_
 _atom_site_type_symbol
 _atom_site_label
 _atom_site_symmetry_multiplicity
 _atom_site_fract_x
 _atom_site_fract_y
 _atom_site_fract_z
 _atom_site_occupancy
  Sr  Sr0  1  0.50000000  0.50000000  0.50000000  1
  Sr  Sr1  1  0.00000000  0.50000000  0.00000000  1
  Sr  Sr2  1  0.50000000  0.00000000  0.00000000  1
  Sr  Sr3  1  0.00000000  0.00000000  0.50000000  1
  Cu  Cu0  1  0.50000000  0.50000000  0.00000000  1
  Cu  Cu1  1  0.00000000  0.50000000  0.50000000  1
  Cu  Cu2  1  0.50000000  0.00000000  0.50000000  1
  Cl  Cl0  1  0.00000000  0.00000000  0.00000000  1
  O  O0  1  0.25000000  0.50000000  0.75000000  1
  O  O1  1  0.75000000  0.50000000  0.25000000  1
  O  O2  1  0.50000000  0.75000000  0.25000000  1
  O  O3  1  0.50000000  0.25000000  0.75000000  1
  O  O4  1  0.75000000  0.25000000  0.50000000  1
  O  O5  1  0.25000000  0.75000000  0.50000000  1
loop_
_geom_bond_atom_site_label_1
_geom_bond_atom_site_label_2
_geom_bond_distance
_geom_bond_site_symmetry_2
Cu0 O3 1.925872 1_554
Cu0 O0 1.925872 1_554
Cu0 O1 1.925872 1_555
Cu0 O2 1.925872 1_555
Cu1 O4 1.925872 1_455
Cu1 O5 1.925872 1_555
Cu1 O1 1.925872 1_455
Cu1 O0 1.925872 1_555
Cu2 O2 1.925872 1_545
Cu2 O3 1.925872 1_555
Cu2 O5 1.925872 1_545
Cu2 O4 1.925872 1_555
Cl0 Sr3 3.335708 1_554
Cl0 Sr1 3.335708 1_545
Cl0 Sr0 3.335708 1_555
Cl0 Sr3 3.335708 1_555
Cl0 Sr2 3.335708 1_455
Cl0 Sr0 3.335708 1_444
Cl0 Sr1 3.335708 1_555
Cl0 Sr2 3.335708 1_555
O0 Sr3 2.723594 1_555
O0 Sr0 2.723594 1_555
O0 Sr1 2.723594 1_556
O0 Sr2 2.723594 1_566
O1 Sr0 2.723594 1_555
O1 Sr1 2.723594 1_655
O1 Sr3 2.723594 1_665
O1 Sr2 2.723594 1_555
O2 Sr0 2.723594 1_555
O2 Sr1 2.723594 1_555
O2 Sr3 2.723594 1_665
O2 Sr2 2.723594 1_565
O3 Sr3 2.723594 1_555
O3 Sr0 2.723594 1_555
O3 Sr1 2.723594 1_656
O3 Sr2 2.723594 1_556
O4 Sr0 2.723594 1_555
O4 Sr3 2.723594 1_655
O4 Sr1 2.723594 1_656
O4 Sr2 2.723594 1_555
O5 Sr3 2.723594 1_565
O5 Sr0 2.723594 1_555
O5 Sr1 2.723594 1_555
O5 Sr2 2.723594 1_566
