# generated using pymatgen
data_Na3NbS4
_symmetry_space_group_name_H-M   'P 1'
_cell_length_a   8.03283441
_cell_length_b   14.33120546
_cell_length_c   14.90185002
_cell_angle_alpha   85.66797235
_cell_angle_beta   74.36401209
_cell_angle_gamma   73.72447046
_symmetry_Int_Tables_number   1
_chemical_formula_structural   Na3NbS4
_chemical_formula_sum   'Na24 Nb8 S32'
_cell_volume   1585.81456189
_cell_formula_units_Z   8
loop_
 _symmetry_equiv_pos_site_id
 _symmetry_equiv_pos_as_xyz
  1  'x, y, z'
loop_
 _atom_site_type_symbol
 _atom_site_label
 _atom_site_symmetry_multiplicity
 _atom_site_fract_x
 _atom_site_fract_y
 _atom_site_fract_z
 _atom_site_occupancy
  Na  Na0  1  0.56048038  0.80870857  0.27588085  1
  Na  Na1  1  0.64506980  0.19129143  0.72411915  1
  Na  Na2  1  0.11918895  0.69129143  0.77588085  1
  Na  Na3  1  0.58636122  0.30870857  0.22411915  1
  Na  Na4  1  0.12193637  0.72459485  0.18586991  1
  Na  Na5  1  0.03240113  0.27540515  0.81413009  1
  Na  Na6  1  0.59653122  0.77540515  0.68586991  1
  Na  Na7  1  0.05780628  0.22459485  0.31413009  1
  Na  Na8  1  0.92967574  0.74037381  0.44460900  1
  Na  Na9  1  0.11465855  0.25962619  0.55539100  1
  Na  Na10  1  0.42004955  0.75962619  0.94460900  1
  Na  Na11  1  0.12428474  0.24037381  0.05539100  1
  Na  Na12  1  0.73698381  0.99657406  0.49275673  1
  Na  Na13  1  0.22631460  0.00342594  0.50724327  1
  Na  Na14  1  0.48355787  0.50342594  0.99275673  1
  Na  Na15  1  0.97974054  0.49657406  0.00724327  1
  Na  Na16  1  0.61558225  0.54881521  0.25400750  1
  Na  Na17  1  0.41840495  0.45118479  0.74599250  1
  Na  Na18  1  0.91439745  0.95118479  0.75400750  1
  Na  Na19  1  0.61958974  0.04881521  0.24599250  1
  Na  Na20  1  0.75047896  0.50000000  0.50000000  1
  Na  Na21  1  0.00047896  -0.00000000  0.00000000  1
  Na  Na22  1  0.26307211  0.50000000  0.50000000  1
  Na  Na23  1  0.51307211  0.00000000  0.00000000  1
  Nb  Nb0  1  0.09299417  0.98007375  0.23058728  1
  Nb  Nb1  1  0.30365520  0.01992625  0.76941272  1
  Nb  Nb2  1  0.82306793  0.51992625  0.73058728  1
  Nb  Nb3  1  0.07358145  0.48007375  0.26941272  1
  Nb  Nb4  1  0.81934216  0.75472351  0.01241172  1
  Nb  Nb5  1  0.58647739  0.24527649  0.98758828  1
  Nb  Nb6  1  0.32406567  0.74527649  0.51241172  1
  Nb  Nb7  1  0.58175388  0.25472351  0.48758828  1
  S  S0  1  0.34483052  0.50162736  0.18814787  1
  S  S1  1  0.03460576  0.49837264  0.81185213  1
  S  S2  1  0.59645789  0.99837264  0.68814787  1
  S  S3  1  0.28297839  0.00162736  0.31185213  1
  S  S4  1  0.86729688  0.62762092  0.31218791  1
  S  S5  1  0.80710570  0.37237908  0.68781209  1
  S  S6  1  0.24491780  0.87237908  0.81218791  1
  S  S7  1  0.92948478  0.12762092  0.18781209  1
  S  S8  1  0.53228572  0.83160366  0.49546095  1
  S  S9  1  0.85935033  0.16839634  0.50453905  1
  S  S10  1  0.11388938  0.66839634  0.99546095  1
  S  S11  1  0.77774666  0.33160366  0.00453905  1
  S  S12  1  0.32319769  0.68992414  0.37189116  1
  S  S13  1  0.38501298  0.31007586  0.62810884  1
  S  S14  1  0.76312182  0.81007586  0.87189116  1
  S  S15  1  0.44508884  0.18992414  0.12810884  1
  S  S16  1  0.25869212  0.89107567  0.09993130  1
  S  S17  1  0.24969909  0.10892433  0.90006870  1
  S  S18  1  0.89976779  0.60892433  0.59993130  1
  S  S19  1  0.10862342  0.39107567  0.40006870  1
  S  S20  1  0.89429265  0.90017511  0.31824882  1
  S  S21  1  0.11271659  0.09982489  0.68175118  1
  S  S22  1  0.54446777  0.59982489  0.81824882  1
  S  S23  1  0.96254147  0.40017511  0.18175118  1
  S  S24  1  0.63978528  0.65455359  0.07563064  1
  S  S25  1  0.36996951  0.34544641  0.92436936  1
  S  S26  1  0.04433887  0.84544641  0.57563064  1
  S  S27  1  0.46541592  0.15455359  0.42436936  1
  S  S28  1  0.75521310  0.88655410  0.10587132  1
  S  S29  1  0.74763852  0.11344590  0.89412868  1
  S  S30  1  0.39176721  0.61344590  0.60587132  1
  S  S31  1  0.61108442  0.38655410  0.39412868  1
loop_
_geom_bond_atom_site_label_1
_geom_bond_atom_site_label_2
_geom_bond_distance
_geom_bond_site_symmetry_2
Na0 S28 2.919733 1_555
Na0 S12 2.925523 1_555
Na0 S3 3.004260 1_565
Na0 S4 3.166013 1_555
Na0 S8 3.253764 1_555
Na1 S29 2.919733 1_555
Na1 S13 2.925523 1_555
Na1 S2 3.004260 1_545
Na1 S5 3.166013 1_555
Na1 S9 3.253764 1_555
Na2 S30 2.919733 1_555
Na2 S14 2.925523 1_455
Na2 S1 3.004260 1_555
Na2 S6 3.166013 1_555
Na2 S10 3.253764 1_555
Na3 S31 2.919733 1_555
Na3 S15 2.925523 1_555
Na3 S0 3.004260 1_555
Na3 S7 3.166013 1_555
Na3 S11 3.253764 1_555
Na4 S4 2.963335 1_455
Na4 S16 2.964515 1_555
Na4 S10 3.029393 1_554
Na4 S20 3.129425 1_455
Na4 S0 3.197970 1_555
Na5 S5 2.963335 1_455
Na5 S17 2.964515 1_555
Na5 S11 3.029393 1_456
Na5 S21 3.129425 1_555
Na5 S1 3.197970 1_555
Na6 S6 2.963335 1_555
Na6 S18 2.964515 1_555
Na6 S8 3.029393 1_555
Na6 S22 3.129425 1_555
Na6 S2 3.197970 1_555
Na7 S7 2.963335 1_455
Na7 S19 2.964515 1_555
Na7 S9 3.029393 1_455
Na7 S23 3.129425 1_455
Na7 S3 3.197970 1_555
Na8 S20 2.853667 1_555
Na8 S4 2.867877 1_555
Na8 S18 2.873859 1_555
Na8 S12 2.946242 1_655
Na8 S8 2.996657 1_555
Na8 S26 3.019760 1_655
Na9 S21 2.853667 1_555
Na9 S5 2.867877 1_455
Na9 S19 2.873859 1_555
Na9 S13 2.946242 1_555
Na9 S9 2.996657 1_455
Na9 S27 3.019760 1_555
Na10 S22 2.853667 1_555
Na10 S6 2.867877 1_555
Na10 S16 2.873859 1_556
Na10 S14 2.946242 1_555
Na10 S10 2.996657 1_555
Na10 S24 3.019760 1_556
Na11 S23 2.853667 1_455
Na11 S7 2.867877 1_455
Na11 S17 2.873859 1_554
Na11 S15 2.946242 1_555
Na11 S11 2.996657 1_455
Na11 S25 3.019760 1_554
Na12 S2 2.824205 1_555
Na12 S20 2.839153 1_555
Na12 S9 2.928407 1_565
Na12 S27 3.000779 1_565
Na12 S8 3.228593 1_555
Na12 S26 3.248682 1_655
Na13 S3 2.824205 1_555
Na13 S21 2.839153 1_555
Na13 S8 2.928407 1_545
Na13 S26 3.000779 1_545
Na13 S9 3.228593 1_455
Na13 S27 3.248682 1_555
Na14 S0 2.824205 1_556
Na14 S22 2.839153 1_555
Na14 S11 2.928407 1_556
Na14 S25 3.000779 1_555
Na14 S10 3.228593 1_555
Na14 S24 3.248682 1_556
Na15 S1 2.824205 1_654
Na15 S23 2.839153 1_555
Na15 S10 2.928407 1_654
Na15 S24 3.000779 1_555
Na15 S11 3.228593 1_555
Na15 S25 3.248682 1_654
Na16 S0 2.868103 1_555
Na16 S12 2.888278 1_555
Na16 S4 2.913500 1_555
Na16 S24 2.945824 1_555
Na16 S23 2.977570 1_555
Na16 S31 3.006938 1_555
Na17 S1 2.868103 1_555
Na17 S13 2.888278 1_555
Na17 S5 2.913500 1_555
Na17 S25 2.945824 1_555
Na17 S22 2.977571 1_555
Na17 S30 3.006938 1_555
Na18 S2 2.868103 1_555
Na18 S14 2.888278 1_555
Na18 S6 2.913500 1_655
Na18 S26 2.945824 1_655
Na18 S21 2.977571 1_665
Na18 S29 3.006938 1_565
Na19 S3 2.868103 1_555
Na19 S15 2.888278 1_555
Na19 S7 2.913500 1_555
Na19 S27 2.945824 1_555
Na19 S20 2.977570 1_545
Na19 S28 3.006938 1_545
Na20 S19 2.907850 1_655
Na20 S18 2.907850 1_555
Na20 S30 2.957420 1_555
Na20 S31 2.957420 1_555
Na20 S5 3.291143 1_555
Na20 S4 3.291143 1_555
Na21 S16 2.907850 1_545
Na21 S17 2.907850 1_554
Na21 S29 2.957420 1_454
Na21 S28 2.957420 1_445
Na21 S7 3.291143 1_455
Na21 S6 3.291143 1_544
Na22 S31 2.899970 1_555
Na22 S30 2.899970 1_555
Na22 S18 2.937049 1_455
Na22 S19 2.937049 1_555
Na22 S13 3.277350 1_555
Na22 S12 3.277350 1_555
Na23 S28 2.899970 1_545
Na23 S29 2.899970 1_554
Na23 S17 2.937049 1_554
Na23 S16 2.937049 1_545
Na23 S14 3.277350 1_544
Na23 S15 3.277350 1_555
Nb0 S3 2.282083 1_565
Nb0 S16 2.283837 1_555
Nb0 S20 2.289048 1_455
Nb0 S7 2.300792 1_465
Nb1 S2 2.282084 1_545
Nb1 S17 2.283837 1_555
Nb1 S21 2.289048 1_555
Nb1 S6 2.300792 1_545
Nb2 S1 2.282083 1_655
Nb2 S18 2.283837 1_555
Nb2 S22 2.289048 1_555
Nb2 S5 2.300792 1_555
Nb3 S0 2.282083 1_555
Nb3 S19 2.283837 1_555
Nb3 S23 2.289048 1_455
Nb3 S4 2.300792 1_455
Nb4 S28 2.289042 1_555
Nb4 S24 2.291837 1_555
Nb4 S14 2.296985 1_554
Nb4 S10 2.297149 1_654
Nb5 S29 2.289042 1_555
Nb5 S25 2.291837 1_555
Nb5 S15 2.296985 1_556
Nb5 S11 2.297149 1_556
Nb6 S30 2.289042 1_555
Nb6 S26 2.291837 1_555
Nb6 S12 2.296985 1_555
Nb6 S8 2.297149 1_555
Nb7 S31 2.289042 1_555
Nb7 S27 2.291837 1_555
Nb7 S13 2.296985 1_555
Nb7 S9 2.297149 1_555
