# generated using pymatgen
data_NaNdCoWO6
_symmetry_space_group_name_H-M   'P 1'
_cell_length_a   5.60945200
_cell_length_b   5.54329200
_cell_length_c   7.95563682
_cell_angle_alpha   89.81871322
_cell_angle_beta   90.00000000
_cell_angle_gamma   90.00000000
_symmetry_Int_Tables_number   1
_chemical_formula_structural   NaNdCoWO6
_chemical_formula_sum   'Na2 Nd2 Co2 W2 O12'
_cell_volume   247.37793941
_cell_formula_units_Z   2
loop_
 _symmetry_equiv_pos_site_id
 _symmetry_equiv_pos_as_xyz
  1  'x, y, z'
loop_
 _atom_site_type_symbol
 _atom_site_label
 _atom_site_symmetry_multiplicity
 _atom_site_fract_x
 _atom_site_fract_y
 _atom_site_fract_z
 _atom_site_occupancy
  Na  Na0  1  0.49977500  0.74538900  0.50009500  1
  Na  Na1  1  0.99977500  0.25461100  0.49990500  1
  Nd  Nd0  1  0.44049500  0.75859400  0.00106200  1
  Nd  Nd1  1  0.94049500  0.24140600  0.99893800  1
  Co  Co0  1  0.97792600  0.74959200  0.74416200  1
  Co  Co1  1  0.47792600  0.25040800  0.25583800  1
  W  W0  1  0.98492200  0.74473600  0.26322000  1
  W  W1  1  0.48492200  0.25526400  0.73678000  1
  O  O0  1  0.27557700  0.56365800  0.28105600  1
  O  O1  1  0.77557700  0.43634200  0.71894400  1
  O  O2  1  0.00874300  0.66224300  0.00704800  1
  O  O3  1  0.50874300  0.33775700  0.99295200  1
  O  O4  1  0.96192600  0.82988200  0.48948200  1
  O  O5  1  0.46192600  0.17011800  0.51051800  1
  O  O6  1  0.69454700  0.97703000  0.80773400  1
  O  O7  1  0.19454700  0.02297000  0.19226600  1
  O  O8  1  0.71803100  0.95788500  0.19212200  1
  O  O9  1  0.21803100  0.04211500  0.80787800  1
  O  O10  1  0.78966000  0.46570600  0.27766200  1
  O  O11  1  0.28966000  0.53429400  0.72233800  1
loop_
_geom_bond_atom_site_label_1
_geom_bond_atom_site_label_2
_geom_bond_distance
_geom_bond_site_symmetry_2
Na0 O5 2.365665 1_565
Na0 O0 2.375753 1_555
Na0 O11 2.423113 1_555
Na0 O4 2.635689 1_555
Na0 O10 2.862979 1_555
Na0 O1 2.888053 1_555
Na1 O4 2.365665 1_545
Na1 O1 2.375753 1_555
Na1 O10 2.423113 1_555
Na1 O5 2.635689 1_655
Na1 O11 2.862979 1_655
Na1 O0 2.888053 1_655
Nd0 O3 2.365108 1_554
Nd0 O6 2.418855 1_554
Nd0 O8 2.442369 1_555
Nd0 O2 2.480511 1_555
Nd0 O9 2.524696 1_564
Nd0 O7 2.525692 1_565
Nd0 O0 2.640102 1_555
Nd0 O11 2.682585 1_554
Nd1 O2 2.365108 1_656
Nd1 O7 2.418855 1_656
Nd1 O9 2.442369 1_655
Nd1 O3 2.480511 1_555
Nd1 O8 2.524696 1_546
Nd1 O6 2.525692 1_545
Nd1 O1 2.640102 1_555
Nd1 O10 2.682585 1_556
Co0 O4 2.075015 1_555
Co0 O1 2.084716 1_555
Co0 O6 2.091927 1_555
Co0 O11 2.124524 1_655
Co0 O2 2.152205 1_656
Co0 O9 2.169232 1_665
Co1 O5 2.075015 1_555
Co1 O0 2.084716 1_555
Co1 O7 2.091927 1_555
Co1 O10 2.124524 1_555
Co1 O3 2.152205 1_554
Co1 O8 2.169232 1_545
O0 W0 1.919645 1_455
O1 W1 1.919645 1_555
O2 W0 2.094362 1_455
O3 W1 2.094362 1_555
O4 W0 1.866815 1_555
O5 W1 1.866815 1_555
O6 W1 2.018569 1_565
O7 W0 2.018569 1_445
O8 W0 1.988242 1_555
O9 W1 1.988242 1_555
O10 W0 1.898475 1_555
O11 W1 1.898475 1_555
