# generated using pymatgen
data_Li9Mn2Co5O16
_symmetry_space_group_name_H-M   'P 1'
_cell_length_a   2.93935900
_cell_length_b   5.94219546
_cell_length_c   16.19925919
_cell_angle_alpha   90.67700990
_cell_angle_beta   90.93898949
_cell_angle_gamma   93.47130619
_symmetry_Int_Tables_number   1
_chemical_formula_structural   Li9Mn2Co5O16
_chemical_formula_sum   'Li9 Mn2 Co5 O16'
_cell_volume   282.35993592
_cell_formula_units_Z   1
loop_
 _symmetry_equiv_pos_site_id
 _symmetry_equiv_pos_as_xyz
  1  'x, y, z'
loop_
 _atom_site_type_symbol
 _atom_site_label
 _atom_site_symmetry_multiplicity
 _atom_site_fract_x
 _atom_site_fract_y
 _atom_site_fract_z
 _atom_site_occupancy
  Li  Li0  1  0.99716700  0.24521200  0.88206100  1
  Li  Li1  1  0.50000000  0.50000000  0.00000000  1
  Li  Li2  1  0.00283300  0.75478800  0.11793900  1
  Li  Li3  1  0.50150500  0.99939700  0.74881700  1
  Li  Li4  1  0.99934800  0.75027500  0.62520000  1
  Li  Li5  1  0.50000000  0.50000000  0.50000000  1
  Li  Li6  1  0.00065200  0.24972500  0.37480000  1
  Li  Li7  1  0.49849500  0.00060300  0.25118300  1
  Li  Li8  1  0.50000000  0.00000000  0.00000000  1
  Mn  Mn0  1  0.99644100  0.75539400  0.87917700  1
  Mn  Mn1  1  0.00355900  0.24460600  0.12082300  1
  Co  Co0  1  0.50801600  0.49780000  0.25106100  1
  Co  Co1  1  0.00020000  0.74992900  0.37510700  1
  Co  Co2  1  0.50000000  0.00000000  0.50000000  1
  Co  Co3  1  0.99980000  0.25007100  0.62489300  1
  Co  Co4  1  0.49198400  0.50220000  0.74893900  1
  O  O0  1  0.47661000  0.52583400  0.86924000  1
  O  O1  1  0.00458000  0.74621500  0.99121200  1
  O  O2  1  0.48134900  0.02987000  0.12605000  1
  O  O3  1  0.02725900  0.26301600  0.74464800  1
  O  O4  1  0.52773400  0.01175900  0.61898200  1
  O  O5  1  0.02702200  0.76164700  0.49421500  1
  O  O6  1  0.52591300  0.51302800  0.36987800  1
  O  O7  1  0.03265400  0.26477300  0.24548400  1
  O  O8  1  0.51865100  0.97013000  0.87395000  1
  O  O9  1  0.99542000  0.25378500  0.00878800  1
  O  O10  1  0.52339000  0.47416600  0.13076000  1
  O  O11  1  0.96734600  0.73522700  0.75451600  1
  O  O12  1  0.47408700  0.48697200  0.63012200  1
  O  O13  1  0.97297800  0.23835300  0.50578500  1
  O  O14  1  0.47226600  0.98824100  0.38101800  1
  O  O15  1  0.97274100  0.73698400  0.25535200  1
loop_
_geom_bond_atom_site_label_1
_geom_bond_atom_site_label_2
_geom_bond_distance
_geom_bond_site_symmetry_2
Li0 O9 2.053012 1_556
Li0 O8 2.092351 1_545
Li0 O0 2.131416 1_655
Li0 O3 2.232695 1_655
Li0 O8 2.311635 1_645
Li0 O0 2.339164 1_555
Li1 O9 2.027211 1_455
Li1 O1 2.027211 1_654
Li1 O0 2.125868 1_554
Li1 O10 2.125868 1_555
Li1 O9 2.130141 1_555
Li1 O1 2.130141 1_554
Li2 O1 2.053012 1_554
Li2 O2 2.092351 1_565
Li2 O10 2.131416 1_455
Li2 O15 2.232695 1_455
Li2 O2 2.311635 1_465
Li2 O10 2.339164 1_555
Li3 O8 2.036617 1_555
Li3 O4 2.107890 1_565
Li3 O3 2.135269 1_665
Li3 O11 2.146420 1_555
Li3 O11 2.155810 1_455
Li3 O3 2.159961 1_565
Li4 O11 2.101189 1_555
Li4 O5 2.126465 1_655
Li4 O12 2.133659 1_555
Li4 O4 2.133815 1_665
Li4 O4 2.146167 1_565
Li4 O12 2.159916 1_655
Li5 O12 2.112666 1_555
Li5 O6 2.112666 1_555
Li5 O5 2.131273 1_655
Li5 O13 2.131273 1_455
Li5 O5 2.149367 1_555
Li5 O13 2.149367 1_555
Li6 O7 2.101189 1_555
Li6 O13 2.126465 1_455
Li6 O6 2.133659 1_555
Li6 O14 2.133815 1_445
Li6 O14 2.146167 1_545
Li6 O6 2.159916 1_455
Li7 O2 2.036617 1_555
Li7 O14 2.107890 1_545
Li7 O15 2.135269 1_445
Li7 O7 2.146420 1_555
Li7 O7 2.155810 1_655
Li7 O15 2.159961 1_545
Li8 O9 2.034015 1_555
Li8 O1 2.034015 1_544
Li8 O8 2.049443 1_544
Li8 O2 2.049443 1_555
Li8 O9 2.183314 1_455
Li8 O1 2.183314 1_644
Mn0 O1 1.816157 1_655
Mn0 O8 1.939354 1_655
Mn0 O8 1.955338 1_555
Mn0 O0 1.988893 1_555
Mn0 O11 2.021656 1_555
Mn0 O0 2.028318 1_655
Mn1 O9 1.816157 1_455
Mn1 O2 1.939354 1_455
Mn1 O2 1.955338 1_555
Mn1 O10 1.988893 1_555
Mn1 O7 2.021656 1_555
Mn1 O10 2.028318 1_455
Co0 O7 1.906955 1_555
Co0 O15 1.910563 1_555
Co0 O6 1.925512 1_555
Co0 O10 1.953644 1_555
Co0 O7 2.136305 1_655
Co0 O15 2.184580 1_455
Co1 O6 1.920417 1_455
Co1 O14 1.922068 1_555
Co1 O5 1.930041 1_555
Co1 O15 1.940721 1_455
Co1 O6 2.154425 1_555
Co1 O14 2.165714 1_455
Co2 O13 1.923992 1_555
Co2 O5 1.923992 1_545
Co2 O4 1.928070 1_555
Co2 O14 1.928070 1_545
Co2 O13 2.163758 1_455
Co2 O5 2.163758 1_645
Co3 O12 1.920417 1_655
Co3 O4 1.922068 1_555
Co3 O13 1.930041 1_555
Co3 O3 1.940721 1_655
Co3 O12 2.154425 1_555
Co3 O4 2.165714 1_655
Co4 O11 1.906955 1_555
Co4 O3 1.910563 1_555
Co4 O12 1.925512 1_555
Co4 O0 1.953644 1_555
Co4 O11 2.136305 1_455
Co4 O3 2.184580 1_655
