# generated using pymatgen
data_C
_symmetry_space_group_name_H-M   'P 1'
_cell_length_a   2.51049074
_cell_length_b   4.13154898
_cell_length_c   9.02832400
_cell_angle_alpha   90.00000000
_cell_angle_beta   90.00000000
_cell_angle_gamma   90.00000000
_symmetry_Int_Tables_number   1
_chemical_formula_structural   C
_chemical_formula_sum   C16
_cell_volume   93.64372174
_cell_formula_units_Z   16
loop_
 _symmetry_equiv_pos_site_id
 _symmetry_equiv_pos_as_xyz
  1  'x, y, z'
loop_
 _atom_site_type_symbol
 _atom_site_label
 _atom_site_symmetry_multiplicity
 _atom_site_fract_x
 _atom_site_fract_y
 _atom_site_fract_z
 _atom_site_occupancy
  C  C0  1  0.75000000  0.42503726  0.69506678  1
  C  C1  1  0.75000000  0.07496274  0.19506678  1
  C  C2  1  0.25000000  0.57496274  0.30493322  1
  C  C3  1  0.25000000  0.92503726  0.80493322  1
  C  C4  1  0.25000000  0.19959775  0.68943294  1
  C  C5  1  0.25000000  0.30040225  0.18943294  1
  C  C6  1  0.75000000  0.80040225  0.31056706  1
  C  C7  1  0.75000000  0.69959775  0.81056706  1
  C  C8  1  0.25000000  0.40840807  0.02064651  1
  C  C9  1  0.25000000  0.09159193  0.52064651  1
  C  C10  1  0.75000000  0.59159193  0.97935349  1
  C  C11  1  0.75000000  0.90840807  0.47935349  1
  C  C12  1  0.25000000  0.06854126  0.96340397  1
  C  C13  1  0.25000000  0.43145874  0.46340397  1
  C  C14  1  0.75000000  0.93145874  0.03659603  1
  C  C15  1  0.75000000  0.56854126  0.53659603  1
loop_
_geom_bond_atom_site_label_1
_geom_bond_atom_site_label_2
_geom_bond_distance
_geom_bond_site_symmetry_2
C0 C7 1.540828 1_555
C0 C15 1.548708 1_555
C0 C4 1.563893 1_555
C0 C4 1.563893 1_655
C1 C6 1.540828 1_545
C1 C14 1.548708 1_545
C1 C5 1.563893 1_655
C1 C5 1.563893 1_555
C2 C5 1.540828 1_555
C2 C6 1.563893 1_455
C2 C6 1.563893 1_555
C3 C4 1.540828 1_565
C3 C7 1.563893 1_555
C3 C7 1.563893 1_455
C4 C9 1.587850 1_555
C5 C8 1.587850 1_555
C10 C14 1.496261 1_556
C10 C8 1.512423 1_656
C10 C8 1.512423 1_556
C10 C7 1.587850 1_555
C11 C15 1.496261 1_555
C11 C9 1.512423 1_665
C11 C9 1.512423 1_565
C11 C6 1.587850 1_555
C12 C8 1.496261 1_556
C12 C14 1.527438 1_546
C12 C14 1.527438 1_446
C12 C3 1.548708 1_545
C13 C9 1.496261 1_555
C13 C15 1.527438 1_555
C13 C15 1.527438 1_455
C13 C2 1.548708 1_555
