# generated using pymatgen
data_Mg6MnSi
_symmetry_space_group_name_H-M   'P 1'
_cell_length_a   4.87851400
_cell_length_b   6.11846700
_cell_length_c   10.65804500
_cell_angle_alpha   90.00000000
_cell_angle_beta   90.00000000
_cell_angle_gamma   90.00000000
_symmetry_Int_Tables_number   1
_chemical_formula_structural   Mg6MnSi
_chemical_formula_sum   'Mg12 Mn2 Si2'
_cell_volume   318.13227210
_cell_formula_units_Z   2
loop_
 _symmetry_equiv_pos_site_id
 _symmetry_equiv_pos_as_xyz
  1  'x, y, z'
loop_
 _atom_site_type_symbol
 _atom_site_label
 _atom_site_symmetry_multiplicity
 _atom_site_fract_x
 _atom_site_fract_y
 _atom_site_fract_z
 _atom_site_occupancy
  Mg  Mg0  1  0.50000000  0.24899300  0.41649900  1
  Mg  Mg1  1  0.50000000  0.75100700  0.41649900  1
  Mg  Mg2  1  0.00000000  0.75279000  0.08615200  1
  Mg  Mg3  1  0.00000000  0.24721000  0.08615200  1
  Mg  Mg4  1  0.00000000  0.00000000  0.32825500  1
  Mg  Mg5  1  0.00000000  0.50000000  0.32979800  1
  Mg  Mg6  1  0.50000000  0.74899300  0.91649900  1
  Mg  Mg7  1  0.50000000  0.25100700  0.91649900  1
  Mg  Mg8  1  0.00000000  0.25279000  0.58615200  1
  Mg  Mg9  1  0.00000000  0.74721000  0.58615200  1
  Mg  Mg10  1  0.00000000  0.50000000  0.82825500  1
  Mg  Mg11  1  0.00000000  0.00000000  0.82979800  1
  Mn  Mn0  1  0.50000000  0.00000000  0.16823100  1
  Mn  Mn1  1  0.50000000  0.50000000  0.66823100  1
  Si  Si0  1  0.50000000  0.50000000  0.16841000  1
  Si  Si1  1  0.50000000  0.00000000  0.66841000  1
loop_
_geom_bond_atom_site_label_1
_geom_bond_atom_site_label_2
_geom_bond_distance
_geom_bond_site_symmetry_2
Mg0 Mg4 3.025797 1_655
Mg0 Mg4 3.025797 1_555
Mg0 Mg5 3.026959 1_655
Mg0 Mg5 3.026959 1_555
Mg0 Mg8 3.036444 1_555
Mg0 Mg8 3.036444 1_655
Mg0 Mg1 3.046911 1_545
Mg0 Mn0 3.053278 1_555
Mg0 Si0 3.057795 1_555
Mg0 Mg1 3.071556 1_555
Mg0 Si1 3.086987 1_555
Mg0 Mn1 3.091431 1_555
Mg1 Mg4 3.025797 1_565
Mg1 Mg4 3.025797 1_665
Mg1 Mg5 3.026959 1_655
Mg1 Mg5 3.026959 1_555
Mg1 Mg9 3.036444 1_555
Mg1 Mg9 3.036444 1_655
Mg1 Mn0 3.053278 1_565
Mg1 Si0 3.057795 1_555
Mg1 Si1 3.086987 1_565
Mg1 Mn1 3.091431 1_555
Mg2 Mg4 2.990982 1_565
Mg2 Mn0 3.000508 1_565
Mg2 Mn0 3.000508 1_465
Mg2 Si0 3.018416 1_455
Mg2 Si0 3.018416 1_555
Mg2 Mg5 3.022509 1_555
Mg2 Mg3 3.025092 1_565
Mg2 Mg6 3.036444 1_454
Mg2 Mg6 3.036444 1_554
Mg2 Mg3 3.093375 1_555
Mg3 Mg4 2.990982 1_555
Mg3 Mn0 3.000508 1_455
Mg3 Mn0 3.000508 1_555
Mg3 Si0 3.018416 1_555
Mg3 Si0 3.018416 1_455
Mg3 Mg5 3.022509 1_555
Mg3 Mg7 3.036444 1_454
Mg3 Mg7 3.036444 1_554
Mg4 Mn0 2.976382 1_455
Mg4 Mn0 2.976382 1_555
Mg4 Mg5 3.059278 1_545
Mg4 Mg5 3.059278 1_555
Mg4 Mg8 3.153961 1_555
Mg4 Mg9 3.153961 1_545
Mg5 Si0 2.984736 1_555
Mg5 Si0 2.984736 1_455
Mg5 Mg8 3.122962 1_555
Mg5 Mg9 3.122962 1_555
Mg6 Mg7 3.046911 1_555
Mg6 Mn1 3.053278 1_555
Mg6 Si1 3.057795 1_565
Mg6 Mg7 3.071556 1_565
Mg6 Si0 3.086987 1_556
Mg6 Mn0 3.091431 1_566
Mg7 Mn1 3.053278 1_555
Mg7 Si1 3.057795 1_555
Mg7 Si0 3.086987 1_556
Mg7 Mn0 3.091431 1_556
Mg8 Mn1 3.000508 1_555
Mg8 Mn1 3.000508 1_455
Mg8 Si1 3.018416 1_455
Mg8 Si1 3.018416 1_555
Mg8 Mg9 3.025092 1_555
Mg8 Mg9 3.093375 1_545
Mg9 Mn1 3.000508 1_555
Mg9 Mn1 3.000508 1_455
Mg9 Si1 3.018416 1_465
Mg9 Si1 3.018416 1_565
Mg10 Mn1 2.976382 1_555
Mg10 Mn1 2.976382 1_455
Mg10 Mg8 2.990982 1_555
Mg10 Mg9 2.990982 1_555
Mg10 Mg7 3.025797 1_555
Mg10 Mg6 3.025797 1_455
Mg10 Mg6 3.025797 1_555
Mg10 Mg7 3.025797 1_455
Mg10 Mg11 3.059278 1_555
Mg10 Mg11 3.059278 1_565
Mg10 Mg3 3.153961 1_556
Mg10 Mg2 3.153961 1_556
Mg11 Si1 2.984736 1_455
Mg11 Si1 2.984736 1_555
Mg11 Mg9 3.022509 1_545
Mg11 Mg8 3.022509 1_555
Mg11 Mg7 3.026959 1_555
Mg11 Mg6 3.026959 1_445
Mg11 Mg7 3.026959 1_455
Mg11 Mg6 3.026959 1_545
Mg11 Mg3 3.122962 1_556
Mg11 Mg2 3.122962 1_546
Mn0 Si0 3.059234 1_545
Mn0 Si0 3.059234 1_555
Mn1 Si1 3.059234 1_565
Mn1 Si1 3.059234 1_555
