# generated using pymatgen
data_Li9Mn2Co5O16
_symmetry_space_group_name_H-M   'P 1'
_cell_length_a   2.98510800
_cell_length_b   5.11111658
_cell_length_c   19.59639578
_cell_angle_alpha   91.65767519
_cell_angle_beta   93.16090920
_cell_angle_gamma   105.04707339
_symmetry_Int_Tables_number   1
_chemical_formula_structural   Li9Mn2Co5O16
_chemical_formula_sum   'Li9 Mn2 Co5 O16'
_cell_volume   288.00607691
_cell_formula_units_Z   1
loop_
 _symmetry_equiv_pos_site_id
 _symmetry_equiv_pos_as_xyz
  1  'x, y, z'
loop_
 _atom_site_type_symbol
 _atom_site_label
 _atom_site_symmetry_multiplicity
 _atom_site_fract_x
 _atom_site_fract_y
 _atom_site_fract_z
 _atom_site_occupancy
  Li  Li0  1  0.32771800  0.57074500  0.06459700  1
  Li  Li1  1  0.93511700  0.68888800  0.18840500  1
  Li  Li2  1  0.56284900  0.81122700  0.31308800  1
  Li  Li3  1  0.18826100  0.93783500  0.43761900  1
  Li  Li4  1  0.81287600  0.06529300  0.56130000  1
  Li  Li5  1  0.44468100  0.18444900  0.68966700  1
  Li  Li6  1  0.05845000  0.30268100  0.81341900  1
  Li  Li7  1  0.65961100  0.42847700  0.93026600  1
  Li  Li8  1  0.39347200  0.89265400  0.87484700  1
  Mn  Mn0  1  0.99292800  0.00119000  0.99697500  1
  Mn  Mn1  1  0.12146500  0.62676300  0.62648200  1
  Co  Co0  1  0.61869500  0.11762600  0.12554200  1
  Co  Co1  1  0.25235500  0.24711800  0.24929600  1
  Co  Co2  1  0.87580500  0.37575900  0.37441300  1
  Co  Co3  1  0.49695200  0.50102100  0.49960200  1
  Co  Co4  1  0.76620200  0.75316900  0.75595000  1
  O  O0  1  0.62116200  0.24317600  0.03301200  1
  O  O1  1  0.30793000  0.38328600  0.15713800  1
  O  O2  1  0.89444900  0.51485900  0.28314400  1
  O  O3  1  0.51358800  0.64003600  0.40852500  1
  O  O4  1  0.13274200  0.76450400  0.53371400  1
  O  O5  1  0.80559600  0.88763800  0.66281700  1
  O  O6  1  0.43361600  0.00418300  0.77859300  1
  O  O7  1  0.03762400  0.16009100  0.91431900  1
  O  O8  1  0.94343600  0.86426800  0.09271600  1
  O  O9  1  0.61555300  0.98679000  0.21555100  1
  O  O10  1  0.23597900  0.10966800  0.33985300  1
  O  O11  1  0.85488700  0.23488900  0.46462600  1
  O  O12  1  0.43155700  0.35439000  0.58965900  1
  O  O13  1  0.07636300  0.48809100  0.71696400  1
  O  O14  1  0.71643400  0.59937700  0.83431600  1
  O  O15  1  0.37164200  0.75985800  0.97358700  1
loop_
_geom_bond_atom_site_label_1
_geom_bond_atom_site_label_2
_geom_bond_distance
_geom_bond_site_symmetry_2
Li0 O15 2.047424 1_554
Li0 O1 2.071984 1_555
Li0 O8 2.083575 1_555
Li0 O0 2.171364 1_555
Li0 O8 2.187615 1_455
Li0 O0 2.365855 1_455
Li1 O9 2.067506 1_555
Li1 O2 2.077739 1_555
Li1 O8 2.100280 1_555
Li1 O1 2.149443 1_555
Li1 O9 2.226023 1_655
Li1 O1 2.230713 1_655
Li2 O10 2.082513 1_565
Li2 O3 2.084019 1_555
Li2 O2 2.099964 1_555
Li2 O9 2.131286 1_555
Li2 O2 2.206819 1_455
Li2 O10 2.210304 1_665
Li3 O3 2.088840 1_555
Li3 O11 2.090862 1_465
Li3 O4 2.100747 1_555
Li3 O10 2.127120 1_565
Li3 O11 2.194037 1_565
Li3 O3 2.220224 1_455
Li4 O12 2.079746 1_655
Li4 O4 2.082899 1_645
Li4 O11 2.102585 1_555
Li4 O12 2.164116 1_555
Li4 O5 2.209429 1_545
Li4 O4 2.233378 1_545
Li5 O6 1.992534 1_555
Li5 O5 2.134979 1_445
Li5 O13 2.138127 1_655
Li5 O5 2.145677 1_545
Li5 O12 2.168979 1_555
Li5 O13 2.192331 1_555
Li6 O14 2.079354 1_455
Li6 O7 2.125566 1_555
Li6 O13 2.135911 1_555
Li6 O6 2.143408 1_455
Li6 O14 2.157324 1_555
Li6 O6 2.226833 1_555
Li7 O7 2.003864 1_555
Li7 O7 2.017539 1_655
Li7 O14 2.092953 1_555
Li7 O0 2.245778 1_556
Li7 O15 2.254242 1_555
Li7 O15 2.440434 1_655
Li8 O6 1.987169 1_565
Li8 O15 2.067819 1_555
Li8 O7 2.092474 1_565
Li8 O14 2.138486 1_555
Li8 O7 2.138745 1_665
Li8 O14 2.267919 1_455
Mn0 O7 1.828854 1_655
Mn0 O15 1.938561 1_645
Mn0 O15 1.963887 1_545
Mn0 O0 2.002142 1_556
Mn0 O8 2.021009 1_546
Mn0 O0 2.035792 1_656
Mn1 O13 1.927155 1_555
Mn1 O5 1.961075 1_455
Mn1 O4 1.967252 1_555
Mn1 O12 2.000052 1_555
Mn1 O5 2.196887 1_555
Mn1 O12 2.233703 1_455
Co0 O9 1.904010 1_545
Co0 O8 1.924251 1_545
Co0 O1 1.938125 1_555
Co0 O0 1.940635 1_555
Co0 O8 2.146465 1_445
Co0 O1 2.195553 1_655
Co1 O10 1.925867 1_555
Co1 O1 1.954281 1_555
Co1 O9 2.039691 1_545
Co1 O2 2.058848 1_455
Co1 O9 2.078075 1_445
Co1 O2 2.105191 1_555
Co2 O11 1.926154 1_555
Co2 O2 1.942021 1_555
Co2 O3 2.055797 1_555
Co2 O10 2.061683 1_655
Co2 O3 2.090021 1_655
Co2 O10 2.100374 1_555
Co3 O12 1.937221 1_555
Co3 O3 1.938446 1_555
Co3 O4 2.056874 1_555
Co3 O11 2.059878 1_555
Co3 O4 2.084080 1_655
Co3 O11 2.107374 1_455
Co4 O14 1.741452 1_555
Co4 O6 1.872309 1_565
Co4 O5 1.967575 1_555
Co4 O13 1.986439 1_655
Co4 O6 2.086758 1_665
Co4 O13 2.231091 1_555
