# generated using pymatgen
data_Pb4SO8
_symmetry_space_group_name_H-M   'P 1'
_cell_length_a   6.13721000
_cell_length_b   7.95704592
_cell_length_c   10.46130158
_cell_angle_alpha   73.84577265
_cell_angle_beta   79.53585771
_cell_angle_gamma   87.22616826
_symmetry_Int_Tables_number   1
_chemical_formula_structural   Pb4SO8
_chemical_formula_sum   'Pb8 S2 O16'
_cell_volume   482.53474403
_cell_formula_units_Z   2
loop_
 _symmetry_equiv_pos_site_id
 _symmetry_equiv_pos_as_xyz
  1  'x, y, z'
loop_
 _atom_site_type_symbol
 _atom_site_label
 _atom_site_symmetry_multiplicity
 _atom_site_fract_x
 _atom_site_fract_y
 _atom_site_fract_z
 _atom_site_occupancy
  Pb  Pb0  1  0.77166500  0.39017600  0.96143300  1
  Pb  Pb1  1  0.22833500  0.60982400  0.03856700  1
  Pb  Pb2  1  0.75467700  0.87337000  0.02818300  1
  Pb  Pb3  1  0.24532300  0.12663000  0.97181700  1
  Pb  Pb4  1  0.22166500  0.48408300  0.67041500  1
  Pb  Pb5  1  0.77833500  0.51591700  0.32958500  1
  Pb  Pb6  1  0.16874300  0.01969600  0.67199600  1
  Pb  Pb7  1  0.83125700  0.98030400  0.32800400  1
  S  S0  1  0.69779000  0.75778900  0.67271600  1
  S  S1  1  0.30221000  0.24221100  0.32728400  1
  O  O0  1  0.63503100  0.79469300  0.24807100  1
  O  O1  1  0.36496900  0.20530700  0.75192900  1
  O  O2  1  0.84606800  0.58167000  0.08411200  1
  O  O3  1  0.15393200  0.41833000  0.91588800  1
  O  O4  1  0.98295000  0.24545500  0.75260400  1
  O  O5  1  0.01705000  0.75454500  0.24739600  1
  O  O6  1  0.10497600  0.89166000  0.92118300  1
  O  O7  1  0.89502400  0.10834000  0.07881700  1
  O  O8  1  0.87265100  0.68349700  0.75887300  1
  O  O9  1  0.12734900  0.31650300  0.24112700  1
  O  O10  1  0.47524800  0.70415700  0.75823600  1
  O  O11  1  0.52475200  0.29584300  0.24176400  1
  O  O12  1  0.73034900  0.68601200  0.55338200  1
  O  O13  1  0.26965100  0.31398800  0.44661800  1
  O  O14  1  0.71944000  0.95193000  0.62872700  1
  O  O15  1  0.28056000  0.04807000  0.37127300  1
loop_
_geom_bond_atom_site_label_1
_geom_bond_atom_site_label_2
_geom_bond_distance
_geom_bond_site_symmetry_2
O0 Pb2 2.202764 1_555
O0 Pb5 2.335007 1_555
O0 Pb7 2.357108 1_555
O1 Pb3 2.202764 1_555
O1 Pb4 2.335007 1_555
O1 Pb6 2.357108 1_555
O2 Pb2 2.298220 1_555
O2 Pb1 2.316594 1_655
O2 Pb0 2.354926 1_554
O2 Pb5 2.434475 1_555
O3 Pb3 2.298220 1_555
O3 Pb0 2.316594 1_455
O3 Pb1 2.354926 1_556
O3 Pb4 2.434475 1_555
O4 Pb4 2.322542 1_655
O4 Pb6 2.352367 1_655
O5 Pb5 2.322542 1_455
O5 Pb7 2.352367 1_455
O6 Pb2 2.227453 1_456
O6 Pb3 2.321813 1_565
O6 Pb1 2.398185 1_556
O6 Pb6 2.485318 1_565
O7 Pb3 2.227453 1_654
O7 Pb2 2.321813 1_545
O7 Pb0 2.398185 1_554
O7 Pb7 2.485318 1_545
O8 S0 1.518866 1_555
O8 Pb0 2.689377 1_555
O8 Pb4 2.780334 1_655
O9 S1 1.518866 1_555
O9 Pb1 2.689377 1_555
O9 Pb5 2.780334 1_455
O10 S0 1.499337 1_555
O10 Pb4 2.830359 1_555
O11 S1 1.499337 1_555
O11 Pb5 2.830359 1_555
O12 S0 1.489860 1_555
O13 S1 1.489860 1_555
O14 S0 1.489255 1_555
O15 S1 1.489255 1_555
