# generated using pymatgen
data_Mg16Al12Sn
_symmetry_space_group_name_H-M   'P 1'
_cell_length_a   9.13977577
_cell_length_b   9.13977577
_cell_length_c   9.13977577
_cell_angle_alpha   109.47122063
_cell_angle_beta   109.47122063
_cell_angle_gamma   109.47122063
_symmetry_Int_Tables_number   1
_chemical_formula_structural   Mg16Al12Sn
_chemical_formula_sum   'Mg16 Al12 Sn1'
_cell_volume   587.73930133
_cell_formula_units_Z   1
loop_
 _symmetry_equiv_pos_site_id
 _symmetry_equiv_pos_as_xyz
  1  'x, y, z'
loop_
 _atom_site_type_symbol
 _atom_site_label
 _atom_site_symmetry_multiplicity
 _atom_site_fract_x
 _atom_site_fract_y
 _atom_site_fract_z
 _atom_site_occupancy
  Mg  Mg0  1  0.31500300  0.60006400  0.00000000  1
  Mg  Mg1  1  0.60006400  0.31500300  0.00000000  1
  Mg  Mg2  1  0.34594000  0.00000000  0.00000000  1
  Mg  Mg3  1  0.00000000  0.34594000  0.00000000  1
  Mg  Mg4  1  0.39993600  0.39993600  0.71494000  1
  Mg  Mg5  1  0.28506000  0.68499700  0.68499700  1
  Mg  Mg6  1  0.68499700  0.28506000  0.68499700  1
  Mg  Mg7  1  0.65406000  0.65406000  0.65406000  1
  Mg  Mg8  1  0.31500300  0.00000000  0.60006400  1
  Mg  Mg9  1  0.00000000  0.31500300  0.60006400  1
  Mg  Mg10  1  0.71494000  0.39993600  0.39993600  1
  Mg  Mg11  1  0.39993600  0.71494000  0.39993600  1
  Mg  Mg12  1  0.00000000  0.00000000  0.34594000  1
  Mg  Mg13  1  0.00000000  0.60006400  0.31500300  1
  Mg  Mg14  1  0.60006400  0.00000000  0.31500300  1
  Mg  Mg15  1  0.68499700  0.68499700  0.28506000  1
  Al  Al0  1  0.81279500  0.62925100  0.00000000  1
  Al  Al1  1  0.62925100  0.81279500  0.00000000  1
  Al  Al2  1  0.18720500  0.18720500  0.81645700  1
  Al  Al3  1  0.00000000  0.62925100  0.81279500  1
  Al  Al4  1  0.62925100  0.00000000  0.81279500  1
  Al  Al5  1  0.00000000  0.81279500  0.62925100  1
  Al  Al6  1  0.81279500  0.00000000  0.62925100  1
  Al  Al7  1  0.18354300  0.37074900  0.37074900  1
  Al  Al8  1  0.37074900  0.18354300  0.37074900  1
  Al  Al9  1  0.18720500  0.81645700  0.18720500  1
  Al  Al10  1  0.81645700  0.18720500  0.18720500  1
  Al  Al11  1  0.37074900  0.37074900  0.18354300  1
  Sn  Sn0  1  0.00000000  0.00000000  0.00000000  1
loop_
_geom_bond_atom_site_label_1
_geom_bond_atom_site_label_2
_geom_bond_distance
_geom_bond_site_symmetry_2
Mg0 Mg3 3.037368 1_555
Mg0 Mg4 3.139137 1_554
Mg0 Mg15 3.139140 1_555
Mg0 Mg5 3.173760 1_554
Mg0 Mg11 3.173760 1_555
Mg0 Mg14 3.173762 1_565
Mg0 Mg9 3.173762 1_554
Mg1 Mg2 3.037368 1_555
Mg1 Mg4 3.139137 1_554
Mg1 Mg15 3.139140 1_555
Mg1 Mg10 3.173760 1_555
Mg1 Mg6 3.173760 1_554
Mg1 Mg13 3.173762 1_655
Mg1 Mg8 3.173762 1_554
Mg2 Mg5 3.037364 1_544
Mg2 Sn0 3.161814 1_555
Mg3 Mg6 3.037364 1_454
Mg3 Sn0 3.161814 1_555
Mg4 Mg7 3.037375 1_555
Mg4 Mg8 3.173760 1_555
Mg4 Mg9 3.173760 1_555
Mg4 Mg6 3.173769 1_555
Mg4 Mg5 3.173769 1_555
Mg5 Mg9 3.139140 1_555
Mg5 Mg8 3.173760 1_565
Mg6 Mg8 3.139140 1_555
Mg6 Mg9 3.173760 1_655
Mg7 Sn0 3.161814 1_666
Mg10 Mg7 3.037375 1_555
Mg10 Mg13 3.139137 1_655
Mg10 Mg9 3.139137 1_655
Mg10 Mg14 3.173760 1_555
Mg10 Mg6 3.173769 1_555
Mg10 Mg15 3.173769 1_555
Mg11 Mg7 3.037375 1_555
Mg11 Mg8 3.139137 1_565
Mg11 Mg14 3.139137 1_565
Mg11 Mg13 3.173760 1_555
Mg11 Mg15 3.173769 1_555
Mg11 Mg5 3.173769 1_555
Mg12 Mg15 3.037364 1_445
Mg12 Mg8 3.037368 1_555
Mg12 Mg9 3.037368 1_555
Mg12 Sn0 3.161814 1_555
Mg13 Mg3 3.037368 1_555
Mg13 Mg5 3.139140 1_555
Mg13 Mg15 3.173760 1_455
Mg13 Mg8 3.173762 1_565
Mg14 Mg2 3.037368 1_555
Mg14 Mg6 3.139140 1_555
Mg14 Mg15 3.173760 1_545
Mg14 Mg9 3.173762 1_655
Al0 Al1 2.739429 1_555
Al0 Al3 2.794070 1_654
Al0 Al9 2.794070 1_655
Al0 Mg1 2.882138 1_555
Al0 Mg13 2.969837 1_655
Al0 Mg6 2.969842 1_554
Al0 Mg7 3.129292 1_554
Al0 Mg12 3.129292 1_665
Al0 Mg15 3.154764 1_555
Al0 Mg4 3.154770 1_554
Al0 Sn0 3.247256 1_665
Al1 Al4 2.794070 1_564
Al1 Al10 2.794070 1_565
Al1 Mg0 2.882138 1_555
Al1 Mg14 2.969837 1_565
Al1 Mg5 2.969842 1_554
Al1 Mg7 3.129292 1_554
Al1 Mg12 3.129292 1_665
Al1 Mg15 3.154764 1_555
Al1 Mg4 3.154770 1_554
Al1 Sn0 3.247256 1_665
Al2 Al6 2.794070 1_455
Al2 Al5 2.794070 1_545
Al2 Mg4 2.882138 1_555
Al2 Mg8 2.969842 1_555
Al2 Mg9 2.969842 1_555
Al2 Mg2 3.129287 1_556
Al2 Mg3 3.129287 1_556
Al2 Mg0 3.154772 1_556
Al2 Mg1 3.154772 1_556
Al2 Sn0 3.247248 1_556
Al3 Al5 2.739429 1_555
Al3 Al9 2.794070 1_556
Al3 Mg9 2.882138 1_555
Al3 Mg0 2.969837 1_556
Al3 Mg6 2.969842 1_455
Al3 Mg7 3.129292 1_455
Al3 Mg2 3.129292 1_566
Al3 Mg5 3.154764 1_555
Al3 Mg10 3.154770 1_455
Al3 Sn0 3.247256 1_566
Al4 Al6 2.739429 1_555
Al4 Mg8 2.882138 1_555
Al4 Mg1 2.969837 1_556
Al4 Mg5 2.969842 1_545
Al4 Mg7 3.129292 1_545
Al4 Mg3 3.129292 1_656
Al4 Mg6 3.154764 1_555
Al4 Mg11 3.154770 1_545
Al4 Sn0 3.247256 1_656
Al5 Al6 2.794070 1_465
Al5 Mg13 2.882138 1_555
Al5 Mg8 2.969837 1_565
Al5 Mg15 2.969842 1_455
Al5 Mg7 3.129292 1_455
Al5 Mg2 3.129292 1_566
Al5 Mg5 3.154764 1_555
Al5 Mg10 3.154770 1_455
Al5 Sn0 3.247256 1_566
Al6 Mg14 2.882138 1_555
Al6 Mg9 2.969837 1_655
Al6 Mg15 2.969842 1_545
Al6 Mg7 3.129292 1_545
Al6 Mg3 3.129292 1_656
Al6 Mg6 3.154764 1_555
Al6 Mg11 3.154770 1_545
Al6 Sn0 3.247256 1_656
Al7 Al8 2.794085 1_555
Al7 Mg5 2.882138 1_555
Al7 Mg11 2.969847 1_555
Al7 Mg4 2.969847 1_555
Al7 Mg3 3.129291 1_555
Al7 Mg12 3.129291 1_555
Al7 Mg9 3.154766 1_555
Al7 Mg13 3.154766 1_555
Al7 Sn0 3.247258 1_555
Al8 Al9 2.739414 1_545
Al8 Mg6 2.882138 1_555
Al8 Mg10 2.969847 1_555
Al8 Mg4 2.969847 1_555
Al8 Mg2 3.129291 1_555
Al8 Mg12 3.129291 1_555
Al8 Mg8 3.154766 1_555
Al8 Mg14 3.154766 1_555
Al8 Sn0 3.247258 1_555
Al9 Mg11 2.882138 1_555
Al9 Mg0 2.969842 1_555
Al9 Mg13 2.969842 1_555
Al9 Mg12 3.129287 1_565
Al9 Mg2 3.129287 1_565
Al9 Mg14 3.154772 1_565
Al9 Mg8 3.154772 1_565
Al9 Sn0 3.247248 1_565
Al10 Al7 2.739414 1_655
Al10 Al4 2.794070 1_554
Al10 Mg10 2.882138 1_555
Al10 Mg1 2.969842 1_555
Al10 Mg14 2.969842 1_555
Al10 Mg12 3.129287 1_655
Al10 Mg3 3.129287 1_655
Al10 Mg9 3.154772 1_655
Al10 Mg13 3.154772 1_655
Al10 Sn0 3.247248 1_655
Al11 Al2 2.739414 1_554
Al11 Al8 2.794085 1_555
Al11 Al7 2.794085 1_555
Al11 Mg15 2.882138 1_555
Al11 Mg11 2.969847 1_555
Al11 Mg10 2.969847 1_555
Al11 Mg3 3.129291 1_555
Al11 Mg2 3.129291 1_555
Al11 Mg1 3.154766 1_555
Al11 Mg0 3.154766 1_555
Al11 Sn0 3.247258 1_555
