# generated using pymatgen
data_ZnFe4O9
_symmetry_space_group_name_H-M   'P 1'
_cell_length_a   8.43225300
_cell_length_b   8.43225300
_cell_length_c   5.15789600
_cell_angle_alpha   90.00000000
_cell_angle_beta   90.00000000
_cell_angle_gamma   90.00000000
_symmetry_Int_Tables_number   1
_chemical_formula_structural   ZnFe4O9
_chemical_formula_sum   'Zn2 Fe8 O18'
_cell_volume   366.74131530
_cell_formula_units_Z   2
loop_
 _symmetry_equiv_pos_site_id
 _symmetry_equiv_pos_as_xyz
  1  'x, y, z'
loop_
 _atom_site_type_symbol
 _atom_site_label
 _atom_site_symmetry_multiplicity
 _atom_site_fract_x
 _atom_site_fract_y
 _atom_site_fract_z
 _atom_site_occupancy
  Zn  Zn0  1  0.00000000  0.50000000  0.47862000  1
  Zn  Zn1  1  0.50000000  0.00000000  0.52138000  1
  Fe  Fe0  1  0.71641700  0.40937100  0.88554400  1
  Fe  Fe1  1  0.40937100  0.28358300  0.11445600  1
  Fe  Fe2  1  0.91012600  0.78230900  0.88038300  1
  Fe  Fe3  1  0.21769100  0.91012600  0.11961700  1
  Fe  Fe4  1  0.28358300  0.59062900  0.88554400  1
  Fe  Fe5  1  0.08987400  0.21769100  0.88038300  1
  Fe  Fe6  1  0.78230900  0.08987400  0.11961700  1
  Fe  Fe7  1  0.59062900  0.71641700  0.11445600  1
  O  O0  1  0.50000000  0.50000000  0.00000000  1
  O  O1  1  0.00000000  0.00000000  0.00000000  1
  O  O2  1  0.56922400  0.78158600  0.46064800  1
  O  O3  1  0.71800700  0.06556800  0.45873700  1
  O  O4  1  0.28199300  0.93443200  0.45873700  1
  O  O5  1  0.43077600  0.21841400  0.46064800  1
  O  O6  1  0.93443200  0.71800700  0.54126300  1
  O  O7  1  0.78158600  0.43077600  0.53935200  1
  O  O8  1  0.21841400  0.56922400  0.53935200  1
  O  O9  1  0.06556800  0.28199300  0.54126300  1
  O  O10  1  0.20970700  0.39394100  0.03799700  1
  O  O11  1  0.10608600  0.71174100  0.03638700  1
  O  O12  1  0.89391400  0.28825900  0.03638700  1
  O  O13  1  0.79029300  0.60605900  0.03799700  1
  O  O14  1  0.71174100  0.89391400  0.96361300  1
  O  O15  1  0.39394100  0.79029300  0.96200300  1
  O  O16  1  0.60605900  0.20970700  0.96200300  1
  O  O17  1  0.28825900  0.10608600  0.96361300  1
loop_
_geom_bond_atom_site_label_1
_geom_bond_atom_site_label_2
_geom_bond_distance
_geom_bond_site_symmetry_2
Fe0 O7 1.876965 1_555
Fe0 O13 1.938319 1_556
Fe0 O16 1.963682 1_555
Fe0 O12 1.971900 1_556
Fe0 O0 2.064637 1_556
Fe1 O5 1.876965 1_555
Fe1 O16 1.938319 1_554
Fe1 O10 1.963682 1_555
Fe1 O17 1.971900 1_554
Fe1 O0 2.064637 1_555
Fe2 O6 1.842691 1_555
Fe2 O11 1.931818 1_656
Fe2 O14 1.966798 1_555
Fe2 O13 1.972480 1_556
Fe2 O1 2.079543 1_666
Fe3 O4 1.842691 1_555
Fe3 O17 1.931818 1_564
Fe3 O11 1.966798 1_555
Fe3 O15 1.972480 1_554
Fe3 O1 2.079543 1_565
Fe4 O8 1.876965 1_555
Fe4 O10 1.938319 1_556
Fe4 O15 1.963682 1_555
Fe4 O11 1.971900 1_556
Fe4 O0 2.064637 1_556
Fe5 O9 1.842691 1_555
Fe5 O12 1.931818 1_456
Fe5 O17 1.966798 1_555
Fe5 O10 1.972480 1_556
Fe5 O1 2.079543 1_556
Fe6 O3 1.842691 1_555
Fe6 O14 1.931818 1_544
Fe6 O12 1.966798 1_555
Fe6 O16 1.972480 1_554
Fe6 O1 2.079543 1_655
Fe7 O2 1.876965 1_555
Fe7 O15 1.938319 1_554
Fe7 O13 1.963682 1_555
Fe7 O14 1.971900 1_554
Fe7 O0 2.064637 1_555
O2 Zn1 1.957240 1_565
O3 Zn1 1.946636 1_555
O4 Zn1 1.946636 1_565
O5 Zn1 1.957240 1_555
O6 Zn0 1.946636 1_655
O7 Zn0 1.957240 1_655
O8 Zn0 1.957240 1_555
O9 Zn0 1.946636 1_555
