# generated using pymatgen
data_Rb2Mn3S4
_symmetry_space_group_name_H-M   'P 1'
_cell_length_a   6.00732314
_cell_length_b   9.40273488
_cell_length_c   9.40273488
_cell_angle_alpha   74.16855736
_cell_angle_beta   71.37060750
_cell_angle_gamma   71.37060750
_symmetry_Int_Tables_number   1
_chemical_formula_structural   Rb2Mn3S4
_chemical_formula_sum   'Rb4 Mn6 S8'
_cell_volume   468.21496896
_cell_formula_units_Z   2
loop_
 _symmetry_equiv_pos_site_id
 _symmetry_equiv_pos_as_xyz
  1  'x, y, z'
loop_
 _atom_site_type_symbol
 _atom_site_label
 _atom_site_symmetry_multiplicity
 _atom_site_fract_x
 _atom_site_fract_y
 _atom_site_fract_z
 _atom_site_occupancy
  Rb  Rb0  1  0.73773310  0.37955106  0.62044894  1
  Rb  Rb1  1  0.26226690  0.62044894  0.37955106  1
  Rb  Rb2  1  0.76226690  0.87955106  0.12044894  1
  Rb  Rb3  1  0.23773310  0.12044894  0.87955106  1
  Mn  Mn0  1  0.75000000  0.75000000  0.75000000  1
  Mn  Mn1  1  0.25000000  0.25000000  0.25000000  1
  Mn  Mn2  1  0.25000000  0.52740337  0.97259663  1
  Mn  Mn3  1  0.25000000  0.97259663  0.52740337  1
  Mn  Mn4  1  0.75000000  0.47259663  0.02740337  1
  Mn  Mn5  1  0.75000000  0.02740337  0.47259663  1
  S  S0  1  0.56898796  0.28330240  0.01445689  1
  S  S1  1  0.13325275  0.01445689  0.28330240  1
  S  S2  1  0.93101204  0.48554311  0.21669760  1
  S  S3  1  0.36674725  0.21669760  0.48554311  1
  S  S4  1  0.43101204  0.71669760  0.98554311  1
  S  S5  1  0.86674725  0.98554311  0.71669760  1
  S  S6  1  0.06898796  0.51445689  0.78330240  1
  S  S7  1  0.63325275  0.78330240  0.51445689  1
loop_
_geom_bond_atom_site_label_1
_geom_bond_atom_site_label_2
_geom_bond_distance
_geom_bond_site_symmetry_2
Rb0 S5 3.453870 1_545
Rb0 S0 3.453870 1_556
Rb0 S6 3.540206 1_655
Rb0 S3 3.540206 1_655
Rb0 S7 3.551414 1_555
Rb0 S2 3.551414 1_555
Rb0 S3 3.737227 1_555
Rb0 S6 3.737227 1_555
Rb1 S1 3.453870 1_565
Rb1 S4 3.453870 1_554
Rb1 S2 3.540206 1_455
Rb1 S7 3.540206 1_455
Rb1 S3 3.551414 1_555
Rb1 S6 3.551414 1_555
Rb1 S7 3.737227 1_555
Rb1 S2 3.737227 1_555
Rb2 S7 3.453870 1_555
Rb2 S2 3.453870 1_555
Rb2 S4 3.540206 1_554
Rb2 S1 3.540206 1_565
Rb2 S5 3.551414 1_554
Rb2 S0 3.551414 1_565
Rb2 S1 3.737227 1_665
Rb2 S4 3.737227 1_654
Rb3 S3 3.453870 1_555
Rb3 S6 3.453870 1_555
Rb3 S0 3.540206 1_556
Rb3 S5 3.540206 1_545
Rb3 S1 3.551414 1_556
Rb3 S4 3.551414 1_545
Rb3 S5 3.737227 1_445
Rb3 S0 3.737227 1_456
Mn0 S5 2.443097 1_555
Mn0 S7 2.443097 1_555
Mn0 S6 2.443098 1_655
Mn0 S4 2.443098 1_555
Mn1 S3 2.443097 1_555
Mn1 S1 2.443097 1_555
Mn1 S2 2.443098 1_455
Mn1 S0 2.443098 1_555
Mn2 S4 2.409266 1_555
Mn2 S6 2.409266 1_555
Mn2 S2 2.504792 1_456
Mn2 S0 2.504792 1_556
Mn3 S5 2.409266 1_455
Mn3 S7 2.409266 1_555
Mn3 S3 2.504792 1_565
Mn3 S1 2.504792 1_565
Mn4 S2 2.409266 1_555
Mn4 S0 2.409266 1_555
Mn4 S4 2.504792 1_554
Mn4 S6 2.504792 1_654
Mn5 S3 2.409266 1_555
Mn5 S1 2.409266 1_655
Mn5 S5 2.504792 1_545
Mn5 S7 2.504792 1_545
