# generated using pymatgen
data_Y3Ge13Ir4
_symmetry_space_group_name_H-M   'P 1'
_cell_length_a   9.03743000
_cell_length_b   9.03743000
_cell_length_c   9.03743000
_cell_angle_alpha   90.00000000
_cell_angle_beta   90.00000000
_cell_angle_gamma   90.00000000
_symmetry_Int_Tables_number   1
_chemical_formula_structural   Y3Ge13Ir4
_chemical_formula_sum   'Y6 Ge26 Ir8'
_cell_volume   738.13336957
_cell_formula_units_Z   2
loop_
 _symmetry_equiv_pos_site_id
 _symmetry_equiv_pos_as_xyz
  1  'x, y, z'
loop_
 _atom_site_type_symbol
 _atom_site_label
 _atom_site_symmetry_multiplicity
 _atom_site_fract_x
 _atom_site_fract_y
 _atom_site_fract_z
 _atom_site_occupancy
  Y  Y0  1  0.00000000  0.50000000  0.75000000  1
  Y  Y1  1  0.50000000  0.25000000  0.00000000  1
  Y  Y2  1  0.75000000  0.00000000  0.50000000  1
  Y  Y3  1  0.00000000  0.50000000  0.25000000  1
  Y  Y4  1  0.50000000  0.75000000  0.00000000  1
  Y  Y5  1  0.25000000  0.00000000  0.50000000  1
  Ge  Ge0  1  0.50000000  0.50000000  0.50000000  1
  Ge  Ge1  1  0.00000000  0.00000000  0.00000000  1
  Ge  Ge2  1  0.80835400  0.35366300  0.50000000  1
  Ge  Ge3  1  0.64633700  0.50000000  0.80835400  1
  Ge  Ge4  1  0.50000000  0.19164600  0.64633700  1
  Ge  Ge5  1  0.19164600  0.64633700  0.50000000  1
  Ge  Ge6  1  0.35366300  0.50000000  0.19164600  1
  Ge  Ge7  1  0.50000000  0.80835400  0.35366300  1
  Ge  Ge8  1  0.80835400  0.64633700  0.50000000  1
  Ge  Ge9  1  0.64633700  0.50000000  0.19164600  1
  Ge  Ge10  1  0.19164600  0.35366300  0.50000000  1
  Ge  Ge11  1  0.35366300  0.50000000  0.80835400  1
  Ge  Ge12  1  0.50000000  0.80835400  0.64633700  1
  Ge  Ge13  1  0.50000000  0.19164600  0.35366300  1
  Ge  Ge14  1  0.30835400  0.00000000  0.85366300  1
  Ge  Ge15  1  0.14633700  0.30835400  0.00000000  1
  Ge  Ge16  1  0.00000000  0.14633700  0.69164600  1
  Ge  Ge17  1  0.69164600  0.00000000  0.14633700  1
  Ge  Ge18  1  0.85366300  0.69164600  0.00000000  1
  Ge  Ge19  1  0.00000000  0.85366300  0.30835400  1
  Ge  Ge20  1  0.30835400  0.00000000  0.14633700  1
  Ge  Ge21  1  0.14633700  0.69164600  0.00000000  1
  Ge  Ge22  1  0.69164600  0.00000000  0.85366300  1
  Ge  Ge23  1  0.85366300  0.30835400  0.00000000  1
  Ge  Ge24  1  0.00000000  0.14633700  0.30835400  1
  Ge  Ge25  1  0.00000000  0.85366300  0.69164600  1
  Ir  Ir0  1  0.75000000  0.25000000  0.75000000  1
  Ir  Ir1  1  0.25000000  0.75000000  0.25000000  1
  Ir  Ir2  1  0.75000000  0.75000000  0.25000000  1
  Ir  Ir3  1  0.25000000  0.25000000  0.75000000  1
  Ir  Ir4  1  0.25000000  0.75000000  0.75000000  1
  Ir  Ir5  1  0.75000000  0.25000000  0.25000000  1
  Ir  Ir6  1  0.25000000  0.25000000  0.25000000  1
  Ir  Ir7  1  0.75000000  0.75000000  0.75000000  1
loop_
_geom_bond_atom_site_label_1
_geom_bond_atom_site_label_2
_geom_bond_distance
_geom_bond_site_symmetry_2
Ge0 Ge2 3.084621 1_555
Ge0 Ge6 3.084621 1_555
Ge0 Ge13 3.084621 1_555
Ge0 Ge10 3.084621 1_555
Ge0 Ge11 3.084621 1_555
Ge0 Ge7 3.084621 1_555
Ge0 Ge3 3.084621 1_555
Ge0 Ge8 3.084621 1_555
Ge0 Ge5 3.084621 1_555
Ge0 Ge12 3.084621 1_555
Ge0 Ge4 3.084621 1_555
Ge0 Ge9 3.084621 1_555
Ge1 Ge16 3.084621 1_554
Ge1 Ge21 3.084621 1_545
Ge1 Ge20 3.084621 1_555
Ge1 Ge17 3.084621 1_455
Ge1 Ge24 3.084621 1_555
Ge1 Ge15 3.084621 1_555
Ge1 Ge18 3.084621 1_445
Ge1 Ge23 3.084621 1_455
Ge1 Ge22 3.084621 1_454
Ge1 Ge25 3.084621 1_544
Ge1 Ge14 3.084621 1_554
Ge1 Ge19 3.084621 1_545
Ge2 Ir5 2.502099 1_555
Ge2 Ir0 2.502099 1_555
Ge2 Ge8 2.645021 1_555
Ge2 Y3 3.139030 1_655
Ge2 Y0 3.139030 1_655
Ge2 Y2 3.239420 1_555
Ge3 Ir7 2.502099 1_555
Ge3 Ir0 2.502099 1_555
Ge3 Y4 3.139030 1_556
Ge3 Y1 3.139030 1_556
Ge3 Y0 3.239420 1_655
Ge4 Ir3 2.502099 1_555
Ge4 Ir0 2.502099 1_555
Ge4 Y5 3.139030 1_555
Ge4 Y2 3.139030 1_555
Ge4 Y1 3.239420 1_556
Ge5 Ir1 2.502099 1_555
Ge5 Ir4 2.502099 1_555
Ge5 Y0 3.139030 1_555
Ge5 Y3 3.139030 1_555
Ge5 Y5 3.239420 1_565
Ge6 Ir6 2.502099 1_555
Ge6 Ir1 2.502099 1_555
Ge6 Ge9 2.645021 1_555
Ge6 Y4 3.139030 1_555
Ge6 Y1 3.139030 1_555
Ge6 Y3 3.239420 1_555
Ge7 Ir2 2.502099 1_555
Ge7 Ir1 2.502099 1_555
Ge7 Y2 3.139030 1_565
Ge7 Y5 3.139030 1_565
Ge7 Y4 3.239420 1_555
Ge8 Ir7 2.502099 1_555
Ge8 Ir2 2.502099 1_555
Ge8 Y3 3.139030 1_655
Ge8 Y0 3.139030 1_655
Ge8 Y2 3.239420 1_565
Ge9 Ir5 2.502099 1_555
Ge9 Ir2 2.502099 1_555
Ge9 Y1 3.139030 1_555
Ge9 Y4 3.139030 1_555
Ge9 Y3 3.239420 1_655
Ge10 Ir3 2.502099 1_555
Ge10 Ir6 2.502099 1_555
Ge10 Ge5 2.645021 1_555
Ge10 Y3 3.139030 1_555
Ge10 Y0 3.139030 1_555
Ge10 Y5 3.239420 1_555
Ge11 Ir4 2.502099 1_555
Ge11 Ir3 2.502099 1_555
Ge11 Ge3 2.645021 1_555
Ge11 Y4 3.139030 1_556
Ge11 Y1 3.139030 1_556
Ge11 Y0 3.239420 1_555
Ge12 Ir7 2.502099 1_555
Ge12 Ir4 2.502099 1_555
Ge12 Ge7 2.645021 1_555
Ge12 Y2 3.139030 1_565
Ge12 Y5 3.139030 1_565
Ge12 Y4 3.239420 1_556
Ge13 Ir5 2.502099 1_555
Ge13 Ir6 2.502099 1_555
Ge13 Ge4 2.645021 1_555
Ge13 Y5 3.139030 1_555
Ge13 Y2 3.139030 1_555
Ge13 Y1 3.239420 1_555
Ge14 Ir3 2.502099 1_555
Ge14 Ir4 2.502099 1_545
Ge14 Ge20 2.645021 1_556
Ge14 Y1 3.139030 1_556
Ge14 Y4 3.139030 1_546
Ge14 Y5 3.239420 1_555
Ge15 Ir6 2.502099 1_555
Ge15 Ir3 2.502099 1_554
Ge15 Ge23 2.645021 1_455
Ge15 Y3 3.139030 1_555
Ge15 Y0 3.139030 1_554
Ge15 Y1 3.239420 1_555
Ge16 Ir3 2.502099 1_555
Ge16 Ir0 2.502099 1_455
Ge16 Ge25 2.645021 1_545
Ge16 Y5 3.139030 1_555
Ge16 Y2 3.139030 1_455
Ge16 Y0 3.239420 1_555
Ge17 Ir5 2.502099 1_555
Ge17 Ir2 2.502099 1_545
Ge17 Ge22 2.645021 1_554
Ge17 Y4 3.139030 1_545
Ge17 Y1 3.139030 1_555
Ge17 Y2 3.239420 1_555
Ge18 Ir7 2.502099 1_554
Ge18 Ir2 2.502099 1_555
Ge18 Ge21 2.645021 1_655
Ge18 Y3 3.139030 1_655
Ge18 Y0 3.139030 1_654
Ge18 Y4 3.239420 1_555
Ge19 Ir2 2.502099 1_455
Ge19 Ir1 2.502099 1_555
Ge19 Ge24 2.645021 1_565
Ge19 Y2 3.139030 1_465
Ge19 Y5 3.139030 1_565
Ge19 Y3 3.239420 1_555
Ge20 Ir1 2.502099 1_545
Ge20 Ir6 2.502099 1_555
Ge20 Y4 3.139030 1_545
Ge20 Y1 3.139030 1_555
Ge20 Y5 3.239420 1_555
Ge21 Ir4 2.502099 1_554
Ge21 Ir1 2.502099 1_555
Ge21 Y3 3.139030 1_555
Ge21 Y0 3.139030 1_554
Ge21 Y4 3.239420 1_555
Ge22 Ir0 2.502099 1_555
Ge22 Ir7 2.502099 1_545
Ge22 Y1 3.139030 1_556
Ge22 Y4 3.139030 1_546
Ge22 Y2 3.239420 1_555
Ge23 Ir0 2.502099 1_554
Ge23 Ir5 2.502099 1_555
Ge23 Y3 3.139030 1_655
Ge23 Y0 3.139030 1_654
Ge23 Y1 3.239420 1_555
Ge24 Ir5 2.502099 1_455
Ge24 Ir6 2.502099 1_555
Ge24 Y5 3.139030 1_555
Ge24 Y2 3.139030 1_455
Ge24 Y3 3.239420 1_555
Ge25 Ir4 2.502099 1_555
Ge25 Ir7 2.502099 1_455
Ge25 Y2 3.139030 1_465
Ge25 Y5 3.139030 1_565
Ge25 Y0 3.239420 1_555
Ir0 Y1 3.195214 1_556
Ir0 Y0 3.195214 1_655
Ir0 Y2 3.195214 1_555
Ir1 Y3 3.195214 1_555
Ir1 Y4 3.195214 1_555
Ir1 Y5 3.195214 1_565
Ir2 Y3 3.195214 1_655
Ir2 Y2 3.195214 1_565
Ir2 Y4 3.195214 1_555
Ir3 Y0 3.195214 1_555
Ir3 Y5 3.195214 1_555
Ir3 Y1 3.195214 1_556
Ir4 Y0 3.195214 1_555
Ir4 Y4 3.195214 1_556
Ir4 Y5 3.195214 1_565
Ir5 Y3 3.195214 1_655
Ir5 Y1 3.195214 1_555
Ir5 Y2 3.195214 1_555
Ir6 Y5 3.195214 1_555
Ir6 Y3 3.195214 1_555
Ir6 Y1 3.195214 1_555
Ir7 Y4 3.195214 1_556
Ir7 Y2 3.195214 1_565
Ir7 Y0 3.195214 1_655
