# generated using pymatgen
data_Ho11Sn10
_symmetry_space_group_name_H-M   'P 1'
_cell_length_a   11.44950881
_cell_length_b   11.44954905
_cell_length_c   11.66852068
_cell_angle_alpha   119.37811318
_cell_angle_beta   119.37693734
_cell_angle_gamma   89.99899615
_symmetry_Int_Tables_number   1
_chemical_formula_structural   Ho11Sn10
_chemical_formula_sum   'Ho22 Sn20'
_cell_volume   1101.67073208
_cell_formula_units_Z   2
loop_
 _symmetry_equiv_pos_site_id
 _symmetry_equiv_pos_as_xyz
  1  'x, y, z'
loop_
 _atom_site_type_symbol
 _atom_site_label
 _atom_site_symmetry_multiplicity
 _atom_site_fract_x
 _atom_site_fract_y
 _atom_site_fract_z
 _atom_site_occupancy
  Ho  Ho0  1  0.93750389  0.18894612  0.37788104  1
  Ho  Ho1  1  0.44040793  0.18896034  0.37790651  1
  Ho  Ho2  1  0.18896551  0.44040601  0.37790005  1
  Ho  Ho3  1  0.18895777  0.93750813  0.37788747  1
  Ho  Ho4  1  0.06249573  0.81105378  0.62211868  1
  Ho  Ho5  1  0.55959184  0.81103958  0.62209361  1
  Ho  Ho6  1  0.81103458  0.55959419  0.62210028  1
  Ho  Ho7  1  0.81104228  0.06249196  0.62211272  1
  Ho  Ho8  1  0.82624864  0.17371568  0.99996443  1
  Ho  Ho9  1  0.17375245  0.82628363  0.00003568  1
  Ho  Ho10  1  0.17378881  0.17378855  0.00011085  1
  Ho  Ho11  1  0.82621252  0.82621237  0.99988900  1
  Ho  Ho12  1  0.33411148  0.33410971  0.66827413  1
  Ho  Ho13  1  0.66588843  0.66588991  0.33172557  1
  Ho  Ho14  1  0.06688585  0.39798900  0.79594623  1
  Ho  Ho15  1  0.72910107  0.39799109  0.79603942  1
  Ho  Ho16  1  0.39799579  0.72911053  0.79601337  1
  Ho  Ho17  1  0.39802011  0.06692122  0.79597199  1
  Ho  Ho18  1  0.93311435  0.60201090  0.20405369  1
  Ho  Ho19  1  0.27089904  0.60200898  0.20396089  1
  Ho  Ho20  1  0.60200411  0.27088923  0.20398634  1
  Ho  Ho21  1  0.60197988  0.93307877  0.20402791  1
  Sn  Sn0  1  -0.00000483  0.35481140  -0.00001135  1
  Sn  Sn1  1  0.00000202  0.64518851  0.00001139  1
  Sn  Sn2  1  0.35480627  -0.00000886  0.99997703  1
  Sn  Sn3  1  0.64519461  0.00000885  0.00002288  1
  Sn  Sn4  1  0.11282679  0.11282865  0.22567710  1
  Sn  Sn5  1  0.88717170  0.88717134  0.77432291  1
  Sn  Sn6  1  0.62998230  0.37013314  0.00011609  1
  Sn  Sn7  1  0.37001798  0.62986638  0.99988387  1
  Sn  Sn8  1  0.36983347  0.36983323  0.99964049  1
  Sn  Sn9  1  0.63016686  0.63016699  0.00035963  1
  Sn  Sn10  1  0.74998092  0.25002067  0.49999959  1
  Sn  Sn11  1  0.25001951  0.74997924  0.50000045  1
  Sn  Sn12  1  0.11817293  0.53029527  0.64845741  1
  Sn  Sn13  1  0.53035911  0.11815940  0.64850755  1
  Sn  Sn14  1  0.53041969  0.53041523  0.64852700  1
  Sn  Sn15  1  0.11821280  0.11820774  0.64847787  1
  Sn  Sn16  1  0.88182703  0.46970473  0.35154241  1
  Sn  Sn17  1  0.46964111  0.88184057  0.35149266  1
  Sn  Sn18  1  0.46958043  0.46958483  0.35147312  1
  Sn  Sn19  1  0.88178722  0.88179202  0.35152205  1
loop_
_geom_bond_atom_site_label_1
_geom_bond_atom_site_label_2
_geom_bond_distance
_geom_bond_site_symmetry_2
Ho0 Sn10 3.025422 1_555
Ho0 Sn4 3.149956 1_655
Ho0 Sn15 3.317529 1_655
Ho0 Sn12 3.317814 1_655
Ho0 Sn3 3.388991 1_555
Ho0 Sn16 3.407527 1_555
Ho0 Sn19 3.408164 1_545
Ho1 Sn10 3.024938 1_555
Ho1 Sn4 3.150707 1_555
Ho1 Sn13 3.317913 1_555
Ho1 Sn14 3.318519 1_555
Ho1 Sn2 3.389266 1_554
Ho1 Sn18 3.406415 1_555
Ho1 Sn17 3.407314 1_545
Ho2 Sn11 3.024910 1_555
Ho2 Sn4 3.150663 1_555
Ho2 Sn12 3.317454 1_555
Ho2 Sn14 3.318573 1_555
Ho2 Sn0 3.389142 1_555
Ho2 Sn18 3.406256 1_555
Ho2 Sn16 3.407868 1_455
Ho3 Sn11 3.025471 1_555
Ho3 Sn4 3.150022 1_565
Ho3 Sn15 3.317459 1_565
Ho3 Sn13 3.318264 1_565
Ho3 Sn1 3.389114 1_555
Ho3 Sn17 3.406946 1_555
Ho3 Sn19 3.408304 1_455
Ho4 Sn11 3.025428 1_555
Ho4 Sn5 3.149970 1_455
Ho4 Sn19 3.317526 1_455
Ho4 Sn16 3.317812 1_455
Ho4 Sn2 3.388997 1_565
Ho4 Sn12 3.407527 1_555
Ho4 Sn15 3.408162 1_565
Ho5 Sn11 3.024931 1_555
Ho5 Sn5 3.150694 1_555
Ho5 Sn17 3.317914 1_555
Ho5 Sn18 3.318518 1_555
Ho5 Sn3 3.389260 1_566
Ho5 Sn14 3.406413 1_555
Ho5 Sn13 3.407314 1_565
Ho6 Sn10 3.024912 1_555
Ho6 Sn5 3.150661 1_555
Ho6 Sn16 3.317458 1_555
Ho6 Sn18 3.318573 1_555
Ho6 Sn1 3.389140 1_656
Ho6 Sn14 3.406255 1_555
Ho6 Sn12 3.407869 1_655
Ho7 Sn10 3.025470 1_555
Ho7 Sn5 3.150021 1_545
Ho7 Sn19 3.317462 1_545
Ho7 Sn17 3.318263 1_545
Ho7 Sn0 3.389113 1_656
Ho7 Sn13 3.406944 1_555
Ho7 Sn15 3.408305 1_655
Ho8 Sn0 2.873262 1_656
Ho8 Sn3 2.873272 1_556
Ho8 Sn6 3.179156 1_556
Ho8 Sn5 3.392498 1_545
Ho8 Sn4 3.392867 1_656
Ho8 Sn13 3.536903 1_555
Ho8 Sn16 3.538046 1_556
Ho9 Sn2 2.873277 1_564
Ho9 Sn1 2.873288 1_555
Ho9 Sn7 3.179148 1_554
Ho9 Sn4 3.392520 1_565
Ho9 Sn5 3.392890 1_454
Ho9 Sn17 3.536896 1_555
Ho9 Sn12 3.538040 1_554
Ho10 Sn2 2.873187 1_554
Ho10 Sn0 2.873200 1_555
Ho10 Sn8 3.178209 1_554
Ho10 Sn4 3.392156 1_555
Ho10 Sn5 3.393305 1_444
Ho10 Sn18 3.535952 1_555
Ho10 Sn15 3.538568 1_554
Ho11 Sn1 2.873176 1_656
Ho11 Sn3 2.873183 1_566
Ho11 Sn9 3.178225 1_556
Ho11 Sn5 3.392129 1_555
Ho11 Sn4 3.393279 1_666
Ho11 Sn14 3.535961 1_555
Ho11 Sn19 3.538579 1_556
Ho12 Sn15 3.339800 1_555
Ho12 Sn12 3.340700 1_555
Ho12 Sn13 3.341271 1_555
Ho12 Sn14 3.342621 1_555
Ho12 Sn8 3.490218 1_555
Ho12 Sn7 3.491664 1_555
Ho12 Sn6 3.493261 1_556
Ho12 Sn9 3.495974 1_556
Ho12 Sn4 3.719504 1_555
Ho13 Sn19 3.339800 1_555
Ho13 Sn16 3.340697 1_555
Ho13 Sn17 3.341271 1_555
Ho13 Sn18 3.342619 1_555
Ho13 Sn9 3.490219 1_555
Ho13 Sn6 3.491664 1_555
Ho13 Sn7 3.493257 1_554
Ho13 Sn8 3.495969 1_554
Ho13 Sn5 3.719507 1_555
Ho14 Sn12 3.025014 1_555
Ho14 Sn15 3.025179 1_555
Ho14 Sn0 3.072998 1_556
Ho14 Sn1 3.073044 1_556
Ho14 Sn10 3.150807 1_455
Ho14 Sn8 3.232279 1_555
Ho14 Sn7 3.233535 1_555
Ho15 Sn13 3.025258 1_555
Ho15 Sn14 3.025753 1_555
Ho15 Sn0 3.072515 1_656
Ho15 Sn1 3.073121 1_656
Ho15 Sn10 3.150902 1_555
Ho15 Sn6 3.233680 1_556
Ho15 Sn9 3.234966 1_556
Ho16 Sn12 3.025491 1_555
Ho16 Sn14 3.025652 1_555
Ho16 Sn2 3.072496 1_565
Ho16 Sn3 3.073033 1_566
Ho16 Sn11 3.150589 1_555
Ho16 Sn7 3.233044 1_555
Ho16 Sn9 3.235219 1_556
Ho17 Sn13 3.024769 1_555
Ho17 Sn15 3.025267 1_555
Ho17 Sn3 3.073066 1_556
Ho17 Sn2 3.073085 1_555
Ho17 Sn11 3.151115 1_545
Ho17 Sn8 3.232033 1_555
Ho17 Sn6 3.234161 1_556
Ho18 Sn16 3.025013 1_555
Ho18 Sn19 3.025179 1_555
Ho18 Sn1 3.072975 1_655
Ho18 Sn0 3.073021 1_655
Ho18 Sn11 3.150809 1_655
Ho18 Sn9 3.232279 1_555
Ho18 Sn6 3.233537 1_555
Ho19 Sn17 3.025258 1_555
Ho19 Sn18 3.025752 1_555
Ho19 Sn1 3.072537 1_555
Ho19 Sn0 3.073142 1_555
Ho19 Sn11 3.150897 1_555
Ho19 Sn7 3.233682 1_554
Ho19 Sn8 3.234968 1_554
Ho20 Sn16 3.025492 1_555
Ho20 Sn18 3.025654 1_555
Ho20 Sn3 3.072499 1_555
Ho20 Sn2 3.073025 1_554
Ho20 Sn10 3.150591 1_555
Ho20 Sn6 3.233042 1_555
Ho20 Sn8 3.235218 1_554
Ho21 Sn17 3.024771 1_555
Ho21 Sn19 3.025269 1_555
Ho21 Sn2 3.073061 1_564
Ho21 Sn3 3.073090 1_565
Ho21 Sn10 3.151115 1_565
Ho21 Sn9 3.232032 1_555
Ho21 Sn7 3.234163 1_554
Sn6 Sn8 2.975857 1_554
Sn6 Sn9 2.975877 1_555
Sn7 Sn9 2.975856 1_556
Sn7 Sn8 2.975870 1_555
Sn12 Sn16 2.872439 1_455
Sn12 Sn7 3.200319 1_555
Sn13 Sn17 2.872509 1_545
Sn13 Sn6 3.201934 1_556
Sn14 Sn18 2.871807 1_555
Sn14 Sn9 3.203506 1_556
Sn15 Sn19 2.873404 1_445
Sn15 Sn8 3.197810 1_555
Sn16 Sn6 3.200316 1_555
Sn17 Sn7 3.201938 1_554
Sn18 Sn8 3.203507 1_554
Sn19 Sn9 3.197806 1_555
