# generated using pymatgen
data_FeCo(RhS2)4
_symmetry_space_group_name_H-M   'P 1'
_cell_length_a   6.86470435
_cell_length_b   6.86470435
_cell_length_c   6.86470435
_cell_angle_alpha   90.00000000
_cell_angle_beta   60.00000000
_cell_angle_gamma   120.00000000
_symmetry_Int_Tables_number   1
_chemical_formula_structural   FeCo(RhS2)4
_chemical_formula_sum   'Fe1 Co1 Rh4 S8'
_cell_volume   228.74442397
_cell_formula_units_Z   1
loop_
 _symmetry_equiv_pos_site_id
 _symmetry_equiv_pos_as_xyz
  1  'x, y, z'
loop_
 _atom_site_type_symbol
 _atom_site_label
 _atom_site_symmetry_multiplicity
 _atom_site_fract_x
 _atom_site_fract_y
 _atom_site_fract_z
 _atom_site_occupancy
  Fe  Fe0  1  0.50000000  0.75000000  0.75000000  1
  Co  Co0  1  0.00000000  0.00000000  0.00000000  1
  Rh  Rh0  1  0.74801500  0.37400700  0.87797800  1
  Rh  Rh1  1  0.25198500  0.37400700  0.37400700  1
  Rh  Rh2  1  0.25198500  0.87797800  0.37400700  1
  Rh  Rh3  1  0.74801500  0.37400700  0.37400700  1
  S  S0  1  0.25624400  0.12812200  0.61563400  1
  S  S1  1  0.74375600  0.12812200  0.12812200  1
  S  S2  1  0.74375600  0.61563400  0.12812200  1
  S  S3  1  0.25624400  0.12812200  0.12812200  1
  S  S4  1  0.24304400  0.62152200  0.13543400  1
  S  S5  1  0.75695600  0.62152200  0.62152200  1
  S  S6  1  0.75695600  0.13543400  0.62152200  1
  S  S7  1  0.24304400  0.62152200  0.62152200  1
loop_
_geom_bond_atom_site_label_1
_geom_bond_atom_site_label_2
_geom_bond_distance
_geom_bond_site_symmetry_2
Fe0 S7 2.160361 1_555
Fe0 S5 2.160361 1_555
Fe0 S6 2.160361 1_565
Fe0 S4 2.160361 1_556
Co0 S2 2.154374 1_445
Co0 S1 2.154374 1_455
Co0 S3 2.154374 1_555
Co0 S0 2.154374 1_554
Rh0 S1 2.387269 1_556
Rh0 S3 2.387274 1_556
Rh0 S2 2.387274 1_556
Rh0 S6 2.403694 1_555
Rh0 S7 2.403694 1_655
Rh0 S5 2.403698 1_555
Rh1 S3 2.387269 1_555
Rh1 S2 2.387274 1_555
Rh1 S0 2.387274 1_555
Rh1 S4 2.403694 1_555
Rh1 S6 2.403694 1_455
Rh1 S7 2.403698 1_555
Rh2 S3 2.387269 1_565
Rh2 S1 2.387274 1_565
Rh2 S0 2.387274 1_565
Rh2 S4 2.403694 1_555
Rh2 S5 2.403694 1_455
Rh2 S7 2.403698 1_555
Rh3 S1 2.387269 1_555
Rh3 S0 2.387274 1_555
Rh3 S2 2.387274 1_555
Rh3 S6 2.403694 1_555
Rh3 S4 2.403694 1_655
Rh3 S5 2.403698 1_555
