# generated using pymatgen
data_Pr2(Zn2Ge)3
_symmetry_space_group_name_H-M   'P 1'
_cell_length_a   7.62030747
_cell_length_b   7.62030807
_cell_length_c   4.10410541
_cell_angle_alpha   90.00000000
_cell_angle_beta   90.00000000
_cell_angle_gamma   120.00000176
_symmetry_Int_Tables_number   1
_chemical_formula_structural   Pr2(Zn2Ge)3
_chemical_formula_sum   'Pr2 Zn6 Ge3'
_cell_volume   206.39261566
_cell_formula_units_Z   1
loop_
 _symmetry_equiv_pos_site_id
 _symmetry_equiv_pos_as_xyz
  1  'x, y, z'
loop_
 _atom_site_type_symbol
 _atom_site_label
 _atom_site_symmetry_multiplicity
 _atom_site_fract_x
 _atom_site_fract_y
 _atom_site_fract_z
 _atom_site_occupancy
  Pr  Pr0  1  0.66666700  0.33333300  0.00000000  1
  Pr  Pr1  1  0.33333300  0.66666700  0.00000000  1
  Zn  Zn0  1  0.71106641  1.00000000  0.50000000  1
  Zn  Zn1  1  0.00000000  0.71106641  0.50000000  1
  Zn  Zn2  1  0.18818630  0.00000000  0.00000000  1
  Zn  Zn3  1  0.81181370  0.81181370  0.00000000  1
  Zn  Zn4  1  0.28893359  0.28893359  0.50000000  1
  Zn  Zn5  1  1.00000000  0.18818630  0.00000000  1
  Ge  Ge0  1  0.37916410  0.00000000  0.50000000  1
  Ge  Ge1  1  0.62083590  0.62083590  0.50000000  1
  Ge  Ge2  1  1.00000000  0.37916410  0.50000000  1
loop_
_geom_bond_atom_site_label_1
_geom_bond_atom_site_label_2
_geom_bond_distance
_geom_bond_site_symmetry_2
Pr0 Zn5 3.238054 1_555
Pr0 Zn2 3.238059 1_555
Pr0 Zn3 3.238061 1_555
Pr0 Zn0 3.411292 1_544
Pr0 Zn0 3.411292 1_545
Pr0 Zn1 3.411295 1_655
Pr0 Zn1 3.411295 1_654
Pr0 Zn4 3.411298 1_554
Pr0 Zn4 3.411298 1_555
Pr1 Zn2 3.238054 1_565
Pr1 Zn5 3.238059 1_455
Pr1 Zn3 3.238061 1_555
Pr1 Zn1 3.411292 1_554
Pr1 Zn1 3.411292 1_555
Pr1 Zn0 3.411295 1_555
Pr1 Zn0 3.411295 1_554
Pr1 Zn4 3.411298 1_554
Pr1 Zn4 3.411298 1_555
Ge0 Zn2 2.515720 1_556
Ge0 Zn2 2.515720 1_555
Ge0 Zn0 2.529198 1_545
Ge0 Zn1 2.614274 1_545
Ge0 Zn4 2.614274 1_555
Ge0 Pr1 3.146090 1_546
Ge0 Pr1 3.146090 1_545
Ge0 Pr0 3.146092 1_555
Ge0 Pr0 3.146092 1_556
Ge1 Zn3 2.515720 1_555
Ge1 Zn3 2.515720 1_556
Ge1 Zn4 2.529198 1_555
Ge1 Zn1 2.614274 1_655
Ge1 Zn0 2.614274 1_555
Ge1 Pr1 3.146095 1_556
Ge1 Pr1 3.146095 1_555
Ge1 Pr0 3.146095 1_555
Ge1 Pr0 3.146095 1_556
Ge2 Zn5 2.515720 1_556
Ge2 Zn5 2.515720 1_555
Ge2 Zn1 2.529198 1_655
Ge2 Zn4 2.614274 1_655
Ge2 Zn0 2.614274 1_545
Ge2 Pr0 3.146089 1_555
Ge2 Pr0 3.146089 1_556
Ge2 Pr1 3.146092 1_656
Ge2 Pr1 3.146092 1_655
