# generated using pymatgen
data_Mg30ZnCoO32
_symmetry_space_group_name_H-M   'P 1'
_cell_length_a   8.52311500
_cell_length_b   8.52311500
_cell_length_c   8.51102700
_cell_angle_alpha   90.00000000
_cell_angle_beta   90.00000000
_cell_angle_gamma   90.00000000
_symmetry_Int_Tables_number   1
_chemical_formula_structural   Mg30ZnCoO32
_chemical_formula_sum   'Mg30 Zn1 Co1 O32'
_cell_volume   618.27069883
_cell_formula_units_Z   1
loop_
 _symmetry_equiv_pos_site_id
 _symmetry_equiv_pos_as_xyz
  1  'x, y, z'
loop_
 _atom_site_type_symbol
 _atom_site_label
 _atom_site_symmetry_multiplicity
 _atom_site_fract_x
 _atom_site_fract_y
 _atom_site_fract_z
 _atom_site_occupancy
  Mg  Mg0  1  0.50000000  0.00000000  0.00000000  1
  Mg  Mg1  1  0.00000000  0.50000000  0.00000000  1
  Mg  Mg2  1  0.00000000  0.00000000  0.50000000  1
  Mg  Mg3  1  0.50000000  0.00000000  0.50000000  1
  Mg  Mg4  1  0.00000000  0.50000000  0.50000000  1
  Mg  Mg5  1  0.50000000  0.50000000  0.50000000  1
  Mg  Mg6  1  0.25052600  0.25052600  0.00000000  1
  Mg  Mg7  1  0.74947400  0.25052600  0.00000000  1
  Mg  Mg8  1  0.25052600  0.74947400  0.00000000  1
  Mg  Mg9  1  0.74947400  0.74947400  0.00000000  1
  Mg  Mg10  1  0.24998100  0.24998100  0.50000000  1
  Mg  Mg11  1  0.75001900  0.24998100  0.50000000  1
  Mg  Mg12  1  0.24998100  0.75001900  0.50000000  1
  Mg  Mg13  1  0.75001900  0.75001900  0.50000000  1
  Mg  Mg14  1  0.24998000  0.00000000  0.24975900  1
  Mg  Mg15  1  0.75002000  0.00000000  0.24975900  1
  Mg  Mg16  1  0.24995600  0.50000000  0.24936500  1
  Mg  Mg17  1  0.75004400  0.50000000  0.24936500  1
  Mg  Mg18  1  0.24998000  0.00000000  0.75024100  1
  Mg  Mg19  1  0.75002000  0.00000000  0.75024100  1
  Mg  Mg20  1  0.24995600  0.50000000  0.75063500  1
  Mg  Mg21  1  0.75004400  0.50000000  0.75063500  1
  Mg  Mg22  1  0.00000000  0.24998000  0.24975900  1
  Mg  Mg23  1  0.50000000  0.24995600  0.24936500  1
  Mg  Mg24  1  0.00000000  0.75002000  0.24975900  1
  Mg  Mg25  1  0.50000000  0.75004400  0.24936500  1
  Mg  Mg26  1  0.00000000  0.24998000  0.75024100  1
  Mg  Mg27  1  0.50000000  0.24995600  0.75063500  1
  Mg  Mg28  1  0.00000000  0.75002000  0.75024100  1
  Mg  Mg29  1  0.50000000  0.75004400  0.75063500  1
  Zn  Zn0  1  0.00000000  0.00000000  0.00000000  1
  Co  Co0  1  0.50000000  0.50000000  0.00000000  1
  O  O0  1  0.00000000  0.00000000  0.25353500  1
  O  O1  1  0.50000000  0.00000000  0.25046000  1
  O  O2  1  0.00000000  0.50000000  0.25046000  1
  O  O3  1  0.50000000  0.50000000  0.25042200  1
  O  O4  1  0.00000000  0.00000000  0.74646500  1
  O  O5  1  0.50000000  0.00000000  0.74954000  1
  O  O6  1  0.00000000  0.50000000  0.74954000  1
  O  O7  1  0.50000000  0.50000000  0.74957800  1
  O  O8  1  0.25014000  0.25014000  0.24969900  1
  O  O9  1  0.74986000  0.25014000  0.24969900  1
  O  O10  1  0.25014000  0.74986000  0.24969900  1
  O  O11  1  0.74986000  0.74986000  0.24969900  1
  O  O12  1  0.25014000  0.25014000  0.75030100  1
  O  O13  1  0.74986000  0.25014000  0.75030100  1
  O  O14  1  0.25014000  0.74986000  0.75030100  1
  O  O15  1  0.74986000  0.74986000  0.75030100  1
  O  O16  1  0.25320500  0.00000000  0.00000000  1
  O  O17  1  0.74679500  0.00000000  0.00000000  1
  O  O18  1  0.24707300  0.50000000  0.00000000  1
  O  O19  1  0.75292700  0.50000000  0.00000000  1
  O  O20  1  0.25025500  0.00000000  0.50000000  1
  O  O21  1  0.74974500  0.00000000  0.50000000  1
  O  O22  1  0.25036900  0.50000000  0.50000000  1
  O  O23  1  0.74963100  0.50000000  0.50000000  1
  O  O24  1  0.00000000  0.25320500  0.00000000  1
  O  O25  1  0.50000000  0.24707300  0.00000000  1
  O  O26  1  0.00000000  0.74679500  0.00000000  1
  O  O27  1  0.50000000  0.75292700  0.00000000  1
  O  O28  1  0.00000000  0.25025500  0.50000000  1
  O  O29  1  0.50000000  0.25036900  0.50000000  1
  O  O30  1  0.00000000  0.74974500  0.50000000  1
  O  O31  1  0.50000000  0.74963100  0.50000000  1
loop_
_geom_bond_atom_site_label_1
_geom_bond_atom_site_label_2
_geom_bond_distance
_geom_bond_site_symmetry_2
Mg0 O16 2.103462 1_555
Mg0 O17 2.103462 1_555
Mg0 O27 2.105832 1_545
Mg0 O25 2.105832 1_555
Mg0 O1 2.131672 1_555
Mg0 O5 2.131672 1_554
Mg1 O24 2.103462 1_555
Mg1 O26 2.103462 1_555
Mg1 O18 2.105832 1_555
Mg1 O19 2.105832 1_455
Mg1 O2 2.131672 1_555
Mg1 O6 2.131672 1_554
Mg2 O0 2.097670 1_555
Mg2 O4 2.097670 1_555
Mg2 O20 2.132952 1_555
Mg2 O28 2.132952 1_555
Mg2 O30 2.132952 1_545
Mg2 O21 2.132952 1_455
Mg3 O1 2.123842 1_555
Mg3 O5 2.123842 1_555
Mg3 O20 2.128605 1_555
Mg3 O21 2.128605 1_555
Mg3 O31 2.133924 1_545
Mg3 O29 2.133924 1_555
Mg4 O2 2.123842 1_555
Mg4 O6 2.123842 1_555
Mg4 O28 2.128605 1_555
Mg4 O30 2.128605 1_555
Mg4 O23 2.133924 1_455
Mg4 O22 2.133924 1_555
Mg5 O7 2.124165 1_555
Mg5 O3 2.124165 1_555
Mg5 O29 2.127634 1_555
Mg5 O22 2.127634 1_555
Mg5 O31 2.127634 1_555
Mg5 O23 2.127634 1_555
Mg6 O12 2.125200 1_554
Mg6 O8 2.125200 1_555
Mg6 O25 2.126499 1_555
Mg6 O18 2.126499 1_555
Mg6 O24 2.135384 1_555
Mg6 O16 2.135384 1_555
Mg7 O13 2.125200 1_554
Mg7 O9 2.125200 1_555
Mg7 O25 2.126499 1_555
Mg7 O19 2.126499 1_555
Mg7 O24 2.135384 1_655
Mg7 O17 2.135384 1_555
Mg8 O10 2.125200 1_555
Mg8 O14 2.125200 1_554
Mg8 O18 2.126499 1_555
Mg8 O27 2.126499 1_555
Mg8 O26 2.135384 1_555
Mg8 O16 2.135384 1_565
Mg9 O15 2.125200 1_554
Mg9 O11 2.125200 1_555
Mg9 O19 2.126499 1_555
Mg9 O27 2.126499 1_555
Mg9 O26 2.135384 1_655
Mg9 O17 2.135384 1_565
Mg10 O8 2.130319 1_555
Mg10 O12 2.130319 1_555
Mg10 O20 2.130618 1_555
Mg10 O28 2.130618 1_555
Mg10 O22 2.130943 1_555
Mg10 O29 2.130943 1_555
Mg11 O9 2.130319 1_555
Mg11 O13 2.130319 1_555
Mg11 O28 2.130618 1_655
Mg11 O21 2.130618 1_555
Mg11 O23 2.130943 1_555
Mg11 O29 2.130943 1_555
Mg12 O14 2.130319 1_555
Mg12 O10 2.130319 1_555
Mg12 O30 2.130618 1_555
Mg12 O20 2.130618 1_565
Mg12 O31 2.130943 1_555
Mg12 O22 2.130943 1_555
Mg13 O11 2.130319 1_555
Mg13 O15 2.130319 1_555
Mg13 O21 2.130618 1_565
Mg13 O30 2.130618 1_655
Mg13 O31 2.130943 1_555
Mg13 O23 2.130943 1_555
Mg14 O16 2.125883 1_555
Mg14 O20 2.129809 1_555
Mg14 O0 2.130851 1_555
Mg14 O1 2.130958 1_555
Mg14 O8 2.131972 1_555
Mg14 O10 2.131972 1_545
Mg15 O17 2.125883 1_555
Mg15 O21 2.129809 1_555
Mg15 O0 2.130851 1_655
Mg15 O1 2.130958 1_555
Mg15 O9 2.131972 1_555
Mg15 O11 2.131972 1_545
Mg16 O18 2.122494 1_555
Mg16 O10 2.129588 1_555
Mg16 O8 2.129588 1_555
Mg16 O2 2.130424 1_555
Mg16 O3 2.131173 1_555
Mg16 O22 2.133164 1_555
Mg17 O19 2.122494 1_555
Mg17 O11 2.129588 1_555
Mg17 O9 2.129588 1_555
Mg17 O2 2.130424 1_655
Mg17 O3 2.131173 1_555
Mg17 O23 2.133164 1_555
Mg18 O16 2.125883 1_556
Mg18 O20 2.129809 1_555
Mg18 O4 2.130851 1_555
Mg18 O5 2.130958 1_555
Mg18 O12 2.131972 1_555
Mg18 O14 2.131972 1_545
Mg19 O17 2.125883 1_556
Mg19 O21 2.129809 1_555
Mg19 O4 2.130851 1_655
Mg19 O5 2.130958 1_555
Mg19 O13 2.131972 1_555
Mg19 O15 2.131972 1_545
Mg20 O18 2.122494 1_556
Mg20 O14 2.129588 1_555
Mg20 O12 2.129588 1_555
Mg20 O6 2.130424 1_555
Mg20 O7 2.131173 1_555
Mg20 O22 2.133164 1_555
Mg21 O19 2.122494 1_556
Mg21 O15 2.129588 1_555
Mg21 O13 2.129588 1_555
Mg21 O6 2.130424 1_655
Mg21 O7 2.131173 1_555
Mg21 O23 2.133164 1_555
Mg22 O24 2.125883 1_555
Mg22 O28 2.129809 1_555
Mg22 O0 2.130851 1_555
Mg22 O2 2.130958 1_555
Mg22 O8 2.131972 1_555
Mg22 O9 2.131972 1_455
Mg23 O25 2.122494 1_555
Mg23 O9 2.129588 1_555
Mg23 O8 2.129588 1_555
Mg23 O1 2.130424 1_555
Mg23 O3 2.131173 1_555
Mg23 O29 2.133164 1_555
Mg24 O26 2.125883 1_555
Mg24 O30 2.129809 1_555
Mg24 O0 2.130851 1_565
Mg24 O2 2.130958 1_555
Mg24 O10 2.131972 1_555
Mg24 O11 2.131972 1_455
Mg25 O27 2.122494 1_555
Mg25 O11 2.129588 1_555
Mg25 O10 2.129588 1_555
Mg25 O1 2.130424 1_565
Mg25 O3 2.131173 1_555
Mg25 O31 2.133164 1_555
Mg26 O24 2.125883 1_556
Mg26 O28 2.129809 1_555
Mg26 O4 2.130851 1_555
Mg26 O6 2.130958 1_555
Mg26 O12 2.131972 1_555
Mg26 O13 2.131972 1_455
Mg27 O25 2.122494 1_556
Mg27 O13 2.129588 1_555
Mg27 O12 2.129588 1_555
Mg27 O5 2.130424 1_555
Mg27 O7 2.131173 1_555
Mg27 O29 2.133164 1_555
Mg28 O26 2.125883 1_556
Mg28 O30 2.129809 1_555
Mg28 O4 2.130851 1_565
Mg28 O6 2.130958 1_555
Mg28 O14 2.131972 1_555
Mg28 O15 2.131972 1_455
Mg29 O27 2.122494 1_556
Mg29 O15 2.129588 1_555
Mg29 O14 2.129588 1_555
Mg29 O5 2.130424 1_565
Mg29 O7 2.131173 1_555
Mg29 O31 2.133164 1_555
Co0 O3 2.131348 1_555
Co0 O7 2.131348 1_554
Co0 O19 2.155726 1_555
Co0 O27 2.155726 1_555
Co0 O25 2.155726 1_555
Co0 O18 2.155726 1_555
O0 Zn0 2.157843 1_555
O4 Zn0 2.157843 1_556
O16 Zn0 2.158095 1_555
O17 Zn0 2.158095 1_655
O24 Zn0 2.158095 1_555
O26 Zn0 2.158095 1_565
