# generated using pymatgen
data_LiNi3O4
_symmetry_space_group_name_H-M   'P 1'
_cell_length_a   5.87363639
_cell_length_b   5.90560835
_cell_length_c   5.89119609
_cell_angle_alpha   120.03228115
_cell_angle_beta   90.31190157
_cell_angle_gamma   59.94717789
_symmetry_Int_Tables_number   1
_chemical_formula_structural   LiNi3O4
_chemical_formula_sum   'Li2 Ni6 O8'
_cell_volume   144.70137818
_cell_formula_units_Z   2
loop_
 _symmetry_equiv_pos_site_id
 _symmetry_equiv_pos_as_xyz
  1  'x, y, z'
loop_
 _atom_site_type_symbol
 _atom_site_label
 _atom_site_symmetry_multiplicity
 _atom_site_fract_x
 _atom_site_fract_y
 _atom_site_fract_z
 _atom_site_occupancy
  Li  Li0  1  0.49995300  0.50001000  0.50010100  1
  Li  Li1  1  0.00008200  0.49990100  0.49992000  1
  Ni  Ni0  1  0.99994300  0.49996900  0.00003300  1
  Ni  Ni1  1  0.50006800  0.50007500  0.99988400  1
  Ni  Ni2  1  0.50016700  0.99981900  0.99979900  1
  Ni  Ni3  1  0.99995500  0.00002600  0.00001600  1
  Ni  Ni4  1  0.00002300  0.00005000  0.50001200  1
  Ni  Ni5  1  0.49994500  0.00009800  0.49998900  1
  O  O0  1  0.26435300  0.50022900  0.76679600  1
  O  O1  1  0.73782300  0.50084400  0.77490900  1
  O  O2  1  0.73545800  0.49989200  0.23344300  1
  O  O3  1  0.26215600  0.49907600  0.22528200  1
  O  O4  1  0.75539700  0.98951100  0.74442900  1
  O  O5  1  0.24478600  0.01101100  0.75581900  1
  O  O6  1  0.24467000  0.01052400  0.25537000  1
  O  O7  1  0.75522100  0.98896300  0.24419600  1
loop_
_geom_bond_atom_site_label_1
_geom_bond_atom_site_label_2
_geom_bond_distance
_geom_bond_site_symmetry_2
Li0 O2 2.098302 1_555
Li0 O0 2.098416 1_555
Li0 O3 2.132194 1_555
Li0 O1 2.132454 1_555
Li0 O5 2.136939 1_565
Li0 O7 2.137132 1_545
Li1 O6 2.046505 1_555
Li1 O4 2.047479 1_455
Li1 O2 2.203131 1_455
Li1 O0 2.203337 1_555
Li1 O3 2.235848 1_555
Li1 O1 2.237610 1_455
Ni0 O1 2.026323 1_554
Ni0 O3 2.027210 1_655
Ni0 O5 2.044750 1_654
Ni0 O7 2.044901 1_555
Ni0 O0 2.080311 1_654
Ni0 O2 2.080557 1_555
Ni1 O1 1.933736 1_555
Ni1 O3 1.937088 1_556
Ni1 O0 1.944667 1_555
Ni1 O2 1.945268 1_556
Ni1 O6 2.134627 1_566
Ni1 O4 2.135107 1_545
Ni2 O5 2.071874 1_565
Ni2 O7 2.072223 1_556
Ni2 O4 2.087078 1_555
Ni2 O6 2.087408 1_566
Ni2 O1 2.092722 1_555
Ni2 O3 2.093675 1_566
Ni3 O6 2.074913 1_655
Ni3 O4 2.075236 1_544
Ni3 O7 2.085806 1_545
Ni3 O5 2.085948 1_654
Ni3 O0 2.093866 1_644
Ni3 O2 2.094123 1_555
Ni4 O5 2.077036 1_555
Ni4 O7 2.077245 1_445
Ni4 O4 2.084115 1_445
Ni4 O6 2.084866 1_555
Ni4 O1 2.100513 1_455
Ni4 O3 2.101129 1_545
Ni5 O6 2.074020 1_555
Ni5 O4 2.074023 1_545
Ni5 O7 2.085666 1_545
Ni5 O5 2.086240 1_555
Ni5 O0 2.095738 1_555
Ni5 O2 2.095995 1_545
