# generated using pymatgen
data_NaLiMg14
_symmetry_space_group_name_H-M   'P 1'
_cell_length_a   6.46587788
_cell_length_b   6.46587733
_cell_length_c   10.18562893
_cell_angle_alpha   90.00000000
_cell_angle_beta   90.00000000
_cell_angle_gamma   120.00000280
_symmetry_Int_Tables_number   1
_chemical_formula_structural   NaLiMg14
_chemical_formula_sum   'Na1 Li1 Mg14'
_cell_volume   368.78515349
_cell_formula_units_Z   1
loop_
 _symmetry_equiv_pos_site_id
 _symmetry_equiv_pos_as_xyz
  1  'x, y, z'
loop_
 _atom_site_type_symbol
 _atom_site_label
 _atom_site_symmetry_multiplicity
 _atom_site_fract_x
 _atom_site_fract_y
 _atom_site_fract_z
 _atom_site_occupancy
  Na  Na0  1  0.16666700  0.33333300  0.62500000  1
  Li  Li0  1  0.16666700  0.33333300  0.12500000  1
  Mg  Mg0  1  0.16768628  0.83384264  0.12500000  1
  Mg  Mg1  1  0.16818350  0.83409125  0.62500000  1
  Mg  Mg2  1  0.66615736  0.33231372  0.12500000  1
  Mg  Mg3  1  0.66590875  0.33181650  0.62500000  1
  Mg  Mg4  1  0.66615736  0.83384264  0.12500000  1
  Mg  Mg5  1  0.66590875  0.83409125  0.62500000  1
  Mg  Mg6  1  0.33365089  0.16634911  0.37145146  1
  Mg  Mg7  1  0.33365089  0.16634911  0.87854854  1
  Mg  Mg8  1  0.33365089  0.66730279  0.37145146  1
  Mg  Mg9  1  0.33365089  0.66730279  0.87854854  1
  Mg  Mg10  1  0.83269721  0.16634911  0.37145146  1
  Mg  Mg11  1  0.83269721  0.16634911  0.87854854  1
  Mg  Mg12  1  0.83333300  0.66666700  0.37626795  1
  Mg  Mg13  1  0.83333300  0.66666700  0.87373205  1
loop_
_geom_bond_atom_site_label_1
_geom_bond_atom_site_label_2
_geom_bond_distance
_geom_bond_site_symmetry_2
Li0 Mg7 3.130281 1_554
Li0 Mg6 3.130281 1_555
Li0 Mg9 3.130288 1_554
Li0 Mg8 3.130288 1_555
Li0 Mg11 3.130288 1_454
Li0 Mg10 3.130288 1_455
Li0 Mg0 3.232944 1_555
Li0 Mg4 3.232944 1_555
Li0 Mg4 3.232944 1_445
Li0 Mg0 3.232944 1_545
Li0 Mg2 3.232944 1_455
Li0 Mg2 3.232944 1_555
Mg0 Mg9 3.125393 1_554
Mg0 Mg8 3.125393 1_555
Mg0 Mg7 3.125400 1_564
Mg0 Mg6 3.125400 1_565
Mg0 Mg13 3.171033 1_454
Mg0 Mg12 3.171033 1_455
Mg0 Mg2 3.223053 1_565
Mg0 Mg4 3.223053 1_555
Mg0 Mg2 3.242824 1_455
Mg0 Mg4 3.242825 1_455
Mg1 Mg12 3.151878 1_455
Mg1 Mg13 3.151878 1_455
Mg1 Mg8 3.182934 1_555
Mg1 Mg9 3.182934 1_555
Mg1 Mg6 3.182940 1_565
Mg1 Mg7 3.182940 1_565
Mg1 Mg3 3.218230 1_565
Mg1 Mg5 3.218231 1_555
Mg1 Na0 3.232950 1_555
Mg1 Na0 3.232950 1_565
Mg1 Mg3 3.247647 1_455
Mg1 Mg5 3.247647 1_455
Mg2 Mg7 3.125400 1_554
Mg2 Mg6 3.125400 1_555
Mg2 Mg4 3.223053 1_545
Mg2 Mg4 3.242824 1_555
Mg3 Mg6 3.182940 1_555
Mg3 Mg7 3.182940 1_555
Mg3 Mg5 3.218230 1_545
Mg3 Na0 3.232950 1_655
Mg3 Na0 3.232950 1_555
Mg3 Mg5 3.247647 1_555
Mg4 Mg9 3.125400 1_554
Mg4 Mg8 3.125400 1_555
Mg5 Mg8 3.182940 1_555
Mg5 Mg9 3.182940 1_555
Mg5 Na0 3.232950 1_555
Mg5 Na0 3.232950 1_665
Mg6 Na0 3.188544 1_555
Mg6 Mg8 3.226772 1_545
Mg6 Mg8 3.239105 1_555
Mg7 Na0 3.188544 1_555
Mg7 Mg9 3.226772 1_545
Mg7 Mg9 3.239105 1_555
Mg8 Na0 3.188550 1_555
Mg9 Na0 3.188550 1_555
Mg10 Mg2 3.125393 1_555
Mg10 Mg4 3.125400 1_545
Mg10 Mg3 3.182934 1_555
Mg10 Mg5 3.182940 1_545
Mg10 Na0 3.188550 1_655
Mg10 Mg8 3.226772 1_545
Mg10 Mg6 3.226773 1_555
Mg10 Mg12 3.233313 1_555
Mg10 Mg12 3.233313 1_545
Mg10 Mg8 3.239105 1_655
Mg10 Mg6 3.239105 1_655
Mg11 Mg2 3.125393 1_556
Mg11 Mg4 3.125400 1_546
Mg11 Mg3 3.182934 1_555
Mg11 Mg5 3.182940 1_545
Mg11 Na0 3.188550 1_655
Mg11 Mg9 3.226772 1_545
Mg11 Mg7 3.226773 1_555
Mg11 Mg13 3.233313 1_555
Mg11 Mg13 3.233313 1_545
Mg11 Mg9 3.239105 1_655
Mg11 Mg7 3.239105 1_655
Mg12 Mg5 3.151871 1_555
Mg12 Mg3 3.151878 1_555
Mg12 Mg4 3.171026 1_555
Mg12 Mg2 3.171032 1_555
Mg12 Mg6 3.233313 1_555
Mg12 Mg6 3.233313 1_665
Mg12 Mg8 3.233313 1_655
Mg12 Mg8 3.233313 1_555
Mg13 Mg5 3.151871 1_555
Mg13 Mg3 3.151878 1_555
Mg13 Mg4 3.171026 1_556
Mg13 Mg2 3.171032 1_556
Mg13 Mg7 3.233313 1_555
Mg13 Mg7 3.233313 1_665
Mg13 Mg9 3.233313 1_655
Mg13 Mg9 3.233313 1_555
