# generated using pymatgen
data_Ag9P14(OF)28
_symmetry_space_group_name_H-M   'P 1'
_cell_length_a   10.11794000
_cell_length_b   10.46002600
_cell_length_c   24.76830652
_cell_angle_alpha   90.00000000
_cell_angle_beta   105.31400977
_cell_angle_gamma   90.00000000
_symmetry_Int_Tables_number   1
_chemical_formula_structural   Ag9P14(OF)28
_chemical_formula_sum   'Ag18 P28 O56 F56'
_cell_volume   2528.25106066
_cell_formula_units_Z   2
loop_
 _symmetry_equiv_pos_site_id
 _symmetry_equiv_pos_as_xyz
  1  'x, y, z'
loop_
 _atom_site_type_symbol
 _atom_site_label
 _atom_site_symmetry_multiplicity
 _atom_site_fract_x
 _atom_site_fract_y
 _atom_site_fract_z
 _atom_site_occupancy
  Ag  Ag0  1  0.66596800  0.54430600  0.22364700  1
  Ag  Ag1  1  0.33403200  0.04430600  0.27635300  1
  Ag  Ag2  1  0.33403200  0.45569400  0.77635300  1
  Ag  Ag3  1  0.66596800  0.95569400  0.72364700  1
  Ag  Ag4  1  0.06968500  0.67997900  0.07738800  1
  Ag  Ag5  1  0.93031500  0.17997900  0.42261200  1
  Ag  Ag6  1  0.93031500  0.32002100  0.92261200  1
  Ag  Ag7  1  0.06968500  0.82002100  0.57738800  1
  Ag  Ag8  1  0.00000000  0.00000000  0.00000000  1
  Ag  Ag9  1  0.00000000  0.50000000  0.50000000  1
  Ag  Ag10  1  0.32865700  0.71026600  0.21672100  1
  Ag  Ag11  1  0.67134300  0.21026600  0.28327900  1
  Ag  Ag12  1  0.67134300  0.28973400  0.78327900  1
  Ag  Ag13  1  0.32865700  0.78973400  0.71672100  1
  Ag  Ag14  1  0.73759400  0.55064300  0.08668100  1
  Ag  Ag15  1  0.26240600  0.05064300  0.41331900  1
  Ag  Ag16  1  0.26240600  0.44935700  0.91331900  1
  Ag  Ag17  1  0.73759400  0.94935700  0.58668100  1
  P  P0  1  0.37932900  0.78776600  0.36613100  1
  P  P1  1  0.62067100  0.28776600  0.13386900  1
  P  P2  1  0.62067100  0.21223400  0.63386900  1
  P  P3  1  0.37932900  0.71223400  0.86613100  1
  P  P4  1  0.77227200  0.86662300  0.05116600  1
  P  P5  1  0.22772800  0.36662300  0.44883400  1
  P  P6  1  0.22772800  0.13337700  0.94883400  1
  P  P7  1  0.77227200  0.63337700  0.55116600  1
  P  P8  1  0.22796600  0.97193600  0.12713800  1
  P  P9  1  0.77203400  0.47193600  0.37286200  1
  P  P10  1  0.77203400  0.02806400  0.87286200  1
  P  P11  1  0.22796600  0.52806400  0.62713800  1
  P  P12  1  0.63346200  0.88229200  0.24581000  1
  P  P13  1  0.36653800  0.38229200  0.25419000  1
  P  P14  1  0.36653800  0.11770800  0.75419000  1
  P  P15  1  0.63346200  0.61770800  0.74581000  1
  P  P16  1  0.41373500  0.62865900  0.08107500  1
  P  P17  1  0.58626500  0.12865900  0.41892500  1
  P  P18  1  0.58626500  0.37134100  0.91892500  1
  P  P19  1  0.41373500  0.87134100  0.58107500  1
  P  P20  1  0.01026800  0.85586800  0.43583000  1
  P  P21  1  0.98973200  0.35586800  0.06417000  1
  P  P22  1  0.98973200  0.14413200  0.56417000  1
  P  P23  1  0.01026800  0.64413200  0.93583000  1
  P  P24  1  0.00212500  0.64740700  0.21920500  1
  P  P25  1  0.99787500  0.14740700  0.28079500  1
  P  P26  1  0.99787500  0.35259300  0.78079500  1
  P  P27  1  0.00212500  0.85259300  0.71920500  1
  O  O0  1  0.33461100  0.85618200  0.41174000  1
  O  O1  1  0.66538900  0.35618200  0.08826000  1
  O  O2  1  0.66538900  0.14381800  0.58826000  1
  O  O3  1  0.33461100  0.64381800  0.91174000  1
  O  O4  1  0.32209200  0.82385800  0.30581000  1
  O  O5  1  0.67790800  0.32385800  0.19419000  1
  O  O6  1  0.67790800  0.17614200  0.69419000  1
  O  O7  1  0.32209200  0.67614200  0.80581000  1
  O  O8  1  0.19276800  0.41804100  0.49986100  1
  O  O9  1  0.80723200  0.91804100  0.00013900  1
  O  O10  1  0.80723200  0.58195900  0.50013900  1
  O  O11  1  0.19276800  0.08195900  0.99986100  1
  O  O12  1  0.82725200  0.73713200  0.07346100  1
  O  O13  1  0.17274800  0.23713200  0.42653900  1
  O  O14  1  0.17274800  0.26286800  0.92653900  1
  O  O15  1  0.82725200  0.76286800  0.57346100  1
  O  O16  1  0.09558600  0.92886600  0.08671600  1
  O  O17  1  0.90441400  0.42886600  0.41328400  1
  O  O18  1  0.90441400  0.07113400  0.91328400  1
  O  O19  1  0.09558600  0.57113400  0.58671600  1
  O  O20  1  0.26022300  0.92226700  0.18591900  1
  O  O21  1  0.73977700  0.42226700  0.31408100  1
  O  O22  1  0.73977700  0.07773300  0.81408100  1
  O  O23  1  0.26022300  0.57773300  0.68591900  1
  O  O24  1  0.56947200  0.00068900  0.26240000  1
  O  O25  1  0.43052800  0.50068900  0.23760000  1
  O  O26  1  0.43052800  0.99931100  0.73760000  1
  O  O27  1  0.56947200  0.49931100  0.76240000  1
  O  O28  1  0.54998300  0.76199100  0.22880100  1
  O  O29  1  0.45001700  0.26199100  0.27119900  1
  O  O30  1  0.45001700  0.23800900  0.77119900  1
  O  O31  1  0.54998300  0.73800900  0.72880100  1
  O  O32  1  0.56132600  0.62149800  0.11540300  1
  O  O33  1  0.43867400  0.12149800  0.38459700  1
  O  O34  1  0.43867400  0.37850200  0.88459700  1
  O  O35  1  0.56132600  0.87850200  0.61540300  1
  O  O36  1  0.30713700  0.65698000  0.11141800  1
  O  O37  1  0.69286300  0.15698000  0.38858200  1
  O  O38  1  0.69286300  0.34302000  0.88858200  1
  O  O39  1  0.30713700  0.84302000  0.61141800  1
  O  O40  1  0.08611500  0.98248800  0.44359100  1
  O  O41  1  0.91388500  0.48248800  0.05640900  1
  O  O42  1  0.91388500  0.01751200  0.55640900  1
  O  O43  1  0.08611500  0.51751200  0.94359100  1
  O  O44  1  0.03872900  0.76003500  0.48212200  1
  O  O45  1  0.96127100  0.26003500  0.01787800  1
  O  O46  1  0.96127100  0.23996500  0.51787800  1
  O  O47  1  0.03872900  0.73996500  0.98212200  1
  O  O48  1  0.13230000  0.08392600  0.30664400  1
  O  O49  1  0.86770000  0.58392600  0.19335600  1
  O  O50  1  0.86770000  0.91607400  0.69335600  1
  O  O51  1  0.13230000  0.41607400  0.80664400  1
  O  O52  1  0.11459700  0.63540800  0.18950200  1
  O  O53  1  0.88540300  0.13540800  0.31049800  1
  O  O54  1  0.88540300  0.36459200  0.81049800  1
  O  O55  1  0.11459700  0.86459200  0.68950200  1
  F  F0  1  0.35822000  0.64164600  0.37393600  1
  F  F1  1  0.64178000  0.14164600  0.12606400  1
  F  F2  1  0.64178000  0.35835400  0.62606400  1
  F  F3  1  0.35822000  0.85835400  0.87393600  1
  F  F4  1  0.54021200  0.79064300  0.38000300  1
  F  F5  1  0.45978800  0.29064300  0.11999700  1
  F  F6  1  0.45978800  0.20935700  0.61999700  1
  F  F7  1  0.54021200  0.70935700  0.88000300  1
  F  F8  1  0.38670200  0.13284300  0.96120000  1
  F  F9  1  0.61329800  0.63284300  0.53880000  1
  F  F10  1  0.61329800  0.86715700  0.03880000  1
  F  F11  1  0.38670200  0.36715700  0.46120000  1
  F  F12  1  0.81173100  0.96518200  0.09986400  1
  F  F13  1  0.18826900  0.46518200  0.40013600  1
  F  F14  1  0.18826900  0.03481800  0.90013600  1
  F  F15  1  0.81173100  0.53481800  0.59986400  1
  F  F16  1  0.23439400  0.37890200  0.62929500  1
  F  F17  1  0.76560600  0.87890200  0.87070500  1
  F  F18  1  0.76560600  0.62109800  0.37070500  1
  F  F19  1  0.23439400  0.12109800  0.12929500  1
  F  F20  1  0.35003500  0.94433200  0.10106100  1
  F  F21  1  0.64996500  0.44433200  0.39893900  1
  F  F22  1  0.64996500  0.05566800  0.89893900  1
  F  F23  1  0.35003500  0.55566800  0.60106100  1
  F  F24  1  0.70396600  0.91711800  0.19863700  1
  F  F25  1  0.29603400  0.41711800  0.30136300  1
  F  F26  1  0.29603400  0.08288200  0.80136300  1
  F  F27  1  0.70396600  0.58288200  0.69863700  1
  F  F28  1  0.23678600  0.34233600  0.20711700  1
  F  F29  1  0.76321400  0.84233600  0.29288300  1
  F  F30  1  0.76321400  0.65766400  0.79288300  1
  F  F31  1  0.23678600  0.15766400  0.70711700  1
  F  F32  1  0.37772200  0.50233600  0.04600300  1
  F  F33  1  0.62227800  0.00233600  0.45399700  1
  F  F34  1  0.62227800  0.49766400  0.95399700  1
  F  F35  1  0.37772200  0.99766400  0.54600300  1
  F  F36  1  0.40015500  0.72428300  0.03167600  1
  F  F37  1  0.59984500  0.22428300  0.46832400  1
  F  F38  1  0.59984500  0.27571700  0.96832400  1
  F  F39  1  0.40015500  0.77571700  0.53167600  1
  F  F40  1  0.14605600  0.39215900  0.08166800  1
  F  F41  1  0.85394400  0.89215900  0.41833200  1
  F  F42  1  0.85394400  0.60784100  0.91833200  1
  F  F43  1  0.14605600  0.10784100  0.58166800  1
  F  F44  1  0.02249200  0.79023800  0.38057000  1
  F  F45  1  0.97750800  0.29023800  0.11943000  1
  F  F46  1  0.97750800  0.20976200  0.61943000  1
  F  F47  1  0.02249200  0.70976200  0.88057000  1
  F  F48  1  0.97983200  0.79269300  0.22938900  1
  F  F49  1  0.02016800  0.29269300  0.27061100  1
  F  F50  1  0.02016800  0.20730700  0.77061100  1
  F  F51  1  0.97983200  0.70730700  0.72938900  1
  F  F52  1  0.05735700  0.60260600  0.28144300  1
  F  F53  1  0.94264300  0.10260600  0.21855700  1
  F  F54  1  0.94264300  0.39739400  0.71855700  1
  F  F55  1  0.05735700  0.89739400  0.78144300  1
loop_
_geom_bond_atom_site_label_1
_geom_bond_atom_site_label_2
_geom_bond_distance
_geom_bond_site_symmetry_2
Ag0 O49 2.389490 1_555
Ag0 O5 2.431174 1_555
Ag0 O21 2.514120 1_555
Ag0 O25 2.537157 1_555
Ag0 O28 2.580172 1_555
Ag0 O32 2.731559 1_555
Ag1 O48 2.389490 1_555
Ag1 O4 2.431174 1_545
Ag1 O20 2.514120 1_545
Ag1 O24 2.537157 1_555
Ag1 O29 2.580172 1_555
Ag1 O33 2.731559 1_555
Ag2 O51 2.389490 1_555
Ag2 O7 2.431174 1_555
Ag2 O23 2.514120 1_555
Ag2 O27 2.537157 1_555
Ag2 O30 2.580172 1_555
Ag2 O34 2.731559 1_555
Ag3 O50 2.389490 1_555
Ag3 O6 2.431174 1_565
Ag3 O22 2.514120 1_565
Ag3 O26 2.537157 1_555
Ag3 O31 2.580172 1_555
Ag3 O35 2.731559 1_555
Ag4 O36 2.338970 1_555
Ag4 O47 2.380972 1_554
Ag4 O12 2.501531 1_455
Ag4 O41 2.567033 1_455
Ag4 O16 2.620607 1_555
Ag4 O52 2.732827 1_555
Ag5 O37 2.338970 1_555
Ag5 O46 2.380972 1_555
Ag5 O13 2.501531 1_655
Ag5 O40 2.567033 1_645
Ag5 O17 2.620607 1_555
Ag5 O53 2.732827 1_555
Ag6 O38 2.338970 1_555
Ag6 O45 2.380972 1_556
Ag6 O14 2.501531 1_655
Ag6 O43 2.567033 1_655
Ag6 O18 2.620607 1_555
Ag6 O54 2.732827 1_555
Ag7 O39 2.338970 1_555
Ag7 O44 2.380972 1_555
Ag7 O15 2.501531 1_455
Ag7 O42 2.567033 1_465
Ag7 O19 2.620607 1_555
Ag7 O55 2.732827 1_555
Ag8 O11 2.131345 1_554
Ag8 O9 2.131345 1_445
Ag8 O16 2.237149 1_545
Ag8 O18 2.237149 1_454
Ag9 O8 2.131345 1_555
Ag9 O10 2.131345 1_455
Ag9 O19 2.237149 1_555
Ag9 O17 2.237149 1_455
Ag10 O52 2.233211 1_555
Ag10 O28 2.245681 1_555
Ag10 O20 2.387447 1_555
Ag10 O25 2.419489 1_555
Ag10 O4 2.522421 1_555
Ag10 O36 2.619291 1_555
Ag11 O53 2.233211 1_555
Ag11 O29 2.245681 1_555
Ag11 O21 2.387447 1_555
Ag11 O24 2.419489 1_555
Ag11 O5 2.522421 1_555
Ag11 O37 2.619291 1_555
Ag12 O54 2.233211 1_555
Ag12 O30 2.245681 1_555
Ag12 O22 2.387447 1_555
Ag12 O27 2.419489 1_555
Ag12 O6 2.522421 1_555
Ag12 O38 2.619291 1_555
Ag13 O55 2.233211 1_555
Ag13 O31 2.245681 1_555
Ag13 O23 2.387447 1_555
Ag13 O26 2.419489 1_555
Ag13 O7 2.522421 1_555
Ag13 O39 2.619291 1_555
Ag14 O1 2.165128 1_555
Ag14 O12 2.211831 1_555
Ag14 O32 2.215021 1_555
Ag14 O41 2.226755 1_555
Ag14 O49 2.645356 1_555
Ag15 O0 2.165128 1_545
Ag15 O13 2.211831 1_555
Ag15 O33 2.215021 1_555
Ag15 O40 2.226755 1_545
Ag15 O48 2.645356 1_555
Ag16 O3 2.165128 1_555
Ag16 O14 2.211831 1_555
Ag16 O34 2.215021 1_555
Ag16 O43 2.226755 1_555
Ag16 O51 2.645356 1_555
Ag17 O2 2.165128 1_565
Ag17 O15 2.211831 1_555
Ag17 O35 2.215021 1_555
Ag17 O42 2.226755 1_565
Ag17 O50 2.645356 1_555
O0 P0 1.504312 1_555
O1 P1 1.504312 1_555
O2 P2 1.504312 1_555
O3 P3 1.504312 1_555
O4 P0 1.501018 1_555
O5 P1 1.501018 1_555
O6 P2 1.501018 1_555
O7 P3 1.501018 1_555
O8 P5 1.499283 1_555
O9 P4 1.499283 1_555
O10 P7 1.499283 1_555
O11 P6 1.499283 1_555
O12 P4 1.512197 1_555
O13 P5 1.512197 1_555
O14 P6 1.512197 1_555
O15 P7 1.512197 1_555
O16 P8 1.513612 1_555
O17 P9 1.513612 1_555
O18 P10 1.513612 1_555
O19 P11 1.513612 1_555
O20 P8 1.498369 1_555
O21 P9 1.498369 1_555
O22 P10 1.498369 1_555
O23 P11 1.498369 1_555
O24 P12 1.504088 1_545
O25 P13 1.504088 1_555
O26 P14 1.504088 1_565
O27 P15 1.504088 1_555
O28 P12 1.512079 1_555
O29 P13 1.512079 1_555
O30 P14 1.512079 1_555
O31 P15 1.512079 1_555
O32 P16 1.512565 1_555
O33 P17 1.512565 1_555
O34 P18 1.512565 1_555
O35 P19 1.512565 1_555
O36 P16 1.498003 1_555
O37 P17 1.498003 1_555
O38 P18 1.498003 1_555
O39 P19 1.498003 1_555
O40 P20 1.517274 1_555
O41 P21 1.517274 1_555
O42 P22 1.517274 1_555
O43 P23 1.517274 1_555
O44 P20 1.492645 1_555
O45 P21 1.492645 1_555
O46 P22 1.492645 1_555
O47 P23 1.492645 1_555
O48 P25 1.496908 1_455
O49 P24 1.496908 1_655
O50 P27 1.496908 1_655
O51 P26 1.496908 1_455
O52 P24 1.514673 1_555
O53 P25 1.514673 1_555
O54 P26 1.514673 1_555
O55 P27 1.514673 1_555
F0 P0 1.562326 1_555
F1 P1 1.562326 1_555
F2 P2 1.562326 1_555
F3 P3 1.562326 1_555
F4 P0 1.572666 1_555
F5 P1 1.572666 1_555
F6 P2 1.572666 1_555
F7 P3 1.572666 1_555
F8 P6 1.555908 1_555
F9 P7 1.555908 1_555
F10 P4 1.555908 1_555
F11 P5 1.555908 1_555
F12 P4 1.556498 1_555
F13 P5 1.556498 1_555
F14 P6 1.556498 1_555
F15 P7 1.556498 1_555
F16 P11 1.561920 1_555
F17 P10 1.561920 1_565
F18 P9 1.561920 1_555
F19 P8 1.561920 1_545
F20 P8 1.564399 1_555
F21 P9 1.564399 1_555
F22 P10 1.564399 1_555
F23 P11 1.564399 1_555
F24 P12 1.564284 1_555
F25 P13 1.564284 1_555
F26 P14 1.564284 1_555
F27 P15 1.564284 1_555
F28 P13 1.564938 1_555
F29 P12 1.564938 1_555
F30 P15 1.564938 1_555
F31 P14 1.564938 1_555
F32 P16 1.570387 1_555
F33 P17 1.570387 1_555
F34 P18 1.570387 1_555
F35 P19 1.570387 1_555
F36 P16 1.558063 1_555
F37 P17 1.558063 1_555
F38 P18 1.558063 1_555
F39 P19 1.558063 1_555
F40 P21 1.572115 1_455
F41 P20 1.572115 1_655
F42 P23 1.572115 1_655
F43 P22 1.572115 1_455
F44 P20 1.565029 1_555
F45 P21 1.565029 1_555
F46 P22 1.565029 1_555
F47 P23 1.565029 1_555
F48 P24 1.566534 1_655
F49 P25 1.566534 1_455
F50 P26 1.566534 1_455
F51 P27 1.566534 1_655
F52 P24 1.566262 1_555
F53 P25 1.566262 1_555
F54 P26 1.566262 1_555
F55 P27 1.566262 1_555
