# generated using pymatgen
data_K7VN4
_symmetry_space_group_name_H-M   'P 1'
_cell_length_a   12.83818800
_cell_length_b   12.83818800
_cell_length_c   12.83818800
_cell_angle_alpha   90.00000000
_cell_angle_beta   90.00000000
_cell_angle_gamma   90.00000000
_symmetry_Int_Tables_number   1
_chemical_formula_structural   K7VN4
_chemical_formula_sum   'K56 V8 N32'
_cell_volume   2115.97822107
_cell_formula_units_Z   8
loop_
 _symmetry_equiv_pos_site_id
 _symmetry_equiv_pos_as_xyz
  1  'x, y, z'
loop_
 _atom_site_type_symbol
 _atom_site_label
 _atom_site_symmetry_multiplicity
 _atom_site_fract_x
 _atom_site_fract_y
 _atom_site_fract_z
 _atom_site_occupancy
  K  K0  1  0.37513700  0.62486300  0.12486300  1
  K  K1  1  0.62486300  0.12486300  0.37513700  1
  K  K2  1  0.12486300  0.37513700  0.62486300  1
  K  K3  1  0.87513700  0.87513700  0.87513700  1
  K  K4  1  0.62486300  0.37513700  0.87513700  1
  K  K5  1  0.37513700  0.87513700  0.62486300  1
  K  K6  1  0.87513700  0.62486300  0.37513700  1
  K  K7  1  0.12486300  0.12486300  0.12486300  1
  K  K8  1  0.35685100  0.58471100  0.37263300  1
  K  K9  1  0.64314900  0.08471100  0.12736700  1
  K  K10  1  0.14314900  0.41528900  0.87263300  1
  K  K11  1  0.85685100  0.91528900  0.62736700  1
  K  K12  1  0.37263300  0.35685100  0.58471100  1
  K  K13  1  0.12736700  0.64314900  0.08471100  1
  K  K14  1  0.87263300  0.14314900  0.41528900  1
  K  K15  1  0.62736700  0.85685100  0.91528900  1
  K  K16  1  0.58471100  0.37263300  0.35685100  1
  K  K17  1  0.08471100  0.12736700  0.64314900  1
  K  K18  1  0.41528900  0.87263300  0.14314900  1
  K  K19  1  0.91528900  0.62736700  0.85685100  1
  K  K20  1  0.64314900  0.41528900  0.62736700  1
  K  K21  1  0.35685100  0.91528900  0.87263300  1
  K  K22  1  0.85685100  0.58471100  0.12736700  1
  K  K23  1  0.14314900  0.08471100  0.37263300  1
  K  K24  1  0.62736700  0.64314900  0.41528900  1
  K  K25  1  0.87263300  0.35685100  0.91528900  1
  K  K26  1  0.12736700  0.85685100  0.58471100  1
  K  K27  1  0.37263300  0.14314900  0.08471100  1
  K  K28  1  0.41528900  0.62736700  0.64314900  1
  K  K29  1  0.91528900  0.87263300  0.35685100  1
  K  K30  1  0.58471100  0.12736700  0.85685100  1
  K  K31  1  0.08471100  0.37263300  0.14314900  1
  K  K32  1  0.42098100  0.82505000  0.37626200  1
  K  K33  1  0.57901900  0.32505000  0.12373800  1
  K  K34  1  0.07901900  0.17495000  0.87626200  1
  K  K35  1  0.92098100  0.67495000  0.62373800  1
  K  K36  1  0.37626200  0.42098100  0.82505000  1
  K  K37  1  0.12373800  0.57901900  0.32505000  1
  K  K38  1  0.87626200  0.07901900  0.17495000  1
  K  K39  1  0.62373800  0.92098100  0.67495000  1
  K  K40  1  0.82505000  0.37626200  0.42098100  1
  K  K41  1  0.32505000  0.12373800  0.57901900  1
  K  K42  1  0.17495000  0.87626200  0.07901900  1
  K  K43  1  0.67495000  0.62373800  0.92098100  1
  K  K44  1  0.57901900  0.17495000  0.62373800  1
  K  K45  1  0.42098100  0.67495000  0.87626200  1
  K  K46  1  0.92098100  0.82505000  0.12373800  1
  K  K47  1  0.07901900  0.32505000  0.37626200  1
  K  K48  1  0.62373800  0.57901900  0.17495000  1
  K  K49  1  0.87626200  0.42098100  0.67495000  1
  K  K50  1  0.12373800  0.92098100  0.82505000  1
  K  K51  1  0.37626200  0.07901900  0.32505000  1
  K  K52  1  0.17495000  0.62373800  0.57901900  1
  K  K53  1  0.67495000  0.87626200  0.42098100  1
  K  K54  1  0.82505000  0.12373800  0.92098100  1
  K  K55  1  0.32505000  0.37626200  0.07901900  1
  V  V0  1  0.16247700  0.83752300  0.33752300  1
  V  V1  1  0.83752300  0.33752300  0.16247700  1
  V  V2  1  0.33752300  0.16247700  0.83752300  1
  V  V3  1  0.66247700  0.66247700  0.66247700  1
  V  V4  1  0.83752300  0.16247700  0.66247700  1
  V  V5  1  0.16247700  0.66247700  0.83752300  1
  V  V6  1  0.66247700  0.83752300  0.16247700  1
  V  V7  1  0.33752300  0.33752300  0.33752300  1
  N  N0  1  0.24618100  0.75381900  0.25381900  1
  N  N1  1  0.75381900  0.25381900  0.24618100  1
  N  N2  1  0.25381900  0.24618100  0.75381900  1
  N  N3  1  0.74618100  0.74618100  0.74618100  1
  N  N4  1  0.75381900  0.24618100  0.74618100  1
  N  N5  1  0.24618100  0.74618100  0.75381900  1
  N  N6  1  0.74618100  0.75381900  0.24618100  1
  N  N7  1  0.25381900  0.25381900  0.25381900  1
  N  N8  1  0.08283300  0.93099300  0.25469800  1
  N  N9  1  0.91716700  0.43099300  0.24530200  1
  N  N10  1  0.41716700  0.06900700  0.75469800  1
  N  N11  1  0.58283300  0.56900700  0.74530200  1
  N  N12  1  0.25469800  0.08283300  0.93099300  1
  N  N13  1  0.24530200  0.91716700  0.43099300  1
  N  N14  1  0.75469800  0.41716700  0.06900700  1
  N  N15  1  0.74530200  0.58283300  0.56900700  1
  N  N16  1  0.93099300  0.25469800  0.08283300  1
  N  N17  1  0.43099300  0.24530200  0.91716700  1
  N  N18  1  0.06900700  0.75469800  0.41716700  1
  N  N19  1  0.56900700  0.74530200  0.58283300  1
  N  N20  1  0.91716700  0.06900700  0.74530200  1
  N  N21  1  0.08283300  0.56900700  0.75469800  1
  N  N22  1  0.58283300  0.93099300  0.24530200  1
  N  N23  1  0.41716700  0.43099300  0.25469800  1
  N  N24  1  0.74530200  0.91716700  0.06900700  1
  N  N25  1  0.75469800  0.08283300  0.56900700  1
  N  N26  1  0.24530200  0.58283300  0.93099300  1
  N  N27  1  0.25469800  0.41716700  0.43099300  1
  N  N28  1  0.06900700  0.74530200  0.91716700  1
  N  N29  1  0.56900700  0.75469800  0.08283300  1
  N  N30  1  0.93099300  0.24530200  0.58283300  1
  N  N31  1  0.43099300  0.25469800  0.41716700  1
loop_
_geom_bond_atom_site_label_1
_geom_bond_atom_site_label_2
_geom_bond_distance
_geom_bond_site_symmetry_2
K0 N0 2.867516 1_555
K0 N23 3.043740 1_555
K0 N26 3.043740 1_554
K0 N29 3.043740 1_555
K1 N1 2.867516 1_555
K1 N31 3.043740 1_555
K1 N22 3.043740 1_545
K1 N25 3.043740 1_555
K2 N2 2.867516 1_555
K2 N27 3.043740 1_555
K2 N30 3.043740 1_455
K2 N21 3.043740 1_555
K3 N3 2.867516 1_555
K3 N28 3.043740 1_655
K3 N24 3.043740 1_556
K3 N20 3.043740 1_565
K4 N4 2.867516 1_555
K4 N17 3.043740 1_555
K4 N11 3.043740 1_555
K4 N14 3.043740 1_556
K5 N5 2.867516 1_555
K5 N13 3.043740 1_555
K5 N10 3.043740 1_565
K5 N19 3.043740 1_555
K6 N6 2.867516 1_555
K6 N9 3.043740 1_555
K6 N18 3.043740 1_655
K6 N15 3.043740 1_555
K7 N7 2.867516 1_555
K7 N12 3.043740 1_554
K7 N16 3.043740 1_455
K7 N8 3.043740 1_545
K8 N23 2.605106 1_555
K8 N27 2.628291 1_555
K8 N0 3.009785 1_555
K9 N22 2.605106 1_545
K9 N24 2.628291 1_545
K9 N1 3.009785 1_555
K10 N21 2.605106 1_555
K10 N26 2.628291 1_555
K10 N2 3.009785 1_555
K11 N20 2.605106 1_565
K11 N25 2.628291 1_565
K11 N3 3.009785 1_555
K12 N27 2.605106 1_555
K12 N31 2.628291 1_555
K12 N2 3.009785 1_555
K13 N26 2.605106 1_554
K13 N28 2.628291 1_554
K13 N0 3.009785 1_555
K14 N25 2.605106 1_555
K14 N30 2.628291 1_555
K14 N1 3.009785 1_555
K15 N24 2.605106 1_556
K15 N29 2.628291 1_556
K15 N3 3.009785 1_555
K16 N31 2.605106 1_555
K16 N23 2.628291 1_555
K16 N1 3.009785 1_555
K17 N30 2.605106 1_455
K17 N20 2.628291 1_455
K17 N2 3.009785 1_555
K18 N29 2.605106 1_555
K18 N22 2.628291 1_555
K18 N0 3.009785 1_555
K19 N28 2.605106 1_655
K19 N21 2.628291 1_655
K19 N3 3.009785 1_555
K20 N11 2.605106 1_555
K20 N15 2.628291 1_555
K20 N4 3.009785 1_555
K21 N10 2.605106 1_565
K21 N12 2.628291 1_565
K21 N5 3.009785 1_555
K22 N9 2.605106 1_555
K22 N14 2.628291 1_555
K22 N6 3.009785 1_555
K23 N8 2.605106 1_545
K23 N13 2.628291 1_545
K23 N7 3.009785 1_555
K24 N15 2.605106 1_555
K24 N19 2.628291 1_555
K24 N6 3.009785 1_555
K25 N14 2.605106 1_556
K25 N16 2.628291 1_556
K25 N4 3.009785 1_555
K26 N13 2.605106 1_555
K26 N18 2.628291 1_555
K26 N5 3.009785 1_555
K27 N12 2.605106 1_554
K27 N17 2.628291 1_554
K27 N7 3.009785 1_555
K28 N19 2.605106 1_555
K28 N11 2.628291 1_555
K28 N5 3.009785 1_555
K29 N18 2.605106 1_655
K29 N8 2.628291 1_655
K29 N6 3.009785 1_555
K30 N17 2.605106 1_555
K30 N10 2.628291 1_555
K30 N4 3.009785 1_555
K31 N16 2.605106 1_455
K31 N9 2.628291 1_455
K31 N7 3.009785 1_555
K32 N13 2.641803 1_555
K32 N0 2.888483 1_555
K32 N22 2.999043 1_555
K33 N14 2.641803 1_555
K33 N1 2.888483 1_555
K33 N23 2.999043 1_555
K34 N12 2.641803 1_555
K34 N2 2.888483 1_555
K34 N20 2.999043 1_455
K35 N15 2.641803 1_555
K35 N3 2.888483 1_555
K35 N21 2.999043 1_655
K36 N17 2.641803 1_555
K36 N2 2.888483 1_555
K36 N26 2.999043 1_555
K37 N18 2.641803 1_555
K37 N0 2.888483 1_555
K37 N27 2.999043 1_555
K38 N16 2.641803 1_555
K38 N1 2.888483 1_555
K38 N24 2.999043 1_545
K39 N19 2.641803 1_555
K39 N3 2.888483 1_555
K39 N25 2.999043 1_565
K40 N9 2.641803 1_555
K40 N1 2.888483 1_555
K40 N30 2.999043 1_555
K41 N10 2.641803 1_555
K41 N2 2.888483 1_555
K41 N31 2.999043 1_555
K42 N8 2.641803 1_555
K42 N0 2.888483 1_555
K42 N28 2.999043 1_554
K43 N11 2.641803 1_555
K43 N3 2.888483 1_555
K43 N29 2.999043 1_556
K44 N25 2.641803 1_555
K44 N4 2.888483 1_555
K44 N10 2.999043 1_555
K45 N26 2.641803 1_555
K45 N5 2.888483 1_555
K45 N11 2.999043 1_555
K46 N24 2.641803 1_555
K46 N6 2.888483 1_555
K46 N8 2.999043 1_655
K47 N27 2.641803 1_555
K47 N7 2.888483 1_555
K47 N9 2.999043 1_455
K48 N29 2.641803 1_555
K48 N6 2.888483 1_555
K48 N14 2.999043 1_555
K49 N30 2.641803 1_555
K49 N4 2.888483 1_555
K49 N15 2.999043 1_555
K50 N28 2.641803 1_555
K50 N5 2.888483 1_555
K50 N12 2.999043 1_565
K51 N31 2.641803 1_555
K51 N7 2.888483 1_555
K51 N13 2.999043 1_545
K52 N21 2.641803 1_555
K52 N5 2.888483 1_555
K52 N18 2.999043 1_555
K53 N22 2.641803 1_555
K53 N6 2.888483 1_555
K53 N19 2.999043 1_555
K54 N20 2.641803 1_555
K54 N4 2.888483 1_555
K54 N16 2.999043 1_556
K55 N23 2.641803 1_555
K55 N7 2.888483 1_555
K55 N17 2.999043 1_554
N0 V0 1.861275 1_555
N1 V1 1.861275 1_555
N2 V2 1.861275 1_555
N3 V3 1.861275 1_555
N4 V4 1.861275 1_555
N5 V5 1.861275 1_555
N6 V6 1.861275 1_555
N7 V7 1.861275 1_555
N8 V0 1.901603 1_555
N9 V1 1.901603 1_555
N10 V2 1.901603 1_555
N11 V3 1.901603 1_555
N12 V2 1.901603 1_555
N13 V0 1.901603 1_555
N14 V1 1.901603 1_555
N15 V3 1.901603 1_555
N16 V1 1.901603 1_555
N17 V2 1.901603 1_555
N18 V0 1.901603 1_555
N19 V3 1.901603 1_555
N20 V4 1.901603 1_555
N21 V5 1.901603 1_555
N22 V6 1.901603 1_555
N23 V7 1.901603 1_555
N24 V6 1.901603 1_555
N25 V4 1.901603 1_555
N26 V5 1.901603 1_555
N27 V7 1.901603 1_555
N28 V5 1.901603 1_555
N29 V6 1.901603 1_555
N30 V4 1.901603 1_555
N31 V7 1.901603 1_555
