# generated using pymatgen
data_Sr3Ta6(Si2O13)2
_symmetry_space_group_name_H-M   'P 1'
_cell_length_a   9.03505958
_cell_length_b   9.03505958
_cell_length_c   7.74188000
_cell_angle_alpha   90.00000000
_cell_angle_beta   90.00000000
_cell_angle_gamma   119.99999693
_symmetry_Int_Tables_number   1
_chemical_formula_structural   Sr3Ta6(Si2O13)2
_chemical_formula_sum   'Sr3 Ta6 Si4 O26'
_cell_volume   547.31723232
_cell_formula_units_Z   1
loop_
 _symmetry_equiv_pos_site_id
 _symmetry_equiv_pos_as_xyz
  1  'x, y, z'
loop_
 _atom_site_type_symbol
 _atom_site_label
 _atom_site_symmetry_multiplicity
 _atom_site_fract_x
 _atom_site_fract_y
 _atom_site_fract_z
 _atom_site_occupancy
  Sr  Sr0  1  0.40301800  0.40301800  0.50000000  1
  Sr  Sr1  1  0.00000000  0.59698200  0.50000000  1
  Sr  Sr2  1  0.59698200  0.00000000  0.50000000  1
  Ta  Ta0  1  0.00000000  0.23853300  0.75400700  1
  Ta  Ta1  1  0.76146700  0.76146700  0.75400700  1
  Ta  Ta2  1  0.23853300  0.00000000  0.24599300  1
  Ta  Ta3  1  0.76146700  0.76146700  0.24599300  1
  Ta  Ta4  1  0.23853300  0.00000000  0.75400700  1
  Ta  Ta5  1  0.00000000  0.23853300  0.24599300  1
  Si  Si0  1  0.66666700  0.33333300  0.20932000  1
  Si  Si1  1  0.66666700  0.33333300  0.79068000  1
  Si  Si2  1  0.33333300  0.66666700  0.79068000  1
  Si  Si3  1  0.33333300  0.66666700  0.20932000  1
  O  O0  1  0.00000000  0.22139100  0.50000000  1
  O  O1  1  0.77860900  0.77860900  0.50000000  1
  O  O2  1  0.22139100  0.00000000  0.50000000  1
  O  O3  1  0.50890900  0.68595000  0.29123800  1
  O  O4  1  0.31405000  0.82296000  0.29123800  1
  O  O5  1  0.17704000  0.49109100  0.29123800  1
  O  O6  1  0.49109100  0.17704000  0.70876200  1
  O  O7  1  0.17704000  0.49109100  0.70876200  1
  O  O8  1  0.50890900  0.68595000  0.70876200  1
  O  O9  1  0.31405000  0.82296000  0.70876200  1
  O  O10  1  0.68595000  0.50890900  0.29123800  1
  O  O11  1  0.82296000  0.31405000  0.29123800  1
  O  O12  1  0.82296000  0.31405000  0.70876200  1
  O  O13  1  0.33333300  0.66666700  0.00000000  1
  O  O14  1  0.66666700  0.33333300  0.00000000  1
  O  O15  1  0.27929400  0.00000000  0.00000000  1
  O  O16  1  0.72070600  0.72070600  0.00000000  1
  O  O17  1  0.00000000  0.27929400  0.00000000  1
  O  O18  1  0.81462300  0.00000000  0.23462700  1
  O  O19  1  0.18537700  0.18537700  0.76537300  1
  O  O20  1  0.00000000  0.81462300  0.76537300  1
  O  O21  1  0.00000000  0.81462300  0.23462700  1
  O  O22  1  0.18537700  0.18537700  0.23462700  1
  O  O23  1  0.81462300  0.00000000  0.76537300  1
  O  O24  1  0.49109100  0.17704000  0.29123800  1
  O  O25  1  0.68595000  0.50890900  0.70876200  1
loop_
_geom_bond_atom_site_label_1
_geom_bond_atom_site_label_2
_geom_bond_distance
_geom_bond_site_symmetry_2
O0 Ta5 1.972581 1_555
O0 Ta0 1.972581 1_555
O0 Sr0 3.158563 1_555
O0 Sr2 3.158563 1_455
O1 Ta3 1.972581 1_555
O1 Ta1 1.972581 1_555
O1 Sr1 3.158563 1_655
O1 Sr2 3.158563 1_565
O2 Ta2 1.972581 1_555
O2 Ta4 1.972581 1_555
O2 Sr0 3.158563 1_555
O2 Sr1 3.158563 1_545
O3 Si3 1.634827 1_555
O3 Ta3 2.058705 1_555
O3 Sr0 2.759797 1_555
O3 Sr2 3.006432 1_565
O4 Si3 1.634827 1_555
O4 Ta2 2.058696 1_565
O4 Sr2 2.759796 1_565
O4 Sr1 3.006434 1_555
O5 Si3 1.634827 1_555
O5 Ta5 2.058703 1_555
O5 Sr1 2.759790 1_555
O5 Sr0 3.006439 1_555
O6 Si1 1.634827 1_555
O6 Ta4 2.058703 1_555
O6 Sr2 2.759790 1_555
O6 Sr0 3.006439 1_555
O7 Si2 1.634827 1_555
O7 Ta0 2.058703 1_555
O7 Sr1 2.759790 1_555
O7 Sr0 3.006439 1_555
O8 Si2 1.634827 1_555
O8 Ta1 2.058705 1_555
O8 Sr0 2.759797 1_555
O8 Sr2 3.006432 1_565
O9 Si2 1.634827 1_555
O9 Ta4 2.058696 1_565
O9 Sr2 2.759796 1_565
O9 Sr1 3.006434 1_555
O10 Si0 1.634827 1_555
O10 Ta3 2.058705 1_555
O10 Sr0 2.759797 1_555
O10 Sr1 3.006432 1_655
O11 Si0 1.634827 1_555
O11 Ta5 2.058696 1_655
O11 Sr1 2.759796 1_655
O11 Sr2 3.006434 1_555
O12 Si1 1.634827 1_555
O12 Ta0 2.058696 1_655
O12 Sr1 2.759796 1_655
O12 Sr2 3.006434 1_555
O13 Si2 1.620530 1_554
O13 Si3 1.620530 1_555
O14 Si1 1.620530 1_554
O14 Si0 1.620530 1_555
O15 Ta2 1.939730 1_555
O15 Ta4 1.939730 1_554
O16 Ta3 1.939730 1_555
O16 Ta1 1.939730 1_554
O17 Ta5 1.939730 1_555
O17 Ta0 1.939730 1_554
O18 Ta3 1.961647 1_545
O18 Ta5 1.961647 1_655
O18 Sr2 2.843877 1_555
O19 Ta0 1.961647 1_555
O19 Ta4 1.961647 1_555
O19 Sr0 2.843878 1_555
O20 Ta1 1.961647 1_455
O20 Ta4 1.961647 1_565
O20 Sr1 2.843877 1_555
O21 Ta3 1.961647 1_455
O21 Ta2 1.961647 1_565
O21 Sr1 2.843877 1_555
O22 Ta5 1.961647 1_555
O22 Ta2 1.961647 1_555
O22 Sr0 2.843878 1_555
O23 Ta1 1.961647 1_545
O23 Ta0 1.961647 1_655
O23 Sr2 2.843877 1_555
O24 Si0 1.634827 1_555
O24 Ta2 2.058703 1_555
O24 Sr2 2.759790 1_555
O24 Sr0 3.006439 1_555
O25 Si1 1.634827 1_555
O25 Ta1 2.058705 1_555
O25 Sr0 2.759797 1_555
O25 Sr1 3.006432 1_655
