# generated using pymatgen
data_Tb5RhBr9
_symmetry_space_group_name_H-M   'P 1'
_cell_length_a   12.99798928
_cell_length_b   12.99798928
_cell_length_c   24.93342689
_cell_angle_alpha   105.10886502
_cell_angle_beta   105.10886502
_cell_angle_gamma   90.00000000
_symmetry_Int_Tables_number   1
_chemical_formula_structural   Tb5RhBr9
_chemical_formula_sum   'Tb40 Rh8 Br72'
_cell_volume   3915.80561312
_cell_formula_units_Z   8
loop_
 _symmetry_equiv_pos_site_id
 _symmetry_equiv_pos_as_xyz
  1  'x, y, z'
loop_
 _atom_site_type_symbol
 _atom_site_label
 _atom_site_symmetry_multiplicity
 _atom_site_fract_x
 _atom_site_fract_y
 _atom_site_fract_z
 _atom_site_occupancy
  Tb  Tb0  1  0.35382528  0.50733666  0.42309495  1
  Tb  Tb1  1  0.06926967  0.41575829  0.42309495  1
  Tb  Tb2  1  0.00733666  0.56926967  0.92309495  1
  Tb  Tb3  1  0.91575829  0.85382528  0.92309495  1
  Tb  Tb4  1  0.64617472  0.49266334  0.57690505  1
  Tb  Tb5  1  0.93073033  0.58424171  0.57690505  1
  Tb  Tb6  1  0.99266334  0.43073033  0.07690505  1
  Tb  Tb7  1  0.08424171  0.14617472  0.07690505  1
  Tb  Tb8  1  0.48002172  0.35887540  0.31103613  1
  Tb  Tb9  1  0.83101440  0.45216073  0.31103613  1
  Tb  Tb10  1  0.85887540  0.33101440  0.81103613  1
  Tb  Tb11  1  0.95216073  0.98002172  0.81103613  1
  Tb  Tb12  1  0.51997828  0.64112460  0.68896387  1
  Tb  Tb13  1  0.16898560  0.54783927  0.68896387  1
  Tb  Tb14  1  0.14112460  0.66898560  0.18896387  1
  Tb  Tb15  1  0.04783927  0.01997828  0.18896387  1
  Tb  Tb16  1  0.39172924  0.62988657  0.30765919  1
  Tb  Tb17  1  0.91592995  0.17777262  0.30765919  1
  Tb  Tb18  1  0.12988657  0.41592995  0.80765919  1
  Tb  Tb19  1  0.67777262  0.89172924  0.80765919  1
  Tb  Tb20  1  0.60827076  0.37011343  0.69234081  1
  Tb  Tb21  1  0.08407005  0.82222738  0.69234081  1
  Tb  Tb22  1  0.87011343  0.58407005  0.19234081  1
  Tb  Tb23  1  0.32222738  0.10827076  0.19234081  1
  Tb  Tb24  1  0.10860482  0.56633173  0.31587899  1
  Tb  Tb25  1  0.20727417  0.24954725  0.31587899  1
  Tb  Tb26  1  0.06633173  0.70727417  0.81587899  1
  Tb  Tb27  1  0.74954725  0.60860482  0.81587899  1
  Tb  Tb28  1  0.89139518  0.43366827  0.68412101  1
  Tb  Tb29  1  0.79272583  0.75045275  0.68412101  1
  Tb  Tb30  1  0.93366827  0.29272583  0.18412101  1
  Tb  Tb31  1  0.25045275  0.39139518  0.18412101  1
  Tb  Tb32  1  0.56459049  0.91796735  0.43302746  1
  Tb  Tb33  1  0.86843697  0.01506011  0.43302746  1
  Tb  Tb34  1  0.41796735  0.36843697  0.93302746  1
  Tb  Tb35  1  0.51506011  0.06459049  0.93302746  1
  Tb  Tb36  1  0.43540951  0.08203265  0.56697254  1
  Tb  Tb37  1  0.13156303  0.98493989  0.56697254  1
  Tb  Tb38  1  0.58203265  0.63156303  0.06697254  1
  Tb  Tb39  1  0.48493989  0.93540951  0.06697254  1
  Rh  Rh0  1  0.28621156  0.44448814  0.30530074  1
  Rh  Rh1  1  0.01908917  0.36081260  0.30530074  1
  Rh  Rh2  1  0.94448814  0.51908917  0.80530074  1
  Rh  Rh3  1  0.86081260  0.78621156  0.80530074  1
  Rh  Rh4  1  0.71378844  0.55551186  0.69469926  1
  Rh  Rh5  1  0.98091083  0.63918740  0.69469926  1
  Rh  Rh6  1  0.05551186  0.48091083  0.19469926  1
  Rh  Rh7  1  0.13918740  0.21378844  0.19469926  1
  Br  Br0  1  0.27289744  0.32265258  0.44966672  1
  Br  Br1  1  0.17676928  0.62701414  0.44966672  1
  Br  Br2  1  0.82265258  0.67676928  0.94966672  1
  Br  Br3  1  0.12701414  0.77289744  0.94966672  1
  Br  Br4  1  0.72710256  0.67734742  0.55033328  1
  Br  Br5  1  0.82323072  0.37298586  0.55033328  1
  Br  Br6  1  0.17734742  0.32323072  0.05033328  1
  Br  Br7  1  0.87298586  0.22710256  0.05033328  1
  Br  Br8  1  0.45838510  0.28272600  0.18690222  1
  Br  Br9  1  0.72851712  0.40417622  0.18690222  1
  Br  Br10  1  0.78272600  0.22851712  0.68690222  1
  Br  Br11  1  0.90417622  0.95838510  0.68690222  1
  Br  Br12  1  0.54161490  0.71727400  0.81309778  1
  Br  Br13  1  0.27148288  0.59582378  0.81309778  1
  Br  Br14  1  0.21727400  0.77148288  0.31309778  1
  Br  Br15  1  0.09582378  0.04161490  0.31309778  1
  Br  Br16  1  0.35482455  0.60553316  0.18438407  1
  Br  Br17  1  0.82955951  0.07885091  0.18438407  1
  Br  Br18  1  0.10553316  0.32955951  0.68438407  1
  Br  Br19  1  0.57885091  0.85482455  0.68438407  1
  Br  Br20  1  0.64517545  0.39446684  0.81561593  1
  Br  Br21  1  0.17044049  0.92114909  0.81561593  1
  Br  Br22  1  0.89446684  0.67044049  0.31561593  1
  Br  Br23  1  0.42114909  0.14517545  0.31561593  1
  Br  Br24  1  0.55676289  0.41573789  0.43847134  1
  Br  Br25  1  0.88170845  0.52273345  0.43847134  1
  Br  Br26  1  0.91573789  0.38170845  0.93847134  1
  Br  Br27  1  0.02273345  0.05676289  0.93847134  1
  Br  Br28  1  0.44323711  0.58426211  0.56152866  1
  Br  Br29  1  0.11829155  0.47726655  0.56152866  1
  Br  Br30  1  0.08426211  0.61829155  0.06152866  1
  Br  Br31  1  0.97726655  0.94323711  0.06152866  1
  Br  Br32  1  0.60322009  0.54471571  0.31482801  1
  Br  Br33  1  0.71160792  0.27011231  0.31482801  1
  Br  Br34  1  0.04471571  0.21160792  0.81482801  1
  Br  Br35  1  0.77011231  0.10322009  0.81482801  1
  Br  Br36  1  0.39677991  0.45528429  0.68517199  1
  Br  Br37  1  0.28839208  0.72988769  0.68517199  1
  Br  Br38  1  0.95528429  0.78839208  0.18517199  1
  Br  Br39  1  0.22988769  0.89677991  0.18517199  1
  Br  Br40  1  0.46388457  0.71719810  0.43397051  1
  Br  Br41  1  0.97008593  0.21677240  0.43397051  1
  Br  Br42  1  0.21719810  0.47008593  0.93397051  1
  Br  Br43  1  0.71677240  0.96388457  0.93397051  1
  Br  Br44  1  0.53611543  0.28280190  0.56602949  1
  Br  Br45  1  0.02991407  0.78322760  0.56602949  1
  Br  Br46  1  0.78280190  0.52991407  0.06602949  1
  Br  Br47  1  0.28322760  0.03611543  0.06602949  1
  Br  Br48  1  0.50416182  0.83769810  0.31505513  1
  Br  Br49  1  0.81089331  0.97735702  0.31505513  1
  Br  Br50  1  0.33769810  0.31089331  0.81505513  1
  Br  Br51  1  0.47735702  0.00416182  0.81505513  1
  Br  Br52  1  0.49583818  0.16230190  0.68494487  1
  Br  Br53  1  0.18910669  0.02264298  0.68494487  1
  Br  Br54  1  0.66230190  0.68910669  0.18494487  1
  Br  Br55  1  0.52264298  0.99583818  0.18494487  1
  Br  Br56  1  0.67336632  0.10705989  0.43804121  1
  Br  Br57  1  0.76467489  0.83098132  0.43804121  1
  Br  Br58  1  0.60705989  0.26467489  0.93804121  1
  Br  Br59  1  0.33098132  0.17336632  0.93804121  1
  Br  Br60  1  0.32663368  0.89294011  0.56195879  1
  Br  Br61  1  0.23532511  0.16901868  0.56195879  1
  Br  Br62  1  0.39294011  0.73532511  0.06195879  1
  Br  Br63  1  0.66901868  0.82663368  0.06195879  1
  Br  Br64  1  0.38176118  0.02644163  0.44350126  1
  Br  Br65  1  0.06174008  0.91705963  0.44350126  1
  Br  Br66  1  0.52644163  0.56174008  0.94350126  1
  Br  Br67  1  0.41705963  0.88176118  0.94350126  1
  Br  Br68  1  0.61823882  0.97355837  0.55649874  1
  Br  Br69  1  0.93825992  0.08294037  0.55649874  1
  Br  Br70  1  0.47355837  0.43825992  0.05649874  1
  Br  Br71  1  0.58294037  0.11823882  0.05649874  1
loop_
_geom_bond_atom_site_label_1
_geom_bond_atom_site_label_2
_geom_bond_distance
_geom_bond_site_symmetry_2
Rh0 Tb0 2.733022 1_555
Rh0 Tb8 2.738612 1_555
Rh0 Tb16 2.752412 1_555
Rh0 Tb31 2.828820 1_555
Rh0 Tb24 2.829613 1_555
Rh0 Tb25 2.834097 1_555
Rh1 Tb1 2.733022 1_555
Rh1 Tb9 2.738612 1_455
Rh1 Tb17 2.752412 1_455
Rh1 Tb30 2.828820 1_455
Rh1 Tb25 2.829613 1_555
Rh1 Tb24 2.834097 1_555
Rh2 Tb2 2.733022 1_655
Rh2 Tb10 2.738612 1_555
Rh2 Tb18 2.752412 1_655
Rh2 Tb28 2.828820 1_555
Rh2 Tb26 2.829613 1_655
Rh2 Tb27 2.834097 1_555
Rh3 Tb3 2.733022 1_555
Rh3 Tb11 2.738612 1_555
Rh3 Tb19 2.752412 1_555
Rh3 Tb29 2.828820 1_555
Rh3 Tb27 2.829613 1_555
Rh3 Tb26 2.834097 1_655
Rh4 Tb4 2.733022 1_555
Rh4 Tb12 2.738612 1_555
Rh4 Tb20 2.752412 1_555
Rh4 Tb27 2.828820 1_555
Rh4 Tb28 2.829613 1_555
Rh4 Tb29 2.834097 1_555
Rh5 Tb5 2.733022 1_555
Rh5 Tb13 2.738612 1_655
Rh5 Tb21 2.752412 1_655
Rh5 Tb26 2.828820 1_655
Rh5 Tb29 2.829613 1_555
Rh5 Tb28 2.834097 1_555
Rh6 Tb6 2.733022 1_455
Rh6 Tb14 2.738612 1_555
Rh6 Tb22 2.752412 1_455
Rh6 Tb24 2.828820 1_555
Rh6 Tb30 2.829613 1_455
Rh6 Tb31 2.834097 1_555
Rh7 Tb7 2.733022 1_555
Rh7 Tb15 2.738612 1_555
Rh7 Tb23 2.752412 1_555
Rh7 Tb25 2.828820 1_555
Rh7 Tb31 2.829613 1_555
Rh7 Tb30 2.834097 1_455
Br0 Tb1 2.900453 1_555
Br0 Tb0 2.915533 1_555
Br0 Tb25 3.101976 1_555
Br1 Tb0 2.900453 1_555
Br1 Tb1 2.915533 1_555
Br1 Tb24 3.101976 1_555
Br2 Tb3 2.900453 1_555
Br2 Tb2 2.915533 1_655
Br2 Tb27 3.101976 1_555
Br3 Tb2 2.900453 1_555
Br3 Tb3 2.915533 1_455
Br3 Tb26 3.101976 1_555
Br4 Tb5 2.900453 1_555
Br4 Tb4 2.915533 1_555
Br4 Tb29 3.101976 1_555
Br5 Tb4 2.900453 1_555
Br5 Tb5 2.915533 1_555
Br5 Tb28 3.101976 1_555
Br6 Tb7 2.900453 1_555
Br6 Tb6 2.915533 1_455
Br6 Tb31 3.101976 1_555
Br7 Tb6 2.900453 1_555
Br7 Tb7 2.915533 1_655
Br7 Tb30 3.101976 1_555
Br8 Tb23 2.928782 1_555
Br8 Tb8 2.930450 1_555
Br8 Tb31 3.042675 1_555
Br9 Tb22 2.928782 1_555
Br9 Tb9 2.930450 1_555
Br9 Tb30 3.042675 1_555
Br10 Tb20 2.928782 1_555
Br10 Tb10 2.930450 1_555
Br10 Tb28 3.042675 1_555
Br11 Tb21 2.928782 1_655
Br11 Tb11 2.930450 1_555
Br11 Tb29 3.042675 1_555
Br12 Tb19 2.928782 1_555
Br12 Tb12 2.930450 1_555
Br12 Tb27 3.042675 1_555
Br13 Tb18 2.928782 1_555
Br13 Tb13 2.930450 1_555
Br13 Tb26 3.042675 1_555
Br14 Tb16 2.928782 1_555
Br14 Tb14 2.930450 1_555
Br14 Tb24 3.042675 1_555
Br15 Tb17 2.928782 1_455
Br15 Tb15 2.930450 1_555
Br15 Tb25 3.042675 1_555
Br16 Tb16 2.915807 1_555
Br16 Tb14 2.919754 1_555
Br16 Tb31 3.094095 1_555
Br17 Tb17 2.915807 1_555
Br17 Tb15 2.919754 1_655
Br17 Tb30 3.094095 1_555
Br18 Tb18 2.915807 1_555
Br18 Tb13 2.919754 1_555
Br18 Tb28 3.094095 1_455
Br19 Tb19 2.915807 1_555
Br19 Tb12 2.919754 1_555
Br19 Tb29 3.094095 1_555
Br20 Tb20 2.915807 1_555
Br20 Tb10 2.919754 1_555
Br20 Tb27 3.094095 1_555
Br21 Tb21 2.915807 1_555
Br21 Tb11 2.919754 1_455
Br21 Tb26 3.094095 1_555
Br22 Tb22 2.915807 1_555
Br22 Tb9 2.919754 1_555
Br22 Tb24 3.094095 1_655
Br23 Tb23 2.915807 1_555
Br23 Tb8 2.919754 1_555
Br23 Tb25 3.094095 1_555
Br24 Tb0 2.869349 1_555
Br24 Tb8 2.959833 1_555
Br24 Tb4 3.220842 1_555
Br25 Tb1 2.869349 1_655
Br25 Tb9 2.959833 1_555
Br25 Tb5 3.220842 1_555
Br26 Tb2 2.869349 1_655
Br26 Tb10 2.959833 1_555
Br26 Tb6 3.220842 1_556
Br27 Tb3 2.869349 1_445
Br27 Tb11 2.959833 1_445
Br27 Tb7 3.220842 1_556
Br28 Tb4 2.869349 1_555
Br28 Tb12 2.959833 1_555
Br28 Tb0 3.220842 1_555
Br29 Tb5 2.869349 1_455
Br29 Tb13 2.959833 1_555
Br29 Tb1 3.220842 1_555
Br30 Tb6 2.869349 1_455
Br30 Tb14 2.959833 1_555
Br30 Tb2 3.220842 1_554
Br31 Tb7 2.869349 1_665
Br31 Tb15 2.959833 1_665
Br31 Tb3 3.220842 1_554
Br32 Tb8 2.865328 1_555
Br32 Tb16 2.943004 1_555
Br32 Tb9 3.210856 1_555
Br33 Tb9 2.865328 1_555
Br33 Tb17 2.943004 1_555
Br33 Tb8 3.210856 1_555
Br34 Tb10 2.865328 1_455
Br34 Tb18 2.943004 1_555
Br34 Tb11 3.210856 1_445
Br35 Tb11 2.865328 1_545
Br35 Tb19 2.943004 1_545
Br35 Tb10 3.210856 1_555
Br36 Tb12 2.865328 1_555
Br36 Tb20 2.943004 1_555
Br36 Tb13 3.210856 1_555
Br37 Tb13 2.865328 1_555
Br37 Tb21 2.943004 1_555
Br37 Tb12 3.210856 1_555
Br38 Tb14 2.865328 1_655
Br38 Tb22 2.943004 1_555
Br38 Tb15 3.210856 1_665
Br39 Tb15 2.865328 1_565
Br39 Tb23 2.943004 1_565
Br39 Tb14 3.210856 1_555
Br40 Tb32 2.927797 1_555
Br40 Tb16 2.946707 1_555
Br40 Tb0 2.995488 1_555
Br41 Tb33 2.927797 1_555
Br41 Tb17 2.946707 1_555
Br41 Tb1 2.995488 1_655
Br42 Tb34 2.927797 1_555
Br42 Tb18 2.946707 1_555
Br42 Tb2 2.995488 1_555
Br43 Tb35 2.927797 1_565
Br43 Tb19 2.946707 1_555
Br43 Tb3 2.995488 1_555
Br44 Tb36 2.927797 1_555
Br44 Tb20 2.946707 1_555
Br44 Tb4 2.995488 1_555
Br45 Tb37 2.927797 1_555
Br45 Tb21 2.946707 1_555
Br45 Tb5 2.995488 1_455
Br46 Tb38 2.927797 1_555
Br46 Tb22 2.946707 1_555
Br46 Tb6 2.995488 1_555
Br47 Tb39 2.927797 1_545
Br47 Tb23 2.946707 1_555
Br47 Tb7 2.995488 1_555
Br48 Tb32 2.748340 1_555
Br48 Tb16 3.010922 1_555
Br49 Tb33 2.748340 1_565
Br49 Tb17 3.010922 1_565
Br50 Tb34 2.748340 1_555
Br50 Tb18 3.010922 1_555
Br51 Tb35 2.748340 1_555
Br51 Tb19 3.010922 1_545
Br52 Tb36 2.748340 1_555
Br52 Tb20 3.010922 1_555
Br53 Tb37 2.748340 1_545
Br53 Tb21 3.010922 1_545
Br54 Tb38 2.748340 1_555
Br54 Tb22 3.010922 1_555
Br55 Tb39 2.748340 1_555
Br55 Tb23 3.010922 1_565
Br56 Tb32 2.793426 1_545
Br56 Tb33 2.821665 1_555
Br57 Tb33 2.793426 1_565
Br57 Tb32 2.821665 1_555
Br58 Tb34 2.793426 1_555
Br58 Tb35 2.821665 1_555
Br59 Tb35 2.793426 1_555
Br59 Tb34 2.821665 1_555
Br60 Tb36 2.793426 1_565
Br60 Tb37 2.821665 1_555
Br61 Tb37 2.793426 1_545
Br61 Tb36 2.821665 1_555
Br62 Tb38 2.793426 1_555
Br62 Tb39 2.821665 1_555
Br63 Tb39 2.793426 1_555
Br63 Tb38 2.821665 1_555
Br64 Tb32 2.799118 1_545
Br64 Tb36 2.864813 1_555
Br65 Tb33 2.799118 1_465
Br65 Tb37 2.864813 1_555
Br66 Tb34 2.799118 1_555
Br66 Tb38 2.864813 1_556
Br67 Tb35 2.799118 1_565
Br67 Tb39 2.864813 1_556
Br68 Tb36 2.799118 1_565
Br68 Tb32 2.864813 1_555
Br69 Tb37 2.799118 1_645
Br69 Tb33 2.864813 1_555
Br70 Tb38 2.799118 1_555
Br70 Tb34 2.864813 1_554
Br71 Tb39 2.799118 1_545
Br71 Tb35 2.864813 1_554
