# generated using pymatgen
data_ZnBiWO5
_symmetry_space_group_name_H-M   'P 1'
_cell_length_a   5.38062888
_cell_length_b   8.07748336
_cell_length_c   12.01560400
_cell_angle_alpha   90.00000000
_cell_angle_beta   90.00000000
_cell_angle_gamma   104.70133226
_symmetry_Int_Tables_number   1
_chemical_formula_structural   ZnBiWO5
_chemical_formula_sum   'Zn4 Bi4 W4 O20'
_cell_volume   505.12489969
_cell_formula_units_Z   4
loop_
 _symmetry_equiv_pos_site_id
 _symmetry_equiv_pos_as_xyz
  1  'x, y, z'
loop_
 _atom_site_type_symbol
 _atom_site_label
 _atom_site_symmetry_multiplicity
 _atom_site_fract_x
 _atom_site_fract_y
 _atom_site_fract_z
 _atom_site_occupancy
  Zn  Zn0  1  0.60283100  0.16554500  0.91490300  1
  Zn  Zn1  1  0.39716900  0.83445500  0.08509700  1
  Zn  Zn2  1  0.89716900  0.33445500  0.41490300  1
  Zn  Zn3  1  0.10283100  0.66554500  0.58509700  1
  Bi  Bi0  1  0.09736800  0.15852800  0.10202500  1
  Bi  Bi1  1  0.90263200  0.84147200  0.89797500  1
  Bi  Bi2  1  0.59736800  0.65852800  0.39797500  1
  Bi  Bi3  1  0.40263200  0.34147200  0.60202500  1
  W  W0  1  0.76846300  0.97042300  0.63793100  1
  W  W1  1  0.23153700  0.02957700  0.36206900  1
  W  W2  1  0.73153700  0.52957700  0.13793100  1
  W  W3  1  0.26846300  0.47042300  0.86206900  1
  O  O0  1  0.53673700  0.33140900  0.06987200  1
  O  O1  1  0.98468700  0.33044300  0.93103600  1
  O  O2  1  0.51909400  0.67042200  0.18787500  1
  O  O3  1  0.75641600  0.51674300  0.52602900  1
  O  O4  1  0.77939300  0.48547800  0.29415800  1
  O  O5  1  0.27939300  0.98547800  0.20584200  1
  O  O6  1  0.48468700  0.83044300  0.56896400  1
  O  O7  1  0.51531300  0.16955700  0.43103600  1
  O  O8  1  0.24358400  0.48325700  0.47397100  1
  O  O9  1  0.96326300  0.16859100  0.56987200  1
  O  O10  1  0.22060700  0.51452200  0.70584200  1
  O  O11  1  0.46326300  0.66859100  0.93012800  1
  O  O12  1  0.03673700  0.83140900  0.43012800  1
  O  O13  1  0.72060700  0.01452200  0.79415800  1
  O  O14  1  0.74358400  0.98325700  0.02602900  1
  O  O15  1  0.25641600  0.01674300  0.97397100  1
  O  O16  1  0.48090600  0.32957800  0.81212500  1
  O  O17  1  0.01531300  0.66955700  0.06896400  1
  O  O18  1  0.98090600  0.82957800  0.68787500  1
  O  O19  1  0.01909400  0.17042200  0.31212500  1
loop_
_geom_bond_atom_site_label_1
_geom_bond_atom_site_label_2
_geom_bond_distance
_geom_bond_site_symmetry_2
Bi0 O15 2.215599 1_554
Bi0 O14 2.256969 1_445
Bi0 O5 2.272453 1_545
Bi0 O0 2.452056 1_555
Bi0 O19 2.565178 1_555
Bi0 O1 2.635216 1_454
Bi1 O14 2.215599 1_556
Bi1 O15 2.256969 1_665
Bi1 O13 2.272453 1_565
Bi1 O11 2.452056 1_555
Bi1 O18 2.565178 1_555
Bi1 O17 2.635216 1_656
Bi2 O3 2.215599 1_555
Bi2 O8 2.256969 1_555
Bi2 O4 2.272453 1_555
Bi2 O12 2.452056 1_655
Bi2 O2 2.565178 1_555
Bi2 O6 2.635216 1_555
Bi3 O8 2.215599 1_555
Bi3 O3 2.256969 1_555
Bi3 O10 2.272453 1_555
Bi3 O9 2.452056 1_455
Bi3 O16 2.565178 1_555
Bi3 O7 2.635216 1_555
O0 W2 1.864947 1_555
O0 Zn0 2.372864 1_554
O1 W3 1.849403 1_655
O1 Zn0 2.155029 1_555
O2 W2 1.902922 1_555
O2 Zn1 2.037694 1_555
O3 Zn3 2.070152 1_655
O3 Zn2 2.256211 1_555
O4 W2 1.939969 1_555
O4 Zn2 2.094510 1_555
O5 W1 1.939969 1_565
O5 Zn1 2.094510 1_555
O6 W0 1.849403 1_555
O6 Zn3 2.155029 1_555
O7 W1 1.849403 1_555
O7 Zn2 2.155029 1_555
O8 Zn2 2.070152 1_455
O8 Zn3 2.256211 1_555
O9 W0 1.864947 1_545
O9 Zn2 2.372864 1_555
O10 W3 1.939969 1_555
O10 Zn3 2.094510 1_555
O11 W3 1.864947 1_555
O11 Zn1 2.372864 1_556
O12 W1 1.864947 1_565
O12 Zn3 2.372864 1_555
O13 W0 1.939969 1_545
O13 Zn0 2.094510 1_555
O14 Zn1 2.070152 1_555
O14 Zn0 2.256211 1_564
O15 Zn0 2.070152 1_555
O15 Zn1 2.256211 1_546
O16 W3 1.902922 1_555
O16 Zn0 2.037694 1_555
O17 W2 1.849403 1_455
O17 Zn1 2.155029 1_555
O18 W0 1.902922 1_555
O18 Zn3 2.037694 1_655
O19 W1 1.902922 1_555
O19 Zn2 2.037694 1_455
