# generated using pymatgen
data_LiMg30CrO32
_symmetry_space_group_name_H-M   'P 1'
_cell_length_a   8.50090300
_cell_length_b   8.50090300
_cell_length_c   8.51477100
_cell_angle_alpha   90.00000000
_cell_angle_beta   90.00000000
_cell_angle_gamma   90.00000000
_symmetry_Int_Tables_number   1
_chemical_formula_structural   LiMg30CrO32
_chemical_formula_sum   'Li1 Mg30 Cr1 O32'
_cell_volume   615.32292194
_cell_formula_units_Z   1
loop_
 _symmetry_equiv_pos_site_id
 _symmetry_equiv_pos_as_xyz
  1  'x, y, z'
loop_
 _atom_site_type_symbol
 _atom_site_label
 _atom_site_symmetry_multiplicity
 _atom_site_fract_x
 _atom_site_fract_y
 _atom_site_fract_z
 _atom_site_occupancy
  Li  Li0  1  0.00000000  0.00000000  0.00000000  1
  Mg  Mg0  1  0.00000000  0.50000000  0.00000000  1
  Mg  Mg1  1  0.00000000  0.50000000  0.50000000  1
  Mg  Mg2  1  0.50000000  0.00000000  0.00000000  1
  Mg  Mg3  1  0.50000000  0.00000000  0.50000000  1
  Mg  Mg4  1  0.50000000  0.50000000  0.00000000  1
  Mg  Mg5  1  0.50000000  0.50000000  0.50000000  1
  Mg  Mg6  1  0.00000000  0.24855800  0.24479400  1
  Mg  Mg7  1  0.00000000  0.24855800  0.75520600  1
  Mg  Mg8  1  0.00000000  0.75144200  0.24479400  1
  Mg  Mg9  1  0.00000000  0.75144200  0.75520600  1
  Mg  Mg10  1  0.50000000  0.24983000  0.24867400  1
  Mg  Mg11  1  0.50000000  0.24983000  0.75132600  1
  Mg  Mg12  1  0.50000000  0.75017000  0.24867400  1
  Mg  Mg13  1  0.50000000  0.75017000  0.75132600  1
  Mg  Mg14  1  0.24855800  0.00000000  0.24479400  1
  Mg  Mg15  1  0.24855800  0.00000000  0.75520600  1
  Mg  Mg16  1  0.24983000  0.50000000  0.24867400  1
  Mg  Mg17  1  0.24983000  0.50000000  0.75132600  1
  Mg  Mg18  1  0.75144200  0.00000000  0.24479400  1
  Mg  Mg19  1  0.75144200  0.00000000  0.75520600  1
  Mg  Mg20  1  0.75017000  0.50000000  0.24867400  1
  Mg  Mg21  1  0.75017000  0.50000000  0.75132600  1
  Mg  Mg22  1  0.24722200  0.24722200  0.00000000  1
  Mg  Mg23  1  0.25098100  0.25098100  0.50000000  1
  Mg  Mg24  1  0.24722200  0.75277800  0.00000000  1
  Mg  Mg25  1  0.25098100  0.74901900  0.50000000  1
  Mg  Mg26  1  0.75277800  0.24722200  0.00000000  1
  Mg  Mg27  1  0.74901900  0.25098100  0.50000000  1
  Mg  Mg28  1  0.75277800  0.75277800  0.00000000  1
  Mg  Mg29  1  0.74901900  0.74901900  0.50000000  1
  Cr  Cr0  1  0.00000000  0.00000000  0.50000000  1
  O  O0  1  0.25490500  0.00000000  0.00000000  1
  O  O1  1  0.24336800  0.00000000  0.50000000  1
  O  O2  1  0.25066600  0.50000000  0.00000000  1
  O  O3  1  0.24870600  0.50000000  0.50000000  1
  O  O4  1  0.74509500  0.00000000  0.00000000  1
  O  O5  1  0.75663200  0.00000000  0.50000000  1
  O  O6  1  0.74933400  0.50000000  0.00000000  1
  O  O7  1  0.75129400  0.50000000  0.50000000  1
  O  O8  1  0.24967700  0.24967700  0.25108700  1
  O  O9  1  0.24967700  0.24967700  0.74891300  1
  O  O10  1  0.24967700  0.75032300  0.25108700  1
  O  O11  1  0.24967700  0.75032300  0.74891300  1
  O  O12  1  0.75032300  0.24967700  0.25108700  1
  O  O13  1  0.75032300  0.24967700  0.74891300  1
  O  O14  1  0.75032300  0.75032300  0.25108700  1
  O  O15  1  0.75032300  0.75032300  0.74891300  1
  O  O16  1  0.00000000  0.00000000  0.26245900  1
  O  O17  1  0.00000000  0.00000000  0.73754100  1
  O  O18  1  0.00000000  0.50000000  0.25320700  1
  O  O19  1  0.00000000  0.50000000  0.74679300  1
  O  O20  1  0.50000000  0.00000000  0.25320700  1
  O  O21  1  0.50000000  0.00000000  0.74679300  1
  O  O22  1  0.50000000  0.50000000  0.25121800  1
  O  O23  1  0.50000000  0.50000000  0.74878200  1
  O  O24  1  0.00000000  0.25490500  0.00000000  1
  O  O25  1  0.00000000  0.24336800  0.50000000  1
  O  O26  1  0.00000000  0.74509500  0.00000000  1
  O  O27  1  0.00000000  0.75663200  0.50000000  1
  O  O28  1  0.50000000  0.25066600  0.00000000  1
  O  O29  1  0.50000000  0.24870600  0.50000000  1
  O  O30  1  0.50000000  0.74933400  0.00000000  1
  O  O31  1  0.50000000  0.75129400  0.50000000  1
loop_
_geom_bond_atom_site_label_1
_geom_bond_atom_site_label_2
_geom_bond_distance
_geom_bond_site_symmetry_2
Li0 O0 2.166923 1_555
Li0 O24 2.166923 1_555
Li0 O4 2.166923 1_455
Li0 O26 2.166923 1_545
Li0 O17 2.234778 1_554
Li0 O16 2.234778 1_555
Mg0 O26 2.083529 1_555
Mg0 O24 2.083529 1_555
Mg0 O2 2.130887 1_555
Mg0 O6 2.130887 1_455
Mg0 O19 2.156000 1_554
Mg0 O18 2.156000 1_555
Mg1 O18 2.101386 1_555
Mg1 O19 2.101386 1_555
Mg1 O3 2.114226 1_555
Mg1 O7 2.114226 1_455
Mg1 O27 2.181604 1_555
Mg1 O25 2.181604 1_555
Mg2 O4 2.083529 1_555
Mg2 O0 2.083529 1_555
Mg2 O28 2.130887 1_555
Mg2 O30 2.130887 1_545
Mg2 O21 2.156000 1_554
Mg2 O20 2.156000 1_555
Mg3 O20 2.101386 1_555
Mg3 O21 2.101386 1_555
Mg3 O31 2.114226 1_545
Mg3 O29 2.114226 1_555
Mg3 O1 2.181604 1_555
Mg3 O5 2.181604 1_555
Mg4 O30 2.119564 1_555
Mg4 O6 2.119564 1_555
Mg4 O2 2.119564 1_555
Mg4 O28 2.119564 1_555
Mg4 O22 2.139064 1_555
Mg4 O23 2.139064 1_554
Mg5 O23 2.118322 1_555
Mg5 O22 2.118322 1_555
Mg5 O7 2.136226 1_555
Mg5 O29 2.136226 1_555
Mg5 O31 2.136226 1_555
Mg5 O3 2.136226 1_555
Mg6 O24 2.085063 1_555
Mg6 O16 2.118314 1_555
Mg6 O8 2.123178 1_555
Mg6 O12 2.123178 1_455
Mg6 O18 2.138684 1_555
Mg6 O25 2.173468 1_555
Mg7 O24 2.085063 1_556
Mg7 O17 2.118314 1_555
Mg7 O9 2.123178 1_555
Mg7 O13 2.123178 1_455
Mg7 O19 2.138684 1_555
Mg7 O25 2.173468 1_555
Mg8 O26 2.085063 1_555
Mg8 O16 2.118314 1_565
Mg8 O10 2.123178 1_555
Mg8 O14 2.123178 1_455
Mg8 O18 2.138684 1_555
Mg8 O27 2.173468 1_555
Mg9 O26 2.085063 1_556
Mg9 O17 2.118314 1_565
Mg9 O11 2.123178 1_555
Mg9 O15 2.123178 1_455
Mg9 O19 2.138684 1_555
Mg9 O27 2.173468 1_555
Mg10 O28 2.117414 1_555
Mg10 O20 2.124131 1_555
Mg10 O22 2.126781 1_555
Mg10 O12 2.128071 1_555
Mg10 O8 2.128071 1_555
Mg10 O29 2.140005 1_555
Mg11 O28 2.117414 1_556
Mg11 O21 2.124131 1_555
Mg11 O23 2.126781 1_555
Mg11 O9 2.128071 1_555
Mg11 O13 2.128071 1_555
Mg11 O29 2.140005 1_555
Mg12 O30 2.117414 1_555
Mg12 O20 2.124131 1_565
Mg12 O22 2.126781 1_555
Mg12 O10 2.128071 1_555
Mg12 O14 2.128071 1_555
Mg12 O31 2.140005 1_555
Mg13 O30 2.117414 1_556
Mg13 O21 2.124131 1_565
Mg13 O23 2.126781 1_555
Mg13 O15 2.128071 1_555
Mg13 O11 2.128071 1_555
Mg13 O31 2.140005 1_555
Mg14 O0 2.085063 1_555
Mg14 O16 2.118314 1_555
Mg14 O8 2.123178 1_555
Mg14 O10 2.123178 1_545
Mg14 O20 2.138684 1_555
Mg14 O1 2.173468 1_555
Mg15 O0 2.085063 1_556
Mg15 O17 2.118314 1_555
Mg15 O9 2.123178 1_555
Mg15 O11 2.123178 1_545
Mg15 O21 2.138684 1_555
Mg15 O1 2.173468 1_555
Mg16 O2 2.117414 1_555
Mg16 O18 2.124131 1_555
Mg16 O22 2.126781 1_555
Mg16 O10 2.128071 1_555
Mg16 O8 2.128071 1_555
Mg16 O3 2.140005 1_555
Mg17 O2 2.117414 1_556
Mg17 O19 2.124131 1_555
Mg17 O23 2.126781 1_555
Mg17 O9 2.128071 1_555
Mg17 O11 2.128071 1_555
Mg17 O3 2.140005 1_555
Mg18 O4 2.085063 1_555
Mg18 O16 2.118314 1_655
Mg18 O12 2.123178 1_555
Mg18 O14 2.123178 1_545
Mg18 O20 2.138684 1_555
Mg18 O5 2.173468 1_555
Mg19 O4 2.085063 1_556
Mg19 O17 2.118314 1_655
Mg19 O13 2.123178 1_555
Mg19 O15 2.123178 1_545
Mg19 O21 2.138684 1_555
Mg19 O5 2.173468 1_555
Mg20 O6 2.117414 1_555
Mg20 O18 2.124131 1_655
Mg20 O22 2.126781 1_555
Mg20 O12 2.128071 1_555
Mg20 O14 2.128071 1_555
Mg20 O7 2.140005 1_555
Mg21 O6 2.117414 1_556
Mg21 O19 2.124131 1_655
Mg21 O23 2.126781 1_555
Mg21 O15 2.128071 1_555
Mg21 O13 2.128071 1_555
Mg21 O7 2.140005 1_555
Mg22 O0 2.102625 1_555
Mg22 O24 2.102625 1_555
Mg22 O9 2.138152 1_554
Mg22 O8 2.138152 1_555
Mg22 O28 2.149041 1_555
Mg22 O2 2.149041 1_555
Mg23 O3 2.116975 1_555
Mg23 O29 2.116975 1_555
Mg23 O8 2.119495 1_555
Mg23 O9 2.119495 1_555
Mg23 O1 2.134546 1_555
Mg23 O25 2.134546 1_555
Mg24 O26 2.102625 1_555
Mg24 O0 2.102625 1_565
Mg24 O11 2.138152 1_554
Mg24 O10 2.138152 1_555
Mg24 O30 2.149041 1_555
Mg24 O2 2.149041 1_555
Mg25 O31 2.116975 1_555
Mg25 O3 2.116975 1_555
Mg25 O10 2.119495 1_555
Mg25 O11 2.119495 1_555
Mg25 O1 2.134546 1_565
Mg25 O27 2.134546 1_555
Mg26 O4 2.102625 1_555
Mg26 O24 2.102625 1_655
Mg26 O13 2.138152 1_554
Mg26 O12 2.138152 1_555
Mg26 O28 2.149041 1_555
Mg26 O6 2.149041 1_555
Mg27 O29 2.116975 1_555
Mg27 O7 2.116975 1_555
Mg27 O12 2.119495 1_555
Mg27 O13 2.119495 1_555
Mg27 O25 2.134546 1_655
Mg27 O5 2.134546 1_555
Mg28 O26 2.102625 1_655
Mg28 O4 2.102625 1_565
Mg28 O15 2.138152 1_554
Mg28 O14 2.138152 1_555
Mg28 O30 2.149041 1_555
Mg28 O6 2.149041 1_555
Mg29 O31 2.116975 1_555
Mg29 O7 2.116975 1_555
Mg29 O14 2.119495 1_555
Mg29 O15 2.119495 1_555
Mg29 O27 2.134546 1_655
Mg29 O5 2.134546 1_565
Cr0 O17 2.022607 1_555
Cr0 O16 2.022607 1_555
Cr0 O1 2.068848 1_555
Cr0 O25 2.068848 1_555
Cr0 O27 2.068848 1_545
Cr0 O5 2.068848 1_455
