# generated using pymatgen
data_Li2TiFe3O8
_symmetry_space_group_name_H-M   'P 1'
_cell_length_a   5.98667314
_cell_length_b   6.01202484
_cell_length_c   10.33113978
_cell_angle_alpha   89.69048642
_cell_angle_beta   106.47599099
_cell_angle_gamma   120.21337091
_symmetry_Int_Tables_number   1
_chemical_formula_structural   Li2TiFe3O8
_chemical_formula_sum   'Li4 Ti2 Fe6 O16'
_cell_volume   303.87299565
_cell_formula_units_Z   2
loop_
 _symmetry_equiv_pos_site_id
 _symmetry_equiv_pos_as_xyz
  1  'x, y, z'
loop_
 _atom_site_type_symbol
 _atom_site_label
 _atom_site_symmetry_multiplicity
 _atom_site_fract_x
 _atom_site_fract_y
 _atom_site_fract_z
 _atom_site_occupancy
  Li  Li0  1  0.11612800  0.06923300  0.18850100  1
  Li  Li1  1  0.12387100  0.55994500  0.68877700  1
  Li  Li2  1  0.87600500  0.44017600  0.31123700  1
  Li  Li3  1  0.88394700  0.93054300  0.81140500  1
  Ti  Ti0  1  0.50651100  0.22833600  0.75009100  1
  Ti  Ti1  1  0.49413400  0.77208200  0.25003800  1
  Fe  Fe0  1  0.49993700  0.99977900  0.99990000  1
  Fe  Fe1  1  0.00012400  0.00024500  0.50010900  1
  Fe  Fe2  1  0.00014100  0.49990000  0.00015100  1
  Fe  Fe3  1  0.49959200  0.00000400  0.49988200  1
  Fe  Fe4  1  0.49998900  0.49982000  0.00001500  1
  Fe  Fe5  1  0.49988100  0.50017700  0.49997300  1
  O  O0  1  0.27086200  0.14594700  0.39650600  1
  O  O1  1  0.25317800  0.62851300  0.89653100  1
  O  O2  1  0.74677900  0.37104900  0.10345000  1
  O  O3  1  0.72881400  0.85416400  0.60348600  1
  O  O4  1  0.71883100  0.35178400  0.62437600  1
  O  O5  1  0.70890300  0.84966600  0.12513100  1
  O  O6  1  0.26190700  0.90624000  0.62408100  1
  O  O7  1  0.24427700  0.41016400  0.11640700  1
  O  O8  1  0.27966600  0.36685100  0.61862600  1
  O  O9  1  0.26762000  0.86943600  0.12559600  1
  O  O10  1  0.73246600  0.13034000  0.87432000  1
  O  O11  1  0.72028500  0.63343800  0.38139400  1
  O  O12  1  0.75589700  0.58965700  0.88371300  1
  O  O13  1  0.73793700  0.09394000  0.37591600  1
  O  O14  1  0.29125300  0.15014600  0.87484000  1
  O  O15  1  0.28106500  0.64842400  0.37554600  1
loop_
_geom_bond_atom_site_label_1
_geom_bond_atom_site_label_2
_geom_bond_distance
_geom_bond_site_symmetry_2
Li0 O5 1.994918 1_445
Li0 O7 2.017309 1_555
Li0 O9 2.031474 1_545
Li0 O0 2.034770 1_555
Li1 O4 1.982021 1_455
Li1 O6 2.007686 1_555
Li1 O1 2.030241 1_555
Li1 O8 2.055496 1_555
Li2 O15 1.982135 1_655
Li2 O13 2.007311 1_555
Li2 O2 2.030635 1_555
Li2 O11 2.055952 1_555
Li3 O14 1.995305 1_665
Li3 O12 2.018146 1_555
Li3 O10 2.031465 1_565
Li3 O3 2.034042 1_555
Fe0 O1 2.029079 1_555
Fe0 O2 2.029719 1_566
Fe0 O10 2.037380 1_565
Fe0 O9 2.037473 1_556
Fe0 O14 2.062962 1_565
Fe0 O5 2.063727 1_556
Fe1 O0 2.021132 1_555
Fe1 O3 2.021947 1_445
Fe1 O6 2.039848 1_545
Fe1 O13 2.041316 1_455
Fe1 O8 2.076598 1_555
Fe1 O11 2.078331 1_445
Fe2 O7 1.913275 1_555
Fe2 O12 1.914600 1_454
Fe2 O2 1.940709 1_455
Fe2 O1 1.941826 1_554
Fe2 O9 2.110218 1_555
Fe2 O10 2.111995 1_454
Fe3 O15 2.030355 1_545
Fe3 O4 2.031716 1_555
Fe3 O0 2.038402 1_555
Fe3 O3 2.040888 1_545
Fe3 O6 2.051696 1_545
Fe3 O13 2.052539 1_555
Fe4 O14 2.030308 1_554
Fe4 O5 2.030686 1_555
Fe4 O1 2.042166 1_554
Fe4 O2 2.042257 1_555
Fe4 O7 2.070429 1_555
Fe4 O12 2.070477 1_554
Fe5 O8 1.930209 1_555
Fe5 O11 1.930291 1_555
Fe5 O3 1.951623 1_555
Fe5 O0 1.952535 1_555
Fe5 O15 2.090537 1_555
Fe5 O4 2.091612 1_555
O4 Ti0 1.957006 1_555
O5 Ti1 1.966462 1_555
O6 Ti0 1.918572 1_565
O7 Ti1 2.112633 1_555
O8 Ti0 2.112389 1_555
O9 Ti1 1.906857 1_555
O10 Ti0 1.906119 1_555
O11 Ti1 2.109690 1_555
O12 Ti0 2.110148 1_555
O13 Ti1 1.916736 1_545
O14 Ti0 1.966856 1_555
O15 Ti1 1.958163 1_555
