# generated using pymatgen
data_Fe8H10O17
_symmetry_space_group_name_H-M   'P 1'
_cell_length_a   10.59668099
_cell_length_b   6.08728220
_cell_length_c   10.55408590
_cell_angle_alpha   90.04081027
_cell_angle_beta   87.51448563
_cell_angle_gamma   89.21403944
_symmetry_Int_Tables_number   1
_chemical_formula_structural   Fe8H10O17
_chemical_formula_sum   'Fe16 H20 O34'
_cell_volume   680.08612935
_cell_formula_units_Z   2
loop_
 _symmetry_equiv_pos_site_id
 _symmetry_equiv_pos_as_xyz
  1  'x, y, z'
loop_
 _atom_site_type_symbol
 _atom_site_label
 _atom_site_symmetry_multiplicity
 _atom_site_fract_x
 _atom_site_fract_y
 _atom_site_fract_z
 _atom_site_occupancy
  Fe  Fe0  1  0.34036800  0.01345600  0.10644300  1
  Fe  Fe1  1  0.14913200  0.00829900  0.61092800  1
  Fe  Fe2  1  0.85140700  0.25705500  0.56988500  1
  Fe  Fe3  1  0.67758300  0.28534000  0.09559900  1
  Fe  Fe4  1  0.65904300  0.00653400  0.78359000  1
  Fe  Fe5  1  0.87295500  0.00987200  0.27296700  1
  Fe  Fe6  1  0.17203100  0.25646800  0.31514500  1
  Fe  Fe7  1  0.35161500  0.25849200  0.80902100  1
  Fe  Fe8  1  0.33644900  0.50543900  0.10656400  1
  Fe  Fe9  1  0.15610500  0.50867000  0.61945300  1
  Fe  Fe10  1  0.85224100  0.75754000  0.58359000  1
  Fe  Fe11  1  0.84495000  0.73318100  0.96455000  1
  Fe  Fe12  1  0.65925500  0.51145600  0.79505800  1
  Fe  Fe13  1  0.84661100  0.51755500  0.27218600  1
  Fe  Fe14  1  0.16488600  0.76668500  0.32187600  1
  Fe  Fe15  1  0.35242300  0.75937200  0.81450900  1
  H  H0  1  0.36819200  0.00566400  0.37202600  1
  H  H1  1  0.42620400  0.99746400  0.62416200  1
  H  H2  1  0.86486000  0.23793500  0.82247500  1
  H  H3  1  0.66521100  0.98406000  0.51141800  1
  H  H4  1  0.65606900  0.84363000  0.21138800  1
  H  H5  1  0.60483600  0.02260800  0.30961200  1
  H  H6  1  0.61203300  0.94670800  0.00655900  1
  H  H7  1  0.48456600  0.26516600  0.99232500  1
  H  H8  1  0.08854800  0.27155500  0.81720700  1
  H  H9  1  0.36326300  0.52542600  0.36575400  1
  H  H10  1  0.01449900  0.50660300  0.42214100  1
  H  H11  1  0.42789600  0.50729200  0.62339100  1
  H  H12  1  0.66220200  0.52010100  0.51610600  1
  H  H13  1  0.14314000  0.78895400  0.06737400  1
  H  H14  1  0.53109000  0.70683900  0.07606900  1
  H  H15  1  0.08958400  0.79765800  0.81954500  1
  H  H16  1  0.06685100  0.47237300  0.97706900  1
  H  H17  1  0.93889200  0.35535900  0.02801100  1
  H  H18  1  0.98857500  0.02688800  0.99745900  1
  H  H19  1  0.59602100  0.46929700  0.29132800  1
  O  O0  1  0.31190100  0.00522500  0.30196100  1
  O  O1  1  0.05534200  0.01611400  0.29944000  1
  O  O2  1  0.34709800  0.00746300  0.67387600  1
  O  O3  1  0.33364600  0.01216900  0.92912300  1
  O  O4  1  0.79565200  0.25312900  0.76481500  1
  O  O5  1  0.53960300  0.26087100  0.79508100  1
  O  O6  1  0.85255300  0.26377100  0.13863400  1
  O  O7  1  0.82136900  0.25883600  0.38883200  1
  O  O8  1  0.70623600  0.00909800  0.59038000  1
  O  O9  1  0.96660100  0.00662000  0.59583200  1
  O  O10  1  0.65616900  0.00399200  0.23147500  1
  O  O11  1  0.68690100  0.02766300  0.97747900  1
  O  O12  1  0.22858500  0.25894700  0.12720800  1
  O  O13  1  0.47736300  0.26467200  0.08611100  1
  O  O14  1  0.15504900  0.26131600  0.74928800  1
  O  O15  1  0.19130800  0.26381200  0.50067600  1
  O  O16  1  0.30489900  0.51372400  0.29783000  1
  O  O17  1  0.04215600  0.50995100  0.32731500  1
  O  O18  1  0.35062500  0.50971400  0.67579700  1
  O  O19  1  0.32799100  0.50667700  0.92765700  1
  O  O20  1  0.79296800  0.75374400  0.78355500  1
  O  O21  1  0.53879400  0.76367900  0.79076400  1
  O  O22  1  0.86960400  0.75726200  0.14565300  1
  O  O23  1  0.82334000  0.76788700  0.39474400  1
  O  O24  1  0.70837500  0.51063500  0.59340600  1
  O  O25  1  0.96868900  0.50578300  0.57470000  1
  O  O26  1  0.69857600  0.52053800  0.97677600  1
  O  O27  1  0.21124100  0.76352200  0.12614100  1
  O  O28  1  0.45017300  0.75047500  0.11789000  1
  O  O29  1  0.15576400  0.76153200  0.75129100  1
  O  O30  1  0.19098900  0.75113900  0.50150800  1
  O  O31  1  0.98261200  0.43342500  0.95084000  1
  O  O32  1  0.98709200  0.91581000  0.93080500  1
  O  O33  1  0.65694300  0.51777700  0.22605100  1
loop_
_geom_bond_atom_site_label_1
_geom_bond_atom_site_label_2
_geom_bond_distance
_geom_bond_site_symmetry_2
Fe0 O3 1.875905 1_554
Fe0 O12 1.900722 1_555
Fe0 O28 1.972952 1_545
Fe0 O27 2.064732 1_545
Fe0 O0 2.073202 1_555
Fe0 O13 2.127518 1_555
Fe1 O9 1.947813 1_455
Fe1 O30 1.978586 1_545
Fe1 O15 1.987329 1_555
Fe1 O29 2.113108 1_545
Fe1 O14 2.125055 1_555
Fe1 O2 2.227707 1_555
Fe2 O7 1.950761 1_555
Fe2 O9 1.966616 1_555
Fe2 O25 1.973970 1_555
Fe2 O4 2.115936 1_555
Fe2 O24 2.155050 1_555
Fe2 O8 2.174120 1_555
Fe3 O26 1.912873 1_554
Fe3 O6 1.930718 1_555
Fe3 O33 1.976868 1_555
Fe3 O11 2.001632 1_554
Fe3 O13 2.133790 1_555
Fe3 O10 2.242113 1_555
Fe4 O21 1.964266 1_545
Fe4 O5 1.986523 1_555
Fe4 O8 2.078533 1_555
Fe4 O20 2.078936 1_545
Fe4 O11 2.084269 1_555
Fe4 O4 2.103154 1_555
Fe5 O1 1.965619 1_655
Fe5 O7 2.001902 1_555
Fe5 O23 2.015795 1_545
Fe5 O22 2.043033 1_545
Fe5 O6 2.113307 1_555
Fe5 O10 2.357905 1_555
Fe6 O1 1.940149 1_555
Fe6 O15 1.978064 1_555
Fe6 O12 2.047156 1_555
Fe6 O17 2.053677 1_555
Fe6 O0 2.115372 1_555
Fe6 O16 2.122887 1_555
Fe7 O19 1.967888 1_555
Fe7 O3 1.970000 1_555
Fe7 O5 1.991353 1_555
Fe7 O18 2.078375 1_555
Fe7 O2 2.092027 1_555
Fe7 O14 2.202119 1_555
Fe8 O19 1.894220 1_554
Fe8 O12 1.905581 1_555
Fe8 O28 1.937261 1_555
Fe8 O16 2.032258 1_555
Fe8 O27 2.046889 1_555
Fe8 O13 2.082280 1_555
Fe9 O30 1.960194 1_555
Fe9 O15 1.968197 1_555
Fe9 O14 2.036434 1_555
Fe9 O25 2.061517 1_455
Fe9 O29 2.074058 1_555
Fe9 O18 2.170057 1_555
Fe10 O25 1.953956 1_555
Fe10 O9 1.961600 1_565
Fe10 O23 2.030464 1_555
Fe10 O24 2.154802 1_555
Fe10 O8 2.160784 1_565
Fe10 O20 2.175897 1_555
Fe11 O32 1.905640 1_555
Fe11 O22 1.946038 1_556
Fe11 O20 2.014400 1_555
Fe11 O26 2.033709 1_555
Fe11 O31 2.320935 1_555
Fe11 O11 2.436067 1_565
Fe12 O26 1.981080 1_555
Fe12 O21 1.984976 1_555
Fe12 O5 1.996855 1_555
Fe12 O20 2.059201 1_555
Fe12 O4 2.135565 1_555
Fe12 O24 2.168927 1_555
Fe13 O22 1.989028 1_555
Fe13 O23 2.003804 1_555
Fe13 O7 2.013253 1_555
Fe13 O33 2.088395 1_555
Fe13 O6 2.088975 1_555
Fe13 O17 2.176320 1_655
Fe14 O1 1.919610 1_565
Fe14 O30 1.929958 1_555
Fe14 O17 2.046087 1_555
Fe14 O27 2.102588 1_555
Fe14 O16 2.130944 1_555
Fe14 O0 2.147956 1_565
Fe15 O3 1.959325 1_565
Fe15 O19 1.961108 1_555
Fe15 O21 1.980475 1_555
Fe15 O18 2.110271 1_555
Fe15 O2 2.120145 1_565
Fe15 O29 2.215394 1_555
H0 O0 0.970018 1_555
H1 O2 0.970613 1_565
H2 O4 0.976552 1_555
H3 O8 0.969426 1_565
H4 O10 0.998801 1_565
H5 O10 0.973691 1_555
H6 O11 0.977892 1_564
H7 O13 0.989468 1_556
H8 O14 0.984493 1_555
H9 O16 0.970090 1_555
H10 O17 1.030856 1_555
H10 O25 1.661459 1_455
H11 O18 0.967973 1_555
H12 O24 0.970675 1_555
H13 O27 0.982506 1_555
H14 O28 0.980488 1_555
H15 O29 1.005390 1_555
H16 O31 0.978170 1_455
H17 O31 1.038115 1_554
H17 O6 1.559895 1_555
H18 O32 0.976160 1_545
H19 O33 0.972332 1_555
