# generated using pymatgen
data_Y3Lu
_symmetry_space_group_name_H-M   'P 1'
_cell_length_a   7.28874797
_cell_length_b   7.28874797
_cell_length_c   5.61481985
_cell_angle_alpha   90.00000000
_cell_angle_beta   90.00000000
_cell_angle_gamma   120.00003385
_symmetry_Int_Tables_number   1
_chemical_formula_structural   Y3Lu
_chemical_formula_sum   'Y6 Lu2'
_cell_volume   258.32841365
_cell_formula_units_Z   2
loop_
 _symmetry_equiv_pos_site_id
 _symmetry_equiv_pos_as_xyz
  1  'x, y, z'
loop_
 _atom_site_type_symbol
 _atom_site_label
 _atom_site_symmetry_multiplicity
 _atom_site_fract_x
 _atom_site_fract_y
 _atom_site_fract_z
 _atom_site_occupancy
  Y  Y0  1  0.16792091  0.33584082  0.25000000  1
  Y  Y1  1  0.66415918  0.83207909  0.25000000  1
  Y  Y2  1  0.16792091  0.83208009  0.25000000  1
  Y  Y3  1  0.83207909  0.66415918  0.75000000  1
  Y  Y4  1  0.33584082  0.16792091  0.75000000  1
  Y  Y5  1  0.83207909  0.16791991  0.75000000  1
  Lu  Lu0  1  0.33333300  0.66666700  0.75000000  1
  Lu  Lu1  1  0.66666700  0.33333300  0.25000000  1
loop_
_geom_bond_atom_site_label_1
_geom_bond_atom_site_label_2
_geom_bond_distance
_geom_bond_site_symmetry_2
Y0 Y4 3.517888 1_554
Y0 Y4 3.517888 1_555
Y0 Y5 3.517895 1_455
Y0 Y5 3.517895 1_454
Y0 Y1 3.616954 1_555
Y0 Y2 3.616963 1_555
Y0 Y2 3.671785 1_545
Y0 Y1 3.671790 1_445
Y1 Y3 3.517888 1_555
Y1 Y3 3.517888 1_554
Y1 Y5 3.517891 1_565
Y1 Y5 3.517891 1_564
Y1 Y2 3.616959 1_555
Y1 Y2 3.671789 1_655
Y2 Y4 3.517891 1_564
Y2 Y4 3.517891 1_565
Y2 Y3 3.517895 1_455
Y2 Y3 3.517895 1_454
Y3 Y4 3.616954 1_555
Y3 Y5 3.616963 1_555
Y3 Y5 3.671785 1_565
Y3 Y4 3.671790 1_665
Y4 Y5 3.616959 1_555
Y4 Y5 3.671789 1_455
Lu0 Y2 3.498904 1_556
Lu0 Y2 3.498904 1_555
Lu0 Y1 3.498908 1_556
Lu0 Y0 3.498908 1_556
Lu0 Y1 3.498908 1_555
Lu0 Y0 3.498908 1_555
Lu0 Y5 3.644403 1_565
Lu0 Y3 3.644408 1_455
Lu0 Y4 3.644408 1_565
Lu0 Y4 3.644408 1_555
Lu0 Y3 3.644408 1_555
Lu0 Y5 3.644410 1_455
Lu1 Y5 3.498904 1_555
Lu1 Y5 3.498904 1_554
Lu1 Y4 3.498908 1_555
Lu1 Y3 3.498908 1_554
Lu1 Y3 3.498908 1_555
Lu1 Y4 3.498908 1_554
Lu1 Y2 3.644403 1_545
Lu1 Y1 3.644408 1_545
Lu1 Y0 3.644408 1_655
Lu1 Y0 3.644408 1_555
Lu1 Y1 3.644408 1_555
Lu1 Y2 3.644410 1_655
