# generated using pymatgen
data_Ti4Fe(BiO3)6
_symmetry_space_group_name_H-M   'P 1'
_cell_length_a   24.47354563
_cell_length_b   24.46085713
_cell_length_c   4.04476984
_cell_angle_alpha   85.43784071
_cell_angle_beta   85.07959502
_cell_angle_gamma   9.48256427
_symmetry_Int_Tables_number   1
_chemical_formula_structural   Ti4Fe(BiO3)6
_chemical_formula_sum   'Ti4 Fe1 Bi6 O18'
_cell_volume   397.25676850
_cell_formula_units_Z   1
loop_
 _symmetry_equiv_pos_site_id
 _symmetry_equiv_pos_as_xyz
  1  'x, y, z'
loop_
 _atom_site_type_symbol
 _atom_site_label
 _atom_site_symmetry_multiplicity
 _atom_site_fract_x
 _atom_site_fract_y
 _atom_site_fract_z
 _atom_site_occupancy
  Ti  Ti0  1  0.18238200  0.14978600  0.85021400  1
  Ti  Ti1  1  0.85021400  0.81761800  0.18238200  1
  Ti  Ti2  1  0.10914000  0.05595700  0.94404300  1
  Ti  Ti3  1  0.94404300  0.89086000  0.10914000  1
  Fe  Fe0  1  0.01337200  0.98662800  0.01337200  1
  Bi  Bi0  1  0.38973000  0.16166100  0.83833900  1
  Bi  Bi1  1  0.83833900  0.61027000  0.38973000  1
  Bi  Bi2  1  0.45502600  0.29285200  0.70714800  1
  Bi  Bi3  1  0.70714800  0.54497400  0.45502600  1
  Bi  Bi4  1  0.55831100  0.36647900  0.63352100  1
  Bi  Bi5  1  0.63352100  0.44168900  0.55831100  1
  O  O0  1  0.17588500  0.22912600  0.77087400  1
  O  O1  1  0.77087400  0.82411500  0.17588500  1
  O  O2  1  0.00504400  0.08169300  0.91830700  1
  O  O3  1  0.91830700  0.99495600  0.00504400  1
  O  O4  1  0.94287600  0.05712400  0.50032500  1
  O  O5  1  0.50032500  0.49967500  0.94287600  1
  O  O6  1  0.04314400  0.12103000  0.39485100  1
  O  O7  1  0.39485100  0.44097600  0.04314400  1
  O  O8  1  0.87897000  0.95685600  0.55902400  1
  O  O9  1  0.55902400  0.60514900  0.87897000  1
  O  O10  1  0.12634300  0.19256400  0.32018400  1
  O  O11  1  0.32018400  0.36090900  0.12634300  1
  O  O12  1  0.80743600  0.87365700  0.63909100  1
  O  O13  1  0.63909100  0.67981600  0.80743600  1
  O  O14  1  0.07869500  0.16470900  0.83529100  1
  O  O15  1  0.83529100  0.92130500  0.07869500  1
  O  O16  1  0.30511600  0.19488400  0.30511600  1
  O  O17  1  0.80511600  0.69488400  0.80511600  1
loop_
_geom_bond_atom_site_label_1
_geom_bond_atom_site_label_2
_geom_bond_distance
_geom_bond_site_symmetry_2
Fe0 O4 1.979407 1_465
Fe0 O5 1.979407 1_554
Fe0 O5 2.105349 1_464
Fe0 O4 2.105349 1_464
Fe0 O3 2.129086 1_455
Fe0 O2 2.129086 1_564
Bi0 O16 2.183317 1_556
Bi0 O17 2.183317 1_545
Bi0 O1 2.346878 1_546
Bi0 O16 2.601513 1_555
Bi0 O17 2.601513 1_455
Bi1 O17 2.183317 1_555
Bi1 O16 2.183317 1_655
Bi1 O0 2.346878 1_655
Bi1 O17 2.601513 1_554
Bi1 O16 2.601513 1_565
Bi2 O15 2.200888 1_546
Bi2 O11 2.277825 1_556
Bi2 O12 2.277825 1_545
Bi2 O8 2.656596 1_545
Bi2 O7 2.656617 1_556
Bi3 O14 2.200888 1_655
Bi3 O10 2.277825 1_655
Bi3 O13 2.277825 1_555
Bi3 O6 2.656596 1_655
Bi3 O9 2.656614 1_555
Bi4 O3 2.149863 1_546
Bi4 O4 2.327606 1_555
Bi4 O5 2.327606 1_555
Bi4 O7 2.651809 1_556
Bi4 O8 2.651828 1_545
Bi5 O2 2.149863 1_655
Bi5 O5 2.327606 1_555
Bi5 O4 2.327606 1_555
Bi5 O9 2.651807 1_555
Bi5 O6 2.651828 1_655
O0 Ti0 1.787630 1_555
O1 Ti1 1.787630 1_555
O2 Ti2 1.941324 1_555
O3 Ti3 1.941324 1_555
O6 Ti2 1.830889 1_554
O6 Ti2 2.249047 1_555
O7 Ti3 1.830887 1_455
O7 Ti3 2.249049 1_545
O8 Ti3 1.830885 1_555
O8 Ti3 2.249051 1_556
O9 Ti2 1.830887 1_565
O9 Ti2 2.249050 1_655
O10 Ti0 1.904627 1_554
O10 Ti0 2.210996 1_555
O11 Ti1 1.904627 1_455
O11 Ti1 2.210996 1_545
O12 Ti1 1.904627 1_555
O12 Ti1 2.210996 1_556
O13 Ti0 1.904627 1_565
O13 Ti0 2.210996 1_655
O14 Ti2 1.945566 1_555
O14 Ti0 2.184431 1_555
O15 Ti3 1.945566 1_555
O15 Ti1 2.184431 1_555
