# generated using pymatgen
data_V3PN
_symmetry_space_group_name_H-M   'P 1'
_cell_length_a   5.07441791
_cell_length_b   5.07441791
_cell_length_c   7.35246321
_cell_angle_alpha   89.99953437
_cell_angle_beta   90.00046563
_cell_angle_gamma   144.37747375
_symmetry_Int_Tables_number   1
_chemical_formula_structural   V3PN
_chemical_formula_sum   'V6 P2 N2'
_cell_volume   110.27027439
_cell_formula_units_Z   2
loop_
 _symmetry_equiv_pos_site_id
 _symmetry_equiv_pos_as_xyz
  1  'x, y, z'
loop_
 _atom_site_type_symbol
 _atom_site_label
 _atom_site_symmetry_multiplicity
 _atom_site_fract_x
 _atom_site_fract_y
 _atom_site_fract_z
 _atom_site_occupancy
  V  V0  1  0.93334817  0.06665183  0.24998964  1
  V  V1  1  0.06662648  0.93337352  0.75001058  1
  V  V2  1  0.63508178  0.36491822  0.44857650  1
  V  V3  1  0.36493049  0.63506951  0.55140970  1
  V  V4  1  0.63508374  0.36491626  0.05142503  1
  V  V5  1  0.36492873  0.63507127  0.94858904  1
  P  P0  1  0.25222345  0.74777655  0.24999197  1
  P  P1  1  0.74779254  0.25220746  0.75000636  1
  N  N0  1  0.99999227  0.00000773  0.49998108  1
  N  N1  1  0.99999236  0.00000764  0.00001910  1
loop_
_geom_bond_atom_site_label_1
_geom_bond_atom_site_label_2
_geom_bond_distance
_geom_bond_site_symmetry_2
P0 V0 2.339251 1_455
P0 V0 2.339251 1_565
P0 V4 2.412836 1_455
P0 V4 2.412836 1_565
P0 V2 2.412935 1_455
P0 V2 2.412935 1_565
P0 V5 2.469183 1_554
P0 V3 2.469271 1_555
P1 V1 2.339550 1_545
P1 V1 2.339550 1_655
P1 V5 2.412890 1_655
P1 V5 2.412890 1_545
P1 V3 2.412972 1_655
P1 V3 2.412972 1_545
P1 V4 2.469302 1_556
P1 V2 2.469367 1_555
N0 V0 1.947583 1_555
N0 V1 1.947815 1_645
N0 V3 2.062841 1_655
N0 V3 2.062841 1_545
N0 V2 2.062979 1_545
N0 V2 2.062979 1_655
N1 V0 1.947448 1_555
N1 V1 1.947680 1_644
N1 V5 2.062851 1_544
N1 V5 2.062851 1_654
N1 V4 2.062988 1_545
N1 V4 2.062988 1_655
