# generated using pymatgen
data_BaSrCeVO6
_symmetry_space_group_name_H-M   'P 1'
_cell_length_a   5.92601747
_cell_length_b   5.92601747
_cell_length_c   5.92601747
_cell_angle_alpha   60.00000000
_cell_angle_beta   60.00000000
_cell_angle_gamma   60.00000000
_symmetry_Int_Tables_number   1
_chemical_formula_structural   BaSrCeVO6
_chemical_formula_sum   'Ba1 Sr1 Ce1 V1 O6'
_cell_volume   147.15458051
_cell_formula_units_Z   1
loop_
 _symmetry_equiv_pos_site_id
 _symmetry_equiv_pos_as_xyz
  1  'x, y, z'
loop_
 _atom_site_type_symbol
 _atom_site_label
 _atom_site_symmetry_multiplicity
 _atom_site_fract_x
 _atom_site_fract_y
 _atom_site_fract_z
 _atom_site_occupancy
  Ba  Ba0  1  0.25000000  0.25000000  0.25000000  1
  Sr  Sr0  1  0.75000000  0.75000000  0.75000000  1
  Ce  Ce0  1  -0.00000000  -0.00000000  -0.00000000  1
  V  V0  1  0.50000000  0.50000000  0.50000000  1
  O  O0  1  0.73368977  0.26631023  0.26631023  1
  O  O1  1  0.26631023  0.73368977  0.73368977  1
  O  O2  1  0.73368977  0.26631023  0.73368977  1
  O  O3  1  0.26631023  0.73368977  0.26631023  1
  O  O4  1  0.73368977  0.73368977  0.26631023  1
  O  O5  1  0.26631023  0.26631023  0.73368977  1
loop_
_geom_bond_atom_site_label_1
_geom_bond_atom_site_label_2
_geom_bond_distance
_geom_bond_site_symmetry_2
Ba0 O3 2.966160 1_545
Ba0 O2 2.966160 1_455
Ba0 O5 2.966160 1_555
Ba0 O5 2.966160 1_554
Ba0 O1 2.966160 1_545
Ba0 O2 2.966160 1_554
Ba0 O0 2.966160 1_455
Ba0 O4 2.966160 1_545
Ba0 O3 2.966160 1_555
Ba0 O0 2.966160 1_555
Ba0 O4 2.966160 1_455
Ba0 O1 2.966160 1_554
Ce0 O3 2.231854 1_545
Ce0 O2 2.231854 1_454
Ce0 O4 2.231854 1_445
Ce0 O1 2.231854 1_544
Ce0 O5 2.231854 1_554
Ce0 O0 2.231854 1_455
O0 V0 1.958473 1_555
O0 Sr0 2.966160 1_554
O0 Sr0 2.966160 1_545
O1 V0 1.958473 1_555
O1 Sr0 2.966160 1_555
O1 Sr0 2.966160 1_455
O2 V0 1.958473 1_555
O2 Sr0 2.966160 1_555
O2 Sr0 2.966160 1_545
O3 V0 1.958473 1_555
O3 Sr0 2.966160 1_554
O3 Sr0 2.966160 1_455
O4 V0 1.958473 1_555
O4 Sr0 2.966160 1_554
O4 Sr0 2.966160 1_555
O5 V0 1.958473 1_555
O5 Sr0 2.966160 1_455
O5 Sr0 2.966160 1_545
