# generated using pymatgen
data_Mg6TiNb
_symmetry_space_group_name_H-M   'P 1'
_cell_length_a   5.02716800
_cell_length_b   6.10278800
_cell_length_c   10.90879200
_cell_angle_alpha   90.00000000
_cell_angle_beta   90.00000000
_cell_angle_gamma   90.00000000
_symmetry_Int_Tables_number   1
_chemical_formula_structural   Mg6TiNb
_chemical_formula_sum   'Mg12 Ti2 Nb2'
_cell_volume   334.67890821
_cell_formula_units_Z   2
loop_
 _symmetry_equiv_pos_site_id
 _symmetry_equiv_pos_as_xyz
  1  'x, y, z'
loop_
 _atom_site_type_symbol
 _atom_site_label
 _atom_site_symmetry_multiplicity
 _atom_site_fract_x
 _atom_site_fract_y
 _atom_site_fract_z
 _atom_site_occupancy
  Mg  Mg0  1  0.50000000  0.25083500  0.41810100  1
  Mg  Mg1  1  0.50000000  0.74916500  0.41810100  1
  Mg  Mg2  1  0.00000000  0.74697200  0.08964200  1
  Mg  Mg3  1  0.00000000  0.25302800  0.08964200  1
  Mg  Mg4  1  0.00000000  0.00000000  0.32686500  1
  Mg  Mg5  1  0.00000000  0.50000000  0.32436600  1
  Mg  Mg6  1  0.50000000  0.75083500  0.91810100  1
  Mg  Mg7  1  0.50000000  0.24916500  0.91810100  1
  Mg  Mg8  1  0.00000000  0.24697200  0.58964200  1
  Mg  Mg9  1  0.00000000  0.75302800  0.58964200  1
  Mg  Mg10  1  0.00000000  0.50000000  0.82686500  1
  Mg  Mg11  1  0.00000000  0.00000000  0.82436600  1
  Ti  Ti0  1  0.50000000  0.00000000  0.16659300  1
  Ti  Ti1  1  0.50000000  0.50000000  0.66659300  1
  Nb  Nb0  1  0.50000000  0.50000000  0.16668700  1
  Nb  Nb1  1  0.50000000  0.00000000  0.66668700  1
loop_
_geom_bond_atom_site_label_1
_geom_bond_atom_site_label_2
_geom_bond_distance
_geom_bond_site_symmetry_2
Mg0 Mg1 3.041202 1_555
Mg0 Mg1 3.061586 1_545
Mg0 Mg4 3.106767 1_655
Mg0 Mg4 3.106767 1_555
Mg0 Ti1 3.108115 1_555
Mg0 Mg5 3.110613 1_655
Mg0 Mg5 3.110613 1_555
Mg0 Nb1 3.114007 1_555
Mg0 Mg8 3.133759 1_555
Mg0 Mg8 3.133759 1_655
Mg0 Nb0 3.135954 1_555
Mg0 Ti0 3.141804 1_555
Mg1 Mg4 3.106767 1_565
Mg1 Mg4 3.106767 1_665
Mg1 Ti1 3.108115 1_555
Mg1 Mg5 3.110613 1_655
Mg1 Mg5 3.110613 1_555
Mg1 Nb1 3.114007 1_565
Mg1 Mg9 3.133759 1_555
Mg1 Mg9 3.133759 1_655
Mg1 Nb0 3.135954 1_555
Mg1 Ti0 3.141804 1_565
Mg2 Mg5 2.971220 1_555
Mg2 Mg4 3.013515 1_565
Mg2 Mg3 3.014436 1_555
Mg2 Nb0 3.048966 1_455
Mg2 Nb0 3.048966 1_555
Mg2 Ti0 3.067124 1_565
Mg2 Ti0 3.067124 1_465
Mg2 Mg3 3.088352 1_565
Mg2 Mg6 3.133759 1_554
Mg2 Mg6 3.133759 1_454
Mg3 Mg5 2.971220 1_555
Mg3 Mg4 3.013515 1_555
Mg3 Nb0 3.048966 1_455
Mg3 Nb0 3.048966 1_555
Mg3 Ti0 3.067124 1_455
Mg3 Ti0 3.067124 1_555
Mg3 Mg7 3.133759 1_454
Mg3 Mg7 3.133759 1_554
Mg4 Mg5 3.051516 1_545
Mg4 Mg5 3.051516 1_555
Mg4 Ti0 3.061848 1_455
Mg4 Ti0 3.061848 1_555
Mg4 Mg9 3.238670 1_545
Mg4 Mg8 3.238670 1_555
Mg5 Nb0 3.045785 1_455
Mg5 Nb0 3.045785 1_555
Mg5 Mg8 3.280060 1_555
Mg5 Mg9 3.280060 1_555
Mg6 Mg7 3.041202 1_565
Mg6 Mg7 3.061586 1_555
Mg6 Ti0 3.108115 1_566
Mg6 Nb0 3.114007 1_556
Mg6 Nb1 3.135954 1_565
Mg6 Ti1 3.141804 1_555
Mg7 Ti0 3.108115 1_556
Mg7 Nb0 3.114007 1_556
Mg7 Nb1 3.135954 1_555
Mg7 Ti1 3.141804 1_555
Mg8 Mg9 3.014436 1_545
Mg8 Nb1 3.048966 1_555
Mg8 Nb1 3.048966 1_455
Mg8 Ti1 3.067124 1_555
Mg8 Ti1 3.067124 1_455
Mg8 Mg9 3.088352 1_555
Mg9 Nb1 3.048966 1_465
Mg9 Nb1 3.048966 1_565
Mg9 Ti1 3.067124 1_455
Mg9 Ti1 3.067124 1_555
Mg10 Mg8 3.013515 1_555
Mg10 Mg9 3.013515 1_555
Mg10 Mg11 3.051516 1_555
Mg10 Mg11 3.051516 1_565
Mg10 Ti1 3.061848 1_455
Mg10 Ti1 3.061848 1_555
Mg10 Mg7 3.106767 1_455
Mg10 Mg7 3.106767 1_555
Mg10 Mg6 3.106767 1_555
Mg10 Mg6 3.106767 1_455
Mg10 Mg2 3.238670 1_556
Mg10 Mg3 3.238670 1_556
Mg11 Mg9 2.971220 1_545
Mg11 Mg8 2.971220 1_555
Mg11 Nb1 3.045785 1_455
Mg11 Nb1 3.045785 1_555
Mg11 Mg6 3.110613 1_445
Mg11 Mg6 3.110613 1_545
Mg11 Mg7 3.110613 1_455
Mg11 Mg7 3.110613 1_555
Mg11 Mg3 3.280060 1_556
Mg11 Mg2 3.280060 1_546
Nb0 Ti0 3.051394 1_565
Nb0 Ti0 3.051394 1_555
Nb1 Ti1 3.051394 1_545
Nb1 Ti1 3.051394 1_555
