# generated using pymatgen
data_TaZn2SbO6
_symmetry_space_group_name_H-M   'P 1'
_cell_length_a   8.00113000
_cell_length_b   5.48938200
_cell_length_c   5.53881304
_cell_angle_alpha   87.51181035
_cell_angle_beta   90.00000000
_cell_angle_gamma   90.00000000
_symmetry_Int_Tables_number   1
_chemical_formula_structural   TaZn2SbO6
_chemical_formula_sum   'Ta2 Zn4 Sb2 O12'
_cell_volume   243.04228352
_cell_formula_units_Z   2
loop_
 _symmetry_equiv_pos_site_id
 _symmetry_equiv_pos_as_xyz
  1  'x, y, z'
loop_
 _atom_site_type_symbol
 _atom_site_label
 _atom_site_symmetry_multiplicity
 _atom_site_fract_x
 _atom_site_fract_y
 _atom_site_fract_z
 _atom_site_occupancy
  Ta  Ta0  1  0.50000000  0.00000000  0.50000000  1
  Ta  Ta1  1  0.00000000  0.00000000  0.50000000  1
  Zn  Zn0  1  0.25000000  0.51739200  0.52426000  1
  Zn  Zn1  1  0.75000000  0.48260800  0.47574000  1
  Zn  Zn2  1  0.25000000  0.02200600  0.98601000  1
  Zn  Zn3  1  0.75000000  0.97799400  0.01399000  1
  Sb  Sb0  1  0.50000000  0.50000000  0.00000000  1
  Sb  Sb1  1  0.00000000  0.50000000  0.00000000  1
  O  O0  1  0.57092000  0.67925200  0.63365700  1
  O  O1  1  0.92957900  0.14241800  0.80884100  1
  O  O2  1  0.07092000  0.32074800  0.36634300  1
  O  O3  1  0.42957900  0.85758200  0.19115900  1
  O  O4  1  0.57042100  0.14241800  0.80884100  1
  O  O5  1  0.07042100  0.85758200  0.19115900  1
  O  O6  1  0.75000000  0.61898900  0.12856100  1
  O  O7  1  0.92908000  0.67925200  0.63365700  1
  O  O8  1  0.25000000  0.91119000  0.62363200  1
  O  O9  1  0.42908000  0.32074800  0.36634300  1
  O  O10  1  0.25000000  0.38101100  0.87143900  1
  O  O11  1  0.75000000  0.08881000  0.37636800  1
loop_
_geom_bond_atom_site_label_1
_geom_bond_atom_site_label_2
_geom_bond_distance
_geom_bond_site_symmetry_2
O0 Ta0 1.963913 1_565
O0 Zn1 2.016256 1_555
O0 Sb0 2.287820 1_556
O1 Ta1 1.992731 1_655
O1 Zn3 2.020209 1_546
O1 Sb1 2.339223 1_656
O2 Ta1 1.963913 1_555
O2 Zn0 2.016256 1_555
O2 Sb1 2.287820 1_555
O3 Ta0 1.992731 1_565
O3 Zn2 2.020209 1_564
O3 Sb0 2.339223 1_555
O4 Ta0 1.992731 1_555
O4 Zn3 2.020209 1_546
O4 Sb0 2.339223 1_556
O5 Ta1 1.992731 1_565
O5 Zn2 2.020209 1_564
O5 Sb1 2.339223 1_555
O6 Zn1 2.033039 1_555
O6 Zn3 2.043976 1_555
O6 Sb1 2.230517 1_655
O6 Sb0 2.230517 1_555
O7 Ta1 1.963913 1_665
O7 Zn1 2.016256 1_555
O7 Sb1 2.287820 1_656
O8 Zn2 2.122424 1_565
O8 Ta0 2.163037 1_565
O8 Ta1 2.163037 1_565
O8 Zn0 2.253715 1_555
O9 Ta0 1.963913 1_555
O9 Zn0 2.016256 1_555
O9 Sb0 2.287820 1_555
O10 Zn0 2.033039 1_555
O10 Zn2 2.043976 1_555
O10 Sb0 2.230517 1_556
O10 Sb1 2.230517 1_556
O11 Zn3 2.122424 1_545
O11 Ta1 2.163037 1_655
O11 Ta0 2.163037 1_555
O11 Zn1 2.253715 1_555
