# generated using pymatgen
data_Ho4C7
_symmetry_space_group_name_H-M   'P 1'
_cell_length_a   3.67279111
_cell_length_b   12.49005463
_cell_length_c   13.62742617
_cell_angle_alpha   90.00000000
_cell_angle_beta   96.72834402
_cell_angle_gamma   90.00000000
_symmetry_Int_Tables_number   1
_chemical_formula_structural   Ho4C7
_chemical_formula_sum   'Ho16 C28'
_cell_volume   620.83041932
_cell_formula_units_Z   4
loop_
 _symmetry_equiv_pos_site_id
 _symmetry_equiv_pos_as_xyz
  1  'x, y, z'
loop_
 _atom_site_type_symbol
 _atom_site_label
 _atom_site_symmetry_multiplicity
 _atom_site_fract_x
 _atom_site_fract_y
 _atom_site_fract_z
 _atom_site_occupancy
  Ho  Ho0  1  0.19337972  0.01532761  0.89274900  1
  Ho  Ho1  1  0.30662028  0.51532761  0.60725100  1
  Ho  Ho2  1  0.80662028  0.98467239  0.10725100  1
  Ho  Ho3  1  0.69337972  0.48467239  0.39274900  1
  Ho  Ho4  1  0.74116562  0.03956025  0.61828535  1
  Ho  Ho5  1  0.75883438  0.53956025  0.88171465  1
  Ho  Ho6  1  0.25883438  0.96043975  0.38171465  1
  Ho  Ho7  1  0.24116562  0.46043975  0.11828535  1
  Ho  Ho8  1  0.65704019  0.80495410  0.78975570  1
  Ho  Ho9  1  0.84295981  0.30495410  0.71024430  1
  Ho  Ho10  1  0.34295981  0.19504590  0.21024430  1
  Ho  Ho11  1  0.15704019  0.69504590  0.28975570  1
  Ho  Ho12  1  0.27113956  0.76306743  0.00703066  1
  Ho  Ho13  1  0.22886044  0.26306743  0.49296934  1
  Ho  Ho14  1  0.72886044  0.23693257  0.99296934  1
  Ho  Ho15  1  0.77113956  0.73693257  0.50703066  1
  C  C0  1  0.25782706  0.11663280  0.05015262  1
  C  C1  1  0.24217294  0.61663280  0.44984738  1
  C  C2  1  0.74217294  0.88336720  0.94984738  1
  C  C3  1  0.75782706  0.38336720  0.55015262  1
  C  C4  1  0.84135621  0.64086141  0.67455562  1
  C  C5  1  0.65864379  0.14086141  0.82544438  1
  C  C6  1  0.15864379  0.35913859  0.32544438  1
  C  C7  1  0.34135621  0.85913859  0.17455562  1
  C  C8  1  0.30261175  0.89007629  0.54747640  1
  C  C9  1  0.19738825  0.39007629  0.95252360  1
  C  C10  1  0.69738825  0.10992371  0.45252360  1
  C  C11  1  0.80261175  0.60992371  0.04747640  1
  C  C12  1  0.13896423  0.91693764  0.72918074  1
  C  C13  1  0.36103577  0.41693764  0.77081926  1
  C  C14  1  0.86103577  0.08306236  0.27081926  1
  C  C15  1  0.63896423  0.58306236  0.22918074  1
  C  C16  1  0.22458880  0.67127816  0.84803181  1
  C  C17  1  0.27541120  0.17127816  0.65196819  1
  C  C18  1  0.77541120  0.32872184  0.15196819  1
  C  C19  1  0.72458880  0.82872184  0.34803181  1
  C  C20  1  0.22466577  0.89579411  0.63939839  1
  C  C21  1  0.27533423  0.39579411  0.86060161  1
  C  C22  1  0.77533423  0.10420589  0.36060161  1
  C  C23  1  0.72466577  0.60420589  0.13939839  1
  C  C24  1  0.06051412  0.65170497  0.75647134  1
  C  C25  1  0.43948588  0.15170497  0.74352866  1
  C  C26  1  0.93948588  0.34829503  0.24352866  1
  C  C27  1  0.56051412  0.84829503  0.25647134  1
loop_
_geom_bond_atom_site_label_1
_geom_bond_atom_site_label_2
_geom_bond_distance
_geom_bond_site_symmetry_2
C0 Ho10 2.378373 1_555
C0 Ho0 2.477723 1_554
C0 Ho14 2.484699 1_554
C0 Ho14 2.506903 1_454
C0 Ho2 2.523967 1_445
C0 Ho2 2.648988 1_545
C1 Ho11 2.378373 1_555
C1 Ho1 2.477723 1_555
C1 Ho15 2.484699 1_455
C1 Ho15 2.506903 1_555
C1 Ho3 2.523967 1_555
C1 Ho3 2.648988 1_455
C2 Ho8 2.378373 1_555
C2 Ho2 2.477723 1_556
C2 Ho12 2.484699 1_556
C2 Ho12 2.506903 1_656
C2 Ho0 2.523967 1_665
C2 Ho0 2.648988 1_565
C3 Ho9 2.378373 1_555
C3 Ho3 2.477723 1_555
C3 Ho13 2.484699 1_655
C3 Ho13 2.506903 1_555
C3 Ho1 2.523967 1_555
C3 Ho1 2.648988 1_655
C4 Ho15 2.565186 1_555
C4 Ho1 2.566503 1_655
C4 Ho1 2.595133 1_555
C4 Ho8 2.715212 1_555
C5 Ho14 2.565186 1_555
C5 Ho0 2.566503 1_555
C5 Ho0 2.595133 1_655
C5 Ho9 2.715212 1_555
C6 Ho13 2.565186 1_555
C6 Ho3 2.566503 1_455
C6 Ho3 2.595133 1_555
C6 Ho10 2.715212 1_555
C7 Ho12 2.565186 1_555
C7 Ho2 2.566503 1_555
C7 Ho2 2.595133 1_455
C7 Ho11 2.715212 1_555
C8 Ho6 2.411590 1_555
C8 Ho4 2.578226 1_565
C8 Ho15 2.673183 1_555
C8 Ho15 2.742378 1_455
C9 Ho7 2.411590 1_556
C9 Ho5 2.578226 1_455
C9 Ho14 2.673183 1_455
C9 Ho14 2.742378 1_555
C10 C22 1.319183 1_555
C10 Ho4 2.411590 1_555
C10 Ho6 2.578226 1_545
C10 Ho13 2.673183 1_555
C10 Ho13 2.742378 1_655
C11 C23 1.319183 1_555
C11 Ho5 2.411590 1_554
C11 Ho7 2.578226 1_655
C11 Ho12 2.673183 1_655
C11 Ho12 2.742378 1_555
C12 C20 1.325148 1_555
C12 Ho8 2.426986 1_555
C12 Ho8 2.472452 1_455
C12 Ho4 2.499341 1_465
C12 Ho0 2.532636 1_565
C13 C21 1.325148 1_555
C13 Ho9 2.426986 1_455
C13 Ho9 2.472452 1_555
C13 Ho5 2.499341 1_555
C13 Ho1 2.532636 1_555
C14 C22 1.325148 1_555
C14 Ho10 2.426986 1_555
C14 Ho10 2.472452 1_655
C14 Ho6 2.499341 1_645
C14 Ho2 2.532636 1_545
C15 C23 1.325148 1_555
C15 Ho11 2.426986 1_655
C15 Ho11 2.472452 1_555
C15 Ho7 2.499341 1_555
C15 Ho3 2.532636 1_555
C16 C24 1.342966 1_555
C16 Ho12 2.439583 1_556
C16 Ho5 2.455089 1_455
C16 Ho8 2.497315 1_555
C16 Ho5 2.560533 1_555
C16 Ho8 2.715787 1_455
C17 C25 1.342966 1_555
C17 Ho13 2.439583 1_555
C17 Ho4 2.455089 1_555
C17 Ho9 2.497315 1_455
C17 Ho4 2.560533 1_455
C17 Ho9 2.715787 1_555
C18 C26 1.342966 1_555
C18 Ho14 2.439583 1_554
C18 Ho7 2.455089 1_655
C18 Ho10 2.497315 1_555
C18 Ho7 2.560533 1_555
C18 Ho10 2.715787 1_655
C19 C27 1.342966 1_555
C19 Ho15 2.439583 1_555
C19 Ho6 2.455089 1_555
C19 Ho11 2.497315 1_655
C19 Ho6 2.560533 1_655
C19 Ho11 2.715787 1_555
C20 C8 1.319183 1_555
C20 Ho4 2.518105 1_465
C20 Ho4 2.652097 1_565
C20 Ho8 2.691654 1_555
C20 Ho15 3.043244 1_455
C21 C9 1.319183 1_555
C21 Ho5 2.518105 1_555
C21 Ho5 2.652097 1_455
C21 Ho9 2.691654 1_455
C21 Ho14 3.043244 1_555
C22 Ho6 2.518105 1_645
C22 Ho6 2.652097 1_545
C22 Ho10 2.691654 1_555
C22 Ho13 3.043244 1_655
C23 Ho7 2.518105 1_555
C23 Ho7 2.652097 1_655
C23 Ho11 2.691654 1_655
C23 Ho12 3.043244 1_555
C24 C4 1.304538 1_455
C24 Ho8 2.494580 1_455
C24 Ho5 2.558461 1_455
C24 Ho8 2.904604 1_555
C25 C5 1.304538 1_555
C25 Ho9 2.494580 1_555
C25 Ho4 2.558461 1_555
C25 Ho9 2.904604 1_455
C26 C6 1.304538 1_655
C26 Ho10 2.494580 1_655
C26 Ho7 2.558461 1_655
C26 Ho10 2.904604 1_555
C27 C7 1.304538 1_555
C27 Ho11 2.494580 1_555
C27 Ho6 2.558461 1_555
C27 Ho11 2.904604 1_655
