# generated using pymatgen
data_NbInBi2O7
_symmetry_space_group_name_H-M   'P 1'
_cell_length_a   7.63173305
_cell_length_b   7.63173305
_cell_length_c   7.63173305
_cell_angle_alpha   120.56043362
_cell_angle_beta   119.78630722
_cell_angle_gamma   89.70128928
_symmetry_Int_Tables_number   1
_chemical_formula_structural   NbInBi2O7
_chemical_formula_sum   'Nb2 In2 Bi4 O14'
_cell_volume   313.46107858
_cell_formula_units_Z   2
loop_
 _symmetry_equiv_pos_site_id
 _symmetry_equiv_pos_as_xyz
  1  'x, y, z'
loop_
 _atom_site_type_symbol
 _atom_site_label
 _atom_site_symmetry_multiplicity
 _atom_site_fract_x
 _atom_site_fract_y
 _atom_site_fract_z
 _atom_site_occupancy
  Nb  Nb0  1  0.50000000  0.50000000  0.00000000  1
  Nb  Nb1  1  0.00000000  0.50000000  0.50000000  1
  In  In0  1  0.50000000  0.50000000  0.50000000  1
  In  In1  1  0.50000000  0.00000000  0.00000000  1
  Bi  Bi0  1  0.00000000  0.00000000  0.50000000  1
  Bi  Bi1  1  0.00000000  0.50000000  0.00000000  1
  Bi  Bi2  1  0.00000000  0.00000000  0.00000000  1
  Bi  Bi3  1  0.50000000  0.00000000  0.50000000  1
  O  O0  1  0.79896600  0.54896600  0.25000000  1
  O  O1  1  0.39859600  0.14859600  0.25000000  1
  O  O2  1  0.84915900  0.17711100  0.27851900  1
  O  O3  1  0.39859200  0.57064000  0.22148100  1
  O  O4  1  0.84915900  0.57064000  0.67204800  1
  O  O5  1  0.39859200  0.17711100  0.82795200  1
  O  O6  1  0.20103400  0.45103400  0.75000000  1
  O  O7  1  0.60140400  0.85140400  0.75000000  1
  O  O8  1  0.15084100  0.82288900  0.72148100  1
  O  O9  1  0.60140800  0.42936000  0.77851900  1
  O  O10  1  0.15084100  0.42936000  0.32795200  1
  O  O11  1  0.60140800  0.82288900  0.17204800  1
  O  O12  1  0.12006100  0.87006100  0.25000000  1
  O  O13  1  0.87993900  0.12993900  0.75000000  1
loop_
_geom_bond_atom_site_label_1
_geom_bond_atom_site_label_2
_geom_bond_distance
_geom_bond_site_symmetry_2
Nb0 O0 1.986077 1_555
Nb0 O6 1.986077 1_554
Nb0 O5 2.028630 1_554
Nb0 O11 2.028630 1_555
Nb0 O3 2.028630 1_555
Nb0 O9 2.028630 1_554
Nb1 O0 1.986077 1_455
Nb1 O6 1.986077 1_555
Nb1 O4 2.028630 1_455
Nb1 O2 2.028630 1_455
Nb1 O8 2.028630 1_555
Nb1 O10 2.028630 1_555
In0 O1 2.186953 1_555
In0 O7 2.186953 1_555
In0 O4 2.221310 1_555
In0 O10 2.221310 1_555
In0 O3 2.221310 1_555
In0 O9 2.221310 1_555
In1 O1 2.186953 1_555
In1 O7 2.186953 1_544
In1 O5 2.221310 1_554
In1 O2 2.221310 1_555
In1 O8 2.221310 1_544
In1 O11 2.221310 1_545
Bi0 O13 2.294903 1_455
Bi0 O12 2.294903 1_545
Bi0 O2 2.526480 1_455
Bi0 O11 2.526480 1_445
Bi0 O8 2.526480 1_545
Bi0 O5 2.526480 1_555
Bi1 O12 2.294903 1_555
Bi1 O13 2.294903 1_454
Bi1 O9 2.526480 1_454
Bi1 O3 2.526480 1_555
Bi1 O4 2.526480 1_454
Bi1 O10 2.526480 1_555
Bi2 O13 2.375033 1_454
Bi2 O12 2.375033 1_545
Bi2 O7 2.499855 1_444
Bi2 O1 2.499855 1_555
Bi2 O2 2.676485 1_455
Bi2 O4 2.676485 1_444
Bi2 O8 2.676485 1_544
Bi2 O10 2.676485 1_555
Bi3 O12 2.375033 1_545
Bi3 O13 2.375033 1_555
Bi3 O1 2.499855 1_555
Bi3 O7 2.499855 1_545
Bi3 O3 2.676485 1_545
Bi3 O9 2.676485 1_555
Bi3 O11 2.676485 1_545
Bi3 O5 2.676485 1_555
