# generated using pymatgen
data_GdLuAl4
_symmetry_space_group_name_H-M   'P 1'
_cell_length_a   5.53570706
_cell_length_b   5.53570706
_cell_length_c   5.53570706
_cell_angle_alpha   60.00000000
_cell_angle_beta   60.00000000
_cell_angle_gamma   60.00000000
_symmetry_Int_Tables_number   1
_chemical_formula_structural   GdLuAl4
_chemical_formula_sum   'Gd1 Lu1 Al4'
_cell_volume   119.95111844
_cell_formula_units_Z   1
loop_
 _symmetry_equiv_pos_site_id
 _symmetry_equiv_pos_as_xyz
  1  'x, y, z'
loop_
 _atom_site_type_symbol
 _atom_site_label
 _atom_site_symmetry_multiplicity
 _atom_site_fract_x
 _atom_site_fract_y
 _atom_site_fract_z
 _atom_site_occupancy
  Gd  Gd0  1  0.25000000  0.25000000  0.25000000  1
  Lu  Lu0  1  0.00000000  0.00000000  0.00000000  1
  Al  Al0  1  0.62503900  0.62503900  0.12488400  1
  Al  Al1  1  0.62503900  0.12488400  0.62503900  1
  Al  Al2  1  0.12488400  0.62503900  0.62503900  1
  Al  Al3  1  0.62503900  0.62503900  0.62503900  1
loop_
_geom_bond_atom_site_label_1
_geom_bond_atom_site_label_2
_geom_bond_distance
_geom_bond_site_symmetry_2
Gd0 Lu0 3.389914 1_565
Gd0 Lu0 3.389914 1_655
Gd0 Lu0 3.389914 1_556
Gd0 Lu0 3.389914 1_555
Al0 Al3 2.766995 1_554
Al0 Al1 2.766995 1_564
Al0 Al2 2.766995 1_654
Al0 Al1 2.768712 1_555
Al0 Al2 2.768712 1_555
Al0 Al3 2.768712 1_555
Al0 Lu0 3.245502 1_665
Al0 Lu0 3.245506 1_655
Al0 Lu0 3.245506 1_565
Al0 Gd0 3.245686 1_655
Al0 Gd0 3.245686 1_565
Al0 Gd0 3.245690 1_555
Al1 Al2 2.766995 1_645
Al1 Al3 2.766995 1_545
Al1 Al2 2.768712 1_555
Al1 Al3 2.768712 1_555
Al1 Lu0 3.245502 1_656
Al1 Lu0 3.245506 1_556
Al1 Lu0 3.245506 1_655
Al1 Gd0 3.245686 1_655
Al1 Gd0 3.245686 1_556
Al1 Gd0 3.245690 1_555
Al2 Al3 2.766995 1_455
Al2 Al3 2.768712 1_555
Al2 Lu0 3.245502 1_566
Al2 Lu0 3.245506 1_556
Al2 Lu0 3.245506 1_565
Al2 Gd0 3.245686 1_565
Al2 Gd0 3.245686 1_556
Al2 Gd0 3.245690 1_555
Al3 Lu0 3.245504 1_665
Al3 Lu0 3.245504 1_566
Al3 Lu0 3.245504 1_656
Al3 Gd0 3.245688 1_655
Al3 Gd0 3.245688 1_556
Al3 Gd0 3.245688 1_565
