# generated using pymatgen
data_UC2S(NO2)4
_symmetry_space_group_name_H-M   'P 1'
_cell_length_a   7.00553400
_cell_length_b   13.45885700
_cell_length_c   11.95111115
_cell_angle_alpha   90.00000000
_cell_angle_beta   91.34017225
_cell_angle_gamma   90.00000000
_symmetry_Int_Tables_number   1
_chemical_formula_structural   UC2S(NO2)4
_chemical_formula_sum   'U4 C8 S4 N16 O32'
_cell_volume   1126.51996954
_cell_formula_units_Z   4
loop_
 _symmetry_equiv_pos_site_id
 _symmetry_equiv_pos_as_xyz
  1  'x, y, z'
loop_
 _atom_site_type_symbol
 _atom_site_label
 _atom_site_symmetry_multiplicity
 _atom_site_fract_x
 _atom_site_fract_y
 _atom_site_fract_z
 _atom_site_occupancy
  U  U0  1  0.24682000  0.97961900  0.80278100  1
  U  U1  1  0.75318000  0.47961900  0.69721900  1
  U  U2  1  0.75318000  0.02038100  0.19721900  1
  U  U3  1  0.24682000  0.52038100  0.30278100  1
  C  C0  1  0.03665500  0.83845300  0.57766400  1
  C  C1  1  0.96334500  0.33845300  0.92233600  1
  C  C2  1  0.96334500  0.16154700  0.42233600  1
  C  C3  1  0.03665500  0.66154700  0.07766400  1
  C  C4  1  0.50591000  0.86506200  0.59033300  1
  C  C5  1  0.49409000  0.36506200  0.90966700  1
  C  C6  1  0.49409000  0.13493800  0.40966700  1
  C  C7  1  0.50591000  0.63493800  0.09033300  1
  S  S0  1  0.74788400  0.94047400  0.89541400  1
  S  S1  1  0.25211600  0.44047400  0.60458600  1
  S  S2  1  0.25211600  0.05952600  0.10458600  1
  S  S3  1  0.74788400  0.55952600  0.39541400  1
  N  N0  1  0.95763500  0.85570200  0.47636300  1
  N  N1  1  0.04236500  0.35570200  0.02363700  1
  N  N2  1  0.04236500  0.14429800  0.52363700  1
  N  N3  1  0.95763500  0.64429800  0.97636300  1
  N  N4  1  0.06333800  0.74789300  0.61896000  1
  N  N5  1  0.93666200  0.24789300  0.88104000  1
  N  N6  1  0.93666200  0.25210700  0.38104000  1
  N  N7  1  0.06333800  0.75210700  0.11896000  1
  N  N8  1  0.50663400  0.81631500  0.48869100  1
  N  N9  1  0.49336600  0.31631500  0.01130900  1
  N  N10  1  0.49336600  0.18368500  0.51130900  1
  N  N11  1  0.50663400  0.68368500  0.98869100  1
  N  N12  1  0.54345200  0.76486200  0.58155000  1
  N  N13  1  0.45654800  0.26486200  0.91845000  1
  N  N14  1  0.45654800  0.23513800  0.41845000  1
  N  N15  1  0.54345200  0.73513800  0.08155000  1
  O  O0  1  0.25405700  0.10250700  0.74666200  1
  O  O1  1  0.74594300  0.60250700  0.75333800  1
  O  O2  1  0.74594300  0.89749300  0.25333800  1
  O  O3  1  0.25405700  0.39749300  0.24666200  1
  O  O4  1  0.25315200  0.85376100  0.85196700  1
  O  O5  1  0.74684800  0.35376100  0.64803300  1
  O  O6  1  0.74684800  0.14623900  0.14803300  1
  O  O7  1  0.25315200  0.64623900  0.35196700  1
  O  O8  1  0.57138000  0.99737000  0.86490400  1
  O  O9  1  0.42862000  0.49737000  0.63509600  1
  O  O10  1  0.42862000  0.00263000  0.13509600  1
  O  O11  1  0.57138000  0.50263000  0.36490400  1
  O  O12  1  0.21503600  0.04724700  0.98130800  1
  O  O13  1  0.78496400  0.54724700  0.51869200  1
  O  O14  1  0.78496400  0.95275300  0.01869200  1
  O  O15  1  0.21503600  0.45275300  0.48130800  1
  O  O16  1  0.91140500  0.98764400  0.83625100  1
  O  O17  1  0.08859500  0.48764400  0.66374900  1
  O  O18  1  0.08859500  0.01235600  0.16374900  1
  O  O19  1  0.91140500  0.51235600  0.33625100  1
  O  O20  1  0.73587800  0.83580100  0.86537100  1
  O  O21  1  0.26412200  0.33580100  0.63462900  1
  O  O22  1  0.26412200  0.16419900  0.13462900  1
  O  O23  1  0.73587800  0.66419900  0.36537100  1
  O  O24  1  0.09157700  0.91789800  0.63475500  1
  O  O25  1  0.90842300  0.41789800  0.86524500  1
  O  O26  1  0.90842300  0.08210200  0.36524500  1
  O  O27  1  0.09157700  0.58210200  0.13475500  1
  O  O28  1  0.48460700  0.94031200  0.64367100  1
  O  O29  1  0.51539300  0.44031200  0.85632900  1
  O  O30  1  0.51539300  0.05968800  0.35632900  1
  O  O31  1  0.48460700  0.55968800  0.14367100  1
loop_
_geom_bond_atom_site_label_1
_geom_bond_atom_site_label_2
_geom_bond_distance
_geom_bond_site_symmetry_2
C0 O24 1.320820 1_555
C0 N4 1.326559 1_555
C0 N0 1.339660 1_455
C1 O25 1.320820 1_555
C1 N5 1.326559 1_555
C1 N1 1.339660 1_656
C2 O26 1.320820 1_555
C2 N6 1.326559 1_555
C2 N2 1.339660 1_655
C3 O27 1.320820 1_555
C3 N7 1.326559 1_555
C3 N3 1.339660 1_454
C4 O28 1.207801 1_555
C4 N12 1.378456 1_555
C4 N8 1.380701 1_555
C5 O29 1.207801 1_555
C5 N13 1.378456 1_555
C5 N9 1.380701 1_556
C6 O30 1.207801 1_555
C6 N14 1.378456 1_555
C6 N10 1.380701 1_555
C7 O31 1.207801 1_555
C7 N15 1.378456 1_555
C7 N11 1.380701 1_554
N10 N14 1.328261 1_555
N11 N15 1.328261 1_556
N12 N8 1.328261 1_555
N13 N9 1.328261 1_556
O0 U0 1.785909 1_545
O1 U1 1.785909 1_555
O2 U2 1.785909 1_565
O3 U3 1.785909 1_555
O4 U0 1.793210 1_555
O5 U1 1.793210 1_555
O6 U2 1.793210 1_555
O7 U3 1.793210 1_555
O8 S0 1.492377 1_555
O8 U0 2.387282 1_555
O9 S1 1.492377 1_555
O9 U1 2.387282 1_555
O10 S2 1.492377 1_555
O10 U2 2.387282 1_555
O11 S3 1.492377 1_555
O11 U3 2.387282 1_555
O12 S2 1.499175 1_556
O12 U0 2.335057 1_545
O13 S3 1.499175 1_555
O13 U1 2.335057 1_555
O14 S0 1.499175 1_554
O14 U2 2.335057 1_565
O15 S1 1.499175 1_555
O15 U3 2.335057 1_555
O16 S0 1.501052 1_555
O16 U0 2.395206 1_655
O17 S1 1.501052 1_555
O17 U1 2.395206 1_455
O18 S2 1.501052 1_555
O18 U2 2.395206 1_455
O19 S3 1.501052 1_555
O19 U3 2.395206 1_655
O20 S0 1.455759 1_555
O21 S1 1.455759 1_555
O22 S2 1.455759 1_555
O23 S3 1.455759 1_555
O24 U0 2.408970 1_555
O25 U1 2.408970 1_555
O26 U2 2.408970 1_555
O27 U3 2.408970 1_555
O28 U0 2.611297 1_555
O29 U1 2.611297 1_555
O30 U2 2.611297 1_555
O31 U3 2.611297 1_555
