# generated using pymatgen
data_Mg2Sb
_symmetry_space_group_name_H-M   'P 1'
_cell_length_a   5.64631952
_cell_length_b   5.64631952
_cell_length_c   5.27410100
_cell_angle_alpha   90.00000000
_cell_angle_beta   90.00000000
_cell_angle_gamma   119.99999434
_symmetry_Int_Tables_number   1
_chemical_formula_structural   Mg2Sb
_chemical_formula_sum   'Mg4 Sb2'
_cell_volume   145.61630276
_cell_formula_units_Z   2
loop_
 _symmetry_equiv_pos_site_id
 _symmetry_equiv_pos_as_xyz
  1  'x, y, z'
loop_
 _atom_site_type_symbol
 _atom_site_label
 _atom_site_symmetry_multiplicity
 _atom_site_fract_x
 _atom_site_fract_y
 _atom_site_fract_z
 _atom_site_occupancy
  Mg  Mg0  1  0.00000000  0.33358800  0.00000000  1
  Mg  Mg1  1  0.66641200  0.66641200  0.00000000  1
  Mg  Mg2  1  0.33358800  0.00000000  0.00000000  1
  Mg  Mg3  1  0.00000000  0.00000000  0.50000000  1
  Sb  Sb0  1  0.66666700  0.33333300  0.50000000  1
  Sb  Sb1  1  0.33333300  0.66666700  0.50000000  1
loop_
_geom_bond_atom_site_label_1
_geom_bond_atom_site_label_2
_geom_bond_distance
_geom_bond_site_symmetry_2
Mg0 Sb0 3.239390 1_455
Mg0 Sb0 3.239390 1_454
Mg0 Sb1 3.239391 1_555
Mg0 Sb1 3.239391 1_554
Mg0 Mg3 3.240644 1_554
Mg0 Mg3 3.240644 1_555
Mg0 Mg1 3.258659 1_455
Mg0 Mg1 3.258660 1_555
Mg0 Mg2 3.258660 1_455
Mg0 Mg2 3.258660 1_565
Mg0 Mg2 3.262395 1_555
Mg0 Mg1 3.262395 1_445
Mg1 Sb1 3.239393 1_554
Mg1 Sb1 3.239393 1_555
Mg1 Sb0 3.239393 1_555
Mg1 Sb0 3.239393 1_554
Mg1 Mg3 3.240644 1_665
Mg1 Mg3 3.240644 1_664
Mg1 Mg2 3.258659 1_565
Mg1 Mg2 3.258660 1_555
Mg1 Mg2 3.262395 1_665
Mg2 Sb1 3.239390 1_544
Mg2 Sb1 3.239390 1_545
Mg2 Sb0 3.239391 1_554
Mg2 Sb0 3.239391 1_555
Mg2 Mg3 3.240644 1_554
Mg2 Mg3 3.240644 1_555
Mg3 Sb1 3.259901 1_545
Mg3 Sb0 3.259901 1_455
Mg3 Sb0 3.259906 1_445
Mg3 Sb1 3.259906 1_555
Mg3 Sb0 3.259906 1_555
Mg3 Sb1 3.259906 1_445
