# generated using pymatgen
data_VPH11O9
_symmetry_space_group_name_H-M   'P 1'
_cell_length_a   6.42485970
_cell_length_b   12.20233999
_cell_length_c   12.20233999
_cell_angle_alpha   90.00000000
_cell_angle_beta   90.00000000
_cell_angle_gamma   90.00000000
_symmetry_Int_Tables_number   1
_chemical_formula_structural   VPH11O9
_chemical_formula_sum   'V4 P4 H44 O36'
_cell_volume   956.64298515
_cell_formula_units_Z   4
loop_
 _symmetry_equiv_pos_site_id
 _symmetry_equiv_pos_as_xyz
  1  'x, y, z'
loop_
 _atom_site_type_symbol
 _atom_site_label
 _atom_site_symmetry_multiplicity
 _atom_site_fract_x
 _atom_site_fract_y
 _atom_site_fract_z
 _atom_site_occupancy
  V  V0  1  0.77719335  0.45402271  0.82337387  1
  V  V1  1  0.27719335  0.54597729  0.17662613  1
  V  V2  1  0.52719335  0.82337387  0.54597729  1
  V  V3  1  0.02719335  0.17662613  0.45402271  1
  P  P0  1  0.77526671  0.57358443  0.08981957  1
  P  P1  1  0.27526671  0.42641557  0.91018043  1
  P  P2  1  0.52526671  0.08981957  0.42641557  1
  P  P3  1  0.02526671  0.91018043  0.57358443  1
  H  H0  1  0.82601738  0.13620268  0.89783461  1
  H  H1  1  0.32601738  0.86379732  0.10216539  1
  H  H2  1  0.57601738  0.89783461  0.86379732  1
  H  H3  1  0.07601738  0.10216539  0.13620268  1
  H  H4  1  0.42385291  0.14240794  0.76952356  1
  H  H5  1  0.92385291  0.85759206  0.23047644  1
  H  H6  1  0.17385291  0.76952356  0.85759206  1
  H  H7  1  0.67385291  0.23047644  0.14240794  1
  H  H8  1  0.91819722  0.29947378  0.63597640  1
  H  H9  1  0.41819722  0.70052622  0.36402360  1
  H  H10  1  0.66819722  0.63597640  0.70052622  1
  H  H11  1  0.16819722  0.36402360  0.29947378  1
  H  H12  1  0.43383949  0.34713327  0.61048465  1
  H  H13  1  0.93383949  0.65286673  0.38951535  1
  H  H14  1  0.18383949  0.61048465  0.65286673  1
  H  H15  1  0.68383949  0.38951535  0.34713327  1
  H  H16  1  0.92120090  0.17317096  0.66071762  1
  H  H17  1  0.42120090  0.82682904  0.33928238  1
  H  H18  1  0.67120090  0.66071762  0.82682904  1
  H  H19  1  0.17120090  0.33928238  0.17317096  1
  H  H20  1  0.82930869  0.50175741  0.50010313  1
  H  H21  1  0.32930869  0.49824259  0.49989687  1
  H  H22  1  0.57930869  0.50010313  0.49824259  1
  H  H23  1  0.07930869  0.49989687  0.50175741  1
  H  H24  1  0.10965262  0.71819643  0.86239468  1
  H  H25  1  0.60965262  0.28180357  0.13760532  1
  H  H26  1  0.85965262  0.86239468  0.28180357  1
  H  H27  1  0.35965262  0.13760532  0.71819643  1
  H  H28  1  0.96069725  0.97207477  0.89730853  1
  H  H29  1  0.46069725  0.02792523  0.10269147  1
  H  H30  1  0.71069725  0.89730853  0.02792523  1
  H  H31  1  0.21069725  0.10269147  0.97207477  1
  H  H32  1  0.40662618  0.95674617  0.70774524  1
  H  H33  1  0.90662618  0.04325383  0.29225476  1
  H  H34  1  0.15662618  0.70774524  0.04325383  1
  H  H35  1  0.65662618  0.29225476  0.95674617  1
  H  H36  1  0.40922295  0.29583089  0.64114145  1
  H  H37  1  0.90922295  0.70416911  0.35885855  1
  H  H38  1  0.15922295  0.64114145  0.70416911  1
  H  H39  1  0.65922295  0.35885855  0.29583089  1
  H  H40  1  0.62377120  0.72648399  0.05084493  1
  H  H41  1  0.12377120  0.27351601  0.94915507  1
  H  H42  1  0.37377120  0.05084493  0.27351601  1
  H  H43  1  0.87377120  0.94915507  0.72648399  1
  O  O0  1  0.77804926  0.51413362  0.97996296  1
  O  O1  1  0.27804926  0.48586638  0.02003704  1
  O  O2  1  0.52804926  0.97996296  0.48586638  1
  O  O3  1  0.02804926  0.02003704  0.51413362  1
  O  O4  1  0.58648444  0.54680116  0.15983344  1
  O  O5  1  0.08648444  0.45319884  0.84016656  1
  O  O6  1  0.33648444  0.15983344  0.45319884  1
  O  O7  1  0.83648444  0.84016656  0.54680116  1
  O  O8  1  0.97442956  0.56066876  0.15575248  1
  O  O9  1  0.47442956  0.43933124  0.84424752  1
  O  O10  1  0.72442956  0.15575248  0.43933124  1
  O  O11  1  0.22442956  0.84424752  0.56066876  1
  O  O12  1  0.73894697  0.61501664  0.77179845  1
  O  O13  1  0.23894697  0.38498336  0.22820155  1
  O  O14  1  0.48894697  0.77179845  0.38498336  1
  O  O15  1  0.98894697  0.22820155  0.61501664  1
  O  O16  1  0.79293691  0.29575625  0.91952776  1
  O  O17  1  0.29293691  0.70424375  0.08047224  1
  O  O18  1  0.54293691  0.91952776  0.70424375  1
  O  O19  1  0.04293691  0.08047224  0.29575625  1
  O  O20  1  0.79235857  0.39727562  0.70091127  1
  O  O21  1  0.29235857  0.60272438  0.29908873  1
  O  O22  1  0.54235857  0.70091127  0.60272438  1
  O  O23  1  0.04235857  0.29908873  0.39727562  1
  O  O24  1  0.03536836  0.15253849  0.19923219  1
  O  O25  1  0.53536836  0.84746151  0.80076781  1
  O  O26  1  0.78536836  0.19923219  0.84746151  1
  O  O27  1  0.28536836  0.80076781  0.15253849  1
  O  O28  1  0.89134698  0.02112738  0.94982076  1
  O  O29  1  0.39134698  0.97887262  0.05017924  1
  O  O30  1  0.64134698  0.94982076  0.97887262  1
  O  O31  1  0.14134698  0.05017924  0.02112738  1
  O  O32  1  0.26913210  0.29470299  0.93926382  1
  O  O33  1  0.76913210  0.70529701  0.06073618  1
  O  O34  1  0.01913210  0.93926382  0.70529701  1
  O  O35  1  0.51913210  0.06073618  0.29470299  1
loop_
_geom_bond_atom_site_label_1
_geom_bond_atom_site_label_2
_geom_bond_distance
_geom_bond_site_symmetry_2
H0 O26 1.018603 1_555
H0 O28 1.596973 1_555
H1 O27 1.018603 1_555
H1 O29 1.596973 1_555
H2 O25 1.018603 1_555
H2 O30 1.596973 1_555
H3 O24 1.018603 1_555
H3 O31 1.596973 1_555
H8 O15 1.014096 1_555
H8 O20 1.644909 1_555
H9 O14 1.014096 1_555
H9 O21 1.644909 1_555
H10 O12 1.014096 1_555
H10 O22 1.644909 1_555
H11 O13 1.014096 1_555
H11 O23 1.644909 1_555
H12 H36 0.746218 1_555
H13 H37 0.746218 1_555
H14 H38 0.746218 1_555
H15 H39 0.746218 1_555
H16 O15 0.975371 1_555
H17 O14 0.975371 1_555
H18 O12 0.975371 1_555
H19 O13 0.975371 1_555
H24 H6 0.752222 1_555
H25 H7 0.752222 1_555
H26 H5 0.752222 1_555
H27 H4 0.752222 1_555
H28 O28 0.983559 1_565
H29 O29 0.983559 1_545
H30 O30 0.983559 1_554
H31 O31 0.983559 1_556
H32 O18 0.987454 1_555
H33 O19 0.987454 1_655
H34 O17 0.987454 1_555
H35 O16 0.987454 1_555
H40 O33 0.976534 1_555
H41 O32 0.976534 1_555
H42 O35 0.976534 1_555
H43 O34 0.976534 1_655
O0 P0 1.524317 1_556
O0 V0 2.046710 1_555
O1 P1 1.524317 1_554
O1 V1 2.046710 1_555
O2 P2 1.524317 1_565
O2 V2 2.046710 1_555
O3 P3 1.524317 1_545
O3 V3 2.046710 1_555
O4 P0 1.519151 1_555
O4 V1 1.997714 1_555
O5 P1 1.519151 1_555
O5 V0 1.997714 1_455
O6 P2 1.519151 1_555
O6 V3 1.997714 1_555
O7 P3 1.519151 1_655
O7 V2 1.997714 1_555
O8 P0 1.519696 1_555
O8 V1 1.969994 1_655
O9 P1 1.519696 1_555
O9 V0 1.969994 1_555
O10 P2 1.519696 1_555
O10 V3 1.969994 1_655
O11 P3 1.519696 1_555
O11 V2 1.969994 1_555
O12 V0 2.077432 1_555
O13 V1 2.077432 1_555
O14 V2 2.077432 1_555
O15 V3 2.077432 1_655
O16 V0 2.261965 1_555
O17 V1 2.261965 1_555
O18 V2 2.261965 1_555
O19 V3 2.261965 1_555
O20 V0 1.649848 1_555
O21 V1 1.649848 1_555
O22 V2 1.649848 1_555
O23 V3 1.649848 1_555
O32 P1 1.646388 1_555
O33 P0 1.646388 1_555
O34 P3 1.646388 1_555
O35 P2 1.646388 1_555
