# generated using pymatgen
data_Li9Mn21O40
_symmetry_space_group_name_H-M   'P 1'
_cell_length_a   5.98781696
_cell_length_b   5.98558494
_cell_length_c   21.48813704
_cell_angle_alpha   97.52777079
_cell_angle_beta   82.46905141
_cell_angle_gamma   86.59724671
_symmetry_Int_Tables_number   1
_chemical_formula_structural   Li9Mn21O40
_chemical_formula_sum   'Li9 Mn21 O40'
_cell_volume   754.62617813
_cell_formula_units_Z   1
loop_
 _symmetry_equiv_pos_site_id
 _symmetry_equiv_pos_as_xyz
  1  'x, y, z'
loop_
 _atom_site_type_symbol
 _atom_site_label
 _atom_site_symmetry_multiplicity
 _atom_site_fract_x
 _atom_site_fract_y
 _atom_site_fract_z
 _atom_site_occupancy
  Li  Li0  1  0.97644500  0.77355500  0.04711200  1
  Li  Li1  1  0.37355300  0.37644700  0.25289300  1
  Li  Li2  1  0.82580000  0.42420000  0.34839800  1
  Li  Li3  1  0.77291300  0.97708700  0.45417600  1
  Li  Li4  1  0.22565800  0.02434200  0.54868400  1
  Li  Li5  1  0.57708000  0.17292000  0.84583800  1
  Li  Li6  1  0.17500400  0.57499600  0.64999300  1
  Li  Li7  1  0.62436900  0.62563100  0.75126300  1
  Li  Li8  1  0.02422200  0.22577800  0.95155600  1
  Mn  Mn0  1  0.49929700  0.00081100  0.99758700  1
  Mn  Mn1  1  0.89806200  0.10400700  0.20085500  1
  Mn  Mn2  1  0.50311600  0.49677500  0.99758700  1
  Mn  Mn3  1  0.70409900  0.29814400  0.09920400  1
  Mn  Mn4  1  0.19669800  0.30106000  0.09920400  1
  Mn  Mn5  1  0.90108300  0.59684800  0.20085500  1
  Mn  Mn6  1  0.42500500  0.82499500  0.14999100  1
  Mn  Mn7  1  0.29910700  0.20074800  0.40133200  1
  Mn  Mn8  1  0.60068200  0.89921200  0.30244300  1
  Mn  Mn9  1  0.90254500  0.09793200  0.69932200  1
  Mn  Mn10  1  0.69796500  0.30251300  0.60066500  1
  Mn  Mn11  1  0.29956200  0.70058400  0.40133200  1
  Mn  Mn12  1  0.49926700  0.49989800  0.50088600  1
  Mn  Mn13  1  0.09687500  0.90323100  0.30244300  1
  Mn  Mn14  1  0.70136900  0.79815100  0.60066500  1
  Mn  Mn15  1  0.39813200  0.10139000  0.69932200  1
  Mn  Mn16  1  0.99984700  0.50098800  0.50088600  1
  Mn  Mn17  1  0.80073300  0.69910700  0.89867100  1
  Mn  Mn18  1  0.10102600  0.39985000  0.79908200  1
  Mn  Mn19  1  0.09989200  0.89923200  0.79908200  1
  Mn  Mn20  1  0.30059600  0.69956600  0.89867100  1
  O  O0  1  0.94392400  0.07312500  0.10636600  1
  O  O1  1  0.72510900  0.25884200  0.00536900  1
  O  O2  1  0.94971000  0.53324200  0.10636600  1
  O  O3  1  0.26952200  0.24652700  0.00536900  1
  O  O4  1  0.44861900  0.07119400  0.09483000  1
  O  O5  1  0.85888600  0.12512500  0.29467500  1
  O  O6  1  0.45655100  0.52363500  0.09483000  1
  O  O7  1  0.67313300  0.34392400  0.19366700  1
  O  O8  1  0.13320100  0.34974300  0.19366700  1
  O  O9  1  0.67108200  0.84859500  0.20517000  1
  O  O10  1  0.35605000  0.13262800  0.30954600  1
  O  O11  1  0.84643900  0.66955000  0.29467500  1
  O  O12  1  0.33440400  0.67691700  0.30954600  1
  O  O13  1  0.12374600  0.85657500  0.20517000  1
  O  O14  1  0.51363500  0.43953800  0.40356400  1
  O  O15  1  0.73293600  0.27366900  0.50899600  1
  O  O16  1  0.91835700  0.04885000  0.60621800  1
  O  O17  1  0.92016300  0.54036700  0.59803700  1
  O  O18  1  0.51562400  0.93791600  0.39940500  1
  O  O19  1  0.75806700  0.73532800  0.50899600  1
  O  O20  1  0.08280100  0.46402600  0.40356400  1
  O  O21  1  0.47542500  0.05736800  0.60621800  1
  O  O22  1  0.24042200  0.26672500  0.49307500  1
  O  O23  1  0.87372300  0.13289100  0.79098100  1
  O  O24  1  0.48180100  0.55766900  0.59803700  1
  O  O25  1  0.08497100  0.96148800  0.39940500  1
  O  O26  1  0.26650200  0.72635100  0.49307500  1
  O  O27  1  0.64904700  0.31840400  0.69373700  1
  O  O28  1  0.86668400  0.64047400  0.80692000  1
  O  O29  1  0.33529600  0.15809000  0.79098100  1
  O  O30  1  0.65721700  0.87533300  0.69373700  1
  O  O31  1  0.14045700  0.32032100  0.70194800  1
  O  O32  1  0.56148400  0.48491900  0.90062500  1
  O  O33  1  0.15759400  0.88162800  0.70194800  1
  O  O34  1  0.32639600  0.66644700  0.80692000  1
  O  O35  1  0.06403200  0.48276400  0.89641000  1
  O  O36  1  0.73258000  0.75604000  0.99046000  1
  O  O37  1  0.53789000  0.91570600  0.90062500  1
  O  O38  1  0.27695900  0.73442000  0.99046000  1
  O  O39  1  0.03955800  0.91364700  0.89641000  1
loop_
_geom_bond_atom_site_label_1
_geom_bond_atom_site_label_2
_geom_bond_distance
_geom_bond_site_symmetry_2
Li0 O38 2.018858 1_654
Li0 O36 2.018872 1_554
Li0 O2 2.041966 1_555
Li0 O0 2.041980 1_565
Li1 O12 2.018165 1_555
Li1 O10 2.018174 1_555
Li1 O8 2.042196 1_555
Li1 O7 2.042205 1_555
Li2 O11 1.983167 1_555
Li2 O5 1.983177 1_555
Li2 O14 2.068286 1_555
Li2 O20 2.068295 1_655
Li3 O19 1.980909 1_555
Li3 O15 1.980924 1_565
Li3 O25 2.063829 1_655
Li3 O18 2.063838 1_555
Li4 O26 1.995560 1_545
Li4 O22 1.995565 1_555
Li4 O21 2.063959 1_555
Li4 O16 2.063959 1_455
Li5 O29 1.982062 1_555
Li5 O23 1.982071 1_555
Li5 O32 2.063168 1_555
Li5 O37 2.063177 1_545
Li6 O31 2.008908 1_555
Li6 O33 2.008917 1_555
Li6 O17 2.010315 1_455
Li6 O24 2.010315 1_555
Li7 O28 1.996438 1_555
Li7 O34 1.996443 1_555
Li7 O27 2.062956 1_555
Li7 O30 2.062961 1_555
Li8 O3 1.984738 1_556
Li8 O1 1.984738 1_456
Li8 O39 2.067404 1_545
Li8 O35 2.067409 1_555
Mn0 O3 1.928493 1_556
Mn0 O36 1.939940 1_545
Mn0 O4 2.055197 1_556
Mn0 O37 2.058089 1_545
Mn0 O1 2.116853 1_556
Mn0 O38 2.140040 1_545
Mn1 O7 1.945016 1_555
Mn1 O13 1.964544 1_645
Mn1 O5 1.985215 1_555
Mn1 O0 1.995385 1_555
Mn1 O8 2.101919 1_655
Mn1 O9 2.108021 1_545
Mn2 O1 1.928489 1_556
Mn2 O38 1.939948 1_555
Mn2 O6 2.055197 1_556
Mn2 O32 2.058090 1_555
Mn2 O3 2.116849 1_556
Mn2 O36 2.140040 1_555
Mn3 O0 1.944881 1_555
Mn3 O6 1.964665 1_555
Mn3 O1 1.985574 1_555
Mn3 O7 1.994811 1_555
Mn3 O2 2.101197 1_555
Mn3 O4 2.108381 1_555
Mn4 O2 1.944889 1_455
Mn4 O4 1.964665 1_555
Mn4 O3 1.985574 1_555
Mn4 O8 1.994811 1_555
Mn4 O0 2.101198 1_455
Mn4 O6 2.108373 1_555
Mn5 O8 1.945020 1_655
Mn5 O9 1.964552 1_555
Mn5 O11 1.985215 1_555
Mn5 O2 1.995384 1_555
Mn5 O7 2.101915 1_555
Mn5 O13 2.108012 1_655
Mn6 O4 2.008742 1_565
Mn6 O6 2.008742 1_555
Mn6 O9 2.008904 1_555
Mn6 O13 2.008918 1_555
Mn7 O22 1.940041 1_555
Mn7 O10 1.941399 1_555
Mn7 O18 1.970849 1_545
Mn7 O20 1.971000 1_555
Mn7 O14 1.977729 1_555
Mn7 O25 1.978149 1_545
Mn8 O11 1.928307 1_555
Mn8 O10 1.939981 1_565
Mn8 O9 2.055831 1_555
Mn8 O18 2.058044 1_555
Mn8 O5 2.118111 1_565
Mn8 O12 2.139427 1_555
Mn9 O23 1.936866 1_555
Mn9 O33 1.954165 1_645
Mn9 O16 1.972523 1_555
Mn9 O27 1.977718 1_555
Mn9 O31 2.007733 1_655
Mn9 O30 2.045534 1_545
Mn10 O15 1.937069 1_555
Mn10 O24 1.954007 1_555
Mn10 O27 1.971780 1_555
Mn10 O16 1.977865 1_555
Mn10 O17 2.006616 1_555
Mn10 O21 2.044322 1_555
Mn11 O26 1.940040 1_555
Mn11 O12 1.941398 1_555
Mn11 O25 1.970848 1_555
Mn11 O14 1.970996 1_555
Mn11 O20 1.977733 1_555
Mn11 O18 1.978140 1_555
Mn12 O26 1.924745 1_555
Mn12 O15 1.929377 1_555
Mn12 O24 2.058615 1_555
Mn12 O14 2.064587 1_555
Mn12 O22 2.154513 1_555
Mn12 O19 2.164083 1_555
Mn13 O5 1.928307 1_465
Mn13 O12 1.939985 1_555
Mn13 O13 2.055832 1_555
Mn13 O25 2.058043 1_555
Mn13 O11 2.118111 1_455
Mn13 O10 2.139423 1_565
Mn14 O19 1.937068 1_555
Mn14 O17 1.954014 1_555
Mn14 O30 1.971781 1_555
Mn14 O21 1.977866 1_565
Mn14 O24 2.006607 1_555
Mn14 O16 2.044330 1_565
Mn15 O29 1.936865 1_555
Mn15 O31 1.954169 1_555
Mn15 O21 1.972524 1_555
Mn15 O30 1.977727 1_545
Mn15 O33 2.007729 1_545
Mn15 O27 2.045543 1_555
Mn16 O22 1.924737 1_655
Mn16 O19 1.929385 1_555
Mn16 O17 2.058615 1_555
Mn16 O20 2.064587 1_655
Mn16 O26 2.154513 1_655
Mn16 O15 2.164083 1_555
Mn17 O28 1.940188 1_555
Mn17 O36 1.941475 1_555
Mn17 O37 1.971248 1_555
Mn17 O35 1.971278 1_655
Mn17 O39 1.978014 1_655
Mn17 O32 1.978392 1_555
Mn18 O28 1.925177 1_455
Mn18 O29 1.929016 1_555
Mn18 O31 2.058160 1_555
Mn18 O35 2.064673 1_555
Mn18 O34 2.154209 1_555
Mn18 O23 2.164129 1_455
Mn19 O34 1.925173 1_555
Mn19 O23 1.929016 1_465
Mn19 O33 2.058160 1_555
Mn19 O39 2.064673 1_555
Mn19 O28 2.154204 1_455
Mn19 O29 2.164129 1_565
Mn20 O34 1.940188 1_555
Mn20 O38 1.941475 1_555
Mn20 O32 1.971251 1_555
Mn20 O39 1.971274 1_555
Mn20 O35 1.978018 1_555
Mn20 O37 1.978379 1_555
