# generated using pymatgen
data_SrLa(RuO3)2
_symmetry_space_group_name_H-M   'P 1'
_cell_length_a   5.64325400
_cell_length_b   5.64822000
_cell_length_c   7.96934600
_cell_angle_alpha   90.00000000
_cell_angle_beta   90.00000000
_cell_angle_gamma   90.00000000
_symmetry_Int_Tables_number   1
_chemical_formula_structural   SrLa(RuO3)2
_chemical_formula_sum   'Sr2 La2 Ru4 O12'
_cell_volume   254.01764484
_cell_formula_units_Z   2
loop_
 _symmetry_equiv_pos_site_id
 _symmetry_equiv_pos_as_xyz
  1  'x, y, z'
loop_
 _atom_site_type_symbol
 _atom_site_label
 _atom_site_symmetry_multiplicity
 _atom_site_fract_x
 _atom_site_fract_y
 _atom_site_fract_z
 _atom_site_occupancy
  Sr  Sr0  1  0.78672500  0.49453000  0.50000000  1
  Sr  Sr1  1  0.21327500  0.99453000  0.00000000  1
  La  La0  1  0.29020200  0.00711000  0.50000000  1
  La  La1  1  0.70979800  0.50711000  0.00000000  1
  Ru  Ru0  1  0.24964300  0.49998400  0.75066200  1
  Ru  Ru1  1  0.75035700  0.99998400  0.25066200  1
  Ru  Ru2  1  0.24964300  0.49998400  0.24933800  1
  Ru  Ru3  1  0.75035700  0.99998400  0.74933800  1
  O  O0  1  0.95405200  0.70348000  0.79389000  1
  O  O1  1  0.46266100  0.78806000  0.20968500  1
  O  O2  1  0.53733900  0.28806000  0.29031500  1
  O  O3  1  0.04594800  0.20348000  0.70611000  1
  O  O4  1  0.53733900  0.28806000  0.70968500  1
  O  O5  1  0.04594800  0.20348000  0.29389000  1
  O  O6  1  0.95405200  0.70348000  0.20611000  1
  O  O7  1  0.46266100  0.78806000  0.79031500  1
  O  O8  1  0.24222200  0.58842100  0.50000000  1
  O  O9  1  0.73588700  0.92689200  0.50000000  1
  O  O10  1  0.26411300  0.42689200  0.00000000  1
  O  O11  1  0.75777800  0.08842100  0.00000000  1
loop_
_geom_bond_atom_site_label_1
_geom_bond_atom_site_label_2
_geom_bond_distance
_geom_bond_site_symmetry_2
La0 O8 2.380298 1_545
La0 O3 2.414157 1_555
La0 O5 2.414157 1_555
La0 O9 2.555599 1_545
La0 O4 2.693628 1_555
La0 O2 2.693628 1_555
La0 O7 2.798354 1_545
La0 O1 2.798354 1_545
La1 O11 2.380298 1_555
La1 O6 2.414157 1_555
La1 O0 2.414157 1_554
La1 O10 2.555599 1_555
La1 O1 2.693628 1_555
La1 O7 2.693628 1_554
La1 O4 2.798354 1_554
La1 O2 2.798354 1_555
O0 Ru0 2.054828 1_655
O0 Ru3 2.062063 1_555
O0 Sr1 2.745984 1_656
O0 Sr0 2.787470 1_555
O1 Ru1 2.043360 1_555
O1 Ru2 2.047547 1_555
O1 Sr1 2.476498 1_555
O2 Ru2 2.043360 1_555
O2 Ru1 2.047547 1_545
O2 Sr0 2.476498 1_555
O3 Ru3 2.054828 1_445
O3 Ru0 2.062063 1_555
O3 Sr0 2.745984 1_455
O3 Sr1 2.787470 1_546
O4 Ru0 2.043360 1_555
O4 Ru3 2.047547 1_545
O4 Sr0 2.476498 1_555
O5 Ru1 2.054828 1_445
O5 Ru2 2.062063 1_555
O5 Sr0 2.745984 1_455
O5 Sr1 2.787470 1_545
O6 Ru2 2.054828 1_655
O6 Ru1 2.062063 1_555
O6 Sr1 2.745984 1_655
O6 Sr0 2.787470 1_555
O7 Ru3 2.043360 1_555
O7 Ru0 2.047547 1_555
O7 Sr1 2.476498 1_556
O8 Ru2 2.059544 1_555
O8 Ru0 2.059544 1_555
O8 Sr0 2.624620 1_455
O9 Ru3 2.031136 1_555
O9 Ru1 2.031136 1_555
O9 Sr0 2.458870 1_555
O10 Ru0 2.031136 1_554
O10 Ru2 2.031136 1_555
O10 Sr1 2.458870 1_545
O11 Ru1 2.059544 1_545
O11 Ru3 2.059544 1_544
O11 Sr1 2.624620 1_645
