# generated using pymatgen
data_BaCa
_symmetry_space_group_name_H-M   'P 1'
_cell_length_a   8.71053633
_cell_length_b   8.71053633
_cell_length_c   11.17255400
_cell_angle_alpha   90.00000000
_cell_angle_beta   90.00000000
_cell_angle_gamma   92.86897740
_symmetry_Int_Tables_number   1
_chemical_formula_structural   BaCa
_chemical_formula_sum   'Ba8 Ca8'
_cell_volume   846.63763687
_cell_formula_units_Z   8
loop_
 _symmetry_equiv_pos_site_id
 _symmetry_equiv_pos_as_xyz
  1  'x, y, z'
loop_
 _atom_site_type_symbol
 _atom_site_label
 _atom_site_symmetry_multiplicity
 _atom_site_fract_x
 _atom_site_fract_y
 _atom_site_fract_z
 _atom_site_occupancy
  Ba  Ba0_0  1  0.00000000  0.00000000  0.00000000  1
  Ba  Ba0_1  1  0.00000000  0.00000000  0.50000000  1
  Ba  Ba0_2  1  0.00000000  0.50000000  0.00000000  1
  Ba  Ba0_3  1  0.00000000  0.50000000  0.50000000  1
  Ba  Ba0_4  1  0.50000000  0.00000000  0.00000000  1
  Ba  Ba0_5  1  0.50000000  0.00000000  0.50000000  1
  Ba  Ba0_6  1  0.50000000  0.50000000  0.00000000  1
  Ba  Ba0_7  1  0.50000000  0.50000000  0.50000000  1
  Ca  Ca0_0  1  0.25000000  0.25000000  0.25000000  1
  Ca  Ca0_1  1  0.25000000  0.25000000  0.75000000  1
  Ca  Ca0_2  1  0.25000000  0.75000000  0.25000000  1
  Ca  Ca0_3  1  0.25000000  0.75000000  0.75000000  1
  Ca  Ca0_4  1  0.75000000  0.25000000  0.25000000  1
  Ca  Ca0_5  1  0.75000000  0.25000000  0.75000000  1
  Ca  Ca0_6  1  0.75000000  0.75000000  0.25000000  1
  Ca  Ca0_7  1  0.75000000  0.75000000  0.75000000  1
loop_
_geom_bond_atom_site_label_1
_geom_bond_atom_site_label_2
_geom_bond_distance
_geom_bond_site_symmetry_2
Ba0_0 Ca0_6 4.100134 1_445
Ba0_0 Ca0_1 4.100134 1_554
Ba0_0 Ca0_7 4.100134 1_444
Ba0_0 Ca0_0 4.100134 1_555
Ba0_0 Ca0_3 4.214322 1_544
Ba0_0 Ca0_5 4.214322 1_454
Ba0_0 Ca0_2 4.214322 1_545
Ba0_0 Ca0_4 4.214322 1_455
Ba0_0 Ba0_4 4.355268 1_455
Ba0_0 Ba0_2 4.355268 1_545
Ba0_0 Ba0_2 4.355268 1_555
Ba0_0 Ba0_4 4.355268 1_555
Ba0_1 Ca0_0 4.100134 1_555
Ba0_1 Ca0_1 4.100134 1_555
Ba0_1 Ca0_6 4.100134 1_445
Ba0_1 Ca0_7 4.100134 1_445
Ba0_1 Ca0_5 4.214322 1_455
Ba0_1 Ca0_2 4.214322 1_545
Ba0_1 Ca0_4 4.214322 1_455
Ba0_1 Ca0_3 4.214322 1_545
Ba0_1 Ba0_5 4.355268 1_455
Ba0_1 Ba0_3 4.355268 1_555
Ba0_1 Ba0_5 4.355268 1_555
Ba0_1 Ba0_3 4.355268 1_545
Ba0_2 Ca0_5 4.100134 1_454
Ba0_2 Ca0_3 4.100134 1_554
Ba0_2 Ca0_2 4.100134 1_555
Ba0_2 Ca0_4 4.100134 1_455
Ba0_2 Ca0_7 4.214322 1_454
Ba0_2 Ca0_6 4.214322 1_455
Ba0_2 Ca0_1 4.214322 1_554
Ba0_2 Ca0_0 4.214322 1_555
Ba0_2 Ba0_6 4.355268 1_555
Ba0_2 Ba0_6 4.355268 1_455
Ba0_3 Ca0_5 4.100134 1_455
Ba0_3 Ca0_2 4.100134 1_555
Ba0_3 Ca0_4 4.100134 1_455
Ba0_3 Ca0_3 4.100134 1_555
Ba0_3 Ca0_1 4.214322 1_555
Ba0_3 Ca0_6 4.214322 1_455
Ba0_3 Ca0_7 4.214322 1_455
Ba0_3 Ca0_0 4.214322 1_555
Ba0_3 Ba0_7 4.355268 1_455
Ba0_3 Ba0_7 4.355268 1_555
Ba0_4 Ca0_4 4.100134 1_555
Ba0_4 Ca0_3 4.100134 1_544
Ba0_4 Ca0_5 4.100134 1_554
Ba0_4 Ca0_2 4.100134 1_545
Ba0_4 Ca0_7 4.214322 1_544
Ba0_4 Ca0_6 4.214322 1_545
Ba0_4 Ca0_1 4.214322 1_554
Ba0_4 Ca0_0 4.214322 1_555
Ba0_4 Ba0_6 4.355268 1_545
Ba0_4 Ba0_6 4.355268 1_555
Ba0_5 Ca0_4 4.100134 1_555
Ba0_5 Ca0_2 4.100134 1_545
Ba0_5 Ca0_5 4.100134 1_555
Ba0_5 Ca0_3 4.100134 1_545
Ba0_5 Ca0_7 4.214322 1_545
Ba0_5 Ca0_1 4.214322 1_555
Ba0_5 Ca0_6 4.214322 1_545
Ba0_5 Ca0_0 4.214322 1_555
Ba0_5 Ba0_7 4.355268 1_555
Ba0_5 Ba0_7 4.355268 1_545
Ba0_6 Ca0_7 4.100134 1_554
Ba0_6 Ca0_1 4.100134 1_554
Ba0_6 Ca0_6 4.100134 1_555
Ba0_6 Ca0_0 4.100134 1_555
Ba0_6 Ca0_4 4.214322 1_555
Ba0_6 Ca0_3 4.214322 1_554
Ba0_6 Ca0_5 4.214322 1_554
Ba0_6 Ca0_2 4.214322 1_555
Ba0_7 Ca0_1 4.100134 1_555
Ba0_7 Ca0_7 4.100134 1_555
Ba0_7 Ca0_6 4.100134 1_555
Ba0_7 Ca0_0 4.100134 1_555
Ba0_7 Ca0_4 4.214322 1_555
Ba0_7 Ca0_5 4.214322 1_555
Ba0_7 Ca0_2 4.214322 1_555
Ba0_7 Ca0_3 4.214322 1_555
