# generated using pymatgen
data_Mg2Ti
_symmetry_space_group_name_H-M   'P 1'
_cell_length_a   5.34081916
_cell_length_b   5.34081916
_cell_length_c   5.60718036
_cell_angle_alpha   66.01946700
_cell_angle_beta   66.01946700
_cell_angle_gamma   61.55835625
_symmetry_Int_Tables_number   1
_chemical_formula_structural   Mg2Ti
_chemical_formula_sum   'Mg4 Ti2'
_cell_volume   123.90529520
_cell_formula_units_Z   2
loop_
 _symmetry_equiv_pos_site_id
 _symmetry_equiv_pos_as_xyz
  1  'x, y, z'
loop_
 _atom_site_type_symbol
 _atom_site_label
 _atom_site_symmetry_multiplicity
 _atom_site_fract_x
 _atom_site_fract_y
 _atom_site_fract_z
 _atom_site_occupancy
  Mg  Mg0  1  0.24544000  0.42196800  0.74773200  1
  Mg  Mg1  1  0.57803200  0.75456000  0.75226800  1
  Mg  Mg2  1  0.42196800  0.24544000  0.24773200  1
  Mg  Mg3  1  0.75456000  0.57803200  0.25226800  1
  Ti  Ti0  1  0.07862700  0.92137300  0.25000000  1
  Ti  Ti1  1  0.92137300  0.07862700  0.75000000  1
loop_
_geom_bond_atom_site_label_1
_geom_bond_atom_site_label_2
_geom_bond_distance
_geom_bond_site_symmetry_2
Mg0 Mg2 2.964995 1_556
Mg0 Mg2 2.964995 1_555
Mg0 Ti1 3.056889 1_455
Mg0 Mg3 3.062331 1_456
Mg0 Mg1 3.064339 1_555
Mg0 Ti0 3.066540 1_555
Mg0 Ti1 3.087394 1_465
Mg0 Mg1 3.129468 1_545
Mg0 Mg1 3.129468 1_455
Mg0 Mg3 3.153198 1_555
Mg0 Ti0 3.159469 1_546
Mg0 Ti1 3.179289 1_555
Mg1 Mg3 2.964995 1_555
Mg1 Mg3 2.964995 1_556
Mg1 Ti1 3.056889 1_565
Mg1 Mg2 3.062331 1_565
Mg1 Ti0 3.066540 1_556
Mg1 Ti1 3.087394 1_465
Mg1 Mg2 3.153198 1_556
Mg1 Ti0 3.159469 1_655
Mg1 Ti1 3.179289 1_555
Mg2 Ti0 3.056889 1_545
Mg2 Mg3 3.064339 1_555
Mg2 Ti1 3.066540 1_554
Mg2 Ti0 3.087394 1_645
Mg2 Mg3 3.129468 1_455
Mg2 Mg3 3.129468 1_545
Mg2 Ti1 3.159469 1_455
Mg2 Ti0 3.179289 1_555
Mg3 Ti0 3.056889 1_655
Mg3 Ti1 3.066540 1_555
Mg3 Ti0 3.087394 1_645
Mg3 Ti1 3.159469 1_564
Mg3 Ti0 3.179289 1_555
Ti0 Ti1 2.932401 1_464
Ti0 Ti1 2.932401 1_465
