# generated using pymatgen
data_BaLaMg6
_symmetry_space_group_name_H-M   'P 1'
_cell_length_a   5.44489700
_cell_length_b   7.24824300
_cell_length_c   12.08939100
_cell_angle_alpha   90.00000000
_cell_angle_beta   90.00000000
_cell_angle_gamma   90.00000000
_symmetry_Int_Tables_number   1
_chemical_formula_structural   BaLaMg6
_chemical_formula_sum   'Ba2 La2 Mg12'
_cell_volume   477.11913833
_cell_formula_units_Z   2
loop_
 _symmetry_equiv_pos_site_id
 _symmetry_equiv_pos_as_xyz
  1  'x, y, z'
loop_
 _atom_site_type_symbol
 _atom_site_label
 _atom_site_symmetry_multiplicity
 _atom_site_fract_x
 _atom_site_fract_y
 _atom_site_fract_z
 _atom_site_occupancy
  Ba  Ba0  1  0.50000000  0.50000000  0.83489300  1
  Ba  Ba1  1  0.50000000  0.00000000  0.33489300  1
  La  La0  1  0.50000000  0.50000000  0.34017600  1
  La  La1  1  0.50000000  0.00000000  0.84017600  1
  Mg  Mg0  1  0.50000000  0.25346200  0.08246900  1
  Mg  Mg1  1  0.50000000  0.74653800  0.08246900  1
  Mg  Mg2  1  0.00000000  0.23783500  0.92887000  1
  Mg  Mg3  1  0.00000000  0.76216500  0.92887000  1
  Mg  Mg4  1  0.00000000  0.50000000  0.15616500  1
  Mg  Mg5  1  0.00000000  0.50000000  0.64609400  1
  Mg  Mg6  1  0.50000000  0.75346200  0.58246900  1
  Mg  Mg7  1  0.50000000  0.24653800  0.58246900  1
  Mg  Mg8  1  0.00000000  0.73783500  0.42887000  1
  Mg  Mg9  1  0.00000000  0.26216500  0.42887000  1
  Mg  Mg10  1  0.00000000  0.00000000  0.65616500  1
  Mg  Mg11  1  0.00000000  0.00000000  0.14609400  1
loop_
_geom_bond_atom_site_label_1
_geom_bond_atom_site_label_2
_geom_bond_distance
_geom_bond_site_symmetry_2
Ba0 Mg1 3.485909 1_556
Ba0 Mg0 3.485909 1_556
Ba0 Mg2 3.509046 1_655
Ba0 Mg3 3.509046 1_655
Ba0 Mg2 3.509046 1_555
Ba0 Mg3 3.509046 1_555
Ba0 Mg5 3.552657 1_555
Ba0 Mg5 3.552657 1_655
Ba0 Mg6 3.561982 1_555
Ba0 Mg7 3.561982 1_555
Ba0 La1 3.624684 1_565
Ba0 La1 3.624684 1_555
Ba1 Mg7 3.485909 1_555
Ba1 Mg6 3.485909 1_545
Ba1 Mg8 3.509046 1_645
Ba1 Mg8 3.509046 1_545
Ba1 Mg9 3.509046 1_555
Ba1 Mg9 3.509046 1_655
Ba1 Mg11 3.552657 1_555
Ba1 Mg11 3.552657 1_655
Ba1 Mg0 3.561982 1_555
Ba1 Mg1 3.561982 1_545
Ba1 La0 3.624684 1_555
Ba1 La0 3.624684 1_545
La0 Mg8 3.396063 1_655
La0 Mg9 3.396063 1_555
La0 Mg9 3.396063 1_655
La0 Mg8 3.396063 1_555
La0 Mg6 3.457629 1_555
La0 Mg7 3.457629 1_555
La0 Mg4 3.515748 1_655
La0 Mg4 3.515748 1_555
La0 Mg1 3.591618 1_555
La0 Mg0 3.591618 1_555
La1 Mg2 3.396063 1_555
La1 Mg2 3.396063 1_655
La1 Mg3 3.396063 1_645
La1 Mg3 3.396063 1_545
La1 Mg0 3.457629 1_556
La1 Mg1 3.457629 1_546
La1 Mg10 3.515748 1_555
La1 Mg10 3.515748 1_655
La1 Mg7 3.591618 1_555
La1 Mg6 3.591618 1_545
Mg0 Mg2 3.297378 1_654
Mg0 Mg2 3.297378 1_554
Mg0 Mg11 3.373205 1_555
Mg0 Mg11 3.373205 1_655
Mg0 Mg4 3.376204 1_655
Mg0 Mg4 3.376204 1_555
Mg1 Mg3 3.297378 1_654
Mg1 Mg3 3.297378 1_554
Mg1 Mg11 3.373205 1_665
Mg1 Mg11 3.373205 1_565
Mg1 Mg4 3.376204 1_655
Mg1 Mg4 3.376204 1_555
Mg2 Mg4 3.340901 1_556
Mg2 Mg3 3.447772 1_545
Mg3 Mg4 3.340901 1_556
Mg5 Mg8 3.141371 1_555
Mg5 Mg9 3.141371 1_555
Mg5 Mg6 3.373205 1_555
Mg5 Mg6 3.373205 1_455
Mg5 Mg7 3.373205 1_555
Mg5 Mg7 3.373205 1_455
Mg6 Mg8 3.297378 1_555
Mg6 Mg8 3.297378 1_655
Mg7 Mg9 3.297378 1_655
Mg7 Mg9 3.297378 1_555
Mg8 Mg9 3.447772 1_555
Mg10 Mg9 3.340901 1_555
Mg10 Mg8 3.340901 1_545
Mg10 Mg7 3.376204 1_455
Mg10 Mg7 3.376204 1_555
Mg10 Mg6 3.376204 1_445
Mg10 Mg6 3.376204 1_545
Mg11 Mg2 3.141371 1_554
Mg11 Mg3 3.141371 1_544
