# generated using pymatgen
data_SrCrN2
_symmetry_space_group_name_H-M   'P 1'
_cell_length_a   6.09719585
_cell_length_b   7.40803843
_cell_length_c   5.67865465
_cell_angle_alpha   90.00000000
_cell_angle_beta   113.91224761
_cell_angle_gamma   90.00000000
_symmetry_Int_Tables_number   1
_chemical_formula_structural   SrCrN2
_chemical_formula_sum   'Sr4 Cr4 N8'
_cell_volume   234.47930955
_cell_formula_units_Z   4
loop_
 _symmetry_equiv_pos_site_id
 _symmetry_equiv_pos_as_xyz
  1  'x, y, z'
loop_
 _atom_site_type_symbol
 _atom_site_label
 _atom_site_symmetry_multiplicity
 _atom_site_fract_x
 _atom_site_fract_y
 _atom_site_fract_z
 _atom_site_occupancy
  Sr  Sr0  1  0.33759635  0.92796819  0.67980305  1
  Sr  Sr1  1  0.66240365  0.42796819  0.82019695  1
  Sr  Sr2  1  0.66240365  0.07203181  0.32019695  1
  Sr  Sr3  1  0.33759635  0.57203181  0.17980305  1
  Cr  Cr0  1  0.11326920  0.36020145  0.57177471  1
  Cr  Cr1  1  0.88673080  0.86020145  0.92822529  1
  Cr  Cr2  1  0.88673080  0.63979855  0.42822529  1
  Cr  Cr3  1  0.11326920  0.13979855  0.07177471  1
  N  N0  1  0.21773262  0.90375756  0.07978864  1
  N  N1  1  0.78226738  0.40375756  0.42021136  1
  N  N2  1  0.78226738  0.09624244  0.92021136  1
  N  N3  1  0.21773262  0.59624244  0.57978864  1
  N  N4  1  0.23630415  0.27417224  0.89205378  1
  N  N5  1  0.76369585  0.77417224  0.60794622  1
  N  N6  1  0.76369585  0.72582776  0.10794622  1
  N  N7  1  0.23630415  0.22582776  0.39205378  1
loop_
_geom_bond_atom_site_label_1
_geom_bond_atom_site_label_2
_geom_bond_distance
_geom_bond_site_symmetry_2
Cr0 N4 1.780652 1_555
Cr0 N7 1.793289 1_555
Cr0 N3 1.855226 1_555
Cr0 N1 1.873445 1_455
Cr1 N5 1.780652 1_555
Cr1 N6 1.793289 1_556
Cr1 N2 1.855226 1_565
Cr1 N0 1.873445 1_656
Cr2 N6 1.780652 1_555
Cr2 N5 1.793289 1_555
Cr2 N1 1.855226 1_555
Cr2 N3 1.873445 1_655
Cr3 N7 1.780652 1_555
Cr3 N4 1.793289 1_554
Cr3 N0 1.855226 1_545
Cr3 N2 1.873445 1_454
N0 Sr3 2.561091 1_555
N0 Sr0 2.659167 1_554
N0 Sr2 2.787108 1_565
N0 Sr0 3.187022 1_555
N1 Sr2 2.561091 1_555
N1 Sr1 2.659167 1_555
N1 Sr3 2.787108 1_555
N1 Sr1 3.187022 1_554
N2 Sr1 2.561091 1_555
N2 Sr2 2.659167 1_556
N2 Sr0 2.787108 1_545
N2 Sr2 3.187022 1_555
N3 Sr0 2.561091 1_555
N3 Sr3 2.659167 1_555
N3 Sr1 2.787108 1_555
N3 Sr3 3.187022 1_556
N4 Sr3 2.665005 1_556
N4 Sr0 3.002546 1_545
N4 Sr1 3.012250 1_555
N4 Sr2 3.127709 1_556
N5 Sr2 2.665005 1_565
N5 Sr1 3.002546 1_555
N5 Sr0 3.012250 1_555
N5 Sr3 3.127709 1_555
N6 Sr1 2.665005 1_554
N6 Sr2 3.002546 1_565
N6 Sr3 3.012250 1_555
N6 Sr0 3.127709 1_554
N7 Sr0 2.665005 1_545
N7 Sr3 3.002546 1_555
N7 Sr2 3.012250 1_555
N7 Sr1 3.127709 1_555
