# generated using pymatgen
data_Li6V3P8O29
_symmetry_space_group_name_H-M   'P 1'
_cell_length_a   9.79899800
_cell_length_b   9.83765953
_cell_length_c   13.98546785
_cell_angle_alpha   89.90094591
_cell_angle_beta   90.44355356
_cell_angle_gamma   119.81867604
_symmetry_Int_Tables_number   1
_chemical_formula_structural   Li6V3P8O29
_chemical_formula_sum   'Li12 V6 P16 O58'
_cell_volume   1169.65396605
_cell_formula_units_Z   2
loop_
 _symmetry_equiv_pos_site_id
 _symmetry_equiv_pos_as_xyz
  1  'x, y, z'
loop_
 _atom_site_type_symbol
 _atom_site_label
 _atom_site_symmetry_multiplicity
 _atom_site_fract_x
 _atom_site_fract_y
 _atom_site_fract_z
 _atom_site_occupancy
  Li  Li0  1  0.77021200  0.09297000  0.05643000  1
  Li  Li1  1  0.33350600  0.09614100  0.56358100  1
  Li  Li2  1  0.67231600  0.33635000  0.88442500  1
  Li  Li3  1  0.32491800  0.23190000  0.05788000  1
  Li  Li4  1  0.90913600  0.67828000  0.05921200  1
  Li  Li5  1  0.23304800  0.32626100  0.44205200  1
  Li  Li6  1  0.76347200  0.66353300  0.56261400  1
  Li  Li7  1  0.32373200  0.66513500  0.61435000  1
  Li  Li8  1  0.32826700  0.66757500  0.10859500  1
  Li  Li9  1  0.67580800  0.91126900  0.44050100  1
  Li  Li10  1  0.00069600  0.99755000  0.98396300  1
  Li  Li11  1  0.99760300  0.00069800  0.51088000  1
  V  V0  1  0.43530600  0.43379800  0.24939200  1
  V  V1  1  0.56350600  0.56447800  0.75412400  1
  V  V2  1  0.99744600  0.43502700  0.74786800  1
  V  V3  1  0.00054400  0.56304200  0.25325100  1
  V  V4  1  0.56675000  0.00212600  0.25096800  1
  V  V5  1  0.43555500  0.99751800  0.75221100  1
  P  P0  1  0.77870900  0.09218900  0.84108300  1
  P  P1  1  0.91832100  0.22623500  0.34398200  1
  P  P2  1  0.31395700  0.08603800  0.34454900  1
  P  P3  1  0.66929100  0.33286200  0.12716300  1
  P  P4  1  0.66218300  0.33274800  0.62869300  1
  P  P5  1  0.31744500  0.22410700  0.84347900  1
  P  P6  1  0.22447800  0.31606000  0.65900600  1
  P  P7  1  0.91137000  0.68527800  0.84618400  1
  P  P8  1  0.08602100  0.31086300  0.15661700  1
  P  P9  1  0.77250100  0.68693600  0.34290200  1
  P  P10  1  0.68649300  0.77667800  0.15848500  1
  P  P11  1  0.33481000  0.66485900  0.37155400  1
  P  P12  1  0.33139100  0.66553700  0.87007500  1
  P  P13  1  0.68479600  0.90741700  0.65636200  1
  P  P14  1  0.08576300  0.77851300  0.65890200  1
  P  P15  1  0.22099000  0.91222700  0.15924900  1
  O  O0  1  0.77183000  0.98773300  0.56700300  1
  O  O1  1  0.74915300  0.08144400  0.33917400  1
  O  O2  1  0.99739200  0.21309200  0.07254100  1
  O  O3  1  0.91921100  0.25767000  0.83403700  1
  O  O4  1  0.62677800  0.10587500  0.83023000  1
  O  O5  1  0.67389200  0.18574400  0.16538400  1
  O  O6  1  0.47179900  0.08761900  0.32488100  1
  O  O7  1  0.21886600  0.01002400  0.07821600  1
  O  O8  1  0.34156500  0.08247000  0.83644300  1
  O  O9  1  0.81294800  0.34232200  0.67477200  1
  O  O10  1  0.91164900  0.37842500  0.33213100  1
  O  O11  1  0.51716400  0.17984500  0.66960700  1
  O  O12  1  0.67357400  0.33785200  0.01978200  1
  O  O13  1  0.65735600  0.33585200  0.52265100  1
  O  O14  1  0.51835000  0.32985700  0.16505000  1
  O  O15  1  0.89735900  0.52153700  0.83440600  1
  O  O16  1  0.81838800  0.48225400  0.16947100  1
  O  O17  1  0.34012800  0.25474800  0.33675100  1
  O  O18  1  0.21232600  0.21395900  0.75153400  1
  O  O19  1  0.22632400  0.22522800  0.57152100  1
  O  O20  1  0.23281000  0.22223300  0.93253600  1
  O  O21  1  0.48247700  0.37356200  0.83189900  1
  O  O22  1  0.65741300  0.47897900  0.67142900  1
  O  O23  1  0.25915500  0.34074400  0.16004800  1
  O  O24  1  0.61523400  0.53123900  0.32340500  1
  O  O25  1  0.90921600  0.65656600  0.33737900  1
  O  O26  1  0.00516200  0.20989300  0.25043100  1
  O  O27  1  0.00720200  0.21571000  0.42844500  1
  O  O28  1  0.98784400  0.78783200  0.57870400  1
  O  O29  1  0.08285200  0.34056700  0.65961600  1
  O  O30  1  0.37541200  0.47863700  0.66763600  1
  O  O31  1  0.74484300  0.66121800  0.83661600  1
  O  O32  1  0.32791300  0.51070900  0.33427600  1
  O  O33  1  0.52216700  0.62872400  0.16862000  1
  O  O34  1  0.78613500  0.78269100  0.07701900  1
  O  O35  1  0.76613200  0.76526100  0.43406100  1
  O  O36  1  0.78517600  0.79954100  0.25623300  1
  O  O37  1  0.66271500  0.74065800  0.66068500  1
  O  O38  1  0.18145900  0.52875300  0.82380000  1
  O  O39  1  0.10034400  0.47462100  0.16665600  1
  O  O40  1  0.47357500  0.65528200  0.82771400  1
  O  O41  1  0.33216500  0.66686900  0.97623200  1
  O  O42  1  0.33355500  0.66422100  0.47862300  1
  O  O43  1  0.48738500  0.81264100  0.33412700  1
  O  O44  1  0.09934500  0.62803100  0.66379900  1
  O  O45  1  0.18823500  0.66481700  0.32436600  1
  O  O46  1  0.65846600  0.91994800  0.15951800  1
  O  O47  1  0.78671900  0.99707700  0.74938900  1
  O  O48  1  0.78235800  0.01023700  0.93078000  1
  O  O49  1  0.52054900  0.89406200  0.66641600  1
  O  O50  1  0.34516600  0.81890600  0.82601300  1
  O  O51  1  0.37126500  0.89725500  0.17060200  1
  O  O52  1  0.07855800  0.74441700  0.15864700  1
  O  O53  1  0.99039500  0.77157500  0.93646900  1
  O  O54  1  0.01172200  0.79253100  0.75816400  1
  O  O55  1  0.25438100  0.92103000  0.65789700  1
  O  O56  1  0.24008800  0.01509000  0.43770700  1
  O  O57  1  0.20133300  0.98903500  0.25772500  1
loop_
_geom_bond_atom_site_label_1
_geom_bond_atom_site_label_2
_geom_bond_distance
_geom_bond_site_symmetry_2
Li0 O2 1.944179 1_555
Li0 O48 1.967011 1_554
Li0 O46 2.082600 1_545
Li0 O5 2.220241 1_555
Li1 O56 1.956214 1_555
Li1 O55 1.997080 1_545
Li1 O19 2.014157 1_555
Li1 O11 2.145863 1_555
Li2 O12 1.893011 1_556
Li2 O15 2.166865 1_555
Li2 O21 2.188443 1_555
Li2 O4 2.215606 1_555
Li3 O7 1.916181 1_555
Li3 O20 1.946118 1_554
Li3 O23 2.075874 1_555
Li3 O14 2.216365 1_555
Li4 O53 1.926677 1_554
Li4 O34 1.951039 1_555
Li4 O52 2.001629 1_655
Li4 O16 2.278808 1_555
Li5 O27 1.928008 1_555
Li5 O19 2.049709 1_555
Li5 O17 2.127526 1_555
Li5 O32 2.182508 1_555
Li6 O28 1.923377 1_555
Li6 O37 2.049690 1_555
Li6 O35 2.050152 1_555
Li6 O22 2.197904 1_555
Li7 O42 1.901652 1_555
Li7 O44 2.161150 1_555
Li7 O49 2.232950 1_555
Li7 O30 2.256415 1_555
Li8 O41 1.851944 1_554
Li8 O39 2.248830 1_555
Li8 O51 2.255944 1_555
Li8 O33 2.270970 1_555
Li9 O0 1.963704 1_555
Li9 O35 2.029948 1_555
Li9 O1 2.034301 1_565
Li9 O43 2.178189 1_555
Li10 O53 2.274710 1_455
Li10 O48 2.320957 1_465
Li10 O20 2.365637 1_565
Li10 O7 2.453375 1_566
Li10 O2 2.471817 1_466
Li10 O34 2.489001 1_456
Li11 O28 2.256001 1_545
Li11 O0 2.296246 1_545
Li11 O27 2.368021 1_655
Li11 O19 2.382241 1_655
Li11 O35 2.531734 1_545
Li11 O56 2.532939 1_655
O0 P13 1.502128 1_555
O1 P1 1.559391 1_555
O1 V4 1.976735 1_555
O2 P8 1.489744 1_655
O3 P0 1.525765 1_555
O3 V2 1.939341 1_555
O4 P0 1.566328 1_555
O4 V5 1.955475 1_545
O5 P3 1.563419 1_555
O5 V4 1.980855 1_555
O6 P2 1.565507 1_555
O6 V4 1.854116 1_555
O7 P15 1.492036 1_545
O8 P5 1.528201 1_555
O8 V5 1.928764 1_545
O9 P4 1.566464 1_555
O9 V2 1.865514 1_555
O10 P1 1.539368 1_555
O10 V3 1.925858 1_655
O11 P4 1.578991 1_555
O11 V5 1.942165 1_545
O12 P3 1.502720 1_555
O13 P4 1.484181 1_555
O14 P3 1.561371 1_555
O14 V0 1.986375 1_555
O15 P7 1.556076 1_555
O15 V2 2.000742 1_555
O16 P3 1.580750 1_555
O16 V3 1.936642 1_655
O17 P2 1.552035 1_555
O17 V0 1.959996 1_555
O18 P6 1.605170 1_555
O18 P5 1.613128 1_555
O19 P6 1.521840 1_555
O20 P5 1.496706 1_555
O21 P5 1.562609 1_555
O21 V1 1.965783 1_555
O22 P4 1.580877 1_555
O22 V1 1.918687 1_555
O23 P8 1.571551 1_555
O23 V0 1.943668 1_555
O24 P9 1.562933 1_555
O24 V0 1.842079 1_555
O25 P9 1.513170 1_555
O25 V3 1.967388 1_655
O26 P8 1.601487 1_555
O26 P1 1.617338 1_455
O27 P1 1.495981 1_455
O28 P14 1.502507 1_655
O29 P6 1.522205 1_555
O29 V2 1.969943 1_455
O30 P6 1.550942 1_555
O30 V1 1.998605 1_555
O31 P7 1.532744 1_555
O31 V1 1.919484 1_555
O32 P11 1.573637 1_555
O32 V0 1.975734 1_555
O33 P10 1.550300 1_555
O33 V0 2.015429 1_555
O34 P10 1.488115 1_555
O35 P9 1.508458 1_555
O36 P9 1.603944 1_555
O36 P10 1.618268 1_555
O37 P13 1.545515 1_555
O37 V1 1.998225 1_555
O38 P12 1.552489 1_555
O38 V2 1.884011 1_455
O39 P8 1.552524 1_555
O39 V3 2.011887 1_555
O40 P12 1.566879 1_555
O40 V1 1.853077 1_555
O41 P12 1.484663 1_555
O42 P11 1.497532 1_555
O43 P11 1.571843 1_555
O43 V4 1.999254 1_565
O44 P14 1.552228 1_555
O44 V2 2.027182 1_455
O45 P11 1.575813 1_555
O45 V3 1.875638 1_555
O46 P10 1.564369 1_555
O46 V4 1.959846 1_565
O47 P13 1.604963 1_555
O47 P0 1.613973 1_565
O48 P0 1.499799 1_555
O49 P13 1.555805 1_555
O49 V5 2.007962 1_555
O50 P12 1.571605 1_555
O50 V5 1.843212 1_555
O51 P15 1.557977 1_555
O51 V4 2.000569 1_565
O52 P15 1.543300 1_555
O52 V3 2.041970 1_555
O53 P7 1.499834 1_555
O54 P7 1.605617 1_455
O54 P14 1.608831 1_555
O55 P14 1.546735 1_555
O55 V5 2.023967 1_555
O56 P2 1.489145 1_555
O57 P2 1.593406 1_565
O57 P15 1.630114 1_555
