# generated using pymatgen
data_Ti3Sn
_symmetry_space_group_name_H-M   'P 1'
_cell_length_a   4.74143888
_cell_length_b   5.73275654
_cell_length_c   5.98024997
_cell_angle_alpha   118.64016234
_cell_angle_beta   90.00000000
_cell_angle_gamma   90.00000000
_symmetry_Int_Tables_number   1
_chemical_formula_structural   Ti3Sn
_chemical_formula_sum   'Ti6 Sn2'
_cell_volume   142.66353162
_cell_formula_units_Z   2
loop_
 _symmetry_equiv_pos_site_id
 _symmetry_equiv_pos_as_xyz
  1  'x, y, z'
loop_
 _atom_site_type_symbol
 _atom_site_label
 _atom_site_symmetry_multiplicity
 _atom_site_fract_x
 _atom_site_fract_y
 _atom_site_fract_z
 _atom_site_occupancy
  Ti  Ti0  1  0.75000000  0.82093195  0.64186389  1
  Ti  Ti1  1  0.25000000  0.17906805  0.35813611  1
  Ti  Ti2  1  0.75000000  0.83200950  0.14641367  1
  Ti  Ti3  1  0.25000000  0.68559583  0.85358633  1
  Ti  Ti4  1  0.25000000  0.16799050  0.85358633  1
  Ti  Ti5  1  0.75000000  0.31440417  0.14641367  1
  Sn  Sn0  1  0.75000000  0.33269892  0.66539885  1
  Sn  Sn1  1  0.25000000  0.66730108  0.33460115  1
loop_
_geom_bond_atom_site_label_1
_geom_bond_atom_site_label_2
_geom_bond_distance
_geom_bond_site_symmetry_2
Ti0 Ti3 2.960926 1_655
Ti0 Ti3 2.960926 1_555
Ti0 Ti4 2.960927 1_565
Ti0 Ti4 2.960927 1_665
Ti0 Ti2 2.987415 1_556
Ti0 Ti5 2.987416 1_566
Ti0 Ti2 2.993873 1_555
Ti0 Ti5 2.993874 1_555
Ti1 Ti5 2.960926 1_555
Ti1 Ti5 2.960926 1_455
Ti1 Ti2 2.960927 1_445
Ti1 Ti2 2.960927 1_545
Ti1 Ti4 2.987415 1_554
Ti1 Ti3 2.987416 1_544
Ti1 Ti4 2.993873 1_555
Ti1 Ti3 2.993874 1_555
Ti2 Ti5 2.765451 1_565
Ti2 Ti3 2.825319 1_554
Ti2 Ti3 2.825319 1_654
Ti2 Ti5 2.967305 1_555
Ti3 Ti4 2.765451 1_565
Ti3 Ti4 2.967305 1_555
Ti4 Ti5 2.825319 1_556
Ti4 Ti5 2.825319 1_456
Sn0 Ti1 2.867239 1_655
Sn0 Ti1 2.867239 1_555
Sn0 Ti0 2.869036 1_545
Sn0 Ti0 2.869042 1_555
Sn0 Ti5 2.928305 1_556
Sn0 Ti2 2.928309 1_556
Sn0 Ti4 2.965991 1_555
Sn0 Ti4 2.965991 1_655
Sn0 Ti3 2.965994 1_555
Sn0 Ti3 2.965994 1_655
Sn0 Ti2 3.054777 1_545
Sn0 Ti5 3.054779 1_555
Sn1 Ti0 2.867239 1_455
Sn1 Ti0 2.867239 1_555
Sn1 Ti1 2.869036 1_565
Sn1 Ti1 2.869042 1_555
Sn1 Ti3 2.928305 1_554
Sn1 Ti4 2.928309 1_554
Sn1 Ti2 2.965991 1_555
Sn1 Ti2 2.965991 1_455
Sn1 Ti5 2.965994 1_455
Sn1 Ti5 2.965994 1_555
Sn1 Ti4 3.054777 1_565
Sn1 Ti3 3.054779 1_555
