# generated using pymatgen
data_Dy2GaNi2
_symmetry_space_group_name_H-M   'P 1'
_cell_length_a   4.16610984
_cell_length_b   5.30154204
_cell_length_c   5.29883928
_cell_angle_alpha   120.01688068
_cell_angle_beta   113.14848339
_cell_angle_gamma   90.00000000
_symmetry_Int_Tables_number   1
_chemical_formula_structural   Dy2GaNi2
_chemical_formula_sum   'Dy2 Ga1 Ni2'
_cell_volume   90.29152984
_cell_formula_units_Z   1
loop_
 _symmetry_equiv_pos_site_id
 _symmetry_equiv_pos_as_xyz
  1  'x, y, z'
loop_
 _atom_site_type_symbol
 _atom_site_label
 _atom_site_symmetry_multiplicity
 _atom_site_fract_x
 _atom_site_fract_y
 _atom_site_fract_z
 _atom_site_occupancy
  Dy  Dy0  1  0.79845948  0.29845948  0.59691896  1
  Dy  Dy1  1  0.20154052  0.70154052  0.40308104  1
  Ga  Ga0  1  -0.00000000  0.00000000  0.00000000  1
  Ni  Ni0  1  0.50000000  0.26683673  0.00000000  1
  Ni  Ni1  1  0.50000000  0.73316327  -0.00000000  1
loop_
_geom_bond_atom_site_label_1
_geom_bond_atom_site_label_2
_geom_bond_distance
_geom_bond_site_symmetry_2
Dy0 Ni1 2.820622 1_545
Dy0 Ni0 2.820623 1_555
Dy0 Ni1 2.929572 1_656
Dy0 Ni1 2.929572 1_556
Dy0 Ni0 2.929572 1_556
Dy0 Ni0 2.929572 1_656
Dy0 Ga0 3.121195 1_666
Dy0 Ga0 3.121195 1_656
Dy0 Ga0 3.208396 1_555
Dy0 Ga0 3.208396 1_655
Dy0 Dy1 3.295615 1_656
Dy0 Dy1 3.463182 1_645
Dy0 Dy1 3.463182 1_545
Dy0 Dy1 3.463182 1_655
Dy0 Dy1 3.463182 1_555
Dy1 Ni0 2.820622 1_566
Dy1 Ni1 2.820623 1_556
Dy1 Ni0 2.929572 1_555
Dy1 Ni0 2.929572 1_455
Dy1 Ni1 2.929572 1_555
Dy1 Ni1 2.929572 1_455
Dy1 Ga0 3.121195 1_555
Dy1 Ga0 3.121195 1_565
Dy1 Ga0 3.208396 1_566
Dy1 Ga0 3.208396 1_666
Ga0 Ni1 2.518003 1_545
Ga0 Ni1 2.518003 1_445
Ga0 Ni0 2.518003 1_455
Ga0 Ni0 2.518003 1_555
Ni0 Ni1 2.472250 1_555
Ni0 Ni1 2.829292 1_545
