# generated using pymatgen
data_Li5Mn2CoO8
_symmetry_space_group_name_H-M   'P 1'
_cell_length_a   3.02919950
_cell_length_b   3.02919950
_cell_length_c   20.21291947
_cell_angle_alpha   83.51388507
_cell_angle_beta   83.51388507
_cell_angle_gamma   57.11250408
_symmetry_Int_Tables_number   1
_chemical_formula_structural   Li5Mn2CoO8
_chemical_formula_sum   'Li5 Mn2 Co1 O8'
_cell_volume   154.45684644
_cell_formula_units_Z   1
loop_
 _symmetry_equiv_pos_site_id
 _symmetry_equiv_pos_as_xyz
  1  'x, y, z'
loop_
 _atom_site_type_symbol
 _atom_site_label
 _atom_site_symmetry_multiplicity
 _atom_site_fract_x
 _atom_site_fract_y
 _atom_site_fract_z
 _atom_site_occupancy
  Li  Li0  1  0.87603400  0.87603400  0.88307300  1
  Li  Li1  1  0.12396600  0.12396600  0.11692700  1
  Li  Li2  1  0.37394100  0.37394100  0.37736700  1
  Li  Li3  1  0.62605900  0.62605900  0.62263300  1
  Li  Li4  1  0.50000000  0.50000000  0.00000000  1
  Mn  Mn0  1  0.25248600  0.25248600  0.74948700  1
  Mn  Mn1  1  0.74751400  0.74751400  0.25051300  1
  Co  Co0  1  0.00000000  0.00000000  0.50000000  1
  O  O0  1  0.58315700  0.58315700  0.80304500  1
  O  O1  1  0.81483200  0.81483200  0.06340200  1
  O  O2  1  0.08375500  0.08375500  0.30789200  1
  O  O3  1  0.31254800  0.31254800  0.55663300  1
  O  O4  1  0.18516800  0.18516800  0.93659800  1
  O  O5  1  0.41684300  0.41684300  0.19695500  1
  O  O6  1  0.68745200  0.68745200  0.44336700  1
  O  O7  1  0.91624500  0.91624500  0.69210800  1
loop_
_geom_bond_atom_site_label_1
_geom_bond_atom_site_label_2
_geom_bond_distance
_geom_bond_site_symmetry_2
Li0 O4 2.004049 1_655
Li0 O4 2.004049 1_565
Li0 O4 2.081915 1_665
Li0 O0 2.338720 1_565
Li0 O0 2.338720 1_655
Li0 O0 2.386218 1_555
Li1 O1 2.004049 1_545
Li1 O1 2.004049 1_455
Li1 O1 2.081915 1_445
Li1 O5 2.338720 1_545
Li1 O5 2.338720 1_455
Li1 O5 2.386218 1_555
Li2 O6 2.126207 1_545
Li2 O6 2.126207 1_455
Li2 O2 2.216324 1_655
Li2 O2 2.216324 1_565
Li2 O2 2.216830 1_555
Li2 O6 2.266148 1_555
Li3 O3 2.126207 1_655
Li3 O3 2.126207 1_565
Li3 O7 2.216324 1_455
Li3 O7 2.216324 1_545
Li3 O7 2.216830 1_555
Li3 O3 2.266148 1_555
Li4 O1 2.094092 1_545
Li4 O1 2.094092 1_455
Li4 O4 2.094092 1_654
Li4 O4 2.094092 1_564
Li4 O1 2.236372 1_555
Li4 O4 2.236372 1_554
Mn0 O0 1.956968 1_455
Mn0 O0 1.956968 1_545
Mn0 O7 1.985275 1_545
Mn0 O7 1.985275 1_455
Mn0 O0 2.181331 1_555
Mn0 O7 2.253969 1_445
Mn1 O5 1.956968 1_565
Mn1 O5 1.956968 1_655
Mn1 O2 1.985275 1_655
Mn1 O2 1.985275 1_565
Mn1 O5 2.181331 1_555
Mn1 O2 2.253969 1_665
Co0 O3 2.026933 1_545
Co0 O3 2.026933 1_455
Co0 O6 2.026933 1_545
Co0 O6 2.026933 1_455
Co0 O3 2.136886 1_555
Co0 O6 2.136886 1_445
