# generated using pymatgen
data_CrReO4
_symmetry_space_group_name_H-M   'P 1'
_cell_length_a   2.90972700
_cell_length_b   6.55168727
_cell_length_c   6.84697648
_cell_angle_alpha   89.99981955
_cell_angle_beta   89.99900503
_cell_angle_gamma   89.99961267
_symmetry_Int_Tables_number   1
_chemical_formula_structural   CrReO4
_chemical_formula_sum   'Cr2 Re2 O8'
_cell_volume   130.52816706
_cell_formula_units_Z   2
loop_
 _symmetry_equiv_pos_site_id
 _symmetry_equiv_pos_as_xyz
  1  'x, y, z'
loop_
 _atom_site_type_symbol
 _atom_site_label
 _atom_site_symmetry_multiplicity
 _atom_site_fract_x
 _atom_site_fract_y
 _atom_site_fract_z
 _atom_site_occupancy
  Cr  Cr0  1  0.49999900  0.00000000  0.50000000  1
  Cr  Cr1  1  0.50000100  0.50000000  0.00000100  1
  Re  Re0  1  0.00000000  0.99999900  0.00000000  1
  Re  Re1  1  0.99999900  0.50000100  0.50000000  1
  O  O0  1  0.49999500  0.49999900  0.29484400  1
  O  O1  1  0.49999700  0.99999800  0.79484600  1
  O  O2  1  0.50000500  0.50000200  0.70515600  1
  O  O3  1  0.50000300  0.00000100  0.20515400  1
  O  O4  1  0.99999700  0.29214500  0.00000100  1
  O  O5  1  0.99999300  0.79214700  0.50000100  1
  O  O6  1  0.00000300  0.70785400  0.99999900  1
  O  O7  1  0.00000700  0.20785300  0.49999900  1
loop_
_geom_bond_atom_site_label_1
_geom_bond_atom_site_label_2
_geom_bond_distance
_geom_bond_site_symmetry_2
Cr0 O7 1.992737 1_555
Cr0 O5 1.992741 1_545
Cr0 O5 1.992780 1_445
Cr0 O7 1.992784 1_655
Cr0 O3 2.018804 1_555
Cr0 O1 2.018804 1_545
Cr1 O6 1.992754 1_554
Cr1 O4 1.992754 1_555
Cr1 O6 1.992776 1_654
Cr1 O4 1.992785 1_455
Cr1 O0 2.018783 1_555
Cr1 O2 2.018797 1_554
O0 Re1 2.022301 1_455
O0 Re1 2.022353 1_555
O1 Re0 2.022293 1_556
O1 Re0 2.022341 1_656
O2 Re1 2.022297 1_555
O2 Re1 2.022357 1_455
O3 Re0 2.022293 1_645
O3 Re0 2.022341 1_545
O4 Re0 1.914049 1_645
O5 Re1 1.914049 1_555
O6 Re0 1.914043 1_556
O7 Re1 1.914062 1_455
