# generated using pymatgen
data_CeP3O14
_symmetry_space_group_name_H-M   'P 1'
_cell_length_a   15.58101941
_cell_length_b   12.75233374
_cell_length_c   7.35117067
_cell_angle_alpha   90.00000000
_cell_angle_beta   90.00000000
_cell_angle_gamma   90.00000000
_symmetry_Int_Tables_number   1
_chemical_formula_structural   CeP3O14
_chemical_formula_sum   'Ce4 P12 O56'
_cell_volume   1460.63614804
_cell_formula_units_Z   4
loop_
 _symmetry_equiv_pos_site_id
 _symmetry_equiv_pos_as_xyz
  1  'x, y, z'
loop_
 _atom_site_type_symbol
 _atom_site_label
 _atom_site_symmetry_multiplicity
 _atom_site_fract_x
 _atom_site_fract_y
 _atom_site_fract_z
 _atom_site_occupancy
  Ce  Ce0  1  0.81105765  0.77258231  0.20778445  1
  Ce  Ce1  1  0.68894235  0.22741769  0.70778445  1
  Ce  Ce2  1  0.31105765  0.72741769  0.79221555  1
  Ce  Ce3  1  0.18894235  0.27258231  0.29221555  1
  P  P0  1  0.64226917  0.13960774  0.21202829  1
  P  P1  1  0.85773083  0.86039226  0.71202829  1
  P  P2  1  0.14226917  0.36039226  0.78797171  1
  P  P3  1  0.35773083  0.63960774  0.28797171  1
  P  P4  1  0.97335568  0.25952567  0.55581709  1
  P  P5  1  0.52664432  0.74047433  0.05581709  1
  P  P6  1  0.47335568  0.24047433  0.44418291  1
  P  P7  1  0.02664432  0.75952567  0.94418291  1
  P  P8  1  0.66859704  0.96758834  0.48601332  1
  P  P9  1  0.83140296  0.03241166  0.98601332  1
  P  P10  1  0.16859704  0.53241166  0.51398668  1
  P  P11  1  0.33140296  0.46758834  0.01398668  1
  O  O0  1  0.00389794  0.65995572  0.81254790  1
  O  O1  1  0.49610206  0.34004428  0.31254790  1
  O  O2  1  0.50389794  0.84004428  0.18745210  1
  O  O3  1  0.99610206  0.15995572  0.68745210  1
  O  O4  1  0.12916963  0.47971151  0.69405136  1
  O  O5  1  0.37083037  0.52028849  0.19405136  1
  O  O6  1  0.62916963  0.02028849  0.30594864  1
  O  O7  1  0.87083037  0.97971151  0.80594864  1
  O  O8  1  0.07343821  0.57482912  0.42264388  1
  O  O9  1  0.42656179  0.42517088  0.92264388  1
  O  O10  1  0.57343821  0.92517088  0.57735612  1
  O  O11  1  0.92656179  0.07482912  0.07735612  1
  O  O12  1  0.82918229  0.60655354  0.04875239  1
  O  O13  1  0.67081771  0.39344646  0.54875239  1
  O  O14  1  0.32918229  0.89344646  0.95124761  1
  O  O15  1  0.17081771  0.10655354  0.45124761  1
  O  O16  1  0.69443811  0.20559317  0.33778817  1
  O  O17  1  0.80556189  0.79440683  0.83778817  1
  O  O18  1  0.19443811  0.29440683  0.66221183  1
  O  O19  1  0.30556189  0.70559317  0.16221183  1
  O  O20  1  0.60252781  0.66223905  0.47270131  1
  O  O21  1  0.89747219  0.33776095  0.97270131  1
  O  O22  1  0.10252781  0.83776095  0.52729869  1
  O  O23  1  0.39747219  0.16223905  0.02729869  1
  O  O24  1  0.54218681  0.20971428  0.57747001  1
  O  O25  1  0.95781319  0.79028572  0.07747001  1
  O  O26  1  0.04218681  0.29028572  0.42252999  1
  O  O27  1  0.45781319  0.70971428  0.92252999  1
  O  O28  1  0.70441956  0.04849872  0.61322228  1
  O  O29  1  0.79558044  0.95150128  0.11322228  1
  O  O30  1  0.20441956  0.45150128  0.38677772  1
  O  O31  1  0.29558044  0.54849872  0.88677772  1
  O  O32  1  0.75266281  0.40028924  0.57106839  1
  O  O33  1  0.74733719  0.59971076  0.07106839  1
  O  O34  1  0.25266281  0.09971076  0.42893161  1
  O  O35  1  0.24733719  0.90028924  0.92893161  1
  O  O36  1  0.63380868  0.27397963  0.91048306  1
  O  O37  1  0.86619132  0.72602037  0.41048306  1
  O  O38  1  0.13380868  0.22602037  0.08951694  1
  O  O39  1  0.36619132  0.77397963  0.58951694  1
  O  O40  1  0.77773918  0.12653093  0.94099313  1
  O  O41  1  0.72226082  0.87346907  0.44099313  1
  O  O42  1  0.27773918  0.37346907  0.05900687  1
  O  O43  1  0.22226082  0.62653093  0.55900687  1
  O  O44  1  0.82218705  0.35909635  0.00854469  1
  O  O45  1  0.67781295  0.64090365  0.50854469  1
  O  O46  1  0.32218705  0.14090365  0.99145531  1
  O  O47  1  0.17781295  0.85909635  0.49145531  1
  O  O48  1  0.41298222  0.40306149  0.74517882  1
  O  O49  1  0.08701778  0.59693851  0.24517882  1
  O  O50  1  0.91298222  0.09693851  0.25482118  1
  O  O51  1  0.58701778  0.90306149  0.75482118  1
  O  O52  1  0.06295270  0.09026069  0.69576480  1
  O  O53  1  0.43704730  0.90973931  0.19576480  1
  O  O54  1  0.56295270  0.40973931  0.30423520  1
  O  O55  1  0.93704730  0.59026069  0.80423520  1
loop_
_geom_bond_atom_site_label_1
_geom_bond_atom_site_label_2
_geom_bond_distance
_geom_bond_site_symmetry_2
Ce0 O37 1.819568 1_555
Ce0 O29 2.397339 1_555
Ce0 O12 2.435004 1_555
Ce0 O25 2.489419 1_555
Ce0 O33 2.618334 1_555
Ce1 O36 1.819568 1_555
Ce1 O28 2.397339 1_555
Ce1 O13 2.435004 1_555
Ce1 O24 2.489419 1_555
Ce1 O32 2.618334 1_555
Ce2 O39 1.819568 1_555
Ce2 O31 2.397339 1_555
Ce2 O14 2.435004 1_555
Ce2 O27 2.489419 1_555
Ce2 O35 2.618334 1_555
Ce3 O38 1.819568 1_555
Ce3 O30 2.397339 1_555
Ce3 O15 2.435004 1_555
Ce3 O26 2.489419 1_555
Ce3 O34 2.618334 1_555
O0 O55 1.370615 1_455
O0 P7 1.635316 1_555
O1 O54 1.370615 1_555
O1 P6 1.635316 1_555
O2 O53 1.370615 1_555
O2 P5 1.635316 1_555
O3 O52 1.370615 1_655
O3 P4 1.635316 1_555
O4 P10 1.606606 1_555
O4 P2 1.683332 1_555
O5 P11 1.606606 1_555
O5 P3 1.683332 1_555
O6 P8 1.606606 1_545
O6 P0 1.683332 1_555
O7 P9 1.606606 1_565
O7 P1 1.683332 1_555
O8 P10 1.715165 1_555
O9 P11 1.715165 1_556
O10 O51 1.351362 1_555
O10 P8 1.715165 1_555
O11 O50 1.351362 1_555
O11 P9 1.715165 1_554
O12 O33 1.288696 1_555
O13 O32 1.288696 1_555
O14 O35 1.288696 1_555
O15 O34 1.288696 1_555
O16 P0 1.491125 1_555
O17 P1 1.491125 1_555
O18 P2 1.491125 1_555
O19 P3 1.491125 1_555
O20 O45 1.232650 1_555
O21 O44 1.232650 1_556
O22 O47 1.232650 1_555
O23 O46 1.232650 1_554
O24 P6 1.504685 1_555
O25 P7 1.504685 1_654
O26 P4 1.504685 1_455
O27 P5 1.504685 1_556
O28 P8 1.500204 1_545
O29 P9 1.500204 1_564
O30 P10 1.500204 1_555
O31 P11 1.500204 1_556
O40 P9 1.499743 1_555
O41 P8 1.499743 1_555
O42 P11 1.499743 1_555
O43 P10 1.499743 1_555
O48 O9 1.351362 1_555
O49 O8 1.351362 1_555
