# generated using pymatgen
data_Cs2VBr5O4
_symmetry_space_group_name_H-M   'P 1'
_cell_length_a   5.91231000
_cell_length_b   7.24474764
_cell_length_c   9.68205651
_cell_angle_alpha   109.21782597
_cell_angle_beta   107.77760026
_cell_angle_gamma   90.00000000
_symmetry_Int_Tables_number   1
_chemical_formula_structural   Cs2VBr5O4
_chemical_formula_sum   'Cs2 V1 Br5 O4'
_cell_volume   370.56707749
_cell_formula_units_Z   1
loop_
 _symmetry_equiv_pos_site_id
 _symmetry_equiv_pos_as_xyz
  1  'x, y, z'
loop_
 _atom_site_type_symbol
 _atom_site_label
 _atom_site_symmetry_multiplicity
 _atom_site_fract_x
 _atom_site_fract_y
 _atom_site_fract_z
 _atom_site_occupancy
  Cs  Cs0  1  0.70343900  0.73114800  0.40687800  1
  Cs  Cs1  1  0.29656100  0.26885200  0.59312200  1
  V  V0  1  0.00000000  0.00000000  0.00000000  1
  Br  Br0  1  0.89489100  0.16257400  0.78978200  1
  Br  Br1  1  0.10510900  0.83742600  0.21021800  1
  Br  Br2  1  0.67007700  0.20785300  0.34015400  1
  Br  Br3  1  0.32992300  0.79214700  0.65984600  1
  Br  Br4  1  0.50000000  0.50000000  0.00000000  1
  O  O0  1  0.73359000  0.81941100  0.90193200  1
  O  O1  1  0.16834200  0.81941100  0.90193200  1
  O  O2  1  0.26641000  0.18058900  0.09806800  1
  O  O3  1  0.83165800  0.18058900  0.09806800  1
loop_
_geom_bond_atom_site_label_1
_geom_bond_atom_site_label_2
_geom_bond_distance
_geom_bond_site_symmetry_2
Br0 V0 2.592647 1_656
Br0 Cs1 3.685694 1_655
Br0 Cs1 3.685694 1_555
Br0 Cs0 3.821487 1_545
Br1 V0 2.592647 1_565
Br1 Cs0 3.685694 1_555
Br1 Cs0 3.685694 1_455
Br1 Cs1 3.821487 1_565
Br2 Cs0 3.624754 1_555
Br2 Cs1 3.696106 1_555
Br2 Cs1 3.696106 1_655
Br2 Cs0 3.711420 1_545
Br3 Cs1 3.624754 1_555
Br3 Cs0 3.696106 1_455
Br3 Cs0 3.696106 1_555
Br3 Cs1 3.711420 1_565
Br4 Cs0 3.540292 1_555
Br4 Cs1 3.540292 1_554
O0 V0 1.833885 1_666
O1 V0 1.833885 1_566
O2 V0 1.833885 1_555
O3 V0 1.833885 1_655
