# generated using pymatgen
data_LaFeGe2O7
_symmetry_space_group_name_H-M   'P 1'
_cell_length_a   6.72827800
_cell_length_b   7.42080700
_cell_length_c   13.24634423
_cell_angle_alpha   62.70281283
_cell_angle_beta   90.00000000
_cell_angle_gamma   90.00000000
_symmetry_Int_Tables_number   1
_chemical_formula_structural   LaFeGe2O7
_chemical_formula_sum   'La4 Fe4 Ge8 O28'
_cell_volume   587.72861482
_cell_formula_units_Z   4
loop_
 _symmetry_equiv_pos_site_id
 _symmetry_equiv_pos_as_xyz
  1  'x, y, z'
loop_
 _atom_site_type_symbol
 _atom_site_label
 _atom_site_symmetry_multiplicity
 _atom_site_fract_x
 _atom_site_fract_y
 _atom_site_fract_z
 _atom_site_occupancy
  La  La0  1  0.64671900  0.75842600  0.47595600  1
  La  La1  1  0.14671900  0.24157400  0.02404400  1
  La  La2  1  0.35328100  0.24157400  0.52404400  1
  La  La3  1  0.85328100  0.75842600  0.97595600  1
  Fe  Fe0  1  0.89731100  0.78701400  0.23189700  1
  Fe  Fe1  1  0.60268900  0.78701400  0.73189700  1
  Fe  Fe2  1  0.10268900  0.21298600  0.76810300  1
  Fe  Fe3  1  0.39731100  0.21298600  0.26810300  1
  Ge  Ge0  1  0.65743500  0.21451600  0.04125500  1
  Ge  Ge1  1  0.90902700  0.29773400  0.28080200  1
  Ge  Ge2  1  0.84256500  0.21451600  0.54125500  1
  Ge  Ge3  1  0.34256500  0.78548400  0.95874500  1
  Ge  Ge4  1  0.09097300  0.70226600  0.71919800  1
  Ge  Ge5  1  0.59097300  0.29773400  0.78080200  1
  Ge  Ge6  1  0.40902700  0.70226600  0.21919800  1
  Ge  Ge7  1  0.15743500  0.78548400  0.45874500  1
  O  O0  1  0.68616200  0.15608500  0.31317900  1
  O  O1  1  0.18616200  0.84391500  0.18682100  1
  O  O2  1  0.31383800  0.84391500  0.68682100  1
  O  O3  1  0.81383800  0.15608500  0.81317900  1
  O  O4  1  0.95325200  0.79374000  0.37347700  1
  O  O5  1  0.45325200  0.20626000  0.12652300  1
  O  O6  1  0.04674800  0.20626000  0.62652300  1
  O  O7  1  0.54674800  0.79374000  0.87347700  1
  O  O8  1  0.49513000  0.74754300  0.07851500  1
  O  O9  1  0.99513000  0.25245700  0.42148500  1
  O  O10  1  0.50487000  0.25245700  0.92148500  1
  O  O11  1  0.00487000  0.74754300  0.57851500  1
  O  O12  1  0.83271400  0.01015900  0.07894500  1
  O  O13  1  0.33271400  0.98984100  0.42105500  1
  O  O14  1  0.16728600  0.98984100  0.92105500  1
  O  O15  1  0.66728600  0.01015900  0.57894500  1
  O  O16  1  0.17721500  0.59091700  0.98305000  1
  O  O17  1  0.67721500  0.40908300  0.51695000  1
  O  O18  1  0.82278500  0.40908300  0.01695000  1
  O  O19  1  0.32278500  0.59091700  0.48305000  1
  O  O20  1  0.89334200  0.77896500  0.77886400  1
  O  O21  1  0.39334200  0.22103500  0.72113600  1
  O  O22  1  0.10665800  0.22103500  0.22113600  1
  O  O23  1  0.60665800  0.77896500  0.27886400  1
  O  O24  1  0.62630600  0.56315000  0.69681000  1
  O  O25  1  0.12630600  0.43685000  0.80319000  1
  O  O26  1  0.37369400  0.43685000  0.30319000  1
  O  O27  1  0.87369400  0.56315000  0.19681000  1
loop_
_geom_bond_atom_site_label_1
_geom_bond_atom_site_label_2
_geom_bond_distance
_geom_bond_site_symmetry_2
La0 O17 2.401325 1_555
La0 O4 2.416356 1_555
La0 O19 2.489411 1_555
La0 O23 2.558694 1_555
La0 O24 2.605565 1_555
La0 O13 2.606918 1_555
La0 O11 2.749244 1_655
La0 O0 2.755298 1_565
La0 O15 2.776221 1_565
La1 O16 2.401325 1_554
La1 O5 2.416356 1_555
La1 O18 2.489411 1_455
La1 O22 2.558694 1_555
La1 O25 2.605565 1_554
La1 O12 2.606918 1_455
La1 O10 2.749244 1_554
La1 O1 2.755298 1_545
La1 O14 2.776221 1_544
La2 O19 2.401325 1_555
La2 O6 2.416356 1_555
La2 O17 2.489411 1_555
La2 O21 2.558694 1_555
La2 O26 2.605565 1_555
La2 O15 2.606918 1_555
La2 O9 2.749244 1_455
La2 O2 2.755298 1_545
La2 O13 2.776221 1_545
La3 O18 2.401325 1_556
La3 O7 2.416356 1_555
La3 O16 2.489411 1_655
La3 O20 2.558694 1_555
La3 O27 2.605565 1_556
La3 O14 2.606918 1_655
La3 O8 2.749244 1_556
La3 O3 2.755298 1_565
La3 O12 2.776221 1_566
Fe0 O27 1.925930 1_555
Fe0 O4 1.935770 1_555
Fe0 O12 1.989631 1_565
Fe0 O1 2.020059 1_655
Fe0 O23 2.044723 1_555
Fe1 O24 1.925930 1_555
Fe1 O7 1.935770 1_555
Fe1 O15 1.989631 1_565
Fe1 O2 2.020059 1_555
Fe1 O20 2.044723 1_555
Fe2 O25 1.925930 1_555
Fe2 O6 1.935770 1_555
Fe2 O14 1.989631 1_545
Fe2 O3 2.020059 1_455
Fe2 O21 2.044723 1_555
Fe3 O26 1.925930 1_555
Fe3 O5 1.935770 1_555
Fe3 O13 1.989631 1_545
Fe3 O0 2.020059 1_555
Fe3 O22 2.044723 1_555
Ge0 O18 1.731957 1_555
Ge0 O5 1.761634 1_555
Ge0 O10 1.800082 1_554
Ge0 O12 1.801494 1_555
Ge1 O0 1.767442 1_555
Ge1 O22 1.769001 1_655
Ge1 O27 1.778696 1_555
Ge1 O9 1.829474 1_555
Ge2 O17 1.731957 1_555
Ge2 O6 1.761634 1_655
Ge2 O9 1.800082 1_555
Ge2 O15 1.801494 1_555
Ge3 O16 1.731957 1_555
Ge3 O7 1.761634 1_555
Ge3 O8 1.800082 1_556
Ge3 O14 1.801494 1_555
Ge4 O2 1.767442 1_555
Ge4 O20 1.769001 1_455
Ge4 O25 1.778696 1_555
Ge4 O11 1.829474 1_555
Ge5 O3 1.767442 1_555
Ge5 O21 1.769001 1_555
Ge5 O24 1.778696 1_555
Ge5 O10 1.829474 1_555
Ge6 O1 1.767442 1_555
Ge6 O23 1.769001 1_555
Ge6 O26 1.778696 1_555
Ge6 O8 1.829474 1_555
Ge7 O19 1.731957 1_555
Ge7 O4 1.761634 1_455
Ge7 O11 1.800082 1_555
Ge7 O13 1.801494 1_555
