# generated using pymatgen
data_F2
_symmetry_space_group_name_H-M   'P 1'
_cell_length_a   3.07105177
_cell_length_b   3.07105166
_cell_length_c   5.99240250
_cell_angle_alpha   89.99989259
_cell_angle_beta   89.99990108
_cell_angle_gamma   109.35314780
_symmetry_Int_Tables_number   1
_chemical_formula_structural   F2
_chemical_formula_sum   F4
_cell_volume   53.32297349
_cell_formula_units_Z   2
loop_
 _symmetry_equiv_pos_site_id
 _symmetry_equiv_pos_as_xyz
  1  'x, y, z'
loop_
 _atom_site_type_symbol
 _atom_site_label
 _atom_site_symmetry_multiplicity
 _atom_site_fract_x
 _atom_site_fract_y
 _atom_site_fract_z
 _atom_site_occupancy
  F  F0  1  0.11792043  0.11792043  0.09518522  1
  F  F1  1  0.38208057  0.38208057  0.59518522  1
  F  F2  1  0.61792143  0.61792143  0.40481478  1
  F  F3  1  0.88207857  0.88207857  0.90481478  1
loop_
_geom_bond_atom_site_label_1
_geom_bond_atom_site_label_2
_geom_bond_distance
_geom_bond_site_symmetry_2
F0 F3 1.415225 1_444
F1 F2 1.415219 1_555
