# generated using pymatgen
data_Ti4Co4Si7
_symmetry_space_group_name_H-M   'P 1'
_cell_length_a   9.12104858
_cell_length_b   9.12104460
_cell_length_c   9.12216235
_cell_angle_alpha   94.10996518
_cell_angle_beta   94.11012001
_cell_angle_gamma   148.94268418
_symmetry_Int_Tables_number   1
_chemical_formula_structural   Ti4Co4Si7
_chemical_formula_sum   'Ti8 Co8 Si14'
_cell_volume   377.22442885
_cell_formula_units_Z   2
loop_
 _symmetry_equiv_pos_site_id
 _symmetry_equiv_pos_as_xyz
  1  'x, y, z'
loop_
 _atom_site_type_symbol
 _atom_site_label
 _atom_site_symmetry_multiplicity
 _atom_site_fract_x
 _atom_site_fract_y
 _atom_site_fract_z
 _atom_site_occupancy
  Ti  Ti0  1  0.13570967  0.13571660  0.27141857  1
  Ti  Ti1  1  0.86428606  0.86429262  0.72858513  1
  Ti  Ti2  1  0.86425762  0.13572979  -0.00001253  1
  Ti  Ti3  1  0.13572911  0.86425657  -0.00001315  1
  Ti  Ti4  1  0.50001198  0.69354366  0.19348350  1
  Ti  Ti5  1  0.49997513  0.30646082  0.80650879  1
  Ti  Ti6  1  0.30645618  0.49997431  0.80650413  1
  Ti  Ti7  1  0.69354001  0.50001205  0.19347885  1
  Co  Co0  1  0.39948013  0.89946670  0.79896701  1
  Co  Co1  1  0.10052949  0.60051781  0.20102857  1
  Co  Co2  1  0.10053234  0.89948558  0.50001617  1
  Co  Co3  1  0.39948002  0.60053552  0.50001635  1
  Co  Co4  1  0.60053274  0.39948458  0.50001525  1
  Co  Co5  1  0.89948079  0.10053389  0.50001509  1
  Co  Co6  1  0.89947525  0.39946629  0.79896637  1
  Co  Co7  1  0.60052955  0.10052007  0.20102879  1
  Si  Si0  1  0.29272578  0.29272900  0.58545300  1
  Si  Si1  1  0.70727787  0.70728104  0.41455583  1
  Si  Si2  1  0.70727821  0.29271561  -0.00000569  1
  Si  Si3  1  0.29271647  0.70727779  -0.00000581  1
  Si  Si4  1  0.99998561  0.29569538  0.29569880  1
  Si  Si5  1  0.00001689  0.70430853  0.70430797  1
  Si  Si6  1  0.70430829  0.00001616  0.70430677  1
  Si  Si7  1  0.29569507  0.99998489  0.29569744  1
  Si  Si8  1  0.49998866  0.90540227  0.40537461  1
  Si  Si9  1  0.50000989  0.09460052  0.59462684  1
  Si  Si10  1  0.09459689  0.50001153  0.59462557  1
  Si  Si11  1  0.90539899  0.49999040  0.40537307  1
  Si  Si12  1  0.74947925  0.74948014  -0.00001379  1
  Si  Si13  1  0.25051206  0.25051288  -0.00000153  1
loop_
_geom_bond_atom_site_label_1
_geom_bond_atom_site_label_2
_geom_bond_distance
_geom_bond_site_symmetry_2
Co0 Si3 2.275105 1_556
Co0 Si2 2.275183 1_566
Co0 Si6 2.325084 1_565
Co0 Si5 2.325137 1_555
Co0 Si10 2.325277 1_555
Co0 Si9 2.325427 1_565
Co0 Co6 2.441878 1_565
Co0 Co6 2.441901 1_455
Co0 Ti2 2.940274 1_566
Co0 Ti3 2.940432 1_556
Co0 Ti6 2.957895 1_555
Co0 Ti5 2.958033 1_565
Co1 Si3 2.275163 1_555
Co1 Si2 2.275224 1_455
Co1 Si4 2.325109 1_455
Co1 Si7 2.325146 1_555
Co1 Si8 2.325317 1_555
Co1 Si11 2.325454 1_455
Co1 Co7 2.441884 1_455
Co1 Co7 2.441895 1_565
Co1 Ti2 2.940393 1_455
Co1 Ti3 2.940532 1_555
Co1 Ti4 2.957804 1_555
Co1 Ti7 2.957911 1_455
Co2 Si0 2.275145 1_565
Co2 Si1 2.275212 1_455
Co2 Si5 2.325254 1_555
Co2 Si9 2.325401 1_565
Co2 Si7 2.325441 1_555
Co2 Si11 2.325502 1_455
Co2 Co4 2.441889 1_455
Co2 Co4 2.441890 1_565
Co2 Ti1 2.940846 1_455
Co2 Ti0 2.941013 1_565
Co2 Ti5 2.958234 1_565
Co2 Ti7 2.958592 1_455
Co3 Si0 2.275177 1_555
Co3 Si1 2.275258 1_555
Co3 Si6 2.325211 1_565
Co3 Si4 2.325399 1_455
Co3 Si10 2.325442 1_555
Co3 Si8 2.325535 1_555
Co3 Co5 2.441889 1_455
Co3 Co5 2.441891 1_565
Co3 Ti1 2.940760 1_555
Co3 Ti0 2.940931 1_555
Co3 Ti6 2.958404 1_555
Co3 Ti4 2.958762 1_555
Co4 Si0 2.275181 1_555
Co4 Si1 2.275242 1_555
Co4 Si5 2.325247 1_655
Co4 Si7 2.325429 1_545
Co4 Si9 2.325463 1_555
Co4 Si11 2.325551 1_555
Co4 Ti1 2.940796 1_555
Co4 Ti0 2.940960 1_555
Co4 Ti5 2.958451 1_555
Co4 Ti7 2.958788 1_555
Co5 Si0 2.275151 1_655
Co5 Si1 2.275206 1_545
Co5 Si6 2.325231 1_555
Co5 Si10 2.325395 1_655
Co5 Si4 2.325403 1_555
Co5 Si8 2.325482 1_545
Co5 Ti1 2.940810 1_545
Co5 Ti0 2.940974 1_655
Co5 Ti6 2.958207 1_655
Co5 Ti4 2.958545 1_545
Co6 Si3 2.275131 1_656
Co6 Si2 2.275168 1_556
Co6 Si6 2.324984 1_555
Co6 Si5 2.325229 1_655
Co6 Si9 2.325343 1_555
Co6 Si10 2.325352 1_655
Co6 Ti2 2.940296 1_556
Co6 Ti3 2.940411 1_656
Co6 Ti6 2.957828 1_655
Co6 Ti5 2.958102 1_555
Co7 Si3 2.275171 1_545
Co7 Si2 2.275216 1_555
Co7 Si4 2.325006 1_555
Co7 Si7 2.325251 1_545
Co7 Si8 2.325381 1_545
Co7 Si11 2.325386 1_555
Co7 Ti2 2.940408 1_555
Co7 Ti3 2.940524 1_545
Co7 Ti4 2.957712 1_545
Co7 Ti7 2.958001 1_555
Si0 Ti6 2.582025 1_555
Si0 Ti5 2.582067 1_555
Si0 Ti1 2.746847 1_555
Si0 Ti1 2.746942 1_445
Si0 Ti0 2.760109 1_555
Si1 Ti4 2.582240 1_555
Si1 Ti7 2.582289 1_555
Si1 Ti0 2.746875 1_555
Si1 Ti0 2.746955 1_665
Si1 Ti1 2.760064 1_555
Si2 Ti7 2.581697 1_555
Si2 Ti5 2.581790 1_554
Si2 Ti3 2.746651 1_655
Si2 Ti3 2.746656 1_545
Si2 Ti2 2.759157 1_555
Si3 Ti4 2.581689 1_555
Si3 Ti6 2.581786 1_554
Si3 Ti2 2.746649 1_455
Si3 Ti2 2.746650 1_565
Si3 Ti3 2.759165 1_555
Si4 Ti0 2.607413 1_655
Si4 Ti2 2.607777 1_555
Si4 Ti4 2.752282 1_545
Si4 Ti4 2.752715 1_655
Si5 Ti3 2.607492 1_556
Si5 Ti1 2.607517 1_455
Si5 Ti5 2.752285 1_565
Si5 Ti5 2.752720 1_455
Si6 Ti1 2.607398 1_545
Si6 Ti2 2.607507 1_556
Si6 Ti6 2.752261 1_655
Si6 Ti6 2.752698 1_545
Si7 Ti0 2.607537 1_565
Si7 Ti3 2.607770 1_555
Si7 Ti7 2.752302 1_455
Si7 Ti7 2.752736 1_565
Si8 Si9 2.351754 1_565
Si8 Ti4 2.633543 1_555
Si9 Ti5 2.633568 1_555
Si10 Si11 2.351751 1_455
Si10 Ti6 2.633553 1_555
Si11 Ti7 2.633551 1_555
Si12 Si13 2.436876 1_555
Si12 Si13 2.446903 1_665
Si12 Ti1 2.680870 1_554
Si12 Ti0 2.681073 1_665
Si12 Ti2 2.681133 1_565
Si12 Ti3 2.681150 1_655
Si12 Ti5 2.696070 1_554
Si12 Ti6 2.696107 1_554
Si12 Ti7 2.696107 1_555
Si12 Ti4 2.696149 1_555
Si13 Ti1 2.680922 1_444
Si13 Ti0 2.681017 1_555
Si13 Ti2 2.681135 1_455
Si13 Ti3 2.681150 1_545
Si13 Ti5 2.696020 1_554
Si13 Ti6 2.696053 1_554
Si13 Ti7 2.696161 1_555
Si13 Ti4 2.696199 1_555
