# generated using pymatgen
data_Ho8Ga3Co
_symmetry_space_group_name_H-M   'P 1'
_cell_length_a   9.97663581
_cell_length_b   9.97663581
_cell_length_c   6.84153800
_cell_angle_alpha   90.00000000
_cell_angle_beta   90.00000000
_cell_angle_gamma   119.99999873
_symmetry_Int_Tables_number   1
_chemical_formula_structural   Ho8Ga3Co
_chemical_formula_sum   'Ho16 Ga6 Co2'
_cell_volume   589.72918152
_cell_formula_units_Z   2
loop_
 _symmetry_equiv_pos_site_id
 _symmetry_equiv_pos_as_xyz
  1  'x, y, z'
loop_
 _atom_site_type_symbol
 _atom_site_label
 _atom_site_symmetry_multiplicity
 _atom_site_fract_x
 _atom_site_fract_y
 _atom_site_fract_z
 _atom_site_occupancy
  Ho  Ho0  1  0.17279400  0.82720600  0.50847100  1
  Ho  Ho1  1  0.65441100  0.82720600  0.50847100  1
  Ho  Ho2  1  0.17279400  0.34558900  0.50847100  1
  Ho  Ho3  1  0.82720600  0.17279400  0.00847100  1
  Ho  Ho4  1  0.34558900  0.17279400  0.00847100  1
  Ho  Ho5  1  0.82720600  0.65441100  0.00847100  1
  Ho  Ho6  1  0.33333300  0.66666700  0.82887900  1
  Ho  Ho7  1  0.66666700  0.33333300  0.32887900  1
  Ho  Ho8  1  0.46418200  0.53581800  0.20828000  1
  Ho  Ho9  1  0.07163500  0.53581800  0.20828000  1
  Ho  Ho10  1  0.46418200  0.92836500  0.20828000  1
  Ho  Ho11  1  0.53581800  0.46418200  0.70828000  1
  Ho  Ho12  1  0.92836500  0.46418200  0.70828000  1
  Ho  Ho13  1  0.53581800  0.07163500  0.70828000  1
  Ho  Ho14  1  0.00000000  0.00000000  0.22860700  1
  Ho  Ho15  1  0.00000000  0.00000000  0.72860700  1
  Ga  Ga0  1  0.16357500  0.83642500  0.96203300  1
  Ga  Ga1  1  0.67284900  0.83642500  0.96203300  1
  Ga  Ga2  1  0.16357500  0.32715100  0.96203300  1
  Ga  Ga3  1  0.83642500  0.16357500  0.46203300  1
  Ga  Ga4  1  0.32715100  0.16357500  0.46203300  1
  Ga  Ga5  1  0.83642500  0.67284900  0.46203300  1
  Co  Co0  1  0.33333300  0.66666700  0.44318300  1
  Co  Co1  1  0.66666700  0.33333300  0.94318300  1
loop_
_geom_bond_atom_site_label_1
_geom_bond_atom_site_label_2
_geom_bond_distance
_geom_bond_site_symmetry_2
Ga0 Ho5 2.926803 1_456
Ga0 Ho4 2.926803 1_566
Ga0 Ho6 3.071622 1_555
Ga0 Ho0 3.107148 1_555
Ga0 Ho9 3.150078 1_556
Ga0 Ho10 3.150078 1_556
Ga0 Ho15 3.246530 1_565
Ga0 Ho14 3.363886 1_566
Ga0 Ho13 3.687494 1_565
Ga0 Ho12 3.687494 1_455
Ga0 Ho0 3.741869 1_556
Ga1 Ho3 2.926802 1_566
Ga1 Ho5 2.926820 1_556
Ga1 Ho6 3.071622 1_555
Ga1 Ho1 3.107148 1_555
Ga1 Ho10 3.150078 1_556
Ga1 Ho8 3.150078 1_556
Ga1 Ho15 3.246537 1_665
Ga1 Ho14 3.363893 1_666
Ga1 Ho13 3.687480 1_565
Ga1 Ho11 3.687496 1_555
Ga1 Ho1 3.741869 1_556
Ga2 Ho3 2.926802 1_456
Ga2 Ho4 2.926820 1_556
Ga2 Ho6 3.071622 1_555
Ga2 Ho2 3.107148 1_555
Ga2 Ho9 3.150078 1_556
Ga2 Ho8 3.150078 1_556
Ga2 Ho15 3.246537 1_555
Ga2 Ho14 3.363893 1_556
Ga2 Ho12 3.687480 1_455
Ga2 Ho11 3.687496 1_555
Ga2 Ho2 3.741869 1_556
Ga3 Ho1 2.926803 1_545
Ga3 Ho2 2.926803 1_655
Ga3 Ho7 3.071622 1_555
Ga3 Ho3 3.107148 1_555
Ga3 Ho13 3.150078 1_555
Ga3 Ho12 3.150078 1_555
Ga3 Ho14 3.246530 1_655
Ga3 Ho15 3.363886 1_655
Ga3 Ho9 3.687494 1_655
Ga3 Ho10 3.687494 1_545
Ga3 Ho3 3.741869 1_556
Ga4 Ho0 2.926802 1_545
Ga4 Ho2 2.926820 1_555
Ga4 Ho7 3.071622 1_555
Ga4 Ho4 3.107148 1_555
Ga4 Ho13 3.150078 1_555
Ga4 Ho11 3.150078 1_555
Ga4 Ho14 3.246537 1_555
Ga4 Ho15 3.363893 1_555
Ga4 Ho10 3.687480 1_545
Ga4 Ho8 3.687496 1_555
Ga4 Ho4 3.741869 1_556
Ga5 Ho0 2.926802 1_655
Ga5 Ho1 2.926820 1_555
Ga5 Ho7 3.071622 1_555
Ga5 Ho5 3.107148 1_555
Ga5 Ho12 3.150078 1_555
Ga5 Ho11 3.150078 1_555
Ga5 Ho14 3.246537 1_665
Ga5 Ho15 3.363893 1_665
Ga5 Ho9 3.687480 1_655
Ga5 Ho8 3.687496 1_555
Ga5 Ho5 3.741869 1_556
Co0 Ho6 2.638754 1_555
Co0 Ho8 2.774027 1_555
Co0 Ho10 2.774027 1_555
Co0 Ho9 2.774027 1_555
Co0 Ho0 2.809850 1_555
Co0 Ho2 2.809850 1_555
Co0 Ho1 2.809850 1_555
Co1 Ho7 2.638754 1_556
Co1 Ho11 2.774027 1_555
Co1 Ho12 2.774027 1_555
Co1 Ho13 2.774027 1_555
Co1 Ho3 2.809850 1_556
Co1 Ho5 2.809850 1_556
Co1 Ho4 2.809850 1_556
