# generated using pymatgen
data_Mg14CoSn
_symmetry_space_group_name_H-M   'P 1'
_cell_length_a   6.20582156
_cell_length_b   6.20582156
_cell_length_c   10.24417600
_cell_angle_alpha   90.00000000
_cell_angle_beta   90.00000000
_cell_angle_gamma   119.99999535
_symmetry_Int_Tables_number   1
_chemical_formula_structural   Mg14CoSn
_chemical_formula_sum   'Mg14 Co1 Sn1'
_cell_volume   341.66953107
_cell_formula_units_Z   1
loop_
 _symmetry_equiv_pos_site_id
 _symmetry_equiv_pos_as_xyz
  1  'x, y, z'
loop_
 _atom_site_type_symbol
 _atom_site_label
 _atom_site_symmetry_multiplicity
 _atom_site_fract_x
 _atom_site_fract_y
 _atom_site_fract_z
 _atom_site_occupancy
  Mg  Mg0  1  0.99645600  0.49822800  0.00000000  1
  Mg  Mg1  1  0.00026000  0.50013000  0.50000000  1
  Mg  Mg2  1  0.50177200  0.00354400  0.00000000  1
  Mg  Mg3  1  0.49987000  0.99974000  0.50000000  1
  Mg  Mg4  1  0.50177200  0.49822800  0.00000000  1
  Mg  Mg5  1  0.49987000  0.50013000  0.50000000  1
  Mg  Mg6  1  0.16162600  0.83837400  0.23767000  1
  Mg  Mg7  1  0.16162600  0.83837400  0.76233000  1
  Mg  Mg8  1  0.16162600  0.32325200  0.23767000  1
  Mg  Mg9  1  0.16162600  0.32325200  0.76233000  1
  Mg  Mg10  1  0.67674800  0.83837400  0.23767000  1
  Mg  Mg11  1  0.67674800  0.83837400  0.76233000  1
  Mg  Mg12  1  0.66666700  0.33333300  0.24978700  1
  Mg  Mg13  1  0.66666700  0.33333300  0.75021300  1
  Co  Co0  1  0.00000000  0.00000000  0.00000000  1
  Sn  Sn0  1  0.00000000  0.00000000  0.50000000  1
loop_
_geom_bond_atom_site_label_1
_geom_bond_atom_site_label_2
_geom_bond_distance
_geom_bond_site_symmetry_2
Mg0 Mg9 3.044787 1_654
Mg0 Mg8 3.044787 1_655
Mg0 Mg7 3.044787 1_654
Mg0 Mg6 3.044787 1_655
Mg0 Mg4 3.069921 1_555
Mg0 Mg2 3.069921 1_555
Mg0 Mg12 3.112754 1_555
Mg0 Mg13 3.112754 1_554
Mg0 Mg4 3.135901 1_655
Mg0 Mg2 3.135901 1_665
Mg1 Mg5 3.100491 1_555
Mg1 Mg3 3.100491 1_555
Mg1 Sn0 3.102911 1_565
Mg1 Sn0 3.102911 1_555
Mg1 Mg5 3.105331 1_455
Mg1 Mg3 3.105331 1_445
Mg1 Mg13 3.128016 1_455
Mg1 Mg12 3.128016 1_455
Mg1 Mg8 3.244811 1_555
Mg1 Mg9 3.244811 1_555
Mg1 Mg6 3.244811 1_555
Mg1 Mg7 3.244811 1_555
Mg2 Mg7 3.044787 1_544
Mg2 Mg6 3.044787 1_545
Mg2 Mg4 3.069921 1_555
Mg2 Mg4 3.135901 1_545
Mg3 Mg5 3.100491 1_555
Mg3 Sn0 3.102911 1_565
Mg3 Sn0 3.102911 1_665
Mg3 Mg5 3.105331 1_565
Mg3 Mg6 3.244811 1_555
Mg3 Mg7 3.244811 1_555
Mg4 Mg9 3.044787 1_554
Mg4 Mg8 3.044787 1_555
Mg5 Sn0 3.102911 1_665
Mg5 Sn0 3.102911 1_555
Mg5 Mg8 3.244811 1_555
Mg5 Mg9 3.244811 1_555
Mg6 Mg8 3.009066 1_565
Mg6 Mg8 3.196755 1_555
Mg6 Sn0 3.200005 1_565
Mg7 Mg9 3.009066 1_565
Mg7 Mg9 3.196755 1_555
Mg7 Sn0 3.200005 1_565
Mg8 Sn0 3.200006 1_555
Mg9 Sn0 3.200006 1_555
Mg10 Mg6 3.009066 1_655
Mg10 Mg8 3.009067 1_665
Mg10 Mg2 3.044787 1_565
Mg10 Mg4 3.044787 1_555
Mg10 Mg12 3.105862 1_565
Mg10 Mg12 3.105868 1_555
Mg10 Mg6 3.196755 1_555
Mg10 Mg8 3.196755 1_555
Mg10 Sn0 3.200006 1_665
Mg10 Mg3 3.244811 1_555
Mg10 Mg5 3.244811 1_555
Mg11 Mg7 3.009066 1_655
Mg11 Mg9 3.009067 1_665
Mg11 Mg2 3.044787 1_566
Mg11 Mg4 3.044787 1_556
Mg11 Mg13 3.105862 1_565
Mg11 Mg13 3.105868 1_555
Mg11 Mg7 3.196755 1_555
Mg11 Mg9 3.196755 1_555
Mg11 Sn0 3.200006 1_665
Mg11 Mg3 3.244811 1_555
Mg11 Mg5 3.244811 1_555
Mg12 Mg8 3.105862 1_655
Mg12 Mg6 3.105866 1_655
Mg12 Mg6 3.105866 1_545
Mg12 Mg8 3.105868 1_555
Mg12 Mg2 3.112754 1_555
Mg12 Mg4 3.112757 1_555
Mg12 Mg3 3.128016 1_545
Mg12 Mg5 3.128019 1_555
Mg13 Mg9 3.105862 1_655
Mg13 Mg7 3.105866 1_655
Mg13 Mg7 3.105866 1_545
Mg13 Mg9 3.105868 1_555
Mg13 Mg2 3.112754 1_556
Mg13 Mg4 3.112757 1_556
Mg13 Mg3 3.128016 1_545
Mg13 Mg5 3.128019 1_555
Co0 Mg7 2.991001 1_544
Co0 Mg6 2.991001 1_545
Co0 Mg9 2.991001 1_554
Co0 Mg11 2.991001 1_444
Co0 Mg10 2.991001 1_445
Co0 Mg8 2.991001 1_555
Co0 Mg0 3.102969 1_455
Co0 Mg2 3.102969 1_455
Co0 Mg2 3.102969 1_555
Co0 Mg0 3.102969 1_445
Co0 Mg4 3.102969 1_555
Co0 Mg4 3.102969 1_445
