# generated using pymatgen
data_Ag6H3IO6
_symmetry_space_group_name_H-M   'P 1'
_cell_length_a   5.31258351
_cell_length_b   6.59372019
_cell_length_c   6.58008868
_cell_angle_alpha   86.75171040
_cell_angle_beta   90.07990812
_cell_angle_gamma   111.62468783
_symmetry_Int_Tables_number   1
_chemical_formula_structural   Ag6H3IO6
_chemical_formula_sum   'Ag6 H3 I1 O6'
_cell_volume   213.88404460
_cell_formula_units_Z   1
loop_
 _symmetry_equiv_pos_site_id
 _symmetry_equiv_pos_as_xyz
  1  'x, y, z'
loop_
 _atom_site_type_symbol
 _atom_site_label
 _atom_site_symmetry_multiplicity
 _atom_site_fract_x
 _atom_site_fract_y
 _atom_site_fract_z
 _atom_site_occupancy
  Ag  Ag0  1  0.13911400  0.27639400  0.54473000  1
  Ag  Ag1  1  0.86088600  0.72360600  0.45527000  1
  Ag  Ag2  1  0.65070200  0.37069200  0.74130600  1
  Ag  Ag3  1  0.34929800  0.62930800  0.25869400  1
  Ag  Ag4  1  0.70393000  0.31521700  0.27942400  1
  Ag  Ag5  1  0.29607000  0.68478300  0.72057600  1
  H  H0  1  0.50000000  0.50000000  0.50000000  1
  H  H1  1  0.50000000  0.00000000  0.00000000  1
  H  H2  1  0.00000000  0.50000000  0.50000000  1
  I  I0  1  0.00000000  0.00000000  0.00000000  1
  O  O0  1  0.99089400  0.28416300  0.90823400  1
  O  O1  1  0.00910600  0.71583700  0.09176600  1
  O  O2  1  0.06196200  0.94466500  0.71532400  1
  O  O3  1  0.93803800  0.05533500  0.28467600  1
  O  O4  1  0.58672400  0.85436000  0.97597300  1
  O  O5  1  0.41327600  0.14564000  0.02402700  1
loop_
_geom_bond_atom_site_label_1
_geom_bond_atom_site_label_2
_geom_bond_distance
_geom_bond_site_symmetry_2
Ag0 H2 1.886802 1_555
Ag0 H0 1.950691 1_555
Ag0 O2 2.296672 1_545
Ag0 O3 2.307333 1_455
Ag0 O0 2.528374 1_455
Ag1 H2 1.886802 1_655
Ag1 H0 1.950691 1_555
Ag1 O3 2.296672 1_565
Ag1 O2 2.307333 1_655
Ag1 O1 2.528374 1_655
Ag2 H0 2.057976 1_555
Ag2 H2 2.319546 1_655
Ag2 O0 2.341322 1_555
Ag2 O5 2.359659 1_556
Ag3 H0 2.057976 1_555
Ag3 H2 2.319546 1_555
Ag3 O1 2.341322 1_555
Ag3 O4 2.359659 1_554
Ag4 H2 2.201510 1_655
Ag4 O5 2.322050 1_555
Ag4 H0 2.437737 1_555
Ag4 O3 2.459350 1_555
Ag4 O1 2.758723 1_655
Ag5 H2 2.201510 1_555
Ag5 O4 2.322050 1_555
Ag5 H0 2.437737 1_555
Ag5 O2 2.459350 1_555
Ag5 O0 2.758723 1_455
H1 O4 1.225957 1_544
H1 O5 1.225957 1_555
I0 O1 1.953504 1_545
I0 O0 1.953504 1_454
I0 O2 1.979402 1_544
I0 O3 1.979402 1_455
I0 O5 2.056675 1_555
I0 O4 2.056675 1_444
