# generated using pymatgen
data_NaAl2H8(ClO2)4
_symmetry_space_group_name_H-M   'P 1'
_cell_length_a   7.99891800
_cell_length_b   10.14602700
_cell_length_c   10.14602700
_cell_angle_alpha   90.00000000
_cell_angle_beta   90.00000000
_cell_angle_gamma   90.00000000
_symmetry_Int_Tables_number   1
_chemical_formula_structural   NaAl2H8(ClO2)4
_chemical_formula_sum   'Na2 Al4 H16 Cl8 O16'
_cell_volume   823.42352798
_cell_formula_units_Z   2
loop_
 _symmetry_equiv_pos_site_id
 _symmetry_equiv_pos_as_xyz
  1  'x, y, z'
loop_
 _atom_site_type_symbol
 _atom_site_label
 _atom_site_symmetry_multiplicity
 _atom_site_fract_x
 _atom_site_fract_y
 _atom_site_fract_z
 _atom_site_occupancy
  Na  Na0  1  0.00000000  0.00000000  0.00000000  1
  Na  Na1  1  0.00000000  0.50000000  0.50000000  1
  Al  Al0  1  0.50000000  0.75000000  0.25000000  1
  Al  Al1  1  0.50000000  0.25000000  0.75000000  1
  Al  Al2  1  0.50000000  0.25000000  0.25000000  1
  Al  Al3  1  0.50000000  0.75000000  0.75000000  1
  H  H0  1  0.78176100  0.12432600  0.03710600  1
  H  H1  1  0.78176100  0.87567400  0.96289400  1
  H  H2  1  0.78176100  0.46289400  0.62432600  1
  H  H3  1  0.21823900  0.37567400  0.53710600  1
  H  H4  1  0.21823900  0.37567400  0.46289400  1
  H  H5  1  0.78176100  0.53710600  0.37567400  1
  H  H6  1  0.21823900  0.62432600  0.46289400  1
  H  H7  1  0.21823900  0.62432600  0.53710600  1
  H  H8  1  0.21823900  0.03710600  0.12432600  1
  H  H9  1  0.21823900  0.03710600  0.87567400  1
  H  H10  1  0.21823900  0.96289400  0.87567400  1
  H  H11  1  0.21823900  0.96289400  0.12432600  1
  H  H12  1  0.78176100  0.12432600  0.96289400  1
  H  H13  1  0.78176100  0.87567400  0.03710600  1
  H  H14  1  0.78176100  0.53710600  0.62432600  1
  H  H15  1  0.78176100  0.46289400  0.37567400  1
  Cl  Cl0  1  0.26259900  0.17953800  0.32046200  1
  Cl  Cl1  1  0.26259900  0.82046200  0.67953800  1
  Cl  Cl2  1  0.26259900  0.17953800  0.67953800  1
  Cl  Cl3  1  0.73740100  0.32046200  0.82046200  1
  Cl  Cl4  1  0.73740100  0.32046200  0.17953800  1
  Cl  Cl5  1  0.26259900  0.82046200  0.32046200  1
  Cl  Cl6  1  0.73740100  0.67953800  0.17953800  1
  Cl  Cl7  1  0.73740100  0.67953800  0.82046200  1
  O  O0  1  0.60831200  0.26384200  0.56466300  1
  O  O1  1  0.60831200  0.73615800  0.43533700  1
  O  O2  1  0.60831200  0.93533700  0.76384200  1
  O  O3  1  0.39168800  0.23615800  0.06466300  1
  O  O4  1  0.39168800  0.23615800  0.93533700  1
  O  O5  1  0.60831200  0.06466300  0.23615800  1
  O  O6  1  0.39168800  0.76384200  0.93533700  1
  O  O7  1  0.39168800  0.76384200  0.06466300  1
  O  O8  1  0.39168800  0.56466300  0.26384200  1
  O  O9  1  0.39168800  0.56466300  0.73615800  1
  O  O10  1  0.39168800  0.43533700  0.73615800  1
  O  O11  1  0.39168800  0.43533700  0.26384200  1
  O  O12  1  0.60831200  0.26384200  0.43533700  1
  O  O13  1  0.60831200  0.73615800  0.56466300  1
  O  O14  1  0.60831200  0.06466300  0.76384200  1
  O  O15  1  0.60831200  0.93533700  0.23615800  1
loop_
_geom_bond_atom_site_label_1
_geom_bond_atom_site_label_2
_geom_bond_distance
_geom_bond_site_symmetry_2
Al0 O8 2.075179 1_555
Al0 O1 2.075179 1_555
Al0 O7 2.075179 1_555
Al0 O15 2.075179 1_555
Al0 Cl6 2.151327 1_555
Al0 Cl5 2.151327 1_555
Al1 O14 2.075179 1_555
Al1 O0 2.075179 1_555
Al1 O10 2.075179 1_555
Al1 O4 2.075179 1_555
Al1 Cl3 2.151327 1_555
Al1 Cl2 2.151327 1_555
Al2 O12 2.075179 1_555
Al2 O11 2.075179 1_555
Al2 O5 2.075179 1_555
Al2 O3 2.075179 1_555
Al2 Cl4 2.151327 1_555
Al2 Cl0 2.151327 1_555
Al3 O2 2.075179 1_555
Al3 O6 2.075179 1_555
Al3 O13 2.075179 1_555
Al3 O9 2.075179 1_555
Al3 Cl7 2.151327 1_555
Al3 Cl1 2.151327 1_555
H0 H12 0.752957 1_554
H0 Na0 2.186387 1_655
H1 H13 0.752957 1_556
H1 Na0 2.186387 1_666
H2 Na1 2.186387 1_655
H3 H4 0.752957 1_555
H3 Na1 2.186387 1_555
H4 Na1 2.186387 1_555
H5 Na1 2.186387 1_655
H6 H7 0.752957 1_555
H6 Na1 2.186387 1_555
H7 Na1 2.186387 1_555
H8 Na0 2.186387 1_555
H9 Na0 2.186387 1_556
H10 H9 0.752957 1_565
H10 Na0 2.186387 1_566
H11 H8 0.752957 1_565
H11 Na0 2.186387 1_565
H12 Na0 2.186387 1_656
H13 Na0 2.186387 1_665
H14 H2 0.752957 1_555
H14 Na1 2.186387 1_655
H15 H5 0.752957 1_555
H15 Na1 2.186387 1_655
