# generated using pymatgen
data_SiW12C16(NO10)4
_symmetry_space_group_name_H-M   'P 1'
_cell_length_a   11.64245427
_cell_length_b   11.64245427
_cell_length_c   11.64245427
_cell_angle_alpha   105.78979915
_cell_angle_beta   105.78979915
_cell_angle_gamma   117.11526967
_symmetry_Int_Tables_number   1
_chemical_formula_structural   SiW12C16(NO10)4
_chemical_formula_sum   'Si1 W12 C16 N4 O40'
_cell_volume   1198.39891258
_cell_formula_units_Z   1
loop_
 _symmetry_equiv_pos_site_id
 _symmetry_equiv_pos_as_xyz
  1  'x, y, z'
loop_
 _atom_site_type_symbol
 _atom_site_label
 _atom_site_symmetry_multiplicity
 _atom_site_fract_x
 _atom_site_fract_y
 _atom_site_fract_z
 _atom_site_occupancy
  Si  Si0  1  0.00000000  0.00000000  0.00000000  1
  W  W0  1  0.17825100  0.45083500  0.03292800  1
  W  W1  1  0.41790700  0.14532300  0.96707200  1
  W  W2  1  0.54916500  0.58209300  0.72741600  1
  W  W3  1  0.85467700  0.82174900  0.27258400  1
  W  W4  1  0.16376000  0.19553900  0.75782400  1
  W  W5  1  0.43771500  0.40593600  0.24217600  1
  W  W6  1  0.80446100  0.56228500  0.96822100  1
  W  W7  1  0.59406400  0.83624000  0.03177900  1
  W  W8  1  0.22508500  0.53824300  0.78625000  1
  W  W9  1  0.75199300  0.43883500  0.21375000  1
  W  W10  1  0.46175700  0.24800700  0.68684200  1
  W  W11  1  0.56116500  0.77491500  0.31315800  1
  C  C0  1  0.19389700  0.03570800  0.07650500  1
  C  C1  1  0.95920400  0.11739200  0.92349500  1
  C  C2  1  0.96429200  0.04079600  0.15818800  1
  C  C3  1  0.88260800  0.80610300  0.84181200  1
  C  C4  1  0.40930900  0.91237900  0.22889000  1
  C  C5  1  0.68348900  0.18041900  0.77111000  1
  C  C6  1  0.08762100  0.31651100  0.49693000  1
  C  C7  1  0.81958100  0.59069100  0.50307000  1
  C  C8  1  0.32189300  0.89708800  0.29111700  1
  C  C9  1  0.60597100  0.03077600  0.70888300  1
  C  C10  1  0.10291200  0.39402900  0.42480600  1
  C  C11  1  0.96922400  0.67810700  0.57519400  1
  C  C12  1  0.28269900  0.92352400  0.18405200  1
  C  C13  1  0.73947100  0.09864700  0.81594800  1
  C  C14  1  0.07647600  0.26052900  0.35917600  1
  C  C15  1  0.90135300  0.71730100  0.64082400  1
  N  N0  1  0.18387000  0.93546600  0.11011000  1
  N  N1  1  0.82535600  0.07376100  0.88989000  1
  N  N2  1  0.06453400  0.17464400  0.24840400  1
  N  N3  1  0.92623900  0.81613000  0.75159600  1
  O  O0  1  0.05372500  0.43338400  0.09374500  1
  O  O1  1  0.33963900  0.95998000  0.90625500  1
  O  O2  1  0.56661600  0.66036100  0.62034100  1
  O  O3  1  0.04002000  0.94627500  0.37965900  1
  O  O4  1  0.97985900  0.06276200  0.64744500  1
  O  O5  1  0.41531700  0.33241500  0.35255500  1
  O  O6  1  0.93723800  0.58468300  0.91709800  1
  O  O7  1  0.66758500  0.02014100  0.08290200  1
  O  O8  1  0.12551400  0.57845000  0.68439200  1
  O  O9  1  0.89405700  0.44112100  0.31560800  1
  O  O10  1  0.42155000  0.10594300  0.54706400  1
  O  O11  1  0.55887900  0.87448600  0.45293600  1
  O  O12  1  0.22897800  0.12828400  0.86692600  1
  O  O13  1  0.26135800  0.36205200  0.13307400  1
  O  O14  1  0.87171600  0.73864200  0.10069400  1
  O  O15  1  0.63794800  0.77102200  0.89930600  1
  O  O16  1  0.35261000  0.62644700  0.16462100  1
  O  O17  1  0.46182600  0.18798900  0.83537900  1
  O  O18  1  0.37355300  0.53817400  0.72616300  1
  O  O19  1  0.81201100  0.64739000  0.27383700  1
  O  O20  1  0.04710900  0.22050700  0.89999300  1
  O  O21  1  0.32051400  0.14711700  0.10000700  1
  O  O22  1  0.77949300  0.67948600  0.82660200  1
  O  O23  1  0.85288300  0.95289100  0.17339800  1
  O  O24  1  0.26670900  0.20686000  0.66010600  1
  O  O25  1  0.54675400  0.60660300  0.33989400  1
  O  O26  1  0.79314000  0.45324600  0.05984900  1
  O  O27  1  0.39339700  0.73329100  0.94015100  1
  O  O28  1  0.12818600  0.51525900  0.90927800  1
  O  O29  1  0.60598200  0.21890900  0.09072200  1
  O  O30  1  0.48474100  0.39401800  0.61292700  1
  O  O31  1  0.78109100  0.87181400  0.38707300  1
  O  O32  1  0.09083200  0.31063900  0.60380200  1
  O  O33  1  0.70683700  0.48703000  0.39619800  1
  O  O34  1  0.68936100  0.29316300  0.78019300  1
  O  O35  1  0.51297000  0.90916800  0.21980700  1
  O  O36  1  0.25309300  0.39771300  0.87097300  1
  O  O37  1  0.52673900  0.38212000  0.12902700  1
  O  O38  1  0.60228700  0.47326100  0.85538100  1
  O  O39  1  0.61788000  0.74690700  0.14461900  1
loop_
_geom_bond_atom_site_label_1
_geom_bond_atom_site_label_2
_geom_bond_distance
_geom_bond_site_symmetry_2
C0 N0 1.295335 1_545
C0 O21 1.332184 1_555
C0 Si0 1.977609 1_555
C1 N1 1.295349 1_555
C1 O20 1.332174 1_655
C1 Si0 1.977604 1_656
C2 N2 1.295345 1_655
C2 O23 1.332189 1_545
C2 Si0 1.977597 1_655
C3 N3 1.295340 1_555
C3 O22 1.332174 1_555
C3 Si0 1.977604 1_666
C4 O35 1.256003 1_555
C4 C8 1.377912 1_555
C5 O34 1.256003 1_555
C5 C9 1.377912 1_555
C6 O32 1.256003 1_555
C7 O33 1.256003 1_555
C10 C14 1.372570 1_555
C10 C6 1.377902 1_555
C11 C15 1.372580 1_555
C11 C7 1.377911 1_555
C12 N0 1.325230 1_555
C12 C8 1.372580 1_555
C13 N1 1.325229 1_555
C13 C9 1.372572 1_555
C14 N2 1.325243 1_555
C15 N3 1.325243 1_555
O0 W0 1.735786 1_555
O1 W1 1.735786 1_565
O2 W2 1.735786 1_555
O3 W3 1.735786 1_455
O4 W4 1.740596 1_655
O5 W5 1.740588 1_555
O6 W6 1.740588 1_555
O7 W7 1.740599 1_545
O8 W8 1.737213 1_555
O9 W9 1.737212 1_555
O10 W10 1.737207 1_555
O11 W11 1.737207 1_555
O12 W4 1.833424 1_555
O12 W1 2.077900 1_555
O13 W5 1.833424 1_555
O13 W0 2.077900 1_555
O14 W6 1.833424 1_554
O14 W3 2.077900 1_555
O15 W7 1.833424 1_556
O15 W2 2.077900 1_555
O16 W0 1.862418 1_555
O16 W11 2.033775 1_555
O17 W1 1.862418 1_555
O17 W10 2.033775 1_555
O18 W2 1.862418 1_555
O18 W8 2.033775 1_555
O19 W3 1.862418 1_555
O19 W9 2.033775 1_555
O20 W0 2.154192 1_556
O21 W1 2.154193 1_554
O22 W2 2.154192 1_555
O23 W3 2.154194 1_555
O24 W4 1.851477 1_555
O24 W10 2.006392 1_555
O25 W5 1.851477 1_555
O25 W11 2.006392 1_555
O26 W6 1.851477 1_554
O26 W9 2.006392 1_555
O27 W7 1.851477 1_556
O27 W8 2.006392 1_555
O28 W0 1.871963 1_556
O28 W8 2.051520 1_555
O29 W1 1.871969 1_554
O29 W9 2.051511 1_555
O30 W2 1.871973 1_555
O30 W10 2.051509 1_555
O31 W3 1.871973 1_555
O31 W11 2.051509 1_555
O32 W8 2.308942 1_555
O33 W9 2.308942 1_555
O34 W10 2.308942 1_555
O35 W11 2.308942 1_555
O36 W4 1.921657 1_555
O36 W8 2.223896 1_555
O36 W0 2.334050 1_556
O37 W5 1.921648 1_555
O37 W9 2.223907 1_555
O37 W1 2.334053 1_554
O38 W6 1.921657 1_555
O38 W10 2.223907 1_555
O38 W2 2.334049 1_555
O39 W7 1.921648 1_555
O39 W11 2.223907 1_555
O39 W3 2.334053 1_555
