# generated using pymatgen
data_Li2Co(SO4)2
_symmetry_space_group_name_H-M   'P 1'
_cell_length_a   5.02383416
_cell_length_b   7.58502924
_cell_length_c   8.20624000
_cell_angle_alpha   90.00000000
_cell_angle_beta   90.00000000
_cell_angle_gamma   92.49003232
_symmetry_Int_Tables_number   1
_chemical_formula_structural   Li2Co(SO4)2
_chemical_formula_sum   'Li4 Co2 S4 O16'
_cell_volume   312.41113979
_cell_formula_units_Z   2
loop_
 _symmetry_equiv_pos_site_id
 _symmetry_equiv_pos_as_xyz
  1  'x, y, z'
loop_
 _atom_site_type_symbol
 _atom_site_label
 _atom_site_symmetry_multiplicity
 _atom_site_fract_x
 _atom_site_fract_y
 _atom_site_fract_z
 _atom_site_occupancy
  Li  Li0  1  0.41132300  0.39842000  0.86498300  1
  Li  Li1  1  0.08867700  0.10158000  0.36498300  1
  Li  Li2  1  0.58867700  0.60158000  0.13501700  1
  Li  Li3  1  0.91132300  0.89842000  0.63501700  1
  Co  Co0  1  0.50000000  0.50000000  0.50000000  1
  Co  Co1  1  0.00000000  0.00000000  0.00000000  1
  S  S0  1  0.53283000  0.19826100  0.19578300  1
  S  S1  1  0.96717000  0.30173900  0.69578300  1
  S  S2  1  0.46717000  0.80173900  0.80421700  1
  S  S3  1  0.03283000  0.69826100  0.30421700  1
  O  O0  1  0.52999600  0.34775400  0.08234800  1
  O  O1  1  0.97000400  0.15224600  0.58234800  1
  O  O2  1  0.47000400  0.65224600  0.91765200  1
  O  O3  1  0.02999600  0.84775400  0.41765200  1
  O  O4  1  0.45824300  0.25379600  0.36452700  1
  O  O5  1  0.04175700  0.24620400  0.86452700  1
  O  O6  1  0.54175700  0.74620400  0.63547300  1
  O  O7  1  0.95824300  0.75379600  0.13547300  1
  O  O8  1  0.33540200  0.05452900  0.14820000  1
  O  O9  1  0.16459800  0.44547100  0.64820000  1
  O  O10  1  0.66459800  0.94547100  0.85180000  1
  O  O11  1  0.83540200  0.55452900  0.35180000  1
  O  O12  1  0.80445600  0.12395700  0.19733100  1
  O  O13  1  0.69554400  0.37604300  0.69733100  1
  O  O14  1  0.19554400  0.87604300  0.80266900  1
  O  O15  1  0.30445600  0.62395700  0.30266900  1
loop_
_geom_bond_atom_site_label_1
_geom_bond_atom_site_label_2
_geom_bond_distance
_geom_bond_site_symmetry_2
Li0 O0 1.924787 1_556
Li0 O2 1.982699 1_555
Li0 O13 1.995372 1_555
Li0 O5 2.143333 1_555
Li0 O9 2.206110 1_555
Li1 O1 1.924787 1_455
Li1 O3 1.982699 1_545
Li1 O12 1.995372 1_455
Li1 O4 2.143333 1_555
Li1 O8 2.206110 1_555
Li2 O2 1.924787 1_554
Li2 O0 1.982699 1_555
Li2 O15 1.995372 1_555
Li2 O7 2.143333 1_555
Li2 O11 2.206110 1_555
Li3 O3 1.924787 1_655
Li3 O1 1.982699 1_565
Li3 O14 1.995372 1_655
Li3 O6 2.143333 1_555
Li3 O10 2.206110 1_555
Co0 O9 2.104473 1_555
Co0 O11 2.104473 1_555
Co0 O15 2.133452 1_555
Co0 O13 2.133452 1_555
Co0 O6 2.175620 1_555
Co0 O4 2.175620 1_555
Co1 O10 2.104473 1_444
Co1 O8 2.104473 1_555
Co1 O12 2.133452 1_455
Co1 O14 2.133452 1_544
Co1 O5 2.175620 1_554
Co1 O7 2.175620 1_445
O0 S0 1.467611 1_555
O1 S1 1.467611 1_555
O2 S2 1.467611 1_555
O3 S3 1.467611 1_555
O4 S0 1.499702 1_555
O5 S1 1.499702 1_455
O6 S2 1.499702 1_555
O7 S3 1.499702 1_655
O8 S0 1.493598 1_555
O9 S1 1.493598 1_455
O10 S2 1.493598 1_555
O11 S3 1.493598 1_655
O12 S0 1.498925 1_555
O13 S1 1.498925 1_555
O14 S2 1.498925 1_555
O15 S3 1.498925 1_555
