# generated using pymatgen
data_Zr3Fe2Sb3
_symmetry_space_group_name_H-M   'P 1'
_cell_length_a   4.30977200
_cell_length_b   6.84761299
_cell_length_c   22.07035474
_cell_angle_alpha   90.22032793
_cell_angle_beta   90.00000000
_cell_angle_gamma   90.00000000
_symmetry_Int_Tables_number   1
_chemical_formula_structural   Zr3Fe2Sb3
_chemical_formula_sum   'Zr12 Fe8 Sb12'
_cell_volume   651.32778475
_cell_formula_units_Z   4
loop_
 _symmetry_equiv_pos_site_id
 _symmetry_equiv_pos_as_xyz
  1  'x, y, z'
loop_
 _atom_site_type_symbol
 _atom_site_label
 _atom_site_symmetry_multiplicity
 _atom_site_fract_x
 _atom_site_fract_y
 _atom_site_fract_z
 _atom_site_occupancy
  Zr  Zr0  1  0.75000000  0.50090800  0.09211800  1
  Zr  Zr1  1  0.75000000  0.50634600  0.42378700  1
  Zr  Zr2  1  0.75000000  0.50192100  0.75907900  1
  Zr  Zr3  1  0.75000000  0.00563900  0.07806700  1
  Zr  Zr4  1  0.75000000  0.00626600  0.40666400  1
  Zr  Zr5  1  0.75000000  0.00865700  0.74183900  1
  Zr  Zr6  1  0.25000000  0.49883200  0.24087600  1
  Zr  Zr7  1  0.25000000  0.50509700  0.57267500  1
  Zr  Zr8  1  0.25000000  0.50738400  0.90757500  1
  Zr  Zr9  1  0.25000000  0.99800800  0.25750500  1
  Zr  Zr10  1  0.25000000  0.99055400  0.59269000  1
  Zr  Zr11  1  0.25000000  0.99055800  0.92685400  1
  Fe  Fe0  1  0.75000000  0.84803900  0.52598400  1
  Fe  Fe1  1  0.75000000  0.84966100  0.85937000  1
  Fe  Fe2  1  0.25000000  0.64610700  0.02403300  1
  Fe  Fe3  1  0.25000000  0.64465500  0.35735400  1
  Fe  Fe4  1  0.25000000  0.64402100  0.68993500  1
  Fe  Fe5  1  0.25000000  0.14628600  0.14161100  1
  Fe  Fe6  1  0.25000000  0.14917300  0.47568900  1
  Fe  Fe7  1  0.25000000  0.14815000  0.80871000  1
  Sb  Sb0  1  0.75000000  0.23519100  0.19981100  1
  Sb  Sb1  1  0.75000000  0.23566000  0.53394400  1
  Sb  Sb2  1  0.75000000  0.23655400  0.86842600  1
  Sb  Sb3  1  0.75000000  0.73447800  0.29993800  1
  Sb  Sb4  1  0.75000000  0.72977800  0.63746600  1
  Sb  Sb5  1  0.75000000  0.73170700  0.97175000  1
  Sb  Sb6  1  0.25000000  0.76700900  0.13844700  1
  Sb  Sb7  1  0.25000000  0.77138100  0.46723400  1
  Sb  Sb8  1  0.25000000  0.76938500  0.80055000  1
  Sb  Sb9  1  0.25000000  0.27194400  0.02809200  1
  Sb  Sb10  1  0.25000000  0.26988600  0.36066300  1
  Sb  Sb11  1  0.25000000  0.27236900  0.69406300  1
loop_
_geom_bond_atom_site_label_1
_geom_bond_atom_site_label_2
_geom_bond_distance
_geom_bond_site_symmetry_2
Fe0 Sb7 2.568093 1_555
Fe0 Sb7 2.568093 1_655
Fe0 Sb4 2.593243 1_555
Fe0 Sb1 2.659412 1_565
Fe0 Zr10 2.784293 1_655
Fe0 Zr10 2.784293 1_555
Fe0 Zr4 2.851464 1_565
Fe1 Sb8 2.574001 1_655
Fe1 Sb8 2.574001 1_555
Fe1 Sb5 2.611420 1_555
Fe1 Sb2 2.656056 1_565
Fe1 Zr11 2.789559 1_655
Fe1 Zr11 2.789559 1_555
Fe1 Zr5 2.817031 1_565
Fe1 Zr2 3.244830 1_555
Fe2 Sb5 2.514719 1_454
Fe2 Sb5 2.514719 1_554
Fe2 Sb9 2.564033 1_555
Fe2 Sb6 2.654382 1_555
Fe2 Zr8 2.736760 1_554
Fe2 Zr0 2.810974 1_455
Fe2 Zr0 2.810974 1_555
Fe2 Zr11 3.194100 1_554
Fe3 Sb10 2.567593 1_555
Fe3 Sb7 2.572529 1_555
Fe3 Sb3 2.575581 1_455
Fe3 Sb3 2.575581 1_555
Fe3 Zr6 2.754250 1_555
Fe3 Zr1 2.775055 1_555
Fe3 Zr1 2.775055 1_455
Fe4 Sb4 2.516861 1_455
Fe4 Sb4 2.516861 1_555
Fe4 Sb11 2.546909 1_555
Fe4 Sb8 2.584727 1_555
Fe4 Zr7 2.753837 1_555
Fe4 Zr2 2.816123 1_555
Fe4 Zr2 2.816123 1_455
Fe4 Zr10 3.205659 1_555
Fe5 Sb0 2.580323 1_455
Fe5 Sb0 2.580323 1_555
Fe5 Sb6 2.597812 1_545
Fe5 Sb9 2.652173 1_555
Fe5 Zr3 2.743635 1_455
Fe5 Zr3 2.743635 1_555
Fe5 Zr9 2.755606 1_545
Fe5 Zr6 3.253746 1_555
Fe6 Sb1 2.577103 1_455
Fe6 Sb1 2.577103 1_555
Fe6 Sb7 2.592979 1_545
Fe6 Sb10 2.672867 1_555
Fe6 Zr10 2.805236 1_545
Fe6 Zr4 2.812550 1_455
Fe6 Zr4 2.812550 1_555
Fe7 Sb2 2.596316 1_455
Fe7 Sb2 2.596316 1_555
Fe7 Sb8 2.599190 1_545
Fe7 Sb11 2.672545 1_555
Fe7 Zr5 2.779077 1_555
Fe7 Zr5 2.779077 1_455
Fe7 Zr11 2.825794 1_545
Fe7 Zr2 3.425234 1_555
Fe7 Zr2 3.425234 1_455
Sb0 Zr6 2.951527 1_655
Sb0 Zr6 2.951527 1_555
Sb0 Zr9 2.986406 1_545
Sb0 Zr9 2.986406 1_645
Sb0 Zr0 2.998871 1_555
Sb0 Zr3 3.107723 1_555
Sb1 Zr7 2.960764 1_555
Sb1 Zr7 2.960764 1_655
Sb1 Zr10 3.026268 1_545
Sb1 Zr10 3.026268 1_645
Sb1 Zr1 3.062853 1_555
Sb1 Zr4 3.213193 1_555
Sb2 Zr8 2.969356 1_555
Sb2 Zr8 2.969356 1_655
Sb2 Zr2 3.026522 1_555
Sb2 Zr11 3.026650 1_645
Sb2 Zr11 3.026650 1_545
Sb2 Zr5 3.194873 1_555
Sb3 Zr9 2.964792 1_555
Sb3 Zr9 2.964792 1_655
Sb3 Zr6 2.988355 1_655
Sb3 Zr6 2.988355 1_555
Sb3 Zr4 2.996375 1_565
Sb3 Zr1 3.153508 1_555
Sb4 Zr10 2.970251 1_555
Sb4 Zr10 2.970251 1_655
Sb4 Zr5 2.986518 1_565
Sb4 Zr7 3.006405 1_655
Sb4 Zr7 3.006405 1_555
Sb4 Zr2 3.109783 1_555
Sb5 Zr11 2.963218 1_655
Sb5 Zr11 2.963218 1_555
Sb5 Zr3 2.998424 1_566
Sb5 Zr8 2.998737 1_555
Sb5 Zr8 2.998737 1_655
Sb5 Zr0 3.096346 1_556
Sb6 Zr6 2.917997 1_555
Sb6 Zr0 2.999160 1_455
Sb6 Zr0 2.999160 1_555
Sb6 Zr3 3.017653 1_465
Sb6 Zr3 3.017653 1_565
Sb6 Zr9 3.061806 1_555
Sb7 Zr7 2.961916 1_555
Sb7 Zr1 2.973773 1_555
Sb7 Zr1 2.973773 1_455
Sb7 Zr4 3.005672 1_565
Sb7 Zr4 3.005672 1_465
Sb7 Zr10 3.144369 1_555
Sb8 Zr2 2.970309 1_555
Sb8 Zr2 2.970309 1_455
Sb8 Zr8 2.971656 1_555
Sb8 Zr5 3.003894 1_465
Sb8 Zr5 3.003894 1_565
Sb8 Zr11 3.167307 1_555
Sb9 Zr11 2.944808 1_544
Sb9 Zr0 3.013545 1_455
Sb9 Zr0 3.013545 1_555
Sb9 Zr3 3.033296 1_455
Sb9 Zr3 3.033296 1_555
Sb9 Zr8 3.115605 1_554
Sb10 Zr9 2.935456 1_545
Sb10 Zr4 2.991155 1_455
Sb10 Zr4 2.991155 1_555
Sb10 Zr1 3.031315 1_555
Sb10 Zr1 3.031315 1_455
Sb10 Zr6 3.078804 1_555
Sb11 Zr10 2.948974 1_545
Sb11 Zr5 3.005148 1_455
Sb11 Zr5 3.005148 1_555
Sb11 Zr2 3.025891 1_455
Sb11 Zr2 3.025891 1_555
Sb11 Zr7 3.122490 1_555
