# generated using pymatgen
data_Sr4Nb5O15
_symmetry_space_group_name_H-M   'P 1'
_cell_length_a   9.02906576
_cell_length_b   9.02906576
_cell_length_c   6.99464743
_cell_angle_alpha   75.05052964
_cell_angle_beta   75.05052964
_cell_angle_gamma   36.86954814
_symmetry_Int_Tables_number   1
_chemical_formula_structural   Sr4Nb5O15
_chemical_formula_sum   'Sr4 Nb5 O15'
_cell_volume   329.24448747
_cell_formula_units_Z   1
loop_
 _symmetry_equiv_pos_site_id
 _symmetry_equiv_pos_as_xyz
  1  'x, y, z'
loop_
 _atom_site_type_symbol
 _atom_site_label
 _atom_site_symmetry_multiplicity
 _atom_site_fract_x
 _atom_site_fract_y
 _atom_site_fract_z
 _atom_site_occupancy
  Sr  Sr0  1  0.59737294  0.59737294  0.60804763  1
  Sr  Sr1  1  0.19714608  0.19714608  0.19845090  1
  Sr  Sr2  1  0.80285392  0.80285392  0.80154910  1
  Sr  Sr3  1  0.40262706  0.40262706  0.39195237  1
  Nb  Nb0  1  0.80157458  0.80157458  0.29641226  1
  Nb  Nb1  1  0.59799285  0.59799285  0.10029503  1
  Nb  Nb2  1  0.19842542  0.19842542  0.70358774  1
  Nb  Nb3  1  0.40200715  0.40200715  0.89970497  1
  Nb  Nb4  1  -0.00000000  -0.00000000  0.50000000  1
  O  O0  1  0.10147486  0.58831043  0.10122687  1
  O  O1  1  0.89852514  0.41168957  0.89877313  1
  O  O2  1  0.50000000  -0.00000000  0.50000000  1
  O  O3  1  0.69203656  0.20494864  0.69176159  1
  O  O4  1  0.30796344  0.79505136  0.30823841  1
  O  O5  1  -0.00000000  0.50000000  0.50000000  1
  O  O6  1  0.79505136  0.30796344  0.30823841  1
  O  O7  1  0.41168957  0.89852514  0.89877313  1
  O  O8  1  0.58831043  0.10147486  0.10122687  1
  O  O9  1  0.20494864  0.69203656  0.69176159  1
  O  O10  1  0.89741482  0.89741482  0.40879883  1
  O  O11  1  0.69933908  0.69933908  0.20341023  1
  O  O12  1  0.30066092  0.30066092  0.79658977  1
  O  O13  1  0.50000000  0.50000000  0.00000000  1
  O  O14  1  0.10258518  0.10258518  0.59120117  1
loop_
_geom_bond_atom_site_label_1
_geom_bond_atom_site_label_2
_geom_bond_distance
_geom_bond_site_symmetry_2
Nb0 O8 2.002606 1_565
Nb0 O0 2.002606 1_655
Nb0 O10 2.003915 1_555
Nb0 O11 2.027400 1_555
Nb0 O2 2.040173 1_565
Nb0 O5 2.040173 1_655
Nb1 O13 1.987678 1_555
Nb1 O4 2.013446 1_555
Nb1 O6 2.013446 1_555
Nb1 O7 2.031345 1_554
Nb1 O1 2.031345 1_554
Nb1 O11 2.053206 1_555
Nb2 O7 2.002606 1_545
Nb2 O1 2.002606 1_455
Nb2 O14 2.003915 1_555
Nb2 O12 2.027400 1_555
Nb2 O2 2.040173 1_555
Nb2 O5 2.040173 1_555
Nb3 O13 1.987678 1_556
Nb3 O9 2.013446 1_555
Nb3 O3 2.013446 1_555
Nb3 O0 2.031345 1_556
Nb3 O8 2.031345 1_556
Nb3 O12 2.053206 1_555
Nb4 O6 2.019588 1_455
Nb4 O4 2.019588 1_545
Nb4 O3 2.019588 1_455
Nb4 O9 2.019588 1_545
Nb4 O14 2.026134 1_555
Nb4 O10 2.026134 1_445
O0 Sr1 2.804472 1_555
O0 Sr2 2.807179 1_454
O0 Sr3 2.852976 1_555
O1 Sr2 2.804472 1_555
O1 Sr1 2.807179 1_656
O1 Sr0 2.852976 1_555
O2 Sr1 2.888845 1_555
O2 Sr2 2.888845 1_545
O2 Sr3 2.893326 1_555
O2 Sr0 2.893326 1_545
O3 Sr3 2.800952 1_555
O3 Sr2 2.813797 1_545
O3 Sr0 2.823130 1_555
O4 Sr0 2.800952 1_555
O4 Sr1 2.813797 1_565
O4 Sr3 2.823130 1_555
O5 Sr2 2.888845 1_455
O5 Sr1 2.888845 1_555
O5 Sr3 2.893326 1_555
O5 Sr0 2.893326 1_455
O6 Sr0 2.800952 1_555
O6 Sr1 2.813797 1_655
O6 Sr3 2.823130 1_555
O7 Sr2 2.804472 1_555
O7 Sr1 2.807179 1_566
O7 Sr0 2.852976 1_555
O8 Sr1 2.804472 1_555
O8 Sr2 2.807179 1_544
O8 Sr3 2.852976 1_555
O9 Sr3 2.800952 1_555
O9 Sr2 2.813797 1_455
O9 Sr0 2.823130 1_555
O10 Sr2 2.784038 1_555
O10 Sr3 2.858040 1_565
O10 Sr3 2.858040 1_655
O11 Sr1 2.855797 1_655
O11 Sr1 2.855797 1_565
O11 Sr2 2.887031 1_554
O11 Sr0 2.893650 1_555
O12 Sr2 2.855797 1_545
O12 Sr2 2.855797 1_455
O12 Sr1 2.887031 1_556
O12 Sr3 2.893650 1_555
O13 Sr0 2.794947 1_554
O13 Sr3 2.794947 1_555
O14 Sr1 2.784038 1_555
O14 Sr0 2.858040 1_545
O14 Sr0 2.858040 1_455
