# generated using pymatgen
data_Lu3Bi(Ru2O7)2
_symmetry_space_group_name_H-M   'P 1'
_cell_length_a   7.19744335
_cell_length_b   7.19744335
_cell_length_c   7.18981428
_cell_angle_alpha   90.00000000
_cell_angle_beta   59.96489307
_cell_angle_gamma   120.00000000
_symmetry_Int_Tables_number   1
_chemical_formula_structural   Lu3Bi(Ru2O7)2
_chemical_formula_sum   'Lu3 Bi1 Ru4 O14'
_cell_volume   263.22584379
_cell_formula_units_Z   1
loop_
 _symmetry_equiv_pos_site_id
 _symmetry_equiv_pos_as_xyz
  1  'x, y, z'
loop_
 _atom_site_type_symbol
 _atom_site_label
 _atom_site_symmetry_multiplicity
 _atom_site_fract_x
 _atom_site_fract_y
 _atom_site_fract_z
 _atom_site_occupancy
  Lu  Lu0  1  0.25000000  0.37500000  0.37500000  1
  Lu  Lu1  1  0.25000000  0.87500000  0.37500000  1
  Lu  Lu2  1  0.75000000  0.37500000  0.37500000  1
  Bi  Bi0  1  0.75000000  0.37500000  0.87500000  1
  Ru  Ru0  1  0.75000000  0.87500000  0.37500000  1
  Ru  Ru1  1  0.25000000  0.87500000  0.87500000  1
  Ru  Ru2  1  0.25000000  0.37500000  0.87500000  1
  Ru  Ru3  1  0.75000000  0.87500000  0.87500000  1
  O  O0  1  0.48777000  0.24388500  0.26834500  1
  O  O1  1  0.01223000  0.50611500  0.48165500  1
  O  O2  1  0.92644400  0.96322200  0.53690200  1
  O  O3  1  0.49987600  0.53665400  0.53690200  1
  O  O4  1  0.49987600  0.96322200  0.53690200  1
  O  O5  1  0.07750800  0.53875400  0.96513300  1
  O  O6  1  0.49611300  0.95735900  0.96513300  1
  O  O7  1  0.49611300  0.53875400  0.96513300  1
  O  O8  1  0.57355600  0.78677800  0.21309800  1
  O  O9  1  0.00012400  0.21334600  0.21309800  1
  O  O10  1  0.00012400  0.78677800  0.21309800  1
  O  O11  1  0.42249200  0.21124600  0.78486700  1
  O  O12  1  0.00388700  0.79264100  0.78486700  1
  O  O13  1  0.00388700  0.21124600  0.78486700  1
loop_
_geom_bond_atom_site_label_1
_geom_bond_atom_site_label_2
_geom_bond_distance
_geom_bond_site_symmetry_2
Lu0 O0 2.169916 1_555
Lu0 O1 2.169916 1_555
Lu0 O13 2.428499 1_555
Lu0 O7 2.428499 1_554
Lu0 O2 2.438529 1_445
Lu0 O8 2.438529 1_555
Lu0 O3 2.438529 1_555
Lu0 O9 2.438529 1_555
Lu1 O0 2.169916 1_565
Lu1 O1 2.169916 1_555
Lu1 O6 2.428499 1_554
Lu1 O12 2.428499 1_555
Lu1 O4 2.438529 1_555
Lu1 O10 2.438529 1_555
Lu1 O2 2.438529 1_455
Lu1 O8 2.438529 1_555
Lu2 O1 2.169916 1_655
Lu2 O0 2.169916 1_555
Lu2 O5 2.428499 1_654
Lu2 O11 2.428499 1_555
Lu2 O10 2.438529 1_655
Lu2 O4 2.438529 1_545
Lu2 O3 2.438529 1_555
Lu2 O9 2.438529 1_655
Bi0 O1 2.307890 1_655
Bi0 O0 2.307890 1_556
Bi0 O5 2.473159 1_655
Bi0 O7 2.473159 1_555
Bi0 O13 2.473159 1_655
Bi0 O6 2.473159 1_545
Bi0 O11 2.473159 1_555
Bi0 O12 2.473159 1_655
O2 Ru3 2.007068 1_555
O2 Ru0 2.011073 1_555
O3 Ru2 2.007068 1_555
O3 Ru0 2.011073 1_555
O4 Ru1 2.007068 1_555
O4 Ru0 2.011073 1_555
O5 Ru2 2.002062 1_555
O5 Ru1 2.002062 1_555
O6 Ru3 2.002062 1_555
O6 Ru1 2.002062 1_555
O7 Ru3 2.002062 1_555
O7 Ru2 2.002062 1_555
O8 Ru3 2.007068 1_554
O8 Ru0 2.011073 1_555
O9 Ru2 2.007068 1_554
O9 Ru0 2.011073 1_445
O10 Ru1 2.007068 1_554
O10 Ru0 2.011073 1_455
O11 Ru1 2.002062 1_545
O11 Ru2 2.002062 1_555
O12 Ru3 2.002062 1_455
O12 Ru1 2.002062 1_555
O13 Ru3 2.002062 1_445
O13 Ru2 2.002062 1_555
