# generated using pymatgen
data_Li7V4(PO4)6
_symmetry_space_group_name_H-M   'P 1'
_cell_length_a   8.84569860
_cell_length_b   8.84471127
_cell_length_c   8.72676744
_cell_angle_alpha   59.80288690
_cell_angle_beta   59.76056243
_cell_angle_gamma   60.30578908
_symmetry_Int_Tables_number   1
_chemical_formula_structural   Li7V4(PO4)6
_chemical_formula_sum   'Li7 V4 P6 O24'
_cell_volume   482.28108735
_cell_formula_units_Z   1
loop_
 _symmetry_equiv_pos_site_id
 _symmetry_equiv_pos_as_xyz
  1  'x, y, z'
loop_
 _atom_site_type_symbol
 _atom_site_label
 _atom_site_symmetry_multiplicity
 _atom_site_fract_x
 _atom_site_fract_y
 _atom_site_fract_z
 _atom_site_occupancy
  Li  Li0  1  0.29057800  0.11521800  0.82504100  1
  Li  Li1  1  0.88459300  0.22922600  0.17191900  1
  Li  Li2  1  0.23224000  0.71404400  0.16830500  1
  Li  Li3  1  0.50083500  0.50609200  0.49137500  1
  Li  Li4  1  0.76859300  0.29200600  0.82313600  1
  Li  Li5  1  0.11607900  0.77134300  0.82187000  1
  Li  Li6  1  0.71387600  0.88555400  0.16822600  1
  V  V0  1  0.35868600  0.35856100  0.92526700  1
  V  V1  1  0.64313700  0.64171600  0.07158200  1
  V  V2  1  0.14769900  0.14622400  0.55910700  1
  V  V3  1  0.85295800  0.85425000  0.43914500  1
  P  P0  1  0.54636700  0.24807700  0.24772700  1
  P  P1  1  0.75135100  0.04605200  0.74770400  1
  P  P2  1  0.04543000  0.45450800  0.74985600  1
  P  P3  1  0.95657400  0.54592100  0.24894900  1
  P  P4  1  0.24841600  0.95614700  0.24999500  1
  P  P5  1  0.45388900  0.75156600  0.74954400  1
  O  O0  1  0.31127400  0.10656800  0.06053400  1
  O  O1  1  0.22164900  0.98665200  0.42044300  1
  O  O2  1  0.71934500  0.06755300  0.24577600  1
  O  O3  1  0.52291800  0.31144000  0.05740700  1
  O  O4  1  0.37473300  0.21538200  0.41762300  1
  O  O5  1  0.10689000  0.52825700  0.05728900  1
  O  O6  1  0.03940900  0.28269000  0.74302400  1
  O  O7  1  0.77693700  0.01510200  0.57780700  1
  O  O8  1  0.60022000  0.38478500  0.25732700  1
  O  O9  1  0.93418100  0.03784700  0.74564700  1
  O  O10  1  0.61540400  0.24549400  0.74139000  1
  O  O11  1  0.01201900  0.63271900  0.58591600  1
  O  O12  1  0.24603800  0.39687000  0.74322200  1
  O  O13  1  0.75703000  0.60445300  0.25491000  1
  O  O14  1  0.98907500  0.36844800  0.41428300  1
  O  O15  1  0.06553000  0.96661900  0.24961600  1
  O  O16  1  0.38318500  0.75709200  0.25708200  1
  O  O17  1  0.40009200  0.61334200  0.74017200  1
  O  O18  1  0.96585900  0.71731400  0.25368100  1
  O  O19  1  0.89760700  0.46848500  0.94227700  1
  O  O20  1  0.62695600  0.78200200  0.58040700  1
  O  O21  1  0.47465000  0.68807000  0.93974500  1
  O  O22  1  0.28066900  0.93196600  0.74998400  1
  O  O23  1  0.68975300  0.89717100  0.93727900  1
loop_
_geom_bond_atom_site_label_1
_geom_bond_atom_site_label_2
_geom_bond_distance
_geom_bond_site_symmetry_2
Li0 O22 2.080933 1_545
Li0 O12 2.095815 1_555
Li0 O0 2.114162 1_556
Li0 O6 2.217502 1_555
Li1 O15 2.059608 1_645
Li1 O19 2.061664 1_554
Li1 O8 2.119058 1_555
Li1 O2 2.188977 1_555
Li2 O18 2.072218 1_455
Li2 O21 2.072230 1_554
Li2 O16 2.090527 1_555
Li2 O15 2.223849 1_555
Li3 O16 2.340968 1_555
Li3 O8 2.357361 1_555
Li3 O13 2.363894 1_555
Li3 O17 2.386117 1_555
Li3 O12 2.423934 1_555
Li3 O10 2.440095 1_555
Li4 O10 2.082191 1_555
Li4 O6 2.099941 1_655
Li4 O3 2.107203 1_556
Li4 O9 2.219328 1_555
Li5 O9 2.081042 1_465
Li5 O5 2.100358 1_556
Li5 O17 2.119590 1_555
Li5 O22 2.182717 1_555
Li6 O2 2.063392 1_565
Li6 O23 2.078736 1_554
Li6 O13 2.087589 1_555
Li6 O18 2.238428 1_555
O0 P4 1.551454 1_545
O0 V0 2.077910 1_554
O1 P4 1.525478 1_555
O1 V2 1.972371 1_565
O2 P0 1.572116 1_555
O2 V3 2.097839 1_545
O3 P0 1.552773 1_555
O3 V0 2.053770 1_554
O4 P0 1.524228 1_555
O4 V2 1.972708 1_555
O5 P3 1.551424 1_455
O5 V0 2.093761 1_554
O6 P2 1.578085 1_555
O6 V2 2.050658 1_555
O7 P1 1.527523 1_555
O7 V3 1.976075 1_545
O8 P0 1.552009 1_555
O8 V1 2.113095 1_555
O9 P1 1.573819 1_555
O9 V2 2.064760 1_655
O10 P1 1.558261 1_555
O10 V0 2.103768 1_555
O11 P2 1.521352 1_555
O11 V3 2.004651 1_455
O12 P2 1.562724 1_555
O12 V0 2.085676 1_555
O13 P3 1.554217 1_555
O13 V1 2.108845 1_555
O14 P3 1.523410 1_555
O14 V2 1.996062 1_655
O15 P4 1.575547 1_555
O15 V3 2.079540 1_455
O16 P4 1.552407 1_555
O16 V1 2.130046 1_555
O17 P5 1.563315 1_555
O17 V0 2.093219 1_555
O18 P3 1.579940 1_555
O18 V3 2.056533 1_555
O19 P2 1.543345 1_655
O19 V1 2.109887 1_556
O20 P5 1.525573 1_555
O20 V3 1.978774 1_555
O21 P5 1.539908 1_555
O21 V1 2.088116 1_556
O22 P5 1.572176 1_555
O22 V2 2.083029 1_565
O23 P1 1.542492 1_565
O23 V1 2.102637 1_556
