# generated using pymatgen
data_Ba2ZnS3
_symmetry_space_group_name_H-M   'P 1'
_cell_length_a   4.28105556
_cell_length_b   8.87812429
_cell_length_c   17.17383568
_cell_angle_alpha   90.00000000
_cell_angle_beta   90.00000000
_cell_angle_gamma   90.00000000
_symmetry_Int_Tables_number   1
_chemical_formula_structural   Ba2ZnS3
_chemical_formula_sum   'Ba8 Zn4 S12'
_cell_volume   652.73873893
_cell_formula_units_Z   4
loop_
 _symmetry_equiv_pos_site_id
 _symmetry_equiv_pos_as_xyz
  1  'x, y, z'
loop_
 _atom_site_type_symbol
 _atom_site_label
 _atom_site_symmetry_multiplicity
 _atom_site_fract_x
 _atom_site_fract_y
 _atom_site_fract_z
 _atom_site_occupancy
  Ba  Ba0  1  0.75000000  0.75186988  0.95569685  1
  Ba  Ba1  1  0.75000000  0.25186988  0.54430315  1
  Ba  Ba2  1  0.25000000  0.24813012  0.04430315  1
  Ba  Ba3  1  0.25000000  0.74813012  0.45569685  1
  Ba  Ba4  1  0.25000000  0.58148647  0.71310582  1
  Ba  Ba5  1  0.25000000  0.08148647  0.78689418  1
  Ba  Ba6  1  0.75000000  0.41851353  0.28689418  1
  Ba  Ba7  1  0.75000000  0.91851353  0.21310582  1
  Zn  Zn0  1  0.75000000  0.36422556  0.86483803  1
  Zn  Zn1  1  0.75000000  0.86422556  0.63516197  1
  Zn  Zn2  1  0.25000000  0.63577444  0.13516197  1
  Zn  Zn3  1  0.25000000  0.13577444  0.36483803  1
  S  S0  1  0.75000000  0.32020194  0.72970215  1
  S  S1  1  0.75000000  0.82020194  0.77029785  1
  S  S2  1  0.25000000  0.67979806  0.27029785  1
  S  S3  1  0.25000000  0.17979806  0.22970215  1
  S  S4  1  0.75000000  0.13086608  0.92794975  1
  S  S5  1  0.75000000  0.63086608  0.57205025  1
  S  S6  1  0.25000000  0.86913392  0.07205025  1
  S  S7  1  0.25000000  0.36913392  0.42794975  1
  S  S8  1  0.25000000  0.49055751  0.89783691  1
  S  S9  1  0.25000000  0.99055751  0.60216309  1
  S  S10  1  0.75000000  0.50944249  0.10216309  1
  S  S11  1  0.75000000  0.00944249  0.39783691  1
loop_
_geom_bond_atom_site_label_1
_geom_bond_atom_site_label_2
_geom_bond_distance
_geom_bond_site_symmetry_2
Ba0 S6 3.107838 1_656
Ba0 S6 3.107838 1_556
Ba0 S1 3.241291 1_555
Ba0 S8 3.309303 1_655
Ba0 S8 3.309303 1_555
Ba0 S10 3.310524 1_556
Ba0 S4 3.398351 1_565
Ba1 S7 3.107838 1_555
Ba1 S7 3.107838 1_655
Ba1 S0 3.241291 1_555
Ba1 S9 3.309303 1_645
Ba1 S9 3.309303 1_545
Ba1 S11 3.310524 1_555
Ba1 S5 3.398351 1_555
Ba2 S4 3.107838 1_454
Ba2 S4 3.107838 1_554
Ba2 S3 3.241291 1_555
Ba2 S10 3.309303 1_555
Ba2 S10 3.309303 1_455
Ba2 S8 3.310524 1_554
Ba2 S6 3.398351 1_545
Ba3 S5 3.107838 1_455
Ba3 S5 3.107838 1_555
Ba3 S2 3.241291 1_555
Ba3 S11 3.309303 1_565
Ba3 S11 3.309303 1_465
Ba3 S9 3.310524 1_555
Ba3 S7 3.398351 1_555
Ba4 S1 3.168314 1_455
Ba4 S1 3.168314 1_555
Ba4 S0 3.169256 1_555
Ba4 S0 3.169256 1_455
Ba4 S5 3.262268 1_455
Ba4 S5 3.262268 1_555
Ba4 S8 3.273640 1_555
Ba5 S0 3.168314 1_555
Ba5 S0 3.168314 1_455
Ba5 S1 3.169256 1_545
Ba5 S1 3.169256 1_445
Ba5 S4 3.262268 1_555
Ba5 S4 3.262268 1_455
Ba5 S9 3.273640 1_545
Ba6 S3 3.168314 1_555
Ba6 S3 3.168314 1_655
Ba6 S2 3.169256 1_655
Ba6 S2 3.169256 1_555
Ba6 S7 3.262268 1_555
Ba6 S7 3.262268 1_655
Ba6 S10 3.273640 1_555
Ba7 S2 3.168314 1_555
Ba7 S2 3.168314 1_655
Ba7 S3 3.169256 1_565
Ba7 S3 3.169256 1_665
Ba7 S6 3.262268 1_655
Ba7 S6 3.262268 1_555
Ba7 S11 3.273640 1_565
S0 Zn0 2.353483 1_555
S1 Zn1 2.353483 1_555
S2 Zn2 2.353483 1_555
S3 Zn3 2.353483 1_555
S4 Zn0 2.338185 1_555
S5 Zn1 2.338185 1_555
S6 Zn2 2.338185 1_555
S7 Zn3 2.338185 1_555
S8 Zn0 2.482135 1_455
S8 Zn0 2.482135 1_555
S9 Zn1 2.482135 1_555
S9 Zn1 2.482135 1_455
S10 Zn2 2.482135 1_655
S10 Zn2 2.482135 1_555
S11 Zn3 2.482135 1_655
S11 Zn3 2.482135 1_555
