# generated using pymatgen
data_YbNi4Sn
_symmetry_space_group_name_H-M   'P 1'
_cell_length_a   4.91137420
_cell_length_b   4.91137420
_cell_length_c   4.91137420
_cell_angle_alpha   60.00000000
_cell_angle_beta   60.00000000
_cell_angle_gamma   60.00000000
_symmetry_Int_Tables_number   1
_chemical_formula_structural   YbNi4Sn
_chemical_formula_sum   'Yb1 Ni4 Sn1'
_cell_volume   83.77107238
_cell_formula_units_Z   1
loop_
 _symmetry_equiv_pos_site_id
 _symmetry_equiv_pos_as_xyz
  1  'x, y, z'
loop_
 _atom_site_type_symbol
 _atom_site_label
 _atom_site_symmetry_multiplicity
 _atom_site_fract_x
 _atom_site_fract_y
 _atom_site_fract_z
 _atom_site_occupancy
  Yb  Yb0  1  0.25000000  0.25000000  0.25000000  1
  Ni  Ni0  1  0.62549200  0.62549200  0.62549200  1
  Ni  Ni1  1  0.62549200  0.62549200  0.12352300  1
  Ni  Ni2  1  0.62549200  0.12352300  0.62549200  1
  Ni  Ni3  1  0.12352300  0.62549200  0.62549200  1
  Sn  Sn0  1  0.00000000  0.00000000  0.00000000  1
loop_
_geom_bond_atom_site_label_1
_geom_bond_atom_site_label_2
_geom_bond_distance
_geom_bond_site_symmetry_2
Ni0 Ni3 2.446017 1_655
Ni0 Ni2 2.446017 1_565
Ni0 Ni1 2.446017 1_556
Ni0 Ni3 2.465358 1_555
Ni0 Ni1 2.465358 1_555
Ni0 Ni2 2.465358 1_555
Ni0 Sn0 2.878524 1_566
Ni0 Sn0 2.878524 1_656
Ni0 Sn0 2.878524 1_665
Ni0 Yb0 2.880585 1_565
Ni0 Yb0 2.880585 1_655
Ni0 Yb0 2.880585 1_556
Ni1 Ni3 2.446017 1_654
Ni1 Ni2 2.446017 1_564
Ni1 Ni3 2.465358 1_555
Ni1 Ni2 2.465358 1_555
Ni1 Sn0 2.878522 1_565
Ni1 Sn0 2.878522 1_655
Ni1 Sn0 2.878526 1_665
Ni1 Yb0 2.880583 1_555
Ni1 Yb0 2.880587 1_655
Ni1 Yb0 2.880587 1_565
Ni2 Ni3 2.446017 1_645
Ni2 Ni3 2.465358 1_555
Ni2 Sn0 2.878522 1_556
Ni2 Sn0 2.878522 1_655
Ni2 Sn0 2.878526 1_656
Ni2 Yb0 2.880583 1_555
Ni2 Yb0 2.880587 1_655
Ni2 Yb0 2.880587 1_556
Ni3 Sn0 2.878522 1_556
Ni3 Sn0 2.878522 1_565
Ni3 Sn0 2.878526 1_566
Ni3 Yb0 2.880583 1_555
Ni3 Yb0 2.880587 1_556
Ni3 Yb0 2.880587 1_565
Sn0 Yb0 3.007590 1_554
Sn0 Yb0 3.007590 1_455
Sn0 Yb0 3.007590 1_545
Sn0 Yb0 3.007590 1_555
