# generated using pymatgen
data_Ba2Cr2CuF14
_symmetry_space_group_name_H-M   'P 1'
_cell_length_a   7.62410453
_cell_length_b   7.62410453
_cell_length_c   15.08505279
_cell_angle_alpha   89.05857201
_cell_angle_beta   89.05857201
_cell_angle_gamma   41.31849841
_symmetry_Int_Tables_number   1
_chemical_formula_structural   Ba2Cr2CuF14
_chemical_formula_sum   'Ba4 Cr4 Cu2 F28'
_cell_volume   578.84480472
_cell_formula_units_Z   2
loop_
 _symmetry_equiv_pos_site_id
 _symmetry_equiv_pos_as_xyz
  1  'x, y, z'
loop_
 _atom_site_type_symbol
 _atom_site_label
 _atom_site_symmetry_multiplicity
 _atom_site_fract_x
 _atom_site_fract_y
 _atom_site_fract_z
 _atom_site_occupancy
  Ba  Ba0  1  0.75215500  0.89093000  0.62704200  1
  Ba  Ba1  1  0.89093000  0.75215500  0.12704200  1
  Ba  Ba2  1  0.24784500  0.10907000  0.37295800  1
  Ba  Ba3  1  0.10907000  0.24784500  0.87295800  1
  Cr  Cr0  1  0.85367800  0.90091200  0.87407000  1
  Cr  Cr1  1  0.14632200  0.09908800  0.12593000  1
  Cr  Cr2  1  0.90091200  0.85367800  0.37407000  1
  Cr  Cr3  1  0.09908800  0.14632200  0.62593000  1
  Cu  Cu0  1  0.50000000  0.50000000  0.00000000  1
  Cu  Cu1  1  0.50000000  0.50000000  0.50000000  1
  F  F0  1  0.93156900  0.06160700  0.34816000  1
  F  F1  1  0.60986600  0.11150300  0.45144200  1
  F  F2  1  0.39013400  0.88849700  0.54855800  1
  F  F3  1  0.14402400  0.34778300  0.58950800  1
  F  F4  1  0.49437900  0.37649200  0.60506000  1
  F  F5  1  0.62350800  0.50562100  0.89494000  1
  F  F6  1  0.11150300  0.60986600  0.95144200  1
  F  F7  1  0.93839300  0.06843100  0.15184000  1
  F  F8  1  0.00692700  0.64612500  0.78355300  1
  F  F9  1  0.85597600  0.65221700  0.41049200  1
  F  F10  1  0.59090400  0.15701900  0.79678400  1
  F  F11  1  0.65221700  0.85597600  0.91049200  1
  F  F12  1  0.15701900  0.59090400  0.29678400  1
  F  F13  1  0.40909600  0.84298100  0.20321600  1
  F  F14  1  0.37649200  0.49437900  0.10506000  1
  F  F15  1  0.99307300  0.35387500  0.21644700  1
  F  F16  1  0.29503800  0.87431900  0.02361700  1
  F  F17  1  0.06843100  0.93839300  0.65184000  1
  F  F18  1  0.70496200  0.12568100  0.97638300  1
  F  F19  1  0.87431900  0.29503800  0.52361700  1
  F  F20  1  0.88849700  0.39013400  0.04855800  1
  F  F21  1  0.84298100  0.40909600  0.70321600  1
  F  F22  1  0.64612500  0.00692700  0.28355300  1
  F  F23  1  0.12568100  0.70496200  0.47638300  1
  F  F24  1  0.50562100  0.62350800  0.39494000  1
  F  F25  1  0.06160700  0.93156900  0.84816000  1
  F  F26  1  0.35387500  0.99307300  0.71644700  1
  F  F27  1  0.34778300  0.14402400  0.08950800  1
loop_
_geom_bond_atom_site_label_1
_geom_bond_atom_site_label_2
_geom_bond_distance
_geom_bond_site_symmetry_2
Ba0 F4 2.594130 1_565
Ba0 F8 2.718627 1_655
Ba0 F17 2.725826 1_655
Ba0 F3 2.798610 1_655
Ba0 F26 2.827334 1_555
Ba0 F1 2.868703 1_565
Ba0 F10 2.916234 1_565
Ba0 F23 3.018863 1_655
Ba0 F2 3.033995 1_555
Ba0 F3 3.116559 1_565
Ba1 F14 2.594130 1_655
Ba1 F22 2.718627 1_565
Ba1 F7 2.725826 1_565
Ba1 F27 2.798610 1_565
Ba1 F15 2.827334 1_555
Ba1 F6 2.868703 1_654
Ba1 F12 2.916234 1_655
Ba1 F18 3.018863 1_564
Ba1 F20 3.033995 1_555
Ba1 F27 3.116559 1_655
Ba2 F24 2.594130 1_545
Ba2 F15 2.718627 1_455
Ba2 F0 2.725826 1_455
Ba2 F9 2.798610 1_455
Ba2 F22 2.827334 1_555
Ba2 F2 2.868703 1_545
Ba2 F13 2.916234 1_545
Ba2 F19 3.018863 1_455
Ba2 F1 3.033995 1_555
Ba2 F9 3.116559 1_545
Ba3 F5 2.594130 1_455
Ba3 F26 2.718627 1_545
Ba3 F25 2.725826 1_545
Ba3 F11 2.798610 1_545
Ba3 F8 2.827334 1_555
Ba3 F20 2.868703 1_456
Ba3 F21 2.916234 1_455
Ba3 F16 3.018863 1_546
Ba3 F6 3.033995 1_555
Ba3 F11 3.116559 1_455
Cr0 F25 1.803800 1_655
Cr0 F10 1.819744 1_565
Cr0 F11 1.880140 1_555
Cr0 F6 1.894314 1_655
Cr0 F8 1.904868 1_655
Cr0 F18 1.927461 1_565
Cr1 F7 1.803800 1_455
Cr1 F13 1.819744 1_545
Cr1 F27 1.880140 1_555
Cr1 F20 1.894314 1_455
Cr1 F15 1.904868 1_455
Cr1 F16 1.927461 1_545
Cr2 F0 1.803800 1_565
Cr2 F12 1.819744 1_655
Cr2 F9 1.880140 1_555
Cr2 F1 1.894314 1_565
Cr2 F22 1.904868 1_565
Cr2 F23 1.927461 1_655
Cr3 F17 1.803800 1_545
Cr3 F21 1.819744 1_455
Cr3 F3 1.880140 1_555
Cr3 F2 1.894314 1_545
Cr3 F26 1.904868 1_545
Cr3 F19 1.927461 1_455
Cu0 F14 1.846501 1_555
Cu0 F5 1.846501 1_554
Cu0 F16 2.007395 1_555
Cu0 F18 2.007395 1_554
Cu0 F20 2.517078 1_555
Cu0 F6 2.517078 1_554
Cu1 F24 1.846501 1_555
Cu1 F4 1.846501 1_555
Cu1 F19 2.007395 1_555
Cu1 F23 2.007395 1_555
Cu1 F1 2.517078 1_555
Cu1 F2 2.517078 1_555
