# generated using pymatgen
data_Al(V4Ge)3
_symmetry_space_group_name_H-M   'P 1'
_cell_length_a   4.75351651
_cell_length_b   4.75393455
_cell_length_c   9.49420432
_cell_angle_alpha   90.00000000
_cell_angle_beta   90.00000000
_cell_angle_gamma   90.00000000
_symmetry_Int_Tables_number   1
_chemical_formula_structural   Al(V4Ge)3
_chemical_formula_sum   'Al1 V12 Ge3'
_cell_volume   214.54914029
_cell_formula_units_Z   1
loop_
 _symmetry_equiv_pos_site_id
 _symmetry_equiv_pos_as_xyz
  1  'x, y, z'
loop_
 _atom_site_type_symbol
 _atom_site_label
 _atom_site_symmetry_multiplicity
 _atom_site_fract_x
 _atom_site_fract_y
 _atom_site_fract_z
 _atom_site_occupancy
  Al  Al0  1  0.50000000  0.50000000  0.50000000  1
  V  V0  1  0.50000000  0.00000000  0.62484144  1
  V  V1  1  0.50000000  0.00000000  0.12509852  1
  V  V2  1  0.75043819  0.50000000  0.24857648  1
  V  V3  1  0.75043819  0.50000000  0.75142352  1
  V  V4  1  0.00000000  0.74943822  0.50000000  1
  V  V5  1  0.00000000  0.74940797  -0.00000000  1
  V  V6  1  0.50000000  0.00000000  0.37515856  1
  V  V7  1  0.50000000  0.00000000  0.87490148  1
  V  V8  1  0.24956181  0.50000000  0.24857648  1
  V  V9  1  0.24956181  0.50000000  0.75142352  1
  V  V10  1  -0.00000000  0.25056178  0.50000000  1
  V  V11  1  -0.00000000  0.25059203  -0.00000000  1
  Ge  Ge0  1  0.50000000  0.50000000  -0.00000000  1
  Ge  Ge1  1  -0.00000000  0.00000000  0.24922188  1
  Ge  Ge2  1  0.00000000  0.00000000  0.75077812  1
loop_
_geom_bond_atom_site_label_1
_geom_bond_atom_site_label_2
_geom_bond_distance
_geom_bond_site_symmetry_2
Al0 V6 2.656095 1_555
Al0 V6 2.656095 1_565
Al0 V0 2.656095 1_565
Al0 V0 2.656095 1_555
Al0 V10 2.656150 1_655
Al0 V10 2.656150 1_555
Al0 V4 2.656150 1_555
Al0 V4 2.656150 1_655
Al0 V9 2.667449 1_555
Al0 V2 2.667449 1_555
Al0 V3 2.667449 1_555
Al0 V8 2.667449 1_555
V0 V6 2.370540 1_555
V0 V7 2.374121 1_555
V0 V9 2.917445 1_555
V0 V3 2.917445 1_545
V0 V3 2.917445 1_555
V0 V9 2.917445 1_545
V1 V6 2.374121 1_555
V1 V7 2.375422 1_554
V1 V2 2.905429 1_545
V1 V2 2.905429 1_555
V1 V8 2.905429 1_555
V1 V8 2.905429 1_545
V2 V8 2.372592 1_655
V2 V8 2.380924 1_555
V2 V5 2.895320 1_655
V2 V6 2.917445 1_555
V2 V6 2.917445 1_565
V2 V4 2.917454 1_655
V3 V9 2.372592 1_655
V3 V9 2.380924 1_555
V3 V5 2.895320 1_656
V3 V7 2.905429 1_565
V3 V7 2.905429 1_555
V3 V4 2.917454 1_655
V4 V8 2.917454 1_555
V4 V9 2.917454 1_555
V5 V9 2.895320 1_554
V5 V8 2.895320 1_555
V6 V8 2.917445 1_555
V6 V8 2.917445 1_545
V7 V9 2.905429 1_545
V7 V9 2.905429 1_555
V10 V4 2.371626 1_555
V10 V4 2.382309 1_545
V10 V8 2.917454 1_555
V10 V3 2.917454 1_455
V10 V9 2.917454 1_555
V10 V2 2.917454 1_455
V11 V5 2.371338 1_555
V11 V5 2.382596 1_545
V11 V3 2.895320 1_454
V11 V9 2.895320 1_554
V11 V2 2.895320 1_455
V11 V8 2.895320 1_555
Ge0 V9 2.643288 1_554
Ge0 V3 2.643288 1_554
Ge0 V2 2.643288 1_555
Ge0 V8 2.643288 1_555
Ge0 V5 2.656086 1_655
Ge0 V11 2.656086 1_655
Ge0 V11 2.656086 1_555
Ge0 V5 2.656086 1_555
Ge0 V7 2.657185 1_554
Ge0 V1 2.657185 1_555
Ge0 V1 2.657185 1_565
Ge0 V7 2.657185 1_564
Ge1 V5 2.649136 1_545
Ge1 V11 2.649136 1_555
Ge1 V1 2.652872 1_555
Ge1 V1 2.652872 1_455
Ge1 V8 2.656560 1_555
Ge1 V2 2.656560 1_445
Ge1 V8 2.656560 1_545
Ge1 V2 2.656560 1_455
Ge1 V6 2.660564 1_555
Ge1 V6 2.660564 1_455
Ge1 V10 2.662277 1_555
Ge1 V4 2.662277 1_545
Ge2 V5 2.649136 1_546
Ge2 V11 2.649136 1_556
Ge2 V7 2.652872 1_555
Ge2 V7 2.652872 1_455
Ge2 V9 2.656560 1_545
Ge2 V3 2.656560 1_455
Ge2 V9 2.656560 1_555
Ge2 V3 2.656560 1_445
Ge2 V0 2.660564 1_555
Ge2 V0 2.660564 1_455
Ge2 V10 2.662277 1_555
Ge2 V4 2.662277 1_545
