# generated using pymatgen
data_CrNi
_symmetry_space_group_name_H-M   'P 1'
_cell_length_a   8.77935863
_cell_length_b   8.77935863
_cell_length_c   8.77935874
_cell_angle_alpha   32.93892350
_cell_angle_beta   32.93892350
_cell_angle_gamma   32.93892929
_symmetry_Int_Tables_number   1
_chemical_formula_structural   CrNi
_chemical_formula_sum   'Cr8 Ni8'
_cell_volume   178.02603953
_cell_formula_units_Z   8
loop_
 _symmetry_equiv_pos_site_id
 _symmetry_equiv_pos_as_xyz
  1  'x, y, z'
loop_
 _atom_site_type_symbol
 _atom_site_label
 _atom_site_symmetry_multiplicity
 _atom_site_fract_x
 _atom_site_fract_y
 _atom_site_fract_z
 _atom_site_occupancy
  Cr  Cr0_0  1  0.00000000  0.00000000  0.00000000  1
  Cr  Cr0_1  1  0.00000000  0.00000000  0.50000000  1
  Cr  Cr0_2  1  0.00000000  0.50000000  0.00000000  1
  Cr  Cr0_3  1  1.00000000  0.50000000  0.50000000  1
  Cr  Cr0_4  1  0.50000000  0.00000000  0.00000000  1
  Cr  Cr0_5  1  0.50000000  1.00000000  0.50000000  1
  Cr  Cr0_6  1  0.50000000  0.50000000  0.00000000  1
  Cr  Cr0_7  1  0.50000000  0.50000000  0.50000000  1
  Ni  Ni0_0  1  0.25000000  0.25000000  0.25000000  1
  Ni  Ni0_1  1  0.25000000  0.25000000  0.75000000  1
  Ni  Ni0_2  1  0.25000000  0.75000000  0.25000000  1
  Ni  Ni0_3  1  0.25000000  0.75000000  0.75000000  1
  Ni  Ni0_4  1  0.75000000  0.25000000  0.25000000  1
  Ni  Ni0_5  1  0.75000000  0.25000000  0.75000000  1
  Ni  Ni0_6  1  0.75000000  0.75000000  0.25000000  1
  Ni  Ni0_7  1  0.75000000  0.75000000  0.75000000  1
loop_
_geom_bond_atom_site_label_1
_geom_bond_atom_site_label_2
_geom_bond_distance
_geom_bond_site_symmetry_2
Cr0_0 Cr0_3 2.488986 1_445
Cr0_0 Cr0_5 2.488986 1_544
Cr0_0 Cr0_3 2.488986 1_454
Cr0_0 Cr0_5 2.488986 1_445
Cr0_0 Cr0_6 2.488986 1_455
Cr0_0 Cr0_6 2.488986 1_545
Cr0_0 Ni0_1 2.523110 1_554
Cr0_0 Ni0_6 2.523110 1_445
Cr0_0 Ni0_2 2.523110 1_545
Cr0_0 Ni0_4 2.523110 1_455
Cr0_0 Ni0_3 2.523110 1_544
Cr0_0 Ni0_5 2.523110 1_454
Cr0_1 Cr0_4 2.488986 1_555
Cr0_1 Cr0_2 2.488986 1_555
Cr0_1 Cr0_2 2.488986 1_546
Cr0_1 Cr0_4 2.488986 1_456
Cr0_1 Cr0_7 2.488986 1_545
Cr0_1 Cr0_7 2.488986 1_455
Cr0_1 Ni0_0 2.523110 1_555
Cr0_1 Ni0_7 2.523110 1_445
Cr0_1 Ni0_5 2.523110 1_455
Cr0_1 Ni0_3 2.523110 1_545
Cr0_1 Ni0_4 2.523110 1_455
Cr0_1 Ni0_2 2.523110 1_545
Cr0_2 Cr0_7 2.488986 1_455
Cr0_2 Cr0_7 2.488986 1_554
Cr0_2 Cr0_4 2.488986 1_465
Cr0_2 Cr0_4 2.488986 1_555
Cr0_2 Ni0_3 2.523110 1_554
Cr0_2 Ni0_4 2.523110 1_455
Cr0_2 Ni0_0 2.523110 1_555
Cr0_2 Ni0_7 2.523110 1_454
Cr0_2 Ni0_6 2.523110 1_455
Cr0_2 Ni0_1 2.523110 1_554
Cr0_3 Cr0_6 2.488986 1_556
Cr0_3 Cr0_6 2.488986 1_655
Cr0_3 Cr0_5 2.488986 1_555
Cr0_3 Cr0_5 2.488986 1_645
Cr0_3 Ni0_5 2.523110 1_555
Cr0_3 Ni0_2 2.523110 1_655
Cr0_3 Ni0_6 2.523110 1_555
Cr0_3 Ni0_0 2.523110 1_655
Cr0_3 Ni0_1 2.523110 1_655
Cr0_3 Ni0_7 2.523110 1_555
Cr0_4 Cr0_7 2.488986 1_545
Cr0_4 Cr0_7 2.488986 1_554
Cr0_4 Ni0_5 2.523110 1_554
Cr0_4 Ni0_2 2.523110 1_545
Cr0_4 Ni0_0 2.523110 1_555
Cr0_4 Ni0_6 2.523110 1_545
Cr0_4 Ni0_7 2.523110 1_544
Cr0_4 Ni0_1 2.523110 1_554
Cr0_5 Cr0_6 2.488986 1_556
Cr0_5 Cr0_6 2.488986 1_565
Cr0_5 Ni0_3 2.523110 1_555
Cr0_5 Ni0_4 2.523110 1_565
Cr0_5 Ni0_6 2.523110 1_555
Cr0_5 Ni0_0 2.523110 1_565
Cr0_5 Ni0_1 2.523110 1_565
Cr0_5 Ni0_7 2.523110 1_555
Cr0_6 Ni0_0 2.523110 1_555
Cr0_6 Ni0_7 2.523110 1_554
Cr0_6 Ni0_2 2.523110 1_555
Cr0_6 Ni0_4 2.523110 1_555
Cr0_6 Ni0_5 2.523110 1_554
Cr0_6 Ni0_3 2.523110 1_554
Cr0_7 Ni0_1 2.523110 1_555
Cr0_7 Ni0_6 2.523110 1_555
Cr0_7 Ni0_2 2.523110 1_555
Cr0_7 Ni0_3 2.523110 1_555
Cr0_7 Ni0_4 2.523110 1_555
Cr0_7 Ni0_5 2.523110 1_555
Ni0_0 Ni0_3 2.488986 1_554
Ni0_0 Ni0_3 2.488986 1_545
Ni0_0 Ni0_5 2.488986 1_554
Ni0_0 Ni0_5 2.488986 1_455
Ni0_0 Ni0_6 2.488986 1_545
Ni0_0 Ni0_6 2.488986 1_455
Ni0_1 Ni0_4 2.488986 1_555
Ni0_1 Ni0_4 2.488986 1_456
Ni0_1 Ni0_2 2.488986 1_555
Ni0_1 Ni0_2 2.488986 1_546
Ni0_1 Ni0_7 2.488986 1_455
Ni0_1 Ni0_7 2.488986 1_545
Ni0_2 Ni0_7 2.488986 1_455
Ni0_2 Ni0_7 2.488986 1_554
Ni0_2 Ni0_4 2.488986 1_555
Ni0_2 Ni0_4 2.488986 1_465
Ni0_3 Ni0_6 2.488986 1_456
Ni0_3 Ni0_6 2.488986 1_555
Ni0_3 Ni0_5 2.488986 1_465
Ni0_3 Ni0_5 2.488986 1_555
Ni0_4 Ni0_7 2.488986 1_545
Ni0_4 Ni0_7 2.488986 1_554
Ni0_5 Ni0_6 2.488986 1_555
Ni0_5 Ni0_6 2.488986 1_546
