# generated using pymatgen
data_Pr2MgSe4
_symmetry_space_group_name_H-M   'P 1'
_cell_length_a   8.53302664
_cell_length_b   8.53302664
_cell_length_c   8.53302664
_cell_angle_alpha   60.00000000
_cell_angle_beta   60.00000000
_cell_angle_gamma   60.00000000
_symmetry_Int_Tables_number   1
_chemical_formula_structural   Pr2MgSe4
_chemical_formula_sum   'Pr4 Mg2 Se8'
_cell_volume   439.33348595
_cell_formula_units_Z   2
loop_
 _symmetry_equiv_pos_site_id
 _symmetry_equiv_pos_as_xyz
  1  'x, y, z'
loop_
 _atom_site_type_symbol
 _atom_site_label
 _atom_site_symmetry_multiplicity
 _atom_site_fract_x
 _atom_site_fract_y
 _atom_site_fract_z
 _atom_site_occupancy
  Pr  Pr0  1  0.12500000  0.62500000  0.12500000  1
  Pr  Pr1  1  0.12500000  0.12500000  0.62500000  1
  Pr  Pr2  1  0.62500000  0.12500000  0.12500000  1
  Pr  Pr3  1  0.12500000  0.12500000  0.12500000  1
  Mg  Mg0  1  0.50000000  0.50000000  0.50000000  1
  Mg  Mg1  1  0.75000000  0.75000000  0.75000000  1
  Se  Se0  1  0.87725100  0.87725100  0.87725100  1
  Se  Se1  1  0.36824800  0.87725100  0.87725100  1
  Se  Se2  1  0.87725100  0.36824800  0.87725100  1
  Se  Se3  1  0.87725100  0.87725100  0.36824800  1
  Se  Se4  1  0.37274900  0.37274900  0.88175200  1
  Se  Se5  1  0.37274900  0.88175200  0.37274900  1
  Se  Se6  1  0.88175200  0.37274900  0.37274900  1
  Se  Se7  1  0.37274900  0.37274900  0.37274900  1
loop_
_geom_bond_atom_site_label_1
_geom_bond_atom_site_label_2
_geom_bond_distance
_geom_bond_site_symmetry_2
Pr0 Se0 2.989963 1_454
Pr0 Se7 2.989963 1_555
Pr0 Se6 2.989969 1_455
Pr0 Se4 2.989969 1_554
Pr0 Se3 2.989969 1_455
Pr0 Se1 2.989969 1_554
Pr1 Se0 2.989963 1_445
Pr1 Se7 2.989963 1_555
Pr1 Se1 2.989969 1_545
Pr1 Se6 2.989969 1_455
Pr1 Se2 2.989969 1_455
Pr1 Se5 2.989969 1_545
Pr2 Se0 2.989963 1_544
Pr2 Se7 2.989963 1_555
Pr2 Se3 2.989969 1_545
Pr2 Se4 2.989969 1_554
Pr2 Se5 2.989969 1_545
Pr2 Se2 2.989969 1_554
Pr3 Se6 2.989963 1_455
Pr3 Se4 2.989963 1_554
Pr3 Se5 2.989963 1_545
Pr3 Se1 2.989963 1_544
Pr3 Se3 2.989963 1_445
Pr3 Se2 2.989963 1_454
Mg0 Se6 2.659738 1_555
Mg0 Se4 2.659738 1_555
Mg0 Se5 2.659738 1_555
Mg0 Se7 2.659745 1_555
Mg1 Se1 2.659738 1_555
Mg1 Se2 2.659738 1_555
Mg1 Se3 2.659738 1_555
Mg1 Se0 2.659745 1_555
