# generated using pymatgen
data_CeAlCu4
_symmetry_space_group_name_H-M   'P 1'
_cell_length_a   5.71997331
_cell_length_b   5.71997331
_cell_length_c   4.46989200
_cell_angle_alpha   90.00000000
_cell_angle_beta   90.00000000
_cell_angle_gamma   119.99999206
_symmetry_Int_Tables_number   1
_chemical_formula_structural   CeAlCu4
_chemical_formula_sum   'Ce1 Al1 Cu4'
_cell_volume   126.65306425
_cell_formula_units_Z   1
loop_
 _symmetry_equiv_pos_site_id
 _symmetry_equiv_pos_as_xyz
  1  'x, y, z'
loop_
 _atom_site_type_symbol
 _atom_site_label
 _atom_site_symmetry_multiplicity
 _atom_site_fract_x
 _atom_site_fract_y
 _atom_site_fract_z
 _atom_site_occupancy
  Ce  Ce0  1  0.33333300  0.66666700  0.00000000  1
  Al  Al0  1  0.66666700  0.33333300  0.00000000  1
  Cu  Cu0  1  0.00000000  0.00000000  0.00000000  1
  Cu  Cu1  1  0.33151400  0.16575700  0.50000000  1
  Cu  Cu2  1  0.83424300  0.16575700  0.50000000  1
  Cu  Cu3  1  0.83424300  0.66848600  0.50000000  1
loop_
_geom_bond_atom_site_label_1
_geom_bond_atom_site_label_2
_geom_bond_distance
_geom_bond_site_symmetry_2
Ce0 Cu0 3.302425 1_565
Ce0 Cu0 3.302430 1_665
Ce0 Cu0 3.302430 1_555
Ce0 Cu1 3.629679 1_564
Ce0 Cu1 3.629679 1_565
Ce0 Cu3 3.629679 1_454
Ce0 Cu3 3.629679 1_455
Ce0 Cu2 3.629682 1_565
Ce0 Cu2 3.629682 1_454
Ce0 Cu2 3.629682 1_564
Ce0 Cu2 3.629682 1_455
Ce0 Cu3 3.629684 1_554
Ce0 Cu1 3.629684 1_554
Ce0 Cu3 3.629684 1_555
Ce0 Cu1 3.629684 1_555
Al0 Cu2 2.784120 1_555
Al0 Cu2 2.784120 1_554
Al0 Cu3 2.784123 1_554
Al0 Cu1 2.784123 1_554
Al0 Cu3 2.784123 1_555
Al0 Cu1 2.784123 1_555
Al0 Ce0 3.302425 1_545
Al0 Ce0 3.302425 1_655
Al0 Ce0 3.302435 1_555
Cu0 Cu2 2.773411 1_454
Cu0 Cu2 2.773411 1_455
Cu0 Cu1 2.773411 1_555
Cu0 Cu3 2.773411 1_444
Cu0 Cu1 2.773411 1_554
Cu0 Cu3 2.773411 1_445
Cu1 Cu2 2.844377 1_455
Cu1 Cu3 2.844377 1_445
Cu1 Cu2 2.875596 1_555
Cu1 Cu3 2.875597 1_555
Cu2 Cu3 2.844377 1_545
Cu2 Cu3 2.875596 1_555
