# generated using pymatgen
data_NaYMg6
_symmetry_space_group_name_H-M   'P 1'
_cell_length_a   5.26895400
_cell_length_b   6.65791300
_cell_length_c   11.56568100
_cell_angle_alpha   90.00000000
_cell_angle_beta   90.00000000
_cell_angle_gamma   90.00000000
_symmetry_Int_Tables_number   1
_chemical_formula_structural   NaYMg6
_chemical_formula_sum   'Na2 Y2 Mg12'
_cell_volume   405.72683440
_cell_formula_units_Z   2
loop_
 _symmetry_equiv_pos_site_id
 _symmetry_equiv_pos_as_xyz
  1  'x, y, z'
loop_
 _atom_site_type_symbol
 _atom_site_label
 _atom_site_symmetry_multiplicity
 _atom_site_fract_x
 _atom_site_fract_y
 _atom_site_fract_z
 _atom_site_occupancy
  Na  Na0  1  0.50000000  0.50000000  0.16207500  1
  Na  Na1  1  0.50000000  0.00000000  0.66207500  1
  Y  Y0  1  0.00000000  0.50000000  0.33729500  1
  Y  Y1  1  0.00000000  0.00000000  0.83729500  1
  Mg  Mg0  1  0.00000000  0.74875700  0.08154400  1
  Mg  Mg1  1  0.00000000  0.25124300  0.08154400  1
  Mg  Mg2  1  0.00000000  0.00000000  0.33626700  1
  Mg  Mg3  1  0.50000000  0.24881600  0.41721300  1
  Mg  Mg4  1  0.50000000  0.75118400  0.41721300  1
  Mg  Mg5  1  0.50000000  0.00000000  0.16684900  1
  Mg  Mg6  1  0.00000000  0.24875700  0.58154400  1
  Mg  Mg7  1  0.00000000  0.75124300  0.58154400  1
  Mg  Mg8  1  0.00000000  0.50000000  0.83626700  1
  Mg  Mg9  1  0.50000000  0.74881600  0.91721300  1
  Mg  Mg10  1  0.50000000  0.25118400  0.91721300  1
  Mg  Mg11  1  0.50000000  0.50000000  0.66684900  1
loop_
_geom_bond_atom_site_label_1
_geom_bond_atom_site_label_2
_geom_bond_distance
_geom_bond_site_symmetry_2
Na0 Y0 3.323752 1_655
Na0 Y0 3.323752 1_555
Na1 Y1 3.323752 1_555
Na1 Y1 3.323752 1_655
Mg0 Na0 3.248226 1_455
Mg0 Na0 3.248226 1_555
Mg0 Mg9 3.248500 1_554
Mg0 Mg9 3.248500 1_454
Mg0 Mg5 3.272915 1_465
Mg0 Mg5 3.272915 1_565
Mg0 Y1 3.283017 1_564
Mg0 Mg8 3.284877 1_554
Mg0 Mg1 3.312405 1_555
Mg0 Mg1 3.345508 1_565
Mg0 Mg2 3.387814 1_565
Mg0 Y0 3.390042 1_555
Mg1 Na0 3.248226 1_455
Mg1 Na0 3.248226 1_555
Mg1 Mg10 3.248500 1_454
Mg1 Mg10 3.248500 1_554
Mg1 Mg5 3.272915 1_455
Mg1 Mg5 3.272915 1_555
Mg1 Y1 3.283017 1_554
Mg1 Mg8 3.284877 1_554
Mg1 Mg2 3.387814 1_555
Mg1 Y0 3.390042 1_555
Mg2 Mg3 3.249806 1_455
Mg2 Mg3 3.249806 1_555
Mg2 Mg4 3.249806 1_445
Mg2 Mg4 3.249806 1_545
Mg2 Mg5 3.283269 1_555
Mg2 Mg5 3.283269 1_455
Mg2 Mg6 3.284877 1_555
Mg2 Mg7 3.284877 1_545
Mg2 Y0 3.328978 1_555
Mg2 Y0 3.328978 1_545
Mg3 Mg6 3.248500 1_555
Mg3 Mg6 3.248500 1_655
Mg3 Y0 3.254474 1_655
Mg3 Y0 3.254474 1_555
Mg3 Na1 3.280931 1_555
Mg3 Mg4 3.313191 1_545
Mg3 Mg5 3.336013 1_555
Mg3 Mg4 3.344722 1_555
Mg3 Na0 3.391795 1_555
Mg4 Mg7 3.248500 1_655
Mg4 Mg7 3.248500 1_555
Mg4 Y0 3.254474 1_655
Mg4 Y0 3.254474 1_555
Mg4 Na1 3.280931 1_565
Mg4 Mg5 3.336013 1_565
Mg4 Na0 3.391795 1_555
Mg5 Na0 3.329414 1_545
Mg5 Na0 3.329414 1_555
Mg5 Mg9 3.336581 1_544
Mg6 Na1 3.248226 1_455
Mg6 Na1 3.248226 1_555
Mg6 Y0 3.283017 1_555
Mg6 Mg7 3.312405 1_545
Mg6 Mg7 3.345508 1_555
Mg6 Mg8 3.387814 1_555
Mg6 Y1 3.390042 1_555
Mg7 Na1 3.248226 1_565
Mg7 Na1 3.248226 1_465
Mg7 Y0 3.283017 1_555
Mg7 Mg8 3.387814 1_555
Mg7 Y1 3.390042 1_565
Mg8 Mg9 3.249806 1_455
Mg8 Mg9 3.249806 1_555
Mg8 Y1 3.328978 1_565
Mg8 Y1 3.328978 1_555
Mg9 Y1 3.254474 1_565
Mg9 Y1 3.254474 1_665
Mg9 Na0 3.280931 1_556
Mg9 Na1 3.391795 1_565
Mg10 Mg8 3.249806 1_555
Mg10 Mg8 3.249806 1_655
Mg10 Y1 3.254474 1_655
Mg10 Y1 3.254474 1_555
Mg10 Na0 3.280931 1_556
Mg10 Mg9 3.313191 1_555
Mg10 Mg11 3.336013 1_555
Mg10 Mg5 3.336581 1_556
Mg10 Mg9 3.344722 1_545
Mg10 Na1 3.391795 1_555
Mg11 Mg7 3.272915 1_555
Mg11 Mg7 3.272915 1_655
Mg11 Mg6 3.272915 1_555
Mg11 Mg6 3.272915 1_655
Mg11 Mg8 3.283269 1_655
Mg11 Mg8 3.283269 1_555
Mg11 Na1 3.329414 1_565
Mg11 Na1 3.329414 1_555
Mg11 Mg9 3.336013 1_555
Mg11 Mg4 3.336581 1_555
Mg11 Mg3 3.336581 1_555
