# generated using pymatgen
data_Tb(FeB)2
_symmetry_space_group_name_H-M   'P 1'
_cell_length_a   3.46120274
_cell_length_b   3.46120207
_cell_length_c   5.57618714
_cell_angle_alpha   108.08066290
_cell_angle_beta   108.08066208
_cell_angle_gamma   89.99999966
_symmetry_Int_Tables_number   1
_chemical_formula_structural   Tb(FeB)2
_chemical_formula_sum   'Tb1 Fe2 B2'
_cell_volume   60.02395734
_cell_formula_units_Z   1
loop_
 _symmetry_equiv_pos_site_id
 _symmetry_equiv_pos_as_xyz
  1  'x, y, z'
loop_
 _atom_site_type_symbol
 _atom_site_label
 _atom_site_symmetry_multiplicity
 _atom_site_fract_x
 _atom_site_fract_y
 _atom_site_fract_z
 _atom_site_occupancy
  Tb  Tb0  1  0.00000000  -0.00000000  0.00000000  1
  Fe  Fe0  1  0.25000000  0.75000000  0.50000000  1
  Fe  Fe1  1  0.75000000  0.25000000  0.50000000  1
  B  B0  1  0.63592892  0.63592892  0.27185685  1
  B  B1  1  0.36407108  0.36407108  0.72814315  1
loop_
_geom_bond_atom_site_label_1
_geom_bond_atom_site_label_2
_geom_bond_distance
_geom_bond_site_symmetry_2
B0 Fe1 2.074033 1_565
B0 Fe0 2.074034 1_655
B0 Fe1 2.074036 1_555
B0 Fe0 2.074036 1_555
B0 Tb0 2.800943 1_665
B0 Tb0 2.800945 1_655
B0 Tb0 2.800945 1_565
B0 Tb0 2.800947 1_555
B1 Fe0 2.074033 1_545
B1 Fe1 2.074034 1_455
B1 Fe0 2.074036 1_555
B1 Fe1 2.074036 1_555
B1 Tb0 2.800943 1_556
B1 Tb0 2.800945 1_566
B1 Tb0 2.800945 1_656
B1 Tb0 2.800947 1_666
