# generated using pymatgen
data_Li2V3SnO8
_symmetry_space_group_name_H-M   'P 1'
_cell_length_a   6.06440771
_cell_length_b   6.06691127
_cell_length_c   8.51999801
_cell_angle_alpha   90.55054725
_cell_angle_beta   89.99229535
_cell_angle_gamma   90.73076001
_symmetry_Int_Tables_number   1
_chemical_formula_structural   Li2V3SnO8
_chemical_formula_sum   'Li4 V6 Sn2 O16'
_cell_volume   313.42970523
_cell_formula_units_Z   2
loop_
 _symmetry_equiv_pos_site_id
 _symmetry_equiv_pos_as_xyz
  1  'x, y, z'
loop_
 _atom_site_type_symbol
 _atom_site_label
 _atom_site_symmetry_multiplicity
 _atom_site_fract_x
 _atom_site_fract_y
 _atom_site_fract_z
 _atom_site_occupancy
  Li  Li0  1  0.00589700  0.23623200  0.12945100  1
  Li  Li1  1  0.50712800  0.73696200  0.62967300  1
  Li  Li2  1  0.99659900  0.00177300  0.49587500  1
  Li  Li3  1  0.49639600  0.50157400  0.99593600  1
  V  V0  1  0.50309300  0.02471600  0.99096500  1
  V  V1  1  0.73923300  0.25294900  0.75209400  1
  V  V2  1  0.75973900  0.75322500  0.25446600  1
  V  V3  1  0.00371700  0.52525900  0.49119700  1
  V  V4  1  0.23887700  0.75234400  0.25197600  1
  V  V5  1  0.26023300  0.25360700  0.75422600  1
  Sn  Sn0  1  0.99860900  0.76632000  0.87938300  1
  Sn  Sn1  1  0.49935800  0.26592700  0.37959600  1
  O  O0  1  0.99662200  0.51053900  0.26381300  1
  O  O1  1  0.49691000  0.01104100  0.76335000  1
  O  O2  1  0.00048900  0.49428100  0.73991700  1
  O  O3  1  0.50045600  0.99404300  0.23990700  1
  O  O4  1  0.22958800  0.72264900  0.49013300  1
  O  O5  1  0.72976400  0.22195200  0.98989100  1
  O  O6  1  0.76851900  0.72329900  0.48648800  1
  O  O7  1  0.26833800  0.22233300  0.98647900  1
  O  O8  1  0.00384900  0.96413400  0.25218300  1
  O  O9  1  0.50413600  0.46486600  0.75247100  1
  O  O10  1  0.99638200  0.03029400  0.74309500  1
  O  O11  1  0.49615500  0.52981800  0.24322500  1
  O  O12  1  0.22744800  0.26009500  0.51169100  1
  O  O13  1  0.72676200  0.75974300  0.01153500  1
  O  O14  1  0.77314800  0.26031500  0.51066800  1
  O  O15  1  0.27255600  0.75971200  0.01031800  1
loop_
_geom_bond_atom_site_label_1
_geom_bond_atom_site_label_2
_geom_bond_distance
_geom_bond_site_symmetry_2
Li0 O8 1.962489 1_545
Li0 O7 2.006212 1_554
Li0 O0 2.012202 1_455
Li0 O5 2.054369 1_454
Li1 O9 1.962765 1_555
Li1 O6 2.002200 1_555
Li1 O1 2.008023 1_565
Li1 O4 2.061233 1_555
Li2 O8 2.087112 1_645
Li2 O14 2.088756 1_555
Li2 O12 2.091470 1_655
Li2 O10 2.111753 1_555
Li2 O6 2.170648 1_545
Li2 O4 2.219434 1_645
Li3 O9 2.084700 1_555
Li3 O15 2.088269 1_556
Li3 O13 2.088746 1_556
Li3 O11 2.112219 1_556
Li3 O7 2.174167 1_555
Li3 O5 2.223288 1_555
O0 V3 1.938969 1_655
O0 V4 2.066027 1_655
O0 V2 2.072220 1_555
O1 V0 1.940603 1_555
O1 V1 2.066486 1_555
O1 V5 2.070733 1_555
O2 Sn0 2.024549 1_455
O2 V3 2.129275 1_555
O2 V1 2.146714 1_455
O2 V5 2.165703 1_555
O3 Sn1 2.024819 1_565
O3 V0 2.130954 1_564
O3 V4 2.149591 1_555
O3 V2 2.164380 1_555
O4 V3 1.807995 1_555
O4 V4 2.039510 1_555
O5 V0 1.811025 1_555
O5 V1 2.037272 1_555
O6 V3 1.877307 1_655
O6 V2 1.987666 1_555
O7 V0 1.873524 1_555
O7 V5 1.990358 1_555
O8 V4 1.931105 1_555
O8 V2 1.944570 1_455
O9 V1 1.931930 1_555
O9 V5 1.944936 1_555
O10 Sn0 1.987366 1_545
O10 V1 2.077072 1_555
O10 V5 2.084976 1_655
O11 Sn1 1.987486 1_555
O11 V4 2.077087 1_555
O11 V2 2.084150 1_555
O12 Sn1 1.996441 1_555
O12 V5 2.076765 1_555
O12 V3 2.126152 1_555
O13 Sn0 1.996462 1_554
O13 V2 2.080240 1_555
O13 V0 2.125079 1_564
O14 Sn1 2.001941 1_555
O14 V1 2.068032 1_555
O14 V3 2.124642 1_655
O15 Sn0 2.002288 1_454
O15 V4 2.069858 1_555
O15 V0 2.124703 1_564
