# generated using pymatgen
data_CaMn12O24
_symmetry_space_group_name_H-M   'P 1'
_cell_length_a   5.89170100
_cell_length_b   9.74982500
_cell_length_c   16.89462201
_cell_angle_alpha   55.47814299
_cell_angle_beta   90.00000000
_cell_angle_gamma   90.00000000
_symmetry_Int_Tables_number   1
_chemical_formula_structural   CaMn12O24
_chemical_formula_sum   'Ca2 Mn24 O48'
_cell_volume   799.58714502
_cell_formula_units_Z   2
loop_
 _symmetry_equiv_pos_site_id
 _symmetry_equiv_pos_as_xyz
  1  'x, y, z'
loop_
 _atom_site_type_symbol
 _atom_site_label
 _atom_site_symmetry_multiplicity
 _atom_site_fract_x
 _atom_site_fract_y
 _atom_site_fract_z
 _atom_site_occupancy
  Ca  Ca0  1  0.62236100  0.27295000  0.73862200  1
  Ca  Ca1  1  0.37763900  0.27295000  0.23862200  1
  Mn  Mn0  1  0.37258200  0.01322600  0.49145400  1
  Mn  Mn1  1  0.37447400  0.48653100  0.51102800  1
  Mn  Mn2  1  0.87638800  0.01913200  0.48761900  1
  Mn  Mn3  1  0.87488400  0.48410500  0.51208500  1
  Mn  Mn4  1  0.37144200  0.88223700  0.85014700  1
  Mn  Mn5  1  0.37170000  0.43553000  0.84334800  1
  Mn  Mn6  1  0.87896100  0.88164400  0.84985000  1
  Mn  Mn7  1  0.87700100  0.43529800  0.84363000  1
  Mn  Mn8  1  0.37419100  0.62615700  0.15386600  1
  Mn  Mn9  1  0.37460300  0.05880500  0.15810300  1
  Mn  Mn10  1  0.87581700  0.61167800  0.15261400  1
  Mn  Mn11  1  0.87415600  0.06992500  0.16000200  1
  Mn  Mn12  1  0.62741800  0.01322600  0.99145400  1
  Mn  Mn13  1  0.62552600  0.48653100  0.01102800  1
  Mn  Mn14  1  0.12361200  0.01913200  0.98761900  1
  Mn  Mn15  1  0.12511600  0.48410500  0.01208500  1
  Mn  Mn16  1  0.62830000  0.43553000  0.34334800  1
  Mn  Mn17  1  0.62855800  0.88223700  0.35014700  1
  Mn  Mn18  1  0.12299900  0.43529800  0.34363000  1
  Mn  Mn19  1  0.12103900  0.88164400  0.34985000  1
  Mn  Mn20  1  0.62539700  0.05880500  0.65810300  1
  Mn  Mn21  1  0.62580900  0.62615700  0.65386600  1
  Mn  Mn22  1  0.12584400  0.06992500  0.66000200  1
  Mn  Mn23  1  0.12418300  0.61167800  0.65261400  1
  O  O0  1  0.37548200  0.51415300  0.07757500  1
  O  O1  1  0.37537100  0.04613900  0.05159100  1
  O  O2  1  0.87440400  0.51716600  0.07490400  1
  O  O3  1  0.87405000  0.05069700  0.05179600  1
  O  O4  1  0.37876700  0.98675500  0.92432700  1
  O  O5  1  0.37541600  0.45353100  0.94989300  1
  O  O6  1  0.87126100  0.98758900  0.92408000  1
  O  O7  1  0.87399600  0.44920000  0.95168100  1
  O  O8  1  0.12595000  0.05069700  0.55179600  1
  O  O9  1  0.12559600  0.51716600  0.57490400  1
  O  O10  1  0.62462900  0.04613900  0.55159100  1
  O  O11  1  0.62451800  0.51415300  0.57757500  1
  O  O12  1  0.62458400  0.45353100  0.44989300  1
  O  O13  1  0.62123300  0.98675500  0.42432700  1
  O  O14  1  0.12600400  0.44920000  0.45168100  1
  O  O15  1  0.12873900  0.98758900  0.42408000  1
  O  O16  1  0.12130800  0.76633200  0.09267600  1
  O  O17  1  0.13264200  0.22420300  0.11791800  1
  O  O18  1  0.62836700  0.76822700  0.09258100  1
  O  O19  1  0.61620700  0.22556500  0.11770400  1
  O  O20  1  0.12533300  0.73256100  0.91035000  1
  O  O21  1  0.12471300  0.28047100  0.88988300  1
  O  O22  1  0.62520000  0.72978900  0.91073500  1
  O  O23  1  0.62447900  0.27508200  0.88481100  1
  O  O24  1  0.38379300  0.22556500  0.61770400  1
  O  O25  1  0.37163300  0.76822700  0.59258100  1
  O  O26  1  0.86735800  0.22420300  0.61791800  1
  O  O27  1  0.87869200  0.76633200  0.59267600  1
  O  O28  1  0.37552100  0.27508200  0.38481100  1
  O  O29  1  0.37480000  0.72978900  0.41073500  1
  O  O30  1  0.87528700  0.28047100  0.38988300  1
  O  O31  1  0.87466700  0.73256100  0.41035000  1
  O  O32  1  0.12702600  0.45976300  0.22161600  1
  O  O33  1  0.11724400  0.90458900  0.22324700  1
  O  O34  1  0.62386100  0.46007800  0.22177500  1
  O  O35  1  0.63179000  0.90477700  0.22338900  1
  O  O36  1  0.12476900  0.04300600  0.78184600  1
  O  O37  1  0.12358400  0.59489000  0.77811500  1
  O  O38  1  0.62545300  0.02392400  0.78236400  1
  O  O39  1  0.62484200  0.59769200  0.77841200  1
  O  O40  1  0.36821000  0.90477700  0.72338900  1
  O  O41  1  0.37613900  0.46007800  0.72177500  1
  O  O42  1  0.88275600  0.90458900  0.72324700  1
  O  O43  1  0.87297400  0.45976300  0.72161600  1
  O  O44  1  0.37515800  0.59769200  0.27841200  1
  O  O45  1  0.37454700  0.02392400  0.28236400  1
  O  O46  1  0.87641600  0.59489000  0.27811500  1
  O  O47  1  0.87523100  0.04300600  0.28184600  1
loop_
_geom_bond_atom_site_label_1
_geom_bond_atom_site_label_2
_geom_bond_distance
_geom_bond_site_symmetry_2
Ca0 O38 2.099463 1_555
Ca0 O41 2.219355 1_555
Ca0 O43 2.233170 1_555
Ca0 O11 2.383513 1_555
Ca0 O23 2.481679 1_555
Ca0 O24 2.726187 1_555
Ca0 O26 2.750727 1_555
Ca1 O45 2.099463 1_555
Ca1 O34 2.219355 1_555
Ca1 O32 2.233170 1_555
Ca1 O0 2.383513 1_555
Ca1 O28 2.481679 1_555
Ca1 O19 2.726187 1_555
Ca1 O17 2.750727 1_555
Mn0 O8 1.925188 1_555
Mn0 O10 1.926118 1_555
Mn0 O15 1.935085 1_545
Mn0 O13 1.957209 1_545
Mn0 O25 1.999801 1_545
Mn0 O28 2.133271 1_555
Mn1 O14 1.922092 1_555
Mn1 O12 1.928310 1_555
Mn1 O9 1.941449 1_555
Mn1 O11 1.962143 1_555
Mn1 O29 1.985239 1_555
Mn1 O24 2.127781 1_555
Mn2 O10 1.939106 1_555
Mn2 O8 1.952030 1_655
Mn2 O15 1.957448 1_645
Mn2 O13 1.971174 1_545
Mn2 O27 2.065675 1_545
Mn2 O30 2.109541 1_555
Mn3 O12 1.929397 1_555
Mn3 O14 1.933875 1_655
Mn3 O9 1.949333 1_655
Mn3 O11 1.962976 1_555
Mn3 O31 2.025603 1_555
Mn3 O26 2.117707 1_555
Mn4 O20 1.893215 1_555
Mn4 O38 1.914775 1_565
Mn4 O22 1.941071 1_555
Mn4 O36 1.962281 1_565
Mn4 O4 2.014552 1_555
Mn4 O40 2.025186 1_555
Mn5 O5 1.905123 1_555
Mn5 O21 1.916767 1_555
Mn5 O41 1.928578 1_555
Mn5 O37 1.955701 1_555
Mn5 O23 1.978338 1_555
Mn5 O39 1.990399 1_555
Mn6 O20 1.892234 1_655
Mn6 O38 1.913747 1_565
Mn6 O22 1.938876 1_555
Mn6 O36 1.960548 1_665
Mn6 O42 2.020677 1_555
Mn6 O6 2.027322 1_555
Mn7 O7 1.905653 1_555
Mn7 O21 1.918934 1_655
Mn7 O43 1.936346 1_555
Mn7 O37 1.950582 1_655
Mn7 O23 1.976315 1_555
Mn7 O39 1.987641 1_555
Mn8 O16 1.885464 1_555
Mn8 O18 1.899402 1_555
Mn8 O44 1.960266 1_555
Mn8 O32 1.989449 1_555
Mn8 O34 1.999091 1_555
Mn8 O0 2.109308 1_555
Mn9 O1 1.872237 1_555
Mn9 O45 1.927089 1_555
Mn9 O17 1.962836 1_555
Mn9 O19 1.969207 1_555
Mn9 O35 1.972415 1_545
Mn9 O33 1.973705 1_545
Mn10 O16 1.913202 1_655
Mn10 O18 1.931112 1_555
Mn10 O32 1.945832 1_655
Mn10 O34 1.948346 1_555
Mn10 O2 1.985967 1_555
Mn10 O46 2.032014 1_555
Mn11 O47 1.921983 1_555
Mn11 O3 1.940499 1_555
Mn11 O35 1.955523 1_545
Mn11 O33 1.959380 1_645
Mn11 O17 1.968552 1_655
Mn11 O19 1.973304 1_555
Mn12 O3 1.925188 1_556
Mn12 O1 1.926118 1_556
Mn12 O6 1.935085 1_545
Mn12 O4 1.957209 1_545
Mn12 O18 1.999801 1_546
Mn12 O23 2.133271 1_555
Mn13 O7 1.922092 1_554
Mn13 O5 1.928310 1_554
Mn13 O2 1.941449 1_555
Mn13 O0 1.962143 1_555
Mn13 O22 1.985239 1_554
Mn13 O19 2.127781 1_555
Mn14 O1 1.939106 1_556
Mn14 O3 1.952030 1_456
Mn14 O6 1.957448 1_445
Mn14 O4 1.971174 1_545
Mn14 O16 2.065675 1_546
Mn14 O21 2.109541 1_555
Mn15 O5 1.929397 1_554
Mn15 O7 1.933875 1_454
Mn15 O2 1.949333 1_455
Mn15 O0 1.962976 1_555
Mn15 O20 2.025603 1_554
Mn15 O17 2.117707 1_555
Mn16 O12 1.905123 1_555
Mn16 O30 1.916767 1_555
Mn16 O34 1.928578 1_555
Mn16 O46 1.955701 1_555
Mn16 O28 1.978338 1_555
Mn16 O44 1.990399 1_555
Mn17 O31 1.893215 1_555
Mn17 O45 1.914775 1_565
Mn17 O29 1.941071 1_555
Mn17 O47 1.962281 1_565
Mn17 O13 2.014552 1_555
Mn17 O35 2.025186 1_555
Mn18 O14 1.905653 1_555
Mn18 O30 1.918934 1_455
Mn18 O32 1.936346 1_555
Mn18 O46 1.950582 1_455
Mn18 O28 1.976315 1_555
Mn18 O44 1.987641 1_555
Mn19 O31 1.892234 1_455
Mn19 O45 1.913747 1_565
Mn19 O29 1.938876 1_555
Mn19 O47 1.960548 1_465
Mn19 O33 2.020677 1_555
Mn19 O15 2.027322 1_555
Mn20 O10 1.872237 1_555
Mn20 O38 1.927089 1_555
Mn20 O26 1.962836 1_555
Mn20 O24 1.969207 1_555
Mn20 O40 1.972415 1_545
Mn20 O42 1.973705 1_545
Mn21 O27 1.885464 1_555
Mn21 O25 1.899402 1_555
Mn21 O39 1.960266 1_555
Mn21 O43 1.989449 1_555
Mn21 O41 1.999091 1_555
Mn21 O11 2.109308 1_555
Mn22 O36 1.921983 1_555
Mn22 O8 1.940499 1_555
Mn22 O40 1.955523 1_545
Mn22 O42 1.959380 1_445
Mn22 O26 1.968552 1_455
Mn22 O24 1.973304 1_555
Mn23 O27 1.913202 1_455
Mn23 O25 1.931112 1_555
Mn23 O43 1.945832 1_455
Mn23 O41 1.948346 1_555
Mn23 O9 1.985967 1_555
Mn23 O37 2.032014 1_555
