# generated using pymatgen
data_SrTcO3
_symmetry_space_group_name_H-M   'P 1'
_cell_length_a   5.61607528
_cell_length_b   5.54823333
_cell_length_c   7.97698419
_cell_angle_alpha   90.00000000
_cell_angle_beta   89.99988900
_cell_angle_gamma   89.99998129
_symmetry_Int_Tables_number   1
_chemical_formula_structural   SrTcO3
_chemical_formula_sum   'Sr4 Tc4 O12'
_cell_volume   248.55721198
_cell_formula_units_Z   4
loop_
 _symmetry_equiv_pos_site_id
 _symmetry_equiv_pos_as_xyz
  1  'x, y, z'
loop_
 _atom_site_type_symbol
 _atom_site_label
 _atom_site_symmetry_multiplicity
 _atom_site_fract_x
 _atom_site_fract_y
 _atom_site_fract_z
 _atom_site_occupancy
  Sr  Sr0  1  0.00219630  0.49253362  0.25000000  1
  Sr  Sr1  1  0.49780341  0.99253265  0.25000000  1
  Sr  Sr2  1  0.99780370  0.50746638  0.75000000  1
  Sr  Sr3  1  0.50219659  0.00746735  0.75000000  1
  Tc  Tc0  1  0.50000000  0.50000000  -0.00000000  1
  Tc  Tc1  1  -0.00000000  -0.00000000  0.50000000  1
  Tc  Tc2  1  0.50000000  0.50000000  0.50000000  1
  Tc  Tc3  1  -0.00000000  -0.00000000  -0.00000000  1
  O  O0  1  0.94148517  0.00289653  0.25000100  1
  O  O1  1  0.55851207  0.50289741  0.25000000  1
  O  O2  1  0.05851483  0.99710347  0.74999900  1
  O  O3  1  0.44148793  0.49710259  0.75000000  1
  O  O4  1  0.23953307  0.73934787  0.02785966  1
  O  O5  1  0.26045438  0.23933226  0.47213906  1
  O  O6  1  0.76046893  0.26064913  0.52786066  1
  O  O7  1  0.73954262  0.76066574  0.97214006  1
  O  O8  1  0.76046693  0.26065213  0.97214034  1
  O  O9  1  0.73954562  0.76066774  0.52786094  1
  O  O10  1  0.23953107  0.73935087  0.47213934  1
  O  O11  1  0.26045738  0.23933426  0.02785994  1
loop_
_geom_bond_atom_site_label_1
_geom_bond_atom_site_label_2
_geom_bond_distance
_geom_bond_site_symmetry_2
O0 Tc1 2.021198 1_655
O0 Tc3 2.021212 1_655
O0 Sr1 2.492414 1_545
O0 Sr0 2.737934 1_655
O0 Sr0 2.852066 1_645
O0 Sr1 3.124854 1_645
O1 Tc2 2.021202 1_555
O1 Tc0 2.021203 1_555
O1 Sr0 2.492427 1_655
O1 Sr1 2.737922 1_555
O1 Sr1 2.852075 1_545
O1 Sr0 3.124840 1_555
O2 Tc1 2.021198 1_565
O2 Tc3 2.021212 1_566
O2 Sr3 2.492414 1_565
O2 Sr2 2.737934 1_455
O2 Sr2 2.852066 1_465
O2 Sr3 3.124854 1_465
O3 Tc2 2.021202 1_555
O3 Tc0 2.021203 1_556
O3 Sr2 2.492427 1_455
O3 Sr3 2.737922 1_555
O3 Sr3 2.852075 1_565
O3 Sr2 3.124840 1_555
O4 Tc3 1.987567 1_565
O4 Tc0 1.988127 1_555
O4 Sr0 2.606117 1_555
O4 Sr1 2.686474 1_555
O4 Sr2 2.900167 1_454
O4 Sr3 3.049875 1_564
O5 Tc2 1.987680 1_555
O5 Tc1 1.988019 1_555
O5 Sr1 2.606102 1_545
O5 Sr0 2.686478 1_555
O5 Sr3 2.900167 1_555
O5 Sr2 3.049887 1_455
O6 Tc1 1.987548 1_655
O6 Tc2 1.988148 1_555
O6 Sr2 2.606118 1_555
O6 Sr3 2.686462 1_555
O6 Sr0 2.900171 1_655
O6 Sr1 3.049882 1_545
O7 Tc0 1.987659 1_556
O7 Tc3 1.988038 1_666
O7 Sr3 2.606108 1_565
O7 Sr2 2.686483 1_555
O7 Sr1 2.900154 1_556
O7 Sr0 3.049888 1_656
O8 Tc3 1.987567 1_656
O8 Tc0 1.988127 1_556
O8 Sr2 2.606117 1_555
O8 Sr3 2.686474 1_555
O8 Sr0 2.900167 1_656
O8 Sr1 3.049875 1_546
O9 Tc2 1.987680 1_555
O9 Tc1 1.988019 1_665
O9 Sr3 2.606102 1_565
O9 Sr2 2.686478 1_555
O9 Sr1 2.900167 1_555
O9 Sr0 3.049887 1_655
O10 Tc1 1.987548 1_565
O10 Tc2 1.988148 1_555
O10 Sr0 2.606118 1_555
O10 Sr1 2.686462 1_555
O10 Sr2 2.900171 1_455
O10 Sr3 3.049882 1_565
O11 Tc0 1.987659 1_555
O11 Tc3 1.988038 1_555
O11 Sr1 2.606108 1_545
O11 Sr0 2.686483 1_555
O11 Sr3 2.900154 1_554
O11 Sr2 3.049888 1_454
