# generated using pymatgen
data_Nb9TlSe12
_symmetry_space_group_name_H-M   'P 1'
_cell_length_a   10.76934757
_cell_length_b   10.76934757
_cell_length_c   10.76934691
_cell_angle_alpha   109.95758627
_cell_angle_beta   109.95758627
_cell_angle_gamma   109.95758318
_symmetry_Int_Tables_number   1
_chemical_formula_structural   Nb9TlSe12
_chemical_formula_sum   'Nb18 Tl2 Se24'
_cell_volume   943.78274774
_cell_formula_units_Z   2
loop_
 _symmetry_equiv_pos_site_id
 _symmetry_equiv_pos_as_xyz
  1  'x, y, z'
loop_
 _atom_site_type_symbol
 _atom_site_label
 _atom_site_symmetry_multiplicity
 _atom_site_fract_x
 _atom_site_fract_y
 _atom_site_fract_z
 _atom_site_occupancy
  Nb  Nb0  1  0.65917400  0.55198100  0.03982500  1
  Nb  Nb1  1  0.32480100  0.21824000  0.70581500  1
  Nb  Nb2  1  0.99148100  0.88516600  0.37337400  1
  Nb  Nb3  1  0.88516600  0.37337400  0.99148100  1
  Nb  Nb4  1  0.55198100  0.03982500  0.65917400  1
  Nb  Nb5  1  0.21824000  0.70581500  0.32480100  1
  Nb  Nb6  1  0.70581500  0.32480100  0.21824000  1
  Nb  Nb7  1  0.37337400  0.99148100  0.88516600  1
  Nb  Nb8  1  0.03982500  0.65917400  0.55198100  1
  Nb  Nb9  1  0.67519900  0.78176000  0.29418500  1
  Nb  Nb10  1  0.34082600  0.44801900  0.96017500  1
  Nb  Nb11  1  0.00851900  0.11483400  0.62662600  1
  Nb  Nb12  1  0.44801900  0.96017500  0.34082600  1
  Nb  Nb13  1  0.11483400  0.62662600  0.00851900  1
  Nb  Nb14  1  0.78176000  0.29418500  0.67519900  1
  Nb  Nb15  1  0.62662600  0.00851900  0.11483400  1
  Nb  Nb16  1  0.29418500  0.67519900  0.78176000  1
  Nb  Nb17  1  0.96017500  0.34082600  0.44801900  1
  Tl  Tl0  1  0.00000000  0.00000000  0.00000000  1
  Tl  Tl1  1  0.50000000  0.50000000  0.50000000  1
  Se  Se0  1  0.08324600  0.41642600  0.74984500  1
  Se  Se1  1  0.41642600  0.74984500  0.08324600  1
  Se  Se2  1  0.74984500  0.08324600  0.41642600  1
  Se  Se3  1  0.91675400  0.58357400  0.25015500  1
  Se  Se4  1  0.25015500  0.91675400  0.58357400  1
  Se  Se5  1  0.58357400  0.25015500  0.91675400  1
  Se  Se6  1  0.15772700  0.87641800  0.21750300  1
  Se  Se7  1  0.48987000  0.20825300  0.54959300  1
  Se  Se8  1  0.82378300  0.54343400  0.88337700  1
  Se  Se9  1  0.20825300  0.54959300  0.48987000  1
  Se  Se10  1  0.54343500  0.88337700  0.82378300  1
  Se  Se11  1  0.87641800  0.21750300  0.15772700  1
  Se  Se12  1  0.88337700  0.82378300  0.54343400  1
  Se  Se13  1  0.21750300  0.15772700  0.87641800  1
  Se  Se14  1  0.54959300  0.48987000  0.20825300  1
  Se  Se15  1  0.84227300  0.12358200  0.78249700  1
  Se  Se16  1  0.17621700  0.45656600  0.11662300  1
  Se  Se17  1  0.51013000  0.79174700  0.45040700  1
  Se  Se18  1  0.79174700  0.45040700  0.51013000  1
  Se  Se19  1  0.12358200  0.78249700  0.84227300  1
  Se  Se20  1  0.45656600  0.11662300  0.17621700  1
  Se  Se21  1  0.11662300  0.17621700  0.45656600  1
  Se  Se22  1  0.45040700  0.51013000  0.79174700  1
  Se  Se23  1  0.78249700  0.84227300  0.12358200  1
loop_
_geom_bond_atom_site_label_1
_geom_bond_atom_site_label_2
_geom_bond_distance
_geom_bond_site_symmetry_2
Nb0 Se23 2.602654 1_555
Nb0 Se22 2.604118 1_554
Nb0 Se14 2.623131 1_555
Nb0 Se3 2.735269 1_555
Nb0 Se5 2.738780 1_554
Nb0 Se8 2.834464 1_554
Nb1 Se21 2.608884 1_555
Nb1 Se22 2.612361 1_555
Nb1 Se13 2.624525 1_555
Nb1 Se4 2.738434 1_545
Nb1 Se5 2.745258 1_555
Nb1 Se7 2.837409 1_555
Nb2 Se21 2.611255 1_665
Nb2 Se23 2.612334 1_555
Nb2 Se12 2.627386 1_555
Nb2 Se3 2.739009 1_555
Nb2 Se4 2.742817 1_655
Nb2 Se6 2.844442 1_655
Nb3 Se16 2.611255 1_656
Nb3 Se15 2.612334 1_555
Nb3 Se8 2.627386 1_555
Nb3 Se5 2.739009 1_555
Nb3 Se3 2.742817 1_556
Nb3 Se11 2.844442 1_556
Nb4 Se15 2.602654 1_555
Nb4 Se17 2.604118 1_545
Nb4 Se7 2.623131 1_555
Nb4 Se5 2.735269 1_555
Nb4 Se4 2.738780 1_545
Nb4 Se10 2.834463 1_545
Nb5 Se16 2.608884 1_555
Nb5 Se17 2.612361 1_555
Nb5 Se6 2.624525 1_555
Nb5 Se3 2.738434 1_455
Nb5 Se4 2.745258 1_555
Nb5 Se9 2.837409 1_555
Nb6 Se20 2.608884 1_555
Nb6 Se18 2.612361 1_555
Nb6 Se11 2.624525 1_555
Nb6 Se5 2.738434 1_554
Nb6 Se3 2.745259 1_555
Nb6 Se14 2.837409 1_555
Nb7 Se20 2.611255 1_566
Nb7 Se19 2.612334 1_555
Nb7 Se10 2.627396 1_555
Nb7 Se4 2.739009 1_555
Nb7 Se5 2.742817 1_565
Nb7 Se13 2.844442 1_565
Nb8 Se19 2.602653 1_555
Nb8 Se18 2.604118 1_455
Nb8 Se9 2.623131 1_555
Nb8 Se4 2.735270 1_555
Nb8 Se3 2.738780 1_455
Nb8 Se12 2.834464 1_455
Nb9 Se12 2.608884 1_555
Nb9 Se14 2.612361 1_555
Nb9 Se23 2.624525 1_555
Nb9 Se2 2.738434 1_565
Nb9 Se1 2.745258 1_555
Nb9 Se17 2.837409 1_555
Nb10 Se13 2.602654 1_555
Nb10 Se14 2.604118 1_556
Nb10 Se22 2.623131 1_555
Nb10 Se0 2.735269 1_555
Nb10 Se1 2.738780 1_556
Nb10 Se16 2.834464 1_556
Nb11 Se12 2.611255 1_445
Nb11 Se13 2.612334 1_555
Nb11 Se21 2.627386 1_555
Nb11 Se0 2.739009 1_555
Nb11 Se2 2.742817 1_455
Nb11 Se15 2.844442 1_455
Nb12 Se6 2.602654 1_555
Nb12 Se7 2.604118 1_565
Nb12 Se17 2.623131 1_555
Nb12 Se1 2.735269 1_555
Nb12 Se2 2.738780 1_565
Nb12 Se20 2.834464 1_565
Nb13 Se8 2.611255 1_454
Nb13 Se6 2.612334 1_555
Nb13 Se16 2.627386 1_555
Nb13 Se1 2.739009 1_555
Nb13 Se0 2.742817 1_554
Nb13 Se19 2.844442 1_554
Nb14 Se8 2.608884 1_555
Nb14 Se7 2.612361 1_555
Nb14 Se15 2.624525 1_555
Nb14 Se0 2.738434 1_655
Nb14 Se2 2.745258 1_555
Nb14 Se18 2.837409 1_555
Nb15 Se10 2.611257 1_544
Nb15 Se11 2.612334 1_555
Nb15 Se20 2.627386 1_555
Nb15 Se2 2.739009 1_555
Nb15 Se1 2.742817 1_545
Nb15 Se23 2.844442 1_545
Nb16 Se10 2.608892 1_555
Nb16 Se9 2.612361 1_555
Nb16 Se19 2.624525 1_555
Nb16 Se1 2.738434 1_556
Nb16 Se0 2.745259 1_555
Nb16 Se22 2.837409 1_555
Nb17 Se11 2.602653 1_555
Nb17 Se9 2.604118 1_655
Nb17 Se18 2.623131 1_555
Nb17 Se2 2.735270 1_555
Nb17 Se0 2.738780 1_655
Nb17 Se21 2.834464 1_655
Se6 Tl0 3.331445 1_565
Se7 Tl1 3.334688 1_555
Se9 Tl1 3.334688 1_555
Se11 Tl0 3.331445 1_655
Se13 Tl0 3.331445 1_556
Se14 Tl1 3.334688 1_555
Se15 Tl0 3.331445 1_656
Se17 Tl1 3.334688 1_555
Se18 Tl1 3.334688 1_555
Se19 Tl0 3.331445 1_566
Se22 Tl1 3.334688 1_555
Se23 Tl0 3.331445 1_665
