# generated using pymatgen
data_Zr3Ti(PbO3)4
_symmetry_space_group_name_H-M   'P 1'
_cell_length_a   11.72818800
_cell_length_b   4.25015100
_cell_length_c   5.93701362
_cell_angle_alpha   88.81458940
_cell_angle_beta   90.00000000
_cell_angle_gamma   90.00000000
_symmetry_Int_Tables_number   1
_chemical_formula_structural   Zr3Ti(PbO3)4
_chemical_formula_sum   'Zr3 Ti1 Pb4 O12'
_cell_volume   295.87642869
_cell_formula_units_Z   1
loop_
 _symmetry_equiv_pos_site_id
 _symmetry_equiv_pos_as_xyz
  1  'x, y, z'
loop_
 _atom_site_type_symbol
 _atom_site_label
 _atom_site_symmetry_multiplicity
 _atom_site_fract_x
 _atom_site_fract_y
 _atom_site_fract_z
 _atom_site_occupancy
  Zr  Zr0  1  0.24566500  0.03121600  0.52719900  1
  Zr  Zr1  1  0.50000000  0.03086200  0.02921000  1
  Zr  Zr2  1  0.75433500  0.03121600  0.52719900  1
  Ti  Ti0  1  0.00000000  0.05371900  0.03092200  1
  Pb  Pb0  1  0.50000000  0.58308900  0.57833500  1
  Pb  Pb1  1  0.75971300  0.58695100  0.07186400  1
  Pb  Pb2  1  0.00000000  0.58070900  0.58635200  1
  Pb  Pb3  1  0.24028700  0.58695100  0.07186400  1
  O  O0  1  0.62051300  0.98713500  0.74533700  1
  O  O1  1  0.87820700  0.98733700  0.23920600  1
  O  O2  1  0.11571200  0.97917900  0.76465600  1
  O  O3  1  0.36522800  0.98536200  0.24873500  1
  O  O4  1  0.37948700  0.98713500  0.74533700  1
  O  O5  1  0.63477200  0.98536200  0.24873500  1
  O  O6  1  0.88428800  0.97917900  0.76465600  1
  O  O7  1  0.12179300  0.98733700  0.23920600  1
  O  O8  1  0.50000000  0.51152100  0.98422600  1
  O  O9  1  0.75829200  0.51222700  0.48740700  1
  O  O10  1  0.00000000  0.47920300  0.00006000  1
  O  O11  1  0.24170800  0.51222700  0.48740700  1
loop_
_geom_bond_atom_site_label_1
_geom_bond_atom_site_label_2
_geom_bond_distance
_geom_bond_site_symmetry_2
O0 Zr2 2.040983 1_565
O0 Zr1 2.210345 1_566
O0 Pb0 2.449525 1_555
O1 Ti0 1.906480 1_665
O1 Zr2 2.254343 1_565
O1 Pb1 2.425722 1_555
O2 Zr0 2.084809 1_565
O2 Ti0 2.112296 1_566
O2 Pb2 2.429945 1_555
O3 Zr1 2.055241 1_565
O3 Zr0 2.179646 1_565
O3 Pb3 2.488119 1_555
O4 Zr0 2.040983 1_565
O4 Zr1 2.210345 1_566
O4 Pb0 2.449525 1_555
O5 Zr1 2.055241 1_565
O5 Zr2 2.179646 1_565
O5 Pb1 2.488119 1_555
O6 Zr2 2.084809 1_565
O6 Ti0 2.112296 1_666
O6 Pb2 2.429945 1_655
O7 Ti0 1.906480 1_565
O7 Zr0 2.254343 1_565
O7 Pb3 2.425722 1_555
O8 Zr1 2.054771 1_556
O8 Zr1 2.228854 1_566
O8 Pb0 2.422651 1_555
O9 Zr2 2.053638 1_555
O9 Zr2 2.223735 1_565
O9 Pb1 2.480973 1_555
O10 Ti0 1.813855 1_555
O10 Ti0 2.452422 1_565
O10 Pb2 2.484984 1_554
O11 Zr0 2.053638 1_555
O11 Zr0 2.223735 1_565
O11 Pb3 2.480973 1_555
