# generated using pymatgen
data_Na2Lu2B2TeO10
_symmetry_space_group_name_H-M   'P 1'
_cell_length_a   9.87805500
_cell_length_b   6.30354600
_cell_length_c   6.69661946
_cell_angle_alpha   76.47201534
_cell_angle_beta   90.00000000
_cell_angle_gamma   90.00000000
_symmetry_Int_Tables_number   1
_chemical_formula_structural   Na2Lu2B2TeO10
_chemical_formula_sum   'Na4 Lu4 B4 Te2 O20'
_cell_volume   405.40819390
_cell_formula_units_Z   2
loop_
 _symmetry_equiv_pos_site_id
 _symmetry_equiv_pos_as_xyz
  1  'x, y, z'
loop_
 _atom_site_type_symbol
 _atom_site_label
 _atom_site_symmetry_multiplicity
 _atom_site_fract_x
 _atom_site_fract_y
 _atom_site_fract_z
 _atom_site_occupancy
  Na  Na0  1  0.61095900  0.41728800  0.16763800  1
  Na  Na1  1  0.11095900  0.58271200  0.33236200  1
  Na  Na2  1  0.38904100  0.58271200  0.83236200  1
  Na  Na3  1  0.88904100  0.41728800  0.66763800  1
  Lu  Lu0  1  0.83511900  0.87301100  0.02341500  1
  Lu  Lu1  1  0.33511900  0.12698900  0.47658500  1
  Lu  Lu2  1  0.16488100  0.12698900  0.97658500  1
  Lu  Lu3  1  0.66488100  0.87301100  0.52341500  1
  B  B0  1  0.39952600  0.66246800  0.37420900  1
  B  B1  1  0.89952600  0.33753200  0.12579100  1
  B  B2  1  0.60047400  0.33753200  0.62579100  1
  B  B3  1  0.10047400  0.66246800  0.87420900  1
  Te  Te0  1  0.50000000  0.00000000  0.00000000  1
  Te  Te1  1  0.00000000  0.00000000  0.50000000  1
  O  O0  1  0.83022600  0.52455200  0.05070800  1
  O  O1  1  0.33022600  0.47544800  0.44929200  1
  O  O2  1  0.16977400  0.47544800  0.94929200  1
  O  O3  1  0.66977400  0.52455200  0.55070800  1
  O  O4  1  0.65336000  0.99979100  0.18074500  1
  O  O5  1  0.15336000  0.00020900  0.31925500  1
  O  O6  1  0.34664000  0.00020900  0.81925500  1
  O  O7  1  0.84664000  0.99979100  0.68074500  1
  O  O8  1  0.43425100  0.70838900  0.16201700  1
  O  O9  1  0.93425100  0.29161100  0.33798300  1
  O  O10  1  0.56574900  0.29161100  0.83798300  1
  O  O11  1  0.06574900  0.70838900  0.66201700  1
  O  O12  1  0.93782900  0.19485200  0.00849300  1
  O  O13  1  0.43782900  0.80514800  0.49150700  1
  O  O14  1  0.06217100  0.80514800  0.99150700  1
  O  O15  1  0.56217100  0.19485200  0.50849300  1
  O  O16  1  0.38288000  0.16487300  0.13789300  1
  O  O17  1  0.88288000  0.83512700  0.36210700  1
  O  O18  1  0.61712000  0.83512700  0.86210700  1
  O  O19  1  0.11712000  0.16487300  0.63789300  1
loop_
_geom_bond_atom_site_label_1
_geom_bond_atom_site_label_2
_geom_bond_distance
_geom_bond_site_symmetry_2
Na0 O0 2.348165 1_555
Na0 O15 2.431271 1_555
Na0 O8 2.526478 1_555
Na0 O10 2.553157 1_554
Na0 O4 2.645934 1_545
Na0 O16 2.792040 1_555
Na0 O3 2.861259 1_555
Na0 O18 2.933599 1_554
Na1 O1 2.348165 1_555
Na1 O14 2.431271 1_554
Na1 O9 2.526478 1_455
Na1 O11 2.553157 1_555
Na1 O5 2.645934 1_565
Na1 O17 2.792040 1_455
Na1 O2 2.861259 1_554
Na1 O19 2.933599 1_555
Na2 O2 2.348165 1_555
Na2 O13 2.431271 1_555
Na2 O10 2.526478 1_555
Na2 O8 2.553157 1_556
Na2 O6 2.645934 1_565
Na2 O18 2.792040 1_555
Na2 O1 2.861259 1_555
Na2 O16 2.933599 1_556
Na3 O3 2.348165 1_555
Na3 O12 2.431271 1_556
Na3 O11 2.526478 1_655
Na3 O9 2.553157 1_555
Na3 O7 2.645934 1_545
Na3 O19 2.792040 1_655
Na3 O0 2.861259 1_556
Na3 O17 2.933599 1_555
Lu0 O0 2.161632 1_555
Lu0 O7 2.249321 1_554
Lu0 O12 2.249509 1_565
Lu0 O17 2.273863 1_555
Lu0 O14 2.302544 1_654
Lu0 O4 2.316497 1_555
Lu0 O18 2.445760 1_554
Lu1 O1 2.161632 1_555
Lu1 O6 2.249321 1_555
Lu1 O13 2.249509 1_545
Lu1 O16 2.273863 1_555
Lu1 O15 2.302544 1_555
Lu1 O5 2.316497 1_555
Lu1 O19 2.445760 1_555
Lu2 O2 2.161632 1_555
Lu2 O5 2.249321 1_556
Lu2 O14 2.249509 1_545
Lu2 O19 2.273863 1_555
Lu2 O12 2.302544 1_456
Lu2 O6 2.316497 1_555
Lu2 O16 2.445760 1_556
Lu3 O3 2.161632 1_555
Lu3 O4 2.249321 1_555
Lu3 O15 2.249509 1_565
Lu3 O18 2.273863 1_555
Lu3 O13 2.302544 1_555
Lu3 O7 2.316497 1_555
Lu3 O17 2.445760 1_555
B0 O1 1.354210 1_555
B0 O13 1.378254 1_555
B0 O8 1.424138 1_555
B1 O0 1.354210 1_555
B1 O12 1.378254 1_555
B1 O9 1.424138 1_555
B2 O3 1.354210 1_555
B2 O15 1.378254 1_555
B2 O10 1.424138 1_555
B3 O2 1.354210 1_555
B3 O14 1.378254 1_555
B3 O11 1.424138 1_555
O4 Te0 1.938864 1_565
O5 Te1 1.938864 1_555
O6 Te0 1.938864 1_556
O7 Te1 1.938864 1_665
O8 Te0 2.011178 1_565
O9 Te1 2.011178 1_655
O10 Te0 2.011178 1_556
O11 Te1 2.011178 1_565
O16 Te0 1.928796 1_555
O17 Te1 1.928796 1_665
O18 Te0 1.928796 1_566
O19 Te1 1.928796 1_555
