# generated using pymatgen
data_Tm2(Ga3Co)3
_symmetry_space_group_name_H-M   'P 1'
_cell_length_a   7.35802939
_cell_length_b   7.35802939
_cell_length_c   9.37440600
_cell_angle_alpha   90.00000000
_cell_angle_beta   90.00000000
_cell_angle_gamma   119.88981847
_symmetry_Int_Tables_number   1
_chemical_formula_structural   Tm2(Ga3Co)3
_chemical_formula_sum   'Tm4 Ga18 Co6'
_cell_volume   440.02620164
_cell_formula_units_Z   2
loop_
 _symmetry_equiv_pos_site_id
 _symmetry_equiv_pos_as_xyz
  1  'x, y, z'
loop_
 _atom_site_type_symbol
 _atom_site_label
 _atom_site_symmetry_multiplicity
 _atom_site_fract_x
 _atom_site_fract_y
 _atom_site_fract_z
 _atom_site_occupancy
  Tm  Tm0  1  0.33139800  0.00325300  0.25000000  1
  Tm  Tm1  1  0.99674700  0.66860200  0.75000000  1
  Tm  Tm2  1  0.66860200  0.99674700  0.75000000  1
  Tm  Tm3  1  0.00325300  0.33139800  0.25000000  1
  Ga  Ga0  1  0.33392300  0.99956400  0.92711500  1
  Ga  Ga1  1  0.00043600  0.66607700  0.07288500  1
  Ga  Ga2  1  0.33392300  0.99956400  0.57288500  1
  Ga  Ga3  1  0.00043600  0.66607700  0.42711500  1
  Ga  Ga4  1  0.66607700  0.00043600  0.07288500  1
  Ga  Ga5  1  0.99956400  0.33392300  0.92711500  1
  Ga  Ga6  1  0.66607700  0.00043600  0.42711500  1
  Ga  Ga7  1  0.99956400  0.33392300  0.57288500  1
  Ga  Ga8  1  0.66547900  0.66547900  0.94164400  1
  Ga  Ga9  1  0.33452100  0.33452100  0.05835600  1
  Ga  Ga10  1  0.66547900  0.66547900  0.55835600  1
  Ga  Ga11  1  0.33452100  0.33452100  0.44164400  1
  Ga  Ga12  1  0.12073200  0.12073200  0.75000000  1
  Ga  Ga13  1  0.87926800  0.87926800  0.25000000  1
  Ga  Ga14  1  0.44964400  0.66455400  0.25000000  1
  Ga  Ga15  1  0.33544600  0.55035600  0.75000000  1
  Ga  Ga16  1  0.55035600  0.33544600  0.75000000  1
  Ga  Ga17  1  0.66455400  0.44964400  0.25000000  1
  Co  Co0  1  0.00000000  0.00000000  0.00000000  1
  Co  Co1  1  0.00000000  0.00000000  0.50000000  1
  Co  Co2  1  0.32818400  0.67181600  0.00000000  1
  Co  Co3  1  0.32818400  0.67181600  0.50000000  1
  Co  Co4  1  0.67181600  0.32818400  0.00000000  1
  Co  Co5  1  0.67181600  0.32818400  0.50000000  1
loop_
_geom_bond_atom_site_label_1
_geom_bond_atom_site_label_2
_geom_bond_distance
_geom_bond_site_symmetry_2
Ga0 Ga12 2.721440 1_565
Ga0 Ga16 2.734622 1_565
Ga0 Ga9 2.752678 1_566
Ga0 Ga4 2.797300 1_566
Ga0 Ga1 2.812219 1_556
Ga0 Tm1 2.969960 1_455
Ga0 Tm2 2.978649 1_555
Ga0 Tm0 3.027117 1_566
Ga1 Ga13 2.721440 1_455
Ga1 Ga17 2.734622 1_455
Ga1 Ga8 2.752678 1_454
Ga1 Ga5 2.797300 1_454
Ga1 Tm0 2.969960 1_565
Ga1 Tm3 2.978649 1_555
Ga1 Tm1 3.027117 1_454
Ga2 Ga6 2.797300 1_565
Ga2 Ga3 2.812219 1_555
Ga2 Tm1 2.969960 1_455
Ga2 Tm2 2.978649 1_555
Ga2 Tm0 3.027117 1_565
Ga3 Ga7 2.797300 1_455
Ga3 Tm0 2.969960 1_565
Ga3 Tm3 2.978649 1_555
Ga3 Tm1 3.027117 1_455
Ga4 Ga8 2.752678 1_544
Ga4 Ga5 2.812219 1_554
Ga4 Tm3 2.969960 1_655
Ga4 Tm0 2.978649 1_555
Ga4 Tm2 3.027117 1_544
Ga5 Ga9 2.752678 1_656
Ga5 Tm2 2.969960 1_545
Ga5 Tm1 2.978649 1_555
Ga5 Tm3 3.027117 1_656
Ga6 Ga7 2.812219 1_555
Ga6 Tm3 2.969960 1_655
Ga6 Tm0 2.978649 1_555
Ga6 Tm2 3.027117 1_545
Ga7 Tm2 2.969960 1_545
Ga7 Tm1 2.978649 1_555
Ga7 Tm3 3.027117 1_655
Ga8 Ga9 2.673392 1_556
Ga8 Tm1 3.018874 1_555
Ga8 Tm2 3.018874 1_555
Ga9 Tm0 3.018874 1_555
Ga9 Tm3 3.018874 1_555
Ga10 Ga11 2.673392 1_555
Ga10 Ga6 2.752678 1_565
Ga10 Ga3 2.752678 1_655
Ga10 Ga16 2.791422 1_555
Ga10 Ga15 2.791422 1_555
Ga10 Tm1 3.018874 1_555
Ga10 Tm2 3.018874 1_555
Ga11 Ga2 2.752678 1_545
Ga11 Ga7 2.752678 1_455
Ga11 Ga14 2.791422 1_555
Ga11 Ga17 2.791422 1_555
Ga11 Tm0 3.018874 1_555
Ga11 Tm3 3.018874 1_555
Ga12 Ga5 2.721440 1_455
Ga12 Ga2 2.721440 1_545
Ga12 Ga7 2.721440 1_455
Ga12 Ga16 2.740706 1_555
Ga12 Ga15 2.740706 1_555
Ga12 Tm2 2.979078 1_445
Ga12 Tm1 2.979078 1_445
Ga13 Ga3 2.721440 1_655
Ga13 Ga6 2.721440 1_565
Ga13 Ga4 2.721440 1_565
Ga13 Ga17 2.740706 1_555
Ga13 Ga14 2.740706 1_555
Ga13 Tm3 2.979078 1_665
Ga13 Tm0 2.979078 1_665
Ga14 Ga6 2.734622 1_565
Ga14 Ga4 2.734622 1_565
Ga14 Ga17 2.737395 1_555
Ga14 Ga9 2.791422 1_555
Ga14 Tm3 2.961875 1_555
Ga14 Tm0 3.021414 1_565
Ga15 Ga5 2.734622 1_455
Ga15 Ga7 2.734622 1_455
Ga15 Ga16 2.737395 1_555
Ga15 Ga8 2.791422 1_555
Ga15 Tm2 2.961875 1_555
Ga15 Tm1 3.021414 1_455
Ga16 Ga2 2.734622 1_545
Ga16 Ga8 2.791422 1_555
Ga16 Tm1 2.961875 1_555
Ga16 Tm2 3.021414 1_545
Ga17 Ga3 2.734622 1_655
Ga17 Ga9 2.791422 1_555
Ga17 Tm0 2.961875 1_555
Ga17 Tm3 3.021414 1_655
Co0 Ga12 2.506843 1_554
Co0 Ga13 2.506843 1_445
Co0 Ga9 2.525475 1_555
Co0 Ga8 2.525475 1_444
Co0 Ga0 2.551789 1_544
Co0 Ga5 2.551789 1_454
Co0 Ga1 2.551789 1_545
Co0 Ga4 2.551789 1_455
Co1 Ga12 2.506843 1_555
Co1 Ga13 2.506843 1_445
Co1 Ga11 2.525475 1_555
Co1 Ga10 2.525475 1_445
Co1 Ga2 2.551789 1_545
Co1 Ga7 2.551789 1_455
Co1 Ga3 2.551789 1_545
Co1 Ga6 2.551789 1_455
Co2 Ga1 2.486531 1_555
Co2 Ga0 2.486531 1_554
Co2 Ga15 2.518259 1_554
Co2 Ga14 2.518259 1_555
Co2 Ga4 2.550139 1_565
Co2 Ga5 2.550139 1_454
Co2 Ga8 2.564418 1_554
Co2 Ga9 2.564418 1_555
Co3 Ga2 2.486531 1_555
Co3 Ga3 2.486531 1_555
Co3 Ga15 2.518259 1_555
Co3 Ga14 2.518259 1_555
Co3 Ga6 2.550139 1_565
Co3 Ga7 2.550139 1_455
Co3 Ga10 2.564418 1_555
Co3 Ga11 2.564418 1_555
Co4 Ga4 2.486531 1_555
Co4 Ga5 2.486531 1_554
Co4 Ga16 2.518259 1_554
Co4 Ga17 2.518259 1_555
Co4 Ga1 2.550139 1_655
Co4 Ga0 2.550139 1_544
Co4 Ga8 2.564418 1_554
Co4 Ga9 2.564418 1_555
Co5 Ga7 2.486531 1_555
Co5 Ga6 2.486531 1_555
Co5 Ga16 2.518259 1_555
Co5 Ga17 2.518259 1_555
Co5 Ga3 2.550139 1_655
Co5 Ga2 2.550139 1_545
Co5 Ga10 2.564418 1_555
Co5 Ga11 2.564418 1_555
