# generated using pymatgen
data_Ba3FeS5
_symmetry_space_group_name_H-M   'P 1'
_cell_length_a   9.37535063
_cell_length_b   9.37535063
_cell_length_c   18.24202400
_cell_angle_alpha   90.00000000
_cell_angle_beta   90.00000000
_cell_angle_gamma   120.00000447
_symmetry_Int_Tables_number   1
_chemical_formula_structural   Ba3FeS5
_chemical_formula_sum   'Ba18 Fe6 S30'
_cell_volume   1388.60483488
_cell_formula_units_Z   6
loop_
 _symmetry_equiv_pos_site_id
 _symmetry_equiv_pos_as_xyz
  1  'x, y, z'
loop_
 _atom_site_type_symbol
 _atom_site_label
 _atom_site_symmetry_multiplicity
 _atom_site_fract_x
 _atom_site_fract_y
 _atom_site_fract_z
 _atom_site_occupancy
  Ba  Ba0  1  0.62447800  0.64314100  0.00000000  1
  Ba  Ba1  1  0.01866300  0.37552200  0.00000000  1
  Ba  Ba2  1  0.35685900  0.98133700  0.00000000  1
  Ba  Ba3  1  0.03426400  0.64383800  0.50000000  1
  Ba  Ba4  1  0.35616200  0.39042600  0.50000000  1
  Ba  Ba5  1  0.60957400  0.96573600  0.50000000  1
  Ba  Ba6  1  0.98086000  0.61742700  0.83415800  1
  Ba  Ba7  1  0.63656700  0.01914000  0.83415800  1
  Ba  Ba8  1  0.38257300  0.36343300  0.83415800  1
  Ba  Ba9  1  0.98086000  0.61742700  0.16584200  1
  Ba  Ba10  1  0.63656700  0.01914000  0.16584200  1
  Ba  Ba11  1  0.38257300  0.36343300  0.16584200  1
  Ba  Ba12  1  0.62730300  0.62059400  0.33446800  1
  Ba  Ba13  1  0.37940600  0.00670800  0.33446800  1
  Ba  Ba14  1  0.99329200  0.37269700  0.33446800  1
  Ba  Ba15  1  0.62730300  0.62059400  0.66553200  1
  Ba  Ba16  1  0.37940600  0.00670800  0.66553200  1
  Ba  Ba17  1  0.99329200  0.37269700  0.66553200  1
  Fe  Fe0  1  0.00000000  0.00000000  0.90577000  1
  Fe  Fe1  1  0.00000000  0.00000000  0.09423000  1
  Fe  Fe2  1  0.00000000  0.00000000  0.40952400  1
  Fe  Fe3  1  0.00000000  0.00000000  0.59047600  1
  Fe  Fe4  1  0.00000000  0.00000000  0.74845000  1
  Fe  Fe5  1  0.00000000  0.00000000  0.25155000  1
  S  S0  1  0.33333300  0.66666700  0.89489500  1
  S  S1  1  0.33333300  0.66666700  0.10510500  1
  S  S2  1  0.33333300  0.66666700  0.39689400  1
  S  S3  1  0.33333300  0.66666700  0.60310600  1
  S  S4  1  0.99234700  0.77416600  0.00000000  1
  S  S5  1  0.78181900  0.00765300  0.00000000  1
  S  S6  1  0.22583400  0.21818100  0.00000000  1
  S  S7  1  0.78919500  0.77668600  0.50000000  1
  S  S8  1  0.22331400  0.01250800  0.50000000  1
  S  S9  1  0.98749200  0.21080500  0.50000000  1
  S  S10  1  0.77647400  0.78426400  0.83427400  1
  S  S11  1  0.00778900  0.22352600  0.83427400  1
  S  S12  1  0.21573600  0.99221100  0.83427400  1
  S  S13  1  0.77647400  0.78426400  0.16572600  1
  S  S14  1  0.00778900  0.22352600  0.16572600  1
  S  S15  1  0.21573600  0.99221100  0.16572600  1
  S  S16  1  0.00326500  0.78347500  0.33161300  1
  S  S17  1  0.21652500  0.21978900  0.33161300  1
  S  S18  1  0.78021100  0.99673500  0.33161300  1
  S  S19  1  0.00326500  0.78347500  0.66838700  1
  S  S20  1  0.21652500  0.21978900  0.66838700  1
  S  S21  1  0.78021100  0.99673500  0.66838700  1
  S  S22  1  0.66666700  0.33333300  0.94169100  1
  S  S23  1  0.66666700  0.33333300  0.05830900  1
  S  S24  1  0.66666700  0.33333300  0.44180000  1
  S  S25  1  0.66666700  0.33333300  0.55820000  1
  S  S26  1  0.66666700  0.33333300  0.75072900  1
  S  S27  1  0.66666700  0.33333300  0.24927100  1
  S  S28  1  0.33333300  0.66666700  0.77420300  1
  S  S29  1  0.33333300  0.66666700  0.22579700  1
loop_
_geom_bond_atom_site_label_1
_geom_bond_atom_site_label_2
_geom_bond_distance
_geom_bond_site_symmetry_2
Ba0 S5 2.968783 1_565
Ba0 S4 3.027746 1_555
Ba0 S23 3.297449 1_555
Ba0 S22 3.297449 1_554
Ba0 S13 3.321957 1_555
Ba0 S10 3.321957 1_554
Ba0 S1 3.431834 1_555
Ba0 S0 3.431834 1_554
Ba1 S6 2.968783 1_555
Ba1 S5 3.027746 1_455
Ba1 S23 3.297441 1_455
Ba1 S22 3.297441 1_454
Ba1 S14 3.321956 1_555
Ba1 S11 3.321956 1_554
Ba1 S0 3.431830 1_554
Ba1 S1 3.431830 1_555
Ba2 S4 2.968783 1_455
Ba2 S6 3.027747 1_565
Ba2 S23 3.297444 1_565
Ba2 S22 3.297444 1_564
Ba2 S15 3.321960 1_555
Ba2 S12 3.321960 1_554
Ba2 S1 3.431827 1_555
Ba2 S0 3.431827 1_554
Ba3 S8 2.993666 1_565
Ba3 S7 3.113186 1_455
Ba3 S2 3.293184 1_555
Ba3 S3 3.293184 1_555
Ba3 S24 3.383242 1_455
Ba3 S25 3.383242 1_455
Ba3 S19 3.407970 1_555
Ba3 S16 3.407970 1_555
Ba4 S9 2.993665 1_455
Ba4 S8 3.113195 1_555
Ba4 S2 3.293192 1_555
Ba4 S3 3.293192 1_555
Ba4 S24 3.383247 1_555
Ba4 S25 3.383247 1_555
Ba4 S20 3.407973 1_555
Ba4 S17 3.407973 1_555
Ba5 S7 2.993674 1_555
Ba5 S9 3.113193 1_565
Ba5 S2 3.293187 1_555
Ba5 S3 3.293187 1_555
Ba5 S24 3.383239 1_565
Ba5 S25 3.383239 1_565
Ba5 S21 3.407974 1_555
Ba5 S18 3.407974 1_555
Ba6 S10 3.019204 1_555
Ba6 S12 3.075373 1_655
Ba6 S26 3.200248 1_555
Ba6 S28 3.286925 1_655
Ba6 S0 3.291699 1_655
Ba6 S4 3.341426 1_556
Ba6 S19 3.359342 1_655
Ba6 S22 3.431226 1_555
Ba6 S11 3.825448 1_655
Ba7 S11 3.019196 1_655
Ba7 S10 3.075366 1_545
Ba7 S26 3.200244 1_555
Ba7 S28 3.286928 1_545
Ba7 S0 3.291702 1_545
Ba7 S5 3.341426 1_556
Ba7 S21 3.359347 1_545
Ba7 S22 3.431223 1_555
Ba7 S12 3.825458 1_545
Ba8 S12 3.019195 1_545
Ba8 S11 3.075374 1_555
Ba8 S26 3.200253 1_555
Ba8 S28 3.286934 1_555
Ba8 S0 3.291708 1_555
Ba8 S6 3.341426 1_556
Ba8 S20 3.359344 1_555
Ba8 S22 3.431231 1_555
Ba8 S10 3.825453 1_555
Ba9 S13 3.019204 1_555
Ba9 S15 3.075373 1_655
Ba9 S27 3.200248 1_555
Ba9 S29 3.286925 1_655
Ba9 S1 3.291699 1_655
Ba9 S4 3.341426 1_555
Ba9 S16 3.359342 1_655
Ba9 S23 3.431226 1_555
Ba9 S14 3.825448 1_655
Ba10 S14 3.019196 1_655
Ba10 S13 3.075366 1_545
Ba10 S27 3.200244 1_555
Ba10 S29 3.286928 1_545
Ba10 S1 3.291702 1_545
Ba10 S5 3.341426 1_555
Ba10 S18 3.359347 1_545
Ba10 S23 3.431223 1_555
Ba10 S15 3.825458 1_545
Ba11 S15 3.019195 1_545
Ba11 S14 3.075374 1_555
Ba11 S27 3.200253 1_555
Ba11 S29 3.286934 1_555
Ba11 S1 3.291708 1_555
Ba11 S6 3.341426 1_555
Ba11 S17 3.359344 1_555
Ba11 S23 3.431231 1_555
Ba11 S13 3.825453 1_555
Ba12 S16 3.062045 1_655
Ba12 S18 3.072181 1_555
Ba12 S2 3.204655 1_555
Ba12 S27 3.286142 1_555
Ba12 S7 3.367839 1_555
Ba12 S13 3.411709 1_555
Ba12 S24 3.495265 1_555
Ba12 S29 3.592050 1_555
Ba12 S17 3.805655 1_555
Ba13 S17 3.062045 1_555
Ba13 S16 3.072181 1_545
Ba13 S2 3.204637 1_545
Ba13 S27 3.286142 1_555
Ba13 S8 3.367839 1_555
Ba13 S15 3.411713 1_545
Ba13 S24 3.495265 1_555
Ba13 S29 3.592035 1_545
Ba13 S18 3.805656 1_545
Ba14 S18 3.062045 1_545
Ba14 S17 3.072181 1_655
Ba14 S2 3.204644 1_655
Ba14 S27 3.286142 1_555
Ba14 S9 3.367839 1_555
Ba14 S14 3.411705 1_655
Ba14 S24 3.495265 1_555
Ba14 S29 3.592041 1_655
Ba14 S16 3.805656 1_655
Ba15 S19 3.062045 1_655
Ba15 S21 3.072181 1_555
Ba15 S3 3.204655 1_555
Ba15 S26 3.286142 1_555
Ba15 S7 3.367839 1_555
Ba15 S10 3.411709 1_555
Ba15 S25 3.495265 1_555
Ba15 S28 3.592050 1_555
Ba15 S20 3.805655 1_555
Ba16 S20 3.062045 1_555
Ba16 S19 3.072181 1_545
Ba16 S3 3.204637 1_545
Ba16 S26 3.286142 1_555
Ba16 S8 3.367839 1_555
Ba16 S12 3.411713 1_545
Ba16 S25 3.495265 1_555
Ba16 S28 3.592035 1_545
Ba16 S21 3.805656 1_545
Ba17 S21 3.062045 1_545
Ba17 S20 3.072181 1_655
Ba17 S3 3.204644 1_655
Ba17 S26 3.286142 1_555
Ba17 S9 3.367839 1_555
Ba17 S11 3.411705 1_655
Ba17 S25 3.495265 1_555
Ba17 S28 3.592041 1_655
Ba17 S19 3.805656 1_655
Fe0 S12 2.438230 1_545
Fe0 S10 2.438234 1_445
Fe0 S11 2.438238 1_555
Fe0 S6 2.700158 1_556
Fe0 S4 2.700158 1_446
Fe0 S5 2.700158 1_456
Fe1 S15 2.438230 1_545
Fe1 S13 2.438234 1_445
Fe1 S14 2.438238 1_555
Fe1 S6 2.700158 1_555
Fe1 S4 2.700158 1_445
Fe1 S5 2.700158 1_455
Fe2 S18 2.490762 1_445
Fe2 S17 2.490765 1_555
Fe2 S16 2.490769 1_545
Fe2 S9 2.622135 1_455
Fe2 S7 2.622139 1_445
Fe2 S8 2.622142 1_555
Fe3 S21 2.490762 1_445
Fe3 S20 2.490765 1_555
Fe3 S19 2.490769 1_545
Fe3 S9 2.622135 1_455
Fe3 S7 2.622139 1_445
Fe3 S8 2.622142 1_555
Fe4 S21 2.513369 1_445
Fe4 S20 2.513372 1_555
Fe4 S19 2.513376 1_545
Fe4 S12 2.587481 1_545
Fe4 S10 2.587485 1_445
Fe4 S11 2.587489 1_555
Fe5 S18 2.513369 1_445
Fe5 S17 2.513372 1_555
Fe5 S16 2.513376 1_545
Fe5 S15 2.587481 1_545
Fe5 S13 2.587485 1_445
Fe5 S14 2.587489 1_555
S0 S28 2.201666 1_555
S1 S29 2.201666 1_555
S22 S23 2.127348 1_556
S24 S25 2.123372 1_555
