# generated using pymatgen
data_Tm12Co5Bi
_symmetry_space_group_name_H-M   'P 1'
_cell_length_a   8.16479239
_cell_length_b   8.16479538
_cell_length_c   8.16479811
_cell_angle_alpha   110.48329576
_cell_angle_beta   111.12937311
_cell_angle_gamma   106.83354781
_symmetry_Int_Tables_number   1
_chemical_formula_structural   Tm12Co5Bi
_chemical_formula_sum   'Tm12 Co5 Bi1'
_cell_volume   418.32335764
_cell_formula_units_Z   1
loop_
 _symmetry_equiv_pos_site_id
 _symmetry_equiv_pos_as_xyz
  1  'x, y, z'
loop_
 _atom_site_type_symbol
 _atom_site_label
 _atom_site_symmetry_multiplicity
 _atom_site_fract_x
 _atom_site_fract_y
 _atom_site_fract_z
 _atom_site_occupancy
  Tm  Tm0  1  0.28485131  0.18181183  0.46666288  1
  Tm  Tm1  1  0.71514806  0.81818798  0.53333591  1
  Tm  Tm2  1  0.28485225  0.81818820  0.10303990  1
  Tm  Tm3  1  0.71514833  0.18181158  0.89696002  1
  Tm  Tm4  1  0.61807120  0.31025489  0.30781551  1
  Tm  Tm5  1  0.38193013  0.68974458  0.69218490  1
  Tm  Tm6  1  0.00243928  0.31025456  0.69218450  1
  Tm  Tm7  1  0.99755990  0.68974496  0.30781439  1
  Tm  Tm8  1  0.21092837  0.40981675  0.19888813  1
  Tm  Tm9  1  0.78906816  0.59017649  0.80110809  1
  Tm  Tm10  1  0.21093208  0.01204018  0.80110801  1
  Tm  Tm11  1  0.78907146  0.98796035  0.19888845  1
  Co  Co0  1  0.00000080  0.37969312  0.37969321  1
  Co  Co1  1  -0.00000084  0.62030957  0.62030931  1
  Co  Co2  1  0.38941345  0.88941709  0.50000406  1
  Co  Co3  1  0.61058485  0.11058647  0.50000063  1
  Co  Co4  1  0.00000022  0.00000230  0.00000217  1
  Bi  Bi0  1  0.49999999  0.50000008  -0.00000007  1
loop_
_geom_bond_atom_site_label_1
_geom_bond_atom_site_label_2
_geom_bond_distance
_geom_bond_site_symmetry_2
Co0 Co1 2.240090 1_555
Co0 Tm11 2.654685 1_445
Co0 Tm8 2.654686 1_555
Co0 Tm5 2.795328 1_555
Co0 Tm4 2.795333 1_455
Co0 Tm6 2.795338 1_555
Co0 Tm7 2.795341 1_455
Co0 Tm0 3.211280 1_555
Co0 Tm3 3.211289 1_454
Co1 Tm9 2.654675 1_455
Co1 Tm10 2.654678 1_565
Co1 Tm4 2.795333 1_455
Co1 Tm6 2.795350 1_555
Co1 Tm7 2.795352 1_455
Co1 Tm5 2.795353 1_555
Co1 Tm1 3.211270 1_455
Co1 Tm2 3.211276 1_556
Co2 Co3 2.152506 1_565
Co2 Tm7 2.631623 1_455
Co2 Tm5 2.631627 1_555
Co2 Tm3 2.823128 1_565
Co2 Tm0 2.823139 1_565
Co2 Tm1 2.823174 1_555
Co2 Tm2 2.823179 1_555
Co2 Tm10 3.297767 1_565
Co2 Tm8 3.297872 1_555
Co3 Tm4 2.631630 1_555
Co3 Tm6 2.631630 1_655
Co3 Tm0 2.823142 1_555
Co3 Tm3 2.823147 1_555
Co3 Tm2 2.823148 1_545
Co3 Tm1 2.823159 1_545
Co3 Tm9 3.297795 1_555
Co3 Tm11 3.297859 1_545
Co4 Tm8 2.764487 1_555
Co4 Tm11 2.764494 1_445
Co4 Tm9 2.764561 1_444
Co4 Tm10 2.764566 1_554
Co4 Tm0 3.127849 1_555
Co4 Tm3 3.127855 1_454
Co4 Tm1 3.127880 1_444
Co4 Tm2 3.127881 1_545
Bi0 Tm10 3.367957 1_554
Bi0 Tm9 3.367962 1_554
Bi0 Tm11 3.367970 1_555
Bi0 Tm8 3.367971 1_555
Bi0 Tm7 3.389556 1_555
Bi0 Tm5 3.389559 1_554
Bi0 Tm6 3.389561 1_554
Bi0 Tm4 3.389569 1_555
Bi0 Tm1 3.566767 1_555
Bi0 Tm2 3.566769 1_555
Bi0 Tm0 3.566774 1_554
Bi0 Tm3 3.566775 1_554
