# generated using pymatgen
data_K5Na3Ta6Nb2O24
_symmetry_space_group_name_H-M   'P 1'
_cell_length_a   8.04841900
_cell_length_b   8.04846400
_cell_length_c   8.04944102
_cell_angle_alpha   89.99616341
_cell_angle_beta   90.00000000
_cell_angle_gamma   90.00000000
_symmetry_Int_Tables_number   1
_chemical_formula_structural   K5Na3Ta6Nb2O24
_chemical_formula_sum   'K5 Na3 Ta6 Nb2 O24'
_cell_volume   521.42194458
_cell_formula_units_Z   1
loop_
 _symmetry_equiv_pos_site_id
 _symmetry_equiv_pos_as_xyz
  1  'x, y, z'
loop_
 _atom_site_type_symbol
 _atom_site_label
 _atom_site_symmetry_multiplicity
 _atom_site_fract_x
 _atom_site_fract_y
 _atom_site_fract_z
 _atom_site_occupancy
  K  K0  1  0.00000000  0.25010500  0.74989600  1
  K  K1  1  0.00000000  0.25009900  0.25010000  1
  K  K2  1  0.50000000  0.25010300  0.74989900  1
  K  K3  1  0.50000000  0.25009800  0.25010000  1
  K  K4  1  0.50000000  0.74989000  0.25010800  1
  Na  Na0  1  0.00000000  0.74999100  0.74999200  1
  Na  Na1  1  0.00000000  0.74999300  0.25000900  1
  Na  Na2  1  0.50000000  0.74999200  0.74999200  1
  Ta  Ta0  1  0.24977800  0.99934100  0.99978000  1
  Ta  Ta1  1  0.24978200  0.50066800  0.99977900  1
  Ta  Ta2  1  0.24977800  0.99934000  0.50022300  1
  Ta  Ta3  1  0.75022200  0.99934100  0.99978000  1
  Ta  Ta4  1  0.75021800  0.50066800  0.99977900  1
  Ta  Ta5  1  0.75022200  0.99934000  0.50022300  1
  Nb  Nb0  1  0.24978000  0.50065100  0.50022000  1
  Nb  Nb1  1  0.75022000  0.50065100  0.50022000  1
  O  O0  1  0.00000000  0.99810800  0.99988600  1
  O  O1  1  0.00000000  0.50190500  0.99989100  1
  O  O2  1  0.00000000  0.99809000  0.50011100  1
  O  O3  1  0.00000000  0.50187700  0.50010000  1
  O  O4  1  0.50000000  0.99887000  0.99910100  1
  O  O5  1  0.50000000  0.50113100  0.99909000  1
  O  O6  1  0.50000000  0.99886700  0.50090400  1
  O  O7  1  0.50000000  0.50110400  0.50089500  1
  O  O8  1  0.24988700  0.99809900  0.75012200  1
  O  O9  1  0.24989500  0.50189100  0.75115800  1
  O  O10  1  0.24909600  0.99886800  0.24987400  1
  O  O11  1  0.24909700  0.50112000  0.24881600  1
  O  O12  1  0.75011300  0.99809900  0.75012200  1
  O  O13  1  0.75010500  0.50189100  0.75115800  1
  O  O14  1  0.75090400  0.99886800  0.24987400  1
  O  O15  1  0.75090300  0.50112000  0.24881600  1
  O  O16  1  0.24988400  0.24987100  0.99988400  1
  O  O17  1  0.24911500  0.75011800  0.99911400  1
  O  O18  1  0.24989000  0.24879300  0.50011200  1
  O  O19  1  0.24911500  0.75113100  0.50088300  1
  O  O20  1  0.75011600  0.24987100  0.99988400  1
  O  O21  1  0.75088500  0.75011800  0.99911400  1
  O  O22  1  0.75011000  0.24879300  0.50011200  1
  O  O23  1  0.75088500  0.75113100  0.50088300  1
loop_
_geom_bond_atom_site_label_1
_geom_bond_atom_site_label_2
_geom_bond_distance
_geom_bond_site_symmetry_2
K0 O22 2.843891 1_455
K0 O18 2.843891 1_555
K0 O16 2.844999 1_555
K0 O20 2.844999 1_455
K0 O3 2.854584 1_555
K0 O13 2.855159 1_455
K0 O9 2.855159 1_555
K0 O1 2.856063 1_555
K0 O2 2.856101 1_545
K0 O8 2.856353 1_545
K0 O12 2.856353 1_445
K0 O0 2.856969 1_545
K1 O22 2.845188 1_455
K1 O18 2.845188 1_555
K1 O15 2.846265 1_455
K1 O11 2.846265 1_555
K1 O20 2.846297 1_454
K1 O16 2.846297 1_554
K1 O14 2.847441 1_445
K1 O10 2.847441 1_545
K1 O3 2.855966 1_555
K1 O1 2.857120 1_554
K1 O2 2.857157 1_545
K1 O0 2.858397 1_544
K2 O18 2.845161 1_555
K2 O22 2.845161 1_555
K2 O7 2.845689 1_555
K2 O16 2.846302 1_555
K2 O20 2.846302 1_555
K2 O5 2.847094 1_555
K2 O6 2.847172 1_545
K2 O4 2.848137 1_545
K2 O9 2.856362 1_555
K2 O13 2.856362 1_555
K2 O8 2.857623 1_545
K2 O12 2.857623 1_545
K3 O18 2.846440 1_555
K3 O22 2.846440 1_555
K3 O16 2.847617 1_554
K3 O20 2.847617 1_554
K3 O7 2.856081 1_555
K3 O11 2.856527 1_555
K3 O15 2.856527 1_555
K3 O6 2.857222 1_545
K3 O5 2.857266 1_554
K3 O10 2.857700 1_545
K3 O14 2.857700 1_545
K3 O4 2.858505 1_544
K4 O7 2.843233 1_555
K4 O11 2.843738 1_555
K4 O15 2.843738 1_555
K4 O6 2.844558 1_555
K4 O5 2.844591 1_554
K4 O14 2.844904 1_555
K4 O10 2.844904 1_555
K4 O4 2.845590 1_554
K4 O23 2.855192 1_555
K4 O19 2.855192 1_555
K4 O21 2.856421 1_554
K4 O17 2.856421 1_554
Na0 O8 2.834161 1_555
Na0 O12 2.834161 1_455
Na0 O2 2.834162 1_555
Na0 O13 2.834177 1_455
Na0 O9 2.834177 1_555
Na0 O1 2.834191 1_555
Na0 O3 2.834500 1_555
Na0 O0 2.834528 1_555
Na0 O19 2.835633 1_555
Na0 O23 2.835633 1_455
Na0 O17 2.835693 1_555
Na0 O21 2.835693 1_455
Na1 O14 2.834007 1_455
Na1 O10 2.834007 1_555
Na1 O15 2.834018 1_455
Na1 O11 2.834018 1_555
Na1 O3 2.835458 1_555
Na1 O2 2.835603 1_555
Na1 O0 2.835636 1_554
Na1 O1 2.835644 1_554
Na1 O23 2.845698 1_455
Na1 O19 2.845698 1_555
Na1 O17 2.845803 1_554
Na1 O21 2.845803 1_454
Na2 O5 2.834024 1_555
Na2 O6 2.834046 1_555
Na2 O7 2.834361 1_555
Na2 O4 2.834373 1_555
Na2 O13 2.835382 1_555
Na2 O9 2.835382 1_555
Na2 O8 2.835447 1_555
Na2 O12 2.835447 1_555
Na2 O19 2.845723 1_555
Na2 O23 2.845723 1_555
Na2 O21 2.845783 1_555
Na2 O17 2.845783 1_555
Nb0 O3 2.010359 1_555
Nb0 O7 2.013886 1_555
Nb0 O19 2.015994 1_555
Nb0 O9 2.019936 1_555
Nb0 O11 2.023672 1_555
Nb0 O18 2.027070 1_555
Nb1 O3 2.010359 1_655
Nb1 O7 2.013886 1_555
Nb1 O23 2.015994 1_555
Nb1 O13 2.019936 1_555
Nb1 O15 2.023672 1_555
Nb1 O22 2.027070 1_555
O0 Ta3 2.010343 1_455
O0 Ta0 2.010343 1_555
O1 Ta4 2.010375 1_455
O1 Ta1 2.010375 1_555
O2 Ta5 2.010343 1_455
O2 Ta2 2.010343 1_555
O4 Ta0 2.013902 1_555
O4 Ta3 2.013902 1_555
O5 Ta1 2.013870 1_555
O5 Ta4 2.013870 1_555
O6 Ta2 2.013903 1_555
O6 Ta5 2.013903 1_555
O8 Ta0 2.009633 1_555
O8 Ta2 2.011572 1_555
O9 Ta1 2.001284 1_555
O10 Ta0 2.013128 1_554
O10 Ta2 2.015181 1_555
O11 Ta1 2.004620 1_554
O12 Ta3 2.009633 1_555
O12 Ta5 2.011572 1_555
O13 Ta4 2.001284 1_555
O14 Ta3 2.013128 1_554
O14 Ta5 2.015181 1_555
O15 Ta4 2.004620 1_554
O16 Ta0 2.016382 1_545
O16 Ta1 2.018531 1_555
O17 Ta0 2.005877 1_555
O17 Ta1 2.007703 1_555
O18 Ta2 2.007714 1_545
O19 Ta2 1.997715 1_555
O20 Ta3 2.016382 1_545
O20 Ta4 2.018531 1_555
O21 Ta3 2.005877 1_555
O21 Ta4 2.007703 1_555
O22 Ta5 2.007714 1_545
O23 Ta5 1.997715 1_555
