# generated using pymatgen
data_Mn3CoNi2(PO4)6
_symmetry_space_group_name_H-M   'P 1'
_cell_length_a   8.41195177
_cell_length_b   8.41195177
_cell_length_c   8.41195220
_cell_angle_alpha   61.17837925
_cell_angle_beta   61.17837925
_cell_angle_gamma   61.17838486
_symmetry_Int_Tables_number   1
_chemical_formula_structural   Mn3CoNi2(PO4)6
_chemical_formula_sum   'Mn3 Co1 Ni2 P6 O24'
_cell_volume   432.05477545
_cell_formula_units_Z   1
loop_
 _symmetry_equiv_pos_site_id
 _symmetry_equiv_pos_as_xyz
  1  'x, y, z'
loop_
 _atom_site_type_symbol
 _atom_site_label
 _atom_site_symmetry_multiplicity
 _atom_site_fract_x
 _atom_site_fract_y
 _atom_site_fract_z
 _atom_site_occupancy
  Mn  Mn0  1  0.14170300  0.14170300  0.14170300  1
  Mn  Mn1  1  0.35845600  0.35845600  0.35845600  1
  Mn  Mn2  1  0.64228300  0.64228300  0.64228300  1
  Co  Co0  1  0.85664600  0.85664600  0.85664600  1
  Ni  Ni0  1  0.99788900  0.99788900  0.99788900  1
  Ni  Ni1  1  0.50081300  0.50081300  0.50081300  1
  P  P0  1  0.75006200  0.04367200  0.45578500  1
  P  P1  1  0.04367200  0.45578500  0.75006200  1
  P  P2  1  0.45578500  0.75006200  0.04367200  1
  P  P3  1  0.54286200  0.24929600  0.95952900  1
  P  P4  1  0.95952900  0.54286200  0.24929600  1
  P  P5  1  0.24929600  0.95952900  0.54286200  1
  O  O0  1  0.31297700  0.12119400  0.50611300  1
  O  O1  1  0.50611300  0.31297700  0.12119400  1
  O  O2  1  0.90961200  0.06021900  0.25458300  1
  O  O3  1  0.12119400  0.50611300  0.31297700  1
  O  O4  1  0.81275200  0.01270700  0.61333200  1
  O  O5  1  0.58462600  0.24461900  0.44260200  1
  O  O6  1  0.06021900  0.25458300  0.90961200  1
  O  O7  1  0.24461900  0.44260200  0.58462600  1
  O  O8  1  0.38329100  0.18814400  0.99053100  1
  O  O9  1  0.44260200  0.58462600  0.24461900  1
  O  O10  1  0.74149500  0.09020000  0.94358400  1
  O  O11  1  0.99053100  0.38329100  0.18814400  1
  O  O12  1  0.01270700  0.61333200  0.81275200  1
  O  O13  1  0.25458300  0.90961200  0.06021900  1
  O  O14  1  0.55402900  0.41377400  0.76022800  1
  O  O15  1  0.61333200  0.81275200  0.01270700  1
  O  O16  1  0.76022800  0.55402900  0.41377400  1
  O  O17  1  0.94358400  0.74149500  0.09020000  1
  O  O18  1  0.41377400  0.76022800  0.55402900  1
  O  O19  1  0.18814400  0.99053100  0.38329100  1
  O  O20  1  0.88546300  0.48817600  0.68675300  1
  O  O21  1  0.09020000  0.94358400  0.74149500  1
  O  O22  1  0.48817600  0.68675300  0.88546300  1
  O  O23  1  0.68675300  0.88546300  0.48817600  1
loop_
_geom_bond_atom_site_label_1
_geom_bond_atom_site_label_2
_geom_bond_distance
_geom_bond_site_symmetry_2
Mn0 O8 1.922095 1_554
Mn0 O19 1.922096 1_545
Mn0 O11 1.922096 1_455
Mn0 O2 2.014549 1_455
Mn0 O13 2.014549 1_545
Mn0 O6 2.014549 1_554
Mn1 O0 1.886889 1_555
Mn1 O1 1.886889 1_555
Mn1 O3 1.886889 1_555
Mn1 O9 1.981403 1_555
Mn1 O5 1.981403 1_555
Mn1 O7 1.981403 1_555
Mn2 O23 1.928325 1_555
Mn2 O22 1.928325 1_555
Mn2 O20 1.928325 1_555
Mn2 O14 2.014280 1_555
Mn2 O18 2.014280 1_555
Mn2 O16 2.014280 1_555
Co0 O15 1.928610 1_556
Co0 O4 1.928610 1_565
Co0 O12 1.928610 1_655
Co0 O21 2.049480 1_655
Co0 O10 2.049480 1_565
Co0 O17 2.049480 1_556
Ni0 O17 2.111041 1_556
Ni0 O10 2.111041 1_565
Ni0 O21 2.111041 1_655
Ni0 O6 2.158493 1_665
Ni0 O13 2.158493 1_656
Ni0 O2 2.158493 1_566
Ni1 O16 2.140973 1_555
Ni1 O18 2.140973 1_555
Ni1 O14 2.140973 1_555
Ni1 O7 2.144972 1_555
Ni1 O5 2.144972 1_555
Ni1 O9 2.144972 1_555
O0 P5 1.539247 1_545
O1 P3 1.539248 1_554
O2 P0 1.564628 1_555
O3 P4 1.539248 1_455
O4 P0 1.520153 1_555
O5 P0 1.583113 1_555
O6 P1 1.564628 1_555
O7 P1 1.583113 1_555
O8 P3 1.527513 1_555
O9 P2 1.583113 1_555
O10 P3 1.549801 1_555
O11 P4 1.527513 1_555
O12 P1 1.520153 1_555
O13 P2 1.564628 1_555
O14 P3 1.571879 1_555
O15 P2 1.520153 1_555
O16 P4 1.571879 1_555
O17 P4 1.549801 1_555
O18 P5 1.571879 1_555
O19 P5 1.527513 1_555
O20 P1 1.524081 1_655
O21 P5 1.549801 1_555
O22 P2 1.524082 1_556
O23 P0 1.524081 1_565
