# generated using pymatgen
data_AlNi9B8
_symmetry_space_group_name_H-M   'P 1'
_cell_length_a   5.39670946
_cell_length_b   5.39670946
_cell_length_c   10.74095900
_cell_angle_alpha   90.00000000
_cell_angle_beta   90.00000000
_cell_angle_gamma   97.43863783
_symmetry_Int_Tables_number   1
_chemical_formula_structural   AlNi9B8
_chemical_formula_sum   'Al2 Ni18 B16'
_cell_volume   310.19206275
_cell_formula_units_Z   2
loop_
 _symmetry_equiv_pos_site_id
 _symmetry_equiv_pos_as_xyz
  1  'x, y, z'
loop_
 _atom_site_type_symbol
 _atom_site_label
 _atom_site_symmetry_multiplicity
 _atom_site_fract_x
 _atom_site_fract_y
 _atom_site_fract_z
 _atom_site_occupancy
  Al  Al0  1  0.91772200  0.08227800  0.75000000  1
  Al  Al1  1  0.08227800  0.91772200  0.25000000  1
  Ni  Ni0  1  0.00000000  0.00000000  0.00000000  1
  Ni  Ni1  1  0.00000000  0.00000000  0.50000000  1
  Ni  Ni2  1  0.71270000  0.28730000  0.91903700  1
  Ni  Ni3  1  0.28730000  0.71270000  0.08096300  1
  Ni  Ni4  1  0.71270000  0.28730000  0.58096300  1
  Ni  Ni5  1  0.28730000  0.71270000  0.41903700  1
  Ni  Ni6  1  0.39816900  0.04952200  0.75000000  1
  Ni  Ni7  1  0.04952200  0.39816900  0.25000000  1
  Ni  Ni8  1  0.60183100  0.95047800  0.25000000  1
  Ni  Ni9  1  0.95047800  0.60183100  0.75000000  1
  Ni  Ni10  1  0.62301600  0.75884200  0.88573300  1
  Ni  Ni11  1  0.75884200  0.62301600  0.11426700  1
  Ni  Ni12  1  0.62301600  0.75884200  0.61426700  1
  Ni  Ni13  1  0.75884200  0.62301600  0.38573300  1
  Ni  Ni14  1  0.37698400  0.24115800  0.11426700  1
  Ni  Ni15  1  0.24115800  0.37698400  0.88573300  1
  Ni  Ni16  1  0.37698400  0.24115800  0.38573300  1
  Ni  Ni17  1  0.24115800  0.37698400  0.61426700  1
  B  B0  1  0.56985600  0.43014400  0.75000000  1
  B  B1  1  0.43014400  0.56985600  0.25000000  1
  B  B2  1  0.35487800  0.64512200  0.75000000  1
  B  B3  1  0.64512200  0.35487800  0.25000000  1
  B  B4  1  0.77978400  0.22021600  0.37972200  1
  B  B5  1  0.22021600  0.77978400  0.62027800  1
  B  B6  1  0.77978400  0.22021600  0.12027800  1
  B  B7  1  0.22021600  0.77978400  0.87972200  1
  B  B8  1  0.38301300  0.04107800  0.94862700  1
  B  B9  1  0.04107800  0.38301300  0.05137300  1
  B  B10  1  0.38301300  0.04107800  0.55137300  1
  B  B11  1  0.04107800  0.38301300  0.44862700  1
  B  B12  1  0.61698700  0.95892200  0.05137300  1
  B  B13  1  0.95892200  0.61698700  0.94862700  1
  B  B14  1  0.61698700  0.95892200  0.44862700  1
  B  B15  1  0.95892200  0.61698700  0.55137300  1
loop_
_geom_bond_atom_site_label_1
_geom_bond_atom_site_label_2
_geom_bond_distance
_geom_bond_site_symmetry_2
Al0 Ni4 2.462092 1_555
Al0 Ni2 2.462092 1_555
Al0 Ni9 2.621586 1_545
Al0 Ni6 2.621586 1_655
Al0 Ni15 2.642520 1_655
Al0 Ni17 2.642520 1_655
Al0 Ni12 2.642520 1_545
Al0 Ni10 2.642520 1_545
Al0 Ni1 2.766928 1_655
Al0 Ni0 2.766928 1_656
Al0 Ni6 2.786509 1_555
Al0 Ni9 2.786509 1_555
Al1 Ni5 2.462092 1_555
Al1 Ni3 2.462092 1_555
Al1 Ni7 2.621586 1_565
Al1 Ni8 2.621586 1_455
Al1 Ni16 2.642520 1_565
Al1 Ni11 2.642520 1_455
Al1 Ni14 2.642520 1_565
Al1 Ni13 2.642520 1_455
Al1 Ni0 2.766928 1_565
Al1 Ni1 2.766928 1_565
Al1 Ni8 2.786509 1_555
Al1 Ni7 2.786509 1_555
Ni0 Ni2 2.487296 1_454
Ni0 Ni3 2.487296 1_545
Ni0 Ni15 2.579466 1_554
Ni0 Ni10 2.579466 1_444
Ni0 Ni11 2.579466 1_445
Ni0 Ni14 2.579466 1_555
Ni1 Ni4 2.487296 1_455
Ni1 Ni5 2.487296 1_545
Ni1 Ni12 2.579466 1_445
Ni1 Ni16 2.579466 1_555
Ni1 Ni13 2.579466 1_445
Ni1 Ni17 2.579466 1_555
B0 B2 1.743710 1_555
B0 Ni6 2.141271 1_555
B0 Ni9 2.141271 1_555
B0 Ni4 2.153806 1_555
B0 Ni2 2.153806 1_555
B0 Ni12 2.285321 1_555
B0 Ni10 2.285321 1_555
B0 Ni17 2.285321 1_555
B0 Ni15 2.285321 1_555
B1 B3 1.743710 1_555
B1 Ni7 2.141271 1_555
B1 Ni8 2.141271 1_555
B1 Ni3 2.153806 1_555
B1 Ni5 2.153806 1_555
B1 Ni13 2.285321 1_555
B1 Ni11 2.285321 1_555
B1 Ni14 2.285321 1_555
B1 Ni16 2.285321 1_555
B2 B7 1.770430 1_555
B2 B5 1.770430 1_555
B2 Ni12 2.089537 1_555
B2 Ni15 2.089537 1_555
B2 Ni10 2.089537 1_555
B2 Ni17 2.089537 1_555
B2 Ni9 2.164615 1_455
B2 Ni6 2.164615 1_565
B3 B6 1.770430 1_555
B3 B4 1.770430 1_555
B3 Ni16 2.089537 1_555
B3 Ni13 2.089537 1_555
B3 Ni14 2.089537 1_555
B3 Ni11 2.089537 1_555
B3 Ni7 2.164615 1_655
B3 Ni8 2.164615 1_545
B4 Ni8 2.149595 1_545
B4 Ni7 2.149595 1_655
B4 Ni13 2.192245 1_555
B4 Ni16 2.192245 1_555
B4 Ni1 2.204429 1_655
B4 Ni4 2.228957 1_555
B5 Ni9 2.149595 1_455
B5 Ni6 2.149595 1_565
B5 Ni17 2.192245 1_555
B5 Ni12 2.192245 1_555
B5 Ni1 2.204429 1_565
B5 Ni5 2.228957 1_555
B6 B9 1.728385 1_655
B6 Ni8 2.149595 1_545
B6 Ni7 2.149595 1_655
B6 Ni14 2.192245 1_555
B6 Ni11 2.192245 1_555
B6 Ni0 2.204429 1_655
B6 Ni2 2.228957 1_554
B7 B8 1.728385 1_565
B7 Ni9 2.149595 1_455
B7 Ni6 2.149595 1_565
B7 Ni15 2.192245 1_555
B7 Ni10 2.192245 1_555
B7 Ni0 2.204429 1_566
B7 Ni3 2.228957 1_556
B8 Ni14 2.083598 1_556
B8 Ni2 2.102420 1_555
B8 Ni0 2.123088 1_556
B8 Ni6 2.135272 1_555
B8 Ni15 2.165169 1_555
B8 Ni10 2.228174 1_545
B8 Ni3 2.278325 1_546
B9 Ni15 2.083598 1_554
B9 Ni3 2.102420 1_555
B9 Ni0 2.123088 1_555
B9 Ni7 2.135272 1_555
B9 Ni14 2.165169 1_555
B9 Ni11 2.228174 1_455
B9 Ni2 2.278325 1_454
B10 B5 1.728385 1_545
B10 B14 1.775904 1_545
B10 Ni16 2.083598 1_555
B10 Ni4 2.102420 1_555
B10 Ni1 2.123088 1_555
B10 Ni6 2.135272 1_555
B10 Ni17 2.165169 1_555
B10 Ni12 2.228174 1_545
B10 Ni5 2.278325 1_545
B11 B4 1.728385 1_455
B11 B15 1.775904 1_455
B11 Ni17 2.083598 1_555
B11 Ni5 2.102420 1_555
B11 Ni1 2.123088 1_555
B11 Ni7 2.135272 1_555
B11 Ni16 2.165169 1_555
B11 Ni13 2.228174 1_455
B11 Ni4 2.278325 1_455
B12 B6 1.728385 1_565
B12 B8 1.775904 1_564
B12 Ni10 2.083598 1_554
B12 Ni3 2.102420 1_555
B12 Ni0 2.123088 1_665
B12 Ni8 2.135272 1_555
B12 Ni11 2.165169 1_555
B12 Ni14 2.228174 1_565
B12 Ni2 2.278325 1_564
B13 B7 1.728385 1_655
B13 B9 1.775904 1_656
B13 Ni11 2.083598 1_556
B13 Ni2 2.102420 1_555
B13 Ni0 2.123088 1_666
B13 Ni9 2.135272 1_555
B13 Ni10 2.165169 1_555
B13 Ni15 2.228174 1_655
B13 Ni3 2.278325 1_656
B14 B4 1.728385 1_565
B14 Ni12 2.083598 1_555
B14 Ni5 2.102420 1_555
B14 Ni1 2.123088 1_665
B14 Ni8 2.135272 1_555
B14 Ni13 2.165169 1_555
B14 Ni16 2.228174 1_565
B14 Ni4 2.278325 1_565
B15 B5 1.728385 1_655
B15 Ni13 2.083598 1_555
B15 Ni4 2.102420 1_555
B15 Ni1 2.123088 1_665
B15 Ni9 2.135272 1_555
B15 Ni12 2.165169 1_555
B15 Ni17 2.228174 1_655
B15 Ni5 2.278325 1_655
