# generated using pymatgen
data_ThFe2Ni3
_symmetry_space_group_name_H-M   'P 1'
_cell_length_a   4.98560424
_cell_length_b   4.98560424
_cell_length_c   3.99874900
_cell_angle_alpha   90.00000000
_cell_angle_beta   90.00000000
_cell_angle_gamma   120.00000325
_symmetry_Int_Tables_number   1
_chemical_formula_structural   ThFe2Ni3
_chemical_formula_sum   'Th1 Fe2 Ni3'
_cell_volume   86.07764266
_cell_formula_units_Z   1
loop_
 _symmetry_equiv_pos_site_id
 _symmetry_equiv_pos_as_xyz
  1  'x, y, z'
loop_
 _atom_site_type_symbol
 _atom_site_label
 _atom_site_symmetry_multiplicity
 _atom_site_fract_x
 _atom_site_fract_y
 _atom_site_fract_z
 _atom_site_occupancy
  Th  Th0  1  0.00000000  0.00000000  0.00000000  1
  Fe  Fe0  1  0.66666700  0.33333300  0.00000000  1
  Fe  Fe1  1  0.33333300  0.66666700  0.00000000  1
  Ni  Ni0  1  0.50000000  0.50000000  0.50000000  1
  Ni  Ni1  1  0.50000000  0.00000000  0.50000000  1
  Ni  Ni2  1  0.00000000  0.50000000  0.50000000  1
loop_
_geom_bond_atom_site_label_1
_geom_bond_atom_site_label_2
_geom_bond_distance
_geom_bond_site_symmetry_2
Fe0 Ni2 2.463503 1_654
Fe0 Ni1 2.463503 1_554
Fe0 Ni2 2.463503 1_655
Fe0 Ni1 2.463503 1_555
Fe0 Ni0 2.463506 1_555
Fe0 Ni0 2.463506 1_554
Fe0 Fe1 2.878437 1_545
Fe0 Fe1 2.878437 1_655
Fe0 Th0 2.878437 1_655
Fe0 Th0 2.878441 1_665
Fe0 Th0 2.878441 1_555
Fe0 Fe1 2.878446 1_555
Fe1 Ni1 2.463503 1_565
Fe1 Ni2 2.463503 1_555
Fe1 Ni1 2.463503 1_564
Fe1 Ni2 2.463503 1_554
Fe1 Ni0 2.463506 1_555
Fe1 Ni0 2.463506 1_554
Fe1 Th0 2.878437 1_565
Fe1 Th0 2.878441 1_665
Fe1 Th0 2.878441 1_555
Ni0 Ni1 2.492802 1_555
Ni0 Ni1 2.492802 1_565
Ni0 Ni2 2.492802 1_555
Ni0 Ni2 2.492802 1_655
Ni0 Th0 3.195553 1_665
Ni0 Th0 3.195553 1_666
Ni0 Th0 3.195553 1_555
Ni0 Th0 3.195553 1_556
Ni1 Ni2 2.492802 1_545
Ni1 Ni2 2.492802 1_655
Ni1 Th0 3.195553 1_656
Ni1 Th0 3.195553 1_555
Ni1 Th0 3.195553 1_556
Ni1 Th0 3.195553 1_655
Ni2 Th0 3.195553 1_565
Ni2 Th0 3.195553 1_566
Ni2 Th0 3.195553 1_555
Ni2 Th0 3.195553 1_556
