# generated using pymatgen
data_YB4Rh7
_symmetry_space_group_name_H-M   'P 1'
_cell_length_a   5.82825000
_cell_length_b   11.07533571
_cell_length_c   19.21182978
_cell_angle_alpha   90.00000297
_cell_angle_beta   90.00000000
_cell_angle_gamma   90.00000000
_symmetry_Int_Tables_number   1
_chemical_formula_structural   YB4Rh7
_chemical_formula_sum   'Y8 B32 Rh56'
_cell_volume   1240.12025722
_cell_formula_units_Z   8
loop_
 _symmetry_equiv_pos_site_id
 _symmetry_equiv_pos_as_xyz
  1  'x, y, z'
loop_
 _atom_site_type_symbol
 _atom_site_label
 _atom_site_symmetry_multiplicity
 _atom_site_fract_x
 _atom_site_fract_y
 _atom_site_fract_z
 _atom_site_occupancy
  Y  Y0_0  1  0.00000000  0.00000650  0.00000000  1
  Y  Y0_1  1  0.00000000  0.00000650  0.50000000  1
  Y  Y0_2  1  0.00000000  0.50000650  0.00000000  1
  Y  Y0_3  1  0.00000000  0.50000650  0.50000000  1
  Y  Y0_4  1  0.50000000  0.00000650  0.00000000  1
  Y  Y0_5  1  0.50000000  0.00000650  0.50000000  1
  Y  Y0_6  1  0.50000000  0.50000650  0.00000000  1
  Y  Y0_7  1  0.50000000  0.50000650  0.50000000  1
  B  B0_0  1  0.00000000  0.49983600  0.16691450  1
  B  B0_1  1  0.00000000  0.49983600  0.66691450  1
  B  B0_2  1  0.00000000  0.99983600  0.16691450  1
  B  B0_3  1  0.00000000  0.99983600  0.66691450  1
  B  B0_4  1  0.50000000  0.49983600  0.16691450  1
  B  B0_5  1  0.50000000  0.49983600  0.66691450  1
  B  B0_6  1  0.50000000  0.99983600  0.16691450  1
  B  B0_7  1  0.50000000  0.99983600  0.66691450  1
  B  B1_0  1  0.00000000  0.25016200  0.41641200  1
  B  B1_1  1  0.00000000  0.25016200  0.91641200  1
  B  B1_2  1  0.00000000  0.75016200  0.41641200  1
  B  B1_3  1  0.00000000  0.75016200  0.91641200  1
  B  B1_4  1  0.50000000  0.25016200  0.41641200  1
  B  B1_5  1  0.50000000  0.25016200  0.91641200  1
  B  B1_6  1  0.50000000  0.75016200  0.41641200  1
  B  B1_7  1  0.50000000  0.75016200  0.91641200  1
  B  B2_0  1  0.00000000  0.25016200  0.08358800  1
  B  B2_1  1  0.00000000  0.25016200  0.58358800  1
  B  B2_2  1  0.00000000  0.75016200  0.08358800  1
  B  B2_3  1  0.00000000  0.75016200  0.58358800  1
  B  B2_4  1  0.50000000  0.25016200  0.08358800  1
  B  B2_5  1  0.50000000  0.25016200  0.58358800  1
  B  B2_6  1  0.50000000  0.75016200  0.08358800  1
  B  B2_7  1  0.50000000  0.75016200  0.58358800  1
  B  B3_0  1  0.00000000  0.49983600  0.33308550  1
  B  B3_1  1  0.00000000  0.49983600  0.83308550  1
  B  B3_2  1  0.00000000  0.99983600  0.33308550  1
  B  B3_3  1  0.00000000  0.99983600  0.83308550  1
  B  B3_4  1  0.50000000  0.49983600  0.33308550  1
  B  B3_5  1  0.50000000  0.49983600  0.83308550  1
  B  B3_6  1  0.50000000  0.99983600  0.33308550  1
  B  B3_7  1  0.50000000  0.99983600  0.83308550  1
  Rh  Rh0_0  1  0.25000000  0.00278750  0.25000000  1
  Rh  Rh0_1  1  0.25000000  0.00278750  0.75000000  1
  Rh  Rh0_2  1  0.25000000  0.50278750  0.25000000  1
  Rh  Rh0_3  1  0.25000000  0.50278750  0.75000000  1
  Rh  Rh0_4  1  0.75000000  0.00278750  0.25000000  1
  Rh  Rh0_5  1  0.75000000  0.00278750  0.75000000  1
  Rh  Rh0_6  1  0.75000000  0.50278750  0.25000000  1
  Rh  Rh0_7  1  0.75000000  0.50278750  0.75000000  1
  Rh  Rh1_0  1  0.25000000  0.25158650  0.00000000  1
  Rh  Rh1_1  1  0.25000000  0.25158650  0.50000000  1
  Rh  Rh1_2  1  0.25000000  0.75158650  0.00000000  1
  Rh  Rh1_3  1  0.25000000  0.75158650  0.50000000  1
  Rh  Rh1_4  1  0.75000000  0.25158650  0.00000000  1
  Rh  Rh1_5  1  0.75000000  0.25158650  0.50000000  1
  Rh  Rh1_6  1  0.75000000  0.75158650  0.00000000  1
  Rh  Rh1_7  1  0.75000000  0.75158650  0.50000000  1
  Rh  Rh2_0  1  0.25000000  0.12470900  0.12476900  1
  Rh  Rh2_1  1  0.25000000  0.12470900  0.62476900  1
  Rh  Rh2_2  1  0.25000000  0.62470900  0.12476900  1
  Rh  Rh2_3  1  0.25000000  0.62470900  0.62476900  1
  Rh  Rh2_4  1  0.75000000  0.12470900  0.12476900  1
  Rh  Rh2_5  1  0.75000000  0.12470900  0.62476900  1
  Rh  Rh2_6  1  0.75000000  0.62470900  0.12476900  1
  Rh  Rh2_7  1  0.75000000  0.62470900  0.62476900  1
  Rh  Rh3_0  1  0.25000000  0.37298450  0.37306700  1
  Rh  Rh3_1  1  0.25000000  0.37298450  0.87306700  1
  Rh  Rh3_2  1  0.25000000  0.87298450  0.37306700  1
  Rh  Rh3_3  1  0.25000000  0.87298450  0.87306700  1
  Rh  Rh3_4  1  0.75000000  0.37298450  0.37306700  1
  Rh  Rh3_5  1  0.75000000  0.37298450  0.87306700  1
  Rh  Rh3_6  1  0.75000000  0.87298450  0.37306700  1
  Rh  Rh3_7  1  0.75000000  0.87298450  0.87306700  1
  Rh  Rh4_0  1  0.25000000  0.37298450  0.12693300  1
  Rh  Rh4_1  1  0.25000000  0.37298450  0.62693300  1
  Rh  Rh4_2  1  0.25000000  0.87298450  0.12693300  1
  Rh  Rh4_3  1  0.25000000  0.87298450  0.62693300  1
  Rh  Rh4_4  1  0.75000000  0.37298450  0.12693300  1
  Rh  Rh4_5  1  0.75000000  0.37298450  0.62693300  1
  Rh  Rh4_6  1  0.75000000  0.87298450  0.12693300  1
  Rh  Rh4_7  1  0.75000000  0.87298450  0.62693300  1
  Rh  Rh5_0  1  0.25000000  0.12470900  0.37523100  1
  Rh  Rh5_1  1  0.25000000  0.12470900  0.87523100  1
  Rh  Rh5_2  1  0.25000000  0.62470900  0.37523100  1
  Rh  Rh5_3  1  0.25000000  0.62470900  0.87523100  1
  Rh  Rh5_4  1  0.75000000  0.12470900  0.37523100  1
  Rh  Rh5_5  1  0.75000000  0.12470900  0.87523100  1
  Rh  Rh5_6  1  0.75000000  0.62470900  0.37523100  1
  Rh  Rh5_7  1  0.75000000  0.62470900  0.87523100  1
  Rh  Rh6_0  1  0.00000000  0.25013650  0.25000000  1
  Rh  Rh6_1  1  0.00000000  0.25013650  0.75000000  1
  Rh  Rh6_2  1  0.00000000  0.75013650  0.25000000  1
  Rh  Rh6_3  1  0.00000000  0.75013650  0.75000000  1
  Rh  Rh6_4  1  0.50000000  0.25013650  0.25000000  1
  Rh  Rh6_5  1  0.50000000  0.25013650  0.75000000  1
  Rh  Rh6_6  1  0.50000000  0.75013650  0.25000000  1
  Rh  Rh6_7  1  0.50000000  0.75013650  0.75000000  1
loop_
_geom_bond_atom_site_label_1
_geom_bond_atom_site_label_2
_geom_bond_distance
_geom_bond_site_symmetry_2
Y0_0 Y0_4 2.914125 1_555
Y0_0 Y0_4 2.914125 1_455
Y0_1 Y0_5 2.914125 1_555
Y0_1 Y0_5 2.914125 1_455
Y0_2 Y0_6 2.914125 1_455
Y0_2 Y0_6 2.914125 1_555
Y0_3 Y0_7 2.914125 1_455
Y0_3 Y0_7 2.914125 1_555
B0_0 Rh0_6 2.161488 1_455
B0_0 Rh0_2 2.161488 1_555
B0_0 Rh4_0 2.164912 1_555
B0_0 Rh4_4 2.164912 1_455
B0_0 Rh2_2 2.165953 1_555
B0_0 Rh2_6 2.165953 1_455
B0_0 Y0_2 3.206734 1_555
B0_1 Rh0_3 2.161488 1_555
B0_1 Rh0_7 2.161488 1_455
B0_1 Rh4_1 2.164912 1_555
B0_1 Rh4_5 2.164912 1_455
B0_1 Rh2_3 2.165953 1_555
B0_1 Rh2_7 2.165953 1_455
B0_1 Y0_3 3.206734 1_555
B0_2 Rh0_0 2.161488 1_565
B0_2 Rh0_4 2.161488 1_465
B0_2 Rh4_2 2.164912 1_555
B0_2 Rh4_6 2.164912 1_455
B0_2 Rh2_4 2.165953 1_465
B0_2 Rh2_0 2.165953 1_565
B0_2 Y0_0 3.206734 1_565
B0_3 Rh0_5 2.161488 1_465
B0_3 Rh0_1 2.161488 1_565
B0_3 Rh4_7 2.164912 1_455
B0_3 Rh4_3 2.164912 1_555
B0_3 Rh2_1 2.165953 1_565
B0_3 Rh2_5 2.165953 1_465
B0_3 Y0_1 3.206734 1_565
B0_4 Rh0_6 2.161488 1_555
B0_4 Rh0_2 2.161488 1_555
B0_4 Rh4_4 2.164912 1_555
B0_4 Rh4_0 2.164912 1_555
B0_4 Rh2_2 2.165953 1_555
B0_4 Rh2_6 2.165953 1_555
B0_4 Y0_6 3.206734 1_555
B0_5 Rh0_3 2.161488 1_555
B0_5 Rh0_7 2.161488 1_555
B0_5 Rh4_1 2.164912 1_555
B0_5 Rh4_5 2.164912 1_555
B0_5 Rh2_3 2.165953 1_555
B0_5 Rh2_7 2.165953 1_555
B0_5 Y0_7 3.206734 1_555
B0_6 Rh0_0 2.161488 1_565
B0_6 Rh0_4 2.161488 1_565
B0_6 Rh4_6 2.164912 1_555
B0_6 Rh4_2 2.164912 1_555
B0_6 Rh2_4 2.165953 1_565
B0_6 Rh2_0 2.165953 1_565
B0_6 Y0_4 3.206734 1_565
B0_7 Rh0_1 2.161488 1_565
B0_7 Rh0_5 2.161488 1_565
B0_7 Rh4_3 2.164912 1_555
B0_7 Rh4_7 2.164912 1_555
B0_7 Rh2_1 2.165953 1_565
B0_7 Rh2_5 2.165953 1_565
B0_7 Y0_5 3.206734 1_565
B1_0 Rh3_0 2.160301 1_555
B1_0 Rh3_4 2.160301 1_455
B1_0 Rh5_0 2.163214 1_555
B1_0 Rh5_4 2.163214 1_455
B1_0 Rh1_1 2.168439 1_555
B1_0 Rh1_5 2.168439 1_455
B1_0 Y0_3 3.199336 1_555
B1_0 Y0_1 3.202316 1_555
B1_1 Rh3_5 2.160301 1_455
B1_1 Rh3_1 2.160301 1_555
B1_1 Rh5_1 2.163214 1_555
B1_1 Rh5_5 2.163214 1_455
B1_1 Rh1_0 2.168439 1_556
B1_1 Rh1_4 2.168439 1_456
B1_1 Y0_2 3.199336 1_556
B1_1 Y0_0 3.202316 1_556
B1_2 Rh3_2 2.160301 1_555
B1_2 Rh3_6 2.160301 1_455
B1_2 Rh5_6 2.163214 1_455
B1_2 Rh5_2 2.163214 1_555
B1_2 Rh1_3 2.168439 1_555
B1_2 Rh1_7 2.168439 1_455
B1_2 Y0_1 3.199336 1_565
B1_2 Y0_3 3.202316 1_555
B1_3 Rh3_7 2.160301 1_455
B1_3 Rh3_3 2.160301 1_555
B1_3 Rh5_3 2.163214 1_555
B1_3 Rh5_7 2.163214 1_455
B1_3 Rh1_2 2.168439 1_556
B1_3 Rh1_6 2.168439 1_456
B1_3 Y0_0 3.199336 1_566
B1_3 Y0_2 3.202316 1_556
B1_4 Rh3_0 2.160301 1_555
B1_4 Rh3_4 2.160301 1_555
B1_4 Rh5_4 2.163214 1_555
B1_4 Rh5_0 2.163214 1_555
B1_4 Rh1_5 2.168439 1_555
B1_4 Rh1_1 2.168439 1_555
B1_4 Y0_7 3.199336 1_555
B1_4 Y0_5 3.202316 1_555
B1_5 Rh3_5 2.160301 1_555
B1_5 Rh3_1 2.160301 1_555
B1_5 Rh5_1 2.163214 1_555
B1_5 Rh5_5 2.163214 1_555
B1_5 Rh1_4 2.168439 1_556
B1_5 Rh1_0 2.168439 1_556
B1_5 Y0_6 3.199336 1_556
B1_5 Y0_4 3.202316 1_556
B1_6 Rh3_2 2.160301 1_555
B1_6 Rh3_6 2.160301 1_555
B1_6 Rh5_2 2.163214 1_555
B1_6 Rh5_6 2.163214 1_555
B1_6 Rh1_7 2.168439 1_555
B1_6 Rh1_3 2.168439 1_555
B1_6 Y0_5 3.199336 1_565
B1_6 Y0_7 3.202316 1_555
B1_7 Rh3_3 2.160301 1_555
B1_7 Rh3_7 2.160301 1_555
B1_7 Rh5_3 2.163214 1_555
B1_7 Rh5_7 2.163214 1_555
B1_7 Rh1_2 2.168439 1_556
B1_7 Rh1_6 2.168439 1_556
B1_7 Y0_4 3.199336 1_566
B1_7 Y0_6 3.202316 1_556
B2_0 Rh4_0 2.160301 1_555
B2_0 Rh4_4 2.160301 1_455
B2_0 Rh2_4 2.163214 1_455
B2_0 Rh2_0 2.163214 1_555
B2_0 Rh1_0 2.168439 1_555
B2_0 Rh1_4 2.168439 1_455
B2_0 Y0_2 3.199336 1_555
B2_0 Y0_0 3.202316 1_555
B2_1 Rh4_1 2.160301 1_555
B2_1 Rh4_5 2.160301 1_455
B2_1 Rh2_1 2.163214 1_555
B2_1 Rh2_5 2.163214 1_455
B2_1 Rh1_5 2.168439 1_455
B2_1 Rh1_1 2.168439 1_555
B2_1 Y0_3 3.199336 1_555
B2_1 Y0_1 3.202316 1_555
B2_2 Rh4_2 2.160301 1_555
B2_2 Rh4_6 2.160301 1_455
B2_2 Rh2_2 2.163214 1_555
B2_2 Rh2_6 2.163214 1_455
B2_2 Rh1_6 2.168439 1_455
B2_2 Rh1_2 2.168439 1_555
B2_2 Y0_0 3.199336 1_565
B2_2 Y0_2 3.202316 1_555
B2_3 Rh4_7 2.160301 1_455
B2_3 Rh4_3 2.160301 1_555
B2_3 Rh2_3 2.163214 1_555
B2_3 Rh2_7 2.163214 1_455
B2_3 Rh1_3 2.168439 1_555
B2_3 Rh1_7 2.168439 1_455
B2_3 Y0_1 3.199336 1_565
B2_3 Y0_3 3.202316 1_555
B2_4 Rh4_0 2.160301 1_555
B2_4 Rh4_4 2.160301 1_555
B2_4 Rh2_0 2.163214 1_555
B2_4 Rh2_4 2.163214 1_555
B2_4 Rh1_0 2.168439 1_555
B2_4 Rh1_4 2.168439 1_555
B2_4 Y0_6 3.199336 1_555
B2_4 Y0_4 3.202316 1_555
B2_5 Rh4_1 2.160301 1_555
B2_5 Rh4_5 2.160301 1_555
B2_5 Rh2_1 2.163214 1_555
B2_5 Rh2_5 2.163214 1_555
B2_5 Rh1_1 2.168439 1_555
B2_5 Rh1_5 2.168439 1_555
B2_5 Y0_7 3.199336 1_555
B2_5 Y0_5 3.202316 1_555
B2_6 Rh4_2 2.160301 1_555
B2_6 Rh4_6 2.160301 1_555
B2_6 Rh2_6 2.163214 1_555
B2_6 Rh2_2 2.163214 1_555
B2_6 Rh1_6 2.168439 1_555
B2_6 Rh1_2 2.168439 1_555
B2_6 Y0_4 3.199336 1_565
B2_6 Y0_6 3.202316 1_555
B2_7 Rh4_3 2.160301 1_555
B2_7 Rh4_7 2.160301 1_555
B2_7 Rh2_3 2.163214 1_555
B2_7 Rh2_7 2.163214 1_555
B2_7 Rh1_3 2.168439 1_555
B2_7 Rh1_7 2.168439 1_555
B2_7 Y0_5 3.199336 1_565
B2_7 Y0_7 3.202316 1_555
B3_0 Rh0_6 2.161488 1_455
B3_0 Rh0_2 2.161488 1_555
B3_0 Rh3_0 2.164912 1_555
B3_0 Rh3_4 2.164912 1_455
B3_0 Rh5_6 2.165952 1_455
B3_0 Rh5_2 2.165952 1_555
B3_0 Y0_3 3.206734 1_555
B3_1 Rh0_3 2.161488 1_555
B3_1 Rh0_7 2.161488 1_455
B3_1 Rh3_1 2.164912 1_555
B3_1 Rh3_5 2.164912 1_455
B3_1 Rh5_3 2.165952 1_555
B3_1 Rh5_7 2.165952 1_455
B3_1 Y0_2 3.206734 1_556
B3_2 Rh0_0 2.161488 1_565
B3_2 Rh0_4 2.161488 1_465
B3_2 Rh3_2 2.164912 1_555
B3_2 Rh3_6 2.164912 1_455
B3_2 Rh5_4 2.165952 1_465
B3_2 Rh5_0 2.165952 1_565
B3_2 Y0_1 3.206734 1_565
B3_3 Rh0_5 2.161488 1_465
B3_3 Rh0_1 2.161488 1_565
B3_3 Rh3_7 2.164912 1_455
B3_3 Rh3_3 2.164912 1_555
B3_3 Rh5_5 2.165952 1_465
B3_3 Rh5_1 2.165952 1_565
B3_3 Y0_0 3.206734 1_566
B3_4 Rh0_2 2.161488 1_555
B3_4 Rh0_6 2.161488 1_555
B3_4 Rh3_0 2.164912 1_555
B3_4 Rh3_4 2.164912 1_555
B3_4 Rh5_6 2.165952 1_555
B3_4 Rh5_2 2.165952 1_555
B3_4 Y0_7 3.206734 1_555
B3_5 Rh0_3 2.161488 1_555
B3_5 Rh0_7 2.161488 1_555
B3_5 Rh3_1 2.164912 1_555
B3_5 Rh3_5 2.164912 1_555
B3_5 Rh5_3 2.165952 1_555
B3_5 Rh5_7 2.165952 1_555
B3_5 Y0_6 3.206734 1_556
B3_6 Rh0_0 2.161488 1_565
B3_6 Rh0_4 2.161488 1_565
B3_6 Rh3_2 2.164912 1_555
B3_6 Rh3_6 2.164912 1_555
B3_6 Rh5_0 2.165952 1_565
B3_6 Rh5_4 2.165952 1_565
B3_6 Y0_5 3.206734 1_565
B3_7 Rh0_1 2.161488 1_565
B3_7 Rh0_5 2.161488 1_565
B3_7 Rh3_3 2.164912 1_555
B3_7 Rh3_7 2.164912 1_555
B3_7 Rh5_1 2.165952 1_565
B3_7 Rh5_5 2.165952 1_565
B3_7 Y0_4 3.206734 1_566
Rh0_0 Rh6_0 3.102861 1_555
Rh0_0 Rh6_4 3.102861 1_555
Rh0_0 Rh6_2 3.154826 1_545
Rh0_0 Rh6_6 3.154826 1_545
Rh0_1 Rh6_1 3.102861 1_555
Rh0_1 Rh6_5 3.102861 1_555
Rh0_1 Rh6_7 3.154826 1_545
Rh0_1 Rh6_3 3.154826 1_545
Rh0_2 Rh6_2 3.102861 1_555
Rh0_2 Rh6_6 3.102861 1_555
Rh0_2 Rh6_4 3.154826 1_555
Rh0_2 Rh6_0 3.154826 1_555
Rh0_3 Rh6_7 3.102861 1_555
Rh0_3 Rh6_3 3.102861 1_555
Rh0_3 Rh6_1 3.154826 1_555
Rh0_3 Rh6_5 3.154826 1_555
Rh0_4 Rh6_4 3.102861 1_555
Rh0_4 Rh6_0 3.102861 1_655
Rh0_4 Rh6_6 3.154826 1_545
Rh0_4 Rh6_2 3.154826 1_645
Rh0_5 Rh6_1 3.102861 1_655
Rh0_5 Rh6_5 3.102861 1_555
Rh0_5 Rh6_7 3.154826 1_545
Rh0_5 Rh6_3 3.154826 1_645
Rh0_6 Rh6_6 3.102861 1_555
Rh0_6 Rh6_2 3.102861 1_655
Rh0_6 Rh6_4 3.154826 1_555
Rh0_6 Rh6_0 3.154826 1_655
Rh0_7 Rh6_3 3.102861 1_655
Rh0_7 Rh6_7 3.102861 1_555
Rh0_7 Rh6_1 3.154826 1_655
Rh0_7 Rh6_5 3.154826 1_555
Rh1_0 Y0_6 3.113338 1_555
Rh1_0 Y0_2 3.113338 1_555
Rh1_0 Y0_0 3.144310 1_555
Rh1_0 Y0_4 3.144310 1_555
Rh1_1 Y0_3 3.113338 1_555
Rh1_1 Y0_7 3.113338 1_555
Rh1_1 Y0_1 3.144310 1_555
Rh1_1 Y0_5 3.144310 1_555
Rh1_2 Y0_4 3.113338 1_565
Rh1_2 Y0_0 3.113338 1_565
Rh1_2 Y0_2 3.144310 1_555
Rh1_2 Y0_6 3.144310 1_555
Rh1_3 Y0_1 3.113338 1_565
Rh1_3 Y0_5 3.113338 1_565
Rh1_3 Y0_3 3.144310 1_555
Rh1_3 Y0_7 3.144310 1_555
Rh1_4 Y0_2 3.113338 1_655
Rh1_4 Y0_6 3.113338 1_555
Rh1_4 Y0_4 3.144310 1_555
Rh1_4 Y0_0 3.144310 1_655
Rh1_5 Y0_3 3.113338 1_655
Rh1_5 Y0_7 3.113338 1_555
Rh1_5 Y0_1 3.144310 1_655
Rh1_5 Y0_5 3.144310 1_555
Rh1_6 Y0_0 3.113338 1_665
Rh1_6 Y0_4 3.113338 1_565
Rh1_6 Y0_6 3.144310 1_555
Rh1_6 Y0_2 3.144310 1_655
Rh1_7 Y0_1 3.113338 1_665
Rh1_7 Y0_5 3.113338 1_565
Rh1_7 Y0_3 3.144310 1_655
Rh1_7 Y0_7 3.144310 1_555
Rh2_0 Y0_0 3.126713 1_555
Rh2_0 Y0_4 3.126713 1_555
Rh2_0 Rh6_0 3.137070 1_555
Rh2_0 Rh6_4 3.137070 1_555
Rh2_1 Y0_1 3.126713 1_555
Rh2_1 Y0_5 3.126713 1_555
Rh2_1 Rh6_1 3.137070 1_555
Rh2_1 Rh6_5 3.137070 1_555
Rh2_2 Y0_6 3.126713 1_555
Rh2_2 Y0_2 3.126713 1_555
Rh2_2 Rh6_6 3.137070 1_555
Rh2_2 Rh6_2 3.137070 1_555
Rh2_3 Y0_3 3.126713 1_555
Rh2_3 Y0_7 3.126713 1_555
Rh2_3 Rh6_3 3.137070 1_555
Rh2_3 Rh6_7 3.137070 1_555
Rh2_4 Y0_4 3.126713 1_555
Rh2_4 Y0_0 3.126713 1_655
Rh2_4 Rh6_4 3.137070 1_555
Rh2_4 Rh6_0 3.137070 1_655
Rh2_5 Y0_1 3.126713 1_655
Rh2_5 Y0_5 3.126713 1_555
Rh2_5 Rh6_1 3.137070 1_655
Rh2_5 Rh6_5 3.137070 1_555
Rh2_6 Y0_6 3.126713 1_555
Rh2_6 Y0_2 3.126713 1_655
Rh2_6 Rh6_6 3.137070 1_555
Rh2_6 Rh6_2 3.137070 1_655
Rh2_7 Y0_3 3.126713 1_655
Rh2_7 Y0_7 3.126713 1_555
Rh2_7 Rh6_3 3.137070 1_655
Rh2_7 Rh6_7 3.137070 1_555
Rh3_0 Rh6_0 3.092625 1_555
Rh3_0 Rh6_4 3.092625 1_555
Rh3_0 Y0_3 3.170015 1_555
Rh3_0 Y0_7 3.170015 1_555
Rh3_1 Rh6_5 3.092625 1_555
Rh3_1 Rh6_1 3.092625 1_555
Rh3_1 Y0_6 3.170015 1_556
Rh3_1 Y0_2 3.170015 1_556
Rh3_2 Rh6_2 3.092625 1_555
Rh3_2 Rh6_6 3.092625 1_555
Rh3_2 Y0_5 3.170015 1_565
Rh3_2 Y0_1 3.170015 1_565
Rh3_3 Rh6_3 3.092625 1_555
Rh3_3 Rh6_7 3.092625 1_555
Rh3_3 Y0_0 3.170015 1_566
Rh3_3 Y0_4 3.170015 1_566
Rh3_4 Rh6_4 3.092625 1_555
Rh3_4 Rh6_0 3.092625 1_655
Rh3_4 Y0_3 3.170015 1_655
Rh3_4 Y0_7 3.170015 1_555
Rh3_5 Rh6_5 3.092625 1_555
Rh3_5 Rh6_1 3.092625 1_655
Rh3_5 Y0_6 3.170015 1_556
Rh3_5 Y0_2 3.170015 1_656
Rh3_6 Rh6_2 3.092625 1_655
Rh3_6 Rh6_6 3.092625 1_555
Rh3_6 Y0_5 3.170015 1_565
Rh3_6 Y0_1 3.170015 1_665
Rh3_7 Rh6_3 3.092625 1_655
Rh3_7 Rh6_7 3.092625 1_555
Rh3_7 Y0_0 3.170015 1_666
Rh3_7 Y0_4 3.170015 1_566
Rh4_0 Rh6_4 3.092625 1_555
Rh4_0 Rh6_0 3.092625 1_555
Rh4_0 Y0_6 3.170015 1_555
Rh4_0 Y0_2 3.170015 1_555
Rh4_1 Rh6_1 3.092625 1_555
Rh4_1 Rh6_5 3.092625 1_555
Rh4_1 Y0_3 3.170015 1_555
Rh4_1 Y0_7 3.170015 1_555
Rh4_2 Rh6_2 3.092625 1_555
Rh4_2 Rh6_6 3.092625 1_555
Rh4_2 Y0_0 3.170015 1_565
Rh4_2 Y0_4 3.170015 1_565
Rh4_3 Rh6_3 3.092625 1_555
Rh4_3 Rh6_7 3.092625 1_555
Rh4_3 Y0_1 3.170015 1_565
Rh4_3 Y0_5 3.170015 1_565
Rh4_4 Rh6_4 3.092625 1_555
Rh4_4 Rh6_0 3.092625 1_655
Rh4_4 Y0_2 3.170015 1_655
Rh4_4 Y0_6 3.170015 1_555
Rh4_5 Rh6_1 3.092625 1_655
Rh4_5 Rh6_5 3.092625 1_555
Rh4_5 Y0_3 3.170015 1_655
Rh4_5 Y0_7 3.170015 1_555
Rh4_6 Rh6_6 3.092625 1_555
Rh4_6 Rh6_2 3.092625 1_655
Rh4_6 Y0_0 3.170015 1_665
Rh4_6 Y0_4 3.170015 1_565
Rh4_7 Rh6_3 3.092625 1_655
Rh4_7 Rh6_7 3.092625 1_555
Rh4_7 Y0_5 3.170015 1_565
Rh4_7 Y0_1 3.170015 1_665
Rh5_0 Y0_1 3.126713 1_555
Rh5_0 Y0_5 3.126713 1_555
Rh5_0 Rh6_0 3.137070 1_555
Rh5_0 Rh6_4 3.137070 1_555
Rh5_1 Y0_0 3.126713 1_556
Rh5_1 Y0_4 3.126713 1_556
Rh5_1 Rh6_1 3.137070 1_555
Rh5_1 Rh6_5 3.137070 1_555
Rh5_2 Y0_3 3.126713 1_555
Rh5_2 Y0_7 3.126713 1_555
Rh5_2 Rh6_2 3.137070 1_555
Rh5_2 Rh6_6 3.137070 1_555
Rh5_3 Y0_6 3.126713 1_556
Rh5_3 Y0_2 3.126713 1_556
Rh5_3 Rh6_3 3.137070 1_555
Rh5_3 Rh6_7 3.137070 1_555
Rh5_4 Y0_1 3.126713 1_655
Rh5_4 Y0_5 3.126713 1_555
Rh5_4 Rh6_4 3.137070 1_555
Rh5_4 Rh6_0 3.137070 1_655
Rh5_5 Y0_4 3.126713 1_556
Rh5_5 Y0_0 3.126713 1_656
Rh5_5 Rh6_1 3.137070 1_655
Rh5_5 Rh6_5 3.137070 1_555
Rh5_6 Y0_3 3.126713 1_655
Rh5_6 Y0_7 3.126713 1_555
Rh5_6 Rh6_6 3.137070 1_555
Rh5_6 Rh6_2 3.137070 1_655
Rh5_7 Y0_2 3.126713 1_656
Rh5_7 Y0_6 3.126713 1_556
Rh5_7 Rh6_3 3.137070 1_655
Rh5_7 Rh6_7 3.137070 1_555
Rh6_0 Rh6_4 2.914125 1_555
Rh6_0 Rh6_4 2.914125 1_455
Rh6_1 Rh6_5 2.914125 1_455
Rh6_1 Rh6_5 2.914125 1_555
Rh6_2 Rh6_6 2.914125 1_455
Rh6_2 Rh6_6 2.914125 1_555
Rh6_3 Rh6_7 2.914125 1_455
Rh6_3 Rh6_7 2.914125 1_555
