# generated using pymatgen
data_Tm5Sn3
_symmetry_space_group_name_H-M   'P 1'
_cell_length_a   6.46267800
_cell_length_b   8.83716665
_cell_length_c   8.83990088
_cell_angle_alpha   119.98976680
_cell_angle_beta   90.00000000
_cell_angle_gamma   90.00000000
_symmetry_Int_Tables_number   1
_chemical_formula_structural   Tm5Sn3
_chemical_formula_sum   'Tm10 Sn6'
_cell_volume   437.26867171
_cell_formula_units_Z   2
loop_
 _symmetry_equiv_pos_site_id
 _symmetry_equiv_pos_as_xyz
  1  'x, y, z'
loop_
 _atom_site_type_symbol
 _atom_site_label
 _atom_site_symmetry_multiplicity
 _atom_site_fract_x
 _atom_site_fract_y
 _atom_site_fract_z
 _atom_site_occupancy
  Tm  Tm0  1  0.50000000  0.33336800  0.66676100  1
  Tm  Tm1  1  0.50000000  0.66660700  0.33323900  1
  Tm  Tm2  1  0.00000000  0.66663200  0.33323900  1
  Tm  Tm3  1  0.00000000  0.33339300  0.66676100  1
  Tm  Tm4  1  0.75000300  0.23934000  0.00000000  1
  Tm  Tm5  1  0.74999800  0.76057900  0.76066300  1
  Tm  Tm6  1  0.74999800  0.99991600  0.23933700  1
  Tm  Tm7  1  0.25000300  0.76066000  0.00000000  1
  Tm  Tm8  1  0.24999800  0.23942100  0.23933700  1
  Tm  Tm9  1  0.24999800  0.00008400  0.76066300  1
  Sn  Sn0  1  0.74999700  0.60530500  0.00000000  1
  Sn  Sn1  1  0.75000200  0.39459600  0.39456000  1
  Sn  Sn2  1  0.75000200  0.00003600  0.60544000  1
  Sn  Sn3  1  0.24999700  0.39469500  0.00000000  1
  Sn  Sn4  1  0.25000200  0.60540400  0.60544000  1
  Sn  Sn5  1  0.25000200  0.99996400  0.39456000  1
loop_
_geom_bond_atom_site_label_1
_geom_bond_atom_site_label_2
_geom_bond_distance
_geom_bond_site_symmetry_2
Tm0 Tm3 3.231339 1_655
Tm0 Tm3 3.231339 1_555
Tm0 Tm9 3.797138 1_555
Tm0 Tm5 3.797323 1_555
Tm0 Tm4 3.798115 1_556
Tm0 Tm7 3.798233 1_556
Tm0 Tm6 3.799923 1_545
Tm0 Tm8 3.799995 1_555
Tm1 Tm2 3.231339 1_555
Tm1 Tm2 3.231339 1_655
Tm1 Tm8 3.797139 1_555
Tm1 Tm6 3.797323 1_555
Tm1 Tm4 3.798115 1_555
Tm1 Tm7 3.798233 1_555
Tm1 Tm5 3.799922 1_555
Tm1 Tm9 3.799995 1_565
Tm2 Tm6 3.797138 1_455
Tm2 Tm8 3.797323 1_555
Tm2 Tm7 3.798115 1_555
Tm2 Tm4 3.798233 1_455
Tm2 Tm9 3.799923 1_565
Tm2 Tm5 3.799995 1_455
Tm3 Tm5 3.797139 1_455
Tm3 Tm9 3.797323 1_555
Tm3 Tm7 3.798115 1_556
Tm3 Tm4 3.798233 1_456
Tm3 Tm8 3.799922 1_555
Tm3 Tm6 3.799995 1_445
Tm4 Tm6 3.664437 1_545
Tm4 Tm5 3.664437 1_544
Tm4 Tm8 3.862134 1_655
Tm4 Tm9 3.862134 1_654
Tm4 Tm8 3.862188 1_555
Tm4 Tm9 3.862188 1_554
Tm5 Tm6 3.664904 1_556
Tm5 Tm7 3.862134 1_556
Tm5 Tm7 3.862188 1_656
Tm5 Tm9 3.862812 1_565
Tm5 Tm9 3.862812 1_665
Tm6 Tm7 3.862134 1_555
Tm6 Tm7 3.862188 1_655
Tm6 Tm8 3.862812 1_565
Tm6 Tm8 3.862812 1_665
Tm7 Tm9 3.664437 1_564
Tm7 Tm8 3.664437 1_565
Tm8 Tm9 3.664904 1_554
Sn0 Tm5 3.043252 1_554
Sn0 Tm6 3.043252 1_555
Sn0 Tm2 3.160048 1_655
Sn0 Tm3 3.160048 1_654
Sn0 Tm1 3.160093 1_555
Sn0 Tm0 3.160093 1_554
Sn0 Tm4 3.234094 1_555
Sn0 Tm7 3.510862 1_555
Sn0 Tm7 3.510933 1_655
Sn1 Tm6 3.043605 1_545
Sn1 Tm4 3.043638 1_555
Sn1 Tm1 3.159935 1_555
Sn1 Tm2 3.160109 1_655
Sn1 Tm3 3.161306 1_655
Sn1 Tm0 3.161441 1_555
Sn1 Tm5 3.235784 1_555
Sn1 Tm8 3.510501 1_655
Sn1 Tm8 3.510548 1_555
Sn2 Tm5 3.043605 1_545
Sn2 Tm4 3.043638 1_556
Sn2 Tm0 3.159935 1_555
Sn2 Tm3 3.160109 1_655
Sn2 Tm2 3.161306 1_645
Sn2 Tm1 3.161441 1_545
Sn2 Tm6 3.235784 1_545
Sn2 Tm9 3.510501 1_655
Sn2 Tm9 3.510548 1_555
Sn3 Tm8 3.043252 1_555
Sn3 Tm9 3.043252 1_554
Sn3 Tm0 3.160048 1_554
Sn3 Tm1 3.160048 1_555
Sn3 Tm3 3.160093 1_554
Sn3 Tm2 3.160093 1_555
Sn3 Tm7 3.234094 1_555
Sn3 Tm4 3.510862 1_455
Sn3 Tm4 3.510933 1_555
Sn4 Tm9 3.043605 1_565
Sn4 Tm7 3.043638 1_556
Sn4 Tm3 3.159935 1_555
Sn4 Tm0 3.160109 1_555
Sn4 Tm1 3.161306 1_555
Sn4 Tm2 3.161441 1_555
Sn4 Tm8 3.235784 1_555
Sn4 Tm5 3.510501 1_555
Sn4 Tm5 3.510548 1_455
Sn5 Tm8 3.043605 1_565
Sn5 Tm7 3.043638 1_555
Sn5 Tm2 3.159935 1_555
Sn5 Tm1 3.160109 1_555
Sn5 Tm0 3.161306 1_565
Sn5 Tm3 3.161441 1_565
Sn5 Tm9 3.235784 1_565
Sn5 Tm6 3.510501 1_555
Sn5 Tm6 3.510548 1_455
