# generated using pymatgen
data_KCd4P3
_symmetry_space_group_name_H-M   'P 1'
_cell_length_a   12.19279097
_cell_length_b   12.19279097
_cell_length_c   12.19279056
_cell_angle_alpha   20.64005091
_cell_angle_beta   20.64005091
_cell_angle_gamma   20.64005300
_symmetry_Int_Tables_number   1
_chemical_formula_structural   KCd4P3
_chemical_formula_sum   'K1 Cd4 P3'
_cell_volume   197.15964010
_cell_formula_units_Z   1
loop_
 _symmetry_equiv_pos_site_id
 _symmetry_equiv_pos_as_xyz
  1  'x, y, z'
loop_
 _atom_site_type_symbol
 _atom_site_label
 _atom_site_symmetry_multiplicity
 _atom_site_fract_x
 _atom_site_fract_y
 _atom_site_fract_z
 _atom_site_occupancy
  K  K0  1  0.50000000  0.50000000  0.50000000  1
  Cd  Cd0  1  0.90906094  0.90906094  0.90906094  1
  Cd  Cd1  1  0.09093906  0.09093906  0.09093906  1
  Cd  Cd2  1  0.69822831  0.69822831  0.69822831  1
  Cd  Cd3  1  0.30177169  0.30177169  0.30177169  1
  P  P0  1  0.77054499  0.77054499  0.77054499  1
  P  P1  1  0.22945501  0.22945501  0.22945501  1
  P  P2  1  -0.00000000  -0.00000000  0.00000000  1
loop_
_geom_bond_atom_site_label_1
_geom_bond_atom_site_label_2
_geom_bond_distance
_geom_bond_site_symmetry_2
K0 P0 3.377957 1_554
K0 P1 3.377957 1_556
K0 P0 3.377958 1_545
K0 P0 3.377958 1_455
K0 P1 3.377958 1_565
K0 P1 3.377958 1_655
Cd0 P1 2.564357 1_665
Cd0 P1 2.564357 1_656
Cd0 P1 2.564357 1_566
Cd1 P0 2.564357 1_445
Cd1 P0 2.564357 1_454
Cd1 P0 2.564357 1_544
Cd2 P0 2.588012 1_555
Cd2 P2 2.763562 1_665
Cd2 P2 2.763563 1_566
Cd2 P2 2.763563 1_656
Cd3 P1 2.588012 1_555
Cd3 P2 2.763562 1_556
Cd3 P2 2.763563 1_565
Cd3 P2 2.763563 1_655
