# generated using pymatgen
data_AgSbTeSe
_symmetry_space_group_name_H-M   'P 1'
_cell_length_a   4.11714500
_cell_length_b   4.11714500
_cell_length_c   6.21163000
_cell_angle_alpha   90.00000000
_cell_angle_beta   90.00000000
_cell_angle_gamma   90.00000000
_symmetry_Int_Tables_number   1
_chemical_formula_structural   AgSbTeSe
_chemical_formula_sum   'Ag1 Sb1 Te1 Se1'
_cell_volume   105.29261307
_cell_formula_units_Z   1
loop_
 _symmetry_equiv_pos_site_id
 _symmetry_equiv_pos_as_xyz
  1  'x, y, z'
loop_
 _atom_site_type_symbol
 _atom_site_label
 _atom_site_symmetry_multiplicity
 _atom_site_fract_x
 _atom_site_fract_y
 _atom_site_fract_z
 _atom_site_occupancy
  Ag  Ag0  1  0.00000000  0.00000000  0.00000000  1
  Sb  Sb0  1  0.50000000  0.50000000  0.50000000  1
  Te  Te0  1  0.50000000  0.50000000  0.00000000  1
  Se  Se0  1  0.00000000  0.00000000  0.50000000  1
loop_
_geom_bond_atom_site_label_1
_geom_bond_atom_site_label_2
_geom_bond_distance
_geom_bond_site_symmetry_2
Ag0 Te0 2.911261 1_455
Ag0 Te0 2.911261 1_545
Ag0 Te0 2.911261 1_555
Ag0 Te0 2.911261 1_445
Ag0 Se0 3.105815 1_554
Ag0 Se0 3.105815 1_555
Sb0 Se0 2.911261 1_555
Sb0 Se0 2.911261 1_655
Sb0 Se0 2.911261 1_665
Sb0 Se0 2.911261 1_565
Sb0 Te0 3.105815 1_556
Sb0 Te0 3.105815 1_555
