# generated using pymatgen
data_Rb2Th3Mg(MoO4)8
_symmetry_space_group_name_H-M   'P 1'
_cell_length_a   9.60609340
_cell_length_b   13.20701439
_cell_length_c   13.20701439
_cell_angle_alpha   88.29262779
_cell_angle_beta   90.15451301
_cell_angle_gamma   90.15451301
_symmetry_Int_Tables_number   1
_chemical_formula_structural   Rb2Th3Mg(MoO4)8
_chemical_formula_sum   'Rb4 Th6 Mg2 Mo16 O64'
_cell_volume   1674.78932957
_cell_formula_units_Z   2
loop_
 _symmetry_equiv_pos_site_id
 _symmetry_equiv_pos_as_xyz
  1  'x, y, z'
loop_
 _atom_site_type_symbol
 _atom_site_label
 _atom_site_symmetry_multiplicity
 _atom_site_fract_x
 _atom_site_fract_y
 _atom_site_fract_z
 _atom_site_occupancy
  Rb  Rb0  1  0.56242453  0.14080763  0.62289229  1
  Rb  Rb1  1  0.93757547  0.37710771  0.85919237  1
  Rb  Rb2  1  0.43757547  0.85919237  0.37710771  1
  Rb  Rb3  1  0.06242453  0.62289229  0.14080763  1
  Th  Th0  1  0.25000000  0.12956374  0.87043626  1
  Th  Th1  1  0.75000000  0.87043626  0.12956374  1
  Th  Th2  1  0.83958878  0.86903850  0.63117018  1
  Th  Th3  1  0.66041122  0.36882982  0.13096150  1
  Th  Th4  1  0.16041122  0.13096150  0.36882982  1
  Th  Th5  1  0.33958878  0.63117018  0.86903850  1
  Mg  Mg0  1  0.25000000  0.58930945  0.41069055  1
  Mg  Mg1  1  0.75000000  0.41069055  0.58930945  1
  Mo  Mo0  1  0.54783836  0.90625568  0.85644024  1
  Mo  Mo1  1  0.95216164  0.14355976  0.09374432  1
  Mo  Mo2  1  0.45216164  0.09374432  0.14355976  1
  Mo  Mo3  1  0.04783836  0.85644024  0.90625568  1
  Mo  Mo4  1  0.97105890  0.16908895  0.64938162  1
  Mo  Mo5  1  0.52894110  0.35061838  0.83091105  1
  Mo  Mo6  1  0.02894110  0.83091105  0.35061838  1
  Mo  Mo7  1  0.47105890  0.64938162  0.16908895  1
  Mo  Mo8  1  0.25283950  0.96666162  0.60854936  1
  Mo  Mo9  1  0.24716050  0.39145064  0.03333838  1
  Mo  Mo10  1  0.74716050  0.03333838  0.39145064  1
  Mo  Mo11  1  0.75283950  0.60854936  0.96666162  1
  Mo  Mo12  1  0.53590522  0.65368958  0.58842583  1
  Mo  Mo13  1  0.96409478  0.41157417  0.34631042  1
  Mo  Mo14  1  0.46409478  0.34631042  0.41157417  1
  Mo  Mo15  1  0.03590522  0.58842583  0.65368958  1
  O  O0  1  0.07772535  0.91687501  0.61388043  1
  O  O1  1  0.42227465  0.38611957  0.08312499  1
  O  O2  1  0.92227465  0.08312499  0.38611957  1
  O  O3  1  0.57772535  0.61388043  0.91687501  1
  O  O4  1  0.07000371  0.19989068  0.76263083  1
  O  O5  1  0.42999629  0.23736917  0.80010932  1
  O  O6  1  0.92999629  0.80010932  0.23736917  1
  O  O7  1  0.57000371  0.76263083  0.19989068  1
  O  O8  1  0.65547881  0.76083451  0.58363918  1
  O  O9  1  0.84452119  0.41636082  0.23916549  1
  O  O10  1  0.34452119  0.23916549  0.41636082  1
  O  O11  1  0.15547881  0.58363918  0.76083451  1
  O  O12  1  0.08722430  0.15293004  0.54478158  1
  O  O13  1  0.41277570  0.45521842  0.84706996  1
  O  O14  1  0.91277570  0.84706996  0.45521842  1
  O  O15  1  0.58722430  0.54478158  0.15293004  1
  O  O16  1  0.64651318  0.91318149  0.74090577  1
  O  O17  1  0.85348682  0.25909423  0.08681851  1
  O  O18  1  0.35348682  0.08681851  0.25909423  1
  O  O19  1  0.14651318  0.74090577  0.91318149  1
  O  O20  1  0.41489134  0.66486332  0.48534856  1
  O  O21  1  0.08510866  0.51465144  0.33513668  1
  O  O22  1  0.58510866  0.33513668  0.51465144  1
  O  O23  1  0.91489134  0.48534856  0.66486332  1
  O  O24  1  0.42323133  0.80518110  0.85636233  1
  O  O25  1  0.07676867  0.14363767  0.19481890  1
  O  O26  1  0.57676867  0.19481890  0.14363767  1
  O  O27  1  0.92323133  0.85636233  0.80518110  1
  O  O28  1  0.29324880  0.02064122  0.48331232  1
  O  O29  1  0.20675120  0.51668768  0.97935878  1
  O  O30  1  0.70675120  0.97935878  0.51668768  1
  O  O31  1  0.79324880  0.48331232  0.02064122  1
  O  O32  1  0.84878962  0.26706124  0.62308906  1
  O  O33  1  0.65121038  0.37691094  0.73293876  1
  O  O34  1  0.15121038  0.73293876  0.37691094  1
  O  O35  1  0.34878962  0.62308906  0.26706124  1
  O  O36  1  0.28581043  0.05946965  0.70510605  1
  O  O37  1  0.21418957  0.29489395  0.94053035  1
  O  O38  1  0.71418957  0.94053035  0.29489395  1
  O  O39  1  0.78581043  0.70510605  0.05946965  1
  O  O40  1  0.63658690  0.54347897  0.57250986  1
  O  O41  1  0.86341310  0.42749014  0.45652103  1
  O  O42  1  0.36341310  0.45652103  0.42749014  1
  O  O43  1  0.13658690  0.57250986  0.54347897  1
  O  O44  1  0.46328259  0.02527707  0.87193449  1
  O  O45  1  0.03671741  0.12806551  0.97472293  1
  O  O46  1  0.53671741  0.97472293  0.12806551  1
  O  O47  1  0.96328259  0.87193449  0.02527707  1
  O  O48  1  0.66519900  0.88355551  0.96127942  1
  O  O49  1  0.83480100  0.03872058  0.11644449  1
  O  O50  1  0.33480100  0.11644449  0.03872058  1
  O  O51  1  0.16519900  0.96127942  0.88355551  1
  O  O52  1  0.44578907  0.64261648  0.70873439  1
  O  O53  1  0.05421093  0.29126561  0.35738352  1
  O  O54  1  0.55421093  0.35738352  0.29126561  1
  O  O55  1  0.94578907  0.70873439  0.64261648  1
  O  O56  1  0.87449348  0.05446203  0.67207443  1
  O  O57  1  0.62550652  0.32792557  0.94553797  1
  O  O58  1  0.12550652  0.94553797  0.32792557  1
  O  O59  1  0.37449348  0.67207443  0.05446203  1
  O  O60  1  0.36804518  0.86608316  0.62670421  1
  O  O61  1  0.13195482  0.37329579  0.13391684  1
  O  O62  1  0.63195482  0.13391684  0.37329579  1
  O  O63  1  0.86804518  0.62670421  0.86608316  1
loop_
_geom_bond_atom_site_label_1
_geom_bond_atom_site_label_2
_geom_bond_distance
_geom_bond_site_symmetry_2
Mg0 O43 2.073055 1_555
Mg0 O42 2.073055 1_555
Mg0 O20 2.125680 1_555
Mg0 O21 2.125680 1_555
Mg0 O35 2.157517 1_555
Mg0 O34 2.157517 1_555
Mg1 O40 2.073055 1_555
Mg1 O41 2.073055 1_555
Mg1 O23 2.125680 1_555
Mg1 O22 2.125680 1_555
Mg1 O32 2.157517 1_555
Mg1 O33 2.157517 1_555
Mo0 O44 1.788715 1_565
Mo0 O24 1.790580 1_555
Mo0 O16 1.798367 1_555
Mo0 O48 1.801855 1_555
Mo1 O45 1.788715 1_654
Mo1 O25 1.790580 1_655
Mo1 O17 1.798367 1_555
Mo1 O49 1.801855 1_555
Mo2 O46 1.788715 1_545
Mo2 O26 1.790580 1_555
Mo2 O18 1.798367 1_555
Mo2 O50 1.801855 1_555
Mo3 O47 1.788715 1_456
Mo3 O27 1.790580 1_455
Mo3 O19 1.798367 1_555
Mo3 O51 1.801855 1_555
Mo4 O32 1.775826 1_555
Mo4 O56 1.791372 1_555
Mo4 O12 1.796204 1_655
Mo4 O4 1.825502 1_655
Mo5 O33 1.775826 1_555
Mo5 O57 1.791372 1_555
Mo5 O13 1.796204 1_555
Mo5 O5 1.825502 1_555
Mo6 O34 1.775826 1_555
Mo6 O58 1.791372 1_555
Mo6 O14 1.796204 1_455
Mo6 O6 1.825502 1_455
Mo7 O35 1.775826 1_555
Mo7 O59 1.791372 1_555
Mo7 O15 1.796204 1_555
Mo7 O7 1.825502 1_555
Mo8 O60 1.741905 1_555
Mo8 O0 1.805240 1_555
Mo8 O36 1.821473 1_565
Mo8 O28 1.823833 1_565
Mo9 O61 1.741905 1_555
Mo9 O1 1.805240 1_555
Mo9 O37 1.821473 1_554
Mo9 O29 1.823833 1_554
Mo10 O62 1.741905 1_555
Mo10 O2 1.805240 1_555
Mo10 O38 1.821473 1_545
Mo10 O30 1.823833 1_545
Mo11 O63 1.741905 1_555
Mo11 O3 1.805240 1_555
Mo11 O39 1.821473 1_556
Mo11 O31 1.823833 1_556
Mo12 O40 1.767805 1_555
Mo12 O20 1.790751 1_555
Mo12 O52 1.813369 1_555
Mo12 O8 1.819907 1_555
Mo13 O41 1.767805 1_555
Mo13 O21 1.790751 1_655
Mo13 O53 1.813369 1_655
Mo13 O9 1.819907 1_555
Mo14 O42 1.767805 1_555
Mo14 O22 1.790751 1_555
Mo14 O54 1.813369 1_555
Mo14 O10 1.819907 1_555
Mo15 O43 1.767805 1_555
Mo15 O23 1.790751 1_455
Mo15 O55 1.813369 1_455
Mo15 O11 1.819907 1_555
O0 Th2 2.381313 1_455
O1 Th3 2.381313 1_555
O2 Th4 2.381313 1_655
O3 Th5 2.381313 1_555
O4 Th0 2.407507 1_555
O4 Rb1 2.987524 1_455
O5 Th0 2.407507 1_555
O5 Rb0 2.987524 1_555
O6 Th1 2.407507 1_555
O6 Rb3 2.987524 1_655
O7 Th1 2.407507 1_555
O7 Rb2 2.987524 1_555
O8 Th2 2.365999 1_555
O9 Th3 2.365999 1_555
O10 Th4 2.365999 1_555
O11 Th5 2.365999 1_555
O12 Th4 2.455314 1_555
O13 Th5 2.455314 1_555
O14 Th2 2.455314 1_555
O15 Th3 2.455314 1_555
O16 Th2 2.439446 1_555
O16 Rb0 3.441865 1_565
O17 Th3 2.439446 1_555
O17 Rb1 3.441865 1_554
O18 Th4 2.439446 1_555
O18 Rb2 3.441865 1_545
O19 Th5 2.439446 1_555
O19 Rb3 3.441865 1_556
O20 Rb2 2.908273 1_555
O21 Rb3 2.908273 1_555
O22 Rb0 2.908273 1_555
O23 Rb1 2.908273 1_555
O24 Th5 2.433722 1_555
O25 Th4 2.433722 1_555
O26 Th3 2.433722 1_555
O27 Th2 2.433722 1_555
O28 Th4 2.430137 1_555
O28 Rb2 2.939513 1_545
O29 Th5 2.430137 1_555
O29 Rb3 2.939513 1_556
O30 Th2 2.430137 1_555
O30 Rb0 2.939513 1_565
O31 Th3 2.430137 1_555
O31 Rb1 2.939513 1_554
O32 Rb0 3.212942 1_555
O33 Rb1 3.212942 1_555
O34 Rb2 3.212942 1_555
O35 Rb3 3.212942 1_555
O36 Th0 2.422662 1_555
O36 Rb0 3.053556 1_555
O37 Th0 2.422662 1_555
O37 Rb1 3.053556 1_455
O38 Th1 2.422662 1_555
O38 Rb2 3.053556 1_555
O39 Th1 2.422662 1_555
O39 Rb3 3.053556 1_655
O44 Th0 2.471518 1_555
O45 Th0 2.471518 1_555
O46 Th1 2.471518 1_555
O47 Th1 2.471518 1_555
O48 Th1 2.366708 1_556
O49 Th1 2.366708 1_545
O50 Th0 2.366708 1_554
O51 Th0 2.366708 1_565
O52 Th5 2.353215 1_555
O53 Th4 2.353215 1_555
O54 Th3 2.353215 1_555
O55 Th2 2.353215 1_555
O56 Th2 2.544555 1_545
O56 Rb0 3.266915 1_555
O57 Th3 2.544555 1_556
O57 Rb1 3.266915 1_555
O58 Th4 2.544555 1_565
O58 Rb2 3.266915 1_555
O59 Th5 2.544555 1_554
O59 Rb3 3.266915 1_555
O60 Rb2 3.369108 1_555
O61 Rb3 3.369108 1_555
O62 Rb0 3.369108 1_555
O63 Rb1 3.369108 1_555
