# generated using pymatgen
data_Sr4CaYGa2(Cu2O7)2
_symmetry_space_group_name_H-M   'P 1'
_cell_length_a   7.08725200
_cell_length_b   7.68284641
_cell_length_c   8.15287106
_cell_angle_alpha   99.39262957
_cell_angle_beta   96.05898579
_cell_angle_gamma   106.55436542
_symmetry_Int_Tables_number   1
_chemical_formula_structural   Sr4CaYGa2(Cu2O7)2
_chemical_formula_sum   'Sr4 Ca1 Y1 Ga2 Cu4 O14'
_cell_volume   414.35834011
_cell_formula_units_Z   1
loop_
 _symmetry_equiv_pos_site_id
 _symmetry_equiv_pos_as_xyz
  1  'x, y, z'
loop_
 _atom_site_type_symbol
 _atom_site_label
 _atom_site_symmetry_multiplicity
 _atom_site_fract_x
 _atom_site_fract_y
 _atom_site_fract_z
 _atom_site_occupancy
  Sr  Sr0  1  0.03075400  0.60213800  0.74743300  1
  Sr  Sr1  1  0.81986200  0.74934000  0.18360000  1
  Sr  Sr2  1  0.06892900  0.12018100  0.56598900  1
  Sr  Sr3  1  0.25369400  0.58490300  0.19246800  1
  Ca  Ca0  1  0.02611200  0.13552500  0.98537700  1
  Y  Y0  1  0.50565800  0.99998600  0.50428800  1
  Ga  Ga0  1  0.56263600  0.41628100  0.43553000  1
  Ga  Ga1  1  0.63155900  0.76170400  0.73751600  1
  Cu  Cu0  1  0.43511800  0.47713000  0.84957000  1
  Cu  Cu1  1  0.38685100  0.96473700  0.08720100  1
  Cu  Cu2  1  0.60531200  0.28393800  0.04279600  1
  Cu  Cu3  1  0.86046500  0.28825200  0.29917200  1
  O  O0  1  0.88875200  0.37227400  0.09789400  1
  O  O1  1  0.96476100  0.08830200  0.25324700  1
  O  O2  1  0.70489900  0.61511500  0.87033600  1
  O  O3  1  0.78641700  0.33186100  0.51459500  1
  O  O4  1  0.55206500  0.46797800  0.22016200  1
  O  O5  1  0.53763500  0.65431800  0.51829200  1
  O  O6  1  0.52189200  0.87565400  0.24626400  1
  O  O7  1  0.34923100  0.13561000  0.96945800  1
  O  O8  1  0.38033300  0.22254400  0.48584500  1
  O  O9  1  0.76473500  0.99882600  0.73370500  1
  O  O10  1  0.24341000  0.87713000  0.63768500  1
  O  O11  1  0.16805000  0.37757500  0.83698000  1
  O  O12  1  0.16119600  0.80388700  0.45219300  1
  O  O13  1  0.12367500  0.79480900  0.03240400  1
loop_
_geom_bond_atom_site_label_1
_geom_bond_atom_site_label_2
_geom_bond_distance
_geom_bond_site_symmetry_2
Ca0 O7 2.307159 1_555
Ca0 O1 2.336522 1_456
Ca0 O0 2.398039 1_456
Ca0 O11 2.420580 1_555
Ca0 O9 2.475930 1_445
Ca0 O13 2.963164 1_546
Ga0 O8 1.807868 1_555
Ga0 O4 1.860981 1_555
Ga0 O5 1.907439 1_555
Ga0 O3 1.964274 1_555
Ga1 O9 1.804299 1_555
Ga1 O5 1.809095 1_555
Ga1 O2 1.823172 1_555
Cu0 O11 1.812882 1_555
Cu0 O2 1.877845 1_555
Cu1 O7 1.809076 1_564
Cu1 O6 1.862014 1_555
Cu1 O13 1.905005 1_555
Cu2 O7 1.822082 1_554
Cu2 O0 1.905469 1_555
Cu2 O4 1.996148 1_555
Cu3 O0 1.868480 1_555
Cu3 O1 1.887905 1_555
Cu3 O3 1.890772 1_555
O0 Sr3 2.590937 1_655
O0 Sr1 3.055520 1_555
O1 Sr1 2.455426 1_545
O1 Sr2 2.530212 1_655
O2 Sr1 2.544104 1_556
O2 Sr0 2.633341 1_655
O3 Sr0 2.623824 1_655
O3 Y0 2.733355 1_545
O3 Sr2 2.954701 1_655
O4 Sr1 2.521041 1_555
O4 Sr3 2.525374 1_555
O5 Y0 2.748398 1_555
O5 Sr3 3.031176 1_555
O6 Y0 2.192902 1_555
O6 Sr3 2.424842 1_555
O6 Sr1 2.626064 1_555
O8 Y0 2.157866 1_545
O8 Sr2 2.323649 1_555
O9 Y0 2.481872 1_555
O9 Sr2 2.698124 1_665
O10 O12 1.514120 1_555
O10 Y0 2.300057 1_555
O10 Sr0 2.573494 1_555
O10 Sr2 2.622451 1_565
O11 Sr0 2.382066 1_555
O11 Sr2 2.596151 1_555
O11 Sr3 2.979320 1_556
O12 Y0 2.426199 1_555
O12 Sr2 2.737000 1_565
O12 Sr3 2.739134 1_555
O12 Sr1 2.971104 1_455
O13 Sr0 2.453916 1_554
O13 Sr3 2.536276 1_555
O13 Sr1 2.559305 1_455
