# generated using pymatgen
data_Sm30(P4Ir5)13
_symmetry_space_group_name_H-M   'P 1'
_cell_length_a   3.98078881
_cell_length_b   13.36663849
_cell_length_c   47.35208077
_cell_angle_alpha   95.44230583
_cell_angle_beta   90.00000000
_cell_angle_gamma   90.00000000
_symmetry_Int_Tables_number   1
_chemical_formula_structural   Sm30(P4Ir5)13
_chemical_formula_sum   'Sm30 P52 Ir65'
_cell_volume   2508.23528058
_cell_formula_units_Z   1
loop_
 _symmetry_equiv_pos_site_id
 _symmetry_equiv_pos_as_xyz
  1  'x, y, z'
loop_
 _atom_site_type_symbol
 _atom_site_label
 _atom_site_symmetry_multiplicity
 _atom_site_fract_x
 _atom_site_fract_y
 _atom_site_fract_z
 _atom_site_occupancy
  Sm  Sm0  1  0.50000000  0.83179357  0.17633486  1
  Sm  Sm1  1  -0.00000000  0.83185635  0.67631786  1
  Sm  Sm2  1  -0.00000000  0.16923940  0.32405776  1
  Sm  Sm3  1  0.50000000  0.16813712  0.82363148  1
  Sm  Sm4  1  0.50000000  0.78333335  0.46214216  1
  Sm  Sm5  1  -0.00000000  0.78401364  0.96226700  1
  Sm  Sm6  1  -0.00000000  0.21608820  0.03776282  1
  Sm  Sm7  1  0.50000000  0.21712036  0.53684500  1
  Sm  Sm8  1  0.50000000  0.51234182  0.19338903  1
  Sm  Sm9  1  -0.00000000  0.51250507  0.69331176  1
  Sm  Sm10  1  0.00000000  0.48689080  0.30678987  1
  Sm  Sm11  1  0.50000000  0.48765587  0.80667969  1
  Sm  Sm12  1  0.50000000  0.57871149  0.11055458  1
  Sm  Sm13  1  0.00000000  0.57863364  0.61045548  1
  Sm  Sm14  1  -0.00000000  0.41485665  0.39189466  1
  Sm  Sm15  1  0.50000000  0.42132546  0.88940450  1
  Sm  Sm16  1  0.00000000  0.81246948  0.27724426  1
  Sm  Sm17  1  0.50000000  0.81262545  0.77719146  1
  Sm  Sm18  1  0.50000000  0.18764756  0.22284453  1
  Sm  Sm19  1  0.00000000  0.18729306  0.72279626  1
  Sm  Sm20  1  0.50000000  0.06937279  0.43711514  1
  Sm  Sm21  1  -0.00000000  0.06558144  0.93702591  1
  Sm  Sm22  1  0.00000000  0.93424555  0.06301041  1
  Sm  Sm23  1  0.50000000  0.93423282  0.56297897  1
  Sm  Sm24  1  0.00000000  0.50000995  0.00003184  1
  Sm  Sm25  1  0.50000000  0.49906454  0.49971833  1
  Sm  Sm26  1  0.50000000  0.82085449  0.37815529  1
  Sm  Sm27  1  0.00000000  0.82060208  0.87778631  1
  Sm  Sm28  1  0.00000000  0.17943196  0.12223644  1
  Sm  Sm29  1  0.50000000  0.17933025  0.62219221  1
  P  P0  1  0.50000000  0.97969554  0.31763920  1
  P  P1  1  -0.00000000  0.98001457  0.81748696  1
  P  P2  1  -0.00000000  0.01970027  0.18246650  1
  P  P3  1  0.50000000  0.02008057  0.68249389  1
  P  P4  1  0.00000000  0.99799615  0.38830612  1
  P  P5  1  0.50000000  0.99604559  0.88793162  1
  P  P6  1  0.50000000  0.00408711  0.11203538  1
  P  P7  1  -0.00000000  0.00398536  0.61195718  1
  P  P8  1  0.50000000  0.48266123  0.43766067  1
  P  P9  1  -0.00000000  0.48311372  0.93740076  1
  P  P10  1  -0.00000000  0.51688944  0.06262204  1
  P  P11  1  0.50000000  0.51698808  0.56248223  1
  P  P12  1  0.00000000  0.71214288  0.41335573  1
  P  P13  1  0.50000000  0.71197463  0.91366431  1
  P  P14  1  0.50000000  0.28798200  0.08628780  1
  P  P15  1  0.00000000  0.28749294  0.58621700  1
  P  P16  1  0.50000000  0.88670871  0.23644677  1
  P  P17  1  0.00000000  0.88654818  0.73644171  1
  P  P18  1  0.00000000  0.11348366  0.26366557  1
  P  P19  1  0.50000000  0.11340788  0.76353402  1
  P  P20  1  0.50000000  0.61034629  0.27473975  1
  P  P21  1  0.00000000  0.61017982  0.77473952  1
  P  P22  1  -0.00000000  0.38963585  0.22535568  1
  P  P23  1  0.50000000  0.38976047  0.72524549  1
  P  P24  1  -0.00000000  0.95687479  0.47112440  1
  P  P25  1  0.50000000  0.95592880  0.97133075  1
  P  P26  1  0.50000000  0.04416099  0.02869344  1
  P  P27  1  -0.00000000  0.04368517  0.52849069  1
  P  P28  1  0.50000000  0.53224908  0.35566028  1
  P  P29  1  -0.00000000  0.53228317  0.85581297  1
  P  P30  1  -0.00000000  0.46772011  0.14416470  1
  P  P31  1  0.50000000  0.46771285  0.64418209  1
  P  P32  1  0.50000000  0.32047602  0.29182383  1
  P  P33  1  0.00000000  0.32055390  0.79103135  1
  P  P34  1  -0.00000000  0.67948532  0.20896982  1
  P  P35  1  0.50000000  0.67950025  0.70899746  1
  P  P36  1  0.50000000  0.77784918  0.05600110  1
  P  P37  1  0.00000000  0.77756416  0.55588817  1
  P  P38  1  -0.00000000  0.22974861  0.44256293  1
  P  P39  1  0.50000000  0.22224264  0.94398788  1
  P  P40  1  -0.00000000  0.67640397  0.49512108  1
  P  P41  1  0.50000000  0.67692224  0.99507769  1
  P  P42  1  0.50000000  0.32308908  0.00491964  1
  P  P43  1  -0.00000000  0.32051552  0.50351091  1
  P  P44  1  0.50000000  0.23866834  0.37444591  1
  P  P45  1  -0.00000000  0.24183195  0.87292499  1
  P  P46  1  -0.00000000  0.75818306  0.12705727  1
  P  P47  1  0.50000000  0.75809480  0.62701839  1
  P  P48  1  -0.00000000  0.76083936  0.33356634  1
  P  P49  1  0.50000000  0.76149731  0.83349532  1
  P  P50  1  0.50000000  0.23839401  0.16650913  1
  P  P51  1  -0.00000000  0.23863874  0.66654056  1
  Ir  Ir0  1  -0.00000000  0.93640704  0.33906096  1
  Ir  Ir1  1  0.50000000  0.93721107  0.83891699  1
  Ir  Ir2  1  0.50000000  0.06271340  0.16110666  1
  Ir  Ir3  1  0.00000000  0.06289315  0.66102463  1
  Ir  Ir4  1  0.50000000  0.35669368  0.34049451  1
  Ir  Ir5  1  -0.00000000  0.35623597  0.83914010  1
  Ir  Ir6  1  -0.00000000  0.64368350  0.16086323  1
  Ir  Ir7  1  0.50000000  0.64375299  0.66088284  1
  Ir  Ir8  1  0.50000000  0.37251608  0.13664959  1
  Ir  Ir9  1  0.00000000  0.37247879  0.63655249  1
  Ir  Ir10  1  -0.00000000  0.62594464  0.36387040  1
  Ir  Ir11  1  0.50000000  0.62750702  0.86338711  1
  Ir  Ir12  1  0.50000000  0.60752317  0.04515586  1
  Ir  Ir13  1  -0.00000000  0.60690018  0.54480104  1
  Ir  Ir14  1  -0.00000000  0.40041474  0.45529933  1
  Ir  Ir15  1  0.50000000  0.39253548  0.95489573  1
  Ir  Ir16  1  0.50000000  0.61122916  0.40621129  1
  Ir  Ir17  1  -0.00000000  0.61065809  0.90558273  1
  Ir  Ir18  1  0.00000000  0.38934902  0.09445942  1
  Ir  Ir19  1  0.50000000  0.38946664  0.59431920  1
  Ir  Ir20  1  0.00000000  0.94107555  0.13360220  1
  Ir  Ir21  1  0.50000000  0.94104482  0.63361869  1
  Ir  Ir22  1  0.50000000  0.05748432  0.36652844  1
  Ir  Ir23  1  0.00000000  0.05887146  0.86642249  1
  Ir  Ir24  1  0.00000000  0.88919570  0.42416839  1
  Ir  Ir25  1  0.50000000  0.88949731  0.92427157  1
  Ir  Ir26  1  0.50000000  0.11066888  0.07572574  1
  Ir  Ir27  1  -0.00000000  0.11078332  0.57548136  1
  Ir  Ir28  1  -0.00000000  0.60026835  0.44954727  1
  Ir  Ir29  1  0.50000000  0.59979195  0.94978575  1
  Ir  Ir30  1  0.50000000  0.40017448  0.05021622  1
  Ir  Ir31  1  0.00000000  0.39892590  0.55005864  1
  Ir  Ir32  1  0.50000000  0.66890702  0.32266655  1
  Ir  Ir33  1  -0.00000000  0.66960629  0.82254911  1
  Ir  Ir34  1  -0.00000000  0.33043884  0.17749762  1
  Ir  Ir35  1  0.50000000  0.33037037  0.67741360  1
  Ir  Ir36  1  -0.00000000  0.97516868  0.22825501  1
  Ir  Ir37  1  0.50000000  0.97517726  0.72824862  1
  Ir  Ir38  1  0.50000000  0.02461545  0.27180211  1
  Ir  Ir39  1  -0.00000000  0.02482060  0.77173790  1
  Ir  Ir40  1  0.50000000  0.42644034  0.25245526  1
  Ir  Ir41  1  0.00000000  0.42636331  0.75227198  1
  Ir  Ir42  1  -0.00000000  0.57348418  0.24772893  1
  Ir  Ir43  1  0.50000000  0.57346222  0.74770083  1
  Ir  Ir44  1  0.50000000  0.86243692  0.01349116  1
  Ir  Ir45  1  -0.00000000  0.86276236  0.51339391  1
  Ir  Ir46  1  -0.00000000  0.13848601  0.48673850  1
  Ir  Ir47  1  0.50000000  0.13752629  0.98649697  1
  Ir  Ir48  1  0.50000000  0.27522521  0.47438072  1
  Ir  Ir49  1  0.00000000  0.28053340  0.97906133  1
  Ir  Ir50  1  0.00000000  0.71944102  0.02095143  1
  Ir  Ir51  1  0.50000000  0.71987144  0.52091589  1
  Ir  Ir52  1  0.50000000  0.71161466  0.23422141  1
  Ir  Ir53  1  -0.00000000  0.71154518  0.73424198  1
  Ir  Ir54  1  -0.00000000  0.28886485  0.26616522  1
  Ir  Ir55  1  0.50000000  0.28845611  0.76577880  1
  Ir  Ir56  1  -0.00000000  0.99998397  0.00000165  1
  Ir  Ir57  1  0.50000000  0.00058961  0.50033133  1
  Ir  Ir58  1  0.50000000  0.82201834  0.10608592  1
  Ir  Ir59  1  0.00000000  0.82189825  0.60605687  1
  Ir  Ir60  1  -0.00000000  0.17978300  0.39382409  1
  Ir  Ir61  1  0.50000000  0.17798171  0.89397619  1
  Ir  Ir62  1  -0.00000000  0.29899638  0.92072210  1
  Ir  Ir63  1  0.00000000  0.70102102  0.07928580  1
  Ir  Ir64  1  0.50000000  0.70105531  0.57913947  1
loop_
_geom_bond_atom_site_label_1
_geom_bond_atom_site_label_2
_geom_bond_distance
_geom_bond_site_symmetry_2
P0 Sm2 3.213554 1_565
P0 Sm2 3.213554 1_665
P0 Sm16 3.435949 1_555
P0 Sm16 3.435949 1_655
P1 Sm3 3.198529 1_565
P1 Sm3 3.198529 1_465
P1 Sm17 3.434925 1_555
P1 Sm17 3.434925 1_455
P2 Sm0 3.196276 1_545
P2 Sm0 3.196276 1_445
P2 Sm18 3.441324 1_555
P2 Sm18 3.441324 1_455
P3 Sm1 3.199611 1_545
P3 Sm1 3.199611 1_645
P3 Sm19 3.433672 1_555
P3 Sm19 3.433672 1_655
P4 Sm26 3.095682 1_455
P4 Sm26 3.095682 1_555
P4 Sm20 3.129749 1_465
P4 Sm20 3.129749 1_565
P5 Sm27 3.078669 1_655
P5 Sm27 3.078669 1_555
P5 Sm21 3.133690 1_565
P5 Sm21 3.133690 1_665
P6 Sm28 3.077907 1_555
P6 Sm28 3.077907 1_655
P6 Sm22 3.132276 1_645
P6 Sm22 3.132276 1_545
P7 Sm29 3.078044 1_455
P7 Sm29 3.078044 1_555
P7 Sm23 3.130427 1_445
P7 Sm23 3.130427 1_545
P8 Sm25 2.925917 1_555
P8 Sm14 3.017766 1_555
P8 Sm14 3.017766 1_655
P9 Sm24 2.952863 1_556
P9 Sm15 3.074573 1_555
P9 Sm15 3.074573 1_455
P10 Sm24 2.950938 1_555
P10 Sm12 3.072510 1_455
P10 Sm12 3.072510 1_555
P11 Sm25 2.958906 1_555
P11 Sm13 3.073418 1_555
P11 Sm13 3.073418 1_655
P12 Sm26 3.051376 1_455
P12 Sm26 3.051376 1_555
P12 Sm4 3.128407 1_455
P12 Sm4 3.128407 1_555
P13 Sm27 3.069869 1_555
P13 Sm27 3.069869 1_655
P13 Sm5 3.124922 1_555
P13 Sm5 3.124922 1_655
P14 Sm28 3.071328 1_555
P14 Sm28 3.071328 1_655
P14 Sm6 3.121858 1_555
P14 Sm6 3.121858 1_655
P15 Sm29 3.069367 1_555
P15 Sm29 3.069367 1_455
P15 Sm7 3.145626 1_455
P15 Sm7 3.145626 1_555
P16 Sm0 2.871342 1_555
P16 Sm16 3.007000 1_555
P16 Sm16 3.007000 1_655
P17 Sm1 2.871408 1_555
P17 Sm17 3.003826 1_455
P17 Sm17 3.003826 1_555
P18 Sm2 2.886003 1_555
P18 Sm18 3.007358 1_455
P18 Sm18 3.007358 1_555
P19 Sm3 2.870280 1_555
P19 Sm19 3.003248 1_555
P19 Sm19 3.003248 1_655
P20 Sm10 3.076209 1_555
P20 Sm10 3.076209 1_655
P20 Sm16 3.348758 1_655
P20 Sm16 3.348758 1_555
P21 Sm11 3.066128 1_455
P21 Sm11 3.066128 1_555
P21 Sm17 3.352325 1_455
P21 Sm17 3.352325 1_555
P22 Sm8 3.068224 1_555
P22 Sm8 3.068224 1_455
P22 Sm18 3.347297 1_455
P22 Sm18 3.347297 1_555
P23 Sm9 3.067677 1_555
P23 Sm9 3.067677 1_655
P23 Sm19 3.352565 1_655
P23 Sm19 3.352565 1_555
P24 Sm20 3.045588 1_565
P24 Sm20 3.045588 1_465
P24 Sm4 3.055532 1_555
P24 Sm4 3.055532 1_455
P25 Sm21 3.033187 1_565
P25 Sm21 3.033187 1_665
P25 Sm5 3.039616 1_555
P25 Sm5 3.039616 1_655
P26 Sm22 3.035398 1_645
P26 Sm22 3.035398 1_545
P26 Sm6 3.039754 1_555
P26 Sm6 3.039754 1_655
P27 Sm23 3.036818 1_445
P27 Sm23 3.036818 1_545
P27 Sm7 3.052617 1_555
P27 Sm7 3.052617 1_455
P28 Sm10 3.068917 1_555
P28 Sm10 3.068917 1_655
P28 Sm14 3.143000 1_555
P28 Sm14 3.143000 1_655
P29 Sm15 3.023068 1_455
P29 Sm15 3.023068 1_555
P29 Sm11 3.076872 1_555
P29 Sm11 3.076872 1_455
P30 Sm12 3.023816 1_555
P30 Sm12 3.023816 1_455
P30 Sm8 3.080046 1_455
P30 Sm8 3.080046 1_555
P31 Sm13 3.026469 1_555
P31 Sm13 3.026469 1_655
P31 Sm9 3.077016 1_655
P31 Sm9 3.077016 1_555
P32 Sm10 3.018750 1_555
P32 Sm10 3.018750 1_655
P32 Sm2 3.311079 1_555
P32 Sm2 3.311079 1_655
P33 Sm11 3.030794 1_555
P33 Sm11 3.030794 1_455
P33 Sm3 3.330432 1_555
P33 Sm3 3.330432 1_455
P34 Sm8 3.030634 1_555
P34 Sm8 3.030634 1_455
P34 Sm0 3.330341 1_555
P34 Sm0 3.330341 1_455
P35 Sm9 3.030085 1_655
P35 Sm9 3.030085 1_555
P35 Sm1 3.331864 1_655
P35 Sm1 3.331864 1_555
P36 Sm22 2.882773 1_555
P36 Sm22 2.882773 1_655
P37 Sm23 2.885555 1_455
P37 Sm23 2.885555 1_555
P38 Sm20 2.918683 1_455
P38 Sm20 2.918683 1_555
P39 Sm21 2.885200 1_655
P39 Sm21 2.885200 1_555
P40 Sm4 2.977679 1_455
P40 Sm4 2.977679 1_555
P40 Sm25 3.118636 1_455
P40 Sm25 3.118636 1_555
P41 Sm5 2.974294 1_555
P41 Sm5 2.974294 1_655
P41 Sm24 3.116704 1_556
P41 Sm24 3.116704 1_656
P42 Sm6 2.974527 1_555
P42 Sm6 2.974527 1_655
P42 Sm24 3.116330 1_555
P42 Sm24 3.116330 1_655
P43 Sm7 2.962598 1_555
P43 Sm7 2.962598 1_455
P43 Sm25 3.125873 1_455
P43 Sm25 3.125873 1_555
P44 Sm14 3.133923 1_555
P44 Sm14 3.133923 1_655
P44 Sm2 3.177391 1_555
P44 Sm2 3.177391 1_655
P45 Sm3 3.153429 1_455
P45 Sm3 3.153429 1_555
P45 Sm15 3.157807 1_455
P45 Sm15 3.157807 1_555
P46 Sm0 3.152621 1_455
P46 Sm0 3.152621 1_555
P46 Sm12 3.157784 1_455
P46 Sm12 3.157784 1_555
P47 Sm1 3.153846 1_655
P47 Sm1 3.153846 1_555
P47 Sm13 3.158183 1_555
P47 Sm13 3.158183 1_655
P48 Sm16 2.817465 1_555
P48 Sm26 2.956660 1_455
P48 Sm26 2.956660 1_555
P49 Sm17 2.814389 1_555
P49 Sm27 2.944498 1_555
P49 Sm27 2.944498 1_655
P50 Sm18 2.814146 1_555
P50 Sm28 2.943521 1_555
P50 Sm28 2.943521 1_655
P51 Sm19 2.813145 1_555
P51 Sm29 2.946912 1_455
P51 Sm29 2.946912 1_555
Ir0 P0 2.331682 1_455
Ir0 P0 2.331682 1_555
Ir0 P48 2.336474 1_555
Ir0 P4 2.398158 1_555
Ir0 Ir22 2.805934 1_565
Ir0 Ir22 2.805934 1_465
Ir0 Sm26 3.211947 1_455
Ir0 Sm26 3.211947 1_555
Ir0 Sm16 3.223785 1_555
Ir0 Sm2 3.257271 1_565
Ir1 P1 2.329994 1_655
Ir1 P1 2.329994 1_555
Ir1 P49 2.338362 1_555
Ir1 P5 2.378869 1_555
Ir1 Ir23 2.810829 1_565
Ir1 Ir23 2.810829 1_665
Ir1 Sm27 3.212926 1_555
Ir1 Sm27 3.212926 1_655
Ir1 Sm17 3.223797 1_555
Ir1 Sm3 3.236576 1_565
Ir2 P2 2.329276 1_555
Ir2 P2 2.329276 1_655
Ir2 P50 2.337908 1_555
Ir2 P6 2.380742 1_555
Ir2 Ir20 2.810648 1_545
Ir2 Ir20 2.810648 1_645
Ir2 Sm28 3.213743 1_555
Ir2 Sm28 3.213743 1_655
Ir2 Sm18 3.226307 1_555
Ir2 Sm0 3.235644 1_545
Ir3 P3 2.330882 1_555
Ir3 P3 2.330882 1_455
Ir3 P51 2.338853 1_555
Ir3 P7 2.381464 1_555
Ir3 Sm29 3.210606 1_455
Ir3 Sm29 3.210606 1_555
Ir3 Sm19 3.224602 1_555
Ir3 Sm1 3.238134 1_545
Ir4 P32 2.309583 1_555
Ir4 P44 2.356804 1_555
Ir4 P28 2.387996 1_555
Ir4 Sm10 3.172432 1_555
Ir4 Sm10 3.172432 1_655
Ir4 Sm14 3.182931 1_555
Ir4 Sm14 3.182931 1_655
Ir4 Sm2 3.236622 1_555
Ir4 Sm2 3.236622 1_655
Ir5 P33 2.282738 1_555
Ir5 P45 2.315557 1_555
Ir5 P29 2.410033 1_555
Ir5 Sm11 3.149954 1_555
Ir5 Sm11 3.149954 1_455
Ir5 Sm15 3.160824 1_555
Ir5 Sm15 3.160824 1_455
Ir5 Sm3 3.236075 1_455
Ir5 Sm3 3.236075 1_555
Ir6 P34 2.282821 1_555
Ir6 P46 2.317236 1_555
Ir6 P30 2.409260 1_555
Ir6 Sm8 3.150998 1_555
Ir6 Sm8 3.150998 1_455
Ir6 Sm12 3.162028 1_555
Ir6 Sm12 3.162028 1_455
Ir6 Sm0 3.235920 1_455
Ir6 Sm0 3.235920 1_555
Ir7 P35 2.283110 1_555
Ir7 P47 2.317794 1_555
Ir7 P31 2.410254 1_555
Ir7 Sm9 3.147760 1_655
Ir7 Sm9 3.147760 1_555
Ir7 Sm13 3.166519 1_555
Ir7 Sm13 3.166519 1_655
Ir7 Sm1 3.235588 1_655
Ir7 Sm1 3.235588 1_555
Ir8 P30 2.371035 1_655
Ir8 P30 2.371035 1_555
Ir8 P50 2.386201 1_555
Ir8 P14 2.540195 1_555
Ir8 Sm8 3.123967 1_555
Ir8 Sm12 3.125563 1_555
Ir8 Sm28 3.279377 1_655
Ir8 Sm28 3.279377 1_555
Ir9 P31 2.371789 1_555
Ir9 P31 2.371789 1_455
Ir9 P51 2.387207 1_555
Ir9 P15 2.541234 1_555
Ir9 Sm13 3.125110 1_555
Ir9 Sm9 3.126107 1_555
Ir9 Sm29 3.279705 1_455
Ir9 Sm29 3.279705 1_555
Ir10 P28 2.364095 1_555
Ir10 P28 2.364095 1_455
Ir10 P48 2.408533 1_555
Ir10 P12 2.511203 1_555
Ir10 Ir16 2.845155 1_555
Ir10 Ir16 2.845155 1_455
Ir10 Ir32 2.882833 1_455
Ir10 Ir32 2.882833 1_555
Ir10 Sm10 3.131664 1_555
Ir10 Sm14 3.229898 1_555
Ir10 Sm26 3.297342 1_555
Ir10 Sm26 3.297342 1_455
Ir11 P29 2.371452 1_555
Ir11 P29 2.371452 1_655
Ir11 P49 2.385794 1_555
Ir11 P13 2.536288 1_555
Ir11 Ir17 2.844284 1_655
Ir11 Ir17 2.844284 1_555
Ir11 Ir33 2.867784 1_655
Ir11 Ir33 2.867784 1_555
Ir11 Sm11 3.122925 1_555
Ir11 Sm15 3.123634 1_555
Ir11 Sm27 3.279401 1_555
Ir11 Sm27 3.279401 1_655
Ir12 P36 2.285881 1_555
Ir12 P10 2.510660 1_555
Ir12 P10 2.510660 1_655
Ir12 P41 2.626946 1_554
Ir12 Ir63 2.784293 1_555
Ir12 Ir63 2.784293 1_655
Ir12 Ir50 2.799719 1_655
Ir12 Ir50 2.799719 1_555
Ir12 Ir30 2.804444 1_555
Ir12 Sm12 3.156658 1_555
Ir12 Sm24 3.163857 1_655
Ir12 Sm24 3.163857 1_555
Ir13 P37 2.291798 1_555
Ir13 P11 2.509559 1_555
Ir13 P11 2.509559 1_455
Ir13 P40 2.609919 1_555
Ir13 Ir64 2.793077 1_455
Ir13 Ir64 2.793077 1_555
Ir13 Ir51 2.800903 1_455
Ir13 Ir51 2.800903 1_555
Ir13 Ir31 2.814462 1_555
Ir13 Sm25 3.164306 1_555
Ir13 Sm25 3.164306 1_455
Ir13 Sm13 3.167122 1_555
Ir14 P38 2.303644 1_555
Ir14 P8 2.458056 1_455
Ir14 P8 2.458056 1_555
Ir14 P43 2.610515 1_555
Ir14 Ir28 2.710798 1_555
Ir14 Ir48 2.804461 1_455
Ir14 Ir48 2.804461 1_555
Ir14 Sm14 3.026758 1_555
Ir14 Sm25 3.098117 1_555
Ir14 Sm25 3.098117 1_455
Ir15 P39 2.285836 1_555
Ir15 P9 2.510790 1_655
Ir15 P9 2.510790 1_555
Ir15 P42 2.624819 1_556
Ir15 Ir62 2.785623 1_555
Ir15 Ir62 2.785623 1_655
Ir15 Ir49 2.799519 1_655
Ir15 Ir49 2.799519 1_555
Ir15 Ir29 2.803638 1_555
Ir15 Sm15 3.160944 1_555
Ir15 Sm24 3.164017 1_656
Ir15 Sm24 3.164017 1_556
Ir16 P8 2.378331 1_555
Ir16 P12 2.410193 1_655
Ir16 P12 2.410193 1_555
Ir16 P28 2.522882 1_555
Ir16 Ir28 2.872467 1_555
Ir16 Ir28 2.872467 1_655
Ir16 Sm26 3.212813 1_555
Ir16 Sm14 3.312627 1_555
Ir16 Sm14 3.312627 1_655
Ir16 Sm4 3.339259 1_555
Ir17 P9 2.379853 1_555
Ir17 P13 2.417402 1_455
Ir17 P13 2.417402 1_555
Ir17 P29 2.486606 1_555
Ir17 Ir29 2.901986 1_455
Ir17 Ir29 2.901986 1_555
Ir17 Sm27 3.210619 1_555
Ir17 Sm15 3.253527 1_555
Ir17 Sm15 3.253527 1_455
Ir17 Sm5 3.375507 1_555
Ir18 P10 2.380454 1_555
Ir18 P14 2.418222 1_455
Ir18 P14 2.418222 1_555
Ir18 P30 2.483818 1_555
Ir18 Ir8 2.844070 1_455
Ir18 Ir8 2.844070 1_555
Ir18 Ir30 2.903303 1_455
Ir18 Ir30 2.903303 1_555
Ir18 Sm28 3.209838 1_555
Ir18 Sm12 3.253194 1_455
Ir18 Sm12 3.253194 1_555
Ir18 Sm6 3.375159 1_555
Ir19 P11 2.380244 1_555
Ir19 P15 2.422305 1_555
Ir19 P15 2.422305 1_655
Ir19 P31 2.490042 1_555
Ir19 Ir9 2.845822 1_655
Ir19 Ir9 2.845822 1_555
Ir19 Ir31 2.901797 1_555
Ir19 Ir31 2.901797 1_655
Ir19 Sm29 3.214755 1_555
Ir19 Sm13 3.251533 1_555
Ir19 Sm13 3.251533 1_655
Ir19 Sm7 3.394765 1_555
Ir20 P6 2.424280 1_465
Ir20 P6 2.424280 1_565
Ir20 P46 2.434889 1_555
Ir20 P2 2.448882 1_565
Ir20 Ir58 2.792593 1_455
Ir20 Ir58 2.792593 1_555
Ir20 Sm0 3.278803 1_555
Ir20 Sm0 3.278803 1_455
Ir20 Sm28 3.281106 1_565
Ir20 Sm22 3.335248 1_555
Ir21 P7 2.425953 1_665
Ir21 P7 2.425953 1_565
Ir21 P47 2.435737 1_555
Ir21 P3 2.451219 1_565
Ir21 Ir59 2.794111 1_655
Ir21 Ir59 2.794111 1_555
Ir21 Ir3 2.810252 1_565
Ir21 Ir3 2.810252 1_665
Ir21 Sm1 3.277128 1_655
Ir21 Sm1 3.277128 1_555
Ir21 Sm29 3.280907 1_565
Ir21 Sm23 3.337533 1_555
Ir22 P4 2.410995 1_645
Ir22 P4 2.410995 1_545
Ir22 P44 2.415274 1_555
Ir22 P0 2.446180 1_545
Ir22 Ir60 2.811365 1_655
Ir22 Ir60 2.811365 1_555
Ir22 Sm26 3.261541 1_545
Ir22 Sm2 3.287452 1_655
Ir22 Sm2 3.287452 1_555
Ir22 Sm20 3.331114 1_555
Ir23 P5 2.422080 1_545
Ir23 P5 2.422080 1_445
Ir23 P45 2.435727 1_555
Ir23 P1 2.452985 1_545
Ir23 Ir61 2.793697 1_455
Ir23 Ir61 2.793697 1_555
Ir23 Sm27 3.279934 1_545
Ir23 Sm3 3.280516 1_555
Ir23 Sm3 3.280516 1_455
Ir23 Sm21 3.335907 1_555
Ir24 P24 2.319618 1_555
Ir24 P4 2.338195 1_555
Ir24 P12 2.373416 1_555
Ir24 Sm26 3.027513 1_455
Ir24 Sm26 3.027513 1_555
Ir24 Sm4 3.111254 1_555
Ir24 Sm4 3.111254 1_455
Ir24 Sm20 3.139689 1_565
Ir24 Sm20 3.139689 1_465
Ir25 P25 2.319201 1_555
Ir25 P5 2.335433 1_555
Ir25 P13 2.378397 1_555
Ir25 Sm27 3.044730 1_555
Ir25 Sm27 3.044730 1_655
Ir25 Sm21 3.097816 1_565
Ir25 Sm21 3.097816 1_665
Ir25 Sm5 3.109315 1_655
Ir25 Sm5 3.109315 1_555
Ir26 P26 2.318323 1_555
Ir26 P6 2.334597 1_555
Ir26 P14 2.375409 1_555
Ir26 Sm28 3.045154 1_555
Ir26 Sm28 3.045154 1_655
Ir26 Sm22 3.100953 1_545
Ir26 Sm22 3.100953 1_645
Ir26 Sm6 3.107921 1_555
Ir26 Sm6 3.107921 1_655
Ir27 P27 2.318822 1_555
Ir27 P7 2.342815 1_555
Ir27 P15 2.368495 1_555
Ir27 Sm29 3.051075 1_455
Ir27 Sm29 3.051075 1_555
Ir27 Sm23 3.101001 1_445
Ir27 Sm23 3.101001 1_545
Ir27 Sm7 3.134061 1_455
Ir27 Sm7 3.134061 1_555
Ir28 P40 2.296979 1_555
Ir28 P12 2.378910 1_555
Ir28 P8 2.565513 1_555
Ir28 P8 2.565513 1_455
Ir28 Sm4 3.166728 1_555
Ir28 Sm4 3.166728 1_455
Ir28 Sm25 3.470618 1_455
Ir28 Sm25 3.470618 1_555
Ir28 Sm14 3.508773 1_555
Ir29 P41 2.289779 1_555
Ir29 P13 2.379197 1_555
Ir29 P9 2.562117 1_655
Ir29 P9 2.562117 1_555
Ir29 Sm5 3.177805 1_655
Ir29 Sm5 3.177805 1_555
Ir29 Sm24 3.464587 1_556
Ir29 Sm24 3.464587 1_656
Ir29 Sm15 3.545663 1_555
Ir30 P42 2.289759 1_555
Ir30 P14 2.377451 1_555
Ir30 P10 2.562574 1_655
Ir30 P10 2.562574 1_555
Ir30 Sm6 3.176287 1_555
Ir30 Sm6 3.176287 1_655
Ir30 Sm24 3.462796 1_655
Ir30 Sm24 3.462796 1_555
Ir30 Sm12 3.544717 1_555
Ir31 P43 2.349144 1_555
Ir31 P15 2.373573 1_555
Ir31 P11 2.573331 1_455
Ir31 P11 2.573331 1_555
Ir31 Sm7 3.157573 1_455
Ir31 Sm7 3.157573 1_555
Ir32 P20 2.329395 1_555
Ir32 P48 2.370183 1_655
Ir32 P48 2.370183 1_555
Ir32 P28 2.513734 1_555
Ir32 Sm26 3.164900 1_555
Ir32 Sm10 3.177914 1_555
Ir32 Sm10 3.177914 1_655
Ir33 P21 2.327020 1_555
Ir33 P49 2.370280 1_455
Ir33 P49 2.370280 1_555
Ir33 P29 2.529554 1_555
Ir33 Sm27 3.148576 1_555
Ir33 Sm11 3.177204 1_455
Ir33 Sm11 3.177204 1_555
Ir34 P22 2.328418 1_555
Ir34 P50 2.371643 1_555
Ir34 P50 2.371643 1_455
Ir34 P30 2.531377 1_555
Ir34 Ir8 2.868037 1_555
Ir34 Ir8 2.868037 1_455
Ir34 Sm28 3.149534 1_555
Ir34 Sm8 3.176903 1_455
Ir34 Sm8 3.176903 1_555
Ir35 P23 2.327892 1_555
Ir35 P51 2.368635 1_555
Ir35 P51 2.368635 1_655
Ir35 P31 2.528698 1_555
Ir35 Ir9 2.868575 1_655
Ir35 Ir9 2.868575 1_555
Ir35 Sm29 3.148333 1_555
Ir35 Sm9 3.179257 1_655
Ir35 Sm9 3.179257 1_555
Ir36 P2 2.302200 1_565
Ir36 P16 2.365847 1_555
Ir36 P16 2.365847 1_455
Ir36 P18 2.375203 1_565
Ir37 P3 2.302388 1_565
Ir37 P17 2.367026 1_555
Ir37 P17 2.367026 1_655
Ir37 P19 2.370658 1_565
Ir38 P0 2.306232 1_545
Ir38 P18 2.368113 1_555
Ir38 P18 2.368113 1_655
Ir38 P16 2.369669 1_545
Ir39 P1 2.301674 1_545
Ir39 P19 2.366846 1_555
Ir39 P19 2.366846 1_455
Ir39 P17 2.371378 1_545
Ir40 P22 2.393867 1_555
Ir40 P22 2.393867 1_655
Ir40 P32 2.445850 1_555
Ir40 P20 2.581514 1_555
Ir40 Ir42 2.821049 1_655
Ir40 Ir42 2.821049 1_555
Ir40 Ir54 2.826873 1_655
Ir40 Ir54 2.826873 1_555
Ir40 Sm8 3.122541 1_555
Ir40 Sm10 3.292387 1_555
Ir40 Sm10 3.292387 1_655
Ir40 Sm18 3.362290 1_555
Ir41 P23 2.391665 1_555
Ir41 P23 2.391665 1_455
Ir41 P33 2.420977 1_555
Ir41 P21 2.583197 1_555
Ir41 Ir43 2.820508 1_555
Ir41 Ir43 2.820508 1_455
Ir41 Ir55 2.827069 1_455
Ir41 Ir55 2.827069 1_555
Ir41 Sm9 3.119327 1_555
Ir41 Sm11 3.296957 1_555
Ir41 Sm11 3.296957 1_455
Ir41 Sm19 3.363582 1_555
Ir42 P20 2.391818 1_455
Ir42 P20 2.391818 1_555
Ir42 P34 2.422649 1_555
Ir42 P22 2.582153 1_555
Ir42 Ir52 2.829090 1_455
Ir42 Ir52 2.829090 1_555
Ir42 Sm10 3.126506 1_555
Ir42 Sm8 3.294174 1_555
Ir42 Sm8 3.294174 1_455
Ir42 Sm16 3.363158 1_555
Ir43 P21 2.392199 1_655
Ir43 P21 2.392199 1_555
Ir43 P35 2.420828 1_555
Ir43 P23 2.581612 1_555
Ir43 Ir53 2.827999 1_555
Ir43 Ir53 2.827999 1_655
Ir43 Sm11 3.118116 1_555
Ir43 Sm9 3.295509 1_655
Ir43 Sm9 3.295509 1_555
Ir43 Sm17 3.364943 1_555
Ir44 P36 2.400416 1_555
Ir44 P25 2.453663 1_554
Ir44 P26 2.467135 1_565
Ir44 P41 2.549327 1_554
Ir44 Ir50 2.804976 1_555
Ir44 Ir50 2.804976 1_655
Ir44 Ir56 2.823593 1_555
Ir44 Ir56 2.823593 1_655
Ir44 Sm22 3.155046 1_655
Ir44 Sm22 3.155046 1_555
Ir44 Sm5 3.234440 1_654
Ir44 Sm5 3.234440 1_554
Ir45 P37 2.404263 1_555
Ir45 P27 2.455896 1_565
Ir45 P24 2.462984 1_555
Ir45 P40 2.558288 1_555
Ir45 Ir51 2.804562 1_555
Ir45 Ir51 2.804562 1_455
Ir45 Ir57 2.820361 1_465
Ir45 Ir57 2.820361 1_565
Ir45 Sm23 3.156220 1_555
Ir45 Sm23 3.156220 1_455
Ir45 Sm4 3.238805 1_455
Ir45 Sm4 3.238805 1_555
Ir46 P27 2.447380 1_555
Ir46 P24 2.469637 1_545
Ir46 P43 2.486825 1_555
Ir46 P38 2.519479 1_555
Ir46 Ir48 2.801359 1_455
Ir46 Ir48 2.801359 1_555
Ir46 Ir57 2.828148 1_455
Ir46 Ir57 2.828148 1_555
Ir46 Sm20 3.150357 1_455
Ir46 Sm20 3.150357 1_555
Ir46 Sm7 3.197317 1_455
Ir46 Sm7 3.197317 1_555
Ir47 P39 2.401327 1_555
Ir47 P26 2.454143 1_556
Ir47 P25 2.465177 1_545
Ir47 P42 2.550040 1_556
Ir47 Ir49 2.804858 1_555
Ir47 Ir49 2.804858 1_655
Ir47 Ir56 2.823758 1_546
Ir47 Ir56 2.823758 1_646
Ir47 Sm21 3.153842 1_655
Ir47 Sm21 3.153842 1_555
Ir47 Sm6 3.236329 1_556
Ir47 Sm6 3.236329 1_656
Ir48 P43 2.464231 1_655
Ir48 P43 2.464231 1_555
Ir48 P38 2.535234 1_555
Ir48 P38 2.535234 1_655
Ir48 Sm25 3.116169 1_555
Ir48 Sm20 3.124719 1_555
Ir48 Sm7 3.128518 1_555
Ir49 P42 2.377474 1_456
Ir49 P42 2.377474 1_556
Ir49 P39 2.661118 1_555
Ir49 P39 2.661118 1_455
Ir49 Ir62 2.796702 1_555
Ir49 Sm6 2.987074 1_556
Ir49 Sm24 3.006634 1_556
Ir49 Sm21 3.336514 1_555
Ir50 P41 2.377740 1_454
Ir50 P41 2.377740 1_554
Ir50 P36 2.660814 1_455
Ir50 P36 2.660814 1_555
Ir50 Ir63 2.796368 1_555
Ir50 Sm5 2.986943 1_554
Ir50 Sm24 3.005487 1_555
Ir50 Sm22 3.335504 1_555
Ir51 P40 2.378349 1_655
Ir51 P40 2.378349 1_555
Ir51 P37 2.656405 1_655
Ir51 P37 2.656405 1_555
Ir51 Ir64 2.792110 1_555
Ir51 Sm4 2.985430 1_555
Ir51 Sm25 3.025987 1_555
Ir51 Sm23 3.330843 1_555
Ir52 P16 2.332784 1_555
Ir52 P34 2.340606 1_655
Ir52 P34 2.340606 1_555
Ir52 P20 2.450724 1_555
Ir52 Sm16 3.067302 1_555
Ir52 Sm16 3.067302 1_655
Ir52 Sm8 3.139478 1_555
Ir52 Sm0 3.305912 1_555
Ir53 P17 2.331630 1_555
Ir53 P35 2.340288 1_455
Ir53 P35 2.340288 1_555
Ir53 P21 2.450714 1_555
Ir53 Sm17 3.066277 1_455
Ir53 Sm17 3.066277 1_555
Ir53 Sm9 3.139506 1_555
Ir53 Sm1 3.308467 1_555
Ir54 P18 2.336005 1_555
Ir54 P32 2.349260 1_455
Ir54 P32 2.349260 1_555
Ir54 P22 2.458109 1_555
Ir54 Sm18 3.077921 1_455
Ir54 Sm18 3.077921 1_555
Ir54 Sm10 3.121045 1_555
Ir54 Sm2 3.301990 1_555
Ir55 P19 2.332127 1_555
Ir55 P33 2.340571 1_555
Ir55 P33 2.340571 1_655
Ir55 P23 2.451617 1_555
Ir55 Sm19 3.067668 1_555
Ir55 Sm19 3.067668 1_655
Ir55 Sm11 3.140445 1_555
Ir55 Sm3 3.305567 1_555
Ir56 P25 2.449477 1_454
Ir56 P25 2.449477 1_554
Ir56 P26 2.450310 1_565
Ir56 P26 2.450310 1_465
Ir56 Sm21 3.187052 1_564
Ir56 Sm22 3.189241 1_555
Ir56 Sm5 3.247748 1_554
Ir56 Sm6 3.249831 1_565
Ir57 P27 2.434289 1_655
Ir57 P27 2.434289 1_555
Ir57 P24 2.462219 1_545
Ir57 P24 2.462219 1_645
Ir57 Sm23 3.175832 1_545
Ir57 Sm20 3.213704 1_555
Ir57 Sm7 3.227554 1_555
Ir57 Sm4 3.272170 1_545
Ir58 P36 2.389048 1_555
Ir58 P46 2.415901 1_555
Ir58 P46 2.415901 1_655
Ir58 P6 2.423212 1_565
Ir58 Ir63 2.792590 1_655
Ir58 Ir63 2.792590 1_555
Ir58 Sm12 3.279037 1_555
Ir58 Sm22 3.309503 1_655
Ir58 Sm22 3.309503 1_555
Ir58 Sm0 3.316593 1_555
Ir59 P37 2.393235 1_555
Ir59 P47 2.415527 1_555
Ir59 P47 2.415527 1_455
Ir59 P7 2.423408 1_565
Ir59 Ir64 2.793709 1_455
Ir59 Ir64 2.793709 1_555
Ir59 Sm13 3.277949 1_555
Ir59 Sm23 3.310312 1_455
Ir59 Sm23 3.310312 1_555
Ir59 Sm1 3.317028 1_555
Ir60 P38 2.340942 1_555
Ir60 P44 2.358003 1_455
Ir60 P44 2.358003 1_555
Ir60 P4 2.419122 1_545
Ir60 Sm14 3.152122 1_555
Ir60 Sm2 3.293204 1_555
Ir60 Sm20 3.303896 1_455
Ir60 Sm20 3.303896 1_555
Ir61 P39 2.385880 1_555
Ir61 P45 2.417662 1_555
Ir61 P45 2.417662 1_655
Ir61 P5 2.421550 1_545
Ir61 Ir62 2.791690 1_555
Ir61 Ir62 2.791690 1_655
Ir61 Sm15 3.280306 1_555
Ir61 Sm21 3.309882 1_655
Ir61 Sm21 3.309882 1_555
Ir61 Sm3 3.321073 1_555
Ir62 P45 2.319116 1_555
Ir62 P9 2.512314 1_555
Ir62 P39 2.538173 1_555
Ir62 P39 2.538173 1_455
Ir62 Sm15 3.048676 1_455
Ir62 Sm15 3.048676 1_555
Ir62 Sm21 3.284378 1_555
Ir63 P46 2.317961 1_555
Ir63 P10 2.512338 1_555
Ir63 P36 2.539040 1_455
Ir63 P36 2.539040 1_555
Ir63 Sm12 3.047282 1_455
Ir63 Sm12 3.047282 1_555
Ir63 Sm22 3.281466 1_555
Ir64 P47 2.322381 1_555
Ir64 P11 2.511453 1_555
Ir64 P37 2.536393 1_555
Ir64 P37 2.536393 1_655
Ir64 Sm13 3.049356 1_555
Ir64 Sm13 3.049356 1_655
Ir64 Sm23 3.279091 1_555
