# generated using pymatgen
data_CeMg12
_symmetry_space_group_name_H-M   'P 1'
_cell_length_a   7.83036015
_cell_length_b   7.83036015
_cell_length_c   7.82280580
_cell_angle_alpha   98.12633650
_cell_angle_beta   98.12633650
_cell_angle_gamma   135.77750243
_symmetry_Int_Tables_number   1
_chemical_formula_structural   CeMg12
_chemical_formula_sum   'Ce1 Mg12'
_cell_volume   310.04555840
_cell_formula_units_Z   1
loop_
 _symmetry_equiv_pos_site_id
 _symmetry_equiv_pos_as_xyz
  1  'x, y, z'
loop_
 _atom_site_type_symbol
 _atom_site_label
 _atom_site_symmetry_multiplicity
 _atom_site_fract_x
 _atom_site_fract_y
 _atom_site_fract_z
 _atom_site_occupancy
  Ce  Ce0  1  0.00000000  -0.00000000  0.00000000  1
  Mg  Mg0  1  0.49970756  0.28728920  0.78751773  1
  Mg  Mg1  1  0.50029244  0.71271080  0.21248227  1
  Mg  Mg2  1  0.71271080  0.50029244  0.21248227  1
  Mg  Mg3  1  0.28728920  0.49970756  0.78751773  1
  Mg  Mg4  1  0.99975050  0.35226077  0.35214044  1
  Mg  Mg5  1  0.00024950  0.64773923  0.64785956  1
  Mg  Mg6  1  0.64773923  0.00024950  0.64785956  1
  Mg  Mg7  1  0.35226077  0.99975050  0.35214044  1
  Mg  Mg8  1  0.00000000  -0.00000000  0.50000000  1
  Mg  Mg9  1  0.50000000  0.50000000  0.50000000  1
  Mg  Mg10  1  0.50000000  -0.00000000  0.00000000  1
  Mg  Mg11  1  0.00000000  0.50000000  0.00000000  1
loop_
_geom_bond_atom_site_label_1
_geom_bond_atom_site_label_2
_geom_bond_distance
_geom_bond_site_symmetry_2
Ce0 Mg7 3.613581 1_545
Ce0 Mg6 3.613581 1_454
Ce0 Mg4 3.613581 1_455
Ce0 Mg5 3.613581 1_544
Ce0 Mg0 3.662510 1_554
Ce0 Mg3 3.662510 1_554
Ce0 Mg2 3.662510 1_445
Ce0 Mg1 3.662510 1_445
Ce0 Mg3 3.668261 1_444
Ce0 Mg1 3.668261 1_555
Ce0 Mg2 3.668261 1_555
Ce0 Mg0 3.668261 1_444
Ce0 Mg8 3.911403 1_554
Ce0 Mg8 3.911403 1_555
Ce0 Mg9 3.915020 1_555
Ce0 Mg9 3.915020 1_444
Ce0 Mg10 3.915180 1_555
Ce0 Mg11 3.915180 1_545
Ce0 Mg11 3.915180 1_555
Ce0 Mg10 3.915180 1_455
Mg0 Mg10 2.981105 1_556
Mg0 Mg9 2.981312 1_555
Mg0 Mg8 2.982524 1_555
Mg0 Mg11 2.984638 1_656
Mg0 Mg2 3.081094 1_556
Mg0 Mg3 3.081967 1_555
Mg0 Mg5 3.277479 1_545
Mg0 Mg5 3.278513 1_655
Mg0 Mg6 3.314657 1_555
Mg0 Mg7 3.316152 1_545
Mg1 Mg10 2.981105 1_565
Mg1 Mg9 2.981312 1_555
Mg1 Mg8 2.982524 1_665
Mg1 Mg11 2.984638 1_555
Mg1 Mg3 3.081094 1_554
Mg1 Mg2 3.081967 1_555
Mg1 Mg4 3.277479 1_565
Mg1 Mg4 3.278513 1_455
Mg1 Mg7 3.314657 1_555
Mg1 Mg6 3.316152 1_565
Mg2 Mg9 2.981312 1_555
Mg2 Mg8 2.982524 1_665
Mg2 Mg7 3.277479 1_655
Mg2 Mg7 3.278513 1_545
Mg2 Mg4 3.314657 1_555
Mg2 Mg5 3.316152 1_655
Mg3 Mg9 2.981312 1_555
Mg3 Mg8 2.982524 1_555
Mg3 Mg6 3.277479 1_455
Mg3 Mg6 3.278513 1_565
Mg3 Mg5 3.314657 1_555
Mg3 Mg4 3.316152 1_455
Mg4 Mg5 3.029213 1_655
Mg4 Mg8 3.139325 1_655
Mg4 Mg9 3.141015 1_655
Mg5 Mg8 3.139325 1_565
Mg5 Mg9 3.141015 1_455
Mg6 Mg7 3.029213 1_545
Mg6 Mg8 3.139325 1_655
Mg6 Mg9 3.141015 1_545
Mg7 Mg8 3.139325 1_565
Mg7 Mg9 3.141015 1_565
Mg8 Mg9 2.947396 1_445
Mg8 Mg9 2.947396 1_555
Mg10 Mg11 2.947396 1_545
Mg10 Mg11 2.947396 1_655
Mg10 Mg3 2.984638 1_544
Mg10 Mg2 2.984638 1_555
Mg10 Mg6 3.134655 1_554
Mg10 Mg7 3.134655 1_545
Mg10 Mg4 3.137475 1_555
Mg10 Mg5 3.137475 1_544
Mg11 Mg2 2.981105 1_455
Mg11 Mg3 2.981105 1_554
Mg11 Mg5 3.134655 1_554
Mg11 Mg4 3.134655 1_455
Mg11 Mg7 3.137475 1_555
Mg11 Mg6 3.137475 1_454
