# generated using pymatgen
data_K3Na8FeH12S6(NO18)2
_symmetry_space_group_name_H-M   'P 1'
_cell_length_a   10.54074964
_cell_length_b   10.54074964
_cell_length_c   10.54074973
_cell_angle_alpha   63.31079049
_cell_angle_beta   63.31079049
_cell_angle_gamma   63.31079424
_symmetry_Int_Tables_number   1
_chemical_formula_structural   K3Na8FeH12S6(NO18)2
_chemical_formula_sum   'K3 Na8 Fe1 H12 S6 N2 O36'
_cell_volume   888.85285465
_cell_formula_units_Z   1
loop_
 _symmetry_equiv_pos_site_id
 _symmetry_equiv_pos_as_xyz
  1  'x, y, z'
loop_
 _atom_site_type_symbol
 _atom_site_label
 _atom_site_symmetry_multiplicity
 _atom_site_fract_x
 _atom_site_fract_y
 _atom_site_fract_z
 _atom_site_occupancy
  K  K0  1  0.00000000  0.50000000  0.50000000  1
  K  K1  1  0.50000000  0.00000000  0.50000000  1
  K  K2  1  0.50000000  0.50000000  0.00000000  1
  Na  Na0  1  0.87283300  0.87283300  0.87283300  1
  Na  Na1  1  0.12716700  0.12716700  0.12716700  1
  Na  Na2  1  0.72681100  0.73675900  0.26569100  1
  Na  Na3  1  0.26569100  0.72681100  0.73675900  1
  Na  Na4  1  0.73675900  0.26569100  0.72681100  1
  Na  Na5  1  0.27318900  0.26324100  0.73430900  1
  Na  Na6  1  0.73430900  0.27318900  0.26324100  1
  Na  Na7  1  0.26324100  0.73430900  0.27318900  1
  Fe  Fe0  1  0.00000000  0.00000000  0.00000000  1
  H  H0  1  0.61149800  0.76990300  0.03704800  1
  H  H1  1  0.03704800  0.61149800  0.76990300  1
  H  H2  1  0.76990300  0.03704800  0.61149800  1
  H  H3  1  0.38850200  0.23009700  0.96295200  1
  H  H4  1  0.96295200  0.38850200  0.23009700  1
  H  H5  1  0.23009700  0.96295200  0.38850200  1
  H  H6  1  0.75172000  0.63007000  0.03609600  1
  H  H7  1  0.03609600  0.75172000  0.63007000  1
  H  H8  1  0.63007000  0.03609600  0.75172000  1
  H  H9  1  0.24828000  0.36993000  0.96390400  1
  H  H10  1  0.96390400  0.24828000  0.36993000  1
  H  H11  1  0.36993000  0.96390400  0.24828000  1
  S  S0  1  0.90005000  0.89055400  0.37703400  1
  S  S1  1  0.37703400  0.90005000  0.89055400  1
  S  S2  1  0.89055400  0.37703400  0.90005000  1
  S  S3  1  0.09995000  0.10944600  0.62296600  1
  S  S4  1  0.62296600  0.09995000  0.10944600  1
  S  S5  1  0.10944600  0.62296600  0.09995000  1
  N  N0  1  0.57292800  0.57292800  0.57292800  1
  N  N1  1  0.42707200  0.42707200  0.42707200  1
  O  O0  1  0.99125600  0.94842500  0.21356100  1
  O  O1  1  0.21356100  0.99125600  0.94842500  1
  O  O2  1  0.94842500  0.21356100  0.99125600  1
  O  O3  1  0.00874400  0.05157500  0.78643900  1
  O  O4  1  0.78643900  0.00874400  0.05157500  1
  O  O5  1  0.05157500  0.78643900  0.00874400  1
  O  O6  1  0.80843000  0.81247400  0.38666400  1
  O  O7  1  0.38666400  0.80843000  0.81247400  1
  O  O8  1  0.81247400  0.38666400  0.80843000  1
  O  O9  1  0.19157100  0.18752600  0.61333600  1
  O  O10  1  0.61333600  0.19157100  0.18752600  1
  O  O11  1  0.18752600  0.61333600  0.19157100  1
  O  O12  1  0.01171500  0.78626100  0.45716100  1
  O  O13  1  0.45716100  0.01171500  0.78626100  1
  O  O14  1  0.78626100  0.45716100  0.01171500  1
  O  O15  1  0.98828500  0.21373900  0.54283900  1
  O  O16  1  0.54283900  0.98828500  0.21373900  1
  O  O17  1  0.21373900  0.54283900  0.98828500  1
  O  O18  1  0.80467400  0.02128800  0.43247400  1
  O  O19  1  0.43247400  0.80467400  0.02128800  1
  O  O20  1  0.02128800  0.43247400  0.80467400  1
  O  O21  1  0.19532600  0.97871200  0.56752600  1
  O  O22  1  0.56752600  0.19532600  0.97871200  1
  O  O23  1  0.97871200  0.56752600  0.19532600  1
  O  O24  1  0.72990500  0.04834900  0.71181800  1
  O  O25  1  0.71181800  0.72990500  0.04834900  1
  O  O26  1  0.04834900  0.71181800  0.72990500  1
  O  O27  1  0.27009500  0.95165100  0.28818200  1
  O  O28  1  0.28818200  0.27009500  0.95165100  1
  O  O29  1  0.95165100  0.28818200  0.27009500  1
  O  O30  1  0.70525900  0.50865500  0.50440700  1
  O  O31  1  0.50440700  0.70525900  0.50865500  1
  O  O32  1  0.50865500  0.50440700  0.70525900  1
  O  O33  1  0.29474100  0.49134500  0.49559300  1
  O  O34  1  0.49559300  0.29474100  0.49134500  1
  O  O35  1  0.49134500  0.49559300  0.29474100  1
loop_
_geom_bond_atom_site_label_1
_geom_bond_atom_site_label_2
_geom_bond_distance
_geom_bond_site_symmetry_2
K0 O12 2.895609 1_555
K0 O15 2.895609 1_455
K0 O11 2.960318 1_555
K0 O8 2.960325 1_455
K0 O6 3.001838 1_455
K0 O9 3.001842 1_555
K0 O33 3.046668 1_555
K0 O30 3.046668 1_455
K0 O20 3.053054 1_555
K0 O23 3.053054 1_455
K1 O13 2.895609 1_555
K1 O16 2.895609 1_545
K1 O9 2.960319 1_555
K1 O6 2.960325 1_545
K1 O7 3.001838 1_545
K1 O10 3.001842 1_555
K1 O34 3.046668 1_555
K1 O31 3.046668 1_545
K1 O18 3.053054 1_555
K1 O21 3.053054 1_545
K2 O14 2.895609 1_555
K2 O17 2.895609 1_554
K2 O10 2.960319 1_555
K2 O7 2.960325 1_554
K2 O8 3.001838 1_554
K2 O11 3.001842 1_555
K2 O35 3.046668 1_555
K2 O32 3.046668 1_554
K2 O19 3.053054 1_555
K2 O22 3.053054 1_554
Na0 O25 2.354900 1_556
Na0 O24 2.354900 1_565
Na0 O26 2.354900 1_655
Na0 O3 2.478473 1_665
Na0 O4 2.478474 1_566
Na0 O5 2.478474 1_656
Na1 O28 2.354900 1_554
Na1 O27 2.354900 1_545
Na1 O29 2.354900 1_455
Na1 O0 2.478473 1_445
Na1 O1 2.478474 1_544
Na1 O2 2.478474 1_454
Na2 O6 2.349375 1_555
Na2 O25 2.400585 1_555
Na2 O23 2.438658 1_555
Na2 O16 2.474038 1_555
Na2 O30 2.589711 1_555
Na2 O31 2.589782 1_555
Na2 O4 2.870548 1_565
Na3 O7 2.349375 1_555
Na3 O26 2.400585 1_555
Na3 O21 2.438657 1_555
Na3 O17 2.474038 1_555
Na3 O31 2.589711 1_555
Na3 O32 2.589782 1_555
Na3 O5 2.870548 1_556
Na4 O8 2.349375 1_555
Na4 O24 2.400585 1_555
Na4 O22 2.438657 1_555
Na4 O15 2.474038 1_555
Na4 O32 2.589711 1_555
Na4 O30 2.589782 1_555
Na4 O3 2.870548 1_655
Na5 O9 2.349367 1_555
Na5 O28 2.400585 1_555
Na5 O20 2.438658 1_555
Na5 O13 2.474038 1_555
Na5 O33 2.589711 1_555
Na5 O34 2.589782 1_555
Na5 O1 2.870548 1_545
Na6 O10 2.349367 1_555
Na6 O29 2.400585 1_555
Na6 O18 2.438657 1_555
Na6 O14 2.474038 1_555
Na6 O34 2.589711 1_555
Na6 O35 2.589782 1_555
Na6 O2 2.870548 1_554
Na7 O11 2.349367 1_555
Na7 O27 2.400585 1_555
Na7 O19 2.438657 1_555
Na7 O12 2.474038 1_555
Na7 O35 2.589711 1_555
Na7 O33 2.589782 1_555
Na7 O0 2.870548 1_455
Fe0 O1 2.032428 1_544
Fe0 O4 2.032428 1_455
Fe0 O0 2.032428 1_445
Fe0 O3 2.032428 1_554
Fe0 O2 2.032428 1_454
Fe0 O5 2.032428 1_545
H0 O25 0.988782 1_555
H1 O26 0.988782 1_555
H2 O24 0.988782 1_555
H3 O28 0.988782 1_555
H4 O29 0.988782 1_555
H5 O27 0.988782 1_555
H6 O25 0.988277 1_555
H7 O26 0.988277 1_555
H8 O24 0.988277 1_555
H9 O28 0.988277 1_555
H10 O29 0.988277 1_555
H11 O27 0.988277 1_555
N0 O32 1.269632 1_555
N0 O30 1.269632 1_555
N0 O31 1.269632 1_555
N1 O35 1.269632 1_555
N1 O33 1.269632 1_555
N1 O34 1.269632 1_555
O0 S0 1.536230 1_555
O1 S1 1.536230 1_555
O2 S2 1.536230 1_555
O3 S3 1.536230 1_555
O4 S4 1.536230 1_555
O5 S5 1.536230 1_555
O6 S0 1.473505 1_555
O7 S1 1.473505 1_555
O8 S2 1.473505 1_555
O9 S3 1.473514 1_555
O10 S4 1.473514 1_555
O11 S5 1.473514 1_555
O12 S0 1.484546 1_455
O13 S1 1.484546 1_545
O14 S2 1.484546 1_554
O15 S3 1.484546 1_655
O16 S4 1.484546 1_565
O17 S5 1.484546 1_556
O18 S0 1.484025 1_545
O19 S1 1.484025 1_554
O20 S2 1.484025 1_455
O21 S3 1.484025 1_565
O22 S4 1.484025 1_556
O23 S5 1.484025 1_655
