# generated using pymatgen
data_MgSi2
_symmetry_space_group_name_H-M   'P 1'
_cell_length_a   5.57060775
_cell_length_b   3.74842119
_cell_length_c   11.54721314
_cell_angle_alpha   99.77194171
_cell_angle_beta   82.27872326
_cell_angle_gamma   108.93225012
_symmetry_Int_Tables_number   1
_chemical_formula_structural   MgSi2
_chemical_formula_sum   'Mg4 Si8'
_cell_volume   223.94985997
_cell_formula_units_Z   4
loop_
 _symmetry_equiv_pos_site_id
 _symmetry_equiv_pos_as_xyz
  1  'x, y, z'
loop_
 _atom_site_type_symbol
 _atom_site_label
 _atom_site_symmetry_multiplicity
 _atom_site_fract_x
 _atom_site_fract_y
 _atom_site_fract_z
 _atom_site_occupancy
  Mg  Mg0  1  0.33486100  0.43649600  0.87147100  1
  Mg  Mg1  1  0.57755800  0.68665300  0.13062600  1
  Mg  Mg2  1  0.82972200  0.40837800  0.31998800  1
  Mg  Mg3  1  0.25681700  0.77835900  0.63161000  1
  Si  Si0  1  0.18047800  0.01664300  0.18999300  1
  Si  Si1  1  0.93125600  0.71103900  0.82846300  1
  Si  Si2  1  0.78913600  0.99388300  0.53706000  1
  Si  Si3  1  0.46725800  0.76466400  0.39573100  1
  Si  Si4  1  0.73587500  0.17158300  0.93518800  1
  Si  Si5  1  0.03345700  0.39204200  0.08753500  1
  Si  Si6  1  0.18514200  0.13499200  0.41065500  1
  Si  Si7  1  0.67836900  0.50524000  0.66182900  1
loop_
_geom_bond_atom_site_label_1
_geom_bond_atom_site_label_2
_geom_bond_distance
_geom_bond_site_symmetry_2
Mg0 Si5 2.811669 1_556
Mg0 Si7 2.869721 1_555
Mg0 Si1 2.887138 1_455
Mg0 Si1 2.927556 1_445
Mg0 Si4 2.940536 1_555
Mg0 Si4 2.980473 1_565
Mg0 Si1 3.139238 1_555
Mg1 Si0 2.823642 1_565
Mg1 Si0 2.870963 1_555
Mg1 Si4 2.947782 1_554
Mg1 Si5 2.949689 1_555
Mg1 Si4 2.998721 1_564
Mg1 Si3 3.023481 1_555
Mg1 Si5 3.034909 1_655
Mg1 Si5 3.072170 1_665
Mg1 Mg2 3.223795 1_555
Mg1 Mg2 3.228717 1_565
Mg2 Si3 2.739392 1_555
Mg2 Si5 2.769003 1_655
Mg2 Si3 2.782883 1_545
Mg2 Si6 2.881674 1_655
Mg2 Si6 2.919626 1_665
Mg2 Si0 2.924493 1_655
Mg2 Si0 2.958449 1_665
Mg2 Si2 3.074594 1_555
Mg2 Si2 3.112845 1_545
Mg3 Si1 2.703652 1_455
Mg3 Si3 2.815896 1_555
Mg3 Si2 2.917678 1_555
Mg3 Si7 2.930163 1_555
Mg3 Si7 2.967426 1_565
Mg3 Si7 3.038355 1_455
Mg3 Si6 3.169424 1_555
Mg3 Si6 3.199075 1_565
Si0 Si5 2.371475 1_555
Si0 Si5 2.372311 1_545
Si0 Si6 2.513273 1_555
Si1 Si7 2.408596 1_555
Si1 Si4 2.412494 1_565
Si1 Si4 2.418603 1_555
Si2 Si7 2.392002 1_565
Si2 Si7 2.394761 1_555
Si2 Si6 2.432363 1_665
Si2 Si3 2.434580 1_555
Si3 Si6 2.384967 1_565
Si3 Si6 2.393475 1_555
Si4 Si5 2.434511 1_656
