# generated using pymatgen
data_Lu(Ni2As)2
_symmetry_space_group_name_H-M   'P 1'
_cell_length_a   3.71521845
_cell_length_b   7.14087250
_cell_length_c   7.14087250
_cell_angle_alpha   90.00000000
_cell_angle_beta   90.00000000
_cell_angle_gamma   90.00000000
_symmetry_Int_Tables_number   1
_chemical_formula_structural   Lu(Ni2As)2
_chemical_formula_sum   'Lu2 Ni8 As4'
_cell_volume   189.44664234
_cell_formula_units_Z   2
loop_
 _symmetry_equiv_pos_site_id
 _symmetry_equiv_pos_as_xyz
  1  'x, y, z'
loop_
 _atom_site_type_symbol
 _atom_site_label
 _atom_site_symmetry_multiplicity
 _atom_site_fract_x
 _atom_site_fract_y
 _atom_site_fract_z
 _atom_site_occupancy
  Lu  Lu0  1  0.00000000  0.50000000  0.50000000  1
  Lu  Lu1  1  0.50000000  0.00000000  -0.00000000  1
  Ni  Ni0  1  0.50000000  0.15461710  0.58814460  1
  Ni  Ni1  1  0.50000000  0.84538290  0.41185540  1
  Ni  Ni2  1  -0.00000000  0.34538290  0.08814460  1
  Ni  Ni3  1  -0.00000000  0.65461710  0.91185540  1
  Ni  Ni4  1  0.50000000  0.58814460  0.15461710  1
  Ni  Ni5  1  0.50000000  0.41185540  0.84538290  1
  Ni  Ni6  1  0.00000000  0.08814460  0.34538290  1
  Ni  Ni7  1  -0.00000000  0.91185540  0.65461710  1
  As  As0  1  0.50000000  0.71779780  0.71779780  1
  As  As1  1  0.50000000  0.28220220  0.28220220  1
  As  As2  1  0.00000000  0.78220220  0.21779780  1
  As  As3  1  0.00000000  0.21779780  0.78220220  1
loop_
_geom_bond_atom_site_label_1
_geom_bond_atom_site_label_2
_geom_bond_distance
_geom_bond_site_symmetry_2
As0 Ni3 2.361046 1_555
As0 Ni7 2.361046 1_555
As0 Ni3 2.361046 1_655
As0 Ni7 2.361046 1_655
As0 Ni1 2.367053 1_555
As0 Ni5 2.367053 1_555
As0 Lu1 2.849881 1_566
As0 Lu0 2.878961 1_555
As0 Lu0 2.878961 1_655
As1 Ni2 2.361046 1_655
As1 Ni6 2.361046 1_555
As1 Ni6 2.361046 1_655
As1 Ni2 2.361046 1_555
As1 Ni0 2.367053 1_555
As1 Ni4 2.367053 1_555
As1 Lu1 2.849881 1_555
As1 Lu0 2.878961 1_555
As1 Lu0 2.878961 1_655
As2 Ni4 2.361046 1_555
As2 Ni4 2.361046 1_455
As2 Ni1 2.361046 1_555
As2 Ni1 2.361046 1_455
As2 Ni3 2.367053 1_554
As2 Ni6 2.367053 1_565
As2 Lu0 2.849881 1_555
As2 Lu1 2.878961 1_565
As2 Lu1 2.878961 1_465
As3 Ni0 2.361046 1_455
As3 Ni0 2.361046 1_555
As3 Ni5 2.361046 1_455
As3 Ni5 2.361046 1_555
As3 Ni7 2.367053 1_545
As3 Ni2 2.367053 1_556
As3 Lu0 2.849881 1_555
As3 Lu1 2.878961 1_556
As3 Lu1 2.878961 1_456
