# generated using pymatgen
data_CsSr3
_symmetry_space_group_name_H-M   'P 1'
_cell_length_a   6.34036600
_cell_length_b   6.34036600
_cell_length_c   6.34036600
_cell_angle_alpha   90.00000000
_cell_angle_beta   90.00000000
_cell_angle_gamma   90.00000000
_symmetry_Int_Tables_number   1
_chemical_formula_structural   CsSr3
_chemical_formula_sum   'Cs1 Sr3'
_cell_volume   254.88424132
_cell_formula_units_Z   1
loop_
 _symmetry_equiv_pos_site_id
 _symmetry_equiv_pos_as_xyz
  1  'x, y, z'
loop_
 _atom_site_type_symbol
 _atom_site_label
 _atom_site_symmetry_multiplicity
 _atom_site_fract_x
 _atom_site_fract_y
 _atom_site_fract_z
 _atom_site_occupancy
  Cs  Cs0  1  0.00000000  0.00000000  0.00000000  1
  Sr  Sr0  1  0.00000000  0.50000000  0.50000000  1
  Sr  Sr1  1  0.50000000  0.00000000  0.50000000  1
  Sr  Sr2  1  0.50000000  0.50000000  0.00000000  1
loop_
_geom_bond_atom_site_label_1
_geom_bond_atom_site_label_2
_geom_bond_distance
_geom_bond_site_symmetry_2
Cs0 Sr2 4.483316 1_455
Cs0 Sr2 4.483316 1_555
Cs0 Sr0 4.483316 1_545
Cs0 Sr0 4.483316 1_554
Cs0 Sr2 4.483316 1_545
Cs0 Sr1 4.483316 1_455
Cs0 Sr1 4.483316 1_454
Cs0 Sr2 4.483316 1_445
Cs0 Sr0 4.483316 1_555
Cs0 Sr0 4.483316 1_544
Cs0 Sr1 4.483316 1_555
Cs0 Sr1 4.483316 1_554
Sr0 Sr1 4.483316 1_565
Sr0 Sr2 4.483316 1_455
Sr0 Sr2 4.483316 1_555
Sr0 Sr2 4.483316 1_456
Sr0 Sr2 4.483316 1_556
Sr0 Sr1 4.483316 1_465
Sr0 Sr1 4.483316 1_455
Sr0 Sr1 4.483316 1_555
Sr1 Sr2 4.483316 1_555
Sr1 Sr2 4.483316 1_556
Sr1 Sr2 4.483316 1_545
Sr1 Sr2 4.483316 1_546
