# generated using pymatgen
data_Li4Mn3CoO8
_symmetry_space_group_name_H-M   'P 1'
_cell_length_a   3.09302700
_cell_length_b   6.48706843
_cell_length_c   7.90264883
_cell_angle_alpha   89.29250901
_cell_angle_beta   95.51634256
_cell_angle_gamma   103.19976666
_symmetry_Int_Tables_number   1
_chemical_formula_structural   Li4Mn3CoO8
_chemical_formula_sum   'Li4 Mn3 Co1 O8'
_cell_volume   153.65232995
_cell_formula_units_Z   1
loop_
 _symmetry_equiv_pos_site_id
 _symmetry_equiv_pos_as_xyz
  1  'x, y, z'
loop_
 _atom_site_type_symbol
 _atom_site_label
 _atom_site_symmetry_multiplicity
 _atom_site_fract_x
 _atom_site_fract_y
 _atom_site_fract_z
 _atom_site_occupancy
  Li  Li0  1  0.26188900  0.12633700  0.37878800  1
  Li  Li1  1  0.25948600  0.62966500  0.87654500  1
  Li  Li2  1  0.73811100  0.87366300  0.62121200  1
  Li  Li3  1  0.74051400  0.37033500  0.12345500  1
  Mn  Mn0  1  0.00000000  0.50000000  0.50000000  1
  Mn  Mn1  1  0.48188500  0.75046300  0.24697000  1
  Mn  Mn2  1  0.51811500  0.24953700  0.75303000  1
  Co  Co0  1  0.00000000  0.00000000  0.00000000  1
  O  O0  1  0.57974100  0.04528800  0.17745200  1
  O  O1  1  0.65160800  0.54722300  0.68500700  1
  O  O2  1  0.13999400  0.79836600  0.43399500  1
  O  O3  1  0.15656000  0.29618900  0.93670100  1
  O  O4  1  0.86000600  0.20163400  0.56600500  1
  O  O5  1  0.84344000  0.70381100  0.06329900  1
  O  O6  1  0.42025900  0.95471200  0.82254800  1
  O  O7  1  0.34839200  0.45277700  0.31499300  1
loop_
_geom_bond_atom_site_label_1
_geom_bond_atom_site_label_2
_geom_bond_distance
_geom_bond_site_symmetry_2
Li0 O0 2.081344 1_555
Li0 O2 2.121653 1_545
Li0 O7 2.133297 1_555
Li0 O4 2.149743 1_455
Li0 O4 2.220122 1_555
Li0 O0 2.475540 1_455
Li1 O6 2.101257 1_555
Li1 O3 2.167098 1_555
Li1 O1 2.171945 1_555
Li1 O5 2.175038 1_456
Li1 O5 2.186337 1_556
Li1 O1 2.264039 1_455
Li2 O6 2.081344 1_555
Li2 O4 2.121653 1_565
Li2 O1 2.133297 1_555
Li2 O2 2.149743 1_655
Li2 O2 2.220122 1_555
Li2 O6 2.475540 1_655
Li3 O0 2.101257 1_555
Li3 O5 2.167098 1_555
Li3 O7 2.171945 1_555
Li3 O3 2.175038 1_654
Li3 O3 2.186337 1_554
Li3 O7 2.264039 1_655
Mn0 O2 1.959989 1_555
Mn0 O4 1.959989 1_455
Mn0 O1 1.964009 1_455
Mn0 O7 1.964009 1_555
Mn0 O1 2.335807 1_555
Mn0 O7 2.335807 1_455
Mn1 O0 1.947543 1_565
Mn1 O7 1.959983 1_555
Mn1 O2 1.964993 1_555
Mn1 O5 1.981535 1_555
Mn1 O5 2.298869 1_455
Mn1 O2 2.359774 1_655
Mn2 O6 1.947543 1_545
Mn2 O1 1.959983 1_555
Mn2 O4 1.964993 1_555
Mn2 O3 1.981535 1_555
Mn2 O3 2.298869 1_655
Mn2 O4 2.359774 1_455
Co0 O3 1.942784 1_554
Co0 O5 1.942784 1_445
Co0 O0 2.068231 1_455
Co0 O6 2.068231 1_544
Co0 O0 2.134104 1_555
Co0 O6 2.134104 1_444
