# generated using pymatgen
data_Sm3Mg2VS8
_symmetry_space_group_name_H-M   'P 1'
_cell_length_a   7.91493224
_cell_length_b   7.79652216
_cell_length_c   7.90832316
_cell_angle_alpha   59.43957907
_cell_angle_beta   60.10720985
_cell_angle_gamma   59.45412638
_symmetry_Int_Tables_number   1
_chemical_formula_structural   Sm3Mg2VS8
_chemical_formula_sum   'Sm3 Mg2 V1 S8'
_cell_volume   342.43647530
_cell_formula_units_Z   1
loop_
 _symmetry_equiv_pos_site_id
 _symmetry_equiv_pos_as_xyz
  1  'x, y, z'
loop_
 _atom_site_type_symbol
 _atom_site_label
 _atom_site_symmetry_multiplicity
 _atom_site_fract_x
 _atom_site_fract_y
 _atom_site_fract_z
 _atom_site_occupancy
  Sm  Sm0  1  0.49997900  0.50004100  0.49998500  1
  Sm  Sm1  1  0.49994900  0.49998600  0.99999800  1
  Sm  Sm2  1  0.99999500  0.49997700  0.49998200  1
  Mg  Mg0  1  0.87628600  0.87351100  0.87613600  1
  Mg  Mg1  1  0.12372000  0.12648000  0.12388200  1
  V  V0  1  0.50010800  0.00001000  0.49999800  1
  S  S0  1  0.72741600  0.77682100  0.72735400  1
  S  S1  1  0.27096000  0.22544100  0.73327600  1
  S  S2  1  0.25232600  0.74164900  0.25228500  1
  S  S3  1  0.73335100  0.22570900  0.27083300  1
  S  S4  1  0.74763600  0.25833900  0.74769800  1
  S  S5  1  0.26665800  0.77429200  0.72915500  1
  S  S6  1  0.27258400  0.22317300  0.27267900  1
  S  S7  1  0.72903600  0.77456700  0.26674100  1
loop_
_geom_bond_atom_site_label_1
_geom_bond_atom_site_label_2
_geom_bond_distance
_geom_bond_site_symmetry_2
Mg0 S4 2.428379 1_565
Mg0 S7 2.529365 1_556
Mg0 S5 2.530070 1_655
Mg0 S0 2.554964 1_555
Mg1 S2 2.428399 1_545
Mg1 S1 2.529360 1_554
Mg1 S3 2.530043 1_455
Mg1 S6 2.555041 1_555
S0 V0 2.521554 1_565
S0 Sm2 2.809487 1_555
S0 Sm1 2.810160 1_555
S1 V0 2.550280 1_555
S1 Sm2 2.801279 1_455
S1 Sm0 2.804953 1_555
S2 Sm1 2.746523 1_554
S2 Sm2 2.747426 1_455
S2 Sm0 2.747666 1_555
S3 V0 2.552093 1_555
S3 Sm1 2.800723 1_554
S3 Sm0 2.803543 1_555
S4 Sm1 2.746512 1_555
S4 Sm2 2.747403 1_555
S4 Sm0 2.747734 1_555
S5 V0 2.553376 1_565
S5 Sm1 2.800204 1_555
S5 Sm0 2.803186 1_555
S6 V0 2.522579 1_555
S6 Sm2 2.808919 1_455
S6 Sm1 2.809533 1_554
S7 V0 2.550225 1_565
S7 Sm2 2.800989 1_555
S7 Sm0 2.804748 1_555
