# generated using pymatgen
data_KBa2Nb3O9
_symmetry_space_group_name_H-M   'P 1'
_cell_length_a   5.83478968
_cell_length_b   5.83478968
_cell_length_c   7.13863800
_cell_angle_alpha   90.00000000
_cell_angle_beta   90.00000000
_cell_angle_gamma   119.99999641
_symmetry_Int_Tables_number   1
_chemical_formula_structural   KBa2Nb3O9
_chemical_formula_sum   'K1 Ba2 Nb3 O9'
_cell_volume   210.47301371
_cell_formula_units_Z   1
loop_
 _symmetry_equiv_pos_site_id
 _symmetry_equiv_pos_as_xyz
  1  'x, y, z'
loop_
 _atom_site_type_symbol
 _atom_site_label
 _atom_site_symmetry_multiplicity
 _atom_site_fract_x
 _atom_site_fract_y
 _atom_site_fract_z
 _atom_site_occupancy
  K  K0  1  0.00000000  0.00000000  0.00000000  1
  Ba  Ba0  1  0.66666700  0.33333300  0.32974900  1
  Ba  Ba1  1  0.33333300  0.66666700  0.67025100  1
  Nb  Nb0  1  0.00000000  0.00000000  0.50000000  1
  Nb  Nb1  1  0.66666700  0.33333300  0.83657100  1
  Nb  Nb2  1  0.33333300  0.66666700  0.16342900  1
  O  O0  1  0.66375900  0.83188000  0.33590700  1
  O  O1  1  0.33624100  0.16812000  0.66409300  1
  O  O2  1  0.00000000  0.50000000  0.00000000  1
  O  O3  1  0.83188000  0.66375900  0.66409300  1
  O  O4  1  0.50000000  0.00000000  0.00000000  1
  O  O5  1  0.16812000  0.33624100  0.33590700  1
  O  O6  1  0.83188000  0.16812000  0.66409300  1
  O  O7  1  0.50000000  0.50000000  0.00000000  1
  O  O8  1  0.16812000  0.83188000  0.33590700  1
loop_
_geom_bond_atom_site_label_1
_geom_bond_atom_site_label_2
_geom_bond_distance
_geom_bond_site_symmetry_2
K0 O4 2.917395 1_455
K0 O2 2.917395 1_545
K0 O4 2.917395 1_555
K0 O2 2.917395 1_555
K0 O7 2.917395 1_445
K0 O7 2.917395 1_555
K0 O8 2.938838 1_545
K0 O6 2.938838 1_454
K0 O5 2.938841 1_555
K0 O0 2.938841 1_445
K0 O3 2.938841 1_444
K0 O1 2.938841 1_554
Ba0 O4 2.894509 1_555
Ba0 O2 2.894509 1_655
Ba0 O7 2.894512 1_555
Ba0 O6 2.912802 1_555
Ba0 O3 2.912802 1_555
Ba0 O1 2.912802 1_555
Ba0 O0 2.917757 1_545
Ba0 O5 2.917757 1_655
Ba0 O8 2.917763 1_545
Ba0 O8 2.917763 1_655
Ba0 O5 2.917769 1_555
Ba0 O0 2.917769 1_555
Ba1 O4 2.894509 1_566
Ba1 O2 2.894509 1_556
Ba1 O7 2.894512 1_556
Ba1 O8 2.912802 1_555
Ba1 O0 2.912802 1_555
Ba1 O5 2.912802 1_555
Ba1 O3 2.917757 1_455
Ba1 O1 2.917757 1_565
Ba1 O6 2.917763 1_455
Ba1 O6 2.917763 1_565
Ba1 O1 2.917769 1_555
Ba1 O3 2.917769 1_555
Nb0 O6 2.063719 1_455
Nb0 O8 2.063719 1_545
Nb0 O1 2.063724 1_555
Nb0 O3 2.063724 1_445
Nb0 O0 2.063724 1_445
Nb0 O5 2.063724 1_555
Nb1 O4 2.048940 1_556
Nb1 O2 2.048940 1_656
Nb1 O7 2.048944 1_556
Nb1 O6 2.074557 1_555
Nb1 O3 2.074557 1_555
Nb1 O1 2.074557 1_555
Nb2 O2 2.048940 1_555
Nb2 O4 2.048940 1_565
Nb2 O7 2.048944 1_555
Nb2 O8 2.074557 1_555
Nb2 O0 2.074557 1_555
Nb2 O5 2.074557 1_555
