# generated using pymatgen
data_Sm3Sn13Ru4
_symmetry_space_group_name_H-M   'P 1'
_cell_length_a   9.74528079
_cell_length_b   9.74527243
_cell_length_c   9.74526234
_cell_angle_alpha   89.99968875
_cell_angle_beta   90.00098056
_cell_angle_gamma   90.00031337
_symmetry_Int_Tables_number   1
_chemical_formula_structural   Sm3Sn13Ru4
_chemical_formula_sum   'Sm6 Sn26 Ru8'
_cell_volume   925.51162038
_cell_formula_units_Z   2
loop_
 _symmetry_equiv_pos_site_id
 _symmetry_equiv_pos_as_xyz
  1  'x, y, z'
loop_
 _atom_site_type_symbol
 _atom_site_label
 _atom_site_symmetry_multiplicity
 _atom_site_fract_x
 _atom_site_fract_y
 _atom_site_fract_z
 _atom_site_occupancy
  Sm  Sm0  1  0.24999945  -0.00000025  0.50000012  1
  Sm  Sm1  1  0.74999995  -0.00000110  0.50000306  1
  Sm  Sm2  1  0.49999889  0.24999989  -0.00000179  1
  Sm  Sm3  1  0.49999993  0.75000047  -0.00000093  1
  Sm  Sm4  1  0.00000204  0.50000134  0.24999990  1
  Sm  Sm5  1  -0.00000103  0.50000048  0.75000005  1
  Sn  Sn0  1  -0.00001768  0.00000586  0.00001570  1
  Sn  Sn1  1  0.50001780  0.49999432  0.49998436  1
  Sn  Sn2  1  -0.00004502  0.15425331  0.30186977  1
  Sn  Sn3  1  0.00000158  0.84576028  0.69811599  1
  Sn  Sn4  1  -0.00003105  0.84575964  0.30187366  1
  Sn  Sn5  1  -0.00000578  0.15424205  0.69811409  1
  Sn  Sn6  1  0.30189241  0.00000212  0.15424044  1
  Sn  Sn7  1  0.65426862  0.49997973  0.19813525  1
  Sn  Sn8  1  0.69812342  0.00000565  0.84577562  1
  Sn  Sn9  1  0.34576237  0.50000026  0.80187713  1
  Sn  Sn10  1  0.30187740  -0.00000024  0.84576191  1
  Sn  Sn11  1  0.34577665  0.49999655  0.19812209  1
  Sn  Sn12  1  0.69813651  0.00001994  0.15426669  1
  Sn  Sn13  1  0.65424265  0.49999507  0.80189218  1
  Sn  Sn14  1  0.15422734  0.30187677  0.00000446  1
  Sn  Sn15  1  0.50002931  0.80188396  0.34574837  1
  Sn  Sn16  1  0.84574769  0.69811600  0.00002904  1
  Sn  Sn17  1  0.50000733  0.19812320  0.65423007  1
  Sn  Sn18  1  0.15423234  0.69812274  0.00000146  1
  Sn  Sn19  1  0.50004428  0.19812559  0.34574179  1
  Sn  Sn20  1  0.84573952  0.30187377  0.00004132  1
  Sn  Sn21  1  0.50000188  0.80187827  0.65423325  1
  Sn  Sn22  1  0.19811476  0.65423997  0.50000186  1
  Sn  Sn23  1  0.80186882  0.34574589  0.49995761  1
  Sn  Sn24  1  0.19811169  0.34575966  0.49999703  1
  Sn  Sn25  1  0.80187382  0.65423931  0.49996898  1
  Ru  Ru0  1  0.24999818  0.24999648  0.25000424  1
  Ru  Ru1  1  0.75000156  0.74999971  0.74999976  1
  Ru  Ru2  1  0.74999617  0.74999995  0.24999499  1
  Ru  Ru3  1  0.75000490  0.25000320  0.74999941  1
  Ru  Ru4  1  0.25000019  0.24999993  0.75000101  1
  Ru  Ru5  1  0.24999870  0.75000164  0.25000091  1
  Ru  Ru6  1  0.25000059  0.75000033  0.75000111  1
  Ru  Ru7  1  0.74999878  0.25000026  0.24999803  1
loop_
_geom_bond_atom_site_label_1
_geom_bond_atom_site_label_2
_geom_bond_distance
_geom_bond_site_symmetry_2
Sm0 Sn22 3.407247 1_545
Sm0 Sn10 3.407247 1_555
Sm0 Sn24 3.407258 1_555
Sm0 Sn6 3.407266 1_555
Sm0 Sn3 3.452903 1_545
Sm0 Sn21 3.452910 1_545
Sm0 Sn17 3.452939 1_555
Sm0 Sn5 3.452976 1_555
Sm0 Sn4 3.453150 1_545
Sm0 Sn15 3.453192 1_545
Sm0 Sn2 3.453327 1_555
Sm0 Sn19 3.453354 1_555
Sm1 Sn12 3.406981 1_555
Sm1 Sn23 3.407101 1_555
Sm1 Sn25 3.407235 1_545
Sm1 Sn8 3.407366 1_555
Sm1 Sn19 3.452737 1_555
Sm1 Sn15 3.452742 1_545
Sm1 Sn2 3.452767 1_655
Sm1 Sn4 3.452798 1_645
Sm1 Sn5 3.452830 1_655
Sm1 Sn3 3.452874 1_645
Sm1 Sn17 3.452878 1_555
Sm1 Sn21 3.452885 1_545
Sm2 Sn20 3.407049 1_555
Sm2 Sn19 3.407072 1_555
Sm2 Sn17 3.407318 1_554
Sm2 Sn14 3.407357 1_555
Sm2 Sn13 3.452836 1_554
Sm2 Sn6 3.452851 1_555
Sm2 Sn8 3.452868 1_554
Sm2 Sn11 3.452879 1_555
Sm2 Sn9 3.452906 1_554
Sm2 Sn10 3.452907 1_554
Sm2 Sn12 3.452996 1_555
Sm2 Sn7 3.452996 1_555
Sm3 Sn16 3.407139 1_555
Sm3 Sn15 3.407146 1_555
Sm3 Sn21 3.407292 1_554
Sm3 Sn18 3.407315 1_555
Sm3 Sn11 3.452902 1_555
Sm3 Sn6 3.452906 1_565
Sm3 Sn10 3.452914 1_564
Sm3 Sn8 3.452915 1_564
Sm3 Sn9 3.452917 1_554
Sm3 Sn13 3.452933 1_554
Sm3 Sn12 3.453255 1_565
Sm3 Sn7 3.453265 1_555
Sm4 Sn7 3.406961 1_455
Sm4 Sn2 3.407112 1_555
Sm4 Sn4 3.407222 1_555
Sm4 Sn11 3.407394 1_555
Sm4 Sn16 3.452738 1_455
Sm4 Sn20 3.452765 1_455
Sm4 Sn25 3.452786 1_455
Sm4 Sn23 3.452788 1_455
Sm4 Sn24 3.452835 1_555
Sm4 Sn22 3.452874 1_555
Sm4 Sn14 3.452889 1_555
Sm4 Sn18 3.452890 1_555
Sm5 Sn13 3.407238 1_455
Sm5 Sn5 3.407241 1_555
Sm5 Sn3 3.407246 1_555
Sm5 Sn9 3.407268 1_555
Sm5 Sn22 3.452904 1_555
Sm5 Sn18 3.452906 1_556
Sm5 Sn14 3.452908 1_556
Sm5 Sn24 3.452947 1_555
Sm5 Sn25 3.453141 1_455
Sm5 Sn16 3.453181 1_456
Sm5 Sn23 3.453315 1_455
Sm5 Sn20 3.453337 1_456
Sn0 Sn12 3.303431 1_455
Sn0 Sn8 3.303451 1_454
Sn0 Sn2 3.303467 1_555
Sn0 Sn4 3.303481 1_545
Sn0 Sn20 3.303570 1_455
Sn0 Sn14 3.303591 1_555
Sn0 Sn16 3.303710 1_445
Sn0 Sn18 3.303734 1_545
Sn0 Sn5 3.303815 1_554
Sn0 Sn6 3.303827 1_555
Sn0 Sn3 3.303855 1_544
Sn0 Sn10 3.303871 1_554
Sn1 Sn23 3.303450 1_555
Sn1 Sn7 3.303455 1_555
Sn1 Sn25 3.303464 1_555
Sn1 Sn11 3.303481 1_555
Sn1 Sn19 3.303575 1_555
Sn1 Sn17 3.303595 1_555
Sn1 Sn15 3.303713 1_555
Sn1 Sn21 3.303735 1_555
Sn1 Sn13 3.303804 1_555
Sn1 Sn24 3.303853 1_555
Sn1 Sn9 3.303855 1_555
Sn1 Sn22 3.303889 1_555
Sn2 Sn4 3.006355 1_545
Sn2 Sn23 3.306915 1_455
Sn2 Sn24 3.307566 1_555
Sn3 Sn5 3.006239 1_565
Sn10 Sn6 3.006204 1_556
Sn10 Sn21 3.307523 1_545
Sn10 Sn17 3.307558 1_555
Sn11 Sn7 3.006341 1_555
Sn11 Sn14 3.307538 1_555
Sn11 Sn18 3.307564 1_555
Sn12 Sn8 3.006326 1_554
Sn12 Sn19 3.306955 1_555
Sn12 Sn15 3.307225 1_545
Sn13 Sn9 3.006227 1_555
Sn13 Sn16 3.307411 1_556
Sn13 Sn20 3.307438 1_556
Sn14 Sn20 3.006300 1_455
Sn14 Sn9 3.307561 1_554
Sn15 Sn21 3.006266 1_555
Sn15 Sn6 3.307412 1_565
Sn16 Sn18 3.006270 1_655
Sn16 Sn7 3.307206 1_555
Sn17 Sn19 3.006299 1_555
Sn17 Sn8 3.307497 1_555
Sn18 Sn9 3.307535 1_554
Sn19 Sn6 3.307490 1_555
Sn20 Sn7 3.306943 1_555
Sn21 Sn8 3.307566 1_565
Sn22 Sn24 3.006225 1_555
Sn22 Sn3 3.307371 1_555
Sn22 Sn4 3.307583 1_555
Sn23 Sn25 3.006352 1_555
Sn23 Sn5 3.307541 1_655
Sn24 Sn5 3.307374 1_555
Sn25 Sn4 3.307138 1_655
Sn25 Sn3 3.307594 1_655
Ru0 Sn24 2.657438 1_555
Ru0 Sn6 2.657467 1_555
Ru0 Sn14 2.657486 1_555
Ru0 Sn11 2.657532 1_555
Ru0 Sn2 2.657774 1_555
Ru0 Sn19 2.657775 1_555
Ru0 Sm0 3.445412 1_555
Ru0 Sm4 3.445492 1_555
Ru0 Sm2 3.445550 1_555
Ru1 Sn21 2.657474 1_555
Ru1 Sn3 2.657482 1_655
Ru1 Sn13 2.657525 1_555
Ru1 Sn8 2.657582 1_565
Ru1 Sn16 2.657671 1_556
Ru1 Sn25 2.657742 1_555
Ru1 Sm1 3.445435 1_565
Ru1 Sm5 3.445462 1_655
Ru1 Sm3 3.445510 1_556
Ru2 Sn16 2.657158 1_555
Ru2 Sn15 2.657177 1_555
Ru2 Sn4 2.657212 1_655
Ru2 Sn25 2.657220 1_555
Ru2 Sn12 2.657495 1_565
Ru2 Sn7 2.657495 1_555
Ru2 Sm3 3.445390 1_555
Ru2 Sm4 3.445516 1_655
Ru2 Sm1 3.445530 1_565
Ru3 Sn5 2.657402 1_655
Ru3 Sn13 2.657437 1_555
Ru3 Sn17 2.657464 1_555
Ru3 Sn8 2.657500 1_555
Ru3 Sn20 2.657723 1_556
Ru3 Sn23 2.657753 1_555
Ru3 Sm5 3.445407 1_655
Ru3 Sm1 3.445486 1_555
Ru3 Sm2 3.445536 1_556
Ru4 Sn10 2.657462 1_555
Ru4 Sn9 2.657466 1_555
Ru4 Sn24 2.657505 1_555
Ru4 Sn5 2.657517 1_555
Ru4 Sn14 2.657553 1_556
Ru4 Sn17 2.657583 1_555
Ru4 Sm2 3.445416 1_556
Ru4 Sm0 3.445489 1_555
Ru4 Sm5 3.445497 1_555
Ru5 Sn18 2.657468 1_555
Ru5 Sn22 2.657490 1_555
Ru5 Sn6 2.657495 1_565
Ru5 Sn11 2.657583 1_555
Ru5 Sn15 2.657689 1_555
Ru5 Sn4 2.657729 1_555
Ru5 Sm4 3.445445 1_555
Ru5 Sm0 3.445463 1_565
Ru5 Sm3 3.445524 1_555
Ru6 Sn10 2.657459 1_565
Ru6 Sn3 2.657466 1_555
Ru6 Sn9 2.657467 1_555
Ru6 Sn22 2.657467 1_555
Ru6 Sn18 2.657504 1_556
Ru6 Sn21 2.657516 1_555
Ru6 Sm3 3.445426 1_556
Ru6 Sm0 3.445466 1_565
Ru6 Sm5 3.445476 1_555
Ru7 Sn19 2.657009 1_555
Ru7 Sn20 2.657013 1_555
Ru7 Sn2 2.657015 1_655
Ru7 Sn23 2.657033 1_555
Ru7 Sn7 2.657150 1_555
Ru7 Sn12 2.657160 1_555
Ru7 Sm2 3.445442 1_555
Ru7 Sm4 3.445496 1_655
Ru7 Sm1 3.445507 1_555
