# generated using pymatgen
data_Zn3Bi2(PO6)2
_symmetry_space_group_name_H-M   'P 1'
_cell_length_a   5.25335400
_cell_length_b   7.93856100
_cell_length_c   12.04439100
_cell_angle_alpha   88.87129292
_cell_angle_beta   90.00000000
_cell_angle_gamma   90.00000000
_symmetry_Int_Tables_number   1
_chemical_formula_structural   Zn3Bi2(PO6)2
_chemical_formula_sum   'Zn6 Bi4 P4 O24'
_cell_volume   502.20267721
_cell_formula_units_Z   2
loop_
 _symmetry_equiv_pos_site_id
 _symmetry_equiv_pos_as_xyz
  1  'x, y, z'
loop_
 _atom_site_type_symbol
 _atom_site_label
 _atom_site_symmetry_multiplicity
 _atom_site_fract_x
 _atom_site_fract_y
 _atom_site_fract_z
 _atom_site_occupancy
  Zn  Zn0  1  0.00000000  0.30608200  0.08047400  1
  Zn  Zn1  1  0.50000000  0.18135200  0.40131700  1
  Zn  Zn2  1  0.50000000  0.68115900  0.91860600  1
  Zn  Zn3  1  0.00000000  0.20207200  0.58695500  1
  Zn  Zn4  1  0.00000000  0.81395300  0.59783300  1
  Zn  Zn5  1  0.00000000  0.69560500  0.10560000  1
  Bi  Bi0  1  0.50000000  0.01582400  0.10795100  1
  Bi  Bi1  1  0.50000000  0.46405500  0.61067200  1
  Bi  Bi2  1  0.00000000  0.54370600  0.39413100  1
  Bi  Bi3  1  0.00000000  0.99157200  0.89822200  1
  P  P0  1  0.50000000  0.03097900  0.69560500  1
  P  P1  1  0.00000000  0.98326600  0.30207200  1
  P  P2  1  0.50000000  0.46057600  0.19991600  1
  P  P3  1  0.00000000  0.53894300  0.79998100  1
  O  O0  1  0.23671100  0.66543500  0.51885000  1
  O  O1  1  0.25183500  0.00789700  0.62362100  1
  O  O2  1  0.75099900  0.81990100  0.00555200  1
  O  O3  1  0.00000000  0.40982800  0.70412500  1
  O  O4  1  0.23801700  0.00539700  0.37399300  1
  O  O5  1  0.25339300  0.49125900  0.12728500  1
  O  O6  1  0.24243100  0.51554600  0.87140400  1
  O  O7  1  0.00000000  0.72285900  0.75334200  1
  O  O8  1  0.50000000  0.57703300  0.29872700  1
  O  O9  1  0.76198300  0.00539700  0.37399300  1
  O  O10  1  0.24900100  0.81990100  0.00555200  1
  O  O11  1  0.24810300  0.16434300  0.99902900  1
  O  O12  1  0.75756900  0.51554600  0.87140400  1
  O  O13  1  0.74660700  0.49125900  0.12728500  1
  O  O14  1  0.00000000  0.79519500  0.25987000  1
  O  O15  1  0.76328900  0.66543500  0.51885000  1
  O  O16  1  0.75189700  0.16434300  0.99902900  1
  O  O17  1  0.74552000  0.32544800  0.49052600  1
  O  O18  1  0.25448000  0.32544800  0.49052600  1
  O  O19  1  0.50000000  0.90482800  0.79374200  1
  O  O20  1  0.50000000  0.21501100  0.73113000  1
  O  O21  1  0.74816500  0.00789700  0.62362100  1
  O  O22  1  0.00000000  0.09911600  0.19807200  1
  O  O23  1  0.50000000  0.27219600  0.23665800  1
loop_
_geom_bond_atom_site_label_1
_geom_bond_atom_site_label_2
_geom_bond_distance
_geom_bond_site_symmetry_2
Bi0 O16 2.191205 1_554
Bi0 O11 2.191205 1_554
Bi0 O10 2.398845 1_545
Bi0 O2 2.398845 1_545
Bi0 O23 2.582547 1_555
Bi1 O18 2.243018 1_555
Bi1 O17 2.243018 1_555
Bi1 O15 2.371137 1_555
Bi1 O0 2.371137 1_555
Bi1 O20 2.429130 1_555
Bi2 O0 2.189494 1_555
Bi2 O15 2.189494 1_455
Bi2 O17 2.461308 1_455
Bi2 O18 2.461308 1_555
Bi2 O14 2.544337 1_555
Bi3 O11 2.262681 1_565
Bi3 O16 2.262681 1_465
Bi3 O2 2.273788 1_456
Bi3 O10 2.273788 1_556
Bi3 O7 2.782475 1_555
O0 Zn4 1.971195 1_555
O1 P0 1.578341 1_555
O1 Zn4 2.058170 1_545
O1 Zn3 2.072344 1_555
O2 Zn5 2.022365 1_655
O2 Zn2 2.023332 1_554
O3 P3 1.558895 1_555
O3 Zn3 2.191674 1_555
O4 P1 1.533203 1_545
O4 Zn1 1.992918 1_555
O5 P2 1.579418 1_555
O5 Zn0 2.069673 1_555
O5 Zn5 2.110710 1_555
O6 P3 1.546035 1_555
O6 Zn2 1.977892 1_555
O7 P3 1.554002 1_555
O7 Zn4 1.994433 1_555
O8 P2 1.521325 1_555
O9 P1 1.533203 1_645
O9 Zn1 1.992918 1_555
O10 Zn5 2.022365 1_555
O10 Zn2 2.023332 1_554
O11 Zn0 1.992642 1_556
O12 P3 1.546035 1_655
O12 Zn2 1.977892 1_555
O13 P2 1.579418 1_555
O13 Zn0 2.069673 1_655
O13 Zn5 2.110710 1_655
O14 P1 1.586617 1_555
O14 Zn5 2.033572 1_555
O15 Zn4 1.971195 1_655
O16 Zn0 1.992642 1_656
O17 Zn3 2.012613 1_655
O17 Zn1 2.043291 1_555
O18 Zn3 2.012613 1_555
O18 Zn1 2.043291 1_555
O19 P0 1.534082 1_565
O19 Zn2 2.304199 1_555
O20 P0 1.530385 1_555
O21 P0 1.578341 1_555
O21 Zn4 2.058170 1_645
O21 Zn3 2.072344 1_655
O22 P1 1.539311 1_545
O22 Zn0 2.148019 1_555
O23 P2 1.551188 1_555
O23 Zn1 2.096877 1_555
