# generated using pymatgen
data_SrCaYRuO6
_symmetry_space_group_name_H-M   'P 1'
_cell_length_a   5.70462025
_cell_length_b   5.87041000
_cell_length_c   8.16378109
_cell_angle_alpha   90.00000000
_cell_angle_beta   90.28474230
_cell_angle_gamma   90.00000000
_symmetry_Int_Tables_number   1
_chemical_formula_structural   SrCaYRuO6
_chemical_formula_sum   'Sr2 Ca2 Y2 Ru2 O12'
_cell_volume   273.38907832
_cell_formula_units_Z   2
loop_
 _symmetry_equiv_pos_site_id
 _symmetry_equiv_pos_as_xyz
  1  'x, y, z'
loop_
 _atom_site_type_symbol
 _atom_site_label
 _atom_site_symmetry_multiplicity
 _atom_site_fract_x
 _atom_site_fract_y
 _atom_site_fract_z
 _atom_site_occupancy
  Sr  Sr0  1  0.49048400  0.54215200  0.24993100  1
  Sr  Sr1  1  0.99048400  0.95784800  0.74993100  1
  Ca  Ca0  1  0.51293200  0.44662400  0.75383000  1
  Ca  Ca1  1  0.01293200  0.05337600  0.25383000  1
  Y  Y0  1  0.99994700  0.50245200  0.50141900  1
  Y  Y1  1  0.49994700  0.99754800  0.00141900  1
  Ru  Ru0  1  0.99977100  0.49976300  0.99956600  1
  Ru  Ru1  1  0.49977100  0.00023700  0.49956600  1
  O  O0  1  0.30619900  0.27227800  0.44941600  1
  O  O1  1  0.80619900  0.22772200  0.94941600  1
  O  O2  1  0.67617900  0.71389600  0.55381800  1
  O  O3  1  0.17617900  0.78610400  0.05381800  1
  O  O4  1  0.21407300  0.81629200  0.45021100  1
  O  O5  1  0.71407300  0.68370800  0.95021100  1
  O  O6  1  0.77649300  0.19484500  0.54154400  1
  O  O7  1  0.27649300  0.30515500  0.04154400  1
  O  O8  1  0.60451300  0.97181500  0.26704100  1
  O  O9  1  0.10451300  0.52818500  0.76704100  1
  O  O10  1  0.41940800  0.03914500  0.73322400  1
  O  O11  1  0.91940800  0.46085500  0.23322400  1
loop_
_geom_bond_atom_site_label_1
_geom_bond_atom_site_label_2
_geom_bond_distance
_geom_bond_site_symmetry_2
Ca0 O9 2.381532 1_555
Ca0 O5 2.409493 1_555
Ca0 O2 2.451596 1_555
Ca0 O10 2.456429 1_555
Ca0 O1 2.640674 1_555
Ca0 O6 2.733964 1_555
Ca0 O7 2.838566 1_556
Ca0 O0 2.930065 1_555
Ca1 O8 2.381532 1_445
Ca1 O4 2.409493 1_545
Ca1 O3 2.451596 1_545
Ca1 O11 2.456429 1_455
Ca1 O0 2.640674 1_555
Ca1 O7 2.733964 1_555
Ca1 O6 2.838566 1_455
Ca1 O1 2.930065 1_454
O0 Ru1 1.983151 1_555
O0 Y0 2.250684 1_455
O0 Sr0 2.506849 1_555
O1 Ru0 1.983151 1_555
O1 Y1 2.250684 1_546
O1 Sr1 2.506849 1_545
O2 Ru1 2.007488 1_565
O2 Y0 2.267794 1_555
O2 Sr1 2.792931 1_555
O2 Sr0 2.875277 1_555
O3 Ru0 2.007488 1_454
O3 Y1 2.267794 1_555
O3 Sr0 2.792931 1_555
O3 Sr1 2.875277 1_454
O4 Ru1 1.994518 1_565
O4 Y0 2.250833 1_455
O4 Sr0 2.788412 1_555
O4 Sr1 2.887128 1_455
O5 Ru0 1.994518 1_555
O5 Y1 2.250833 1_556
O5 Sr1 2.788412 1_555
O5 Sr0 2.887128 1_556
O6 Ru1 1.977162 1_555
O6 Y0 2.235443 1_555
O6 Sr1 2.509852 1_545
O7 Ru0 1.977162 1_454
O7 Y1 2.235443 1_545
O7 Sr0 2.509852 1_555
O8 Ru1 1.999903 1_565
O8 Y1 2.251242 1_555
O8 Sr0 2.608397 1_555
O9 Ru0 1.999903 1_455
O9 Y0 2.251242 1_455
O9 Sr1 2.608397 1_455
O10 Ru1 1.977299 1_555
O10 Y1 2.248236 1_546
O10 Sr1 2.497349 1_445
O11 Ru0 1.977299 1_554
O11 Y0 2.248236 1_555
O11 Sr0 2.497349 1_555
