# generated using pymatgen
data_Ba3BiPb2O9
_symmetry_space_group_name_H-M   'P 1'
_cell_length_a   6.16980000
_cell_length_b   6.17055566
_cell_length_c   13.79387299
_cell_angle_alpha   102.69941431
_cell_angle_beta   102.71058268
_cell_angle_gamma   89.87089636
_symmetry_Int_Tables_number   1
_chemical_formula_structural   Ba3BiPb2O9
_chemical_formula_sum   'Ba6 Bi2 Pb4 O18'
_cell_volume   499.15939641
_cell_formula_units_Z   2
loop_
 _symmetry_equiv_pos_site_id
 _symmetry_equiv_pos_as_xyz
  1  'x, y, z'
loop_
 _atom_site_type_symbol
 _atom_site_label
 _atom_site_symmetry_multiplicity
 _atom_site_fract_x
 _atom_site_fract_y
 _atom_site_fract_z
 _atom_site_occupancy
  Ba  Ba0  1  0.91922600  0.41884000  0.83630100  1
  Ba  Ba1  1  0.25141900  0.75139900  0.50066200  1
  Ba  Ba2  1  0.58341600  0.08377100  0.16508300  1
  Ba  Ba3  1  0.74858100  0.24860100  0.49933800  1
  Ba  Ba4  1  0.08077400  0.58116000  0.16369900  1
  Ba  Ba5  1  0.41658400  0.91622900  0.83491700  1
  Bi  Bi0  1  0.83348200  0.83332600  0.66682000  1
  Bi  Bi1  1  0.16651800  0.16667400  0.33318000  1
  Pb  Pb0  1  0.50000000  0.50000000  0.00000000  1
  Pb  Pb1  1  0.33389700  0.33383700  0.66774400  1
  Pb  Pb2  1  0.66610300  0.66616300  0.33225600  1
  Pb  Pb3  1  0.00000000  0.00000000  0.00000000  1
  O  O0  1  0.61768600  0.11459000  0.68268400  1
  O  O1  1  0.95111500  0.44852200  0.35029300  1
  O  O2  1  0.28385300  0.78393200  0.01678000  1
  O  O3  1  0.04888500  0.55147800  0.64970700  1
  O  O4  1  0.38231400  0.88541000  0.31731600  1
  O  O5  1  0.71614700  0.21606800  0.98322000  1
  O  O6  1  0.10764300  0.05567300  0.66583900  1
  O  O7  1  0.44169300  0.38944300  0.33392100  1
  O  O8  1  0.77705300  0.72301600  0.00001400  1
  O  O9  1  0.72434600  0.77644500  0.50046300  1
  O  O10  1  0.05796200  0.11026800  0.16768100  1
  O  O11  1  0.38956200  0.44335000  0.83351400  1
  O  O12  1  0.94203800  0.88973200  0.83231900  1
  O  O13  1  0.27565400  0.22355500  0.49953700  1
  O  O14  1  0.61043800  0.55665000  0.16648600  1
  O  O15  1  0.55830700  0.61055700  0.66607900  1
  O  O16  1  0.89235700  0.94432700  0.33416100  1
  O  O17  1  0.22294700  0.27698400  0.99998600  1
loop_
_geom_bond_atom_site_label_1
_geom_bond_atom_site_label_2
_geom_bond_distance
_geom_bond_site_symmetry_2
Ba0 O0 2.829799 1_555
Ba0 O17 2.894009 1_655
Ba0 O8 2.897007 1_556
Ba0 O11 2.915284 1_655
Ba0 O12 2.922522 1_555
Ba0 O5 3.079254 1_555
Ba0 O3 3.125662 1_655
Ba0 O12 3.256504 1_545
Ba0 O11 3.263235 1_555
Ba0 O6 3.282737 1_655
Ba0 O15 3.283274 1_555
Ba0 O2 3.380281 1_656
Ba1 O1 2.801438 1_455
Ba1 O6 2.916220 1_565
Ba1 O15 2.917193 1_555
Ba1 O13 2.921256 1_565
Ba1 O9 2.922939 1_555
Ba1 O4 3.090859 1_555
Ba1 O3 3.092352 1_555
Ba1 O16 3.248236 1_455
Ba1 O7 3.251822 1_555
Ba1 O9 3.254684 1_455
Ba1 O13 3.256968 1_555
Ba1 O0 3.388988 1_565
Ba2 O2 2.776949 1_545
Ba2 O14 2.918631 1_555
Ba2 O10 2.924680 1_655
Ba2 O7 2.950161 1_555
Ba2 O16 2.954932 1_545
Ba2 O5 3.072058 1_554
Ba2 O4 3.119392 1_545
Ba2 O17 3.241438 1_554
Ba2 O8 3.244019 1_545
Ba2 O10 3.253366 1_555
Ba2 O14 3.260611 1_545
Ba2 O1 3.418132 1_555
Ba3 O3 2.801438 1_655
Ba3 O16 2.916220 1_545
Ba3 O7 2.917193 1_555
Ba3 O9 2.921256 1_545
Ba3 O13 2.922939 1_555
Ba3 O0 3.090859 1_555
Ba3 O1 3.092352 1_555
Ba3 O6 3.248236 1_655
Ba3 O15 3.251822 1_555
Ba3 O13 3.254684 1_655
Ba3 O9 3.256968 1_555
Ba3 O4 3.388988 1_545
Ba4 O4 2.829799 1_555
Ba4 O8 2.894009 1_455
Ba4 O17 2.897007 1_554
Ba4 O14 2.915284 1_455
Ba4 O10 2.922522 1_555
Ba4 O2 3.079254 1_555
Ba4 O1 3.125662 1_455
Ba4 O10 3.256504 1_565
Ba4 O14 3.263235 1_555
Ba4 O16 3.282737 1_455
Ba4 O7 3.283274 1_555
Ba4 O5 3.380281 1_454
Ba5 O5 2.776949 1_565
Ba5 O11 2.918631 1_555
Ba5 O12 2.924680 1_455
Ba5 O15 2.950161 1_555
Ba5 O6 2.954932 1_565
Ba5 O2 3.072058 1_556
Ba5 O0 3.119392 1_565
Ba5 O8 3.241438 1_556
Ba5 O17 3.244019 1_565
Ba5 O12 3.253366 1_555
Ba5 O11 3.260611 1_565
Ba5 O3 3.418132 1_555
Bi0 O12 2.181765 1_555
Bi0 O15 2.183757 1_555
Bi0 O6 2.184607 1_665
Bi0 O0 2.187127 1_565
Bi0 O3 2.189464 1_655
Bi0 O9 2.193006 1_555
Bi1 O10 2.181765 1_555
Bi1 O7 2.183757 1_555
Bi1 O16 2.184607 1_445
Bi1 O4 2.187127 1_545
Bi1 O1 2.189464 1_455
Bi1 O13 2.193006 1_555
O0 Pb1 2.211694 1_555
O1 Pb2 2.213912 1_555
O2 Pb3 2.201146 1_565
O2 Pb0 2.201952 1_555
O3 Pb1 2.213912 1_555
O4 Pb2 2.211694 1_555
O5 Pb3 2.201146 1_656
O5 Pb0 2.201952 1_556
O6 Pb1 2.206873 1_555
O7 Pb2 2.207951 1_555
O8 Pb3 2.196393 1_665
O8 Pb0 2.196815 1_555
O9 Pb2 2.217128 1_555
O10 Pb3 2.210394 1_555
O11 Pb1 2.186155 1_555
O11 Pb0 2.195417 1_556
O12 Pb3 2.210394 1_666
O13 Pb1 2.217128 1_555
O14 Pb2 2.186155 1_555
O14 Pb0 2.195417 1_555
O15 Pb1 2.207951 1_555
O16 Pb2 2.206873 1_555
O17 Pb3 2.196393 1_556
O17 Pb0 2.196815 1_556
