# generated using pymatgen
data_Mg5Sb
_symmetry_space_group_name_H-M   'P 1'
_cell_length_a   5.70518463
_cell_length_b   5.70518463
_cell_length_c   5.00343600
_cell_angle_alpha   90.00000000
_cell_angle_beta   90.00000000
_cell_angle_gamma   120.00000726
_symmetry_Int_Tables_number   1
_chemical_formula_structural   Mg5Sb
_chemical_formula_sum   'Mg5 Sb1'
_cell_volume   141.03871919
_cell_formula_units_Z   1
loop_
 _symmetry_equiv_pos_site_id
 _symmetry_equiv_pos_as_xyz
  1  'x, y, z'
loop_
 _atom_site_type_symbol
 _atom_site_label
 _atom_site_symmetry_multiplicity
 _atom_site_fract_x
 _atom_site_fract_y
 _atom_site_fract_z
 _atom_site_occupancy
  Mg  Mg0  1  0.00000000  0.66097300  0.00000000  1
  Mg  Mg1  1  0.66097300  0.00000000  0.00000000  1
  Mg  Mg2  1  0.33902700  0.33902700  0.00000000  1
  Mg  Mg3  1  0.66666700  0.33333300  0.50000000  1
  Mg  Mg4  1  0.33333300  0.66666700  0.50000000  1
  Sb  Sb0  1  0.00000000  0.00000000  0.50000000  1
loop_
_geom_bond_atom_site_label_1
_geom_bond_atom_site_label_2
_geom_bond_distance
_geom_bond_site_symmetry_2
Mg0 Mg4 3.132800 1_555
Mg0 Mg4 3.132800 1_554
Mg0 Mg3 3.132801 1_455
Mg0 Mg3 3.132801 1_454
Mg0 Sb0 3.162241 1_565
Mg0 Sb0 3.162241 1_564
Mg1 Mg3 3.132800 1_555
Mg1 Mg3 3.132800 1_554
Mg1 Mg4 3.132801 1_545
Mg1 Mg4 3.132801 1_544
Mg1 Sb0 3.162241 1_655
Mg1 Sb0 3.162241 1_654
Mg2 Mg3 3.132803 1_555
Mg2 Mg4 3.132803 1_555
Mg2 Mg3 3.132803 1_554
Mg2 Mg4 3.132803 1_554
Mg2 Sb0 3.162241 1_555
Mg2 Sb0 3.162241 1_554
Mg3 Mg4 3.293886 1_545
Mg3 Mg4 3.293886 1_655
Mg3 Sb0 3.293887 1_655
Mg3 Sb0 3.293891 1_555
Mg3 Sb0 3.293891 1_665
Mg3 Mg4 3.293897 1_555
Mg4 Sb0 3.293887 1_565
Mg4 Sb0 3.293891 1_555
Mg4 Sb0 3.293891 1_665
