# generated using pymatgen
data_CaLaFeSbO6
_symmetry_space_group_name_H-M   'P 1'
_cell_length_a   7.97429985
_cell_length_b   8.07082353
_cell_length_c   8.10207336
_cell_angle_alpha   89.78485947
_cell_angle_beta   89.62887522
_cell_angle_gamma   91.11489103
_symmetry_Int_Tables_number   1
_chemical_formula_structural   CaLaFeSbO6
_chemical_formula_sum   'Ca4 La4 Fe4 Sb4 O24'
_cell_volume   521.32911148
_cell_formula_units_Z   4
loop_
 _symmetry_equiv_pos_site_id
 _symmetry_equiv_pos_as_xyz
  1  'x, y, z'
loop_
 _atom_site_type_symbol
 _atom_site_label
 _atom_site_symmetry_multiplicity
 _atom_site_fract_x
 _atom_site_fract_y
 _atom_site_fract_z
 _atom_site_occupancy
  Ca  Ca0  1  0.53453500  0.98160100  0.25322300  1
  Ca  Ca1  1  0.03656400  0.48322500  0.25140000  1
  Ca  Ca2  1  0.48177900  0.53174100  0.75303200  1
  Ca  Ca3  1  0.97864800  0.03422300  0.75350400  1
  La  La0  1  0.52043600  0.46908500  0.24704900  1
  La  La1  1  0.01695400  0.97269100  0.24734900  1
  La  La2  1  0.46745500  0.01609400  0.74877400  1
  La  La3  1  0.96843800  0.51649300  0.74679500  1
  Fe  Fe0  1  0.24979000  0.74916300  0.99980700  1
  Fe  Fe1  1  0.24962700  0.25042100  0.50203100  1
  Fe  Fe2  1  0.74955300  0.24956600  0.00188300  1
  Fe  Fe3  1  0.74947200  0.74930200  0.50048000  1
  Sb  Sb0  1  0.75062400  0.24825900  0.49953600  1
  Sb  Sb1  1  0.25094500  0.74882500  0.49880700  1
  Sb  Sb2  1  0.74916400  0.75147200  0.99886000  1
  Sb  Sb3  1  0.24888500  0.25134500  0.99927300  1
  O  O0  1  0.31849000  0.28540100  0.76218200  1
  O  O1  1  0.81678600  0.78711800  0.76186000  1
  O  O2  1  0.28520200  0.81810700  0.26213800  1
  O  O3  1  0.78812300  0.31869600  0.26263700  1
  O  O4  1  0.20054200  0.01089900  0.94882800  1
  O  O5  1  0.70579000  0.50981100  0.94832400  1
  O  O6  1  0.50726200  0.20430500  0.44666700  1
  O  O7  1  0.00545000  0.70366900  0.44966300  1
  O  O8  1  0.20291400  0.98866400  0.55632600  1
  O  O9  1  0.70318100  0.48620800  0.55873000  1
  O  O10  1  0.49082700  0.19969300  0.05433500  1
  O  O11  1  0.99263900  0.70619000  0.05483700  1
  O  O12  1  0.71799400  0.18082900  0.73822600  1
  O  O13  1  0.22025400  0.68210800  0.73693000  1
  O  O14  1  0.68427900  0.71911900  0.23733900  1
  O  O15  1  0.18241800  0.22130400  0.23811000  1
  O  O16  1  0.49558800  0.79129000  0.54924100  1
  O  O17  1  0.99344100  0.29014400  0.55274400  1
  O  O18  1  0.78954500  0.99200900  0.05074800  1
  O  O19  1  0.29533900  0.49089100  0.04996900  1
  O  O20  1  0.50565900  0.79246700  0.94540900  1
  O  O21  1  0.00669600  0.29816200  0.94663100  1
  O  O22  1  0.79400000  0.01039300  0.44231000  1
  O  O23  1  0.29471000  0.50901100  0.44401600  1
loop_
_geom_bond_atom_site_label_1
_geom_bond_atom_site_label_2
_geom_bond_distance
_geom_bond_site_symmetry_2
Ca0 O2 2.365348 1_555
Ca0 O6 2.401320 1_565
Ca0 O10 2.413752 1_565
Ca0 O14 2.455352 1_555
Ca0 O22 2.589790 1_565
Ca0 O18 2.604327 1_555
Ca0 O16 2.855153 1_555
Ca0 O20 2.936864 1_554
Ca1 O3 2.364503 1_455
Ca1 O7 2.416774 1_555
Ca1 O11 2.430522 1_455
Ca1 O15 2.434907 1_555
Ca1 O23 2.596862 1_555
Ca1 O19 2.622244 1_555
Ca1 O21 2.899366 1_554
Ca1 O17 2.906423 1_455
Ca2 O0 2.355994 1_555
Ca2 O9 2.392483 1_555
Ca2 O5 2.402644 1_555
Ca2 O13 2.437182 1_555
Ca2 O20 2.628024 1_555
Ca2 O16 2.662542 1_555
Ca2 O19 2.834712 1_556
Ca2 O23 2.927201 1_555
Ca3 O1 2.354922 1_545
Ca3 O4 2.391189 1_655
Ca3 O12 2.415284 1_555
Ca3 O8 2.424584 1_645
Ca3 O17 2.624637 1_555
Ca3 O21 2.654656 1_655
Ca3 O18 2.848983 1_546
Ca3 O22 2.933056 1_555
La0 O14 2.383346 1_555
La0 O19 2.418659 1_555
La0 O23 2.424828 1_555
La0 O3 2.479702 1_555
La0 O6 2.675183 1_555
La0 O10 2.689084 1_555
La0 O5 2.842413 1_554
La0 O9 2.926110 1_555
La1 O15 2.380595 1_565
La1 O22 2.395184 1_465
La1 O18 2.428300 1_455
La1 O2 2.500534 1_555
La1 O11 2.666380 1_455
La1 O7 2.715342 1_555
La1 O4 2.831805 1_564
La1 O8 2.919841 1_555
La2 O12 2.379089 1_555
La2 O20 2.427866 1_545
La2 O16 2.447217 1_545
La2 O0 2.499538 1_555
La2 O8 2.637678 1_545
La2 O4 2.666556 1_555
La2 O6 2.888361 1_555
La2 O10 2.895205 1_556
La3 O13 2.391230 1_655
La3 O21 2.413595 1_655
La3 O17 2.424990 1_555
La3 O1 2.520081 1_555
La3 O9 2.622998 1_555
La3 O5 2.646932 1_555
La3 O7 2.847956 1_655
La3 O11 2.938297 1_556
Fe0 O20 2.106888 1_555
Fe0 O11 2.117393 1_456
Fe0 O19 2.160353 1_556
Fe0 O4 2.194310 1_565
Fe0 O13 2.212422 1_555
Fe0 O2 2.217507 1_556
Fe1 O17 2.112029 1_455
Fe1 O6 2.140002 1_555
Fe1 O23 2.160357 1_555
Fe1 O8 2.180734 1_545
Fe1 O0 2.199396 1_555
Fe1 O15 2.220031 1_555
Fe2 O21 2.124715 1_654
Fe2 O10 2.134077 1_555
Fe2 O18 2.144919 1_545
Fe2 O5 2.178388 1_554
Fe2 O3 2.209019 1_555
Fe2 O12 2.223678 1_554
Fe3 O16 2.094528 1_555
Fe3 O7 2.119280 1_655
Fe3 O22 2.179411 1_565
Fe3 O9 2.197152 1_555
Fe3 O1 2.208898 1_555
Fe3 O14 2.210952 1_555
O0 Sb3 2.012432 1_555
O1 Sb2 2.009249 1_555
O2 Sb1 2.010808 1_555
O3 Sb0 2.018500 1_555
O4 Sb3 2.015058 1_555
O5 Sb2 2.018150 1_555
O6 Sb0 2.015077 1_555
O7 Sb1 2.026618 1_555
O8 Sb1 2.035711 1_555
O9 Sb0 2.023385 1_555
O10 Sb3 2.033746 1_554
O11 Sb2 2.036324 1_554
O12 Sb0 2.020854 1_555
O13 Sb1 2.013194 1_555
O14 Sb2 2.011765 1_554
O15 Sb3 2.015544 1_554
O16 Sb1 2.018820 1_555
O17 Sb0 2.008929 1_555
O18 Sb2 2.008171 1_554
O19 Sb3 2.005935 1_554
O20 Sb2 2.025426 1_555
O21 Sb3 2.022971 1_555
O22 Sb0 2.012609 1_555
O23 Sb1 2.023794 1_555
