# generated using pymatgen
data_MoS2
_symmetry_space_group_name_H-M   'P 1'
_cell_length_a   3.22746456
_cell_length_b   3.22746456
_cell_length_c   6.31247342
_cell_angle_alpha   90.00000000
_cell_angle_beta   90.00000000
_cell_angle_gamma   120.00001561
_symmetry_Int_Tables_number   1
_chemical_formula_structural   MoS2
_chemical_formula_sum   'Mo1 S2'
_cell_volume   56.94467130
_cell_formula_units_Z   1
loop_
 _symmetry_equiv_pos_site_id
 _symmetry_equiv_pos_as_xyz
  1  'x, y, z'
loop_
 _atom_site_type_symbol
 _atom_site_label
 _atom_site_symmetry_multiplicity
 _atom_site_fract_x
 _atom_site_fract_y
 _atom_site_fract_z
 _atom_site_occupancy
  Mo  Mo0  1  -0.00000000  0.00000000  0.50000000  1
  S  S0  1  0.33333300  0.66666700  0.25531932  1
  S  S1  1  0.66666700  0.33333300  0.74468068  1
loop_
_geom_bond_atom_site_label_1
_geom_bond_atom_site_label_2
_geom_bond_distance
_geom_bond_site_symmetry_2
Mo0 S0 2.420284 1_545
Mo0 S1 2.420284 1_455
Mo0 S0 2.420286 1_555
Mo0 S0 2.420286 1_445
Mo0 S1 2.420286 1_445
Mo0 S1 2.420286 1_555
