# generated using pymatgen
data_Ce3As2ClO7
_symmetry_space_group_name_H-M   'P 1'
_cell_length_a   5.62104440
_cell_length_b   12.91696338
_cell_length_c   12.91696338
_cell_angle_alpha   90.00000000
_cell_angle_beta   90.00000000
_cell_angle_gamma   90.00000000
_symmetry_Int_Tables_number   1
_chemical_formula_structural   Ce3As2ClO7
_chemical_formula_sum   'Ce12 As8 Cl4 O28'
_cell_volume   937.85969543
_cell_formula_units_Z   4
loop_
 _symmetry_equiv_pos_site_id
 _symmetry_equiv_pos_as_xyz
  1  'x, y, z'
loop_
 _atom_site_type_symbol
 _atom_site_label
 _atom_site_symmetry_multiplicity
 _atom_site_fract_x
 _atom_site_fract_y
 _atom_site_fract_z
 _atom_site_occupancy
  Ce  Ce0  1  0.50087554  0.22789567  0.77210433  1
  Ce  Ce1  1  0.50087554  0.77210433  0.22789567  1
  Ce  Ce2  1  0.00087554  0.72789567  0.72789567  1
  Ce  Ce3  1  0.00087554  0.27210433  0.27210433  1
  Ce  Ce4  1  0.52874078  0.94708706  0.63638854  1
  Ce  Ce5  1  0.52874078  0.05291294  0.36361146  1
  Ce  Ce6  1  0.02874078  0.44708706  0.86361146  1
  Ce  Ce7  1  0.02874078  0.55291294  0.13638854  1
  Ce  Ce8  1  0.52874078  0.36361146  0.05291294  1
  Ce  Ce9  1  0.52874078  0.63638854  0.94708706  1
  Ce  Ce10  1  0.02874078  0.86361146  0.44708706  1
  Ce  Ce11  1  0.02874078  0.13638854  0.55291294  1
  As  As0  1  0.49743617  0.29434349  0.48212759  1
  As  As1  1  0.49743617  0.70565651  0.51787241  1
  As  As2  1  0.99743617  0.79434349  0.01787241  1
  As  As3  1  0.99743617  0.20565651  0.98212759  1
  As  As4  1  0.49743617  0.51787241  0.70565651  1
  As  As5  1  0.49743617  0.48212759  0.29434349  1
  As  As6  1  0.99743617  0.01787241  0.79434349  1
  As  As7  1  0.99743617  0.98212759  0.20565651  1
  Cl  Cl0  1  0.96288360  0.33504730  0.66495270  1
  Cl  Cl1  1  0.96288360  0.66495270  0.33504730  1
  Cl  Cl2  1  0.46288360  0.83504730  0.83504730  1
  Cl  Cl3  1  0.46288360  0.16495270  0.16495270  1
  O  O0  1  0.77163220  -0.00000000  0.50000000  1
  O  O1  1  0.27163220  0.50000000  -0.00000000  1
  O  O2  1  0.77163220  0.50000000  -0.00000000  1
  O  O3  1  0.27163220  -0.00000000  0.50000000  1
  O  O4  1  0.45918614  0.21222691  0.59260815  1
  O  O5  1  0.45918614  0.78777309  0.40739185  1
  O  O6  1  0.95918614  0.71222691  0.90739185  1
  O  O7  1  0.95918614  0.28777309  0.09260815  1
  O  O8  1  0.45918614  0.40739185  0.78777309  1
  O  O9  1  0.45918614  0.59260815  0.21222691  1
  O  O10  1  0.95918614  0.90739185  0.71222691  1
  O  O11  1  0.95918614  0.09260815  0.28777309  1
  O  O12  1  0.74567759  0.22496533  0.42339592  1
  O  O13  1  0.74567759  0.77503467  0.57660408  1
  O  O14  1  0.24567759  0.72496533  0.07660408  1
  O  O15  1  0.24567759  0.27503467  0.92339592  1
  O  O16  1  0.74567759  0.57660408  0.77503467  1
  O  O17  1  0.74567759  0.42339592  0.22496533  1
  O  O18  1  0.24567759  0.07660408  0.72496533  1
  O  O19  1  0.24567759  0.92339592  0.27503467  1
  O  O20  1  0.26896866  0.77704007  0.59036368  1
  O  O21  1  0.26896866  0.22295993  0.40963632  1
  O  O22  1  0.76896866  0.27704007  0.90963632  1
  O  O23  1  0.76896866  0.72295993  0.09036368  1
  O  O24  1  0.26896866  0.40963632  0.22295993  1
  O  O25  1  0.26896866  0.59036368  0.77704007  1
  O  O26  1  0.76896866  0.90963632  0.27704007  1
  O  O27  1  0.76896866  0.09036368  0.72295993  1
loop_
_geom_bond_atom_site_label_1
_geom_bond_atom_site_label_2
_geom_bond_distance
_geom_bond_site_symmetry_2
Ce0 O4 2.339130 1_555
Ce0 O8 2.339130 1_555
Ce0 O27 2.414507 1_555
Ce0 O22 2.414507 1_555
Ce0 O18 2.499497 1_555
Ce0 O15 2.499497 1_555
Ce1 O5 2.339130 1_555
Ce1 O9 2.339130 1_555
Ce1 O23 2.414507 1_555
Ce1 O26 2.414507 1_555
Ce1 O14 2.499497 1_555
Ce1 O19 2.499497 1_555
Ce2 O6 2.339130 1_455
Ce2 O10 2.339130 1_455
Ce2 O20 2.414507 1_555
Ce2 O25 2.414507 1_555
Ce2 O13 2.499497 1_455
Ce2 O16 2.499497 1_455
Ce3 O7 2.339130 1_455
Ce3 O11 2.339130 1_455
Ce3 O24 2.414507 1_555
Ce3 O21 2.414507 1_555
Ce3 O17 2.499497 1_455
Ce3 O12 2.499497 1_455
Ce4 O0 2.331280 1_565
Ce4 O3 2.378965 1_565
Ce4 O27 2.549302 1_565
Ce4 O18 2.576725 1_565
Ce4 O13 2.649971 1_555
Ce4 O10 2.660217 1_555
Ce4 O20 2.703731 1_555
Ce4 Cl2 2.969203 1_555
Ce5 O0 2.331280 1_555
Ce5 O3 2.378965 1_555
Ce5 O26 2.549302 1_545
Ce5 O19 2.576725 1_545
Ce5 O12 2.649971 1_555
Ce5 O11 2.660217 1_555
Ce5 O21 2.703731 1_555
Ce5 Cl3 2.969203 1_555
Ce6 O1 2.331280 1_556
Ce6 O2 2.378965 1_456
Ce6 O25 2.549302 1_555
Ce6 O16 2.576725 1_455
Ce6 O15 2.649971 1_555
Ce6 O8 2.660217 1_555
Ce6 O22 2.703731 1_455
Ce6 Cl0 2.969203 1_455
Ce7 O1 2.331280 1_555
Ce7 O2 2.378965 1_455
Ce7 O24 2.549302 1_555
Ce7 O17 2.576725 1_455
Ce7 O14 2.649971 1_555
Ce7 O9 2.660217 1_555
Ce7 O23 2.703731 1_455
Ce7 Cl1 2.969203 1_455
Ce8 O2 2.331280 1_555
Ce8 O1 2.378965 1_555
Ce8 O22 2.549302 1_554
Ce8 O15 2.576725 1_554
Ce8 O17 2.649971 1_555
Ce8 O7 2.660217 1_555
Ce8 O24 2.703731 1_555
Ce8 Cl3 2.969203 1_555
Ce9 O2 2.331280 1_556
Ce9 O1 2.378965 1_556
Ce9 O23 2.549302 1_556
Ce9 O14 2.576725 1_556
Ce9 O16 2.649971 1_555
Ce9 O6 2.660217 1_555
Ce9 O25 2.703731 1_555
Ce9 Cl2 2.969203 1_555
Ce10 O3 2.331280 1_565
Ce10 O0 2.378965 1_465
Ce10 O20 2.549302 1_555
Ce10 O13 2.576725 1_455
Ce10 O19 2.649971 1_555
Ce10 O5 2.660217 1_555
Ce10 O26 2.703731 1_455
Ce10 Cl1 2.969203 1_455
Ce11 O3 2.331280 1_555
Ce11 O0 2.378965 1_455
Ce11 O21 2.549302 1_555
Ce11 O12 2.576725 1_455
Ce11 O18 2.649971 1_555
Ce11 O4 2.660217 1_555
Ce11 O27 2.703731 1_455
Ce11 Cl0 2.969203 1_455
As0 O4 1.791045 1_555
As0 O12 1.823649 1_555
As0 O21 1.837447 1_555
As1 O5 1.791045 1_555
As1 O13 1.823649 1_555
As1 O20 1.837447 1_555
As2 O6 1.791045 1_554
As2 O14 1.823649 1_655
As2 O23 1.837447 1_555
As3 O7 1.791045 1_556
As3 O15 1.823649 1_655
As3 O22 1.837447 1_555
As4 O8 1.791045 1_555
As4 O16 1.823649 1_555
As4 O25 1.837447 1_555
As5 O9 1.791045 1_555
As5 O17 1.823649 1_555
As5 O24 1.837447 1_555
As6 O10 1.791045 1_545
As6 O18 1.823649 1_655
As6 O27 1.837447 1_555
As7 O11 1.791045 1_565
As7 O19 1.823649 1_655
As7 O26 1.837447 1_555
