# generated using pymatgen
data_MnZn(GeO3)2
_symmetry_space_group_name_H-M   'P 1'
_cell_length_a   5.55624692
_cell_length_b   7.01325886
_cell_length_c   13.77435349
_cell_angle_alpha   92.34652984
_cell_angle_beta   98.89270942
_cell_angle_gamma   75.89025162
_symmetry_Int_Tables_number   1
_chemical_formula_structural   MnZn(GeO3)2
_chemical_formula_sum   'Mn4 Zn4 Ge8 O24'
_cell_volume   514.29693157
_cell_formula_units_Z   4
loop_
 _symmetry_equiv_pos_site_id
 _symmetry_equiv_pos_as_xyz
  1  'x, y, z'
loop_
 _atom_site_type_symbol
 _atom_site_label
 _atom_site_symmetry_multiplicity
 _atom_site_fract_x
 _atom_site_fract_y
 _atom_site_fract_z
 _atom_site_occupancy
  Mn  Mn0  1  0.30163700  0.89760700  0.55153900  1
  Mn  Mn1  1  0.19832800  0.10243200  0.94859800  1
  Mn  Mn2  1  0.80085200  0.89772300  0.05120300  1
  Mn  Mn3  1  0.69920200  0.10183300  0.44889000  1
  Zn  Zn0  1  0.13302900  0.23443600  0.38274100  1
  Zn  Zn1  1  0.63233100  0.23469600  0.88265100  1
  Zn  Zn2  1  0.36682000  0.76561000  0.11725300  1
  Zn  Zn3  1  0.86764100  0.76520000  0.61731400  1
  Ge  Ge0  1  0.83925200  0.39031200  0.10929900  1
  Ge  Ge1  1  0.33969000  0.39021900  0.60932400  1
  Ge  Ge2  1  0.07501400  0.78122000  0.30495900  1
  Ge  Ge3  1  0.57505000  0.78120900  0.80502700  1
  Ge  Ge4  1  0.66068700  0.60969500  0.39070700  1
  Ge  Ge5  1  0.16050700  0.60976400  0.89062400  1
  Ge  Ge6  1  0.42487100  0.21888400  0.19501100  1
  Ge  Ge7  1  0.92507600  0.21885700  0.69502900  1
  O  O0  1  0.69848000  0.31451400  0.20466100  1
  O  O1  1  0.19867800  0.31458500  0.70472400  1
  O  O2  1  0.34912400  0.59038500  0.34265000  1
  O  O3  1  0.84883600  0.59029600  0.84283500  1
  O  O4  1  0.80155800  0.68544900  0.29535000  1
  O  O5  1  0.30155100  0.68537600  0.79525100  1
  O  O6  1  0.15090900  0.40973300  0.15718400  1
  O  O7  1  0.65129600  0.40979500  0.65717100  1
  O  O8  1  0.41810700  0.14064800  0.31369700  1
  O  O9  1  0.91755100  0.14068100  0.81364100  1
  O  O10  1  0.82561400  0.37229300  0.42974500  1
  O  O11  1  0.32499300  0.37234600  0.92966600  1
  O  O12  1  0.08175100  0.85939900  0.18624000  1
  O  O13  1  0.58260400  0.85933000  0.68640000  1
  O  O14  1  0.67421600  0.62767400  0.07025400  1
  O  O15  1  0.17504200  0.62767700  0.57033500  1
  O  O16  1  0.86597400  0.20320000  0.01768300  1
  O  O17  1  0.36666800  0.20295400  0.51786900  1
  O  O18  1  0.05033100  0.96425300  0.39857800  1
  O  O19  1  0.54980500  0.96442800  0.89850600  1
  O  O20  1  0.63385200  0.79678900  0.48232300  1
  O  O21  1  0.13335100  0.79704100  0.98210800  1
  O  O22  1  0.44963500  0.03580500  0.10143800  1
  O  O23  1  0.95008700  0.03565200  0.60152200  1
loop_
_geom_bond_atom_site_label_1
_geom_bond_atom_site_label_2
_geom_bond_distance
_geom_bond_site_symmetry_2
Mn0 O23 2.160063 1_465
Mn0 O20 2.160719 1_555
Mn0 O15 2.211616 1_555
Mn0 O13 2.213561 1_555
Mn0 O17 2.332805 1_565
Mn0 O18 2.336715 1_555
Mn1 O19 2.160320 1_545
Mn1 O16 2.160325 1_456
Mn1 O11 2.212100 1_555
Mn1 O9 2.213961 1_455
Mn1 O21 2.332407 1_545
Mn1 O22 2.335343 1_556
Mn2 O22 2.160087 1_565
Mn2 O21 2.161021 1_654
Mn2 O14 2.213232 1_555
Mn2 O12 2.215133 1_655
Mn2 O19 2.333191 1_554
Mn2 O16 2.333354 1_565
Mn3 O18 2.159389 1_645
Mn3 O17 2.160603 1_555
Mn3 O10 2.215522 1_555
Mn3 O8 2.217255 1_555
Mn3 O20 2.330635 1_545
Mn3 O23 2.331757 1_555
Ge0 O14 1.754382 1_555
Ge0 O16 1.778745 1_555
Ge0 O0 1.788108 1_555
Ge0 O6 1.790728 1_655
Ge1 O15 1.754215 1_555
Ge1 O17 1.777969 1_555
Ge1 O1 1.788867 1_555
Ge1 O7 1.790675 1_555
Ge2 O12 1.754567 1_555
Ge2 O18 1.778426 1_555
Ge2 O2 1.788572 1_555
Ge2 O4 1.790338 1_455
Ge3 O13 1.754323 1_555
Ge3 O19 1.777984 1_555
Ge3 O3 1.788057 1_555
Ge3 O5 1.790646 1_555
Ge4 O10 1.754443 1_555
Ge4 O20 1.778666 1_555
Ge4 O4 1.788261 1_555
Ge4 O2 1.790525 1_555
Ge5 O11 1.753956 1_555
Ge5 O21 1.778317 1_555
Ge5 O5 1.788608 1_555
Ge5 O3 1.790614 1_455
Ge6 O8 1.754315 1_555
Ge6 O22 1.778201 1_555
Ge6 O6 1.788469 1_555
Ge6 O0 1.790514 1_555
Ge7 O9 1.754226 1_555
Ge7 O23 1.778172 1_555
Ge7 O7 1.788265 1_555
Ge7 O1 1.790831 1_655
O8 Zn0 1.937162 1_555
O9 Zn1 1.937711 1_555
O10 Zn0 1.938285 1_655
O11 Zn1 1.937614 1_555
O12 Zn2 1.936649 1_555
O13 Zn3 1.937616 1_555
O14 Zn2 1.938318 1_555
O15 Zn3 1.937435 1_455
O16 Zn1 2.083482 1_554
O17 Zn0 2.084532 1_555
O18 Zn0 2.082923 1_565
O19 Zn1 2.083106 1_565
O20 Zn3 2.083396 1_555
O21 Zn2 2.084289 1_556
O22 Zn2 2.083249 1_545
O23 Zn3 2.083998 1_545
