# generated using pymatgen
data_K3TmCl6
_symmetry_space_group_name_H-M   'P 1'
_cell_length_a   7.71697644
_cell_length_b   12.39596034
_cell_length_c   12.95343177
_cell_angle_alpha   71.14075323
_cell_angle_beta   90.00000000
_cell_angle_gamma   90.00000000
_symmetry_Int_Tables_number   1
_chemical_formula_structural   K3TmCl6
_chemical_formula_sum   'K12 Tm4 Cl24'
_cell_volume   1172.59531528
_cell_formula_units_Z   4
loop_
 _symmetry_equiv_pos_site_id
 _symmetry_equiv_pos_as_xyz
  1  'x, y, z'
loop_
 _atom_site_type_symbol
 _atom_site_label
 _atom_site_symmetry_multiplicity
 _atom_site_fract_x
 _atom_site_fract_y
 _atom_site_fract_z
 _atom_site_occupancy
  K  K0  1  0.43645211  0.73503156  0.31453865  1
  K  K1  1  0.56354789  0.26496844  0.68546135  1
  K  K2  1  0.93645211  0.76496844  0.68546135  1
  K  K3  1  0.06354789  0.23503156  0.31453865  1
  K  K4  1  0.96281658  0.64134480  0.09864023  1
  K  K5  1  0.03718342  0.35865520  0.90135977  1
  K  K6  1  0.46281658  0.85865520  0.90135977  1
  K  K7  1  0.53718342  0.14134480  0.09864023  1
  K  K8  1  0.92998294  0.88743588  0.31999182  1
  K  K9  1  0.07001706  0.11256412  0.68000818  1
  K  K10  1  0.42998294  0.61256412  0.68000818  1
  K  K11  1  0.57001706  0.38743588  0.31999182  1
  Tm  Tm0  1  0.00000000  0.50000000  0.50000000  1
  Tm  Tm1  1  0.50000000  0.00000000  0.50000000  1
  Tm  Tm2  1  0.00000000  0.00000000  -0.00000000  1
  Tm  Tm3  1  0.50000000  0.50000000  -0.00000000  1
  Cl  Cl0  1  0.49665515  0.63168643  0.11726158  1
  Cl  Cl1  1  0.50334485  0.36831357  0.88273842  1
  Cl  Cl2  1  0.99665515  0.86831357  0.88273842  1
  Cl  Cl3  1  0.00334485  0.13168643  0.11726158  1
  Cl  Cl4  1  0.29036292  0.99543266  0.34572190  1
  Cl  Cl5  1  0.70963708  0.00456734  0.65427810  1
  Cl  Cl6  1  0.79036292  0.50456734  0.65427810  1
  Cl  Cl7  1  0.20963708  0.49543266  0.34572190  1
  Cl  Cl8  1  0.78762403  0.60823209  0.34518149  1
  Cl  Cl9  1  0.21237597  0.39176791  0.65481851  1
  Cl  Cl10  1  0.28762403  0.89176791  0.65481851  1
  Cl  Cl11  1  0.71237597  0.10823209  0.34518149  1
  Cl  Cl12  1  0.63850147  0.80743079  0.50018003  1
  Cl  Cl13  1  0.36149853  0.19256921  0.49981997  1
  Cl  Cl14  1  0.13850147  0.69256921  0.49981997  1
  Cl  Cl15  1  0.86149853  0.30743079  0.50018003  1
  Cl  Cl16  1  0.17327225  0.84348365  0.14180383  1
  Cl  Cl17  1  0.82672775  0.15651635  0.85819617  1
  Cl  Cl18  1  0.67327225  0.65651635  0.85819617  1
  Cl  Cl19  1  0.32672775  0.34348365  0.14180383  1
  Cl  Cl20  1  0.71342348  0.90772937  0.10060282  1
  Cl  Cl21  1  0.28657652  0.09227063  0.89939718  1
  Cl  Cl22  1  0.21342348  0.59227063  0.89939718  1
  Cl  Cl23  1  0.78657652  0.40772937  0.10060282  1
loop_
_geom_bond_atom_site_label_1
_geom_bond_atom_site_label_2
_geom_bond_distance
_geom_bond_site_symmetry_2
Cl0 Tm3 2.564268 1_555
Cl0 K0 3.240907 1_555
Cl0 K6 3.273907 1_554
Cl0 K11 3.353139 1_555
Cl0 K4 3.604833 1_555
Cl1 Tm3 2.564268 1_556
Cl1 K1 3.240907 1_555
Cl1 K7 3.273907 1_556
Cl1 K10 3.353139 1_555
Cl1 K5 3.604833 1_555
Cl2 Tm2 2.564268 1_666
Cl2 K2 3.240907 1_555
Cl2 K4 3.273907 1_556
Cl2 K9 3.353139 1_665
Cl2 K6 3.604833 1_655
Cl3 Tm2 2.564268 1_555
Cl3 K3 3.240907 1_555
Cl3 K5 3.273907 1_554
Cl3 K8 3.353139 1_445
Cl3 K7 3.604833 1_455
Cl4 Tm1 2.585970 1_565
Cl4 K8 3.150544 1_455
Cl4 K3 3.357448 1_565
Cl4 K0 3.563218 1_555
Cl4 K7 3.660666 1_565
Cl5 Tm1 2.585970 1_555
Cl5 K9 3.150544 1_655
Cl5 K2 3.357448 1_545
Cl5 K1 3.563218 1_555
Cl5 K6 3.660666 1_545
Cl6 Tm0 2.585970 1_655
Cl6 K10 3.150544 1_555
Cl6 K1 3.357448 1_555
Cl6 K2 3.563218 1_555
Cl6 K5 3.660666 1_655
Cl7 Tm0 2.585970 1_555
Cl7 K11 3.150544 1_555
Cl7 K0 3.357448 1_555
Cl7 K3 3.563218 1_555
Cl7 K4 3.660666 1_455
Cl8 Tm0 2.601601 1_655
Cl8 K0 3.093346 1_555
Cl8 K11 3.315844 1_555
Cl8 K4 3.368623 1_555
Cl8 K8 3.544260 1_555
Cl9 Tm0 2.601601 1_555
Cl9 K1 3.093346 1_555
Cl9 K10 3.315844 1_555
Cl9 K5 3.368623 1_555
Cl9 K9 3.544260 1_555
Cl10 Tm1 2.601601 1_565
Cl10 K2 3.093346 1_455
Cl10 K9 3.315844 1_565
Cl10 K6 3.368623 1_555
Cl10 K10 3.544260 1_555
Cl11 Tm1 2.601601 1_555
Cl11 K3 3.093346 1_655
Cl11 K8 3.315844 1_545
Cl11 K7 3.368623 1_555
Cl11 K11 3.544260 1_555
Cl12 Tm1 2.614750 1_565
Cl12 K8 3.161406 1_555
Cl12 K10 3.195723 1_555
Cl12 K0 3.227121 1_555
Cl12 K2 3.241478 1_555
Cl13 Tm1 2.614750 1_555
Cl13 K9 3.161406 1_555
Cl13 K11 3.195723 1_555
Cl13 K1 3.227121 1_555
Cl13 K3 3.241478 1_555
Cl14 Tm0 2.614750 1_555
Cl14 K10 3.161406 1_555
Cl14 K8 3.195723 1_455
Cl14 K2 3.227121 1_455
Cl14 K0 3.241478 1_555
Cl15 Tm0 2.614750 1_655
Cl15 K11 3.161406 1_555
Cl15 K9 3.195723 1_655
Cl15 K3 3.227121 1_655
Cl15 K1 3.241478 1_555
Cl16 Tm2 2.573373 1_565
Cl16 K0 2.998980 1_555
Cl16 K8 3.156298 1_455
Cl16 K4 3.183478 1_455
Cl17 Tm2 2.573373 1_656
Cl17 K1 2.998980 1_555
Cl17 K9 3.156298 1_655
Cl17 K5 3.183478 1_655
Cl18 Tm3 2.573373 1_556
Cl18 K2 2.998980 1_555
Cl18 K10 3.156298 1_555
Cl18 K6 3.183478 1_555
Cl19 Tm3 2.573373 1_555
Cl19 K3 2.998980 1_555
Cl19 K11 3.156298 1_555
Cl19 K7 3.183478 1_555
Cl20 Tm2 2.633171 1_665
Cl20 K7 3.192010 1_565
Cl20 K8 3.235742 1_555
Cl20 K6 3.433085 1_554
Cl20 K0 3.604931 1_555
Cl21 Tm2 2.633171 1_556
Cl21 K6 3.192010 1_545
Cl21 K9 3.235742 1_555
Cl21 K7 3.433085 1_556
Cl21 K1 3.604931 1_555
Cl22 Tm3 2.633171 1_556
Cl22 K5 3.192010 1_555
Cl22 K10 3.235742 1_555
Cl22 K4 3.433085 1_456
Cl22 K2 3.604931 1_455
Cl23 Tm3 2.633171 1_555
Cl23 K4 3.192010 1_555
Cl23 K11 3.235742 1_555
Cl23 K5 3.433085 1_654
Cl23 K3 3.604931 1_655
