# generated using pymatgen
data_Sr2Ga2S5
_symmetry_space_group_name_H-M   'P 1'
_cell_length_a   11.30702300
_cell_length_b   12.14725800
_cell_length_c   12.65366100
_cell_angle_alpha   90.00000000
_cell_angle_beta   90.00000000
_cell_angle_gamma   90.00000000
_symmetry_Int_Tables_number   1
_chemical_formula_structural   Sr2Ga2S5
_chemical_formula_sum   'Sr16 Ga16 S40'
_cell_volume   1737.97180463
_cell_formula_units_Z   8
loop_
 _symmetry_equiv_pos_site_id
 _symmetry_equiv_pos_as_xyz
  1  'x, y, z'
loop_
 _atom_site_type_symbol
 _atom_site_label
 _atom_site_symmetry_multiplicity
 _atom_site_fract_x
 _atom_site_fract_y
 _atom_site_fract_z
 _atom_site_occupancy
  Sr  Sr0  1  0.74712800  0.25347800  0.68988400  1
  Sr  Sr1  1  0.24712800  0.74652200  0.81011600  1
  Sr  Sr2  1  0.75287200  0.75347800  0.31011600  1
  Sr  Sr3  1  0.25287200  0.24652200  0.18988400  1
  Sr  Sr4  1  0.25287200  0.74652200  0.31011600  1
  Sr  Sr5  1  0.75287200  0.25347800  0.18988400  1
  Sr  Sr6  1  0.24712800  0.24652200  0.68988400  1
  Sr  Sr7  1  0.74712800  0.75347800  0.81011600  1
  Sr  Sr8  1  0.49790300  0.47767800  0.80181500  1
  Sr  Sr9  1  0.99790300  0.52232200  0.69818500  1
  Sr  Sr10  1  0.00209700  0.97767800  0.19818500  1
  Sr  Sr11  1  0.50209700  0.02232200  0.30181500  1
  Sr  Sr12  1  0.50209700  0.52232200  0.19818500  1
  Sr  Sr13  1  0.00209700  0.47767800  0.30181500  1
  Sr  Sr14  1  0.99790300  0.02232200  0.80181500  1
  Sr  Sr15  1  0.49790300  0.97767800  0.69818500  1
  Ga  Ga0  1  0.55923200  0.29513000  0.45089500  1
  Ga  Ga1  1  0.05923200  0.70487000  0.04910500  1
  Ga  Ga2  1  0.94076800  0.79513000  0.54910500  1
  Ga  Ga3  1  0.44076800  0.20487000  0.95089500  1
  Ga  Ga4  1  0.44076800  0.70487000  0.54910500  1
  Ga  Ga5  1  0.94076800  0.29513000  0.95089500  1
  Ga  Ga6  1  0.05923200  0.20487000  0.45089500  1
  Ga  Ga7  1  0.55923200  0.79513000  0.04910500  1
  Ga  Ga8  1  0.77605200  0.53611400  0.02863300  1
  Ga  Ga9  1  0.27605200  0.46388600  0.47136700  1
  Ga  Ga10  1  0.72394800  0.03611400  0.97136700  1
  Ga  Ga11  1  0.22394800  0.96388600  0.52863300  1
  Ga  Ga12  1  0.22394800  0.46388600  0.97136700  1
  Ga  Ga13  1  0.72394800  0.53611400  0.52863300  1
  Ga  Ga14  1  0.27605200  0.96388600  0.02863300  1
  Ga  Ga15  1  0.77605200  0.03611400  0.47136700  1
  S  S0  1  0.75034600  0.36162500  0.46180700  1
  S  S1  1  0.25034600  0.63837500  0.03819300  1
  S  S2  1  0.74965400  0.86162500  0.53819300  1
  S  S3  1  0.24965400  0.13837500  0.96180700  1
  S  S4  1  0.24965400  0.63837500  0.53819300  1
  S  S5  1  0.74965400  0.36162500  0.96180700  1
  S  S6  1  0.25034600  0.13837500  0.46180700  1
  S  S7  1  0.75034600  0.86162500  0.03819300  1
  S  S8  1  0.23496000  0.48612500  0.79371200  1
  S  S9  1  0.73496000  0.51387500  0.70628800  1
  S  S10  1  0.26504000  0.98612500  0.20628800  1
  S  S11  1  0.76504000  0.01387500  0.29371200  1
  S  S12  1  0.76504000  0.51387500  0.20628800  1
  S  S13  1  0.26504000  0.48612500  0.29371200  1
  S  S14  1  0.73496000  0.01387500  0.79371200  1
  S  S15  1  0.23496000  0.98612500  0.70628800  1
  S  S16  1  0.42820800  0.38264700  0.56300500  1
  S  S17  1  0.00751700  0.22526000  0.28045600  1
  S  S18  1  0.92820800  0.61735300  0.93699500  1
  S  S19  1  0.57179200  0.11735300  0.06300500  1
  S  S20  1  0.57179200  0.61735300  0.43699500  1
  S  S21  1  0.07179200  0.38264700  0.06300500  1
  S  S22  1  0.92820800  0.11735300  0.56300500  1
  S  S23  1  0.42820800  0.88264700  0.93699500  1
  S  S24  1  0.90366900  0.11951100  0.02367900  1
  S  S25  1  0.40366900  0.88048900  0.47632100  1
  S  S26  1  0.59633100  0.61951100  0.97632100  1
  S  S27  1  0.09633100  0.38048900  0.52367900  1
  S  S28  1  0.09633100  0.88048900  0.97632100  1
  S  S29  1  0.59633100  0.11951100  0.52367900  1
  S  S30  1  0.40366900  0.38048900  0.02367900  1
  S  S31  1  0.90366900  0.61951100  0.47632100  1
  S  S32  1  0.00751700  0.72526000  0.21954400  1
  S  S33  1  0.50751700  0.27474000  0.28045600  1
  S  S34  1  0.49248300  0.22526000  0.78045600  1
  S  S35  1  0.99248300  0.77474000  0.71954400  1
  S  S36  1  0.99248300  0.27474000  0.78045600  1
  S  S37  1  0.49248300  0.72526000  0.71954400  1
  S  S38  1  0.50751700  0.77474000  0.21954400  1
  S  S39  1  0.07179200  0.88264700  0.43699500  1
loop_
_geom_bond_atom_site_label_1
_geom_bond_atom_site_label_2
_geom_bond_distance
_geom_bond_site_symmetry_2
Ga0 S33 2.248228 1_555
Ga0 S16 2.310284 1_555
Ga0 S0 2.311086 1_555
Ga0 S29 2.361164 1_555
Ga1 S32 2.248228 1_555
Ga1 S18 2.310284 1_454
Ga1 S1 2.311086 1_555
Ga1 S28 2.361164 1_554
Ga2 S35 2.248228 1_555
Ga2 S39 2.310284 1_655
Ga2 S2 2.311086 1_555
Ga2 S31 2.361164 1_555
Ga3 S34 2.248228 1_555
Ga3 S19 2.310284 1_556
Ga3 S3 2.311086 1_555
Ga3 S30 2.361164 1_556
Ga4 S37 2.248228 1_555
Ga4 S20 2.310284 1_555
Ga4 S4 2.311086 1_555
Ga4 S25 2.361164 1_555
Ga5 S36 2.248228 1_555
Ga5 S21 2.310284 1_656
Ga5 S5 2.311086 1_555
Ga5 S24 2.361164 1_556
Ga6 S17 2.248228 1_555
Ga6 S22 2.310284 1_455
Ga6 S6 2.311086 1_555
Ga6 S27 2.361164 1_555
Ga7 S38 2.248228 1_555
Ga7 S23 2.310284 1_554
Ga7 S7 2.311086 1_555
Ga7 S26 2.361164 1_554
Ga8 S12 2.267581 1_555
Ga8 S18 2.297453 1_554
Ga8 S5 2.301449 1_554
Ga8 S26 2.365141 1_554
Ga9 S13 2.267581 1_555
Ga9 S16 2.297453 1_555
Ga9 S4 2.301449 1_555
Ga9 S27 2.365141 1_555
Ga10 S14 2.267581 1_555
Ga10 S19 2.297453 1_556
Ga10 S7 2.301449 1_546
Ga10 S24 2.365141 1_556
Ga11 S15 2.267581 1_555
Ga11 S39 2.297453 1_555
Ga11 S6 2.301449 1_565
Ga11 S25 2.365141 1_555
Ga12 S8 2.267581 1_555
Ga12 S21 2.297453 1_556
Ga12 S1 2.301449 1_556
Ga12 S30 2.365141 1_556
Ga13 S9 2.267581 1_555
Ga13 S20 2.297453 1_555
Ga13 S0 2.301449 1_555
Ga13 S31 2.365141 1_555
Ga14 S10 2.267581 1_555
Ga14 S23 2.297453 1_554
Ga14 S3 2.301449 1_564
Ga14 S28 2.365141 1_554
Ga15 S11 2.267581 1_555
Ga15 S22 2.297453 1_555
Ga15 S2 2.301449 1_545
Ga15 S29 2.365141 1_555
S0 Sr0 3.171144 1_555
S1 Sr1 3.171144 1_554
S2 Sr2 3.171144 1_555
S3 Sr3 3.171144 1_556
S4 Sr4 3.171144 1_555
S5 Sr5 3.171144 1_556
S6 Sr6 3.171144 1_555
S7 Sr7 3.171144 1_554
S8 Sr9 2.973052 1_455
S8 Sr8 2.976639 1_555
S8 Sr1 3.172897 1_555
S8 Sr6 3.196269 1_555
S9 Sr8 2.973052 1_555
S9 Sr9 2.976639 1_555
S9 Sr0 3.172897 1_555
S9 Sr7 3.196269 1_555
S10 Sr11 2.973052 1_565
S10 Sr10 2.976639 1_555
S10 Sr3 3.172897 1_565
S10 Sr4 3.196269 1_555
S11 Sr10 2.973052 1_645
S11 Sr11 2.976639 1_555
S11 Sr2 3.172897 1_545
S11 Sr5 3.196269 1_555
S12 Sr13 2.973052 1_655
S12 Sr12 2.976639 1_555
S12 Sr5 3.172897 1_555
S12 Sr2 3.196269 1_555
S13 Sr12 2.973052 1_555
S13 Sr13 2.976639 1_555
S13 Sr4 3.172897 1_555
S13 Sr3 3.196269 1_555
S14 Sr15 2.973052 1_545
S14 Sr14 2.976639 1_555
S14 Sr7 3.172897 1_545
S14 Sr0 3.196269 1_555
S15 Sr14 2.973052 1_465
S15 Sr15 2.976639 1_555
S15 Sr6 3.172897 1_565
S15 Sr1 3.196269 1_555
S16 Sr6 3.082847 1_555
S16 Sr8 3.329410 1_555
S17 Sr3 3.012732 1_555
S17 Sr13 3.078685 1_555
S17 Sr5 3.117884 1_455
S17 Sr10 3.183113 1_545
S18 Sr7 3.082847 1_555
S18 Sr9 3.329410 1_555
S19 Sr5 3.082847 1_555
S19 Sr11 3.329410 1_555
S20 Sr2 3.082847 1_555
S20 Sr12 3.329410 1_555
S21 Sr3 3.082847 1_555
S21 Sr13 3.329410 1_555
S22 Sr0 3.082847 1_555
S22 Sr14 3.329410 1_555
S23 Sr1 3.082847 1_555
S23 Sr15 3.329410 1_555
S24 Sr10 3.013770 1_645
S24 Sr5 3.158875 1_555
S24 Sr14 3.226534 1_554
S25 Sr11 3.013770 1_565
S25 Sr4 3.158875 1_555
S25 Sr15 3.226534 1_555
S26 Sr8 3.013770 1_555
S26 Sr7 3.158875 1_555
S26 Sr12 3.226534 1_556
S27 Sr9 3.013770 1_455
S27 Sr6 3.158875 1_555
S27 Sr13 3.226534 1_555
S28 Sr14 3.013770 1_465
S28 Sr1 3.158875 1_555
S28 Sr10 3.226534 1_556
S29 Sr15 3.013770 1_545
S29 Sr0 3.158875 1_555
S29 Sr11 3.226534 1_555
S30 Sr12 3.013770 1_555
S30 Sr3 3.158875 1_555
S30 Sr8 3.226534 1_554
S31 Sr13 3.013770 1_655
S31 Sr2 3.158875 1_555
S31 Sr9 3.226534 1_555
S32 Sr4 3.012732 1_555
S32 Sr10 3.078685 1_555
S32 Sr2 3.117884 1_455
S32 Sr13 3.183113 1_555
S33 Sr5 3.012732 1_555
S33 Sr11 3.078685 1_555
S33 Sr3 3.117884 1_555
S33 Sr12 3.183113 1_555
S34 Sr6 3.012732 1_555
S34 Sr8 3.078685 1_555
S34 Sr0 3.117884 1_555
S34 Sr15 3.183113 1_545
S35 Sr7 3.012732 1_555
S35 Sr9 3.078685 1_555
S35 Sr1 3.117884 1_655
S35 Sr14 3.183113 1_565
S36 Sr0 3.012732 1_555
S36 Sr14 3.078685 1_555
S36 Sr6 3.117884 1_655
S36 Sr9 3.183113 1_555
S37 Sr1 3.012732 1_555
S37 Sr15 3.078685 1_555
S37 Sr7 3.117884 1_555
S37 Sr8 3.183113 1_555
S38 Sr2 3.012732 1_555
S38 Sr12 3.078685 1_555
S38 Sr4 3.117884 1_555
S38 Sr11 3.183113 1_565
S39 Sr4 3.082847 1_555
S39 Sr10 3.329410 1_555
