# generated using pymatgen
data_LaNi3Rh2
_symmetry_space_group_name_H-M   'P 1'
_cell_length_a   5.07538117
_cell_length_b   5.07538064
_cell_length_c   3.98705639
_cell_angle_alpha   90.00000000
_cell_angle_beta   90.00000000
_cell_angle_gamma   116.88844450
_symmetry_Int_Tables_number   1
_chemical_formula_structural   LaNi3Rh2
_chemical_formula_sum   'La1 Ni3 Rh2'
_cell_volume   91.60102877
_cell_formula_units_Z   1
loop_
 _symmetry_equiv_pos_site_id
 _symmetry_equiv_pos_as_xyz
  1  'x, y, z'
loop_
 _atom_site_type_symbol
 _atom_site_label
 _atom_site_symmetry_multiplicity
 _atom_site_fract_x
 _atom_site_fract_y
 _atom_site_fract_z
 _atom_site_occupancy
  La  La0  1  0.50000000  0.50000000  0.00000000  1
  Ni  Ni0  1  0.15585777  0.84414223  -0.00000000  1
  Ni  Ni1  1  0.84414223  0.15585777  0.00000000  1
  Ni  Ni2  1  -0.00000000  -0.00000000  0.50000000  1
  Rh  Rh0  1  -0.00000000  0.50000000  0.50000000  1
  Rh  Rh1  1  0.50000000  -0.00000000  0.50000000  1
loop_
_geom_bond_atom_site_label_1
_geom_bond_atom_site_label_2
_geom_bond_distance
_geom_bond_site_symmetry_2
La0 Ni0 2.976755 1_555
La0 Ni1 2.976755 1_555
La0 Ni1 2.978638 1_565
La0 Ni0 2.978638 1_545
La0 Ni0 2.978639 1_655
La0 Ni1 2.978639 1_455
La0 Rh1 3.227077 1_555
La0 Rh1 3.227077 1_564
La0 Rh1 3.227077 1_554
La0 Rh1 3.227077 1_565
La0 Rh0 3.227077 1_554
La0 Rh0 3.227077 1_655
La0 Rh0 3.227077 1_654
La0 Rh0 3.227077 1_555
La0 Ni2 3.320990 1_554
La0 Ni2 3.320990 1_664
La0 Ni2 3.320990 1_555
La0 Ni2 3.320990 1_665
Ni0 Ni2 2.406579 1_565
Ni0 Ni2 2.406579 1_564
Ni0 Rh0 2.530012 1_554
Ni0 Rh0 2.530012 1_555
Ni0 Rh1 2.530012 1_564
Ni0 Rh1 2.530012 1_565
Ni1 Ni2 2.406579 1_654
Ni1 Ni2 2.406579 1_655
Ni1 Rh0 2.530012 1_654
Ni1 Rh0 2.530012 1_655
Ni1 Rh1 2.530012 1_555
Ni1 Rh1 2.530012 1_554
Ni2 Rh0 2.537690 1_555
Ni2 Rh0 2.537690 1_545
Ni2 Rh1 2.537691 1_555
Ni2 Rh1 2.537691 1_455
Rh0 Rh1 2.656091 1_565
Rh0 Rh1 2.656091 1_455
