# generated using pymatgen
data_YMg
_symmetry_space_group_name_H-M   'P 1'
_cell_length_a   7.52825400
_cell_length_b   11.00631800
_cell_length_c   11.07599800
_cell_angle_alpha   90.00000000
_cell_angle_beta   90.00000000
_cell_angle_gamma   90.00000000
_symmetry_Int_Tables_number   1
_chemical_formula_structural   YMg
_chemical_formula_sum   'Y16 Mg16'
_cell_volume   917.73900205
_cell_formula_units_Z   16
loop_
 _symmetry_equiv_pos_site_id
 _symmetry_equiv_pos_as_xyz
  1  'x, y, z'
loop_
 _atom_site_type_symbol
 _atom_site_label
 _atom_site_symmetry_multiplicity
 _atom_site_fract_x
 _atom_site_fract_y
 _atom_site_fract_z
 _atom_site_occupancy
  Y  Y0_0  1  0.25000000  0.00000000  0.29396000  1
  Y  Y0_1  1  0.25000000  0.00000000  0.79396000  1
  Y  Y0_2  1  0.25000000  0.50000000  0.29396000  1
  Y  Y0_3  1  0.25000000  0.50000000  0.79396000  1
  Y  Y0_4  1  0.75000000  0.00000000  0.29396000  1
  Y  Y0_5  1  0.75000000  0.00000000  0.79396000  1
  Y  Y0_6  1  0.75000000  0.50000000  0.29396000  1
  Y  Y0_7  1  0.75000000  0.50000000  0.79396000  1
  Y  Y1_0  1  0.00000000  0.25000000  0.20604000  1
  Y  Y1_1  1  0.00000000  0.25000000  0.70604000  1
  Y  Y1_2  1  0.00000000  0.75000000  0.20604000  1
  Y  Y1_3  1  0.00000000  0.75000000  0.70604000  1
  Y  Y1_4  1  0.50000000  0.25000000  0.20604000  1
  Y  Y1_5  1  0.50000000  0.25000000  0.70604000  1
  Y  Y1_6  1  0.50000000  0.75000000  0.20604000  1
  Y  Y1_7  1  0.50000000  0.75000000  0.70604000  1
  Mg  Mg0_0  1  0.00000000  0.00000000  0.04161450  1
  Mg  Mg0_1  1  0.00000000  0.00000000  0.54161450  1
  Mg  Mg0_2  1  0.00000000  0.50000000  0.04161450  1
  Mg  Mg0_3  1  0.00000000  0.50000000  0.54161450  1
  Mg  Mg0_4  1  0.50000000  0.00000000  0.04161450  1
  Mg  Mg0_5  1  0.50000000  0.00000000  0.54161450  1
  Mg  Mg0_6  1  0.50000000  0.50000000  0.04161450  1
  Mg  Mg0_7  1  0.50000000  0.50000000  0.54161450  1
  Mg  Mg1_0  1  0.25000000  0.25000000  0.45838550  1
  Mg  Mg1_1  1  0.25000000  0.25000000  0.95838550  1
  Mg  Mg1_2  1  0.25000000  0.75000000  0.45838550  1
  Mg  Mg1_3  1  0.25000000  0.75000000  0.95838550  1
  Mg  Mg1_4  1  0.75000000  0.25000000  0.45838550  1
  Mg  Mg1_5  1  0.75000000  0.25000000  0.95838550  1
  Mg  Mg1_6  1  0.75000000  0.75000000  0.45838550  1
  Mg  Mg1_7  1  0.75000000  0.75000000  0.95838550  1
loop_
_geom_bond_atom_site_label_1
_geom_bond_atom_site_label_2
_geom_bond_distance
_geom_bond_site_symmetry_2
Y0_0 Y1_2 3.472988 1_545
Y0_0 Y1_0 3.472988 1_555
Y0_0 Y1_4 3.472988 1_555
Y0_0 Y1_6 3.472988 1_545
Y0_0 Y0_4 3.764127 1_555
Y0_0 Y0_4 3.764127 1_455
Y0_1 Y1_1 3.472988 1_555
Y0_1 Y1_7 3.472988 1_545
Y0_1 Y1_5 3.472988 1_555
Y0_1 Y1_3 3.472988 1_545
Y0_1 Y0_5 3.764127 1_555
Y0_1 Y0_5 3.764127 1_455
Y0_2 Y1_0 3.472988 1_555
Y0_2 Y1_2 3.472988 1_555
Y0_2 Y1_6 3.472988 1_555
Y0_2 Y1_4 3.472988 1_555
Y0_2 Y0_6 3.764127 1_555
Y0_2 Y0_6 3.764127 1_455
Y0_3 Y1_1 3.472988 1_555
Y0_3 Y1_7 3.472988 1_555
Y0_3 Y1_5 3.472988 1_555
Y0_3 Y1_3 3.472988 1_555
Y0_3 Y0_7 3.764127 1_555
Y0_3 Y0_7 3.764127 1_455
Y0_4 Y1_4 3.472988 1_555
Y0_4 Y1_6 3.472988 1_545
Y0_4 Y1_0 3.472988 1_655
Y0_4 Y1_2 3.472988 1_645
Y0_5 Y1_7 3.472988 1_545
Y0_5 Y1_5 3.472988 1_555
Y0_5 Y1_1 3.472988 1_655
Y0_5 Y1_3 3.472988 1_645
Y0_6 Y1_6 3.472988 1_555
Y0_6 Y1_4 3.472988 1_555
Y0_6 Y1_2 3.472988 1_655
Y0_6 Y1_0 3.472988 1_655
Y0_7 Y1_7 3.472988 1_555
Y0_7 Y1_5 3.472988 1_555
Y0_7 Y1_3 3.472988 1_655
Y0_7 Y1_1 3.472988 1_655
Y1_0 Y1_4 3.764127 1_555
Y1_0 Y1_4 3.764127 1_455
Y1_1 Y1_5 3.764127 1_555
Y1_1 Y1_5 3.764127 1_455
Y1_2 Y1_6 3.764127 1_555
Y1_2 Y1_6 3.764127 1_455
Y1_3 Y1_7 3.764127 1_555
Y1_3 Y1_7 3.764127 1_455
Mg0_0 Y1_0 3.299678 1_555
Mg0_0 Y1_2 3.299678 1_545
Mg0_0 Y0_1 3.326609 1_554
Mg0_0 Y0_5 3.326609 1_454
Mg0_0 Y0_0 3.369580 1_555
Mg0_0 Y0_4 3.369580 1_455
Mg0_0 Mg1_1 3.458779 1_554
Mg0_0 Mg1_3 3.458779 1_544
Mg0_0 Mg1_7 3.458779 1_444
Mg0_0 Mg1_5 3.458779 1_454
Mg0_1 Y1_1 3.299678 1_555
Mg0_1 Y1_3 3.299678 1_545
Mg0_1 Y0_0 3.326609 1_555
Mg0_1 Y0_4 3.326609 1_455
Mg0_1 Y0_1 3.369580 1_555
Mg0_1 Y0_5 3.369580 1_455
Mg0_1 Mg1_0 3.458779 1_555
Mg0_1 Mg1_2 3.458779 1_545
Mg0_1 Mg1_4 3.458779 1_455
Mg0_1 Mg1_6 3.458779 1_445
Mg0_2 Y1_2 3.299678 1_555
Mg0_2 Y1_0 3.299678 1_555
Mg0_2 Y0_3 3.326609 1_554
Mg0_2 Y0_7 3.326609 1_454
Mg0_2 Y0_2 3.369580 1_555
Mg0_2 Y0_6 3.369580 1_455
Mg0_2 Mg1_1 3.458779 1_554
Mg0_2 Mg1_3 3.458779 1_554
Mg0_2 Mg1_7 3.458779 1_454
Mg0_2 Mg1_5 3.458779 1_454
Mg0_3 Y1_1 3.299678 1_555
Mg0_3 Y1_3 3.299678 1_555
Mg0_3 Y0_2 3.326609 1_555
Mg0_3 Y0_6 3.326609 1_455
Mg0_3 Y0_3 3.369580 1_555
Mg0_3 Y0_7 3.369580 1_455
Mg0_3 Mg1_0 3.458779 1_555
Mg0_3 Mg1_2 3.458779 1_555
Mg0_3 Mg1_4 3.458779 1_455
Mg0_3 Mg1_6 3.458779 1_455
Mg0_4 Y1_4 3.299678 1_555
Mg0_4 Y1_6 3.299678 1_545
Mg0_4 Y0_5 3.326609 1_554
Mg0_4 Y0_1 3.326609 1_554
Mg0_4 Y0_0 3.369580 1_555
Mg0_4 Y0_4 3.369580 1_555
Mg0_4 Mg1_1 3.458779 1_554
Mg0_4 Mg1_3 3.458779 1_544
Mg0_4 Mg1_5 3.458779 1_554
Mg0_4 Mg1_7 3.458779 1_544
Mg0_5 Y1_7 3.299678 1_545
Mg0_5 Y1_5 3.299678 1_555
Mg0_5 Y0_4 3.326609 1_555
Mg0_5 Y0_0 3.326609 1_555
Mg0_5 Y0_1 3.369580 1_555
Mg0_5 Y0_5 3.369580 1_555
Mg0_5 Mg1_0 3.458779 1_555
Mg0_5 Mg1_4 3.458779 1_555
Mg0_5 Mg1_2 3.458779 1_545
Mg0_5 Mg1_6 3.458779 1_545
Mg0_6 Y1_4 3.299678 1_555
Mg0_6 Y1_6 3.299678 1_555
Mg0_6 Y0_3 3.326609 1_554
Mg0_6 Y0_7 3.326609 1_554
Mg0_6 Y0_2 3.369580 1_555
Mg0_6 Y0_6 3.369580 1_555
Mg0_6 Mg1_7 3.458779 1_554
Mg0_6 Mg1_1 3.458779 1_554
Mg0_6 Mg1_5 3.458779 1_554
Mg0_6 Mg1_3 3.458779 1_554
Mg0_7 Y1_7 3.299678 1_555
Mg0_7 Y1_5 3.299678 1_555
Mg0_7 Y0_2 3.326609 1_555
Mg0_7 Y0_6 3.326609 1_555
Mg0_7 Y0_3 3.369580 1_555
Mg0_7 Y0_7 3.369580 1_555
Mg0_7 Mg1_6 3.458779 1_555
Mg0_7 Mg1_0 3.458779 1_555
Mg0_7 Mg1_4 3.458779 1_555
Mg0_7 Mg1_2 3.458779 1_555
Mg1_0 Y0_2 3.299678 1_555
Mg1_0 Y0_0 3.299678 1_555
Mg1_0 Y1_1 3.326609 1_555
Mg1_0 Y1_5 3.326609 1_555
Mg1_0 Y1_4 3.369580 1_555
Mg1_0 Y1_0 3.369580 1_555
Mg1_1 Y0_1 3.299678 1_555
Mg1_1 Y0_3 3.299678 1_555
Mg1_1 Y1_0 3.326609 1_556
Mg1_1 Y1_4 3.326609 1_556
Mg1_1 Y1_1 3.369580 1_555
Mg1_1 Y1_5 3.369580 1_555
Mg1_2 Y0_2 3.299678 1_555
Mg1_2 Y0_0 3.299678 1_565
Mg1_2 Y1_7 3.326609 1_555
Mg1_2 Y1_3 3.326609 1_555
Mg1_2 Y1_6 3.369580 1_555
Mg1_2 Y1_2 3.369580 1_555
Mg1_3 Y0_1 3.299678 1_565
Mg1_3 Y0_3 3.299678 1_555
Mg1_3 Y1_2 3.326609 1_556
Mg1_3 Y1_6 3.326609 1_556
Mg1_3 Y1_7 3.369580 1_555
Mg1_3 Y1_3 3.369580 1_555
Mg1_4 Y0_4 3.299678 1_555
Mg1_4 Y0_6 3.299678 1_555
Mg1_4 Y1_5 3.326609 1_555
Mg1_4 Y1_1 3.326609 1_655
Mg1_4 Y1_4 3.369580 1_555
Mg1_4 Y1_0 3.369580 1_655
Mg1_5 Y0_7 3.299678 1_555
Mg1_5 Y0_5 3.299678 1_555
Mg1_5 Y1_4 3.326609 1_556
Mg1_5 Y1_0 3.326609 1_656
Mg1_5 Y1_5 3.369580 1_555
Mg1_5 Y1_1 3.369580 1_655
Mg1_6 Y0_4 3.299678 1_565
Mg1_6 Y0_6 3.299678 1_555
Mg1_6 Y1_7 3.326609 1_555
Mg1_6 Y1_3 3.326609 1_655
Mg1_6 Y1_6 3.369580 1_555
Mg1_6 Y1_2 3.369580 1_655
Mg1_7 Y0_7 3.299678 1_555
Mg1_7 Y0_5 3.299678 1_565
Mg1_7 Y1_6 3.326609 1_556
Mg1_7 Y1_2 3.326609 1_656
Mg1_7 Y1_7 3.369580 1_555
Mg1_7 Y1_3 3.369580 1_655
