# generated using pymatgen
data_Na3Co(Mo3O16)2
_symmetry_space_group_name_H-M   'P 1'
_cell_length_a   6.89659000
_cell_length_b   10.97355681
_cell_length_c   11.37083718
_cell_angle_alpha   113.27241423
_cell_angle_beta   107.51784975
_cell_angle_gamma   93.76407044
_symmetry_Int_Tables_number   1
_chemical_formula_structural   Na3Co(Mo3O16)2
_chemical_formula_sum   'Na3 Co1 Mo6 O32'
_cell_volume   736.94441486
_cell_formula_units_Z   1
loop_
 _symmetry_equiv_pos_site_id
 _symmetry_equiv_pos_as_xyz
  1  'x, y, z'
loop_
 _atom_site_type_symbol
 _atom_site_label
 _atom_site_symmetry_multiplicity
 _atom_site_fract_x
 _atom_site_fract_y
 _atom_site_fract_z
 _atom_site_occupancy
  Na  Na0  1  0.64338300  0.59198400  0.45126200  1
  Na  Na1  1  0.35661700  0.40801600  0.54873800  1
  Na  Na2  1  0.50000000  0.50000000  0.00000000  1
  Co  Co0  1  0.00000000  0.00000000  0.00000000  1
  Mo  Mo0  1  0.62299100  0.71920600  0.82076300  1
  Mo  Mo1  1  0.37700900  0.28079400  0.17923700  1
  Mo  Mo2  1  0.56085100  0.98453600  0.73893600  1
  Mo  Mo3  1  0.43914900  0.01546400  0.26106400  1
  Mo  Mo4  1  0.93814200  0.26395500  0.91365900  1
  Mo  Mo5  1  0.06185800  0.73604500  0.08634100  1
  O  O0  1  0.87866700  0.90218700  0.82117300  1
  O  O1  1  0.12133300  0.09781300  0.17882700  1
  O  O2  1  0.83484100  0.86716500  0.01900600  1
  O  O3  1  0.16515900  0.13283500  0.98099400  1
  O  O4  1  0.78954400  0.08925600  0.95243600  1
  O  O5  1  0.21045600  0.91074400  0.04756400  1
  O  O6  1  0.48039900  0.85651400  0.80863400  1
  O  O7  1  0.51960100  0.14348600  0.19136600  1
  O  O8  1  0.89982300  0.67778700  0.88757300  1
  O  O9  1  0.10017700  0.32221300  0.11242700  1
  O  O10  1  0.78114600  0.10979600  0.74307900  1
  O  O11  1  0.21885400  0.89020400  0.25692100  1
  O  O12  1  0.58480900  0.61903900  0.64558200  1
  O  O13  1  0.41519100  0.38096100  0.35441800  1
  O  O14  1  0.46672500  0.61990900  0.85850400  1
  O  O15  1  0.53327500  0.38009100  0.14149600  1
  O  O16  1  0.48784200  0.86562900  0.56665600  1
  O  O17  1  0.51215800  0.13437100  0.43334400  1
  O  O18  1  0.36746400  0.07501500  0.75065600  1
  O  O19  1  0.63253600  0.92498500  0.24934400  1
  O  O20  1  0.75685300  0.36655400  0.93443300  1
  O  O21  1  0.24314700  0.63344600  0.06556700  1
  O  O22  1  0.11581000  0.33832600  0.86825100  1
  O  O23  1  0.88419000  0.66167400  0.13174900  1
  O  O24  1  0.01021000  0.21820500  0.44978100  1
  O  O25  1  0.98979000  0.78179500  0.55021900  1
  O  O26  1  0.98762000  0.47913900  0.54171300  1
  O  O27  1  0.01238000  0.52086100  0.45828700  1
  O  O28  1  0.00263000  0.85256600  0.49083600  1
  O  O29  1  0.99737000  0.14743400  0.50916400  1
  O  O30  1  0.51419400  0.74557100  0.37068300  1
  O  O31  1  0.48580600  0.25442900  0.62931700  1
loop_
_geom_bond_atom_site_label_1
_geom_bond_atom_site_label_2
_geom_bond_distance
_geom_bond_site_symmetry_2
Na0 O12 2.273387 1_555
Na0 O30 2.323763 1_555
Na0 O13 2.348373 1_555
Na0 O25 2.681115 1_555
Na0 O27 2.698017 1_655
Na0 O26 2.854797 1_555
Na1 O13 2.273387 1_555
Na1 O31 2.323763 1_555
Na1 O12 2.348373 1_555
Na1 O24 2.681115 1_555
Na1 O26 2.698017 1_455
Na1 O27 2.854797 1_555
Na2 O15 2.421366 1_555
Na2 O14 2.421366 1_554
Na2 O21 2.472055 1_555
Na2 O20 2.472055 1_554
Na2 O23 2.702821 1_555
Na2 O22 2.702821 1_554
Co0 O1 1.766388 1_555
Co0 O0 1.766388 1_444
Co0 O5 1.868467 1_545
Co0 O4 1.868467 1_454
Co0 O3 1.909984 1_554
Co0 O2 1.909984 1_445
Mo0 O14 1.739736 1_555
Mo0 O12 1.778055 1_555
Mo0 O6 1.879766 1_555
Mo0 O8 1.985542 1_555
Mo0 O2 2.160074 1_556
Mo0 O0 2.581449 1_555
Mo1 O15 1.739736 1_555
Mo1 O13 1.778055 1_555
Mo1 O7 1.879766 1_555
Mo1 O9 1.985542 1_555
Mo1 O3 2.160074 1_554
Mo1 O1 2.581449 1_555
Mo2 O18 1.720074 1_565
Mo2 O16 1.758904 1_555
Mo2 O10 1.957391 1_565
Mo2 O6 1.987901 1_555
Mo2 O4 2.225807 1_565
Mo2 O0 2.487797 1_555
Mo3 O19 1.720074 1_545
Mo3 O17 1.758904 1_555
Mo3 O11 1.957391 1_545
Mo3 O7 1.987901 1_555
Mo3 O5 2.225807 1_545
Mo3 O1 2.487797 1_555
Mo4 O22 1.736822 1_655
Mo4 O20 1.743285 1_555
Mo4 O10 1.923187 1_555
Mo4 O9 2.002432 1_656
Mo4 O3 2.356360 1_655
Mo4 O4 2.366824 1_555
Mo5 O23 1.736822 1_455
Mo5 O21 1.743285 1_555
Mo5 O11 1.923187 1_555
Mo5 O8 2.002432 1_454
Mo5 O2 2.356360 1_455
Mo5 O5 2.366824 1_555
O24 O29 1.228109 1_455
O25 O28 1.228109 1_655
O26 O27 1.252643 1_655
