# generated using pymatgen
data_Na2Zn(SnS3)2
_symmetry_space_group_name_H-M   'P 1'
_cell_length_a   13.68824954
_cell_length_b   12.55741615
_cell_length_c   7.56466652
_cell_angle_alpha   81.66368656
_cell_angle_beta   65.18853732
_cell_angle_gamma   33.14777612
_symmetry_Int_Tables_number   1
_chemical_formula_structural   Na2Zn(SnS3)2
_chemical_formula_sum   'Na4 Zn2 Sn4 S12'
_cell_volume   586.93923856
_cell_formula_units_Z   2
loop_
 _symmetry_equiv_pos_site_id
 _symmetry_equiv_pos_as_xyz
  1  'x, y, z'
loop_
 _atom_site_type_symbol
 _atom_site_label
 _atom_site_symmetry_multiplicity
 _atom_site_fract_x
 _atom_site_fract_y
 _atom_site_fract_z
 _atom_site_occupancy
  Na  Na0  1  0.28966000  0.30516600  0.54944900  1
  Na  Na1  1  0.85572400  0.54944900  0.30516600  1
  Na  Na2  1  0.70055100  0.39427600  0.96034000  1
  Na  Na3  1  0.94483400  0.96034000  0.39427600  1
  Zn  Zn0  1  0.58391600  0.91608400  0.91608400  1
  Zn  Zn1  1  0.33391600  0.66608400  0.66608400  1
  Sn  Sn0  1  0.82695400  0.95023300  0.92578100  1
  Sn  Sn1  1  0.29703200  0.92578100  0.95023300  1
  Sn  Sn2  1  0.32421900  0.95296800  0.42304600  1
  Sn  Sn3  1  0.29976700  0.42304600  0.95296800  1
  S  S0  1  0.88161000  0.77523700  0.69375200  1
  S  S1  1  0.64940000  0.69375200  0.77523700  1
  S  S2  1  0.55624800  0.60060000  0.36839000  1
  S  S3  1  0.47476300  0.36839000  0.60060000  1
  S  S4  1  0.44412700  0.32737200  0.16490900  1
  S  S5  1  0.06359300  0.16490900  0.32737200  1
  S  S6  1  0.08509100  0.18640700  0.80587300  1
  S  S7  1  0.92262800  0.80587300  0.18640700  1
  S  S8  1  0.98892600  0.97834000  0.72011600  1
  S  S9  1  0.31261900  0.72011600  0.97834000  1
  S  S10  1  0.52988400  0.93738100  0.26107400  1
  S  S11  1  0.27166000  0.26107400  0.93738100  1
loop_
_geom_bond_atom_site_label_1
_geom_bond_atom_site_label_2
_geom_bond_distance
_geom_bond_site_symmetry_2
Na0 S11 2.851224 1_555
Na0 S10 2.893467 1_545
Na0 S4 2.932625 1_555
Na0 S0 2.962204 1_455
Na1 S10 2.851224 1_555
Na1 S11 2.893467 1_654
Na1 S5 2.932614 1_655
Na1 S1 2.962204 1_555
Na2 S9 2.851224 1_555
Na2 S8 2.893467 1_545
Na2 S6 2.932611 1_655
Na2 S2 2.962204 1_556
Na3 S8 2.851224 1_555
Na3 S9 2.893467 1_654
Na3 S7 2.932635 1_555
Na3 S3 2.962204 1_565
S0 Zn0 2.367240 1_555
S0 Sn0 2.394339 1_555
S1 Zn0 2.367251 1_555
S1 Sn1 2.394328 1_555
S2 Zn1 2.367247 1_555
S2 Sn2 2.394329 1_555
S3 Zn1 2.367239 1_555
S3 Sn3 2.394333 1_555
S4 Sn3 2.458359 1_554
S4 Sn0 2.476377 1_544
S5 Sn2 2.458350 1_545
S5 Sn1 2.476380 1_544
S6 Sn1 2.458356 1_545
S6 Sn2 2.476374 1_545
S7 Sn0 2.458352 1_554
S7 Sn3 2.476376 1_654
S8 Zn1 2.383377 1_655
S8 Sn0 2.390994 1_555
S9 Zn1 2.383384 1_555
S9 Sn1 2.390984 1_555
S10 Zn0 2.383377 1_554
S10 Sn2 2.390984 1_555
S11 Zn0 2.383380 1_545
S11 Sn3 2.390996 1_555
