# generated using pymatgen
data_ZnFe2H28(S2O15)2
_symmetry_space_group_name_H-M   'P 1'
_cell_length_a   6.37796700
_cell_length_b   6.51198857
_cell_length_c   15.55751254
_cell_angle_alpha   94.32037348
_cell_angle_beta   89.97490883
_cell_angle_gamma   100.47247915
_symmetry_Int_Tables_number   1
_chemical_formula_structural   ZnFe2H28(S2O15)2
_chemical_formula_sum   'Zn1 Fe2 H28 S4 O30'
_cell_volume   633.52719686
_cell_formula_units_Z   1
loop_
 _symmetry_equiv_pos_site_id
 _symmetry_equiv_pos_as_xyz
  1  'x, y, z'
loop_
 _atom_site_type_symbol
 _atom_site_label
 _atom_site_symmetry_multiplicity
 _atom_site_fract_x
 _atom_site_fract_y
 _atom_site_fract_z
 _atom_site_occupancy
  Zn  Zn0  1  0.00000000  0.00000000  0.00000000  1
  Fe  Fe0  1  0.59335800  0.33626800  0.67985900  1
  Fe  Fe1  1  0.40664200  0.66373200  0.32014100  1
  H  H0  1  0.79919600  0.33907300  0.98934400  1
  H  H1  1  0.20080400  0.66092700  0.01065600  1
  H  H2  1  0.84821400  0.25870000  0.89270300  1
  H  H3  1  0.15178600  0.74130000  0.10729700  1
  H  H4  1  0.32311900  0.26341600  0.93693000  1
  H  H5  1  0.67688100  0.73658400  0.06307000  1
  H  H6  1  0.37132800  0.03492600  0.90765300  1
  H  H7  1  0.62867200  0.96507400  0.09234700  1
  H  H8  1  0.23954200  0.18454100  0.13907300  1
  H  H9  1  0.76045800  0.81545900  0.86092700  1
  H  H10  1  0.00979600  0.24967400  0.15688900  1
  H  H11  1  0.99020400  0.75032600  0.84311100  1
  H  H12  1  0.96788900  0.37711500  0.76005100  1
  H  H13  1  0.03211100  0.62288500  0.23994900  1
  H  H14  1  0.90288900  0.13652400  0.72047300  1
  H  H15  1  0.09711100  0.86347600  0.27952700  1
  H  H16  1  0.46430600  0.95372000  0.74532100  1
  H  H17  1  0.53569400  0.04628000  0.25467900  1
  H  H18  1  0.27990600  0.00389900  0.68440500  1
  H  H19  1  0.72009400  0.99610100  0.31559500  1
  H  H20  1  0.79258200  0.28266700  0.52289000  1
  H  H21  1  0.20741800  0.71733300  0.47711000  1
  H  H22  1  0.71832500  0.06100900  0.56121700  1
  H  H23  1  0.28167500  0.93899100  0.43878300  1
  H  H24  1  0.30283900  0.30498800  0.55046600  1
  H  H25  1  0.69716100  0.69501200  0.44953400  1
  H  H26  1  0.24617600  0.48730800  0.61620900  1
  H  H27  1  0.75382400  0.51269200  0.38379100  1
  S  S0  1  0.36034300  0.59475100  0.83395700  1
  S  S1  1  0.63965700  0.40524900  0.16604300  1
  S  S2  1  0.91027400  0.76175400  0.61333800  1
  S  S3  1  0.08972600  0.23824600  0.38666200  1
  O  O0  1  0.47913800  0.43638100  0.78952200  1
  O  O1  1  0.52086200  0.56361900  0.21047800  1
  O  O2  1  0.15465500  0.58468000  0.78739700  1
  O  O3  1  0.84534500  0.41532000  0.21260300  1
  O  O4  1  0.48851000  0.81090300  0.83013700  1
  O  O5  1  0.51149000  0.18909700  0.16986300  1
  O  O6  1  0.33292800  0.53970500  0.92362000  1
  O  O7  1  0.66707200  0.46029500  0.07638000  1
  O  O8  1  0.76379100  0.61812500  0.66822700  1
  O  O9  1  0.23620900  0.38187500  0.33177300  1
  O  O10  1  0.07583500  0.65208600  0.57564900  1
  O  O11  1  0.92416500  0.34791400  0.42435100  1
  O  O12  1  0.77872500  0.82647300  0.54459700  1
  O  O13  1  0.22127500  0.17352700  0.45540300  1
  O  O14  1  0.00867000  0.94823800  0.67021100  1
  O  O15  1  0.99133000  0.05176200  0.32978900  1
  O  O16  1  0.88885000  0.25951600  0.95314900  1
  O  O17  1  0.11115000  0.74048400  0.04685100  1
  O  O18  1  0.30566300  0.11640500  0.95203200  1
  O  O19  1  0.69433700  0.88359500  0.04796800  1
  O  O20  1  0.09210500  0.17033900  0.11721800  1
  O  O21  1  0.90789500  0.82966100  0.88278200  1
  O  O22  1  0.84413100  0.25743400  0.74904900  1
  O  O23  1  0.15586900  0.74256600  0.25095100  1
  O  O24  1  0.43704200  0.03662000  0.69608800  1
  O  O25  1  0.56295800  0.96338000  0.30391200  1
  O  O26  1  0.70089700  0.21178500  0.56753200  1
  O  O27  1  0.29910300  0.78821500  0.43246800  1
  O  O28  1  0.33514400  0.37724700  0.60937400  1
  O  O29  1  0.66485600  0.62275300  0.39062600  1
loop_
_geom_bond_atom_site_label_1
_geom_bond_atom_site_label_2
_geom_bond_distance
_geom_bond_site_symmetry_2
Fe0 O0 1.967338 1_555
Fe0 O8 1.976817 1_555
Fe0 O26 2.041824 1_555
Fe0 O28 2.047273 1_555
Fe0 O24 2.057208 1_555
Fe0 O22 2.088932 1_555
Fe1 O1 1.967338 1_555
Fe1 O9 1.976817 1_555
Fe1 O27 2.041824 1_555
Fe1 O29 2.047273 1_555
Fe1 O25 2.057208 1_555
Fe1 O23 2.088932 1_555
H0 O16 0.987881 1_555
H1 O17 0.987881 1_555
H2 O16 0.974932 1_555
H3 O17 0.974932 1_555
H4 O18 0.989548 1_555
H5 O19 0.989548 1_555
H6 O18 0.979260 1_555
H7 O19 0.979260 1_555
H8 O20 0.986074 1_555
H9 O21 0.986074 1_555
H10 O20 0.986749 1_555
H11 O21 0.986749 1_555
H12 O22 1.008030 1_555
H12 O2 1.659942 1_655
H13 O23 1.008030 1_555
H13 O3 1.659942 1_455
H14 O22 1.006186 1_555
H14 O14 1.650996 1_645
H15 O23 1.006186 1_555
H15 O15 1.650996 1_465
H16 O24 1.002436 1_565
H17 O25 1.002436 1_545
H18 O24 0.999777 1_555
H18 O14 1.712643 1_545
H19 O25 0.999777 1_555
H19 O15 1.712643 1_565
H20 O26 0.993572 1_555
H21 O27 0.993572 1_555
H22 O26 1.005570 1_555
H22 O12 1.643833 1_545
H23 O27 1.005570 1_555
H23 O13 1.643833 1_565
H24 O28 1.001858 1_555
H24 O13 1.684868 1_555
H25 O29 1.001858 1_555
H25 O12 1.684868 1_555
H26 O28 0.991604 1_555
H27 O29 0.991604 1_555
O0 S0 1.513845 1_555
O1 S1 1.513845 1_555
O2 S0 1.487414 1_555
O3 S1 1.487414 1_555
O4 S0 1.499103 1_555
O5 S1 1.499103 1_555
O6 S0 1.468756 1_555
O7 S1 1.468756 1_555
O8 S2 1.509583 1_555
O9 S3 1.509583 1_555
O10 S2 1.476260 1_455
O11 S3 1.476260 1_655
O12 S2 1.490806 1_555
O13 S3 1.490806 1_555
O14 S2 1.487612 1_455
O15 S3 1.487612 1_655
O16 Zn0 2.123999 1_656
O17 Zn0 2.123999 1_565
O18 Zn0 2.116327 1_556
O19 Zn0 2.116327 1_665
O20 Zn0 2.088155 1_555
O21 Zn0 2.088155 1_666
