# generated using pymatgen
data_Sr4LiMn2(GaO5)2
_symmetry_space_group_name_H-M   'P 1'
_cell_length_a   5.90295049
_cell_length_b   5.72568168
_cell_length_c   9.17242815
_cell_angle_alpha   71.19323033
_cell_angle_beta   72.28526760
_cell_angle_gamma   90.47774474
_symmetry_Int_Tables_number   1
_chemical_formula_structural   Sr4LiMn2(GaO5)2
_chemical_formula_sum   'Sr4 Li1 Mn2 Ga2 O10'
_cell_volume   277.59323963
_cell_formula_units_Z   1
loop_
 _symmetry_equiv_pos_site_id
 _symmetry_equiv_pos_as_xyz
  1  'x, y, z'
loop_
 _atom_site_type_symbol
 _atom_site_label
 _atom_site_symmetry_multiplicity
 _atom_site_fract_x
 _atom_site_fract_y
 _atom_site_fract_z
 _atom_site_occupancy
  Sr  Sr0  1  0.11681500  0.63513900  0.78308800  1
  Sr  Sr1  1  0.78544200  0.32902200  0.22566300  1
  Sr  Sr2  1  0.66304800  0.07823000  0.77435600  1
  Sr  Sr3  1  0.34147900  0.92664200  0.22208800  1
  Li  Li0  1  0.21892700  0.47326800  0.15947500  1
  Mn  Mn0  1  0.55067500  0.51166300  0.93920600  1
  Mn  Mn1  1  0.00592900  0.99762900  0.99835200  1
  Ga  Ga0  1  0.67788200  0.67182400  0.49317300  1
  Ga  Ga1  1  0.31905600  0.32245200  0.51654600  1
  O  O0  1  0.21358200  0.28202000  0.01317000  1
  O  O1  1  0.27698000  0.78409900  0.99615900  1
  O  O2  1  0.73663000  0.21295000  0.99634600  1
  O  O3  1  0.78544900  0.72554600  0.99635900  1
  O  O4  1  0.68823600  0.67821200  0.69236900  1
  O  O5  1  0.33664900  0.30334400  0.31596700  1
  O  O6  1  0.11864100  0.12135900  0.71281400  1
  O  O7  1  0.87836200  0.87729900  0.29617900  1
  O  O8  1  0.34431000  0.66820500  0.49884900  1
  O  O9  1  0.65619500  0.32966600  0.50555400  1
loop_
_geom_bond_atom_site_label_1
_geom_bond_atom_site_label_2
_geom_bond_distance
_geom_bond_site_symmetry_2
Li0 O5 1.791021 1_555
Li0 O1 1.867444 1_554
Li0 O0 1.993394 1_555
Li0 Mn0 2.294326 1_554
Mn0 O4 2.042319 1_555
Mn0 O2 2.051415 1_555
Mn0 O3 2.126706 1_555
Mn0 O0 2.169861 1_556
Mn0 O1 2.317354 1_555
Mn1 O2 2.020681 1_465
Mn1 O1 2.020906 1_555
Mn1 O3 2.029815 1_455
Mn1 O0 2.093618 1_566
Mn1 O6 2.353614 1_565
Mn1 O7 2.455689 1_456
Ga0 O7 1.831502 1_555
Ga0 O4 1.858606 1_555
Ga0 O9 1.926353 1_555
Ga0 O8 1.953605 1_555
Ga1 O6 1.819603 1_555
Ga1 O5 1.849676 1_555
Ga1 O8 1.934123 1_555
Ga1 O9 1.961190 1_555
O0 Sr3 2.602779 1_545
O0 Sr0 2.621016 1_554
O0 Sr1 2.758691 1_455
O1 Sr3 2.582835 1_556
O1 Sr2 2.659738 1_565
O1 Sr0 2.761639 1_555
O2 Sr1 2.493170 1_556
O2 Sr2 2.544608 1_555
O2 Sr3 2.687759 1_546
O2 Sr0 2.982539 1_655
O3 Sr0 2.502396 1_655
O3 Sr1 2.549401 1_556
O3 Sr2 2.648552 1_565
O4 Sr2 2.623286 1_565
O4 Sr0 2.883179 1_655
O4 Sr0 3.205709 1_555
O5 Sr1 2.511092 1_555
O5 Sr3 2.564760 1_545
O6 Sr2 2.566591 1_455
O6 Sr0 2.646545 1_545
O6 Sr0 3.207542 1_555
O7 Sr1 2.563149 1_565
O7 Sr3 2.597656 1_655
O8 Sr0 2.486637 1_555
O8 Sr3 2.497697 1_555
O9 Sr2 2.434402 1_555
O9 Sr1 2.446876 1_555
