# generated using pymatgen
data_Ba4In2Te2S5
_symmetry_space_group_name_H-M   'P 1'
_cell_length_a   8.51026100
_cell_length_b   8.51026100
_cell_length_c   11.17999500
_cell_angle_alpha   90.00000000
_cell_angle_beta   90.00000000
_cell_angle_gamma   90.00000000
_symmetry_Int_Tables_number   1
_chemical_formula_structural   Ba4In2Te2S5
_chemical_formula_sum   'Ba8 In4 Te4 S10'
_cell_volume   809.70602066
_cell_formula_units_Z   2
loop_
 _symmetry_equiv_pos_site_id
 _symmetry_equiv_pos_as_xyz
  1  'x, y, z'
loop_
 _atom_site_type_symbol
 _atom_site_label
 _atom_site_symmetry_multiplicity
 _atom_site_fract_x
 _atom_site_fract_y
 _atom_site_fract_z
 _atom_site_occupancy
  Ba  Ba0  1  0.65996300  0.15996300  0.00000000  1
  Ba  Ba1  1  0.34003700  0.84003700  0.00000000  1
  Ba  Ba2  1  0.84003700  0.65996300  0.00000000  1
  Ba  Ba3  1  0.15996300  0.34003700  0.00000000  1
  Ba  Ba4  1  0.50000000  0.50000000  0.71973500  1
  Ba  Ba5  1  0.00000000  0.00000000  0.71973500  1
  Ba  Ba6  1  0.50000000  0.50000000  0.28026500  1
  Ba  Ba7  1  0.00000000  0.00000000  0.28026500  1
  In  In0  1  0.50000000  0.00000000  0.66003800  1
  In  In1  1  0.00000000  0.50000000  0.66003800  1
  In  In2  1  0.50000000  0.00000000  0.33996200  1
  In  In3  1  0.00000000  0.50000000  0.33996200  1
  Te  Te0  1  0.68301400  0.18301400  0.50000000  1
  Te  Te1  1  0.31698600  0.81698600  0.50000000  1
  Te  Te2  1  0.81698600  0.68301400  0.50000000  1
  Te  Te3  1  0.18301400  0.31698600  0.50000000  1
  S  S0  1  0.65592900  0.84407100  0.80434700  1
  S  S1  1  0.34407100  0.15592900  0.80434700  1
  S  S2  1  0.84407100  0.34407100  0.80434700  1
  S  S3  1  0.15592900  0.65592900  0.80434700  1
  S  S4  1  0.34407100  0.15592900  0.19565300  1
  S  S5  1  0.65592900  0.84407100  0.19565300  1
  S  S6  1  0.15592900  0.65592900  0.19565300  1
  S  S7  1  0.84407100  0.34407100  0.19565300  1
  S  S8  1  0.50000000  0.50000000  0.00000000  1
  S  S9  1  0.00000000  0.00000000  0.00000000  1
loop_
_geom_bond_atom_site_label_1
_geom_bond_atom_site_label_2
_geom_bond_distance
_geom_bond_site_symmetry_2
Ba0 S2 3.113597 1_554
Ba0 S7 3.113597 1_555
Ba0 S9 3.198017 1_655
Ba0 S8 3.198017 1_555
Ba0 S0 3.465974 1_544
Ba0 S1 3.465974 1_554
Ba0 S4 3.465974 1_555
Ba0 S5 3.465974 1_545
Ba1 S3 3.113597 1_554
Ba1 S6 3.113597 1_555
Ba1 S9 3.198017 1_565
Ba1 S8 3.198017 1_555
Ba1 S1 3.465974 1_564
Ba1 S0 3.465974 1_554
Ba1 S4 3.465974 1_565
Ba1 S5 3.465974 1_555
Ba2 S0 3.113597 1_554
Ba2 S5 3.113597 1_555
Ba2 S9 3.198017 1_665
Ba2 S8 3.198017 1_555
Ba2 S3 3.465974 1_654
Ba2 S2 3.465974 1_554
Ba2 S6 3.465974 1_655
Ba2 S7 3.465974 1_555
Ba3 S1 3.113597 1_554
Ba3 S4 3.113597 1_555
Ba3 S9 3.198017 1_555
Ba3 S8 3.198017 1_555
Ba3 S2 3.465974 1_454
Ba3 S7 3.465974 1_455
Ba3 S3 3.465974 1_554
Ba3 S6 3.465974 1_555
Ba4 S8 3.133361 1_556
Ba4 S2 3.351079 1_555
Ba4 S0 3.351079 1_555
Ba4 S3 3.351079 1_555
Ba4 S1 3.351079 1_555
Ba4 Te0 3.967126 1_555
Ba4 Te1 3.967126 1_555
Ba4 Te2 3.967126 1_555
Ba4 Te3 3.967126 1_555
Ba5 S9 3.133361 1_556
Ba5 S2 3.351079 1_455
Ba5 S3 3.351079 1_545
Ba5 S0 3.351079 1_445
Ba5 S1 3.351079 1_555
Ba5 Te0 3.967126 1_455
Ba5 Te2 3.967126 1_445
Ba5 Te1 3.967126 1_545
Ba5 Te3 3.967126 1_555
Ba6 S8 3.133361 1_555
Ba6 S7 3.351079 1_555
Ba6 S4 3.351079 1_555
Ba6 S5 3.351079 1_555
Ba6 S6 3.351079 1_555
Ba6 Te0 3.967126 1_555
Ba6 Te1 3.967126 1_555
Ba6 Te2 3.967126 1_555
Ba6 Te3 3.967126 1_555
Ba7 S9 3.133361 1_555
Ba7 S6 3.351079 1_545
Ba7 S4 3.351079 1_555
Ba7 S5 3.351079 1_445
Ba7 S7 3.351079 1_455
Ba7 Te0 3.967126 1_455
Ba7 Te2 3.967126 1_445
Ba7 Te1 3.967126 1_545
Ba7 Te3 3.967126 1_555
In0 S1 2.474836 1_555
In0 S0 2.474836 1_545
In0 Te0 2.837766 1_555
In0 Te1 2.837766 1_545
In1 S3 2.474836 1_555
In1 S2 2.474836 1_455
In1 Te3 2.837766 1_555
In1 Te2 2.837766 1_455
In2 S5 2.474836 1_545
In2 S4 2.474836 1_555
In2 Te0 2.837766 1_555
In2 Te1 2.837766 1_545
In3 S7 2.474836 1_455
In3 S6 2.474836 1_555
In3 Te3 2.837766 1_555
In3 Te2 2.837766 1_455
