# generated using pymatgen
data_K3Ti2P5S18
_symmetry_space_group_name_H-M   'P 1'
_cell_length_a   12.00360863
_cell_length_b   12.00360863
_cell_length_c   20.85941990
_cell_angle_alpha   74.63926680
_cell_angle_beta   74.63926680
_cell_angle_gamma   30.17699988
_symmetry_Int_Tables_number   1
_chemical_formula_structural   K3Ti2P5S18
_chemical_formula_sum   'K6 Ti4 P10 S36'
_cell_volume   1452.84368969
_cell_formula_units_Z   2
loop_
 _symmetry_equiv_pos_site_id
 _symmetry_equiv_pos_as_xyz
  1  'x, y, z'
loop_
 _atom_site_type_symbol
 _atom_site_label
 _atom_site_symmetry_multiplicity
 _atom_site_fract_x
 _atom_site_fract_y
 _atom_site_fract_z
 _atom_site_occupancy
  K  K0  1  0.73006900  0.95836800  0.67323200  1
  K  K1  1  0.26993100  0.04163200  0.32676800  1
  K  K2  1  0.04163200  0.26993100  0.82676800  1
  K  K3  1  0.95836800  0.73006900  0.17323200  1
  K  K4  1  0.00000000  0.00000000  0.50000000  1
  K  K5  1  0.00000000  0.00000000  0.00000000  1
  Ti  Ti0  1  0.62363500  0.14180100  0.87115700  1
  Ti  Ti1  1  0.37636500  0.85819900  0.12884300  1
  Ti  Ti2  1  0.85819900  0.37636500  0.62884300  1
  Ti  Ti3  1  0.14180100  0.62363500  0.37115700  1
  P  P0  1  0.65186100  0.86063700  0.85870800  1
  P  P1  1  0.34813900  0.13936300  0.14129200  1
  P  P2  1  0.13936300  0.34813900  0.64129200  1
  P  P3  1  0.86063700  0.65186100  0.35870800  1
  P  P4  1  0.74608500  0.25391500  0.75000000  1
  P  P5  1  0.25391500  0.74608500  0.25000000  1
  P  P6  1  0.30305800  0.45144100  0.51617500  1
  P  P7  1  0.69694200  0.54855900  0.48382500  1
  P  P8  1  0.54855900  0.69694200  0.98382500  1
  P  P9  1  0.45144100  0.30305800  0.01617500  1
  S  S0  1  0.35729900  0.22177600  0.55271100  1
  S  S1  1  0.64270100  0.77822400  0.44728900  1
  S  S2  1  0.77822400  0.64270100  0.94728900  1
  S  S3  1  0.22177600  0.35729900  0.05271100  1
  S  S4  1  0.48760400  0.36022800  0.76354900  1
  S  S5  1  0.51239600  0.63977200  0.23645100  1
  S  S6  1  0.63977200  0.51239600  0.73645100  1
  S  S7  1  0.36022800  0.48760400  0.26354900  1
  S  S8  1  0.60064000  0.82109000  0.79158000  1
  S  S9  1  0.39936000  0.17891000  0.20842000  1
  S  S10  1  0.17891000  0.39936000  0.70842000  1
  S  S11  1  0.82109000  0.60064000  0.29158000  1
  S  S12  1  0.51412500  0.67615200  0.57412400  1
  S  S13  1  0.48587500  0.32384800  0.42587600  1
  S  S14  1  0.32384800  0.48587500  0.92587600  1
  S  S15  1  0.67615200  0.51412500  0.07412400  1
  S  S16  1  0.22138500  0.10518400  0.66372700  1
  S  S17  1  0.77861500  0.89481600  0.33627300  1
  S  S18  1  0.89481600  0.77861500  0.83627300  1
  S  S19  1  0.10518400  0.22138500  0.16372700  1
  S  S20  1  0.75075900  0.98411800  0.98634100  1
  S  S21  1  0.24924100  0.01588200  0.01365900  1
  S  S22  1  0.01588200  0.24924100  0.51365900  1
  S  S23  1  0.98411800  0.75075900  0.48634100  1
  S  S24  1  0.38436700  0.18194800  0.88407200  1
  S  S25  1  0.61563300  0.81805200  0.11592800  1
  S  S26  1  0.81805200  0.61563300  0.61592800  1
  S  S27  1  0.18194800  0.38436700  0.38407200  1
  S  S28  1  0.91097300  0.05040900  0.83486200  1
  S  S29  1  0.08902700  0.94959100  0.16513800  1
  S  S30  1  0.94959100  0.08902700  0.66513800  1
  S  S31  1  0.05040900  0.91097300  0.33486200  1
  S  S32  1  0.39082200  0.46592900  0.57708800  1
  S  S33  1  0.60917800  0.53407100  0.42291200  1
  S  S34  1  0.53407100  0.60917800  0.92291200  1
  S  S35  1  0.46592900  0.39082200  0.07708800  1
loop_
_geom_bond_atom_site_label_1
_geom_bond_atom_site_label_2
_geom_bond_distance
_geom_bond_site_symmetry_2
K0 S10 3.356434 1_565
K0 S8 3.385644 1_555
K0 S10 3.401792 1_655
K0 S18 3.525739 1_555
K0 S32 3.561182 1_565
K0 S4 3.595149 1_565
K0 S0 3.691430 1_565
K0 S26 3.727468 1_555
K1 S11 3.356434 1_545
K1 S9 3.385644 1_555
K1 S11 3.401792 1_455
K1 S19 3.525739 1_555
K1 S33 3.561182 1_545
K1 S5 3.595149 1_545
K1 S1 3.691430 1_545
K1 S27 3.727468 1_555
K2 S8 3.356434 1_455
K2 S10 3.385644 1_555
K2 S8 3.401792 1_545
K2 S16 3.525739 1_555
K2 S34 3.561182 1_455
K2 S6 3.595149 1_455
K2 S2 3.691430 1_455
K2 S24 3.727468 1_555
K3 S9 3.356434 1_655
K3 S11 3.385644 1_555
K3 S9 3.401792 1_565
K3 S17 3.525739 1_555
K3 S35 3.561182 1_655
K3 S7 3.595149 1_655
K3 S3 3.691430 1_655
K3 S25 3.727468 1_555
K4 S22 3.245742 1_555
K4 S23 3.245742 1_445
K4 S33 3.497026 1_455
K4 S32 3.497026 1_545
K4 S30 3.619663 1_455
K4 S31 3.619663 1_545
K5 S21 3.245742 1_555
K5 S20 3.245742 1_444
K5 S35 3.497026 1_455
K5 S34 3.497026 1_544
K5 S29 3.619663 1_545
K5 S28 3.619663 1_454
P0 S8 1.969001 1_555
P0 S24 2.057905 1_565
P0 S18 2.061571 1_555
P0 S2 2.149863 1_555
P1 S9 1.969001 1_555
P1 S25 2.057905 1_545
P1 S19 2.061571 1_555
P1 S3 2.149863 1_555
P2 S10 1.969001 1_555
P2 S26 2.057905 1_455
P2 S16 2.061571 1_555
P2 S0 2.149863 1_555
P3 S11 1.969001 1_555
P3 S27 2.057905 1_655
P3 S17 2.061571 1_555
P3 S1 2.149863 1_555
P4 S6 2.053272 1_555
P4 S4 2.053272 1_555
P4 S28 2.055274 1_555
P4 S30 2.055274 1_555
P5 S5 2.053272 1_555
P5 S7 2.053272 1_555
P5 S31 2.055274 1_555
P5 S29 2.055274 1_555
P6 S32 1.974212 1_555
P6 S13 2.058348 1_555
P6 S23 2.061238 1_455
P6 S0 2.156660 1_555
P7 S33 1.974212 1_555
P7 S12 2.058348 1_555
P7 S22 2.061238 1_655
P7 S1 2.156660 1_555
P8 S34 1.974212 1_555
P8 S15 2.058348 1_556
P8 S21 2.061238 1_566
P8 S2 2.156660 1_555
P9 S35 1.974212 1_555
P9 S14 2.058348 1_554
P9 S20 2.061238 1_544
P9 S3 2.156660 1_555
S4 Ti0 2.449668 1_555
S5 Ti1 2.449668 1_555
S6 Ti2 2.449668 1_555
S7 Ti3 2.449668 1_555
S12 Ti2 2.436242 1_555
S13 Ti3 2.436242 1_555
S14 Ti0 2.436242 1_555
S15 Ti1 2.436242 1_555
S16 Ti2 2.453841 1_455
S17 Ti3 2.453841 1_655
S18 Ti0 2.453841 1_565
S19 Ti1 2.453841 1_545
S20 Ti0 2.494656 1_565
S21 Ti1 2.494656 1_545
S22 Ti2 2.494656 1_455
S23 Ti3 2.494656 1_655
S24 Ti0 2.412365 1_555
S25 Ti1 2.412365 1_555
S26 Ti2 2.412365 1_555
S27 Ti3 2.412365 1_555
S28 Ti0 2.487476 1_555
S29 Ti1 2.487476 1_555
S30 Ti2 2.487476 1_555
S31 Ti3 2.487476 1_555
