# generated using pymatgen
data_Sn2GeTe3
_symmetry_space_group_name_H-M   'P 1'
_cell_length_a   4.38501700
_cell_length_b   12.28864900
_cell_length_c   14.33412802
_cell_angle_alpha   89.74494848
_cell_angle_beta   90.00000000
_cell_angle_gamma   90.00000000
_symmetry_Int_Tables_number   1
_chemical_formula_structural   Sn2GeTe3
_chemical_formula_sum   'Sn8 Ge4 Te12'
_cell_volume   772.40023462
_cell_formula_units_Z   4
loop_
 _symmetry_equiv_pos_site_id
 _symmetry_equiv_pos_as_xyz
  1  'x, y, z'
loop_
 _atom_site_type_symbol
 _atom_site_label
 _atom_site_symmetry_multiplicity
 _atom_site_fract_x
 _atom_site_fract_y
 _atom_site_fract_z
 _atom_site_occupancy
  Sn  Sn0  1  0.00000000  0.11667100  0.63541100  1
  Sn  Sn1  1  0.00000000  0.11686800  0.29980400  1
  Sn  Sn2  1  0.50000000  0.38558300  0.80198500  1
  Sn  Sn3  1  0.50000000  0.38601600  0.46739100  1
  Sn  Sn4  1  0.50000000  0.38335500  0.13351900  1
  Sn  Sn5  1  0.50000000  0.88274700  0.70005000  1
  Sn  Sn6  1  0.50000000  0.88269500  0.36595700  1
  Sn  Sn7  1  0.50000000  0.88366800  0.03240600  1
  Ge  Ge0  1  0.00000000  0.62672900  0.87225700  1
  Ge  Ge1  1  0.00000000  0.62653200  0.53916100  1
  Ge  Ge2  1  0.00000000  0.62627400  0.20563800  1
  Ge  Ge3  1  0.00000000  0.12868000  0.96386300  1
  Te  Te0  1  0.00000000  0.85011300  0.84010200  1
  Te  Te1  1  0.00000000  0.84941000  0.50603300  1
  Te  Te2  1  0.00000000  0.84939500  0.17242400  1
  Te  Te3  1  0.00000000  0.35789500  0.66136400  1
  Te  Te4  1  0.00000000  0.35887400  0.32668300  1
  Te  Te5  1  0.00000000  0.35259800  0.99200900  1
  Te  Te6  1  0.50000000  0.13974000  0.83747100  1
  Te  Te7  1  0.50000000  0.14003500  0.49490800  1
  Te  Te8  1  0.50000000  0.13827300  0.15817700  1
  Te  Te9  1  0.50000000  0.63972900  0.66446100  1
  Te  Te10  1  0.50000000  0.63935200  0.33115600  1
  Te  Te11  1  0.50000000  0.63876800  0.99776800  1
loop_
_geom_bond_atom_site_label_1
_geom_bond_atom_site_label_2
_geom_bond_distance
_geom_bond_site_symmetry_2
Sn0 Te3 2.989212 1_555
Sn0 Te7 2.990071 1_555
Sn0 Te7 2.990071 1_455
Sn1 Te8 2.998805 1_455
Sn1 Te8 2.998805 1_555
Sn1 Te4 3.000481 1_555
Sn2 Te3 2.998655 1_555
Sn2 Te3 2.998655 1_655
Sn2 Te6 3.061367 1_555
Sn3 Te4 2.998720 1_555
Sn3 Te4 2.998720 1_655
Sn3 Te7 3.046658 1_555
Sn4 Te5 3.011855 1_554
Sn4 Te5 3.011855 1_654
Sn4 Te8 3.030833 1_555
Sn5 Te0 2.998483 1_655
Sn5 Te0 2.998483 1_555
Sn5 Te9 3.031859 1_555
Sn6 Te1 2.999769 1_555
Sn6 Te1 2.999769 1_655
Sn6 Te10 3.033868 1_555
Sn7 Te2 3.000857 1_555
Sn7 Te2 3.000857 1_655
Sn7 Te11 3.052352 1_554
Ge0 Te0 2.781489 1_555
Ge0 Te11 2.840436 1_555
Ge0 Te11 2.840436 1_455
Ge1 Te1 2.777647 1_555
Ge1 Te9 2.839338 1_455
Ge1 Te9 2.839338 1_555
Ge2 Te2 2.780794 1_555
Ge2 Te10 2.841229 1_555
Ge2 Te10 2.841229 1_455
Ge3 Te5 2.782846 1_555
Ge3 Te6 2.847051 1_555
Ge3 Te6 2.847051 1_455
