# generated using pymatgen
data_MnH(CO)5
_symmetry_space_group_name_H-M   'P 1'
_cell_length_a   6.46030300
_cell_length_b   7.04854075
_cell_length_c   20.01361615
_cell_angle_alpha   91.46392066
_cell_angle_beta   90.00000000
_cell_angle_gamma   117.27568756
_symmetry_Int_Tables_number   1
_chemical_formula_structural   MnH(CO)5
_chemical_formula_sum   'Mn4 H4 C20 O20'
_cell_volume   809.66989143
_cell_formula_units_Z   4
loop_
 _symmetry_equiv_pos_site_id
 _symmetry_equiv_pos_as_xyz
  1  'x, y, z'
loop_
 _atom_site_type_symbol
 _atom_site_label
 _atom_site_symmetry_multiplicity
 _atom_site_fract_x
 _atom_site_fract_y
 _atom_site_fract_z
 _atom_site_occupancy
  Mn  Mn0  1  0.17965800  0.84452300  0.87468500  1
  Mn  Mn1  1  0.33513500  0.15547700  0.62531500  1
  Mn  Mn2  1  0.82034200  0.15547700  0.12531500  1
  Mn  Mn3  1  0.66486500  0.84452300  0.37468500  1
  H  H0  1  0.12167600  0.92431200  0.80709200  1
  H  H1  1  0.19736300  0.07568800  0.69290800  1
  H  H2  1  0.87832400  0.07568800  0.19290800  1
  H  H3  1  0.80263700  0.92431200  0.30709200  1
  C  C0  1  0.25154600  0.75468000  0.95298800  1
  C  C1  1  0.49686600  0.24532000  0.54701200  1
  C  C2  1  0.74845400  0.24532000  0.04701200  1
  C  C3  1  0.50313400  0.75468000  0.45298800  1
  C  C4  1  0.16330700  0.08019200  0.91201000  1
  C  C5  1  0.08311500  0.91980800  0.58799000  1
  C  C6  1  0.83669300  0.91980800  0.08799000  1
  C  C7  1  0.91688500  0.08019200  0.41201000  1
  C  C8  1  0.17882300  0.62857700  0.81934500  1
  C  C9  1  0.55024600  0.37142300  0.68065500  1
  C  C10  1  0.82117700  0.37142300  0.18065500  1
  C  C11  1  0.44975400  0.62857700  0.31934500  1
  C  C12  1  0.48127300  0.01844200  0.84855600  1
  C  C13  1  0.46283100  0.98155800  0.65144400  1
  C  C14  1  0.51872700  0.98155800  0.15144400  1
  C  C15  1  0.53716900  0.01844200  0.34855600  1
  C  C16  1  0.85933700  0.69510500  0.87964200  1
  C  C17  1  0.16423200  0.30489500  0.62035800  1
  C  C18  1  0.14066300  0.30489500  0.12035800  1
  C  C19  1  0.83576800  0.69510500  0.37964200  1
  O  O0  1  0.30043800  0.70405500  0.00284600  1
  O  O1  1  0.59638200  0.29594500  0.49715400  1
  O  O2  1  0.69956200  0.29594500  0.99715400  1
  O  O3  1  0.40361800  0.70405500  0.50284600  1
  O  O4  1  0.14762600  0.22797200  0.93247400  1
  O  O5  1  0.91965400  0.77202800  0.56752600  1
  O  O6  1  0.85237400  0.77202800  0.06752600  1
  O  O7  1  0.08034600  0.22797200  0.43247400  1
  O  O8  1  0.17881400  0.49909800  0.78282500  1
  O  O9  1  0.67971600  0.50090200  0.71717500  1
  O  O10  1  0.82118600  0.50090200  0.21717500  1
  O  O11  1  0.32028400  0.49909800  0.28282500  1
  O  O12  1  0.66564700  0.12912000  0.82937100  1
  O  O13  1  0.53652700  0.87088000  0.67062900  1
  O  O14  1  0.33435300  0.87088000  0.17062900  1
  O  O15  1  0.46347300  0.12912000  0.32937100  1
  O  O16  1  0.65814000  0.60766500  0.88085200  1
  O  O17  1  0.05047500  0.39233500  0.61914800  1
  O  O18  1  0.34186000  0.39233500  0.11914800  1
  O  O19  1  0.94952500  0.60766500  0.38085200  1
loop_
_geom_bond_atom_site_label_1
_geom_bond_atom_site_label_2
_geom_bond_distance
_geom_bond_site_symmetry_2
H0 Mn0 1.587000 1_555
H1 Mn1 1.587003 1_555
H2 Mn2 1.587000 1_555
H3 Mn3 1.587003 1_555
C0 O0 1.159428 1_556
C0 Mn0 1.841969 1_555
C1 O1 1.159425 1_555
C1 Mn1 1.841969 1_555
C2 O2 1.159428 1_554
C2 Mn2 1.841969 1_555
C3 O3 1.159425 1_555
C3 Mn3 1.841969 1_555
C4 O4 1.156684 1_555
C4 Mn0 1.850927 1_545
C5 O5 1.156684 1_455
C5 Mn1 1.850927 1_565
C6 O6 1.156684 1_555
C6 Mn2 1.850927 1_565
C7 O7 1.156684 1_655
C7 Mn3 1.850927 1_545
C8 O8 1.154551 1_555
C8 Mn0 1.857375 1_555
C9 O9 1.154551 1_555
C9 Mn1 1.857375 1_555
C10 O10 1.154551 1_555
C10 Mn2 1.857375 1_555
C11 O11 1.154551 1_555
C11 Mn3 1.857375 1_555
C12 O12 1.156893 1_555
C12 Mn0 1.848359 1_545
C13 O13 1.156893 1_555
C13 Mn1 1.848359 1_565
C14 O14 1.156893 1_555
C14 Mn2 1.848359 1_565
C15 O15 1.156893 1_555
C15 Mn3 1.848359 1_545
C16 O16 1.156040 1_555
C16 Mn0 1.846382 1_655
C17 O17 1.156040 1_555
C17 Mn1 1.846382 1_555
C18 O18 1.156040 1_555
C18 Mn2 1.846382 1_455
C19 O19 1.156040 1_555
C19 Mn3 1.846382 1_555
