# generated using pymatgen
data_BaNd(NiO3)4
_symmetry_space_group_name_H-M   'P 1'
_cell_length_a   5.47785022
_cell_length_b   5.47785022
_cell_length_c   7.73589528
_cell_angle_alpha   90.00000000
_cell_angle_beta   90.00000000
_cell_angle_gamma   90.00000000
_symmetry_Int_Tables_number   1
_chemical_formula_structural   BaNd(NiO3)4
_chemical_formula_sum   'Ba1 Nd1 Ni4 O12'
_cell_volume   232.12979538
_cell_formula_units_Z   1
loop_
 _symmetry_equiv_pos_site_id
 _symmetry_equiv_pos_as_xyz
  1  'x, y, z'
loop_
 _atom_site_type_symbol
 _atom_site_label
 _atom_site_symmetry_multiplicity
 _atom_site_fract_x
 _atom_site_fract_y
 _atom_site_fract_z
 _atom_site_occupancy
  Ba  Ba0  1  0.50000000  0.50000000  -0.00000000  1
  Nd  Nd0  1  0.00000000  0.00000000  0.50000000  1
  Ni  Ni0  1  0.00000000  0.50000000  0.74917386  1
  Ni  Ni1  1  0.00000000  0.50000000  0.25082614  1
  Ni  Ni2  1  0.50000000  0.00000000  0.74917386  1
  Ni  Ni3  1  0.50000000  0.00000000  0.25082614  1
  O  O0  1  0.23306154  0.23306154  0.73241043  1
  O  O1  1  0.23306154  0.23306154  0.26758957  1
  O  O2  1  0.76693846  0.76693846  0.73241043  1
  O  O3  1  0.76693846  0.76693846  0.26758957  1
  O  O4  1  0.76693846  0.23306154  0.73241043  1
  O  O5  1  0.76693846  0.23306154  0.26758957  1
  O  O6  1  0.23306154  0.76693846  0.26758957  1
  O  O7  1  0.23306154  0.76693846  0.73241043  1
  O  O8  1  0.00000000  0.50000000  0.50000000  1
  O  O9  1  0.00000000  0.50000000  -0.00000000  1
  O  O10  1  0.50000000  0.00000000  0.50000000  1
  O  O11  1  0.50000000  0.00000000  -0.00000000  1
loop_
_geom_bond_atom_site_label_1
_geom_bond_atom_site_label_2
_geom_bond_distance
_geom_bond_site_symmetry_2
Ba0 O9 2.738925 1_555
Ba0 O9 2.738925 1_655
Ba0 O11 2.738925 1_555
Ba0 O11 2.738925 1_565
Ba0 O0 2.925992 1_554
Ba0 O4 2.925992 1_554
Ba0 O7 2.925992 1_554
Ba0 O2 2.925992 1_554
Ba0 O1 2.925992 1_555
Ba0 O6 2.925992 1_555
Ba0 O3 2.925992 1_555
Ba0 O5 2.925992 1_555
Nd0 O3 2.547991 1_445
Nd0 O1 2.547991 1_555
Nd0 O6 2.547991 1_545
Nd0 O5 2.547991 1_455
Nd0 O0 2.547991 1_555
Nd0 O7 2.547991 1_545
Nd0 O2 2.547991 1_445
Nd0 O4 2.547991 1_455
Nd0 O8 2.738925 1_545
Nd0 O10 2.738925 1_455
Nd0 O10 2.738925 1_555
Nd0 O8 2.738925 1_555
Ni0 O8 1.927583 1_555
Ni0 O9 1.940365 1_556
Ni0 O2 1.945480 1_455
Ni0 O4 1.945480 1_455
Ni0 O7 1.945480 1_555
Ni0 O0 1.945480 1_555
Ni1 O8 1.927583 1_555
Ni1 O9 1.940365 1_555
Ni1 O5 1.945480 1_455
Ni1 O3 1.945480 1_455
Ni1 O6 1.945480 1_555
Ni1 O1 1.945480 1_555
Ni2 O10 1.927583 1_555
Ni2 O11 1.940365 1_556
Ni2 O7 1.945480 1_545
Ni2 O2 1.945480 1_545
Ni2 O0 1.945480 1_555
Ni2 O4 1.945480 1_555
Ni3 O10 1.927583 1_555
Ni3 O11 1.940365 1_555
Ni3 O6 1.945480 1_545
Ni3 O5 1.945480 1_555
Ni3 O3 1.945480 1_545
Ni3 O1 1.945480 1_555
