# generated using pymatgen
data_KNiH9(CO5)2
_symmetry_space_group_name_H-M   'P 1'
_cell_length_a   5.34345700
_cell_length_b   6.68502865
_cell_length_c   6.99472799
_cell_angle_alpha   116.23073063
_cell_angle_beta   89.83519940
_cell_angle_gamma   107.87549621
_symmetry_Int_Tables_number   1
_chemical_formula_structural   KNiH9(CO5)2
_chemical_formula_sum   'K1 Ni1 H9 C2 O10'
_cell_volume   210.71370025
_cell_formula_units_Z   1
loop_
 _symmetry_equiv_pos_site_id
 _symmetry_equiv_pos_as_xyz
  1  'x, y, z'
loop_
 _atom_site_type_symbol
 _atom_site_label
 _atom_site_symmetry_multiplicity
 _atom_site_fract_x
 _atom_site_fract_y
 _atom_site_fract_z
 _atom_site_occupancy
  K  K0  1  0.00000000  0.00000000  0.00000000  1
  Ni  Ni0  1  0.50000000  0.00000000  0.50000000  1
  H  H0  1  0.35471300  0.87370100  0.87171700  1
  H  H1  1  0.64528700  0.12629900  0.12828300  1
  H  H2  1  0.41542300  0.16100700  0.75213900  1
  H  H3  1  0.58457700  0.83899300  0.24786100  1
  H  H4  1  0.00446400  0.76054600  0.58273200  1
  H  H5  1  0.99553600  0.23945400  0.41726800  1
  H  H6  1  0.19622800  0.60571900  0.60100400  1
  H  H7  1  0.80377200  0.39428100  0.39899600  1
  H  H8  1  0.00000000  0.50000000  0.00000000  1
  C  C0  1  0.62957100  0.51386700  0.79524800  1
  C  C1  1  0.37042900  0.48613300  0.20475200  1
  O  O0  1  0.45986700  0.01796800  0.76772100  1
  O  O1  1  0.54013300  0.98203200  0.23227900  1
  O  O2  1  0.13401200  0.75933300  0.50928200  1
  O  O3  1  0.86598800  0.24066700  0.49071800  1
  O  O4  1  0.71681300  0.73779400  0.70405600  1
  O  O5  1  0.28318700  0.26220600  0.29594400  1
  O  O6  1  0.39314000  0.41043500  0.74991400  1
  O  O7  1  0.60686000  0.58956500  0.25008600  1
  O  O8  1  0.80002100  0.38206800  0.94548900  1
  O  O9  1  0.19997900  0.61793200  0.05451100  1
loop_
_geom_bond_atom_site_label_1
_geom_bond_atom_site_label_2
_geom_bond_distance
_geom_bond_site_symmetry_2
K0 O4 2.197629 1_444
K0 O5 2.197629 1_555
Ni0 O0 1.838980 1_555
Ni0 O1 1.838980 1_545
Ni0 O3 2.139451 1_555
Ni0 O2 2.139451 1_545
H0 O0 1.435309 1_565
H0 K0 2.326687 1_566
H1 O1 1.435309 1_545
H1 K0 2.326687 1_655
H2 O0 1.101962 1_555
H2 Ni0 1.757610 1_555
H3 O1 1.101962 1_555
H3 Ni0 1.757610 1_565
H4 O2 0.860769 1_555
H4 O4 1.751829 1_455
H5 O3 0.860769 1_555
H5 O5 1.751829 1_655
H6 O2 1.539445 1_555
H7 O3 1.539445 1_555
H8 O8 1.062181 1_454
H8 O9 1.062181 1_555
C0 O6 1.202890 1_555
C0 O4 1.810807 1_555
C0 O8 2.006705 1_555
C1 O7 1.202890 1_555
C1 O5 1.810807 1_555
C1 O9 2.006705 1_555
