# generated using pymatgen
data_Li2CoO3
_symmetry_space_group_name_H-M   'P 1'
_cell_length_a   4.90268562
_cell_length_b   5.09460407
_cell_length_c   4.97560475
_cell_angle_alpha   97.91053164
_cell_angle_beta   106.61808720
_cell_angle_gamma   61.23964208
_symmetry_Int_Tables_number   1
_chemical_formula_structural   Li2CoO3
_chemical_formula_sum   'Li4 Co2 O6'
_cell_volume   104.39563970
_cell_formula_units_Z   2
loop_
 _symmetry_equiv_pos_site_id
 _symmetry_equiv_pos_as_xyz
  1  'x, y, z'
loop_
 _atom_site_type_symbol
 _atom_site_label
 _atom_site_symmetry_multiplicity
 _atom_site_fract_x
 _atom_site_fract_y
 _atom_site_fract_z
 _atom_site_occupancy
  Li  Li0  1  0.16667400  0.66666700  0.50000400  1
  Li  Li1  1  0.66666000  0.66667200  0.99999600  1
  Li  Li2  1  0.50798500  0.98402600  0.50000200  1
  Li  Li3  1  0.82534400  0.34932500  0.50000800  1
  Co  Co0  1  0.32641900  0.34717800  0.00000100  1
  Co  Co1  1  0.00694000  0.98612300  0.99999800  1
  O  O0  1  0.39938900  0.66666200  0.23485500  1
  O  O1  1  0.93393300  0.66667900  0.76513600  1
  O  O2  1  0.76529700  0.01623700  0.22357200  1
  O  O3  1  0.11490900  0.31709000  0.22358600  1
  O  O4  1  0.21841800  0.01624900  0.77642200  1
  O  O5  1  0.56803300  0.31709100  0.77642000  1
loop_
_geom_bond_atom_site_label_1
_geom_bond_atom_site_label_2
_geom_bond_distance
_geom_bond_site_symmetry_2
Li0 O0 1.975631 1_555
Li0 O1 1.975645 1_455
Li0 O4 2.165367 1_565
Li0 O3 2.165380 1_555
Li0 O5 2.165473 1_555
Li0 O2 2.165527 1_465
Li1 O0 1.989589 1_556
Li1 O1 1.989595 1_555
Li1 O2 2.149109 1_566
Li1 O5 2.149157 1_555
Li1 O4 2.149296 1_565
Li1 O3 2.149349 1_656
Li2 O5 2.112875 1_565
Li2 O3 2.112876 1_565
Li2 O1 2.116017 1_555
Li2 O0 2.116033 1_555
Li2 O2 2.182634 1_565
Li2 O4 2.182745 1_565
Li3 O4 2.112896 1_655
Li3 O2 2.113009 1_555
Li3 O1 2.115935 1_555
Li3 O0 2.116055 1_555
Li3 O5 2.182609 1_555
Li3 O3 2.182726 1_655
Co0 O3 1.787770 1_555
Co0 O5 1.787818 1_554
Co0 O0 1.985043 1_555
Co0 O1 1.985234 1_454
Co0 O2 2.089502 1_555
Co0 O4 2.089547 1_554
Co1 O4 1.787696 1_565
Co1 O2 1.787860 1_466
Co1 O1 1.984965 1_455
Co1 O0 1.985055 1_556
Co1 O5 2.089637 1_465
Co1 O3 2.089652 1_566
