# generated using pymatgen
data_Nd4(TmS2)11
_symmetry_space_group_name_H-M   'P 1'
_cell_length_a   19.53975941
_cell_length_b   19.53975941
_cell_length_c   11.29204513
_cell_angle_alpha   88.59873788
_cell_angle_beta   88.59873788
_cell_angle_gamma   11.50271947
_symmetry_Int_Tables_number   1
_chemical_formula_structural   Nd4(TmS2)11
_chemical_formula_sum   'Nd4 Tm11 S22'
_cell_volume   859.48129724
_cell_formula_units_Z   1
loop_
 _symmetry_equiv_pos_site_id
 _symmetry_equiv_pos_as_xyz
  1  'x, y, z'
loop_
 _atom_site_type_symbol
 _atom_site_label
 _atom_site_symmetry_multiplicity
 _atom_site_fract_x
 _atom_site_fract_y
 _atom_site_fract_z
 _atom_site_occupancy
  Nd  Nd0  1  0.10468500  0.10468500  0.98748700  1
  Nd  Nd1  1  0.89531500  0.89531500  0.01251300  1
  Nd  Nd2  1  0.36701200  0.36701200  0.65172500  1
  Nd  Nd3  1  0.63298800  0.63298800  0.34827500  1
  Tm  Tm0  1  0.79776500  0.79776500  0.94178500  1
  Tm  Tm1  1  0.20223500  0.20223500  0.05821500  1
  Tm  Tm2  1  0.46164700  0.46164700  0.72960700  1
  Tm  Tm3  1  0.53835300  0.53835300  0.27039300  1
  Tm  Tm4  1  0.65765900  0.65765900  0.69898800  1
  Tm  Tm5  1  0.34234100  0.34234100  0.30101200  1
  Tm  Tm6  1  0.26365300  0.26365300  0.64825900  1
  Tm  Tm7  1  0.73634700  0.73634700  0.35174100  1
  Tm  Tm8  1  0.06974300  0.06974300  0.63939300  1
  Tm  Tm9  1  0.93025700  0.93025700  0.36060700  1
  Tm  Tm10  1  0.00000000  0.00000000  0.00000000  1
  S  S0  1  0.08769700  0.08769700  0.24642100  1
  S  S1  1  0.91230300  0.91230300  0.75357900  1
  S  S2  1  0.18915600  0.18915600  0.30864800  1
  S  S3  1  0.81084400  0.81084400  0.69135200  1
  S  S4  1  0.28024500  0.28024500  0.41058100  1
  S  S5  1  0.71975500  0.71975500  0.58941900  1
  S  S6  1  0.44478000  0.44478000  0.50632400  1
  S  S7  1  0.55522000  0.55522000  0.49367600  1
  S  S8  1  0.13493500  0.13493500  0.54675600  1
  S  S9  1  0.86506500  0.86506500  0.45324400  1
  S  S10  1  0.59284400  0.59284400  0.78742200  1
  S  S11  1  0.40715600  0.40715600  0.21257800  1
  S  S12  1  0.45309500  0.45309500  0.96950600  1
  S  S13  1  0.54690500  0.54690500  0.03049400  1
  S  S14  1  0.35025100  0.35025100  0.90765700  1
  S  S15  1  0.64974900  0.64974900  0.09234300  1
  S  S16  1  0.16874400  0.16874400  0.84865300  1
  S  S17  1  0.83125600  0.83125600  0.15134700  1
  S  S18  1  0.00786800  0.00786800  0.76032700  1
  S  S19  1  0.99213200  0.99213200  0.23967300  1
  S  S20  1  0.25496400  0.25496400  0.88080300  1
  S  S21  1  0.74503600  0.74503600  0.11919700  1
loop_
_geom_bond_atom_site_label_1
_geom_bond_atom_site_label_2
_geom_bond_distance
_geom_bond_site_symmetry_2
Nd0 S15 2.899722 1_456
Nd0 S15 2.899722 1_546
Nd0 S16 2.910300 1_555
Nd0 S0 2.981700 1_556
Nd0 S13 3.010621 1_546
Nd0 S13 3.010621 1_456
Nd0 S10 3.033321 1_545
Nd0 S10 3.033321 1_455
Nd1 S14 2.899722 1_564
Nd1 S14 2.899722 1_654
Nd1 S17 2.910300 1_555
Nd1 S1 2.981700 1_554
Nd1 S12 3.010621 1_564
Nd1 S12 3.010621 1_654
Nd1 S11 3.033321 1_565
Nd1 S11 3.033321 1_655
Nd2 S1 2.890995 1_455
Nd2 S1 2.890995 1_545
Nd2 S14 2.946901 1_555
Nd2 S3 2.959073 1_545
Nd2 S3 2.959073 1_455
Nd2 S9 2.978507 1_545
Nd2 S9 2.978507 1_455
Nd2 S6 3.405187 1_555
Nd3 S0 2.890995 1_655
Nd3 S0 2.890995 1_565
Nd3 S15 2.946901 1_555
Nd3 S2 2.959073 1_565
Nd3 S2 2.959073 1_655
Nd3 S8 2.978507 1_565
Nd3 S8 2.978507 1_655
Nd3 S7 3.405187 1_555
S0 Tm3 2.750109 1_545
S0 Tm3 2.750109 1_455
S1 Tm2 2.750109 1_565
S1 Tm2 2.750109 1_655
S2 Tm7 2.735289 1_545
S2 Tm7 2.735289 1_455
S2 Tm1 2.860935 1_555
S3 Tm6 2.735289 1_565
S3 Tm6 2.735289 1_655
S3 Tm0 2.860935 1_555
S4 Tm5 2.685817 1_555
S4 Tm7 2.691624 1_545
S4 Tm7 2.691624 1_455
S4 Tm6 2.744861 1_555
S5 Tm4 2.685817 1_555
S5 Tm6 2.691624 1_655
S5 Tm6 2.691624 1_565
S5 Tm7 2.744861 1_555
S6 Tm2 2.620776 1_555
S6 Tm9 2.627973 1_545
S6 Tm9 2.627973 1_455
S7 Tm3 2.620776 1_555
S7 Tm8 2.627973 1_565
S7 Tm8 2.627973 1_655
S8 Tm8 2.718336 1_555
S8 Tm4 2.764880 1_545
S8 Tm4 2.764880 1_455
S9 Tm9 2.718336 1_555
S9 Tm5 2.764880 1_565
S9 Tm5 2.764880 1_655
S10 Tm4 2.687907 1_555
S10 Tm8 2.740238 1_565
S10 Tm8 2.740238 1_655
S11 Tm5 2.687907 1_555
S11 Tm9 2.740238 1_545
S11 Tm9 2.740238 1_455
S12 Tm10 2.703679 1_566
S12 Tm10 2.703679 1_656
S12 Tm2 2.721159 1_555
S13 Tm10 2.703679 1_565
S13 Tm10 2.703679 1_655
S13 Tm3 2.721159 1_555
S14 Tm0 2.847619 1_455
S14 Tm0 2.847619 1_545
S15 Tm1 2.847619 1_655
S15 Tm1 2.847619 1_565
S16 Tm4 2.629062 1_455
S16 Tm4 2.629062 1_545
S16 Tm1 2.728926 1_556
S17 Tm5 2.629062 1_655
S17 Tm5 2.629062 1_565
S17 Tm0 2.728926 1_554
S18 Tm2 2.686097 1_545
S18 Tm2 2.686097 1_455
S18 Tm10 2.716153 1_556
S18 Tm8 2.737073 1_555
S19 Tm3 2.686097 1_565
S19 Tm3 2.686097 1_655
S19 Tm10 2.716153 1_665
S19 Tm9 2.737073 1_555
S20 Tm6 2.639294 1_555
S20 Tm0 2.671022 1_545
S20 Tm0 2.671022 1_455
S20 Tm1 2.831081 1_556
S21 Tm7 2.639294 1_555
S21 Tm1 2.671022 1_565
S21 Tm1 2.671022 1_655
S21 Tm0 2.831081 1_554
