# generated using pymatgen
data_U5Sn4
_symmetry_space_group_name_H-M   'P 1'
_cell_length_a   9.35412759
_cell_length_b   9.35412759
_cell_length_c   6.18982400
_cell_angle_alpha   90.00000000
_cell_angle_beta   90.00000000
_cell_angle_gamma   119.99999707
_symmetry_Int_Tables_number   1
_chemical_formula_structural   U5Sn4
_chemical_formula_sum   'U10 Sn8'
_cell_volume   469.04609372
_cell_formula_units_Z   2
loop_
 _symmetry_equiv_pos_site_id
 _symmetry_equiv_pos_as_xyz
  1  'x, y, z'
loop_
 _atom_site_type_symbol
 _atom_site_label
 _atom_site_symmetry_multiplicity
 _atom_site_fract_x
 _atom_site_fract_y
 _atom_site_fract_z
 _atom_site_occupancy
  U  U0  1  0.33333300  0.66666700  0.00000000  1
  U  U1  1  0.66666700  0.33333300  0.00000000  1
  U  U2  1  0.66666700  0.33333300  0.50000000  1
  U  U3  1  0.33333300  0.66666700  0.50000000  1
  U  U4  1  0.28916400  0.00000000  0.25000000  1
  U  U5  1  0.71083600  0.00000000  0.75000000  1
  U  U6  1  0.00000000  0.28916400  0.25000000  1
  U  U7  1  0.00000000  0.71083600  0.75000000  1
  U  U8  1  0.71083600  0.71083600  0.25000000  1
  U  U9  1  0.28916400  0.28916400  0.75000000  1
  Sn  Sn0  1  0.00000000  0.00000000  0.00000000  1
  Sn  Sn1  1  0.00000000  0.00000000  0.50000000  1
  Sn  Sn2  1  0.62622900  0.00000000  0.25000000  1
  Sn  Sn3  1  0.37377100  0.00000000  0.75000000  1
  Sn  Sn4  1  0.00000000  0.62622900  0.25000000  1
  Sn  Sn5  1  0.00000000  0.37377100  0.75000000  1
  Sn  Sn6  1  0.37377100  0.37377100  0.25000000  1
  Sn  Sn7  1  0.62622900  0.62622900  0.75000000  1
loop_
_geom_bond_atom_site_label_1
_geom_bond_atom_site_label_2
_geom_bond_distance
_geom_bond_site_symmetry_2
U0 U3 3.094912 1_554
U0 U3 3.094912 1_555
U0 U7 3.684528 1_554
U0 U4 3.684528 1_565
U0 U5 3.684534 1_564
U0 U6 3.684534 1_555
U0 U8 3.684537 1_555
U0 U9 3.684537 1_554
U1 U2 3.094912 1_555
U1 U2 3.094912 1_554
U1 U5 3.684528 1_554
U1 U6 3.684528 1_655
U1 U7 3.684534 1_654
U1 U4 3.684534 1_555
U1 U8 3.684537 1_555
U1 U9 3.684537 1_554
U2 U5 3.684528 1_555
U2 U6 3.684528 1_655
U2 U7 3.684534 1_655
U2 U4 3.684534 1_555
U2 U8 3.684537 1_555
U2 U9 3.684537 1_555
U3 U7 3.684528 1_555
U3 U4 3.684528 1_565
U3 U5 3.684534 1_565
U3 U6 3.684534 1_555
U3 U8 3.684537 1_555
U3 U9 3.684537 1_555
Sn0 Sn1 3.094912 1_555
Sn0 Sn1 3.094912 1_554
Sn0 U6 3.116244 1_555
Sn0 U4 3.116244 1_555
Sn0 U5 3.116244 1_454
Sn0 U7 3.116244 1_544
Sn0 U9 3.116245 1_554
Sn0 U8 3.116245 1_445
Sn1 U6 3.116244 1_555
Sn1 U4 3.116244 1_555
Sn1 U5 3.116244 1_455
Sn1 U7 3.116244 1_545
Sn1 U9 3.116245 1_555
Sn1 U8 3.116245 1_445
Sn2 U4 3.152949 1_555
Sn2 U8 3.175440 1_545
Sn2 U6 3.175440 1_655
Sn2 U5 3.194500 1_555
Sn2 U5 3.194500 1_554
Sn2 U2 3.328729 1_555
Sn2 U1 3.328729 1_555
Sn2 U0 3.328732 1_545
Sn2 U3 3.328732 1_545
Sn3 U5 3.152949 1_555
Sn3 U9 3.175440 1_555
Sn3 U7 3.175440 1_545
Sn3 U4 3.194500 1_556
Sn3 U4 3.194500 1_555
Sn3 U0 3.328729 1_546
Sn3 U3 3.328729 1_545
Sn3 U2 3.328732 1_555
Sn3 U1 3.328732 1_556
Sn4 U6 3.152949 1_555
Sn4 U8 3.175440 1_455
Sn4 U4 3.175440 1_565
Sn4 U7 3.194500 1_555
Sn4 U7 3.194500 1_554
Sn4 U3 3.328729 1_555
Sn4 U0 3.328729 1_555
Sn4 U1 3.328732 1_455
Sn4 U2 3.328732 1_455
Sn5 U7 3.152949 1_555
Sn5 U9 3.175440 1_555
Sn5 U5 3.175440 1_455
Sn5 U6 3.194500 1_556
Sn5 U6 3.194500 1_555
Sn5 U1 3.328729 1_456
Sn5 U2 3.328729 1_455
Sn5 U0 3.328732 1_556
Sn5 U3 3.328732 1_555
Sn6 U8 3.152949 1_555
Sn6 U4 3.175440 1_555
Sn6 U6 3.175440 1_555
Sn6 U9 3.194500 1_554
Sn6 U9 3.194500 1_555
Sn6 U0 3.328737 1_555
Sn6 U1 3.328737 1_555
Sn6 U2 3.328737 1_555
Sn6 U3 3.328737 1_555
Sn7 U9 3.152949 1_555
Sn7 U7 3.175440 1_655
Sn7 U5 3.175440 1_565
Sn7 U8 3.194500 1_555
Sn7 U8 3.194500 1_556
Sn7 U2 3.328737 1_555
Sn7 U3 3.328737 1_555
Sn7 U0 3.328737 1_556
Sn7 U1 3.328737 1_556
