# generated using pymatgen
data_Rb5Gd(MoO4)4
_symmetry_space_group_name_H-M   'P 1'
_cell_length_a   6.27476484
_cell_length_b   10.24837274
_cell_length_c   8.20993375
_cell_angle_alpha   73.24547045
_cell_angle_beta   90.00000433
_cell_angle_gamma   89.99999584
_symmetry_Int_Tables_number   1
_chemical_formula_structural   Rb5Gd(MoO4)4
_chemical_formula_sum   'Rb5 Gd1 Mo4 O16'
_cell_volume   505.53686825
_cell_formula_units_Z   1
loop_
 _symmetry_equiv_pos_site_id
 _symmetry_equiv_pos_as_xyz
  1  'x, y, z'
loop_
 _atom_site_type_symbol
 _atom_site_label
 _atom_site_symmetry_multiplicity
 _atom_site_fract_x
 _atom_site_fract_y
 _atom_site_fract_z
 _atom_site_occupancy
  Rb  Rb0  1  0.50000000  0.29378400  0.13263000  1
  Rb  Rb1  1  0.00000000  0.81654000  0.60935900  1
  Rb  Rb2  1  0.50000000  0.70621600  0.86737000  1
  Rb  Rb3  1  0.00000000  0.18346000  0.39064100  1
  Rb  Rb4  1  0.00000000  0.00000000  0.00000000  1
  Gd  Gd0  1  0.50000000  0.50000000  0.50000000  1
  Mo  Mo0  1  0.00000000  0.60144800  0.22309400  1
  Mo  Mo1  1  0.50000000  0.11168100  0.69998100  1
  Mo  Mo2  1  0.00000000  0.39855200  0.77690600  1
  Mo  Mo3  1  0.50000000  0.88831900  0.30001900  1
  O  O0  1  0.50000000  0.16015800  0.89147900  1
  O  O1  1  0.00000000  0.72775300  0.32792000  1
  O  O2  1  0.50000000  0.83984200  0.10852100  1
  O  O3  1  0.00000000  0.27224700  0.67208000  1
  O  O4  1  0.24326600  0.50047400  0.28900100  1
  O  O5  1  0.72834500  0.00928400  0.69517900  1
  O  O6  1  0.75673400  0.50047400  0.28900100  1
  O  O7  1  0.27165500  0.00928400  0.69517900  1
  O  O8  1  0.00000000  0.68242800  0.99928500  1
  O  O9  1  0.50000000  0.26986100  0.51847400  1
  O  O10  1  0.75673400  0.49952600  0.71099900  1
  O  O11  1  0.27165500  0.99071600  0.30482100  1
  O  O12  1  0.24326600  0.49952600  0.71099900  1
  O  O13  1  0.72834500  0.99071600  0.30482100  1
  O  O14  1  0.00000000  0.31757200  0.00071500  1
  O  O15  1  0.50000000  0.73013900  0.48152600  1
loop_
_geom_bond_atom_site_label_1
_geom_bond_atom_site_label_2
_geom_bond_distance
_geom_bond_site_symmetry_2
Gd0 O15 2.319379 1_555
Gd0 O9 2.319379 1_555
Gd0 O4 2.364559 1_555
Gd0 O10 2.364559 1_555
Gd0 O6 2.364559 1_555
Gd0 O12 2.364559 1_555
Mo0 O1 1.748843 1_555
Mo0 O8 1.784885 1_554
Mo0 O4 1.835978 1_555
Mo0 O6 1.835978 1_455
Mo1 O0 1.780145 1_555
Mo1 O5 1.783143 1_555
Mo1 O7 1.783144 1_555
Mo1 O9 1.858967 1_555
Mo2 O3 1.748843 1_555
Mo2 O14 1.784885 1_556
Mo2 O10 1.835978 1_455
Mo2 O12 1.835978 1_555
Mo3 O2 1.780145 1_555
Mo3 O11 1.783143 1_555
Mo3 O13 1.783144 1_555
Mo3 O15 1.858967 1_555
O0 Rb0 2.712620 1_556
O0 Rb4 3.533822 1_656
O0 Rb4 3.533822 1_556
O1 Rb1 2.716426 1_555
O1 Rb4 3.271367 1_565
O2 Rb2 2.712620 1_554
O2 Rb4 3.533822 1_565
O2 Rb4 3.533822 1_665
O3 Rb3 2.716426 1_555
O3 Rb4 3.271367 1_556
O4 Rb0 3.209057 1_555
O4 Rb3 3.466770 1_555
O5 Rb1 2.847149 1_645
O5 Rb4 3.006683 1_656
O5 Rb3 3.125691 1_655
O5 Rb2 3.341689 1_545
O6 Rb0 3.209057 1_555
O6 Rb3 3.466770 1_655
O7 Rb1 2.847150 1_545
O7 Rb4 3.006683 1_556
O7 Rb3 3.125691 1_555
O7 Rb2 3.341688 1_545
O8 Rb1 3.098454 1_555
O8 Rb4 3.256293 1_566
O8 Rb2 3.305041 1_455
O8 Rb2 3.305041 1_555
O9 Rb0 3.105963 1_555
O9 Rb3 3.502065 1_555
O9 Rb3 3.502065 1_655
O10 Rb2 3.209057 1_555
O10 Rb1 3.466770 1_655
O11 Rb3 2.847149 1_565
O11 Rb4 3.006683 1_565
O11 Rb1 3.125691 1_555
O11 Rb0 3.341689 1_565
O12 Rb2 3.209057 1_555
O12 Rb1 3.466770 1_555
O13 Rb3 2.847150 1_665
O13 Rb4 3.006683 1_665
O13 Rb1 3.125691 1_655
O13 Rb0 3.341688 1_565
O14 Rb3 3.098454 1_555
O14 Rb4 3.256293 1_555
O14 Rb0 3.305041 1_555
O14 Rb0 3.305041 1_455
O15 Rb2 3.105963 1_555
O15 Rb1 3.502065 1_655
O15 Rb1 3.502065 1_555
