# generated using pymatgen
data_Tm4Mo4O11
_symmetry_space_group_name_H-M   'P 1'
_cell_length_a   5.68532000
_cell_length_b   10.69336000
_cell_length_c   15.87272800
_cell_angle_alpha   90.00000000
_cell_angle_beta   90.00000000
_cell_angle_gamma   90.00000000
_symmetry_Int_Tables_number   1
_chemical_formula_structural   Tm4Mo4O11
_chemical_formula_sum   'Tm16 Mo16 O44'
_cell_volume   964.98525228
_cell_formula_units_Z   4
loop_
 _symmetry_equiv_pos_site_id
 _symmetry_equiv_pos_as_xyz
  1  'x, y, z'
loop_
 _atom_site_type_symbol
 _atom_site_label
 _atom_site_symmetry_multiplicity
 _atom_site_fract_x
 _atom_site_fract_y
 _atom_site_fract_z
 _atom_site_occupancy
  Tm  Tm0  1  0.00000000  0.61409200  0.57715900  1
  Tm  Tm1  1  0.00000000  0.38590800  0.42284100  1
  Tm  Tm2  1  0.00000000  0.11409200  0.92284100  1
  Tm  Tm3  1  0.00000000  0.88590800  0.07715900  1
  Tm  Tm4  1  0.00000000  0.40399200  0.73591400  1
  Tm  Tm5  1  0.00000000  0.59600800  0.26408600  1
  Tm  Tm6  1  0.00000000  0.90399200  0.76408600  1
  Tm  Tm7  1  0.00000000  0.09600800  0.23591400  1
  Tm  Tm8  1  0.50000000  0.42463300  0.59892800  1
  Tm  Tm9  1  0.50000000  0.57536700  0.40107300  1
  Tm  Tm10  1  0.50000000  0.92463300  0.90107200  1
  Tm  Tm11  1  0.50000000  0.07536700  0.09892800  1
  Tm  Tm12  1  0.50000000  0.18437800  0.77693000  1
  Tm  Tm13  1  0.50000000  0.81562200  0.22307000  1
  Tm  Tm14  1  0.50000000  0.68437800  0.72307000  1
  Tm  Tm15  1  0.50000000  0.31562200  0.27693000  1
  Mo  Mo0  1  0.00000000  0.91567700  0.56118300  1
  Mo  Mo1  1  0.00000000  0.08432300  0.43881700  1
  Mo  Mo2  1  0.00000000  0.41567700  0.93881700  1
  Mo  Mo3  1  0.00000000  0.58432300  0.06118300  1
  Mo  Mo4  1  0.50000000  0.90350200  0.57153500  1
  Mo  Mo5  1  0.50000000  0.09649800  0.42846500  1
  Mo  Mo6  1  0.50000000  0.40350200  0.92846500  1
  Mo  Mo7  1  0.50000000  0.59649800  0.07153500  1
  Mo  Mo8  1  0.27452100  0.86313300  0.41386800  1
  Mo  Mo9  1  0.27452100  0.13686700  0.58613200  1
  Mo  Mo10  1  0.72547900  0.36313300  0.08613200  1
  Mo  Mo11  1  0.72547900  0.63686700  0.91386800  1
  Mo  Mo12  1  0.72547900  0.13686700  0.58613200  1
  Mo  Mo13  1  0.72547900  0.86313300  0.41386800  1
  Mo  Mo14  1  0.27452100  0.63686700  0.91386800  1
  Mo  Mo15  1  0.27452100  0.36313300  0.08613200  1
  O  O0  1  0.24575100  0.00000000  0.00000000  1
  O  O1  1  0.75424900  0.50000000  0.50000000  1
  O  O2  1  0.75424900  0.00000000  0.00000000  1
  O  O3  1  0.24575100  0.50000000  0.50000000  1
  O  O4  1  0.00000000  0.23437100  0.52237100  1
  O  O5  1  0.00000000  0.76562900  0.47762900  1
  O  O6  1  0.00000000  0.73437100  0.97762900  1
  O  O7  1  0.00000000  0.26562900  0.02237100  1
  O  O8  1  0.00000000  0.04782200  0.65588300  1
  O  O9  1  0.00000000  0.95217800  0.34411700  1
  O  O10  1  0.00000000  0.54782200  0.84411700  1
  O  O11  1  0.00000000  0.45217800  0.15588300  1
  O  O12  1  0.50000000  0.24975200  0.51352300  1
  O  O13  1  0.50000000  0.75024800  0.48647700  1
  O  O14  1  0.50000000  0.74975200  0.98647700  1
  O  O15  1  0.50000000  0.25024800  0.01352300  1
  O  O16  1  0.50000000  0.04145500  0.66801300  1
  O  O17  1  0.50000000  0.95854500  0.33198700  1
  O  O18  1  0.76248500  0.30914300  0.85914900  1
  O  O19  1  0.50000000  0.54145500  0.83198700  1
  O  O20  1  0.24755100  0.95965700  0.17212500  1
  O  O21  1  0.24755100  0.04034300  0.82787500  1
  O  O22  1  0.75244900  0.45965700  0.32787500  1
  O  O23  1  0.75244900  0.54034300  0.67212500  1
  O  O24  1  0.75244900  0.04034300  0.82787500  1
  O  O25  1  0.75244900  0.95965700  0.17212500  1
  O  O26  1  0.24755100  0.54034300  0.67212500  1
  O  O27  1  0.24755100  0.45965700  0.32787500  1
  O  O28  1  0.23751500  0.69085700  0.14085100  1
  O  O29  1  0.23751500  0.30914300  0.85914900  1
  O  O30  1  0.76248500  0.19085700  0.35914900  1
  O  O31  1  0.76248500  0.80914300  0.64085100  1
  O  O32  1  0.26465200  0.22199500  0.17545000  1
  O  O33  1  0.26465200  0.77800500  0.82455000  1
  O  O34  1  0.73534800  0.72199500  0.32455000  1
  O  O35  1  0.73534800  0.27800500  0.67545000  1
  O  O36  1  0.73534800  0.77800500  0.82455000  1
  O  O37  1  0.73534800  0.22199500  0.17545000  1
  O  O38  1  0.26465200  0.27800500  0.67545000  1
  O  O39  1  0.26465200  0.72199500  0.32455000  1
  O  O40  1  0.23751500  0.19085700  0.35914900  1
  O  O41  1  0.23751500  0.80914300  0.64085100  1
  O  O42  1  0.76248500  0.69085700  0.14085100  1
  O  O43  1  0.50000000  0.45854500  0.16801300  1
loop_
_geom_bond_atom_site_label_1
_geom_bond_atom_site_label_2
_geom_bond_distance
_geom_bond_site_symmetry_2
Mo0 O8 2.063063 1_565
Mo0 O5 2.081673 1_555
Mo0 O41 2.172629 1_555
Mo0 O31 2.172629 1_455
Mo1 O9 2.063063 1_545
Mo1 O4 2.081673 1_555
Mo1 O40 2.172629 1_555
Mo1 O30 2.172629 1_455
Mo2 O10 2.063063 1_555
Mo2 O7 2.081673 1_556
Mo2 O29 2.172629 1_555
Mo2 O18 2.172629 1_455
Mo3 O11 2.063063 1_555
Mo3 O6 2.081673 1_554
Mo3 O28 2.172629 1_555
Mo3 O42 2.172629 1_455
Mo4 O31 2.110834 1_555
Mo4 O41 2.110834 1_555
Mo4 O13 2.123309 1_555
Mo4 O16 2.126323 1_565
Mo5 O30 2.110834 1_555
Mo5 O40 2.110834 1_555
Mo5 O12 2.123309 1_555
Mo5 O17 2.126323 1_545
Mo6 O18 2.110834 1_555
Mo6 O29 2.110834 1_555
Mo6 O15 2.123309 1_556
Mo6 O19 2.126323 1_555
Mo7 O42 2.110834 1_555
Mo7 O28 2.110834 1_555
Mo7 O14 2.123309 1_554
Mo7 O43 2.126323 1_555
Mo8 O39 2.071445 1_555
Mo8 O17 2.091276 1_555
Mo8 O13 2.104453 1_555
Mo8 O5 2.132436 1_555
Mo8 O9 2.137365 1_555
Mo9 O38 2.071445 1_555
Mo9 O16 2.091276 1_555
Mo9 O12 2.104453 1_555
Mo9 O4 2.132436 1_555
Mo9 O8 2.137365 1_555
Mo10 O37 2.071445 1_555
Mo10 O43 2.091276 1_555
Mo10 O15 2.104453 1_555
Mo10 O7 2.132436 1_655
Mo10 O11 2.137365 1_655
Mo11 O36 2.071445 1_555
Mo11 O19 2.091276 1_555
Mo11 O14 2.104453 1_555
Mo11 O6 2.132436 1_655
Mo11 O10 2.137365 1_655
Mo12 O35 2.071445 1_555
Mo12 O16 2.091276 1_555
Mo12 O12 2.104453 1_555
Mo12 O4 2.132436 1_655
Mo12 O8 2.137365 1_655
Mo13 O34 2.071445 1_555
Mo13 O17 2.091276 1_555
Mo13 O13 2.104453 1_555
Mo13 O5 2.132436 1_655
Mo13 O9 2.137365 1_655
Mo14 O33 2.071445 1_555
Mo14 O19 2.091276 1_555
Mo14 O14 2.104453 1_555
Mo14 O6 2.132436 1_555
Mo14 O10 2.137365 1_555
Mo15 O32 2.071445 1_555
Mo15 O43 2.091276 1_555
Mo15 O15 2.104453 1_555
Mo15 O7 2.132436 1_555
Mo15 O11 2.137365 1_555
O0 Tm3 2.222725 1_545
O0 Tm2 2.222725 1_554
O0 Tm11 2.281372 1_555
O0 Tm10 2.281372 1_544
O1 Tm0 2.222725 1_655
O1 Tm1 2.222725 1_655
O1 Tm9 2.281361 1_555
O1 Tm8 2.281372 1_555
O2 Tm3 2.222725 1_645
O2 Tm2 2.222725 1_654
O2 Tm11 2.281372 1_555
O2 Tm10 2.281372 1_544
O3 Tm0 2.222725 1_555
O3 Tm1 2.222725 1_555
O3 Tm9 2.281361 1_555
O3 Tm8 2.281372 1_555
O4 Tm1 2.263102 1_555
O5 Tm0 2.263102 1_555
O6 Tm3 2.263102 1_556
O7 Tm2 2.263102 1_554
O8 Tm6 2.305483 1_545
O9 Tm7 2.305483 1_565
O10 Tm4 2.305483 1_555
O11 Tm5 2.305483 1_555
O12 Tm8 2.309724 1_555
O13 Tm9 2.309715 1_555
O14 Tm10 2.309724 1_555
O15 Tm11 2.309724 1_555
O16 Tm12 2.307502 1_555
O17 Tm13 2.307502 1_555
O18 Tm12 2.389581 1_555
O18 Tm4 2.584257 1_655
O18 Tm2 2.682508 1_655
O19 Tm14 2.307502 1_555
O20 Tm3 2.207914 1_555
O20 Tm11 2.222790 1_565
O20 Tm13 2.255242 1_555
O20 Tm7 2.265363 1_565
O21 Tm2 2.207914 1_555
O21 Tm10 2.222790 1_545
O21 Tm12 2.255242 1_555
O21 Tm6 2.265363 1_545
O22 Tm1 2.207914 1_655
O22 Tm9 2.222799 1_555
O22 Tm15 2.255242 1_555
O22 Tm5 2.265363 1_655
O23 Tm0 2.207914 1_655
O23 Tm8 2.222790 1_555
O23 Tm14 2.255242 1_555
O23 Tm4 2.265363 1_655
O24 Tm2 2.207914 1_655
O24 Tm10 2.222790 1_545
O24 Tm12 2.255242 1_555
O24 Tm6 2.265363 1_645
O25 Tm3 2.207914 1_655
O25 Tm11 2.222790 1_565
O25 Tm13 2.255242 1_555
O25 Tm7 2.265363 1_665
O26 Tm0 2.207914 1_555
O26 Tm8 2.222790 1_555
O26 Tm14 2.255242 1_555
O26 Tm4 2.265363 1_555
O27 Tm1 2.207914 1_555
O27 Tm9 2.222799 1_555
O27 Tm15 2.255242 1_555
O27 Tm5 2.265363 1_555
O28 Tm13 2.389581 1_555
O28 Tm5 2.584257 1_555
O28 Tm3 2.682508 1_555
O29 Tm12 2.389581 1_555
O29 Tm4 2.584257 1_555
O29 Tm2 2.682508 1_555
O30 Tm15 2.389581 1_555
O30 Tm7 2.584257 1_655
O30 Tm1 2.682508 1_655
O31 Tm14 2.389581 1_555
O31 Tm6 2.584257 1_655
O31 Tm0 2.682508 1_655
O32 Tm7 2.236070 1_555
O32 Tm15 2.321047 1_555
O32 Tm11 2.392501 1_555
O33 Tm6 2.236070 1_555
O33 Tm14 2.321047 1_555
O33 Tm10 2.392501 1_555
O34 Tm5 2.236070 1_655
O34 Tm13 2.321047 1_555
O34 Tm9 2.392509 1_555
O35 Tm4 2.236070 1_655
O35 Tm12 2.321047 1_555
O35 Tm8 2.392501 1_555
O36 Tm6 2.236070 1_655
O36 Tm14 2.321047 1_555
O36 Tm10 2.392501 1_555
O37 Tm7 2.236070 1_655
O37 Tm15 2.321047 1_555
O37 Tm11 2.392501 1_555
O38 Tm4 2.236070 1_555
O38 Tm12 2.321047 1_555
O38 Tm8 2.392501 1_555
O39 Tm5 2.236070 1_555
O39 Tm13 2.321047 1_555
O39 Tm9 2.392509 1_555
O40 Tm15 2.389581 1_555
O40 Tm7 2.584257 1_555
O40 Tm1 2.682508 1_555
O41 Tm14 2.389581 1_555
O41 Tm6 2.584257 1_555
O41 Tm0 2.682508 1_555
O42 Tm13 2.389581 1_555
O42 Tm5 2.584257 1_655
O42 Tm3 2.682508 1_655
O43 Tm15 2.307502 1_555
