# generated using pymatgen
data_Si2SbC7Cl2
_symmetry_space_group_name_H-M   'P 1'
_cell_length_a   22.70123600
_cell_length_b   6.17094900
_cell_length_c   8.07717373
_cell_angle_alpha   56.53568572
_cell_angle_beta   90.00000000
_cell_angle_gamma   90.00000000
_symmetry_Int_Tables_number   1
_chemical_formula_structural   Si2SbC7Cl2
_chemical_formula_sum   'Si8 Sb4 C28 Cl8'
_cell_volume   943.94434576
_cell_formula_units_Z   4
loop_
 _symmetry_equiv_pos_site_id
 _symmetry_equiv_pos_as_xyz
  1  'x, y, z'
loop_
 _atom_site_type_symbol
 _atom_site_label
 _atom_site_symmetry_multiplicity
 _atom_site_fract_x
 _atom_site_fract_y
 _atom_site_fract_z
 _atom_site_occupancy
  Si  Si0  1  0.06871600  0.22260500  0.35677300  1
  Si  Si1  1  0.43128400  0.22260500  0.85677300  1
  Si  Si2  1  0.93128400  0.77739500  0.64322700  1
  Si  Si3  1  0.56871600  0.77739500  0.14322700  1
  Si  Si4  1  0.19269600  0.22329700  0.42721500  1
  Si  Si5  1  0.30730400  0.22329700  0.92721500  1
  Si  Si6  1  0.80730400  0.77670300  0.57278500  1
  Si  Si7  1  0.69269600  0.77670300  0.07278500  1
  Sb  Sb0  1  0.14467800  0.69853000  0.76307400  1
  Sb  Sb1  1  0.35532200  0.69853000  0.26307400  1
  Sb  Sb2  1  0.85532200  0.30147000  0.23692600  1
  Sb  Sb3  1  0.64467800  0.30147000  0.73692600  1
  C  C0  1  0.13272100  0.00980500  0.46440200  1
  C  C1  1  0.36727900  0.00980500  0.96440200  1
  C  C2  1  0.86727900  0.99019500  0.53559800  1
  C  C3  1  0.63272100  0.99019500  0.03559800  1
  C  C4  1  0.94523100  0.40176600  0.11480200  1
  C  C5  1  0.55476900  0.40176600  0.61480200  1
  C  C6  1  0.05476900  0.59823400  0.88519800  1
  C  C7  1  0.44523100  0.59823400  0.38519800  1
  C  C8  1  0.00046400  0.31450900  0.20580300  1
  C  C9  1  0.49953600  0.31450900  0.70580300  1
  C  C10  1  0.99953600  0.68549100  0.79419700  1
  C  C11  1  0.50046400  0.68549100  0.29419700  1
  C  C12  1  0.05323400  0.41955700  0.09135000  1
  C  C13  1  0.44676600  0.41955700  0.59135000  1
  C  C14  1  0.94676600  0.58044300  0.90865000  1
  C  C15  1  0.55323400  0.58044300  0.40865000  1
  C  C16  1  0.29408100  0.24689800  0.14888700  1
  C  C17  1  0.20591900  0.24689800  0.64888700  1
  C  C18  1  0.70591900  0.75310200  0.85111300  1
  C  C19  1  0.79408100  0.75310200  0.35111300  1
  C  C20  1  0.26550800  0.22892100  0.30831200  1
  C  C21  1  0.23449200  0.22892100  0.80831200  1
  C  C22  1  0.73449200  0.77107900  0.69168800  1
  C  C23  1  0.76550800  0.77107900  0.19168800  1
  C  C24  1  0.32014300  0.35269600  0.24780300  1
  C  C25  1  0.17985700  0.35269600  0.74780300  1
  C  C26  1  0.67985700  0.64730400  0.75219700  1
  C  C27  1  0.82014300  0.64730400  0.25219700  1
  Cl  Cl0  1  0.93719200  0.59513600  0.48998300  1
  Cl  Cl1  1  0.56280800  0.59513600  0.98998300  1
  Cl  Cl2  1  0.06280800  0.40486400  0.51001700  1
  Cl  Cl3  1  0.43719200  0.40486400  0.01001700  1
  Cl  Cl4  1  0.18225000  0.62375800  0.21710700  1
  Cl  Cl5  1  0.31775000  0.62375800  0.71710700  1
  Cl  Cl6  1  0.81775000  0.37624200  0.78289300  1
  Cl  Cl7  1  0.68225000  0.37624200  0.28289300  1
loop_
_geom_bond_atom_site_label_1
_geom_bond_atom_site_label_2
_geom_bond_distance
_geom_bond_site_symmetry_2
C0 Si4 1.800883 1_555
C0 Si0 1.825481 1_555
C0 Sb0 2.114881 1_545
C1 Si5 1.800883 1_555
C1 Si1 1.825481 1_555
C1 Sb1 2.114881 1_546
C2 Si6 1.800883 1_555
C2 Si2 1.825481 1_555
C2 Sb2 2.114881 1_565
C3 Si7 1.800883 1_555
C3 Si3 1.825481 1_555
C3 Sb3 2.114881 1_564
C4 C8 1.402099 1_655
C4 Sb2 2.201965 1_555
C5 C9 1.402099 1_555
C5 Sb3 2.201965 1_555
C6 Sb0 2.201965 1_555
C7 Sb1 2.201965 1_555
C8 Si0 1.856495 1_555
C9 Si1 1.856495 1_555
C10 C6 1.402099 1_655
C10 C14 1.431437 1_555
C10 Si2 1.856495 1_555
C11 C7 1.402099 1_555
C11 C15 1.431437 1_555
C11 Si3 1.856495 1_555
C12 C6 1.401719 1_554
C12 C8 1.431437 1_555
C12 Si0 1.822986 1_555
C13 C7 1.401719 1_555
C13 C9 1.431437 1_555
C13 Si1 1.822986 1_555
C14 C4 1.401719 1_556
C14 Si2 1.822986 1_555
C15 C5 1.401719 1_555
C15 Si3 1.822986 1_555
C16 C20 1.390569 1_555
C16 C24 1.410633 1_555
C16 Si5 1.898613 1_554
C17 C21 1.390569 1_555
C17 C25 1.410633 1_555
C17 Si4 1.898613 1_555
C18 C22 1.390569 1_555
C18 C26 1.410633 1_555
C18 Si7 1.898613 1_556
C19 C23 1.390569 1_555
C19 C27 1.410633 1_555
C19 Si6 1.898613 1_555
C20 C24 1.396022 1_555
C20 Si4 1.902358 1_555
C21 C25 1.396022 1_555
C21 Si5 1.902358 1_555
C22 C26 1.396022 1_555
C22 Si6 1.902358 1_555
C23 C27 1.396022 1_555
C23 Si7 1.902358 1_555
C24 Sb1 2.344734 1_555
C25 Sb0 2.344734 1_555
C26 Sb3 2.344734 1_555
C27 Sb2 2.344734 1_555
Cl0 Si2 2.085752 1_555
Cl1 Si3 2.085752 1_556
Cl2 Si0 2.085752 1_555
Cl3 Si1 2.085752 1_554
Cl4 Si4 2.101933 1_555
Cl5 Si5 2.101933 1_555
Cl6 Si6 2.101933 1_555
Cl7 Si7 2.101933 1_555
