# generated using pymatgen
data_Zn3Co3(AsO4)4
_symmetry_space_group_name_H-M   'P 1'
_cell_length_a   5.21234300
_cell_length_b   8.59575400
_cell_length_c   15.94207647
_cell_angle_alpha   69.10809976
_cell_angle_beta   90.00000000
_cell_angle_gamma   90.00000000
_symmetry_Int_Tables_number   1
_chemical_formula_structural   Zn3Co3(AsO4)4
_chemical_formula_sum   'Zn6 Co6 As8 O32'
_cell_volume   667.30938920
_cell_formula_units_Z   2
loop_
 _symmetry_equiv_pos_site_id
 _symmetry_equiv_pos_as_xyz
  1  'x, y, z'
loop_
 _atom_site_type_symbol
 _atom_site_label
 _atom_site_symmetry_multiplicity
 _atom_site_fract_x
 _atom_site_fract_y
 _atom_site_fract_z
 _atom_site_occupancy
  Zn  Zn0  1  0.55129800  0.29919400  0.21763900  1
  Zn  Zn1  1  0.05129800  0.70080600  0.28236100  1
  Zn  Zn2  1  0.44870200  0.70080600  0.78236100  1
  Zn  Zn3  1  0.94870200  0.29919400  0.71763900  1
  Zn  Zn4  1  0.50000000  0.00000000  0.50000000  1
  Zn  Zn5  1  0.00000000  0.00000000  0.00000000  1
  Co  Co0  1  0.49140700  0.20804100  0.62561200  1
  Co  Co1  1  0.50859300  0.79195900  0.37438800  1
  Co  Co2  1  0.99140700  0.79195900  0.87438800  1
  Co  Co3  1  0.00859300  0.20804100  0.12561200  1
  Co  Co4  1  0.00000000  0.50000000  0.50000000  1
  Co  Co5  1  0.50000000  0.50000000  0.00000000  1
  As  As0  1  0.99034300  0.03650500  0.35335200  1
  As  As1  1  0.49128600  0.41570900  0.39603700  1
  As  As2  1  0.99128600  0.58429100  0.10396300  1
  As  As3  1  0.00871400  0.41570900  0.89603700  1
  As  As4  1  0.00965700  0.96349500  0.64664800  1
  As  As5  1  0.50871400  0.58429100  0.60396300  1
  As  As6  1  0.50965700  0.03650500  0.85335200  1
  As  As7  1  0.49034300  0.96349500  0.14664800  1
  O  O0  1  0.40991800  0.81112400  0.25000500  1
  O  O1  1  0.92783600  0.75308300  0.00851800  1
  O  O2  1  0.40134800  0.39337300  0.29921100  1
  O  O3  1  0.38684700  0.15413400  0.15281900  1
  O  O4  1  0.59865200  0.60662700  0.70078900  1
  O  O5  1  0.09008200  0.81112400  0.75000500  1
  O  O6  1  0.90134800  0.60662700  0.20078900  1
  O  O7  1  0.71485400  0.50938100  0.89499600  1
  O  O8  1  0.67625300  0.09281100  0.92875900  1
  O  O9  1  0.59008200  0.18887600  0.74999500  1
  O  O10  1  0.11315300  0.15413400  0.65281900  1
  O  O11  1  0.28514600  0.49061900  0.10500400  1
  O  O12  1  0.27929900  0.57282600  0.40529800  1
  O  O13  1  0.32374700  0.90718900  0.07124100  1
  O  O14  1  0.68090400  0.98585400  0.63029200  1
  O  O15  1  0.18090400  0.01414600  0.86970800  1
  O  O16  1  0.77929900  0.42717400  0.09470200  1
  O  O17  1  0.09865200  0.39337300  0.79921100  1
  O  O18  1  0.17625300  0.90718900  0.57124100  1
  O  O19  1  0.21485400  0.49061900  0.60500400  1
  O  O20  1  0.81909600  0.98585400  0.13029200  1
  O  O21  1  0.31909600  0.01414600  0.36970800  1
  O  O22  1  0.07216400  0.24691700  0.99148200  1
  O  O23  1  0.42783600  0.24691700  0.49148200  1
  O  O24  1  0.72070100  0.42717400  0.59470200  1
  O  O25  1  0.90991800  0.18887600  0.24999500  1
  O  O26  1  0.61315300  0.84586600  0.84718100  1
  O  O27  1  0.82374700  0.09281100  0.42875900  1
  O  O28  1  0.57216400  0.75308300  0.50851800  1
  O  O29  1  0.78514600  0.50938100  0.39499600  1
  O  O30  1  0.22070100  0.57282600  0.90529800  1
  O  O31  1  0.88684700  0.84586600  0.34718100  1
loop_
_geom_bond_atom_site_label_1
_geom_bond_atom_site_label_2
_geom_bond_distance
_geom_bond_site_symmetry_2
Co0 O9 1.997668 1_555
Co0 O10 2.036336 1_555
Co0 O23 2.069833 1_555
Co0 O14 2.127703 1_545
Co0 O24 2.134767 1_555
Co1 O0 1.997668 1_555
Co1 O31 2.036336 1_555
Co1 O28 2.069833 1_555
Co1 O21 2.127703 1_565
Co1 O12 2.134767 1_555
Co2 O5 1.997668 1_655
Co2 O26 2.036336 1_555
Co2 O1 2.069833 1_556
Co2 O15 2.127703 1_665
Co2 O30 2.134767 1_655
Co3 O25 1.997668 1_455
Co3 O3 2.036336 1_555
Co3 O22 2.069833 1_554
Co3 O20 2.127703 1_445
Co3 O16 2.134767 1_455
Co4 O19 1.991634 1_555
Co4 O29 1.991634 1_455
Co4 O12 2.028919 1_555
Co4 O24 2.028919 1_455
Co5 O11 1.991634 1_555
Co5 O7 1.991634 1_554
Co5 O16 2.028919 1_555
Co5 O30 2.028919 1_554
As0 O27 1.687723 1_555
As0 O21 1.733643 1_655
As0 O25 1.751279 1_555
As0 O31 1.760955 1_545
As1 O2 1.688407 1_555
As1 O23 1.719063 1_555
As1 O29 1.727763 1_555
As1 O12 1.791333 1_555
As2 O6 1.688407 1_555
As2 O1 1.719063 1_555
As2 O11 1.727763 1_655
As2 O16 1.791333 1_555
As3 O17 1.688407 1_555
As3 O22 1.719063 1_555
As3 O7 1.727763 1_455
As3 O30 1.791333 1_555
As4 O18 1.687723 1_555
As4 O14 1.733643 1_455
As4 O5 1.751279 1_555
As4 O10 1.760955 1_565
As5 O4 1.688407 1_555
As5 O28 1.719063 1_555
As5 O19 1.727763 1_555
As5 O24 1.791333 1_555
As6 O8 1.687723 1_555
As6 O15 1.733643 1_555
As6 O9 1.751279 1_555
As6 O26 1.760955 1_545
As7 O13 1.687723 1_555
As7 O20 1.733643 1_555
As7 O0 1.751279 1_555
As7 O3 1.760955 1_565
O0 Zn1 2.076179 1_555
O1 Zn5 2.111660 1_665
O2 Zn0 1.925664 1_555
O3 Zn0 2.067929 1_555
O4 Zn2 1.925664 1_555
O5 Zn2 2.076179 1_555
O6 Zn1 1.925664 1_655
O7 Zn2 2.397719 1_555
O8 Zn5 2.031677 1_656
O9 Zn3 2.076179 1_555
O10 Zn3 2.067929 1_455
O11 Zn0 2.397719 1_555
O12 Zn1 2.219441 1_555
O13 Zn5 2.031677 1_565
O14 Zn4 2.244599 1_565
O15 Zn5 2.244599 1_556
O16 Zn0 2.219441 1_555
O17 Zn3 1.925664 1_455
O18 Zn4 2.031677 1_565
O19 Zn3 2.397719 1_455
O20 Zn5 2.244599 1_665
O21 Zn4 2.244599 1_555
O22 Zn5 2.111660 1_556
O23 Zn4 2.111660 1_555
O24 Zn3 2.219441 1_555
O25 Zn0 2.076179 1_555
O26 Zn2 2.067929 1_555
O27 Zn4 2.031677 1_555
O28 Zn4 2.111660 1_565
O29 Zn1 2.397719 1_655
O30 Zn2 2.219441 1_555
O31 Zn1 2.067929 1_655
