# generated using pymatgen
data_NaCaAsO4
_symmetry_space_group_name_H-M   'P 1'
_cell_length_a   5.31755900
_cell_length_b   6.74754900
_cell_length_c   11.63320300
_cell_angle_alpha   90.00000000
_cell_angle_beta   90.00000000
_cell_angle_gamma   90.00000000
_symmetry_Int_Tables_number   1
_chemical_formula_structural   NaCaAsO4
_chemical_formula_sum   'Na4 Ca4 As4 O16'
_cell_volume   417.40502290
_cell_formula_units_Z   4
loop_
 _symmetry_equiv_pos_site_id
 _symmetry_equiv_pos_as_xyz
  1  'x, y, z'
loop_
 _atom_site_type_symbol
 _atom_site_label
 _atom_site_symmetry_multiplicity
 _atom_site_fract_x
 _atom_site_fract_y
 _atom_site_fract_z
 _atom_site_occupancy
  Na  Na0  1  0.00000000  0.00000000  0.50000000  1
  Na  Na1  1  0.50000000  0.50000000  0.00000000  1
  Na  Na2  1  0.00000000  0.50000000  0.50000000  1
  Na  Na3  1  0.50000000  0.00000000  0.00000000  1
  Ca  Ca0  1  0.50567300  0.75000000  0.28059800  1
  Ca  Ca1  1  0.99432700  0.75000000  0.78059800  1
  Ca  Ca2  1  0.49432700  0.25000000  0.71940200  1
  Ca  Ca3  1  0.00567300  0.25000000  0.21940200  1
  As  As0  1  0.43222000  0.75000000  0.59804400  1
  As  As1  1  0.06778000  0.75000000  0.09804400  1
  As  As2  1  0.56778000  0.25000000  0.40195600  1
  As  As3  1  0.93222000  0.25000000  0.90195600  1
  O  O0  1  0.31482300  0.75000000  0.46011500  1
  O  O1  1  0.18517700  0.75000000  0.96011500  1
  O  O2  1  0.68517700  0.25000000  0.53988500  1
  O  O3  1  0.81482300  0.25000000  0.03988500  1
  O  O4  1  0.75412800  0.75000000  0.60439600  1
  O  O5  1  0.74587200  0.75000000  0.10439600  1
  O  O6  1  0.24587200  0.25000000  0.39560400  1
  O  O7  1  0.25412800  0.25000000  0.89560400  1
  O  O8  1  0.29493300  0.55019700  0.66846500  1
  O  O9  1  0.20506700  0.94980300  0.16846500  1
  O  O10  1  0.70506700  0.05019700  0.33153500  1
  O  O11  1  0.79493300  0.44980300  0.83153500  1
  O  O12  1  0.70506700  0.44980300  0.33153500  1
  O  O13  1  0.79493300  0.05019700  0.83153500  1
  O  O14  1  0.29493300  0.94980300  0.66846500  1
  O  O15  1  0.20506700  0.55019700  0.16846500  1
loop_
_geom_bond_atom_site_label_1
_geom_bond_atom_site_label_2
_geom_bond_distance
_geom_bond_site_symmetry_2
Na0 O2 2.421457 1_455
Na0 O0 2.421457 1_545
Na0 O6 2.455585 1_555
Na0 O4 2.455585 1_445
Na0 O10 2.532810 1_455
Na0 O14 2.532810 1_545
Na1 O1 2.421457 1_554
Na1 O3 2.421457 1_555
Na1 O5 2.455585 1_555
Na1 O7 2.455585 1_554
Na1 O11 2.532810 1_554
Na1 O15 2.532810 1_555
Na2 O2 2.421457 1_455
Na2 O0 2.421457 1_555
Na2 O4 2.455585 1_455
Na2 O6 2.455585 1_555
Na2 O12 2.532810 1_455
Na2 O8 2.532810 1_555
Na3 O1 2.421457 1_544
Na3 O3 2.421457 1_555
Na3 O5 2.455585 1_545
Na3 O7 2.455585 1_554
Na3 O13 2.532810 1_554
Na3 O9 2.532810 1_545
Ca0 O0 2.321890 1_555
Ca0 O10 2.361858 1_565
Ca0 O12 2.361858 1_555
Ca0 O5 2.415177 1_555
Ca0 O15 2.464628 1_555
Ca0 O9 2.464628 1_555
Ca1 O1 2.321890 1_655
Ca1 O13 2.361858 1_565
Ca1 O11 2.361858 1_555
Ca1 O4 2.415177 1_555
Ca1 O14 2.464628 1_655
Ca1 O8 2.464628 1_655
Ca2 O2 2.321890 1_555
Ca2 O8 2.361858 1_555
Ca2 O14 2.361858 1_545
Ca2 O7 2.415177 1_555
Ca2 O11 2.464628 1_555
Ca2 O13 2.464628 1_555
Ca3 O3 2.321890 1_455
Ca3 O15 2.361858 1_555
Ca3 O9 2.361858 1_545
Ca3 O6 2.415177 1_555
Ca3 O12 2.464628 1_455
Ca3 O10 2.464628 1_455
As0 O4 1.713359 1_555
As0 O0 1.721716 1_555
As0 O8 1.738293 1_555
As0 O14 1.738293 1_555
As1 O5 1.713359 1_455
As1 O1 1.721716 1_554
As1 O15 1.738293 1_555
As1 O9 1.738293 1_555
As2 O6 1.713359 1_555
As2 O2 1.721716 1_555
As2 O10 1.738293 1_555
As2 O12 1.738293 1_555
As3 O7 1.713359 1_655
As3 O3 1.721716 1_556
As3 O13 1.738293 1_555
As3 O11 1.738293 1_555
